data_POSCAR
  _audit_creation_date              2014-09-24
  _audit_creation_method            'ToBaCCo'
  _symmetry_space_group_name_H-M    'P1'
  _symmetry_Int_Tables_number       1
  _symmetry_cell_setting            triclinic
  loop_
  _symmetry_equiv_pos_as_xyz
 x,y,z
_cell_length_a 53.2426
_cell_length_b 54.9722
_cell_length_c 55.5323
_cell_angle_alpha 90.033900
_cell_angle_beta 90.015800
_cell_angle_gamma 90.053900
loop_
  _atom_site_label
  _atom_site_type_symbol
  _atom_site_fract_x
  _atom_site_fract_y
  _atom_site_fract_z
C1 C 0.36240 0.26337 -0.00964
 C2 C 0.36364 0.26347 0.01502
 C3 C 0.35796 0.28692 0.02226
 N4 N 0.35336 0.30121 0.00294
 C5 C 0.35649 0.28692 -0.01664
 C6 C 0.35934 0.29551 0.04616
 C7 C 0.34677 0.31688 0.05341
 C8 C 0.35042 0.32912 0.07498
 C9 C 0.33270 0.34735 0.07587
 C10 C 0.31907 0.34594 0.05462
 N11 N 0.32771 0.32730 0.04113
 C12 C 0.29780 0.36005 0.04888
 C13 C 0.28819 0.36142 0.02524
 C14 C 0.26509 0.37112 0.01903
 C15 C 0.26404 0.37102 -0.00562
 C16 C 0.28689 0.36205 -0.01374
 N17 N 0.30149 0.35584 0.00520
 C18 C 0.29492 0.36153 -0.03812
 C19 C 0.31536 0.34664 -0.04535
 C20 C 0.32998 0.35033 -0.06570
 C21 C 0.34731 0.33182 -0.06641
 C22 C 0.34282 0.31718 -0.04651
 N23 N 0.32353 0.32657 -0.03356
 C24 C 0.35622 0.29564 -0.04065
 H25 H 0.36585 0.24782 -0.02113
 H26 H 0.36830 0.24810 0.02634
 H27 H 0.31509 0.31859 -0.01857
 H28 H 0.36406 0.32511 0.08886
 H29 H 0.33001 0.35992 0.09064
 H30 H 0.25053 0.37774 0.03091
 H31 H 0.24834 0.37728 -0.01633
 H32 H 0.36190 0.32975 -0.07980
 H33 H 0.31915 0.32031 0.02575
 H34 H 0.32870 0.36514 -0.07847
 C35 C 0.60875 0.71368 0.01206
 C36 C 0.60930 0.71303 -0.01263
 C37 C 0.63210 0.70274 -0.01903
 N38 N 0.64549 0.69711 0.00087
 C39 C 0.63122 0.70375 0.01990
 C40 C 0.64106 0.70045 -0.04285
 C41 C 0.66277 0.68700 -0.04885
 C42 C 0.67580 0.68920 -0.07032
 C43 C 0.69499 0.67251 -0.06959
 C44 C 0.69295 0.66027 -0.04780
 N45 N 0.67329 0.66933 -0.03521
 C46 C 0.70874 0.64093 -0.04024
 C47 C 0.70986 0.63331 -0.01586
 C48 C 0.71940 0.61118 -0.00805
 C49 C 0.71831 0.61140 0.01657
 C50 C 0.70794 0.63354 0.02304
 N51 N 0.70270 0.64694 0.00322
 C52 C 0.70473 0.64158 0.04699
 C53 C 0.68975 0.66182 0.05301
 C54 C 0.68992 0.67355 0.07511
 C55 C 0.67123 0.69078 0.07430
 C56 C 0.66016 0.68901 0.05175
 N57 N 0.67158 0.67133 0.03889
 C58 C 0.63891 0.70234 0.04421
 H59 H 0.59359 0.72078 0.02297
 H60 H 0.59467 0.71958 -0.02450
 H61 H 0.66537 0.66412 0.02263
 H62 H 0.67202 0.70169 -0.08494
 H63 H 0.70893 0.66984 -0.08350
 H64 H 0.72626 0.59629 -0.01897
 H65 H 0.72432 0.59685 0.02835
 H66 H 0.66615 0.70299 0.08880
 H67 H 0.66596 0.66223 -0.01933
 H68 H 0.70204 0.66986 0.09032
 C69 C 0.61523 0.27967 0.98627
 C70 C 0.61570 0.27940 1.01095
 C71 C 0.63695 0.29222 1.01784
 N72 N 0.64950 0.30024 0.99826
 C73 C 0.63623 0.29262 0.97893
 C74 C 0.64558 0.29454 1.04174
 C75 C 0.66547 0.31013 1.04844
 C76 C 0.67843 0.30865 1.07002
 C77 C 0.69541 0.32747 1.07015
 C78 C 0.69211 0.34022 1.04879
 N79 N 0.67390 0.32938 1.03556
 C80 C 0.70525 0.36174 1.04233
 C81 C 0.70670 0.36967 1.01802
 C82 C 0.71417 0.39268 1.01062
 C83 C 0.71414 0.39250 0.98596
 C84 C 0.70619 0.36956 0.97901
 N85 N 0.70161 0.35559 0.99860
 C86 C 0.70452 0.36156 0.95489
 C87 C 0.69107 0.34055 0.94793
 C88 C 0.69240 0.32964 0.92544
 C89 C 0.67501 0.31110 0.92533
 C90 C 0.66363 0.31118 0.94778
 N91 N 0.67346 0.32925 0.96140
 C92 C 0.64383 0.29561 0.95476
 H93 H 0.60120 0.27105 0.97502
 H94 H 0.60213 0.27052 1.02250
 H95 H 0.66663 0.33530 0.97788
 H96 H 0.67599 0.29530 1.08415
 H97 H 0.70874 0.33126 1.08438
 H98 H 0.71893 0.40815 1.02178
 H99 H 0.71909 0.40764 0.97444
 H100 H 0.67108 0.29904 0.91038
 H101 H 0.66589 0.33623 1.01987
 H102 H 0.70443 0.33468 0.91055
 C103 C 0.26059 0.62997 1.00889
 C104 C 0.26049 0.63002 0.98422
 C105 C 0.28341 0.63950 0.97709
 N106 N 0.29770 0.64486 0.99656
 C107 C 0.28391 0.63871 1.01608
 C108 C 0.29184 0.64097 0.95305
 C109 C 0.31290 0.65489 0.94634
 C110 C 0.32542 0.65340 0.92449
 C111 C 0.34327 0.67158 0.92454
 C112 C 0.34077 0.68383 0.94625
 N113 N 0.32229 0.67348 0.95939
 C114 C 0.35388 0.70506 0.95303
 C115 C 0.35345 0.71364 0.97694
 C116 C 0.35967 0.73703 0.98399
 C117 C 0.35954 0.73705 1.00867
 C118 C 0.35367 0.71352 1.01582
 N119 N 0.34957 0.69931 0.99638
 C120 C 0.35480 0.70469 1.03974
 C121 C 0.34140 0.68342 1.04644
 C122 C 0.34669 0.66892 1.06624
 C123 C 0.32930 0.65042 1.06629
 C124 C 0.31378 0.65405 1.04653
 N125 N 0.32148 0.67406 1.03437
 C126 C 0.29301 0.63915 1.04012
 H127 H 0.24533 0.62384 1.02024
 H128 H 0.24531 0.62367 0.97289
 H129 H 0.31245 0.68197 1.01966
 H130 H 0.32189 0.64080 0.90990
 H131 H 0.35623 0.67554 0.91006
 H132 H 0.36408 0.75237 0.97253
 H133 H 0.36384 0.75248 1.02008
 H134 H 0.32859 0.63564 1.07914
 H135 H 0.31447 0.68049 0.97512
 H136 H 0.36189 0.67103 1.07901
 C137 C 0.01438 0.36948 0.26749
 C138 C -0.01132 0.36954 0.26748
 C139 C -0.01893 0.36074 0.28976
 N140 N 0.00137 0.35466 0.30309
 C141 C 0.02173 0.35995 0.28946
 C142 C -0.04420 0.35958 0.29790
 C143 C -0.05126 0.34486 0.31788
 C144 C -0.07381 0.34664 0.33027
 C145 C -0.07416 0.32823 0.34694
 C146 C -0.05135 0.31612 0.34513
 N147 N -0.03758 0.32634 0.32724
 C148 C -0.04459 0.29492 0.35826
 C149 C -0.01929 0.28714 0.36084
 C150 C -0.01156 0.26717 0.37427
 C151 C 0.01412 0.26783 0.37499
 C152 C 0.02147 0.28813 0.36200
 N153 N 0.00102 0.30003 0.35360
 C154 C 0.04656 0.29642 0.35997
 C155 C 0.05395 0.31629 0.34542
 C156 C 0.07766 0.32684 0.34554
 C157 C 0.07773 0.34435 0.32787
 C158 C 0.05408 0.34405 0.31745
 N159 N 0.03981 0.32677 0.32808
 C160 C 0.04687 0.35796 0.29727
 H161 H 0.02622 0.37568 0.25290
 H162 H -0.02305 0.37548 0.25270
 H163 H 0.02252 0.32064 0.32191
 H164 H -0.08872 0.35970 0.32754
 H165 H -0.08970 0.32435 0.35882
 H166 H -0.02307 0.25403 0.38364
 H167 H 0.02589 0.25516 0.38470
 H168 H 0.09359 0.35563 0.32296
 H169 H -0.02111 0.31931 0.31997
 H170 H 0.09351 0.32212 0.35679
 C171 C -0.00585 0.63292 0.73477
 C172 C 0.01984 0.63258 0.73382
 C173 C 0.02647 0.64138 0.71134
 N174 N 0.00567 0.64665 0.69833
 C175 C -0.01418 0.64121 0.71256
 C176 C 0.05123 0.64236 0.70233
 C177 C 0.05772 0.65545 0.68142
 C178 C 0.08024 0.65336 0.66908
 C179 C 0.07982 0.67057 0.65109
 C180 C 0.05719 0.68290 0.65317
 N181 N 0.04387 0.67355 0.67171
 C182 C 0.04995 0.70317 0.63911
 C183 C 0.02499 0.71197 0.63858
 C184 C 0.01747 0.73357 0.62793
 C185 C -0.00825 0.73398 0.62887
 C186 C -0.01561 0.71280 0.64043
 N187 N 0.00472 0.69935 0.64628
 C188 C -0.04066 0.70478 0.64290
 C189 C -0.04744 0.68444 0.65706
 C190 C -0.07008 0.67210 0.65540
 C191 C -0.06970 0.65428 0.67273
 C192 C -0.04713 0.65662 0.68507
 N193 N -0.03360 0.67499 0.67525
 C194 C -0.03969 0.64232 0.70517
 H195 H -0.01710 0.62746 0.75007
 H196 H 0.03213 0.62646 0.74809
 H197 H -0.01697 0.68223 0.68206
 H198 H 0.09551 0.64094 0.67279
 H199 H 0.09466 0.67381 0.63817
 H200 H 0.02923 0.74741 0.61988
 H201 H -0.02010 0.74807 0.62143
 H202 H -0.08443 0.64106 0.67573
 H203 H 0.02762 0.68090 0.67913
 H204 H -0.08532 0.67538 0.64294
 C205 C 0.98530 0.63435 0.26541
 C206 C 1.01095 0.63536 0.26397
 C207 C 1.01946 0.64554 0.28540
 N208 N 0.99969 0.65037 0.29994
 C209 C 0.97884 0.64349 0.28780
 C210 C 1.04491 0.64680 0.29294
 C211 C 1.05213 0.65891 0.31450
 C212 C 1.07515 0.65645 0.32602
 C213 C 1.07526 0.67253 0.34495
 C214 C 1.05273 0.68516 0.34413
 N215 N 1.03866 0.67658 0.32563
 C216 C 1.04596 0.70467 0.35970
 C217 C 1.02058 0.71234 0.36197
 C218 C 1.01278 0.73429 0.37186
 C219 C 0.98709 0.73359 0.37285
 C220 C 0.97990 0.71160 0.36281
 N221 N 1.00036 0.69861 0.35619
 C222 C 0.95499 0.70283 0.36184
 C223 C 0.94804 0.68260 0.34767
 C224 C 0.92560 0.66993 0.34958
 C225 C 0.92554 0.65284 0.33147
 C226 C 0.94775 0.65584 0.31875
 N227 N 0.96132 0.67402 0.32875
 C228 C 0.95435 0.64296 0.29764
 H229 H 0.97289 0.62702 0.25178
 H230 H 1.02185 0.62844 0.24907
 H231 H 0.97735 0.68200 0.32150
 H232 H 1.09057 0.64460 0.32132
 H233 H 1.09044 0.67471 0.35773
 H234 H 1.02438 0.74925 0.37795
 H235 H 0.97519 0.74769 0.38017
 H236 H 0.91063 0.63994 0.32792
 H237 H 1.02204 0.68425 0.31934
 H238 H 0.91067 0.67278 0.36248
 C239 C 1.00851 0.26588 0.62838
 C240 C 0.98281 0.26650 0.62790
 C241 C 0.97582 0.28884 0.63728
 N242 N 0.99640 0.30208 0.64307
 C243 C 1.01648 0.28814 0.63742
 C244 C 0.95091 0.29752 0.63845
 C245 C 0.94416 0.31845 0.65160
 C246 C 0.92163 0.33085 0.64941
 C247 C 0.92179 0.34882 0.66669
 C248 C 0.94425 0.34660 0.67918
 N249 N 0.95774 0.32804 0.66984
 C250 C 0.95111 0.36044 0.69962
 C251 C 0.97576 0.36044 0.70913
 C252 C 0.98262 0.37033 0.73115
 C253 C 1.00829 0.36889 0.73246
 C254 C 1.01625 0.35790 0.71133
 N255 N 0.99636 0.35283 0.69707
 C256 C 1.04154 0.35523 0.70425
 C257 C 1.04876 0.34214 0.68349
 C258 C 1.07168 0.34446 0.67191
 C259 C 1.07163 0.32801 0.65328
 C260 C 1.04899 0.31545 0.65441
 N261 N 1.03507 0.32440 0.67280
 C262 C 1.04191 0.29581 0.63918
 H263 H 1.02000 0.25074 0.62259
 H264 H 0.97073 0.25212 0.62132
 H265 H 1.01831 0.31715 0.67927
 H266 H 0.90652 0.32723 0.63688
 H267 H 0.90687 0.36177 0.66988
 H268 H 0.97046 0.37815 0.74470
 H269 H 1.01973 0.37566 0.74711
 H270 H 1.08665 0.32567 0.64037
 H271 H 0.97388 0.32044 0.67722
 H272 H 1.08683 0.35683 0.67623
 C273 C 0.28986 0.01484 0.39095
 C274 C 0.29077 -0.01008 0.39097
 C275 C 0.30070 -0.01697 0.36892
 N276 N 0.30603 0.00288 0.35551
 C277 C 0.29946 0.02235 0.36898
 C278 C 0.30264 -0.04121 0.36070
 C279 C 0.31510 -0.04771 0.33918
 C280 C 0.31196 -0.06969 0.32733
 C281 C 0.32763 -0.06924 0.30769
 C282 C 0.34023 -0.04711 0.30822
 N283 N 0.33242 -0.03407 0.32751
 C284 C 0.35864 -0.03962 0.29128
 C285 C 0.36629 -0.01498 0.28910
 C286 C 0.38784 -0.00718 0.27731
 C287 C 0.38763 0.01769 0.27795
 C288 C 0.36619 0.02435 0.29041
 N289 N 0.35313 0.00438 0.29727
 C290 C 0.35822 0.04860 0.29376
 C291 C 0.33913 0.05527 0.31003
 C292 C 0.32739 0.07775 0.31064
 C293 C 0.31089 0.07719 0.32971
 C294 C 0.31313 0.05441 0.34022
 N295 N 0.33054 0.04125 0.32823
 C296 C 0.30010 0.04673 0.36101
 H297 H 0.28271 0.02615 0.40536
 H298 H 0.28445 -0.02178 0.40542
 H299 H 0.33801 0.02466 0.33358
 H300 H 0.29943 -0.08441 0.33215
 H301 H 0.32931 -0.08354 0.29439
 H302 H 0.40230 -0.01826 0.26913
 H303 H 0.40170 0.02954 0.27018
 H304 H 0.29875 0.09194 0.33528
 H305 H 0.34017 -0.01782 0.33363
 H306 H 0.33045 0.09298 0.29864
 C307 C 0.71131 0.01434 0.60892
 C308 C 0.71168 -0.01057 0.60905
 C309 C 0.70397 -0.01787 0.63181
 N310 N 0.69842 0.00185 0.64543
 C311 C 0.70295 0.02152 0.63143
 C312 C 0.70270 -0.04233 0.63997
 C313 C 0.68901 -0.04866 0.66101
 C314 C 0.69226 -0.06991 0.67418
 C315 C 0.67462 -0.06970 0.69224
 C316 C 0.66128 -0.04822 0.68986
 N317 N 0.67020 -0.03542 0.67087
 C318 C 0.64047 -0.04162 0.70422
 C319 C 0.63141 -0.01755 0.70562
 C320 C 0.60895 -0.01071 0.71626
 C321 C 0.60830 0.01423 0.71580
 C322 C 0.63040 0.02176 0.70491
 N323 N 0.64449 0.00230 0.69870
 C324 C 0.63807 0.04621 0.70232
 C325 C 0.65872 0.05310 0.68787
 C326 C 0.67026 0.07572 0.68838
 C327 C 0.68818 0.07560 0.67052
 C328 C 0.68706 0.05292 0.65964
 N329 N 0.66909 0.03932 0.67031
 C330 C 0.70089 0.04595 0.63909
 H331 H 0.71631 0.02586 0.59387
 H332 H 0.71679 -0.02197 0.59394
 H333 H 0.66232 0.02274 0.66403
 H334 H 0.70596 -0.08411 0.67113
 H335 H 0.67196 -0.08376 0.70563
 H336 H 0.59461 -0.02244 0.72375
 H337 H 0.59334 0.02550 0.72282
 H338 H 0.70039 0.09063 0.66586
 H339 H 0.66213 -0.01987 0.66350
 H340 H 0.66602 0.09083 0.70020
 C341 C 0.38711 1.01381 0.72046
 C342 C 0.38736 0.98888 0.72134
 C343 C 0.36557 0.98104 0.71007
 N344 N 0.35196 1.00030 0.70248
 C345 C 0.36510 1.02034 0.70881
 C346 C 0.35777 0.95655 0.70839
 C347 C 0.33784 0.94883 0.69343
 C348 C 0.32671 0.92602 0.69423
 C349 C 0.30942 0.92524 0.67581
 C350 C 0.31047 0.94761 0.66432
 N351 N 0.32785 0.96184 0.67512
 C352 C 0.29702 0.95379 0.64330
 C353 C 0.29470 0.97797 0.63500
 C354 C 0.28652 0.98442 0.61221
 C355 C 0.28575 1.00931 0.61169
 C356 C 0.29313 1.01732 0.63433
 N357 N 0.29879 0.99808 0.64853
 C358 C 0.29410 1.04201 0.64178
 C359 C 0.30769 1.04924 0.66260
 C360 C 0.30446 1.07109 0.67481
 C361 C 0.32226 1.07183 0.69271
 C362 C 0.33559 1.05026 0.69127
 N363 N 0.32656 1.03652 0.67297
 C364 C 0.35647 1.04441 0.70581
 H365 H 0.40138 1.02574 0.72777
 H366 H 0.40188 0.97780 0.72943
 H367 H 0.33468 1.02069 0.66624
 H368 H 0.33082 0.91136 0.70662
 H369 H 0.29764 0.90987 0.67122
 H370 H 0.28188 0.97244 0.59739
 H371 H 0.28065 1.02023 0.59625
 H372 H 0.32503 1.08655 0.70539
 H373 H 0.33450 0.97835 0.66860
 H374 H 0.29075 1.08513 0.67116
 C375 C 0.63767 1.00653 0.26319
 C376 C 0.63688 0.98163 0.26370
 C377 C 0.64274 0.97485 0.28703
 N378 N 0.64700 0.99467 0.30086
 C379 C 0.64348 1.01410 0.28639
 C380 C 0.64118 0.95095 0.29603
 C381 C 0.65410 0.94389 0.31705
 C382 C 0.65082 0.92220 0.32936
 C383 C 0.66839 0.92195 0.34760
 C384 C 0.68156 0.94369 0.34607
 N385 N 0.67288 0.95679 0.32731
 C386 C 0.70236 0.95033 0.36035
 C387 C 0.71139 0.97448 0.36145
 C388 C 0.73417 0.98142 0.37133
 C389 C 0.73466 1.00633 0.37090
 C390 C 0.71177 1.01389 0.36155
 N391 N 0.69771 0.99434 0.35543
 C392 C 0.70322 1.03836 0.36064
 C393 C 0.68293 1.04511 0.34543
 C394 C 0.66783 1.06544 0.34853
 C395 C 0.65082 1.06555 0.32989
 C396 C 0.65592 1.04528 0.31585
 N397 N 0.67536 1.03277 0.32560
 C398 C 0.64268 1.03843 0.29472
 H399 H 0.63373 1.01783 0.24769
 H400 H 0.63215 0.96983 0.24875
 H401 H 0.68420 1.01762 0.31812
 H402 H 0.63747 0.90787 0.32545
 H403 H 0.67124 0.90730 0.36030
 H404 H 0.74890 0.96985 0.37828
 H405 H 0.75001 1.01758 0.37719
 H406 H 0.63596 1.07873 0.32742
 H407 H 0.68113 0.97246 0.32034
 H408 H 0.66854 1.07856 0.36305
 O409 O 0.81661 0.84976 0.52602
 O410 O 0.85010 0.81444 0.47977
 O411 O 0.81585 0.84807 0.47927
 O412 O 0.85078 0.81563 0.52668
 O413 O 0.82146 0.78724 0.52744
 O414 O 0.78588 0.82037 0.48108
 O415 O 0.82046 0.78637 0.48094
 O416 O 0.78730 0.82144 0.52783
 Cu417 Cu 0.83630 0.83478 0.50286
 Cu418 Cu 0.80078 0.80107 0.50444
 C419 C 0.79614 0.84177 0.53472
 C420 C 0.84111 0.79431 0.47255
 C421 C 0.79473 0.83991 0.47229
 C422 C 0.84229 0.79566 0.53485
 O423 O 0.14851 0.18257 0.47756
 O424 O 0.18037 0.14758 0.52514
 O425 O 0.14690 0.18244 0.52408
 O426 O 0.18092 0.14752 0.47847
 O427 O 0.21152 0.17460 0.47870
 O428 O 0.17774 0.20926 0.52573
 O429 O 0.21107 0.17455 0.52564
 O430 O 0.17867 0.21011 0.47898
 Cu431 Cu 0.16114 0.16230 0.50132
 Cu432 Cu 0.19787 0.19483 0.50232
 C433 C 0.15800 0.20250 0.47037
 C434 C 0.20134 0.15495 0.53333
 C435 C 0.15625 0.20190 0.53255
 C436 C 0.20195 0.15499 0.47068
 O437 O 0.18799 0.85084 0.47479
 O438 O 0.15347 0.81588 0.52046
 O439 O 0.18757 0.84993 0.52162
 O440 O 0.15357 0.81688 0.47429
 O441 O 0.18323 0.78885 0.47357
 O442 O 0.21748 0.82220 0.52117
 O443 O 0.18343 0.78812 0.52060
 O444 O 0.21769 0.82291 0.47429
 Cu445 Cu 0.16777 0.83626 0.49779
 Cu446 Cu 0.20346 0.80272 0.49731
 C447 C 0.20882 0.84298 0.46681
 C448 C 0.16242 0.79595 0.52818
 C449 C 0.20833 0.84182 0.52951
 C450 C 0.16227 0.79701 0.46617
 O451 O 0.85016 0.18178 0.52065
 O452 O 0.81644 0.14620 0.47507
 O453 O 0.85110 0.17992 0.47361
 O454 O 0.81600 0.14839 0.52127
 O455 O 0.78641 0.17641 0.51945
 O456 O 0.82216 0.20858 0.47225
 O457 O 0.78739 0.17471 0.47256
 O458 O 0.82103 0.21028 0.51900
 Cu459 Cu 0.83647 0.16135 0.49769
 Cu460 Cu 0.80131 0.19536 0.49560
 C461 C 0.84133 0.20198 0.52778
 C462 C 0.79595 0.15406 0.46636
 C463 C 0.84283 0.19974 0.46494
 C464 C 0.79506 0.15681 0.52835
 O465 O 0.47844 0.85362 0.82334
 O466 O 0.52733 0.81799 0.85366
 O467 O 0.52718 0.85244 0.82155
 O468 O 0.47890 0.81874 0.85508
 O469 O 0.47634 0.79190 0.82560
 O470 O 0.52574 0.82503 0.79255
 O471 O 0.52530 0.79025 0.82501
 O472 O 0.47697 0.82676 0.79385
 Cu473 Cu 0.50314 0.83845 0.84127
 Cu474 Cu 0.50099 0.80572 0.80632
 C475 C 0.46944 0.84648 0.80336
 C476 C 0.53441 0.79783 0.84482
 C477 C 0.53464 0.84461 0.80125
 C478 C 0.46942 0.79954 0.84614
 O479 O 0.53059 0.17579 0.14457
 O480 O 0.47862 0.14593 0.17615
 O481 O 0.48227 0.17961 0.14354
 O482 O 0.52705 0.14252 0.17773
 O483 O 0.52967 0.17102 0.20560
 O484 O 0.48238 0.20711 0.17253
 O485 O 0.48075 0.17315 0.20528
 O486 O 0.53138 0.20475 0.17207
 Cu487 Cu 0.50454 0.15815 0.15770
 Cu488 Cu 0.50628 0.19187 0.19173
 C489 C 0.53956 0.19562 0.15254
 C490 C 0.47095 0.15413 0.19621
 C491 C 0.47453 0.19961 0.15222
 C492 C 0.53597 0.15027 0.19752
 O493 O 0.52081 0.14889 0.81848
 O494 O 0.47398 0.18254 0.85407
 O495 O 0.47216 0.14987 0.81987
 O496 O 0.52258 0.18071 0.85305
 O497 O 0.52240 0.21064 0.82662
 O498 O 0.47262 0.17884 0.79241
 O499 O 0.47334 0.21156 0.82664
 O500 O 0.52139 0.17852 0.79172
 Cu501 Cu 0.49731 0.16259 0.83907
 Cu502 Cu 0.49745 0.19788 0.80666
 C503 C 0.52907 0.15790 0.79896
 C504 C 0.46572 0.20283 0.84652
 C505 C 0.46404 0.15875 0.80026
 C506 C 0.53100 0.20100 0.84573
 O507 O 0.52004 0.85415 0.17722
 O508 O 0.47353 0.82064 0.14169
 O509 O 0.47180 0.85504 0.17373
 O510 O 0.52186 0.82012 0.14458
 O511 O 0.51894 0.79190 0.17266
 O512 O 0.46948 0.82785 0.20283
 O513 O 0.47016 0.79313 0.17042
 O514 O 0.51841 0.82608 0.20559
 Cu515 Cu 0.49708 0.84025 0.15647
 Cu516 Cu 0.49400 0.80695 0.19080
 C517 C 0.52708 0.84603 0.19752
 C518 C 0.46399 0.80110 0.14977
 C519 C 0.46230 0.84773 0.19339
 C520 C 0.52868 0.79984 0.15329
 O521 O 0.85595 0.52508 0.81797
 O522 O 0.82096 0.47789 0.85073
 O523 O 0.85351 0.47856 0.81552
 O524 O 0.82394 0.52490 0.85336
 O525 O 0.79274 0.52833 0.82745
 O526 O 0.82225 0.48103 0.78949
 O527 O 0.78973 0.48109 0.82482
 O528 O 0.82483 0.52840 0.79189
 Cu529 Cu 0.84163 0.50126 0.83706
 Cu530 Cu 0.80422 0.50499 0.80579
 C531 C 0.84655 0.53459 0.79918
 C532 C 0.79926 0.47154 0.84354
 C533 C 0.84325 0.47214 0.79591
 C534 C 0.80332 0.53455 0.84703
 O535 O 0.14610 0.52514 0.18079
 O536 O 0.18188 0.47655 0.15061
 O537 O 0.14719 0.47755 0.18309
 O538 O 0.18083 0.52326 0.14752
 O539 O 0.20946 0.52684 0.17607
 O540 O 0.17631 0.47956 0.21132
 O541 O 0.21151 0.47973 0.17824
 O542 O 0.17471 0.52689 0.20949
 Cu543 Cu 0.16096 0.50051 0.16279
 Cu544 Cu 0.19586 0.50351 0.19668
 C545 C 0.15415 0.53415 0.20042
 C546 C 0.20305 0.47016 0.15904
 C547 C 0.15608 0.47046 0.20309
 C548 C 0.20105 0.53257 0.15540
 O549 O 0.85134 0.47611 0.18499
 O550 O 0.81764 0.52394 0.15202
 O551 O 0.85145 0.52283 0.18598
 O552 O 0.81770 0.47674 0.15068
 O553 O 0.78762 0.47582 0.17797
 O554 O 0.82115 0.52274 0.21312
 O555 O 0.78735 0.52312 0.17911
 O556 O 0.82126 0.47521 0.21233
 Cu557 Cu 0.83749 0.49994 0.16564
 Cu558 Cu 0.80131 0.49912 0.19838
 C559 C 0.84231 0.46777 0.20447
 C560 C 0.79667 0.53164 0.15981
 C561 C 0.84223 0.53052 0.20563
 C562 C 0.79682 0.46849 0.15814
 O563 O 0.17700 0.52124 0.85189
 O564 O 0.14422 0.47195 0.82014
 O565 O 0.17749 0.47445 0.85477
 O566 O 0.14488 0.51951 0.81743
 O567 O 0.17562 0.51811 0.79079
 O568 O 0.20769 0.47161 0.82771
 O569 O 0.17428 0.47085 0.79281
 O570 O 0.20832 0.51887 0.82594
 Cu571 Cu 0.15772 0.49676 0.83863
 Cu572 Cu 0.19454 0.49458 0.80659
 C573 C 0.19834 0.52835 0.84451
 C574 C 0.15337 0.46324 0.80088
 C575 C 0.19835 0.46564 0.84792
 C576 C 0.15485 0.52687 0.79798
 C577 C 0.26140 0.40421 0.10165
 C578 C 0.28496 0.41127 0.09264
 C579 C 0.29701 0.39665 0.07566
 C580 C 0.28583 0.37492 0.06798
 C581 C 0.26261 0.36818 0.07780
 N582 N 0.25092 0.38298 0.09391
 C583 C 0.24693 0.42018 0.11791
 N584 N 0.22151 0.42119 0.11550
 C585 C 0.20710 0.43653 0.12883
 C586 C 0.21823 0.45199 0.14591
 C587 C 0.24431 0.45063 0.14929
 C588 C 0.25874 0.43486 0.13524
 H589 H 0.31484 0.40242 0.06820
 H590 H 0.25349 0.35153 0.07214
 H591 H 0.18701 0.43683 0.12586
 H592 H 0.25363 0.46223 0.16230
 H593 H 0.29353 0.42832 0.09791
 H594 H 0.27887 0.43420 0.13790
 C595 C 0.74188 0.59963 0.10115
 C596 C 0.71557 0.60193 0.10172
 C597 C 0.70350 0.61617 0.08443
 C598 C 0.71751 0.62802 0.06660
 C599 C 0.74371 0.62572 0.06689
 N600 N 0.75505 0.61162 0.08377
 C601 C 0.75572 0.58323 0.11763
 N602 N 0.77889 0.57532 0.11087
 C603 C 0.79248 0.55940 0.12426
 C604 C 0.78276 0.55025 0.14594
 C605 C 0.75920 0.55863 0.15365
 C606 C 0.74568 0.57515 0.13964
 H607 H 0.68320 0.61741 0.08451
 H608 H 0.75506 0.63468 0.05337
 H609 H 0.81065 0.55361 0.11770
 H610 H 0.75110 0.55225 0.17038
 H611 H 0.70422 0.59222 0.11467
 H612 H 0.72768 0.58145 0.14613
 C613 C 0.74245 0.40494 0.90223
 C614 C 0.71621 0.40207 0.90086
 C615 C 0.70387 0.38755 0.91776
 C616 C 0.71752 0.37601 0.93603
 C617 C 0.74362 0.37911 0.93672
 N618 N 0.75523 0.39338 0.92014
 C619 C 0.75667 0.42118 0.88581
 N620 N 0.78008 0.42848 0.89258
 C621 C 0.79417 0.44400 0.87916
 C622 C 0.78477 0.45335 0.85745
 C623 C 0.76094 0.44566 0.84977
 C624 C 0.74690 0.42952 0.86378
 H625 H 0.68363 0.38570 0.91693
 H626 H 0.75470 0.37045 0.95063
 H627 H 0.81251 0.44931 0.88574
 H628 H 0.75305 0.45223 0.83302
 H629 H 0.70507 0.41139 0.88748
 H630 H 0.72874 0.42373 0.85722
 C631 C 0.25161 0.59834 0.90174
 C632 C 0.24212 0.62114 0.90865
 C633 C 0.25561 0.63541 0.92492
 C634 C 0.27834 0.62690 0.93436
 C635 C 0.28757 0.60439 0.92655
 N636 N 0.27416 0.59083 0.91061
 C637 C 0.23730 0.58186 0.88584
 N638 N 0.24992 0.56643 0.87095
 C639 C 0.23786 0.54981 0.85692
 C640 C 0.21163 0.54757 0.85802
 C641 C 0.19829 0.56332 0.87322
 C642 C 0.21101 0.58056 0.88702
 H643 H 0.24814 0.65283 0.93056
 H644 H 0.30518 0.59746 0.93345
 H645 H 0.24883 0.53787 0.84554
 H646 H 0.17803 0.56214 0.87462
 H647 H 0.22449 0.62786 0.90159
 H648 H 0.20042 0.59208 0.89912
 C649 C 0.09991 0.25969 0.40432
 C650 C 0.09225 0.28334 0.41045
 C651 C 0.07510 0.29548 0.39577
 C652 C 0.06597 0.28426 0.37488
 C653 C 0.07446 0.26086 0.36907
 N654 N 0.09074 0.24915 0.38393
 C655 C 0.11626 0.24537 0.42040
 N656 N 0.11216 0.22103 0.42255
 C657 C 0.12558 0.20692 0.43798
 C658 C 0.14451 0.21725 0.45231
 C659 C 0.14960 0.24216 0.44979
 C660 C 0.13544 0.25631 0.43397
 H661 H 0.06864 0.31345 0.40082
 H662 H 0.06759 0.25170 0.35312
 H663 H 0.12126 0.18771 0.43919
 H664 H 0.16409 0.25083 0.46048
 H665 H 0.09865 0.29200 0.42685
 H666 H 0.13947 0.27555 0.43236
 C667 C 0.10277 0.73967 0.59365
 C668 C 0.10832 0.73685 0.61820
 C669 C 0.09124 0.72475 0.63308
 C670 C 0.06900 0.71510 0.62341
 C671 C 0.06465 0.71762 0.59862
 N672 N 0.08119 0.73003 0.58464
 C673 C 0.11896 0.75409 0.57757
 N674 N 0.10792 0.76879 0.56097
 C675 C 0.12150 0.78258 0.54542
 C676 C 0.14781 0.78156 0.54565
 C677 C 0.15964 0.76627 0.56237
 C678 C 0.14526 0.75270 0.57860
 H679 H 0.09512 0.72324 0.65217
 H680 H 0.04781 0.71021 0.59050
 H681 H 0.11170 0.79394 0.53258
 H682 H 0.17993 0.76498 0.56300
 H683 H 0.12516 0.74468 0.62592
 H684 H 0.15452 0.74089 0.59142
 C685 C 0.90141 0.73841 0.40702
 C686 C 0.91060 0.71539 0.41356
 C687 C 0.92792 0.70368 0.39869
 C688 C 0.93572 0.71466 0.37720
 C689 C 0.92578 0.73742 0.37104
 N690 N 0.90935 0.74875 0.38607
 C691 C 0.88460 0.75229 0.42310
 N692 N 0.88739 0.77685 0.42467
 C693 C 0.87342 0.79064 0.43995
 C694 C 0.85519 0.77976 0.45469
 C695 C 0.85145 0.75456 0.45281
 C696 C 0.86621 0.74074 0.43716
 H697 H 0.93548 0.68621 0.40402
 H698 H 0.93154 0.74638 0.35459
 H699 H 0.87671 0.81006 0.44068
 H700 H 0.83756 0.74546 0.46386
 H701 H 0.90516 0.70692 0.43036
 H702 H 0.86323 0.72129 0.43605
 C703 C 0.89829 0.25725 0.59646
 C704 C 0.90490 0.24884 0.61948
 C705 C 0.92135 0.26251 0.63363
 C706 C 0.93127 0.28432 0.62477
 C707 C 0.92358 0.29255 0.60207
 N708 N 0.90746 0.27898 0.58861
 C709 C 0.88259 0.24251 0.58009
 N710 N 0.86665 0.25380 0.56452
 C711 C 0.85271 0.24122 0.54816
 C712 C 0.85504 0.21586 0.54637
 C713 C 0.87144 0.20391 0.56218
 C714 C 0.88508 0.21712 0.57917
 H715 H 0.92692 0.25578 0.65116
 H716 H 0.93089 0.30941 0.59484
 H717 H 0.84038 0.25110 0.53614
 H718 H 0.87379 0.18436 0.56135
 H719 H 0.89761 0.23184 0.62639
 H720 H 0.89806 0.20763 0.59085
 C721 C 0.39784 0.09912 0.24962
 C722 C 0.37952 0.08391 0.23925
 C723 C 0.36588 0.06808 0.25384
 C724 C 0.37010 0.06766 0.27870
 C725 C 0.38737 0.08406 0.28863
 N726 N 0.40082 0.09905 0.27400
 C727 C 0.41496 0.11415 0.23475
 N728 N 0.42690 0.13350 0.24500
 C729 C 0.44421 0.14702 0.23290
 C730 C 0.45080 0.14098 0.20916
 C731 C 0.43859 0.12123 0.19822
 C732 C 0.42076 0.10782 0.21088
 H733 H 0.35247 0.05571 0.24572
 H734 H 0.39092 0.08420 0.30782
 H735 H 0.45323 0.16206 0.24206
 H736 H 0.44316 0.11581 0.17999
 H737 H 0.37591 0.08390 0.22009
 H738 H 0.41248 0.09212 0.20222
 C739 C 0.59575 0.09932 0.74146
 C740 C 0.59712 0.10081 0.71619
 C741 C 0.61136 0.08380 0.70345
 C742 C 0.62415 0.06534 0.71575
 C743 C 0.62269 0.06469 0.74094
 N744 N 0.60857 0.08130 0.75295
 C745 C 0.57955 0.11566 0.75595
 N746 N 0.57189 0.10798 0.77807
 C747 C 0.55631 0.12132 0.79224
 C748 C 0.54732 0.14395 0.78432
 C749 C 0.55547 0.15255 0.76183
 C750 C 0.57159 0.13854 0.74764
 H751 H 0.61195 0.08465 0.68397
 H752 H 0.63240 0.05068 0.75099
 H753 H 0.55070 0.11403 0.80952
 H754 H 0.54918 0.17000 0.75509
 H755 H 0.58670 0.11433 0.70620
 H756 H 0.57774 0.14571 0.73051
 C757 C 0.39916 0.90696 0.75225
 C758 C 0.38310 0.92403 0.76315
 C759 C 0.36908 0.93976 0.74879
 C760 C 0.37077 0.93837 0.72367
 C761 C 0.38604 0.92042 0.71340
 N762 N 0.39979 0.90544 0.72775
 C763 C 0.41601 0.89110 0.76653
 N764 N 0.42508 0.87034 0.75635
 C765 C 0.44163 0.85554 0.76789
 C766 C 0.45037 0.86156 0.79100
 C767 C 0.44124 0.88285 0.80185
 C768 C 0.42416 0.89763 0.78972
 H769 H 0.35721 0.95330 0.75721
 H770 H 0.38760 0.91882 0.69403
 H771 H 0.44825 0.83935 0.75881
 H772 H 0.44759 0.88831 0.81957
 H773 H 0.38134 0.92537 0.78250
 H774 H 0.41819 0.91435 0.79824
 C775 C 0.59212 0.90381 0.25686
 C776 C 0.58307 0.92590 0.26597
 C777 C 0.59888 0.94068 0.27950
 C778 C 0.62382 0.93372 0.28374
 C779 C 0.63196 0.91106 0.27504
 N780 N 0.61608 0.89679 0.26193
 C781 C 0.57620 0.88886 0.24097
 N782 N 0.57449 0.86438 0.24437
 C783 C 0.55916 0.85018 0.23062
 C784 C 0.54479 0.86059 0.21207
 C785 C 0.54692 0.88567 0.20795
 C786 C 0.56243 0.89984 0.22244
 H787 H 0.59187 0.95789 0.28622
 H788 H 0.65106 0.90509 0.27806
 H789 H 0.55816 0.83085 0.23419
 H790 H 0.53615 0.89444 0.19387
 H791 H 0.56400 0.93174 0.26247
 H792 H 0.56371 0.91922 0.21915
 C793 C 0.39962 0.25800 0.90744
 C794 C 0.37640 0.26790 0.90065
 C795 C 0.36203 0.28048 0.91768
 C796 C 0.37074 0.28342 0.94149
 C797 C 0.39449 0.27358 0.94713
 N798 N 0.40787 0.26117 0.93037
 C799 C 0.41525 0.24356 0.89074
 N800 N 0.42973 0.22543 0.89996
 C801 C 0.44534 0.21185 0.88607
 C802 C 0.44756 0.21661 0.86135
 C803 C 0.43288 0.23529 0.85141
 C804 C 0.41654 0.24868 0.86600
 H805 H 0.34369 0.28710 0.91241
 H806 H 0.40271 0.27606 0.96479
 H807 H 0.45647 0.19776 0.89451
 H808 H 0.43412 0.23959 0.83241
 H809 H 0.36904 0.26531 0.88267
 H810 H 0.40568 0.26330 0.85816
 C811 C 0.60052 0.73942 0.90296
 C812 C 0.60217 0.71390 0.90156
 C813 C 0.61585 0.70119 0.91896
 C814 C 0.62772 0.71378 0.93772
 C815 C 0.62609 0.73920 0.93824
 N816 N 0.61258 0.75116 0.92123
 C817 C 0.58472 0.75404 0.88639
 N818 N 0.57823 0.77693 0.89336
 C819 C 0.56291 0.79136 0.88006
 C820 C 0.55283 0.78290 0.85825
 C821 C 0.55978 0.75963 0.85027
 C822 C 0.57577 0.74518 0.86421
 H823 H 0.61669 0.68152 0.91816
 H824 H 0.63517 0.74946 0.95244
 H825 H 0.55826 0.80925 0.88686
 H826 H 0.55260 0.75246 0.83346
 H827 H 0.59243 0.70364 0.88783
 H828 H 0.58089 0.72739 0.85755
 C829 C 0.40121 0.74344 0.08800
 C830 C 0.40962 0.73860 0.06461
 C831 C 0.39463 0.72516 0.04905
 C832 C 0.37094 0.71655 0.05645
 C833 C 0.36387 0.72070 0.08059
 N834 N 0.37890 0.73400 0.09550
 C835 C 0.41611 0.75916 0.10413
 N836 N 0.41841 0.75358 0.12792
 C837 C 0.43307 0.76697 0.14308
 C838 C 0.44633 0.78729 0.13439
 C839 C 0.44341 0.79372 0.11012
 C840 C 0.42842 0.77973 0.09499
 H841 H 0.40168 0.72144 0.03113
 H842 H 0.34587 0.71450 0.08725
 H843 H 0.43464 0.76155 0.16175
 H844 H 0.45314 0.80928 0.10263
 H845 H 0.42767 0.74516 0.05838
 H846 H 0.42652 0.78494 0.07628
 C847 C 0.60851 0.24906 0.09293
 C848 C 0.62494 0.23864 0.07598
 C849 C 0.63750 0.25357 0.05965
 C850 C 0.63405 0.27878 0.06038
 C851 C 0.61860 0.28866 0.07828
 N852 N 0.60622 0.27374 0.09379
 C853 C 0.59271 0.23402 0.10910
 N854 N 0.58278 0.24430 0.12930
 C855 C 0.56661 0.23216 0.14400
 C856 C 0.55908 0.20835 0.13835
 C857 C 0.56933 0.19732 0.11780
 C858 C 0.58605 0.21002 0.10317
 H859 H 0.64962 0.24547 0.04619
 H860 H 0.61578 0.30813 0.07940
 H861 H 0.55909 0.24140 0.15962
 H862 H 0.56397 0.17903 0.11265
 H863 H 0.62804 0.21923 0.07512
 H864 H 0.59271 0.20132 0.08693
 C865 C 0.25593 0.09445 0.59983
 C866 C 0.28051 0.09917 0.60784
 C867 C 0.29293 0.08202 0.62200
 C868 C 0.28123 0.05992 0.62811
 C869 C 0.25656 0.05605 0.61985
 N870 N 0.24483 0.07307 0.60615
 C871 C 0.24191 0.11127 0.58380
 N872 N 0.22064 0.10295 0.57290
 C873 C 0.20706 0.11669 0.55729
 C874 C 0.21486 0.14037 0.55156
 C875 C 0.23639 0.14958 0.56294
 C876 C 0.24983 0.13524 0.57916
 H877 H 0.31213 0.08567 0.62740
 H878 H 0.24645 0.03962 0.62452
 H879 H 0.19051 0.10888 0.54900
 H880 H 0.24292 0.16787 0.55926
 H881 H 0.29057 0.11546 0.60286
 H882 H 0.26611 0.14309 0.58778
 C883 C 0.73908 0.08996 0.40547
 C884 C 0.73354 0.06679 0.41444
 C885 C 0.72099 0.05010 0.39994
 C886 C 0.71439 0.05601 0.37609
 C887 C 0.71962 0.07987 0.36813
 N888 N 0.73174 0.09595 0.38275
 C889 C 0.75372 0.10724 0.42024
 N890 N 0.77071 0.09838 0.43629
 C891 C 0.78471 0.11309 0.45060
 C892 C 0.78167 0.13840 0.44963
 C893 C 0.76425 0.14804 0.43323
 C894 C 0.75048 0.13249 0.41822
 H895 H 0.71632 0.03252 0.40752
 H896 H 0.71512 0.08542 0.34994
 H897 H 0.79777 0.10490 0.46315
 H898 H 0.76138 0.16750 0.43199
 H899 H 0.73876 0.06164 0.43259
 H900 H 0.73707 0.14004 0.40562
 C901 C 0.74079 0.90363 0.59972
 C902 C 0.71630 0.89914 0.60812
 C903 C 0.70392 0.91679 0.62176
 C904 C 0.71557 0.93918 0.62698
 C905 C 0.74022 0.94271 0.61853
 N906 N 0.75188 0.92523 0.60534
 C907 C 0.75481 0.88636 0.58408
 N908 N 0.77650 0.89423 0.57365
 C909 C 0.79023 0.88019 0.55842
 C910 C 0.78221 0.85660 0.55256
 C911 C 0.76019 0.84783 0.56341
 C912 C 0.74653 0.86253 0.57922
 H913 H 0.68478 0.91330 0.62740
 H914 H 0.75038 0.95928 0.62262
 H915 H 0.80714 0.88771 0.55057
 H916 H 0.75340 0.82966 0.55956
 H917 H 0.70630 0.88260 0.60387
 H918 H 0.72980 0.85505 0.58733
 C919 C 0.26491 0.90434 0.40224
 C920 C 0.29117 0.90323 0.39950
 C921 C 0.30344 0.92076 0.38561
 C922 C 0.28970 0.93940 0.37461
 C923 C 0.26356 0.93973 0.37745
 N924 N 0.25202 0.92256 0.39113
 C925 C 0.25083 0.88730 0.41792
 N926 N 0.22778 0.89418 0.42604
 C927 C 0.21387 0.88015 0.44114
 C928 C 0.22309 0.85765 0.44912
 C929 C 0.24654 0.84986 0.44054
 C930 C 0.26041 0.86455 0.42490
 H931 H 0.32369 0.92012 0.38383
 H932 H 0.25240 0.95384 0.36908
 H933 H 0.19581 0.88683 0.44715
 H934 H 0.25428 0.83253 0.44605
 H935 H 0.30233 0.88956 0.40848
 H936 H 0.27828 0.85796 0.41838
 C937 C 0.09414 0.39556 0.74636
 C938 C 0.08536 0.37304 0.75486
 C939 C 0.06887 0.35941 0.74071
 C940 C 0.06102 0.36830 0.71831
 C941 C 0.07060 0.39058 0.71021
 N942 N 0.08679 0.40347 0.72422
 C943 C 0.11043 0.41133 0.76116
 N944 N 0.12795 0.42554 0.75016
 C945 C 0.14252 0.44154 0.76260
 C946 C 0.13924 0.44447 0.78751
 C947 C 0.12129 0.43001 0.79921
 C948 C 0.10701 0.41328 0.78615
 H949 H 0.06172 0.34225 0.74741
 H950 H 0.06482 0.39791 0.69300
 H951 H 0.15602 0.45251 0.75290
 H952 H 0.11815 0.43179 0.81840
 H953 H 0.09113 0.36609 0.77224
 H954 H 0.09282 0.40269 0.79538
 C955 C 0.09484 0.60432 0.25204
 C956 C 0.08449 0.62544 0.24190
 C957 C 0.06867 0.64008 0.25575
 C958 C 0.06303 0.63371 0.27963
 C959 C 0.07436 0.61279 0.28926
 N960 N 0.08975 0.59886 0.27544
 C961 C 0.11062 0.58747 0.23784
 N962 N 0.12885 0.57449 0.24924
 C963 C 0.14329 0.55787 0.23755
 C964 C 0.13932 0.55303 0.21301
 C965 C 0.12054 0.56609 0.20092
 C966 C 0.10627 0.58341 0.21321
 H967 H 0.06048 0.65620 0.24773
 H968 H 0.07021 0.60699 0.30747
 H969 H 0.15747 0.54806 0.24759
 H970 H 0.11682 0.56286 0.18202
 H971 H 0.08854 0.63062 0.22350
 H972 H 0.09150 0.59292 0.20370
 C973 C 0.90288 0.40281 0.26069
 C974 C 0.89633 0.37902 0.26729
 C975 C 0.91364 0.36470 0.27981
 C976 C 0.93741 0.37409 0.28609
 C977 C 0.94268 0.39837 0.27969
 N978 N 0.92575 0.41170 0.26711
 C979 C 0.88628 0.41825 0.24595
 N980 N 0.89697 0.43359 0.22970
 C981 C 0.88318 0.44893 0.21587
 C982 C 0.85699 0.44990 0.21844
 C983 C 0.84551 0.43435 0.23519
 C984 C 0.86008 0.41828 0.24882
 H985 H 0.90880 0.34598 0.28374
 H986 H 0.96030 0.40681 0.28471
 H987 H 0.89279 0.46081 0.20335
 H988 H 0.82535 0.43466 0.23775
 H989 H 0.87845 0.37126 0.26203
 H990 H 0.85107 0.40658 0.26191
 C991 C 0.90773 0.59962 0.74349
 C992 C 0.90113 0.62329 0.73655
 C993 C 0.91838 0.63745 0.72376
 C994 C 0.94216 0.62806 0.71761
 C995 C 0.94755 0.60396 0.72453
 N996 N 0.93064 0.59075 0.73728
 C997 C 0.89101 0.58418 0.75816
 N998 N 0.90159 0.56840 0.77405
 C999 C 0.88768 0.55300 0.78772
 C1000 C 0.86145 0.55244 0.78537
 C1001 C 0.85008 0.56847 0.76901
 C1002 C 0.86478 0.58454 0.75551
 H1003 H 0.91344 0.65605 0.71943
 H1004 H 0.96516 0.59548 0.71962
 H1005 H 0.89722 0.54077 0.79994
 H1006 H 0.82989 0.56851 0.76662
 H1007 H 0.88324 0.63107 0.74164
 H1008 H 0.85581 0.59655 0.74268
 C1009 C 0.75382 0.60185 0.91076
 C1010 C 0.76458 0.61152 0.93180
 C1011 C 0.74976 0.62478 0.94773
 C1012 C 0.72427 0.62904 0.94271
 C1013 C 0.71464 0.62039 0.92071
 N1014 N 0.72934 0.60695 0.90573
 C1015 C 0.76793 0.58557 0.89428
 N1016 N 0.75814 0.58053 0.87214
 C1017 C 0.76924 0.56476 0.85654
 C1018 C 0.79150 0.55277 0.86302
 C1019 C 0.80199 0.55779 0.88565
 C1020 C 0.79028 0.57397 0.90131
 H1021 H 0.75828 0.63187 0.96401
 H1022 H 0.69512 0.62317 0.91603
 H1023 H 0.76049 0.56139 0.83926
 H1024 H 0.81901 0.54879 0.89153
 H1025 H 0.78416 0.60901 0.93622
 H1026 H 0.79848 0.57654 0.91891
 C1027 C 0.25615 0.40622 0.91243
 C1028 C 0.26263 0.41541 0.93511
 C1029 C 0.27615 0.40098 0.95106
 C1030 C 0.28301 0.37705 0.94483
 C1031 C 0.27717 0.36905 0.92132
 N1032 N 0.26398 0.38357 0.90601
 C1033 C 0.24048 0.42067 0.89582
 N1034 N 0.24571 0.42097 0.87182
 C1035 C 0.23228 0.43478 0.85603
 C1036 C 0.21217 0.44911 0.86422
 C1037 C 0.20608 0.44837 0.88878
 C1038 C 0.22021 0.43432 0.90459
 H1039 H 0.28134 0.40864 0.96834
 H1040 H 0.28199 0.35084 0.91552
 H1041 H 0.23745 0.43470 0.83718
 H1042 H 0.19073 0.45912 0.89590
 H1043 H 0.25737 0.43366 0.94045
 H1044 H 0.21530 0.43408 0.92351
 C1045 C 0.25738 0.59394 0.09137
 C1046 C 0.26211 0.58510 0.06818
 C1047 C 0.27454 0.59971 0.05157
 C1048 C 0.28189 0.62357 0.05762
 C1049 C 0.27746 0.63139 0.08146
 N1050 N 0.26541 0.61666 0.09744
 C1051 C 0.24290 0.57906 0.10864
 N1052 N 0.22581 0.56282 0.10004
 C1053 C 0.21195 0.54839 0.11472
 C1054 C 0.21522 0.54944 0.13977
 C1055 C 0.23274 0.56604 0.14914
 C1056 C 0.24639 0.58115 0.13362
 H1057 H 0.27856 0.59220 0.03396
 H1058 H 0.28254 0.64959 0.08711
 H1059 H 0.19880 0.53571 0.10673
 H1060 H 0.23579 0.56736 0.16838
 H1061 H 0.25634 0.56695 0.06293
 H1062 H 0.25989 0.59390 0.14097
 C1063 C 0.74194 0.40331 0.09602
 C1064 C 0.71738 0.39480 0.10005
 C1065 C 0.70540 0.38084 0.08245
 C1066 C 0.71754 0.37540 0.06060
 C1067 C 0.74219 0.38408 0.05746
 N1068 N 0.75346 0.39757 0.07488
 C1069 C 0.75568 0.41909 0.11334
 N1070 N 0.77786 0.42904 0.10610
 C1071 C 0.79151 0.44430 0.12023
 C1072 C 0.78288 0.45066 0.14326
 C1073 C 0.76031 0.44033 0.15137
 C1074 C 0.74674 0.42449 0.13659
 H1075 H 0.68624 0.37500 0.08560
 H1076 H 0.75268 0.37985 0.04129
 H1077 H 0.80885 0.45176 0.11323
 H1078 H 0.75305 0.44461 0.16909
 H1079 H 0.70705 0.39910 0.11622
 H1080 H 0.72955 0.41682 0.14355
 C1081 C 0.90501 0.74098 0.59916
 C1082 C 0.91357 0.71778 0.59249
 C1083 C 0.93114 0.70590 0.60690
 C1084 C 0.93977 0.71685 0.62811
 C1085 C 0.93058 0.73990 0.63435
 N1086 N 0.91386 0.75140 0.61975
 C1087 C 0.88765 0.75476 0.58359
 N1088 N 0.89088 0.77919 0.58102
 C1089 C 0.87636 0.79271 0.56597
 C1090 C 0.85713 0.78165 0.55255
 C1091 C 0.85299 0.75662 0.55554
 C1092 C 0.86828 0.74311 0.57091
 H1093 H 0.93822 0.68827 0.60144
 H1094 H 0.93712 0.74891 0.65052
 H1095 H 0.88000 0.81202 0.56434
 H1096 H 0.83834 0.74738 0.54554
 H1097 H 0.90739 0.70927 0.57593
 H1098 H 0.86498 0.72377 0.57286
 C1099 C 0.90350 0.25329 0.39770
 C1100 C 0.91521 0.24315 0.37740
 C1101 C 0.93173 0.25728 0.36383
 C1102 C 0.93658 0.28153 0.37031
 C1103 C 0.92393 0.29118 0.39036
 N1104 N 0.90795 0.27702 0.40335
 C1105 C 0.88721 0.23862 0.41364
 N1106 N 0.86830 0.24974 0.42592
 C1107 C 0.85344 0.23756 0.44179
 C1108 C 0.85769 0.21281 0.44653
 C1109 C 0.87711 0.20102 0.43410
 C1110 C 0.89180 0.21379 0.41759
 H1111 H 0.94110 0.24920 0.34847
 H1112 H 0.92755 0.30962 0.39630
 H1113 H 0.83878 0.24739 0.45113
 H1114 H 0.88110 0.18198 0.43730
 H1115 H 0.91175 0.22451 0.37208
 H1116 H 0.90711 0.20448 0.40869
 C1117 C 0.09522 0.25878 0.59637
 C1118 C 0.10150 0.26505 0.62009
 C1119 C 0.08402 0.27746 0.63429
 C1120 C 0.06037 0.28394 0.62486
 C1121 C 0.05535 0.27780 0.60070
 N1122 N 0.07245 0.26534 0.58746
 C1123 C 0.11194 0.24407 0.58105
 N1124 N 0.10133 0.22799 0.56546
 C1125 C 0.11521 0.21406 0.55033
 C1126 C 0.14145 0.21630 0.54989
 C1127 C 0.15287 0.23293 0.56566
 C1128 C 0.13817 0.24671 0.58147
 H1129 H 0.08867 0.28113 0.65294
 H1130 H 0.03785 0.28301 0.59223
 H1131 H 0.10565 0.20164 0.53827
 H1132 H 0.17307 0.23524 0.56576
 H1133 H 0.11927 0.25962 0.62787
 H1134 H 0.14713 0.25966 0.59339
 C1135 C 0.10013 0.74109 0.40226
 C1136 C 0.10600 0.73510 0.37838
 C1137 C 0.08825 0.72288 0.36427
 C1138 C 0.06473 0.71628 0.37395
 C1139 C 0.06018 0.72204 0.39829
 N1140 N 0.07751 0.73437 0.41143
 C1141 C 0.11713 0.75565 0.41750
 N1142 N 0.10685 0.77193 0.43308
 C1143 C 0.12103 0.78567 0.44818
 C1144 C 0.14722 0.78299 0.44864
 C1145 C 0.15830 0.76617 0.43287
 C1146 C 0.14332 0.75264 0.41704
 H1147 H 0.09258 0.71945 0.34552
 H1148 H 0.04284 0.71667 0.40698
 H1149 H 0.11172 0.79823 0.46025
 H1150 H 0.17846 0.76352 0.43280
 H1151 H 0.12367 0.74062 0.37043
 H1152 H 0.15201 0.73954 0.40511
 C1153 C 0.60170 0.90555 0.74680
 C1154 C 0.61394 0.92508 0.75816
 C1155 C 0.62715 0.94195 0.74434
 C1156 C 0.62813 0.93947 0.71924
 C1157 C 0.61636 0.91935 0.70859
 N1158 N 0.60347 0.90319 0.72242
 C1159 C 0.58587 0.88846 0.76083
 N1160 N 0.58055 0.89343 0.78431
 C1161 C 0.56491 0.87933 0.79768
 C1162 C 0.55332 0.85885 0.78743
 C1163 C 0.55897 0.85302 0.76342
 C1164 C 0.57517 0.86778 0.75007
 H1165 H 0.63622 0.95721 0.75312
 H1166 H 0.61686 0.91687 0.68925
 H1167 H 0.56123 0.88444 0.81616
 H1168 H 0.55043 0.83739 0.75478
 H1169 H 0.61301 0.92755 0.77748
 H1170 H 0.57895 0.86324 0.73144
 C1171 C 0.39462 0.91042 0.24513
 C1172 C 0.38317 0.93127 0.23547
 C1173 C 0.37090 0.94749 0.25068
 C1174 C 0.36936 0.94295 0.27554
 C1175 C 0.37956 0.92105 0.28423
 N1176 N 0.39205 0.90580 0.26911
 C1177 C 0.41038 0.89389 0.23035
 N1178 N 0.41704 0.87182 0.23952
 C1179 C 0.43287 0.85640 0.22781
 C1180 C 0.44334 0.86308 0.20558
 C1181 C 0.43649 0.88556 0.19565
 C1182 C 0.42021 0.90099 0.20793
 H1183 H 0.36247 0.96366 0.24299
 H1184 H 0.37882 0.91670 0.30323
 H1185 H 0.43767 0.83923 0.23615
 H1186 H 0.44424 0.89159 0.17864
 H1187 H 0.38362 0.93532 0.21645
 H1188 H 0.41634 0.91857 0.20011
 C1189 C 0.59729 0.08728 0.25538
 C1190 C 0.58857 0.06378 0.26027
 C1191 C 0.60321 0.04805 0.27388
 C1192 C 0.62690 0.05535 0.28259
 C1193 C 0.63432 0.07961 0.27830
 N1194 N 0.61961 0.09470 0.26487
 C1195 C 0.58268 0.10365 0.23965
 N1196 N 0.58072 0.12775 0.24503
 C1197 C 0.56638 0.14317 0.23162
 C1198 C 0.55313 0.13448 0.21146
 C1199 C 0.55566 0.10987 0.20526
 C1200 C 0.57031 0.09446 0.21928
 H1201 H 0.59587 0.03008 0.27770
 H1202 H 0.65234 0.08622 0.28455
 H1203 H 0.56512 0.16209 0.23687
 H1204 H 0.54590 0.10236 0.18984
 H1205 H 0.57051 0.05761 0.25369
 H1206 H 0.57192 0.07549 0.21424
 C1207 C 0.39648 0.09972 0.74423
 C1208 C 0.39511 0.10075 0.71895
 C1209 C 0.38153 0.08303 0.70646
 C1210 C 0.36943 0.06431 0.71903
 C1211 C 0.37069 0.06421 0.74423
 N1212 N 0.38418 0.08151 0.75599
 C1213 C 0.41241 0.11653 0.75849
 N1214 N 0.41983 0.10939 0.78086
 C1215 C 0.43555 0.12291 0.79473
 C1216 C 0.44507 0.14510 0.78618
 C1217 C 0.43707 0.15327 0.76350
 C1218 C 0.42071 0.13912 0.74964
 H1219 H 0.38100 0.08351 0.68696
 H1220 H 0.36142 0.05006 0.75447
 H1221 H 0.44100 0.11598 0.81220
 H1222 H 0.44377 0.17039 0.75629
 H1223 H 0.40511 0.11440 0.70873
 H1224 H 0.41479 0.14590 0.73228
 C1225 C 0.59584 0.74159 0.09629
 C1226 C 0.59719 0.71607 0.09769
 C1227 C 0.61148 0.70328 0.08085
 C1228 C 0.62426 0.71579 0.06263
 C1229 C 0.62267 0.74119 0.06190
 N1230 N 0.60858 0.75326 0.07842
 C1231 C 0.57978 0.75626 0.11252
 N1232 N 0.57327 0.77908 0.10538
 C1233 C 0.55773 0.79351 0.11846
 C1234 C 0.54746 0.78509 0.14018
 C1235 C 0.55446 0.76191 0.14835
 C1236 C 0.57067 0.74749 0.13466
 H1237 H 0.61225 0.68361 0.08174
 H1238 H 0.63240 0.75137 0.04807
 H1239 H 0.55302 0.81133 0.11153
 H1240 H 0.54714 0.75478 0.16511
 H1241 H 0.58685 0.70589 0.11106
 H1242 H 0.57587 0.72978 0.14147
 C1243 C 0.40625 0.25629 0.09529
 C1244 C 0.38156 0.26197 0.10213
 C1245 C 0.36611 0.27470 0.08617
 C1246 C 0.37540 0.28212 0.06368
 C1247 C 0.40030 0.27631 0.05775
 N1248 N 0.41478 0.26349 0.07334
 C1249 C 0.42301 0.24179 0.11078
 N1250 N 0.43916 0.22589 0.10019
 C1251 C 0.45544 0.21211 0.11312
 C1252 C 0.45651 0.21432 0.13827
 C1253 C 0.44029 0.23086 0.14960
 C1254 C 0.42331 0.24447 0.13593
 H1255 H 0.34688 0.27858 0.09123
 H1256 H 0.40816 0.28181 0.04061
 H1257 H 0.46781 0.19973 0.10369
 H1258 H 0.44062 0.23309 0.16897
 H1259 H 0.37407 0.25605 0.11928
 H1260 H 0.41101 0.25729 0.14484
 C1261 C 0.60282 0.25249 0.90426
 C1262 C 0.62021 0.24127 0.91975
 C1263 C 0.63415 0.25546 0.93573
 C1264 C 0.63108 0.28073 0.93610
 C1265 C 0.61458 0.29143 0.91956
 N1266 N 0.60089 0.27722 0.90436
 C1267 C 0.58577 0.23817 0.88859
 N1268 N 0.57515 0.24902 0.86901
 C1269 C 0.55821 0.23740 0.85467
 C1270 C 0.55064 0.21353 0.86001
 C1271 C 0.56142 0.20200 0.88003
 C1272 C 0.57888 0.21419 0.89432
 H1273 H 0.64699 0.24673 0.94815
 H1274 H 0.61196 0.31095 0.91933
 H1275 H 0.55029 0.24702 0.83947
 H1276 H 0.55605 0.18366 0.88495
 H1277 H 0.62301 0.22180 0.91976
 H1278 H 0.58608 0.20509 0.91013
 C1279 C 0.40006 0.74425 0.90324
 C1280 C 0.37514 0.73889 0.89686
 C1281 C 0.35994 0.72603 0.91297
 C1282 C 0.36970 0.71819 0.93512
 C1283 C 0.39485 0.72358 0.94053
 N1284 N 0.40907 0.73653 0.92484
 C1285 C 0.41667 0.75885 0.88768
 N1286 N 0.43348 0.77414 0.89825
 C1287 C 0.44997 0.78768 0.88528
 C1288 C 0.45061 0.78576 0.86010
 C1289 C 0.43356 0.76998 0.84877
 C1290 C 0.41636 0.75666 0.86249
 H1291 H 0.34052 0.72246 0.90833
 H1292 H 0.40308 0.71774 0.95739
 H1293 H 0.46297 0.79947 0.89472
 H1294 H 0.43354 0.76797 0.82937
 H1295 H 0.36730 0.74518 0.87999
 H1296 H 0.40352 0.74431 0.85358
 C1297 C 0.73833 0.89843 0.40594
 C1298 C 0.71452 0.90741 0.41220
 C1299 C 0.70268 0.92418 0.39716
 C1300 C 0.71433 0.93167 0.37582
 C1301 C 0.73788 0.92197 0.36994
 N1302 N 0.74932 0.90605 0.38512
 C1303 C 0.75235 0.88213 0.42221
 N1304 N 0.77771 0.88467 0.42404
 C1305 C 0.79165 0.87111 0.43954
 C1306 C 0.78008 0.85363 0.45425
 C1307 C 0.75406 0.85019 0.45210
 C1308 C 0.74012 0.86448 0.43621
 H1309 H 0.68459 0.93156 0.40227
 H1310 H 0.74736 0.92750 0.35359
 H1311 H 0.81172 0.87414 0.44047
 H1312 H 0.74441 0.83686 0.46309
 H1313 H 0.70553 0.90222 0.42890
 H1314 H 0.72003 0.86171 0.43488
 C1315 C 0.26152 0.89986 0.59932
 C1316 C 0.28764 0.89877 0.60315
 C1317 C 0.29915 0.91593 0.61810
 C1318 C 0.28478 0.93412 0.62915
 C1319 C 0.25878 0.93430 0.62533
 N1320 N 0.24801 0.91755 0.61059
 C1321 C 0.24829 0.88359 0.58218
 N1322 N 0.22542 0.89066 0.57377
 C1323 C 0.21224 0.87748 0.55738
 C1324 C 0.22205 0.85565 0.54826
 C1325 C 0.24535 0.84765 0.55703
 C1326 C 0.25849 0.86148 0.57401
 H1327 H 0.31933 0.91549 0.62050
 H1328 H 0.24716 0.94812 0.63361
 H1329 H 0.19426 0.88428 0.55129
 H1330 H 0.25352 0.83079 0.55066
 H1331 H 0.29931 0.88555 0.59412
 H1332 H 0.27625 0.85473 0.58062
 C1333 C 0.25568 0.09588 0.40241
 C1334 C 0.24397 0.07976 0.38624
 C1335 C 0.25858 0.06409 0.37240
 C1336 C 0.28476 0.06471 0.37431
 C1337 C 0.29589 0.08175 0.38973
 N1338 N 0.28125 0.09665 0.40336
 C1339 C 0.24096 0.11143 0.41899
 N1340 N 0.25169 0.13186 0.42839
 C1341 C 0.23955 0.14635 0.44452
 C1342 C 0.21525 0.14032 0.45234
 C1343 C 0.20392 0.11934 0.44289
 C1344 C 0.21665 0.10488 0.42636
 H1345 H 0.24952 0.05126 0.36039
 H1346 H 0.31612 0.08272 0.39141
 H1347 H 0.24904 0.16230 0.45145
 H1348 H 0.18529 0.11384 0.44852
 H1349 H 0.22378 0.07909 0.38423
 H1350 H 0.20770 0.08838 0.42011
 C1351 C 0.73848 0.09907 0.59577
 C1352 C 0.71227 0.10045 0.59875
 C1353 C 0.70005 0.08343 0.61331
 C1354 C 0.71379 0.06507 0.62478
 C1355 C 0.73988 0.06448 0.62166
 N1356 N 0.75136 0.08113 0.60734
 C1357 C 0.75257 0.11535 0.57930
 N1358 N 0.77582 0.10824 0.57195
 C1359 C 0.78982 0.12141 0.55623
 C1360 C 0.78052 0.14325 0.54668
 C1361 C 0.75685 0.15132 0.55440
 C1362 C 0.74286 0.13752 0.57074
 H1363 H 0.67981 0.08421 0.61518
 H1364 H 0.75104 0.05052 0.63030
 H1365 H 0.80805 0.11453 0.55095
 H1366 H 0.74904 0.16818 0.54765
 H1367 H 0.70108 0.11387 0.58946
 H1368 H 0.72480 0.14431 0.57652
 C1369 C 0.90143 0.59686 0.26174
 C1370 C 0.89530 0.62140 0.26558
 C1371 C 0.91240 0.63651 0.27751
 C1372 C 0.93524 0.62705 0.28594
 C1373 C 0.94018 0.60225 0.28242
 N1374 N 0.92360 0.58808 0.27023
 C1375 C 0.88527 0.58059 0.24742
 N1376 N 0.89641 0.56424 0.23247
 C1377 C 0.88295 0.54848 0.21876
 C1378 C 0.85665 0.54820 0.22007
 C1379 C 0.84471 0.56466 0.23562
 C1380 C 0.85897 0.58112 0.24914
 H1381 H 0.90805 0.65561 0.27981
 H1382 H 0.95753 0.59430 0.28885
 H1383 H 0.89285 0.53587 0.20719
 H1384 H 0.82443 0.56490 0.23715
 H1385 H 0.87799 0.62899 0.25866
 H1386 H 0.84962 0.59370 0.26116
 C1387 C 0.89882 0.40680 0.73571
 C1388 C 0.89272 0.38218 0.73246
 C1389 C 0.90954 0.36699 0.72032
 C1390 C 0.93205 0.37648 0.71110
 C1391 C 0.93685 0.40140 0.71388
 N1392 N 0.92060 0.41563 0.72634
 C1393 C 0.88347 0.42298 0.75083
 N1394 N 0.89549 0.43903 0.76549
 C1395 C 0.88290 0.45452 0.78015
 C1396 C 0.85657 0.45482 0.78022
 C1397 C 0.84367 0.43875 0.76495
 C1398 C 0.85710 0.42252 0.75041
 H1399 H 0.90532 0.34779 0.71859
 H1400 H 0.95393 0.40937 0.70681
 H1401 H 0.89350 0.46688 0.79144
 H1402 H 0.82334 0.43857 0.76450
 H1403 H 0.87575 0.37456 0.74012
 H1404 H 0.84706 0.41013 0.73869
 C1405 C 0.10248 0.59841 0.74197
 C1406 C 0.09690 0.62195 0.75022
 C1407 C 0.08116 0.63686 0.73663
 C1408 C 0.07086 0.62823 0.71506
 C1409 C 0.07769 0.60505 0.70689
 N1410 N 0.09313 0.59084 0.72040
 C1411 C 0.11695 0.58116 0.75686
 N1412 N 0.13266 0.56493 0.74607
 C1413 C 0.14545 0.54782 0.75884
 C1414 C 0.14207 0.54591 0.78384
 C1415 C 0.12584 0.56235 0.79524
 C1416 C 0.11343 0.58010 0.78187
 H1417 H 0.07621 0.65474 0.74333
 H1418 H 0.07009 0.59797 0.69022
 H1419 H 0.15771 0.53534 0.74940
 H1420 H 0.12275 0.56148 0.81450
 H1421 H 0.10434 0.62862 0.76713
 H1422 H 0.10059 0.59233 0.79092
 C1423 C 0.09939 0.40042 0.25728
 C1424 C 0.09214 0.37747 0.24853
 C1425 C 0.07568 0.36315 0.26200
 C1426 C 0.06638 0.37176 0.28398
 C1427 C 0.07473 0.39434 0.29254
 N1428 N 0.09083 0.40797 0.27914
 C1429 C 0.11509 0.41708 0.24280
 N1430 N 0.13116 0.43266 0.25409
 C1431 C 0.14504 0.44934 0.24179
 C1432 C 0.14251 0.45149 0.21672
 C1433 C 0.12602 0.43564 0.20478
 C1434 C 0.11244 0.41834 0.21770
 H1435 H 0.06963 0.34569 0.25504
 H1436 H 0.06797 0.40135 0.30956
 H1437 H 0.15745 0.46136 0.25165
 H1438 H 0.12351 0.43671 0.18546
 H1439 H 0.09896 0.37073 0.23142
 H1440 H 0.09935 0.40670 0.20820
   
