data_POSCAR
  _audit_creation_date              2014-09-24
  _audit_creation_method            'ToBaCCo'
  _symmetry_space_group_name_H-M    'P1'
  _symmetry_Int_Tables_number       1
  _symmetry_cell_setting            triclinic
  loop_
  _symmetry_equiv_pos_as_xyz
 x,y,z
_cell_length_a 86.5728
_cell_length_b 86.4874
_cell_length_c 86.5897
_cell_angle_alpha 90.016600
_cell_angle_beta 89.976900
_cell_angle_gamma 90.014700
loop_
  _atom_site_label
  _atom_site_type_symbol
  _atom_site_fract_x
  _atom_site_fract_y
  _atom_site_fract_z
C1 C 0.10349 0.01331 0.23127
 H2 H 0.10314 0.02247 0.23978
 C3 C 0.09476 0.01453 0.21775
 H4 H 0.08757 0.02460 0.21585
 C5 C 0.11371 -0.01076 0.22302
 H6 H 0.12138 -0.02042 0.22490
 C7 C 0.10517 -0.01000 0.20938
 H8 H 0.10616 -0.01917 0.20090
 N9 N 0.11269 0.00078 0.23367
 C10 C 0.12117 -0.00153 0.28325
 H11 H 0.13366 -0.00203 0.28311
 C12 C 0.11324 -0.00244 0.29724
 H13 H 0.11961 -0.00358 0.30794
 C14 C 0.09758 0.00032 0.26944
 H15 H 0.09154 0.00116 0.25856
 C16 C 0.08918 -0.00056 0.28321
 H17 H 0.07667 -0.00024 0.28292
 Zn18 Zn 0.12532 0.00045 0.25150
 N19 N 0.11330 -0.00004 0.26974
 C20 C 0.13675 0.02913 0.26260
 N21 N 0.13765 0.01852 0.25101
 C22 C 0.14651 0.02109 0.23828
 C23 C 0.15501 0.03476 0.23689
 C24 C 0.14507 0.04293 0.26167
 C25 C 0.12999 -0.03124 0.25324
 C26 C 0.13810 -0.04516 0.25370
 C27 C 0.16194 -0.03077 0.25120
 C28 C 0.15334 -0.01708 0.25078
 N29 N 0.13764 -0.01760 0.25164
 H30 H 0.12934 0.02709 0.27242
 H31 H 0.14677 0.01260 0.22911
 H32 H 0.16193 0.03679 0.22667
 H33 H 0.14416 0.05138 0.27086
 H34 H 0.11752 -0.03127 0.25412
 H35 H 0.13182 -0.05595 0.25490
 H36 H 0.17443 -0.03024 0.25044
 H37 H 0.15921 -0.00610 0.24985
 C38 C 0.09710 -0.00194 0.29722
 C39 C 0.09567 0.00278 0.20669
 C40 C 0.15423 -0.04494 0.25264
 C41 C 0.15422 0.04579 0.24868
 C42 C 0.39633 0.01404 0.76913
 H43 H 0.39663 0.02331 0.76075
 C44 C 0.40464 0.01537 0.78291
 H45 H 0.41145 0.02564 0.78512
 C46 C 0.38663 -0.01044 0.77680
 H47 H 0.37932 -0.02030 0.77459
 C48 C 0.39476 -0.00958 0.79070
 H49 H 0.39380 -0.01886 0.79904
 N50 N 0.38759 0.00126 0.76633
 C51 C 0.38043 -0.00054 0.71651
 H52 H 0.36798 -0.00150 0.71634
 C53 C 0.38872 -0.00081 0.70270
 H54 H 0.38264 -0.00193 0.69182
 C55 C 0.40361 0.00192 0.73092
 H56 H 0.40936 0.00278 0.74195
 C57 C 0.41236 0.00169 0.71733
 H58 H 0.42483 0.00252 0.71792
 Zn59 Zn 0.37543 0.00084 0.74816
 N60 N 0.38793 0.00096 0.73024
 C61 C 0.36360 0.02938 0.73716
 N62 N 0.36264 0.01859 0.74857
 C63 C 0.35338 0.02079 0.76109
 C64 C 0.34453 0.03424 0.76243
 C65 C 0.35494 0.04296 0.73805
 C66 C 0.37155 -0.03097 0.74589
 C67 C 0.36374 -0.04505 0.74500
 C68 C 0.33956 -0.03121 0.74698
 C69 C 0.34784 -0.01735 0.74784
 N70 N 0.36356 -0.01751 0.74744
 H71 H 0.37132 0.02765 0.72752
 H72 H 0.35308 0.01218 0.77015
 H73 H 0.33730 0.03597 0.77250
 H74 H 0.35590 0.05156 0.72899
 H75 H 0.38404 -0.03072 0.74538
 H76 H 0.37020 -0.05571 0.74385
 H77 H 0.32705 -0.03104 0.74737
 H78 H 0.34170 -0.00652 0.74874
 C79 C 0.40481 0.00035 0.70311
 C80 C 0.40378 0.00347 0.79380
 C81 C 0.34760 -0.04517 0.74558
 C82 C 0.34538 0.04544 0.75082
 C83 C 0.89595 0.51461 0.26909
 H84 H 0.89628 0.52391 0.26074
 C85 C 0.90431 0.51585 0.28284
 H86 H 0.91118 0.52610 0.28504
 C87 C 0.88618 0.49014 0.27669
 H88 H 0.87883 0.48032 0.27446
 C89 C 0.89435 0.49091 0.29057
 H90 H 0.89336 0.48156 0.29885
 N91 N 0.88716 0.50188 0.26626
 C92 C 0.87995 0.50021 0.21645
 H93 H 0.86749 0.49929 0.21629
 C94 C 0.88822 0.49991 0.20263
 H95 H 0.88213 0.49882 0.19176
 C96 C 0.90315 0.50256 0.23084
 H97 H 0.90892 0.50339 0.24187
 C98 C 0.91189 0.50231 0.21725
 H99 H 0.92436 0.50308 0.21782
 Zn100 Zn 0.87499 0.50154 0.24811
 N101 N 0.88746 0.50167 0.23017
 C102 C 0.86323 0.53012 0.23717
 N103 N 0.86223 0.51932 0.24857
 C104 C 0.85297 0.52151 0.26108
 C105 C 0.84414 0.53497 0.26244
 C106 C 0.85460 0.54372 0.23808
 C107 C 0.87107 0.46976 0.24572
 C108 C 0.86326 0.45568 0.24478
 C109 C 0.83908 0.46951 0.24686
 C110 C 0.84737 0.48337 0.24776
 N111 N 0.86309 0.48321 0.24734
 H112 H 0.87095 0.52840 0.22754
 H113 H 0.85263 0.51288 0.27012
 H114 H 0.83691 0.53671 0.27250
 H115 H 0.85559 0.55233 0.22904
 H116 H 0.88356 0.47000 0.24519
 H117 H 0.86972 0.44503 0.24358
 H118 H 0.82658 0.46968 0.24726
 H119 H 0.84124 0.49420 0.24872
 C120 C 0.90432 0.50101 0.20303
 C121 C 0.90344 0.50391 0.29371
 C122 C 0.84713 0.45556 0.24539
 C123 C 0.84503 0.54620 0.25085
 C124 C 0.60309 0.51310 0.73115
 H125 H 0.60270 0.52202 0.73991
 C126 C 0.59445 0.51470 0.71761
 H127 H 0.58730 0.52484 0.71594
 C128 C 0.61331 0.48923 0.72233
 H129 H 0.62094 0.47951 0.72402
 C130 C 0.60487 0.49038 0.70865
 H131 H 0.60590 0.48144 0.69994
 N132 N 0.61224 0.50048 0.73328
 C133 C 0.62026 0.49683 0.78285
 H134 H 0.63274 0.49623 0.78279
 C135 C 0.61222 0.49568 0.79676
 H136 H 0.61851 0.49425 0.80748
 C137 C 0.59679 0.49924 0.76892
 H138 H 0.59083 0.50040 0.75803
 C139 C 0.58828 0.49813 0.78262
 H140 H 0.57578 0.49859 0.78226
 Zn141 Zn 0.62469 0.49966 0.75122
 N142 N 0.61250 0.49872 0.76932
 C143 C 0.63608 0.52797 0.76324
 N144 N 0.63707 0.51771 0.75136
 C145 C 0.64613 0.52059 0.73883
 C146 C 0.65478 0.53420 0.73799
 C147 C 0.64454 0.54171 0.76285
 C148 C 0.62937 0.46790 0.75215
 C149 C 0.63754 0.45401 0.75253
 C150 C 0.66136 0.46853 0.75091
 C151 C 0.65272 0.48219 0.75056
 N152 N 0.63701 0.48161 0.75105
 H153 H 0.62852 0.52571 0.77289
 H154 H 0.64646 0.51236 0.72942
 H155 H 0.66188 0.53647 0.72793
 H156 H 0.64359 0.54989 0.77229
 H157 H 0.61689 0.46781 0.75276
 H158 H 0.63136 0.44315 0.75337
 H159 H 0.67385 0.46904 0.75051
 H160 H 0.65858 0.49320 0.75004
 C161 C 0.59609 0.49636 0.79665
 C162 C 0.59541 0.50325 0.70625
 C163 C 0.65367 0.45433 0.75189
 C164 C 0.65392 0.54487 0.75010
 C165 C 0.26710 0.10401 0.98768
 H166 H 0.25840 0.10396 0.97872
 C167 C 0.28054 0.09524 0.98592
 H168 H 0.28219 0.08832 0.97562
 C169 C 0.27591 0.11352 1.01182
 H170 H 0.27427 0.12094 1.02172
 C171 C 0.28950 0.10493 1.01052
 H172 H 0.29818 0.10563 1.01951
 N173 N 0.26502 0.11288 1.00050
 C174 C 0.21555 0.12169 1.00397
 H175 H 0.21583 0.13417 1.00485
 C176 C 0.20149 0.11387 1.00484
 H177 H 0.19087 0.12032 1.00633
 C178 C 0.22909 0.09801 1.00115
 H179 H 0.23990 0.09188 0.99994
 C180 C 0.21525 0.08971 1.00197
 H181 H 0.21539 0.07721 1.00124
 Zn182 Zn 0.24728 0.12563 1.00151
 N183 N 0.22896 0.11373 1.00202
 C184 C 0.23575 0.13781 0.97337
 N185 N 0.24752 0.13842 0.98378
 C186 C 0.26025 0.14728 0.98118
 C187 C 0.26146 0.15607 0.96769
 C188 C 0.23649 0.14641 0.95976
 C189 C 0.24616 0.12952 1.03331
 C190 C 0.24591 0.13731 1.04741
 C191 C 0.24817 0.16151 1.03358
 C192 C 0.24838 0.15323 1.01970
 N193 N 0.24753 0.13751 1.01985
 H194 H 0.22593 0.13040 0.97541
 H195 H 0.26958 0.14731 0.98950
 H196 H 0.27170 0.16297 0.96562
 H197 H 0.22716 0.14573 0.95145
 H198 H 0.24527 0.11704 1.03305
 H199 H 0.24488 0.13077 1.05804
 H200 H 0.24891 0.17402 1.03335
 H201 H 0.24913 0.15936 1.00887
 C202 C 0.20133 0.09774 1.00380
 C203 C 0.29186 0.09577 0.99743
 C204 C 0.24695 0.15346 1.04757
 C205 C 0.24949 0.15556 0.95686
 C206 C 0.73110 0.39459 0.98668
 H207 H 0.73953 0.39513 0.97747
 C208 C 0.71723 0.40277 0.98543
 H209 H 0.71499 0.40972 0.97527
 C210 C 0.72341 0.38442 1.01094
 H211 H 0.72565 0.37697 1.02068
 C212 C 0.70942 0.39241 1.01014
 H213 H 0.70104 0.39121 1.01936
 N214 N 0.73393 0.38567 0.99932
 C215 C 0.78383 0.37901 1.00126
 H216 H 0.78413 0.36653 1.00204
 C217 C 0.79756 0.38744 1.00176
 H218 H 0.80849 0.38145 1.00287
 C219 C 0.76920 0.40209 0.99906
 H220 H 0.75811 0.40775 0.99822
 C221 C 0.78269 0.41098 0.99952
 H222 H 0.78198 0.42347 0.99889
 Zn223 Zn 0.75224 0.37370 0.99965
 N224 N 0.77004 0.38639 0.99978
 C225 C 0.76353 0.36232 0.97106
 N226 N 0.75206 0.36111 0.98176
 C227 C 0.73966 0.35172 0.97940
 C228 C 0.73851 0.34299 0.96586
 C229 C 0.76282 0.35379 0.95739
 C230 C 0.75440 0.36946 1.03137
 C231 C 0.75526 0.36150 1.04536
 C232 C 0.75359 0.33742 1.03123
 C233 C 0.75276 0.34587 1.01749
 N234 N 0.75301 0.36160 1.01784
 H235 H 0.77307 0.37014 0.97292
 H236 H 0.73057 0.35121 0.98796
 H237 H 0.72854 0.33565 0.96400
 H238 H 0.77191 0.35495 0.94886
 H239 H 0.75479 0.38197 1.03127
 H240 H 0.75626 0.36794 1.05606
 H241 H 0.75330 0.32489 1.03084
 H242 H 0.75198 0.33984 1.00659
 C243 C 0.79699 0.40356 1.00085
 C244 C 0.70628 0.40160 0.99725
 C245 C 0.75481 0.34533 1.04531
 C246 C 0.75018 0.34410 0.95474
 C247 C 0.23239 0.89523 0.48601
 H248 H 0.24080 0.89569 0.47677
 C249 C 0.21862 0.90358 0.48482
 H250 H 0.21642 0.91058 0.47469
 C251 C 0.22469 0.88513 0.51029
 H252 H 0.22688 0.87765 0.52002
 C253 C 0.21079 0.89328 0.50956
 H254 H 0.20244 0.89218 0.51882
 N255 N 0.23518 0.88628 0.49863
 C256 C 0.28502 0.87919 0.50040
 H257 H 0.28524 0.86670 0.50112
 C258 C 0.29880 0.88753 0.50089
 H259 H 0.30970 0.88146 0.50194
 C260 C 0.27053 0.90238 0.49836
 H261 H 0.25947 0.90811 0.49759
 C262 C 0.28408 0.91118 0.49881
 H263 H 0.28344 0.92368 0.49826
 Zn264 Zn 0.25337 0.87413 0.49890
 N265 N 0.27127 0.88667 0.49900
 C266 C 0.26444 0.86271 0.47024
 N267 N 0.25301 0.86159 0.48098
 C268 C 0.24049 0.85236 0.47863
 C269 C 0.23916 0.84372 0.46506
 C270 C 0.26356 0.85427 0.45652
 C271 C 0.25557 0.86982 0.53060
 C272 C 0.25630 0.86182 0.54457
 C273 C 0.25426 0.83780 0.53044
 C274 C 0.25357 0.84626 0.51669
 N275 N 0.25405 0.86199 0.51705
 H276 H 0.27408 0.87040 0.47209
 H277 H 0.23142 0.85192 0.48722
 H278 H 0.22909 0.83652 0.46319
 H279 H 0.27262 0.85536 0.44796
 H280 H 0.25614 0.88231 0.53052
 H281 H 0.25739 0.86816 0.55531
 H282 H 0.25377 0.82529 0.53011
 H283 H 0.25268 0.84026 0.50579
 C284 C 0.29833 0.90366 0.50007
 C285 C 0.20771 0.90253 0.49669
 C286 C 0.25559 0.84568 0.54449
 C287 C 0.25078 0.84475 0.45388
 C288 C 0.76672 0.60285 0.48670
 H289 H 0.75797 0.60282 0.47779
 C290 C 0.78011 0.59400 0.48490
 H291 H 0.78165 0.58703 0.47461
 C292 C 0.77573 0.61242 0.51074
 H293 H 0.77421 0.61990 0.52061
 C294 C 0.78926 0.60375 0.50940
 H295 H 0.79800 0.60445 0.51832
 N296 N 0.76477 0.61180 0.49949
 C297 C 0.71540 0.62112 0.50318
 H298 H 0.71580 0.63359 0.50400
 C299 C 0.70128 0.61343 0.50417
 H300 H 0.69072 0.61999 0.50570
 C301 C 0.72870 0.59729 0.50040
 H302 H 0.73944 0.59106 0.49915
 C303 C 0.71478 0.58913 0.50134
 H304 H 0.71480 0.57662 0.50068
 Zn305 Zn 0.74716 0.62473 0.50053
 N306 N 0.72872 0.61302 0.50119
 C307 C 0.73559 0.63701 0.47243
 N308 N 0.74745 0.63744 0.48275
 C309 C 0.76028 0.64614 0.48007
 C310 C 0.76150 0.65496 0.46660
 C311 C 0.73634 0.64566 0.45884
 C312 C 0.74629 0.62884 0.53233
 C313 C 0.74629 0.63675 0.54637
 C314 C 0.74875 0.66079 0.53234
 C315 C 0.74870 0.65241 0.51853
 N316 N 0.74765 0.63670 0.51879
 H317 H 0.72568 0.62973 0.47454
 H318 H 0.76967 0.64603 0.48832
 H319 H 0.77180 0.66174 0.46448
 H320 H 0.72692 0.64513 0.45062
 H321 H 0.74524 0.61637 0.53217
 H322 H 0.74529 0.63037 0.55709
 H323 H 0.74965 0.67328 0.53209
 H324 H 0.74943 0.65847 0.50764
 C325 C 0.70096 0.59730 0.50322
 C326 C 0.79150 0.59452 0.49633
 C327 C 0.74757 0.65285 0.54638
 C328 C 0.74943 0.65465 0.45588
 C329 C 0.01501 0.23094 0.10304
 H330 H 0.02432 0.23928 0.10256
 C331 C 0.01604 0.21718 0.09464
 H332 H 0.02611 0.21491 0.08758
 C333 C -0.00927 0.22339 0.11327
 H334 H -0.01893 0.22565 0.12083
 C335 C -0.00870 0.20951 0.10507
 H336 H -0.01802 0.20122 0.10620
 N337 N 0.00247 0.23380 0.11209
 C338 C 0.00118 0.28365 0.11942
 H339 H 0.00058 0.28380 0.13190
 C340 C 0.00066 0.29749 0.11118
 H341 H -0.00028 0.30836 0.11736
 C342 C 0.00291 0.26925 0.09616
 H343 H 0.00355 0.25821 0.09036
 C344 C 0.00242 0.28286 0.08744
 H345 H 0.00283 0.28224 0.07495
 Zn346 Zn 0.00244 0.25195 0.12430
 N347 N 0.00242 0.26992 0.11186
 C348 C 0.03130 0.26269 0.13545
 N349 N 0.02042 0.25139 0.13670
 C350 C 0.02272 0.23883 0.14590
 C351 C 0.03638 0.23733 0.15436
 C352 C 0.04510 0.26164 0.14371
 C353 C -0.02920 0.25450 0.12871
 C354 C -0.04314 0.25552 0.13673
 C355 C -0.02900 0.25332 0.16070
 C356 C -0.01528 0.25233 0.15221
 N357 N -0.01566 0.25279 0.13650
 H358 H 0.02948 0.27236 0.12778
 H359 H 0.01402 0.22987 0.14644
 H360 H 0.03821 0.22722 0.16152
 H361 H 0.05378 0.27059 0.14249
 H362 H -0.02912 0.25505 0.11623
 H363 H -0.05386 0.25680 0.13042
 H364 H -0.02866 0.25290 0.17319
 H365 H -0.00438 0.25130 0.15818
 C366 C 0.00130 0.29711 0.09505
 C367 C 0.00409 0.20635 0.09573
 C368 C -0.04304 0.25489 0.15285
 C369 C 0.04770 0.24881 0.15317
 C370 C 0.01204 0.76829 0.39571
 H371 H 0.02096 0.75953 0.39603
 C372 C 0.01378 0.78191 0.40422
 H373 H 0.02402 0.78365 0.41120
 C374 C -0.01193 0.77706 0.38575
 H375 H -0.02173 0.77534 0.37825
 C376 C -0.01064 0.79083 0.39407
 H377 H -0.01956 0.79957 0.39307
 N378 N -0.00068 0.76611 0.38673
 C379 C -0.00418 0.71645 0.37866
 H380 H -0.00487 0.71651 0.36618
 C381 C -0.00519 0.70251 0.38670
 H382 H -0.00660 0.69177 0.38041
 C383 C -0.00169 0.73040 0.40212
 H384 H -0.00053 0.74132 0.40807
 C385 C -0.00265 0.71669 0.41062
 H386 H -0.00210 0.71705 0.42312
 Zn387 Zn -0.00157 0.74815 0.37426
 N388 N -0.00231 0.73000 0.38641
 C389 C 0.02671 0.73635 0.36256
 N390 N 0.01635 0.74817 0.36174
 C391 C 0.01910 0.76082 0.35280
 C392 C 0.03267 0.76188 0.34413
 C393 C 0.04041 0.73695 0.35407
 C394 C -0.03334 0.74714 0.36983
 C395 C -0.04729 0.74687 0.36178
 C396 C -0.03295 0.74869 0.33785
 C397 C -0.01925 0.74893 0.34639
 N398 N -0.01971 0.74831 0.36209
 H399 H 0.02455 0.72659 0.37002
 H400 H 0.01081 0.77018 0.35260
 H401 H 0.03484 0.77205 0.33715
 H402 H 0.04867 0.72758 0.35491
 H403 H -0.03333 0.74644 0.38230
 H404 H -0.05806 0.74601 0.36811
 H405 H -0.03246 0.74923 0.32535
 H406 H -0.00829 0.74951 0.34046
 C407 C -0.00440 0.70263 0.40282
 C408 C 0.00236 0.79331 0.40331
 C409 C -0.04711 0.74768 0.34563
 C410 C 0.04345 0.74986 0.34484
 C411 C 0.51348 0.26838 0.89579
 H412 H 0.52238 0.25961 0.89608
 C413 C 0.51516 0.28189 0.90448
 H414 H 0.52534 0.28353 0.91156
 C415 C 0.48955 0.27726 0.88581
 H416 H 0.47978 0.27561 0.87826
 C417 C 0.49078 0.29092 0.89431
 H418 H 0.48186 0.29966 0.89339
 N419 N 0.50079 0.26629 0.88674
 C420 C 0.49714 0.21667 0.87859
 H421 H 0.49653 0.21673 0.86611
 C422 C 0.49598 0.20275 0.88664
 H423 H 0.49455 0.19201 0.88035
 C424 C 0.49952 0.23064 0.90206
 H425 H 0.50067 0.24155 0.90802
 C426 C 0.49841 0.21694 0.91057
 H427 H 0.49885 0.21731 0.92307
 Zn428 Zn 0.49989 0.24838 0.87422
 N429 N 0.49901 0.23022 0.88635
 C430 C 0.52814 0.23646 0.86261
 N431 N 0.51785 0.24832 0.86176
 C432 C 0.52067 0.26095 0.85281
 C433 C 0.53426 0.26193 0.84416
 C434 C 0.54186 0.23698 0.85415
 C435 C 0.46814 0.24747 0.86970
 C436 C 0.45422 0.24720 0.86161
 C437 C 0.46860 0.24895 0.83774
 C438 C 0.48229 0.24920 0.84629
 N439 N 0.48179 0.24861 0.86200
 H440 H 0.52592 0.22672 0.87008
 H441 H 0.51243 0.27035 0.85258
 H442 H 0.53649 0.27208 0.83717
 H443 H 0.55007 0.22756 0.85501
 H444 H 0.46811 0.24678 0.88218
 H445 H 0.44340 0.24635 0.86785
 H446 H 0.46904 0.24946 0.82524
 H447 H 0.49326 0.24975 0.84038
 C448 C 0.49664 0.20288 0.90276
 C449 C 0.50372 0.29328 0.90367
 C450 C 0.45445 0.24797 0.84549
 C451 C 0.54497 0.24985 0.84489
 C452 C 0.51426 0.73098 0.60437
 H453 H 0.52350 0.73938 0.60385
 C454 C 0.51540 0.71718 0.59603
 H455 H 0.52550 0.71496 0.58899
 C456 C 0.49000 0.72331 0.61458
 H457 H 0.48030 0.72554 0.62208
 C458 C 0.49068 0.70939 0.60644
 H459 H 0.48141 0.70106 0.60757
 N460 N 0.50166 0.73380 0.61336
 C461 C 0.49966 0.78372 0.62006
 H462 H 0.49885 0.78400 0.63253
 C463 C 0.49924 0.79747 0.61167
 H464 H 0.49814 0.80841 0.61767
 C465 C 0.50196 0.76909 0.59699
 H466 H 0.50282 0.75800 0.59132
 C467 C 0.50157 0.78261 0.58813
 H468 H 0.50228 0.78192 0.57566
 Zn469 Zn 0.50137 0.75211 0.62534
 N470 N 0.50118 0.76992 0.61267
 C471 C 0.52995 0.76350 0.63650
 N472 N 0.51931 0.75199 0.63782
 C473 C 0.52177 0.73963 0.64725
 C474 C 0.53536 0.73859 0.65591
 C475 C 0.54366 0.76291 0.64496
 C476 C 0.46967 0.75431 0.62968
 C477 C 0.45572 0.75523 0.63768
 C478 C 0.46988 0.75351 0.66167
 C479 C 0.48361 0.75263 0.65320
 N480 N 0.48323 0.75288 0.63748
 H481 H 0.52802 0.77300 0.62866
 H482 H 0.51326 0.73049 0.64785
 H483 H 0.53731 0.72867 0.66328
 H484 H 0.55213 0.77205 0.64372
 H485 H 0.46974 0.75471 0.61719
 H486 H 0.44497 0.75627 0.63135
 H487 H 0.47022 0.75324 0.67417
 H488 H 0.49452 0.75181 0.65919
 C489 C 0.50025 0.79691 0.59557
 C490 C 0.50350 0.70629 0.59713
 C491 C 0.45582 0.75479 0.65381
 C492 C 0.54641 0.75033 0.65470
 C493 C 0.89906 0.98644 0.73120
 H494 H 0.89956 0.97731 0.73973
 C495 C 0.90752 0.98544 0.71828
 H496 H 0.91491 0.97552 0.71638
 C497 C 0.88807 1.01060 0.72359
 H498 H 0.88024 1.02013 0.72540
 C499 C 0.89721 1.01003 0.70924
 H500 H 0.89611 1.01931 0.70090
 N501 N 0.88916 0.99957 0.73378
 C502 C 0.88043 1.00294 0.78415
 H503 H 0.86800 1.00417 0.78392
 C504 C 0.88797 1.00316 0.79761
 H505 H 0.88162 1.00459 0.80830
 C506 C 0.90375 0.99971 0.76970
 H507 H 0.90981 0.99841 0.75888
 C508 C 0.91256 0.99986 0.78432
 H509 H 0.92501 0.99851 0.78403
 Zn510 Zn 0.87662 1.00002 0.75174
 N511 N 0.88874 1.00086 0.76991
 C512 C 0.86568 0.97174 0.76392
 N513 N 0.86447 0.98178 0.75188
 C514 C 0.85538 0.97853 0.73946
 C515 C 0.84689 0.96478 0.73895
 C516 C 0.85739 0.95790 0.76387
 C517 C 0.87165 1.03171 0.75316
 C518 C 0.86349 1.04560 0.75272
 C519 C 0.83986 1.03107 0.74953
 C520 C 0.84848 1.01739 0.75005
 N521 N 0.86412 1.01799 0.75158
 H522 H 0.87326 0.97426 0.77348
 H523 H 0.85487 0.98657 0.72990
 H524 H 0.83974 0.96222 0.72901
 H525 H 0.85851 0.94994 0.77346
 H526 H 0.88407 1.03182 0.75454
 H527 H 0.86963 1.05647 0.75376
 H528 H 0.82744 1.03056 0.74810
 H529 H 0.84268 1.00638 0.74909
 C530 C 0.90493 1.00137 0.79773
 C531 C 0.90653 0.99793 0.70665
 C532 C 0.84748 1.04529 0.75076
 C533 C 0.84794 0.95437 0.75128
 C534 C 0.39695 0.48883 0.23106
 H535 H 0.39735 0.47961 0.23950
 C536 C 0.40594 0.48790 0.21767
 H537 H 0.41336 0.47799 0.21579
 C538 C 0.38648 0.51281 0.22289
 H539 H 0.37866 0.52234 0.22475
 C540 C 0.39526 0.51234 0.20939
 H541 H 0.39427 0.52159 0.20101
 N542 N 0.38755 0.50122 0.23347
 C543 C 0.37901 0.50422 0.28307
 H544 H 0.36656 0.50530 0.28286
 C545 C 0.38686 0.50439 0.29714
 H546 H 0.38045 0.50560 0.30782
 C547 C 0.40257 0.50120 0.26940
 H548 H 0.40865 0.50004 0.25857
 C549 C 0.41089 0.50130 0.28325
 H550 H 0.42334 0.50012 0.28306
 Zn551 Zn 0.37488 0.50161 0.25134
 N552 N 0.38689 0.50238 0.26960
 C553 C 0.36377 0.47322 0.26325
 N554 N 0.36272 0.48337 0.25127
 C555 C 0.35375 0.48024 0.23874
 C556 C 0.34522 0.46652 0.23804
 C557 C 0.35544 0.45942 0.26301
 C558 C 0.36985 0.53331 0.25269
 C559 C 0.36166 0.54718 0.25214
 C560 C 0.33808 0.53256 0.24888
 C561 C 0.34674 0.51892 0.24949
 N562 N 0.36237 0.51956 0.25111
 H563 H 0.37127 0.47565 0.27290
 H564 H 0.35337 0.48834 0.22923
 H565 H 0.33816 0.46406 0.22800
 H566 H 0.35643 0.45139 0.27256
 H567 H 0.38227 0.53347 0.25413
 H568 H 0.36775 0.55807 0.25316
 H569 H 0.32567 0.53200 0.24736
 H570 H 0.34098 0.50788 0.24855
 C571 C 0.40292 0.50278 0.29724
 C572 C 0.40506 0.49978 0.20674
 C573 C 0.34565 0.54681 0.25009
 C574 C 0.34610 0.45602 0.25029
 C575 C 0.60314 0.99017 0.26998
 H576 H 0.60192 0.98072 0.26188
 C577 C 0.59532 0.98998 0.28334
 H578 H 0.58774 0.98039 0.28602
 C579 C 0.61524 1.01426 0.27602
 H580 H 0.62324 1.02346 0.27341
 C581 C 0.60684 1.01456 0.29082
 H582 H 0.60862 1.02416 0.29868
 N583 N 0.61326 1.00287 0.26635
 C584 C 0.61837 1.00388 0.21620
 H585 H 0.63082 1.00460 0.21546
 C586 C 0.60951 1.00375 0.20275
 H587 H 0.61514 1.00437 0.19159
 C588 C 0.59581 1.00205 0.23165
 H589 H 0.59052 1.00146 0.24293
 C590 C 0.58650 1.00188 0.21845
 H591 H 0.57406 1.00106 0.21960
 Zn592 Zn 0.62470 1.00226 0.24766
 N593 N 0.61146 1.00276 0.23027
 C594 C 0.63425 0.97320 0.23600
 N595 N 0.63633 0.98368 0.24755
 C596 C 0.64607 0.98073 0.25954
 C597 C 0.65440 0.96688 0.26006
 C598 C 0.64234 0.95925 0.23608
 C599 C 0.63059 1.03376 0.24488
 C600 C 0.63922 1.04738 0.24457
 C601 C 0.66250 1.03209 0.24682
 C602 C 0.65340 1.01873 0.24707
 N603 N 0.63772 1.01983 0.24640
 H604 H 0.62617 0.97549 0.22680
 H605 H 0.64728 0.98911 0.26874
 H606 H 0.66211 0.96460 0.26964
 H607 H 0.64057 0.95096 0.22686
 H608 H 0.61812 1.03428 0.24421
 H609 H 0.63337 1.05842 0.24367
 H610 H 0.67495 1.03113 0.24764
 H611 H 0.65886 1.00754 0.24798
 C612 C 0.59345 1.00260 0.20388
 C613 C 0.59728 1.00291 0.29436
 C614 C 0.65532 1.04655 0.24572
 C615 C 0.65250 0.95606 0.24820
 C616 C 0.10315 0.48934 0.76884
 H617 H 0.10200 0.47986 0.76076
 C618 C 0.09498 0.48910 0.78278
 H619 H 0.08744 0.47946 0.78544
 C620 C 0.11465 0.51332 0.77550
 H621 H 0.12255 0.52260 0.77283
 C622 C 0.10671 0.51354 0.78952
 H623 H 0.10841 0.52306 0.79748
 N624 N 0.11264 0.50141 0.76541
 C625 C 0.11775 0.50262 0.71526
 H626 H 0.13020 0.50341 0.71454
 C627 C 0.10890 0.50251 0.70179
 H628 H 0.11454 0.50321 0.69064
 C629 C 0.09517 0.50063 0.73067
 H630 H 0.08987 0.49999 0.74194
 C631 C 0.08588 0.50048 0.71747
 H632 H 0.07345 0.49961 0.71859
 Zn633 Zn 0.12407 0.50096 0.74672
 N634 N 0.11083 0.50142 0.72932
 C635 C 0.13390 0.47202 0.73497
 N636 N 0.13587 0.48249 0.74655
 C637 C 0.14559 0.47959 0.75856
 C638 C 0.15400 0.46579 0.75909
 C639 C 0.14207 0.45812 0.73505
 C640 C 0.12962 0.53251 0.74408
 C641 C 0.13812 0.54622 0.74390
 C642 C 0.16154 0.53118 0.74615
 C643 C 0.15259 0.51771 0.74628
 N644 N 0.13691 0.51865 0.74556
 H645 H 0.12583 0.47428 0.72575
 H646 H 0.14671 0.48796 0.76778
 H647 H 0.16169 0.46354 0.76869
 H648 H 0.14038 0.44984 0.72581
 H649 H 0.11715 0.53289 0.74337
 H650 H 0.13219 0.55722 0.74305
 H651 H 0.17400 0.53040 0.74703
 H652 H 0.15818 0.50659 0.74716
 C653 C 0.09284 0.50129 0.70290
 C654 C 0.09679 0.50134 0.79320
 C655 C 0.15420 0.54556 0.74511
 C656 C 0.15220 0.45497 0.74721
 C657 C 0.76728 0.89674 0.01373
 H658 H 0.75877 0.89736 0.02286
 C659 C 0.78092 0.90536 0.01480
 H660 H 0.78291 0.91270 0.02473
 C661 C 0.77537 0.88611 -0.01020
 H662 H 0.77338 0.87837 -0.01977
 C663 C 0.78912 0.89451 -0.00958
 H664 H 0.79754 0.89332 -0.01876
 N665 N 0.76472 0.88745 0.00130
 C666 C 0.71491 0.88051 -0.00230
 H667 H 0.71475 0.86806 -0.00351
 C668 C 0.70109 0.88880 -0.00247
 H669 H 0.69023 0.88273 -0.00381
 C670 C 0.72928 0.90363 0.00110
 H671 H 0.74028 0.90936 0.00242
 C672 C 0.71569 0.91237 0.00100
 H673 H 0.71625 0.92481 0.00235
 Zn674 Zn 0.74646 0.87535 0.00065
 N675 N 0.72861 0.88795 -0.00025
 C676 C 0.73384 0.86460 0.02882
 N677 N 0.74589 0.86312 0.01882
 C678 C 0.75804 0.85367 0.02206
 C679 C 0.75825 0.84507 0.03575
 C680 C 0.73360 0.85623 0.04258
 C681 C 0.74528 0.87054 -0.03104
 C682 C 0.74570 0.86241 -0.04495
 C683 C 0.74811 0.83863 -0.03049
 C684 C 0.74764 0.84722 -0.01681
 N685 N 0.74650 0.86292 -0.01735
 H686 H 0.72450 0.87247 0.02632
 H687 H 0.76763 0.85294 0.01408
 H688 H 0.76798 0.83762 0.03829
 H689 H 0.72399 0.85756 0.05050
 H690 H 0.74422 0.88300 -0.03112
 H691 H 0.74496 0.86861 -0.05579
 H692 H 0.74924 0.82616 -0.03002
 H693 H 0.74831 0.84136 -0.00582
 C694 C 0.70147 0.90485 -0.00065
 C695 C 0.79192 0.90421 0.00301
 C696 C 0.74726 0.84633 -0.04468
 C697 C 0.74590 0.84640 0.04609
 C698 C 0.26720 0.39616 0.51318
 H699 H 0.25877 0.39697 0.52236
 C700 C 0.28081 0.40485 0.51391
 H701 H 0.28286 0.41244 0.52365
 C702 C 0.27509 0.38501 0.48942
 H703 H 0.27303 0.37706 0.48004
 C704 C 0.28881 0.39347 0.48971
 H705 H 0.29715 0.39211 0.48047
 N706 N 0.26454 0.38659 0.50097
 C707 C 0.21469 0.37964 0.49797
 H708 H 0.21451 0.36716 0.49703
 C709 C 0.20088 0.38793 0.49774
 H710 H 0.19000 0.38184 0.49662
 C711 C 0.22910 0.40281 0.50074
 H712 H 0.24012 0.40856 0.50184
 C713 C 0.21551 0.41156 0.50057
 H714 H 0.21609 0.42403 0.50163
 Zn715 Zn 0.24626 0.37450 0.50071
 N716 N 0.22841 0.38712 0.49974
 C717 C 0.23386 0.36423 0.52916
 N718 N 0.24583 0.36258 0.51908
 C719 C 0.25795 0.35310 0.52234
 C720 C 0.25819 0.34460 0.53608
 C721 C 0.23365 0.35597 0.54299
 C722 C 0.24483 0.36912 0.46911
 C723 C 0.24506 0.36072 0.45536
 C724 C 0.24738 0.33720 0.47025
 C725 C 0.24709 0.34606 0.48377
 N726 N 0.24609 0.36175 0.48293
 H727 H 0.22454 0.37212 0.52664
 H728 H 0.26747 0.35222 0.51428
 H729 H 0.26788 0.33710 0.53862
 H730 H 0.22409 0.35741 0.55095
 H731 H 0.24387 0.38159 0.46881
 H732 H 0.24429 0.36672 0.44441
 H733 H 0.24839 0.32474 0.47096
 H734 H 0.24779 0.34040 0.49486
 C735 C 0.20128 0.40401 0.49919
 C736 C 0.29170 0.40348 0.50204
 C737 C 0.24648 0.34464 0.45593
 C738 C 0.24591 0.34607 0.54649
 C739 C 0.23031 0.60198 0.01020
 H740 H 0.23845 0.60092 0.01962
 C741 C 0.21648 0.59361 0.01050
 H742 H 0.21401 0.58602 0.02014
 C743 C 0.22335 0.61348 -0.01366
 H744 H 0.22585 0.62147 -0.02290
 C745 C 0.20943 0.60535 -0.01383
 H746 H 0.20141 0.60702 -0.02329
 N747 N 0.23353 0.61159 -0.00183
 C748 C 0.28352 0.61790 -0.00329
 H749 H 0.28386 0.63038 -0.00416
 C750 C 0.29725 0.60947 -0.00325
 H751 H 0.30822 0.61546 -0.00409
 C752 C 0.26882 0.59486 -0.00102
 H753 H 0.25772 0.58922 -0.00024
 C754 C 0.28232 0.58597 -0.00094
 H755 H 0.28160 0.57350 0.00002
 Zn756 Zn 0.25199 0.62339 -0.00142
 N757 N 0.26969 0.61055 -0.00192
 C758 C 0.26364 0.63345 0.02742
 N759 N 0.25200 0.63524 0.01701
 C760 C 0.23991 0.64489 0.01991
 C761 C 0.23941 0.65346 0.03361
 C762 C 0.26359 0.64177 0.04122
 C763 C 0.25449 0.62897 -0.03293
 C764 C 0.25479 0.63747 -0.04662
 C765 C 0.25237 0.66091 -0.03161
 C766 C 0.25212 0.65195 -0.01816
 N767 N 0.25291 0.63625 -0.01909
 H768 H 0.27293 0.62543 0.02517
 H769 H 0.23065 0.64588 0.01159
 H770 H 0.22978 0.66113 0.03585
 H771 H 0.27291 0.64025 0.04943
 H772 H 0.25527 0.61649 -0.03331
 H773 H 0.25579 0.63153 -0.05759
 H774 H 0.25151 0.67338 -0.03083
 H775 H 0.25118 0.65755 -0.00705
 C776 C 0.29666 0.59338 -0.00193
 C777 C 0.20595 0.59533 -0.00165
 C778 C 0.25359 0.65357 -0.04596
 C779 C 0.25139 0.65188 0.04434
 C780 C 0.73207 0.10362 0.51047
 H781 H 0.74024 0.10257 0.51986
 C782 C 0.71819 0.09534 0.51087
 H783 H 0.71567 0.08782 0.52056
 C784 C 0.72509 0.11499 0.48655
 H785 H 0.72760 0.12289 0.47724
 C786 C 0.71112 0.10694 0.48650
 H787 H 0.70305 0.10856 0.47708
 N788 N 0.73530 0.11312 0.49836
 C789 C 0.78533 0.11903 0.49664
 H790 H 0.78576 0.13149 0.49569
 C791 C 0.79899 0.11049 0.49670
 H792 H 0.81000 0.11637 0.49579
 C793 C 0.77044 0.09612 0.49911
 H794 H 0.75930 0.09058 0.49997
 C795 C 0.78387 0.08712 0.49922
 H796 H 0.78304 0.07467 0.50027
 Zn797 Zn 0.75385 0.12479 0.49861
 N798 N 0.77144 0.11180 0.49810
 C799 C 0.76569 0.13484 0.52737
 N800 N 0.75402 0.13671 0.51700
 C801 C 0.74201 0.14643 0.51994
 C802 C 0.74159 0.15497 0.53365
 C803 C 0.76571 0.14314 0.54119
 C804 C 0.75627 0.13016 0.46707
 C805 C 0.75657 0.13857 0.45334
 C806 C 0.75432 0.16212 0.46820
 C807 C 0.75407 0.15325 0.48171
 N808 N 0.75478 0.13754 0.48087
 H809 H 0.77491 0.12676 0.52510
 H810 H 0.73272 0.14748 0.51164
 H811 H 0.73199 0.16268 0.53593
 H812 H 0.77504 0.14154 0.54938
 H813 H 0.75698 0.11767 0.46677
 H814 H 0.75750 0.13256 0.44240
 H815 H 0.75353 0.17460 0.46890
 H816 H 0.75319 0.15892 0.49279
 C817 C 0.79826 0.09441 0.49814
 C818 C 0.70764 0.09704 0.49876
 C819 C 0.75545 0.15468 0.45390
 C820 C 0.75357 0.15329 0.54436
 C821 C 0.98943 0.72977 0.89735
 H822 H 0.98003 0.73793 0.89855
 C823 C 0.98912 0.71638 0.90512
 H824 H 0.97949 0.71372 0.91265
 C825 C 1.01352 0.72363 0.88535
 H826 H 1.02277 0.72622 0.87742
 C827 C 1.01370 0.70879 0.89371
 H828 H 1.02324 0.70087 0.89194
 N829 N 1.00219 0.73336 0.88731
 C830 C 1.00368 0.78433 0.88188
 H831 H 1.00461 0.78499 0.86943
 C832 C 1.00358 0.79727 0.89032
 H833 H 1.00444 0.80842 0.88470
 C834 C 1.00161 0.76820 0.90421
 H835 H 1.00087 0.75695 0.90953
 C836 C 1.00142 0.78220 0.91400
 H837 H 1.00038 0.78101 0.92642
 Zn838 Zn 1.00177 0.75210 0.87595
 N839 N 1.00234 0.76947 0.88922
 C840 C 0.97292 0.76407 0.86639
 N841 N 0.98327 0.75242 0.86426
 C842 C 0.98023 0.74051 0.85443
 C843 C 0.96642 0.74018 0.84606
 C844 C 0.95901 0.76419 0.85826
 C845 C 1.03325 0.75479 0.87027
 C846 C 1.04690 0.75514 0.86172
 C847 C 1.03180 0.75300 0.83835
 C848 C 1.01839 0.75270 0.84735
 N849 N 1.01938 0.75331 0.86303
 H850 H 0.97529 0.77321 0.87454
 H851 H 0.98851 0.73123 0.85317
 H852 H 0.96406 0.73067 0.83826
 H853 H 0.95083 0.77350 0.86007
 H854 H 1.03368 0.75541 0.88274
 H855 H 1.05791 0.75603 0.86761
 H856 H 1.03098 0.75225 0.82588
 H857 H 1.00725 0.75182 0.84180
 C858 C 1.00221 0.79616 0.90729
 C859 C 1.00198 0.70528 0.90320
 C860 C 1.04619 0.75409 0.84564
 C861 C 0.95573 0.75216 0.84801
 C862 C 0.49116 0.23052 0.39530
 H863 H 0.48160 0.23852 0.39633
 C864 C 0.49100 0.21663 0.40357
 H865 H 0.48135 0.21393 0.41106
 C866 C 0.51526 0.22401 0.38401
 H867 H 0.52455 0.22672 0.37615
 C868 C 0.51556 0.21004 0.39204
 H869 H 0.52516 0.20216 0.39047
 N870 N 0.50325 0.23400 0.38586
 C871 C 0.50398 0.28418 0.38048
 H872 H 0.50484 0.28484 0.36804
 C873 C 0.50367 0.29771 0.38925
 H874 H 0.50427 0.30885 0.38356
 C875 C 0.50203 0.26886 0.40313
 H876 H 0.50148 0.25761 0.40849
 C877 C 0.50167 0.28214 0.41234
 H878 H 0.50074 0.28108 0.42477
 Zn879 Zn 0.50271 0.25263 0.37433
 N880 N 0.50289 0.27013 0.38748
 C881 C 0.47376 0.26402 0.36424
 N882 N 0.48435 0.25253 0.36240
 C883 C 0.48167 0.24044 0.35268
 C884 C 0.46799 0.23975 0.34412
 C885 C 0.45996 0.26377 0.35592
 C886 C 0.53423 0.25557 0.36901
 C887 C 0.54798 0.25589 0.36062
 C888 C 0.53317 0.25337 0.33710
 C889 C 0.51965 0.25310 0.34594
 N890 N 0.52046 0.25390 0.36162
 H891 H 0.47584 0.27329 0.37231
 H892 H 0.49013 0.23130 0.35167
 H893 H 0.46592 0.23010 0.33642
 H894 H 0.45159 0.27295 0.35749
 H895 H 0.53450 0.25634 0.38148
 H896 H 0.55891 0.25691 0.36663
 H897 H 0.53251 0.25245 0.32464
 H898 H 0.50860 0.25208 0.34027
 C899 C 0.50236 0.29669 0.40531
 C900 C 0.50334 0.20632 0.40191
 C901 C 0.54746 0.25462 0.34454
 C902 C 0.45705 0.25155 0.34577
 C903 C 0.98798 0.26899 0.60281
 H904 H 0.97887 0.26046 0.60214
 C905 C 0.98705 0.28253 0.59401
 H906 H 0.97722 0.28438 0.58648
 C907 C 1.01171 0.27724 0.61373
 H908 H 1.02114 0.27535 0.62165
 C909 C 1.01124 0.29089 0.60516
 H910 H 1.02042 0.29932 0.60643
 N911 N 1.00025 0.26655 0.61233
 C912 C 1.00364 0.21679 0.62002
 H913 H 1.00463 0.21682 0.63247
 C914 C 1.00397 0.20283 0.61196
 H915 H 1.00520 0.19205 0.61821
 C916 C 1.00068 0.23080 0.59666
 H917 H 0.99947 0.24173 0.59075
 C918 C 1.00094 0.21706 0.58813
 H919 H 0.99983 0.21743 0.57568
 Zn920 Zn 1.00068 0.24844 0.62466
 N921 N 1.00174 0.23038 0.61234
 C922 C 0.97235 0.23600 0.63526
 N923 N 0.98234 0.24807 0.63665
 C924 C 0.97904 0.26036 0.64592
 C925 C 0.96533 0.26066 0.65447
 C926 C 0.95855 0.23584 0.64358
 C927 C 1.03232 0.24734 0.62999
 C928 C 1.04608 0.24780 0.63836
 C929 C 1.03116 0.25029 0.66185
 C930 C 1.01765 0.24979 0.65301
 N931 N 1.01849 0.24859 0.63735
 H932 H 0.97490 0.22655 0.62753
 H933 H 0.98703 0.26995 0.64659
 H934 H 0.96275 0.27047 0.66181
 H935 H 0.95066 0.22619 0.64235
 H936 H 1.03263 0.24623 0.61755
 H937 H 1.05703 0.24703 0.63233
 H938 H 1.03041 0.25145 0.67429
 H939 H 1.00655 0.25045 0.65867
 C940 C 1.00246 0.20295 0.59589
 C941 C 0.99881 0.29358 0.59522
 C942 C 1.04551 0.24941 0.65442
 C943 C 0.95500 0.24826 0.65327
 C944 C 0.48707 0.76886 0.10359
 H945 H 0.47792 0.76037 0.10286
 C946 C 0.48623 0.78244 0.09487
 H947 H 0.47645 0.78442 0.08733
 C948 C 0.51083 0.77693 0.11460
 H949 H 0.52024 0.77496 0.12253
 C950 C 0.51044 0.79063 0.10611
 H951 H 0.51963 0.79903 0.10740
 N952 N 0.49932 0.76630 0.11312
 C953 C 0.50245 0.71648 0.12048
 H954 H 0.50336 0.71638 0.13294
 C955 C 0.50277 0.70259 0.11229
 H956 H 0.50391 0.69174 0.11844
 C957 C 0.49971 0.73072 0.09723
 H958 H 0.49860 0.74171 0.09141
 C959 C 0.49997 0.71707 0.08858
 H960 H 0.49895 0.71756 0.07612
 Zn961 Zn 0.49963 0.74812 0.12536
 N962 N 0.50067 0.73015 0.11292
 C963 C 0.47118 0.73577 0.13575
 N964 N 0.48123 0.74779 0.13725
 C965 C 0.47791 0.76009 0.14650
 C966 C 0.46409 0.76050 0.15486
 C967 C 0.45727 0.73572 0.14389
 C968 C 0.53124 0.74684 0.13077
 C969 C 0.54498 0.74731 0.13916
 C970 C 0.53004 0.74993 0.16260
 C971 C 0.51653 0.74942 0.15376
 N972 N 0.51739 0.74816 0.13810
 H973 H 0.47376 0.72631 0.12804
 H974 H 0.48595 0.76964 0.14725
 H975 H 0.46148 0.77034 0.16214
 H976 H 0.44931 0.72615 0.14254
 H977 H 0.53156 0.74569 0.11833
 H978 H 0.55595 0.74651 0.13318
 H979 H 0.52931 0.75117 0.17503
 H980 H 0.50543 0.75016 0.15939
 C981 C 0.50138 0.70288 0.09621
 C982 C 0.49805 0.79341 0.09616
 C983 C 0.54438 0.74900 0.15520
 C984 C 0.45368 0.74819 0.15350
 O985 O -0.01056 0.98888 0.95973
 O986 O 0.01498 0.99638 0.95909
 O987 O -0.01235 0.95585 0.99707
 O988 O -0.00752 0.95534 1.02225
 O989 O -0.04667 0.99252 0.99400
 O990 O -0.04631 1.01920 1.00022
 O991 O 0.02748 0.99787 1.03713
 O992 O 0.02887 0.97335 1.02699
 O993 O 0.03188 1.02896 1.00029
 O994 O 0.01922 1.03210 0.97524
 O995 O -0.00420 1.03483 1.03197
 O996 O -0.02900 1.02275 1.03632
 O997 O 0.00630 1.01074 1.04607
 O998 O -0.02186 1.00330 1.04659
 O999 O 0.00795 1.04333 1.01028
 O1000 O -0.00001 1.04268 0.98251
 O1001 O 0.04073 1.00795 1.01340
 O1002 O 0.04001 0.98121 1.00281
 O1003 O -0.03160 1.00216 0.96845
 O1004 O -0.03460 1.02705 0.98074
 O1005 O -0.03787 0.97130 1.00681
 O1006 O -0.02458 0.96986 1.03217
 O1007 O -0.00057 0.96426 0.97510
 O1008 O 0.02508 0.97683 0.97347
 Zr1009 Zr 0.00392 0.98785 0.97918
 O1010 O 0.01878 1.00224 0.99199
 Zr1011 Zr -0.01430 0.97582 1.01079
 O1012 O 0.00023 0.98927 1.02492
 Zr1013 Zr -0.02702 1.00671 0.99195
 O1014 O -0.01346 1.02161 1.00562
 Zr1015 Zr 0.02165 0.99289 1.01415
 O1016 O 0.00789 0.97761 1.00091
 Zr1017 Zr 0.00855 1.02391 0.99566
 O1018 O -0.00556 1.01021 0.98115
 Zr1019 Zr -0.00925 1.01150 1.02731
 O1020 O -0.02467 0.99754 1.01435
 O1021 O -0.01789 0.98472 0.98883
 O1022 O 0.01250 1.01494 1.01763
 C1023 C -0.02380 0.99531 0.95782
 C1024 C -0.00660 0.95369 0.98357
 C1025 C -0.04859 0.97928 1.00039
 C1026 C 0.01986 1.00491 1.04772
 C1027 C 0.04248 1.02135 1.00731
 C1028 C 0.00247 1.04531 1.02389
 H1029 H 0.02880 1.00310 0.98657
 H1030 H -0.01878 1.03167 1.00659
 H1031 H -0.02458 0.97800 0.98243
 H1032 H 0.00156 0.98404 1.03498
 H1033 H 0.02633 0.96415 1.02067
 H1034 H 0.00205 0.95781 1.02797
 H1035 H -0.00932 1.04670 0.98778
 H1036 H -0.02634 1.03002 0.97341
 H1037 H 0.04926 0.98176 1.00954
 H1038 H 0.02358 0.97054 0.96400
 H1039 H -0.03269 1.03011 1.02840
 H1040 H -0.04788 1.01591 1.01106
 H1041 H 0.01172 1.00728 0.95789
 H1042 H 0.02721 1.02452 0.97220
 H1043 H -0.03276 0.97760 1.03421
 H1044 H -0.01642 0.99413 1.05072
 O1045 O 0.48885 0.48959 0.45959
 O1046 O 0.51441 0.49709 0.45911
 O1047 O 0.48685 0.45644 0.49681
 O1048 O 0.49157 0.45586 0.52201
 O1049 O 0.45258 0.49314 0.49365
 O1050 O 0.45292 0.51981 0.50000
 O1051 O 0.52650 0.49841 0.53722
 O1052 O 0.52789 0.47387 0.52707
 O1053 O 0.53110 0.52952 0.50047
 O1054 O 0.51856 0.53275 0.47538
 O1055 O 0.49483 0.53532 0.53199
 O1056 O 0.46996 0.52318 0.53613
 O1057 O 0.50527 0.51125 0.54606
 O1058 O 0.47714 0.50379 0.54648
 O1059 O 0.50715 0.54388 0.51041
 O1060 O 0.49931 0.54333 0.48260
 O1061 O 0.53988 0.50846 0.51356
 O1062 O 0.53917 0.48174 0.50295
 O1063 O 0.46777 0.50285 0.46824
 O1064 O 0.46471 0.52770 0.48057
 O1065 O 0.46128 0.47188 0.50646
 O1066 O 0.47442 0.47036 0.53188
 O1067 O 0.49876 0.46492 0.47493
 O1068 O 0.52442 0.47749 0.47349
 Zr1069 Zr 0.50323 0.48850 0.47912
 O1070 O 0.51803 0.50284 0.49205
 Zr1071 Zr 0.48484 0.47637 0.51059
 O1072 O 0.49928 0.48978 0.52485
 Zr1073 Zr 0.47224 0.50733 0.49177
 O1074 O 0.48572 0.52219 0.50556
 Zr1075 Zr 0.52077 0.49343 0.51421
 O1076 O 0.50708 0.47819 0.50084
 Zr1077 Zr 0.50779 0.52451 0.49573
 O1078 O 0.49375 0.51086 0.48110
 Zr1079 Zr 0.48981 0.51201 0.52723
 O1080 O 0.47446 0.49808 0.51415
 O1081 O 0.48137 0.48535 0.48864
 O1082 O 0.51161 0.51547 0.51769
 C1083 C 0.47562 0.49603 0.45763
 C1084 C 0.49268 0.45432 0.48334
 C1085 C 0.45061 0.47987 0.49998
 C1086 C 0.51883 0.50546 0.54777
 C1087 C 0.54167 0.52187 0.50751
 C1088 C 0.50158 0.54582 0.52400
 H1089 H 0.52808 0.50371 0.48669
 H1090 H 0.48040 0.53225 0.50652
 H1091 H 0.47472 0.47865 0.48218
 H1092 H 0.50057 0.48453 0.53490
 H1093 H 0.52538 0.46468 0.52072
 H1094 H 0.50105 0.45834 0.52786
 H1095 H 0.48998 0.54735 0.48784
 H1096 H 0.47303 0.53072 0.47333
 H1097 H 0.54838 0.48226 0.50974
 H1098 H 0.52297 0.47123 0.46399
 H1099 H 0.46640 0.53067 0.52827
 H1100 H 0.45128 0.51647 0.51081
 H1101 H 0.51113 0.50799 0.45791
 H1102 H 0.52656 0.52517 0.47235
 H1103 H 0.46626 0.47812 0.53391
 H1104 H 0.48253 0.49458 0.55056
 O1105 O 0.47291 0.00449 0.53336
 O1106 O 0.47053 0.02855 0.52195
 O1107 O 0.46769 -0.02737 0.49550
 O1108 O 0.47922 -0.03235 0.47308
 O1109 O 0.50541 -0.03294 0.52809
 O1110 O 0.52955 -0.02038 0.53132
 O1111 O 0.50965 0.01233 0.45516
 O1112 O 0.48463 0.00373 0.45471
 O1113 O 0.51279 0.04515 0.49084
 O1114 O 0.50590 0.04562 0.51808
 O1115 O 0.54578 0.00960 0.48828
 O1116 O 0.54637 -0.01741 0.49483
 O1117 O 0.53111 -0.00010 0.46402
 O1118 O 0.53437 -0.02597 0.47708
 O1119 O 0.53699 0.03094 0.50088
 O1120 O 0.52393 0.03395 0.52650
 O1121 O 0.50064 0.03617 0.46932
 O1122 O 0.47430 0.02472 0.46961
 O1123 O 0.49452 -0.00757 0.54242
 O1124 O 0.52153 -0.00048 0.54228
 O1125 O 0.49294 -0.04200 0.50677
 O1126 O 0.50126 -0.04117 0.47938
 O1127 O 0.45878 -0.00625 0.50846
 O1128 O 0.45974 0.02084 0.49923
 Zr1129 Zr 0.47805 0.00856 0.50998
 O1130 O 0.49158 0.02340 0.49625
 Zr1131 Zr 0.49128 -0.02273 0.49200
 O1132 O 0.50489 -0.00909 0.47716
 Zr1133 Zr 0.50931 -0.00945 0.52313
 O1134 O 0.52410 0.00437 0.50961
 Zr1135 Zr 0.49528 0.01305 0.47465
 O1136 O 0.48047 -0.00130 0.48783
 Zr1137 Zr 0.51371 0.02597 0.50577
 O1138 O 0.49956 0.01265 0.52062
 Zr1139 Zr 0.52652 -0.00521 0.48741
 O1140 O 0.51343 -0.02022 0.50171
 O1141 O 0.48759 -0.01321 0.51369
 O1142 O 0.51728 0.01672 0.48383
 C1143 C 0.48099 -0.00168 0.54416
 C1144 C 0.45696 -0.01954 0.50211
 C1145 C 0.49905 -0.04375 0.52016
 C1146 C 0.52320 0.00657 0.45338
 C1147 C 0.50723 0.04685 0.47721
 C1148 C 0.54759 0.02311 0.49411
 H1149 H 0.48621 0.03343 0.49514
 H1150 H 0.53414 0.00535 0.51494
 H1151 H 0.48098 -0.01983 0.52027
 H1152 H 0.50578 -0.01433 0.46704
 H1153 H 0.47484 -0.00109 0.45817
 H1154 H 0.48141 -0.02570 0.46407
 H1155 H 0.53279 0.02713 0.52888
 H1156 H 0.51726 0.00994 0.54431
 H1157 H 0.47546 0.02988 0.45945
 H1158 H 0.45022 0.01953 0.50548
 H1159 H 0.54888 -0.01379 0.50537
 H1160 H 0.53324 -0.02714 0.52285
 H1161 H 0.47938 0.03221 0.52819
 H1162 H 0.49569 0.04854 0.51386
 H1163 H 0.51097 -0.04399 0.48471
 H1164 H 0.52773 -0.02813 0.46804
 O1165 O -0.03337 0.47153 0.99598
 O1166 O -0.02206 0.46898 0.97188
 O1167 O 0.00462 0.46633 1.02762
 O1168 O 0.02707 0.47785 1.03253
 O1169 O -0.02783 0.50429 1.03311
 O1170 O -0.03098 0.52840 1.02042
 O1171 O 0.04500 0.50791 0.98760
 O1172 O 0.04537 0.48292 0.99636
 O1173 O 0.00922 0.51097 0.95493
 O1174 O -0.01805 0.50420 0.95461
 O1175 O 0.01203 0.54423 0.99023
 O1176 O 0.00556 0.54502 1.01724
 O1177 O 0.03625 0.52951 0.99991
 O1178 O 0.02330 0.53301 1.02577
 O1179 O -0.00066 0.53534 0.96901
 O1180 O -0.02635 0.52238 0.96618
 O1181 O 0.03072 0.49877 0.96390
 O1182 O 0.03035 0.47249 0.97552
 O1183 O -0.04228 0.49330 1.00790
 O1184 O -0.04205 0.52028 1.00065
 O1185 O -0.00657 0.49175 1.04216
 O1186 O 0.02088 0.49999 1.04119
 O1187 O -0.00845 0.45734 1.00664
 O1188 O 0.00063 0.45809 0.97955
 Zr1189 Zr -0.00997 0.47655 0.99176
 O1190 O 0.00379 0.48992 0.97681
 Zr1191 Zr 0.00817 0.48992 1.02288
 O1192 O 0.02303 0.50338 1.00911
 Zr1193 Zr -0.02292 0.50802 1.00961
 O1194 O -0.00938 0.52266 0.99566
 Zr1195 Zr 0.02543 0.49360 0.98705
 O1196 O 0.01222 0.47894 1.00152
 Zr1197 Zr -0.00564 0.51209 0.97414
 O1198 O -0.02053 0.49811 0.98758
 Zr1199 Zr 0.01286 0.52505 1.00514
 O1200 O -0.00145 0.51211 1.02026
 O1201 O -0.01357 0.48626 1.01347
 O1202 O 0.01634 0.51563 0.98327
 C1203 C -0.04411 0.47972 1.00213
 C1204 C -0.00203 0.45557 1.01988
 C1205 C -0.01992 0.49795 1.04392
 C1206 C 0.04685 0.52151 0.99326
 C1207 C 0.02282 0.50532 0.95321
 C1208 C 0.00617 0.54598 0.97674
 H1209 H 0.00484 0.48447 0.96682
 H1210 H -0.01466 0.53274 0.99464
 H1211 H -0.02016 0.47971 1.02014
 H1212 H 0.03317 0.50426 1.01430
 H1213 H 0.04188 0.47317 1.00125
 H1214 H 0.03606 0.47991 1.02581
 H1215 H -0.02868 0.53129 0.97295
 H1216 H -0.04412 0.51595 0.99027
 H1217 H 0.04050 0.47356 0.97032
 H1218 H -0.00567 0.44860 0.98091
 H1219 H -0.00497 0.54758 1.01362
 H1220 H -0.02248 0.53208 1.02713
 H1221 H -0.02831 0.47784 0.96824
 H1222 H -0.01390 0.49394 0.95175
 H1223 H 0.01558 0.50974 1.04397
 H1224 H 0.03231 0.52632 1.02795
 O1225 O 0.00580 0.45399 0.50643
 O1226 O -0.00110 0.45391 0.48068
 O1227 O 0.03909 0.49096 0.50975
 O1228 O 0.04000 0.51626 0.50547
 O1229 O 0.00148 0.48763 0.54305
 O1230 O -0.02510 0.49413 0.54208
 O1231 O -0.00126 0.53233 0.46971
 O1232 O 0.02311 0.52185 0.46872
 O1233 O -0.03271 0.49592 0.46373
 O1234 O -0.03643 0.47060 0.47574
 O1235 O -0.03916 0.52694 0.50024
 O1236 O -0.02774 0.53065 0.52543
 O1237 O -0.01461 0.54099 0.49070
 O1238 O -0.00801 0.54085 0.51905
 O1239 O -0.04758 0.50554 0.48748
 O1240 O -0.04742 0.47756 0.49487
 O1241 O -0.01135 0.50903 0.45573
 O1242 O 0.01519 0.49802 0.45688
 O1243 O -0.00792 0.46245 0.52728
 O1244 O -0.03278 0.47490 0.52978
 O1245 O 0.02307 0.50036 0.53506
 O1246 O 0.02517 0.52599 0.52234
 O1247 O 0.03079 0.46930 0.49730
 O1248 O 0.01886 0.46826 0.47134
 Zr1249 Zr 0.00738 0.47371 0.49232
 O1250 O -0.00644 0.48700 0.47734
 Zr1251 Zr 0.01924 0.50487 0.51147
 O1252 O 0.00637 0.51945 0.49689
 Zr1253 Zr -0.01215 0.48609 0.52300
 O1254 O -0.02651 0.50022 0.50933
 Zr1255 Zr 0.00322 0.50914 0.47517
 O1256 O 0.01795 0.49544 0.48906
 Zr1257 Zr -0.02832 0.49072 0.48707
 O1258 O -0.01519 0.47575 0.50124
 Zr1259 Zr -0.01605 0.52190 0.50582
 O1260 O -0.00268 0.50846 0.52133
 O1261 O 0.01002 0.48292 0.51438
 O1262 O -0.01901 0.51269 0.48380
 C1263 C -0.00094 0.45190 0.51948
 C1264 C 0.04127 0.47756 0.50377
 C1265 C 0.01474 0.49383 0.54544
 C1266 C -0.00837 0.54287 0.47736
 C1267 C -0.02476 0.50314 0.45350
 C1268 C -0.04955 0.51909 0.49316
 H1269 H -0.00709 0.48180 0.46719
 H1270 H -0.03669 0.50119 0.51440
 H1271 H 0.01650 0.47632 0.52111
 H1272 H 0.01175 0.52949 0.49591
 H1273 H 0.03214 0.51534 0.47136
 H1274 H 0.03787 0.52215 0.49593
 H1275 H -0.05162 0.48267 0.50419
 H1276 H -0.03556 0.46773 0.52131
 H1277 H 0.01496 0.50495 0.44776
 H1278 H 0.02499 0.45868 0.47283
 H1279 H -0.03530 0.52275 0.52875
 H1280 H -0.02175 0.50491 0.54395
 H1281 H -0.01208 0.45276 0.48368
 H1282 H -0.02865 0.46762 0.46792
 H1283 H 0.01725 0.52795 0.53035
 H1284 H 0.00137 0.54496 0.51397
 O1285 O 0.50597 0.95487 0.00763
 O1286 O 0.49903 0.95475 -0.01810
 O1287 O 0.53934 0.99180 0.01079
 O1288 O 0.54028 1.01709 0.00648
 O1289 O 0.50181 0.98859 0.04420
 O1290 O 0.47524 0.99514 0.04327
 O1291 O 0.49896 1.03314 -0.02924
 O1292 O 0.52331 1.02263 -0.03026
 O1293 O 0.46745 0.99677 -0.03507
 O1294 O 0.46369 0.97150 -0.02299
 O1295 O 0.46114 1.02789 0.00140
 O1296 O 0.47261 1.03164 0.02655
 O1297 O 0.48569 1.04187 -0.00823
 O1298 O 0.49236 1.04178 0.02011
 O1299 O 0.45265 1.00649 -0.01130
 O1300 O 0.45277 0.97852 -0.00384
 O1301 O 0.48882 1.00981 -0.04315
 O1302 O 0.51535 0.99877 -0.04202
 O1303 O 0.49231 0.96340 0.02849
 O1304 O 0.46748 0.97591 0.03103
 O1305 O 0.52340 1.00127 0.03613
 O1306 O 0.52551 1.02687 0.02335
 O1307 O 0.53098 0.97012 -0.00159
 O1308 O 0.51897 0.96906 -0.02752
 Zr1309 Zr 0.50756 0.97457 -0.00652
 O1310 O 0.49373 0.98785 -0.02149
 Zr1311 Zr 0.51953 1.00574 0.01254
 O1312 O 0.50665 1.02031 -0.00204
 Zr1313 Zr 0.48812 0.98704 0.02417
 O1314 O 0.47376 1.00117 0.01051
 Zr1315 Zr 0.50342 1.00996 -0.02374
 O1316 O 0.51817 0.99626 -0.00985
 Zr1317 Zr 0.47188 0.99162 -0.01172
 O1318 O 0.48502 0.97666 0.00245
 Zr1319 Zr 0.48425 1.02282 0.00694
 O1320 O 0.49763 1.00939 0.02245
 O1321 O 0.51027 0.98381 0.01552
 O1322 O 0.48122 1.01357 -0.01506
 C1323 C 0.49924 0.95283 0.02069
 C1324 C 0.54149 0.97838 0.00483
 C1325 C 0.51508 0.99477 0.04654
 C1326 C 0.49190 1.04371 -0.02159
 C1327 C 0.47539 1.00394 -0.04534
 C1328 C 0.45072 1.02006 -0.00564
 H1329 H 0.49304 0.98262 -0.03163
 H1330 H 0.46359 1.00217 0.01560
 H1331 H 0.51675 0.97721 0.02225
 H1332 H 0.51204 1.03034 -0.00306
 H1333 H 0.53234 1.01612 -0.02762
 H1334 H 0.53815 1.02295 -0.00308
 H1335 H 0.44859 0.98368 0.00546
 H1336 H 0.46467 0.96874 0.02258
 H1337 H 0.51511 1.00569 -0.05116
 H1338 H 0.52511 0.95948 -0.02603
 H1339 H 0.46506 1.02375 0.02991
 H1340 H 0.47861 1.00592 0.04512
 H1341 H 0.48805 0.95364 -0.01509
 H1342 H 0.47145 0.96848 -0.03081
 H1343 H 0.51762 1.02886 0.03138
 H1344 H 0.50172 1.04587 0.01498
 O1345 O 0.45741 0.50375 0.01256
 O1346 O 0.45747 0.47814 0.00502
 O1347 O 0.49446 0.50650 0.04573
 O1348 O 0.51975 0.50216 0.04642
 O1349 O 0.49085 0.54070 0.00907
 O1350 O 0.49717 0.54048 -0.01754
 O1351 O 0.53583 0.46757 0.00395
 O1352 O 0.52559 0.46596 0.02842
 O1353 O 0.49936 0.46230 -0.02731
 O1354 O 0.47400 0.47423 -0.03058
 O1355 O 0.53005 0.49929 -0.03295
 O1356 O 0.53370 0.52420 -0.02069
 O1357 O 0.54427 0.48898 -0.00890
 O1358 O 0.54417 0.51710 -0.00138
 O1359 O 0.50872 0.48659 -0.04160
 O1360 O 0.48071 0.49376 -0.04101
 O1361 O 0.51252 0.45376 -0.00622
 O1362 O 0.50175 0.45419 0.02042
 O1363 O 0.46573 0.52503 -0.00061
 O1364 O 0.47801 0.52828 -0.02545
 O1365 O 0.50377 0.53224 0.03034
 O1366 O 0.52939 0.51953 0.03201
 O1367 O 0.47286 0.49412 0.03722
 O1368 O 0.47198 0.46839 0.02465
 Zr1369 Zr 0.47722 0.48972 0.01368
 O1370 O 0.49050 0.47517 -0.00062
 Zr1371 Zr 0.50831 0.50873 0.02589
 O1372 O 0.52289 0.49456 0.01253
 Zr1373 Zr 0.48933 0.52099 -0.00508
 O1374 O 0.50344 0.50778 -0.01989
 Zr1375 Zr 0.51268 0.47285 0.00883
 O1376 O 0.49899 0.48628 0.02403
 Zr1377 Zr 0.49404 0.48551 -0.02225
 O1378 O 0.47909 0.49925 -0.00865
 Zr1379 Zr 0.52516 0.50411 -0.00965
 O1380 O 0.51173 0.51920 0.00422
 O1381 O 0.48631 0.51178 0.01686
 O1382 O 0.51605 0.48211 -0.01317
 C1383 C 0.45525 0.51698 0.00618
 C1384 C 0.48110 0.50042 0.04782
 C1385 C 0.49714 0.54280 0.02231
 C1386 C 0.54624 0.47545 -0.00309
 C1387 C 0.50660 0.45187 -0.01967
 C1388 C 0.52218 0.49248 -0.04350
 H1389 H 0.48535 0.46500 -0.00152
 H1390 H 0.50432 0.51315 -0.02992
 H1391 H 0.47972 0.51832 0.02354
 H1392 H 0.53296 0.49346 0.01780
 H1393 H 0.51915 0.46831 0.03758
 H1394 H 0.52581 0.49280 0.04395
 H1395 H 0.48574 0.50323 -0.04499
 H1396 H 0.47086 0.51986 -0.02840
 H1397 H 0.50872 0.44510 0.01991
 H1398 H 0.46243 0.46966 0.03087
 H1399 H 0.52581 0.52761 -0.02822
 H1400 H 0.50795 0.54234 -0.01421
 H1401 H 0.45625 0.48140 -0.00587
 H1402 H 0.47108 0.46622 -0.02298
 H1403 H 0.53134 0.52769 0.02424
 H1404 H 0.54833 0.51177 0.00783
 O1405 O -0.04177 0.00333 0.51294
 O1406 O -0.04171 -0.02218 0.50511
 O1407 O -0.00492 0.00567 0.54636
 O1408 O 0.02035 0.00134 0.54716
 O1409 O -0.00826 0.04027 0.50999
 O1410 O -0.00182 0.04031 0.48342
 O1411 O 0.03666 -0.03284 0.50444
 O1412 O 0.02626 -0.03472 0.52881
 O1413 O 0.00034 -0.03777 0.47290
 O1414 O -0.02492 -0.02577 0.46954
 O1415 O 0.03115 -0.00075 0.46783
 O1416 O 0.03475 0.02401 0.48034
 O1417 O 0.04521 -0.01130 0.49190
 O1418 O 0.04506 0.01675 0.49968
 O1419 O 0.00987 -0.01334 0.45891
 O1420 O -0.01815 -0.00611 0.45941
 O1421 O 0.01336 -0.04655 0.49397
 O1422 O 0.00245 -0.04636 0.52055
 O1423 O -0.03336 0.02473 0.50004
 O1424 O -0.02093 0.02821 0.47529
 O1425 O 0.00450 0.03159 0.53127
 O1426 O 0.03009 0.01881 0.53298
 O1427 O -0.02648 -0.00662 0.53758
 O1428 O -0.02732 -0.03219 0.52471
 Zr1429 Zr -0.02199 -0.01074 0.51402
 O1430 O -0.00863 -0.02515 0.49965
 Zr1431 Zr 0.00903 0.00811 0.52662
 O1432 O 0.02368 -0.00594 0.51321
 Zr1433 Zr -0.00973 0.02070 0.49565
 O1434 O 0.00446 0.00764 0.48081
 Zr1435 Zr 0.01348 -0.02760 0.50922
 O1436 O -0.00029 -0.01431 0.52447
 Zr1437 Zr -0.00494 -0.01460 0.47815
 O1438 O -0.01998 -0.00099 0.49180
 Zr1439 Zr 0.02611 0.00384 0.49115
 O1440 O 0.01260 0.01880 0.50508
 O1441 O -0.01290 0.01127 0.51748
 O1442 O 0.01701 -0.01812 0.48734
 C1443 C -0.04388 0.01663 0.50669
 C1444 C -0.01830 -0.00045 0.54830
 C1445 C -0.00204 0.04224 0.52329
 C1446 C 0.04713 -0.02489 0.49759
 C1447 C 0.00750 -0.04830 0.48048
 C1448 C 0.02335 -0.00745 0.45717
 H1449 H -0.01380 -0.03530 0.49861
 H1450 H 0.00541 0.01311 0.47083
 H1451 H -0.01952 0.01776 0.52420
 H1452 H 0.03371 -0.00710 0.51854
 H1453 H 0.01977 -0.03245 0.53795
 H1454 H 0.02636 -0.00804 0.54465
 H1455 H -0.01306 0.00336 0.45553
 H1456 H -0.02808 0.01982 0.47222
 H1457 H 0.00941 -0.05545 0.51999
 H1458 H -0.03690 -0.03098 0.53089
 H1459 H 0.02691 0.02753 0.47282
 H1460 H 0.00895 0.04212 0.48682
 H1461 H -0.04286 -0.01880 0.49426
 H1462 H -0.02797 -0.03379 0.47710
 H1463 H 0.03209 0.02707 0.52532
 H1464 H 0.04915 0.01132 0.50885
 O1465 O 0.74543 0.20614 0.25902
 O1466 O 0.77098 0.20623 0.25141
 O1467 O 0.74289 0.24290 0.29263
 O1468 O 0.74727 0.26819 0.29356
 O1469 O 0.70856 0.23974 0.25603
 O1470 O 0.70874 0.24631 0.22947
 O1471 O 0.78170 0.28466 0.25118
 O1472 O 0.78338 0.27416 0.27552
 O1473 O 0.78685 0.24838 0.21953
 O1474 O 0.77477 0.22308 0.21601
 O1475 O 0.74995 0.27930 0.21431
 O1476 O 0.72507 0.28284 0.22664
 O1477 O 0.76027 0.29328 0.23853
 O1478 O 0.73220 0.29312 0.24605
 O1479 O 0.76259 0.25804 0.20540
 O1480 O 0.75533 0.23004 0.20564
 O1481 O 0.79545 0.26136 0.24073
 O1482 O 0.79505 0.25036 0.26724
 O1483 O 0.72414 0.21461 0.24602
 O1484 O 0.72083 0.22717 0.22134
 O1485 O 0.71715 0.25241 0.27741
 O1486 O 0.72990 0.27800 0.27932
 O1487 O 0.75517 0.22135 0.28382
 O1488 O 0.78082 0.22053 0.27116
 Zr1489 Zr 0.75949 0.22593 0.26032
 O1490 O 0.77401 0.23935 0.24613
 Zr1491 Zr 0.74062 0.25695 0.27293
 O1492 O 0.75475 0.27166 0.25968
 Zr1493 Zr 0.72822 0.23829 0.24180
 O1494 O 0.74141 0.25253 0.22710
 Zr1495 Zr 0.77641 0.26145 0.25581
 O1496 O 0.76301 0.24761 0.27090
 Zr1497 Zr 0.76364 0.24312 0.22456
 O1498 O 0.74990 0.22804 0.23805
 Zr1499 Zr 0.74515 0.27416 0.23756
 O1500 O 0.73010 0.26061 0.25134
 O1501 O 0.73748 0.23503 0.26368
 O1502 O 0.76711 0.26506 0.23388
 C1503 C 0.73220 0.20405 0.25264
 C1504 C 0.74896 0.22950 0.29454
 C1505 C 0.70654 0.24592 0.26935
 C1506 C 0.77381 0.29518 0.24432
 C1507 C 0.79731 0.25552 0.22724
 C1508 C 0.75675 0.27155 0.20367
 H1509 H 0.78415 0.23417 0.24515
 H1510 H 0.73602 0.25352 0.21709
 H1511 H 0.73095 0.22838 0.27031
 H1512 H 0.75588 0.28168 0.26506
 H1513 H 0.78102 0.26763 0.28461
 H1514 H 0.75662 0.27428 0.29113
 H1515 H 0.74585 0.23512 0.20177
 H1516 H 0.72925 0.22008 0.21824
 H1517 H 0.80414 0.25733 0.26680
 H1518 H 0.77954 0.21092 0.27729
 H1519 H 0.72166 0.27505 0.21901
 H1520 H 0.70693 0.25708 0.23291
 H1521 H 0.76768 0.20512 0.24053
 H1522 H 0.78281 0.22008 0.22354
 H1523 H 0.72172 0.28005 0.27160
 H1524 H 0.73753 0.29715 0.25531
 O1525 O 0.75386 0.71983 0.71677
 O1526 O 0.77789 0.71738 0.72819
 O1527 O 0.72201 0.71501 0.75465
 O1528 O 0.71708 0.72671 0.77701
 O1529 O 0.71666 0.75255 0.72182
 O1530 O 0.72931 0.77667 0.71848
 O1531 O 0.76193 0.75703 0.79473
 O1532 O 0.75316 0.73204 0.79535
 O1533 O 0.79470 0.75980 0.75904
 O1534 O 0.79514 0.75272 0.73185
 O1535 O 0.75935 0.79301 0.76139
 O1536 O 0.73238 0.79370 0.75486
 O1537 O 0.74964 0.77852 0.78573
 O1538 O 0.72377 0.78183 0.77269
 O1539 O 0.78063 0.78402 0.74885
 O1540 O 0.78355 0.77077 0.72330
 O1541 O 0.78567 0.74779 0.78062
 O1542 O 0.77407 0.72148 0.78049
 O1543 O 0.74194 0.74148 0.70758
 O1544 O 0.74916 0.76848 0.70756
 O1545 O 0.70753 0.74026 0.74320
 O1546 O 0.70840 0.74880 0.77056
 O1547 O 0.74305 0.70589 0.74174
 O1548 O 0.77011 0.70676 0.75098
 Zr1549 Zr 0.75796 0.72509 0.74011
 O1550 O 0.77286 0.73863 0.75376
 Zr1551 Zr 0.72676 0.73861 0.75801
 O1552 O 0.74047 0.75224 0.77277
 Zr1553 Zr 0.74013 0.75640 0.72677
 O1554 O 0.75402 0.77121 0.74020
 Zr1555 Zr 0.76254 0.74252 0.77533
 O1556 O 0.74812 0.72770 0.76224
 Zr1557 Zr 0.77554 0.76071 0.74410
 O1558 O 0.76216 0.74654 0.72934
 Zr1559 Zr 0.74446 0.77382 0.76238
 O1560 O 0.72939 0.76071 0.74817
 O1561 O 0.73626 0.73474 0.73635
 O1562 O 0.76632 0.76446 0.76602
 C1563 C 0.74773 0.72789 0.70592
 C1564 C 0.72976 0.70419 0.74810
 C1565 C 0.70583 0.74627 0.72976
 C1566 C 0.75628 0.77064 0.79642
 C1567 C 0.79637 0.75430 0.77270
 C1568 C 0.77286 0.79472 0.75555
 H1569 H 0.78285 0.73321 0.75490
 H1570 H 0.75505 0.78123 0.73481
 H1571 H 0.72962 0.72811 0.72980
 H1572 H 0.73525 0.75322 0.78288
 H1573 H 0.74829 0.72225 0.79195
 H1574 H 0.72374 0.72893 0.78601
 H1575 H 0.77681 0.77968 0.72088
 H1576 H 0.75954 0.76414 0.70555
 H1577 H 0.77924 0.72267 0.79064
 H1578 H 0.76876 0.69719 0.74479
 H1579 H 0.73598 0.79611 0.74429
 H1580 H 0.72255 0.78041 0.72691
 H1581 H 0.78159 0.72618 0.72190
 H1582 H 0.79800 0.74251 0.73612
 H1583 H 0.70562 0.75848 0.76514
 H1584 H 0.72160 0.77526 0.78179
 O1585 O 0.27794 0.21537 0.74871
 O1586 O 0.27997 0.22634 0.72441
 O1587 O 0.28386 0.25383 0.77972
 O1588 O 0.27250 0.27638 0.78457
 O1589 O 0.24606 0.22145 0.78648
 O1590 O 0.22168 0.21817 0.77438
 O1591 O 0.24148 0.29370 0.74002
 O1592 O 0.26664 0.29419 0.74829
 O1593 O 0.23770 0.25746 0.70796
 O1594 O 0.24440 0.23012 0.70788
 O1595 O 0.20526 0.26086 0.74396
 O1596 O 0.20505 0.25470 0.77106
 O1597 O 0.22019 0.28515 0.75295
 O1598 O 0.21729 0.27258 0.77911
 O1599 O 0.21365 0.24787 0.72270
 O1600 O 0.22644 0.22204 0.71995
 O1601 O 0.25012 0.27907 0.71638
 O1602 O 0.27661 0.27885 0.72743
 O1603 O 0.25645 0.20663 0.76123
 O1604 O 0.22933 0.20679 0.75456
 O1605 O 0.25881 0.24286 0.79495
 O1606 O 0.25056 0.27032 0.79379
 O1607 O 0.29236 0.24043 0.75873
 O1608 O 0.29103 0.24915 0.73153
 Zr1609 Zr 0.27285 0.23872 0.74429
 O1610 O 0.25919 0.25230 0.72945
 Zr1611 Zr 0.26021 0.25734 0.77544
 O1612 O 0.24649 0.27205 0.76178
 Zr1613 Zr 0.24180 0.22604 0.76300
 O1614 O 0.22688 0.23943 0.74920
 Zr1615 Zr 0.25577 0.27412 0.73948
 O1616 O 0.27072 0.26108 0.75379
 Zr1617 Zr 0.23696 0.24285 0.72740
 O1618 O 0.25121 0.22813 0.74073
 Zr1619 Zr 0.22474 0.26182 0.75844
 O1620 O 0.23798 0.24770 0.77346
 O1621 O 0.26363 0.23545 0.76624
 O1622 O 0.23367 0.26498 0.73632
 C1623 C 0.26988 0.20471 0.75520
 C1624 C 0.29443 0.24703 0.77184
 C1625 C 0.25267 0.22952 0.79702
 C1626 C 0.22802 0.29563 0.74592
 C1627 C 0.24333 0.27104 0.70595
 C1628 C 0.20322 0.25486 0.73057
 H1629 H 0.26441 0.25321 0.71933
 H1630 H 0.21678 0.23415 0.74847
 H1631 H 0.27031 0.22894 0.77286
 H1632 H 0.24573 0.28227 0.76684
 H1633 H 0.27648 0.29077 0.75302
 H1634 H 0.27029 0.28530 0.77779
 H1635 H 0.21765 0.21986 0.72693
 H1636 H 0.23341 0.20459 0.74411
 H1637 H 0.27544 0.28895 0.72213
 H1638 H 0.30053 0.24286 0.73278
 H1639 H 0.20239 0.24412 0.76762
 H1640 H 0.21816 0.22678 0.78105
 H1641 H 0.27103 0.22005 0.72105
 H1642 H 0.25459 0.23423 0.70473
 H1643 H 0.24089 0.26505 0.79688
 H1644 H 0.22399 0.28166 0.78097
 O1645 O 0.21898 0.78562 0.24580
 O1646 O 0.21644 0.77457 0.22160
 O1647 O 0.21334 0.74729 0.27705
 O1648 O 0.22462 0.72465 0.28168
 O1649 O 0.25142 0.77943 0.28306
 O1650 O 0.27563 0.78252 0.27053
 O1651 O 0.25480 0.70703 0.23671
 O1652 O 0.22976 0.70673 0.24540
 O1653 O 0.25835 0.74312 0.20450
 O1654 O 0.25169 0.77050 0.20443
 O1655 O 0.29130 0.73976 0.23992
 O1656 O 0.29196 0.74594 0.26703
 O1657 O 0.27638 0.71551 0.24918
 O1658 O 0.27982 0.72809 0.27525
 O1659 O 0.28263 0.75276 0.21880
 O1660 O 0.26985 0.77858 0.21617
 O1661 O 0.24593 0.72161 0.21319
 O1662 O 0.21959 0.72205 0.22464
 O1663 O 0.24072 0.79425 0.25795
 O1664 O 0.26770 0.79391 0.25084
 O1665 O 0.23871 0.75811 0.29179
 O1666 O 0.24675 0.73061 0.29056
 O1667 O 0.20456 0.76068 0.25617
 O1668 O 0.20538 0.75183 0.22897
 Zr1669 Zr 0.22383 0.76220 0.24137
 O1670 O 0.23717 0.74850 0.22632
 Zr1671 Zr 0.23688 0.74360 0.27234
 O1672 O 0.25030 0.72879 0.25848
 Zr1673 Zr 0.25527 0.77475 0.25952
 O1674 O 0.26987 0.76126 0.24548
 Zr1675 Zr 0.24063 0.72670 0.23635
 O1676 O 0.22600 0.73987 0.25089
 Zr1677 Zr 0.25941 0.75783 0.22386
 O1678 O 0.24547 0.77266 0.23741
 Zr1679 Zr 0.27205 0.73888 0.25473
 O1680 O 0.25914 0.75310 0.26995
 O1681 O 0.23344 0.76549 0.26316
 O1682 O 0.26273 0.73570 0.23278
 C1683 C 0.22721 0.79623 0.25212
 C1684 C 0.20268 0.75414 0.26934
 C1685 C 0.24496 0.77143 0.29373
 C1686 C 0.26836 0.70504 0.24236
 C1687 C 0.25265 0.72955 0.20263
 C1688 C 0.29317 0.74576 0.22651
 H1689 H 0.23178 0.74759 0.21630
 H1690 H 0.27998 0.76649 0.24456
 H1691 H 0.22691 0.77206 0.26987
 H1692 H 0.25109 0.71857 0.26355
 H1693 H 0.22002 0.71024 0.25027
 H1694 H 0.22674 0.71569 0.27492
 H1695 H 0.27874 0.78078 0.22301
 H1696 H 0.26347 0.79613 0.24046
 H1697 H 0.22062 0.71194 0.21935
 H1698 H 0.19593 0.75818 0.23039
 H1699 H 0.29463 0.75648 0.26351
 H1700 H 0.27918 0.77393 0.27719
 H1701 H 0.22537 0.78074 0.21801
 H1702 H 0.24147 0.76637 0.20142
 H1703 H 0.25653 0.73581 0.29343
 H1704 H 0.27306 0.71909 0.27727
 O1705 O 0.24363 0.70631 0.75971
 O1706 O 0.26917 0.70614 0.75212
 O1707 O 0.24145 0.74308 0.79335
 O1708 O 0.24608 0.76832 0.79430
 O1709 O 0.20708 0.74025 0.75677
 O1710 O 0.20731 0.74686 0.73022
 O1711 O 0.28069 0.78445 0.75187
 O1712 O 0.28225 0.77396 0.77622
 O1713 O 0.28544 0.74810 0.72026
 O1714 O 0.27307 0.72295 0.71671
 O1715 O 0.24887 0.77944 0.71504
 O1716 O 0.22403 0.78323 0.72738
 O1717 O 0.25934 0.79329 0.73925
 O1718 O 0.23126 0.79341 0.74680
 O1719 O 0.26130 0.75805 0.70613
 O1720 O 0.25372 0.73014 0.70635
 O1721 O 0.29420 0.76098 0.74145
 O1722 O 0.29367 0.75001 0.76798
 O1723 O 0.22242 0.71499 0.74671
 O1724 O 0.21920 0.72761 0.72206
 O1725 O 0.21580 0.75285 0.77815
 O1726 O 0.22881 0.77832 0.78005
 O1727 O 0.25350 0.72140 0.78453
 O1728 O 0.27914 0.72034 0.77187
 Zr1729 Zr 0.25787 0.72596 0.76103
 O1730 O 0.27252 0.73922 0.74684
 Zr1731 Zr 0.23932 0.75716 0.77366
 O1732 O 0.25360 0.77172 0.76041
 Zr1733 Zr 0.22672 0.73864 0.74253
 O1734 O 0.24004 0.75275 0.72783
 Zr1735 Zr 0.27515 0.76130 0.75653
 O1736 O 0.26162 0.74759 0.77162
 Zr1737 Zr 0.26217 0.74311 0.72528
 O1738 O 0.24830 0.72817 0.73877
 Zr1739 Zr 0.24401 0.77434 0.73829
 O1740 O 0.22883 0.76093 0.75207
 O1741 O 0.23596 0.73527 0.76440
 O1742 O 0.26588 0.76501 0.73460
 C1743 C 0.23038 0.70434 0.75333
 C1744 C 0.24738 0.72961 0.79525
 C1745 C 0.20513 0.74645 0.77009
 C1746 C 0.27290 0.79504 0.74501
 C1747 C 0.29599 0.75511 0.72797
 C1748 C 0.25560 0.77162 0.70440
 H1749 H 0.28260 0.73394 0.74585
 H1750 H 0.23467 0.75380 0.71782
 H1751 H 0.22936 0.72868 0.77103
 H1752 H 0.25483 0.78173 0.76579
 H1753 H 0.27984 0.76746 0.78532
 H1754 H 0.25550 0.77431 0.79186
 H1755 H 0.24431 0.73533 0.70247
 H1756 H 0.22756 0.72045 0.71894
 H1757 H 0.30283 0.75689 0.76753
 H1758 H 0.27777 0.71074 0.77800
 H1759 H 0.22052 0.77547 0.71976
 H1760 H 0.20561 0.75764 0.73367
 H1761 H 0.26586 0.70506 0.74124
 H1762 H 0.28110 0.71986 0.72423
 H1763 H 0.22064 0.78044 0.77234
 H1764 H 0.23665 0.79741 0.75605
 O1765 O 0.25902 0.29388 0.26070
 O1766 O 0.23349 0.29408 0.25308
 O1767 O 0.26105 0.25713 0.29437
 O1768 O 0.25650 0.23188 0.29532
 O1769 O 0.29550 0.25991 0.25777
 O1770 O 0.29530 0.25324 0.23124
 O1771 O 0.22186 0.21577 0.25293
 O1772 O 0.22028 0.22633 0.27727
 O1773 O 0.21720 0.25201 0.22124
 O1774 O 0.22954 0.27718 0.21770
 O1775 O 0.25370 0.22067 0.21610
 O1776 O 0.27852 0.21687 0.22841
 O1777 O 0.24320 0.20688 0.24031
 O1778 O 0.27129 0.20676 0.24789
 O1779 O 0.24132 0.24207 0.20716
 O1780 O 0.24893 0.26999 0.20735
 O1781 O 0.20840 0.23918 0.24244
 O1782 O 0.20889 0.25026 0.26896
 O1783 O 0.28021 0.28515 0.24769
 O1784 O 0.28342 0.27248 0.22305
 O1785 O 0.28677 0.24737 0.27918
 O1786 O 0.27374 0.22188 0.28107
 O1787 O 0.24904 0.27881 0.28553
 O1788 O 0.22345 0.27993 0.27283
 Zr1789 Zr 0.24473 0.27425 0.26202
 O1790 O 0.23008 0.26098 0.24784
 Zr1791 Zr 0.26325 0.24305 0.27468
 O1792 O 0.24895 0.22848 0.26145
 Zr1793 Zr 0.27589 0.26151 0.24353
 O1794 O 0.26256 0.24738 0.22885
 Zr1795 Zr 0.22742 0.23892 0.25756
 O1796 O 0.24096 0.25263 0.27263
 Zr1797 Zr 0.24044 0.25704 0.22629
 O1798 O 0.25432 0.27199 0.23976
 Zr1799 Zr 0.25856 0.22581 0.23934
 O1800 O 0.27375 0.23923 0.25310
 O1801 O 0.26663 0.26492 0.26540
 O1802 O 0.23671 0.23517 0.23564
 C1803 C 0.27227 0.29582 0.25432
 C1804 C 0.25511 0.27059 0.29627
 C1805 C 0.29745 0.25376 0.27111
 C1806 C 0.22963 0.20516 0.24607
 C1807 C 0.20664 0.24498 0.22893
 C1808 C 0.24698 0.22847 0.20546
 H1809 H 0.22000 0.26626 0.24684
 H1810 H 0.26794 0.24630 0.21884
 H1811 H 0.27322 0.27151 0.27203
 H1812 H 0.24770 0.21848 0.26685
 H1813 H 0.22268 0.23285 0.28636
 H1814 H 0.24702 0.22599 0.29292
 H1815 H 0.25832 0.26476 0.20346
 H1816 H 0.27509 0.27966 0.21993
 H1817 H 0.19972 0.24339 0.26850
 H1818 H 0.22482 0.28954 0.27894
 H1819 H 0.28207 0.22464 0.22082
 H1820 H 0.29699 0.24247 0.23471
 H1821 H 0.23680 0.29512 0.24219
 H1822 H 0.22151 0.28028 0.22521
 H1823 H 0.28194 0.21977 0.27339
 H1824 H 0.26586 0.20275 0.25712
 O1825 O 0.77808 0.71636 0.24854
 O1826 O 0.78011 0.72740 0.22426
 O1827 O 0.78403 0.75471 0.27965
 O1828 O 0.77272 0.77728 0.28453
 O1829 O 0.74623 0.72236 0.28633
 O1830 O 0.72183 0.71913 0.27424
 O1831 O 0.74166 0.79474 0.24006
 O1832 O 0.76682 0.79520 0.24831
 O1833 O 0.73784 0.75856 0.20792
 O1834 O 0.74449 0.73126 0.20774
 O1835 O 0.70542 0.76188 0.24397
 O1836 O 0.70523 0.75569 0.27104
 O1837 O 0.72037 0.78616 0.25299
 O1838 O 0.71749 0.77354 0.27912
 O1839 O 0.71378 0.74894 0.22267
 O1840 O 0.72659 0.72311 0.21985
 O1841 O 0.75029 0.78015 0.21636
 O1842 O 0.77677 0.77990 0.22742
 O1843 O 0.75659 0.70760 0.26105
 O1844 O 0.72947 0.70780 0.25439
 O1845 O 0.75899 0.74375 0.29485
 O1846 O 0.75076 0.77122 0.29377
 O1847 O 0.79252 0.74137 0.25862
 O1848 O 0.79119 0.75019 0.23144
 Zr1849 Zr 0.77301 0.73973 0.24418
 O1850 O 0.75933 0.75335 0.22938
 Zr1851 Zr 0.76039 0.75828 0.27538
 O1852 O 0.74667 0.77302 0.26177
 Zr1853 Zr 0.74196 0.72702 0.26288
 O1854 O 0.72703 0.74045 0.24912
 Zr1855 Zr 0.75593 0.77514 0.23946
 O1856 O 0.77089 0.76206 0.25373
 Zr1857 Zr 0.73710 0.74392 0.22732
 O1858 O 0.75136 0.72916 0.24060
 Zr1859 Zr 0.72492 0.76282 0.25842
 O1860 O 0.73815 0.74865 0.27339
 O1861 O 0.76379 0.73641 0.26612
 O1862 O 0.73383 0.76603 0.23630
 C1863 C 0.77002 0.70570 0.25501
 C1864 C 0.79459 0.74792 0.27176
 C1865 C 0.75284 0.73039 0.29689
 C1866 C 0.72820 0.79667 0.24599
 C1867 C 0.74348 0.77214 0.20592
 C1868 C 0.70335 0.75589 0.23057
 H1869 H 0.76455 0.75428 0.21926
 H1870 H 0.71693 0.73517 0.24839
 H1871 H 0.77047 0.72988 0.27272
 H1872 H 0.74592 0.78323 0.26685
 H1873 H 0.77665 0.79176 0.25303
 H1874 H 0.77047 0.78622 0.27780
 H1875 H 0.71780 0.72092 0.22681
 H1876 H 0.73356 0.70561 0.24394
 H1877 H 0.77561 0.79001 0.22214
 H1878 H 0.80068 0.74389 0.23267
 H1879 H 0.70258 0.74511 0.26761
 H1880 H 0.71834 0.72771 0.28096
 H1881 H 0.77117 0.72111 0.22089
 H1882 H 0.75471 0.73532 0.20464
 H1883 H 0.74109 0.76595 0.29685
 H1884 H 0.72420 0.78260 0.28099
 O1885 O 0.71524 0.24646 0.77829
 O1886 O 0.72643 0.22224 0.78038
 O1887 O 0.75326 0.27791 0.78437
 O1888 O 0.77587 0.28289 0.77315
 O1889 O 0.72112 0.28432 0.74642
 O1890 O 0.71805 0.27214 0.72205
 O1891 O 0.79377 0.23857 0.74221
 O1892 O 0.79401 0.24677 0.76738
 O1893 O 0.75788 0.20606 0.73817
 O1894 O 0.73057 0.20568 0.74483
 O1895 O 0.76105 0.24208 0.70582
 O1896 O 0.75464 0.26918 0.70559
 O1897 O 0.78520 0.25138 0.72086
 O1898 O 0.77239 0.27738 0.71785
 O1899 O 0.74818 0.22071 0.71414
 O1900 O 0.72238 0.21771 0.72690
 O1901 O 0.77934 0.21471 0.75066
 O1902 O 0.77885 0.22571 0.77719
 O1903 O 0.70650 0.25893 0.75678
 O1904 O 0.70684 0.25221 0.72968
 O1905 O 0.74237 0.29301 0.75925
 O1906 O 0.76984 0.29211 0.75119
 O1907 O 0.74007 0.25675 0.79282
 O1908 O 0.74910 0.22961 0.79154
 Zr1909 Zr 0.73864 0.24226 0.77331
 O1910 O 0.75241 0.22752 0.75970
 Zr1911 Zr 0.75699 0.27361 0.76075
 O1912 O 0.77187 0.26007 0.74708
 Zr1913 Zr 0.72594 0.26085 0.74221
 O1914 O 0.73951 0.24715 0.72735
 Zr1915 Zr 0.77411 0.23777 0.75637
 O1916 O 0.76088 0.25198 0.77127
 Zr1917 Zr 0.74309 0.22536 0.73744
 O1918 O 0.72819 0.23858 0.75163
 Zr1919 Zr 0.76180 0.25661 0.72529
 O1920 O 0.74749 0.27152 0.73848
 O1921 O 0.73520 0.26420 0.76407
 O1922 O 0.76513 0.23451 0.73424
 C1923 C 0.70458 0.25287 0.77021
 C1924 C 0.74649 0.26997 0.79491
 C1925 C 0.72906 0.29495 0.75303
 C1926 C 0.79572 0.24452 0.72877
 C1927 C 0.77145 0.20419 0.74381
 C1928 C 0.75514 0.22864 0.70374
 H1929 H 0.75339 0.21740 0.76492
 H1930 H 0.73428 0.24636 0.71723
 H1931 H 0.72860 0.27077 0.77071
 H1932 H 0.78203 0.26524 0.74638
 H1933 H 0.79048 0.25145 0.77721
 H1934 H 0.78486 0.27621 0.77093
 H1935 H 0.72016 0.22467 0.71812
 H1936 H 0.70469 0.24174 0.73378
 H1937 H 0.78899 0.22049 0.77605
 H1938 H 0.74275 0.23081 0.80101
 H1939 H 0.74415 0.26559 0.70286
 H1940 H 0.72661 0.27888 0.71855
 H1941 H 0.72023 0.21880 0.77141
 H1942 H 0.73466 0.20258 0.75503
 H1943 H 0.76463 0.29511 0.74147
 H1944 H 0.78135 0.27940 0.72464
 C1945 C 0.08736 1.00398 1.19236
 C1946 C 0.08073 1.00474 1.18014
 C1947 C 0.07316 1.00532 1.16536
 C1948 C 0.06911 0.99156 1.15788
 C1949 C 0.06237 0.99199 1.14323
 C1950 C 0.05961 1.00620 1.13583
 C1951 C 0.06355 1.01999 1.14352
 C1952 C 0.07031 1.01953 1.15819
 C1953 C 0.05284 1.00659 1.12008
 C1954 C 0.04157 1.01762 1.11615
 C1955 C 0.03505 1.01775 1.10137
 C1956 C 0.03976 1.00690 1.09033
 C1957 C 0.05107 0.99598 1.09409
 C1958 C 0.05757 0.99582 1.10885
 C1959 C 0.03277 1.00665 1.07526
 C1960 C 0.02690 1.00607 1.06266
 H1961 H 0.07126 0.98049 1.16333
 H1962 H 0.05926 0.98119 1.13771
 H1963 H 0.06172 1.03110 1.13806
 H1964 H 0.07348 1.03025 1.16385
 H1965 H 0.03758 1.02595 1.12459
 H1966 H 0.02625 1.02621 1.09860
 H1967 H 0.05481 0.98755 1.08563
 H1968 H 0.06640 0.98734 1.11144
 C1969 C 0.58716 0.50487 0.69191
 C1970 C 0.58054 0.50606 0.67973
 C1971 C 0.57291 0.50726 0.66501
 C1972 C 0.56002 0.49805 0.66179
 C1973 C 0.55302 0.49872 0.64726
 C1974 C 0.55887 0.50859 0.63573
 C1975 C 0.57174 0.51792 0.63915
 C1976 C 0.57871 0.51725 0.65370
 C1977 C 0.55178 0.50888 0.62011
 C1978 C 0.56113 0.50951 0.60682
 C1979 C 0.55449 0.50929 0.59211
 C1980 C 0.53843 0.50845 0.59048
 C1981 C 0.52902 0.50797 0.60362
 C1982 C 0.53564 0.50819 0.61834
 C1983 C 0.53162 0.50767 0.57534
 C1984 C 0.52583 0.50679 0.56271
 H1985 H 0.55550 0.49021 0.67044
 H1986 H 0.54327 0.49124 0.64492
 H1987 H 0.57639 0.52577 0.63059
 H1988 H 0.58869 0.52442 0.65607
 H1989 H 0.57360 0.50984 0.60780
 H1990 H 0.56188 0.50959 0.58202
 H1991 H 0.51658 0.50734 0.60248
 H1992 H 0.52813 0.50788 0.62834
 C1993 C 0.41343 0.00016 0.68890
 C1994 C 0.42026 0.00002 0.67676
 C1995 C 0.42797 -0.00010 0.66203
 C1996 C 0.43689 -0.01284 0.65759
 C1997 C 0.44381 -0.01320 0.64300
 C1998 C 0.44184 -0.00082 0.63263
 C1999 C 0.43298 0.01200 0.63729
 C2000 C 0.42609 0.01234 0.65188
 C2001 C 0.44879 -0.00135 0.61696
 C2002 C 0.44043 0.00397 0.60408
 C2003 C 0.44697 0.00358 0.58933
 C2004 C 0.46195 -0.00213 0.58724
 C2005 C 0.47035 -0.00750 0.59995
 C2006 C 0.46382 -0.00714 0.61473
 C2007 C 0.46873 -0.00222 0.57206
 C2008 C 0.47435 -0.00210 0.55932
 H2009 H 0.43835 -0.02257 0.66533
 H2010 H 0.45042 -0.02330 0.63969
 H2011 H 0.43143 0.02180 0.62967
 H2012 H 0.41920 0.02226 0.65520
 H2013 H 0.42876 0.00828 0.60538
 H2014 H 0.44036 0.00774 0.57956
 H2015 H 0.48198 -0.01189 0.59847
 H2016 H 0.47060 -0.01115 0.62443
 C2017 C -0.08707 0.50076 1.18881
 C2018 C -0.08026 0.50055 1.17667
 C2019 C -0.07257 0.50035 1.16194
 C2020 C -0.07401 0.51297 1.15194
 C2021 C -0.06716 0.51256 1.13733
 C2022 C -0.05878 0.49948 1.13251
 C2023 C -0.05723 0.48692 1.14272
 C2024 C -0.06411 0.48735 1.15733
 C2025 C -0.05189 0.49888 1.11681
 C2026 C -0.03709 0.49256 1.11447
 C2027 C -0.03063 0.49210 1.09967
 C2028 C -0.03887 0.49791 1.08703
 C2029 C -0.05361 0.50414 1.08924
 C2030 C -0.06009 0.50463 1.10401
 C2031 C -0.03215 0.49768 1.07183
 C2032 C -0.02656 0.49769 1.05908
 H2033 H -0.08053 0.52309 1.15539
 H2034 H -0.06837 0.52250 1.12983
 H2035 H -0.05101 0.47662 1.13927
 H2036 H -0.06300 0.47748 1.16495
 H2037 H -0.03043 0.48820 1.12411
 H2038 H -0.01918 0.48730 1.09810
 H2039 H -0.06010 0.50864 1.07953
 H2040 H -0.07159 0.50936 1.10540
 C2041 C -0.08906 0.50508 0.30749
 C2042 C -0.08270 0.50596 0.31984
 C2043 C -0.07540 0.50678 0.33475
 C2044 C -0.06363 0.49639 0.33858
 C2045 C -0.05701 0.49673 0.35330
 C2046 C -0.06211 0.50747 0.36440
 C2047 C -0.07384 0.51798 0.36038
 C2048 C -0.08044 0.51762 0.34564
 C2049 C -0.05545 0.50747 0.38021
 C2050 C -0.06503 0.50943 0.39320
 C2051 C -0.05883 0.50896 0.40810
 C2052 C -0.04299 0.50656 0.41022
 C2053 C -0.03334 0.50474 0.39737
 C2054 C -0.03951 0.50519 0.38246
 C2055 C -0.03667 0.50559 0.42556
 C2056 C -0.03129 0.50458 0.43836
 H2057 H -0.05971 0.48789 0.33027
 H2058 H -0.04815 0.48836 0.35611
 H2059 H -0.07789 0.52650 0.36860
 H2060 H -0.08956 0.52571 0.34280
 H2061 H -0.07736 0.51099 0.39186
 H2062 H -0.06641 0.51031 0.41797
 H2063 H -0.02105 0.50290 0.39888
 H2064 H -0.03182 0.50384 0.37270
 C2065 C 0.41161 1.00481 -0.19160
 C2066 C 0.41788 1.00578 -0.17921
 C2067 C 0.42506 1.00673 -0.16425
 C2068 C 0.41952 1.01722 -0.15326
 C2069 C 0.42603 1.01770 -0.13849
 C2070 C 0.43819 1.00767 -0.13452
 C2071 C 0.44379 0.99728 -0.14572
 C2072 C 0.43725 0.99681 -0.16047
 C2073 C 0.44479 1.00779 -0.11869
 C2074 C 0.46080 1.00618 -0.11640
 C2075 C 0.46694 1.00584 -0.10147
 C2076 C 0.45718 1.00712 -0.08864
 C2077 C 0.44126 1.00886 -0.09080
 C2078 C 0.43509 1.00921 -0.10572
 C2079 C 0.46348 1.00625 -0.07329
 C2080 C 0.46885 1.00531 -0.06048
 H2081 H 0.41008 1.02495 -0.15606
 H2082 H 0.42160 1.02595 -0.13020
 H2083 H 0.45299 0.98926 -0.14296
 H2084 H 0.44157 0.98858 -0.16886
 H2085 H 0.46858 1.00525 -0.12615
 H2086 H 0.47928 1.00450 -0.09993
 H2087 H 0.43359 1.00979 -0.08095
 H2088 H 0.42271 1.01026 -0.10709
 C2089 C 0.58771 0.49522 -0.18905
 C2090 C 0.58106 0.49430 -0.17685
 C2091 C 0.57352 0.49327 -0.16207
 C2092 C 0.56223 0.50409 -0.15795
 C2093 C 0.55544 0.50352 -0.14331
 C2094 C 0.55988 0.49212 -0.13259
 C2095 C 0.57109 0.48118 -0.13693
 C2096 C 0.57787 0.48177 -0.15157
 C2097 C 0.55311 0.49187 -0.11683
 C2098 C 0.54922 0.47778 -0.10968
 C2099 C 0.54302 0.47761 -0.09475
 C2100 C 0.54066 0.49150 -0.08679
 C2101 C 0.54449 0.50556 -0.09381
 C2102 C 0.55066 0.50576 -0.10872
 C2103 C 0.53425 0.49143 -0.07146
 C2104 C 0.52880 0.49171 -0.05866
 H2105 H 0.55878 0.51304 -0.16599
 H2106 H 0.54669 0.51197 -0.14038
 H2107 H 0.57489 0.47239 -0.12888
 H2108 H 0.58667 0.47340 -0.15463
 H2109 H 0.55080 0.46692 -0.11568
 H2110 H 0.54004 0.46667 -0.08944
 H2111 H 0.54274 0.51637 -0.08774
 H2112 H 0.55375 0.51677 -0.11381
 C2113 C 0.08882 -0.00293 0.31159
 C2114 C 0.08223 -0.00376 0.32383
 C2115 C 0.07474 -0.00469 0.33864
 C2116 C 0.06821 0.00855 0.34525
 C2117 C 0.06157 0.00783 0.35994
 C2118 C 0.06139 -0.00616 0.36825
 C2119 C 0.06781 -0.01945 0.36142
 C2120 C 0.07446 -0.01870 0.34672
 C2121 C 0.05478 -0.00680 0.38406
 C2122 C 0.04579 -0.01950 0.38881
 C2123 C 0.03957 -0.02002 0.40372
 C2124 C 0.04229 -0.00788 0.41406
 C2125 C 0.05127 0.00476 0.40946
 C2126 C 0.05748 0.00531 0.39458
 C2127 C 0.03567 -0.00818 0.42930
 C2128 C 0.03009 -0.00806 0.44205
 H2129 H 0.06837 0.01945 0.33910
 H2130 H 0.05653 0.01821 0.36480
 H2131 H 0.06801 -0.03034 0.36758
 H2132 H 0.07957 -0.02900 0.34174
 H2133 H 0.04338 -0.02891 0.38093
 H2134 H 0.03258 -0.02982 0.40714
 H2135 H 0.05346 0.01421 0.41738
 H2136 H 0.06454 0.01513 0.39135
 C2137 C 0.18688 1.08959 1.00469
 C2138 C 0.17455 1.08315 1.00544
 C2139 C 0.15963 1.07587 1.00630
 C2140 C 0.14629 1.08465 1.00382
 C2141 C 0.13174 1.07770 1.00462
 C2142 C 0.13034 1.06183 1.00793
 C2143 C 0.14382 1.05310 1.01043
 C2144 C 0.15838 1.06009 1.00963
 C2145 C 0.11487 1.05443 1.00856
 C2146 C 0.11248 1.03972 1.00204
 C2147 C 0.09781 1.03296 1.00224
 C2148 C 0.08536 1.04078 1.00896
 C2149 C 0.08764 1.05535 1.01561
 C2150 C 0.10230 1.06214 1.01542
 C2151 C 0.07018 1.03399 1.00869
 C2152 C 0.05750 1.02827 1.00821
 H2153 H 0.14713 1.09687 1.00120
 H2154 H 0.12161 1.08469 1.00242
 H2155 H 0.14311 1.04090 1.01316
 H2156 H 0.16863 1.05319 1.01162
 H2157 H 0.12187 1.03359 0.99650
 H2158 H 0.09615 1.02170 0.99700
 H2159 H 0.07808 1.06149 1.02086
 H2160 H 0.10381 1.07338 1.02071
 C2161 C 0.68643 0.58929 0.50425
 C2162 C 0.67406 0.58294 0.50510
 C2163 C 0.65909 0.57577 0.50609
 C2164 C 0.65774 0.56011 0.50992
 C2165 C 0.64315 0.55322 0.51083
 C2166 C 0.62972 0.56193 0.50793
 C2167 C 0.63123 0.57767 0.50413
 C2168 C 0.64581 0.58453 0.50321
 C2169 C 0.61421 0.55462 0.50866
 C2170 C 0.60161 0.56259 0.51515
 C2171 C 0.58692 0.55588 0.51540
 C2172 C 0.58463 0.54112 0.50919
 C2173 C 0.59711 0.53303 0.50286
 C2174 C 0.61181 0.53971 0.50260
 C2175 C 0.56942 0.53442 0.50894
 C2176 C 0.55671 0.52874 0.50845
 H2177 H 0.66794 0.55324 0.51221
 H2178 H 0.64235 0.54112 0.51396
 H2179 H 0.62114 0.58463 0.50161
 H2180 H 0.64674 0.59665 0.50020
 H2181 H 0.60313 0.57400 0.52009
 H2182 H 0.57733 0.56224 0.52035
 H2183 H 0.59545 0.52162 0.49796
 H2184 H 0.62123 0.53336 0.49735
 C2185 C 0.69160 0.40930 -0.00403
 C2186 C 0.67913 0.41543 -0.00492
 C2187 C 0.66407 0.42243 -0.00577
 C2188 C 0.66256 0.43830 -0.00851
 C2189 C 0.64790 0.44509 -0.00897
 C2190 C 0.63455 0.43606 -0.00669
 C2191 C 0.63621 0.42010 -0.00405
 C2192 C 0.65087 0.41335 -0.00359
 C2193 C 0.61898 0.44328 -0.00677
 C2194 C 0.60638 0.43569 -0.01372
 C2195 C 0.59164 0.44229 -0.01336
 C2196 C 0.58929 0.45654 -0.00607
 C2197 C 0.60177 0.46424 0.00074
 C2198 C 0.61652 0.45767 0.00039
 C2199 C 0.57405 0.46313 -0.00528
 C2200 C 0.56132 0.46871 -0.00440
 H2201 H 0.67270 0.44544 -0.01024
 H2202 H 0.64699 0.45737 -0.01122
 H2203 H 0.62620 0.41288 -0.00204
 H2204 H 0.65191 0.40106 -0.00139
 H2205 H 0.60794 0.42470 -0.01949
 H2206 H 0.58207 0.43624 -0.01869
 H2207 H 0.60006 0.47525 0.00647
 H2208 H 0.62592 0.46370 0.00602
 C2209 C 0.19314 -0.08955 0.49551
 C2210 C 0.18076 -0.08322 0.49472
 C2211 C 0.16583 -0.07595 0.49403
 C2212 C 0.15390 -0.08279 0.48552
 C2213 C 0.13918 -0.07614 0.48541
 C2214 C 0.13619 -0.06256 0.49384
 C2215 C 0.14832 -0.05566 0.50219
 C2216 C 0.16303 -0.06233 0.50229
 C2217 C 0.12042 -0.05581 0.49421
 C2218 C 0.11430 -0.04996 0.50809
 C2219 C 0.09939 -0.04379 0.50852
 C2220 C 0.09038 -0.04339 0.49512
 C2221 C 0.09635 -0.04915 0.48124
 C2222 C 0.11128 -0.05534 0.48078
 C2223 C 0.07504 -0.03701 0.49568
 C2224 C 0.06225 -0.03155 0.49641
 H2225 H 0.15592 -0.09339 0.47916
 H2226 H 0.13005 -0.08183 0.47902
 H2227 H 0.14644 -0.04509 0.50863
 H2228 H 0.17218 -0.05693 0.50891
 H2229 H 0.12095 -0.05037 0.51867
 H2230 H 0.09487 -0.03940 0.51934
 H2231 H 0.08949 -0.04884 0.47079
 H2232 H 0.11572 -0.05959 0.46989
 C2233 C 0.31249 -0.08765 0.50060
 C2234 C 0.32456 -0.08071 0.50108
 C2235 C 0.33917 -0.07280 0.50166
 C2236 C 0.34774 -0.07267 0.51536
 C2237 C 0.36225 -0.06559 0.51579
 C2238 C 0.36839 -0.05855 0.50248
 C2239 C 0.35961 -0.05860 0.48881
 C2240 C 0.34511 -0.06570 0.48841
 C2241 C 0.38401 -0.05145 0.50279
 C2242 C 0.38690 -0.03744 0.49504
 C2243 C 0.40168 -0.03093 0.49511
 C2244 C 0.41376 -0.03832 0.50290
 C2245 C 0.41100 -0.05221 0.51070
 C2246 C 0.39622 -0.05874 0.51066
 C2247 C 0.42902 -0.03172 0.50275
 C2248 C 0.44180 -0.02618 0.50251
 H2249 H 0.34325 -0.07814 0.52569
 H2250 H 0.36864 -0.06557 0.52654
 H2251 H 0.36411 -0.05346 0.47833
 H2252 H 0.33861 -0.06582 0.47772
 H2253 H 0.37770 -0.03146 0.48904
 H2254 H 0.40369 -0.02015 0.48906
 H2255 H 0.42028 -0.05805 0.51672
 H2256 H 0.39442 -0.06964 0.51654
 C2257 C -0.18890 0.41233 1.00136
 C2258 C -0.17685 0.41931 1.00180
 C2259 C -0.16224 0.42722 1.00232
 C2260 C -0.15602 0.43369 0.98887
 C2261 C -0.14148 0.44073 0.98923
 C2262 C -0.13296 0.44137 1.00305
 C2263 C -0.13940 0.43499 1.01655
 C2264 C -0.15394 0.42796 1.01617
 C2265 C -0.11730 0.44839 1.00331
 C2266 C -0.10528 0.44140 1.01174
 C2267 C -0.09046 0.44781 1.01172
 C2268 C -0.08745 0.46129 1.00330
 C2269 C -0.09934 0.46839 0.99497
 C2270 C -0.11417 0.46199 0.99496
 C2271 C -0.07213 0.46774 1.00305
 C2272 C -0.05931 0.47318 1.00271
 H2273 H -0.16230 0.43309 0.97807
 H2274 H -0.13676 0.44536 0.97861
 H2275 H -0.13322 0.43548 1.02740
 H2276 H -0.15864 0.42298 1.02664
 H2277 H -0.10727 0.43081 1.01811
 H2278 H -0.08132 0.44220 1.01816
 H2279 H -0.09714 0.47884 0.98844
 H2280 H -0.12322 0.46774 0.98852
 C2281 C -0.19426 0.58615 0.49447
 C2282 C -0.18212 0.57946 0.49310
 C2283 C -0.16743 0.57180 0.49172
 C2284 C -0.15668 0.57682 0.48074
 C2285 C -0.14210 0.56992 0.47992
 C2286 C -0.13808 0.55790 0.49009
 C2287 C -0.14905 0.55280 0.50096
 C2288 C -0.16362 0.55972 0.50177
 C2289 C -0.12239 0.55096 0.48967
 C2290 C -0.12036 0.53494 0.49165
 C2291 C -0.10554 0.52852 0.49180
 C2292 C -0.09256 0.53800 0.48998
 C2293 C -0.09446 0.55392 0.48784
 C2294 C -0.10927 0.56037 0.48766
 C2295 C -0.07731 0.53144 0.49079
 C2296 C -0.06459 0.52586 0.49173
 H2297 H -0.15951 0.58618 0.47292
 H2298 H -0.13398 0.57397 0.47131
 H2299 H -0.14624 0.54372 0.50909
 H2300 H -0.17182 0.55581 0.51038
 H2301 H -0.13023 0.52738 0.49303
 H2302 H -0.10420 0.51618 0.49346
 H2303 H -0.08449 0.56138 0.48649
 H2304 H -0.11043 0.57276 0.48633
 C2305 C 0.30614 1.08745 -0.00437
 C2306 C 0.31829 1.08078 -0.00569
 C2307 C 0.33299 1.07313 -0.00702
 C2308 C 0.33676 1.06101 0.00300
 C2309 C 0.35131 1.05406 0.00221
 C2310 C 0.36232 1.05917 -0.00862
 C2311 C 0.35835 1.07124 -0.01876
 C2312 C 0.34378 1.07816 -0.01796
 C2313 C 0.37799 1.05218 -0.00905
 C2314 C 0.39114 1.06155 -0.01101
 C2315 C 0.40593 1.05504 -0.01085
 C2316 C 0.40776 1.03911 -0.00876
 C2317 C 0.39475 1.02967 -0.00699
 C2318 C 0.37996 1.03614 -0.00713
 C2319 C 0.42299 1.03249 -0.00798
 C2320 C 0.43570 1.02687 -0.00706
 H2321 H 0.32853 1.05709 0.01158
 H2322 H 0.35409 1.04495 0.01032
 H2323 H 0.36651 1.07530 -0.02734
 H2324 H 0.34099 1.08754 -0.02576
 H2325 H 0.39002 1.07395 -0.01230
 H2326 H 0.41592 1.06247 -0.01216
 H2327 H 0.39604 1.01731 -0.00537
 H2328 H 0.37006 1.02861 -0.00579
 C2329 C 0.00511 1.19178 1.08778
 C2330 C 0.00577 1.17940 1.08142
 C2331 C 0.00630 1.16445 1.07413
 C2332 C -0.00389 1.16094 1.06209
 C2333 C -0.00390 1.14618 1.05552
 C2334 C 0.00628 1.13471 1.06092
 C2335 C 0.01663 1.13842 1.07289
 C2336 C 0.01661 1.15319 1.07946
 C2337 C 0.00586 1.11886 1.05434
 C2338 C 0.01962 1.11063 1.05160
 C2339 C 0.01915 1.09564 1.04553
 C2340 C 0.00494 1.08869 1.04216
 C2341 C -0.00879 1.09678 1.04486
 C2342 C -0.00835 1.11175 1.05090
 C2343 C 0.00438 1.07331 1.03585
 C2344 C 0.00365 1.06048 1.03046
 H2345 H -0.01192 1.16957 1.05788
 H2346 H -0.01185 1.14374 1.04618
 H2347 H 0.02447 1.12980 1.07743
 H2348 H 0.02449 1.15576 1.08884
 H2349 H 0.03074 1.11584 1.05397
 H2350 H 0.02985 1.08950 1.04343
 H2351 H -0.01985 1.09149 1.04232
 H2352 H -0.01914 1.11769 1.05310
 C2353 C 0.50458 0.69174 0.58914
 C2354 C 0.50525 0.67939 0.58271
 C2355 C 0.50577 0.66450 0.57532
 C2356 C 0.51558 0.65296 0.58099
 C2357 C 0.51557 0.63825 0.57427
 C2358 C 0.50569 0.63489 0.56181
 C2359 C 0.49602 0.64664 0.55607
 C2360 C 0.49607 0.66133 0.56280
 C2361 C 0.50522 0.61911 0.55505
 C2362 C 0.49102 0.61237 0.55090
 C2363 C 0.49052 0.59746 0.54470
 C2364 C 0.50417 0.58908 0.54255
 C2365 C 0.51836 0.59568 0.54662
 C2366 C 0.51890 0.61059 0.55284
 C2367 C 0.50355 0.57375 0.53612
 C2368 C 0.50278 0.56096 0.53065
 H2369 H 0.52308 0.65526 0.59073
 H2370 H 0.52300 0.62941 0.57907
 H2371 H 0.48845 0.64447 0.54636
 H2372 H 0.48843 0.67018 0.55832
 H2373 H 0.48028 0.61852 0.55266
 H2374 H 0.47947 0.59245 0.54162
 H2375 H 0.52901 0.58931 0.54495
 H2376 H 0.53001 0.61554 0.55576
 C2377 C -0.00540 0.68830 0.41120
 C2378 C -0.00622 0.67610 0.41788
 C2379 C -0.00711 0.66133 0.42548
 C2380 C 0.00514 0.65620 0.43467
 C2381 C 0.00459 0.64155 0.44147
 C2382 C -0.00824 0.63182 0.43914
 C2383 C -0.02059 0.63718 0.43004
 C2384 C -0.02001 0.65183 0.42324
 C2385 C -0.00858 0.61605 0.44591
 C2386 C -0.02228 0.61002 0.45228
 C2387 C -0.02255 0.59512 0.45855
 C2388 C -0.00916 0.58605 0.45851
 C2389 C 0.00450 0.59193 0.45218
 C2390 C 0.00480 0.60682 0.44592
 C2391 C -0.00931 0.57077 0.46509
 C2392 C -0.00908 0.55800 0.47065
 H2393 H 0.01518 0.66346 0.43648
 H2394 H 0.01418 0.63784 0.44859
 H2395 H -0.03054 0.62990 0.42788
 H2396 H -0.02952 0.65566 0.41608
 H2397 H -0.03272 0.61690 0.45259
 H2398 H -0.03318 0.59069 0.46348
 H2399 H 0.01492 0.58500 0.45207
 H2400 H 0.01546 0.61103 0.44090
 C2401 C 0.49545 1.18858 -0.08884
 C2402 C 0.49447 1.17641 -0.08213
 C2403 C 0.49338 1.16170 -0.07446
 C2404 C 0.50374 1.15790 -0.06267
 C2405 C 0.50308 1.14334 -0.05568
 C2406 C 0.49203 1.13238 -0.06042
 C2407 C 0.48154 1.13639 -0.07216
 C2408 C 0.48223 1.15095 -0.07914
 C2409 C 0.49169 1.11672 -0.05340
 C2410 C 0.47754 1.10943 -0.05001
 C2411 C 0.47729 1.09459 -0.04359
 C2412 C 0.49114 1.08685 -0.04051
 C2413 C 0.50525 1.09401 -0.04382
 C2414 C 0.50554 1.10883 -0.05022
 C2415 C 0.49098 1.07159 -0.03391
 C2416 C 0.49119 1.05882 -0.02833
 H2417 H 0.51241 1.16613 -0.05896
 H2418 H 0.51118 1.14067 -0.04653
 H2419 H 0.47304 1.12815 -0.07620
 H2420 H 0.47420 1.15375 -0.08832
 H2421 H 0.46670 1.11527 -0.05217
 H2422 H 0.46630 1.08917 -0.04102
 H2423 H 0.51604 1.08811 -0.04151
 H2424 H 0.51660 1.11403 -0.05291
 C2425 C 0.50544 0.30760 -0.08804
 C2426 C 0.50671 0.31976 -0.08136
 C2427 C 0.50801 0.33446 -0.07368
 C2428 C 0.49836 0.33796 -0.06119
 C2429 C 0.49914 0.35248 -0.05415
 C2430 C 0.50958 0.36373 -0.05955
 C2431 C 0.51936 0.36004 -0.07200
 C2432 C 0.51856 0.34550 -0.07901
 C2433 C 0.50999 0.37936 -0.05244
 C2434 C 0.51139 0.39263 -0.06174
 C2435 C 0.51122 0.40737 -0.05511
 C2436 C 0.50970 0.40904 -0.03911
 C2437 C 0.50849 0.39591 -0.02974
 C2438 C 0.50863 0.38117 -0.03635
 C2439 C 0.50892 0.42422 -0.03234
 C2440 C 0.50800 0.43688 -0.02660
 H2441 H 0.49008 0.32953 -0.05703
 H2442 H 0.49132 0.35504 -0.04474
 H2443 H 0.52764 0.36838 -0.07629
 H2444 H 0.52608 0.34291 -0.08868
 H2445 H 0.51224 0.39163 -0.07418
 H2446 H 0.51209 0.41746 -0.06247
 H2447 H 0.50731 0.39708 -0.01733
 H2448 H 0.50774 0.37117 -0.02887
 C2449 C 0.00418 -0.19221 0.41130
 C2450 C 0.00555 -0.17989 0.41767
 C2451 C 0.00696 -0.16499 0.42493
 C2452 C 0.01229 -0.16375 0.44013
 C2453 C 0.01338 -0.14924 0.44719
 C2454 C 0.00915 -0.13577 0.43910
 C2455 C 0.00390 -0.13715 0.42379
 C2456 C 0.00281 -0.15166 0.41677
 C2457 C 0.00990 -0.12037 0.44666
 C2458 C 0.01500 -0.10731 0.43840
 C2459 C 0.01511 -0.09271 0.44535
 C2460 C 0.01015 -0.09097 0.46063
 C2461 C 0.00525 -0.10391 0.46901
 C2462 C 0.00514 -0.11852 0.46209
 C2463 C 0.00960 -0.07586 0.46758
 C2464 C 0.00882 -0.06324 0.47343
 H2465 H 0.01556 -0.17400 0.44654
 H2466 H 0.01763 -0.14854 0.45893
 H2467 H 0.00034 -0.12704 0.41734
 H2468 H -0.00139 -0.15249 0.40501
 H2469 H 0.01893 -0.10839 0.42658
 H2470 H 0.01894 -0.08278 0.43876
 H2471 H 0.00131 -0.10268 0.48082
 H2472 H 0.00096 -0.12829 0.46869
 C2473 C 0.49995 -0.18894 0.58685
 C2474 C 0.49974 -0.17685 0.57994
 C2475 C 0.49955 -0.16217 0.57212
 C2476 C 0.48549 -0.15524 0.56820
 C2477 C 0.48529 -0.14061 0.56134
 C2478 C 0.49918 -0.13271 0.55835
 C2479 C 0.51327 -0.13987 0.56215
 C2480 C 0.51344 -0.15450 0.56900
 C2481 C 0.49898 -0.11694 0.55157
 C2482 C 0.50913 -0.10548 0.55707
 C2483 C 0.50891 -0.09061 0.55076
 C2484 C 0.49857 -0.08698 0.53889
 C2485 C 0.48842 -0.09829 0.53334
 C2486 C 0.48860 -0.11317 0.53965
 C2487 C 0.49853 -0.07171 0.53232
 C2488 C 0.49867 -0.05892 0.52680
 H2489 H 0.47467 -0.16104 0.57066
 H2490 H 0.47426 -0.13533 0.55871
 H2491 H 0.52415 -0.13418 0.55980
 H2492 H 0.52439 -0.15976 0.57200
 H2493 H 0.51709 -0.10795 0.56639
 H2494 H 0.51680 -0.08193 0.55516
 H2495 H 0.48041 -0.09562 0.52411
 H2496 H 0.48078 -0.12179 0.53506
 C2497 C 0.00070 0.31056 1.08691
 C2498 C 0.00013 0.32267 1.08004
 C2499 C -0.00058 0.33734 1.07225
 C2500 C 0.01270 0.34357 1.06544
 C2501 C 0.01217 0.35815 1.05848
 C2502 C -0.00166 0.36670 1.05829
 C2503 C -0.01498 0.36026 1.06503
 C2504 C -0.01442 0.34568 1.07196
 C2505 C -0.00211 0.38239 1.05133
 C2506 C -0.01032 0.39442 1.05859
 C2507 C -0.01050 0.40926 1.05220
 C2508 C -0.00251 0.41227 1.03848
 C2509 C 0.00562 0.40038 1.03113
 C2510 C 0.00583 0.38553 1.03750
 C2511 C -0.00250 0.42759 1.03201
 C2512 C -0.00236 0.44040 1.02653
 H2513 H 0.02350 0.33725 1.06569
 H2514 H 0.02266 0.36287 1.05357
 H2515 H -0.02584 0.36647 1.06488
 H2516 H -0.02477 0.34096 1.07722
 H2517 H -0.01636 0.39242 1.06935
 H2518 H -0.01678 0.41840 1.05801
 H2519 H 0.01182 0.40258 1.02048
 H2520 H 0.01209 0.37648 1.03155
 C2521 C 0.75547 0.33776 0.05836
 C2522 C 0.75602 0.33108 0.07057
 C2523 C 0.75655 0.32350 0.08535
 C2524 C 0.74293 0.31805 0.09212
 C2525 C 0.74329 0.31135 0.10681
 C2526 C 0.75731 0.31004 0.11493
 C2527 C 0.77098 0.31537 0.10793
 C2528 C 0.77058 0.32209 0.09324
 C2529 C 0.75760 0.30337 0.13073
 C2530 C 0.76957 0.29336 0.13530
 C2531 C 0.76975 0.28707 0.15018
 C2532 C 0.75801 0.29073 0.16068
 C2533 C 0.74610 0.30072 0.15626
 C2534 C 0.74589 0.30701 0.14140
 C2535 C 0.75795 0.28403 0.17589
 C2536 C 0.75758 0.27837 0.18860
 H2537 H 0.73200 0.31909 0.08612
 H2538 H 0.73261 0.30715 0.11179
 H2539 H 0.78191 0.31469 0.11395
 H2540 H 0.78118 0.32636 0.08814
 H2541 H 0.77866 0.29021 0.12730
 H2542 H 0.77899 0.27928 0.15346
 H2543 H 0.73696 0.30364 0.16430
 H2544 H 0.73665 0.31485 0.13831
 C2545 C 0.25613 0.83735 0.55886
 C2546 C 0.25649 0.83074 0.57111
 C2547 C 0.25678 0.82324 0.58594
 C2548 C 0.27082 0.82102 0.59364
 C2549 C 0.27102 0.81438 0.60837
 C2550 C 0.25715 0.80993 0.61560
 C2551 C 0.24312 0.81206 0.60768
 C2552 C 0.24295 0.81868 0.59296
 C2553 C 0.25727 0.80333 0.63143
 C2554 C 0.24596 0.80772 0.64225
 C2555 C 0.24600 0.80147 0.65713
 C2556 C 0.25732 0.79076 0.66141
 C2557 C 0.26867 0.78636 0.65076
 C2558 C 0.26867 0.79261 0.63587
 C2559 C 0.25706 0.78409 0.67663
 C2560 C 0.25655 0.77845 0.68935
 H2561 H 0.28159 0.82459 0.58835
 H2562 H 0.28198 0.81305 0.61424
 H2563 H 0.23228 0.80856 0.61284
 H2564 H 0.23202 0.82036 0.58710
 H2565 H 0.23718 0.81611 0.63927
 H2566 H 0.23717 0.80497 0.66529
 H2567 H 0.27745 0.77802 0.65394
 H2568 H 0.27742 0.78888 0.62775
 C2569 C 0.74763 0.66110 0.56080
 C2570 C 0.74769 0.66764 0.57310
 C2571 C 0.74779 0.67504 0.58797
 C2572 C 0.73663 0.68616 0.59165
 C2573 C 0.73646 0.69295 0.60631
 C2574 C 0.74744 0.68865 0.61750
 C2575 C 0.75868 0.67756 0.61363
 C2576 C 0.75883 0.67080 0.59897
 C2577 C 0.74712 0.69561 0.63317
 C2578 C 0.74985 0.68641 0.64630
 C2579 C 0.74969 0.69296 0.66105
 C2580 C 0.74680 0.70876 0.66290
 C2581 C 0.74401 0.71800 0.64993
 C2582 C 0.74414 0.71148 0.63516
 C2583 C 0.74694 0.71552 0.67808
 C2584 C 0.74722 0.72116 0.69081
 H2585 H 0.72798 0.68947 0.58324
 H2586 H 0.72756 0.70132 0.60899
 H2587 H 0.76742 0.67418 0.62191
 H2588 H 0.76753 0.66221 0.59624
 H2589 H 0.75195 0.67412 0.64517
 H2590 H 0.75184 0.68569 0.67102
 H2591 H 0.74182 0.73027 0.65124
 H2592 H 0.74218 0.71888 0.62527
 C2593 C 0.24674 0.16086 0.06073
 C2594 C 0.24655 0.16735 0.07305
 C2595 C 0.24636 0.17466 0.08798
 C2596 C 0.23746 0.18793 0.09050
 C2597 C 0.23706 0.19477 0.10514
 C2598 C 0.24553 0.18837 0.11745
 C2599 C 0.25449 0.17506 0.11476
 C2600 C 0.25489 0.16827 0.10012
 C2601 C 0.24507 0.19551 0.13304
 C2602 C 0.24441 0.18618 0.14635
 C2603 C 0.24433 0.19288 0.16104
 C2604 C 0.24489 0.20897 0.16264
 C2605 C 0.24541 0.21835 0.14949
 C2606 C 0.24548 0.21168 0.13477
 C2607 C 0.24533 0.21582 0.17778
 C2608 C 0.24595 0.22157 0.19044
 H2609 H 0.23076 0.19293 0.08120
 H2610 H 0.22993 0.20490 0.10690
 H2611 H 0.26132 0.17000 0.12393
 H2612 H 0.26182 0.15800 0.09829
 H2613 H 0.24386 0.17371 0.14539
 H2614 H 0.24391 0.18551 0.17115
 H2615 H 0.24592 0.23082 0.15060
 H2616 H 0.24617 0.21915 0.12477
 C2617 C 0.25074 0.16386 0.94252
 C2618 C 0.25165 0.17051 0.93032
 C2619 C 0.25257 0.17812 0.91557
 C2620 C 0.26549 0.17592 0.90610
 C2621 C 0.26608 0.18274 0.89148
 C2622 C 0.25374 0.19186 0.88612
 C2623 C 0.24087 0.19414 0.89580
 C2624 C 0.24030 0.18729 0.91042
 C2625 C 0.25412 0.19871 0.87040
 C2626 C 0.24856 0.21377 0.86780
 C2627 C 0.24857 0.22005 0.85292
 C2628 C 0.25412 0.21137 0.84046
 C2629 C 0.25978 0.19642 0.84293
 C2630 C 0.25979 0.19012 0.85780
 C2631 C 0.25378 0.21773 0.82510
 C2632 C 0.25335 0.22308 0.81226
 H2633 H 0.27505 0.16883 0.90997
 H2634 H 0.27622 0.18093 0.88438
 H2635 H 0.23110 0.20092 0.89194
 H2636 H 0.23020 0.18899 0.91761
 H2637 H 0.24430 0.22073 0.87728
 H2638 H 0.24420 0.23165 0.85113
 H2639 H 0.26405 0.18958 0.83336
 H2640 H 0.26394 0.17843 0.85939
 C2641 C 0.75065 0.66306 0.44159
 C2642 C 0.75155 0.66983 0.42946
 C2643 C 0.75248 0.67762 0.41481
 C2644 C 0.76563 0.67595 0.40556
 C2645 C 0.76627 0.68299 0.39103
 C2646 C 0.75374 0.69178 0.38557
 C2647 C 0.74063 0.69352 0.39504
 C2648 C 0.74001 0.68647 0.40955
 C2649 C 0.75418 0.69886 0.36995
 C2650 C 0.74820 0.71378 0.36745
 C2651 C 0.74826 0.72025 0.35266
 C2652 C 0.75429 0.71192 0.34018
 C2653 C 0.76037 0.69712 0.34257
 C2654 C 0.76034 0.69063 0.35735
 C2655 C 0.75397 0.71844 0.32490
 C2656 C 0.75354 0.72389 0.31210
 H2657 H 0.77534 0.66913 0.40952
 H2658 H 0.77659 0.68159 0.38410
 H2659 H 0.73072 0.70004 0.39108
 H2660 H 0.72974 0.68775 0.41658
 H2661 H 0.74356 0.72047 0.37695
 H2662 H 0.74355 0.73173 0.35094
 H2663 H 0.76501 0.69055 0.33297
 H2664 H 0.76483 0.67905 0.35886
 C2665 C 0.24937 0.83660 0.43947
 C2666 C 0.24830 0.83006 0.42721
 C2667 C 0.24716 0.82259 0.41241
 C2668 C 0.23431 0.82524 0.40298
 C2669 C 0.23348 0.81850 0.38832
 C2670 C 0.24553 0.80902 0.38290
 C2671 C 0.25832 0.80629 0.39254
 C2672 C 0.25913 0.81305 0.40719
 C2673 C 0.24490 0.80222 0.36716
 C2674 C 0.24996 0.78699 0.36449
 C2675 C 0.24968 0.78074 0.34960
 C2676 C 0.24436 0.78961 0.33718
 C2677 C 0.23921 0.80474 0.33972
 C2678 C 0.23946 0.81101 0.35460
 C2679 C 0.24440 0.78327 0.32182
 C2680 C 0.24458 0.77790 0.30897
 H2681 H 0.22498 0.83261 0.40690
 H2682 H 0.22340 0.82066 0.38125
 H2683 H 0.26787 0.79922 0.38863
 H2684 H 0.26917 0.81100 0.41436
 H2685 H 0.25403 0.77988 0.37394
 H2686 H 0.25367 0.76901 0.34777
 H2687 H 0.23511 0.81173 0.33018
 H2688 H 0.23569 0.82283 0.35624
 C2689 C 0.74897 0.33581 0.94038
 C2690 C 0.74808 0.32916 0.92818
 C2691 C 0.74718 0.32154 0.91343
 C2692 C 0.73401 0.32323 0.90423
 C2693 C 0.73339 0.31638 0.88961
 C2694 C 0.74597 0.30774 0.88400
 C2695 C 0.75910 0.30597 0.89342
 C2696 C 0.75970 0.31284 0.90802
 C2697 C 0.74555 0.30085 0.86829
 C2698 C 0.75163 0.28601 0.86558
 C2699 C 0.75155 0.27971 0.85071
 C2700 C 0.74540 0.28813 0.83836
 C2701 C 0.73923 0.30286 0.84095
 C2702 C 0.73928 0.30918 0.85582
 C2703 C 0.74563 0.28175 0.82301
 C2704 C 0.74596 0.27640 0.81016
 H2705 H 0.72426 0.32995 0.90830
 H2706 H 0.72305 0.31779 0.88272
 H2707 H 0.76905 0.29957 0.88936
 H2708 H 0.76999 0.31154 0.91501
 H2709 H 0.75635 0.27924 0.87497
 H2710 H 0.75633 0.26828 0.84883
 H2711 H 0.73449 0.30950 0.83147
 H2712 H 0.73471 0.32071 0.85749
 C2713 C 0.83898 0.44109 0.24448
 C2714 C 0.83250 0.42877 0.24374
 C2715 C 0.82514 0.41387 0.24291
 C2716 C 0.81423 0.40957 0.25404
 C2717 C 0.80754 0.39486 0.25357
 C2718 C 0.81171 0.38424 0.24197
 C2719 C 0.82258 0.38875 0.23075
 C2720 C 0.82925 0.40346 0.23124
 C2721 C 0.80496 0.36846 0.24174
 C2722 C 0.81425 0.35553 0.23836
 C2723 C 0.80797 0.34064 0.23851
 C2724 C 0.79234 0.33846 0.24201
 C2725 C 0.78298 0.35124 0.24526
 C2726 C 0.78923 0.36614 0.24514
 C2727 C 0.78595 0.32311 0.24256
 C2728 C 0.78049 0.31031 0.24324
 H2729 H 0.81104 0.41751 0.26318
 H2730 H 0.79936 0.39167 0.26248
 H2731 H 0.82588 0.38091 0.22157
 H2732 H 0.83768 0.40668 0.22257
 H2733 H 0.82643 0.35691 0.23591
 H2734 H 0.81533 0.33082 0.23603
 H2735 H 0.77086 0.34968 0.24797
 H2736 H 0.78174 0.37587 0.24760
 C2737 C 0.33944 0.94036 0.74473
 C2738 C 0.33293 0.92806 0.74403
 C2739 C 0.32551 0.91319 0.74326
 C2740 C 0.33001 0.90247 0.73202
 C2741 C 0.32323 0.88781 0.73159
 C2742 C 0.31183 0.88366 0.74242
 C2743 C 0.30728 0.89458 0.75359
 C2744 C 0.31409 0.90924 0.75400
 C2745 C 0.30492 0.86795 0.74224
 C2746 C 0.28903 0.86587 0.74500
 C2747 C 0.28261 0.85104 0.74517
 C2748 C 0.29195 0.83810 0.74259
 C2749 C 0.30774 0.84003 0.73973
 C2750 C 0.31419 0.85486 0.73954
 C2751 C 0.28537 0.82283 0.74319
 C2752 C 0.27976 0.81009 0.74391
 H2753 H 0.33884 0.90541 0.72365
 H2754 H 0.32683 0.87974 0.72273
 H2755 H 0.29869 0.89168 0.76220
 H2756 H 0.31058 0.91742 0.76281
 H2757 H 0.28156 0.87573 0.74692
 H2758 H 0.27037 0.84967 0.74738
 H2759 H 0.31509 0.83008 0.73778
 H2760 H 0.32649 0.85605 0.73759
 C2761 C 0.16194 0.94207 0.25301
 C2762 C 0.16872 0.92989 0.25337
 C2763 C 0.17638 0.91514 0.25377
 C2764 C 0.18367 0.90941 0.24053
 C2765 C 0.19047 0.89475 0.24071
 C2766 C 0.19002 0.88561 0.25415
 C2767 C 0.18281 0.89155 0.26745
 C2768 C 0.17603 0.90622 0.26724
 C2769 C 0.19677 0.86983 0.25419
 C2770 C 0.18905 0.85755 0.26157
 C2771 C 0.19525 0.84263 0.26135
 C2772 C 0.20924 0.83977 0.25377
 C2773 C 0.21705 0.85191 0.24647
 C2774 C 0.21087 0.86684 0.24666
 C2775 C 0.21550 0.82437 0.25333
 C2776 C 0.22080 0.81150 0.25285
 H2777 H 0.18391 0.91618 0.23001
 H2778 H 0.19575 0.89042 0.23023
 H2779 H 0.18245 0.88488 0.27802
 H2780 H 0.17040 0.91054 0.27755
 H2781 H 0.17808 0.85944 0.26727
 H2782 H 0.18908 0.83331 0.26699
 H2783 H 0.22791 0.84983 0.24060
 H2784 H 0.21718 0.87607 0.24104
 C2785 C 0.66220 0.44007 0.75238
 C2786 C 0.66899 0.42791 0.75284
 C2787 C 0.67673 0.41321 0.75340
 C2788 C 0.68452 0.40762 0.74039
 C2789 C 0.69148 0.39303 0.74075
 C2790 C 0.69070 0.38383 0.75413
 C2791 C 0.68296 0.38964 0.76720
 C2792 C 0.67602 0.40422 0.76682
 C2793 C 0.69767 0.36815 0.75436
 C2794 C 0.68987 0.35575 0.76144
 C2795 C 0.69629 0.34092 0.76139
 C2796 C 0.71057 0.33829 0.75430
 C2797 C 0.71846 0.35056 0.74730
 C2798 C 0.71206 0.36539 0.74732
 C2799 C 0.71705 0.32297 0.75401
 C2800 C 0.72250 0.31016 0.75364
 H2801 H 0.68506 0.41444 0.72992
 H2802 H 0.69718 0.38881 0.73044
 H2803 H 0.68233 0.38292 0.77773
 H2804 H 0.67001 0.40844 0.77696
 H2805 H 0.67868 0.35745 0.76676
 H2806 H 0.69007 0.33149 0.76679
 H2807 H 0.72954 0.34865 0.74180
 H2808 H 0.71842 0.37473 0.74195
 C2809 C 0.66222 0.55927 0.74928
 C2810 C 0.66890 0.57149 0.74875
 C2811 C 0.67659 0.58623 0.74829
 C2812 C 0.68424 0.59177 0.76140
 C2813 C 0.69120 0.60635 0.76119
 C2814 C 0.69057 0.61561 0.74785
 C2815 C 0.68300 0.60987 0.73466
 C2816 C 0.67604 0.59528 0.73490
 C2817 C 0.69758 0.63129 0.74777
 C2818 C 0.70569 0.63669 0.73475
 C2819 C 0.71220 0.65149 0.73470
 C2820 C 0.71066 0.66109 0.74763
 C2821 C 0.70261 0.65583 0.76062
 C2822 C 0.69611 0.64104 0.76070
 C2823 C 0.71738 0.67631 0.74763
 C2824 C 0.72302 0.68905 0.74777
 H2825 H 0.68475 0.58486 0.77182
 H2826 H 0.69713 0.61036 0.77145
 H2827 H 0.68216 0.61679 0.72428
 H2828 H 0.67007 0.59113 0.72471
 H2829 H 0.70717 0.62939 0.72470
 H2830 H 0.71846 0.65543 0.72460
 H2831 H 0.70132 0.66318 0.77067
 H2832 H 0.68975 0.63731 0.77080
 C2833 C 0.16230 0.06026 0.24726
 C2834 C 0.16881 0.07255 0.24620
 C2835 C 0.17630 0.08736 0.24510
 C2836 C 0.18863 0.09096 0.25491
 C2837 C 0.19553 0.10557 0.25425
 C2838 C 0.19015 0.11678 0.24378
 C2839 C 0.17783 0.11299 0.23387
 C2840 C 0.17096 0.09837 0.23454
 C2841 C 0.19716 0.13246 0.24342
 C2842 C 0.18779 0.14567 0.24189
 C2843 C 0.19434 0.16045 0.24200
 C2844 C 0.21033 0.16222 0.24360
 C2845 C 0.21976 0.14915 0.24498
 C2846 C 0.21323 0.13436 0.24489
 C2847 C 0.21703 0.17743 0.24421
 C2848 C 0.22272 0.19013 0.24494
 H2849 H 0.19279 0.08255 0.26319
 H2850 H 0.20484 0.10820 0.26217
 H2851 H 0.17356 0.12130 0.22556
 H2852 H 0.16142 0.09570 0.22690
 H2853 H 0.17536 0.14459 0.24095
 H2854 H 0.18693 0.17049 0.24100
 H2855 H 0.23215 0.15040 0.24621
 H2856 H 0.22076 0.12442 0.24589
 C2857 C 0.33698 0.05973 0.75222
 C2858 C 0.33023 0.07188 0.75327
 C2859 C 0.32249 0.08657 0.75435
 C2860 C 0.31276 0.09148 0.74243
 C2861 C 0.30577 0.10604 0.74314
 C2862 C 0.30845 0.11589 0.75580
 C2863 C 0.31814 0.11077 0.76781
 C2864 C 0.32511 0.09620 0.76707
 C2865 C 0.30144 0.13156 0.75631
 C2866 C 0.31008 0.14432 0.76150
 C2867 C 0.30362 0.15914 0.76159
 C2868 C 0.28844 0.16139 0.75653
 C2869 C 0.27970 0.14876 0.75147
 C2870 C 0.28614 0.13393 0.75135
 C2871 C 0.28192 0.17670 0.75625
 C2872 C 0.27645 0.18951 0.75586
 H2873 H 0.31073 0.08416 0.73248
 H2874 H 0.29855 0.10972 0.73363
 H2875 H 0.32028 0.11800 0.77779
 H2876 H 0.33263 0.09251 0.77636
 H2877 H 0.32195 0.14291 0.76519
 H2878 H 0.31051 0.16885 0.76547
 H2879 H 0.26793 0.15037 0.74755
 H2880 H 0.27913 0.12432 0.74748
 C2881 C 0.83666 0.56050 0.25226
 C2882 C 0.82995 0.57267 0.25330
 C2883 C 0.82227 0.58739 0.25435
 C2884 C 0.81242 0.59225 0.24250
 C2885 C 0.80548 0.60683 0.24318
 C2886 C 0.80835 0.61677 0.25573
 C2887 C 0.81814 0.61171 0.26767
 C2888 C 0.82505 0.59711 0.26697
 C2889 C 0.80140 0.63247 0.25619
 C2890 C 0.81015 0.64524 0.26119
 C2891 C 0.80374 0.66008 0.26124
 C2892 C 0.78851 0.66235 0.25633
 C2893 C 0.77967 0.64971 0.25146
 C2894 C 0.78606 0.63486 0.25139
 C2895 C 0.78203 0.67767 0.25604
 C2896 C 0.77658 0.69049 0.25565
 H2897 H 0.81025 0.58485 0.23264
 H2898 H 0.79817 0.61047 0.23372
 H2899 H 0.82042 0.61901 0.27757
 H2900 H 0.83267 0.59347 0.27620
 H2901 H 0.82205 0.64382 0.26475
 H2902 H 0.81070 0.66980 0.26498
 H2903 H 0.76785 0.65133 0.24767
 H2904 H 0.77897 0.62524 0.24767
 C2905 C 0.94262 0.25589 0.16119
 C2906 C 0.93038 0.25671 0.16778
 C2907 C 0.91554 0.25763 0.17522
 C2908 C 0.90478 0.26870 0.17042
 C2909 C 0.89011 0.26921 0.17714
 C2910 C 0.88600 0.25862 0.18877
 C2911 C 0.89697 0.24764 0.19365
 C2912 C 0.91163 0.24715 0.18689
 C2913 C 0.87026 0.25882 0.19559
 C2914 C 0.86811 0.25645 0.21152
 C2915 C 0.85325 0.25624 0.21784
 C2916 C 0.84035 0.25841 0.20834
 C2917 C 0.84237 0.26090 0.19250
 C2918 C 0.85722 0.26112 0.18616
 C2919 C 0.82506 0.25769 0.21482
 C2920 C 0.81233 0.25684 0.22039
 H2921 H 0.90769 0.27686 0.16138
 H2922 H 0.88200 0.27791 0.17328
 H2923 H 0.89408 0.23921 0.20243
 H2924 H 0.91984 0.23847 0.19064
 H2925 H 0.87792 0.25483 0.21910
 H2926 H 0.85181 0.25431 0.23012
 H2927 H 0.83246 0.26251 0.18503
 H2928 H 0.85848 0.26276 0.17382
 C2929 C 0.44146 0.75561 0.66214
 C2930 C 0.42923 0.75624 0.66876
 C2931 C 0.41442 0.75687 0.67627
 C2932 C 0.40407 0.76879 0.67275
 C2933 C 0.38939 0.76904 0.67947
 C2934 C 0.38484 0.75731 0.68978
 C2935 C 0.39541 0.74548 0.69339
 C2936 C 0.41009 0.74527 0.68667
 C2937 C 0.36905 0.75723 0.69648
 C2938 C 0.36077 0.74329 0.69782
 C2939 C 0.34587 0.74318 0.70402
 C2940 C 0.33903 0.75698 0.70896
 C2941 C 0.34715 0.77092 0.70767
 C2942 C 0.36206 0.77106 0.70145
 C2943 C 0.32376 0.75672 0.71552
 C2944 C 0.31103 0.75617 0.72112
 H2945 H 0.40728 0.77778 0.66465
 H2946 H 0.38146 0.77818 0.67632
 H2947 H 0.39233 0.73641 0.70144
 H2948 H 0.41801 0.73599 0.68947
 H2949 H 0.36574 0.73250 0.69388
 H2950 H 0.33968 0.73234 0.70495
 H2951 H 0.34198 0.78165 0.71152
 H2952 H 0.36821 0.78194 0.70072
 C2953 C 0.44015 0.24763 0.83705
 C2954 C 0.42796 0.24733 0.83033
 C2955 C 0.41321 0.24698 0.82270
 C2956 C 0.40408 0.23364 0.82339
 C2957 C 0.38944 0.23348 0.81659
 C2958 C 0.38373 0.24669 0.80902
 C2959 C 0.39307 0.25998 0.80824
 C2960 C 0.40772 0.26011 0.81505
 C2961 C 0.36797 0.24669 0.80225
 C2962 C 0.35834 0.25971 0.80383
 C2963 C 0.34342 0.25964 0.79767
 C2964 C 0.33793 0.24660 0.78984
 C2965 C 0.34742 0.23362 0.78816
 C2966 C 0.36234 0.23364 0.79433
 C2967 C 0.32256 0.24660 0.78352
 C2968 C 0.30970 0.24672 0.77821
 H2969 H 0.40818 0.22344 0.82937
 H2970 H 0.38245 0.22314 0.81756
 H2971 H 0.38908 0.27026 0.80232
 H2972 H 0.41469 0.27050 0.81445
 H2973 H 0.36225 0.26984 0.81006
 H2974 H 0.33616 0.26975 0.79906
 H2975 H 0.34329 0.22348 0.78207
 H2976 H 0.36954 0.22352 0.79277
 C2977 C 0.93989 0.74743 0.33797
 C2978 C 0.92773 0.74720 0.33118
 C2979 C 0.91302 0.74693 0.32346
 C2980 C 0.90804 0.75979 0.31503
 C2981 C 0.89346 0.75977 0.30809
 C2982 C 0.88366 0.74687 0.30952
 C2983 C 0.88885 0.73392 0.31787
 C2984 C 0.90342 0.73397 0.32481
 C2985 C 0.86797 0.74702 0.30258
 C2986 C 0.86197 0.73373 0.29536
 C2987 C 0.84710 0.73384 0.28906
 C2988 C 0.83803 0.74721 0.28991
 C2989 C 0.84390 0.76049 0.29703
 C2990 C 0.85877 0.76041 0.30333
 C2991 C 0.82270 0.74732 0.28351
 C2992 C 0.80986 0.74753 0.27816
 H2993 H 0.91538 0.76988 0.31392
 H2994 H 0.88988 0.76983 0.30157
 H2995 H 0.88150 0.72389 0.31934
 H2996 H 0.90713 0.72398 0.33139
 H2997 H 0.86884 0.72331 0.29444
 H2998 H 0.84268 0.72351 0.28352
 H2999 H 0.83696 0.77088 0.29779
 H3000 H 0.86296 0.77075 0.30900
 C3001 C 0.05784 0.75096 0.33660
 C3002 C 0.07005 0.75182 0.32996
 C3003 C 0.08479 0.75274 0.32232
 C3004 C 0.09408 0.76585 0.32418
 C3005 C 0.10864 0.76652 0.31723
 C3006 C 0.11410 0.75406 0.30831
 C3007 C 0.10461 0.74099 0.30639
 C3008 C 0.09006 0.74034 0.31337
 C3009 C 0.12973 0.75458 0.30125
 C3010 C 0.13224 0.74878 0.28627
 C3011 C 0.14702 0.74897 0.27977
 C3012 C 0.15949 0.75495 0.28814
 C3013 C 0.15711 0.76083 0.30300
 C3014 C 0.14234 0.76066 0.30952
 C3015 C 0.17475 0.75483 0.28155
 C3016 C 0.18752 0.75459 0.27600
 H3017 H 0.09011 0.77551 0.33109
 H3018 H 0.11559 0.77682 0.31876
 H3019 H 0.10857 0.73113 0.29978
 H3020 H 0.08299 0.73010 0.31193
 H3021 H 0.12274 0.74419 0.27954
 H3022 H 0.14873 0.74441 0.26824
 H3023 H 0.16670 0.76544 0.30961
 H3024 H 0.14083 0.76502 0.32115
 C3025 C 0.55938 0.25086 0.83666
 C3026 C 0.57160 0.25161 0.83004
 C3027 C 0.58635 0.25239 0.82241
 C3028 C 0.59189 0.23962 0.81419
 C3029 C 0.60647 0.24015 0.80726
 C3030 C 0.61572 0.25347 0.80850
 C3031 C 0.60998 0.26631 0.81668
 C3032 C 0.59539 0.26575 0.82359
 C3033 C 0.63139 0.25386 0.80152
 C3034 C 0.64382 0.26061 0.80953
 C3035 C 0.65865 0.26066 0.80311
 C3036 C 0.66123 0.25400 0.78861
 C3037 C 0.64893 0.24736 0.78050
 C3038 C 0.63410 0.24728 0.78690
 C3039 C 0.67654 0.25377 0.78215
 C3040 C 0.68936 0.25343 0.77672
 H3041 H 0.58502 0.22918 0.81328
 H3042 H 0.61064 0.23001 0.80122
 H3043 H 0.61674 0.27679 0.81768
 H3044 H 0.59121 0.27571 0.82993
 H3045 H 0.64215 0.26558 0.82089
 H3046 H 0.66811 0.26578 0.80951
 H3047 H 0.65080 0.24220 0.76926
 H3048 H 0.62473 0.24218 0.78037
 C3049 C 0.56081 0.74928 0.66291
 C3050 C 0.57309 0.74864 0.66944
 C3051 C 0.58796 0.74816 0.67684
 C3052 C 0.59800 0.76076 0.67548
 C3053 C 0.61264 0.76023 0.68222
 C3054 C 0.61747 0.74704 0.69042
 C3055 C 0.60725 0.73447 0.69184
 C3056 C 0.59259 0.73502 0.68507
 C3057 C 0.63316 0.74641 0.69733
 C3058 C 0.63546 0.74000 0.71208
 C3059 C 0.65023 0.73966 0.71864
 C3060 C 0.66286 0.74567 0.71052
 C3061 C 0.66069 0.75196 0.69580
 C3062 C 0.64596 0.75233 0.68923
 C3063 C 0.67800 0.74565 0.71736
 C3064 C 0.69071 0.74583 0.72304
 H3065 H 0.59452 0.77099 0.66915
 H3066 H 0.62016 0.77018 0.68112
 H3067 H 0.61069 0.72410 0.69794
 H3068 H 0.58493 0.72517 0.68613
 H3069 H 0.62582 0.73551 0.71867
 H3070 H 0.65177 0.73481 0.73007
 H3071 H 0.67040 0.75661 0.68940
 H3072 H 0.64459 0.75713 0.67777
 C3073 C 0.06223 0.24721 0.16107
 C3074 C 0.07460 0.24603 0.16735
 C3075 C 0.08956 0.24484 0.17447
 C3076 C 0.09099 0.23961 0.18970
 C3077 C 0.10557 0.23871 0.19661
 C3078 C 0.11890 0.24303 0.18836
 C3079 C 0.11733 0.24818 0.17303
 C3080 C 0.10276 0.24908 0.16615
 C3081 C 0.13437 0.24244 0.19575
 C3082 C 0.14736 0.23738 0.18737
 C3083 C 0.16201 0.23737 0.19417
 C3084 C 0.16387 0.24240 0.20942
 C3085 C 0.15100 0.24728 0.21790
 C3086 C 0.13634 0.24729 0.21113
 C3087 C 0.17901 0.24298 0.21623
 C3088 C 0.19167 0.24375 0.22199
 H3089 H 0.08085 0.23626 0.19623
 H3090 H 0.10643 0.23453 0.20837
 H3091 H 0.12733 0.25180 0.16645
 H3092 H 0.10177 0.25320 0.15438
 H3093 H 0.14619 0.23339 0.17558
 H3094 H 0.17189 0.23356 0.18750
 H3095 H 0.15232 0.25127 0.22969
 H3096 H 0.12662 0.25144 0.21782
 C3097 C -0.08745 1.00096 0.81148
 C3098 C -0.08110 1.00050 0.82386
 C3099 C -0.07396 0.99987 0.83886
 C3100 C -0.06406 0.98766 0.84266
 C3101 C -0.05767 0.98672 0.85746
 C3102 C -0.06114 0.99798 0.86867
 C3103 C -0.07100 1.01029 0.86468
 C3104 C -0.07736 1.01120 0.84987
 C3105 C -0.05465 0.99686 0.88450
 C3106 C -0.06383 1.00040 0.89745
 C3107 C -0.05767 0.99956 0.91234
 C3108 C -0.04227 0.99517 0.91452
 C3109 C -0.03307 0.99152 0.90173
 C3110 C -0.03921 0.99234 0.88682
 C3111 C -0.03582 0.99485 0.92982
 C3112 C -0.03037 0.99488 0.94263
 H3113 H -0.06143 0.97877 0.83424
 H3114 H -0.05026 0.97703 0.86023
 H3115 H -0.07371 1.01925 0.87297
 H3116 H -0.08502 1.02070 0.84706
 H3117 H -0.07581 1.00370 0.89606
 H3118 H -0.06490 1.00241 0.92216
 H3119 H -0.02110 0.98819 0.90328
 H3120 H -0.03180 0.98971 0.87709
 C3121 C 0.41104 0.50234 0.31172
 C3122 C 0.41746 0.50183 0.32407
 C3123 C 0.42470 0.50114 0.33901
 C3124 C 0.43515 0.48929 0.34246
 C3125 C 0.44168 0.48828 0.35719
 C3126 C 0.43779 0.49910 0.36870
 C3127 C 0.42738 0.51105 0.36506
 C3128 C 0.42089 0.51205 0.35032
 C3129 C 0.44444 0.49789 0.38446
 C3130 C 0.43520 0.50071 0.39753
 C3131 C 0.44148 0.49979 0.41237
 C3132 C 0.45707 0.49603 0.41436
 C3133 C 0.46634 0.49309 0.40144
 C3134 C 0.46008 0.49398 0.38658
 C3135 C 0.46362 0.49564 0.42963
 C3136 C 0.46909 0.49562 0.44243
 H3137 H 0.43811 0.48072 0.33381
 H3138 H 0.44952 0.47885 0.35969
 H3139 H 0.42434 0.51969 0.37358
 H3140 H 0.41281 0.52127 0.34778
 H3141 H 0.42307 0.50351 0.39629
 H3142 H 0.43419 0.50209 0.42229
 H3143 H 0.47845 0.49025 0.40285
 H3144 H 0.46753 0.49192 0.37675
 C3145 C 0.58965 0.00289 0.30813
 C3146 C 0.58314 0.00317 0.32044
 C3147 C 0.57565 0.00381 0.33527
 C3148 C 0.57206 0.01814 0.34187
 C3149 C 0.56522 0.01886 0.35648
 C3150 C 0.56188 0.00522 0.36470
 C3151 C 0.56545 -0.00913 0.35791
 C3152 C 0.57230 -0.00982 0.34330
 C3153 C 0.55485 0.00597 0.38034
 C3154 C 0.54330 -0.00461 0.38471
 C3155 C 0.53685 -0.00404 0.39950
 C3156 C 0.54184 0.00709 0.41012
 C3157 C 0.55327 0.01771 0.40588
 C3158 C 0.55973 0.01718 0.39108
 C3159 C 0.53537 0.00737 0.42544
 C3160 C 0.52988 0.00724 0.43823
 H3161 H 0.57461 0.02877 0.33576
 H3162 H 0.56244 0.03007 0.36131
 H3163 H 0.56321 -0.01982 0.36402
 H3164 H 0.57511 -0.02097 0.33833
 H3165 H 0.53916 -0.01323 0.37664
 H3166 H 0.52800 -0.01231 0.40266
 H3167 H 0.55726 0.02633 0.41403
 H3168 H 0.56873 0.02535 0.38813
 C3169 C 0.08881 0.50136 0.80778
 C3170 C 0.08240 0.50172 0.82013
 C3171 C 0.07502 0.50244 0.83501
 C3172 C 0.07247 0.51678 0.84206
 C3173 C 0.06572 0.51754 0.85670
 C3174 C 0.06141 0.50394 0.86451
 C3175 C 0.06394 0.48958 0.85729
 C3176 C 0.07071 0.48885 0.84264
 C3177 C 0.05444 0.50472 0.88017
 C3178 C 0.04216 0.49487 0.88423
 C3179 C 0.03575 0.49546 0.89904
 C3180 C 0.04151 0.50587 0.90999
 C3181 C 0.05367 0.51577 0.90605
 C3182 C 0.06010 0.51522 0.89124
 C3183 C 0.03506 0.50615 0.92531
 C3184 C 0.02955 0.50601 0.93810
 H3185 H 0.07577 0.52738 0.83625
 H3186 H 0.06375 0.52877 0.86187
 H3187 H 0.06094 0.47890 0.86308
 H3188 H 0.07271 0.47768 0.83733
 H3189 H 0.03742 0.48681 0.87592
 H3190 H 0.02632 0.48775 0.90195
 H3191 H 0.05827 0.52383 0.91446
 H3192 H 0.06967 0.52281 0.88853
 C3193 C 0.08367 0.50055 0.68907
 C3194 C 0.07631 0.49976 0.67727
 C3195 C 0.06792 0.49869 0.66297
 C3196 C 0.06418 0.51209 0.65475
 C3197 C 0.05669 0.51101 0.64048
 C3198 C 0.05287 0.49648 0.63424
 C3199 C 0.05651 0.48308 0.64269
 C3200 C 0.06399 0.48419 0.65696
 C3201 C 0.04547 0.49532 0.61881
 C3202 C 0.05019 0.48390 0.60823
 C3203 C 0.04362 0.48315 0.59350
 C3204 C 0.03224 0.49377 0.58915
 C3205 C 0.02733 0.50506 0.59965
 C3206 C 0.03389 0.50584 0.61438
 C3207 C 0.02593 0.49342 0.57378
 C3208 C 0.02077 0.49342 0.56085
 H3209 H 0.06726 0.52337 0.65924
 H3210 H 0.05424 0.52153 0.63416
 H3211 H 0.05356 0.47174 0.63829
 H3212 H 0.06684 0.47373 0.66323
 H3213 H 0.05922 0.47577 0.61121
 H3214 H 0.04757 0.47442 0.58543
 H3215 H 0.01852 0.51334 0.59640
 H3216 H 0.02988 0.51464 0.62232
 C3217 C 0.58425 1.00181 0.19006
 C3218 C 0.57689 1.00097 0.17827
 C3219 C 0.56848 0.99983 0.16398
 C3220 C 0.56426 1.01322 0.15596
 C3221 C 0.55676 1.01209 0.14170
 C3222 C 0.55340 0.99752 0.13526
 C3223 C 0.55753 0.98413 0.14351
 C3224 C 0.56502 0.98529 0.15777
 C3225 C 0.54599 0.99633 0.11984
 C3226 C 0.55105 0.98521 0.10909
 C3227 C 0.54445 0.98445 0.09437
 C3228 C 0.53270 0.99474 0.09021
 C3229 C 0.52746 1.00571 0.10088
 C3230 C 0.53405 1.00651 0.11560
 C3231 C 0.52635 0.99438 0.07485
 C3232 C 0.52115 0.99438 0.06194
 H3233 H 0.56697 1.02453 0.16061
 H3234 H 0.55392 1.02260 0.13555
 H3235 H 0.55494 0.97276 0.13896
 H3236 H 0.56825 0.97485 0.16388
 H3237 H 0.56036 0.97735 0.11193
 H3238 H 0.54865 0.97596 0.08617
 H3239 H 0.51836 1.01373 0.09778
 H3240 H 0.52978 1.01506 0.12367
 C3241 C 0.41381 0.49905 0.19263
 C3242 C 0.42082 0.49879 0.18060
 C3243 C 0.42884 0.49884 0.16603
 C3244 C 0.42949 0.48541 0.15705
 C3245 C 0.43663 0.48569 0.14255
 C3246 C 0.44317 0.49945 0.13685
 C3247 C 0.44261 0.51285 0.14606
 C3248 C 0.43549 0.51253 0.16055
 C3249 C 0.45027 0.49991 0.12123
 C3250 C 0.44781 0.51265 0.11142
 C3251 C 0.45423 0.51295 0.09661
 C3252 C 0.46320 0.50055 0.09140
 C3253 C 0.46580 0.48787 0.10109
 C3254 C 0.45938 0.48753 0.11591
 C3255 C 0.46956 0.50072 0.07604
 C3256 C 0.47484 0.50070 0.06315
 H3257 H 0.42430 0.47477 0.16114
 H3258 H 0.43670 0.47524 0.13566
 H3259 H 0.44772 0.52356 0.14208
 H3260 H 0.43504 0.52300 0.16740
 H3261 H 0.44067 0.52225 0.11509
 H3262 H 0.45209 0.52280 0.08917
 H3263 H 0.47275 0.47821 0.09718
 H3264 H 0.46164 0.47766 0.12324
 C3265 C -0.08529 -0.00295 0.69324
 C3266 C -0.07833 -0.00340 0.68118
 C3267 C -0.07038 -0.00354 0.66658
 C3268 C -0.06040 0.00858 0.66269
 C3269 C -0.05333 0.00893 0.64817
 C3270 C -0.05617 -0.00286 0.63733
 C3271 C -0.06608 -0.01510 0.64143
 C3272 C -0.07314 -0.01541 0.65595
 C3273 C -0.04910 -0.00223 0.62171
 C3274 C -0.04347 -0.01575 0.61462
 C3275 C -0.03710 -0.01518 0.59980
 C3276 C -0.03627 -0.00111 0.59184
 C3277 C -0.04176 0.01241 0.59881
 C3278 C -0.04813 0.01187 0.61364
 C3279 C -0.02990 -0.00063 0.57649
 C3280 C -0.02460 -0.00041 0.56362
 H3281 H -0.05820 0.01785 0.67082
 H3282 H -0.04561 0.01839 0.64544
 H3283 H -0.06866 -0.02423 0.63327
 H3284 H -0.08094 -0.02479 0.65880
 H3285 H -0.04388 -0.02673 0.62060
 H3286 H -0.03284 -0.02571 0.59452
 H3287 H -0.04122 0.02335 0.59274
 H3288 H -0.05255 0.02244 0.61869
 C3289 C -0.19375 0.91260 1.00388
 C3290 C -0.18155 0.91932 1.00425
 C3291 C -0.16679 0.92698 1.00435
 C3292 C -0.15537 0.92239 1.01481
 C3293 C -0.14075 0.92923 1.01437
 C3294 C -0.13735 0.94078 1.00342
 C3295 C -0.14898 0.94546 0.99309
 C3296 C -0.16360 0.93858 0.99355
 C3297 C -0.12166 0.94769 1.00262
 C3298 C -0.11972 0.96363 1.00001
 C3299 C -0.10492 0.97008 0.99924
 C3300 C -0.09188 0.96069 1.00103
 C3301 C -0.09369 0.94482 1.00358
 C3302 C -0.10846 0.93835 1.00437
 C3303 C -0.07665 0.96734 1.00052
 C3304 C -0.06385 0.97282 1.00031
 H3305 H -0.15771 0.91340 1.02321
 H3306 H -0.13211 0.92553 1.02261
 H3307 H -0.14667 0.95418 0.98442
 H3308 H -0.17232 0.94216 0.98532
 H3309 H -0.12964 0.97115 0.99879
 H3310 H -0.10365 0.98240 0.99733
 H3311 H -0.08367 0.93744 1.00497
 H3312 H -0.10956 0.92601 1.00616
 C3313 C 0.30596 0.41202 0.50252
 C3314 C 0.31808 0.41889 0.50253
 C3315 C 0.33272 0.42677 0.50216
 C3316 C 0.33946 0.43054 0.48796
 C3317 C 0.35396 0.43764 0.48748
 C3318 C 0.36193 0.44106 0.50122
 C3319 C 0.35498 0.43737 0.51545
 C3320 C 0.34048 0.43025 0.51590
 C3321 C 0.37753 0.44821 0.50069
 C3322 C 0.38171 0.45978 0.51133
 C3323 C 0.39647 0.46634 0.51093
 C3324 C 0.40725 0.46143 0.49992
 C3325 C 0.40319 0.44997 0.48926
 C3326 C 0.38844 0.44340 0.48963
 C3327 C 0.42253 0.46798 0.49973
 C3328 C 0.43535 0.47342 0.49973
 H3329 H 0.33356 0.42789 0.47725
 H3330 H 0.35890 0.44052 0.47635
 H3331 H 0.36091 0.43968 0.52622
 H3332 H 0.33541 0.42730 0.52696
 H3333 H 0.37352 0.46386 0.51986
 H3334 H 0.39948 0.47522 0.51923
 H3335 H 0.41147 0.44603 0.48074
 H3336 H 0.38565 0.43437 0.48143
 C3337 C 0.31081 0.58468 -0.00131
 C3338 C 0.32295 0.57788 -0.00066
 C3339 C 0.33772 0.57030 0.00021
 C3340 C 0.35066 0.57723 -0.00655
 C3341 C 0.36517 0.57028 -0.00530
 C3342 C 0.36695 0.55627 0.00277
 C3343 C 0.35384 0.54930 0.00941
 C3344 C 0.33932 0.55630 0.00815
 C3345 C 0.38244 0.54906 0.00428
 C3346 C 0.38430 0.53297 0.00273
 C3347 C 0.39898 0.52628 0.00373
 C3348 C 0.41197 0.53557 0.00633
 C3349 C 0.41021 0.55156 0.00807
 C3350 C 0.39556 0.55826 0.00707
 C3351 C 0.42716 0.52883 0.00667
 C3352 C 0.43996 0.52334 0.00664
 H3353 H 0.34956 0.58807 -0.01273
 H3354 H 0.37499 0.57581 -0.01074
 H3355 H 0.35486 0.53860 0.01582
 H3356 H 0.32939 0.55087 0.01350
 H3357 H 0.37446 0.52560 0.00041
 H3358 H 0.40023 0.51390 0.00228
 H3359 H 0.42018 0.55886 0.01009
 H3360 H 0.39448 0.57065 0.00854
 C3361 C -0.18766 0.08560 0.49884
 C3362 C -0.17558 0.07870 0.49957
 C3363 C -0.16087 0.07101 0.50054
 C3364 C -0.15974 0.05622 0.50699
 C3365 C -0.14531 0.04904 0.50832
 C3366 C -0.13184 0.05663 0.50327
 C3367 C -0.13314 0.07146 0.49672
 C3368 C -0.14756 0.07858 0.49538
 C3369 C -0.11646 0.04918 0.50483
 C3370 C -0.10352 0.05793 0.50934
 C3371 C -0.08894 0.05107 0.51034
 C3372 C -0.08709 0.03538 0.50687
 C3373 C -0.09992 0.02652 0.50255
 C3374 C -0.11452 0.03336 0.50156
 C3375 C -0.07194 0.02855 0.50719
 C3376 C -0.05916 0.02302 0.50715
 H3377 H -0.16997 0.05029 0.51110
 H3378 H -0.14466 0.03770 0.51356
 H3379 H -0.12303 0.07749 0.49250
 H3380 H -0.14831 0.09004 0.49036
 H3381 H -0.10467 0.07007 0.51215
 H3382 H -0.07909 0.05803 0.51370
 H3383 H -0.09860 0.01438 0.49976
 H3384 H -0.12423 0.02637 0.49790
 C3385 C 0.69306 0.08903 0.49896
 C3386 C 0.68068 0.08264 0.49880
 C3387 C 0.66574 0.07536 0.49832
 C3388 C 0.66324 0.06255 0.48877
 C3389 C 0.64854 0.05588 0.48781
 C3390 C 0.63615 0.06200 0.49637
 C3391 C 0.63882 0.07481 0.50603
 C3392 C 0.65352 0.08144 0.50698
 C3393 C 0.62047 0.05511 0.49518
 C3394 C 0.60730 0.06464 0.49471
 C3395 C 0.59253 0.05817 0.49385
 C3396 C 0.59071 0.04210 0.49343
 C3397 C 0.60373 0.03252 0.49377
 C3398 C 0.61852 0.03897 0.49462
 C3399 C 0.57547 0.03544 0.49321
 C3400 C 0.56272 0.02984 0.49338
 H3401 H 0.67259 0.05781 0.48193
 H3402 H 0.64682 0.04615 0.48014
 H3403 H 0.62958 0.07964 0.51293
 H3404 H 0.65532 0.09137 0.51439
 H3405 H 0.60842 0.07711 0.49490
 H3406 H 0.58252 0.06569 0.49360
 H3407 H 0.60245 0.02006 0.49355
 H3408 H 0.62841 0.03133 0.49514
 C3409 C 0.19219 0.58767 0.99846
 C3410 C 0.17985 0.58120 0.99826
 C3411 C 0.16494 0.57385 0.99771
 C3412 C 0.15271 0.57978 1.00646
 C3413 C 0.13804 0.57310 1.00544
 C3414 C 0.13539 0.56040 0.99563
 C3415 C 0.14781 0.55443 0.98699
 C3416 C 0.16248 0.56114 0.98802
 C3417 C 0.11973 0.55349 0.99436
 C3418 C 0.11781 0.53735 0.99361
 C3419 C 0.10304 0.53087 0.99271
 C3420 C 0.08999 0.54043 0.99251
 C3421 C 0.09178 0.55650 0.99310
 C3422 C 0.10654 0.56300 0.99401
 C3423 C 0.07476 0.53375 0.99228
 C3424 C 0.06200 0.52817 0.99248
 H3425 H 0.15448 0.58963 1.01399
 H3426 H 0.12878 0.57782 1.01241
 H3427 H 0.14611 0.54478 0.97921
 H3428 H 0.17184 0.55652 0.98111
 H3429 H 0.12772 0.52972 0.99403
 H3430 H 0.10178 0.51842 0.99236
 H3431 H 0.08176 0.56400 0.99297
 H3432 H 0.10764 0.57546 0.99435
 C3433 C 0.18705 0.41259 0.49966
 C3434 C 0.17491 0.41940 0.50023
 C3435 C 0.16021 0.42712 0.50105
 C3436 C 0.15285 0.43203 0.48754
 C3437 C 0.13824 0.43888 0.48830
 C3438 C 0.13079 0.44088 0.50261
 C3439 C 0.13837 0.43604 0.51615
 C3440 C 0.15298 0.42920 0.51536
 C3441 C 0.11506 0.44769 0.50338
 C3442 C 0.10385 0.44148 0.51340
 C3443 C 0.08893 0.44765 0.51384
 C3444 C 0.08502 0.46010 0.50430
 C3445 C 0.09611 0.46643 0.49438
 C3446 C 0.11103 0.46027 0.49391
 C3447 C 0.06956 0.46621 0.50444
 C3448 C 0.05662 0.47135 0.50430
 H3449 H 0.15830 0.43038 0.47639
 H3450 H 0.13263 0.44229 0.47766
 H3451 H 0.13302 0.43759 0.52735
 H3452 H 0.15857 0.42542 0.52589
 H3453 H 0.10653 0.43166 0.52068
 H3454 H 0.08042 0.44262 0.52152
 H3455 H 0.09320 0.47608 0.48696
 H3456 H 0.11944 0.46542 0.48622
 C3457 C 0.68724 0.91341 -0.00008
 C3458 C 0.67510 0.92020 0.00058
 C3459 C 0.66039 0.92790 0.00151
 C3460 C 0.65304 0.93303 -0.01193
 C3461 C 0.63844 0.93988 -0.01108
 C3462 C 0.63098 0.94165 0.00326
 C3463 C 0.63854 0.93660 0.01672
 C3464 C 0.65315 0.92977 0.01584
 C3465 C 0.61525 0.94847 0.00412
 C3466 C 0.60403 0.94211 0.01403
 C3467 C 0.58911 0.94828 0.01454
 C3468 C 0.58522 0.96089 0.00520
 C3469 C 0.59633 0.96737 -0.00460
 C3470 C 0.61125 0.96121 -0.00515
 C3471 C 0.56976 0.96700 0.00541
 C3472 C 0.55683 0.97216 0.00531
 H3473 H 0.65851 0.93155 -0.02310
 H3474 H 0.63284 0.94346 -0.02167
 H3475 H 0.63318 0.93799 0.02794
 H3476 H 0.65873 0.92583 0.02632
 H3477 H 0.60669 0.93217 0.02114
 H3478 H 0.58058 0.94314 0.02212
 H3479 H 0.59344 0.97715 -0.01187
 H3480 H 0.61968 0.96648 -0.01275
 C3481 C 0.00136 0.80934 0.91585
 C3482 C 0.00046 0.82121 0.92309
 C3483 C -0.00076 0.83561 0.93133
 C3484 C 0.01258 0.84380 0.93540
 C3485 C 0.01138 0.85817 0.94270
 C3486 C -0.00321 0.86456 0.94599
 C3487 C -0.01654 0.85615 0.94202
 C3488 C -0.01531 0.84178 0.93473
 C3489 C -0.00448 0.88009 0.95319
 C3490 C -0.01565 0.89071 0.94801
 C3491 C -0.01651 0.90552 0.95443
 C3492 C -0.00626 0.90990 0.96612
 C3493 C 0.00479 0.89938 0.97147
 C3494 C 0.00568 0.88457 0.96506
 C3495 C -0.00675 0.92532 0.97234
 C3496 C -0.00686 0.93827 0.97749
 H3497 H 0.02390 0.83918 0.93272
 H3498 H 0.02185 0.86444 0.94541
 H3499 H -0.02792 0.86068 0.94457
 H3500 H -0.02571 0.83554 0.93161
 H3501 H -0.02349 0.88769 0.93875
 H3502 H -0.02505 0.91361 0.95015
 H3503 H 0.01278 0.90265 0.98052
 H3504 H 0.01428 0.87660 0.96942
 C3505 C 0.50139 0.31058 0.41440
 C3506 C 0.50041 0.32242 0.42169
 C3507 C 0.49911 0.33676 0.43002
 C3508 C 0.51239 0.34505 0.43404
 C3509 C 0.51111 0.35934 0.44148
 C3510 C 0.49649 0.36554 0.44498
 C3511 C 0.48320 0.35703 0.44104
 C3512 C 0.48452 0.34273 0.43361
 C3513 C 0.49511 0.38099 0.45236
 C3514 C 0.48377 0.39154 0.44740
 C3515 C 0.48283 0.40627 0.45397
 C3516 C 0.49316 0.41065 0.46560
 C3517 C 0.50437 0.40019 0.47073
 C3518 C 0.50535 0.38545 0.46416
 C3519 C 0.49261 0.42602 0.47195
 C3520 C 0.49245 0.43893 0.47718
 H3521 H 0.52374 0.34057 0.43122
 H3522 H 0.52154 0.36570 0.44416
 H3523 H 0.47180 0.36140 0.44375
 H3524 H 0.47416 0.33641 0.43054
 H3525 H 0.47587 0.38852 0.43819
 H3526 H 0.47416 0.41431 0.44986
 H3527 H 0.51243 0.40346 0.47973
 H3528 H 0.51407 0.37753 0.46836
 C3529 C -0.00188 0.30704 0.58708
 C3530 C -0.00216 0.31913 0.58015
 C3531 C -0.00214 0.33375 0.57221
 C3532 C -0.01564 0.34260 0.57139
 C3533 C -0.01541 0.35713 0.56429
 C3534 C -0.00163 0.36300 0.55795
 C3535 C 0.01184 0.35393 0.55869
 C3536 C 0.01157 0.33941 0.56578
 C3537 C -0.00124 0.37863 0.55084
 C3538 C 0.01135 0.38860 0.55343
 C3539 C 0.01160 0.40340 0.54695
 C3540 C -0.00071 0.40845 0.53779
 C3541 C -0.01326 0.39861 0.53507
 C3542 C -0.01354 0.38380 0.54155
 C3543 C -0.00058 0.42378 0.53131
 C3544 C -0.00063 0.43662 0.52591
 H3545 H -0.02630 0.33838 0.57642
 H3546 H -0.02592 0.36391 0.56408
 H3547 H 0.02257 0.35804 0.55374
 H3548 H 0.02210 0.33266 0.56636
 H3549 H 0.02089 0.38505 0.56070
 H3550 H 0.02134 0.41094 0.54918
 H3551 H -0.02284 0.40239 0.52797
 H3552 H -0.02330 0.37634 0.53918
 C3553 C 0.49742 0.80768 0.08764
 C3554 C 0.49725 0.81983 0.08081
 C3555 C 0.49741 0.83450 0.07298
 C3556 C 0.48386 0.84323 0.07174
 C3557 C 0.48420 0.85779 0.06473
 C3558 C 0.49813 0.86384 0.05890
 C3559 C 0.51165 0.85489 0.06006
 C3560 C 0.51128 0.84034 0.06706
 C3561 C 0.49860 0.87949 0.05187
 C3562 C 0.51099 0.88958 0.05495
 C3563 C 0.51132 0.90441 0.04853
 C3564 C 0.49929 0.90935 0.03894
 C3565 C 0.48695 0.89940 0.03575
 C3566 C 0.48659 0.88457 0.04216
 C3567 C 0.49950 0.92470 0.03250
 C3568 C 0.49950 0.93755 0.02712
 H3569 H 0.47308 0.83887 0.07637
 H3570 H 0.47363 0.86447 0.06419
 H3571 H 0.52251 0.85913 0.05551
 H3572 H 0.52185 0.83368 0.06797
 H3573 H 0.52030 0.88610 0.06254
 H3574 H 0.52089 0.91204 0.05112
 H3575 H 0.47759 0.90310 0.02832
 H3576 H 0.47699 0.87702 0.03942
 C3577 C 0.50103 0.68858 0.08772
 C3578 C 0.50057 0.67640 0.08096
 C3579 C 0.49987 0.66166 0.07327
 C3580 C 0.48556 0.65478 0.07027
 C3581 C 0.48485 0.64015 0.06342
 C3582 C 0.49849 0.63221 0.05949
 C3583 C 0.51282 0.63931 0.06241
 C3584 C 0.51350 0.65393 0.06927
 C3585 C 0.49778 0.61648 0.05263
 C3586 C 0.50794 0.61221 0.04069
 C3587 C 0.50747 0.59730 0.03447
 C3588 C 0.49686 0.58646 0.04010
 C3589 C 0.48664 0.59062 0.05191
 C3590 C 0.48708 0.60553 0.05814
 C3591 C 0.49666 0.57103 0.03389
 C3592 C 0.49673 0.55811 0.02865
 H3593 H 0.47494 0.66066 0.07333
 H3594 H 0.47365 0.63508 0.06114
 H3595 H 0.52352 0.63342 0.05971
 H3596 H 0.52464 0.65912 0.07163
 H3597 H 0.51617 0.62043 0.03608
 H3598 H 0.51542 0.59421 0.02531
 H3599 H 0.47842 0.58230 0.05639
 H3600 H 0.47924 0.60840 0.06746
 C3601 C 0.00211 0.18857 0.58755
 C3602 C 0.00166 0.17630 0.58094
 C3603 C 0.00098 0.16147 0.57345
 C3604 C 0.01460 0.15353 0.56989
 C3605 C 0.01393 0.13881 0.56323
 C3606 C -0.00041 0.13183 0.56007
 C3607 C -0.01405 0.13997 0.56356
 C3608 C -0.01334 0.15468 0.57021
 C3609 C -0.00113 0.11603 0.55338
 C3610 C -0.01209 0.10525 0.55873
 C3611 C -0.01256 0.09029 0.55263
 C3612 C -0.00212 0.08590 0.54110
 C3613 C 0.00876 0.09655 0.53563
 C3614 C 0.00926 0.11151 0.54172
 C3615 C -0.00241 0.07044 0.53496
 C3616 C -0.00240 0.05752 0.52971
 H3617 H 0.02575 0.15862 0.57245
 H3618 H 0.02462 0.13277 0.56087
 H3619 H -0.02525 0.13498 0.56109
 H3620 H -0.02396 0.16072 0.57293
 H3621 H -0.02010 0.10831 0.56784
 H3622 H -0.02099 0.08212 0.55699
 H3623 H 0.01687 0.09328 0.52668
 H3624 H 0.01770 0.11959 0.53723
 C3625 C 0.50346 0.19180 0.41001
 C3626 C 0.50389 0.17949 0.41653
 C3627 C 0.50471 0.16467 0.42403
 C3628 C 0.51885 0.15688 0.42493
 C3629 C 0.51966 0.14230 0.43185
 C3630 C 0.50632 0.13531 0.43796
 C3631 C 0.49217 0.14328 0.43708
 C3632 C 0.49138 0.15786 0.43014
 C3633 C 0.50712 0.11971 0.44508
 C3634 C 0.49869 0.11636 0.45857
 C3635 C 0.49924 0.10161 0.46512
 C3636 C 0.50820 0.09000 0.45830
 C3637 C 0.51671 0.09323 0.44494
 C3638 C 0.51619 0.10799 0.43837
 C3639 C 0.50833 0.07471 0.46485
 C3640 C 0.50807 0.06195 0.47043
 H3641 H 0.52924 0.16205 0.42025
 H3642 H 0.53075 0.13655 0.43253
 H3643 H 0.48166 0.13812 0.44149
 H3644 H 0.48036 0.16376 0.42943
 H3645 H 0.49177 0.12519 0.46412
 H3646 H 0.49261 0.09923 0.47547
 H3647 H 0.52362 0.08430 0.43952
 H3648 H 0.52265 0.11015 0.42788
 C3649 C 0.00184 0.69148 0.91076
 C3650 C 0.00202 0.67912 0.91719
 C3651 C 0.00255 0.66422 0.92457
 C3652 C -0.00955 0.65369 0.92249
 C3653 C -0.00873 0.63897 0.92910
 C3654 C 0.00423 0.63458 0.93787
 C3655 C 0.01627 0.64530 0.94002
 C3656 C 0.01542 0.66002 0.93338
 C3657 C 0.00525 0.61882 0.94463
 C3658 C 0.01113 0.61661 0.95961
 C3659 C 0.01191 0.60178 0.96600
 C3660 C 0.00687 0.58898 0.95749
 C3661 C 0.00111 0.59105 0.94253
 C3662 C 0.00031 0.60586 0.93613
 C3663 C 0.00711 0.57378 0.96425
 C3664 C 0.00693 0.56106 0.96993
 H3665 H -0.01956 0.65682 0.91567
 H3666 H -0.01827 0.63105 0.92742
 H3667 H 0.02647 0.64221 0.94655
 H3668 H 0.02490 0.66805 0.93498
 H3669 H 0.01486 0.62637 0.96650
 H3670 H 0.01630 0.60031 0.97762
 H3671 H -0.00283 0.58122 0.93584
 H3672 H -0.00406 0.60716 0.92449
 C3673 C 0.25332 0.66238 0.93995
 C3674 C 0.25296 0.66936 0.92791
 C3675 C 0.25244 0.67724 0.91329
 C3676 C 0.26497 0.67623 0.90313
 C3677 C 0.26420 0.68317 0.88858
 C3678 C 0.25083 0.69120 0.88397
 C3679 C 0.23837 0.69234 0.89435
 C3680 C 0.23918 0.68538 0.90890
 C3681 C 0.24981 0.69808 0.86829
 C3682 C 0.24301 0.71269 0.86604
 C3683 C 0.24212 0.71912 0.85125
 C3684 C 0.24797 0.71103 0.83852
 C3685 C 0.25468 0.69647 0.84063
 C3686 C 0.25560 0.69003 0.85540
 C3687 C 0.24738 0.71772 0.82332
 C3688 C 0.24719 0.72320 0.81052
 H3689 H 0.27529 0.66995 0.90640
 H3690 H 0.27406 0.68228 0.88094
 H3691 H 0.22787 0.69829 0.89107
 H3692 H 0.22937 0.68615 0.91664
 H3693 H 0.23861 0.71924 0.87575
 H3694 H 0.23697 0.73044 0.84975
 H3695 H 0.25923 0.69010 0.83086
 H3696 H 0.26068 0.67867 0.85671
 C3697 C 0.75517 0.16339 0.43975
 C3698 C 0.75480 0.17028 0.42765
 C3699 C 0.75425 0.17804 0.41297
 C3700 C 0.76690 0.17726 0.40295
 C3701 C 0.76611 0.18405 0.38833
 C3702 C 0.75260 0.19172 0.38352
 C3703 C 0.74001 0.19264 0.39376
 C3704 C 0.74083 0.18582 0.40838
 C3705 C 0.75157 0.19846 0.36778
 C3706 C 0.74443 0.21287 0.36535
 C3707 C 0.74352 0.21917 0.35050
 C3708 C 0.74969 0.21114 0.33790
 C3709 C 0.75675 0.19677 0.34018
 C3710 C 0.75769 0.19046 0.35501
 C3711 C 0.74907 0.21770 0.32264
 C3712 C 0.74884 0.22312 0.30982
 H3713 H 0.77734 0.17125 0.40637
 H3714 H 0.77606 0.18334 0.38079
 H3715 H 0.72940 0.19830 0.39033
 H3716 H 0.73093 0.18640 0.41601
 H3717 H 0.73976 0.21938 0.37497
 H3718 H 0.73809 0.23034 0.34887
 H3719 H 0.76155 0.19044 0.33050
 H3720 H 0.76304 0.17924 0.35646
 C3721 C 0.24726 0.33594 0.44178
 C3722 C 0.24803 0.32907 0.42969
 C3723 C 0.24902 0.32131 0.41502
 C3724 C 0.23556 0.31781 0.40679
 C3725 C 0.23654 0.31104 0.39216
 C3726 C 0.25101 0.30770 0.38555
 C3727 C 0.26447 0.31105 0.39402
 C3728 C 0.26347 0.31783 0.40865
 C3729 C 0.25206 0.30108 0.36975
 C3730 C 0.26297 0.28952 0.36628
 C3731 C 0.26394 0.28337 0.35136
 C3732 C 0.25407 0.28871 0.33974
 C3733 C 0.24322 0.30023 0.34307
 C3734 C 0.24221 0.30637 0.35796
 C3735 C 0.25485 0.28228 0.32443
 C3736 C 0.25518 0.27694 0.31157
 H3737 H 0.22432 0.32046 0.41161
 H3738 H 0.22596 0.30840 0.38602
 H3739 H 0.27578 0.30879 0.38917
 H3740 H 0.27397 0.32058 0.41488
 H3741 H 0.27059 0.28508 0.37514
 H3742 H 0.27234 0.27441 0.34892
 H3743 H 0.23553 0.30446 0.33415
 H3744 H 0.23386 0.31542 0.36020
 C3745 C 0.74824 0.83792 0.94101
 C3746 C 0.74916 0.83131 0.92878
 C3747 C 0.75029 0.82389 0.91395
 C3748 C 0.74066 0.82861 0.90187
 C3749 C 0.74208 0.82188 0.88727
 C3750 C 0.75319 0.81032 0.88453
 C3751 C 0.76273 0.80555 0.89679
 C3752 C 0.76131 0.81232 0.91140
 C3753 C 0.75479 0.80334 0.86894
 C3754 C 0.75718 0.78734 0.86721
 C3755 C 0.75823 0.78075 0.85249
 C3756 C 0.75695 0.79006 0.83933
 C3757 C 0.75478 0.80600 0.84093
 C3758 C 0.75371 0.81261 0.85563
 C3759 C 0.75723 0.78320 0.82419
 C3760 C 0.75705 0.77747 0.81149
 H3761 H 0.73210 0.83757 0.90372
 H3762 H 0.73440 0.82564 0.87814
 H3763 H 0.77150 0.79680 0.89500
 H3764 H 0.76888 0.80864 0.92065
 H3765 H 0.75788 0.77988 0.87722
 H3766 H 0.75982 0.76837 0.85138
 H3767 H 0.75377 0.81332 0.83083
 H3768 H 0.75210 0.82499 0.85658
 C3769 C 0.74592 0.83811 0.06050
 C3770 C 0.74559 0.83150 0.07276
 C3771 C 0.74488 0.82397 0.08756
 C3772 C 0.75832 0.81815 0.09440
 C3773 C 0.75766 0.81131 0.10902
 C3774 C 0.74352 0.81021 0.11700
 C3775 C 0.73007 0.81600 0.10996
 C3776 C 0.73076 0.82282 0.09535
 C3777 C 0.74286 0.80326 0.13267
 C3778 C 0.73366 0.80994 0.14430
 C3779 C 0.73329 0.80356 0.15914
 C3780 C 0.74208 0.79043 0.16254
 C3781 C 0.75118 0.78364 0.15103
 C3782 C 0.75158 0.78999 0.13620
 C3783 C 0.74210 0.78409 0.17791
 C3784 C 0.74248 0.77870 0.19074
 H3785 H 0.76933 0.81906 0.08852
 H3786 H 0.76825 0.80715 0.11421
 H3787 H 0.71899 0.81515 0.11572
 H3788 H 0.72028 0.82728 0.09015
 H3789 H 0.72698 0.82027 0.14201
 H3790 H 0.72626 0.80896 0.16799
 H3791 H 0.75802 0.77346 0.15354
 H3792 H 0.75862 0.78447 0.12745
 C3793 C 0.24591 0.33781 0.56091
 C3794 C 0.24555 0.33118 0.57315
 C3795 C 0.24480 0.32360 0.58793
 C3796 C 0.23077 0.32296 0.59594
 C3797 C 0.23003 0.31602 0.61050
 C3798 C 0.24335 0.30962 0.61726
 C3799 C 0.25739 0.31022 0.60906
 C3800 C 0.25809 0.31718 0.59449
 C3801 C 0.24266 0.30254 0.63287
 C3802 C 0.25087 0.28889 0.63613
 C3803 C 0.25045 0.28241 0.65091
 C3804 C 0.24184 0.28947 0.66264
 C3805 C 0.23354 0.30299 0.65950
 C3806 C 0.23393 0.30949 0.64471
 C3807 C 0.24189 0.28304 0.67796
 C3808 C 0.24230 0.27760 0.69077
 H3809 H 0.22040 0.32788 0.59095
 H3810 H 0.21903 0.31557 0.61643
 H3811 H 0.26788 0.30558 0.61403
 H3812 H 0.26903 0.31768 0.58843
 H3813 H 0.25753 0.28317 0.62722
 H3814 H 0.25692 0.27194 0.65322
 H3815 H 0.22691 0.30860 0.66851
 H3816 H 0.22765 0.32011 0.64263
 C3817 C 0.75339 0.16164 0.55874
 C3818 C 0.75359 0.16833 0.57095
 C3819 C 0.75416 0.17600 0.58570
 C3820 C 0.74060 0.18148 0.59258
 C3821 C 0.74115 0.18847 0.60714
 C3822 C 0.75529 0.19004 0.61501
 C3823 C 0.76887 0.18459 0.60793
 C3824 C 0.76829 0.17762 0.59337
 C3825 C 0.75584 0.19714 0.63063
 C3826 C 0.76531 0.19081 0.64224
 C3827 C 0.76560 0.19732 0.65702
 C3828 C 0.75647 0.21023 0.66040
 C3829 C 0.74710 0.21667 0.64891
 C3830 C 0.74678 0.21018 0.63413
 C3831 C 0.75641 0.21668 0.67572
 C3832 C 0.75604 0.22212 0.68854
 H3833 H 0.72959 0.18021 0.58678
 H3834 H 0.73047 0.19237 0.61237
 H3835 H 0.77994 0.18581 0.61360
 H3836 H 0.77886 0.17342 0.58814
 H3837 H 0.77226 0.18066 0.63997
 H3838 H 0.77284 0.19219 0.66585
 H3839 H 0.73999 0.22667 0.65140
 H3840 H 0.73952 0.21542 0.62540
 C3841 C 0.25117 0.66032 0.05866
 C3842 C 0.25135 0.66712 0.07082
 C3843 C 0.25191 0.67496 0.08548
 C3844 C 0.23849 0.68129 0.09188
 C3845 C 0.23902 0.68852 0.10632
 C3846 C 0.25300 0.68947 0.11457
 C3847 C 0.26645 0.68315 0.10797
 C3848 C 0.26589 0.67595 0.09353
 C3849 C 0.25352 0.69683 0.13006
 C3850 C 0.26232 0.69024 0.14203
 C3851 C 0.26258 0.69702 0.15670
 C3852 C 0.25409 0.71047 0.15958
 C3853 C 0.24539 0.71718 0.14773
 C3854 C 0.24510 0.71042 0.13306
 C3855 C 0.25398 0.71721 0.17479
 C3856 C 0.25357 0.72284 0.18752
 H3857 H 0.22759 0.68052 0.08578
 H3858 H 0.22843 0.69309 0.11118
 H3859 H 0.27742 0.68387 0.11393
 H3860 H 0.27635 0.67109 0.08867
 H3861 H 0.26876 0.67967 0.14015
 H3862 H 0.26929 0.69168 0.16581
 H3863 H 0.23878 0.72761 0.14984
 H3864 H 0.23838 0.71588 0.12404
 C3865 C 0.16299 0.55966 0.74577
 C3866 C 0.17000 0.57168 0.74656
 C3867 C 0.17796 0.58624 0.74770
 C3868 C 0.18255 0.59409 0.73433
 C3869 C 0.18966 0.60856 0.73545
 C3870 C 0.19225 0.61540 0.74997
 C3871 C 0.18774 0.60734 0.76335
 C3872 C 0.18064 0.59286 0.76220
 C3873 C 0.19934 0.63099 0.75114
 C3874 C 0.19368 0.64188 0.76182
 C3875 C 0.20011 0.65670 0.76264
 C3876 C 0.21229 0.66081 0.75285
 C3877 C 0.21809 0.65003 0.74228
 C3878 C 0.21167 0.63522 0.74142
 C3879 C 0.21864 0.67618 0.75338
 C3880 C 0.22398 0.68905 0.75354
 H3881 H 0.18044 0.58911 0.72304
 H3882 H 0.19281 0.61456 0.72493
 H3883 H 0.18975 0.61220 0.77470
 H3884 H 0.17712 0.58689 0.77263
 H3885 H 0.18407 0.63906 0.76931
 H3886 H 0.19548 0.66498 0.77082
 H3887 H 0.22753 0.65309 0.73465
 H3888 H 0.21641 0.62704 0.73322
 C3889 C 0.66381 0.05981 0.24618
 C3890 C 0.67100 0.07173 0.24679
 C3891 C 0.67919 0.08619 0.24772
 C3892 C 0.68237 0.09461 0.23430
 C3893 C 0.68966 0.10900 0.23528
 C3894 C 0.69384 0.11518 0.24972
 C3895 C 0.69074 0.10654 0.26314
 C3896 C 0.68346 0.09214 0.26213
 C3897 C 0.70110 0.13071 0.25080
 C3898 C 0.69666 0.14112 0.26248
 C3899 C 0.70317 0.15590 0.26323
 C3900 C 0.71422 0.16046 0.25235
 C3901 C 0.71882 0.15014 0.24077
 C3902 C 0.71231 0.13537 0.23999
 C3903 C 0.72059 0.17582 0.25280
 C3904 C 0.72590 0.18871 0.25291
 H3905 H 0.67901 0.09015 0.22309
 H3906 H 0.69170 0.11546 0.22476
 H3907 H 0.69399 0.11089 0.27441
 H3908 H 0.68104 0.08573 0.27260
 H3909 H 0.68791 0.13796 0.27084
 H3910 H 0.69947 0.16382 0.27220
 H3911 H 0.72737 0.15355 0.23229
 H3912 H 0.71611 0.12756 0.23098
 C3913 C 0.83906 0.05960 0.74978
 C3914 C 0.83247 0.07185 0.74889
 C3915 C 0.82511 0.08672 0.74780
 C3916 C 0.81144 0.08851 0.73936
 C3917 C 0.80458 0.10310 0.73803
 C3918 C 0.81136 0.11609 0.74511
 C3919 C 0.82506 0.11414 0.75363
 C3920 C 0.83187 0.09956 0.75495
 C3921 C 0.80417 0.13162 0.74372
 C3922 C 0.81341 0.14484 0.74159
 C3923 C 0.80670 0.15952 0.74083
 C3924 C 0.79069 0.16120 0.74216
 C3925 C 0.78137 0.14811 0.74406
 C3926 C 0.78805 0.13341 0.74481
 C3927 C 0.78389 0.17638 0.74223
 C3928 C 0.77822 0.18910 0.74271
 H3929 H 0.80616 0.07866 0.73372
 H3930 H 0.79413 0.10426 0.73128
 H3931 H 0.83042 0.12386 0.75941
 H3932 H 0.84245 0.09831 0.76151
 H3933 H 0.82583 0.14383 0.74048
 H3934 H 0.81403 0.16958 0.73936
 H3935 H 0.76896 0.14928 0.74520
 H3936 H 0.78064 0.12348 0.74663
 C3937 C 0.33719 0.56108 0.24895
 C3938 C 0.33052 0.57327 0.24791
 C3939 C 0.32302 0.58806 0.24661
 C3940 C 0.30778 0.58910 0.24131
 C3941 C 0.30066 0.60355 0.23988
 C3942 C 0.30873 0.61716 0.24372
 C3943 C 0.32403 0.61596 0.24906
 C3944 C 0.33111 0.60152 0.25049
 C3945 C 0.30122 0.63253 0.24233
 C3946 C 0.30956 0.64534 0.23675
 C3947 C 0.30269 0.65994 0.23601
 C3948 C 0.28739 0.66195 0.24081
 C3949 C 0.27891 0.64925 0.24617
 C3950 C 0.28576 0.63463 0.24690
 C3951 C 0.28059 0.67714 0.24087
 C3952 C 0.27498 0.68988 0.24131
 H3953 H 0.30144 0.57875 0.23821
 H3954 H 0.28893 0.60410 0.23559
 H3955 H 0.33046 0.62619 0.25234
 H3956 H 0.34290 0.60085 0.25463
 H3957 H 0.32141 0.64406 0.23294
 H3958 H 0.30936 0.66970 0.23186
 H3959 H 0.26708 0.65070 0.25000
 H3960 H 0.27909 0.62505 0.25142
 C3961 C 0.33788 0.44157 0.24977
 C3962 C 0.33133 0.42927 0.24965
 C3963 C 0.32387 0.41439 0.24983
 C3964 C 0.32870 0.40279 0.23965
 C3965 C 0.32202 0.38809 0.24032
 C3966 C 0.31041 0.38479 0.25122
 C3967 C 0.30551 0.39659 0.26128
 C3968 C 0.31222 0.41128 0.26060
 C3969 C 0.30362 0.36904 0.25221
 C3970 C 0.28767 0.36703 0.25466
 C3971 C 0.28131 0.35219 0.25551
 C3972 C 0.29080 0.33917 0.25396
 C3973 C 0.30668 0.34105 0.25161
 C3974 C 0.31306 0.35588 0.25074
 C3975 C 0.28422 0.32390 0.25443
 C3976 C 0.27875 0.31108 0.25456
 H3977 H 0.33772 0.40507 0.23128
 H3978 H 0.32589 0.37933 0.23227
 H3979 H 0.29674 0.39435 0.26992
 H3980 H 0.30847 0.42015 0.26861
 H3981 H 0.28008 0.37693 0.25566
 H3982 H 0.26899 0.35086 0.25725
 H3983 H 0.31413 0.33106 0.25041
 H3984 H 0.32540 0.35703 0.24908
 C3985 C 0.83980 0.93987 0.75094
 C3986 C 0.83331 0.92753 0.75099
 C3987 C 0.82594 0.91262 0.75137
 C3988 C 0.81223 0.91052 0.75968
 C3989 C 0.80544 0.89587 0.76058
 C3990 C 0.81233 0.88310 0.75321
 C3991 C 0.82605 0.88537 0.74479
 C3992 C 0.83280 0.90002 0.74389
 C3993 C 0.80530 0.86747 0.75436
 C3994 C 0.81466 0.85432 0.75635
 C3995 C 0.80807 0.83958 0.75720
 C3996 C 0.79205 0.83779 0.75608
 C3997 C 0.78262 0.85080 0.75422
 C3998 C 0.78918 0.86555 0.75339
 C3999 C 0.78532 0.82257 0.75634
 C4000 C 0.77966 0.80983 0.75620
 H4001 H 0.80687 0.92017 0.76560
 H4002 H 0.79498 0.89447 0.76729
 H4003 H 0.83151 0.87583 0.73881
 H4004 H 0.84343 0.90151 0.73745
 H4005 H 0.82708 0.85543 0.75737
 H4006 H 0.81547 0.82959 0.75863
 H4007 H 0.77021 0.84953 0.75325
 H4008 H 0.78169 0.87542 0.75167
 C4009 C 0.66061 0.94153 0.24852
 C4010 C 0.66710 0.92920 0.24851
 C4011 C 0.67453 0.91432 0.24823
 C4012 C 0.68812 0.91216 0.23974
 C4013 C 0.69501 0.89755 0.23901
 C4014 C 0.68835 0.88488 0.24675
 C4015 C 0.67475 0.88721 0.25535
 C4016 C 0.66790 0.90183 0.25606
 C4017 C 0.69550 0.86929 0.24583
 C4018 C 0.68622 0.85602 0.24429
 C4019 C 0.69292 0.84132 0.24370
 C4020 C 0.70898 0.83969 0.24463
 C4021 C 0.71832 0.85282 0.24603
 C4022 C 0.71165 0.86753 0.24661
 C4023 C 0.71580 0.82451 0.24467
 C4024 C 0.72148 0.81179 0.24505
 H4025 H 0.69331 0.92173 0.23355
 H4026 H 0.70538 0.89609 0.23216
 H4027 H 0.66947 0.87775 0.26161
 H4028 H 0.65737 0.90336 0.26267
 H4029 H 0.67378 0.85700 0.24344
 H4030 H 0.68558 0.83124 0.24262
 H4031 H 0.73076 0.85168 0.24685
 H4032 H 0.71909 0.87750 0.24798
 C4033 C 0.16035 0.44047 0.74758
 C4034 C 0.16687 0.42816 0.74762
 C4035 C 0.17432 0.41328 0.74743
 C4036 C 0.18766 0.41096 0.73858
 C4037 C 0.19454 0.39635 0.73795
 C4038 C 0.18814 0.38384 0.74615
 C4039 C 0.17480 0.38633 0.75510
 C4040 C 0.16795 0.40095 0.75572
 C4041 C 0.19529 0.36824 0.74534
 C4042 C 0.18598 0.35493 0.74434
 C4043 C 0.19268 0.34024 0.74386
 C4044 C 0.20875 0.33863 0.74434
 C4045 C 0.21812 0.35179 0.74519
 C4046 C 0.21145 0.36651 0.74567
 C4047 C 0.21559 0.32346 0.74447
 C4048 C 0.22128 0.31075 0.74492
 H4049 H 0.19263 0.42041 0.73203
 H4050 H 0.20470 0.39476 0.73082
 H4051 H 0.16973 0.37700 0.76172
 H4052 H 0.15762 0.40261 0.76260
 H4053 H 0.17352 0.35589 0.74384
 H4054 H 0.18532 0.33012 0.74320
 H4055 H 0.23058 0.35068 0.74566
 H4056 H 0.21891 0.37651 0.74661
 C4057 C 0.06025 0.75373 0.83679
 C4058 C 0.07229 0.75325 0.82980
 C4059 C 0.08691 0.75255 0.82193
 C4060 C 0.09690 0.76525 0.82230
 C4061 C 0.11148 0.76430 0.81543
 C4062 C 0.11627 0.75059 0.80811
 C4063 C 0.10605 0.73795 0.80758
 C4064 C 0.09147 0.73893 0.81448
 C4065 C 0.13199 0.74939 0.80134
 C4066 C 0.13437 0.74185 0.78712
 C4067 C 0.14920 0.74080 0.78079
 C4068 C 0.16183 0.74721 0.78859
 C4069 C 0.15958 0.75465 0.80276
 C4070 C 0.14478 0.75573 0.80910
 C4071 C 0.17705 0.74650 0.78196
 C4072 C 0.18986 0.74626 0.77651
 H4073 H 0.09349 0.77585 0.82805
 H4074 H 0.11900 0.77430 0.81583
 H4075 H 0.10947 0.72718 0.80219
 H4076 H 0.08386 0.72898 0.81421
 H4077 H 0.12474 0.73699 0.78080
 H4078 H 0.15080 0.73508 0.76977
 H4079 H 0.16928 0.75965 0.80891
 H4080 H 0.14337 0.76139 0.82017
 C4081 C 0.56163 0.25417 0.33587
 C4082 C 0.57374 0.25360 0.32901
 C4083 C 0.58843 0.25277 0.32128
 C4084 C 0.59943 0.26438 0.32365
 C4085 C 0.61403 0.26322 0.31684
 C4086 C 0.61782 0.25039 0.30759
 C4087 C 0.60660 0.23888 0.30509
 C4088 C 0.59201 0.24007 0.31193
 C4089 C 0.63351 0.24893 0.30079
 C4090 C 0.63551 0.24350 0.28560
 C4091 C 0.65031 0.24232 0.27920
 C4092 C 0.66327 0.24649 0.28792
 C4093 C 0.66139 0.25177 0.30308
 C4094 C 0.64663 0.25298 0.30948
 C4095 C 0.67847 0.24581 0.28124
 C4096 C 0.69127 0.24562 0.27576
 H4097 H 0.59679 0.27426 0.33088
 H4098 H 0.62233 0.27237 0.31879
 H4099 H 0.60923 0.22880 0.29817
 H4100 H 0.58360 0.23097 0.31010
 H4101 H 0.62563 0.24044 0.27857
 H4102 H 0.65163 0.23829 0.26742
 H4103 H 0.67135 0.25503 0.30993
 H4104 H 0.64549 0.25696 0.32128
 C4105 C 0.55852 0.75010 0.16387
 C4106 C 0.57057 0.75115 0.17075
 C4107 C 0.58519 0.75250 0.17856
 C4108 C 0.59130 0.73987 0.18659
 C4109 C 0.60582 0.74100 0.19359
 C4110 C 0.61442 0.75477 0.19261
 C4111 C 0.60809 0.76745 0.18463
 C4112 C 0.59358 0.76630 0.17766
 C4113 C 0.63006 0.75579 0.19960
 C4114 C 0.64217 0.76324 0.19169
 C4115 C 0.65700 0.76379 0.19807
 C4116 C 0.65991 0.75696 0.21242
 C4117 C 0.64791 0.74967 0.22043
 C4118 C 0.63308 0.74908 0.21408
 C4119 C 0.67529 0.75700 0.21874
 C4120 C 0.68813 0.75671 0.22409
 H4121 H 0.58495 0.72910 0.18728
 H4122 H 0.61046 0.73097 0.19946
 H4123 H 0.61435 0.77826 0.18383
 H4124 H 0.58895 0.77615 0.17145
 H4125 H 0.64027 0.76833 0.18043
 H4126 H 0.66623 0.76939 0.19172
 H4127 H 0.65004 0.74434 0.23156
 H4128 H 0.62396 0.74344 0.22053
 C4129 C 0.05889 0.25036 0.66265
 C4130 C 0.07091 0.25130 0.66961
 C4131 C 0.08548 0.25251 0.67752
 C4132 C 0.09133 0.23987 0.68574
 C4133 C 0.10578 0.24085 0.69288
 C4134 C 0.11460 0.25449 0.69185
 C4135 C 0.10854 0.26718 0.68368
 C4136 C 0.09408 0.26618 0.67657
 C4137 C 0.13018 0.25535 0.69898
 C4138 C 0.14248 0.26254 0.69113
 C4139 C 0.15725 0.26295 0.69765
 C4140 C 0.15992 0.25622 0.71210
 C4141 C 0.14774 0.24918 0.72006
 C4142 C 0.13296 0.24874 0.71356
 C4143 C 0.17523 0.25613 0.71857
 C4144 C 0.18804 0.25574 0.72402
 H4145 H 0.08481 0.22921 0.68647
 H4146 H 0.11021 0.23082 0.69889
 H4147 H 0.11496 0.27789 0.68284
 H4148 H 0.08966 0.27603 0.67023
 H4149 H 0.14076 0.26755 0.67980
 H4150 H 0.16661 0.26836 0.69135
 H4151 H 0.14968 0.24393 0.73126
 H4152 H 0.12370 0.24329 0.71997
 C4153 C 0.94062 0.24831 0.66161
 C4154 C 0.92842 0.24802 0.66832
 C4155 C 0.91370 0.24736 0.67603
 C4156 C 0.90547 0.26096 0.67904
 C4157 C 0.89093 0.26024 0.68605
 C4158 C 0.88441 0.24589 0.69009
 C4159 C 0.89283 0.23230 0.68711
 C4160 C 0.90737 0.23305 0.68012
 C4161 C 0.86881 0.24510 0.69722
 C4162 C 0.85823 0.23358 0.69272
 C4163 C 0.84345 0.23303 0.69922
 C4164 C 0.83906 0.24395 0.71031
 C4165 C 0.84953 0.25538 0.71493
 C4166 C 0.86430 0.25596 0.70844
 C4167 C 0.82373 0.24368 0.71676
 C4168 C 0.81092 0.24382 0.72221
 H4169 H 0.91022 0.27209 0.67584
 H4170 H 0.88465 0.27089 0.68800
 H4171 H 0.88822 0.22110 0.69026
 H4172 H 0.91364 0.22245 0.67783
 H4173 H 0.86128 0.22518 0.68397
 H4174 H 0.83541 0.22418 0.69551
 H4175 H 0.84625 0.26389 0.72352
 H4176 H 0.87224 0.26484 0.71229
 C4177 C 0.43912 0.74843 0.16154
 C4178 C 0.42676 0.74833 0.16795
 C4179 C 0.41182 0.74793 0.17525
 C4180 C 0.40238 0.76106 0.17513
 C4181 C 0.38761 0.76047 0.18164
 C4182 C 0.38207 0.74672 0.18835
 C4183 C 0.39172 0.73363 0.18854
 C4184 C 0.40649 0.73424 0.18202
 C4185 C 0.36625 0.74599 0.19495
 C4186 C 0.36341 0.73803 0.20884
 C4187 C 0.34851 0.73748 0.21508
 C4188 C 0.33626 0.74482 0.20751
 C4189 C 0.33895 0.75268 0.19364
 C4190 C 0.35383 0.75327 0.18739
 C4191 C 0.32102 0.74470 0.21416
 C4192 C 0.30828 0.74496 0.21976
 H4193 H 0.40639 0.77171 0.16991
 H4194 H 0.38055 0.77080 0.18150
 H4195 H 0.38773 0.72283 0.19345
 H4196 H 0.41366 0.72398 0.18209
 H4197 H 0.37275 0.73247 0.21502
 H4198 H 0.34658 0.73144 0.22587
 H4199 H 0.32955 0.75841 0.18769
 H4200 H 0.35559 0.75929 0.17657
 C4201 C 0.44270 0.25107 0.33741
 C4202 C 0.43051 0.25098 0.33069
 C4203 C 0.41579 0.25119 0.32298
 C4204 C 0.41069 0.26469 0.31569
 C4205 C 0.39612 0.26516 0.30876
 C4206 C 0.38643 0.25209 0.30905
 C4207 C 0.39173 0.23852 0.31627
 C4208 C 0.40631 0.23809 0.32320
 C4209 C 0.37078 0.25269 0.30205
 C4210 C 0.36498 0.24002 0.29367
 C4211 C 0.35015 0.24050 0.28730
 C4212 C 0.34091 0.25364 0.28923
 C4213 C 0.34659 0.26634 0.29749
 C4214 C 0.36142 0.26588 0.30386
 C4215 C 0.32557 0.25398 0.28286
 C4216 C 0.31271 0.25404 0.27752
 H4217 H 0.41794 0.27491 0.31546
 H4218 H 0.39245 0.27571 0.30312
 H4219 H 0.38447 0.22834 0.31686
 H4220 H 0.41010 0.22760 0.32890
 H4221 H 0.37197 0.22978 0.29192
 H4222 H 0.34589 0.23062 0.28090
 H4223 H 0.33951 0.27654 0.29910
 H4224 H 0.36547 0.27574 0.31042
 C4225 C 0.94126 0.75206 0.83984
 C4226 C 0.92898 0.75231 0.83328
 C4227 C 0.91418 0.75291 0.82576
 C4228 C 0.90727 0.73935 0.82025
 C4229 C 0.89269 0.73993 0.81334
 C4230 C 0.88480 0.75409 0.81186
 C4231 C 0.89190 0.76766 0.81736
 C4232 C 0.90648 0.76705 0.82425
 C4233 C 0.86920 0.75468 0.80477
 C4234 C 0.85758 0.76414 0.81112
 C4235 C 0.84281 0.76449 0.80458
 C4236 C 0.83947 0.75543 0.79161
 C4237 C 0.85097 0.74606 0.78516
 C4238 C 0.86573 0.74568 0.79169
 C4239 C 0.82420 0.75546 0.78506
 C4240 C 0.81145 0.75515 0.77949
 H4241 H 0.91309 0.72833 0.82143
 H4242 H 0.88745 0.72926 0.80941
 H4243 H 0.88622 0.77875 0.81621
 H4244 H 0.91173 0.77762 0.82847
 H4245 H 0.85982 0.77104 0.82130
 H4246 H 0.83398 0.77172 0.80971
 H4247 H 0.84851 0.73901 0.77512
 H4248 H 0.87447 0.73844 0.78642
   
