data_POSCAR
  _audit_creation_date              2014-09-24
  _audit_creation_method            'ToBaCCo'
  _symmetry_space_group_name_H-M    'P1'
  _symmetry_Int_Tables_number       1
  _symmetry_cell_setting            triclinic
  loop_
  _symmetry_equiv_pos_as_xyz
 x,y,z
_cell_length_a 47.5473
_cell_length_b 49.5852
_cell_length_c 48.3369
_cell_angle_alpha 89.820400
_cell_angle_beta 89.734900
_cell_angle_gamma 89.928500
loop_
  _atom_site_label
  _atom_site_type_symbol
  _atom_site_fract_x
  _atom_site_fract_y
  _atom_site_fract_z
C1 C 0.24791 1.07338 -0.00010
 C2 C 0.25201 1.06068 0.02579
 C3 C 0.25597 1.03247 0.02613
 C4 C 0.25398 1.01685 0.00188
 C5 C 0.24863 1.03037 -0.02331
 C6 C 0.24703 1.05871 -0.02504
 C7 C 0.25805 0.98663 0.00269
 C8 C 0.26488 0.97216 -0.02163
 C9 C 0.26761 0.94400 -0.02136
 C10 C 0.26617 0.93026 0.00393
 C11 C 0.25971 0.94379 0.02855
 C12 C 0.25494 0.97181 0.02764
 H13 H 0.24554 1.09494 -0.00086
 H14 H 0.26206 1.02292 0.04526
 H15 H 0.24455 1.01886 -0.04173
 H16 H 0.26765 0.98241 -0.04116
 H17 H 0.27023 0.90877 0.00432
 H18 H 0.24825 0.98165 0.04645
 C19 C 0.74050 0.57147 0.49963
 C20 C 0.74356 0.55673 0.52421
 C21 C 0.74768 0.52880 0.52275
 C22 C 0.74652 0.51485 0.49727
 C23 C 0.74181 0.53020 0.47303
 C24 C 0.74000 0.55852 0.47382
 C25 C 0.75094 0.48471 0.49613
 C26 C 0.75779 0.47132 0.47113
 C27 C 0.76225 0.44326 0.47049
 C28 C 0.76223 0.42879 0.49548
 C29 C 0.75563 0.44144 0.52052
 C30 C 0.74876 0.46892 0.52040
 H31 H 0.73872 0.59319 0.50073
 H32 H 0.75251 0.51847 0.54181
 H33 H 0.73931 0.52046 0.45329
 H34 H 0.75939 0.48228 0.45190
 H35 H 0.76767 0.40757 0.49541
 H36 H 0.74142 0.47757 0.53956
 C37 C 0.76749 1.00186 1.06884
 C38 C 0.77062 0.97771 1.05409
 C39 C 0.77618 0.97934 1.02560
 C40 C 0.77943 1.00443 1.01197
 C41 C 0.77726 1.02834 1.02790
 C42 C 0.76941 1.02729 1.05605
 C43 C 0.78171 1.00539 0.98088
 C44 C 0.77181 1.02806 0.96596
 C45 C 0.77033 1.02773 0.93701
 C46 C 0.77818 1.00440 0.92273
 C47 C 0.78705 0.98127 0.93687
 C48 C 0.79044 0.98242 0.96566
 H49 H 0.76498 1.00102 1.09109
 H50 H 0.77565 0.96088 1.01388
 H51 H 0.77972 1.04779 1.01811
 H52 H 0.76352 1.04553 0.97653
 H53 H 0.77640 1.00389 0.90039
 H54 H 0.79839 0.96467 0.97602
 C55 C 0.26183 0.50422 0.58240
 C56 C 0.27235 0.48145 0.56881
 C57 C 0.27399 0.48154 0.53982
 C58 C 0.26380 0.50363 0.52410
 C59 C 0.25311 0.52625 0.53854
 C60 C 0.25242 0.52670 0.56754
 C61 C 0.26302 0.50243 0.49299
 C62 C 0.26054 0.52616 0.47669
 C63 C 0.25711 0.52458 0.44791
 C64 C 0.25870 0.49944 0.43502
 C65 C 0.26125 0.47566 0.45041
 C66 C 0.26298 0.47722 0.47928
 H67 H 0.26050 0.50433 0.60479
 H68 H 0.28337 0.46423 0.52987
 H69 H 0.24418 0.54326 0.52766
 H70 H 0.26037 0.54591 0.48605
 H71 H 0.25731 0.49841 0.41267
 H72 H 0.26302 0.45851 0.49078
 C73 C 1.07499 0.18803 -0.01706
 C74 C 1.06383 0.19432 0.00913
 C75 C 1.03428 0.19567 0.01188
 C76 C 1.01629 0.18899 -0.01034
 C77 C 1.02856 0.18218 -0.03607
 C78 C 1.05775 0.18220 -0.03951
 C79 C 0.98493 0.18866 -0.00653
 C80 C 0.96674 0.19280 -0.02926
 C81 C 0.93724 0.19066 -0.02636
 C82 C 0.92627 0.18629 0.00037
 C83 C 0.94372 0.18302 0.02328
 C84 C 0.97289 0.18367 0.01976
 H85 H 1.09741 0.18929 -0.02086
 H86 H 1.02521 0.20112 0.03156
 H87 H 1.01580 0.17644 -0.05353
 H88 H 0.97564 0.19681 -0.04939
 H89 H 0.90381 0.18700 0.00405
 H90 H 0.98586 0.17977 0.03764
 C91 C 0.56281 0.68626 0.50784
 C92 C 0.54705 0.68339 0.53207
 C93 C 0.51761 0.68289 0.53073
 C94 C 0.50360 0.68642 0.50515
 C95 C 0.52027 0.69093 0.48121
 C96 C 0.54969 0.68993 0.48236
 C97 C 0.47201 0.68531 0.50320
 C98 C 0.45883 0.68023 0.47758
 C99 C 0.42951 0.67991 0.47520
 C100 C 0.41292 0.68312 0.49891
 C101 C 0.42519 0.68700 0.52491
 C102 C 0.45463 0.68892 0.52676
 H103 H 0.58558 0.68687 0.50902
 H104 H 0.50618 0.67940 0.54975
 H105 H 0.51079 0.69519 0.46142
 H106 H 0.47097 0.67600 0.45917
 H107 H 0.39022 0.68321 0.49696
 H108 H 0.46366 0.69298 0.54674
 C109 C -0.01634 0.74062 -0.06580
 C110 C 0.00904 0.73588 -0.05207
 C111 C 0.00930 0.73589 -0.02313
 C112 C -0.01481 0.74309 -0.00764
 C113 C -0.03971 0.74949 -0.02226
 C114 C -0.04107 0.74779 -0.05143
 C115 C -0.01363 0.74426 0.02353
 C116 C -0.03823 0.74230 0.03988
 C117 C -0.03733 0.74384 0.06910
 C118 C -0.01067 0.74465 0.08184
 C119 C 0.01418 0.74571 0.06613
 C120 C 0.01231 0.74705 0.03724
 H121 H -0.01664 0.73769 -0.08795
 H122 H 0.02870 0.73068 -0.01296
 H123 H -0.05770 0.75719 -0.01114
 H124 H -0.05825 0.74058 0.02976
 H125 H -0.00900 0.74296 0.10408
 H126 H 0.03149 0.75038 0.02572
 C127 C 0.49216 0.24426 0.41519
 C128 C 0.51819 0.23852 0.42744
 C129 C 0.52004 0.23768 0.45641
 C130 C 0.49675 0.24403 0.47333
 C131 C 0.47118 0.25097 0.46037
 C132 C 0.46845 0.25036 0.43144
 C133 C 0.49909 0.24295 0.50428
 C134 C 0.47512 0.23815 0.52093
 C135 C 0.47711 0.23687 0.54987
 C136 C 0.50361 0.23865 0.56217
 C137 C 0.52780 0.24366 0.54633
 C138 C 0.52531 0.24634 0.51752
 H139 H 0.49028 0.24340 0.39289
 H140 H 0.53990 0.23222 0.46561
 H141 H 0.45325 0.25727 0.47257
 H142 H 0.45473 0.23553 0.51159
 H143 H 0.50542 0.23579 0.58431
 H144 H 0.54390 0.25151 0.50571
 C145 C 1.09290 -0.00179 0.24677
 C146 C 1.08150 0.02442 0.24547
 C147 C 1.05189 0.02706 0.24823
 C148 C 1.03408 0.00407 0.24893
 C149 C 1.04670 -0.02157 0.24663
 C150 C 1.07584 -0.02471 0.24695
 C151 C 1.00252 0.00619 0.25165
 C152 C 0.98647 -0.01623 0.26067
 C153 C 0.95678 -0.01590 0.26116
 C154 C 0.94339 0.00895 0.25584
 C155 C 0.95878 0.03208 0.24852
 C156 C 0.98807 0.03022 0.24534
 H157 H 1.11537 -0.00458 0.24864
 H158 H 1.04272 0.04689 0.24887
 H159 H 1.03407 -0.03951 0.24440
 H160 H 0.99710 -0.03386 0.26848
 H161 H 0.92080 0.01057 0.25668
 H162 H 0.99922 0.04769 0.23771
 C163 C 0.57689 0.50145 0.74729
 C164 C 0.56307 0.52574 0.74158
 C165 C 0.53367 0.52712 0.74410
 C166 C 0.51798 0.50449 0.75306
 C167 C 0.53274 0.48043 0.75930
 C168 C 0.56194 0.47848 0.75550
 C169 C 0.48645 0.50554 0.75560
 C170 C 0.47053 0.48160 0.75418
 C171 C 0.44141 0.48159 0.75871
 C172 C 0.42751 0.50623 0.76246
 C173 C 0.44234 0.53070 0.76188
 C174 C 0.47187 0.53013 0.75944
 H175 H 0.59961 0.50059 0.74577
 H176 H 0.52333 0.54574 0.73842
 H177 H 0.52170 0.46287 0.76682
 H178 H 0.48051 0.46265 0.74915
 H179 H 0.40504 0.50639 0.76624
 H180 H 0.48322 0.54896 0.76029
 C181 C 1.01056 1.07631 0.76511
 C182 C 0.98502 1.06692 0.77625
 C183 C 0.98169 1.03890 0.77974
 C184 C 1.00290 1.02053 0.77153
 C185 C 1.02806 1.03070 0.76017
 C186 C 1.03176 1.05848 0.75689
 C187 C 0.99794 0.99086 0.77344
 C188 C 1.02028 0.97244 0.77759
 C189 C 1.01537 0.94431 0.77887
 C190 C 0.98741 0.93524 0.77587
 C191 C 0.96519 0.95327 0.77182
 C192 C 0.97050 0.98083 0.77042
 H193 H 1.01372 1.09762 0.76118
 H194 H 0.96282 1.03142 0.78970
 H195 H 1.04437 1.01720 0.75284
 H196 H 1.04121 0.98017 0.78106
 H197 H 0.98259 0.91392 0.77541
 H198 H 0.95312 0.99424 0.76593
 C199 C 0.51097 0.57133 0.26825
 C200 C 0.48594 0.55764 0.27404
 C201 C 0.48586 0.52941 0.27419
 C202 C 0.51040 0.51453 0.26768
 C203 C 0.53540 0.52902 0.26164
 C204 C 0.53604 0.55734 0.26296
 C205 C 0.51007 0.48418 0.26857
 C206 C 0.53507 0.46934 0.27325
 C207 C 0.53458 0.44114 0.27540
 C208 C 0.50889 0.42759 0.27361
 C209 C 0.48365 0.44163 0.26992
 C210 C 0.48448 0.46971 0.26623
 H211 H 0.51091 0.59318 0.26788
 H212 H 0.46666 0.51943 0.28041
 H213 H 0.55463 0.51854 0.25649
 H214 H 0.55494 0.47941 0.27631
 H215 H 0.50852 0.40577 0.27514
 H216 H 0.46492 0.48006 0.26224
 O217 O 0.24622 0.20627 0.19160
 O218 O 0.28099 0.20126 0.22829
 O219 O 0.17284 0.23171 0.24025
 O220 O 0.16351 0.26376 0.26955
 O221 O 0.19642 0.27103 0.16461
 O222 O 0.22960 0.30645 0.15397
 O223 O 0.24546 0.31173 0.30395
 O224 O 0.21800 0.27252 0.31396
 O225 O 0.31744 0.28193 0.26216
 O226 O 0.32514 0.25325 0.22524
 O227 O 0.27292 0.34864 0.23290
 O228 O 0.23334 0.35084 0.20028
 O229 O 0.23774 0.34406 0.27124
 O230 O 0.19960 0.34594 0.23650
 O231 O 0.30936 0.31899 0.22907
 O232 O 0.31753 0.28229 0.19250
 O233 O 0.28800 0.27911 0.29921
 O234 O 0.25355 0.24478 0.31148
 O235 O 0.24146 0.23998 0.15998
 O236 O 0.26436 0.28142 0.14989
 O237 O 0.16560 0.26782 0.20065
 O238 O 0.16189 0.30160 0.23895
 O239 O 0.20898 0.20201 0.23421
 O240 O 0.24939 0.19810 0.26256
 Zr241 Zr 0.24508 0.22670 0.23017
 O242 O 0.27155 0.25194 0.25363
 Zr243 Zr 0.19162 0.26975 0.23593
 O244 O 0.21589 0.29630 0.26001
 Zr245 Zr 0.23599 0.27514 0.18309
 O246 O 0.26168 0.30226 0.20457
 Zr247 Zr 0.24761 0.27536 0.28130
 O248 O 0.22125 0.24819 0.25966
 Zr249 Zr 0.29102 0.28047 0.22783
 O250 O 0.26743 0.25318 0.20380
 Zr251 Zr 0.23738 0.32319 0.23369
 O252 O 0.21083 0.29829 0.20974
 O253 O 0.21487 0.24726 0.20768
 O254 O 0.26829 0.30313 0.25635
 C255 C 0.24560 0.21521 0.16654
 C256 C 0.18286 0.20764 0.23886
 C257 C 0.17155 0.26809 0.17467
 C258 C 0.24066 0.33624 0.29641
 C259 C 0.31264 0.28149 0.28828
 C260 C 0.29926 0.34292 0.23141
 H261 H 0.28582 0.24079 0.26313
 H262 H 0.27074 0.31491 0.19142
 H263 H 0.20345 0.23441 0.19687
 H264 H 0.20328 0.30605 0.27288
 H265 H 0.20407 0.25875 0.30841
 H266 H 0.16770 0.27761 0.28361
 H267 H 0.31407 0.29962 0.18291
 H268 H 0.28178 0.27152 0.15463
 H269 H 0.26804 0.23219 0.30448
 H270 H 0.23704 0.20404 0.27792
 H271 H 0.23647 0.36936 0.20727
 H272 H 0.21534 0.31872 0.16205
 H273 H 0.27494 0.18278 0.22316
 H274 H 0.31756 0.23650 0.21710
 H275 H 0.14288 0.29405 0.23575
 H276 H 0.20431 0.36470 0.24174
 O277 O 0.73576 0.84612 0.23116
 O278 O 0.69987 0.85182 0.26614
 O279 O 0.80776 0.82194 0.27995
 O280 O 0.81398 0.79076 0.31265
 O281 O 0.78817 0.77872 0.20590
 O282 O 0.75336 0.74707 0.19330
 O283 O 0.73068 0.74217 0.34324
 O284 O 0.75911 0.78085 0.35387
 O285 O 0.66134 0.77227 0.29888
 O286 O 0.65628 0.80086 0.26096
 O287 O 0.70687 0.70472 0.27242
 O288 O 0.74850 0.70151 0.24161
 O289 O 0.73801 0.70877 0.31185
 O290 O 0.78038 0.70729 0.27923
 O291 O 0.67088 0.73472 0.26738
 O292 O 0.66503 0.77047 0.22905
 O293 O 0.69036 0.77150 0.33623
 O294 O 0.71857 0.80788 0.34907
 O295 O 0.74487 0.81396 0.19886
 O296 O 0.71925 0.77304 0.18896
 O297 O 0.81633 0.78367 0.24347
 O298 O 0.81878 0.75235 0.28293
 O299 O 0.77121 0.85101 0.27331
 O300 O 0.72886 0.85486 0.30133
 Zr301 Zr 0.73557 0.82620 0.26943
 O302 O 0.70802 0.80127 0.29196
 Zr303 Zr 0.78866 0.78356 0.27749
 O304 O 0.76336 0.75666 0.30074
 Zr305 Zr 0.74705 0.77810 0.22256
 O306 O 0.72020 0.75096 0.24354
 Zr307 Zr 0.73090 0.77803 0.32027
 O308 O 0.75825 0.80539 0.30001
 Zr309 Zr 0.68965 0.77301 0.26541
 O310 O 0.71463 0.80006 0.24211
 Zr311 Zr 0.74278 0.72982 0.27399
 O312 O 0.77041 0.75491 0.25086
 O313 O 0.76694 0.80574 0.24796
 O314 O 0.71122 0.75056 0.29479
 C315 C 0.73916 0.83834 0.20607
 C316 C 0.79731 0.84589 0.27801
 C317 C 0.81246 0.78091 0.21734
 C318 C 0.73293 0.71721 0.33656
 C319 C 0.66602 0.76996 0.32490
 C320 C 0.68058 0.71075 0.27084
 H321 H 0.69364 0.81244 0.30140
 H322 H 0.71171 0.73824 0.23026
 H323 H 0.77924 0.81798 0.23714
 H324 H 0.77502 0.74677 0.31433
 H325 H 0.77133 0.79660 0.35009
 H326 H 0.80916 0.77688 0.32662
 H327 H 0.66869 0.75280 0.22030
 H328 H 0.70253 0.78430 0.19299
 H329 H 0.73085 0.82363 0.34590
 H330 H 0.74463 0.85341 0.31456
 H331 H 0.74516 0.68319 0.24921
 H332 H 0.76452 0.73294 0.20273
 H333 H 0.70608 0.87029 0.26097
 H334 H 0.66431 0.81686 0.25155
 H335 H 0.83783 0.76036 0.28134
 H336 H 0.77531 0.68898 0.28580
 O337 O 0.74693 0.18873 0.80170
 O338 O 0.70907 0.17989 0.76967
 O339 O 0.81816 0.19963 0.74890
 O340 O 0.82663 0.22342 0.71032
 O341 O 0.80294 0.25353 0.81346
 O342 O 0.77237 0.29162 0.81976
 O343 O 0.74532 0.27128 0.67204
 O344 O 0.77003 0.23004 0.66765
 O345 O 0.67674 0.25849 0.72193
 O346 O 0.66870 0.23545 0.76378
 O347 O 0.72776 0.32244 0.73523
 O348 O 0.77050 0.32808 0.76327
 O349 O 0.75674 0.30886 0.69636
 O350 O 0.80013 0.31290 0.72661
 O351 O 0.68963 0.29875 0.75029
 O352 O 0.68084 0.26805 0.79116
 O353 O 0.70305 0.24497 0.68513
 O354 O 0.73402 0.20445 0.67964
 O355 O 0.75882 0.22555 0.82705
 O356 O 0.73546 0.26953 0.82953
 O357 O 0.83082 0.24188 0.77690
 O358 O 0.83430 0.26656 0.73225
 O359 O 0.78000 0.17403 0.76064
 O360 O 0.73711 0.16929 0.73368
 Zr361 Zr 0.74619 0.20196 0.76038
 O362 O 0.71978 0.22477 0.73439
 Zr363 Zr 0.80235 0.23875 0.74363
 O364 O 0.77854 0.26217 0.71577
 Zr365 Zr 0.76224 0.25656 0.79715
 O366 O 0.73767 0.28174 0.77184
 Zr367 Zr 0.74380 0.24024 0.70148
 O368 O 0.76986 0.21551 0.72624
 Zr369 Zr 0.70473 0.25899 0.75526
 O370 O 0.72778 0.23411 0.78269
 Zr371 Zr 0.76113 0.29482 0.73738
 O372 O 0.78703 0.27268 0.76487
 O373 O 0.77929 0.22372 0.77679
 O374 O 0.72717 0.27363 0.72150
 C375 C 0.75251 0.20042 0.82473
 C376 C 0.80656 0.17720 0.75604
 C377 C 0.82675 0.24707 0.80265
 C378 C 0.75023 0.29668 0.67380
 C379 C 0.67980 0.25285 0.69617
 C380 C 0.70154 0.32042 0.74140
 H381 H 0.70393 0.21350 0.72804
 H382 H 0.73088 0.29729 0.78278
 H383 H 0.79073 0.21254 0.78944
 H384 H 0.79054 0.26844 0.70027
 H385 H 0.78386 0.21677 0.67467
 H386 H 0.82341 0.23533 0.69418
 H387 H 0.68850 0.28479 0.79925
 H388 H 0.71875 0.25764 0.82922
 H389 H 0.71677 0.19661 0.68782
 H390 H 0.75083 0.16997 0.71823
 H391 H 0.76832 0.34490 0.75234
 H392 H 0.78525 0.30228 0.80789
 H393 H 0.71447 0.16195 0.77716
 H394 H 0.67540 0.21944 0.77411
 H395 H 0.85279 0.25770 0.73503
 H396 H 0.79631 0.33005 0.71672
 O397 O 0.24776 0.81555 0.80031
 O398 O 0.28675 0.82188 0.76764
 O399 O 0.17737 0.80313 0.74752
 O400 O 0.16943 0.77799 0.71002
 O401 O 0.19074 0.74930 0.81452
 O402 O 0.22283 0.71294 0.82287
 O403 O 0.24899 0.72642 0.67418
 O404 O 0.22463 0.76844 0.66832
 O405 O 0.31897 0.74281 0.72308
 O406 O 0.32617 0.76718 0.76368
 O407 O 0.26696 0.67881 0.74044
 O408 O 0.22455 0.67464 0.76921
 O409 O 0.23686 0.69071 0.70138
 O410 O 0.19425 0.68838 0.73282
 O411 O 0.30531 0.70320 0.75307
 O412 O 0.31402 0.73526 0.79262
 O413 O 0.29148 0.75213 0.68579
 O414 O 0.26236 0.79307 0.67749
 O415 O 0.23528 0.77929 0.82658
 O416 O 0.25825 0.73621 0.83198
 O417 O 0.16441 0.76160 0.77738
 O418 O 0.16035 0.73613 0.73408
 O419 O 0.21585 0.82880 0.75739
 O420 O 0.25896 0.83227 0.73166
 Zr421 Zr 0.24912 0.80043 0.75939
 O422 O 0.27515 0.77630 0.73394
 Zr423 Zr 0.19292 0.76361 0.74419
 O424 O 0.21639 0.73829 0.71787
 Zr425 Zr 0.23212 0.74732 0.79854
 O426 O 0.25717 0.72128 0.77464
 Zr427 Zr 0.25119 0.75913 0.70201
 O428 O 0.22581 0.78560 0.72573
 Zr429 Zr 0.29031 0.74312 0.75646
 O430 O 0.26702 0.76891 0.78298
 Zr431 Zr 0.23361 0.70668 0.74135
 O432 O 0.20750 0.73033 0.76715
 O433 O 0.21551 0.77966 0.77682
 O434 O 0.26770 0.72678 0.72386
 C435 C 0.24180 0.80427 0.82365
 C436 C 0.18931 0.82580 0.75292
 C437 C 0.16720 0.75549 0.80306
 C438 C 0.24323 0.70128 0.67789
 C439 C 0.31502 0.74581 0.69697
 C440 C 0.29330 0.68105 0.74595
 H441 H 0.29104 0.78718 0.72682
 H442 H 0.26392 0.70623 0.78634
 H443 H 0.20379 0.79125 0.78887
 H444 H 0.20425 0.73137 0.70291
 H445 H 0.21215 0.78327 0.67449
 H446 H 0.17242 0.76523 0.69458
 H447 H 0.30621 0.71893 0.80156
 H448 H 0.27557 0.74717 0.83027
 H449 H 0.27934 0.80137 0.68552
 H450 H 0.24716 0.82981 0.71504
 H451 H 0.22643 0.65733 0.75914
 H452 H 0.20985 0.70175 0.81183
 H453 H 0.28179 0.84001 0.77485
 H454 H 0.31958 0.78292 0.77444
 H455 H 0.14206 0.74555 0.73624
 H456 H 0.19768 0.67072 0.72387
 O457 O 0.24348 0.31533 0.69738
 O458 O 0.20004 0.31856 0.72421
 O459 O 0.30815 0.30740 0.75481
 O460 O 0.31545 0.28293 0.79257
 O461 O 0.30293 0.25088 0.68788
 O462 O 0.27410 0.21439 0.67662
 O463 O 0.23590 0.22759 0.82375
 O464 O 0.25721 0.27090 0.83036
 O465 O 0.16962 0.23815 0.76925
 O466 O 0.16325 0.26067 0.72811
 O467 O 0.22751 0.17726 0.75790
 O468 O 0.27284 0.17592 0.73302
 O469 O 0.25123 0.19142 0.79914
 O470 O 0.29782 0.19211 0.77225
 O471 O 0.18891 0.19919 0.74141
 O472 O 0.18107 0.23076 0.70024
 O473 O 0.19314 0.24966 0.80843
 O474 O 0.21450 0.29144 0.81668
 O475 O 0.25861 0.27979 0.67154
 O476 O 0.23712 0.23469 0.66621
 O477 O 0.32631 0.26539 0.72602
 O478 O 0.32843 0.24143 0.77096
 O479 O 0.26883 0.32974 0.74065
 O480 O 0.22188 0.33062 0.76343
 Zr481 Zr 0.23779 0.29972 0.73742
 O482 O 0.21156 0.27438 0.76115
 Zr483 Zr 0.29520 0.26679 0.75737
 O484 O 0.27141 0.24050 0.78272
 Zr485 Zr 0.26087 0.24771 0.70055
 O486 O 0.23661 0.22004 0.72347
 Zr487 Zr 0.23398 0.25934 0.79510
 O488 O 0.25952 0.28711 0.77303
 Zr489 Zr 0.20071 0.24003 0.73829
 O490 O 0.22368 0.26728 0.71305
 Zr491 Zr 0.25837 0.20743 0.75908
 O492 O 0.28422 0.23248 0.73418
 O493 O 0.27398 0.28090 0.72292
 O494 O 0.22166 0.22572 0.77298
 C495 C 0.25191 0.30479 0.67458
 C496 C 0.29488 0.32902 0.74772
 C497 C 0.32540 0.25808 0.70049
 C498 C 0.24213 0.20246 0.82156
 C499 C 0.17115 0.24168 0.79549
 C500 C 0.20173 0.17796 0.75016
 H501 H 0.19459 0.28441 0.76716
 H502 H 0.23195 0.20445 0.71163
 H503 H 0.28622 0.29282 0.71171
 H504 H 0.28258 0.23459 0.79886
 H505 H 0.26800 0.28718 0.82505
 H506 H 0.31069 0.27113 0.80845
 H507 H 0.18992 0.21420 0.69286
 H508 H 0.22028 0.24641 0.66527
 H509 H 0.22560 0.30783 0.81272
 H510 H 0.23639 0.33473 0.77740
 H511 H 0.27135 0.15864 0.74331
 H512 H 0.28468 0.20245 0.68929
 H513 H 0.20442 0.33711 0.71772
 H514 H 0.16913 0.27780 0.71931
 H515 H 0.34634 0.25153 0.76915
 H516 H 0.29463 0.17454 0.78156
 O517 O 0.74194 0.69321 0.70142
 O518 O 0.77529 0.68692 0.73924
 O519 O 0.66989 0.72478 0.75084
 O520 O 0.66446 0.75829 0.78014
 O521 O 0.69330 0.75853 0.67368
 O522 O 0.72820 0.79334 0.66145
 O523 O 0.75058 0.80272 0.80944
 O524 O 0.71912 0.76577 0.82138
 O525 O 0.81800 0.76763 0.76788
 O526 O 0.82270 0.73519 0.73326
 O527 O 0.77842 0.83413 0.73564
 O528 O 0.73738 0.83794 0.70453
 O529 O 0.74463 0.83411 0.77542
 O530 O 0.70519 0.83728 0.74242
 O531 O 0.81175 0.80173 0.72901
 O532 O 0.81692 0.76164 0.69834
 O533 O 0.78923 0.76678 0.80550
 O534 O 0.75391 0.73628 0.82030
 O535 O 0.73790 0.72605 0.66870
 O536 O 0.76014 0.76594 0.65554
 O537 O 0.66385 0.76005 0.71095
 O538 O 0.66368 0.79506 0.74753
 O539 O 0.70357 0.69267 0.74359
 O540 O 0.74307 0.68683 0.77266
 Zr541 Zr 0.74133 0.71478 0.73943
 O542 O 0.76999 0.73907 0.76141
 Zr543 Zr 0.69124 0.76141 0.74510
 O544 O 0.71801 0.78751 0.76714
 Zr545 Zr 0.73384 0.76198 0.69069
 O546 O 0.76241 0.78769 0.71032
 Zr547 Zr 0.74860 0.76530 0.78848
 O548 O 0.72000 0.73883 0.76875
 Zr549 Zr 0.79084 0.76494 0.73386
 O550 O 0.76452 0.73881 0.71139
 Zr551 Zr 0.74083 0.81162 0.73909
 O552 O 0.71151 0.78769 0.71723
 O553 O 0.71189 0.73642 0.71700
 O554 O 0.77084 0.79044 0.76183
 C555 C 0.74185 0.70150 0.67611
 C556 C 0.67807 0.70012 0.74873
 C557 C 0.66871 0.75818 0.68487
 C558 C 0.74794 0.82720 0.80080
 C559 C 0.81369 0.76791 0.79415
 C560 C 0.80380 0.82640 0.73072
 H561 H 0.78366 0.72747 0.77122
 H562 H 0.77187 0.79894 0.69614
 H563 H 0.69960 0.72389 0.70673
 H564 H 0.70667 0.79873 0.77988
 H565 H 0.70509 0.75157 0.81739
 H566 H 0.66947 0.77303 0.79296
 H567 H 0.81277 0.77708 0.68600
 H568 H 0.77801 0.75679 0.66018
 H569 H 0.76341 0.72046 0.81211
 H570 H 0.73077 0.69383 0.78760
 H571 H 0.74255 0.85641 0.71041
 H572 H 0.71334 0.80536 0.66886
 H573 H 0.76810 0.66880 0.73422
 H574 H 0.81388 0.71862 0.72600
 H575 H 0.64408 0.78841 0.74608
 H576 H 0.71165 0.85587 0.74641
 O577 O 0.25199 0.68036 0.29973
 O578 O 0.21057 0.67584 0.27026
 O579 O 0.31949 0.68637 0.24171
 O580 O 0.32731 0.71023 0.20305
 O581 O 0.31396 0.74009 0.30817
 O582 O 0.28752 0.78055 0.31703
 O583 O 0.24742 0.76652 0.17184
 O584 O 0.26859 0.72328 0.16449
 O585 O 0.18185 0.75624 0.22653
 O586 O 0.17546 0.73465 0.26882
 O587 O 0.24050 0.81659 0.23637
 O588 O 0.28529 0.81767 0.26198
 O589 O 0.26498 0.80194 0.19600
 O590 O 0.31070 0.80100 0.22272
 O591 O 0.20090 0.79559 0.25186
 O592 O 0.19301 0.76600 0.29483
 O593 O 0.20400 0.74176 0.18753
 O594 O 0.23149 0.70024 0.17813
 O595 O 0.26899 0.71580 0.32436
 O596 O 0.24942 0.76130 0.32903
 O597 O 0.33783 0.72618 0.26973
 O598 O 0.34062 0.75197 0.22535
 O599 O 0.28001 0.66379 0.25577
 O600 O 0.23505 0.66294 0.23255
 Zr601 Zr 0.24901 0.69448 0.25859
 O602 O 0.22309 0.71999 0.23477
 Zr603 Zr 0.30700 0.72672 0.23826
 O604 O 0.28352 0.75272 0.21254
 Zr605 Zr 0.27269 0.74688 0.29474
 O606 O 0.24875 0.77452 0.27170
 Zr607 Zr 0.24578 0.73433 0.20036
 O608 O 0.27114 0.70684 0.22290
 Zr609 Zr 0.21277 0.75488 0.25717
 O610 O 0.23534 0.72761 0.28255
 Zr611 Zr 0.27099 0.78616 0.23599
 O612 O 0.29666 0.76137 0.26111
 O613 O 0.28508 0.71311 0.27276
 O614 O 0.23400 0.76839 0.22219
 C615 C 0.26051 0.69127 0.32234
 C616 C 0.30634 0.66493 0.24933
 C617 C 0.33610 0.73145 0.29574
 C618 C 0.25510 0.79134 0.17384
 C619 C 0.18222 0.75062 0.20063
 C620 C 0.21430 0.81641 0.24284
 H621 H 0.20589 0.71013 0.22947
 H622 H 0.24416 0.79040 0.28321
 H623 H 0.29632 0.70071 0.28433
 H624 H 0.29486 0.75836 0.19632
 H625 H 0.28183 0.70890 0.17020
 H626 H 0.32434 0.72289 0.18747
 H627 H 0.20151 0.78309 0.30115
 H628 H 0.23167 0.75089 0.32959
 H629 H 0.21545 0.69236 0.18842
 H630 H 0.24707 0.66321 0.21577
 H631 H 0.28400 0.83492 0.25163
 H632 H 0.30095 0.79002 0.30469
 H633 H 0.21471 0.65753 0.27756
 H634 H 0.18145 0.71796 0.27841
 H635 H 0.35833 0.74148 0.22680
 H636 H 0.30790 0.81885 0.21386
 O637 O 0.76242 0.31445 0.29088
 O638 O 0.80558 0.31755 0.26177
 O639 O 0.69638 0.30535 0.23327
 O640 O 0.69010 0.28129 0.19457
 O641 O 0.70275 0.24969 0.29949
 O642 O 0.73289 0.21201 0.30927
 O643 O 0.77096 0.22750 0.16300
 O644 O 0.74771 0.27008 0.15623
 O645 O 0.83697 0.24137 0.21721
 O646 O 0.83963 0.26473 0.26408
 O647 O 0.78162 0.17832 0.22894
 O648 O 0.73714 0.17504 0.25502
 O649 O 0.75535 0.19192 0.18862
 O650 O 0.71022 0.19036 0.21657
 O651 O 0.81991 0.20144 0.24392
 O652 O 0.82849 0.23012 0.28428
 O653 O 0.81262 0.25156 0.17809
 O654 O 0.78499 0.29414 0.16894
 O655 O 0.74741 0.27793 0.31542
 O656 O 0.76825 0.23397 0.32145
 O657 O 0.67952 0.26395 0.26105
 O658 O 0.67785 0.23917 0.21707
 O659 O 0.73517 0.32943 0.24606
 O660 O 0.77967 0.33280 0.22501
 Zr661 Zr 0.76689 0.29979 0.24993
 O662 O 0.79373 0.27556 0.22537
 Zr663 Zr 0.71053 0.26538 0.22992
 O664 O 0.73492 0.23981 0.20460
 Zr665 Zr 0.74506 0.24657 0.28650
 O666 O 0.77093 0.22031 0.26375
 Zr667 Zr 0.77149 0.25974 0.19158
 O668 O 0.74553 0.28654 0.21431
 Zr669 Zr 0.80594 0.24152 0.24843
 O670 O 0.78165 0.26724 0.27401
 Zr671 Zr 0.74931 0.20724 0.22853
 O672 O 0.72220 0.23115 0.25304
 O673 O 0.73134 0.27986 0.26442
 O674 O 0.78519 0.22662 0.21399
 C675 C 0.75451 0.30288 0.31353
 C676 C 0.70891 0.32737 0.23992
 C677 C 0.68032 0.25706 0.28669
 C678 C 0.76420 0.20249 0.16590
 C679 C 0.83503 0.24451 0.19092
 C680 C 0.80775 0.17981 0.23547
 H681 H 0.81020 0.28619 0.21927
 H682 H 0.77639 0.20477 0.27543
 H683 H 0.71918 0.29160 0.27589
 H684 H 0.72371 0.23355 0.18867
 H685 H 0.73509 0.28502 0.16179
 H686 H 0.69343 0.26859 0.17915
 H687 H 0.81757 0.21591 0.29387
 H688 H 0.78636 0.24378 0.32072
 H689 H 0.80290 0.30051 0.17691
 H690 H 0.77114 0.33011 0.20659
 H691 H 0.73923 0.15787 0.24475
 H692 H 0.72020 0.20159 0.29717
 H693 H 0.80168 0.33566 0.26958
 H694 H 0.84402 0.27897 0.25036
 H695 H 0.65980 0.24918 0.21808
 H696 H 0.71381 0.17274 0.20758
 C697 C 0.25941 0.10357 0.05071
 C698 C 0.25683 0.11937 0.07457
 C699 C 0.24758 0.10766 0.09964
 C700 C 0.24148 0.08003 0.10036
 C701 C 0.24364 0.06439 0.07633
 C702 C 0.25204 0.07597 0.05078
 C703 C 0.24430 0.12386 0.12335
 C704 C 0.24981 0.15172 0.12203
 C705 C 0.25921 0.16315 0.09675
 C706 C 0.26294 0.14693 0.07340
 C707 C 0.26440 0.19081 0.09495
 C708 C 0.25997 0.20725 0.11779
 C709 C 0.25047 0.19648 0.14313
 C710 C 0.24575 0.16849 0.14527
 H711 H 0.26781 0.11306 0.03226
 H712 H 0.23433 0.07059 0.11938
 H713 H 0.23716 0.04353 0.07775
 H714 H 0.23706 0.11490 0.14260
 H715 H 0.27002 0.15592 0.05410
 H716 H 0.27166 0.19983 0.07576
 H717 H 0.26417 0.22862 0.11554
 H718 H 0.23838 0.15995 0.16466
 C719 C 0.75540 0.59565 0.55510
 C720 C 0.75207 0.61001 0.57985
 C721 C 0.73568 0.59915 0.60167
 C722 C 0.72337 0.57366 0.59841
 C723 C 0.72657 0.55955 0.57352
 C724 C 0.74224 0.57060 0.55146
 C725 C 0.73145 0.61419 0.62603
 C726 C 0.74307 0.64015 0.62855
 C727 C 0.75972 0.65061 0.60663
 C728 C 0.76433 0.63543 0.58269
 C729 C 0.77107 0.67648 0.60857
 C730 C 0.76534 0.69233 0.63155
 C731 C 0.74845 0.68265 0.65336
 C732 C 0.73781 0.65620 0.65215
 H733 H 0.76796 0.60418 0.53847
 H734 H 0.71078 0.56489 0.61486
 H735 H 0.71607 0.54033 0.57121
 H736 H 0.71865 0.60599 0.64266
 H737 H 0.77690 0.64373 0.56592
 H738 H 0.78395 0.68471 0.59203
 H739 H 0.77412 0.71245 0.63220
 H740 H 0.72473 0.64862 0.66886
 C741 C 0.74950 0.95026 0.09096
 C742 C 0.74842 0.92662 0.10671
 C743 C 0.76515 0.90423 0.09932
 C744 C 0.78178 0.90564 0.07531
 C745 C 0.78281 0.92945 0.05959
 C746 C 0.76750 0.95254 0.06782
 C747 C 0.76538 0.88119 0.11642
 C748 C 0.74932 0.88064 0.14095
 C749 C 0.73195 0.90295 0.14757
 C750 C 0.73137 0.92555 0.13029
 C751 C 0.71602 0.90282 0.17191
 C752 C 0.71808 0.88134 0.19028
 C753 C 0.73589 0.85936 0.18464
 C754 C 0.75093 0.85869 0.15949
 H755 H 0.73595 0.96690 0.09684
 H756 H 0.79462 0.88862 0.06910
 H757 H 0.79701 0.93013 0.04204
 H758 H 0.77861 0.86412 0.11110
 H759 H 0.71837 0.94276 0.13577
 H760 H 0.70248 0.91968 0.17711
 H761 H 0.70586 0.88210 0.20922
 H762 H 0.76467 0.84180 0.15497
 C763 C 0.26930 0.43158 0.57801
 C764 C 0.27171 0.40964 0.59641
 C765 C 0.28524 0.41334 0.62213
 C766 C 0.29731 0.43831 0.62845
 C767 C 0.29454 0.46000 0.61024
 C768 C 0.27979 0.45714 0.58530
 C769 C 0.28551 0.39241 0.64164
 C770 C 0.27213 0.36790 0.63598
 C771 C 0.25971 0.36356 0.60986
 C772 C 0.25968 0.38448 0.59013
 C773 C 0.24679 0.33864 0.60438
 C774 C 0.24516 0.31870 0.62500
 C775 C 0.25612 0.32366 0.65137
 C776 C 0.27015 0.34800 0.65648
 H777 H 0.25776 0.42921 0.55889
 H778 H 0.30800 0.44135 0.64795
 H779 H 0.30316 0.47937 0.61608
 H780 H 0.29527 0.39554 0.66163
 H781 H 0.24951 0.38149 0.57035
 H782 H 0.23736 0.33482 0.58441
 H783 H 0.23437 0.29995 0.62075
 H784 H 0.27904 0.35164 0.67675
 C785 C 0.76807 0.07723 0.92568
 C786 C 0.75911 0.09831 0.90826
 C787 C 0.73981 0.09279 0.88680
 C788 C 0.72897 0.06676 0.88375
 C789 C 0.73824 0.04595 0.90083
 C790 C 0.75838 0.05078 0.92140
 C791 C 0.73245 0.11306 0.86799
 C792 C 0.74462 0.13867 0.86984
 C793 C 0.76303 0.14471 0.89183
 C794 C 0.76998 0.12452 0.91112
 C795 C 0.77498 0.17054 0.89341
 C796 C 0.77009 0.18957 0.87248
 C797 C 0.75330 0.18298 0.84962
 C798 C 0.73973 0.15784 0.84911
 H799 H 0.78357 0.08107 0.94156
 H800 H 0.71396 0.06230 0.86760
 H801 H 0.73004 0.02583 0.89761
 H802 H 0.71818 0.10855 0.85117
 H803 H 0.78465 0.12889 0.92762
 H804 H 0.78892 0.17569 0.91026
 H805 H 0.78054 0.20892 0.87353
 H806 H 0.72635 0.15265 0.83182
 C807 C 0.26471 0.57251 0.43136
 C808 C 0.25865 0.59330 0.41230
 C809 C 0.23662 0.58982 0.39300
 C810 C 0.22034 0.56638 0.39373
 C811 C 0.22657 0.54591 0.41246
 C812 C 0.24921 0.54835 0.43089
 C813 C 0.23165 0.60940 0.37268
 C814 C 0.24851 0.63246 0.37109
 C815 C 0.26979 0.63669 0.39095
 C816 C 0.27472 0.61709 0.41149
 C817 C 0.28618 0.66017 0.38941
 C818 C 0.28225 0.67866 0.36780
 C819 C 0.26208 0.67384 0.34720
 C820 C 0.24489 0.65093 0.34937
 H821 H 0.28213 0.57458 0.44558
 H822 H 0.20320 0.56357 0.37932
 H823 H 0.21400 0.52770 0.41214
 H824 H 0.21514 0.60632 0.35760
 H825 H 0.29147 0.62002 0.42634
 H826 H 0.30245 0.66395 0.40453
 H827 H 0.29576 0.69620 0.36662
 H828 H 0.22906 0.64717 0.33378
 C829 C 0.25403 0.90467 0.94956
 C830 C 0.25482 0.88992 0.92494
 C831 C 0.27135 0.89907 0.90245
 C832 C 0.28706 0.92287 0.90524
 C833 C 0.28628 0.93744 0.93003
 C834 C 0.26974 0.92847 0.95243
 C835 C 0.27181 0.88429 0.87765
 C836 C 0.25610 0.86038 0.87531
 C837 C 0.23984 0.85130 0.89809
 C838 C 0.23918 0.86617 0.92261
 C839 C 0.22451 0.82734 0.89611
 C840 C 0.22533 0.81229 0.87188
 C841 C 0.24128 0.82097 0.84895
 C842 C 0.25649 0.84525 0.85071
 H843 H 0.24067 0.89780 0.96640
 H844 H 0.29994 0.93020 0.88827
 H845 H 0.29874 0.95561 0.93172
 H846 H 0.28440 0.89130 0.86031
 H847 H 0.22659 0.85916 0.93998
 H848 H 0.21196 0.82015 0.91339
 H849 H 0.21320 0.79384 0.87103
 H850 H 0.26895 0.85207 0.83320
 C851 C 0.75278 0.40337 0.44040
 C852 C 0.75576 0.38895 0.41570
 C853 C 0.77167 0.39989 0.39362
 C854 C 0.78449 0.42518 0.39687
 C855 C 0.78162 0.43938 0.42178
 C856 C 0.76580 0.42857 0.44384
 C857 C 0.77450 0.38531 0.36880
 C858 C 0.76180 0.35984 0.36602
 C859 C 0.74610 0.34903 0.38839
 C860 C 0.74306 0.36368 0.41292
 C861 C 0.73368 0.32362 0.38600
 C862 C 0.73673 0.30885 0.36174
 C863 C 0.75213 0.31918 0.33914
 C864 C 0.76456 0.34488 0.34139
 H865 H 0.73998 0.39501 0.45695
 H866 H 0.79685 0.43392 0.38024
 H867 H 0.79209 0.45863 0.42387
 H868 H 0.78664 0.39369 0.35179
 H869 H 0.73093 0.35529 0.42995
 H870 H 0.72159 0.31510 0.40296
 H871 H 0.72668 0.28929 0.36065
 H872 H 0.77651 0.35310 0.32418
 C873 C 0.07485 0.21659 0.05379
 C874 C 0.09447 0.22291 0.07452
 C875 C 0.12180 0.21173 0.07323
 C876 C 0.12881 0.19371 0.05222
 C877 C 0.10937 0.18746 0.03189
 C878 C 0.08231 0.19937 0.03158
 C879 C 0.14195 0.21886 0.09279
 C880 C 0.13519 0.23690 0.11392
 C881 C 0.10768 0.24751 0.11614
 C882 C 0.08745 0.24059 0.09624
 C883 C 0.10108 0.26483 0.13824
 C884 C 0.12167 0.27164 0.15771
 C885 C 0.14920 0.26178 0.15481
 C886 C 0.15571 0.24436 0.13294
 H887 H 0.05455 0.22645 0.05437
 H888 H 0.14946 0.18446 0.05142
 H889 H 0.11568 0.17266 0.01667
 H890 H 0.16301 0.21048 0.09144
 H891 H 0.06643 0.24901 0.09757
 H892 H 0.08005 0.27300 0.14050
 H893 H 0.11626 0.28486 0.17472
 H894 H 0.17679 0.23612 0.13106
 C895 C 0.55900 0.70514 0.57677
 C896 C 0.57906 0.70977 0.59745
 C897 C 0.60196 0.69173 0.60043
 C898 C 0.60360 0.66870 0.58377
 C899 C 0.58400 0.66467 0.56283
 C900 C 0.56218 0.68329 0.55861
 C901 C 0.62361 0.69767 0.61894
 C902 C 0.62290 0.72159 0.63427
 C903 C 0.59945 0.73906 0.63237
 C904 C 0.57758 0.73298 0.61400
 C905 C 0.59862 0.76258 0.64851
 C906 C 0.62109 0.76894 0.66594
 C907 C 0.64485 0.75222 0.66682
 C908 C 0.64556 0.72850 0.65118
 H909 H 0.54239 0.71974 0.57324
 H910 H 0.62090 0.65461 0.58593
 H911 H 0.58676 0.64783 0.54884
 H912 H 0.64149 0.68416 0.62071
 H913 H 0.55994 0.74672 0.61192
 H914 H 0.58070 0.77607 0.64755
 H915 H 0.62018 0.78709 0.67832
 H916 H 0.66371 0.71527 0.65246
 C917 C 0.03953 0.74863 0.90778
 C918 C 0.06431 0.74676 0.89223
 C919 C 0.08607 0.72926 0.90082
 C920 C 0.08224 0.71350 0.92473
 C921 C 0.05713 0.71515 0.93993
 C922 C 0.03552 0.73280 0.93164
 C923 C 0.11114 0.72784 0.88533
 C924 C 0.11433 0.74334 0.86109
 C925 C 0.09210 0.76033 0.85238
 C926 C 0.06747 0.76217 0.86814
 C927 C 0.09468 0.77511 0.82782
 C928 C 0.11899 0.77309 0.81186
 C929 C 0.14156 0.75677 0.82040
 C930 C 0.13917 0.74198 0.84521
 H931 H 0.02344 0.76284 0.90142
 H932 H 0.09859 0.69982 0.93160
 H933 H 0.05459 0.70248 0.95804
 H934 H 0.12798 0.71458 0.89197
 H935 H 0.05059 0.77540 0.86148
 H936 H 0.07777 0.78808 0.82081
 H937 H 0.12019 0.78457 0.79282
 H938 H 0.15633 0.72911 0.85182
 C939 C 0.54843 0.25067 0.38661
 C940 C 0.57328 0.24816 0.37106
 C941 C 0.59387 0.22910 0.37900
 C942 C 0.58891 0.21242 0.40198
 C943 C 0.56405 0.21496 0.41728
 C944 C 0.54370 0.23432 0.41001
 C945 C 0.61914 0.22716 0.36398
 C946 C 0.62394 0.24389 0.34097
 C947 C 0.60302 0.26254 0.33270
 C948 C 0.57792 0.26466 0.34788
 C949 C 0.60755 0.27881 0.30937
 C950 C 0.63256 0.27669 0.29432
 C951 C 0.65373 0.25859 0.30257
 C952 C 0.64930 0.24227 0.32602
 H953 H 0.53314 0.26591 0.38093
 H954 H 0.60434 0.19753 0.40822
 H955 H 0.56077 0.20175 0.43488
 H956 H 0.63505 0.21271 0.37024
 H957 H 0.56204 0.27916 0.34167
 H958 H 0.59174 0.29317 0.30273
 H959 H 0.63551 0.28957 0.27640
 H960 H 0.66542 0.22810 0.33240
 C961 C 0.93716 0.75834 0.11109
 C962 C 0.91229 0.76070 0.12664
 C963 C 0.88707 0.74944 0.11666
 C964 C 0.88723 0.73586 0.09132
 C965 C 0.91203 0.73366 0.07583
 C966 C 0.93754 0.74495 0.08527
 C967 C 0.86213 0.75191 0.13216
 C968 C 0.86217 0.76546 0.15763
 C969 C 0.88749 0.77673 0.16758
 C970 C 0.91230 0.77440 0.15199
 C971 C 0.88767 0.78993 0.19315
 C972 C 0.86315 0.79156 0.20902
 C973 C 0.83785 0.78032 0.19951
 C974 C 0.83743 0.76758 0.17354
 H975 H 0.95586 0.76823 0.11874
 H976 H 0.86814 0.72681 0.08347
 H977 H 0.91106 0.72216 0.05690
 H978 H 0.84277 0.74320 0.12448
 H979 H 0.93167 0.78309 0.15968
 H980 H 0.90687 0.79872 0.20105
 H981 H 0.86402 0.80162 0.22886
 H982 H 0.81810 0.75866 0.16608
 C983 C 0.44991 0.24924 0.59245
 C984 C 0.42604 0.24756 0.60942
 C985 C 0.40312 0.23135 0.60127
 C986 C 0.40473 0.21677 0.57649
 C987 C 0.42879 0.21830 0.55985
 C988 C 0.45159 0.23460 0.56759
 C989 C 0.37898 0.23007 0.61795
 C990 C 0.37758 0.24465 0.64275
 C991 C 0.40070 0.26047 0.65117
 C992 C 0.42476 0.26192 0.63437
 C993 C 0.39929 0.27468 0.67620
 C994 C 0.37502 0.27353 0.69259
 C995 C 0.35170 0.25835 0.68409
 C996 C 0.35328 0.24378 0.65920
 H997 H 0.46708 0.26231 0.59847
 H998 H 0.38740 0.20412 0.57002
 H999 H 0.42964 0.20651 0.54105
 H1000 H 0.36128 0.21781 0.61161
 H1001 H 0.44244 0.27422 0.64069
 H1002 H 0.41687 0.28682 0.68299
 H1003 H 0.37430 0.28496 0.71164
 H1004 H 0.33555 0.23174 0.65254
 C1005 C 0.92563 0.20823 0.92681
 C1006 C 0.90601 0.21170 0.90534
 C1007 C 0.87923 0.19955 0.90760
 C1008 C 0.87278 0.18340 0.93041
 C1009 C 0.89220 0.18001 0.95152
 C1010 C 0.91871 0.19294 0.95071
 C1011 C 0.85899 0.20397 0.88725
 C1012 C 0.86506 0.22048 0.86454
 C1013 C 0.89204 0.23201 0.86141
 C1014 C 0.91243 0.22761 0.88195
 C1015 C 0.89789 0.24791 0.83790
 C1016 C 0.87692 0.25273 0.81812
 C1017 C 0.84984 0.24218 0.82206
 C1018 C 0.84424 0.22580 0.84504
 H1019 H 0.94545 0.21884 0.92533
 H1020 H 0.85255 0.17344 0.93205
 H1021 H 0.88636 0.16656 0.96824
 H1022 H 0.83832 0.19490 0.88931
 H1023 H 0.93303 0.23678 0.87992
 H1024 H 0.91853 0.25669 0.83492
 H1025 H 0.88160 0.26511 0.80019
 H1026 H 0.82354 0.21698 0.84757
 C1027 C 0.42448 0.69378 0.42558
 C1028 C 0.40896 0.69432 0.40093
 C1029 C 0.38507 0.67753 0.39830
 C1030 C 0.37767 0.65994 0.41987
 C1031 C 0.39284 0.65998 0.44450
 C1032 C 0.41594 0.67728 0.44781
 C1033 C 0.36814 0.67953 0.37479
 C1034 C 0.37410 0.69882 0.35438
 C1035 C 0.39840 0.71508 0.35640
 C1036 C 0.41600 0.71238 0.37951
 C1037 C 0.40380 0.73468 0.33594
 C1038 C 0.38432 0.73928 0.31474
 C1039 C 0.35957 0.72406 0.31371
 C1040 C 0.35509 0.70326 0.33288
 H1041 H 0.44215 0.70734 0.42810
 H1042 H 0.35951 0.64688 0.41809
 H1043 H 0.38616 0.64690 0.46126
 H1044 H 0.34951 0.66705 0.37307
 H1045 H 0.43432 0.72524 0.38147
 H1046 H 0.42239 0.74724 0.33706
 H1047 H 0.38788 0.75548 0.30006
 H1048 H 0.33589 0.69149 0.33186
 C1049 C 0.09274 0.07340 0.24966
 C1050 C 0.11163 0.09499 0.24552
 C1051 C 0.13787 0.09030 0.23256
 C1052 C 0.14465 0.06444 0.22345
 C1053 C 0.12594 0.04321 0.22746
 C1054 C 0.09978 0.04691 0.24113
 C1055 C 0.15703 0.11150 0.22880
 C1056 C 0.15031 0.13756 0.23774
 C1057 C 0.12392 0.14249 0.25038
 C1058 C 0.10480 0.12119 0.25431
 C1059 C 0.11712 0.16869 0.25888
 C1060 C 0.13624 0.18976 0.25497
 C1061 C 0.16272 0.18507 0.24270
 C1062 C 0.16959 0.15879 0.23416
 H1063 H 0.07327 0.07735 0.26058
 H1064 H 0.16445 0.06060 0.21297
 H1065 H 0.13196 0.02398 0.21873
 H1066 H 0.17719 0.10770 0.21894
 H1067 H 0.08465 0.12500 0.26417
 H1068 H 0.09699 0.17292 0.26855
 H1069 H 0.13035 0.20976 0.26184
 H1070 H 0.18979 0.15488 0.22447
 C1071 C 0.57676 0.57409 0.74782
 C1072 C 0.59612 0.59513 0.74375
 C1073 C 0.61870 0.59173 0.72489
 C1074 C 0.62094 0.56783 0.70968
 C1075 C 0.60185 0.54692 0.71411
 C1076 C 0.58006 0.54958 0.73367
 C1077 C 0.63913 0.61193 0.72207
 C1078 C 0.63738 0.63546 0.73797
 C1079 C 0.61436 0.63927 0.75620
 C1080 C 0.59387 0.61908 0.75898
 C1081 C 0.61238 0.66315 0.77155
 C1082 C 0.63311 0.68295 0.76904
 C1083 C 0.65641 0.67902 0.75153
 C1084 C 0.65840 0.65522 0.73600
 H1085 H 0.56011 0.57619 0.76307
 H1086 H 0.63795 0.56498 0.69498
 H1087 H 0.60455 0.52826 0.70280
 H1088 H 0.65663 0.60911 0.70790
 H1089 H 0.57649 0.62181 0.77332
 H1090 H 0.59482 0.66649 0.78549
 H1091 H 0.63114 0.70124 0.78110
 H1092 H 0.67608 0.65228 0.72206
 C1093 C 0.93448 0.07828 0.77731
 C1094 C 0.91324 0.09807 0.77797
 C1095 C 0.92026 0.12494 0.78473
 C1096 C 0.94791 0.13145 0.79165
 C1097 C 0.96898 0.11200 0.79006
 C1098 C 0.96291 0.08532 0.78194
 C1099 C 0.89983 0.14520 0.78336
 C1100 C 0.87258 0.13917 0.77450
 C1101 C 0.86505 0.11227 0.76851
 C1102 C 0.88541 0.09177 0.77056
 C1103 C 0.83748 0.10660 0.75986
 C1104 C 0.81795 0.12754 0.75628
 C1105 C 0.82586 0.15439 0.76103
 C1106 C 0.85303 0.15990 0.77075
 H1107 H 0.92904 0.05810 0.77069
 H1108 H 0.95348 0.15187 0.79739
 H1109 H 0.99017 0.11803 0.79531
 H1110 H 0.90544 0.16588 0.78811
 H1111 H 0.87988 0.07117 0.76543
 H1112 H 0.83121 0.08608 0.75539
 H1113 H 0.79698 0.12286 0.74909
 H1114 H 0.85911 0.18052 0.77516
 C1115 C 0.43462 0.56759 0.26686
 C1116 C 0.41144 0.58503 0.26979
 C1117 C 0.41378 0.60803 0.28691
 C1118 C 0.43859 0.61261 0.30163
 C1119 C 0.46157 0.59547 0.29826
 C1120 C 0.46011 0.57329 0.28031
 C1121 C 0.39181 0.62677 0.28813
 C1122 C 0.36777 0.62324 0.27196
 C1123 C 0.36465 0.59978 0.25572
 C1124 C 0.38648 0.58062 0.25494
 C1125 C 0.34026 0.59659 0.23967
 C1126 C 0.31999 0.61716 0.23855
 C1127 C 0.32404 0.64103 0.25345
 C1128 C 0.34745 0.64357 0.27074
 H1129 H 0.43337 0.55053 0.25295
 H1130 H 0.44057 0.62999 0.31502
 H1131 H 0.48083 0.59991 0.30922
 H1132 H 0.39396 0.64473 0.30073
 H1133 H 0.38452 0.56294 0.24195
 H1134 H 0.33737 0.57867 0.22724
 H1135 H 0.30198 0.61502 0.22511
 H1136 H 0.35039 0.66203 0.28238
 C1137 C 0.06524 0.93039 0.77247
 C1138 C 0.08588 0.90991 0.77278
 C1139 C 0.07906 0.88424 0.78366
 C1140 C 0.05248 0.87971 0.79510
 C1141 C 0.03213 0.89987 0.79451
 C1142 C 0.03758 0.92529 0.78229
 C1143 C 0.09864 0.86318 0.78246
 C1144 C 0.12507 0.86729 0.77036
 C1145 C 0.13262 0.89309 0.76035
 C1146 C 0.11293 0.91432 0.76160
 C1147 C 0.15961 0.89696 0.74895
 C1148 C 0.17856 0.87529 0.74696
 C1149 C 0.17055 0.84941 0.75583
 C1150 C 0.14390 0.84573 0.76781
 H1151 H 0.07037 0.94948 0.76278
 H1152 H 0.04721 0.86032 0.80416
 H1153 H 0.01208 0.89536 0.80413
 H1154 H 0.09307 0.84340 0.79043
 H1155 H 0.11845 0.93402 0.75344
 H1156 H 0.16595 0.91663 0.74138
 H1157 H 0.19913 0.87858 0.73785
 H1158 H 0.13783 0.82595 0.77524
 C1159 C 0.58444 0.42900 0.26308
 C1160 C 0.60707 0.41072 0.26443
 C1161 C 0.60584 0.38883 0.28327
 C1162 C 0.58289 0.38630 0.30131
 C1163 C 0.56047 0.40431 0.29965
 C1164 C 0.56058 0.42525 0.27999
 C1165 C 0.62698 0.36919 0.28312
 C1166 C 0.64926 0.37092 0.26419
 C1167 C 0.65141 0.39334 0.24616
 C1168 C 0.63029 0.41322 0.24647
 C1169 C 0.67422 0.39495 0.22759
 C1170 C 0.69398 0.37398 0.22615
 C1171 C 0.69090 0.35117 0.24308
 C1172 C 0.66893 0.35000 0.26241
 H1173 H 0.58464 0.44509 0.24785
 H1174 H 0.58183 0.36983 0.31608
 H1175 H 0.54253 0.40139 0.31322
 H1176 H 0.62558 0.35206 0.29709
 H1177 H 0.63146 0.43009 0.23217
 H1178 H 0.67638 0.41207 0.21376
 H1179 H 0.71096 0.37506 0.21118
 H1180 H 0.66684 0.33241 0.27567
 C1181 C 0.91263 0.96073 0.27497
 C1182 C 0.89619 0.93723 0.27632
 C1183 C 0.90814 0.91207 0.26941
 C1184 C 0.93650 0.91081 0.26169
 C1185 C 0.95263 0.93431 0.25979
 C1186 C 0.94097 0.95996 0.26583
 C1187 C 0.89141 0.88869 0.26977
 C1188 C 0.86266 0.89032 0.27641
 C1189 C 0.85082 0.91557 0.28352
 C1190 C 0.86770 0.93874 0.28381
 C1191 C 0.82209 0.91742 0.28964
 C1192 C 0.80500 0.89465 0.28810
 C1193 C 0.81631 0.86941 0.28080
 C1194 C 0.84536 0.86729 0.27541
 H1195 H 0.90302 0.97946 0.28144
 H1196 H 0.94604 0.89168 0.25623
 H1197 H 0.97383 0.93213 0.25193
 H1198 H 0.90059 0.86939 0.26424
 H1199 H 0.85845 0.95807 0.28908
 H1200 H 0.81270 0.93660 0.29516
 H1201 H 0.78278 0.89684 0.29259
 H1202 H 0.85431 0.84799 0.26960
 C1203 C 0.39861 0.45359 0.74858
 C1204 C 0.38350 0.42937 0.75054
 C1205 C 0.39568 0.40677 0.76382
 C1206 C 0.42271 0.40884 0.77500
 C1207 C 0.43750 0.43309 0.77320
 C1208 C 0.42567 0.45572 0.76000
 C1209 C 0.38060 0.38254 0.76586
 C1210 C 0.35338 0.38068 0.75498
 C1211 C 0.34116 0.40333 0.74183
 C1212 C 0.35634 0.42747 0.73957
 C1213 C 0.31390 0.40151 0.73119
 C1214 C 0.29883 0.37749 0.73352
 C1215 C 0.31076 0.35469 0.74637
 C1216 C 0.33816 0.35650 0.75707
 H1217 H 0.38935 0.47074 0.73803
 H1218 H 0.43233 0.39178 0.78537
 H1219 H 0.45809 0.43426 0.78259
 H1220 H 0.38999 0.36521 0.77601
 H1221 H 0.34694 0.44481 0.72943
 H1222 H 0.30423 0.41865 0.72101
 H1223 H 0.27786 0.37672 0.72491
 H1224 H 0.34765 0.33914 0.76704
 C1225 C 0.06590 0.19670 0.91170
 C1226 C 0.08461 0.19864 0.88919
 C1227 C 0.10824 0.18127 0.88789
 C1228 C 0.11176 0.16119 0.90802
 C1229 C 0.09348 0.15986 0.93061
 C1230 C 0.07117 0.17827 0.93318
 C1231 C 0.12888 0.18529 0.86754
 C1232 C 0.12650 0.20678 0.84882
 C1233 C 0.10219 0.22327 0.84905
 C1234 C 0.08123 0.21892 0.86912
 C1235 C 0.09987 0.24451 0.82988
 C1236 C 0.12198 0.25007 0.81152
 C1237 C 0.14664 0.23463 0.81238
 C1238 C 0.14862 0.21271 0.83060
 H1239 H 0.04887 0.21112 0.91381
 H1240 H 0.12960 0.14759 0.90718
 H1241 H 0.09778 0.14555 0.94705
 H1242 H 0.14744 0.17254 0.86714
 H1243 H 0.06303 0.23211 0.86994
 H1244 H 0.08131 0.25720 0.82957
 H1245 H 0.12028 0.26697 0.79736
 H1246 H 0.16770 0.20068 0.83096
 C1247 C 0.56271 0.71499 0.43897
 C1248 C 0.58201 0.72028 0.41755
 C1249 C 0.60584 0.70341 0.41429
 C1250 C 0.60943 0.68105 0.43164
 C1251 C 0.59036 0.67612 0.45299
 C1252 C 0.56729 0.69337 0.45729
 C1253 C 0.62624 0.70961 0.39438
 C1254 C 0.62339 0.73267 0.37790
 C1255 C 0.59916 0.74908 0.38022
 C1256 C 0.57850 0.74271 0.40004
 C1257 C 0.59641 0.77184 0.36301
 C1258 C 0.61789 0.77864 0.34432
 C1259 C 0.64242 0.76299 0.34308
 C1260 C 0.64482 0.73985 0.35950
 H1261 H 0.54504 0.72844 0.44228
 H1262 H 0.62745 0.66783 0.42922
 H1263 H 0.59399 0.65913 0.46665
 H1264 H 0.64474 0.69693 0.39227
 H1265 H 0.56016 0.75555 0.40232
 H1266 H 0.57787 0.78451 0.36426
 H1267 H 0.61573 0.79640 0.33141
 H1268 H 0.66342 0.72732 0.35773
 C1269 C 0.93436 0.76148 0.90586
 C1270 C 0.90980 0.76357 0.89011
 C1271 C 0.88346 0.75792 0.90234
 C1272 C 0.88220 0.75093 0.93045
 C1273 C 0.90687 0.74844 0.94599
 C1274 C 0.93357 0.75288 0.93380
 C1275 C 0.85898 0.75886 0.88614
 C1276 C 0.86071 0.76495 0.85774
 C1277 C 0.88715 0.77099 0.84573
 C1278 C 0.91142 0.77059 0.86203
 C1279 C 0.88906 0.77678 0.81742
 C1280 C 0.86513 0.77599 0.80089
 C1281 C 0.83869 0.76963 0.81233
 C1282 C 0.83659 0.76453 0.84098
 H1283 H 0.95408 0.76695 0.89609
 H1284 H 0.86216 0.74660 0.94025
 H1285 H 0.90481 0.74147 0.96713
 H1286 H 0.83874 0.75428 0.89546
 H1287 H 0.93169 0.77498 0.85267
 H1288 H 0.90916 0.78152 0.80795
 H1289 H 0.86741 0.78029 0.77901
 H1290 H 0.81637 0.75961 0.85012
 C1291 C 0.43909 0.26945 0.39291
 C1292 C 0.41343 0.27186 0.37888
 C1293 C 0.38872 0.26059 0.39045
 C1294 C 0.39011 0.24749 0.41616
 C1295 C 0.41586 0.24476 0.42978
 C1296 C 0.44071 0.25534 0.41813
 C1297 C 0.36327 0.26197 0.37579
 C1298 C 0.36244 0.27383 0.34936
 C1299 C 0.38724 0.28527 0.33803
 C1300 C 0.41238 0.28459 0.35301
 C1301 C 0.38680 0.29642 0.31144
 C1302 C 0.36238 0.29540 0.29570
 C1303 C 0.33756 0.28389 0.30643
 C1304 C 0.33756 0.27364 0.33362
 H1305 H 0.45793 0.27817 0.38390
 H1306 H 0.37142 0.23871 0.42539
 H1307 H 0.41645 0.23358 0.44905
 H1308 H 0.34437 0.25310 0.38454
 H1309 H 0.43137 0.29317 0.34411
 H1310 H 0.40560 0.30526 0.30246
 H1311 H 0.36311 0.30337 0.27484
 H1312 H 0.31865 0.26450 0.34202
 C1313 C 0.04738 0.75691 0.10508
 C1314 C 0.07351 0.75410 0.11832
 C1315 C 0.09500 0.73848 0.10589
 C1316 C 0.09003 0.72600 0.08043
 C1317 C 0.06393 0.72865 0.06755
 C1318 C 0.04227 0.74406 0.07968
 C1319 C 0.12098 0.73529 0.11925
 C1320 C 0.12567 0.74728 0.14508
 C1321 C 0.10415 0.76293 0.15746
 C1322 C 0.07833 0.76639 0.14394
 C1323 C 0.10867 0.77467 0.18334
 C1324 C 0.13407 0.77067 0.19709
 C1325 C 0.15566 0.75500 0.18521
 C1326 C 0.15138 0.74358 0.15894
 H1327 H 0.03106 0.76909 0.11458
 H1328 H 0.10619 0.71385 0.07065
 H1329 H 0.06053 0.71809 0.04828
 H1330 H 0.13739 0.72323 0.10971
 H1331 H 0.06186 0.77833 0.15355
 H1332 H 0.09246 0.78678 0.19310
 H1333 H 0.13679 0.77999 0.21714
 H1334 H 0.16778 0.73144 0.14953
 C1335 C 0.55740 0.25801 0.58634
 C1336 C 0.58220 0.25649 0.60176
 C1337 C 0.60604 0.24326 0.59069
 C1338 C 0.60469 0.23220 0.56403
 C1339 C 0.57957 0.23319 0.54904
 C1340 C 0.55550 0.24557 0.56033
 C1341 C 0.63048 0.24070 0.60674
 C1342 C 0.63103 0.25066 0.63393
 C1343 C 0.60711 0.26402 0.64477
 C1344 C 0.58304 0.26716 0.62852
 C1345 C 0.60738 0.27364 0.67194
 C1346 C 0.63095 0.26979 0.68848
 C1347 C 0.65490 0.25639 0.67818
 C1348 C 0.65488 0.24710 0.65066
 H1349 H 0.53922 0.26819 0.59503
 H1350 H 0.62275 0.22203 0.55514
 H1351 H 0.57867 0.22334 0.52911
 H1352 H 0.64875 0.23041 0.59835
 H1353 H 0.56467 0.27724 0.63699
 H1354 H 0.58924 0.28398 0.68050
 H1355 H 0.63042 0.27750 0.70942
 H1356 H 0.67320 0.23683 0.64239
 C1357 C 0.93610 0.19990 0.07137
 C1358 C 0.91848 0.20196 0.09471
 C1359 C 0.89574 0.18379 0.09793
 C1360 C 0.89185 0.16312 0.07864
 C1361 C 0.90899 0.16168 0.05521
 C1362 C 0.93059 0.18054 0.05095
 C1363 C 0.87631 0.18746 0.11944
 C1364 C 0.87884 0.20948 0.13733
 C1365 C 0.90217 0.22703 0.13498
 C1366 C 0.92207 0.22295 0.11384
 C1367 C 0.90444 0.24904 0.15310
 C1368 C 0.88310 0.25433 0.17241
 C1369 C 0.85938 0.23766 0.17372
 C1370 C 0.85765 0.21493 0.15670
 H1371 H 0.95256 0.21467 0.06796
 H1372 H 0.87464 0.14896 0.08092
 H1373 H 0.90452 0.14662 0.03965
 H1374 H 0.85845 0.17396 0.12141
 H1375 H 0.93955 0.23682 0.11149
 H1376 H 0.92223 0.26262 0.15172
 H1377 H 0.88456 0.27193 0.18554
 H1378 H 0.83929 0.20201 0.15799
 C1379 C 0.41243 0.70720 0.57130
 C1380 C 0.39387 0.70959 0.59392
 C1381 C 0.36944 0.69335 0.59505
 C1382 C 0.36448 0.67439 0.57428
 C1383 C 0.38305 0.67202 0.55206
 C1384 C 0.40687 0.68873 0.54991
 C1385 C 0.35001 0.69660 0.61661
 C1386 C 0.35458 0.71594 0.63712
 C1387 C 0.37943 0.73157 0.63679
 C1388 C 0.39897 0.72830 0.61513
 C1389 C 0.38391 0.75056 0.65787
 C1390 C 0.36347 0.75465 0.67844
 C1391 C 0.33830 0.73999 0.67791
 C1392 C 0.33424 0.72032 0.65760
 H1393 H 0.43061 0.72030 0.56994
 H1394 H 0.34603 0.66158 0.57504
 H1395 H 0.37864 0.65709 0.53636
 H1396 H 0.33104 0.68445 0.61712
 H1397 H 0.41780 0.74061 0.61452
 H1398 H 0.40292 0.76259 0.65812
 H1399 H 0.36681 0.76988 0.69409
 H1400 H 0.31494 0.70870 0.65760
 C1401 C 0.23417 0.09837 0.94610
 C1402 C 0.23609 0.11282 0.92111
 C1403 C 0.24909 0.10097 0.89783
 C1404 C 0.25926 0.07453 0.89976
 C1405 C 0.25764 0.06034 0.92479
 C1406 C 0.24573 0.07216 0.94878
 C1407 C 0.25216 0.11590 0.87319
 C1408 C 0.24265 0.14272 0.87171
 C1409 C 0.22914 0.15430 0.89495
 C1410 C 0.22573 0.13925 0.91934
 C1411 C 0.21964 0.18098 0.89366
 C1412 C 0.22396 0.19634 0.86983
 C1413 C 0.23781 0.18541 0.84659
 C1414 C 0.24676 0.15830 0.84758
 H1415 H 0.22323 0.10775 0.96323
 H1416 H 0.26927 0.06505 0.88211
 H1417 H 0.26746 0.04066 0.92544
 H1418 H 0.26241 0.10684 0.85540
 H1419 H 0.21562 0.14837 0.93719
 H1420 H 0.20907 0.19010 0.91121
 H1421 H 0.21633 0.21693 0.86967
 H1422 H 0.25721 0.14946 0.82981
 C1423 C 0.72453 0.59957 0.44700
 C1424 C 0.72684 0.61672 0.42398
 C1425 C 0.74251 0.60850 0.40056
 C1426 C 0.75558 0.58314 0.40064
 C1427 C 0.75412 0.56661 0.42411
 C1428 C 0.73892 0.57475 0.44776
 C1429 C 0.74559 0.62610 0.37788
 C1430 C 0.73415 0.65223 0.37888
 C1431 C 0.71879 0.66041 0.40257
 C1432 C 0.71468 0.64243 0.42461
 C1433 C 0.70842 0.68674 0.40425
 C1434 C 0.71357 0.70505 0.38294
 C1435 C 0.72843 0.69724 0.35901
 C1436 C 0.73843 0.67059 0.35696
 H1437 H 0.71208 0.60597 0.46462
 H1438 H 0.76779 0.57651 0.38295
 H1439 H 0.76581 0.54787 0.42403
 H1440 H 0.75762 0.61980 0.35991
 H1441 H 0.70290 0.64884 0.44273
 H1442 H 0.69672 0.69336 0.42230
 H1443 H 0.70565 0.72541 0.38518
 H1444 H 0.75010 0.66438 0.33874
 C1445 C 0.77492 0.07607 0.06730
 C1446 C 0.76831 0.09803 0.08481
 C1447 C 0.74757 0.09476 0.10563
 C1448 C 0.73359 0.07025 0.10857
 C1449 C 0.74073 0.04856 0.09191
 C1450 C 0.76193 0.05065 0.07142
 C1451 C 0.74142 0.11577 0.12385
 C1452 C 0.75627 0.13999 0.12231
 C1453 C 0.77686 0.14386 0.10153
 C1454 C 0.78259 0.12290 0.08262
 C1455 C 0.79174 0.16838 0.10068
 C1456 C 0.78688 0.18827 0.12082
 C1457 C 0.76708 0.18391 0.14208
 C1458 C 0.75140 0.15997 0.14210
 H1459 H 0.79134 0.07842 0.05188
 H1460 H 0.71735 0.06764 0.12416
 H1461 H 0.72890 0.03011 0.09485
 H1462 H 0.72566 0.11292 0.13991
 H1463 H 0.79860 0.12565 0.06682
 H1464 H 0.80764 0.17186 0.08494
 H1465 H 0.79934 0.20653 0.12039
 H1466 H 0.73586 0.15643 0.15820
 C1467 C 0.25234 0.57624 0.57820
 C1468 C 0.24516 0.59761 0.59599
 C1469 C 0.22626 0.59290 0.61819
 C1470 C 0.21408 0.56742 0.62164
 C1471 C 0.22168 0.54628 0.60423
 C1472 C 0.24136 0.55028 0.58286
 C1473 C 0.22062 0.61338 0.63728
 C1474 C 0.23400 0.63842 0.63486
 C1475 C 0.25212 0.64366 0.61223
 C1476 C 0.25745 0.62323 0.59276
 C1477 C 0.26519 0.66898 0.61003
 C1478 C 0.26127 0.68843 0.63068
 C1479 C 0.24446 0.68274 0.65397
 C1480 C 0.23029 0.65792 0.65543
 H1481 H 0.26763 0.57938 0.56179
 H1482 H 0.19939 0.56357 0.63841
 H1483 H 0.21276 0.52649 0.60790
 H1484 H 0.20660 0.60950 0.65461
 H1485 H 0.27184 0.62699 0.57571
 H1486 H 0.27900 0.67349 0.59273
 H1487 H 0.27223 0.70749 0.62894
 H1488 H 0.21692 0.65341 0.67308
 C1489 C 0.76644 0.94875 0.90357
 C1490 C 0.76661 0.92457 0.88878
 C1491 C 0.78885 0.90599 0.89225
 C1492 C 0.81050 0.91207 0.91097
 C1493 C 0.81019 0.93646 0.92571
 C1494 C 0.78831 0.95517 0.92181
 C1495 C 0.78906 0.88191 0.87678
 C1496 C 0.76745 0.87659 0.85769
 C1497 C 0.74525 0.89544 0.85462
 C1498 C 0.74486 0.91904 0.87032
 C1499 C 0.72396 0.89082 0.83536
 C1500 C 0.72494 0.86815 0.81855
 C1501 C 0.74684 0.84934 0.82100
 C1502 C 0.76787 0.85324 0.84102
 H1503 H 0.74901 0.96265 0.90097
 H1504 H 0.82774 0.89809 0.91406
 H1505 H 0.82719 0.94086 0.93982
 H1506 H 0.80617 0.86764 0.87923
 H1507 H 0.72785 0.93343 0.86773
 H1508 H 0.70687 0.90508 0.83282
 H1509 H 0.70857 0.86538 0.80330
 H1510 H 0.78497 0.83886 0.84273
 C1511 C 0.24175 0.44565 0.41400
 C1512 C 0.24330 0.42273 0.39733
 C1513 C 0.26329 0.40239 0.40309
 C1514 C 0.28102 0.40527 0.42607
 C1515 C 0.27980 0.42867 0.44227
 C1516 C 0.26061 0.44934 0.43590
 C1517 C 0.26571 0.38007 0.38530
 C1518 C 0.24897 0.37846 0.36143
 C1519 C 0.22894 0.39897 0.35604
 C1520 C 0.22589 0.42060 0.37424
 C1521 C 0.21274 0.39807 0.33202
 C1522 C 0.21678 0.37748 0.31298
 C1523 C 0.23668 0.35706 0.31777
 C1524 C 0.25238 0.35725 0.34237
 H1525 H 0.22638 0.46118 0.40933
 H1526 H 0.29644 0.38989 0.43095
 H1527 H 0.29453 0.43105 0.45910
 H1528 H 0.28117 0.36452 0.38952
 H1529 H 0.21066 0.43635 0.36985
 H1530 H 0.19731 0.41360 0.32766
 H1531 H 0.20416 0.37748 0.29438
 H1532 H 0.26782 0.34157 0.34611
 C1533 C 0.24773 0.90181 0.05546
 C1534 C 0.24970 0.88578 0.07934
 C1535 C 0.26148 0.89663 0.10366
 C1536 C 0.27077 0.92349 0.10369
 C1537 C 0.26936 0.93913 0.07957
 C1538 C 0.25831 0.92833 0.05504
 C1539 C 0.26433 0.88029 0.12730
 C1540 C 0.25604 0.85310 0.12669
 C1541 C 0.24418 0.84236 0.10233
 C1542 C 0.24081 0.85883 0.07894
 C1543 C 0.23617 0.81519 0.10161
 C1544 C 0.23998 0.79867 0.12473
 C1545 C 0.25180 0.80897 0.14915
 C1546 C 0.25967 0.83637 0.14995
 H1547 H 0.23849 0.89335 0.03696
 H1548 H 0.27986 0.93216 0.12214
 H1549 H 0.27787 0.95937 0.07987
 H1550 H 0.27346 0.88858 0.14595
 H1551 H 0.23182 0.85050 0.06023
 H1552 H 0.22704 0.80667 0.08310
 H1553 H 0.23351 0.77778 0.12346
 H1554 H 0.26869 0.84471 0.16861
 C1555 C 0.74687 0.39936 0.54837
 C1556 C 0.74876 0.38461 0.57311
 C1557 C 0.75998 0.39687 0.59701
 C1558 C 0.76913 0.42369 0.59574
 C1559 C 0.76749 0.43814 0.57096
 C1560 C 0.75642 0.42615 0.54701
 C1561 C 0.76212 0.38208 0.62170
 C1562 C 0.75347 0.35506 0.62270
 C1563 C 0.74231 0.34282 0.59874
 C1564 C 0.73986 0.35770 0.57418
 C1565 C 0.73391 0.31580 0.59967
 C1566 C 0.73665 0.30092 0.62403
 C1567 C 0.74775 0.31277 0.64805
 C1568 C 0.75599 0.34000 0.64723
 H1569 H 0.73794 0.38997 0.53020
 H1570 H 0.77790 0.43339 0.61381
 H1571 H 0.77541 0.45860 0.57041
 H1572 H 0.77074 0.39150 0.64002
 H1573 H 0.73131 0.34826 0.55583
 H1574 H 0.72529 0.30612 0.58152
 H1575 H 0.72988 0.28007 0.62403
 H1576 H 0.76453 0.34944 0.66555
 C1577 C 0.08266 0.06963 0.75884
 C1578 C 0.10468 0.08676 0.75068
 C1579 C 0.10144 0.10340 0.72704
 C1580 C 0.07700 0.10153 0.71111
 C1581 C 0.05495 0.08503 0.71981
 C1582 C 0.05731 0.06975 0.74415
 C1583 C 0.12175 0.12288 0.72072
 C1584 C 0.14482 0.12653 0.73819
 C1585 C 0.14891 0.10903 0.76099
 C1586 C 0.12896 0.08899 0.76690
 C1587 C 0.17220 0.11277 0.77827
 C1588 C 0.19031 0.13456 0.77390
 C1589 C 0.18530 0.15293 0.75228
 C1590 C 0.16302 0.14834 0.73402
 H1591 H 0.08426 0.05803 0.77783
 H1592 H 0.07426 0.11401 0.69286
 H1593 H 0.03539 0.08531 0.70840
 H1594 H 0.11878 0.13619 0.70310
 H1595 H 0.13157 0.07615 0.78493
 H1596 H 0.17581 0.09946 0.79571
 H1597 H 0.20744 0.13778 0.78822
 H1598 H 0.15929 0.16231 0.71711
 C1599 C 0.56732 0.59497 0.27785
 C1600 C 0.59085 0.61158 0.27444
 C1601 C 0.61105 0.60566 0.25382
 C1602 C 0.60727 0.58278 0.23713
 C1603 C 0.58326 0.56656 0.24029
 C1604 C 0.56278 0.57283 0.26036
 C1605 C 0.63419 0.62305 0.24993
 C1606 C 0.63671 0.64667 0.26586
 C1607 C 0.61617 0.65232 0.28639
 C1608 C 0.59381 0.63455 0.29087
 C1609 C 0.61772 0.67616 0.30167
 C1610 C 0.63890 0.69473 0.29623
 C1611 C 0.65949 0.68959 0.27604
 C1612 C 0.65878 0.66522 0.26120
 H1613 H 0.55213 0.59965 0.29394
 H1614 H 0.62251 0.57781 0.22121
 H1615 H 0.58033 0.54962 0.22652
 H1616 H 0.64969 0.61864 0.23404
 H1617 H 0.57812 0.63909 0.30656
 H1618 H 0.60213 0.68078 0.31740
 H1619 H 0.63922 0.71334 0.30784
 H1620 H 0.67456 0.66130 0.24547
 C1621 C 0.11400 0.94282 0.23396
 C1622 C 0.12792 0.91817 0.23728
 C1623 C 0.11598 0.89786 0.25422
 C1624 C 0.09016 0.90262 0.26745
 C1625 C 0.07676 0.92756 0.26462
 C1626 C 0.08873 0.94803 0.24814
 C1627 C 0.13033 0.87343 0.25811
 C1628 C 0.15677 0.86938 0.24580
 C1629 C 0.16867 0.88982 0.22895
 C1630 C 0.15401 0.91390 0.22451
 C1631 C 0.19525 0.88602 0.21706
 C1632 C 0.21009 0.86227 0.22195
 C1633 C 0.19854 0.84174 0.23863
 C1634 C 0.17170 0.84537 0.25034
 H1635 H 0.12317 0.95817 0.22071
 H1636 H 0.08070 0.88732 0.28057
 H1637 H 0.05746 0.93110 0.27601
 H1638 H 0.12121 0.85784 0.27114
 H1639 H 0.16321 0.92958 0.21165
 H1640 H 0.20463 0.90147 0.20408
 H1641 H 0.23056 0.85989 0.21233
 H1642 H 0.16256 0.82967 0.26320
 C1643 C 0.59887 0.44552 0.74066
 C1644 C 0.61393 0.42146 0.74389
 C1645 C 0.60665 0.40335 0.76537
 C1646 C 0.58445 0.40986 0.78339
 C1647 C 0.56984 0.43421 0.78034
 C1648 C 0.57699 0.45236 0.75901
 C1649 C 0.62188 0.37924 0.76859
 C1650 C 0.64465 0.37341 0.75094
 C1651 C 0.65202 0.39184 0.72970
 C1652 C 0.63641 0.41552 0.72610
 C1653 C 0.67518 0.38651 0.71257
 C1654 C 0.69118 0.36328 0.71658
 C1655 C 0.68405 0.34470 0.73745
 C1656 C 0.66051 0.34970 0.75441
 H1657 H 0.60423 0.45896 0.72371
 H1658 H 0.57862 0.39628 0.80006
 H1659 H 0.55328 0.43901 0.79495
 H1660 H 0.61630 0.36527 0.78503
 H1661 H 0.64207 0.42956 0.70975
 H1662 H 0.68110 0.40044 0.69625
 H1663 H 0.70908 0.35969 0.70312
 H1664 H 0.65503 0.33553 0.77069
 C1665 C 0.91715 0.05975 0.23343
 C1666 C 0.90164 0.08381 0.23404
 C1667 C 0.91363 0.10727 0.24559
 C1668 C 0.94109 0.10632 0.25597
 C1669 C 0.95610 0.08208 0.25600
 C1670 C 0.94413 0.05843 0.24522
 C1671 C 0.89773 0.13105 0.24728
 C1672 C 0.86976 0.13147 0.23816
 C1673 C 0.85785 0.10804 0.22646
 C1674 C 0.87397 0.08446 0.22415
 C1675 C 0.82982 0.10842 0.21768
 C1676 C 0.81357 0.13169 0.22076
 C1677 C 0.82507 0.15511 0.23255
 C1678 C 0.85335 0.15485 0.24099
 H1679 H 0.90787 0.04189 0.22443
 H1680 H 0.95061 0.12410 0.26492
 H1681 H 0.97669 0.08165 0.26546
 H1682 H 0.90688 0.14900 0.25630
 H1683 H 0.86474 0.06644 0.21536
 H1684 H 0.82038 0.09065 0.20863
 H1685 H 0.79195 0.13130 0.21381
 H1686 H 0.86259 0.17274 0.25002
 C1687 C 0.40094 0.55936 0.74906
 C1688 C 0.38530 0.58329 0.75059
 C1689 C 0.39555 0.60523 0.76614
 C1690 C 0.42136 0.60274 0.77991
 C1691 C 0.43669 0.57865 0.77854
 C1692 C 0.42658 0.55665 0.76323
 C1693 C 0.37972 0.62914 0.76781
 C1694 C 0.35361 0.63118 0.75442
 C1695 C 0.34343 0.60908 0.73899
 C1696 C 0.35941 0.58541 0.73699
 C1697 C 0.31724 0.61089 0.72596
 C1698 C 0.30107 0.63426 0.72836
 C1699 C 0.31085 0.65644 0.74360
 C1700 C 0.33735 0.65481 0.75642
 H1701 H 0.39312 0.54280 0.73670
 H1702 H 0.42954 0.61933 0.79199
 H1703 H 0.45621 0.57709 0.78988
 H1704 H 0.38756 0.64601 0.77973
 H1705 H 0.35154 0.56851 0.72513
 H1706 H 0.30916 0.59415 0.71405
 H1707 H 0.28090 0.63502 0.71805
 H1708 H 0.34510 0.67172 0.76832
 C1709 C 0.93124 0.92401 0.74721
 C1710 C 0.90471 0.91213 0.74483
 C1711 C 0.88295 0.91923 0.76351
 C1712 C 0.88788 0.93916 0.78347
 C1713 C 0.91446 0.95102 0.78561
 C1714 C 0.93642 0.94297 0.76795
 C1715 C 0.85707 0.90564 0.76250
 C1716 C 0.85302 0.88474 0.74338
 C1717 C 0.87456 0.87855 0.72406
 C1718 C 0.90006 0.89250 0.72469
 C1719 C 0.87087 0.85754 0.70521
 C1720 C 0.84690 0.84156 0.70665
 C1721 C 0.82596 0.84663 0.72654
 C1722 C 0.82849 0.86891 0.74419
 H1723 H 0.94815 0.91809 0.73334
 H1724 H 0.87144 0.94505 0.79782
 H1725 H 0.91820 0.96579 0.80164
 H1726 H 0.84060 0.91055 0.77725
 H1727 H 0.91674 0.88725 0.71028
 H1728 H 0.88706 0.85270 0.69017
 H1729 H 0.84511 0.82456 0.69273
 H1730 H 0.81244 0.87270 0.75971
 C1731 C 0.43439 0.43148 0.25319
 C1732 C 0.40992 0.41548 0.25424
 C1733 C 0.40777 0.39463 0.27423
 C1734 C 0.42937 0.39072 0.29335
 C1735 C 0.45345 0.40660 0.29217
 C1736 C 0.45662 0.42666 0.27175
 C1737 C 0.38440 0.37754 0.27449
 C1738 C 0.36310 0.38078 0.25490
 C1739 C 0.36445 0.40212 0.23547
 C1740 C 0.38789 0.41943 0.23530
 C1741 C 0.34261 0.40523 0.21618
 C1742 C 0.32036 0.38668 0.21547
 C1743 C 0.31988 0.36479 0.23390
 C1744 C 0.34087 0.36238 0.25397
 H1745 H 0.43654 0.44692 0.23741
 H1746 H 0.42785 0.37506 0.30898
 H1747 H 0.46985 0.40299 0.30722
 H1748 H 0.38314 0.36126 0.28950
 H1749 H 0.38927 0.43550 0.22009
 H1750 H 0.34310 0.42156 0.20125
 H1751 H 0.30421 0.38876 0.19988
 H1752 H 0.34008 0.34575 0.26854
   
