data_POSCAR
  _audit_creation_date              2014-09-24
  _audit_creation_method            'ToBaCCo'
  _symmetry_space_group_name_H-M    'P1'
  _symmetry_Int_Tables_number       1
  _symmetry_cell_setting            triclinic
  loop_
  _symmetry_equiv_pos_as_xyz
 x,y,z
_cell_length_a 44.1019
_cell_length_b 43.7923
_cell_length_c 44.8419
_cell_angle_alpha 90.091200
_cell_angle_beta 89.952600
_cell_angle_gamma 89.683800
loop_
  _atom_site_label
  _atom_site_type_symbol
  _atom_site_fract_x
  _atom_site_fract_y
  _atom_site_fract_z
N1 N 0.34020 1.34312 0.34073
 N2 N 0.33422 0.82720 0.84222
 N3 N 0.83815 1.35272 0.83315
 N4 N 0.84476 0.85766 0.34119
 N5 N 0.63041 0.63119 0.36486
 N6 N 0.66018 0.14285 0.83330
 N7 N 1.15548 0.64749 0.84715
 N8 N 1.14028 0.14572 0.35127
 N9 N 0.65885 1.33708 0.66259
 N10 N 0.64886 0.86118 1.14784
 N11 N 1.16887 1.33908 1.16987
 N12 N 1.14902 0.84493 0.65423
 N13 N 0.34562 0.64300 0.66412
 N14 N 0.36541 0.13392 1.14513
 N15 N 0.84769 0.66977 1.15633
 N16 N 0.83245 0.16439 0.65595
 N17 N 1.33119 0.34139 0.67397
 N18 N 1.34431 0.84254 1.14957
 N19 N 0.86024 0.36368 1.14785
 N20 N 0.83552 0.84111 0.66664
 N21 N 0.63408 0.62948 0.64636
 N22 N 0.64301 1.12850 1.15347
 N23 N 0.14686 0.64833 1.14273
 N24 N 0.15405 1.16850 0.65186
 N25 N 1.34136 0.65264 0.33827
 N26 N 1.34228 1.16508 0.83837
 N27 N 0.84229 0.66271 0.83854
 N28 N 0.84809 1.14863 0.35415
 N29 N 0.65903 0.32743 0.34041
 N30 N 0.65095 0.85230 0.85384
 N31 N 0.16818 0.35582 0.83524
 N32 N 0.13839 0.85781 0.34022
 O33 O 1.12222 1.02950 1.13658
 O34 O 1.15948 1.02718 1.16931
 C35 C 1.13381 1.03752 1.16130
 C36 C 1.11728 1.05923 1.18072
 C37 C 1.12611 1.06369 1.21045
 H38 H 1.14504 1.05075 1.21941
 O39 O 0.90043 0.97224 1.15065
 O40 O 0.86705 0.96991 1.18717
 C41 C 0.89121 0.96020 1.17468
 C42 C 0.90857 0.93417 1.18750
 C43 C 0.90084 0.92181 1.21541
 H44 H 0.88286 0.93242 1.22821
 O45 O 1.03913 1.15171 1.11238
 O46 O 1.04248 1.18523 1.14897
 C47 C 1.05044 1.17596 1.12328
 C48 C 1.07278 1.19357 1.10564
 C49 C 1.08299 1.22243 1.11524
 H50 H 1.07461 1.23214 1.13591
 O51 O 0.97826 0.85391 1.09534
 O52 O 0.97959 0.81609 1.12771
 C53 C 0.96800 0.82871 1.10480
 C54 C 0.94195 0.81456 1.08915
 C55 C 0.93149 0.78535 1.09705
 H56 H 0.94289 0.77252 1.11440
 O57 O 1.15230 1.12105 1.02036
 O58 O 1.18763 1.15651 1.02075
 C59 C 1.17748 1.13120 1.03004
 C60 C 1.19496 1.11384 1.05270
 C61 C 1.22293 1.12490 1.06282
 H62 H 1.23202 1.14568 1.05331
 O63 O 0.85301 0.90359 1.02517
 O64 O 0.81758 0.86830 1.02434
 C65 C 0.82899 0.89206 1.03595
 C66 C 0.81457 0.90521 1.06301
 C67 C 0.78863 0.89136 1.07468
 H68 H 0.77852 0.87227 1.06297
 O69 O 0.98085 1.10894 1.15379
 O70 O 0.98370 1.14304 1.18988
 C71 C 0.97169 1.11932 1.17873
 C72 C 0.94598 1.10460 1.19447
 C73 C 0.93386 1.11824 1.22014
 H74 H 0.94433 1.13863 1.22909
 O75 O 1.04020 0.89234 1.13458
 O76 O 1.04239 0.85488 1.16731
 C77 C 1.05237 0.88008 1.15726
 C78 C 1.07913 0.89482 1.17111
 C79 C 1.09231 0.88288 1.19720
 H80 H 1.08222 0.86340 1.20818
 O81 O 1.16248 0.97450 1.08884
 O82 O 1.20019 0.97269 1.12108
 C83 C 1.18785 0.96356 1.09713
 C84 C 1.20234 0.93903 1.07935
 C85 C 1.23075 0.92690 1.08757
 H86 H 1.24302 0.93685 1.10605
 O87 O 0.85691 1.03385 1.11558
 O88 O 0.82251 1.03200 1.15122
 C89 C 0.83258 1.04379 1.12726
 C90 C 0.81681 1.07002 1.11308
 C91 C 0.78901 1.08136 1.12423
 H92 H 0.77819 1.07030 1.14298
 O93 O 0.89897 1.16005 1.03941
 O94 O 0.86400 1.19605 1.04324
 C95 C 0.88933 1.18465 1.05114
 C96 C 0.90783 1.19943 1.07455
 C97 C 0.90307 1.23004 1.08304
 H98 H 0.88584 1.24343 1.07183
 O99 O 1.11259 0.85514 1.00969
 O100 O 1.14861 0.82016 1.00664
 C101 C 1.12434 0.83026 1.01857
 C102 C 1.11015 0.81335 1.04355
 C103 C 1.12282 0.78575 1.05345
 H104 H 1.14238 0.77629 1.04198
 O105 O 0.89880 1.03175 1.15563
 O106 O 0.86494 1.03024 1.19175
 C107 C 0.88898 1.04140 1.18062
 C108 C 0.90533 1.06666 1.19591
 C109 C 0.89355 1.08078 1.22188
 H110 H 0.87274 1.07250 1.23170
 O111 O 1.12235 0.97066 1.13047
 O112 O 1.15991 0.96839 1.16287
 C113 C 1.13469 0.95853 1.15313
 C114 C 1.11981 0.93257 1.16826
 C115 C 1.13297 0.91978 1.19379
 H116 H 1.15388 0.92905 1.20260
 O117 O 1.03759 0.85149 1.09301
 O118 O 1.03913 0.81385 1.12557
 C119 C 1.04846 0.82598 1.10159
 C120 C 1.07301 0.81096 1.08406
 C121 C 1.08615 0.78322 1.09367
 H122 H 1.07753 0.77237 1.11356
 O123 O 0.98065 1.15186 1.11438
 O124 O 0.98398 1.18625 1.15025
 C125 C 0.97228 1.17694 1.12600
 C126 C 0.94868 1.19535 1.11107
 C127 C 0.94401 1.22590 1.11902
 H128 H 0.95805 1.23616 1.13612
 O129 O 0.85735 1.11816 1.04056
 O130 O 0.82224 1.15400 1.04428
 C131 C 0.83331 1.12861 1.05257
 C132 C 0.81799 1.11160 1.07673
 C133 C 0.79068 1.12276 1.08845
 H134 H 0.78061 1.14335 1.07931
 O135 O 1.15515 0.89614 1.00838
 O136 O 1.19102 0.86103 1.00479
 C137 C 1.18079 0.88544 1.01633
 C138 C 1.19865 0.90091 1.03976
 C139 C 1.22726 0.88948 1.04791
 H140 H 1.23680 0.87004 1.03613
 O141 O 0.98100 0.89211 1.13948
 O142 O 0.98302 0.85455 1.17210
 C143 C 0.97213 0.88004 1.16373
 C144 C 0.94833 0.89527 1.18202
 C145 C 0.94032 0.88339 1.20998
 H146 H 0.95234 0.86365 1.21862
 O147 O 1.04025 1.10652 1.15001
 O148 O 1.04315 1.13982 1.18684
 C149 C 1.05215 1.11537 1.17424
 C150 C 1.07719 1.09726 1.18724
 C151 C 1.08627 1.10153 1.21696
 H152 H 1.07371 1.11741 1.23079
 O153 O 0.85592 0.97467 1.11296
 O154 O 0.82200 0.97197 1.14896
 C155 C 0.83171 0.96338 1.12356
 C156 C 0.81547 0.93953 1.10620
 C157 C 0.78908 0.92532 1.11740
 H158 H 0.77976 0.93222 1.13874
 O159 O 1.16040 1.03428 1.09270
 O160 O 1.19779 1.03255 1.12527
 C161 C 1.18525 1.04468 1.10264
 C162 C 1.19909 1.07166 1.08815
 C163 C 1.22711 1.08322 1.09805
 H164 H 1.23883 1.07182 1.11607
 O165 O 0.89438 0.86170 1.02049
 O166 O 0.85884 0.82644 1.02033
 C167 C 0.88416 0.83635 1.02971
 C168 C 0.90149 0.81842 1.05194
 C169 C 0.89204 0.78898 1.05953
 H170 H 0.87268 0.77900 1.04834
 O171 O 1.10781 1.15989 1.02385
 O172 O 1.14327 1.19524 1.02428
 C173 C 1.11914 1.18379 1.03502
 C174 C 1.10494 1.19777 1.06148
 C175 C 1.11402 1.22672 1.07082
 H176 H 1.13017 1.23945 1.05756
 Cu177 Cu 1.13826 1.00260 1.10873
 Cu178 Cu 1.18322 1.00007 1.14780
 Cu179 Cu 0.88137 1.00328 1.13024
 Cu180 Cu 0.84079 1.00072 1.17346
 Cu181 Cu 1.01012 1.12621 1.12914
 Cu182 Cu 1.01365 1.16678 1.17285
 Cu183 Cu 1.00905 0.87615 1.11237
 Cu184 Cu 1.01112 0.83112 1.15145
 C185 C 1.09268 1.07593 1.16942
 H186 H 1.08599 1.07281 1.14637
 C187 C 1.11086 1.08478 1.22875
 C188 C 0.93248 0.92080 1.17109
 H189 H 0.93830 0.92982 1.14936
 C190 C 0.91656 0.89622 1.22677
 C191 C 1.08395 1.18149 1.07869
 H192 H 1.07690 1.15901 1.07145
 C193 C 1.10355 1.23905 1.09766
 C194 C 0.92673 0.83089 1.06654
 H195 H 0.93409 0.85368 1.06075
 C196 C 0.90654 0.77250 1.08215
 C197 C 1.18336 1.08702 1.06529
 H198 H 1.16161 1.07857 1.05783
 C199 C 1.23924 1.10990 1.08536
 C200 C 0.82774 0.92944 1.07877
 H201 H 0.84821 0.93973 1.07013
 C202 C 0.77579 0.90096 1.10165
 C203 C 0.93175 1.07866 1.18269
 H204 H 0.94071 1.06843 1.16249
 C205 C 0.90774 1.10684 1.23393
 C206 C 1.09284 0.92001 1.15708
 H207 H 1.08293 0.92939 1.13696
 C208 C 1.11924 0.89539 1.20854
 C209 C 1.18657 0.92595 1.05532
 H210 H 1.16434 0.93462 1.04934
 C211 C 1.24323 0.90193 1.07198
 C212 C 0.83082 1.08511 1.08900
 H213 H 0.85226 1.07680 1.08033
 C214 C 0.77596 1.10786 1.11185
 C215 C 0.93072 1.18239 1.08868
 H216 H 0.93427 1.15869 1.08257
 C217 C 0.92135 1.24342 1.10527
 C218 C 1.08502 0.82560 1.05880
 H219 H 1.07543 0.84717 1.05157
 C220 C 1.11114 0.77045 1.07840
 O221 O 1.10117 0.98716 0.83934
 O222 O 1.13468 0.98916 0.80288
 C223 C 1.11070 0.97797 0.81417
 C224 C 1.09437 0.95329 0.79831
 C225 C 1.10255 0.94540 0.76912
 H226 H 1.11994 0.95831 0.75770
 O227 O 0.89030 1.04873 0.84977
 O228 O 0.85343 1.05090 0.81663
 C229 C 0.87869 1.06027 0.82632
 C230 C 0.89463 1.08534 0.81092
 C231 C 0.88667 1.09474 0.78185
 H232 H 0.86892 1.08294 0.76988
 O233 O 0.96718 1.16914 0.89699
 O234 O 0.96418 1.20604 0.86369
 C235 C 0.95519 1.19378 0.88779
 C236 C 0.92982 1.20749 0.90487
 C237 C 0.91302 1.23209 0.89313
 H238 H 0.91934 1.24160 0.87178
 O239 O 1.02887 0.85572 0.87693
 O240 O 1.02658 0.82230 0.84025
 C241 C 1.03866 0.83155 0.86432
 C242 C 1.06515 0.81528 0.87761
 C243 C 1.07895 0.78962 0.86377
 H244 H 1.06955 0.78024 0.84344
 O245 O 1.14980 0.89932 0.95060
 O246 O 1.18597 0.86450 0.94724
 C247 C 1.17409 0.88954 0.93868
 C248 C 1.18837 0.90730 0.91438
 C249 C 1.21656 0.89841 0.90255
 H250 H 1.22839 0.87893 0.91191
 O251 O 0.85469 1.12040 0.98235
 O252 O 0.81878 1.15548 0.98617
 C253 C 0.82944 1.13143 0.97397
 C254 C 0.81307 1.11674 0.94898
 C255 C 0.78352 1.12606 0.94143
 H256 H 0.77196 1.14327 0.95467
 O257 O 1.02567 1.13042 0.85267
 O258 O 1.02371 1.16755 0.81950
 C259 C 1.03456 1.14216 0.82837
 C260 C 1.05766 1.12605 0.81024
 C261 C 1.06451 1.13615 0.78141
 H262 H 1.05259 1.15573 0.77228
 O263 O 0.96798 0.90209 0.84354
 O264 O 0.96467 0.86874 0.80682
 C265 C 0.95575 0.89327 0.81940
 C266 C 0.93069 0.91161 0.80617
 C267 C 0.91786 0.90327 0.77862
 H268 H 0.92696 0.88385 0.76656
 O269 O 1.14510 1.04411 0.88075
 O270 O 1.17923 1.04608 0.84482
 C271 C 1.16950 1.05486 0.87012
 C272 C 1.18624 1.07799 0.88755
 C273 C 1.21662 1.08522 0.88108
 H274 H 1.22837 1.07384 0.86293
 O275 O 0.85043 0.98860 0.89104
 O276 O 0.81334 0.99136 0.85815
 C277 C 0.82484 0.97965 0.88142
 C278 C 0.80853 0.95496 0.89699
 C279 C 0.77913 0.94710 0.88821
 H280 H 0.76800 0.95998 0.87069
 O281 O 1.10971 1.16768 0.96598
 O282 O 1.14552 1.20259 0.96618
 C283 C 1.12037 1.19291 0.95651
 C284 C 1.10327 1.21055 0.93372
 C285 C 1.11290 1.23945 0.92347
 H286 H 1.13318 1.24978 0.93250
 O287 O 0.89163 0.86394 0.96268
 O288 O 0.85598 0.82881 0.96302
 C289 C 0.88057 0.83925 0.95256
 C290 C 0.89615 0.82217 0.92846
 C291 C 0.88735 0.79225 0.92195
 H292 H 0.86967 0.78158 0.93507
 O293 O 0.89251 0.98891 0.85055
 O294 O 0.85537 0.99109 0.81773
 C295 C 0.88027 0.97947 0.82671
 C296 C 0.89449 0.95415 0.80962
 C297 C 0.88244 0.94566 0.78195
 H298 H 0.86360 0.95847 0.77262
 O299 O 1.10221 1.04698 0.84168
 O300 O 1.13588 1.04907 0.80535
 C301 C 1.11187 1.05901 0.81774
 C302 C 1.09534 1.08531 0.80475
 C303 C 1.10224 1.09603 0.77599
 H304 H 1.11912 1.08422 0.76269
 O305 O 0.96984 0.85836 0.88202
 O306 O 0.96669 0.82436 0.84587
 C307 C 0.95802 0.83448 0.87114
 C308 C 0.93349 0.81931 0.88817
 C309 C 0.92359 0.78952 0.88127
 H310 H 0.93421 0.77683 0.86330
 O311 O 1.02617 1.17169 0.89394
 O312 O 1.02345 1.20910 0.86116
 C313 C 1.03521 1.19731 0.88425
 C314 C 1.06052 1.21286 0.89926
 C315 C 1.06957 1.24200 0.89018
 H316 H 1.05674 1.25412 0.87327
 O317 O 0.84947 0.90583 0.96642
 O318 O 0.81387 0.87070 0.96598
 C319 C 0.82439 0.89582 0.95654
 C320 C 0.80803 0.91347 0.93331
 C321 C 0.77866 0.90536 0.92370
 H322 H 0.76716 0.88634 0.93404
 O323 O 1.14624 1.12111 0.96249
 O324 O 1.18251 1.15562 0.96322
 C325 C 1.17104 1.13133 0.95256
 C326 C 1.18675 1.11486 0.92843
 C327 C 1.21716 1.12097 0.92246
 H328 H 1.22927 1.13746 0.93596
 O329 O 1.02668 0.90161 0.84066
 O330 O 1.02398 0.86879 0.80344
 C331 C 1.03508 0.89288 0.81496
 C332 C 1.05818 0.91101 0.79876
 C333 C 1.06718 0.90313 0.76963
 H334 H 1.05672 0.88392 0.75852
 O335 O 0.96719 1.13035 0.85333
 O336 O 0.96539 1.16732 0.81995
 C337 C 0.95644 1.14165 0.82947
 C338 C 0.93311 1.12494 0.81276
 C339 C 0.92560 1.13360 0.78367
 H340 H 0.93763 1.15223 0.77314
 O341 O 0.85427 1.04772 0.89575
 O342 O 0.81710 1.05018 0.86296
 C343 C 0.82906 1.05882 0.88738
 C344 C 0.81343 1.08193 0.90620
 C345 C 0.78403 1.09169 0.89898
 H346 H 0.77258 1.08158 0.88006
 O347 O 1.14531 0.98491 0.87717
 O348 O 1.17907 0.98685 0.84091
 C349 C 1.16954 0.97515 0.86504
 C350 C 1.18637 0.94947 0.87875
 C351 C 1.21481 0.94052 0.86754
 H352 H 1.22508 0.95308 0.84938
 O353 O 1.11074 0.85533 0.95120
 O354 O 1.14693 0.82050 0.94840
 C355 C 1.12167 0.83111 0.93963
 C356 C 1.10570 0.81568 0.91486
 C357 C 1.11914 0.79050 0.90071
 H358 H 1.14052 0.78148 0.90886
 O359 O 0.89445 1.16314 0.98132
 O360 O 0.85858 1.19820 0.98543
 C361 C 0.88225 1.18800 0.97272
 C362 C 0.89446 1.20453 0.94667
 C363 C 0.87804 1.22910 0.93464
 H364 H 0.85746 1.23694 0.94553
 Cu365 Cu 1.12002 1.01567 0.86331
 Cu366 Cu 1.16049 1.01797 0.81972
 Cu367 Cu 0.87566 1.01836 0.87495
 Cu368 Cu 0.83122 1.02119 0.83554
 Cu369 Cu 1.12544 1.13910 0.99304
 Cu370 Cu 1.16818 1.18104 0.99356
 Cu371 Cu 1.12841 0.87992 0.98035
 Cu372 Cu 1.17164 0.83799 0.97648
 Cu373 Cu 0.88000 1.13693 1.01071
 Cu374 Cu 0.83731 1.17943 1.01535
 Cu375 Cu 0.87550 0.88755 0.99353
 Cu376 Cu 0.83288 0.84519 0.99337
 Cu377 Cu 0.99675 1.14680 0.87773
 Cu378 Cu 0.99403 1.19142 0.83788
 Cu379 Cu 0.99869 0.88253 0.86452
 Cu380 Cu 0.99519 0.84264 0.82045
 C381 C 1.07191 0.93620 0.81285
 H382 H 1.06565 0.94209 0.83551
 C383 C 1.08945 0.92028 0.75479
 C384 C 0.91789 1.10058 0.82604
 H385 H 0.92369 1.09396 0.84860
 C386 C 0.90245 1.11884 0.76804
 C387 C 0.92051 1.19408 0.93184
 H388 H 0.93289 1.17470 0.94074
 C389 C 0.88692 1.24286 0.90792
 C390 C 1.07857 0.82761 0.90345
 H391 H 1.06857 0.84749 0.91407
 C392 C 1.10610 0.77731 0.87541
 C393 C 1.17348 0.93291 0.90235
 H394 H 1.15146 0.93960 0.91096
 C395 C 1.22980 0.91485 0.87901
 C396 C 0.82775 1.09448 0.93134
 H397 H 0.85064 1.08738 0.93682
 C398 C 0.76907 1.11394 0.91627
 C399 C 1.07299 1.10045 0.82164
 H400 H 1.06785 1.09259 0.84397
 C401 C 1.08677 1.12146 0.76420
 C402 C 0.91883 0.93719 0.82147
 H403 H 0.92809 0.94348 0.84298
 C404 C 0.89357 0.92016 0.76653
 C405 C 1.17153 1.09302 0.91125
 H406 H 1.14797 1.08812 0.91604
 C407 C 1.23214 1.10647 0.89891
 C408 C 0.82262 0.93834 0.91978
 H409 H 0.84542 0.94434 0.92648
 C410 C 0.76407 0.92233 0.90112
 C411 C 1.07709 1.19763 0.92136
 H412 H 1.07000 1.17511 0.92836
 C413 C 1.09577 1.25530 0.90183
 C414 C 0.91950 0.83537 0.91180
 H415 H 0.92640 0.85849 0.91694
 C416 C 0.90067 0.77583 0.89854
 O417 O 0.95751 0.40514 0.34726
 O418 O 0.95473 0.37185 0.31038
 C419 C 0.94695 0.39714 0.32217
 C420 C 0.92557 0.41757 0.30653
 C421 C 0.91960 0.41338 0.27613
 H422 H 0.93167 0.39562 0.26418
 O423 O 1.03112 0.62528 0.35687
 O424 O 1.03243 0.66315 0.32456
 C425 C 1.04144 0.63691 0.33297
 C426 C 1.06439 0.62013 0.31482
 C427 C 1.07488 0.63280 0.28809
 H428 H 1.06564 0.65446 0.28061
 O429 O 0.84103 0.49154 0.38785
 O430 O 0.80693 0.49587 0.35217
 C431 C 0.81647 0.48288 0.37571
 C432 C 0.79962 0.45671 0.38861
 C433 C 0.77494 0.44373 0.37340
 H434 H 0.76728 0.45380 0.35265
 O435 O 1.14334 0.53132 0.38526
 O436 O 1.17810 0.53085 0.34984
 C437 C 1.16872 0.54001 0.37519
 C438 C 1.18762 0.56097 0.39302
 C439 C 1.21776 0.56595 0.38485
 H440 H 1.22733 0.55395 0.36585
 O441 O 0.87418 0.36572 0.46199
 O442 O 0.83726 0.33194 0.46152
 C443 C 0.86232 0.34161 0.45148
 C444 C 0.87720 0.32485 0.42685
 C445 C 0.86425 0.29795 0.41600
 H446 H 0.84393 0.28904 0.42638
 O447 O 1.11696 0.64917 0.47359
 O448 O 1.15473 0.68191 0.47543
 C449 C 1.12926 0.67386 0.46500
 C450 C 1.11416 0.69316 0.44227
 C451 C 1.12822 0.71976 0.43173
 H452 H 1.14992 0.72665 0.44077
 O453 O 0.88656 0.55204 0.35278
 O454 O 0.85229 0.55702 0.31731
 C455 C 0.87729 0.56488 0.32902
 C456 C 0.89586 0.58922 0.31513
 C457 C 0.88992 0.59948 0.28589
 H458 H 0.87182 0.58918 0.27313
 O459 O 1.09821 0.47703 0.34187
 O460 O 1.13283 0.47598 0.30641
 C461 C 1.10806 0.46635 0.31738
 C462 C 1.09102 0.44160 0.30236
 C463 C 1.10117 0.42910 0.27515
 H464 H 1.12083 0.43864 0.26419
 O465 O 1.01364 0.35690 0.38469
 O466 O 1.01034 0.32277 0.34861
 C467 C 1.02206 0.33192 0.37291
 C468 C 1.04631 0.31383 0.38722
 C469 C 1.05224 0.28384 0.37799
 H470 H 1.03822 0.27358 0.36088
 O471 O 0.97432 0.66876 0.40052
 O472 O 0.97545 0.70645 0.36803
 C473 C 0.96452 0.69452 0.39145
 C474 C 0.93954 0.71001 0.40803
 C475 C 0.92837 0.73904 0.39952
 H476 H 0.93855 0.75104 0.38097
 O477 O 0.85053 0.62482 0.47628
 O478 O 0.81709 0.66232 0.47965
 C479 C 0.82618 0.63761 0.46762
 C480 C 0.80868 0.62360 0.44306
 C481 C 0.77930 0.63376 0.43617
 H482 H 0.76899 0.65183 0.44932
 O483 O 1.14052 0.39244 0.45905
 O484 O 1.17388 0.35484 0.45583
 C485 C 1.16433 0.38100 0.44772
 C486 C 1.18099 0.39801 0.42466
 C487 C 1.21123 0.39070 0.41871
 H488 H 1.22256 0.37321 0.43178
 O489 O 0.97224 0.62752 0.35931
 O490 O 0.97370 0.66493 0.32644
 C491 C 0.96249 0.63993 0.33563
 C492 C 0.93780 0.62537 0.31856
 C493 C 0.93185 0.63485 0.28937
 H494 H 0.94579 0.65238 0.27932
 O495 O 1.01590 0.39929 0.34472
 O496 O 1.01290 0.36520 0.30857
 C497 C 1.02501 0.38885 0.31977
 C498 C 1.05031 0.40386 0.30383
 C499 C 1.06038 0.39223 0.27641
 H500 H 1.04891 0.37291 0.26645
 O501 O 1.14215 0.47271 0.38012
 O502 O 1.17704 0.47218 0.34486
 C503 C 1.16647 0.46166 0.36912
 C504 C 1.18222 0.43648 0.38519
 C505 C 1.21254 0.42805 0.37877
 H506 H 1.22500 0.43970 0.36140
 O507 O 0.84493 0.55066 0.39359
 O508 O 0.81013 0.55543 0.35859
 C509 C 0.82091 0.56309 0.38381
 C510 C 0.80597 0.58703 0.40198
 C511 C 0.77661 0.59744 0.39530
 H512 H 0.76484 0.58776 0.37640
 O513 O 0.89426 0.66426 0.47841
 O514 O 0.86098 0.70184 0.48212
 C515 C 0.88484 0.69055 0.47062
 C516 C 0.90116 0.70791 0.44737
 C517 C 0.89122 0.73723 0.43940
 H518 H 0.87248 0.74779 0.45131
 O519 O 1.09889 0.35043 0.45695
 O520 O 1.13221 0.31283 0.45350
 C521 C 1.10762 0.32535 0.44525
 C522 C 1.08877 0.31073 0.42195
 C523 C 1.09457 0.28060 0.41234
 H524 H 1.11284 0.26779 0.42254
 O525 O 1.10295 0.53714 0.34389
 O526 O 1.13699 0.53686 0.30791
 C527 C 1.11370 0.54872 0.32015
 C528 C 1.09941 0.57698 0.30775
 C529 C 1.10957 0.59021 0.28078
 H530 H 1.12749 0.57917 0.26821
 O531 O 0.88467 0.49277 0.34955
 O532 O 0.85090 0.49761 0.31356
 C533 C 0.87462 0.48506 0.32417
 C534 C 0.89047 0.46080 0.30730
 C535 C 0.88446 0.45613 0.27694
 H536 H 0.86835 0.47080 0.26555
 O537 O 1.03400 0.66427 0.40063
 O538 O 1.03533 0.70206 0.36826
 C539 C 1.04580 0.68886 0.39132
 C540 C 1.07289 0.70115 0.40672
 C541 C 1.08710 0.72798 0.39673
 H542 H 1.07736 0.74061 0.37832
 O543 O 0.95438 0.35937 0.38401
 O544 O 0.95094 0.32572 0.34757
 C545 C 0.94192 0.33598 0.37254
 C546 C 0.91611 0.32143 0.38820
 C547 C 0.90302 0.29397 0.37783
 H548 H 0.91239 0.28241 0.35853
 O549 O 1.15468 0.60382 0.47033
 O550 O 1.19261 0.63637 0.47192
 C551 C 1.17980 0.61327 0.46021
 C552 C 1.19344 0.59726 0.43420
 C553 C 1.22342 0.60289 0.42487
 H554 H 1.23734 0.61908 0.43687
 O555 O 0.83470 0.40963 0.46294
 O556 O 0.79804 0.37563 0.46151
 C557 C 0.81009 0.39992 0.45171
 C558 C 0.79630 0.41625 0.42602
 C559 C 0.77166 0.40357 0.41044
 H560 H 0.76217 0.38234 0.41824
 Cu561 Cu 0.98553 0.38340 0.36895
 Cu562 Cu 0.98178 0.34290 0.32522
 Cu563 Cu 1.00287 0.64295 0.38283
 Cu564 Cu 1.00433 0.68800 0.34368
 Cu565 Cu 0.86764 0.52138 0.37451
 Cu566 Cu 0.82655 0.52705 0.33189
 Cu567 Cu 1.11799 0.50449 0.36601
 Cu568 Cu 1.15943 0.50413 0.32338
 C569 C 0.91117 0.44150 0.32189
 H570 H 0.91560 0.44469 0.34545
 C571 C 0.89879 0.43239 0.26122
 C572 C 1.07658 0.59209 0.32432
 H573 H 1.06883 0.58245 0.34519
 C574 C 1.09722 0.61824 0.27079
 C575 C 0.80980 0.44297 0.41508
 H576 H 0.82913 0.45250 0.42665
 C577 C 0.76079 0.41712 0.38398
 C578 C 1.17576 0.57627 0.41798
 H579 H 1.15244 0.57226 0.42442
 C580 C 1.23562 0.58687 0.40034
 C581 C 0.90322 0.33631 0.41302
 H582 H 0.91285 0.35750 0.42102
 C583 C 0.87693 0.28225 0.39183
 C584 C 1.08639 0.68426 0.42986
 H585 H 1.07582 0.66341 0.43749
 C586 C 1.11483 0.73742 0.40923
 C587 C 0.91995 0.60230 0.33121
 H588 H 0.92452 0.59489 0.35381
 C589 C 0.90811 0.62222 0.27287
 C590 C 1.06552 0.42880 0.31647
 H591 H 1.05797 0.43772 0.33777
 C592 C 1.08594 0.40427 0.26217
 C593 C 1.06449 0.32701 0.40934
 H594 H 1.06010 0.35031 0.41635
 C595 C 1.07628 0.26699 0.39025
 C596 C 0.92562 0.69473 0.43194
 H597 H 0.93333 0.67208 0.43812
 C598 C 0.90425 0.75277 0.41539
 C599 C 0.82164 0.60002 0.42606
 H600 H 0.84442 0.59227 0.43112
 C601 C 0.76287 0.62050 0.41268
 C602 C 1.16675 0.42117 0.40818
 H603 H 1.14334 0.42695 0.41301
 C604 C 1.22713 0.40540 0.39600
 O605 O 1.02378 0.38431 0.63698
 O606 O 1.02148 0.34620 0.66897
 C607 C 1.03374 0.37075 0.66011
 C608 C 1.06008 0.38333 0.67668
 C609 C 1.07062 0.36891 0.70271
 H610 H 1.05914 0.34884 0.71106
 O611 O 0.97606 0.60092 0.65129
 O612 O 0.97911 0.63530 0.68716
 C613 C 0.96706 0.61154 0.67613
 C614 C 0.94156 0.59704 0.69197
 C615 C 0.93436 0.60622 0.72100
 H616 H 0.94866 0.62262 0.73234
 O617 O 0.84539 0.53663 0.60898
 O618 O 0.81102 0.53719 0.64472
 C619 C 0.82165 0.54800 0.62052
 C620 C 0.80710 0.57447 0.60563
 C621 C 0.77883 0.58602 0.61509
 H622 H 0.76701 0.57515 0.63335
 O623 O 1.15020 0.45826 0.60306
 O624 O 1.18608 0.45329 0.63692
 C625 C 1.17422 0.44522 0.61230
 C626 C 1.18787 0.41997 0.59445
 C627 C 1.21496 0.40568 0.60355
 H628 H 1.22665 0.41416 0.62306
 O629 O 1.09770 0.34917 0.51444
 O630 O 1.13059 0.31118 0.51095
 C631 C 1.10654 0.32272 0.52199
 C632 C 1.08912 0.30544 0.54429
 C633 C 1.09756 0.27552 0.55142
 H634 H 1.11614 0.26456 0.53963
 O635 O 0.89543 0.65885 0.53629
 O636 O 0.86243 0.69671 0.54000
 C637 C 0.88650 0.68335 0.54872
 C638 C 0.90402 0.69585 0.57400
 C639 C 0.89624 0.72419 0.58675
 H640 H 0.87795 0.73756 0.57724
 O641 O 0.88561 0.47357 0.64455
 O642 O 0.85252 0.47351 0.68146
 C643 C 0.87638 0.46283 0.66911
 C644 C 0.89399 0.43786 0.68319
 C645 C 0.88935 0.42991 0.71316
 H646 H 0.87252 0.44201 0.72632
 O647 O 1.11395 0.51801 0.64867
 O648 O 1.14983 0.51414 0.68264
 C649 C 1.12581 0.52689 0.67300
 C650 C 1.11190 0.55325 0.68904
 C651 C 1.12652 0.56755 0.71341
 H652 H 1.14771 0.55851 0.72191
 O653 O 0.95916 0.35155 0.59542
 O654 O 0.95696 0.31366 0.62766
 C655 C 0.94668 0.32721 0.60474
 C656 C 0.91962 0.31493 0.58910
 C657 C 0.90736 0.28642 0.59717
 H658 H 0.91836 0.27288 0.61423
 O659 O 1.03565 0.64091 0.60963
 O660 O 1.03745 0.67589 0.64507
 C661 C 1.04649 0.66544 0.62014
 C662 C 1.06982 0.68224 0.60344
 C663 C 1.07446 0.71312 0.60955
 H664 H 1.06037 0.72467 0.62595
 O665 O 0.83445 0.40770 0.52175
 O666 O 0.79735 0.37419 0.52008
 C667 C 0.80932 0.39773 0.53150
 C668 C 0.79448 0.41258 0.55733
 C669 C 0.76555 0.40339 0.56634
 H670 H 0.75320 0.38688 0.55310
 O671 O 1.15576 0.59999 0.52871
 O672 O 1.19296 0.63335 0.53056
 C673 C 1.18103 0.60860 0.53931
 C674 C 1.19664 0.59026 0.56254
 C675 C 1.22624 0.59771 0.57097
 H676 H 1.23798 0.61595 0.55950
 O677 O 1.03584 0.59949 0.65101
 O678 O 1.03817 0.63456 0.68626
 C679 C 1.04758 0.60973 0.67492
 C680 C 1.07338 0.59371 0.68924
 C681 C 1.08837 0.60763 0.71313
 H682 H 1.08014 0.62925 0.72186
 O683 O 0.96512 0.39165 0.63739
 O684 O 0.96311 0.35407 0.67007
 C685 C 0.95502 0.38056 0.66149
 C686 C 0.93329 0.39844 0.67951
 C687 C 0.92896 0.39139 0.70959
 H688 H 0.94222 0.37334 0.71988
 O689 O 1.15374 0.51760 0.60633
 O690 O 1.19005 0.51322 0.63983
 C691 C 1.17931 0.52580 0.61650
 C692 C 1.19605 0.55059 0.60102
 C693 C 1.22555 0.55922 0.60983
 H694 H 1.23677 0.54744 0.62798
 O695 O 0.84028 0.47769 0.60816
 O696 O 0.80628 0.47721 0.64418
 C697 C 0.81547 0.46791 0.61888
 C698 C 0.79770 0.44548 0.60131
 C699 C 0.76902 0.43499 0.61074
 H700 H 0.75918 0.44334 0.63135
 O701 O 1.11634 0.64407 0.53118
 O702 O 1.15301 0.67805 0.53322
 C703 C 1.12766 0.66799 0.54249
 C704 C 1.11058 0.68379 0.56652
 C705 C 1.11576 0.71468 0.57380
 H706 H 1.13314 0.72746 0.56225
 O707 O 0.87498 0.36444 0.51999
 O708 O 0.83791 0.33086 0.51911
 C709 C 0.86332 0.33974 0.52924
 C710 C 0.87917 0.32120 0.55218
 C711 C 0.86772 0.29254 0.56023
 H712 H 0.84771 0.28378 0.54918
 O713 O 1.10892 0.45871 0.64401
 O714 O 1.14433 0.45394 0.67837
 C715 C 1.11902 0.44577 0.66730
 C716 C 1.10147 0.42028 0.68072
 C717 C 1.11139 0.40566 0.70692
 H718 H 1.13174 0.41359 0.71788
 O719 O 0.88640 0.53238 0.64993
 O720 O 0.85269 0.53300 0.68626
 C721 C 0.87758 0.54215 0.67523
 C722 C 0.89677 0.56439 0.69151
 C723 C 0.88928 0.57472 0.72045
 H724 H 0.86916 0.56628 0.73149
 O725 O 0.97678 0.64582 0.61333
 O726 O 0.97945 0.67981 0.64959
 C727 C 0.96807 0.67083 0.62519
 C728 C 0.94412 0.68963 0.61103
 C729 C 0.93636 0.71822 0.62313
 H730 H 0.94861 0.72692 0.64226
 O731 O 1.01845 0.34670 0.59253
 O732 O 1.01635 0.30857 0.62451
 C733 C 1.02704 0.32038 0.60088
 C734 C 1.05051 0.30411 0.58333
 C735 C 1.06007 0.27445 0.59098
 H736 H 1.04952 0.26261 0.60944
 O737 O 1.14378 0.38544 0.51733
 O738 O 1.17693 0.34775 0.51376
 C739 C 1.16785 0.37213 0.52632
 C740 C 1.18491 0.38458 0.55218
 C741 C 1.21221 0.37081 0.56155
 H742 H 1.22156 0.35170 0.54913
 O743 O 0.85128 0.62042 0.53425
 O744 O 0.81817 0.65824 0.53742
 C745 C 0.82744 0.63207 0.54557
 C746 C 0.81044 0.61548 0.56884
 C747 C 0.78246 0.62681 0.57875
 H748 H 0.77294 0.64719 0.56865
 Cu749 Cu 0.99190 0.37219 0.61224
 Cu750 Cu 0.98912 0.32677 0.65095
 Cu751 Cu 1.00577 0.61816 0.62781
 Cu752 Cu 1.00888 0.65967 0.67071
 Cu753 Cu 0.85813 0.39047 0.49181
 Cu754 Cu 0.81382 0.34991 0.49061
 Cu755 Cu 1.11709 0.37328 0.48714
 Cu756 Cu 1.15689 0.32802 0.48319
 Cu757 Cu 0.87622 0.63831 0.50587
 Cu758 Cu 0.83636 0.68361 0.51009
 Cu759 Cu 1.13230 0.62090 0.50076
 Cu760 Cu 1.17723 0.66057 0.50314
 Cu761 Cu 0.86765 0.50505 0.62433
 Cu762 Cu 0.82714 0.50514 0.66775
 Cu763 Cu 1.12816 0.48865 0.62227
 Cu764 Cu 1.17111 0.48312 0.66290
 C765 C 1.07552 0.40912 0.66605
 H766 H 1.06781 0.42001 0.64573
 C767 C 1.09592 0.38001 0.71818
 C768 C 0.92299 0.57579 0.67755
 H769 H 0.92856 0.56874 0.65503
 C770 C 0.90826 0.59564 0.73525
 C771 C 0.82247 0.58917 0.58218
 H772 H 0.84438 0.58070 0.57486
 C773 C 0.76638 0.61219 0.60146
 C774 C 1.17311 0.40926 0.56868
 H775 H 1.15195 0.41975 0.56179
 C776 C 1.22718 0.38085 0.58737
 C777 C 1.06517 0.31935 0.55987
 H778 H 1.05868 0.34257 0.55442
 C779 C 1.08362 0.26020 0.57496
 C780 C 0.92805 0.67877 0.58628
 H781 H 0.93382 0.65663 0.57699
 C782 C 0.91230 0.73542 0.61148
 C783 C 0.91612 0.42200 0.66655
 H784 H 0.91952 0.42751 0.64324
 C785 C 0.90701 0.40679 0.72640
 C786 C 1.08506 0.56639 0.67755
 H787 H 1.07388 0.55604 0.65859
 C788 C 1.11476 0.59499 0.72525
 C789 C 0.90531 0.33210 0.56655
 H790 H 0.91423 0.35425 0.56050
 C791 C 0.88138 0.27511 0.58274
 C792 C 1.08757 0.66781 0.58162
 H793 H 1.08368 0.64392 0.57667
 C794 C 1.09719 0.72941 0.59503
 C795 C 0.81011 0.43399 0.57459
 H796 H 0.83251 0.44106 0.56757
 C797 C 0.75283 0.41401 0.59303
 C798 C 1.18187 0.56638 0.57736
 H799 H 1.15896 0.56057 0.57086
 C800 C 1.24076 0.58272 0.59457
 O801 O 0.46133 0.88962 0.34622
 O802 O 0.46064 0.85426 0.31121
 C803 C 0.45045 0.87907 0.32212
 C804 C 0.42494 0.89566 0.30773
 C805 C 0.41517 0.88900 0.27846
 H806 H 0.42703 0.87188 0.26541
 O807 O 0.52937 1.09497 0.35385
 O808 O 0.53250 1.12882 0.31770
 C809 C 0.54158 1.10421 0.32984
 C810 C 0.56757 1.08687 0.31690
 C811 C 0.58150 1.09629 0.29009
 H812 H 0.57244 1.11562 0.27790
 O813 O 0.33856 0.96580 0.39746
 O814 O 0.30273 0.96704 0.36326
 C815 C 0.31381 0.95570 0.38698
 C816 C 0.29866 0.92984 0.40233
 C817 C 0.26902 0.92048 0.39483
 H818 H 0.25636 0.93290 0.37806
 O819 O 0.65101 1.01296 0.40514
 O820 O 0.68778 1.01049 0.37187
 C821 C 0.67615 1.02253 0.39494
 C822 C 0.69138 1.04924 0.40842
 C823 C 0.71645 1.06182 0.39387
 H824 H 0.72569 1.05056 0.37429
 O825 O 0.38835 0.84296 0.47293
 O826 O 0.35335 0.80715 0.47202
 C827 C 0.37804 0.81832 0.46234
 C828 C 0.39432 0.80291 0.43787
 C829 C 0.38781 0.77254 0.43108
 H830 H 0.37188 0.76001 0.44477
 O831 O 0.60633 1.13791 0.47716
 O832 O 0.64149 1.17352 0.47780
 C833 C 0.61698 1.16266 0.46719
 C834 C 0.60127 1.17862 0.44250
 C835 C 0.60957 1.20843 0.43505
 H836 H 0.62648 1.22025 0.44821
 O837 O 0.38258 1.02469 0.35849
 O838 O 0.34682 1.02650 0.32416
 C839 C 0.37217 1.03565 0.33440
 C840 C 0.38933 1.05944 0.31807
 C841 C 0.37744 1.07129 0.29161
 H842 H 0.35605 1.06278 0.28315
 O843 O 0.60928 0.95455 0.36209
 O844 O 0.64664 0.95333 0.32938
 C845 C 0.62081 0.94438 0.33799
 C846 C 0.60451 0.92178 0.31959
 C847 C 0.61856 0.90959 0.29423
 H848 H 0.64111 0.91705 0.28806
 O849 O 0.51878 0.84796 0.38948
 O850 O 0.51851 0.81237 0.35461
 C851 C 0.52830 0.82261 0.37940
 C852 C 0.55112 0.80466 0.39620
 C853 C 0.56247 0.77780 0.38354
 H854 H 0.55435 0.77034 0.36191
 O855 O 0.47115 1.14194 0.39158
 O856 O 0.47431 1.17599 0.35555
 C857 C 0.46281 1.16712 0.38004
 C858 C 0.43919 1.18603 0.39491
 C859 C 0.43211 1.21521 0.38408
 H860 H 0.44461 1.22428 0.36528
 O861 O 0.34841 1.11392 0.46973
 O862 O 0.31451 1.15108 0.46764
 C863 C 0.32437 1.12532 0.45875
 C864 C 0.30769 1.10901 0.43509
 C865 C 0.28262 1.12315 0.42175
 H866 H 0.27532 1.14561 0.42915
 O867 O 0.63758 0.86984 0.47934
 O868 O 0.66982 0.83119 0.48043
 C869 C 0.66192 0.85704 0.47025
 C870 C 0.68072 0.87227 0.44726
 C871 C 0.70803 0.85911 0.43700
 H872 H 0.71600 0.83777 0.44647
 O873 O 0.46938 1.09840 0.35239
 O874 O 0.47201 1.13222 0.31618
 C875 C 0.45953 1.10892 0.32781
 C876 C 0.43236 1.09459 0.31373
 C877 C 0.42011 1.10567 0.28664
 H878 H 0.43124 1.12402 0.27482
 O879 O 0.52133 0.88666 0.34659
 O880 O 0.52118 0.85156 0.31133
 C881 C 0.53270 0.87527 0.32297
 C882 C 0.56088 0.88883 0.31069
 C883 C 0.57520 0.87720 0.28474
 H884 H 0.56460 0.85926 0.27184
 O885 O 0.64882 0.95227 0.40558
 O886 O 0.68562 0.95068 0.37231
 C887 C 0.67329 0.94045 0.39582
 C888 C 0.68665 0.91365 0.41129
 C889 C 0.71400 0.90034 0.40143
 H890 H 0.72589 0.91055 0.38287
 O891 O 0.33952 1.02645 0.39731
 O892 O 0.30350 1.02753 0.36327
 C893 C 0.31535 1.03822 0.38681
 C894 C 0.30211 1.06590 0.40088
 C895 C 0.27644 1.08026 0.38830
 H896 H 0.26494 1.06996 0.36950
 O897 O 0.39131 1.15388 0.46945
 O898 O 0.35760 1.19116 0.46706
 C899 C 0.38194 1.17856 0.45779
 C900 C 0.39937 1.19189 0.43266
 C901 C 0.39220 1.22091 0.42104
 H902 H 0.37429 1.23436 0.43119
 O903 O 0.59011 0.83471 0.47701
 O904 O 0.62266 0.79636 0.47769
 C905 C 0.59970 0.80968 0.46620
 C906 C 0.58506 0.79713 0.43895
 C907 C 0.59566 0.76976 0.42586
 H908 H 0.61353 0.75669 0.43649
 O909 O 0.60986 1.01350 0.36416
 O910 O 0.64681 1.01189 0.33099
 C911 C 0.62182 1.02310 0.34022
 C912 C 0.60703 1.04776 0.32289
 C913 C 0.62058 1.05777 0.29649
 H914 H 0.64131 1.04697 0.28870
 O915 O 0.37915 0.96603 0.35503
 O916 O 0.34326 0.96779 0.32083
 C917 C 0.36823 0.95706 0.33029
 C918 C 0.38470 0.93397 0.31231
 C919 C 0.37574 0.92768 0.28300
 H920 H 0.35686 0.94016 0.27336
 O921 O 0.52991 1.13812 0.39357
 O922 O 0.53311 1.17246 0.35782
 C923 C 0.54174 1.16221 0.38301
 C924 C 0.56566 1.17820 0.40045
 C925 C 0.57536 1.20778 0.39266
 H926 H 0.56560 1.21928 0.37354
 O927 O 0.46089 0.84729 0.38697
 O928 O 0.46024 0.81154 0.35228
 C929 C 0.45084 0.82213 0.37704
 C930 C 0.42848 0.80501 0.39502
 C931 C 0.42098 0.77465 0.38798
 H932 H 0.43129 0.76353 0.36889
 O933 O 0.65075 1.09882 0.47782
 O934 O 0.68619 1.13411 0.47751
 C935 C 0.67554 1.10926 0.46749
 C936 C 0.69130 1.09241 0.44307
 C937 C 0.71665 1.10480 0.42794
 H938 H 0.72561 1.12676 0.43455
 O939 O 0.34370 0.88202 0.47192
 O940 O 0.30881 0.84609 0.47117
 C941 C 0.31899 0.87135 0.46174
 C942 C 0.30175 0.88856 0.43892
 C943 C 0.27207 0.88004 0.43170
 H944 H 0.26169 0.86097 0.44313
 Cu945 Cu 0.49030 0.87193 0.37031
 Cu946 Cu 0.49006 0.82906 0.32859
 Cu947 Cu 0.49968 1.11479 0.37618
 Cu948 Cu 0.50334 1.15552 0.33300
 Cu949 Cu 0.36316 0.99528 0.38087
 Cu950 Cu 0.32034 0.99738 0.33964
 Cu951 Cu 0.62629 0.98318 0.38798
 Cu952 Cu 0.67054 0.98147 0.34802
 C953 C 0.40948 0.91817 0.32431
 H954 H 0.41639 0.92305 0.34699
 C955 C 0.39062 0.90533 0.26590
 C956 C 0.58037 1.06224 0.33288
 H957 H 0.57018 1.05499 0.35367
 C958 C 0.60815 1.08173 0.27995
 C959 C 0.31469 0.91364 0.42441
 H960 H 0.33763 0.92024 0.43002
 C961 C 0.25554 0.89561 0.40975
 C962 C 0.67913 1.06446 0.43316
 H963 H 0.65931 1.05506 0.44400
 C964 C 0.72903 1.08953 0.40295
 C965 C 0.41500 0.81892 0.42007
 H966 H 0.42006 0.84250 0.42536
 C967 C 0.40072 0.75839 0.40618
 C968 C 0.57890 1.16384 0.42544
 H969 H 0.57226 1.14083 0.43126
 C970 C 0.59704 1.22297 0.41023
 C971 C 0.41687 1.07110 0.32896
 H972 H 0.42578 1.06245 0.34982
 C973 C 0.39249 1.09403 0.27570
 C974 C 0.57561 0.91157 0.32749
 H975 H 0.56511 0.92058 0.34752
 C976 C 0.60424 0.88765 0.27663
 C977 C 0.56241 0.81423 0.42402
 H978 H 0.55421 0.83546 0.43358
 C979 C 0.58443 0.76032 0.39802
 C980 C 0.42294 1.17473 0.41942
 H981 H 0.42825 1.15213 0.42778
 C982 C 0.40864 1.23270 0.39673
 C983 C 0.31729 1.08028 0.42465
 H984 H 0.33725 1.06968 0.43428
 C985 C 0.26691 1.10905 0.39859
 C986 C 0.67057 0.89970 0.43451
 H987 H 0.64933 0.90966 0.44195
 C988 C 0.72509 0.87314 0.41436
 O989 O 0.51237 0.88787 0.65803
 O990 O 0.50953 0.85393 0.69420
 C991 C 0.52111 0.87784 0.68315
 C992 C 0.54582 0.89348 0.69909
 C993 C 0.55344 0.88514 0.72828
 H994 H 0.54005 0.86811 0.73976
 O995 O 0.45854 1.10840 0.64612
 O996 O 0.45942 1.14232 0.68251
 C997 C 0.44825 1.11851 0.67072
 C998 C 0.42288 1.10239 0.68541
 C999 C 0.41353 1.11012 0.71451
 H1000 H 0.42542 1.12774 0.72665
 O1001 O 0.33964 1.02968 0.60020
 O1002 O 0.30194 1.03148 0.63254
 C1003 C 0.31464 1.04110 0.60899
 C1004 C 0.30031 1.06645 0.59245
 C1005 C 0.27034 1.07462 0.59885
 H1006 H 0.25734 1.06124 0.61462
 O1007 O 0.63719 0.95623 0.61333
 O1008 O 0.67205 0.95525 0.64852
 C1009 C 0.66104 0.94458 0.62439
 C1010 C 0.67553 0.91817 0.60893
 C1011 C 0.70497 0.90810 0.61634
 H1012 H 0.71767 0.92005 0.63334
 O1013 O 0.59034 0.83239 0.53626
 O1014 O 0.62252 0.79376 0.53733
 C1015 C 0.59909 0.80715 0.54747
 C1016 C 0.58286 0.79440 0.57370
 C1017 C 0.59241 0.76681 0.58714
 H1018 H 0.61088 0.75385 0.57737
 O1019 O 0.38864 1.15713 0.52782
 O1020 O 0.35437 1.19390 0.52575
 C1021 C 0.37819 1.18253 0.53713
 C1022 C 0.39325 1.19824 0.56228
 C1023 C 0.38337 1.22707 0.57206
 H1024 H 0.36561 1.23896 0.55998
 O1025 O 0.37546 0.96940 0.64555
 O1026 O 0.33747 0.97177 0.67753
 C1027 C 0.36242 0.96009 0.66913
 C1028 C 0.37578 0.93474 0.68647
 C1029 C 0.36044 0.92302 0.71131
 H1030 H 0.33934 0.93347 0.71854
 O1031 O 0.59724 1.01946 0.65029
 O1032 O 0.63121 1.01905 0.68635
 C1033 C 0.60710 1.03004 0.67472
 C1034 C 0.59019 1.05520 0.68970
 C1035 C 0.59759 1.06394 0.71897
 H1036 H 0.61570 1.05230 0.73074
 O1037 O 0.45539 0.84585 0.61535
 O1038 O 0.45374 0.81100 0.65084
 C1039 C 0.44531 0.82087 0.62555
 C1040 C 0.42375 0.80294 0.60776
 C1041 C 0.41843 0.77236 0.61478
 H1042 H 0.43057 0.76173 0.63309
 O1043 O 0.52162 1.14658 0.60802
 O1044 O 0.52285 1.18045 0.64442
 C1045 C 0.53374 1.16957 0.62032
 C1046 C 0.56172 1.18291 0.60753
 C1047 C 0.57681 1.20591 0.62322
 H1048 H 0.56719 1.21480 0.64376
 O1049 O 0.34512 0.88469 0.52927
 O1050 O 0.30962 0.84936 0.52834
 C1051 C 0.31972 0.87471 0.53794
 C1052 C 0.30158 0.89294 0.55907
 C1053 C 0.27131 0.88553 0.56443
 H1054 H 0.26115 0.86636 0.55290
 O1055 O 0.64711 1.09672 0.53583
 O1056 O 0.68342 1.13112 0.53607
 C1057 C 0.67192 1.10663 0.54621
 C1058 C 0.68682 1.08972 0.57082
 C1059 C 0.71518 1.09876 0.58201
 H1060 H 0.72696 1.11757 0.57164
 O1061 O 0.51744 1.10412 0.64764
 O1062 O 0.51810 1.13799 0.68410
 C1063 C 0.52735 1.11296 0.67279
 C1064 C 0.55041 1.09458 0.68893
 C1065 C 0.55760 1.10210 0.71846
 H1066 H 0.54540 1.12035 0.72972
 O1067 O 0.45293 0.88852 0.65533
 O1068 O 0.45010 0.85382 0.69079
 C1069 C 0.44056 0.87833 0.67888
 C1070 C 0.41409 0.89471 0.69165
 C1071 C 0.39848 0.88326 0.71665
 H1072 H 0.40657 0.86266 0.72737
 O1073 O 0.64229 1.01598 0.61337
 O1074 O 0.67681 1.01519 0.64888
 C1075 C 0.66716 1.02551 0.62422
 C1076 C 0.68449 1.04956 0.60858
 C1077 C 0.71298 1.05863 0.61918
 H1078 H 0.72298 1.04697 0.63811
 O1079 O 0.33762 0.96993 0.60163
 O1080 O 0.29964 0.97201 0.63364
 C1081 C 0.31205 0.96045 0.61064
 C1082 C 0.29737 0.93506 0.59455
 C1083 C 0.26717 0.92679 0.60038
 H1084 H 0.25384 0.93966 0.61639
 O1085 O 0.60816 1.14126 0.53553
 O1086 O 0.64420 1.17593 0.53644
 C1087 C 0.61927 1.16567 0.54635
 C1088 C 0.60358 1.18139 0.57152
 C1089 C 0.61800 1.20509 0.58742
 H1090 H 0.64020 1.21295 0.58062
 O1091 O 0.38317 0.83959 0.53126
 O1092 O 0.34840 0.80361 0.53031
 C1093 C 0.37237 0.81471 0.54135
 C1094 C 0.38774 0.79939 0.56668
 C1095 C 0.38174 0.76876 0.57464
 H1096 H 0.36570 0.75538 0.56192
 O1097 O 0.59751 0.96052 0.65619
 O1098 O 0.63215 0.95980 0.69162
 C1099 C 0.60701 0.95077 0.68127
 C1100 C 0.58861 0.92848 0.69812
 C1101 C 0.59632 0.91959 0.72738
 H1102 H 0.61565 0.92987 0.73822
 O1103 O 0.37870 1.02858 0.64314
 O1104 O 0.34121 1.03078 0.67571
 C1105 C 0.36699 1.03973 0.66661
 C1106 C 0.38342 1.06356 0.68326
 C1107 C 0.37460 1.07128 0.71228
 H1108 H 0.35594 1.05928 0.72267
 O1109 O 0.46233 1.15330 0.60856
 O1110 O 0.46324 1.18750 0.64463
 C1111 C 0.45292 1.17835 0.61979
 C1112 C 0.42920 1.19612 0.60371
 C1113 C 0.41822 1.22467 0.61399
 H1114 H 0.42763 1.23485 0.63394
 O1115 O 0.51359 0.84531 0.61777
 O1116 O 0.51174 0.81125 0.65393
 C1117 C 0.52278 0.82051 0.62937
 C1118 C 0.54646 0.80204 0.61429
 C1119 C 0.55644 0.77478 0.62731
 H1120 H 0.54657 0.76731 0.64820
 O1121 O 0.63167 0.87361 0.53674
 O1122 O 0.66479 0.83569 0.53792
 C1123 C 0.65549 0.86157 0.54741
 C1124 C 0.67249 0.87781 0.57107
 C1125 C 0.70192 0.86850 0.57847
 H1126 H 0.71225 0.84951 0.56662
 O1127 O 0.34674 1.11583 0.52719
 O1128 O 0.31197 1.15215 0.52531
 C1129 C 0.32161 1.12695 0.53590
 C1130 C 0.30373 1.10978 0.55830
 C1131 C 0.27389 1.11847 0.56609
 H1132 H 0.26352 1.13848 0.55613
 Cu1133 Cu 0.48374 0.87068 0.63325
 Cu1134 Cu 0.48110 0.82920 0.67624
 Cu1135 Cu 0.48962 1.12488 0.62383
 Cu1136 Cu 0.49104 1.16561 0.66743
 Cu1137 Cu 0.36880 0.86562 0.50142
 Cu1138 Cu 0.32671 0.82280 0.50048
 Cu1139 Cu 0.60898 0.85613 0.50700
 Cu1140 Cu 0.64785 0.81019 0.50869
 Cu1141 Cu 0.37240 1.13171 0.49889
 Cu1142 Cu 0.33131 1.17593 0.49627
 Cu1143 Cu 0.62464 1.11525 0.50654
 Cu1144 Cu 0.66730 1.15723 0.50696
 Cu1145 Cu 0.36160 0.99912 0.61929
 Cu1146 Cu 0.31621 1.00192 0.65805
 Cu1147 Cu 0.61530 0.98792 0.62972
 Cu1148 Cu 0.65658 0.98739 0.67224
 C1149 C 0.56325 0.91540 0.68436
 H1150 H 0.55756 0.92163 0.66167
 C1151 C 0.57868 0.89780 0.74260
 C1152 C 0.40772 1.07901 0.67006
 H1153 H 0.41450 1.07315 0.64754
 C1154 C 0.38936 1.09448 0.72805
 C1155 C 0.31672 1.08376 0.57181
 H1156 H 0.33991 1.07728 0.56677
 C1157 C 0.25714 1.10059 0.58625
 C1158 C 0.65957 0.90282 0.58621
 H1159 H 0.63679 0.91013 0.58051
 C1160 C 0.71833 0.88334 0.60091
 C1161 C 0.55957 0.81159 0.58735
 H1162 H 0.55226 0.83296 0.57750
 C1163 C 0.57916 0.75696 0.61407
 C1164 C 0.41646 1.18335 0.57789
 H1165 H 0.42407 1.16111 0.57028
 C1166 C 0.39541 1.24036 0.59793
 C1167 C 0.40275 0.92072 0.67706
 H1168 H 0.41434 0.92943 0.65757
 C1169 C 0.37154 0.89745 0.72661
 C1170 C 0.56649 1.07072 0.67480
 H1171 H 0.56103 1.06473 0.65199
 C1172 C 0.58126 1.08733 0.73337
 C1173 C 0.40873 0.81614 0.58350
 H1174 H 0.41305 0.83981 0.57803
 C1175 C 0.39759 0.75517 0.59852
 C1176 C 0.57521 1.17078 0.58161
 H1177 H 0.56414 1.15230 0.56989
 C1178 C 0.60478 1.21699 0.61354
 C1179 C 0.31434 0.91798 0.57384
 H1180 H 0.33782 0.92375 0.56966
 C1181 C 0.25411 0.90205 0.58512
 C1182 C 0.67179 1.06500 0.58418
 H1183 H 0.64964 1.05829 0.57615
 C1184 C 0.72832 1.08333 0.60637
 O1185 O 0.48349 0.37594 0.86229
 O1186 O 0.48343 0.33984 0.82795
 C1187 C 0.47311 0.36485 0.83820
 C1188 C 0.44836 0.38072 0.82218
 C1189 C 0.43879 0.36991 0.79430
 H1190 H 0.45031 0.35058 0.78415
 O1191 O 0.54094 0.59654 0.85339
 O1192 O 0.54153 0.62941 0.81621
 C1193 C 0.55177 0.60541 0.82869
 C1194 C 0.57730 0.58806 0.81525
 C1195 C 0.58907 0.59577 0.78711
 H1196 H 0.57879 0.61426 0.77467
 O1197 O 0.36198 0.45957 0.90172
 O1198 O 0.32684 0.45701 0.86688
 C1199 C 0.33762 0.44814 0.89172
 C1200 C 0.32219 0.42359 0.90862
 C1201 C 0.29375 0.41276 0.89940
 H1202 H 0.28246 0.42384 0.88094
 O1203 O 0.66145 0.51863 0.90541
 O1204 O 0.69832 0.51458 0.87237
 C1205 C 0.68692 0.52730 0.89520
 C1206 C 0.70299 0.55333 0.90890
 C1207 C 0.73151 0.56187 0.89809
 H1208 H 0.74254 0.54814 0.88107
 O1209 O 0.40380 0.33762 0.98493
 O1210 O 0.36888 0.30184 0.98593
 C1211 C 0.39340 0.31246 0.97528
 C1212 C 0.40980 0.29613 0.95087
 C1213 C 0.40022 0.26730 0.94051
 H1214 H 0.38087 0.25620 0.95059
 O1215 O 0.61899 0.64787 0.97138
 O1216 O 0.65456 0.68301 0.96966
 C1217 C 0.63021 0.67147 0.95947
 C1218 C 0.61559 0.68489 0.93273
 C1219 C 0.62915 0.70967 0.91837
 H1220 H 0.64957 0.71971 0.92748
 O1221 O 0.40349 0.51676 0.85774
 O1222 O 0.36850 0.51397 0.82274
 C1223 C 0.39297 0.52533 0.83276
 C1224 C 0.40873 0.54925 0.81540
 C1225 C 0.39909 0.55612 0.78645
 H1226 H 0.38097 0.54297 0.77646
 O1227 O 0.61953 0.45842 0.86551
 O1228 O 0.65647 0.45584 0.83233
 C1229 C 0.63087 0.44713 0.84182
 C1230 C 0.61446 0.42354 0.82499
 C1231 C 0.62195 0.41785 0.79522
 H1232 H 0.63921 0.43152 0.78445
 O1233 O 0.54233 0.33311 0.90260
 O1234 O 0.54277 0.29742 0.86785
 C1235 C 0.55259 0.30800 0.89230
 C1236 C 0.57660 0.29158 0.90888
 C1237 C 0.59237 0.26673 0.89616
 H1238 H 0.58627 0.25886 0.87408
 O1239 O 0.48236 0.64082 0.89211
 O1240 O 0.48268 0.67444 0.85554
 C1241 C 0.47244 0.66525 0.88051
 C1242 C 0.44834 0.68280 0.89592
 C1243 C 0.44066 0.71218 0.88613
 H1244 H 0.45304 0.72246 0.86785
 O1245 O 0.35595 0.60622 0.96890
 O1246 O 0.32168 0.64287 0.96592
 C1247 C 0.33208 0.61717 0.95714
 C1248 C 0.31733 0.59978 0.93247
 C1249 C 0.29121 0.61082 0.91751
 H1250 H 0.28086 0.63217 0.92439
 O1251 O 0.64956 0.37386 0.98629
 O1252 O 0.68604 0.33925 0.98917
 C1253 C 0.67516 0.36361 0.97788
 C1254 C 0.69246 0.38021 0.95480
 C1255 C 0.72169 0.37027 0.94678
 H1256 H 0.73182 0.35059 0.95761
 O1257 O 0.48163 0.59870 0.85146
 O1258 O 0.48168 0.63170 0.81443
 C1259 C 0.47112 0.60780 0.82655
 C1260 C 0.44611 0.59034 0.81215
 C1261 C 0.43526 0.59759 0.78329
 H1262 H 0.44535 0.61607 0.77079
 O1263 O 0.54260 0.37620 0.86283
 O1264 O 0.54264 0.34078 0.82783
 C1265 C 0.55282 0.36565 0.83841
 C1266 C 0.57699 0.38284 0.82290
 C1267 C 0.58539 0.37669 0.79307
 H1268 H 0.57403 0.35890 0.78063
 O1269 O 0.65742 0.45865 0.90977
 O1270 O 0.69415 0.45520 0.87651
 C1271 C 0.68182 0.44633 0.90062
 C1272 C 0.69574 0.42087 0.91756
 C1273 C 0.72472 0.41032 0.90977
 H1274 H 0.73735 0.42185 0.89242
 O1275 O 0.36034 0.51967 0.89697
 O1276 O 0.32542 0.51667 0.86196
 C1277 C 0.33582 0.52935 0.88527
 C1278 C 0.31969 0.55639 0.89783
 C1279 C 0.29385 0.56774 0.88343
 H1280 H 0.28507 0.55572 0.86415
 O1281 O 0.39890 0.64628 0.96853
 O1282 O 0.36514 0.68351 0.96606
 C1283 C 0.38972 0.67119 0.95714
 C1284 C 0.40761 0.68561 0.93298
 C1285 C 0.39988 0.71480 0.92237
 H1286 H 0.38122 0.72727 0.93243
 O1287 O 0.61058 0.33037 0.98713
 O1288 O 0.64686 0.29569 0.99034
 C1289 C 0.62290 0.30575 0.97813
 C1290 C 0.61051 0.29005 0.95173
 C1291 C 0.62615 0.26542 0.93879
 H1292 H 0.64607 0.25611 0.94971
 O1293 O 0.62060 0.51761 0.86376
 O1294 O 0.65756 0.51448 0.83070
 C1295 C 0.63254 0.52602 0.83935
 C1296 C 0.61724 0.54959 0.82100
 C1297 C 0.62877 0.55765 0.79296
 H1298 H 0.64882 0.54617 0.78443
 O1299 O 0.40238 0.45703 0.85932
 O1300 O 0.36713 0.45465 0.82457
 C1301 C 0.39192 0.44512 0.83554
 C1302 C 0.40843 0.41956 0.82083
 C1303 C 0.39892 0.40812 0.79295
 H1304 H 0.38007 0.41894 0.78165
 O1305 O 0.54138 0.64226 0.89009
 O1306 O 0.54195 0.67539 0.85313
 C1307 C 0.55216 0.66619 0.87808
 C1308 C 0.57748 0.68271 0.89293
 C1309 C 0.59110 0.70827 0.87937
 H1310 H 0.58245 0.71703 0.85844
 O1311 O 0.48392 0.33708 0.90556
 O1312 O 0.48388 0.30059 0.87159
 C1313 C 0.47380 0.31196 0.89588
 C1314 C 0.44967 0.29606 0.91265
 C1315 C 0.44065 0.26693 0.90373
 H1316 H 0.45220 0.25561 0.88540
 O1317 O 0.66176 0.60765 0.97441
 O1318 O 0.69762 0.64250 0.97238
 C1319 C 0.68674 0.61712 0.96386
 C1320 C 0.70273 0.59825 0.94127
 C1321 C 0.73099 0.60703 0.92943
 H1322 H 0.74174 0.62773 0.93721
 O1323 O 0.36347 0.38047 0.98283
 O1324 O 0.32803 0.34514 0.98387
 C1325 C 0.33888 0.36955 0.97290
 C1326 C 0.32303 0.38509 0.94807
 C1327 C 0.29469 0.37462 0.93847
 H1328 H 0.28414 0.35554 0.94974
 Cu1329 Cu 0.51335 0.35927 0.88664
 Cu1330 Cu 0.51304 0.31605 0.84534
 Cu1331 Cu 0.51155 0.61623 0.87528
 Cu1332 Cu 0.51186 0.65602 0.83111
 Cu1333 Cu 0.38547 0.48838 0.88250
 Cu1334 Cu 0.34340 0.48536 0.84069
 Cu1335 Cu 0.63615 0.48868 0.88961
 Cu1336 Cu 0.68050 0.48469 0.84988
 C1337 C 0.43327 0.40573 0.83516
 H1338 H 0.44042 0.41397 0.85682
 C1339 C 0.41400 0.38309 0.77961
 C1340 C 0.59134 0.56468 0.83177
 H1341 H 0.58261 0.55880 0.85360
 C1342 C 0.61475 0.58040 0.77571
 C1343 C 0.33656 0.40973 0.93314
 H1344 H 0.35867 0.41763 0.94014
 C1345 C 0.28000 0.38800 0.91406
 C1346 C 0.68898 0.57136 0.93079
 H1347 H 0.66685 0.56485 0.93905
 C1348 C 0.74544 0.58878 0.90772
 C1349 C 0.43457 0.31029 0.93664
 H1350 H 0.44157 0.33285 0.94365
 C1351 C 0.41591 0.25267 0.91710
 C1352 C 0.58969 0.67156 0.91990
 H1353 H 0.57964 0.65179 0.93042
 C1354 C 0.61709 0.72149 0.89199
 C1355 C 0.43251 0.56616 0.82791
 H1356 H 0.44004 0.56081 0.85030
 C1357 C 0.41184 0.58019 0.77032
 C1358 C 0.59177 0.40631 0.83855
 H1359 H 0.58604 0.41089 0.86164
 C1360 C 0.60776 0.39462 0.77909
 C1361 C 0.58544 0.30252 0.93691
 H1362 H 0.57368 0.32193 0.94660
 C1363 C 0.61732 0.25359 0.91109
 C1364 C 0.43200 0.66982 0.91966
 H1365 H 0.43774 0.64703 0.92721
 C1366 C 0.41633 0.72807 0.89890
 C1367 C 0.33108 0.57238 0.92247
 H1368 H 0.35138 0.56388 0.93330
 C1369 C 0.27947 0.59477 0.89274
 C1370 C 0.67972 0.40575 0.94025
 H1371 H 0.65708 0.41342 0.94607
 C1372 C 0.73759 0.38487 0.92398
 O1373 O 0.53635 0.39612 1.16354
 O1374 O 0.53552 0.36450 1.20176
 C1375 C 0.54648 0.38769 1.18872
 C1376 C 0.57182 0.40469 1.20235
 C1377 C 0.58260 0.39729 1.23093
 H1378 H 0.57177 0.37944 1.24375
 O1379 O 0.48110 0.60998 1.14734
 O1380 O 0.47993 0.64662 1.18116
 C1381 C 0.47021 0.62142 1.17112
 C1382 C 0.44549 0.60579 1.18696
 C1383 C 0.43781 0.61447 1.21606
 H1384 H 0.45087 0.63196 1.22729
 O1385 O 0.35468 0.53296 1.10705
 O1386 O 0.31921 0.53462 1.14171
 C1387 C 0.33006 0.54407 1.11727
 C1388 C 0.31436 0.56918 1.10153
 C1389 C 0.28913 0.58327 1.11473
 H1390 H 0.28032 0.57479 1.13571
 O1391 O 0.65663 0.46916 1.11134
 O1392 O 0.69371 0.46949 1.14439
 C1393 C 0.68150 0.45852 1.12109
 C1394 C 0.69612 0.43306 1.10505
 C1395 C 0.72758 0.42826 1.10691
 H1396 H 0.74136 0.44347 1.12023
 O1397 O 0.60879 0.33436 1.04592
 O1398 O 0.64492 0.29957 1.04945
 C1399 C 0.62005 0.31099 1.05858
 C1400 C 0.60443 0.29837 1.08507
 C1401 C 0.61338 0.27054 1.09827
 H1402 H 0.63144 0.25715 1.08830
 O1403 O 0.39772 0.64825 1.02661
 O1404 O 0.36409 0.68561 1.02463
 C1405 C 0.38814 0.67402 1.03573
 C1406 C 0.40526 0.69023 1.05963
 C1407 C 0.39728 0.72016 1.06853
 H1408 H 0.37852 0.73189 1.05789
 O1409 O 0.39629 0.47596 1.15179
 O1410 O 0.36002 0.47805 1.18569
 C1411 C 0.38525 0.46760 1.17668
 C1412 C 0.40150 0.44530 1.19542
 C1413 C 0.39094 0.43899 1.22421
 H1414 H 0.37149 0.45131 1.23301
 O1415 O 0.61910 0.53238 1.14995
 O1416 O 0.65553 0.53276 1.18365
 C1417 C 0.63081 0.54345 1.17337
 C1418 C 0.61549 0.56909 1.18863
 C1419 C 0.62685 0.58056 1.21545
 H1420 H 0.64698 0.57043 1.22527
 O1421 O 0.47727 0.35219 1.12581
 O1422 O 0.47618 0.32027 1.16381
 C1423 C 0.46675 0.32851 1.13825
 C1424 C 0.44332 0.31039 1.12288
 C1425 C 0.43325 0.28300 1.13529
 H1426 H 0.44294 0.27495 1.15608
 O1427 O 0.54068 0.65116 1.10662
 O1428 O 0.53893 0.68760 1.14060
 C1429 C 0.55028 0.67634 1.11698
 C1430 C 0.57568 0.69230 1.10233
 C1431 C 0.58840 0.71789 1.11603
 H1432 H 0.57875 0.72664 1.13661
 O1433 O 0.36090 0.38231 1.04051
 O1434 O 0.32541 0.34708 1.04192
 C1435 C 0.33579 0.37262 1.05066
 C1436 C 0.31892 0.39156 1.07282
 C1437 C 0.28952 0.38370 1.08264
 H1438 H 0.27860 0.36338 1.07413
 O1439 O 0.66041 0.61005 1.03182
 O1440 O 0.69665 0.64451 1.03025
 C1441 C 0.68556 0.62024 1.04120
 C1442 C 0.70165 0.60340 1.06507
 C1443 C 0.73099 0.61170 1.07443
 H1444 H 0.74237 0.63078 1.06404
 O1445 O 0.54026 0.61143 1.14950
 O1446 O 0.53886 0.64798 1.18337
 C1447 C 0.54995 0.62304 1.17371
 C1448 C 0.57522 0.60764 1.18973
 C1449 C 0.58639 0.61839 1.21732
 H1450 H 0.57571 0.63772 1.22826
 O1451 O 0.47704 0.39667 1.16360
 O1452 O 0.47601 0.36510 1.20185
 C1453 C 0.46603 0.38863 1.18855
 C1454 C 0.44072 0.40642 1.20153
 C1455 C 0.42926 0.39968 1.23008
 H1456 H 0.43975 0.38193 1.24339
 O1457 O 0.65986 0.52865 1.10890
 O1458 O 0.69638 0.52856 1.14252
 C1459 C 0.68523 0.53838 1.11828
 C1460 C 0.70160 0.56215 1.10161
 C1461 C 0.73110 0.57000 1.10993
 H1462 H 0.74244 0.55738 1.12751
 O1463 O 0.35716 0.47288 1.10859
 O1464 O 0.32112 0.47495 1.14268
 C1465 C 0.33253 0.46296 1.11933
 C1466 C 0.31732 0.43667 1.10519
 C1467 C 0.28784 0.42912 1.11371
 H1468 H 0.27576 0.44348 1.12953
 O1469 O 0.62031 0.65327 1.02961
 O1470 O 0.65590 0.68837 1.02879
 C1471 C 0.63119 0.67817 1.03933
 C1472 C 0.61533 0.69409 1.06419
 C1473 C 0.62758 0.72025 1.07812
 H1474 H 0.64824 0.73039 1.06974
 O1475 O 0.40319 0.34109 1.04351
 O1476 O 0.36811 0.30547 1.04504
 C1477 C 0.39232 0.31715 1.05523
 C1478 C 0.40748 0.30393 1.08180
 C1479 C 0.39790 0.27616 1.09442
 H1480 H 0.37981 0.26340 1.08399
 O1481 O 0.61757 0.47367 1.15449
 O1482 O 0.65435 0.47393 1.18782
 C1483 C 0.62865 0.46464 1.17913
 C1484 C 0.61177 0.44272 1.19763
 C1485 C 0.62165 0.43578 1.22658
 H1486 H 0.64111 0.44736 1.23596
 O1487 O 0.39679 0.53461 1.14726
 O1488 O 0.36137 0.53637 1.18203
 C1489 C 0.38635 0.54572 1.17135
 C1490 C 0.40371 0.56961 1.18696
 C1491 C 0.39596 0.57885 1.21606
 H1492 H 0.37716 0.56809 1.22738
 O1493 O 0.48144 0.64931 1.10430
 O1494 O 0.48000 0.68608 1.13795
 C1495 C 0.47049 0.67440 1.11369
 C1496 C 0.44617 0.69020 1.09676
 C1497 C 0.43848 0.72022 1.10434
 H1498 H 0.45112 0.73196 1.12160
 O1499 O 0.53559 0.35000 1.12737
 O1500 O 0.53462 0.31822 1.16549
 C1501 C 0.54493 0.32587 1.14015
 C1502 C 0.56807 0.30659 1.12543
 C1503 C 0.57729 0.27906 1.13838
 H1504 H 0.56700 0.27169 1.15911
 O1505 O 0.64856 0.37778 1.04292
 O1506 O 0.68505 0.34315 1.04563
 C1507 C 0.67410 0.36900 1.05278
 C1508 C 0.69205 0.38940 1.07171
 C1509 C 0.72347 0.38531 1.07315
 H1510 H 0.73421 0.36697 1.06067
 O1511 O 0.35355 0.60963 1.02691
 O1512 O 0.31937 0.64646 1.02493
 C1513 C 0.32913 0.62178 1.03638
 C1514 C 0.31318 0.60741 1.06189
 C1515 C 0.28741 0.62103 1.07528
 H1516 H 0.27764 0.64170 1.06604
 Cu1517 Cu 0.50672 0.37719 1.14142
 Cu1518 Cu 0.50547 0.33892 1.18720
 Cu1519 Cu 0.51112 0.62668 1.12364
 Cu1520 Cu 0.50910 0.67084 1.16405
 Cu1521 Cu 0.38649 0.36368 1.01296
 Cu1522 Cu 0.34421 0.32117 1.01427
 Cu1523 Cu 0.62518 0.35712 1.01545
 Cu1524 Cu 0.66907 0.31550 1.01917
 Cu1525 Cu 0.37974 0.62389 0.99797
 Cu1526 Cu 0.33914 0.66830 0.99511
 Cu1527 Cu 0.63671 0.62639 1.00207
 Cu1528 Cu 0.67953 0.66844 1.00016
 Cu1529 Cu 0.37971 0.50390 1.12503
 Cu1530 Cu 0.33659 0.50617 1.16624
 Cu1531 Cu 0.63467 0.50079 1.12768
 Cu1532 Cu 0.67875 0.50109 1.16796
 C1533 C 0.58654 0.42753 1.18593
 H1534 H 0.57896 0.43281 1.16354
 C1535 C 0.60747 0.41288 1.24308
 C1536 C 0.42857 0.58315 1.17267
 H1537 H 0.43440 0.57654 1.15007
 C1538 C 0.41307 0.60135 1.23072
 C1539 C 0.32599 0.58112 1.07497
 H1540 H 0.34599 0.57065 1.06522
 C1541 C 0.27556 0.60894 1.10189
 C1542 C 0.67849 0.41361 1.08727
 H1543 H 0.65417 0.41703 1.08588
 C1544 C 0.74131 0.40449 1.09061
 C1545 C 0.58145 0.31588 1.09867
 H1546 H 0.57462 0.33745 1.08891
 C1547 C 0.59956 0.26074 1.12496
 C1548 C 0.42979 0.67545 1.07404
 H1549 H 0.43577 0.65222 1.06803
 C1550 C 0.41412 0.73520 1.09077
 C1551 C 0.42669 0.42933 1.18442
 H1552 H 0.43479 0.43412 1.16210
 C1553 C 0.40429 0.41605 1.24144
 C1554 C 0.58968 0.58264 1.17602
 H1555 H 0.58131 0.57414 1.15489
 C1556 C 0.61233 0.60475 1.23011
 C1557 C 0.43054 0.32057 1.09602
 H1558 H 0.43795 0.34206 1.08666
 C1559 C 0.41095 0.26560 1.12118
 C1560 C 0.58902 0.68076 1.07627
 H1561 H 0.57957 0.66047 1.06611
 C1562 C 0.61410 0.73194 1.10427
 C1563 C 0.33255 0.41810 1.08441
 H1564 H 0.35538 0.42403 1.07773
 C1565 C 0.27391 0.40276 1.10293
 C1566 C 0.68721 0.57859 1.07889
 H1567 H 0.66434 0.57251 1.07250
 C1568 C 0.74577 0.59485 1.09691
 C1569 C 1.12536 1.14096 1.32295
 C1570 C 1.12866 1.11532 1.30695
 C1571 C 1.11565 1.11283 1.27684
 C1572 C 1.12122 1.08819 1.26001
 H1573 H 1.14183 1.09633 1.31549
 H1574 H 1.10281 1.13194 1.26812
 H1575 H 1.11225 1.15949 1.31335
 H1576 H 1.13542 1.07017 1.26909
 C1577 C 1.14951 0.62328 0.82616
 C1578 C 1.14346 0.62962 0.79765
 C1579 C 1.13577 0.60582 0.77546
 C1580 C 1.13113 0.61398 0.74712
 H1581 H 1.14353 0.65333 0.79069
 H1582 H 1.13131 0.58264 0.78261
 H1583 H 1.15123 0.59973 0.83339
 H1584 H 1.13440 0.63770 0.74101
 C1585 C 0.65221 1.12745 0.80610
 C1586 C 0.62430 1.11730 0.80057
 C1587 C 0.61750 1.10214 0.77212
 C1588 C 0.58890 1.09769 0.76369
 H1589 H 0.60631 1.12034 0.81674
 H1590 H 0.63593 1.09667 0.75696
 H1591 H 0.66997 1.12276 0.78993
 H1592 H 0.57057 1.10540 0.77805
 C1593 C 0.61378 0.62481 1.33796
 C1594 C 0.62777 0.62321 1.31158
 C1595 C 0.61098 0.61843 1.28353
 C1596 C 0.62626 0.61573 1.25796
 H1597 H 0.65220 0.62569 1.31069
 H1598 H 0.58663 0.61517 1.28397
 H1599 H 0.58923 0.62422 1.33886
 H1600 H 0.65080 0.61729 1.25835
 C1601 C 0.85110 0.87302 1.31347
 C1602 C 0.87716 0.86917 1.29856
 C1603 C 0.88284 0.88544 1.27032
 C1604 C 0.90928 0.88203 1.25598
 H1605 H 0.89459 0.85417 1.30734
 H1606 H 0.86491 0.89944 1.26106
 H1607 H 0.83454 0.88920 1.30495
 H1608 H 0.92618 0.86686 1.26557
 C1609 C 0.84364 0.36720 0.80501
 C1610 C 0.87067 0.37816 0.79741
 C1611 C 0.87476 0.39273 0.76831
 C1612 C 0.90243 0.39735 0.75747
 H1613 H 0.88984 0.37621 0.81235
 H1614 H 0.85503 0.39748 0.75461
 H1615 H 0.82464 0.37072 0.79001
 H1616 H 0.92206 0.39027 0.77032
 C1617 C 0.35388 0.84073 0.82008
 C1618 C 0.34320 0.85664 0.79689
 C1619 C 0.36373 0.86810 0.77352
 C1620 C 0.35283 0.88509 0.75122
 H1621 H 0.31905 0.86054 0.79457
 H1622 H 0.38773 0.86292 0.77486
 H1623 H 0.37799 0.83604 0.82080
 H1624 H 0.32892 0.89108 0.75139
 C1625 C 0.36114 0.34792 1.31658
 C1626 C 0.36755 0.37601 1.30717
 C1627 C 0.38723 0.38122 1.28122
 C1628 C 0.39055 0.40949 1.27070
 H1629 H 0.35717 0.39545 1.31826
 H1630 H 0.39678 0.36186 1.26934
 H1631 H 0.37222 0.32839 1.30630
 H1632 H 0.37925 0.42822 1.28212
 C1633 C 0.83700 1.14840 0.68373
 C1634 C 0.86450 1.14490 0.69572
 C1635 C 0.86884 1.12968 0.72475
 C1636 C 0.89629 1.12935 0.73729
 H1637 H 0.88408 1.15398 0.68418
 H1638 H 0.84944 1.12061 0.73656
 H1639 H 0.81761 1.13832 0.69479
 H1640 H 0.91487 1.14007 0.72545
 C1641 C 0.84957 0.65322 0.18405
 C1642 C 0.87586 0.64945 0.19834
 C1643 C 0.87763 0.63411 0.22753
 C1644 C 0.90409 0.63327 0.24196
 H1645 H 0.89644 0.65849 0.18861
 H1646 H 0.85721 0.62536 0.23778
 H1647 H 0.82918 0.64312 0.19320
 H1648 H 0.92366 0.64358 0.23140
 C1649 C 0.38406 1.12540 0.17018
 C1650 C 0.37182 1.11880 0.19659
 C1651 C 0.39055 1.11215 0.22315
 C1652 C 0.37686 1.10598 0.24897
 H1653 H 0.34732 1.11879 0.19873
 H1654 H 0.41502 1.11074 0.22126
 H1655 H 0.40848 1.12732 0.16825
 H1656 H 0.35226 1.10629 0.24964
 C1657 C 0.36605 0.64141 0.68924
 C1658 C 0.37488 0.61470 0.70090
 C1659 C 0.39359 0.61273 0.72827
 C1660 C 0.39988 0.58529 0.73984
 H1661 H 0.36716 0.59373 0.69061
 H1662 H 0.39980 0.63334 0.74014
 H1663 H 0.37471 0.66244 0.69867
 H1664 H 0.39197 0.56523 0.72801
 C1665 C 1.12785 0.84992 0.67821
 C1666 C 1.12051 0.87815 0.68703
 C1667 C 1.10301 0.88397 0.71439
 C1668 C 1.10049 0.91255 0.72461
 H1669 H 1.12935 0.89751 0.67480
 H1670 H 1.09499 0.86487 0.72748
 H1671 H 1.11824 0.83040 0.68959
 H1672 H 1.11034 0.93091 0.71165
 C1673 C 1.16172 0.36124 0.19264
 C1674 C 1.13301 0.36673 0.20069
 C1675 C 1.12504 0.38698 0.22578
 C1676 C 1.09603 0.38944 0.23421
 H1677 H 1.11487 0.35503 0.18912
 H1678 H 1.14289 0.39769 0.23858
 H1679 H 1.17995 0.37380 0.20315
 H1680 H 1.07902 0.37710 0.22162
 C1681 C 0.62641 0.86542 0.17083
 C1682 C 0.63457 0.86870 0.19929
 C1683 C 0.61227 0.87328 0.22358
 C1684 C 0.62220 0.87501 0.25164
 H1685 H 0.65853 0.86827 0.20472
 H1686 H 0.58865 0.87770 0.21843
 H1687 H 0.60260 0.86379 0.16513
 H1688 H 0.64625 0.87174 0.25574
 C1689 C 0.64222 0.33739 0.69039
 C1690 C 0.63639 0.36350 0.70477
 C1691 C 0.62074 0.36429 0.73388
 C1692 C 0.61689 0.39111 0.74758
 H1693 H 0.64399 0.38481 0.69511
 H1694 H 0.61469 0.34320 0.74495
 H1695 H 0.63310 0.31647 0.69941
 H1696 H 0.62453 0.41158 0.73629
 C1697 C 1.33873 1.11648 1.13764
 C1698 C 1.31639 1.12830 1.12094
 C1699 C 1.28890 1.11102 1.11299
 C1700 C 1.26790 1.12420 1.09558
 H1701 H 1.31815 1.15158 1.11305
 H1702 H 1.28639 1.08785 1.12088
 H1703 H 1.33635 1.09361 1.14653
 H1704 H 1.27222 1.14719 1.08772
 C1705 C 1.32131 0.62131 0.66090
 C1706 C 1.31040 0.61433 0.63394
 C1707 C 1.28257 0.59622 0.62952
 C1708 C 1.27186 0.59278 0.60183
 H1709 H 1.32140 0.62397 0.61450
 H1710 H 1.26950 0.58872 0.64859
 H1711 H 1.31152 0.61099 0.68062
 H1712 H 1.28503 0.60196 0.58348
 C1713 C 0.80648 1.15684 0.63788
 C1714 C 0.79641 1.12817 0.63569
 C1715 C 0.76868 1.12072 0.61896
 C1716 C 0.75779 1.09227 0.61948
 H1717 H 0.80846 1.10997 0.64706
 H1718 H 0.75638 1.13886 0.60782
 H1719 H 0.79490 1.17484 0.62573
 H1720 H 0.76996 1.07507 0.63219
 C1721 C 0.82222 0.66469 1.13694
 C1722 C 0.81286 0.63652 1.13067
 C1723 C 0.78561 0.63102 1.11256
 C1724 C 0.77615 0.60246 1.10837
 H1725 H 0.82505 0.61719 1.13999
 H1726 H 0.77201 0.65020 1.10503
 H1727 H 0.81107 0.68412 1.12665
 H1728 H 0.78958 0.58387 1.11752
 C1729 C 1.30384 0.83773 0.84801
 C1730 C 1.29721 0.86727 0.85166
 C1731 C 1.26716 0.87639 0.86289
 C1732 C 1.25940 0.90570 0.86627
 H1733 H 1.31444 0.88443 0.84805
 H1734 H 1.25115 0.85870 0.86881
 H1735 H 1.28664 0.82093 0.85324
 H1736 H 1.27462 0.92338 0.85859
 C1737 C 1.31212 0.36005 0.34075
 C1738 C 1.30002 0.37064 0.36600
 C1739 C 1.27080 0.38725 0.36629
 C1740 C 1.25922 0.39664 0.39222
 H1741 H 1.31165 0.36630 0.38688
 H1742 H 1.25764 0.38934 0.34598
 H1743 H 1.30152 0.36562 0.31962
 H1744 H 1.27218 0.39274 0.41243
 C1745 C 0.82236 0.87193 0.36019
 C1746 C 0.80154 0.85621 0.37552
 C1747 C 0.77574 0.87250 0.38967
 C1748 C 0.75297 0.85762 0.40300
 H1749 H 0.80225 0.83148 0.37571
 H1750 H 0.77505 0.89718 0.38825
 H1751 H 0.82009 0.89660 0.35917
 H1752 H 0.75467 0.83306 0.40558
 C1753 C 0.80845 0.35756 0.84549
 C1754 C 0.80380 0.36095 0.87471
 C1755 C 0.77389 0.37081 0.88535
 C1756 C 0.76726 0.37284 0.91430
 H1757 H 0.82227 0.35813 0.89040
 H1758 H 0.75685 0.37701 0.86897
 H1759 H 0.78979 0.36197 0.83030
 H1760 H 0.78323 0.36472 0.93088
 C1761 C 0.67423 0.88176 1.14550
 C1762 C 0.70032 0.87276 1.13296
 C1763 C 0.72629 0.89338 1.12804
 C1764 C 0.75029 0.88254 1.11310
 H1765 H 0.70233 0.84937 1.12523
 H1766 H 0.72494 0.91721 1.13446
 H1767 H 0.67226 0.90462 1.15463
 H1768 H 0.74993 0.85882 1.10604
 C1769 C 0.68374 0.35798 0.65866
 C1770 C 0.68923 0.37190 0.63274
 C1771 C 0.71639 0.39103 0.62839
 C1772 C 0.72278 0.40190 0.60131
 H1773 H 0.67407 0.36837 0.61409
 H1774 H 0.73251 0.39370 0.64644
 H1775 H 0.69807 0.36292 0.67769
 H1776 H 0.70710 0.39731 0.58323
 C1777 C 0.17374 0.86565 0.64995
 C1778 C 0.18391 0.87168 0.62266
 C1779 C 0.21124 0.88994 0.61792
 C1780 C 0.22296 0.89176 0.59061
 H1781 H 0.17274 0.86141 0.60361
 H1782 H 0.22345 0.89890 0.63697
 H1783 H 0.18390 0.87664 0.66916
 H1784 H 0.21113 0.88095 0.57223
 C1785 C 0.19664 0.34098 1.15314
 C1786 C 0.20598 0.36737 1.14166
 C1787 C 0.23438 0.36957 1.12440
 C1788 C 0.24296 0.39660 1.11377
 H1789 H 0.19248 0.38779 1.14539
 H1790 H 0.24926 0.34988 1.12246
 H1791 H 0.20905 0.32014 1.14810
 H1792 H 0.22830 0.41624 1.11742
 C1793 C 0.69101 1.13868 0.84300
 C1794 C 0.69833 1.13542 0.87172
 C1795 C 0.72954 1.12717 0.87993
 C1796 C 0.73822 1.12450 0.90835
 H1797 H 0.68111 1.13747 0.88886
 H1798 H 0.74574 1.12286 0.86220
 H1799 H 0.70838 1.13493 0.82622
 H1800 H 0.72268 1.13075 0.92610
 C1801 C 0.65935 0.61681 0.37039
 C1802 C 0.68060 0.63044 0.38694
 C1803 C 0.71081 0.61684 0.39134
 C1804 C 0.73189 0.63213 0.40668
 H1805 H 0.67604 0.65259 0.39680
 H1806 H 0.71539 0.59434 0.38236
 H1807 H 0.66458 0.59533 0.35942
 H1808 H 0.72583 0.65413 0.41620
 C1809 C 0.16362 1.12504 0.36117
 C1810 C 0.19205 1.13458 0.36445
 C1811 C 0.21630 1.11434 0.37538
 C1812 C 0.24241 1.12658 0.38419
 H1813 H 0.19737 1.15820 0.35959
 H1814 H 0.21229 1.09008 0.37787
 H1815 H 0.15805 1.10132 0.36515
 H1816 H 0.24498 1.15120 0.38329
 C1817 C 0.18065 0.64522 0.86776
 C1818 C 0.20554 0.62888 0.86115
 C1819 C 0.23098 0.62395 0.88229
 C1820 C 0.25383 0.60557 0.87390
 H1821 H 0.20697 0.61801 0.83945
 H1822 H 0.23017 0.63365 0.90450
 H1823 H 0.17940 0.65718 0.88891
 H1824 H 0.25276 0.59585 0.85164
 C1825 C 1.15023 1.31257 1.16618
 C1826 C 1.14166 1.30386 1.13904
 C1827 C 1.12322 1.27649 1.13403
 C1828 C 1.11546 1.26916 1.10621
 H1829 H 1.14903 1.31714 1.11998
 H1830 H 1.11827 1.26128 1.15243
 H1831 H 1.14178 1.30076 1.18569
 H1832 H 1.12200 1.28433 1.08823
 C1833 C 1.14992 0.81608 0.63895
 C1834 C 1.12488 0.80383 0.62769
 C1835 C 1.12562 0.77407 0.61237
 C1836 C 1.09986 0.76195 0.60259
 H1837 H 1.10344 0.81575 0.63043
 H1838 H 1.14652 0.76093 0.61152
 H1839 H 1.17168 0.80515 0.63500
 H1840 H 1.07891 0.77478 0.60528
 C1841 C 0.65224 1.31459 0.63990
 C1842 C 0.64517 1.28581 0.64681
 C1843 C 0.63466 1.26367 0.62428
 C1844 C 0.62067 1.23842 0.63348
 H1845 H 0.64591 1.27851 0.66984
 H1846 H 0.63601 1.26902 0.60072
 H1847 H 0.65290 1.32112 0.61663
 H1848 H 0.61778 1.23485 0.65726
 C1849 C 0.64412 0.83791 1.12562
 C1850 C 0.63840 0.80926 1.13381
 C1851 C 0.63303 0.78448 1.11212
 C1852 C 0.62757 0.75646 1.12236
 H1853 H 0.63724 0.80411 1.15743
 H1854 H 0.63104 0.78947 1.08853
 H1855 H 0.64721 0.84340 1.10226
 H1856 H 0.62829 0.75262 1.14626
 C1857 C 0.86031 1.33218 0.84604
 C1858 C 0.85227 1.30869 0.86323
 C1859 C 0.87492 1.28724 0.87528
 C1860 C 0.86638 1.26609 0.89492
 H1861 H 0.82857 1.30479 0.86815
 H1862 H 0.89838 1.28911 0.86842
 H1863 H 0.88401 1.33454 0.84026
 H1864 H 0.84297 1.26606 0.90240
 C1865 C 0.85872 0.82845 0.34755
 C1866 C 0.86831 0.82091 0.37485
 C1867 C 0.88467 0.79184 0.38028
 C1868 C 0.89184 0.78332 0.40801
 H1869 H 0.86435 0.83651 0.39326
 H1870 H 0.88958 0.77669 0.36173
 H1871 H 0.86377 0.81322 0.32909
 H1872 H 0.88504 0.79788 0.42646
 C1873 C 0.34403 1.31740 0.36051
 C1874 C 0.37137 1.30512 0.36575
 C1875 C 0.37538 1.27679 0.38310
 C1876 C 0.40264 1.26323 0.38380
 H1877 H 0.39128 1.31550 0.35596
 H1878 H 0.35586 1.26609 0.39328
 H1879 H 0.32422 1.30765 0.37111
 H1880 H 0.42121 1.27391 0.37192
 C1881 C 0.34314 0.79984 0.85761
 C1882 C 0.37158 0.79455 0.86641
 C1883 C 0.37922 0.76622 0.88221
 C1884 C 0.40805 0.75809 0.88651
 H1885 H 0.38929 0.81096 0.86212
 H1886 H 0.36112 0.75096 0.88877
 H1887 H 0.32572 0.78354 0.86360
 H1888 H 0.42601 0.77242 0.87788
 C1889 C 1.13244 0.67055 0.85157
 C1890 C 1.13947 0.70012 0.85387
 C1891 C 1.11627 0.72391 0.86013
 C1892 C 1.12407 0.75338 0.86013
 H1893 H 1.16303 0.70675 0.85181
 H1894 H 1.09378 0.71729 0.86734
 H1895 H 1.10883 0.66379 0.85175
 H1896 H 1.14714 0.75931 0.85419
 C1897 C 1.13594 0.17393 0.36750
 C1898 C 1.10986 0.18960 0.36677
 C1899 C 1.10680 0.21953 0.38159
 C1900 C 1.08094 0.23539 0.37913
 H1901 H 1.09064 0.18058 0.35466
 H1902 H 1.12623 0.22906 0.39292
 H1903 H 1.15420 0.18247 0.38131
 H1904 H 1.06250 0.22528 0.36658
 C1905 C 0.61893 0.65405 0.38497
 C1906 C 0.61117 0.68139 0.37453
 C1907 C 0.60301 0.70704 0.39412
 C1908 C 0.59642 0.73381 0.38163
 H1909 H 0.61197 0.68518 0.35064
 H1910 H 0.60138 0.70391 0.41804
 H1911 H 0.62021 0.65024 0.40882
 H1912 H 0.59708 0.73566 0.35749
 C1913 C 0.63933 0.16417 0.84729
 C1914 C 0.64876 0.18748 0.86414
 C1915 C 0.62723 0.20965 0.87712
 C1916 C 0.63686 0.22993 0.89722
 H1917 H 0.67273 0.19076 0.86813
 H1918 H 0.60360 0.20900 0.87060
 H1919 H 0.61531 0.16252 0.84268
 H1920 H 0.66029 0.22875 0.90452
 C1921 C 0.86724 0.69544 1.15093
 C1922 C 0.87415 0.70414 1.12324
 C1923 C 0.89197 0.73180 1.11739
 C1924 C 0.89443 0.74212 1.08951
 H1925 H 0.86545 0.69123 1.10448
 H1926 H 0.90077 0.74497 1.13591
 H1927 H 0.87667 0.70774 1.16973
 H1928 H 0.88374 0.72940 1.07162
 C1929 C 0.84971 0.19168 0.64987
 C1930 C 0.85220 0.20339 0.62242
 C1931 C 0.86882 0.23201 0.61684
 C1932 C 0.86788 0.24503 0.58987
 H1933 H 0.84147 0.19198 0.60379
 H1934 H 0.88044 0.24311 0.63513
 H1935 H 0.86128 0.20291 0.66815
 H1936 H 0.85462 0.23412 0.57254
 C1937 C 0.34452 0.67054 0.64659
 C1938 C 0.36956 0.68244 0.63472
 C1939 C 0.36883 0.71144 0.61792
 C1940 C 0.39448 0.72279 0.60683
 H1941 H 0.39109 0.67093 0.63826
 H1942 H 0.34809 0.72484 0.61708
 H1943 H 0.32269 0.68098 0.64192
 H1944 H 0.41532 0.70980 0.60946
 C1945 C 0.37443 0.15948 1.12709
 C1946 C 0.38424 0.18514 1.13977
 C1947 C 0.39127 0.21257 1.12226
 C1948 C 0.40116 0.23745 1.13634
 H1949 H 0.38634 0.18614 1.16384
 H1950 H 0.38920 0.21213 1.09819
 H1951 H 0.37092 0.15868 1.10317
 H1952 H 0.40420 0.23651 1.16034
 C1953 C 1.15024 1.15009 0.67819
 C1954 C 1.12316 1.14730 0.69130
 C1955 C 1.11919 1.13135 0.71986
 C1956 C 1.09249 1.13329 0.73390
 H1957 H 1.10348 1.15810 0.68131
 H1958 H 1.13839 1.11999 0.73011
 H1959 H 1.16978 1.13845 0.68758
 H1960 H 1.07435 1.14635 0.72356
 C1961 C 1.14152 0.62992 0.16897
 C1962 C 1.12806 0.64113 0.19347
 C1963 C 1.12184 0.62209 0.22010
 C1964 C 1.10735 0.63455 0.24344
 H1965 H 1.12135 0.66496 0.19400
 H1966 H 1.12798 0.59812 0.22000
 H1967 H 1.14949 0.60645 0.16909
 H1968 H 1.10098 0.65847 0.24184
 C1969 C 0.62272 1.12066 0.17745
 C1970 C 0.63326 1.10966 0.20318
 C1971 C 0.61330 1.10336 0.22881
 C1972 C 0.62550 1.09180 0.25359
 H1973 H 0.65742 1.10575 0.20562
 H1974 H 0.58906 1.10705 0.22708
 H1975 H 0.59880 1.12608 0.17536
 H1976 H 0.64973 1.08728 0.25385
 C1977 C 0.61731 0.62169 0.67293
 C1978 C 0.63086 0.60870 0.69644
 C1979 C 0.61436 0.60198 0.72421
 C1980 C 0.62889 0.58841 0.74682
 H1981 H 0.65489 0.60351 0.69553
 H1982 H 0.59051 0.60772 0.72584
 H1983 H 0.59352 0.62790 0.67441
 H1984 H 0.65245 0.58186 0.74368
 C1985 C 0.85429 0.84799 0.69202
 C1986 C 0.85796 0.87657 0.70165
 C1987 C 0.87650 0.88329 0.72810
 C1988 C 0.87870 0.91192 0.73812
 H1989 H 0.84683 0.89520 0.69004
 H1990 H 0.88686 0.86457 0.74021
 H1991 H 0.86640 0.82955 0.70299
 H1992 H 0.86676 0.92990 0.72626
 C1993 C 0.87870 0.36899 0.17377
 C1994 C 0.88112 0.39684 0.18566
 C1995 C 0.89413 0.40111 0.21540
 C1996 C 0.89093 0.42785 0.22949
 H1997 H 0.87108 0.41630 0.17439
 H1998 H 0.90360 0.38141 0.22661
 H1999 H 0.88935 0.34969 0.18480
 H2000 H 0.87968 0.44653 0.21802
 C2001 C 0.36125 0.84524 0.17704
 C2002 C 0.36484 0.87200 0.19101
 C2003 C 0.38027 0.87433 0.22020
 C2004 C 0.37992 0.90094 0.23486
 H2005 H 0.35547 0.89256 0.18115
 H2006 H 0.38998 0.85410 0.23038
 H2007 H 0.37158 0.82492 0.18649
 H2008 H 0.36858 0.92025 0.22449
 C2009 C 0.34063 0.35700 0.70074
 C2010 C 0.36872 0.35498 0.71175
 C2011 C 0.37681 0.37140 0.73940
 C2012 C 0.40484 0.36962 0.75059
 H2013 H 0.38569 0.34119 0.70046
 H2014 H 0.35927 0.38392 0.75119
 H2015 H 0.32455 0.37192 0.71201
 H2016 H 0.42150 0.35582 0.73882
 C2017 C 1.12220 0.86573 1.31348
 C2018 C 1.13601 0.86732 1.28703
 C2019 C 1.11922 0.87562 1.25990
 C2020 C 1.13435 0.88307 1.23523
 H2021 H 1.16009 0.86266 1.28527
 H2022 H 1.09471 0.87751 1.26060
 H2023 H 1.09781 0.86882 1.31462
 H2024 H 1.15894 0.88318 1.23564
 C2025 C 1.15016 0.37211 0.81366
 C2026 C 1.13398 0.35819 0.79245
 C2027 C 1.12142 0.37623 0.76743
 C2028 C 1.10677 0.36298 0.74478
 H2029 H 1.13200 0.33354 0.79231
 H2030 H 1.12491 0.40070 0.76727
 H2031 H 1.15277 0.39670 0.81242
 H2032 H 1.10210 0.33872 0.74593
 C2033 C 0.64516 0.87017 0.82733
 C2034 C 0.61772 0.87203 0.81472
 C2035 C 0.61292 0.88751 0.78588
 C2036 C 0.58547 0.88706 0.77323
 H2037 H 0.59852 0.86111 0.82519
 H2038 H 0.63212 0.89730 0.77436
 H2039 H 0.66395 0.88181 0.81675
 H2040 H 0.56721 0.87590 0.78516
 C2041 C 0.65097 0.33878 1.31144
 C2042 C 0.64018 0.36700 1.30754
 C2043 C 0.62675 0.37564 1.27878
 C2044 C 0.61990 0.40457 1.27243
 H2045 H 0.64000 0.38313 1.32589
 H2046 H 0.62280 0.35804 1.26220
 H2047 H 0.64964 0.32265 1.29310
 H2048 H 0.62584 0.42261 1.28791
 C2049 C 0.85500 1.12718 1.33043
 C2050 C 0.86889 1.13607 1.30534
 C2051 C 0.87770 1.11474 1.28114
 C2052 C 0.89502 1.12519 1.25889
 H2053 H 0.87448 1.15998 1.30265
 H2054 H 0.87132 1.09092 1.28219
 H2055 H 0.84848 1.10349 1.33285
 H2056 H 0.90186 1.14895 1.25973
 C2057 C 0.84450 0.64286 0.81300
 C2058 C 0.87142 0.63430 0.80224
 C2059 C 0.87438 0.61536 0.77517
 C2060 C 0.90202 0.60788 0.76536
 H2061 H 0.89178 0.64220 0.81333
 H2062 H 0.85444 0.60991 0.76214
 H2063 H 0.82394 0.63388 0.80315
 H2064 H 0.92147 0.61491 0.77843
 C2065 C 0.36246 1.16032 0.81354
 C2066 C 0.36436 1.13305 0.80030
 C2067 C 0.38091 1.12811 0.77221
 C2068 C 0.37857 1.10106 0.75860
 H2069 H 0.35183 1.11409 0.80964
 H2070 H 0.39250 1.14701 0.76173
 H2071 H 0.37584 1.17922 0.80532
 H2072 H 0.36552 1.08330 0.76945
 C2073 C 0.34585 0.63298 1.31289
 C2074 C 0.37348 0.62872 1.30142
 C2075 C 0.37847 0.61236 1.27320
 C2076 C 0.40619 0.61215 1.26119
 H2077 H 0.39281 0.63902 1.31238
 H2078 H 0.35927 0.60297 1.26133
 H2079 H 0.32647 0.62181 1.30287
 H2080 H 0.42444 0.62316 1.27327
 C2081 C 1.16080 1.32581 0.84613
 C2082 C 1.13518 1.32065 0.86115
 C2083 C 1.12987 1.29105 0.87611
 C2084 C 1.10408 1.28592 0.89086
 H2085 H 1.11851 1.33881 0.86319
 H2086 H 1.14660 1.27292 0.87409
 H2087 H 1.17823 1.30826 0.84555
 H2088 H 1.08668 1.30350 0.89124
 C2089 C 1.12286 0.83762 0.36033
 C2090 C 1.13646 0.81297 0.37179
 C2091 C 1.11844 0.78867 0.38597
 C2092 C 1.13185 0.76386 0.39736
 H2093 H 1.16059 0.80957 0.36854
 H2094 H 1.09394 0.79073 0.38630
 H2095 H 1.09842 0.83974 0.36231
 H2096 H 1.15641 0.76291 0.39830
 C2097 C 0.64809 1.29741 0.34713
 C2098 C 0.63357 1.29132 0.37250
 C2099 C 0.61932 1.26134 0.37718
 C2100 C 0.60729 1.25415 0.40349
 H2101 H 0.63152 1.30879 0.38954
 H2102 H 0.61987 1.24446 0.35945
 H2103 H 0.64859 1.28023 0.32966
 H2104 H 0.60867 1.27032 0.42178
 C2105 C 0.63119 0.82755 0.86180
 C2106 C 0.64122 0.79876 0.86211
 C2107 C 0.62163 0.77332 0.87140
 C2108 C 0.63394 0.74608 0.87714
 H2109 H 0.66465 0.79407 0.85624
 H2110 H 0.59775 0.77735 0.87575
 H2111 H 0.60769 0.83243 0.86715
 H2112 H 0.65826 0.74306 0.87480
 C2113 C 0.86340 1.33569 1.13117
 C2114 C 0.89002 1.32143 1.12817
 C2115 C 0.89208 1.29120 1.11393
 C2116 C 0.91812 1.27559 1.11484
 H2117 H 0.91030 1.33156 1.13746
 H2118 H 0.87180 1.28094 1.10481
 H2119 H 0.84341 1.32572 1.12107
 H2120 H 0.93752 1.28604 1.12557
 C2121 C 0.84203 0.81435 0.64888
 C2122 C 0.87037 0.80426 0.64459
 C2123 C 0.87661 0.77634 0.62727
 C2124 C 0.90474 0.76489 0.62592
 H2125 H 0.88922 0.81654 0.65430
 H2126 H 0.85790 0.76437 0.61698
 H2127 H 0.82344 0.80236 0.63834
 H2128 H 0.92270 0.77645 0.63792
 C2129 C 0.34460 1.31221 0.66658
 C2130 C 0.35911 1.30729 0.64079
 C2131 C 0.37413 1.27760 0.63432
 C2132 C 0.38392 1.27096 0.60679
 H2133 H 0.35994 1.32534 0.62433
 H2134 H 0.37577 1.26051 0.65172
 H2135 H 0.34479 1.29456 0.68350
 H2136 H 0.38014 1.28746 0.58915
 C2137 C 0.34798 0.81537 1.13179
 C2138 C 0.37540 0.80505 1.12422
 C2139 C 0.37946 0.77660 1.10701
 C2140 C 0.40742 0.76653 1.10109
 H2141 H 0.39522 0.81753 1.13156
 H2142 H 0.35995 0.76276 1.10151
 H2143 H 0.32798 0.80390 1.12339
 H2144 H 0.42653 0.78021 1.10826
 C2145 C 0.86059 0.68988 0.83971
 C2146 C 0.86843 0.70254 0.86566
 C2147 C 0.88529 0.73153 0.86735
 C2148 C 0.89009 0.74421 0.89402
 H2149 H 0.86134 0.69171 0.88623
 H2150 H 0.89140 0.74352 0.84711
 H2151 H 0.86869 0.69979 0.81905
 H2152 H 0.88224 0.73219 0.91369
 C2153 C 0.86703 0.17505 0.35851
 C2154 C 0.85515 0.20187 0.36674
 C2155 C 0.87390 0.22930 0.37157
 C2156 C 0.86056 0.25489 0.38132
 H2157 H 0.83087 0.20351 0.37028
 H2158 H 0.89831 0.22806 0.36902
 H2159 H 0.89107 0.17341 0.35361
 H2160 H 0.83622 0.25472 0.38491
 C2161 C 0.35957 0.67949 0.34147
 C2162 C 0.36876 0.68857 0.36827
 C2163 C 0.38537 0.71718 0.37228
 C2164 C 0.39142 0.72689 0.39977
 H2165 H 0.36269 0.67518 0.38769
 H2166 H 0.38987 0.73158 0.35315
 H2167 H 0.36656 0.69187 0.32171
 H2168 H 0.38506 0.71272 0.41857
 C2169 C 0.34723 0.18966 0.85900
 C2170 C 0.37401 0.19344 0.87216
 C2171 C 0.37929 0.21903 0.89283
 C2172 C 0.40670 0.22306 0.90466
 H2173 H 0.39243 0.17781 0.86696
 H2174 H 0.36178 0.23622 0.89600
 H2175 H 0.32824 0.20414 0.86527
 H2176 H 0.42452 0.20664 0.89971
 C2177 C 1.12734 0.67383 1.13512
 C2178 C 1.13641 0.69569 1.11628
 C2179 C 1.11717 0.72217 1.10833
 C2180 C 1.12743 0.74250 1.08847
 H2181 H 1.15890 0.69432 1.10662
 H2182 H 1.09499 0.72460 1.11839
 H2183 H 1.10512 0.67568 1.14531
 H2184 H 1.14948 0.73823 1.07847
 C2185 C 1.13370 0.19339 0.64586
 C2186 C 1.12344 0.19819 0.61836
 C2187 C 1.10346 0.22414 0.61168
 C2188 C 1.09622 0.23037 0.58351
 H2189 H 1.13076 0.18320 0.60044
 H2190 H 1.09715 0.23982 0.62941
 H2191 H 1.12562 0.20743 0.66419
 H2192 H 1.10446 0.21551 0.56586
 C2193 C 0.62385 0.65374 0.62704
 C2194 C 0.61054 0.67889 0.63784
 C2195 C 0.60254 0.70501 0.61857
 C2196 C 0.58939 0.72960 0.63071
 H2197 H 0.60637 0.68070 0.66160
 H2198 H 0.60688 0.70384 0.59482
 H2199 H 0.62943 0.65264 0.60350
 H2200 H 0.58449 0.72919 0.65443
 C2201 C 0.63616 0.15423 1.13461
 C2202 C 0.62447 0.17988 1.14597
 C2203 C 0.61928 0.20735 1.12772
 C2204 C 0.60826 0.23246 1.14080
 H2205 H 0.61930 0.18087 1.16959
 H2206 H 0.62349 0.20668 1.10393
 H2207 H 0.64303 0.15361 1.11139
 H2208 H 0.60337 0.23165 1.16452
 C2209 C 1.31403 1.14902 0.83955
 C2210 C 1.30383 1.13801 0.86527
 C2211 C 1.27453 1.12243 0.86730
 C2212 C 1.26399 1.11455 0.89399
 H2213 H 1.31709 1.14145 0.88535
 H2214 H 1.26046 1.12005 0.84761
 H2215 H 1.30178 1.14458 0.81905
 H2216 H 1.27774 1.11892 0.91358
 C2217 C 1.31515 0.64942 0.35704
 C2218 C 1.30530 0.62209 0.36552
 C2219 C 1.27779 0.61904 0.38383
 C2220 C 1.26674 0.59141 0.38945
 H2221 H 1.31722 0.60174 0.35808
 H2222 H 1.26508 0.63927 0.39028
 H2223 H 1.30404 0.66982 0.36552
 H2224 H 1.27884 0.57149 0.38115
 C2225 C 0.82516 1.14182 0.37621
 C2226 C 0.79989 1.12669 0.36925
 C2227 C 0.77625 1.11928 0.39160
 C2228 C 0.75261 1.10242 0.38307
 H2229 H 0.79659 1.11937 0.34639
 H2230 H 0.77892 1.12600 0.41470
 H2231 H 0.82793 1.15042 0.39873
 H2232 H 0.75168 1.09528 0.35989
 C2233 C 0.81797 0.65845 0.85960
 C2234 C 0.80935 0.63051 0.86782
 C2235 C 0.78310 0.62540 0.88754
 C2236 C 0.77465 0.59683 0.89366
 H2237 H 0.82144 0.61086 0.85895
 H2238 H 0.76949 0.64467 0.89488
 H2239 H 0.80695 0.67829 0.86934
 H2240 H 0.78814 0.57814 0.88471
 C2241 C 1.31940 0.86298 1.14308
 C2242 C 1.30997 0.86761 1.11509
 C2243 C 1.28297 0.88628 1.10829
 C2244 C 1.27247 0.88756 1.08033
 H2245 H 1.32187 0.85655 1.09684
 H2246 H 1.27067 0.89713 1.12639
 H2247 H 1.30805 0.87474 1.16126
 H2248 H 1.28449 0.87501 1.06307
 C2249 C 1.30154 0.34989 0.66311
 C2250 C 1.29348 0.34907 0.63435
 C2251 C 1.26423 0.36298 0.62524
 C2252 C 1.25575 0.36530 0.59666
 H2253 H 1.30880 0.34009 0.61762
 H2254 H 1.24949 0.37198 0.64252
 H2255 H 1.28581 0.36034 0.67877
 H2256 H 1.26976 0.35482 0.57955
 C2257 C 0.80715 0.85722 0.66286
 C2258 C 0.79365 0.85939 0.63629
 C2259 C 0.76378 0.87419 0.63270
 C2260 C 0.74967 0.87256 0.60641
 H2261 H 0.80452 0.84942 0.61687
 H2262 H 0.75277 0.88466 0.65178
 H2263 H 0.79673 0.86817 0.68204
 H2264 H 0.76088 0.86049 0.58830
 C2265 C 0.83270 0.38106 1.14486
 C2266 C 0.81995 0.38593 1.11844
 C2267 C 0.78988 0.40016 1.11666
 C2268 C 0.77406 0.39825 1.09152
 H2269 H 0.83083 0.37742 1.09836
 H2270 H 0.77933 0.40890 1.13681
 H2271 H 0.82192 0.39014 1.16477
 H2272 H 0.78436 0.38746 1.07218
 C2273 C 0.67006 1.11069 1.14804
 C2274 C 0.69575 1.12416 1.13961
 C2275 C 0.72390 1.10701 1.13339
 C2276 C 0.74795 1.12226 1.12334
 H2277 H 0.69591 1.14876 1.13691
 H2278 H 0.72438 1.08234 1.13519
 H2279 H 0.66987 1.08634 1.15236
 H2280 H 0.74598 1.14682 1.12058
 C2281 C 0.66101 0.61257 0.63847
 C2282 C 0.68539 0.62685 0.62797
 C2283 C 0.71394 0.61059 0.62162
 C2284 C 0.73742 0.62620 0.61088
 H2285 H 0.68443 0.65136 0.62460
 H2286 H 0.71537 0.58610 0.62477
 H2287 H 0.66223 0.58835 0.64333
 H2288 H 0.73459 0.65048 0.60680
 C2289 C 0.18109 1.16575 0.63420
 C2290 C 0.18987 1.13882 0.62334
 C2291 C 0.21799 1.13545 0.60587
 C2292 C 0.22595 1.10799 0.59561
 H2293 H 0.17630 1.11882 0.62810
 H2294 H 0.23343 1.15453 0.60393
 H2295 H 0.19339 1.18622 0.62822
 H2296 H 0.21075 1.08894 0.59925
 C2297 C 0.16984 0.63852 1.12193
 C2298 C 0.19866 0.63560 1.13048
 C2299 C 0.22296 0.62688 1.10939
 C2300 C 0.25140 0.62416 1.11918
 H2301 H 0.20434 0.63981 1.15365
 H2302 H 0.21743 0.62079 1.08660
 H2303 H 0.16399 0.63606 1.09857
 H2304 H 0.25614 0.62875 1.14249
 C2305 C 0.67870 0.85633 0.87044
 C2306 C 0.69171 0.88369 0.87320
 C2307 C 0.72071 0.88793 0.88910
 C2308 C 0.73316 0.91568 0.89001
 H2309 H 0.68093 0.90342 0.86311
 H2310 H 0.73252 0.86833 0.89824
 H2311 H 0.68861 0.83699 0.88201
 H2312 H 0.72105 0.93441 0.87946
 C2313 C 0.67823 0.34359 0.36127
 C2314 C 0.69684 0.36617 0.35288
 C2315 C 0.71814 0.38054 0.37411
 C2316 C 0.73684 0.40283 0.36516
 H2317 H 0.69738 0.37342 0.32982
 H2318 H 0.71851 0.37245 0.39688
 H2319 H 0.67921 0.33575 0.38417
 H2320 H 0.73478 0.41095 0.34241
 C2321 C 0.16814 0.87052 0.34578
 C2322 C 0.18045 0.87237 0.37298
 C2323 C 0.21067 0.88621 0.37734
 C2324 C 0.22408 0.88531 0.40403
 H2325 H 0.16830 0.86368 0.39214
 H2326 H 0.22253 0.89577 0.35839
 H2327 H 0.18045 0.88076 0.32747
 H2328 H 0.21233 0.87410 0.42221
 C2329 C 0.19644 0.36963 0.84356
 C2330 C 0.20979 0.36397 0.86970
 C2331 C 0.23847 0.37886 0.87763
 C2332 C 0.25047 0.37512 0.90473
 H2333 H 0.19927 0.34863 0.88553
 H2334 H 0.24994 0.39220 0.86081
 H2335 H 0.20651 0.38621 0.82862
 H2336 H 0.23870 0.36067 0.92055
   
