data_POSCAR
  _audit_creation_date              2014-09-24
  _audit_creation_method            'ToBaCCo'
  _symmetry_space_group_name_H-M    'P1'
  _symmetry_Int_Tables_number       1
  _symmetry_cell_setting            triclinic
  loop_
  _symmetry_equiv_pos_as_xyz
 x,y,z
_cell_length_a 40.6235
_cell_length_b 39.9801
_cell_length_c 43.0769
_cell_angle_alpha 89.741900
_cell_angle_beta 90.297100
_cell_angle_gamma 90.047900
loop_
  _atom_site_label
  _atom_site_type_symbol
  _atom_site_fract_x
  _atom_site_fract_y
  _atom_site_fract_z
Zr1 Zr 0.24649 0.24617 0.30275
 O2 O 0.27229 0.26573 0.34148
 O3 O 0.21106 0.21551 0.32417
 O4 O 0.21531 0.27590 0.33026
 O5 O 0.30294 0.18351 0.28691
 O6 O 0.19289 0.31292 0.29573
 O7 O 0.27447 0.20905 0.32571
 O8 O 0.17908 0.19849 0.28348
 O9 O 0.20477 0.25502 0.27532
 O10 O 0.24333 0.20635 0.27164
 O11 O 0.25447 0.29311 0.28169
 O12 O 0.29156 0.24655 0.27845
 Zr13 Zr 0.25314 0.26223 0.19540
 Zr14 Zr 0.21364 0.30047 0.25271
 Zr15 Zr 0.28661 0.20792 0.24593
 Zr16 Zr 0.20290 0.21618 0.24329
 O17 O 0.33867 0.20624 0.24699
 O18 O 0.15256 0.22995 0.24040
 O19 O 0.24582 0.21487 0.21633
 O20 O 0.20874 0.26192 0.22024
 O21 O 0.25667 0.30248 0.22620
 O22 O 0.29479 0.25334 0.22309
 C23 C 0.18598 0.20020 0.31260
 C24 C 0.29525 0.18735 0.31569
 C25 C 0.19623 0.30051 0.32317
 O26 O 0.16186 0.30297 0.24749
 O27 O 0.20196 0.32861 0.21299
 O28 O 0.22576 0.30070 0.17281
 C29 C 0.20770 0.32430 0.18401
 O30 O 0.31932 0.30335 0.29821
 Zr31 Zr 0.29724 0.29238 0.25458
 O32 O 0.28763 0.29355 0.17393
 O33 O 0.22334 0.35141 0.26234
 O34 O 0.29433 0.34490 0.26058
 O35 O 0.34805 0.28022 0.25391
 O36 O 0.31763 0.31482 0.21422
 C37 C 0.31069 0.31202 0.18508
 O38 O 0.22633 0.24421 0.15663
 O39 O 0.27681 0.15623 0.24086
 O40 O 0.28152 0.22989 0.16757
 O41 O 0.30243 0.19180 0.20209
 O42 O 0.20306 0.16322 0.24069
 O43 O 0.18544 0.20120 0.19887
 C44 C 0.29862 0.20372 0.17448
 H45 H 0.24084 0.18442 0.28212
 H46 H 0.18965 0.26561 0.20627
 H47 H 0.31545 0.25235 0.21105
 H48 H 0.25621 0.31092 0.29751
 H49 H 0.13931 0.20927 0.24273
 H50 H 0.15544 0.32654 0.25110
 H51 H 0.20190 0.36321 0.26158
 H52 H 0.31652 0.35425 0.25662
 H53 H 0.18011 0.15554 0.24383
 H54 H 0.29838 0.14468 0.24126
 H55 H 0.34501 0.18258 0.24379
 H56 H 0.36046 0.30139 0.25133
 H57 H 0.16549 0.18721 0.20134
 H58 H 0.23627 0.25431 0.13779
 H59 H 0.26241 0.25566 0.36036
 H60 H 0.33606 0.32113 0.29549
 Zr61 Zr 0.76309 0.75930 0.30443
 O62 O 0.74195 0.73509 0.34334
 O63 O 0.79525 0.79321 0.32548
 O64 O 0.79904 0.73213 0.32924
 O65 O 0.69859 0.81467 0.29389
 O66 O 0.82274 0.69897 0.29258
 O67 O 0.73374 0.79265 0.33011
 O68 O 0.82196 0.81730 0.28461
 O69 O 0.80382 0.75676 0.27498
 O70 O 0.75942 0.80055 0.27472
 O71 O 0.75946 0.71272 0.28214
 O72 O 0.71667 0.75474 0.28272
 Zr73 Zr 0.75043 0.74723 0.19762
 Zr74 Zr 0.79872 0.71163 0.25078
 Zr75 Zr 0.71484 0.79494 0.25124
 Zr76 Zr 0.79891 0.79706 0.24452
 O77 O 0.66306 0.79053 0.25462
 O78 O 0.85024 0.78888 0.24010
 O79 O 0.75414 0.79423 0.21970
 O80 O 0.79644 0.75206 0.21981
 O81 O 0.75406 0.70556 0.22697
 O82 O 0.71021 0.74982 0.22761
 C83 C 0.81668 0.81321 0.31389
 C84 C 0.70947 0.81148 0.32191
 C85 C 0.81957 0.70958 0.32059
 O86 O 0.85006 0.71593 0.24375
 O87 O 0.81148 0.68795 0.20880
 O88 O 0.77863 0.71267 0.17224
 C89 C 0.80121 0.69191 0.18065
 O90 O 0.69813 0.69411 0.30237
 Zr91 Zr 0.71486 0.70956 0.25787
 O92 O 0.71795 0.71292 0.17678
 O93 O 0.79564 0.65931 0.25774
 O94 O 0.72396 0.65747 0.26139
 O95 O 0.66308 0.71533 0.26088
 O96 O 0.69371 0.68723 0.21821
 C97 C 0.69778 0.69179 0.18890
 O98 O 0.77266 0.77003 0.15851
 O99 O 0.71821 0.84764 0.24778
 O100 O 0.71681 0.77673 0.17227
 O101 O 0.69423 0.81091 0.20876
 O102 O 0.79242 0.84966 0.24261
 O103 O 0.81255 0.81572 0.20012
 C104 C 0.69749 0.80045 0.18070
 H105 H 0.75996 0.82225 0.28568
 H106 H 0.81462 0.75136 0.20462
 H107 H 0.68869 0.74889 0.21676
 H108 H 0.76086 0.69408 0.29730
 H109 H 0.86136 0.81071 0.24312
 H110 H 0.85937 0.69314 0.24596
 H111 H 0.81826 0.65038 0.25556
 H112 H 0.70262 0.64584 0.25854
 H113 H 0.81442 0.86005 0.24519
 H114 H 0.69552 0.85642 0.24974
 H115 H 0.65395 0.81345 0.25279
 H116 H 0.65305 0.69287 0.25856
 H117 H 0.83168 0.83090 0.20237
 H118 H 0.76264 0.75989 0.13971
 H119 H 0.75187 0.74526 0.36216
 H120 H 0.68350 0.67444 0.30011
 Zr121 Zr 0.74407 0.24249 -0.30776
 O122 O 0.72064 0.26986 -0.34376
 O123 O 0.77449 0.21024 -0.33264
 O124 O 0.77907 0.27108 -0.33222
 O125 O 0.68009 0.18607 -0.29828
 O126 O 0.80564 0.30073 -0.29444
 O127 O 0.71338 0.21085 -0.33427
 O128 O 0.80335 0.18291 -0.29469
 O129 O 0.78653 0.24250 -0.28001
 O130 O 0.74174 0.19907 -0.28073
 O131 O 0.74237 0.28722 -0.28225
 O132 O 0.69902 0.24559 -0.28379
 Zr133 Zr 0.73812 0.24612 -0.20008
 Zr134 Zr 0.78348 0.28563 -0.25263
 Zr135 Zr 0.69860 0.20298 -0.25507
 Zr136 Zr 0.78306 0.19992 -0.25224
 O137 O 0.64678 0.20825 -0.25630
 O138 O 0.83467 0.20749 -0.24961
 O139 O 0.73983 0.20098 -0.22539
 O140 O 0.78268 0.24286 -0.22447
 O141 O 0.74038 0.29001 -0.22655
 O142 O 0.69605 0.24618 -0.22827
 C143 C 0.79641 0.18932 -0.32339
 C144 C 0.68974 0.19110 -0.32642
 C145 C 0.80083 0.29227 -0.32291
 O146 O 0.83509 0.28065 -0.24765
 O147 O 0.79865 0.30631 -0.20975
 O148 O 0.76806 0.27857 -0.17359
 C149 C 0.79006 0.30016 -0.18151
 O150 O 0.67986 0.30746 -0.29839
 Zr151 Zr 0.69929 0.28873 -0.25583
 O152 O 0.70707 0.27844 -0.17552
 O153 O 0.78055 0.33832 -0.25648
 O154 O 0.70876 0.34089 -0.25665
 O155 O 0.64731 0.28376 -0.25637
 O156 O 0.68135 0.30846 -0.21372
 C157 C 0.68690 0.30110 -0.18501
 O158 O 0.76255 0.22016 -0.16371
 O159 O 0.70151 0.15014 -0.25488
 O160 O 0.70586 0.21493 -0.17533
 O161 O 0.68009 0.18408 -0.21279
 O162 O 0.77642 0.14733 -0.25367
 O163 O 0.79902 0.17770 -0.20985
 C164 C 0.68547 0.19230 -0.18430
 H165 H 0.74152 0.17824 -0.29305
 H166 H 0.80173 0.24230 -0.21005
 H167 H 0.67525 0.24646 -0.21642
 H168 H 0.74314 0.30695 -0.29620
 H169 H 0.84534 0.18592 -0.25464
 H170 H 0.84448 0.30350 -0.24888
 H171 H 0.80335 0.34695 -0.25459
 H172 H 0.68778 0.35242 -0.25201
 H173 H 0.79819 0.13720 -0.25787
 H174 H 0.67862 0.14169 -0.25643
 H175 H 0.63744 0.18536 -0.25551
 H176 H 0.63785 0.30611 -0.25211
 H177 H 0.81806 0.16292 -0.21388
 H178 H 0.75383 0.22881 -0.14382
 H179 H 0.72930 0.26124 -0.36367
 H180 H 0.66552 0.32692 -0.29420
 Zr181 Zr 0.24849 0.74991 -0.30288
 O182 O 0.27468 0.72436 -0.33792
 O183 O 0.21820 0.78167 -0.32927
 O184 O 0.21662 0.72062 -0.33037
 O185 O 0.30779 0.81050 -0.28797
 O186 O 0.18907 0.68865 -0.29500
 O187 O 0.28149 0.78169 -0.32637
 O188 O 0.18405 0.80385 -0.29299
 O189 O 0.20429 0.74735 -0.27830
 O190 O 0.24678 0.79270 -0.27531
 O191 O 0.25045 0.70461 -0.27795
 O192 O 0.29171 0.74821 -0.27554
 Zr193 Zr 0.24656 0.74341 -0.19487
 Zr194 Zr 0.20729 0.70368 -0.25161
 Zr195 Zr 0.28804 0.79003 -0.24644
 Zr196 Zr 0.20380 0.78908 -0.24961
 O197 O 0.33999 0.78701 -0.24468
 O198 O 0.15235 0.78004 -0.24897
 O199 O 0.24487 0.78920 -0.21967
 O200 O 0.20394 0.74542 -0.22267
 O201 O 0.24830 0.70044 -0.22232
 O202 O 0.29058 0.74611 -0.21988
 C203 C 0.19324 0.79935 -0.32129
 C204 C 0.30225 0.80383 -0.31688
 C205 C 0.19536 0.69815 -0.32291
 O206 O 0.15527 0.70629 -0.25091
 O207 O 0.18971 0.68138 -0.21068
 O208 O 0.21506 0.70946 -0.17138
 C209 C 0.19481 0.68713 -0.18165
 O210 O 0.31565 0.68917 -0.28943
 Zr211 Zr 0.29138 0.70434 -0.24824
 O212 O 0.27511 0.70989 -0.16865
 O213 O 0.21291 0.65128 -0.25561
 O214 O 0.28494 0.65189 -0.25215
 O215 O 0.34287 0.71139 -0.24305
 O216 O 0.30513 0.68254 -0.20526
 C217 C 0.29605 0.68769 -0.17705
 O218 O 0.21911 0.76785 -0.16003
 O219 O 0.28252 0.84261 -0.24487
 O220 O 0.27647 0.77474 -0.16736
 O221 O 0.30283 0.80804 -0.20265
 O222 O 0.20818 0.84191 -0.25176
 O223 O 0.18525 0.81027 -0.20807
 C224 C 0.29633 0.79860 -0.17469
 H225 H 0.24683 0.81370 -0.28757
 H226 H 0.18380 0.74480 -0.20983
 H227 H 0.31036 0.74599 -0.20636
 H228 H 0.25162 0.68529 -0.29221
 H229 H 0.14121 0.80138 -0.25426
 H230 H 0.14698 0.68307 -0.25294
 H231 H 0.19046 0.64157 -0.25584
 H232 H 0.30603 0.64119 -0.24609
 H233 H 0.18624 0.85090 -0.25749
 H234 H 0.30500 0.85225 -0.24461
 H235 H 0.34822 0.81023 -0.24260
 H236 H 0.35269 0.68922 -0.23846
 H237 H 0.16674 0.82548 -0.21312
 H238 H 0.22650 0.75866 -0.13973
 H239 H 0.26717 0.73349 -0.35821
 H240 H 0.33097 0.67061 -0.28456
 Zr241 Zr 1.25697 1.26049 0.80697
 O242 O 1.22883 1.23917 0.84334
 O243 O 1.29201 1.28854 0.83194
 O244 O 1.28442 1.22693 0.83460
 O245 O 1.20187 1.32436 0.79152
 O246 O 1.30915 1.19321 0.79919
 O247 O 1.22783 1.29548 0.83035
 O248 O 1.32556 1.30926 0.79415
 O249 O 1.30004 1.25279 0.78167
 O250 O 1.26250 1.30253 0.77843
 O251 O 1.24900 1.21556 0.78292
 O252 O 1.21333 1.26323 0.78018
 Zr253 Zr 1.25568 1.25275 0.69875
 Zr254 Zr 1.29116 1.20946 0.75602
 Zr255 Zr 1.22071 1.30396 0.75016
 Zr256 Zr 1.30425 1.29386 0.75190
 O257 O 1.16874 1.30721 0.74798
 O258 O 1.35431 1.27886 0.75188
 O259 O 1.26291 1.29826 0.72264
 O260 O 1.29870 1.25004 0.72597
 O261 O 1.24960 1.21062 0.72720
 O262 O 1.21275 1.26058 0.72443
 C263 C 1.31732 1.30514 0.82272
 C264 C 1.20737 1.31755 0.82036
 C265 C 1.30338 1.20258 0.82713
 O266 O 1.34302 1.20614 0.75277
 O267 O 1.30266 1.18293 0.71590
 O268 O 1.28225 1.21444 0.67589
 C269 C 1.29810 1.18905 0.68698
 O270 O 1.18293 1.20653 0.79530
 Zr271 Zr 1.20783 1.21953 0.75368
 O272 O 1.22156 1.22422 0.67354
 O273 O 1.28038 1.15813 0.76285
 O274 O 1.20904 1.16664 0.75733
 O275 O 1.15743 1.23295 0.75032
 O276 O 1.19002 1.20014 0.71123
 C277 C 1.19821 1.20492 0.68268
 O278 O 1.28546 1.27218 0.66272
 O279 O 1.23195 1.35563 0.74907
 O280 O 1.23038 1.28840 0.67121
 O281 O 1.20720 1.32358 0.70657
 O282 O 1.30511 1.34690 0.75147
 O283 O 1.32497 1.31113 0.70955
 C284 C 1.21280 1.31396 0.67861
 H285 H 1.26464 1.32356 0.79032
 H286 H 1.31834 1.24668 0.71284
 H287 H 1.19285 1.26297 0.71125
 H288 H 1.24588 1.19662 0.79750
 H289 H 1.36785 1.29896 0.75619
 H290 H 1.34880 1.18224 0.75554
 H291 H 1.30160 1.14591 0.76248
 H292 H 1.18685 1.15822 0.75172
 H293 H 1.32797 1.35399 0.75621
 H294 H 1.21063 1.36765 0.74920
 H295 H 1.16316 1.33128 0.74626
 H296 H 1.14483 1.21229 0.74576
 H297 H 1.34519 1.32414 0.71402
 H298 H 1.27627 1.26382 0.64282
 H299 H 1.23790 1.24757 0.86328
 H300 H 1.16589 1.18949 0.79072
 Zr301 Zr 0.75501 0.75698 0.80591
 O302 O 0.77578 0.78640 0.84184
 O303 O 0.73018 0.72028 0.83163
 O304 O 0.71916 0.78245 0.83181
 O305 O 0.82376 0.70769 0.79357
 O306 O 0.68782 0.80923 0.79528
 O307 O 0.79209 0.73189 0.83091
 O308 O 0.70248 0.69075 0.79455
 O309 O 0.71150 0.75258 0.77996
 O310 O 0.76065 0.71429 0.77861
 O311 O 0.75114 0.80177 0.78052
 O312 O 0.79842 0.76472 0.78016
 Zr313 Zr 0.75624 0.76244 0.69766
 Zr314 Zr 0.70916 0.79603 0.75260
 Zr315 Zr 0.80186 0.72283 0.75113
 Zr316 Zr 0.71828 0.71109 0.75160
 O317 O 0.85278 0.73381 0.74954
 O318 O 0.66613 0.71322 0.75156
 O319 O 0.75978 0.71716 0.72306
 O320 O 0.71333 0.75410 0.72393
 O321 O 0.75050 0.80514 0.72501
 O322 O 0.79927 0.76639 0.72425
 C323 C 0.71044 0.69697 0.82298
 C324 C 0.81647 0.71390 0.82208
 C325 C 0.69539 0.80184 0.82355
 O326 O 0.65822 0.78530 0.74988
 O327 O 0.68998 0.81551 0.71068
 O328 O 0.72204 0.79249 0.67306
 C329 C 0.69815 0.81120 0.68213
 O330 O 0.81338 0.82559 0.79492
 Zr331 Zr 0.79268 0.80778 0.75269
 O332 O 0.78364 0.79830 0.67241
 O333 O 0.70707 0.84877 0.75598
 O334 O 0.77952 0.85888 0.75702
 O335 O 0.84468 0.80860 0.74855
 O336 O 0.80310 0.83225 0.71080
 C337 C 0.79878 0.82461 0.68218
 O338 O 0.73254 0.73615 0.66125
 O339 O 0.80459 0.66996 0.75175
 O340 O 0.78858 0.73215 0.67178
 O341 O 0.81904 0.70446 0.70840
 O342 O 0.73083 0.65960 0.75172
 O343 O 0.70196 0.68799 0.70991
 C344 C 0.81064 0.71070 0.68009
 H345 H 0.76388 0.69358 0.79092
 H346 H 0.69379 0.75170 0.71028
 H347 H 0.81918 0.76882 0.71127
 H348 H 0.74919 0.82123 0.79452
 H349 H 0.65794 0.69060 0.75703
 H350 H 0.64653 0.80695 0.75160
 H351 H 0.68347 0.85503 0.75535
 H352 H 0.79933 0.87243 0.75232
 H353 H 0.71067 0.64683 0.75697
 H354 H 0.82827 0.66402 0.75246
 H355 H 0.86436 0.71205 0.74854
 H356 H 0.85124 0.83208 0.74443
 H357 H 0.68503 0.67097 0.71484
 H358 H 0.74007 0.74612 0.64137
 H359 H 0.76913 0.77628 0.86194
 H360 H 0.82706 0.84559 0.79070
 Zr361 Zr 1.25498 0.73667 0.19621
 O362 O 1.23504 0.75733 0.15481
 O363 O 1.29081 0.70420 0.17836
 O364 O 1.28895 0.76633 0.17172
 O365 O 1.19308 0.67790 0.20610
 O366 O 1.30986 0.80159 0.20838
 O367 O 1.22676 0.70244 0.17035
 O368 O 1.31701 0.68496 0.22187
 O369 O 1.29404 0.74295 0.22752
 O370 O 1.25231 0.69645 0.22724
 O371 O 1.24749 0.78375 0.21654
 O372 O 1.20751 0.73909 0.21573
 Zr373 Zr 1.23683 0.75266 0.30200
 Zr374 Zr 1.28525 0.78863 0.24951
 Zr375 Zr 1.20651 0.70025 0.24864
 Zr376 Zr 1.28986 0.70385 0.25946
 O377 O 1.15472 0.70139 0.24321
 O378 O 1.34029 0.71474 0.26750
 O379 O 1.24414 0.70506 0.28196
 O380 O 1.28386 0.74963 0.28203
 O381 O 1.23936 0.79300 0.27101
 O382 O 1.19810 0.74601 0.27042
 C383 C 1.31349 0.68728 0.19226
 C384 C 1.20355 0.68226 0.17817
 C385 C 1.30767 0.79050 0.18045
 O386 O 1.33655 0.78750 0.25821
 O387 O 1.29588 0.81415 0.29097
 O388 O 1.26281 0.78962 0.32714
 C389 C 1.28516 0.81067 0.31886
 O390 O 1.18567 0.79598 0.19261
 Zr391 Zr 1.20182 0.78499 0.23856
 O392 O 1.20137 0.78594 0.31956
 O393 O 1.27915 0.84045 0.24116
 O394 O 1.20755 0.83725 0.23176
 O395 O 1.15052 0.77581 0.23476
 O396 O 1.17907 0.80932 0.27586
 C397 C 1.18182 0.80639 0.30545
 O398 O 1.25818 0.73414 0.34364
 O399 O 1.21292 0.64799 0.25379
 O400 O 1.20559 0.72047 0.32707
 O401 O 1.18576 0.68405 0.29079
 O402 O 1.28624 0.65098 0.26192
 O403 O 1.30138 0.68746 0.30525
 C404 C 1.18842 0.69494 0.31878
 H405 H 1.25463 0.67454 0.21686
 H406 H 1.30138 0.75191 0.29793
 H407 H 1.17627 0.74604 0.28053
 H408 H 1.24824 0.80187 0.20082
 H409 H 1.35259 0.69339 0.26629
 H410 H 1.34470 0.81073 0.25573
 H411 H 1.30115 0.85087 0.24363
 H412 H 1.18537 0.84749 0.23268
 H413 H 1.30892 0.64193 0.26099
 H414 H 1.19089 0.63768 0.25119
 H415 H 1.14690 0.67802 0.24543
 H416 H 1.13921 0.79774 0.23540
 H417 H 1.32073 0.67243 0.30471
 H418 H 1.24639 0.74461 0.36124
 H419 H 1.24643 0.74672 0.13705
 H420 H 1.16915 0.81416 0.19313
 Zr421 Zr 0.74821 1.24454 0.19761
 O422 O 0.77458 1.21740 0.16369
 O423 O 0.71561 1.27272 0.16974
 O424 O 0.71834 1.21044 0.17336
 O425 O 0.80765 1.30595 0.20684
 O426 O 0.69183 1.18121 0.21137
 O427 O 0.77993 1.27465 0.17102
 O428 O 0.68368 1.29945 0.20523
 O429 O 0.70466 1.24250 0.22327
 O430 O 0.74578 1.28958 0.22193
 O431 O 0.75270 1.20180 0.22597
 O432 O 0.79204 1.24692 0.22408
 Zr433 Zr 0.74946 1.24745 0.30577
 Zr434 Zr 0.71010 1.20139 0.25316
 Zr435 Zr 0.78769 1.29101 0.25002
 Zr436 Zr 0.70357 1.28658 0.24892
 O437 O 0.83973 1.29069 0.25246
 O438 O 0.65259 1.27519 0.24990
 O439 O 0.74524 1.29077 0.27771
 O440 O 0.70609 1.24539 0.27901
 O441 O 0.75210 1.20226 0.28166
 O442 O 0.79270 1.24992 0.27969
 C443 C 0.69172 1.29219 0.17719
 C444 C 0.80161 1.29657 0.17875
 C445 C 0.69820 1.18780 0.18274
 O446 O 0.65805 1.20240 0.25441
 O447 O 0.69364 1.18268 0.29613
 O448 O 0.72216 1.21267 0.33234
 C449 C 0.70128 1.18997 0.32434
 O450 O 0.81725 1.18624 0.21424
 Zr451 Zr 0.79436 1.20575 0.25455
 O452 O 0.78250 1.22022 0.33377
 O453 O 0.71758 1.14902 0.25352
 O454 O 0.78955 1.15299 0.25693
 O455 O 0.84564 1.21571 0.25570
 O456 O 0.81225 1.19063 0.29853
 C457 C 0.80505 1.19916 0.32648
 O458 O 0.72044 1.27161 0.33966
 O459 O 0.78026 1.34321 0.24584
 O460 O 0.77590 1.28452 0.32987
 O461 O 0.80158 1.31464 0.29181
 O462 O 0.70643 1.33937 0.24462
 O463 O 0.68413 1.30957 0.28927
 C464 C 0.79450 1.30854 0.32042
 H465 H 0.74512 1.30940 0.20809
 H466 H 0.68636 1.24507 0.29241
 H467 H 0.81274 1.25254 0.29261
 H468 H 0.75445 1.18123 0.21337
 H469 H 0.64051 1.29562 0.24346
 H470 H 0.65050 1.17882 0.25433
 H471 H 0.69550 1.13854 0.25459
 H472 H 0.81125 1.14379 0.26319
 H473 H 0.68415 1.34759 0.23902
 H474 H 0.80239 1.35359 0.24488
 H475 H 0.84693 1.31438 0.25213
 H476 H 0.85693 1.19473 0.26190
 H477 H 0.66458 1.32306 0.28351
 H478 H 0.72925 1.26498 0.36032
 H479 H 0.76617 1.22438 0.14297
 H480 H 0.83296 1.16844 0.22036
 O481 O 0.45940 1.06141 0.02416
 O482 O 0.53446 0.93304 0.02468
 O483 O 0.43408 0.95899 0.02617
 O484 O 0.55981 1.03515 0.02290
 O485 O 0.47988 0.94039 0.04266
 O486 O 0.51492 1.05401 0.04061
 O487 O 0.55314 0.97936 0.04093
 O488 O 0.44146 1.01546 0.04236
 C489 C 0.44441 1.04595 0.04503
 C490 C 0.54947 0.94915 0.04508
 C491 C 0.45023 0.94427 0.04681
 C492 C 0.54471 1.04980 0.04402
 O493 O 0.53483 1.05961 -0.01990
 O494 O 0.45693 0.93327 -0.01682
 O495 O 0.43384 1.03600 -0.01780
 O496 O 0.55805 0.95701 -0.01885
 O497 O 0.51188 0.93923 -0.03511
 O498 O 0.47915 1.05360 -0.03600
 O499 O 0.55164 1.01290 -0.03671
 O500 O 0.43913 0.97963 -0.03418
 Co501 Co 0.49704 1.05130 0.00231
 Co502 Co 0.49585 0.94234 0.00376
 Co503 Co 0.44286 0.99743 0.00405
 Co504 Co 0.54996 0.99618 0.00217
 O505 O 0.49642 0.99681 0.00307
 C506 C 0.54815 1.04313 -0.04093
 C507 C 0.44194 0.94924 -0.03746
 C508 C 0.44922 1.05039 -0.03901
 C509 C 0.54170 0.94210 -0.03916
 O510 O 0.98165 0.55309 0.54264
 O511 O 1.01562 0.43891 0.53991
 O512 O 0.94222 0.47855 0.54315
 O513 O 1.05444 0.51349 0.53884
 O514 O 0.95928 0.43273 0.52443
 O515 O 1.03596 0.56003 0.52275
 O516 O 1.06003 0.45774 0.52086
 O517 O 0.93490 0.53534 0.52754
 C518 C 0.95183 0.55067 0.54723
 C519 C 1.04567 0.44252 0.54220
 C520 C 0.94560 0.44809 0.54596
 C521 C 1.05152 0.54378 0.54274
 O522 O 1.01140 0.55448 0.46388
 O523 O 0.97756 0.44038 0.46404
 O524 O 0.93822 0.51531 0.46662
 O525 O 1.05022 0.47994 0.46142
 O526 O 1.03365 0.43324 0.47898
 O527 O 0.95730 0.56080 0.48405
 O528 O 1.05776 0.53581 0.47874
 O529 O 0.93286 0.45873 0.48291
 Co530 Co 0.99660 0.55124 0.50326
 Co531 Co 0.99652 0.44223 0.50196
 Co532 Co 0.94280 0.49698 0.50482
 Co533 Co 1.04985 0.49678 0.50023
 O534 O 0.99643 0.49680 0.50259
 C535 C 1.04097 0.55094 0.45883
 C536 C 0.94766 0.44462 0.46123
 C537 C 0.94234 0.54557 0.46314
 C538 C 1.04760 0.44951 0.45802
 O539 O 1.01855 0.44612 0.05053
 O540 O 1.01241 0.54585 -0.05806
 O541 O 1.01979 0.44000 -0.04569
 O542 O 1.02873 0.55154 0.03690
 O543 O 1.03450 0.48957 -0.05962
 O544 O 1.04353 0.50163 0.04922
 O545 O 1.03737 0.55452 -0.01628
 O546 O 1.03541 0.43529 0.00583
 C547 C 1.03994 0.43337 0.03392
 C548 C 1.03708 0.55711 -0.04466
 C549 C 1.03986 0.45912 -0.05922
 C550 C 1.04967 0.53194 0.04858
 O551 O 0.98508 0.52739 0.06354
 O552 O 0.97386 0.46649 -0.06691
 O553 O 0.96948 0.43043 0.02447
 O554 O 0.96950 0.56353 -0.02643
 O555 O 0.95225 0.52001 -0.05045
 O556 O 0.95938 0.47462 0.05105
 O557 O 0.96052 0.55047 0.02616
 O558 O 0.95350 0.44384 -0.02735
 Co559 Co 1.00119 0.48834 0.04777
 Co560 Co 0.99360 0.50457 -0.05286
 Co561 Co 0.99462 0.44276 -0.00991
 Co562 Co 0.99877 0.54966 0.00435
 O563 O 0.99704 0.49631 -0.00263
 C564 C 0.96156 0.54444 0.05420
 C565 C 0.95123 0.44992 -0.05536
 C566 C 0.95174 0.44583 0.04363
 C567 C 0.94798 0.54942 -0.04292
 O568 O 0.50740 0.97438 0.56367
 O569 O 0.53901 1.02831 0.45707
 O570 O 0.52154 0.92682 0.47238
 O571 O 0.51195 1.06672 0.51447
 O572 O 0.54740 0.97006 0.45631
 O573 O 0.53130 1.02659 0.54169
 O574 O 0.50080 1.06322 0.45834
 O575 O 0.52514 0.93825 0.52963
 C576 C 0.52562 0.95012 0.55661
 C577 C 0.52980 1.05709 0.45201
 C578 C 0.54597 0.93930 0.45944
 C579 C 0.53381 1.05582 0.53237
 O580 O 0.47666 1.03695 0.56946
 O581 O 0.48488 0.95924 0.43455
 O582 O 0.46033 0.93884 0.53173
 O583 O 0.44328 1.03545 0.46884
 O584 O 0.47543 1.01866 0.43179
 O585 O 0.44867 0.98958 0.54459
 O586 O 0.45053 1.04509 0.52521
 O587 O 0.45867 0.93275 0.47213
 Co588 Co 0.49012 1.00817 0.53975
 Co589 Co 0.51037 0.99463 0.44874
 Co590 Co 0.49152 0.94005 0.50106
 Co591 Co 0.47832 1.04746 0.49213
 O592 O 0.49408 0.99476 0.49443
 C593 C 0.45592 1.05510 0.55284
 C594 C 0.46183 0.94020 0.44386
 C595 C 0.44270 0.95904 0.54626
 C596 C 0.44767 1.02921 0.44074
 O597 O 1.07859 1.02662 0.48252
 O598 O 0.94273 1.03161 0.52643
 O599 O 0.98556 1.03167 0.43768
 O600 O 1.03553 1.01533 0.56984
 O601 O 0.95995 1.04988 0.47676
 O602 O 1.06169 1.03841 0.53351
 O603 O 0.98531 1.04175 0.55423
 O604 O 1.03891 1.04812 0.45674
 C605 C 1.06737 1.05037 0.46674
 C606 C 0.95720 1.04953 0.54614
 C607 C 0.96849 1.05389 0.44961
 C608 C 1.05350 1.03854 0.56094
 O609 O 1.05973 0.97026 0.54583
 O610 O 0.95471 0.98547 0.45453
 O611 O 1.05925 0.98432 0.45012
 O612 O 0.95638 0.98155 0.55126
 O613 O 0.94746 0.96571 0.50553
 O614 O 1.06496 0.95967 0.49309
 O615 O 1.00995 0.95550 0.55334
 O616 O 1.00275 0.96725 0.44325
 Co617 Co 1.06087 0.99924 0.51266
 Co618 Co 0.95666 1.00769 0.49197
 Co619 Co 1.02041 1.00740 0.45253
 Co620 Co 0.99806 0.99893 0.55160
 O621 O 1.00899 1.00330 0.50213
 C622 C 1.03953 0.94860 0.55457
 C623 C 0.97253 0.96435 0.44121
 C624 C 1.06820 0.95907 0.46482
 C625 C 0.94375 0.96082 0.53341
 O626 O 0.57604 0.52126 -0.03273
 O627 O 0.44088 0.52273 0.02432
 O628 O 0.47850 0.55472 -0.03845
 O629 O 0.54153 0.55377 0.04044
 O630 O 0.44071 0.51888 -0.03290
 O631 O 0.57948 0.52050 0.02344
 O632 O 0.47899 0.55028 0.05022
 O633 O 0.53633 0.55551 -0.03653
 C634 C 0.56602 0.55019 -0.03876
 C635 C 0.44956 0.54615 0.04214
 C636 C 0.44912 0.54794 -0.03998
 C637 C 0.57104 0.54826 0.03468
 O638 O 0.55564 0.45689 0.02419
 O639 O 0.46579 0.45715 -0.02894
 O640 O 0.53845 0.49506 -0.06581
 O641 O 0.48561 0.48727 0.06478
 O642 O 0.45771 0.45956 0.02953
 O643 O 0.54853 0.45852 -0.03107
 O644 O 0.54626 0.49123 0.06093
 O645 O 0.47966 0.49216 -0.06506
 Co646 Co 0.56021 0.49068 -0.00390
 Co647 Co 0.45701 0.49088 -0.00218
 Co648 Co 0.50833 0.52278 -0.04738
 Co649 Co 0.51304 0.51934 0.04863
 O650 O 0.50930 0.50533 -0.00079
 C651 C 0.55441 0.46264 0.05236
 C652 C 0.46979 0.46351 -0.05697
 C653 C 0.54653 0.46586 -0.05890
 C654 C 0.46644 0.46386 0.05718
 C655 C 0.31620 1.18686 0.14915
 C656 C 0.33366 1.15734 0.15453
 C657 C 0.35505 1.14181 0.13131
 N658 N 0.36865 1.11152 0.13746
 N659 N 0.38880 1.09723 0.11719
 C660 C 0.39635 1.11284 0.09010
 N661 N 0.38291 1.14327 0.08400
 N662 N 0.36260 1.15752 0.10423
 C663 C 0.41808 1.09692 0.06731
 C664 C 0.42693 1.06335 0.06988
 H665 H 0.33220 1.14519 0.17702
 H666 H 0.42540 1.11122 0.04706
 H667 H 0.31643 1.19843 0.12637
 H668 H 0.41800 1.04852 0.08919
 C669 C 0.82672 0.69141 0.65527
 C670 C 0.85243 0.66910 0.66139
 C671 C 0.86606 0.64667 0.63762
 N672 N 0.89418 0.62944 0.64362
 N673 N 0.90649 0.60845 0.62272
 C674 C 0.89094 0.60360 0.59511
 N675 N 0.86267 0.62063 0.58919
 N676 N 0.85048 0.64181 0.61001
 C677 C 0.90445 0.58074 0.57159
 C678 C 0.93682 0.56917 0.57299
 H679 H 0.86284 0.66770 0.68456
 H680 H 0.88938 0.57490 0.55151
 H681 H 0.81734 0.69399 0.63180
 H682 H 0.95270 0.57702 0.59189
 C683 C 0.67694 0.81582 0.15646
 C684 C 0.65641 0.84283 0.16263
 C685 C 0.63423 0.85686 0.13901
 N686 N 0.61950 0.88674 0.14402
 N687 N 0.59955 0.89998 0.12267
 C688 C 0.59334 0.88364 0.09570
 N689 N 0.60769 0.85350 0.09089
 N690 N 0.62784 0.84036 0.11215
 C691 C 0.57260 0.89871 0.07145
 C692 C 0.56575 0.93277 0.07139
 H693 H 0.65683 0.85438 0.18533
 H694 H 0.56504 0.88341 0.05197
 H695 H 0.67756 0.80526 0.13335
 H696 H 0.57519 0.94847 0.08985
 C697 C 1.19702 0.33299 0.65328
 C698 C 1.16993 0.35345 0.65907
 C699 C 1.15158 0.37090 0.63443
 N700 N 1.12130 0.38345 0.64058
 N701 N 1.10406 0.39922 0.61860
 C702 C 1.11662 0.40327 0.58969
 N703 N 1.14706 0.39101 0.58360
 N704 N 1.16420 0.37497 0.60553
 C705 C 1.09792 0.42069 0.56524
 C706 C 1.06413 0.42626 0.56745
 H707 H 1.16051 0.35535 0.68248
 H708 H 1.11082 0.42798 0.54431
 H709 H 1.20518 0.32906 0.62968
 H710 H 1.05066 0.41698 0.58735
 C711 C 0.66628 1.17585 -0.15987
 C712 C 0.64474 1.14953 -0.16580
 C713 C 0.62424 1.13528 -0.14109
 N714 N 0.60981 1.10498 -0.14491
 N715 N 0.59170 1.09163 -0.12233
 C716 C 0.58709 1.10829 -0.09528
 N717 N 0.60105 1.13883 -0.09168
 N718 N 0.61937 1.15206 -0.11415
 C719 C 0.56846 1.09329 -0.06967
 C720 C 0.56262 1.05905 -0.06831
 H721 H 0.64330 1.13874 -0.18879
 H722 H 0.56170 1.10898 -0.05028
 H723 H 0.66884 1.18522 -0.13642
 H724 H 0.57122 1.04304 -0.08680
 C725 C 1.17112 0.67672 0.34343
 C726 C 1.14712 0.65282 0.33698
 C727 C 1.13216 0.63266 0.36170
 N728 N 1.10331 0.61647 0.35650
 N729 N 1.08962 0.59800 0.37878
 C730 C 1.10455 0.59474 0.40692
 N731 N 1.13361 0.61055 0.41197
 N732 N 1.14712 0.62928 0.38980
 C733 C 1.08964 0.57491 0.43187
 C734 C 1.05618 0.56751 0.43212
 H735 H 1.13877 0.64907 0.31333
 H736 H 1.10485 0.56822 0.45169
 H737 H 1.17760 0.68215 0.36732
 H738 H 1.04037 0.57644 0.41352
 C739 C 0.31390 0.81529 -0.14917
 C740 C 0.33456 0.84253 -0.15452
 C741 C 0.35534 0.85708 -0.13010
 N742 N 0.37104 0.88646 -0.13545
 N743 N 0.39044 0.89982 -0.11381
 C744 C 0.39511 0.88412 -0.08612
 N745 N 0.37967 0.85454 -0.08086
 N746 N 0.36008 0.84127 -0.10245
 C747 C 0.41587 0.89911 -0.06185
 C748 C 0.42481 0.93268 -0.06314
 H749 H 0.33586 0.85353 -0.17751
 H750 H 0.42221 0.88420 -0.04162
 H751 H 0.31140 0.80524 -0.12590
 H752 H 0.41648 0.94814 -0.08234
 C753 C 0.80868 0.33025 0.34448
 C754 C 0.83448 0.35226 0.33842
 C755 C 0.84984 0.37225 0.36313
 N756 N 0.87990 0.38615 0.35857
 N757 N 0.89464 0.40331 0.38114
 C758 C 0.87972 0.40746 0.40901
 N759 N 0.84941 0.39404 0.41339
 N760 N 0.83478 0.37664 0.39090
 C761 C 0.89629 0.42518 0.43452
 C762 C 0.93019 0.43026 0.43456
 H763 H 0.84502 0.35343 0.31539
 H764 H 0.88198 0.43207 0.45466
 H765 H 0.79956 0.32764 0.36796
 H766 H 0.94477 0.42139 0.41529
 C767 C 1.19117 0.34839 0.16321
 C768 C 1.18048 0.34102 0.13319
 C769 C 1.15499 0.36187 0.11779
 N770 N 1.14479 0.35509 0.08840
 N771 N 1.12041 0.37264 0.07529
 C772 C 1.10512 0.39746 0.09120
 N773 N 1.11536 0.40423 0.12050
 N774 N 1.13979 0.38684 0.13350
 C775 C 1.07721 0.41639 0.07784
 C776 C 1.06804 0.41437 0.04668
 H777 H 1.18854 0.31823 0.12205
 H778 H 1.06375 0.43296 0.09302
 H779 H 1.18245 0.37116 0.17395
 H780 H 1.08242 0.39926 0.03095
 C781 C 0.67860 0.82841 0.65782
 C782 C 0.65303 0.85048 0.66486
 C783 C 0.63214 0.86649 0.64087
 N784 N 0.60889 0.88903 0.64932
 N785 N 0.58936 0.90332 0.62811
 C786 C 0.59227 0.89553 0.59758
 N787 N 0.61551 0.87298 0.58913
 N788 N 0.63510 0.85875 0.61034
 C789 C 0.57052 0.91064 0.57377
 C790 C 0.54753 0.93554 0.58054
 H791 H 0.64785 0.85615 0.68891
 H792 H 0.57283 0.90193 0.55010
 H793 H 0.68428 0.82328 0.63376
 H794 H 0.54571 0.94492 0.60402
 C795 C 1.17748 0.66912 -0.16080
 C796 C 1.15450 0.64482 -0.17009
 C797 C 1.13224 0.62653 -0.14908
 N798 N 1.13290 0.63040 -0.11773
 N799 N 1.11153 0.61388 -0.09978
 C800 C 1.08876 0.59303 -0.11261
 N801 N 1.08828 0.58925 -0.14385
 N802 N 1.10959 0.60560 -0.16168
 C803 C 1.06400 0.57514 -0.09392
 C804 C 1.06337 0.57491 -0.06156
 H805 H 1.15139 0.63940 -0.19457
 H806 H 1.04530 0.56128 -0.10648
 H807 H 1.18077 0.67405 -0.13625
 H808 H 1.08243 0.58763 -0.04849
 C809 C 0.68473 1.17109 0.34925
 C810 C 0.65352 1.15742 0.34451
 C811 C 0.63582 1.13804 0.36826
 N812 N 0.60262 1.13511 0.36622
 N813 N 0.58606 1.11656 0.38660
 C814 C 0.60212 1.09985 0.40963
 N815 N 0.63540 1.10254 0.41158
 N816 N 0.65196 1.12148 0.39138
 C817 C 0.58391 1.07777 0.43101
 C818 C 0.55020 1.08177 0.43558
 H819 H 0.64081 1.16225 0.32277
 H820 H 0.59698 1.05778 0.44281
 H821 H 0.69632 1.16942 0.37191
 H822 H 0.53787 1.10341 0.42575
 C823 C 0.81663 0.67194 0.15591
 C824 C 0.84126 0.64848 0.16208
 C825 C 0.85903 0.63055 0.13743
 N826 N 0.88230 0.60771 0.14534
 N827 N 0.89948 0.59199 0.12358
 C828 C 0.89414 0.59849 0.09298
 N829 N 0.87075 0.62127 0.08501
 N830 N 0.85349 0.63700 0.10682
 C831 C 0.91407 0.58203 0.06882
 C832 C 0.93851 0.55897 0.07666
 H833 H 0.84846 0.64350 0.18591
 H834 H 0.91026 0.58900 0.04474
 H835 H 0.80901 0.67654 0.13214
 H836 H 0.94211 0.55214 0.10080
 C837 C 0.31269 1.16440 0.66624
 C838 C 0.33093 1.17310 0.64024
 C839 C 0.35615 1.14991 0.62859
 N840 N 0.37040 1.15501 0.60057
 N841 N 0.39377 1.13435 0.59057
 C842 C 0.40408 1.10817 0.60842
 N843 N 0.39019 1.10341 0.63659
 N844 N 0.36667 1.12386 0.64645
 C845 C 0.42893 1.08444 0.59724
 C846 C 0.43529 1.08154 0.56577
 H847 H 0.32900 1.19798 0.63033
 H848 H 0.43997 1.06697 0.61353
 H849 H 0.31515 1.13930 0.67558
 H850 H 0.42221 1.09739 0.54942
 C851 C 0.80671 0.31854 -0.15609
 C852 C 0.82943 0.34412 -0.16162
 C853 C 0.84770 0.36157 -0.13667
 N854 N 0.86785 0.38742 -0.14414
 N855 N 0.88540 0.40299 -0.12234
 C856 C 0.88363 0.39337 -0.09210
 N857 N 0.86339 0.36753 -0.08455
 N858 N 0.84571 0.35195 -0.10639
 C859 C 0.90442 0.40972 -0.06810
 C860 C 0.92551 0.43603 -0.07589
 H861 H 0.83433 0.35168 -0.18534
 H862 H 0.90446 0.39986 -0.04464
 H863 H 0.80109 0.31152 -0.13239
 H864 H 0.92531 0.44534 -0.09955
 C865 C 0.30067 0.83106 0.34339
 C866 C 0.32703 0.85240 0.33692
 C867 C 0.34774 0.86774 0.36114
 N868 N 0.37391 0.88674 0.35268
 N869 N 0.39411 0.89949 0.37401
 C870 C 0.38897 0.89367 0.40469
 N871 N 0.36266 0.87481 0.41320
 N872 N 0.34243 0.86202 0.39183
 C873 C 0.41161 0.90708 0.42845
 C874 C 0.43919 0.92610 0.42055
 H875 H 0.33427 0.85647 0.31303
 H876 H 0.40645 0.90186 0.45264
 H877 H 0.29306 0.82715 0.36720
 H878 H 0.44407 0.93160 0.39636
 C879 C 1.16288 1.18332 0.33354
 C880 C 1.16924 1.17763 0.36493
 C881 C 1.14531 1.15946 0.38421
 N882 N 1.15486 1.14488 0.41131
 N883 N 1.13363 1.12669 0.42782
 C884 C 1.10204 1.12274 0.41793
 N885 N 1.09238 1.13791 0.39121
 N886 N 1.11361 1.15587 0.37464
 C887 C 1.07887 1.10065 0.43417
 C888 C 1.08898 1.07782 0.45679
 H889 H 1.19269 1.18481 0.37497
 H890 H 1.05376 1.09978 0.42559
 H891 H 1.14017 1.17406 0.32342
 H892 H 1.11421 1.07799 0.46505
 C893 C 0.69719 0.67530 -0.15243
 C894 C 0.66953 0.65539 -0.15696
 C895 C 0.65677 0.63357 -0.13229
 N896 N 0.62418 0.62653 -0.13134
 N897 N 0.61213 0.60687 -0.10913
 C898 C 0.63225 0.59312 -0.08726
 N899 N 0.66501 0.59964 -0.08850
 N900 N 0.67702 0.61977 -0.11050
 C901 C 0.61851 0.57090 -0.06329
 C902 C 0.58642 0.57600 -0.05337
 H903 H 0.65568 0.65736 -0.17846
 H904 H 0.63264 0.54967 -0.05502
 H905 H 0.70906 0.67566 -0.12985
 H906 H 0.57396 0.59883 -0.06036
 C907 C 0.81380 1.17113 0.65208
 C908 C 0.84273 1.15337 0.65735
 C909 C 0.85933 1.13533 0.63217
 N910 N 0.89099 1.12536 0.63586
 N911 N 0.90623 1.10878 0.61339
 C912 C 0.89038 1.10136 0.58641
 N913 N 0.85861 1.11110 0.58280
 N914 N 0.84342 1.12795 0.60520
 C915 C 0.90674 1.08145 0.56227
 C916 C 0.94055 1.07606 0.56345
 H917 H 0.85407 1.15360 0.68016
 H918 H 0.89188 1.06932 0.54465
 H919 H 0.80386 1.17264 0.62872
 H920 H 0.95516 1.08933 0.58055
 C921 C 0.33773 0.66932 0.17357
 C922 C 0.33397 0.66373 0.14186
 C923 C 0.35945 0.64584 0.12444
 N924 N 0.35231 0.63167 0.09662
 N925 N 0.37519 0.61447 0.08138
 C926 C 0.40605 0.61115 0.09332
 N927 N 0.41327 0.62579 0.12084
 N928 N 0.39038 0.64272 0.13615
 C929 C 0.43142 0.59138 0.07775
 C930 C 0.42427 0.56900 0.05396
 H931 H 0.31161 0.67134 0.12999
 H932 H 0.45622 0.59262 0.08707
 H933 H 0.35917 0.65943 0.18554
 H934 H 0.39927 0.56656 0.04538
 C935 C 1.17605 0.81403 0.65585
 C936 C 1.14691 0.83163 0.66102
 C937 C 1.12960 0.84929 0.63590
 N938 N 1.09855 0.86063 0.64041
 N939 N 1.08324 0.87835 0.61845
 C940 C 1.09851 0.88546 0.59123
 N941 N 1.12952 0.87402 0.58669
 N942 N 1.14474 0.85609 0.60855
 C943 C 1.08352 0.90821 0.56847
 C944 C 1.05082 0.91823 0.57046
 H945 H 1.13617 0.83246 0.68399
 H946 H 1.09942 0.91961 0.55128
 H947 H 1.18480 0.81155 0.63222
 H948 H 1.03401 0.90530 0.58584
 C949 C 0.67268 0.30794 0.15185
 C950 C 0.64704 0.33011 0.15811
 C951 C 0.62960 0.34931 0.13396
 N952 N 0.60760 0.37300 0.14250
 N953 N 0.59244 0.39179 0.12125
 C954 C 0.59862 0.38753 0.09058
 N955 N 0.62034 0.36354 0.08197
 N956 N 0.63563 0.34478 0.10327
 C957 C 0.58325 0.40938 0.06705
 C958 C 0.56580 0.43798 0.07535
 H959 H 0.64029 0.33495 0.18197
 H960 H 0.58767 0.40415 0.04277
 H961 H 0.67968 0.30304 0.12808
 H962 H 0.56246 0.44387 0.09965
 C963 C 0.83522 0.83335 0.33639
 C964 C 0.86347 0.85140 0.32908
 C965 C 0.87968 0.87241 0.35261
 N966 N 0.91121 0.88278 0.34871
 N967 N 0.92582 0.90187 0.37003
 C968 C 0.90933 0.91143 0.39590
 N969 N 0.87775 0.90132 0.39962
 N970 N 0.86326 0.88204 0.37846
 C971 C 0.92450 0.93350 0.41909
 C972 C 0.95826 0.93926 0.42031
 H973 H 0.87415 0.84955 0.30617
 H974 H 0.90855 0.94564 0.43568
 H975 H 0.82629 0.83357 0.36005
 H976 H 0.97457 0.92564 0.40509
 C977 C 0.33819 0.32080 -0.15338
 C978 C 0.36533 0.34047 -0.16129
 C979 C 0.38569 0.35770 -0.13805
 N980 N 0.40889 0.37993 -0.14743
 N981 N 0.42682 0.39670 -0.12671
 C982 C 0.42233 0.39166 -0.09584
 N983 N 0.39941 0.36911 -0.08646
 N984 N 0.38139 0.35244 -0.10718
 C985 C 0.44024 0.41150 -0.07261
 C986 C 0.45903 0.43944 -0.08060
 H987 H 0.37132 0.34443 -0.18551
 H988 H 0.43584 0.40587 -0.04836
 H989 H 0.33177 0.31728 -0.12921
 H990 H 0.46287 0.44572 -0.10480
 C991 C 1.18843 0.33528 -0.15598
 C992 C 1.16759 0.36179 -0.16317
 C993 C 1.14496 0.37550 -0.14007
 N994 N 1.13004 0.40530 -0.14537
 N995 N 1.10861 0.41743 -0.12505
 C996 C 1.10107 0.40005 -0.09885
 N997 N 1.11580 0.37012 -0.09365
 N998 N 1.13746 0.35812 -0.11385
 C999 C 1.07656 0.41280 -0.07697
 C1000 C 1.06699 0.44614 -0.07780
 H1001 H 1.16740 0.37238 -0.18637
 H1002 H 1.06581 0.39579 -0.06019
 H1003 H 1.18998 0.32624 -0.13226
 H1004 H 1.07945 0.46346 -0.09320
 C1005 C 0.69378 0.83158 0.34631
 C1006 C 0.66140 0.84268 0.34348
 C1007 C 0.64568 0.86393 0.36693
 N1008 N 0.61274 0.86178 0.37135
 N1009 N 0.59781 0.88155 0.39169
 C1010 C 0.61515 0.90465 0.40805
 N1011 N 0.64810 0.90716 0.40335
 N1012 N 0.66315 0.88695 0.38332
 C1013 C 0.59805 0.92741 0.42943
 C1014 C 0.56972 0.91677 0.44463
 H1015 H 0.64648 0.83417 0.32414
 H1016 H 0.60701 0.95272 0.43235
 H1017 H 0.70760 0.83695 0.36728
 H1018 H 0.56303 0.89055 0.44344
 C1019 C 0.83689 0.69917 -0.15319
 C1020 C 0.85346 0.66909 -0.15721
 C1021 C 0.87046 0.65219 -0.13136
 N1022 N 0.87664 0.61896 -0.13308
 N1023 N 0.89182 0.60314 -0.10984
 C1024 C 0.90155 0.61995 -0.08403
 N1025 N 0.89566 0.65330 -0.08240
 N1026 N 0.88014 0.66910 -0.10555
 C1027 C 0.92029 0.60276 -0.05935
 C1028 C 0.92117 0.56798 -0.05802
 H1029 H 0.85169 0.65623 -0.17925
 H1030 H 0.93575 0.61743 -0.04401
 H1031 H 0.83613 0.71043 -0.13038
 H1032 H 0.90454 0.55378 -0.07266
 C1033 C 0.31080 1.16541 0.33928
 C1034 C 0.33246 1.13950 0.33190
 C1035 C 0.34830 1.11829 0.35594
 N1036 N 0.37000 1.09415 0.34759
 N1037 N 0.38524 1.07553 0.36905
 C1038 C 0.37926 1.08023 0.39974
 N1039 N 0.35737 1.10418 0.40806
 N1040 N 0.34216 1.12281 0.38661
 C1041 C 0.39766 1.06169 0.42403
 C1042 C 0.42290 1.03917 0.41724
 H1043 H 0.33838 1.13483 0.30782
 H1044 H 0.39336 1.06853 0.44798
 H1045 H 0.30480 1.16983 0.36339
 H1046 H 0.42757 1.03265 0.39329
 C1047 C 1.18756 0.66363 0.15290
 C1048 C 1.16769 0.63583 0.15828
 C1049 C 1.14853 0.62012 0.13322
 N1050 N 1.13575 0.58907 0.13730
 N1051 N 1.11695 0.57528 0.11538
 C1052 C 1.10999 0.59215 0.08869
 N1053 N 1.12269 0.62324 0.08466
 N1054 N 1.14177 0.63691 0.10644
 C1055 C 1.08700 0.57829 0.06561
 C1056 C 1.07840 0.54458 0.06570
 H1057 H 1.16594 0.62541 0.18148
 H1058 H 1.07535 0.59527 0.04925
 H1059 H 1.19131 0.67230 0.12932
 H1060 H 1.09165 0.52726 0.08060
 C1061 C 0.67404 1.17157 0.64857
 C1062 C 0.64178 1.15992 0.65045
 C1063 C 0.62748 1.13758 0.62680
 N1064 N 0.59541 1.14086 0.61839
 N1065 N 0.58176 1.11980 0.59815
 C1066 C 0.59949 1.09427 0.58595
 N1067 N 0.63148 1.09071 0.59464
 N1068 N 0.64533 1.11219 0.61445
 C1069 C 0.58344 1.06946 0.56559
 C1070 C 0.55867 1.07906 0.54491
 H1071 H 0.62618 1.16833 0.66918
 H1072 H 0.58975 1.04329 0.56826
 H1073 H 0.68823 1.16641 0.62791
 H1074 H 0.55481 1.10550 0.54063
 C1075 C 0.82082 0.31139 0.15323
 C1076 C 0.84017 0.33986 0.15700
 C1077 C 0.85976 0.35417 0.13148
 N1078 N 0.87156 0.38575 0.13395
 N1079 N 0.88973 0.39903 0.11141
 C1080 C 0.89705 0.38121 0.08555
 N1081 N 0.88547 0.34946 0.08315
 N1082 N 0.86701 0.33624 0.10564
 C1083 C 0.91844 0.39568 0.06131
 C1084 C 0.92478 0.42991 0.06086
 H1085 H 0.84024 0.35272 0.17908
 H1086 H 0.93051 0.37929 0.04498
 H1087 H 0.81911 0.29986 0.13056
 H1088 H 0.91141 0.44586 0.07669
 C1089 C 0.31842 0.82084 0.66084
 C1090 C 0.33930 0.84818 0.66617
 C1091 C 0.35611 0.86563 0.64025
 N1092 N 0.36865 0.89688 0.64417
 N1093 N 0.38433 0.91244 0.62105
 C1094 C 0.38824 0.89724 0.59313
 N1095 N 0.37585 0.86598 0.58930
 N1096 N 0.35992 0.85058 0.61228
 C1097 C 0.40795 0.91260 0.56805
 C1098 C 0.41645 0.94651 0.56701
 H1099 H 0.34244 0.85790 0.68944
 H1100 H 0.41725 0.89610 0.55025
 H1101 H 0.31404 0.81360 0.63692
 H1102 H 0.40562 0.96366 0.58345
 C1103 C 0.31910 1.18356 -0.14770
 C1104 C 0.34315 1.15982 -0.15407
 C1105 C 0.35739 1.13818 -0.13012
 N1106 N 0.38468 1.12013 -0.13662
 N1107 N 0.39797 1.10011 -0.11526
 C1108 C 0.38419 1.09715 -0.08674
 N1109 N 0.35660 1.11486 -0.08034
 N1110 N 0.34344 1.13510 -0.10167
 C1111 C 0.39945 1.07622 -0.06274
 C1112 C 0.43229 1.06680 -0.06484
 H1113 H 0.35213 1.15696 -0.17756
 H1114 H 0.38564 1.07067 -0.04188
 H1115 H 0.31138 1.18790 -0.12402
 H1116 H 0.44685 1.07461 -0.08460
 C1117 C 0.84060 0.69466 0.34471
 C1118 C 0.85797 0.66521 0.33950
 C1119 C 0.87652 0.64832 0.36426
 N1120 N 0.88576 0.61600 0.36064
 N1121 N 0.90159 0.59989 0.38333
 C1122 C 0.90894 0.61564 0.41035
 N1123 N 0.90015 0.64812 0.41379
 N1124 N 0.88409 0.66416 0.39119
 C1125 C 0.92554 0.59793 0.43584
 C1126 C 0.92735 0.56318 0.43678
 H1127 H 0.85619 0.65293 0.31719
 H1128 H 0.93497 0.61248 0.45510
 H1129 H 0.84083 0.70592 0.36754
 H1130 H 0.91639 0.54846 0.41837
 C1131 C 0.68198 1.16777 0.15865
 C1132 C 0.65641 1.14570 0.16525
 C1133 C 0.64107 1.12533 0.14088
 N1134 N 0.61126 1.11103 0.14577
 N1135 N 0.59680 1.09311 0.12356
 C1136 C 0.61181 1.08855 0.09580
 N1137 N 0.64187 1.10238 0.09110
 N1138 N 0.65620 1.12054 0.11321
 C1139 C 0.59560 1.06999 0.07070
 C1140 C 0.56175 1.06479 0.07057
 H1141 H 0.64663 1.14412 0.18856
 H1142 H 0.61010 1.06266 0.05082
 H1143 H 0.69028 1.17073 0.13492
 H1144 H 0.54693 1.07413 0.08948
 C1145 C 1.17656 0.68237 0.65194
 C1146 C 1.15714 0.65430 0.65764
 C1147 C 1.13632 0.63900 0.63381
 N1148 N 1.12264 0.60863 0.63928
 N1149 N 1.10335 0.59436 0.61808
 C1150 C 1.09680 0.61013 0.59078
 N1151 N 1.11021 0.64069 0.58542
 N1152 N 1.12970 0.65488 0.60656
 C1153 C 1.07613 0.59431 0.56707
 C1154 C 1.06919 0.56025 0.56805
 H1155 H 1.15735 0.64274 0.68044
 H1156 H 1.06805 0.60926 0.54742
 H1157 H 1.17795 0.69291 0.62877
 H1158 H 1.07909 0.54481 0.58660
 C1159 C 0.67651 0.81755 -0.15146
 C1160 C 0.64928 0.83778 -0.15743
 C1161 C 0.63382 0.85772 -0.13296
 N1162 N 0.60430 0.87256 -0.13825
 N1163 N 0.59043 0.89140 -0.11651
 C1164 C 0.60579 0.89638 -0.08882
 N1165 N 0.63544 0.88178 -0.08364
 N1166 N 0.64919 0.86274 -0.10529
 C1167 C 0.59072 0.91682 -0.06451
 C1168 C 0.55743 0.92496 -0.06515
 H1169 H 0.63937 0.83965 -0.18077
 H1170 H 0.60564 0.92369 -0.04461
 H1171 H 0.68525 0.81437 -0.12782
 H1172 H 0.54193 0.91616 -0.08397
 C1173 C 1.17640 0.31513 0.34819
 C1174 C 1.15696 0.34340 0.34304
 C1175 C 1.13528 0.35758 0.36677
 N1176 N 1.12057 0.38752 0.36144
 N1177 N 1.10067 0.40084 0.38249
 C1178 C 1.09450 0.38457 0.40957
 N1179 N 1.10897 0.35445 0.41481
 N1180 N 1.12904 0.34120 0.39380
 C1181 C 1.07333 0.39953 0.43337
 C1182 C 1.06427 0.43312 0.43210
 H1183 H 1.15769 0.35593 0.32070
 H1184 H 1.06682 0.38452 0.45343
 H1185 H 1.17675 0.30325 0.37084
 H1186 H 1.07247 0.44867 0.41298
 C1187 C 0.32666 0.80762 0.15633
 C1188 C 0.34905 0.83280 0.16353
 C1189 C 0.36289 0.85459 0.13952
 N1190 N 0.38933 0.87404 0.14612
 N1191 N 0.40166 0.89450 0.12466
 C1192 C 0.38766 0.89656 0.09602
 N1193 N 0.36094 0.87745 0.08957
 N1194 N 0.34879 0.85677 0.11093
 C1195 C 0.40170 0.91804 0.07188
 C1196 C 0.43440 0.92812 0.07328
 H1197 H 0.35597 0.83735 0.18747
 H1198 H 0.38719 0.92310 0.05121
 H1199 H 0.32142 0.80171 0.13228
 H1200 H 0.44974 0.92058 0.09273
 C1201 C 0.82185 0.30768 0.65336
 C1202 C 0.84288 0.33417 0.66042
 C1203 C 0.86418 0.34979 0.63710
 N1204 N 0.87878 0.37955 0.64331
 N1205 N 0.89781 0.39436 0.62226
 C1206 C 0.90317 0.37977 0.59435
 N1207 N 0.88895 0.34978 0.58829
 N1208 N 0.86971 0.33507 0.60926
 C1209 C 0.92304 0.39643 0.57049
 C1210 C 0.93012 0.43046 0.57194
 H1211 H 0.84305 0.34460 0.68359
 H1212 H 0.92986 0.38228 0.55012
 H1213 H 0.82040 0.29835 0.62982
 H1214 H 0.92148 0.44514 0.59135
 C1215 C 1.17971 1.18713 0.65845
 C1216 C 1.15352 1.16594 0.66543
 C1217 C 1.13634 1.14645 0.64151
 N1218 N 1.11187 1.12521 0.64984
 N1219 N 1.09673 1.10651 0.62863
 C1220 C 1.10546 1.10839 0.59828
 N1221 N 1.12978 1.12982 0.58989
 N1222 N 1.14495 1.14852 0.61112
 C1223 C 1.08988 1.08679 0.57491
 C1224 C 1.06664 1.06279 0.58318
 H1225 H 1.14581 1.16279 0.68931
 H1226 H 1.09790 1.08880 0.55103
 H1227 H 1.18729 1.19040 0.63455
 H1228 H 1.05874 1.06065 0.60709
 C1229 C 0.67645 0.67212 0.16832
 C1230 C 0.68189 0.66859 0.13659
 C1231 C 0.65765 0.65109 0.11707
 N1232 N 0.66682 0.63597 0.09030
 N1233 N 0.64482 0.61926 0.07325
 C1234 C 0.61281 0.61758 0.08219
 N1235 N 0.60363 0.63325 0.10859
 N1236 N 0.62562 0.64956 0.12576
 C1237 C 0.58816 0.59822 0.06491
 C1238 C 0.59629 0.57237 0.04475
 H1239 H 0.70434 0.67795 0.12623
 H1240 H 0.56265 0.60180 0.07132
 H1241 H 0.65536 0.65989 0.17871
 H1242 H 0.62183 0.56746 0.03930
 C1243 C 1.16078 0.82864 0.32361
 C1244 C 1.16114 0.83013 0.35589
 C1245 C 1.14135 0.85529 0.37222
 N1246 N 1.14102 0.85624 0.40370
 N1247 N 1.12373 0.87959 0.41843
 C1248 C 1.10623 0.90282 0.40216
 N1249 N 1.10656 0.90181 0.37075
 N1250 N 1.12375 0.87848 0.35607
 C1251 C 1.08783 0.92943 0.41774
 C1252 C 1.08506 0.93110 0.44984
 H1253 H 1.17662 0.81329 0.36925
 H1254 H 1.07636 0.94851 0.40339
 H1255 H 1.14486 0.84542 0.31064
 H1256 H 1.09561 0.91164 0.46436
 C1257 C 0.66857 0.31925 -0.16102
 C1258 C 0.64474 0.34315 -0.16832
 C1259 C 0.62593 0.36072 -0.14428
 N1260 N 0.60467 0.38539 -0.15252
 N1261 N 0.58793 0.40199 -0.13100
 C1262 C 0.59170 0.39438 -0.10042
 N1263 N 0.61273 0.36949 -0.09220
 N1264 N 0.62953 0.35295 -0.11372
 C1265 C 0.57487 0.41373 -0.07625
 C1266 C 0.55707 0.44261 -0.08319
 H1267 H 0.63978 0.34942 -0.19238
 H1268 H 0.57893 0.40666 -0.05222
 H1269 H 0.67363 0.31317 -0.13693
 H1270 H 0.55367 0.45023 -0.10715
 C1271 C 0.82431 1.18422 0.35202
 C1272 C 0.85349 1.16705 0.34636
 C1273 C 0.87330 1.15132 0.37101
 N1274 N 0.90212 1.13638 0.36355
 N1275 N 0.91992 1.12071 0.38515
 C1276 C 0.90963 1.11937 0.41507
 N1277 N 0.88092 1.13458 0.42262
 N1278 N 0.86308 1.15035 0.40099
 C1279 C 0.92783 1.09959 0.43840
 C1280 C 0.95542 1.08101 0.43016
 H1281 H 0.86237 1.16493 0.32277
 H1282 H 0.91754 1.09695 0.46143
 H1283 H 0.81595 1.18764 0.37564
 H1284 H 0.96533 1.08338 0.40695
 C1285 C 0.31005 0.66639 -0.15242
 C1286 C 0.33827 0.64745 -0.15708
 C1287 C 0.35235 0.62613 -0.13260
 N1288 N 0.38504 0.61958 -0.13268
 N1289 N 0.39842 0.60045 -0.11068
 C1290 C 0.37959 0.58675 -0.08797
 N1291 N 0.34671 0.59273 -0.08816
 N1292 N 0.33335 0.61233 -0.10999
 C1293 C 0.39497 0.56556 -0.06397
 C1294 C 0.42724 0.57218 -0.05509
 H1295 H 0.35165 0.64987 -0.17867
 H1296 H 0.38187 0.54415 -0.05475
 H1297 H 0.29837 0.66625 -0.12987
 H1298 H 0.43857 0.59524 -0.06303
 C1299 C 0.81259 0.84882 0.66025
 C1300 C 0.82490 0.84114 0.63102
 C1301 C 0.84683 0.86538 0.61545
 N1302 N 0.85818 0.86002 0.58627
 N1303 N 0.87910 0.88162 0.57317
 C1304 C 0.88957 0.90908 0.58897
 N1305 N 0.87829 0.91426 0.61803
 N1306 N 0.85736 0.89290 0.63095
 C1307 C 0.91297 0.93321 0.57591
 C1308 C 0.92216 0.93401 0.54488
 H1309 H 0.82074 0.81673 0.62094
 H1310 H 0.92226 0.95231 0.59145
 H1311 H 0.81727 0.87346 0.66969
 H1312 H 0.91224 0.91593 0.52867
 C1313 C 0.33033 0.33060 0.16210
 C1314 C 0.35756 0.35034 0.16958
 C1315 C 0.37671 0.36758 0.14521
 N1316 N 0.40230 0.38784 0.15292
 N1317 N 0.41935 0.40379 0.13095
 C1318 C 0.41149 0.39993 0.10046
 N1319 N 0.38605 0.37954 0.09280
 N1320 N 0.36903 0.36367 0.11471
 C1321 C 0.42888 0.41831 0.07574
 C1322 C 0.45366 0.44162 0.08172
 H1323 H 0.36497 0.35323 0.19361
 H1324 H 0.42045 0.41471 0.05209
 H1325 H 0.32319 0.32801 0.13796
 H1326 H 0.46204 0.44554 0.10534
   
