data_POSCAR
  _audit_creation_date              2014-09-24
  _audit_creation_method            'ToBaCCo'
  _symmetry_space_group_name_H-M    'P1'
  _symmetry_Int_Tables_number       1
  _symmetry_cell_setting            triclinic
  loop_
  _symmetry_equiv_pos_as_xyz
 x,y,z
_cell_length_a 69.0733
_cell_length_b 69.4226
_cell_length_c 69.4001
_cell_angle_alpha 89.938000
_cell_angle_beta 90.086000
_cell_angle_gamma 90.084900
loop_
  _atom_site_label
  _atom_site_type_symbol
  _atom_site_fract_x
  _atom_site_fract_y
  _atom_site_fract_z
N1 N 0.31544 0.43757 0.93421
 N2 N 0.43311 0.81700 0.43313
 N3 N 0.93281 0.93388 0.81707
 N4 N 0.43294 -0.07164 0.31866
 N5 N 0.83346 0.33247 0.33344
 N6 N -0.18466 0.81936 0.81985
 N7 N 0.91561 0.33409 0.41600
 N8 N 0.43548 0.43694 0.81208
 N9 N 0.81843 0.93581 0.93280
 N10 N 0.31972 0.81639 0.31986
 N11 N 0.83303 0.41612 0.41466
 N12 N 0.93978 0.81423 -0.06037
 N13 N 0.31173 0.31182 0.81525
 N14 N 0.18849 0.56042 0.56107
 N15 N 0.56442 0.69035 0.06401
 N16 N 0.66571 0.16804 0.66708
 N17 N 1.06563 0.06392 0.18435
 N18 N 0.06649 0.18487 1.06750
 N19 N 0.16960 0.67147 0.67386
 N20 N 1.18493 0.18124 0.18433
 N21 N 0.66532 1.08573 0.58426
 N22 N 0.56252 0.56106 0.18446
 N23 N 0.68904 0.68526 0.18920
 N24 N 0.18660 0.06987 1.06739
 N25 N 0.57981 0.16975 0.58268
 N26 N 0.06972 0.57216 0.67775
 N27 N 0.68692 0.56804 0.06242
 N28 N 0.07078 0.67759 0.57413
 N29 N 0.58048 1.08268 0.66867
 N30 N 0.43388 0.32166 0.93329
 N31 N 0.91697 0.41509 0.33132
 N32 N 0.31499 0.93135 0.43366
 O33 O 0.29997 0.49616 0.77152
 O34 O 0.29177 0.52975 0.76888
 O35 O 0.25095 0.47029 0.79795
 O36 O 0.21840 0.47028 0.79330
 O37 O 0.27505 0.44563 0.74788
 O38 O 0.27114 0.45171 0.71479
 O39 O 0.19655 0.51966 0.74713
 O40 O 0.20304 0.51599 0.78015
 O41 O 0.24431 0.54594 0.72151
 O42 O 0.27761 0.54283 0.72653
 O43 O 0.22216 0.49801 0.69741
 O44 O 0.22456 0.46278 0.70328
 O45 O 0.19728 0.49757 0.72295
 O46 O 0.20461 0.46169 0.72488
 O47 O 0.24605 0.52065 0.69674
 O48 O 0.28140 0.51663 0.70446
 O49 O 0.22053 0.54449 0.74419
 O50 O 0.22817 0.53998 0.77962
 O51 O 0.30014 0.47340 0.74789
 O52 O 0.29191 0.47738 0.71321
 O53 O 0.25090 0.44409 0.77018
 O54 O 0.21589 0.45113 0.76857
 O55 O 0.27351 0.49430 0.79832
 O56 O 0.26617 0.52871 0.79156
 Zr57 Zr 0.27137 0.50690 0.77074
 O58 O 0.25375 0.52488 0.75368
 Zr59 Zr 0.23838 0.47180 0.77031
 O60 O 0.21907 0.48872 0.75394
 Zr61 Zr 0.27203 0.47344 0.73617
 O62 O 0.25407 0.48995 0.71809
 Zr63 Zr 0.22461 0.51808 0.75861
 O64 O 0.24207 0.50114 0.77713
 Zr65 Zr 0.25832 0.51922 0.72440
 O66 O 0.27771 0.50280 0.74131
 Zr67 Zr 0.22484 0.48463 0.72453
 O68 O 0.24282 0.46611 0.74091
 O69 O 0.26731 0.47775 0.76532
 O70 O 0.22918 0.51369 0.72940
 C71 C 0.30837 0.48303 0.76146
 C72 C 0.26442 0.48014 0.80619
 C73 C 0.26526 0.43677 0.76094
 C74 C 0.18893 0.51105 0.73257
 C75 C 0.22929 0.55276 0.73007
 C76 C 0.23170 0.51163 0.68919
 H77 H 0.25643 0.53858 0.75663
 H78 H 0.25722 0.48713 0.70448
 H79 H 0.27595 0.46964 0.77329
 H80 H 0.20554 0.48548 0.75728
 H81 H 0.20977 0.51234 0.79222
 H82 H 0.20786 0.47940 0.79025
 H83 H 0.28027 0.52733 0.69504
 H84 H 0.30219 0.46746 0.71428
 H85 H 0.21682 0.54867 0.77869
 H86 H 0.27618 0.52793 0.80178
 H87 H 0.23626 0.46446 0.69525
 H88 H 0.25805 0.44591 0.71533
 H89 H 0.30058 0.52908 0.78016
 H90 H 0.28934 0.53790 0.73307
 H91 H 0.21757 0.44428 0.75619
 H92 H 0.19535 0.46411 0.73546
 O93 O 0.27385 -0.05482 0.25138
 O94 O 0.26964 -0.04880 0.21713
 O95 O 0.30274 -0.00492 0.27202
 O96 O 0.29823 0.02734 0.27159
 O97 O 0.25152 -0.02603 0.30091
 O98 O 0.21822 -0.02249 0.29471
 O99 O 0.25012 0.04640 0.22121
 O100 O 0.28354 0.04066 0.22559
 O101 O 0.22351 -0.00072 0.19940
 O102 O 0.22779 -0.03424 0.20424
 O103 O 0.20067 0.02349 0.24716
 O104 O 0.20822 0.02345 0.28184
 O105 O 0.22812 0.04847 0.24556
 O106 O 0.23014 0.04254 0.28121
 O107 O 0.19960 -0.00051 0.22492
 O108 O 0.20575 -0.03552 0.23096
 O109 O 0.24871 0.02045 0.19768
 O110 O 0.28349 0.01371 0.20356
 O111 O 0.25147 -0.05291 0.27542
 O112 O 0.21641 -0.04500 0.27051
 O113 O 0.27616 -0.00419 0.29943
 O114 O 0.27398 0.03079 0.29120
 O115 O 0.30082 -0.02996 0.25086
 O116 O 0.29378 -0.02425 0.21608
 Zr117 Zr 0.27315 -0.02726 0.23855
 O118 O 0.25612 -0.01032 0.21999
 Zr119 Zr 0.27490 0.00760 0.27145
 O120 O 0.25831 0.02613 0.25394
 Zr121 Zr 0.23957 -0.02505 0.27300
 O122 O 0.22141 -0.00777 0.25585
 Zr123 Zr 0.26208 0.01886 0.22484
 O124 O 0.28072 0.00199 0.24222
 Zr125 Zr 0.22679 -0.01365 0.22668
 O126 O 0.24358 -0.03253 0.24387
 Zr127 Zr 0.22871 0.02139 0.25930
 O128 O 0.24541 0.00426 0.27836
 O129 O 0.26878 -0.02124 0.26749
 O130 O 0.23268 0.01547 0.23030
 C131 C 0.26469 -0.06186 0.26593
 C132 C 0.30979 -0.01990 0.26362
 C133 C 0.26610 -0.01709 0.30825
 C134 C 0.23699 0.05534 0.23078
 C135 C 0.23352 0.01234 0.19072
 C136 C 0.19206 0.01382 0.23382
 H137 H 0.25870 -0.01392 0.20644
 H138 H 0.20775 -0.01044 0.25920
 H139 H 0.27690 -0.02940 0.27591
 H140 H 0.26210 0.03967 0.25628
 H141 H 0.29573 0.03431 0.22959
 H142 H 0.29501 0.03760 0.26224
 H143 H 0.19631 -0.03477 0.22021
 H144 H 0.21751 -0.05451 0.28113
 H145 H 0.28320 0.02461 0.19431
 H146 H 0.30353 -0.03465 0.21727
 H147 H 0.19994 0.01183 0.28130
 H148 H 0.21942 -0.00934 0.30007
 H149 H 0.28059 -0.05799 0.21808
 H150 H 0.23356 -0.04600 0.20990
 H151 H 0.26215 0.02904 0.29905
 H152 H 0.24172 0.05057 0.27879
 O153 O 0.50239 0.69524 0.22708
 O154 O 0.46833 0.70305 0.23023
 O155 O 0.52691 0.74564 0.20174
 O156 O 0.52885 0.77731 0.20801
 O157 O 0.55274 0.72026 0.25292
 O158 O 0.54530 0.72228 0.28585
 O159 O 0.47778 0.79732 0.25355
 O160 O 0.48185 0.79178 0.22048
 O161 O 0.45052 0.74814 0.27659
 O162 O 0.45533 0.71507 0.27215
 O163 O 0.49970 0.77025 0.30340
 O164 O 0.53469 0.76863 0.29738
 O165 O 0.49923 0.79571 0.27846
 O166 O 0.53565 0.78895 0.27617
 O167 O 0.47469 0.74896 0.30173
 O168 O 0.48057 0.71334 0.29589
 O169 O 0.45262 0.77304 0.25527
 O170 O 0.45792 0.76662 0.21986
 O171 O 0.52572 0.69479 0.25036
 O172 O 0.51967 0.70121 0.28539
 O173 O 0.55403 0.74406 0.23033
 O174 O 0.54672 0.77905 0.23291
 O175 O 0.50432 0.72165 0.20147
 O176 O 0.46966 0.72873 0.20740
 Zr177 Zr 0.49119 0.72347 0.22865
 O178 O 0.47277 0.74056 0.24562
 Zr179 Zr 0.52618 0.75656 0.23015
 O180 O 0.50890 0.77522 0.24673
 Zr181 Zr 0.52434 0.72211 0.26355
 O182 O 0.50736 0.73943 0.28180
 Zr183 Zr 0.47950 0.76971 0.24142
 O184 O 0.49681 0.75281 0.22285
 Zr185 Zr 0.47803 0.73540 0.27488
 O186 O 0.49493 0.71645 0.25795
 Zr187 Zr 0.51275 0.76865 0.27607
 O188 O 0.53161 0.75131 0.25953
 O189 O 0.52043 0.72765 0.23445
 O190 O 0.48357 0.76448 0.27056
 C191 C 0.51614 0.68697 0.23649
 C192 C 0.51773 0.73172 0.19350
 C193 C 0.56166 0.73016 0.24000
 C194 C 0.48602 0.80432 0.26862
 C195 C 0.44379 0.76338 0.26844
 C196 C 0.48446 0.76217 0.31032
 H197 H 0.45910 0.73783 0.24231
 H198 H 0.50992 0.73606 0.29542
 H199 H 0.52886 0.71956 0.22629
 H200 H 0.51215 0.78878 0.24375
 H201 H 0.48567 0.78544 0.20829
 H202 H 0.51860 0.78697 0.21026
 H203 H 0.46939 0.71453 0.30475
 H204 H 0.52977 0.69113 0.28423
 H205 H 0.44911 0.77784 0.22085
 H206 H 0.47053 0.71868 0.19730
 H207 H 0.53317 0.75672 0.30507
 H208 H 0.55135 0.73521 0.28574
 H209 H 0.46913 0.69436 0.21893
 H210 H 0.46119 0.70331 0.26661
 H211 H 0.55369 0.77683 0.24518
 H212 H 0.53273 0.79889 0.26637
 O213 O -0.05379 0.74879 0.77879
 O214 O -0.04510 0.71502 0.77617
 O215 O -0.00361 0.77542 0.80219
 O216 O 0.02806 0.77791 0.79514
 O217 O -0.03189 0.79871 0.75203
 O218 O -0.02945 0.79168 0.71896
 O219 O 0.04827 0.72625 0.74957
 O220 O 0.04380 0.73112 0.78291
 O221 O -0.00074 0.69799 0.72842
 O222 O -0.03402 0.70189 0.73357
 O223 O 0.01954 0.74711 0.70053
 O224 O 0.01715 0.78185 0.70604
 O225 O 0.04530 0.74704 0.72433
 O226 O 0.03802 0.78365 0.72724
 O227 O -0.00081 0.72145 0.70318
 O228 O -0.03695 0.72658 0.70963
 O229 O 0.02493 0.70107 0.74886
 O230 O 0.01907 0.70657 0.78461
 O231 O -0.05622 0.77038 0.75417
 O232 O -0.04959 0.76537 0.71928
 O233 O -0.00679 0.80143 0.77326
 O234 O 0.02875 0.79507 0.76972
 O235 O -0.02697 0.75220 0.80353
 O236 O -0.01860 0.71770 0.79817
 Zr237 Zr -0.02526 0.73841 0.77661
 O238 O -0.00814 0.72025 0.75937
 Zr239 Zr 0.00676 0.77416 0.77358
 O240 O 0.02563 0.75715 0.75687
 Zr241 Zr -0.02869 0.77067 0.74109
 O242 O -0.01119 0.75409 0.72266
 Zr243 Zr 0.02103 0.72783 0.76272
 O244 O 0.00417 0.74497 0.78151
 Zr245 Zr -0.01425 0.72496 0.73016
 O246 O -0.03327 0.74138 0.74743
 Zr247 Zr 0.01814 0.76039 0.72769
 O248 O 0.00052 0.77891 0.74429
 O249 O -0.02221 0.76744 0.77009
 O250 O 0.01481 0.73141 0.73375
 C251 C -0.06321 0.76126 0.76875
 C252 C -0.01721 0.76617 0.81091
 C253 C -0.02172 0.80815 0.76438
 C254 C 0.05438 0.73395 0.73387
 C255 C 0.01513 0.69194 0.73597
 C256 C 0.01205 0.73138 0.69418
 H257 H -0.01042 0.70662 0.76293
 H258 H -0.01493 0.75631 0.70908
 H259 H -0.03057 0.77560 0.77825
 H260 H 0.03926 0.76075 0.75941
 H261 H 0.03769 0.73484 0.79526
 H262 H 0.03779 0.76769 0.79309
 H263 H -0.03543 0.71554 0.70071
 H264 H -0.06005 0.77508 0.72046
 H265 H 0.03052 0.69807 0.78336
 H266 H -0.02837 0.71855 0.80857
 H267 H 0.00471 0.78033 0.69911
 H268 H -0.01672 0.79825 0.71906
 H269 H -0.05348 0.71583 0.78773
 H270 H -0.04571 0.70741 0.73967
 H271 H 0.02571 0.80203 0.75763
 H272 H 0.04902 0.78030 0.73574
 O273 O 0.00437 -0.02431 -0.05295
 O274 O 0.03836 -0.02027 -0.04492
 O275 O -0.02017 -0.04977 -0.00292
 O276 O -0.02299 -0.04331 0.02855
 O277 O -0.04615 0.00018 -0.02986
 O278 O -0.04029 0.03334 -0.02683
 O279 O 0.02784 0.00332 0.04908
 O280 O 0.02462 -0.02942 0.04401
 O281 O 0.05474 0.02674 -0.00031
 O282 O 0.05009 0.02287 -0.03306
 O283 O 0.00434 0.05256 0.02171
 O284 O -0.02972 0.04579 0.02028
 O285 O 0.00538 0.02728 0.04745
 O286 O -0.03105 0.02374 0.03965
 O287 O 0.02992 0.05136 0.00114
 O288 O 0.02433 0.04553 -0.03484
 O289 O 0.05399 0.00457 0.02388
 O290 O 0.04798 -0.03068 0.01860
 O291 O -0.01820 -0.00047 -0.05453
 O292 O -0.01412 0.03449 -0.04717
 O293 O -0.04763 -0.02189 -0.00555
 O294 O -0.04070 -0.01855 0.03003
 O295 O 0.00259 -0.04966 -0.02669
 O296 O 0.03718 -0.04299 -0.01908
 Zr297 Zr 0.01536 -0.02220 -0.02473
 O298 O 0.03322 -0.00460 -0.00764
 Zr299 Zr -0.02001 -0.02129 0.00773
 O300 O -0.00305 -0.00445 0.02657
 Zr301 Zr -0.01837 0.01205 -0.02682
 O302 O -0.00216 0.03069 -0.00912
 Zr303 Zr 0.02659 -0.00895 0.02146
 O304 O 0.00958 -0.02797 0.00455
 Zr305 Zr 0.02728 0.02455 -0.01281
 O306 O 0.01117 0.00702 -0.03193
 Zr307 Zr -0.00760 0.02475 0.02005
 O308 O -0.02596 0.00792 0.00232
 O309 O -0.01396 -0.01695 -0.02111
 O310 O 0.02184 0.02013 0.01630
 C311 C -0.00870 -0.01461 -0.06191
 C312 C -0.01085 -0.05781 -0.01679
 C313 C -0.05497 -0.01285 -0.02005
 C314 C 0.01873 0.01779 0.05622
 C315 C 0.06236 0.01806 0.01418
 C316 C 0.01960 0.05978 0.01401
 H317 H 0.04695 -0.00762 -0.01038
 H318 H -0.00503 0.04425 -0.01248
 H319 H -0.02199 -0.02530 -0.02945
 H320 H -0.00635 -0.00755 0.04008
 H321 H 0.02048 -0.04169 0.03801
 H322 H -0.01234 -0.04146 0.03789
 H323 H 0.03499 0.05498 -0.03323
 H324 H -0.02397 0.03315 -0.05751
 H325 H 0.05694 -0.02957 0.02972
 H326 H 0.03652 -0.05318 -0.02906
 H327 H -0.02953 0.05227 0.00758
 H328 H -0.04674 0.03265 -0.01412
 H329 H 0.03784 -0.03165 -0.05353
 H330 H 0.04465 0.01649 -0.04461
 H331 H -0.04866 -0.00711 0.02694
 H332 H -0.02772 0.01450 0.04999
 O333 O 0.05226 0.52414 0.49822
 O334 O 0.04623 0.51916 0.46447
 O335 O 0.00193 0.55430 0.51761
 O336 O -0.03027 0.54991 0.51786
 O337 O 0.02308 0.50488 0.54910
 O338 O 0.01943 0.47210 0.54536
 O339 O -0.04862 0.49934 0.46804
 O340 O -0.04311 0.53325 0.47098
 O341 O -0.00181 0.47142 0.44952
 O342 O 0.03214 0.47576 0.45475
 O343 O -0.02900 0.45335 0.49623
 O344 O -0.02757 0.46104 0.53152
 O345 O -0.05164 0.47897 0.49363
 O346 O -0.04620 0.48443 0.53004
 O347 O -0.00395 0.44983 0.47527
 O348 O 0.03193 0.45513 0.48266
 O349 O -0.02322 0.49615 0.44608
 O350 O -0.01545 0.53161 0.44943
 O351 O 0.05076 0.50241 0.52281
 O352 O 0.04099 0.46745 0.52102
 O353 O 0.00128 0.52939 0.54621
 O354 O -0.03435 0.52642 0.53743
 O355 O 0.02767 0.55126 0.49733
 O356 O 0.02152 0.54294 0.46253
 Zr357 Zr 0.02460 0.52327 0.48579
 O358 O 0.00792 0.50523 0.46794
 Zr359 Zr -0.01055 0.52669 0.51826
 O360 O -0.02928 0.50984 0.50117
 Zr361 Zr 0.02204 0.49146 0.52193
 O362 O 0.00427 0.47266 0.50584
 Zr363 Zr -0.02133 0.51185 0.47202
 O364 O -0.00466 0.53117 0.48880
 Zr365 Zr 0.01079 0.47639 0.47657
 O366 O 0.02971 0.49408 0.49273
 Zr367 Zr -0.02495 0.48078 0.50839
 O368 O -0.00744 0.49781 0.52675
 O369 O 0.01851 0.52024 0.51490
 O370 O -0.01819 0.48320 0.47953
 C371 C 0.05978 0.51506 0.51253
 C372 C 0.01738 0.56074 0.50954
 C373 C 0.01414 0.51978 0.55561
 C374 C -0.05758 0.48622 0.47759
 C375 C -0.01534 0.48034 0.44044
 C376 C -0.01982 0.44411 0.48308
 H377 H 0.01174 0.50693 0.45430
 H378 H 0.00645 0.45915 0.50984
 H379 H 0.02696 0.52850 0.52290
 H380 H -0.04289 0.51385 0.50299
 H381 H -0.03667 0.54561 0.47413
 H382 H -0.03904 0.54764 0.50683
 H383 H 0.03079 0.44503 0.47263
 H384 H 0.05112 0.46918 0.53102
 H385 H -0.02610 0.53049 0.43989
 H386 H 0.03173 0.55294 0.46356
 H387 H -0.01701 0.45151 0.53032
 H388 H 0.00554 0.47177 0.54879
 H389 H 0.05530 0.53025 0.46481
 H390 H 0.04375 0.48206 0.46029
 H391 H -0.03210 0.51576 0.54666
 H392 H -0.05549 0.49426 0.52547
 O393 O 0.49795 -0.02418 0.44914
 O394 O 0.53226 -0.01953 0.45649
 O395 O 0.47517 -0.05110 0.49900
 O396 O 0.47477 -0.04553 0.53128
 O397 O 0.44710 -0.00107 0.47517
 O398 O 0.45328 0.03236 0.47790
 O399 O 0.52384 0.00272 0.55090
 O400 O 0.52004 -0.03108 0.54546
 O401 O 0.54863 0.02716 0.50266
 O402 O 0.54383 0.02193 0.46886
 O403 O 0.50019 0.05089 0.52575
 O404 O 0.46448 0.04404 0.52309
 O405 O 0.50107 0.02643 0.54987
 O406 O 0.46455 0.02252 0.54379
 O407 O 0.52439 0.05044 0.50354
 O408 O 0.51776 0.04525 0.46786
 O409 O 0.54769 0.00513 0.52701
 O410 O 0.54396 -0.03054 0.52002
 O411 O 0.47381 -0.00179 0.44934
 O412 O 0.47832 0.03334 0.45614
 O413 O 0.44780 -0.02466 0.49808
 O414 O 0.45465 -0.02139 0.53311
 O415 O 0.49753 -0.05004 0.47487
 O416 O 0.53214 -0.04301 0.48167
 Zr417 Zr 0.50981 -0.02248 0.47715
 O418 O 0.52787 -0.00511 0.49432
 Zr419 Zr 0.47542 -0.02300 0.51078
 O420 O 0.49213 -0.00576 0.52947
 Zr421 Zr 0.47512 0.01103 0.47681
 O422 O 0.49186 0.02979 0.49397
 Zr423 Zr 0.52157 -0.00996 0.52349
 O424 O 0.50492 -0.02905 0.50647
 Zr425 Zr 0.52135 0.02392 0.48945
 O426 O 0.50466 0.00669 0.47056
 Zr427 Zr 0.48707 0.02348 0.52315
 O428 O 0.46859 0.00620 0.50603
 O429 O 0.48054 -0.01787 0.48191
 O430 O 0.51619 0.01888 0.51838
 C431 C 0.48363 -0.01529 0.44125
 C432 C 0.48423 -0.05859 0.48461
 C433 C 0.43944 -0.01527 0.48441
 C434 C 0.51539 0.01769 0.55784
 C435 C 0.55551 0.01935 0.51805
 C436 C 0.51536 0.05812 0.51773
 H437 H 0.54164 -0.00779 0.49147
 H438 H 0.48886 0.04336 0.49084
 H439 H 0.47238 -0.02622 0.47372
 H440 H 0.48925 -0.00890 0.54307
 H441 H 0.51672 -0.04337 0.53902
 H442 H 0.48360 -0.04179 0.54186
 H443 H 0.52886 0.05426 0.46890
 H444 H 0.46796 0.03190 0.44633
 H445 H 0.55276 -0.02931 0.53126
 H446 H 0.53146 -0.05287 0.47137
 H447 H 0.46668 0.05287 0.51211
 H448 H 0.44757 0.03173 0.49095
 H449 H 0.53161 -0.03059 0.44747
 H450 H 0.53779 0.01709 0.45686
 H451 H 0.44733 -0.00931 0.53107
 H452 H 0.46805 0.01279 0.55361
 O453 O 0.50178 0.55772 0.02004
 O454 O 0.46773 0.55047 0.01635
 O455 O 0.52495 0.50710 0.04628
 O456 O 0.52688 0.47548 0.04024
 O457 O 0.55209 0.53192 -0.00460
 O458 O 0.54517 0.52954 -0.03766
 O459 O 0.47556 0.45590 -0.00598
 O460 O 0.47960 0.46128 0.02685
 O461 O 0.45034 0.50400 -0.03076
 O462 O 0.45457 0.53738 -0.02575
 O463 O 0.49917 0.48212 -0.05576
 O464 O 0.53375 0.48288 -0.04907
 O465 O 0.49787 0.45664 -0.03012
 O466 O 0.53429 0.46320 -0.02742
 O467 O 0.47522 0.50453 -0.05527
 O468 O 0.48059 0.53979 -0.04851
 O469 O 0.45021 0.48136 -0.00691
 O470 O 0.45663 0.48726 0.02791
 O471 O 0.52550 0.55763 -0.00278
 O472 O 0.51985 0.55098 -0.03788
 O473 O 0.55264 0.50838 0.01829
 O474 O 0.54478 0.47329 0.01554
 O475 O 0.50289 0.53151 0.04593
 O476 O 0.46814 0.52493 0.03933
 Zr477 Zr 0.49015 0.52966 0.01849
 O478 O 0.47171 0.51271 0.00129
 Zr479 Zr 0.52461 0.49609 0.01793
 O480 O 0.50715 0.47756 0.00129
 Zr481 Zr 0.52385 0.53022 -0.01578
 O482 O 0.50691 0.51290 -0.03416
 Zr483 Zr 0.47775 0.48354 0.00605
 O484 O 0.49519 0.50031 0.02470
 Zr485 Zr 0.47754 0.51736 -0.02796
 O486 O 0.49443 0.53627 -0.01083
 Zr487 Zr 0.51160 0.48367 -0.02806
 O488 O 0.53055 0.50094 -0.01140
 O489 O 0.51939 0.52503 0.01329
 O490 O 0.48235 0.48822 -0.02319
 C491 C 0.51584 0.56568 0.01086
 C492 C 0.51592 0.52122 0.05424
 C493 C 0.56064 0.52214 0.00867
 C494 C 0.48431 0.44838 -0.02046
 C495 C 0.44240 0.49018 -0.02124
 C496 C 0.48480 0.49100 -0.06350
 H497 H 0.45805 0.51573 0.00431
 H498 H 0.50982 0.51615 -0.04773
 H499 H 0.52781 0.53307 0.02156
 H500 H 0.51011 0.46400 0.00449
 H501 H 0.48370 0.46744 0.03906
 H502 H 0.51648 0.46594 0.03801
 H503 H 0.46960 0.53882 -0.05767
 H504 H 0.53011 0.56091 -0.03663
 H505 H 0.44761 0.47614 0.02732
 H506 H 0.46911 0.53497 0.04944
 H507 H 0.53309 0.49506 -0.05644
 H508 H 0.55111 0.51658 -0.03721
 H509 H 0.46847 0.55917 0.02765
 H510 H 0.46013 0.54908 -0.01976
 H511 H 0.55229 0.47563 0.00363
 H512 H 0.53115 0.45349 -0.01745
 O513 O 0.79618 0.25179 0.46902
 O514 O 0.78686 0.21747 0.47186
 O515 O 0.74843 0.28226 0.45205
 O516 O 0.71598 0.28325 0.45985
 O517 O 0.77973 0.29950 0.50008
 O518 O 0.77839 0.29089 0.53357
 O519 O 0.69550 0.23139 0.50408
 O520 O 0.69835 0.23799 0.47076
 O521 O 0.74401 0.19961 0.52070
 O522 O 0.77731 0.20221 0.51367
 O523 O 0.72795 0.24752 0.55236
 O524 O 0.73206 0.28230 0.54904
 O525 O 0.70121 0.24998 0.53051
 O526 O 0.71029 0.28677 0.52869
 O527 O 0.74633 0.22095 0.54676
 O528 O 0.78252 0.22513 0.53914
 O529 O 0.71722 0.20532 0.50239
 O530 O 0.72140 0.21237 0.46640
 O531 O 0.80159 0.27121 0.49501
 O532 O 0.79724 0.26350 0.53021
 O533 O 0.75349 0.30482 0.48076
 O534 O 0.71789 0.30054 0.48675
 O535 O 0.76826 0.25646 0.44706
 O536 O 0.75917 0.22197 0.45136
 Zr537 Zr 0.76782 0.24138 0.47338
 O538 O 0.75077 0.22311 0.49059
 Zr539 Zr 0.73807 0.27853 0.48043
 O540 O 0.71928 0.26151 0.49731
 Zr541 Zr 0.77521 0.27132 0.51040
 O542 O 0.75792 0.25455 0.52894
 Zr543 Zr 0.72196 0.23243 0.48942
 O544 O 0.73861 0.24980 0.47059
 Zr545 Zr 0.75894 0.22585 0.51957
 O546 O 0.77787 0.24228 0.50211
 Zr547 Zr 0.72871 0.26257 0.52607
 O548 O 0.74636 0.28125 0.50952
 O549 O 0.76652 0.26985 0.48196
 O550 O 0.73017 0.23399 0.51802
 C551 C 0.80659 0.26376 0.47876
 C552 C 0.76058 0.27254 0.44187
 C553 C 0.76990 0.30980 0.48812
 C554 C 0.69087 0.23800 0.52073
 C555 C 0.72715 0.19507 0.51430
 C556 C 0.73436 0.23077 0.55698
 H557 H 0.75205 0.20961 0.48619
 H558 H 0.76254 0.25571 0.54239
 H559 H 0.77472 0.27805 0.47374
 H560 H 0.70575 0.26592 0.49590
 H561 H 0.70398 0.24244 0.45842
 H562 H 0.70479 0.27528 0.46380
 H563 H 0.78084 0.21355 0.54735
 H564 H 0.80806 0.27281 0.52885
 H565 H 0.70968 0.20427 0.46807
 H566 H 0.76852 0.22290 0.44058
 H567 H 0.74516 0.28036 0.55445
 H568 H 0.76639 0.29866 0.53401
 H569 H 0.79477 0.21872 0.46002
 H570 H 0.78917 0.20764 0.50779
 H571 H 0.72222 0.30664 0.49891
 H572 H 0.69816 0.28395 0.52163
 O573 O 0.75380 0.78228 -0.04423
 O574 O 0.71956 0.77789 -0.03768
 O575 O 0.77798 0.80593 0.00543
 O576 O 0.77773 0.80005 0.03755
 O577 O 0.80379 0.75597 -0.01937
 O578 O 0.79702 0.72338 -0.01810
 O579 O 0.72632 0.75177 0.05574
 O580 O 0.73106 0.78510 0.05231
 O581 O 0.70126 0.73046 0.00608
 O582 O 0.70655 0.73483 -0.02624
 O583 O 0.74966 0.70466 0.03017
 O584 O 0.78498 0.71029 0.02823
 O585 O 0.75076 0.72979 0.05599
 O586 O 0.78637 0.73138 0.04829
 O587 O 0.72698 0.70481 0.00635
 O588 O 0.73263 0.71277 -0.02875
 O589 O 0.70177 0.75260 0.03026
 O590 O 0.70846 0.78772 0.02602
 O591 O 0.77602 0.75805 -0.04572
 O592 O 0.77153 0.72283 -0.03887
 O593 O 0.80424 0.77837 0.00460
 O594 O 0.79658 0.77505 0.03952
 O595 O 0.75427 0.80714 -0.01739
 O596 O 0.71968 0.80005 -0.01138
 Zr597 Zr 0.74181 0.77948 -0.01659
 O598 O 0.72341 0.76170 -0.00033
 Zr599 Zr 0.77628 0.77783 0.01680
 O600 O 0.75878 0.76083 0.03499
 Zr601 Zr 0.77539 0.74496 -0.01814
 O602 O 0.75850 0.72624 -0.00113
 Zr603 Zr 0.72935 0.76553 0.02899
 O604 O 0.74686 0.78478 0.01289
 Zr605 Zr 0.72917 0.73258 -0.00577
 O606 O 0.74602 0.75033 -0.02408
 Zr607 Zr 0.76319 0.73171 0.02830
 O608 O 0.78212 0.74865 0.01130
 O609 O 0.77103 0.77388 -0.01225
 O610 O 0.73390 0.73648 0.02358
 C611 C 0.76686 0.77250 -0.05303
 C612 C 0.76842 0.81461 -0.00794
 C613 C 0.81229 0.76903 -0.00927
 C614 C 0.73610 0.73816 0.06370
 C615 C 0.69337 0.73938 0.02029
 C616 C 0.73592 0.69679 0.02048
 H617 H 0.70979 0.76492 -0.00341
 H618 H 0.76136 0.71273 -0.00460
 H619 H 0.77948 0.78216 -0.02023
 H620 H 0.76172 0.76370 0.04864
 H621 H 0.73543 0.79754 0.04684
 H622 H 0.76828 0.79676 0.04772
 H623 H 0.72198 0.70321 -0.02796
 H624 H 0.78136 0.72449 -0.04915
 H625 H 0.69926 0.78660 0.03692
 H626 H 0.72050 0.81037 -0.02123
 H627 H 0.78317 0.70233 0.01655
 H628 H 0.80182 0.72242 -0.00470
 H629 H 0.72036 0.78942 -0.04609
 H630 H 0.71203 0.74178 -0.03744
 H631 H 0.80415 0.76323 0.03692
 H632 H 0.78431 0.74204 0.05750
 O633 O 1.05276 0.22363 0.25117
 O634 O 1.04697 0.22896 0.28500
 O635 O 1.00234 0.19392 0.23189
 O636 O 0.97025 0.19838 0.23132
 O637 O 1.02328 0.24404 0.20040
 O638 O 1.02071 0.27660 0.20474
 O639 O 0.95205 0.24894 0.28133
 O640 O 0.95744 0.21500 0.27836
 O641 O 0.99902 0.27672 0.30010
 O642 O 1.03293 0.27214 0.29513
 O643 O 0.97212 0.29492 0.25334
 O644 O 0.97353 0.28725 0.21799
 O645 O 0.94922 0.26940 0.25580
 O646 O 0.95459 0.26413 0.21948
 O647 O 0.99721 0.29835 0.27437
 O648 O 1.03302 0.29287 0.26724
 O649 O 0.97741 0.25210 0.30336
 O650 O 0.98508 0.21659 0.30004
 O651 O 1.05132 0.24524 0.22648
 O652 O 1.04227 0.28045 0.22922
 O653 O 1.00154 0.21940 0.20304
 O654 O 0.96608 0.22188 0.21210
 O655 O 1.02803 0.19679 0.25235
 O656 O 1.02211 0.20520 0.28705
 Zr657 Zr 1.02521 0.22482 0.26375
 O658 O 1.00861 0.24284 0.28163
 Zr659 Zr 0.99003 0.22161 0.23116
 O660 O 0.97139 0.23846 0.24826
 Zr661 Zr 1.02288 0.25676 0.22782
 O662 O 1.00520 0.27556 0.24387
 Zr663 Zr 0.97931 0.23637 0.27745
 O664 O 0.99588 0.21706 0.26064
 Zr665 Zr 1.01169 0.27170 0.27314
 O666 O 1.03055 0.25401 0.25700
 Zr667 Zr 0.97592 0.26752 0.24115
 O668 O 0.99336 0.25053 0.22284
 O669 O 1.01911 0.22792 0.23460
 O670 O 0.98266 0.26502 0.27003
 C671 C 1.06022 0.23244 0.23667
 C672 C 1.01760 0.18731 0.24022
 C673 C 1.01411 0.22940 0.19362
 C674 C 0.94316 0.26210 0.27176
 C675 C 0.98535 0.26790 0.30905
 C676 C 0.98138 0.30413 0.26650
 H677 H 1.01241 0.24108 0.29528
 H678 H 1.00748 0.28906 0.23990
 H679 H 1.02733 0.21961 0.22646
 H680 H 0.95776 0.23449 0.24638
 H681 H 0.96383 0.20263 0.27527
 H682 H 0.96176 0.20037 0.24259
 H683 H 1.03198 0.30292 0.27733
 H684 H 1.05245 0.27867 0.21931
 H685 H 0.97444 0.21774 0.30955
 H686 H 1.03235 0.19525 0.28610
 H687 H 0.98390 0.29699 0.21948
 H688 H 1.00681 0.27733 0.20137
 H689 H 1.05601 0.21788 0.28465
 H690 H 1.04457 0.26593 0.28962
 H691 H 0.96814 0.23273 0.20307
 H692 H 0.94532 0.25420 0.22391
 O693 O 0.74604 1.05373 0.72820
 O694 O 0.78079 1.04900 0.73436
 O695 O 0.72792 1.00497 0.69785
 O696 O 0.73099 0.97222 0.70093
 O697 O 0.69690 1.02318 0.74726
 O698 O 0.70144 1.01818 0.78097
 O699 O 0.77907 0.95319 0.75136
 O700 O 0.77625 0.95961 0.71797
 O701 O 0.79805 1.00080 0.77981
 O702 O 0.79191 1.03391 0.77639
 O703 O 0.75076 0.97273 0.79871
 O704 O 0.71545 0.97306 0.79037
 O705 O 0.75320 0.94954 0.77135
 O706 O 0.71752 0.95445 0.76803
 O707 O 0.77114 0.99826 0.80230
 O708 O 0.76393 1.03330 0.79688
 O709 O 0.80155 0.98014 0.75456
 O710 O 0.79721 0.98733 0.71962
 O711 O 0.72092 1.05031 0.74927
 O712 O 0.72481 1.04189 0.78438
 O713 O 0.70026 1.00212 0.72224
 O714 O 0.70928 0.96714 0.72416
 O715 O 0.74859 1.03040 0.70138
 O716 O 0.78369 1.02519 0.70955
 Zr717 Zr 0.76024 1.02684 0.72922
 O718 O 0.77855 1.01008 0.74667
 Zr719 Zr 0.72852 0.99089 0.72486
 O720 O 0.74587 0.97248 0.74171
 Zr721 Zr 0.72412 1.02238 0.76090
 O722 O 0.74097 1.00515 0.77934
 Zr723 Zr 0.77500 0.98091 0.73973
 O724 O 0.75794 0.99773 0.72068
 Zr725 Zr 0.77023 1.01235 0.77558
 O726 O 0.75324 1.03114 0.75848
 Zr727 Zr 0.73884 0.97620 0.77092
 O728 O 0.71993 0.99312 0.75388
 O729 O 0.73139 1.01948 0.73220
 O730 O 0.76790 0.98332 0.76868
 C731 C 0.73037 1.05968 0.73628
 C732 C 0.73573 1.02080 0.69196
 C733 C 0.69083 1.01499 0.73174
 C734 C 0.76891 0.94350 0.76353
 C735 C 0.80768 0.98835 0.77000
 C736 C 0.76307 0.98275 0.80840
 H737 H 0.79213 1.01426 0.74487
 H738 H 0.73690 1.00721 0.79284
 H739 H 0.72305 1.02758 0.72403
 H740 H 0.74417 0.95898 0.73750
 H741 H 0.77228 0.96601 0.70583
 H742 H 0.73946 0.96145 0.70489
 H743 H 0.77419 1.03260 0.80687
 H744 H 0.71374 1.05088 0.78299
 H745 H 0.80699 0.97691 0.72037
 H746 H 0.78250 1.03588 0.70014
 H747 H 0.71615 0.98377 0.79973
 H748 H 0.69652 1.00494 0.77894
 H749 H 0.77988 1.05854 0.72375
 H750 H 0.78607 1.04558 0.77062
 H751 H 0.70056 0.96850 0.73539
 H752 H 0.72043 0.94713 0.75616
 O753 O 0.74706 0.54751 0.22173
 O754 O 0.78128 0.54205 0.22695
 O755 O 0.72557 0.49864 0.19424
 O756 O 0.72724 0.46619 0.19808
 O757 O 0.69694 0.51909 0.24439
 O758 O 0.70216 0.51658 0.27680
 O759 O 0.77798 0.44767 0.24787
 O760 O 0.77392 0.45268 0.21400
 O761 O 0.79801 0.49472 0.27443
 O762 O 0.79298 0.52836 0.26964
 O763 O 0.75163 0.46822 0.29449
 O764 O 0.71572 0.46990 0.28782
 O765 O 0.75305 0.44522 0.26919
 O766 O 0.71653 0.45055 0.26513
 O767 O 0.77290 0.49317 0.29693
 O768 O 0.76564 0.52877 0.29118
 O769 O 0.80036 0.47278 0.25013
 O770 O 0.79587 0.48007 0.21456
 O771 O 0.72373 0.54675 0.24497
 O772 O 0.72702 0.53776 0.28004
 O773 O 0.69836 0.49648 0.22066
 O774 O 0.70769 0.46170 0.22216
 O775 O 0.74845 0.52233 0.19519
 O776 O 0.78309 0.51705 0.20343
 Zr777 Zr 0.75996 0.52027 0.22331
 O778 O 0.77839 0.50386 0.24105
 Zr779 Zr 0.72686 0.48551 0.22158
 O780 O 0.74450 0.46702 0.23819
 Zr781 Zr 0.72487 0.51845 0.25645
 O782 O 0.74153 0.50100 0.27500
 Zr783 Zr 0.77381 0.47467 0.23509
 O784 O 0.75636 0.49105 0.21606
 Zr785 Zr 0.77081 0.50729 0.27012
 O786 O 0.75412 0.52591 0.25265
 Zr787 Zr 0.73841 0.47182 0.26743
 O788 O 0.71954 0.48905 0.25073
 O789 O 0.73073 0.51445 0.22746
 O790 O 0.76735 0.47836 0.26393
 C791 C 0.73329 0.55522 0.23143
 C792 C 0.73487 0.51286 0.18671
 C793 C 0.68937 0.50941 0.23048
 C794 C 0.76881 0.43907 0.26148
 C795 C 0.80663 0.48092 0.26560
 C796 C 0.76515 0.47753 0.30320
 H797 H 0.79207 0.50754 0.23886
 H798 H 0.73801 0.50342 0.28859
 H799 H 0.72226 0.52259 0.21935
 H800 H 0.74241 0.45343 0.23447
 H801 H 0.77036 0.45891 0.20165
 H802 H 0.73740 0.45658 0.20092
 H803 H 0.77608 0.52780 0.30095
 H804 H 0.71711 0.54797 0.27846
 H805 H 0.80542 0.46947 0.21561
 H806 H 0.78220 0.52734 0.19355
 H807 H 0.71779 0.48009 0.29756
 H808 H 0.69884 0.50275 0.27789
 H809 H 0.78063 0.55101 0.21583
 H810 H 0.78724 0.53996 0.26363
 H811 H 0.69958 0.46317 0.23381
 H812 H 0.72046 0.44137 0.25498
 O813 O 0.55054 0.22741 0.74821
 O814 O 0.54535 0.23303 0.78294
 O815 O 0.50120 0.19839 0.72894
 O816 O 0.46829 0.20206 0.73116
 O817 O 0.52118 0.24818 0.69946
 O818 O 0.51639 0.28195 0.70466
 O819 O 0.44860 0.24956 0.77898
 O820 O 0.45632 0.21686 0.77709
 O821 O 0.49874 0.27753 0.80120
 O822 O 0.53150 0.27465 0.79412
 O823 O 0.47092 0.29956 0.75279
 O824 O 0.47047 0.29201 0.71851
 O825 O 0.44626 0.27172 0.75488
 O826 O 0.45225 0.26938 0.71905
 O827 O 0.49457 0.30088 0.77565
 O828 O 0.52996 0.29666 0.76740
 O829 O 0.47461 0.25511 0.80204
 O830 O 0.48295 0.21971 0.79894
 O831 O 0.54789 0.24935 0.72382
 O832 O 0.53988 0.28446 0.72843
 O833 O 0.49938 0.22355 0.70184
 O834 O 0.46406 0.22576 0.71031
 O835 O 0.52650 0.20097 0.74997
 O836 O 0.52105 0.20831 0.78488
 Zr837 Zr 0.52333 0.22857 0.76206
 O838 O 0.50641 0.24564 0.78050
 Zr839 Zr 0.48765 0.22564 0.72980
 O840 O 0.46916 0.24225 0.74716
 Zr841 Zr 0.51996 0.26126 0.72681
 O842 O 0.50269 0.27942 0.74386
 Zr843 Zr 0.47704 0.23934 0.77624
 O844 O 0.49396 0.22056 0.75907
 Zr845 Zr 0.50936 0.27468 0.77301
 O846 O 0.52824 0.25791 0.75587
 Zr847 Zr 0.47343 0.27162 0.74101
 O848 O 0.49050 0.25487 0.72200
 O849 O 0.51645 0.23243 0.73332
 O850 O 0.48002 0.26842 0.76999
 C851 C 0.55690 0.23589 0.73294
 C852 C 0.51683 0.19203 0.73687
 C853 C 0.51274 0.23296 0.69293
 C854 C 0.43928 0.26237 0.76933
 C855 C 0.48425 0.26922 0.80932
 C856 C 0.48007 0.30803 0.76656
 H857 H 0.51032 0.24342 0.79405
 H858 H 0.50503 0.29302 0.74026
 H859 H 0.52456 0.22430 0.72499
 H860 H 0.45561 0.23816 0.74501
 H861 H 0.46316 0.20496 0.77319
 H862 H 0.45799 0.20557 0.74038
 H863 H 0.52918 0.30613 0.77806
 H864 H 0.54908 0.28326 0.71753
 H865 H 0.47236 0.22087 0.80850
 H866 H 0.53180 0.19894 0.78375
 H867 H 0.48255 0.29966 0.71804
 H868 H 0.50340 0.27977 0.69903
 H869 H 0.55485 0.22239 0.78191
 H870 H 0.54325 0.26961 0.78773
 H871 H 0.46582 0.23710 0.70182
 H872 H 0.44426 0.25788 0.72184
 O873 O 0.27337 0.79954 0.49958
 O874 O 0.26883 0.79320 0.53379
 O875 O 0.30336 0.74991 0.47956
 O876 O 0.29899 0.71753 0.47938
 O877 O 0.25236 0.77050 0.44950
 O878 O 0.21908 0.76628 0.45493
 O879 O 0.25219 0.69698 0.52765
 O880 O 0.28502 0.70531 0.52643
 O881 O 0.22368 0.74646 0.55109
 O882 O 0.22705 0.77942 0.54460
 O883 O 0.20198 0.71903 0.50354
 O884 O 0.20867 0.72045 0.46829
 O885 O 0.22987 0.69502 0.50353
 O886 O 0.23128 0.70202 0.46817
 O887 O 0.20054 0.74286 0.52602
 O888 O 0.20457 0.77822 0.51800
 O889 O 0.24557 0.72193 0.55104
 O890 O 0.28138 0.73102 0.54894
 O891 O 0.25138 0.79729 0.47512
 O892 O 0.21631 0.78859 0.47915
 O893 O 0.27732 0.74914 0.45151
 O894 O 0.27549 0.71398 0.45959
 O895 O 0.30080 0.77507 0.50046
 O896 O 0.29339 0.76906 0.53502
 Zr897 Zr 0.27297 0.77189 0.51228
 O898 O 0.25590 0.75465 0.53055
 Zr899 Zr 0.27563 0.73715 0.47938
 O900 O 0.25908 0.71832 0.49650
 Zr901 Zr 0.23991 0.76918 0.47715
 O902 O 0.22169 0.75159 0.49400
 Zr903 Zr 0.26212 0.72552 0.52574
 O904 O 0.28086 0.74274 0.50874
 Zr905 Zr 0.22672 0.75773 0.52319
 O906 O 0.24347 0.77681 0.50630
 Zr907 Zr 0.22950 0.72255 0.49061
 O908 O 0.24624 0.73998 0.47186
 O909 O 0.26910 0.76589 0.48325
 O910 O 0.23296 0.72864 0.51960
 C911 C 0.26426 0.80648 0.48492
 C912 C 0.31010 0.76502 0.48798
 C913 C 0.26728 0.76193 0.44251
 C914 C 0.23940 0.68780 0.51776
 C915 C 0.23138 0.73133 0.55850
 C916 C 0.19366 0.72796 0.51752
 H917 H 0.25813 0.75824 0.54418
 H918 H 0.20798 0.75392 0.49061
 H919 H 0.27726 0.77422 0.47505
 H920 H 0.26329 0.70495 0.49401
 H921 H 0.29695 0.71246 0.52300
 H922 H 0.29669 0.70850 0.49015
 H923 H 0.19520 0.77730 0.52878
 H924 H 0.21751 0.79823 0.46866
 H925 H 0.27997 0.72029 0.55828
 H926 H 0.30291 0.77973 0.53414
 H927 H 0.19966 0.73143 0.46958
 H928 H 0.21999 0.75285 0.45023
 H929 H 0.27960 0.80263 0.53304
 H930 H 0.23191 0.79126 0.53829
 H931 H 0.26403 0.71576 0.45120
 H932 H 0.24322 0.69444 0.47027
 O933 O 0.27528 0.30644 1.00347
 O934 O 0.27243 0.29880 1.03729
 O935 O 0.30171 0.25730 0.97869
 O936 O 0.29659 0.22536 0.97762
 O937 O 0.25054 0.28158 0.95349
 O938 O 0.21750 0.27807 0.95999
 O939 O 0.24991 0.20473 1.02940
 O940 O 0.28318 0.20987 1.02427
 O941 O 0.22494 0.25111 1.05392
 O942 O 0.22984 0.28467 1.05074
 O943 O 0.20016 0.22968 1.00576
 O944 O 0.20628 0.23082 0.97138
 O945 O 0.22684 0.20419 1.00589
 O946 O 0.22849 0.21197 0.96994
 O947 O 0.20023 0.25246 1.02927
 O948 O 0.20722 0.28783 1.02472
 O949 O 0.24964 0.22937 1.05402
 O950 O 0.28451 0.23590 1.04744
 O951 O 0.25123 0.30701 0.98101
 O952 O 0.21633 0.29875 0.98567
 O953 O 0.27306 0.25763 0.95213
 O954 O 0.27151 0.22253 0.95979
 O955 O 0.30152 0.28097 1.00144
 O956 O 0.29560 0.27344 1.03616
 Zr957 Zr 0.27423 0.27832 1.01466
 O958 O 0.25723 0.26106 1.03296
 Zr959 Zr 0.27363 0.24530 0.97996
 O960 O 0.25742 0.22625 0.99728
 Zr961 Zr 0.23929 0.27893 0.98147
 O962 O 0.22129 0.26095 0.99811
 Zr963 Zr 0.26234 0.23208 1.02658
 O964 O 0.28079 0.24919 1.00923
 Zr965 Zr 0.22774 0.26528 1.02733
 O966 O 0.24462 0.28462 1.01076
 Zr967 Zr 0.22781 0.23182 0.99307
 O968 O 0.24404 0.24976 0.97438
 O969 O 0.26860 0.27411 0.98556
 O970 O 0.23287 0.23628 1.02216
 C971 C 0.26523 0.31496 0.99039
 C972 C 0.30964 0.27146 0.98775
 C973 C 0.26347 0.27166 0.94463
 C974 C 0.23609 0.19655 1.02009
 C975 C 0.23476 0.23740 1.06166
 C976 C 0.19214 0.23873 1.01981
 H977 H 0.26034 0.26396 1.04658
 H978 H 0.20759 0.26401 0.99530
 H979 H 0.27651 0.28257 0.97723
 H980 H 0.26083 0.21276 0.99421
 H981 H 0.29546 0.21613 1.02038
 H982 H 0.29445 0.21553 0.98771
 H983 H 0.19792 0.28658 1.03552
 H984 H 0.21730 0.30899 0.97573
 H985 H 0.28420 0.22464 1.05624
 H986 H 0.30575 0.28349 1.03509
 H987 H 0.19910 0.24312 0.97188
 H988 H 0.21807 0.26511 0.95408
 H989 H 0.28375 0.30758 1.03650
 H990 H 0.23630 0.29635 1.04566
 H991 H 0.25946 0.22466 0.95235
 H992 H 0.23893 0.20258 0.97256
 C993 C 0.29163 0.36364 0.78945
 C994 C 0.27815 0.34993 0.79591
 C995 C 0.28487 0.33260 0.80390
 C996 C 0.30489 0.32918 0.80589
 C997 C 0.31815 0.34325 0.79956
 C998 C 0.31162 0.36036 0.79109
 C999 C 0.28470 0.38196 0.78120
 C1000 C 0.29821 0.39559 0.77467
 C1001 C 0.29162 0.41312 0.76713
 C1002 C 0.27171 0.41735 0.76671
 C1003 C 0.25830 0.40354 0.77334
 C1004 C 0.26473 0.38569 0.78041
 C1005 C 0.32468 0.37437 0.78445
 C1006 C 0.31807 0.39163 0.77628
 C1007 C 0.25826 0.35399 0.79451
 C1008 C 0.25167 0.37162 0.78701
 H1009 H 0.34014 0.37199 0.78562
 H1010 H 0.32860 0.40207 0.77145
 H1011 H 0.24771 0.34355 0.79948
 H1012 H 0.23623 0.37428 0.78644
 H1013 H 0.27461 0.32187 0.80887
 H1014 H 0.33355 0.34094 0.80146
 H1015 H 0.30200 0.42382 0.76237
 H1016 H 0.24295 0.40677 0.77310
 C1017 C 0.29440 -0.13286 0.29650
 C1018 C 0.30229 -0.14666 0.28402
 C1019 C 0.31027 -0.16356 0.29177
 C1020 C 0.31087 -0.16646 0.31188
 C1021 C 0.30307 -0.15229 0.32416
 C1022 C 0.29461 -0.13560 0.31655
 C1023 C 0.28598 -0.11508 0.28845
 C1024 C 0.27793 -0.10139 0.30096
 C1025 C 0.27016 -0.08441 0.29329
 C1026 C 0.27089 -0.08081 0.27332
 C1027 C 0.27905 -0.09466 0.26095
 C1028 C 0.28644 -0.11195 0.26845
 C1029 C 0.28649 -0.12153 0.32860
 C1030 C 0.27819 -0.10475 0.32093
 C1031 C 0.30219 -0.14320 0.26406
 C1032 C 0.29452 -0.12608 0.25642
 H1033 H 0.28655 -0.12350 0.34409
 H1034 H 0.27211 -0.09423 0.33072
 H1035 H 0.30828 -0.15371 0.25427
 H1036 H 0.29494 -0.12387 0.24097
 H1037 H 0.31616 -0.17440 0.28222
 H1038 H 0.30373 -0.15422 0.33964
 H1039 H 0.26427 -0.07364 0.30294
 H1040 H 0.27974 -0.09191 0.24559
 C1041 C 0.79580 0.87140 0.79410
 C1042 C 0.81575 0.86832 0.79641
 C1043 C 0.82214 0.85121 0.80508
 C1044 C 0.80873 0.83708 0.81106
 C1045 C 0.78879 0.84043 0.80861
 C1046 C 0.78223 0.85762 0.80025
 C1047 C 0.78896 0.88950 0.78528
 C1048 C 0.76899 0.89280 0.78353
 C1049 C 0.76254 0.91030 0.77580
 C1050 C 0.77589 0.92436 0.76963
 C1051 C 0.79589 0.92064 0.77103
 C1052 C 0.80251 0.90329 0.77908
 C1053 C 0.76237 0.86134 0.79800
 C1054 C 0.75586 0.87868 0.78985
 C1055 C 0.82888 0.88245 0.79006
 C1056 C 0.82237 0.89961 0.78149
 H1057 H 0.75177 0.85083 0.80271
 H1058 H 0.74042 0.88107 0.78855
 H1059 H 0.84431 0.88023 0.79174
 H1060 H 0.83298 0.91016 0.77686
 H1061 H 0.83749 0.84882 0.80722
 H1062 H 0.77846 0.82961 0.81323
 H1063 H 0.74713 0.91309 0.77478
 H1064 H 0.80623 0.93155 0.76662
 C1065 C 0.45698 0.87631 0.29722
 C1066 C 0.45056 0.89043 0.28420
 C1067 C 0.44312 0.90778 0.29137
 C1068 C 0.44160 0.91085 0.31138
 C1069 C 0.44801 0.89645 0.32420
 C1070 C 0.45588 0.87923 0.31721
 C1071 C 0.46482 0.85804 0.28978
 C1072 C 0.47146 0.84404 0.30281
 C1073 C 0.47892 0.82672 0.29567
 C1074 C 0.47933 0.82317 0.27570
 C1075 C 0.47242 0.83725 0.26282
 C1076 C 0.46534 0.85485 0.26980
 C1077 C 0.46253 0.86481 0.32979
 C1078 C 0.47028 0.84754 0.32271
 C1079 C 0.45154 0.88683 0.26431
 C1080 C 0.45870 0.86929 0.25723
 H1081 H 0.46175 0.86690 0.34524
 H1082 H 0.47526 0.83678 0.33290
 H1083 H 0.44658 0.89759 0.25413
 H1084 H 0.45906 0.86702 0.24179
 H1085 H 0.43827 0.91883 0.28144
 H1086 H 0.44664 0.89858 0.33961
 H1087 H 0.48388 0.81576 0.30567
 H1088 H 0.47266 0.83454 0.24744
 C1089 C -0.04788 0.88183 0.79124
 C1090 C -0.03428 0.89605 0.79619
 C1091 C -0.04076 0.91348 0.80409
 C1092 C -0.06060 0.91642 0.80776
 C1093 C -0.07403 0.90202 0.80253
 C1094 C -0.06777 0.88478 0.79413
 C1095 C -0.04115 0.86333 0.78328
 C1096 C -0.05477 0.84915 0.77827
 C1097 C -0.04828 0.83141 0.77117
 C1098 C -0.02832 0.82761 0.76969
 C1099 C -0.01484 0.84199 0.77470
 C1100 C -0.02119 0.86000 0.78132
 C1101 C -0.08097 0.87029 0.78885
 C1102 C -0.07459 0.85281 0.78095
 C1103 C -0.01447 0.89239 0.79351
 C1104 C -0.00803 0.87461 0.78633
 H1105 H -0.09636 0.87242 0.79095
 H1106 H -0.08523 0.84196 0.77719
 H1107 H -0.00383 0.90323 0.79729
 H1108 H 0.00740 0.87225 0.78480
 H1109 H -0.03040 0.92462 0.80780
 H1110 H -0.08931 0.90415 0.80532
 H1111 H -0.05869 0.82026 0.76762
 H1112 H 0.00054 0.83909 0.77357
 C1113 C -0.03658 -0.13248 -0.04162
 C1114 C -0.04028 -0.13544 -0.06129
 C1115 C -0.04767 -0.15319 -0.06737
 C1116 C -0.05124 -0.16804 -0.05400
 C1117 C -0.04691 -0.16505 -0.03437
 C1118 C -0.03985 -0.14714 -0.02805
 C1119 C -0.02955 -0.11351 -0.03508
 C1120 C -0.02661 -0.11019 -0.01531
 C1121 C -0.02049 -0.09186 -0.00917
 C1122 C -0.01683 -0.07726 -0.02278
 C1123 C -0.01963 -0.08093 -0.04250
 C1124 C -0.02627 -0.09892 -0.04872
 C1125 C -0.03640 -0.14342 -0.00843
 C1126 C -0.03000 -0.12523 -0.00216
 C1127 C -0.03694 -0.12044 -0.07447
 C1128 C -0.03001 -0.10250 -0.06827
 H1129 H -0.03891 -0.15459 0.00220
 H1130 H -0.02774 -0.12291 0.01312
 H1131 H -0.03981 -0.12255 -0.08967
 H1132 H -0.02786 -0.09125 -0.07883
 H1133 H -0.05114 -0.15534 -0.08246
 H1134 H -0.04960 -0.17648 -0.02407
 H1135 H -0.01839 -0.08899 0.00604
 H1136 H -0.01719 -0.06956 -0.05293
 C1137 C -0.05679 0.38075 0.44464
 C1138 C -0.04546 0.36624 0.43629
 C1139 C -0.05461 0.35105 0.42659
 C1140 C -0.07496 0.35042 0.42497
 C1141 C -0.08608 0.36538 0.43304
 C1142 C -0.07707 0.38051 0.44302
 C1143 C -0.04724 0.39640 0.45543
 C1144 C -0.05859 0.41075 0.46403
 C1145 C -0.04944 0.42569 0.47410
 C1146 C -0.02907 0.42663 0.47518
 C1147 C -0.01790 0.41209 0.46651
 C1148 C -0.02694 0.39682 0.45677
 C1149 C -0.08793 0.39526 0.45166
 C1150 C -0.07884 0.41006 0.46206
 C1151 C -0.02520 0.36707 0.43802
 C1152 C -0.01609 0.38216 0.44799
 H1153 H -0.10358 0.39528 0.45049
 H1154 H -0.08773 0.42105 0.46863
 H1155 H -0.01631 0.35597 0.43157
 H1156 H -0.00043 0.38233 0.44886
 H1157 H -0.04595 0.33949 0.42068
 H1158 H -0.10172 0.36499 0.43178
 H1159 H -0.05814 0.43707 0.48034
 H1160 H -0.00223 0.41286 0.46709
 C1161 C 0.45695 -0.13115 0.45547
 C1162 C 0.45011 -0.14527 0.46826
 C1163 C 0.44288 -0.16263 0.46083
 C1164 C 0.44189 -0.16566 0.44075
 C1165 C 0.44880 -0.15127 0.42818
 C1166 C 0.45652 -0.13408 0.43546
 C1167 C 0.46442 -0.11280 0.46317
 C1168 C 0.47143 -0.09880 0.45035
 C1169 C 0.47844 -0.08138 0.45768
 C1170 C 0.47803 -0.07767 0.47763
 C1171 C 0.47076 -0.09174 0.49032
 C1172 C 0.46415 -0.10950 0.48315
 C1173 C 0.46358 -0.11967 0.42310
 C1174 C 0.47102 -0.10236 0.43043
 C1175 C 0.45037 -0.14161 0.48817
 C1176 C 0.45715 -0.12397 0.49549
 H1177 H 0.46333 -0.12179 0.40763
 H1178 H 0.47631 -0.09159 0.42041
 H1179 H 0.44508 -0.15238 0.49818
 H1180 H 0.45691 -0.12165 0.51092
 H1181 H 0.43769 -0.17368 0.47058
 H1182 H 0.44785 -0.15334 0.41273
 H1183 H 0.48365 -0.07043 0.44779
 H1184 H 0.47036 -0.08889 0.50567
 C1185 C 0.45748 0.37456 -0.04669
 C1186 C 0.45686 0.37083 -0.06656
 C1187 C 0.44926 0.35329 -0.07304
 C1188 C 0.44257 0.33936 -0.05983
 C1189 C 0.44381 0.34315 -0.03991
 C1190 C 0.45096 0.36086 -0.03328
 C1191 C 0.46479 0.39330 -0.03984
 C1192 C 0.46472 0.39735 -0.02001
 C1193 C 0.47116 0.41544 -0.01363
 C1194 C 0.47802 0.42916 -0.02693
 C1195 C 0.47828 0.42473 -0.04672
 C1196 C 0.47144 0.40691 -0.05328
 C1197 C 0.45145 0.36530 -0.01353
 C1198 C 0.45810 0.38328 -0.00701
 C1199 C 0.46360 0.38483 -0.07957
 C1200 C 0.47087 0.40254 -0.07303
 H1201 H 0.44643 0.35487 -0.00303
 H1202 H 0.45804 0.38620 0.00832
 H1203 H 0.46322 0.38209 -0.09493
 H1204 H 0.47590 0.41296 -0.08353
 H1205 H 0.44820 0.35062 -0.08838
 H1206 H 0.43883 0.33244 -0.02968
 H1207 H 0.47099 0.41881 0.00162
 H1208 H 0.48328 0.43537 -0.05704
 C1209 C 0.80610 0.37087 0.44584
 C1210 C 0.79462 0.38535 0.43754
 C1211 C 0.80351 0.39989 0.42668
 C1212 C 0.82373 0.39998 0.42404
 C1213 C 0.83495 0.38498 0.43193
 C1214 C 0.82622 0.37043 0.44296
 C1215 C 0.79689 0.35603 0.45797
 C1216 C 0.80839 0.34168 0.46646
 C1217 C 0.79951 0.32743 0.47773
 C1218 C 0.77923 0.32719 0.48012
 C1219 C 0.76796 0.34182 0.47166
 C1220 C 0.77674 0.35635 0.46066
 C1221 C 0.83722 0.35568 0.45149
 C1222 C 0.82845 0.34157 0.46307
 C1223 C 0.77452 0.38522 0.44059
 C1224 C 0.76571 0.37091 0.45187
 H1225 H 0.85274 0.35512 0.44931
 H1226 H 0.83745 0.33048 0.46943
 H1227 H 0.76551 0.39630 0.43420
 H1228 H 0.75015 0.37126 0.45376
 H1229 H 0.79484 0.41150 0.42083
 H1230 H 0.85051 0.38500 0.42986
 H1231 H 0.80825 0.31590 0.48368
 H1232 H 0.75234 0.34154 0.47317
 C1233 C 0.79660 0.88582 -0.03921
 C1234 C 0.78359 0.89895 -0.04751
 C1235 C 0.79083 0.91565 -0.05634
 C1236 C 0.81096 0.91893 -0.05743
 C1237 C 0.82376 0.90541 -0.04923
 C1238 C 0.81666 0.88901 -0.03986
 C1239 C 0.78911 0.86819 -0.02999
 C1240 C 0.80214 0.85515 -0.02158
 C1241 C 0.79504 0.83817 -0.01329
 C1242 C 0.77514 0.83386 -0.01398
 C1243 C 0.76221 0.84714 -0.02233
 C1244 C 0.76912 0.86446 -0.03020
 C1245 C 0.82924 0.87564 -0.03127
 C1246 C 0.82208 0.85907 -0.02216
 C1247 C 0.76364 0.89497 -0.04702
 C1248 C 0.75653 0.87794 -0.03865
 H1249 H 0.84475 0.87799 -0.03162
 H1250 H 0.83224 0.84910 -0.01577
 H1251 H 0.75345 0.90498 -0.05341
 H1252 H 0.74108 0.87528 -0.03886
 H1253 H 0.78089 0.92600 -0.06254
 H1254 H 0.83925 0.90760 -0.05029
 H1255 H 0.80510 0.82786 -0.00719
 H1256 H 0.74687 0.84384 -0.02295
 C1257 C 0.80256 0.30700 0.37967
 C1258 C 0.80598 0.32695 0.37982
 C1259 C 0.81696 0.33520 0.36495
 C1260 C 0.82427 0.32366 0.34995
 C1261 C 0.82112 0.30362 0.35035
 C1262 C 0.81029 0.29521 0.36518
 C1263 C 0.79044 0.29829 0.39483
 C1264 C 0.78720 0.27831 0.39477
 C1265 C 0.77624 0.27000 0.40958
 C1266 C 0.76839 0.28154 0.42426
 C1267 C 0.77130 0.30165 0.42380
 C1268 C 0.78253 0.31008 0.40923
 C1269 C 0.80671 0.27529 0.36558
 C1270 C 0.79543 0.26697 0.38018
 C1271 C 0.79802 0.33825 0.39461
 C1272 C 0.78647 0.32996 0.40906
 H1273 H 0.81265 0.26606 0.35449
 H1274 H 0.79310 0.25153 0.38003
 H1275 H 0.80062 0.35365 0.39495
 H1276 H 0.78058 0.33917 0.42017
 H1277 H 0.81940 0.35062 0.36466
 H1278 H 0.82652 0.29471 0.33873
 H1279 H 0.77431 0.25450 0.41005
 H1280 H 0.76582 0.31057 0.43539
 C1281 C 0.79132 0.79937 -0.12745
 C1282 C 0.79347 0.81925 -0.13053
 C1283 C 0.80099 0.82578 -0.14812
 C1284 C 0.80610 0.81261 -0.16268
 C1285 C 0.80297 0.79276 -0.15964
 C1286 C 0.79601 0.78603 -0.14189
 C1287 C 0.78447 0.79237 -0.10859
 C1288 C 0.78326 0.77244 -0.10514
 C1289 C 0.77748 0.76588 -0.08689
 C1290 C 0.77244 0.77912 -0.07241
 C1291 C 0.77335 0.79903 -0.07625
 C1292 C 0.77964 0.80574 -0.09422
 C1293 C 0.79413 0.76622 -0.13809
 C1294 C 0.78801 0.75954 -0.11998
 C1295 C 0.78846 0.83218 -0.11581
 C1296 C 0.78153 0.82554 -0.09799
 H1297 H 0.79775 0.75578 -0.14911
 H1298 H 0.78704 0.74415 -0.11756
 H1299 H 0.79000 0.84756 -0.11803
 H1300 H 0.77790 0.83599 -0.08699
 H1301 H 0.80337 0.84106 -0.15032
 H1302 H 0.80660 0.78258 -0.17089
 H1303 H 0.77674 0.75055 -0.08396
 H1304 H 0.76973 0.80927 -0.06503
 C1305 C 0.29258 0.45576 0.88027
 C1306 C 0.29905 0.46957 0.89358
 C1307 C 0.30631 0.46346 0.91145
 C1308 C 0.30742 0.44369 0.91592
 C1309 C 0.30135 0.43003 0.90216
 C1310 C 0.29360 0.43599 0.88445
 C1311 C 0.28480 0.46210 0.86151
 C1312 C 0.27808 0.44829 0.84832
 C1313 C 0.27076 0.45439 0.83048
 C1314 C 0.27065 0.47409 0.82561
 C1315 C 0.27755 0.48775 0.83895
 C1316 C 0.28445 0.48184 0.85704
 C1317 C 0.28688 0.42259 0.87082
 C1318 C 0.27914 0.42865 0.85310
 C1319 C 0.29821 0.48921 0.88870
 C1320 C 0.29115 0.49523 0.87069
 H1321 H 0.28756 0.40730 0.87389
 H1322 H 0.27409 0.41785 0.84300
 H1323 H 0.30320 0.50000 0.89882
 H1324 H 0.29091 0.51049 0.86743
 H1325 H 0.31116 0.47400 0.92191
 H1326 H 0.30268 0.41479 0.90527
 H1327 H 0.26576 0.44380 0.82013
 H1328 H 0.27750 0.50293 0.83524
 C1329 C 0.29376 -0.04493 0.38123
 C1330 C 0.31380 -0.04564 0.38455
 C1331 C 0.32069 -0.05354 0.40181
 C1332 C 0.30771 -0.06029 0.41596
 C1333 C 0.28762 -0.05920 0.41248
 C1334 C 0.28057 -0.05177 0.39502
 C1335 C 0.28648 -0.03711 0.36284
 C1336 C 0.26647 -0.03709 0.35915
 C1337 C 0.25969 -0.03023 0.34134
 C1338 C 0.27278 -0.02304 0.32755
 C1339 C 0.29275 -0.02283 0.33168
 C1340 C 0.29970 -0.03009 0.34918
 C1341 C 0.26064 -0.05122 0.39096
 C1342 C 0.25371 -0.04412 0.37328
 C1343 C 0.32658 -0.03856 0.37049
 C1344 C 0.31964 -0.03081 0.35314
 H1345 H 0.25031 -0.05649 0.40145
 H1346 H 0.23825 -0.04415 0.37064
 H1347 H 0.34207 -0.03901 0.37292
 H1348 H 0.32997 -0.02552 0.34265
 H1349 H 0.33615 -0.05461 0.40421
 H1350 H 0.27757 -0.06432 0.42332
 H1351 H 0.24431 -0.03049 0.33818
 H1352 H 0.30294 -0.01768 0.32096
 C1353 C -0.03829 -0.04289 -0.13387
 C1354 C -0.03623 -0.06252 -0.13819
 C1355 C -0.04591 -0.07014 -0.15422
 C1356 C -0.05685 -0.05813 -0.16653
 C1357 C -0.05801 -0.03826 -0.16233
 C1358 C -0.04924 -0.03069 -0.14575
 C1359 C -0.02926 -0.03509 -0.11627
 C1360 C -0.03247 -0.01578 -0.11120
 C1361 C -0.02504 -0.00883 -0.09371
 C1362 C -0.01421 -0.02099 -0.08150
 C1363 C -0.01027 -0.04002 -0.08737
 C1364 C -0.01807 -0.04724 -0.10455
 C1365 C -0.05152 -0.01125 -0.14060
 C1366 C -0.04345 -0.00397 -0.12350
 C1367 C -0.02469 -0.07417 -0.12627
 C1368 C -0.01548 -0.06657 -0.10991
 H1369 H -0.05996 -0.00169 -0.14964
 H1370 H -0.04594 0.01098 -0.11982
 H1371 H -0.02276 -0.08930 -0.12959
 H1372 H -0.00659 -0.07600 -0.10118
 H1373 H -0.04509 -0.08548 -0.15695
 H1374 H -0.06610 -0.02876 -0.17174
 H1375 H -0.02802 0.00587 -0.08941
 H1376 H -0.00197 -0.04952 -0.07812
 C1377 C -0.05466 0.44300 0.37788
 C1378 C -0.06294 0.45414 0.36314
 C1379 C -0.07264 0.44488 0.34802
 C1380 C -0.07430 0.42464 0.34768
 C1381 C -0.06641 0.41374 0.36291
 C1382 C -0.05641 0.42283 0.37797
 C1383 C -0.04375 0.45262 0.39340
 C1384 C -0.03514 0.44146 0.40793
 C1385 C -0.02485 0.45068 0.42268
 C1386 C -0.02358 0.47094 0.42324
 C1387 C -0.03230 0.48193 0.40857
 C1388 C -0.04224 0.47282 0.39347
 C1389 C -0.04782 0.41217 0.39291
 C1390 C -0.03727 0.42133 0.40758
 C1391 C -0.06109 0.47429 0.36366
 C1392 C -0.05100 0.48348 0.37864
 H1393 H -0.04908 0.39660 0.39317
 H1394 H -0.03071 0.41258 0.41872
 H1395 H -0.06749 0.48303 0.35240
 H1396 H -0.05001 0.49905 0.37856
 H1397 H -0.07848 0.45335 0.33625
 H1398 H -0.06774 0.39818 0.36274
 H1399 H -0.01856 0.44215 0.43418
 H1400 H -0.03156 0.49752 0.40907
 C1401 C 0.45499 -0.04615 0.36990
 C1402 C 0.43492 -0.04648 0.36664
 C1403 C 0.42776 -0.05499 0.34980
 C1404 C 0.44049 -0.06272 0.33597
 C1405 C 0.46062 -0.06201 0.33939
 C1406 C 0.46793 -0.05399 0.35646
 C1407 C 0.46256 -0.03763 0.38785
 C1408 C 0.48258 -0.03794 0.39150
 C1409 C 0.48962 -0.03035 0.40892
 C1410 C 0.47678 -0.02209 0.42229
 C1411 C 0.45681 -0.02159 0.41819
 C1412 C 0.44959 -0.02957 0.40113
 C1413 C 0.48788 -0.05377 0.36046
 C1414 C 0.49507 -0.04601 0.37775
 C1415 C 0.42241 -0.03839 0.38035
 C1416 C 0.42963 -0.02997 0.39726
 H1417 H 0.49802 -0.05982 0.35023
 H1418 H 0.51054 -0.04632 0.38036
 H1419 H 0.40690 -0.03854 0.37797
 H1420 H 0.41949 -0.02389 0.40748
 H1421 H 0.41226 -0.05574 0.34747
 H1422 H 0.47051 -0.06786 0.32880
 H1423 H 0.50499 -0.03085 0.41207
 H1424 H 0.44680 -0.01564 0.42862
 C1425 C 0.45720 0.46191 -0.13612
 C1426 C 0.46991 0.45221 -0.14850
 C1427 C 0.46278 0.44459 -0.16584
 C1428 C 0.44287 0.44572 -0.17039
 C1429 C 0.43026 0.45486 -0.15728
 C1430 C 0.43745 0.46358 -0.14054
 C1431 C 0.46464 0.47021 -0.11801
 C1432 C 0.45206 0.48058 -0.10604
 C1433 C 0.45912 0.48826 -0.08875
 C1434 C 0.47834 0.48479 -0.08288
 C1435 C 0.49083 0.47446 -0.09514
 C1436 C 0.48411 0.46740 -0.11289
 C1437 C 0.42527 0.47396 -0.12813
 C1438 C 0.43255 0.48266 -0.11138
 C1439 C 0.48945 0.45016 -0.14317
 C1440 C 0.49637 0.45741 -0.12556
 H1441 H 0.41003 0.47552 -0.13149
 H1442 H 0.42272 0.49072 -0.10230
 H1443 H 0.49940 0.44263 -0.15256
 H1444 H 0.51145 0.45522 -0.12185
 H1445 H 0.47263 0.43751 -0.17567
 H1446 H 0.41484 0.45522 -0.16008
 H1447 H 0.44943 0.49633 -0.07955
 H1448 H 0.50571 0.47190 -0.09085
 C1449 C 0.45513 0.79242 0.38155
 C1450 C 0.43503 0.79327 0.38441
 C1451 C 0.42786 0.80139 0.40144
 C1452 C 0.44062 0.80832 0.41572
 C1453 C 0.46075 0.80711 0.41269
 C1454 C 0.46808 0.79938 0.39553
 C1455 C 0.46275 0.78424 0.36350
 C1456 C 0.48284 0.78392 0.36037
 C1457 C 0.48998 0.77651 0.34297
 C1458 C 0.47718 0.76910 0.32902
 C1459 C 0.45710 0.76930 0.33252
 C1460 C 0.44979 0.77707 0.34965
 C1461 C 0.48809 0.79861 0.39198
 C1462 C 0.49534 0.79111 0.37465
 C1463 C 0.42251 0.78609 0.37014
 C1464 C 0.42977 0.77804 0.35308
 H1465 H 0.49823 0.80398 0.40263
 H1466 H 0.51086 0.79092 0.37242
 H1467 H 0.40698 0.78667 0.37219
 H1468 H 0.41963 0.77265 0.34244
 H1469 H 0.41236 0.80251 0.40353
 H1470 H 0.47063 0.81234 0.42365
 H1471 H 0.50544 0.77643 0.34031
 H1472 H 0.44714 0.76395 0.32166
 C1473 C -0.04160 0.79269 0.88545
 C1474 C -0.02778 0.79714 0.89961
 C1475 C -0.03404 0.80373 0.91768
 C1476 C -0.05394 0.80610 0.92149
 C1477 C -0.06755 0.80181 0.90699
 C1478 C -0.06149 0.79492 0.88903
 C1479 C -0.03515 0.78581 0.86641
 C1480 C -0.04904 0.78123 0.85236
 C1481 C -0.04291 0.77446 0.83439
 C1482 C -0.02306 0.77276 0.83021
 C1483 C -0.00924 0.77783 0.84425
 C1484 C -0.01525 0.78413 0.86255
 C1485 C -0.07490 0.79045 0.87449
 C1486 C -0.06877 0.78368 0.85648
 C1487 C -0.00800 0.79512 0.89531
 C1488 C -0.00184 0.78881 0.87707
 H1489 H -0.09027 0.79220 0.87704
 H1490 H -0.07955 0.78052 0.84563
 H1491 H 0.00282 0.79856 0.90609
 H1492 H 0.01354 0.78756 0.87433
 H1493 H -0.02353 0.80728 0.92873
 H1494 H -0.08283 0.80413 0.90964
 H1495 H -0.05355 0.77093 0.82345
 H1496 H 0.00605 0.77660 0.84101
 C1497 C 0.37182 0.79370 0.29664
 C1498 C 0.36920 0.81375 0.29733
 C1499 C 0.35194 0.82116 0.30487
 C1500 C 0.33722 0.80869 0.31139
 C1501 C 0.34000 0.78861 0.31026
 C1502 C 0.35737 0.78104 0.30313
 C1503 C 0.39014 0.78583 0.28915
 C1504 C 0.39302 0.76579 0.28900
 C1505 C 0.41062 0.75840 0.28218
 C1506 C 0.42502 0.77091 0.27514
 C1507 C 0.42181 0.79095 0.27524
 C1508 C 0.40448 0.79850 0.28243
 C1509 C 0.36068 0.76108 0.30256
 C1510 C 0.37824 0.75359 0.29572
 C1511 C 0.38396 0.82597 0.29062
 C1512 C 0.40127 0.81847 0.28320
 H1513 H 0.34965 0.75117 0.30759
 H1514 H 0.38026 0.73811 0.29565
 H1515 H 0.38211 0.84146 0.29108
 H1516 H 0.41229 0.82838 0.27815
 H1517 H 0.35002 0.83661 0.30594
 H1518 H 0.32870 0.77895 0.31519
 H1519 H 0.41306 0.74298 0.28218
 H1520 H 0.43300 0.80068 0.27017
 C1521 C -0.13540 0.79062 0.79689
 C1522 C -0.14750 0.80115 0.78452
 C1523 C -0.16410 0.80996 0.79203
 C1524 C -0.16811 0.80921 0.81197
 C1525 C -0.15553 0.79876 0.82415
 C1526 C -0.13950 0.78903 0.81662
 C1527 C -0.11778 0.78153 0.78916
 C1528 C -0.10584 0.77077 0.80150
 C1529 C -0.08859 0.76299 0.79434
 C1530 C -0.08291 0.76653 0.77516
 C1531 C -0.09539 0.77684 0.76281
 C1532 C -0.11292 0.78427 0.76972
 C1533 C -0.12739 0.77788 0.82846
 C1534 C -0.11103 0.76861 0.82094
 C1535 C -0.14255 0.80295 0.76497
 C1536 C -0.12544 0.79482 0.75773
 H1537 H -0.13057 0.77630 0.84367
 H1538 H -0.10216 0.75999 0.83050
 H1539 H -0.15176 0.81106 0.75527
 H1540 H -0.12191 0.79694 0.74267
 H1541 H -0.17371 0.81772 0.78243
 H1542 H -0.15810 0.79831 0.83953
 H1543 H -0.07913 0.75509 0.80397
 H1544 H -0.09125 0.77949 0.74798
 C1545 C 0.86908 0.30447 0.44276
 C1546 C 0.88381 0.31245 0.45422
 C1547 C 0.89879 0.32278 0.44536
 C1548 C 0.89907 0.32524 0.42521
 C1549 C 0.88383 0.31768 0.41400
 C1550 C 0.86883 0.30717 0.42270
 C1551 C 0.85376 0.29286 0.45195
 C1552 C 0.83917 0.28466 0.44048
 C1553 C 0.82453 0.27382 0.44932
 C1554 C 0.82416 0.27155 0.46953
 C1555 C 0.83900 0.27976 0.48077
 C1556 C 0.85391 0.29033 0.47204
 C1557 C 0.85383 0.29896 0.41173
 C1558 C 0.83926 0.28786 0.42047
 C1559 C 0.88348 0.30960 0.47426
 C1560 C 0.86873 0.29880 0.48303
 H1561 H 0.85341 0.30100 0.39625
 H1562 H 0.82799 0.28173 0.41150
 H1563 H 0.89475 0.31574 0.48324
 H1564 H 0.86896 0.29704 0.49854
 H1565 H 0.91058 0.32837 0.45404
 H1566 H 0.88400 0.31959 0.39850
 H1567 H 0.81285 0.26805 0.44059
 H1568 H 0.83862 0.27835 0.49633
 C1569 C 0.88769 0.79337 -0.03480
 C1570 C 0.89934 0.78072 -0.04543
 C1571 C 0.91700 0.78739 -0.05291
 C1572 C 0.92256 0.80688 -0.05080
 C1573 C 0.91053 0.81929 -0.04002
 C1574 C 0.89337 0.81252 -0.03168
 C1575 C 0.86891 0.78660 -0.02725
 C1576 C 0.85744 0.79922 -0.01639
 C1577 C 0.83932 0.79300 -0.00981
 C1578 C 0.83233 0.77451 -0.01454
 C1579 C 0.84417 0.76190 -0.02521
 C1580 C 0.86259 0.76783 -0.03144
 C1581 C 0.88160 0.82464 -0.02053
 C1582 C 0.86409 0.81799 -0.01275
 C1583 C 0.89285 0.76180 -0.04875
 C1584 C 0.87471 0.75553 -0.04204
 H1585 H 0.88595 0.83939 -0.01780
 H1586 H 0.85555 0.82772 -0.00405
 H1587 H 0.90168 0.75189 -0.05696
 H1588 H 0.87008 0.74097 -0.04528
 H1589 H 0.92614 0.77757 -0.06090
 H1590 H 0.91421 0.83437 -0.03845
 H1591 H 0.83034 0.80285 -0.00168
 H1592 H 0.83900 0.74759 -0.02878
 C1593 C -0.12909 -0.03930 -0.04694
 C1594 C -0.14305 -0.04547 -0.03361
 C1595 C -0.16066 -0.05294 -0.04038
 C1596 C -0.16408 -0.05491 -0.06032
 C1597 C -0.14992 -0.04850 -0.07346
 C1598 C -0.13248 -0.04054 -0.06686
 C1599 C -0.11039 -0.03180 -0.03992
 C1600 C -0.09647 -0.02555 -0.05327
 C1601 C -0.07861 -0.01872 -0.04655
 C1602 C -0.07442 -0.01864 -0.02668
 C1603 C -0.08849 -0.02500 -0.01347
 C1604 C -0.10662 -0.03140 -0.02002
 C1605 C -0.11820 -0.03411 -0.07977
 C1606 C -0.10054 -0.02663 -0.07308
 C1607 C -0.13895 -0.04443 -0.01380
 C1608 C -0.12100 -0.03763 -0.00712
 H1609 H -0.12067 -0.03495 -0.09517
 H1610 H -0.08988 -0.02191 -0.08352
 H1611 H -0.14960 -0.04918 -0.00337
 H1612 H -0.11832 -0.03732 0.00826
 H1613 H -0.17156 -0.05766 -0.03019
 H1614 H -0.15234 -0.05010 -0.08881
 H1615 H -0.06770 -0.01410 -0.05680
 H1616 H -0.08531 -0.02493 0.00184
 C1617 C -0.12036 0.44564 0.44161
 C1618 C -0.12048 0.44356 0.42147
 C1619 C -0.13555 0.43323 0.41269
 C1620 C -0.15060 0.42533 0.42388
 C1621 C -0.15005 0.42733 0.44409
 C1622 C -0.13491 0.43737 0.45303
 C1623 C -0.10484 0.45688 0.45091
 C1624 C -0.10455 0.45872 0.47108
 C1625 C -0.08941 0.46896 0.47988
 C1626 C -0.07493 0.47766 0.46859
 C1627 C -0.07572 0.47605 0.44835
 C1628 C -0.09050 0.46546 0.43945
 C1629 C -0.13420 0.43955 0.47315
 C1630 C -0.11921 0.44996 0.48203
 C1631 C -0.10571 0.45215 0.41051
 C1632 C -0.09103 0.46300 0.41936
 H1633 H -0.14532 0.43316 0.48211
 H1634 H -0.11913 0.45120 0.49759
 H1635 H -0.10560 0.45063 0.39497
 H1636 H -0.08003 0.46954 0.41039
 H1637 H -0.13587 0.43163 0.39716
 H1638 H -0.16167 0.42148 0.45280
 H1639 H -0.08872 0.46995 0.49546
 H1640 H -0.06437 0.48231 0.43957
 C1641 C 0.36683 -0.04546 0.45731
 C1642 C 0.35255 -0.03292 0.45027
 C1643 C 0.33516 -0.04062 0.44316
 C1644 C 0.33226 -0.06073 0.44250
 C1645 C 0.34681 -0.07306 0.44961
 C1646 C 0.36401 -0.06551 0.45721
 C1647 C 0.38521 -0.03749 0.46464
 C1648 C 0.39935 -0.05007 0.47186
 C1649 C 0.41679 -0.04248 0.47877
 C1650 C 0.42039 -0.02251 0.47807
 C1651 C 0.40619 -0.01006 0.47055
 C1652 C 0.38841 -0.01749 0.46403
 C1653 C 0.37857 -0.07762 0.46447
 C1654 C 0.39591 -0.07002 0.47178
 C1655 C 0.35611 -0.01298 0.45018
 C1656 C 0.37378 -0.00540 0.45683
 H1657 H 0.37656 -0.09310 0.46448
 H1658 H 0.40679 -0.07986 0.47725
 H1659 H 0.34523 -0.00315 0.44473
 H1660 H 0.37600 0.01004 0.45632
 H1661 H 0.32402 -0.03106 0.43776
 H1662 H 0.34487 -0.08853 0.44887
 H1663 H 0.42783 -0.05219 0.48419
 H1664 H 0.40894 0.00531 0.46993
 C1665 C 0.36880 0.46147 -0.04698
 C1666 C 0.36697 0.45481 -0.06600
 C1667 C 0.34920 0.44727 -0.07218
 C1668 C 0.33336 0.44627 -0.05948
 C1669 C 0.33534 0.45320 -0.04051
 C1670 C 0.35311 0.46073 -0.03414
 C1671 C 0.38758 0.46912 -0.04032
 C1672 C 0.38960 0.47538 -0.02117
 C1673 C 0.40765 0.48233 -0.01485
 C1674 C 0.42333 0.48338 -0.02772
 C1675 C 0.42107 0.47704 -0.04681
 C1676 C 0.40327 0.46973 -0.05317
 C1677 C 0.35563 0.46728 -0.01514
 C1678 C 0.37357 0.47443 -0.00875
 C1679 C 0.38303 0.45553 -0.07836
 C1680 C 0.40089 0.46280 -0.07202
 H1681 H 0.34366 0.46675 -0.00508
 H1682 H 0.37492 0.47922 0.00605
 H1683 H 0.38184 0.45030 -0.09302
 H1684 H 0.41300 0.46280 -0.08189
 H1685 H 0.34770 0.44178 -0.08672
 H1686 H 0.32312 0.45243 -0.03077
 H1687 H 0.40951 0.48704 -0.00007
 H1688 H 0.43335 0.47729 -0.05648
 C1689 C 0.38385 0.45835 0.78606
 C1690 C 0.38857 0.43880 0.78422
 C1691 C 0.40547 0.43188 0.79288
 C1692 C 0.41841 0.44450 0.80236
 C1693 C 0.41407 0.46441 0.80269
 C1694 C 0.39639 0.47125 0.79535
 C1695 C 0.36511 0.46528 0.77861
 C1696 C 0.35951 0.48444 0.78190
 C1697 C 0.34098 0.49049 0.77605
 C1698 C 0.32847 0.47761 0.76644
 C1699 C 0.33485 0.45879 0.76236
 C1700 C 0.35294 0.45244 0.76876
 C1701 C 0.39073 0.49057 0.79759
 C1702 C 0.37248 0.49698 0.79125
 C1703 C 0.37614 0.42646 0.77401
 C1704 C 0.35883 0.43330 0.76601
 H1705 H 0.40024 0.50069 0.80479
 H1706 H 0.36847 0.51185 0.79374
 H1707 H 0.37984 0.41142 0.77215
 H1708 H 0.34981 0.42346 0.75791
 H1709 H 0.40832 0.41656 0.79250
 H1710 H 0.42405 0.47443 0.80938
 H1711 H 0.33628 0.50507 0.77902
 H1712 H 0.32538 0.44877 0.75496
 C1713 C 0.38168 -0.04927 0.29315
 C1714 C 0.39585 -0.03649 0.30004
 C1715 C 0.41297 -0.04393 0.30796
 C1716 C 0.41572 -0.06400 0.30954
 C1717 C 0.40126 -0.07657 0.30262
 C1718 C 0.38432 -0.06929 0.29424
 C1719 C 0.36360 -0.04156 0.28490
 C1720 C 0.34954 -0.05437 0.27787
 C1721 C 0.33231 -0.04702 0.27023
 C1722 C 0.32884 -0.02702 0.27006
 C1723 C 0.34302 -0.01433 0.27725
 C1724 C 0.36057 -0.02154 0.28451
 C1725 C 0.36988 -0.08165 0.28711
 C1726 C 0.35282 -0.07431 0.27896
 C1727 C 0.39248 -0.01655 0.29908
 C1728 C 0.37508 -0.00920 0.29157
 H1729 H 0.37177 -0.09713 0.28785
 H1730 H 0.34201 -0.08433 0.27366
 H1731 H 0.40328 -0.00653 0.30439
 H1732 H 0.37297 0.00625 0.29131
 H1733 H 0.42408 -0.03419 0.31316
 H1734 H 0.40312 -0.09200 0.30400
 H1735 H 0.32129 -0.05690 0.26507
 H1736 H 0.34037 0.00105 0.27721
 C1737 C 0.11897 0.54413 0.70216
 C1738 C 0.11433 0.54109 0.68271
 C1739 C 0.09852 0.55083 0.67463
 C1740 C 0.08653 0.56266 0.68608
 C1741 C 0.09121 0.56504 0.70578
 C1742 C 0.10769 0.55627 0.71372
 C1743 C 0.13613 0.53460 0.71049
 C1744 C 0.14149 0.53855 0.72961
 C1745 C 0.15844 0.53028 0.73710
 C1746 C 0.16978 0.51783 0.72571
 C1747 C 0.16359 0.51334 0.70686
 C1748 C 0.14701 0.52196 0.69907
 C1749 C 0.11320 0.55947 0.73297
 C1750 C 0.12994 0.55095 0.74070
 C1751 C 0.12556 0.52831 0.67174
 C1752 C 0.14141 0.51864 0.67989
 H1753 H 0.10466 0.56887 0.74204
 H1754 H 0.13386 0.55409 0.75549
 H1755 H 0.12202 0.52568 0.65676
 H1756 H 0.14962 0.50881 0.67097
 H1757 H 0.09554 0.54909 0.65941
 H1758 H 0.08211 0.57379 0.71495
 H1759 H 0.16297 0.53378 0.75164
 H1760 H 0.17213 0.50380 0.69793
 C1761 C 0.11757 0.03949 0.20693
 C1762 C 0.10561 0.05039 0.21902
 C1763 C 0.08796 0.05736 0.21182
 C1764 C 0.08284 0.05474 0.19225
 C1765 C 0.09529 0.04386 0.18035
 C1766 C 0.11229 0.03575 0.18776
 C1767 C 0.13620 0.03223 0.21433
 C1768 C 0.14776 0.02071 0.20243
 C1769 C 0.16555 0.01407 0.20937
 C1770 C 0.17238 0.01968 0.22768
 C1771 C 0.16054 0.03115 0.23955
 C1772 C 0.14223 0.03719 0.23303
 C1773 C 0.12428 0.02415 0.17629
 C1774 C 0.14151 0.01642 0.18365
 C1775 C 0.11176 0.05447 0.23791
 C1776 C 0.12988 0.04821 0.24471
 H1777 H 0.12026 0.02097 0.16153
 H1778 H 0.15027 0.00740 0.17438
 H1779 H 0.10268 0.06294 0.24738
 H1780 H 0.13424 0.05203 0.25921
 H1781 H 0.07851 0.06537 0.22132
 H1782 H 0.09202 0.04195 0.16522
 H1783 H 0.17432 0.00496 0.20023
 H1784 H 0.16551 0.03529 0.25378
 C1785 C 0.63685 0.70561 0.21472
 C1786 C 0.64180 0.68610 0.21648
 C1787 C 0.65888 0.67947 0.20796
 C1788 C 0.67161 0.69232 0.19852
 C1789 C 0.66672 0.71206 0.19766
 C1790 C 0.64912 0.71866 0.20525
 C1791 C 0.61818 0.71236 0.22244
 C1792 C 0.61257 0.73156 0.21950
 C1793 C 0.59421 0.73754 0.22573
 C1794 C 0.58172 0.72452 0.23517
 C1795 C 0.58803 0.70558 0.23882
 C1796 C 0.60609 0.69932 0.23218
 C1797 C 0.64333 0.73796 0.20321
 C1798 C 0.62527 0.74426 0.21004
 C1799 C 0.62945 0.67355 0.22653
 C1800 C 0.61205 0.68014 0.23455
 H1801 H 0.65265 0.74819 0.19592
 H1802 H 0.62118 0.75915 0.20779
 H1803 H 0.63326 0.65851 0.22824
 H1804 H 0.60305 0.67006 0.24239
 H1805 H 0.66203 0.66420 0.20842
 H1806 H 0.67638 0.72215 0.19063
 H1807 H 0.58956 0.75221 0.22305
 H1808 H 0.57856 0.69545 0.24607
 C1809 C 0.12087 0.69830 0.69961
 C1810 C 0.13517 0.69009 0.71143
 C1811 C 0.15121 0.68121 0.70289
 C1812 C 0.15284 0.68023 0.68267
 C1813 C 0.13819 0.68829 0.67106
 C1814 C 0.12223 0.69745 0.67944
 C1815 C 0.10419 0.70803 0.70851
 C1816 C 0.09006 0.71649 0.69666
 C1817 C 0.07427 0.72576 0.70518
 C1818 C 0.07232 0.72625 0.72538
 C1819 C 0.08654 0.71758 0.73707
 C1820 C 0.10263 0.70860 0.72868
 C1821 C 0.10767 0.70586 0.66806
 C1822 C 0.09186 0.71526 0.67653
 C1823 C 0.13316 0.69101 0.73155
 C1824 C 0.11711 0.70002 0.74003
 H1825 H 0.10854 0.70524 0.65249
 H1826 H 0.08094 0.72158 0.66726
 H1827 H 0.14406 0.68468 0.74083
 H1828 H 0.11606 0.70034 0.75561
 H1829 H 0.16254 0.67522 0.71189
 H1830 H 0.13930 0.68747 0.65551
 H1831 H 0.06313 0.73197 0.69608
 H1832 H 0.08499 0.71774 0.75261
 C1833 C 0.62709 0.19859 0.55628
 C1834 C 0.61215 0.19115 0.54473
 C1835 C 0.59684 0.18119 0.55346
 C1836 C 0.59645 0.17854 0.57358
 C1837 C 0.61184 0.18564 0.58489
 C1838 C 0.62716 0.19578 0.57633
 C1839 C 0.64287 0.20970 0.54723
 C1840 C 0.65771 0.21730 0.55879
 C1841 C 0.67279 0.22765 0.55007
 C1842 C 0.67332 0.23002 0.52990
 C1843 C 0.65827 0.22235 0.51854
 C1844 C 0.64293 0.21228 0.52715
 C1845 C 0.64237 0.20344 0.58741
 C1846 C 0.65736 0.21407 0.57879
 C1847 C 0.61268 0.19409 0.52470
 C1848 C 0.62786 0.20439 0.51605
 H1849 H 0.64264 0.20133 0.60288
 H1850 H 0.66874 0.21981 0.58785
 H1851 H 0.60126 0.18837 0.51564
 H1852 H 0.62777 0.20623 0.50055
 H1853 H 0.58494 0.17594 0.54472
 H1854 H 0.61160 0.18356 0.60037
 H1855 H 0.68455 0.23309 0.55889
 H1856 H 0.65870 0.22391 0.50300
 C1857 C 0.61757 0.71450 0.04415
 C1858 C 0.60553 0.70470 0.03115
 C1859 C 0.58756 0.69773 0.03752
 C1860 C 0.58210 0.69939 0.05707
 C1861 C 0.59461 0.70919 0.06989
 C1862 C 0.61203 0.71721 0.06339
 C1863 C 0.63658 0.72167 0.03764
 C1864 C 0.64833 0.73197 0.05053
 C1865 C 0.66655 0.73839 0.04444
 C1866 C 0.67342 0.73390 0.02587
 C1867 C 0.66132 0.72374 0.01302
 C1868 C 0.64275 0.71781 0.01877
 C1869 C 0.62414 0.72770 0.07584
 C1870 C 0.64181 0.73529 0.06939
 C1871 C 0.61190 0.70169 0.01216
 C1872 C 0.63029 0.70793 0.00614
 H1873 H 0.61989 0.73013 0.09066
 H1874 H 0.65058 0.74355 0.07934
 H1875 H 0.60277 0.69409 0.00198
 H1876 H 0.63480 0.70498 -0.00851
 H1877 H 0.57808 0.69048 0.02741
 H1878 H 0.59107 0.71030 0.08503
 H1879 H 0.67558 0.74640 0.05437
 H1880 H 0.66633 0.72046 -0.00141
 C1881 C 0.13563 0.04639 0.04176
 C1882 C 0.14075 0.06558 0.03792
 C1883 C 0.15740 0.07332 0.04650
 C1884 C 0.16964 0.06172 0.05798
 C1885 C 0.16463 0.04217 0.06084
 C1886 C 0.14736 0.03463 0.05331
 C1887 C 0.11739 0.03862 0.03390
 C1888 C 0.11152 0.01988 0.03887
 C1889 C 0.09355 0.01301 0.03227
 C1890 C 0.08183 0.02458 0.02033
 C1891 C 0.08848 0.04297 0.01475
 C1892 C 0.10600 0.05023 0.02185
 C1893 C 0.14139 0.01570 0.05741
 C1894 C 0.12365 0.00853 0.05052
 C1895 C 0.12898 0.07674 0.02574
 C1896 C 0.11210 0.06905 0.01752
 H1897 H 0.15030 0.00648 0.06637
 H1898 H 0.11939 -0.00600 0.05436
 H1899 H 0.13288 0.09151 0.02249
 H1900 H 0.10349 0.07809 0.00810
 H1901 H 0.16058 0.08845 0.04443
 H1902 H 0.17391 0.03292 0.06938
 H1903 H 0.08871 -0.00126 0.03642
 H1904 H 0.07974 0.05194 0.00539
 C1905 C 0.13547 0.53959 0.53727
 C1906 C 0.14129 0.55859 0.53344
 C1907 C 0.15858 0.56551 0.54145
 C1908 C 0.17087 0.55320 0.55209
 C1909 C 0.16507 0.53385 0.55498
 C1910 C 0.14714 0.52719 0.54818
 C1911 C 0.11655 0.53274 0.53016
 C1912 C 0.10999 0.51426 0.53524
 C1913 C 0.09143 0.50829 0.52936
 C1914 C 0.07980 0.52051 0.51798
 C1915 C 0.08710 0.53863 0.51230
 C1916 C 0.10524 0.54497 0.51866
 C1917 C 0.14044 0.50852 0.55241
 C1918 C 0.12207 0.50225 0.54627
 C1919 C 0.12959 0.57036 0.52179
 C1920 C 0.11210 0.56348 0.51414
 H1921 H 0.14929 0.49880 0.56088
 H1922 H 0.11730 0.48790 0.55019
 H1923 H 0.13407 0.58495 0.51843
 H1924 H 0.10370 0.57287 0.50489
 H1925 H 0.16219 0.58057 0.53964
 H1926 H 0.17426 0.52413 0.56308
 H1927 H 0.08606 0.49423 0.53360
 H1928 H 0.07839 0.54813 0.50346
 C1929 C 0.61837 0.05821 0.55582
 C1930 C 0.61877 0.05881 0.57606
 C1931 C 0.63402 0.06838 0.58538
 C1932 C 0.64898 0.07694 0.57460
 C1933 C 0.64822 0.07634 0.55429
 C1934 C 0.63287 0.06713 0.54483
 C1935 C 0.60262 0.04784 0.54594
 C1936 C 0.60205 0.04743 0.52568
 C1937 C 0.58678 0.03782 0.51637
 C1938 C 0.57256 0.02823 0.52725
 C1939 C 0.57358 0.02855 0.54754
 C1940 C 0.58841 0.03852 0.55695
 C1941 C 0.63187 0.06643 0.52461
 C1942 C 0.61665 0.05685 0.51520
 C1943 C 0.60408 0.04957 0.58657
 C1944 C 0.58922 0.03949 0.57716
 H1945 H 0.64295 0.07335 0.51600
 H1946 H 0.61637 0.05672 0.49959
 H1947 H 0.60418 0.04995 0.60218
 H1948 H 0.57831 0.03234 0.58577
 H1949 H 0.63448 0.06892 0.60098
 H1950 H 0.65977 0.08271 0.54588
 H1951 H 0.58592 0.03778 0.50077
 H1952 H 0.56244 0.02156 0.55603
 C1953 C 0.63529 0.54718 0.03574
 C1954 C 0.64728 0.53431 0.04577
 C1955 C 0.66473 0.54106 0.05370
 C1956 C 0.66968 0.56080 0.05273
 C1957 C 0.65721 0.57347 0.04271
 C1958 C 0.64035 0.56666 0.03377
 C1959 C 0.61680 0.54027 0.02758
 C1960 C 0.60505 0.55309 0.01719
 C1961 C 0.58716 0.54668 0.01009
 C1962 C 0.58063 0.52783 0.01399
 C1963 C 0.59280 0.51503 0.02410
 C1964 C 0.61103 0.52113 0.03075
 C1965 C 0.62832 0.57899 0.02307
 C1966 C 0.61116 0.57222 0.01461
 C1967 C 0.64136 0.51505 0.04800
 C1968 C 0.62344 0.50863 0.04082
 H1969 H 0.63222 0.59400 0.02120
 H1970 H 0.60242 0.58214 0.00627
 H1971 H 0.65046 0.50496 0.05574
 H1972 H 0.61924 0.49379 0.04325
 H1973 H 0.67420 0.53105 0.06108
 H1974 H 0.66041 0.58873 0.04206
 H1975 H 0.57798 0.55665 0.00229
 H1976 H 0.58802 0.50043 0.02698
 C1977 C 0.04266 0.04421 0.13104
 C1978 C 0.04476 0.06406 0.13424
 C1979 C 0.05197 0.07046 0.15200
 C1980 C 0.05686 0.05720 0.16662
 C1981 C 0.05382 0.03737 0.16343
 C1982 C 0.04713 0.03077 0.14551
 C1983 C 0.03604 0.03736 0.11202
 C1984 C 0.03480 0.01747 0.10848
 C1985 C 0.02916 0.01104 0.09013
 C1986 C 0.02430 0.02438 0.07563
 C1987 C 0.02526 0.04425 0.07954
 C1988 C 0.03141 0.05083 0.09763
 C1989 C 0.04528 0.01099 0.14157
 C1990 C 0.03935 0.00445 0.12334
 C1991 C 0.03999 0.07710 0.11949
 C1992 C 0.03331 0.07060 0.10152
 H1993 H 0.04873 0.00047 0.15259
 H1994 H 0.03837 -0.01092 0.12083
 H1995 H 0.04151 0.09246 0.12181
 H1996 H 0.02984 0.08113 0.09051
 H1997 H 0.05427 0.08573 0.15432
 H1998 H 0.05731 0.02714 0.17472
 H1999 H 0.02837 -0.00427 0.08715
 H2000 H 0.02177 0.05456 0.06830
 C2001 C 0.04323 0.54988 0.62709
 C2002 C 0.04620 0.56982 0.62886
 C2003 C 0.05488 0.57705 0.64564
 C2004 C 0.06035 0.56454 0.66069
 C2005 C 0.05663 0.54465 0.65893
 C2006 C 0.04844 0.53720 0.64199
 C2007 C 0.03483 0.54211 0.60915
 C2008 C 0.03271 0.52209 0.60700
 C2009 C 0.02556 0.51473 0.58953
 C2010 C 0.02013 0.52731 0.57456
 C2011 C 0.02186 0.54736 0.57717
 C2012 C 0.02950 0.55483 0.59432
 C2013 C 0.04564 0.51730 0.63950
 C2014 C 0.03805 0.50986 0.62225
 C2015 C 0.04066 0.58209 0.61371
 C2016 C 0.03235 0.57473 0.59677
 H2017 H 0.04962 0.50736 0.65088
 H2018 H 0.03641 0.49441 0.62081
 H2019 H 0.04283 0.59750 0.61493
 H2020 H 0.02838 0.58467 0.58539
 H2021 H 0.05764 0.59236 0.64694
 H2022 H 0.06048 0.53502 0.67062
 H2023 H 0.02429 0.49930 0.58753
 H2024 H 0.01803 0.55708 0.56553
 C2025 C 0.55312 0.05473 0.62152
 C2026 C 0.55399 0.07495 0.62196
 C2027 C 0.56349 0.08409 0.63729
 C2028 C 0.57174 0.07316 0.65229
 C2029 C 0.57087 0.05288 0.65150
 C2030 C 0.56172 0.04358 0.63606
 C2031 C 0.54285 0.04503 0.60563
 C2032 C 0.54231 0.02479 0.60495
 C2033 C 0.53292 0.01565 0.58949
 C2034 C 0.52370 0.02670 0.57519
 C2035 C 0.52412 0.04696 0.57632
 C2036 C 0.53390 0.05620 0.59134
 C2037 C 0.56083 0.02339 0.63498
 C2038 C 0.55139 0.01414 0.61961
 C2039 C 0.54510 0.08562 0.60720
 C2040 C 0.53513 0.07639 0.59220
 H2041 H 0.56750 0.01465 0.64609
 H2042 H 0.55113 -0.00146 0.61925
 H2043 H 0.54569 0.10122 0.60733
 H2044 H 0.52831 0.08512 0.58120
 H2045 H 0.56426 0.09967 0.63777
 H2046 H 0.57701 0.04436 0.66307
 H2047 H 0.53283 0.00007 0.58852
 H2048 H 0.51746 0.05555 0.56508
 C2049 C 0.53976 0.54386 0.13023
 C2050 C 0.54190 0.56354 0.13436
 C2051 C 0.54909 0.56910 0.15238
 C2052 C 0.55381 0.55517 0.16641
 C2053 C 0.55081 0.53551 0.16230
 C2054 C 0.54418 0.52975 0.14406
 C2055 C 0.53317 0.53792 0.11092
 C2056 C 0.53193 0.51823 0.10643
 C2057 C 0.52632 0.51269 0.08778
 C2058 C 0.52150 0.52674 0.07396
 C2059 C 0.52246 0.54639 0.07882
 C2060 C 0.52858 0.55208 0.09719
 C2061 C 0.54232 0.51018 0.13920
 C2062 C 0.53644 0.50452 0.12066
 C2063 C 0.53717 0.57728 0.12024
 C2064 C 0.53048 0.57164 0.10200
 H2065 H 0.54573 0.49916 0.14973
 H2066 H 0.53545 0.48928 0.11743
 H2067 H 0.53872 0.59250 0.12329
 H2068 H 0.52703 0.58268 0.09150
 H2069 H 0.55148 0.58424 0.15536
 H2070 H 0.55427 0.52477 0.17310
 H2071 H 0.52552 0.49755 0.08405
 H2072 H 0.51900 0.55725 0.06811
 C2073 C 0.20674 0.53813 0.61497
 C2074 C 0.22014 0.53950 0.59983
 C2075 C 0.21393 0.54646 0.58187
 C2076 C 0.19458 0.55215 0.57917
 C2077 C 0.18138 0.55076 0.59453
 C2078 C 0.18736 0.54369 0.61245
 C2079 C 0.21318 0.53100 0.63393
 C2080 C 0.19975 0.52966 0.64905
 C2081 C 0.20590 0.52278 0.66701
 C2082 C 0.22537 0.51778 0.66998
 C2083 C 0.23878 0.51956 0.65486
 C2084 C 0.23268 0.52596 0.63666
 C2085 C 0.17442 0.54236 0.62799
 C2086 C 0.18054 0.53548 0.64599
 C2087 C 0.23949 0.53414 0.60304
 C2088 C 0.24567 0.52755 0.62117
 H2089 H 0.15947 0.54674 0.62624
 H2090 H 0.17022 0.53494 0.65766
 H2091 H 0.24996 0.53519 0.59148
 H2092 H 0.26074 0.52369 0.62308
 H2093 H 0.22408 0.54773 0.57004
 H2094 H 0.16657 0.55550 0.59250
 H2095 H 0.19573 0.52184 0.67884
 H2096 H 0.25383 0.51583 0.65728
 C2097 C 0.20672 0.04510 0.11959
 C2098 C 0.22000 0.04921 0.10484
 C2099 C 0.21329 0.05750 0.08764
 C2100 C 0.19350 0.06166 0.08523
 C2101 C 0.18048 0.05791 0.10036
 C2102 C 0.18698 0.04947 0.11751
 C2103 C 0.21360 0.03610 0.13757
 C2104 C 0.20027 0.03188 0.15224
 C2105 C 0.20687 0.02330 0.16930
 C2106 C 0.22664 0.01935 0.17191
 C2107 C 0.23990 0.02388 0.15719
 C2108 C 0.23340 0.03209 0.13986
 C2109 C 0.17413 0.04528 0.13262
 C2110 C 0.18069 0.03665 0.14970
 C2111 C 0.23969 0.04490 0.10759
 C2112 C 0.24629 0.03655 0.12484
 H2113 H 0.15889 0.04868 0.13122
 H2114 H 0.17037 0.03381 0.16105
 H2115 H 0.25009 0.04804 0.09634
 H2116 H 0.26159 0.03355 0.12642
 H2117 H 0.22331 0.06057 0.07602
 H2118 H 0.16530 0.06147 0.09862
 H2119 H 0.19678 0.02042 0.18085
 H2120 H 0.25519 0.02107 0.15929
 C2121 C 0.69450 0.19477 0.62007
 C2122 C 0.69225 0.17465 0.62023
 C2123 C 0.68209 0.16596 0.63543
 C2124 C 0.67447 0.17721 0.65051
 C2125 C 0.67660 0.19739 0.64988
 C2126 C 0.68653 0.20625 0.63467
 C2127 C 0.70564 0.20397 0.60445
 C2128 C 0.70772 0.22411 0.60420
 C2129 C 0.71790 0.23284 0.58905
 C2130 C 0.72618 0.22156 0.57437
 C2131 C 0.72432 0.20133 0.57511
 C2132 C 0.71388 0.19248 0.59001
 C2133 C 0.68893 0.22633 0.63394
 C2134 C 0.69928 0.23512 0.61891
 C2135 C 0.70052 0.16365 0.60540
 C2136 C 0.71122 0.17241 0.59059
 H2137 H 0.68279 0.23534 0.64510
 H2138 H 0.70072 0.25066 0.61885
 H2139 H 0.69886 0.14812 0.60531
 H2140 H 0.71752 0.16340 0.57955
 H2141 H 0.68044 0.15043 0.63583
 H2142 H 0.67100 0.20613 0.66154
 H2143 H 0.71909 0.24840 0.58848
 H2144 H 0.73026 0.19254 0.56366
 C2145 C 0.70930 0.70912 0.13655
 C2146 C 0.68930 0.70705 0.13957
 C2147 C 0.68269 0.69938 0.15704
 C2148 C 0.69589 0.69411 0.17160
 C2149 C 0.71591 0.69639 0.16837
 C2150 C 0.72271 0.70376 0.15079
 C2151 C 0.71632 0.71680 0.11801
 C2152 C 0.73633 0.71831 0.11468
 C2153 C 0.74288 0.72531 0.09683
 C2154 C 0.72952 0.73120 0.08267
 C2155 C 0.70955 0.72970 0.08633
 C2156 C 0.70286 0.72228 0.10386
 C2157 C 0.74261 0.70566 0.14704
 C2158 C 0.74931 0.71272 0.12926
 C2159 C 0.67631 0.71248 0.12497
 C2160 C 0.68299 0.72001 0.10744
 H2161 H 0.75311 0.70152 0.15789
 H2162 H 0.76477 0.71384 0.12692
 H2163 H 0.66085 0.71089 0.12710
 H2164 H 0.67252 0.72392 0.09653
 H2165 H 0.66732 0.69720 0.15924
 H2166 H 0.72609 0.69217 0.17948
 H2167 H 0.75828 0.72638 0.09401
 H2168 H 0.69926 0.73383 0.07531
 C2169 C 0.54155 0.70834 0.11782
 C2170 C 0.54315 0.68860 0.11379
 C2171 C 0.55030 0.68280 0.09586
 C2172 C 0.55554 0.69654 0.08184
 C2173 C 0.55298 0.71629 0.08581
 C2174 C 0.54641 0.72229 0.10397
 C2175 C 0.53508 0.71451 0.13708
 C2176 C 0.53437 0.73425 0.14150
 C2177 C 0.52882 0.73998 0.16010
 C2178 C 0.52353 0.72608 0.17390
 C2179 C 0.52402 0.70640 0.16911
 C2180 C 0.53005 0.70051 0.15081
 C2181 C 0.54508 0.74191 0.10875
 C2182 C 0.53930 0.74779 0.12724
 C2183 C 0.53799 0.67504 0.12791
 C2184 C 0.53141 0.68090 0.14608
 H2185 H 0.54884 0.75281 0.09822
 H2186 H 0.53872 0.76305 0.13042
 H2187 H 0.53912 0.65976 0.12492
 H2188 H 0.52761 0.66999 0.15660
 H2189 H 0.55229 0.66759 0.09297
 H2190 H 0.55682 0.72689 0.07500
 H2191 H 0.52837 0.75515 0.16377
 H2192 H 0.52018 0.69566 0.17981
 C2193 C 0.04537 0.70054 0.62491
 C2194 C 0.04579 0.68051 0.62223
 C2195 C 0.05432 0.67301 0.60553
 C2196 C 0.06218 0.68539 0.59144
 C2197 C 0.06163 0.70546 0.59442
 C2198 C 0.05336 0.71311 0.61118
 C2199 C 0.03639 0.70852 0.64243
 C2200 C 0.03625 0.72855 0.64527
 C2201 C 0.02792 0.73606 0.66207
 C2202 C 0.01948 0.72369 0.67580
 C2203 C 0.01960 0.70363 0.67263
 C2204 C 0.02819 0.69597 0.65604
 C2205 C 0.05290 0.73307 0.61450
 C2206 C 0.04456 0.74065 0.63129
 C2207 C 0.03765 0.66838 0.63629
 C2208 C 0.02896 0.67599 0.65290
 H2209 H 0.05907 0.74291 0.60404
 H2210 H 0.04457 0.75613 0.63332
 H2211 H 0.03793 0.65289 0.63441
 H2212 H 0.02283 0.66614 0.66339
 H2213 H 0.05492 0.65755 0.60347
 H2214 H 0.06756 0.71508 0.58361
 H2215 H 0.02801 0.75148 0.66449
 H2216 H 0.01354 0.69397 0.68333
 C2217 C 0.54239 0.61359 0.20859
 C2218 C 0.52893 0.59975 0.20239
 C2219 C 0.53566 0.58216 0.19506
 C2220 C 0.55569 0.57857 0.19349
 C2221 C 0.56895 0.59276 0.19958
 C2222 C 0.56239 0.61016 0.20736
 C2223 C 0.53545 0.63217 0.21619
 C2224 C 0.54896 0.64589 0.22253
 C2225 C 0.54235 0.66351 0.22973
 C2226 C 0.52244 0.66773 0.23009
 C2227 C 0.50903 0.65396 0.22341
 C2228 C 0.51548 0.63599 0.21667
 C2229 C 0.57544 0.62433 0.21369
 C2230 C 0.56882 0.64185 0.22124
 C2231 C 0.50904 0.60394 0.20338
 C2232 C 0.50244 0.62179 0.21029
 H2233 H 0.59090 0.62188 0.21280
 H2234 H 0.57934 0.65242 0.22588
 H2235 H 0.49850 0.59341 0.19859
 H2236 H 0.48700 0.62450 0.21062
 H2237 H 0.52541 0.57135 0.19022
 H2238 H 0.58435 0.59033 0.19794
 H2239 H 0.55273 0.67421 0.23449
 H2240 H 0.49368 0.65721 0.22359
 C2241 C 0.04666 0.62301 0.70280
 C2242 C 0.03411 0.60812 0.69713
 C2243 C 0.04186 0.59137 0.68898
 C2244 C 0.06197 0.58953 0.68626
 C2245 C 0.07432 0.60481 0.69159
 C2246 C 0.06675 0.62151 0.70010
 C2247 C 0.03858 0.64050 0.71173
 C2248 C 0.05114 0.65526 0.71773
 C2249 C 0.04337 0.67178 0.72637
 C2250 C 0.02319 0.67375 0.72856
 C2251 C 0.01080 0.65893 0.72225
 C2252 C 0.01845 0.64215 0.71403
 C2253 C 0.07884 0.63671 0.70602
 C2254 C 0.07117 0.65328 0.71476
 C2255 C 0.01407 0.61026 0.69975
 C2256 C 0.00636 0.62704 0.70796
 H2257 H 0.09436 0.63576 0.70399
 H2258 H 0.08099 0.66464 0.71917
 H2259 H 0.00425 0.59889 0.69536
 H2260 H -0.00919 0.62815 0.70964
 H2261 H 0.03233 0.57968 0.68481
 H2262 H 0.08977 0.60356 0.68920
 H2263 H 0.05294 0.68336 0.73080
 H2264 H -0.00474 0.66048 0.72380
 C2265 C 0.04643 0.13219 0.04381
 C2266 C 0.06623 0.13449 0.04790
 C2267 C 0.07279 0.15198 0.05554
 C2268 C 0.05976 0.16715 0.05890
 C2269 C 0.03995 0.16461 0.05479
 C2270 C 0.03318 0.14710 0.04728
 C2271 C 0.03943 0.11374 0.03593
 C2272 C 0.01958 0.11123 0.03224
 C2273 C 0.01300 0.09350 0.02498
 C2274 C 0.02626 0.07865 0.02104
 C2275 C 0.04606 0.08144 0.02481
 C2276 C 0.05272 0.09888 0.03245
 C2277 C 0.01344 0.14412 0.04330
 C2278 C 0.00675 0.12646 0.03597
 C2279 C 0.07902 0.11918 0.04445
 C2280 C 0.07236 0.10167 0.03688
 H2281 H 0.00307 0.15550 0.04596
 H2282 H -0.00860 0.12473 0.03319
 H2283 H 0.09430 0.12074 0.04767
 H2284 H 0.08263 0.09017 0.03462
 H2285 H 0.08797 0.15380 0.05911
 H2286 H 0.02991 0.17626 0.05758
 H2287 H -0.00230 0.09129 0.02223
 H2288 H 0.05616 0.06981 0.02232
 C2289 C 0.04757 0.62868 0.54562
 C2290 C 0.06767 0.63035 0.54809
 C2291 C 0.07513 0.64620 0.55806
 C2292 C 0.06272 0.66062 0.56512
 C2293 C 0.04255 0.65865 0.56269
 C2294 C 0.03488 0.64259 0.55305
 C2295 C 0.03968 0.61197 0.53512
 C2296 C 0.01955 0.60988 0.53317
 C2297 C 0.01214 0.59346 0.52391
 C2298 C 0.02479 0.57948 0.51634
 C2299 C 0.04492 0.58219 0.51788
 C2300 C 0.05243 0.59822 0.52754
 C2301 C 0.01482 0.64016 0.55058
 C2302 C 0.00728 0.62401 0.54093
 C2303 C 0.07995 0.61621 0.54045
 C2304 C 0.07244 0.60044 0.53031
 H2305 H 0.00486 0.65077 0.55627
 H2306 H -0.00828 0.62258 0.53954
 H2307 H 0.09549 0.61735 0.54230
 H2308 H 0.08235 0.58978 0.52479
 H2309 H 0.09063 0.64753 0.56012
 H2310 H 0.03296 0.66975 0.56805
 H2311 H -0.00338 0.59135 0.52294
 H2312 H 0.05471 0.57129 0.51252
 C2313 C 0.55205 0.12223 0.55548
 C2314 C 0.54075 0.13631 0.56456
 C2315 C 0.54996 0.15191 0.57356
 C2316 C 0.57036 0.15331 0.57388
 C2317 C 0.58144 0.13875 0.56508
 C2318 C 0.57237 0.12330 0.55569
 C2319 C 0.54241 0.10617 0.54539
 C2320 C 0.55373 0.09240 0.53589
 C2321 C 0.54456 0.07727 0.52618
 C2322 C 0.52422 0.07549 0.52633
 C2323 C 0.51304 0.08929 0.53612
 C2324 C 0.52209 0.10487 0.54545
 C2325 C 0.58319 0.10902 0.54628
 C2326 C 0.57402 0.09391 0.53643
 C2327 C 0.52047 0.13460 0.56430
 C2328 C 0.51130 0.11907 0.55502
 H2329 H 0.59887 0.10964 0.54634
 H2330 H 0.58287 0.08335 0.52914
 H2331 H 0.51159 0.14533 0.57134
 H2332 H 0.49564 0.11825 0.55524
 H2333 H 0.54127 0.16313 0.58006
 H2334 H 0.59711 0.13963 0.56538
 H2335 H 0.55332 0.06649 0.51904
 H2336 H 0.49741 0.08788 0.53646
 C2337 C 0.54346 0.63817 0.03979
 C2338 C 0.53028 0.65274 0.04464
 C2339 C 0.53732 0.67017 0.05216
 C2340 C 0.55734 0.67288 0.05509
 C2341 C 0.57028 0.65796 0.05041
 C2342 C 0.56345 0.64067 0.04256
 C2343 C 0.53619 0.61980 0.03194
 C2344 C 0.54943 0.60533 0.02699
 C2345 C 0.54253 0.58793 0.01948
 C2346 C 0.52253 0.58471 0.01743
 C2347 C 0.50934 0.59918 0.02278
 C2348 C 0.51615 0.61694 0.02981
 C2349 C 0.57621 0.62575 0.03766
 C2350 C 0.56931 0.60839 0.02996
 C2351 C 0.51035 0.64948 0.04209
 C2352 C 0.50340 0.63184 0.03490
 H2353 H 0.59166 0.62749 0.03981
 H2354 H 0.57958 0.59719 0.02652
 H2355 H 0.50002 0.66058 0.04583
 H2356 H 0.48791 0.62986 0.03331
 H2357 H 0.52733 0.68155 0.05599
 H2358 H 0.58562 0.65978 0.05314
 H2359 H 0.55266 0.57663 0.01582
 H2360 H 0.49392 0.59664 0.02135
 C2361 C 0.69170 0.13257 0.55518
 C2362 C 0.70333 0.11773 0.56259
 C2363 C 0.69462 0.10265 0.57281
 C2364 C 0.67445 0.10238 0.57570
 C2365 C 0.66309 0.11773 0.56877
 C2366 C 0.67162 0.13281 0.55834
 C2367 C 0.70069 0.14799 0.54364
 C2368 C 0.68904 0.16268 0.53598
 C2369 C 0.69772 0.17743 0.52523
 C2370 C 0.71793 0.17776 0.52252
 C2371 C 0.72937 0.16283 0.53016
 C2372 C 0.72080 0.14783 0.54064
 C2373 C 0.66046 0.14788 0.55063
 C2374 C 0.66902 0.16252 0.53958
 C2375 C 0.72338 0.11805 0.55927
 C2376 C 0.73199 0.13290 0.54855
 H2377 H 0.64495 0.14825 0.55299
 H2378 H 0.65990 0.17378 0.53375
 H2379 H 0.73250 0.10669 0.56497
 H2380 H 0.74752 0.13267 0.54640
 H2381 H 0.70339 0.09077 0.57793
 H2382 H 0.64756 0.11755 0.57103
 H2383 H 0.68887 0.18911 0.51978
 H2384 H 0.74495 0.16313 0.52830
 C2385 C 0.71037 0.62174 0.04445
 C2386 C 0.70814 0.61794 0.06420
 C2387 C 0.70072 0.60008 0.07002
 C2388 C 0.69583 0.58592 0.05630
 C2389 C 0.69893 0.58971 0.03658
 C2390 C 0.70580 0.60777 0.03055
 C2391 C 0.71726 0.64087 0.03822
 C2392 C 0.71864 0.64501 0.01844
 C2393 C 0.72463 0.66345 0.01261
 C2394 C 0.72971 0.67739 0.02643
 C2395 C 0.72857 0.67289 0.04617
 C2396 C 0.72207 0.65473 0.05216
 C2397 C 0.70777 0.61230 0.01091
 C2398 C 0.71395 0.63065 0.00496
 C2399 C 0.71305 0.63219 0.07771
 C2400 C 0.72003 0.65024 0.07180
 H2401 H 0.70424 0.60166 0.00004
 H2402 H 0.71503 0.63363 -0.01033
 H2403 H 0.71144 0.62939 0.09299
 H2404 H 0.72363 0.66086 0.08267
 H2405 H 0.69830 0.59731 0.08520
 H2406 H 0.69538 0.57880 0.02600
 H2407 H 0.72558 0.66690 -0.00260
 H2408 H 0.73226 0.68371 0.05683
 C2409 C 0.19506 0.62111 0.69791
 C2410 C 0.20695 0.63515 0.68943
 C2411 C 0.19847 0.65173 0.68157
 C2412 C 0.17821 0.65423 0.68189
 C2413 C 0.16649 0.63977 0.69016
 C2414 C 0.17485 0.62328 0.69836
 C2415 C 0.20395 0.60379 0.70649
 C2416 C 0.19207 0.58988 0.71523
 C2417 C 0.20060 0.57351 0.72344
 C2418 C 0.22081 0.57079 0.72258
 C2419 C 0.23249 0.58477 0.71358
 C2420 C 0.22413 0.60142 0.70568
 C2421 C 0.16343 0.60892 0.70704
 C2422 C 0.17190 0.59253 0.71539
 C2423 C 0.22709 0.63236 0.68903
 C2424 C 0.23553 0.61573 0.69693
 H2425 H 0.14782 0.61040 0.70745
 H2426 H 0.16258 0.58182 0.72197
 H2427 H 0.23642 0.64308 0.68248
 H2428 H 0.25111 0.61410 0.69622
 H2429 H 0.20761 0.66279 0.67533
 H2430 H 0.15090 0.64143 0.69022
 H2431 H 0.19147 0.56261 0.73001
 H2432 H 0.24802 0.58270 0.71282
 C2433 C 0.20972 0.12878 0.20408
 C2434 C 0.20652 0.13153 0.18429
 C2435 C 0.19842 0.14890 0.17793
 C2436 C 0.19376 0.16359 0.19113
 C2437 C 0.19772 0.16085 0.21086
 C2438 C 0.20534 0.14330 0.21747
 C2439 C 0.21750 0.11022 0.21093
 C2440 C 0.21989 0.10713 0.23079
 C2441 C 0.22651 0.08915 0.23727
 C2442 C 0.23118 0.07459 0.22398
 C2443 C 0.22918 0.07808 0.20410
 C2444 C 0.22205 0.09579 0.19750
 C2445 C 0.20836 0.13983 0.23719
 C2446 C 0.21537 0.12200 0.24376
 C2447 C 0.21124 0.11676 0.17129
 C2448 C 0.21897 0.09922 0.17778
 H2449 H 0.20501 0.15088 0.24767
 H2450 H 0.21722 0.11982 0.25911
 H2451 H 0.20886 0.11875 0.15598
 H2452 H 0.22234 0.08817 0.16729
 H2453 H 0.19545 0.15092 0.16272
 H2454 H 0.19445 0.17223 0.22102
 H2455 H 0.22806 0.08646 0.25259
 H2456 H 0.23248 0.06675 0.19387
 C2457 C 0.69341 1.12176 0.69605
 C2458 C 0.70470 1.13634 0.68768
 C2459 C 0.69551 1.15132 0.67770
 C2460 C 0.67519 1.15170 0.67593
 C2461 C 0.66413 1.13659 0.68387
 C2462 C 0.67316 1.12165 0.69409
 C2463 C 0.70296 1.10645 0.70730
 C2464 C 0.69163 1.09207 0.71597
 C2465 C 0.70078 1.07755 0.72661
 C2466 C 0.72114 1.07703 0.72818
 C2467 C 0.73229 1.09153 0.71935
 C2468 C 0.72324 1.10641 0.70905
 C2469 C 0.66234 1.10680 0.70270
 C2470 C 0.67143 1.09228 0.71350
 C2471 C 0.72494 1.13585 0.68974
 C2472 C 0.73406 1.12107 0.70015
 H2473 H 0.64672 1.10649 0.70122
 H2474 H 0.66257 1.08114 0.71997
 H2475 H 0.73380 1.14699 0.68327
 H2476 H 0.74970 1.12117 0.70132
 H2477 H 0.70410 1.16298 0.67179
 H2478 H 0.64850 1.13680 0.68243
 H2479 H 0.69211 1.06609 0.73284
 H2480 H 0.74795 1.09099 0.72023
 C2481 C 0.71087 0.63114 0.20751
 C2482 C 0.70934 0.63513 0.18773
 C2483 C 0.70267 0.65321 0.18179
 C2484 C 0.69781 0.66740 0.19545
 C2485 C 0.70034 0.66346 0.21523
 C2486 C 0.70643 0.64518 0.22136
 C2487 C 0.71678 0.61175 0.21382
 C2488 C 0.71742 0.60741 0.23361
 C2489 C 0.72253 0.58872 0.23948
 C2490 C 0.72749 0.57476 0.22568
 C2491 C 0.72700 0.57944 0.20595
 C2492 C 0.72139 0.59783 0.19992
 C2493 C 0.70765 0.64046 0.24102
 C2494 C 0.71292 0.62185 0.24704
 C2495 C 0.71406 0.62081 0.17426
 C2496 C 0.72013 0.60249 0.18026
 H2497 H 0.70421 0.65115 0.25185
 H2498 H 0.71345 0.61874 0.26234
 H2499 H 0.71298 0.62375 0.15896
 H2500 H 0.72362 0.59182 0.16943
 H2501 H 0.70067 0.65607 0.16657
 H2502 H 0.69676 0.67439 0.22577
 H2503 H 0.72300 0.58512 0.25468
 H2504 H 0.73060 0.56860 0.19529
 C2505 C 0.55309 0.12943 0.69700
 C2506 C 0.54167 0.11492 0.68865
 C2507 C 0.55075 0.09973 0.67897
 C2508 C 0.57109 0.09910 0.67739
 C2509 C 0.58226 0.11412 0.68532
 C2510 C 0.57336 0.12924 0.69530
 C2511 C 0.54366 0.14496 0.70796
 C2512 C 0.55513 0.15919 0.71669
 C2513 C 0.54613 0.17385 0.72717
 C2514 C 0.52578 0.17467 0.72855
 C2515 C 0.51446 0.16039 0.71959
 C2516 C 0.52337 0.14533 0.70945
 C2517 C 0.58431 0.14398 0.70390
 C2518 C 0.57535 0.15868 0.71448
 C2519 C 0.52142 0.11574 0.69044
 C2520 C 0.51242 0.13076 0.70055
 H2521 H 0.59995 0.14405 0.70262
 H2522 H 0.58431 0.16971 0.72101
 H2523 H 0.51246 0.10467 0.68398
 H2524 H 0.49677 0.13090 0.70153
 H2525 H 0.54206 0.08812 0.67308
 H2526 H 0.59790 0.11375 0.68404
 H2527 H 0.55494 0.18514 0.73350
 H2528 H 0.49880 0.16115 0.72032
 C2529 C 1.04498 0.11571 0.20939
 C2530 C 1.03173 0.10118 0.20441
 C2531 C 1.03862 0.08406 0.19616
 C2532 C 1.05856 0.08159 0.19276
 C2533 C 1.07154 0.09656 0.19733
 C2534 C 1.06488 0.11353 0.20589
 C2535 C 1.03789 0.13365 0.21825
 C2536 C 1.05120 0.14808 0.22334
 C2537 C 1.04442 0.16518 0.23157
 C2538 C 1.02445 0.16817 0.23415
 C2539 C 1.01124 0.15361 0.22891
 C2540 C 1.01793 0.13618 0.22113
 C2541 C 1.07771 0.12837 0.21102
 C2542 C 1.07098 0.14533 0.21964
 C2543 C 1.01188 0.10411 0.20775
 C2544 C 1.00509 0.12136 0.21586
 H2545 H 1.09309 0.12686 0.20835
 H2546 H 1.08131 0.15648 0.22322
 H2547 H 1.00150 0.09303 0.20393
 H2548 H 0.98966 0.12311 0.21801
 H2549 H 1.02861 0.07261 0.19245
 H2550 H 1.08683 0.09485 0.19429
 H2551 H 1.05458 0.17653 0.23513
 H2552 H 0.99584 0.15595 0.23071
 C2553 C 0.21533 0.61216 0.54152
 C2554 C 0.21564 0.60760 0.56120
 C2555 C 0.20690 0.59052 0.56747
 C2556 C 0.19848 0.57754 0.55419
 C2557 C 0.19964 0.58175 0.53432
 C2558 C 0.20735 0.59939 0.52798
 C2559 C 0.22293 0.63095 0.53507
 C2560 C 0.22117 0.63623 0.51562
 C2561 C 0.22698 0.65475 0.50988
 C2562 C 0.23498 0.66770 0.52337
 C2563 C 0.23769 0.66169 0.54257
 C2564 C 0.23123 0.64352 0.54861
 C2565 C 0.20668 0.60482 0.50847
 C2566 C 0.21324 0.62303 0.50243
 C2567 C 0.22429 0.62043 0.57429
 C2568 C 0.23227 0.63794 0.56804
 H2569 H 0.20053 0.59513 0.49786
 H2570 H 0.21195 0.62685 0.48735
 H2571 H 0.22479 0.61697 0.58951
 H2572 H 0.23872 0.64748 0.57861
 H2573 H 0.20629 0.58757 0.58279
 H2574 H 0.19382 0.57167 0.52390
 H2575 H 0.22512 0.65915 0.49500
 H2576 H 0.24400 0.67146 0.55301
 C2577 C 0.21032 0.12265 1.04716
 C2578 C 0.20587 0.10804 1.03388
 C2579 C 0.19888 0.09030 1.04067
 C2580 C 0.19553 0.08745 1.06050
 C2581 C 0.20037 0.10219 1.07360
 C2582 C 0.20787 0.11976 1.06704
 C2583 C 0.21733 0.14144 1.04011
 C2584 C 0.22197 0.15595 1.05344
 C2585 C 0.22857 0.17379 1.04669
 C2586 C 0.22998 0.17736 1.02677
 C2587 C 0.22504 0.16281 1.01355
 C2588 C 0.21896 0.14466 1.02018
 C2589 C 0.21262 0.13464 1.07992
 C2590 C 0.21967 0.15240 1.07324
 C2591 C 0.20810 0.11164 1.01407
 C2592 C 0.21439 0.12969 1.00733
 H2593 H 0.21081 0.13257 1.09529
 H2594 H 0.22313 0.16352 1.08365
 H2595 H 0.20467 0.10052 1.00367
 H2596 H 0.21567 0.13194 0.99194
 H2597 H 0.19546 0.07889 1.03057
 H2598 H 0.19784 0.10011 1.08887
 H2599 H 0.23210 0.18511 1.05688
 H2600 H 0.22615 0.16557 0.99821
 C2601 C 0.19475 0.69754 0.62457
 C2602 C 0.19057 0.67772 0.62438
 C2603 C 0.18223 0.66921 0.64069
 C2604 C 0.17803 0.68037 0.65704
 C2605 C 0.18203 0.70028 0.65691
 C2606 C 0.19044 0.70895 0.64069
 C2607 C 0.20400 0.70648 0.60764
 C2608 C 0.20823 0.72630 0.60777
 C2609 C 0.21724 0.73464 0.59163
 C2610 C 0.22236 0.72310 0.57581
 C2611 C 0.21773 0.70337 0.57583
 C2612 C 0.20845 0.69499 0.59164
 C2613 C 0.19473 0.72875 0.64027
 C2614 C 0.20344 0.73728 0.62407
 C2615 C 0.19484 0.66683 0.60789
 C2616 C 0.20353 0.67536 0.59175
 H2617 H 0.19141 0.73771 0.65259
 H2618 H 0.20657 0.75258 0.62437
 H2619 H 0.19149 0.65158 0.60748
 H2620 H 0.20644 0.66654 0.57926
 H2621 H 0.17893 0.65394 0.64076
 H2622 H 0.17878 0.70885 0.66953
 H2623 H 0.22050 0.74992 0.59144
 H2624 H 0.22095 0.69470 0.56328
 C2625 C 0.20645 0.20493 1.13226
 C2626 C 0.18665 0.20053 1.13383
 C2627 C 0.17964 0.19267 1.15105
 C2628 C 0.19222 0.18947 1.16668
 C2629 C 0.21206 0.19370 1.16480
 C2630 C 0.21928 0.20144 1.14757
 C2631 C 0.21387 0.21333 1.11421
 C2632 C 0.23372 0.21746 1.11247
 C2633 C 0.24067 0.22540 1.09518
 C2634 C 0.22777 0.22959 1.08006
 C2635 C 0.20799 0.22529 1.08203
 C2636 C 0.20097 0.21698 1.09901
 C2637 C 0.23904 0.20576 1.14532
 C2638 C 0.24615 0.21357 1.12804
 C2639 C 0.17427 0.20407 1.11816
 C2640 C 0.18134 0.21214 1.10102
 H2641 H 0.24909 0.20307 1.15702
 H2642 H 0.26148 0.21668 1.12689
 H2643 H 0.15900 0.20062 1.11916
 H2644 H 0.17137 0.21454 1.08923
 H2645 H 0.16444 0.18900 1.15240
 H2646 H 0.22174 0.19099 1.17681
 H2647 H 0.25597 0.22851 1.09353
 H2648 H 0.19821 0.22795 1.07013
 C2649 C 0.70767 0.54302 0.11443
 C2650 C 0.72097 0.54921 0.10045
 C2651 C 0.71402 0.55699 0.08309
 C2652 C 0.69395 0.55895 0.07986
 C2653 C 0.68087 0.55296 0.09423
 C2654 C 0.68764 0.54475 0.11141
 C2655 C 0.71485 0.53482 0.13271
 C2656 C 0.70151 0.52845 0.14655
 C2657 C 0.70834 0.52063 0.16386
 C2658 C 0.72833 0.51970 0.16767
 C2659 C 0.74158 0.52644 0.15381
 C2660 C 0.73489 0.53377 0.13612
 C2661 C 0.67476 0.53842 0.12572
 C2662 C 0.68160 0.53034 0.14296
 C2663 C 0.74091 0.54769 0.10424
 C2664 C 0.74775 0.54022 0.12181
 H2665 H 0.65927 0.53972 0.12359
 H2666 H 0.67121 0.52573 0.15365
 H2667 H 0.75133 0.55247 0.09359
 H2668 H 0.76324 0.53947 0.12421
 H2669 H 0.72413 0.56175 0.07215
 H2670 H 0.66546 0.55489 0.09207
 H2671 H 0.69810 0.51586 0.17469
 H2672 H 0.75698 0.52586 0.15678
 C2673 C 0.69496 1.05784 0.63012
 C2674 C 0.69329 1.07801 0.63015
 C2675 C 0.68289 1.08708 0.61535
 C2676 C 0.67447 1.07616 0.60041
 C2677 C 0.67606 1.05591 0.60082
 C2678 C 0.68618 1.04668 0.61570
 C2679 C 0.70634 1.04824 0.64534
 C2680 C 0.70777 1.02804 0.64549
 C2681 C 0.71819 1.01896 0.66031
 C2682 C 0.72745 1.02999 0.67462
 C2683 C 0.72619 1.05027 0.67396
 C2684 C 0.71544 1.05945 0.65951
 C2685 C 0.68796 1.02652 0.61628
 C2686 C 0.69846 1.01735 0.63100
 C2687 C 0.70235 1.08871 0.64481
 C2688 C 0.71330 1.07958 0.65920
 H2689 H 0.68117 1.01775 0.60527
 H2690 H 0.69939 1.00178 0.63097
 H2691 H 0.70110 1.10427 0.64506
 H2692 H 0.72015 1.08835 0.67017
 H2693 H 0.68164 1.10264 0.61515
 H2694 H 0.66985 1.04740 0.58928
 H2695 H 0.71882 1.00337 0.66093
 H2696 H 0.73275 1.05888 0.68525
 C2697 C 0.55189 0.19691 0.62980
 C2698 C 0.55996 0.20828 0.61513
 C2699 C 0.56950 0.19925 0.59981
 C2700 C 0.57117 0.17902 0.59920
 C2701 C 0.56359 0.16790 0.61441
 C2702 C 0.55374 0.17676 0.62966
 C2703 C 0.54106 0.20629 0.64547
 C2704 C 0.53260 0.19488 0.65988
 C2705 C 0.52225 0.20383 0.67467
 C2706 C 0.52077 0.22407 0.67543
 C2707 C 0.52948 0.23534 0.66098
 C2708 C 0.53945 0.22647 0.64579
 C2709 C 0.54541 0.16586 0.64458
 C2710 C 0.53496 0.17478 0.65941
 C2711 C 0.55806 0.22841 0.61591
 C2712 C 0.54809 0.23737 0.63105
 H2713 H 0.54682 0.15032 0.64470
 H2714 H 0.52865 0.16586 0.67059
 H2715 H 0.56432 0.23732 0.60470
 H2716 H 0.54703 0.25294 0.63116
 H2717 H 0.57520 0.20789 0.58810
 H2718 H 0.56502 0.15236 0.61408
 H2719 H 0.51614 0.19508 0.68611
 H2720 H 0.52868 0.25091 0.66173
 C2721 C 1.04053 0.20389 0.11958
 C2722 C 1.04574 0.21752 0.10553
 C2723 C 1.05366 0.21117 0.08804
 C2724 C 1.05710 0.19141 0.08493
 C2725 C 1.05157 0.17797 0.09915
 C2726 C 1.04316 0.18411 0.11642
 C2727 C 1.03262 0.21048 0.13816
 C2728 C 1.02740 0.19682 0.15218
 C2729 C 1.02040 0.20316 0.17002
 C2730 C 1.01923 0.22298 0.17406
 C2731 C 1.02442 0.23650 0.15983
 C2732 C 1.03094 0.23031 0.14174
 C2733 C 1.03766 0.17087 0.13074
 C2734 C 1.02981 0.17712 0.14828
 C2735 C 1.04331 0.23723 0.10943
 C2736 C 1.03617 0.24352 0.12729
 H2737 H 1.03957 0.15556 0.12842
 H2738 H 1.02589 0.16645 0.15901
 H2739 H 1.04729 0.24789 0.09873
 H2740 H 1.03486 0.25885 0.12985
 H2741 H 1.05762 0.22153 0.07704
 H2742 H 1.05418 0.16275 0.09689
 H2743 H 1.01671 0.19272 0.18106
 H2744 H 1.02351 0.25178 0.16293
 C2745 C 0.61942 0.19672 0.69531
 C2746 C 0.61942 0.19542 0.67510
 C2747 C 0.63442 0.18543 0.66588
 C2748 C 0.64951 0.17708 0.67671
 C2749 C 0.64909 0.17835 0.69699
 C2750 C 0.63402 0.18802 0.70636
 C2751 C 0.60396 0.20758 0.70509
 C2752 C 0.60377 0.20861 0.72532
 C2753 C 0.58874 0.21857 0.73457
 C2754 C 0.57430 0.22783 0.72365
 C2755 C 0.57496 0.22693 0.70336
 C2756 C 0.58959 0.21661 0.69401
 C2757 C 0.63339 0.18939 0.72655
 C2758 C 0.61845 0.19940 0.73588
 C2759 C 0.60456 0.20437 0.66454
 C2760 C 0.58993 0.21484 0.67383
 H2761 H 0.64454 0.18265 0.73523
 H2762 H 0.61845 0.20001 0.75148
 H2763 H 0.60432 0.20340 0.64895
 H2764 H 0.57880 0.22161 0.66516
 H2765 H 0.63460 0.18440 0.65030
 H2766 H 0.66073 0.17216 0.70544
 H2767 H 0.58810 0.21892 0.75017
 H2768 H 0.56355 0.23349 0.69484
 C2769 C 1.13382 0.20474 0.20956
 C2770 C 1.13928 0.18578 0.21401
 C2771 C 1.15597 0.17804 0.20557
 C2772 C 1.16791 0.18941 0.19356
 C2773 C 1.16253 0.20878 0.19005
 C2774 C 1.14524 0.21628 0.19750
 C2775 C 1.11556 0.21248 0.21734
 C2776 C 1.10935 0.23095 0.21184
 C2777 C 1.09135 0.23775 0.21840
 C2778 C 1.07991 0.22634 0.23078
 C2779 C 1.08690 0.20822 0.23681
 C2780 C 1.10447 0.20107 0.22985
 C2781 C 1.13893 0.23498 0.19284
 C2782 C 1.12118 0.24210 0.19970
 C2783 C 1.12783 0.17486 0.22667
 C2784 C 1.11092 0.18252 0.23475
 H2785 H 1.14759 0.24404 0.18349
 H2786 H 1.11668 0.25642 0.19542
 H2787 H 1.13201 0.16029 0.23042
 H2788 H 1.10260 0.17370 0.24462
 H2789 H 1.15940 0.16306 0.20819
 H2790 H 1.17155 0.21791 0.18113
 H2791 H 1.08621 0.25177 0.21381
 H2792 H 1.07833 0.19930 0.24637
 C2793 C 0.12260 0.69986 0.54989
 C2794 C 0.10743 0.69415 0.53769
 C2795 C 0.09009 0.68758 0.54582
 C2796 C 0.08803 0.68618 0.56598
 C2797 C 0.10337 0.69206 0.57801
 C2798 C 0.12067 0.69902 0.57003
 C2799 C 0.14091 0.70671 0.54140
 C2800 C 0.15591 0.71276 0.55363
 C2801 C 0.17306 0.71972 0.54551
 C2802 C 0.17548 0.72022 0.52537
 C2803 C 0.16057 0.71360 0.51326
 C2804 C 0.14305 0.70709 0.52125
 C2805 C 0.13616 0.70492 0.58178
 C2806 C 0.15347 0.71178 0.57371
 C2807 C 0.11002 0.69486 0.51761
 C2808 C 0.12757 0.70113 0.50953
 H2809 H 0.13488 0.70429 0.59732
 H2810 H 0.16504 0.71629 0.58326
 H2811 H 0.09843 0.69042 0.50806
 H2812 H 0.12899 0.70139 0.49399
 H2813 H 0.07829 0.68314 0.53651
 H2814 H 0.10195 0.69079 0.59351
 H2815 H 0.18465 0.72463 0.55487
 H2816 H 0.16244 0.71402 0.49776
 C2817 C 0.11817 0.21080 1.04600
 C2818 C 0.10656 0.19976 1.03362
 C2819 C 0.08914 0.19203 1.04056
 C2820 C 0.08373 0.19434 1.06006
 C2821 C 0.09582 0.20535 1.07228
 C2822 C 0.11274 0.21398 1.06521
 C2823 C 0.13660 0.21882 1.03885
 C2824 C 0.14796 0.23027 1.05111
 C2825 C 0.16566 0.23750 1.04441
 C2826 C 0.17248 0.23266 1.02589
 C2827 C 0.16076 0.22135 1.01368
 C2828 C 0.14268 0.21459 1.02003
 C2829 C 0.12447 0.22557 1.07704
 C2830 C 0.14161 0.23385 1.07000
 C2831 C 0.11280 0.19636 1.01466
 C2832 C 0.13065 0.20347 1.00804
 H2833 H 0.12037 0.22828 1.09185
 H2834 H 0.15021 0.24274 1.07957
 H2835 H 0.10399 0.18782 1.00496
 H2836 H 0.13509 0.20020 0.99344
 H2837 H 0.07999 0.18383 1.03088
 H2838 H 0.09229 0.20699 1.08738
 H2839 H 0.17440 0.24637 1.05388
 H2840 H 0.16572 0.21775 0.99932
 C2841 C 0.61426 0.53479 0.20532
 C2842 C 0.60195 0.54426 0.21828
 C2843 C 0.58444 0.55198 0.21151
 C2844 C 0.57971 0.55135 0.19170
 C2845 C 0.59244 0.54181 0.17896
 C2846 C 0.60941 0.53312 0.18576
 C2847 C 0.63287 0.52699 0.21223
 C2848 C 0.64501 0.51725 0.19930
 C2849 C 0.66305 0.51057 0.20570
 C2850 C 0.66930 0.51421 0.22470
 C2851 C 0.65674 0.52363 0.23761
 C2852 C 0.63841 0.52988 0.23149
 C2853 C 0.62180 0.52304 0.17332
 C2854 C 0.63913 0.51493 0.18006
 C2855 C 0.60763 0.54621 0.23764
 C2856 C 0.62564 0.53933 0.24408
 H2857 H 0.61807 0.52139 0.15823
 H2858 H 0.64816 0.50708 0.17005
 H2859 H 0.59828 0.55350 0.24779
 H2860 H 0.62966 0.54154 0.25901
 H2861 H 0.57476 0.55902 0.22154
 H2862 H 0.58939 0.54144 0.16366
 H2863 H 0.67256 0.50333 0.19565
 H2864 H 0.66132 0.52630 0.25232
 C2865 C 0.62762 1.05442 0.69575
 C2866 C 0.62761 1.05667 0.67563
 C2867 C 0.61239 1.06671 0.66683
 C2868 C 0.59710 1.07412 0.67797
 C2869 C 0.59758 1.07207 0.69817
 C2870 C 0.61286 1.06232 0.70714
 C2871 C 0.64323 1.04336 0.70506
 C2872 C 0.64341 1.04134 0.72521
 C2873 C 0.65858 1.03120 0.73403
 C2874 C 0.67320 1.02280 0.72275
 C2875 C 0.67255 1.02462 0.70253
 C2876 C 0.65775 1.03511 0.69362
 C2877 C 0.61349 1.05999 0.72725
 C2878 C 0.62858 1.04979 0.73615
 C2879 C 0.64261 1.04852 0.66471
 C2880 C 0.65741 1.03786 0.67355
 H2881 H 0.60221 1.06610 0.73618
 H2882 H 0.62859 1.04840 0.75170
 H2883 H 0.64282 1.05023 0.64918
 H2884 H 0.66865 1.03170 0.66462
 H2885 H 0.61210 1.06838 0.65130
 H2886 H 0.58577 1.07760 0.70679
 H2887 H 0.65923 1.03013 0.74960
 H2888 H 0.68411 1.01873 0.69378
 C2889 C 0.86993 0.44267 0.30314
 C2890 C 0.87019 0.44160 0.32336
 C2891 C 0.88542 0.43192 0.33256
 C2892 C 0.90050 0.42369 0.32171
 C2893 C 0.89983 0.42471 0.30142
 C2894 C 0.88451 0.43406 0.29207
 C2895 C 0.85420 0.45320 0.29339
 C2896 C 0.85375 0.45403 0.27315
 C2897 C 0.83844 0.46363 0.26394
 C2898 C 0.82398 0.47274 0.27489
 C2899 C 0.82493 0.47212 0.29517
 C2900 C 0.83985 0.46215 0.30449
 C2901 C 0.88364 0.43523 0.27187
 C2902 C 0.86845 0.44495 0.26256
 C2903 C 0.85540 0.45051 0.33397
 C2904 C 0.84055 0.46072 0.32468
 H2905 H 0.89478 0.42857 0.26317
 H2906 H 0.86825 0.44541 0.24696
 H2907 H 0.85541 0.44977 0.34957
 H2908 H 0.82955 0.46757 0.33338
 H2909 H 0.88581 0.43106 0.34816
 H2910 H 0.91147 0.41860 0.29297
 H2911 H 0.83764 0.46387 0.24834
 H2912 H 0.81361 0.47873 0.30370
 C2913 C 0.88041 0.95907 0.79732
 C2914 C 0.88341 0.95673 0.81720
 C2915 C 0.90069 0.94834 0.82368
 C2916 C 0.91505 0.94268 0.81043
 C2917 C 0.91181 0.94523 0.79057
 C2918 C 0.89445 0.95327 0.78392
 C2919 C 0.86210 0.96750 0.79038
 C2920 C 0.85887 0.96921 0.77048
 C2921 C 0.84118 0.97656 0.76393
 C2922 C 0.82689 0.98243 0.77711
 C2923 C 0.83051 0.98106 0.79704
 C2924 C 0.84804 0.97335 0.80377
 C2925 C 0.89080 0.95551 0.76413
 C2926 C 0.87326 0.96326 0.75752
 C2927 C 0.86901 0.96274 0.83016
 C2928 C 0.85166 0.97098 0.82356
 H2929 H 0.90152 0.95106 0.75366
 H2930 H 0.87092 0.96455 0.74213
 H2931 H 0.87117 0.96103 0.84554
 H2932 H 0.84090 0.97535 0.83403
 H2933 H 0.90302 0.94611 0.83896
 H2934 H 0.92281 0.94084 0.78037
 H2935 H 0.83843 0.97758 0.74857
 H2936 H 0.81941 0.98526 0.80724
 C2937 C 0.36381 0.28624 0.79474
 C2938 C 0.35112 0.29508 0.78164
 C2939 C 0.33347 0.30244 0.78833
 C2940 C 0.32895 0.30213 0.80817
 C2941 C 0.34196 0.29312 0.82106
 C2942 C 0.35916 0.28479 0.81436
 C2943 C 0.38262 0.27892 0.78789
 C2944 C 0.39516 0.26979 0.80094
 C2945 C 0.41332 0.26348 0.79452
 C2946 C 0.41928 0.26701 0.77542
 C2947 C 0.40633 0.27586 0.76243
 C2948 C 0.38789 0.28165 0.76856
 C2949 C 0.37198 0.27535 0.82694
 C2950 C 0.38952 0.26767 0.82027
 C2951 C 0.35658 0.29686 0.76222
 C2952 C 0.37474 0.29045 0.75583
 H2953 H 0.36845 0.27393 0.84208
 H2954 H 0.39895 0.26043 0.83043
 H2955 H 0.34692 0.30368 0.75197
 H2956 H 0.37857 0.29251 0.74084
 H2957 H 0.32354 0.30905 0.77821
 H2958 H 0.33898 0.29295 0.83637
 H2959 H 0.42308 0.25652 0.80458
 H2960 H 0.41065 0.27837 0.74763
 C2961 C 0.88002 0.30253 0.30705
 C2962 C 0.87963 0.30446 0.32720
 C2963 C 0.86454 0.31486 0.33579
 C2964 C 0.84978 0.32306 0.32441
 C2965 C 0.85057 0.32110 0.30419
 C2966 C 0.86572 0.31098 0.29544
 C2967 C 0.89562 0.29129 0.29793
 C2968 C 0.89620 0.28962 0.27776
 C2969 C 0.91142 0.27942 0.26913
 C2970 C 0.92572 0.27061 0.28059
 C2971 C 0.92462 0.27204 0.30083
 C2972 C 0.90974 0.28257 0.30956
 C2973 C 0.86671 0.30893 0.27532
 C2974 C 0.88175 0.29852 0.26662
 C2975 C 0.89416 0.29569 0.33834
 C2976 C 0.90890 0.28486 0.32966
 H2977 H 0.85577 0.31545 0.26622
 H2978 H 0.88205 0.29741 0.25106
 H2979 H 0.89406 0.29709 0.35389
 H2980 H 0.91972 0.27820 0.33877
 H2981 H 0.86403 0.31636 0.35133
 H2982 H 0.83914 0.32709 0.29532
 H2983 H 0.91232 0.27857 0.25356
 H2984 H 0.93581 0.26568 0.30975
 C2985 C 0.38184 0.79454 0.45845
 C2986 C 0.38453 0.81457 0.45744
 C2987 C 0.40141 0.82187 0.44899
 C2988 C 0.41578 0.80933 0.44197
 C2989 C 0.41293 0.78926 0.44334
 C2990 C 0.39587 0.78179 0.45134
 C2991 C 0.36386 0.78680 0.46686
 C2992 C 0.36079 0.76679 0.46719
 C2993 C 0.34331 0.75956 0.47454
 C2994 C 0.32921 0.77221 0.48185
 C2995 C 0.33275 0.79220 0.48181
 C2996 C 0.34993 0.79959 0.47409
 C2997 C 0.39245 0.76185 0.45223
 C2998 C 0.37515 0.75448 0.45990
 C2999 C 0.37023 0.82690 0.46478
 C3000 C 0.35326 0.81953 0.47307
 H3001 H 0.40314 0.75186 0.44675
 H3002 H 0.37298 0.73902 0.46010
 H3003 H 0.37218 0.84238 0.46411
 H3004 H 0.34255 0.82953 0.47852
 H3005 H 0.40334 0.83731 0.44773
 H3006 H 0.42396 0.77955 0.43801
 H3007 H 0.34061 0.74417 0.47447
 H3008 H 0.32180 0.80205 0.48707
 C3009 C 0.38199 0.29977 0.95807
 C3010 C 0.38538 0.31971 0.95794
 C3011 C 0.40244 0.32683 0.94970
 C3012 C 0.41639 0.31417 0.94205
 C3013 C 0.41280 0.29416 0.94248
 C3014 C 0.39552 0.28689 0.95027
 C3015 C 0.36379 0.29226 0.96627
 C3016 C 0.35998 0.27238 0.96574
 C3017 C 0.34231 0.26544 0.97300
 C3018 C 0.32879 0.27824 0.98114
 C3019 C 0.33307 0.29806 0.98188
 C3020 C 0.35040 0.30518 0.97422
 C3021 C 0.39137 0.26706 0.95028
 C3022 C 0.37386 0.25994 0.95777
 C3023 C 0.37156 0.33217 0.96591
 C3024 C 0.35442 0.32501 0.97401
 H3025 H 0.40167 0.25696 0.94427
 H3026 H 0.37116 0.24457 0.95730
 H3027 H 0.37401 0.34759 0.96591
 H3028 H 0.34413 0.33508 0.97997
 H3029 H 0.40478 0.34225 0.94905
 H3030 H 0.42342 0.28431 0.93660
 H3031 H 0.33906 0.25017 0.97236
 H3032 H 0.32260 0.30803 0.98779
 C3033 C 0.80423 0.44235 0.36728
 C3034 C 0.81272 0.45400 0.38148
 C3035 C 0.82246 0.44529 0.39691
 C3036 C 0.82396 0.42506 0.39811
 C3037 C 0.81572 0.41361 0.38347
 C3038 C 0.80573 0.42218 0.36807
 C3039 C 0.79341 0.45145 0.35136
 C3040 C 0.78468 0.43979 0.33731
 C3041 C 0.77451 0.44851 0.32216
 C3042 C 0.77345 0.46875 0.32074
 C3043 C 0.78231 0.48023 0.33494
 C3044 C 0.79215 0.47164 0.35042
 C3045 C 0.79698 0.41101 0.35360
 C3046 C 0.78656 0.41967 0.33853
 C3047 C 0.81110 0.47413 0.38010
 C3048 C 0.80107 0.48280 0.36478
 H3049 H 0.79806 0.39544 0.35400
 H3050 H 0.77991 0.41054 0.32776
 H3051 H 0.81766 0.48327 0.39096
 H3052 H 0.80027 0.49838 0.36420
 H3053 H 0.82851 0.45420 0.40823
 H3054 H 0.81689 0.39807 0.38429
 H3055 H 0.76812 0.43957 0.31103
 H3056 H 0.78173 0.49580 0.33379
 C3057 C 0.79245 0.95566 0.88095
 C3058 C 0.79419 0.93577 0.88418
 C3059 C 0.80274 0.92929 0.90132
 C3060 C 0.80927 0.94254 0.91529
 C3061 C 0.80719 0.96242 0.91188
 C3062 C 0.79895 0.96907 0.89466
 C3063 C 0.78395 0.96259 0.86272
 C3064 C 0.78283 0.98248 0.85924
 C3065 C 0.77544 0.98899 0.84160
 C3066 C 0.76899 0.97578 0.82760
 C3067 C 0.76976 0.95588 0.83149
 C3068 C 0.77746 0.94919 0.84898
 C3069 C 0.79727 0.98886 0.89078
 C3070 C 0.78943 0.99545 0.87332
 C3071 C 0.78752 0.92280 0.87011
 C3072 C 0.77923 0.92940 0.85283
 H3073 H 0.80226 0.99933 0.90124
 H3074 H 0.78860 1.01083 0.87079
 H3075 H 0.78877 0.90742 0.87245
 H3076 H 0.77436 0.91891 0.84232
 H3077 H 0.80454 0.91397 0.90376
 H3078 H 0.81213 0.97264 0.92262
 H3079 H 0.77488 1.00432 0.83867
 H3080 H 0.76510 0.94565 0.82063
 C3081 C 0.29702 0.79147 0.37108
 C3082 C 0.28422 0.79840 0.35695
 C3083 C 0.29177 0.80624 0.33990
 C3084 C 0.31195 0.80768 0.33717
 C3085 C 0.32452 0.80081 0.35163
 C3086 C 0.31715 0.79250 0.36849
 C3087 C 0.28920 0.78319 0.38903
 C3088 C 0.30204 0.77607 0.40302
 C3089 C 0.29458 0.76838 0.42011
 C3090 C 0.27449 0.76825 0.42353
 C3091 C 0.26178 0.77553 0.40942
 C3092 C 0.26908 0.78283 0.39199
 C3093 C 0.32952 0.78531 0.38287
 C3094 C 0.32209 0.77713 0.39981
 C3095 C 0.26417 0.79750 0.36027
 C3096 C 0.25674 0.78997 0.37755
 H3097 H 0.34508 0.78600 0.38101
 H3098 H 0.33212 0.77177 0.41056
 H3099 H 0.25415 0.80284 0.34951
 H3100 H 0.24119 0.78974 0.37962
 H3101 H 0.28201 0.81139 0.32879
 H3102 H 0.34005 0.80208 0.34979
 H3103 H 0.30448 0.76318 0.43109
 H3104 H 0.24631 0.77555 0.41204
 C3105 C 0.28767 0.29454 0.86889
 C3106 C 0.28956 0.31423 0.86467
 C3107 C 0.29729 0.31982 0.84688
 C3108 C 0.30279 0.30590 0.83316
 C3109 C 0.30010 0.28621 0.83737
 C3110 C 0.29292 0.28044 0.85537
 C3111 C 0.28053 0.28858 0.88799
 C3112 C 0.27961 0.26890 0.89260
 C3113 C 0.27373 0.26335 0.91113
 C3114 C 0.26839 0.27735 0.92478
 C3115 C 0.26885 0.29699 0.91976
 C3116 C 0.27522 0.30271 0.90146
 C3117 C 0.29129 0.26087 0.86032
 C3118 C 0.28488 0.25520 0.87867
 C3119 C 0.28403 0.32794 0.87848
 C3120 C 0.27686 0.32228 0.89653
 H3121 H 0.29531 0.24985 0.85004
 H3122 H 0.28415 0.23997 0.88202
 H3123 H 0.28536 0.34318 0.87535
 H3124 H 0.27286 0.33330 0.90682
 H3125 H 0.29942 0.33498 0.84383
 H3126 H 0.30413 0.27546 0.82680
 H3127 H 0.27334 0.24822 0.91498
 H3128 H 0.26500 0.30781 0.93034
 C3129 C 0.45563 0.29870 0.88104
 C3130 C 0.43559 0.30142 0.88321
 C3131 C 0.42847 0.30858 0.90066
 C3132 C 0.44121 0.31301 0.91586
 C3133 C 0.46125 0.31011 0.91350
 C3134 C 0.46856 0.30301 0.89605
 C3135 C 0.46320 0.29135 0.86262
 C3136 C 0.48326 0.28888 0.86027
 C3137 C 0.49033 0.28184 0.84264
 C3138 C 0.47736 0.27692 0.82779
 C3139 C 0.45738 0.27969 0.83035
 C3140 C 0.45021 0.28704 0.84766
 C3141 C 0.48852 0.30033 0.89321
 C3142 C 0.49575 0.29342 0.87561
 C3143 C 0.42311 0.29721 0.86779
 C3144 C 0.43033 0.29018 0.85029
 H3145 H 0.49865 0.30365 0.90467
 H3146 H 0.51124 0.29158 0.87401
 H3147 H 0.40766 0.29941 0.86924
 H3148 H 0.42028 0.28729 0.83869
 H3149 H 0.41310 0.31114 0.90234
 H3150 H 0.47105 0.31364 0.92519
 H3151 H 0.50575 0.27984 0.84059
 H3152 H 0.44748 0.27641 0.81869
 C3153 C 0.94505 0.30583 0.37042
 C3154 C 0.94348 0.32601 0.37020
 C3155 C 0.93314 0.33524 0.38491
 C3156 C 0.92473 0.32445 0.39993
 C3157 C 0.92621 0.30419 0.39971
 C3158 C 0.93625 0.29481 0.38494
 C3159 C 0.95629 0.29606 0.35529
 C3160 C 0.95761 0.27585 0.35535
 C3161 C 0.96781 0.26659 0.34057
 C3162 C 0.97697 0.27744 0.32607
 C3163 C 0.97593 0.29772 0.32653
 C3164 C 0.96539 0.30709 0.34097
 C3165 C 0.93794 0.27465 0.38459
 C3166 C 0.94835 0.26532 0.36998
 C3167 C 0.95260 0.33654 0.35548
 C3168 C 0.96345 0.32724 0.34117
 H3169 H 0.93115 0.26600 0.39569
 H3170 H 0.94920 0.24974 0.37016
 H3171 H 0.95149 0.35211 0.35511
 H3172 H 0.97041 0.33589 0.33020
 H3173 H 0.93195 0.35080 0.38498
 H3174 H 0.91997 0.29578 0.41131
 H3175 H 0.96838 0.25099 0.34015
 H3176 H 0.98257 0.30615 0.31517
 C3177 C 0.45614 0.38272 0.79268
 C3178 C 0.45354 0.38584 0.81250
 C3179 C 0.44715 0.40390 0.81886
 C3180 C 0.44374 0.41890 0.80560
 C3181 C 0.44713 0.41572 0.78583
 C3182 C 0.45296 0.39753 0.77925
 C3183 C 0.46203 0.36350 0.78584
 C3184 C 0.46391 0.36013 0.76596
 C3185 C 0.46929 0.34172 0.75953
 C3186 C 0.47334 0.32706 0.77293
 C3187 C 0.47150 0.33070 0.79279
 C3188 C 0.46558 0.34883 0.79933
 C3189 C 0.45527 0.39371 0.75950
 C3190 C 0.46053 0.37530 0.75296
 C3191 C 0.45705 0.37073 0.82553
 C3192 C 0.46311 0.35257 0.81906
 H3193 H 0.45279 0.40500 0.74899
 H3194 H 0.46201 0.37294 0.73760
 H3195 H 0.45512 0.37297 0.84085
 H3196 H 0.46574 0.34132 0.82959
 H3197 H 0.44438 0.40620 0.83405
 H3198 H 0.44454 0.42724 0.77561
 H3199 H 0.47085 0.33892 0.74425
 H3200 H 0.47447 0.31931 0.80310
 C3201 C 0.94457 0.36784 0.30406
 C3202 C 0.92430 0.36800 0.30569
 C3203 C 0.91530 0.38331 0.31528
 C3204 C 0.92640 0.39855 0.32289
 C3205 C 0.94674 0.39798 0.32136
 C3206 C 0.95591 0.38260 0.31206
 C3207 C 0.95411 0.35203 0.29360
 C3208 C 0.97441 0.35169 0.29224
 C3209 C 0.98343 0.33630 0.28275
 C3210 C 0.97222 0.32161 0.27432
 C3211 C 0.95186 0.32244 0.27545
 C3212 C 0.94274 0.33748 0.28529
 C3213 C 0.97616 0.38183 0.31036
 C3214 C 0.98526 0.36657 0.30071
 C3215 C 0.91343 0.35302 0.29739
 C3216 C 0.92251 0.33807 0.28728
 H3217 H 0.98505 0.39311 0.31655
 H3218 H 1.00092 0.36646 0.29982
 H3219 H 0.89779 0.35295 0.29857
 H3220 H 0.91361 0.32691 0.28093
 H3221 H 0.89966 0.38366 0.31653
 H3222 H 0.95537 0.40974 0.32700
 H3223 H 0.99909 0.33559 0.28212
 H3224 H 0.94315 0.31093 0.26940
 C3225 C 0.29113 0.87932 0.45585
 C3226 C 0.29798 0.89340 0.46868
 C3227 C 0.30531 0.91077 0.46131
 C3228 C 0.30635 0.91388 0.44124
 C3229 C 0.29948 0.89948 0.42863
 C3230 C 0.29167 0.88230 0.43585
 C3231 C 0.28353 0.86098 0.46349
 C3232 C 0.27654 0.84700 0.45063
 C3233 C 0.26953 0.82952 0.45792
 C3234 C 0.26997 0.82573 0.47787
 C3235 C 0.27712 0.83985 0.49059
 C3236 C 0.28372 0.85763 0.48347
 C3237 C 0.28460 0.86793 0.42344
 C3238 C 0.27706 0.85062 0.43072
 C3239 C 0.29761 0.88969 0.48859
 C3240 C 0.29072 0.87206 0.49585
 H3241 H 0.28493 0.87007 0.40798
 H3242 H 0.27179 0.83988 0.42066
 H3243 H 0.30290 0.90041 0.49864
 H3244 H 0.29091 0.86970 0.51128
 H3245 H 0.31048 0.92178 0.47110
 H3246 H 0.30048 0.90157 0.41319
 H3247 H 0.26441 0.81856 0.44801
 H3248 H 0.27755 0.83697 0.50594
 C3249 C 0.29198 0.38838 0.96269
 C3250 C 0.31128 0.39370 0.96615
 C3251 C 0.31887 0.40999 0.95692
 C3252 C 0.30715 0.42146 0.94478
 C3253 C 0.28742 0.41648 0.94253
 C3254 C 0.27996 0.39963 0.95090
 C3255 C 0.28444 0.37034 0.97106
 C3256 C 0.26559 0.36426 0.96648
 C3257 C 0.25901 0.34637 0.97334
 C3258 C 0.27108 0.33478 0.98495
 C3259 C 0.28959 0.34164 0.99016
 C3260 C 0.29644 0.35923 0.98300
 C3261 C 0.26089 0.39349 0.94728
 C3262 C 0.25390 0.37600 0.95477
 C3263 C 0.32273 0.38240 0.97849
 C3264 C 0.31532 0.36562 0.98702
 H3265 H 0.25146 0.40203 0.93819
 H3266 H 0.23928 0.37156 0.95122
 H3267 H 0.33757 0.38650 0.98150
 H3268 H 0.32457 0.35738 0.99655
 H3269 H 0.33405 0.41339 0.95886
 H3270 H 0.27803 0.42536 0.93373
 H3271 H 0.24469 0.34133 0.96937
 H3272 H 0.29904 0.33292 0.99907
 C3273 C 0.80580 0.37783 0.30298
 C3274 C 0.79449 0.36375 0.31213
 C3275 C 0.80368 0.34904 0.32247
 C3276 C 0.82404 0.34848 0.32394
 C3277 C 0.83513 0.36310 0.31519
 C3278 C 0.82609 0.37771 0.30451
 C3279 C 0.79622 0.39287 0.29141
 C3280 C 0.80756 0.40673 0.28195
 C3281 C 0.79838 0.42108 0.27110
 C3282 C 0.77801 0.42196 0.27012
 C3283 C 0.76685 0.40792 0.27965
 C3284 C 0.77591 0.39320 0.29016
 C3285 C 0.83693 0.39199 0.29503
 C3286 C 0.82781 0.40619 0.28385
 C3287 C 0.77422 0.36447 0.31049
 C3288 C 0.76508 0.37902 0.29979
 H3289 H 0.85258 0.39209 0.29610
 H3290 H 0.83668 0.41681 0.27661
 H3291 H 0.76535 0.35370 0.31756
 H3292 H 0.74942 0.37913 0.29899
 H3293 H 0.79502 0.33775 0.32897
 H3294 H 0.85077 0.36278 0.31638
 H3295 H 0.80707 0.43210 0.26419
 H3296 H 0.75118 0.40867 0.27914
   
