data_POSCAR
  _audit_creation_date              2014-09-24
  _audit_creation_method            'ToBaCCo'
  _symmetry_space_group_name_H-M    'P1'
  _symmetry_Int_Tables_number       1
  _symmetry_cell_setting            triclinic
  loop_
  _symmetry_equiv_pos_as_xyz
 x,y,z
_cell_length_a 48.1133
_cell_length_b 50.4681
_cell_length_c 54.9021
_cell_angle_alpha 90.245800
_cell_angle_beta 89.766300
_cell_angle_gamma 89.359700
loop_
  _atom_site_label
  _atom_site_type_symbol
  _atom_site_fract_x
  _atom_site_fract_y
  _atom_site_fract_z
C1 C 0.29545 0.30285 -0.01528
 C2 C 0.29685 0.30142 0.00943
 C3 C 0.27811 0.31766 0.02527
 C4 C 0.31967 0.28705 0.02187
 C5 C 0.31584 0.28906 -0.03163
 C6 C 0.27586 0.32162 -0.02711
 C7 C 0.28963 0.33597 0.04151
 C8 C 0.27254 0.35276 0.05532
 C9 C 0.24346 0.35170 0.05324
 C10 C 0.23186 0.33269 0.03753
 C11 C 0.24907 0.31578 0.02371
 C12 C 0.34688 0.29671 0.02094
 C13 C 0.36774 0.28503 0.03507
 C14 C 0.36174 0.26328 0.05001
 C15 C 0.33472 0.25304 0.05018
 C16 C 0.31372 0.26514 0.03651
 C17 C 0.32218 0.26200 -0.02933
 C18 C 0.34164 0.24976 -0.04490
 C19 C 0.35484 0.26404 -0.06381
 C20 C 0.34794 0.29131 -0.06588
 C21 C 0.32893 0.30344 -0.05009
 C22 C 0.25386 0.31218 -0.04126
 C23 C 0.23687 0.32992 -0.05409
 C24 C 0.24225 0.35721 -0.05340
 C25 C 0.26409 0.36658 -0.03897
 C26 C 0.28059 0.34895 -0.02572
 H27 H 0.31195 0.33786 0.04301
 H28 H 0.28223 0.36709 0.06721
 H29 H 0.20959 0.33069 0.03594
 H30 H 0.23976 0.30142 0.01161
 H31 H 0.35169 0.31381 0.00991
 H32 H 0.38849 0.29309 0.03448
 H33 H 0.29274 0.25765 0.03755
 H34 H 0.31196 0.25023 -0.01558
 H35 H 0.34578 0.22883 -0.04225
 H36 H 0.35760 0.30421 -0.07891
 H37 H 0.32480 0.32444 -0.05215
 H38 H 0.25015 0.29110 -0.04264
 H39 H 0.22038 0.32226 -0.06539
 H40 H 0.26864 0.38755 -0.03828
 H41 H 0.29770 0.35648 -0.01506
 H42 H 0.32965 0.23633 0.06162
 C43 C 0.70219 0.69998 -0.01827
 C44 C 0.70385 0.70111 0.00643
 C45 C 0.72177 0.68230 0.02001
 C46 C 0.68513 0.71856 0.02117
 C47 C 0.68021 0.71465 -0.03151
 C48 C 0.71990 0.68152 -0.03288
 C49 C 0.71453 0.65551 0.02145
 C50 C 0.73019 0.63807 0.03568
 C51 C 0.75369 0.64701 0.04821
 C52 C 0.76128 0.67373 0.04632
 C53 C 0.74515 0.69136 0.03257
 C54 C 0.66865 0.70747 0.03953
 C55 C 0.65039 0.72330 0.05315
 C56 C 0.64807 0.75065 0.04873
 C57 C 0.66496 0.76190 0.03060
 C58 C 0.68341 0.74598 0.01702
 C59 C 0.68714 0.73573 -0.04684
 C60 C 0.66646 0.74888 -0.06009
 C61 C 0.63877 0.74050 -0.05875
 C62 C 0.63189 0.71944 -0.04330
 C63 C 0.65244 0.70675 -0.02961
 C64 C 0.74901 0.68214 -0.03136
 C65 C 0.76534 0.66391 -0.04449
 C66 C 0.75283 0.64476 -0.05950
 C67 C 0.72372 0.64482 -0.06153
 C68 C 0.70746 0.66297 -0.04837
 H69 H 0.69637 0.64832 0.01201
 H70 H 0.72397 0.61755 0.03694
 H71 H 0.77912 0.68112 0.05609
 H72 H 0.75081 0.71204 0.03175
 H73 H 0.66952 0.68639 0.04308
 H74 H 0.63771 0.71398 0.06693
 H75 H 0.69640 0.75507 0.00332
 H76 H 0.70854 0.74194 -0.04851
 H77 H 0.67217 0.76504 -0.07196
 H78 H 0.61061 0.71282 -0.04185
 H79 H 0.64685 0.69040 -0.01792
 H80 H 0.75906 0.69672 -0.01998
 H81 H 0.78771 0.66506 -0.04304
 H82 H 0.71342 0.63041 -0.07293
 H83 H 0.68505 0.66213 -0.04988
 H84 H 0.66431 0.78298 0.02712
 C85 C 0.70535 0.30150 1.01582
 C86 C 0.70510 0.30163 0.99108
 C87 C 0.72207 0.32055 0.97696
 C88 C 0.68571 0.28481 0.97719
 C89 C 0.68691 0.28380 1.02998
 C90 C 0.72208 0.32084 1.02966
 C91 C 0.70889 0.34017 0.96304
 C92 C 0.72457 0.35862 0.95019
 C93 C 0.75378 0.35787 0.95103
 C94 C 0.76695 0.33781 0.96467
 C95 C 0.75120 0.31928 0.97745
 C96 C 0.65738 0.29151 0.97603
 C97 C 0.63912 0.27567 0.96280
 C98 C 0.64879 0.25256 0.95105
 C99 C 0.67719 0.24584 0.95236
 C100 C 0.69556 0.26204 0.96510
 C101 C 0.68906 0.25613 1.02767
 C102 C 0.67064 0.23969 1.04016
 C103 C 0.64974 0.25067 1.05529
 C104 C 0.64821 0.27839 1.05796
 C105 C 0.66655 0.29473 1.04545
 C106 C 0.74856 0.31383 1.03808
 C107 C 0.76466 0.33225 1.05069
 C108 C 0.75418 0.35797 1.05588
 C109 C 0.72715 0.36447 1.04770
 C110 C 0.71158 0.34631 1.03436
 H111 H 0.68643 0.34147 0.96240
 H112 H 0.71376 0.37373 0.93983
 H113 H 0.78937 0.33605 0.96515
 H114 H 0.76173 0.30386 0.98763
 H115 H 0.64952 0.30908 0.98526
 H116 H 0.61734 0.28126 0.96202
 H117 H 0.71741 0.25670 0.96580
 H118 H 0.70499 0.24728 1.01615
 H119 H 0.67307 0.21847 1.03816
 H120 H 0.63243 0.28756 1.06943
 H121 H 0.66437 0.31599 1.04749
 H122 H 0.75684 0.29410 1.03471
 H123 H 0.78473 0.32564 1.05716
 H124 H 0.71814 0.38392 1.05103
 H125 H 0.69120 0.35209 1.02780
 H126 H 0.68523 0.22833 0.94314
 C127 C 0.31451 0.68107 1.01086
 C128 C 0.31733 0.68210 0.98630
 C129 C 0.30322 0.66314 0.97002
 C130 C 0.33706 0.70025 0.97442
 C131 C 0.32930 0.69975 1.02715
 C132 C 0.29910 0.65934 1.02254
 C133 C 0.31916 0.64626 0.95505
 C134 C 0.30630 0.62936 0.93853
 C135 C 0.27717 0.62925 0.93644
 C136 C 0.26122 0.64583 0.95186
 C137 C 0.27416 0.66275 0.96843
 C138 C 0.36577 0.69591 0.97664
 C139 C 0.38436 0.71094 0.96303
 C140 C 0.37446 0.73079 0.94732
 C141 C 0.34578 0.73586 0.94593
 C142 C 0.32716 0.72037 0.95911
 C143 C 0.32690 0.72721 1.02393
 C144 C 0.34244 0.74459 1.03817
 C145 C 0.36070 0.73490 1.05631
 C146 C 0.36166 0.70725 1.06020
 C147 C 0.34632 0.69000 1.04577
 C148 C 0.27233 0.66374 1.03181
 C149 C 0.25859 0.64362 1.04429
 C150 C 0.27192 0.61904 1.04874
 C151 C 0.29864 0.61468 1.03860
 C152 C 0.31187 0.63453 1.02545
 H153 H 0.34163 0.64617 0.95617
 H154 H 0.31926 0.61625 0.92762
 H155 H 0.23875 0.64614 0.95073
 H156 H 0.26156 0.67591 0.97965
 H157 H 0.37366 0.68025 0.98824
 H158 H 0.40644 0.70686 0.96447
 H159 H 0.30501 0.72377 0.95712
 H160 H 0.31313 0.73523 1.01019
 H161 H 0.33952 0.76546 1.03481
 H162 H 0.37499 0.69858 1.07394
 H163 H 0.34844 0.66890 1.04879
 H164 H 0.26220 0.68285 1.02956
 H165 H 0.23804 0.64792 1.05150
 H166 H 0.30936 0.59584 1.04021
 H167 H 0.33246 0.63079 1.01803
 H168 H 0.33776 0.75101 0.93384
 C169 C -0.02223 0.32747 0.32669
 C170 C 0.00598 0.32956 0.32537
 C171 C 0.02421 0.31317 0.34126
 C172 C 0.01990 0.34858 0.30881
 C173 C -0.04160 0.34236 0.31049
 C174 C -0.03519 0.31168 0.34620
 C175 C 0.04202 0.32539 0.35792
 C176 C 0.05844 0.31010 0.37358
 C177 C 0.05749 0.28223 0.37272
 C178 C 0.03989 0.27009 0.35571
 C179 C 0.02363 0.28540 0.33999
 C180 C 0.01129 0.37527 0.30767
 C181 C 0.02343 0.39244 0.29092
 C182 C 0.04514 0.38349 0.27573
 C183 C 0.05487 0.35730 0.27786
 C184 C 0.04222 0.33994 0.29414
 C185 C -0.03797 0.34265 0.28512
 C186 C -0.05534 0.35821 0.27047
 C187 C -0.07750 0.37324 0.28068
 C188 C -0.08162 0.37183 0.30613
 C189 C -0.06392 0.35672 0.32070
 C190 C -0.04630 0.28681 0.34102
 C191 C -0.05929 0.27233 0.35937
 C192 C -0.06271 0.28307 0.38299
 C193 C -0.05113 0.30811 0.38797
 C194 C -0.03721 0.32203 0.36982
 H195 H 0.04273 0.34680 0.35915
 H196 H 0.07126 0.32018 0.38676
 H197 H 0.03882 0.24870 0.35448
 H198 H 0.01046 0.27560 0.32688
 H199 H -0.00512 0.38272 0.31948
 H200 H 0.01607 0.41277 0.28999
 H201 H 0.04951 0.31958 0.29495
 H202 H -0.02134 0.33122 0.27667
 H203 H -0.05136 0.35828 0.25104
 H204 H -0.09749 0.38330 0.31544
 H205 H -0.06725 0.35698 0.34021
 H206 H -0.04482 0.27862 0.32279
 H207 H -0.06772 0.25318 0.35466
 H208 H -0.05187 0.31682 0.40598
 H209 H -0.02843 0.34118 0.37405
 H210 H 0.07177 0.35010 0.26644
 C211 C -0.01602 0.68804 0.68784
 C212 C 0.01184 0.69232 0.68815
 C213 C 0.02566 0.70934 0.66998
 C214 C 0.03001 0.67786 0.70538
 C215 C -0.02898 0.67016 0.70585
 C216 C -0.03458 0.69979 0.66909
 C217 C 0.02963 0.70060 0.64591
 C218 C 0.04280 0.71689 0.62893
 C219 C 0.05153 0.74236 0.63565
 C220 C 0.04754 0.75101 0.65979
 C221 C 0.03507 0.73445 0.67690
 C222 C 0.04756 0.65762 0.69662
 C223 C 0.06213 0.64146 0.71284
 C224 C 0.05923 0.64513 0.73812
 C225 C 0.04266 0.66632 0.74681
 C226 C 0.02830 0.68266 0.73053
 C227 C -0.04004 0.68054 0.72753
 C228 C -0.05162 0.66378 0.74497
 C229 C -0.05330 0.63621 0.74067
 C230 C -0.04257 0.62614 0.71845
 C231 C -0.03004 0.64285 0.70152
 C232 C -0.03550 0.72717 0.66497
 C233 C -0.05254 0.73774 0.64681
 C234 C -0.06994 0.72132 0.63275
 C235 C -0.06926 0.69383 0.63748
 C236 C -0.05181 0.68332 0.65531
 H237 H 0.02261 0.68118 0.64036
 H238 H 0.04574 0.70983 0.61043
 H239 H 0.05443 0.77042 0.66546
 H240 H 0.03229 0.74136 0.69546
 H241 H 0.04913 0.65366 0.67726
 H242 H 0.07482 0.62539 0.70559
 H243 H 0.01526 0.69858 0.73754
 H244 H -0.03947 0.70166 0.73103
 H245 H -0.06034 0.67289 0.76117
 H246 H -0.04317 0.60515 0.71431
 H247 H -0.02130 0.63451 0.68493
 H248 H -0.02310 0.74044 0.67587
 H249 H -0.05238 0.75900 0.64420
 H250 H -0.08118 0.67989 0.62698
 H251 H -0.05143 0.66209 0.65796
 H252 H 0.04064 0.67021 0.76614
 C253 C 1.01861 0.69143 0.31491
 C254 C 0.99048 0.68807 0.31512
 C255 C 0.97269 0.70431 0.33170
 C256 C 0.97628 0.66785 0.29986
 C257 C 1.03776 0.67612 0.29858
 C258 C 1.03168 0.70975 0.33256
 C259 C 0.95920 0.69238 0.35140
 C260 C 0.94431 0.70786 0.36826
 C261 C 0.94276 0.73557 0.36575
 C262 C 0.95542 0.74731 0.34539
 C263 C 0.97013 0.73179 0.32847
 C264 C 0.98564 0.64136 0.29899
 C265 C 0.97304 0.62309 0.28342
 C266 C 0.95020 0.63072 0.26909
 C267 C 0.93987 0.65677 0.27100
 C268 C 0.95289 0.67520 0.28611
 C269 C 1.03271 0.67359 0.27352
 C270 C 1.04967 0.65721 0.25899
 C271 C 1.07287 0.64371 0.26891
 C272 C 1.07854 0.64759 0.29390
 C273 C 1.06121 0.66342 0.30841
 C274 C 1.03827 0.73560 0.32570
 C275 C 1.05002 0.75307 0.34250
 C276 C 1.05643 0.74467 0.36638
 C277 C 1.05033 0.71829 0.37278
 C278 C 1.03753 0.70128 0.35625
 H279 H 0.96085 0.67117 0.35408
 H280 H 0.93463 0.69820 0.38364
 H281 H 0.95389 0.76846 0.34241
 H282 H 0.97987 0.74122 0.31301
 H283 H 1.00294 0.63489 0.31010
 H284 H 0.98095 0.60293 0.28279
 H285 H 0.94502 0.69538 0.28671
 H286 H 1.01522 0.68377 0.26529
 H287 H 1.04454 0.65526 0.23988
 H288 H 1.09531 0.63738 0.30302
 H289 H 1.06571 0.66491 0.32765
 H290 H 1.03407 0.74231 0.30735
 H291 H 1.05512 0.77268 0.33617
 H292 H 1.05471 0.71089 0.39087
 H293 H 1.03245 0.68134 0.36182
 H294 H 0.92215 0.66307 0.26029
 C295 C 1.01509 0.31420 0.67943
 C296 C 0.98724 0.30952 0.68047
 C297 C 0.97384 0.29157 0.66279
 C298 C 0.96825 0.32366 0.69766
 C299 C 1.02847 0.33460 0.69492
 C300 C 1.03340 0.29981 0.66177
 C301 C 0.97180 0.29870 0.63820
 C302 C 0.95838 0.28209 0.62171
 C303 C 0.94740 0.25790 0.62951
 C304 C 0.94966 0.25071 0.65410
 C305 C 0.96246 0.26765 0.67072
 C306 C 0.94516 0.33745 0.68842
 C307 C 0.92780 0.35213 0.70387
 C308 C 0.93298 0.35318 0.72905
 C309 C 0.95583 0.33893 0.73839
 C310 C 0.97317 0.32407 0.72286
 C311 C 1.05247 0.32798 0.70812
 C312 C 1.06529 0.34685 0.72283
 C313 C 1.05411 0.37257 0.72481
 C314 C 1.03051 0.37942 0.71116
 C315 C 1.01808 0.36072 0.69601
 C316 C 1.03375 0.27208 0.66047
 C317 C 1.04945 0.25895 0.64261
 C318 C 1.06612 0.27314 0.62603
 C319 C 1.06661 0.30105 0.62831
 C320 C 1.05038 0.31412 0.64588
 H321 H 0.98029 0.31726 0.63192
 H322 H 0.95674 0.28801 0.60283
 H323 H 0.94095 0.23231 0.66055
 H324 H 0.96373 0.26205 0.68970
 H325 H 0.94104 0.33758 0.66904
 H326 H 0.91094 0.36341 0.69586
 H327 H 0.99068 0.31327 0.73041
 H328 H 1.06109 0.30808 0.70724
 H329 H 1.08359 0.34120 0.73308
 H330 H 1.02193 0.39934 0.71193
 H331 H 1.00027 0.36660 0.68523
 H332 H 1.02155 0.26055 0.67310
 H333 H 1.04861 0.23752 0.64203
 H334 H 1.07826 0.31331 0.61596
 H335 H 1.05047 0.33557 0.64662
 H336 H 0.96034 0.33939 0.75770
 C337 C 0.30753 -0.01793 0.31111
 C338 C 0.31153 0.00879 0.31105
 C339 C 0.33097 0.02174 0.29367
 C340 C 0.29694 0.02631 0.32887
 C341 C 0.29324 -0.03092 0.33182
 C342 C 0.31975 -0.03558 0.29203
 C343 C 0.35842 0.01240 0.29069
 C344 C 0.37631 0.02444 0.27405
 C345 C 0.36736 0.04652 0.26055
 C346 C 0.34025 0.05642 0.26418
 C347 C 0.32219 0.04408 0.28049
 C348 C 0.31216 0.04348 0.34373
 C349 C 0.29857 0.05991 0.36064
 C350 C 0.26939 0.05970 0.36278
 C351 C 0.25425 0.04258 0.34767
 C352 C 0.26787 0.02617 0.33081
 C353 C 0.26847 -0.04474 0.32813
 C354 C 0.25571 -0.05788 0.34753
 C355 C 0.26804 -0.05809 0.37068
 C356 C 0.29283 -0.04418 0.37431
 C357 C 0.30521 -0.03055 0.35508
 C358 C 0.31676 -0.02985 0.26719
 C359 C 0.33148 -0.04449 0.24960
 C360 C 0.34932 -0.06563 0.25642
 C361 C 0.35015 -0.07254 0.28134
 C362 C 0.33574 -0.05766 0.29883
 H363 H 0.36601 -0.00421 0.30126
 H364 H 0.39735 0.01684 0.27220
 H365 H 0.33291 0.07354 0.25416
 H366 H 0.30125 0.05184 0.28270
 H367 H 0.33463 0.04382 0.34251
 H368 H 0.31105 0.07226 0.37233
 H369 H 0.25572 0.01338 0.31919
 H370 H 0.25906 -0.04531 0.31025
 H371 H 0.23663 -0.06851 0.34431
 H372 H 0.30258 -0.04380 0.39205
 H373 H 0.32444 -0.02014 0.35818
 H374 H 0.30368 -0.01344 0.26145
 H375 H 0.32859 -0.03883 0.23085
 H376 H 0.36299 -0.08881 0.28775
 H377 H 0.33812 -0.06274 0.31786
 H378 H 0.23179 0.04198 0.34877
 C379 C 0.69459 -0.01145 0.68989
 C380 C 0.69991 0.01489 0.69264
 C381 C 0.68662 0.03120 0.71213
 C382 C 0.71671 0.02906 0.67432
 C383 C 0.71042 -0.02777 0.67182
 C384 C 0.67209 -0.02465 0.70389
 C385 C 0.67090 0.05372 0.70591
 C386 C 0.65528 0.06722 0.72359
 C387 C 0.65515 0.05862 0.74794
 C388 C 0.67249 0.03710 0.75439
 C389 C 0.68803 0.02352 0.73663
 C390 C 0.70713 0.03113 0.65032
 C391 C 0.72271 0.04450 0.63290
 C392 C 0.74834 0.05562 0.63912
 C393 C 0.75793 0.05356 0.66320
 C394 C 0.74200 0.04063 0.68078
 C395 C 0.73961 -0.02812 0.67186
 C396 C 0.75444 -0.04217 0.65399
 C397 C 0.74035 -0.05643 0.63587
 C398 C 0.71113 -0.05692 0.63648
 C399 C 0.69631 -0.04268 0.65426
 C400 C 0.67701 -0.04920 0.71501
 C401 C 0.65623 -0.06119 0.72886
 C402 C 0.63021 -0.04853 0.73252
 C403 C 0.62508 -0.02443 0.72031
 C404 C 0.64553 -0.01303 0.70579
 H405 H 0.66959 0.06009 0.68714
 H406 H 0.64243 0.08380 0.71792
 H407 H 0.67395 0.03044 0.77303
 H408 H 0.70054 0.00651 0.74187
 H409 H 0.68749 0.02248 0.64516
 H410 H 0.71490 0.04590 0.61447
 H411 H 0.74950 0.03930 0.69931
 H412 H 0.75091 -0.01734 0.68566
 H413 H 0.77691 -0.04207 0.65459
 H414 H 0.69971 -0.06786 0.62286
 H415 H 0.67380 -0.04282 0.65400
 H416 H 0.69714 -0.05887 0.71335
 H417 H 0.66108 -0.07989 0.73755
 H418 H 0.60503 -0.01459 0.72105
 H419 H 0.64063 0.00510 0.69618
 H420 H 0.77742 0.06237 0.66849
 C421 C 0.31948 1.02150 0.67702
 C422 C 0.31731 0.99462 0.67851
 C423 C 0.33063 0.97902 0.69826
 C424 C 0.30275 0.97927 0.65941
 C425 C 0.30430 1.03654 0.65790
 C426 C 0.33707 1.03724 0.69398
 C427 C 0.34857 0.95788 0.69224
 C428 C 0.36276 0.94409 0.71042
 C429 C 0.35933 0.95113 0.73506
 C430 C 0.34033 0.97156 0.74114
 C431 C 0.32603 0.98530 0.72290
 C432 C 0.31364 0.97769 0.63570
 C433 C 0.30045 0.96241 0.61797
 C434 C 0.27595 0.94877 0.62360
 C435 C 0.26483 0.95079 0.64724
 C436 C 0.27837 0.96560 0.66512
 C437 C 0.31897 1.05270 0.64173
 C438 C 0.30491 1.06700 0.62375
 C439 C 0.27578 1.06565 0.62177
 C440 C 0.26118 1.04942 0.63807
 C441 C 0.27527 1.03517 0.65606
 C442 C 0.32621 1.06049 0.70469
 C443 C 0.34248 1.07583 0.72023
 C444 C 0.36993 1.06813 0.72555
 C445 C 0.38086 1.04491 0.71488
 C446 C 0.36479 1.02990 0.69886
 H447 H 0.35230 0.95256 0.67337
 H448 H 0.37711 0.92842 0.70508
 H449 H 0.33642 0.97697 0.75994
 H450 H 0.31172 1.00112 0.72796
 H451 H 0.33252 0.98804 0.63107
 H452 H 0.30926 0.96145 0.59980
 H453 H 0.26978 0.96659 0.68337
 H454 H 0.34139 1.05397 0.64286
 H455 H 0.31699 1.07869 0.61119
 H456 H 0.23877 1.04801 0.63712
 H457 H 0.26351 1.02318 0.66865
 H458 H 0.30500 1.06671 0.70112
 H459 H 0.33347 1.09354 0.72838
 H460 H 0.40207 1.03873 0.71850
 H461 H 0.37406 1.01260 0.69022
 H462 H 0.24600 0.94041 0.65200
 C463 C 0.67742 1.01180 0.32199
 C464 C 0.67831 0.98485 0.32270
 C465 C 0.66222 0.96786 0.30575
 C466 C 0.69536 0.97088 0.34117
 C467 C 0.69066 1.02759 0.34140
 C468 C 0.66266 1.02680 0.30266
 C469 C 0.63388 0.97280 0.30127
 C470 C 0.61895 0.95613 0.28587
 C471 C 0.63177 0.93365 0.27549
 C472 C 0.65991 0.92840 0.28026
 C473 C 0.67502 0.94544 0.29513
 C474 C 0.68257 0.95492 0.35867
 C475 C 0.69864 0.94105 0.37562
 C476 C 0.72778 0.94295 0.37534
 C477 C 0.74050 0.95864 0.35744
 C478 C 0.72441 0.97239 0.34047
 C479 C 0.71734 1.03766 0.33802
 C480 C 0.73008 1.05203 0.35659
 C481 C 0.71583 1.05777 0.37856
 C482 C 0.68876 1.04767 0.38159
 C483 C 0.67656 1.03242 0.36334
 C484 C 0.66826 1.02193 0.27792
 C485 C 0.65362 1.03569 0.25990
 C486 C 0.63317 1.05468 0.26632
 C487 C 0.62835 1.06006 0.29113
 C488 C 0.64292 1.04630 0.30907
 H489 H 0.62319 0.98934 0.30991
 H490 H 0.59716 0.96035 0.28260
 H491 H 0.67027 0.91128 0.27226
 H492 H 0.69677 0.94107 0.29842
 H493 H 0.66015 0.95326 0.35920
 H494 H 0.68827 0.92900 0.38909
 H495 H 0.73464 0.98387 0.32651
 H496 H 0.72844 1.03406 0.32109
 H497 H 0.75084 1.05934 0.35334
 H498 H 0.67722 1.05038 0.39836
 H499 H 0.65601 1.02443 0.36625
 H500 H 0.68389 1.00741 0.27258
 H501 H 0.65859 1.03157 0.24102
 H502 H 0.61281 1.07456 0.29673
 H503 H 0.63827 1.05051 0.32801
 H504 H 0.76289 0.95985 0.35611
 O505 O 0.86005 0.82206 0.47590
 O506 O 0.82282 0.85996 0.52405
 O507 O 0.86347 0.82588 0.52334
 O508 O 0.82102 0.85835 0.47676
 O509 O 0.78991 0.82664 0.47930
 O510 O 0.83281 0.79382 0.52628
 O511 O 0.79196 0.82802 0.52655
 O512 O 0.82905 0.79034 0.47902
 Cu513 Cu 0.84498 0.84471 0.49966
 Cu514 Cu 0.80788 0.80647 0.50301
 C515 C 0.85081 0.79964 0.46931
 C516 C 0.80097 0.85034 0.53348
 C517 C 0.85534 0.80452 0.53298
 C518 C 0.79818 0.84832 0.47020
 O519 O 0.15251 0.11889 0.51649
 O520 O 0.11318 0.15792 0.47134
 O521 O 0.14995 0.11952 0.46925
 O522 O 0.11539 0.15638 0.51883
 O523 O 0.14836 0.18644 0.51775
 O524 O 0.18360 0.14890 0.46859
 O525 O 0.14675 0.18736 0.47041
 O526 O 0.18569 0.14875 0.51598
 Cu527 Cu 0.12937 0.13524 0.49397
 Cu528 Cu 0.16945 0.17084 0.49305
 C529 C 0.17577 0.12727 0.52404
 C530 C 0.12324 0.17934 0.46322
 C531 C 0.17281 0.12771 0.46063
 C532 C 0.12599 0.17762 0.52683
 O533 O 0.12412 0.83511 0.52670
 O534 O 0.15552 0.87599 0.47845
 O535 O 0.12333 0.83522 0.47906
 O536 O 0.15647 0.87628 0.52624
 O537 O 0.19356 0.85014 0.52511
 O538 O 0.15976 0.80816 0.47913
 O539 O 0.19229 0.84941 0.47777
 O540 O 0.16103 0.80873 0.52605
 Cu541 Cu 0.13621 0.85836 0.50275
 Cu542 Cu 0.18040 0.82653 0.50198
 C543 C 0.13709 0.81474 0.53436
 C544 C 0.17917 0.86953 0.46976
 C545 C 0.13582 0.81454 0.47128
 C546 C 0.18074 0.87030 0.53359
 O547 O 0.86859 0.16672 0.52330
 O548 O 0.83410 0.12618 0.47668
 O549 O 0.87051 0.16341 0.47590
 O550 O 0.83212 0.12916 0.52440
 O551 O 0.79822 0.15887 0.52172
 O552 O 0.83699 0.19367 0.47414
 O553 O 0.80006 0.15586 0.47468
 O554 O 0.83480 0.19658 0.52081
 Cu555 Cu 0.85469 0.14328 0.50035
 Cu556 Cu 0.81405 0.17919 0.49756
 C557 C 0.85771 0.18870 0.52977
 C558 C 0.81122 0.13419 0.46774
 C559 C 0.86035 0.18457 0.46703
 C560 C 0.80860 0.13817 0.53127
 O561 O 0.46917 0.87733 0.83140
 O562 O 0.52525 0.85012 0.86979
 O563 O 0.52292 0.87906 0.83050
 O564 O 0.47094 0.84823 0.87053
 O565 O 0.47258 0.81212 0.84766
 O566 O 0.52581 0.84216 0.80878
 O567 O 0.52574 0.81340 0.84772
 O568 O 0.47140 0.84146 0.80829
 Cu569 Cu 0.49689 0.86732 0.85287
 Cu570 Cu 0.49888 0.82372 0.82569
 C571 C 0.46104 0.86418 0.81306
 C572 C 0.53477 0.82696 0.86546
 C573 C 0.53337 0.86576 0.81298
 C574 C 0.46316 0.82476 0.86599
 O575 O 0.52878 0.16386 0.13139
 O576 O 0.47435 0.12804 0.16564
 O577 O 0.47472 0.15865 0.12724
 O578 O 0.52789 0.13135 0.16821
 O579 O 0.52135 0.16511 0.19338
 O580 O 0.47074 0.19426 0.15056
 O581 O 0.46760 0.16358 0.18860
 O582 O 0.52392 0.19756 0.15686
 Cu583 Cu 0.50195 0.14207 0.14556
 Cu584 Cu 0.49531 0.18357 0.17477
 C585 C 0.53583 0.18681 0.13863
 C586 C 0.46170 0.13989 0.18299
 C587 C 0.46391 0.18121 0.13171
 C588 C 0.53333 0.14325 0.18799
 O589 O 0.53545 0.12965 0.83885
 O590 O 0.47707 0.15630 0.87562
 O591 O 0.48211 0.12311 0.83874
 O592 O 0.53101 0.16317 0.87483
 O593 O 0.52531 0.19632 0.84914
 O594 O 0.47679 0.15633 0.81308
 O595 O 0.47223 0.18928 0.84964
 O596 O 0.53047 0.16283 0.81309
 Cu597 Cu 0.50680 0.13977 0.85967
 Cu598 Cu 0.50066 0.17944 0.82862
 C599 C 0.54285 0.14168 0.81967
 C600 C 0.46488 0.17752 0.86897
 C601 C 0.47139 0.13282 0.81957
 C602 C 0.53642 0.18663 0.86811
 O603 O 0.47283 0.82525 0.13391
 O604 O 0.52169 0.86754 0.16679
 O605 O 0.52677 0.83081 0.13291
 O606 O 0.46852 0.86029 0.16850
 O607 O 0.47434 0.82929 0.19633
 O608 O 0.53159 0.79996 0.16099
 O609 O 0.52755 0.83637 0.19447
 O610 O 0.47804 0.79409 0.16169
 Cu611 Cu 0.49704 0.84906 0.14764
 Cu612 Cu 0.50344 0.81179 0.18112
 C613 C 0.46693 0.80257 0.14222
 C614 C 0.53264 0.85938 0.18640
 C615 C 0.53898 0.81015 0.14095
 C616 C 0.46173 0.84980 0.18865
 O617 O 0.83935 0.47241 0.86988
 O618 O 0.87695 0.52134 0.83237
 O619 O 0.83946 0.52416 0.86672
 O620 O 0.87811 0.46987 0.83644
 O621 O 0.84463 0.46637 0.80926
 O622 O 0.80752 0.52261 0.83801
 O623 O 0.84521 0.51702 0.80369
 O624 O 0.80621 0.47128 0.84223
 Cu625 Cu 0.86170 0.49721 0.85423
 Cu626 Cu 0.82255 0.49418 0.82055
 C627 C 0.81623 0.46361 0.86238
 C628 C 0.86770 0.52690 0.81132
 C629 C 0.81702 0.53280 0.85745
 C630 C 0.86794 0.45883 0.81771
 O631 O 0.15568 0.46998 0.13072
 O632 O 0.12067 0.52626 0.16172
 O633 O 0.15413 0.52153 0.12481
 O634 O 0.12219 0.47541 0.16843
 O635 O 0.15874 0.47904 0.19238
 O636 O 0.19068 0.52468 0.14885
 O637 O 0.15681 0.53016 0.18609
 O638 O 0.19156 0.47406 0.15534
 Cu639 Cu 0.13456 0.49778 0.14391
 Cu640 Cu 0.17803 0.50252 0.17312
 C641 C 0.17963 0.46246 0.13775
 C642 C 0.13279 0.53771 0.17929
 C643 C 0.17794 0.53087 0.12947
 C644 C 0.13505 0.46943 0.18785
 O645 O 0.83542 0.53216 0.13207
 O646 O 0.87019 0.47896 0.16655
 O647 O 0.83513 0.48017 0.13077
 O648 O 0.86958 0.53034 0.16940
 O649 O 0.83326 0.53058 0.19411
 O650 O 0.79977 0.47982 0.15656
 O651 O 0.83517 0.47882 0.19266
 O652 O 0.79948 0.53066 0.15714
 Cu653 Cu 0.85611 0.50560 0.14708
 Cu654 Cu 0.81348 0.50488 0.17778
 C655 C 0.81129 0.54007 0.13840
 C656 C 0.85871 0.46995 0.18559
 C657 C 0.81145 0.47161 0.13714
 C658 C 0.85717 0.53897 0.18837
 O659 O 0.13155 0.47535 0.82194
 O660 O 0.16214 0.52415 0.86342
 O661 O 0.13219 0.52686 0.82416
 O662 O 0.16317 0.47274 0.86070
 O663 O 0.20142 0.47512 0.83847
 O664 O 0.16939 0.52640 0.80047
 O665 O 0.19932 0.52604 0.83980
 O666 O 0.17002 0.47474 0.79985
 Cu667 Cu 0.14340 0.49960 0.84481
 Cu668 Cu 0.18876 0.50062 0.81725
 C669 C 0.14555 0.46662 0.80394
 C670 C 0.18594 0.53346 0.85867
 C671 C 0.14554 0.53568 0.80594
 C672 C 0.18802 0.46534 0.85616
 C673 C 0.22252 0.40063 0.10084
 C674 C 0.19636 0.40927 0.09277
 N675 N 0.18539 0.39833 0.07236
 C676 C 0.19950 0.37927 0.05956
 C677 C 0.22600 0.37079 0.06743
 N678 N 0.23664 0.38181 0.08802
 N679 N 0.23379 0.41169 0.12101
 C680 C 0.22017 0.43123 0.13342
 C681 C 0.19408 0.44032 0.12525
 N682 N 0.18272 0.42894 0.10509
 H683 H 0.19043 0.37159 0.04303
 H684 H 0.22983 0.43976 0.14936
 C685 C 0.76841 0.59528 0.09429
 C686 C 0.79752 0.59338 0.09343
 N687 N 0.81189 0.60936 0.07814
 C688 C 0.79843 0.62710 0.06362
 C689 C 0.76923 0.62862 0.06409
 N690 N 0.75497 0.61258 0.07948
 N691 N 0.75401 0.57981 0.10993
 C692 C 0.76739 0.56235 0.12470
 C693 C 0.79652 0.55990 0.12354
 N694 N 0.81091 0.57555 0.10784
 H695 H 0.81033 0.63951 0.05150
 H696 H 0.75533 0.55011 0.13686
 C697 C 0.77217 0.40704 0.90352
 C698 C 0.79868 0.41514 0.91079
 N699 N 0.81024 0.40445 0.93107
 C700 C 0.79655 0.38595 0.94437
 C701 C 0.76993 0.37768 0.93709
 N702 N 0.75849 0.38868 0.91679
 N703 N 0.76051 0.41760 0.88328
 C704 C 0.77419 0.43590 0.86986
 C705 C 0.80081 0.44414 0.87699
 N706 N 0.81241 0.43351 0.89742
 H707 H 0.80619 0.37824 0.96066
 H708 H 0.76432 0.44389 0.85376
 C709 C 0.22396 0.58663 0.90752
 C710 C 0.23733 0.57876 0.88588
 N711 N 0.26312 0.58783 0.88079
 C712 C 0.27635 0.60422 0.89652
 C713 C 0.26329 0.61182 0.91854
 N714 N 0.23719 0.60292 0.92329
 N715 N 0.19812 0.57759 0.91256
 C716 C 0.18510 0.56083 0.89699
 C717 C 0.19860 0.55263 0.87540
 N718 N 0.22443 0.56196 0.87039
 H719 H 0.29669 0.61143 0.89163
 H720 H 0.16459 0.55376 0.90157
 C721 C 0.07815 0.22607 0.41281
 C722 C 0.10372 0.23456 0.42199
 N723 N 0.11401 0.25822 0.41480
 C724 C 0.09978 0.27392 0.39897
 C725 C 0.07395 0.26565 0.38982
 N726 N 0.06395 0.24171 0.39698
 N727 N 0.06782 0.20244 0.42004
 C728 C 0.08189 0.18689 0.43612
 C729 C 0.10754 0.19535 0.44543
 N730 N 0.11780 0.21906 0.43801
 H731 H 0.10883 0.29246 0.39338
 H732 H 0.07309 0.16819 0.44159
 C733 C 0.09860 0.76539 0.58641
 C734 C 0.09015 0.79195 0.58378
 N735 N 0.06950 0.80186 0.59819
 C736 C 0.05689 0.78643 0.61514
 C737 C 0.06500 0.75971 0.61758
 N738 N 0.08569 0.74984 0.60302
 N739 N 0.11972 0.75565 0.57243
 C740 C 0.13275 0.77123 0.55587
 C741 C 0.12404 0.79771 0.55283
 N742 N 0.10282 0.80740 0.56692
 H743 H 0.04042 0.79481 0.62634
 H744 H 0.14943 0.76286 0.54489
 C745 C 0.89250 0.75516 0.41448
 C746 C 0.90085 0.78099 0.42017
 N747 N 0.92254 0.79171 0.40794
 C748 C 0.93623 0.77780 0.39022
 C749 C 0.92795 0.75182 0.38443
 N750 N 0.90625 0.74120 0.39691
 N751 N 0.87082 0.74439 0.42663
 C752 C 0.85705 0.75828 0.44427
 C753 C 0.86539 0.78417 0.45018
 N754 N 0.88721 0.79489 0.43791
 H755 H 0.95376 0.78678 0.38120
 H756 H 0.83984 0.74912 0.45364
 C757 C 0.89979 0.23676 0.58043
 C758 C 0.90522 0.20939 0.57914
 N759 N 0.92409 0.19830 0.59445
 C760 C 0.93781 0.21335 0.61101
 C761 C 0.93273 0.24082 0.61208
 N762 N 0.91382 0.25183 0.59665
 N763 N 0.88046 0.24779 0.56557
 C764 C 0.86630 0.23270 0.54936
 C765 C 0.87202 0.20536 0.54768
 N766 N 0.89145 0.19438 0.56265
 H767 H 0.95285 0.20407 0.62296
 H768 H 0.85108 0.24204 0.53764
 C769 C 0.40314 0.10003 0.22676
 C770 C 0.42244 0.08571 0.21253
 N771 N 0.42322 0.05885 0.21391
 C772 C 0.40571 0.04567 0.22903
 C773 C 0.38640 0.05997 0.24344
 N774 N 0.38555 0.08689 0.24171
 N775 N 0.40275 0.12689 0.22587
 C776 C 0.42098 0.14014 0.21155
 C777 C 0.44047 0.12592 0.19731
 N778 N 0.44058 0.09893 0.19806
 H779 H 0.40672 0.02426 0.22963
 H780 H 0.42036 0.16159 0.21141
 C781 C 0.60638 0.10822 0.77548
 C782 C 0.59684 0.09500 0.79624
 N783 N 0.60716 0.07058 0.80151
 C784 C 0.62649 0.05863 0.78688
 C785 C 0.63601 0.07168 0.76580
 N786 N 0.62556 0.09630 0.76081
 N787 N 0.59566 0.13241 0.76987
 C788 C 0.57559 0.14392 0.78401
 C789 C 0.56566 0.13057 0.80468
 N790 N 0.57674 0.10641 0.81033
 H791 H 0.63340 0.03881 0.79134
 H792 H 0.56728 0.16313 0.77897
 C793 C 0.40312 0.89973 0.76521
 C794 C 0.41137 0.91274 0.78655
 N795 N 0.40171 0.93760 0.79128
 C796 C 0.38430 0.95018 0.77554
 C797 C 0.37626 0.93740 0.75385
 N798 N 0.38597 0.91234 0.74938
 N799 N 0.41304 0.87498 0.76029
 C800 C 0.43112 0.86273 0.77567
 C801 C 0.43991 0.87591 0.79687
 N802 N 0.42960 0.90063 0.80181
 H803 H 0.37773 0.97028 0.77960
 H804 H 0.43891 0.84311 0.77113
 C805 C 0.58295 0.91007 0.22825
 C806 C 0.58407 0.88252 0.23159
 N807 N 0.60118 0.87212 0.24876
 C808 C 0.61715 0.88807 0.26284
 C809 C 0.61562 0.91572 0.25989
 N810 N 0.59847 0.92603 0.24260
 N811 N 0.56624 0.92045 0.21078
 C812 C 0.55040 0.90451 0.19659
 C813 C 0.55093 0.87695 0.20030
 N814 N 0.56785 0.86663 0.21776
 H815 H 0.63042 0.87930 0.27656
 H816 H 0.53706 0.91335 0.18296
 C817 C 0.40205 0.21374 0.91223
 C818 C 0.41304 0.22642 0.89180
 N819 N 0.40407 0.25108 0.88606
 C820 C 0.38484 0.26402 0.89996
 C821 C 0.37368 0.25175 0.92105
 N822 N 0.38269 0.22654 0.92616
 N823 N 0.41135 0.18905 0.91807
 C824 C 0.43132 0.17659 0.90440
 C825 C 0.44244 0.18940 0.88390
 N826 N 0.43281 0.21403 0.87813
 H827 H 0.37826 0.28329 0.89374
 H828 H 0.43850 0.15701 0.90956
 C829 C 0.59588 0.79201 0.91050
 C830 C 0.57796 0.77640 0.89649
 N831 N 0.57991 0.74961 0.89762
 C832 C 0.59903 0.73762 0.91214
 C833 C 0.61733 0.75313 0.92593
 N834 N 0.61536 0.78006 0.92469
 N835 N 0.59333 0.81884 0.90980
 C836 C 0.57370 0.83076 0.89566
 C837 C 0.55610 0.81515 0.88127
 N838 N 0.55876 0.78830 0.88209
 H839 H 0.60028 0.71620 0.91258
 H840 H 0.57210 0.85217 0.89541
 C841 C 0.41034 0.75582 0.10277
 C842 C 0.41424 0.78249 0.09701
 N843 N 0.39996 0.79339 0.07827
 C844 C 0.38194 0.77883 0.06485
 C845 C 0.37807 0.75168 0.07021
 N846 N 0.39264 0.74118 0.08926
 N847 N 0.42455 0.74487 0.12159
 C848 C 0.44268 0.75946 0.13487
 C849 C 0.44698 0.78617 0.12889
 N850 N 0.43251 0.79701 0.11005
 H851 H 0.37177 0.78855 0.04983
 H852 H 0.45384 0.75021 0.14971
 C853 C 0.59796 0.22982 0.10165
 C854 C 0.59012 0.20474 0.09321
 N855 N 0.60220 0.19468 0.07272
 C856 C 0.62173 0.20860 0.06026
 C857 C 0.62957 0.23390 0.06862
 N858 N 0.61729 0.24370 0.08922
 N859 N 0.58585 0.24013 0.12196
 C860 C 0.56608 0.22655 0.13423
 C861 C 0.55786 0.20144 0.12581
 N862 N 0.57023 0.19109 0.10543
 H863 H 0.63039 0.20020 0.04371
 H864 H 0.55677 0.23541 0.15034
 C865 C 0.22091 0.08444 0.57718
 C866 C 0.23101 0.10830 0.56784
 N867 N 0.25542 0.11794 0.57616
 C868 C 0.27033 0.10474 0.59335
 C869 C 0.26041 0.08066 0.60276
 N870 N 0.23574 0.07126 0.59438
 N871 N 0.19640 0.07487 0.56898
 C872 C 0.18146 0.08813 0.55183
 C873 C 0.19147 0.11212 0.54243
 N874 N 0.21611 0.12157 0.55074
 H875 H 0.28939 0.11335 0.59988
 H876 H 0.16196 0.08002 0.54567
 C877 C 0.77076 0.08895 0.41407
 C878 C 0.75548 0.10285 0.43185
 N879 N 0.72737 0.10144 0.43200
 C880 C 0.71371 0.08666 0.41519
 C881 C 0.72887 0.07294 0.39685
 N882 N 0.75716 0.07477 0.39690
 N883 N 0.79895 0.08959 0.41441
 C884 C 0.81257 0.10366 0.43176
 C885 C 0.79727 0.11819 0.44921
 N886 N 0.76901 0.11746 0.44878
 H887 H 0.69127 0.08679 0.41575
 H888 H 0.83507 0.10392 0.43164
 C889 C 0.75809 0.89263 0.58899
 C890 C 0.78358 0.90168 0.57996
 N891 N 0.79460 0.92417 0.58926
 C892 C 0.78134 0.93800 0.60728
 C893 C 0.75576 0.92897 0.61647
 N894 N 0.74478 0.90647 0.60687
 N895 N 0.74706 0.87011 0.57978
 C896 C 0.76039 0.85616 0.56192
 C897 C 0.78595 0.86516 0.55274
 N898 N 0.79689 0.88783 0.56204
 H899 H 0.79049 0.95609 0.61397
 H900 H 0.75107 0.83825 0.55496
 C901 C 0.21525 0.91424 0.41300
 C902 C 0.23169 0.89780 0.42781
 N903 N 0.25954 0.89633 0.42396
 C904 C 0.27176 0.91055 0.40594
 C905 C 0.25536 0.92676 0.39080
 N906 N 0.22737 0.92811 0.39471
 N907 N 0.18747 0.91614 0.41723
 C908 C 0.17535 0.90229 0.43557
 C909 C 0.19167 0.88542 0.45017
 N910 N 0.21953 0.88362 0.44584
 H911 H 0.29399 0.90883 0.40317
 H912 H 0.15314 0.90412 0.43846
 C913 C 0.10816 0.41129 0.75676
 C914 C 0.09197 0.42765 0.77207
 N915 N 0.06385 0.42604 0.77148
 C916 C 0.05112 0.40876 0.75623
 C917 C 0.06724 0.39208 0.74106
 N918 N 0.09548 0.39373 0.74180
 N919 N 0.13627 0.41337 0.75699
 C920 C 0.14896 0.43108 0.77188
 C921 C 0.13281 0.44722 0.78751
 N922 N 0.10464 0.44502 0.78719
 H923 H 0.02866 0.40770 0.75628
 H924 H 0.17140 0.43236 0.77170
 C925 C 0.09168 0.59877 0.21877
 C926 C 0.11726 0.58844 0.22656
 N927 N 0.12850 0.59740 0.24757
 C928 C 0.11509 0.61582 0.26155
 C929 C 0.08881 0.62592 0.25430
 N930 N 0.07822 0.61721 0.23267
 N931 N 0.08025 0.58956 0.19785
 C932 C 0.09320 0.57025 0.18449
 C933 C 0.11876 0.55962 0.19242
 N934 N 0.13021 0.56921 0.21326
 H935 H 0.12543 0.62260 0.27777
 H936 H 0.08349 0.56313 0.16800
 C937 C 0.90113 0.41290 0.22812
 C938 C 0.87650 0.42490 0.23653
 N939 N 0.86672 0.41886 0.25898
 C940 C 0.88069 0.40175 0.27369
 C941 C 0.90602 0.38996 0.26569
 N942 N 0.91511 0.39578 0.24274
 N943 N 0.91113 0.41915 0.20575
 C944 C 0.89768 0.43710 0.19148
 C945 C 0.87307 0.44941 0.19997
 N946 N 0.86301 0.44279 0.22232
 H947 H 0.87148 0.39730 0.29111
 H948 H 0.90627 0.44185 0.17380
 C949 C 0.91108 0.57803 0.76437
 C950 C 0.90769 0.58449 0.78907
 N951 N 0.91744 0.60789 0.79752
 C952 C 0.93020 0.62530 0.78239
 C953 C 0.93391 0.61890 0.75745
 N954 N 0.92435 0.59508 0.74938
 N955 N 0.90039 0.55517 0.75557
 C956 C 0.88634 0.53845 0.77040
 C957 C 0.88326 0.54461 0.79525
 N958 N 0.89418 0.56750 0.80408
 H959 H 0.93809 0.64340 0.79017
 H960 H 0.87786 0.52038 0.76293
 C961 C 0.77322 0.59462 0.89363
 C962 C 0.79880 0.58529 0.90245
 N963 N 0.80932 0.59579 0.92321
 C964 C 0.79539 0.61521 0.93563
 C965 C 0.76957 0.62460 0.92696
 N966 N 0.75923 0.61388 0.90607
 N967 N 0.76258 0.58399 0.87296
 C968 C 0.77633 0.56431 0.86074
 C969 C 0.80188 0.55468 0.86966
 N970 N 0.81248 0.56555 0.89035
 H971 H 0.80411 0.62261 0.95242
 H972 H 0.76727 0.55614 0.84438
 C973 C 0.22890 0.41073 0.90217
 C974 C 0.19978 0.41107 0.90068
 N975 N 0.18492 0.39355 0.91406
 C976 C 0.19791 0.37576 0.92889
 C977 C 0.22705 0.37580 0.93072
 N978 N 0.24177 0.39338 0.91726
 N979 N 0.24393 0.42762 0.88840
 C980 C 0.23117 0.44498 0.87318
 C981 C 0.20198 0.44583 0.87190
 N982 N 0.18691 0.42881 0.88579
 H983 H 0.18564 0.36203 0.93940
 H984 H 0.24373 0.45833 0.86251
 C985 C 0.21722 0.58387 0.08152
 C986 C 0.23256 0.56446 0.09394
 N987 N 0.26043 0.56275 0.09062
 C988 C 0.27384 0.57963 0.07549
 C989 C 0.25876 0.59987 0.06341
 N990 N 0.23065 0.60128 0.06697
 N991 N 0.18916 0.58506 0.08429
 C992 C 0.17579 0.56777 0.09913
 C993 C 0.19128 0.54892 0.11225
 N994 N 0.21936 0.54774 0.10928
 H995 H 0.29618 0.57788 0.07418
 H996 H 0.15344 0.56919 0.10117
 C997 C 0.76905 0.41586 0.09383
 C998 C 0.79798 0.41417 0.09642
 N999 N 0.81212 0.39392 0.08554
 C1000 C 0.79869 0.37513 0.07232
 C1001 C 0.76949 0.37679 0.06938
 N1002 N 0.75570 0.39751 0.08024
 N1003 N 0.75463 0.43550 0.10536
 C1004 C 0.76787 0.45356 0.11945
 C1005 C 0.79694 0.45225 0.12180
 N1006 N 0.81138 0.43257 0.11008
 H1007 H 0.81105 0.35979 0.06362
 H1008 H 0.75587 0.46899 0.12852
 C1009 C 0.90312 0.76946 0.58888
 C1010 C 0.88151 0.75553 0.57784
 N1011 N 0.87598 0.73053 0.58520
 C1012 C 0.89121 0.71866 0.60297
 C1013 C 0.91317 0.73252 0.61428
 N1014 N 0.91814 0.75779 0.60678
 N1015 N 0.90895 0.79437 0.58141
 C1016 C 0.89406 0.80602 0.56332
 C1017 C 0.87214 0.79221 0.55230
 N1018 N 0.86638 0.76721 0.55994
 H1019 H 0.88533 0.69899 0.60844
 H1020 H 0.89914 0.82595 0.55779
 C1021 C 0.90545 0.22760 0.41489
 C1022 C 0.89248 0.24042 0.43464
 N1023 N 0.89495 0.26698 0.43734
 C1024 C 0.90986 0.28145 0.42120
 C1025 C 0.92251 0.26886 0.40086
 N1026 N 0.91967 0.24210 0.39835
 N1027 N 0.90387 0.20084 0.41271
 C1028 C 0.88975 0.18634 0.42943
 C1029 C 0.87608 0.19929 0.44882
 N1030 N 0.87777 0.22608 0.45093
 H1031 H 0.91048 0.30265 0.42382
 H1032 H 0.88878 0.16502 0.42739
 C1033 C 0.08661 0.21964 0.58429
 C1034 C 0.10751 0.23144 0.57038
 N1035 N 0.11488 0.25675 0.57527
 C1036 C 0.10211 0.27100 0.59328
 C1037 C 0.08084 0.25934 0.60741
 N1038 N 0.07405 0.23369 0.60240
 N1039 N 0.07884 0.19446 0.57923
 C1040 C 0.09108 0.18050 0.56079
 C1041 C 0.11223 0.19220 0.54686
 N1042 N 0.11998 0.21746 0.55211
 H1043 H 0.10931 0.29084 0.59665
 H1044 H 0.08447 0.16044 0.55717
 C1045 C 0.09632 0.76595 0.41945
 C1046 C 0.09446 0.79361 0.41783
 N1047 N 0.08025 0.80476 0.39914
 C1048 C 0.06788 0.78955 0.38186
 C1049 C 0.06918 0.76159 0.38355
 N1050 N 0.08337 0.75074 0.40262
 N1051 N 0.11141 0.75470 0.43759
 C1052 C 0.12469 0.76994 0.45428
 C1053 C 0.12228 0.79767 0.45310
 N1054 N 0.10709 0.80887 0.43487
 H1055 H 0.05628 0.79943 0.36769
 H1056 H 0.13657 0.76051 0.46860
 C1057 C 0.59306 0.90146 0.76759
 C1058 C 0.57157 0.91652 0.77826
 N1059 N 0.56958 0.94279 0.77353
 C1060 C 0.58802 0.95479 0.75848
 C1061 C 0.61006 0.93990 0.74784
 N1062 N 0.61190 0.91350 0.75303
 N1063 N 0.59454 0.87497 0.77170
 C1064 C 0.57544 0.86287 0.78607
 C1065 C 0.55422 0.87804 0.79721
 N1066 N 0.55288 0.90459 0.79305
 H1067 H 0.58593 0.97592 0.75591
 H1068 H 0.57703 0.84172 0.78905
 C1069 C 0.40007 0.88608 0.23291
 C1070 C 0.40487 0.89514 0.20922
 N1071 N 0.39028 0.91638 0.20093
 C1072 C 0.37131 0.92923 0.21532
 C1073 C 0.36686 0.92072 0.23959
 N1074 N 0.38153 0.89907 0.24736
 N1075 N 0.41456 0.86488 0.24138
 C1076 C 0.43397 0.85245 0.22727
 C1077 C 0.43944 0.86184 0.20364
 N1078 N 0.42455 0.88298 0.19514
 H1079 H 0.36096 0.94639 0.20784
 H1080 H 0.44539 0.83574 0.23465
 C1081 C 0.58854 0.10617 0.23725
 C1082 C 0.58260 0.09454 0.21466
 N1083 N 0.59380 0.07052 0.20893
 C1084 C 0.61062 0.05745 0.22481
 C1085 C 0.61649 0.06888 0.24767
 N1086 N 0.60517 0.09308 0.25318
 N1087 N 0.57706 0.13006 0.24312
 C1088 C 0.55966 0.14280 0.22746
 C1089 C 0.55331 0.13101 0.20493
 N1090 N 0.56512 0.10714 0.19909
 H1091 H 0.61851 0.03803 0.21984
 H1092 H 0.55062 0.16171 0.23272
 C1093 C 0.41977 0.08661 0.77427
 C1094 C 0.42015 0.11431 0.77222
 N1095 N 0.40398 0.12643 0.75531
 C1096 C 0.38742 0.11211 0.74030
 C1097 C 0.38725 0.08430 0.74200
 N1098 N 0.40358 0.07224 0.75900
 N1099 N 0.43560 0.07455 0.79148
 C1100 C 0.45193 0.08893 0.80668
 C1101 C 0.45281 0.11667 0.80436
 N1102 N 0.43680 0.12864 0.78710
 H1103 H 0.37492 0.12230 0.72685
 H1104 H 0.46448 0.07876 0.82010
 C1105 C 0.60212 0.77140 0.10003
 C1106 C 0.58880 0.79408 0.09083
 N1107 N 0.59563 0.80283 0.06823
 C1108 C 0.61505 0.78982 0.05439
 C1109 C 0.62817 0.76680 0.06347
 N1110 N 0.62124 0.75836 0.08619
 N1111 N 0.59529 0.76237 0.12245
 C1112 C 0.57550 0.77484 0.13609
 C1113 C 0.56166 0.79737 0.12687
 N1114 N 0.56881 0.80654 0.10439
 H1115 H 0.61947 0.79698 0.03626
 H1116 H 0.57042 0.76699 0.15385
 C1117 C 0.40500 0.21395 0.08319
 C1118 C 0.42144 0.23035 0.09782
 N1119 N 0.41866 0.25707 0.09611
 C1120 C 0.40009 0.26816 0.08047
 C1121 C 0.38317 0.25181 0.06612
 N1122 N 0.38604 0.22500 0.06793
 N1123 N 0.40830 0.18724 0.08445
 C1124 C 0.42729 0.17617 0.09974
 C1125 C 0.44340 0.19252 0.11479
 N1126 N 0.44001 0.21930 0.11344
 H1127 H 0.39806 0.28952 0.07967
 H1128 H 0.42949 0.15482 0.10040
 C1129 C 0.59192 0.23326 0.90919
 C1130 C 0.59263 0.20551 0.91084
 N1131 N 0.61170 0.19359 0.92544
 C1132 C 0.63015 0.20816 0.93843
 C1133 C 0.62931 0.23600 0.93703
 N1134 N 0.61003 0.24782 0.92243
 N1135 N 0.57334 0.24519 0.89416
 C1136 C 0.55540 0.23064 0.88066
 C1137 C 0.55575 0.20284 0.88247
 N1138 N 0.57441 0.19095 0.89765
 H1139 H 0.64503 0.19815 0.95003
 H1140 H 0.54080 0.24072 0.86883
 C1141 C 0.40879 0.78533 0.91388
 C1142 C 0.42834 0.77123 0.89970
 N1143 N 0.43041 0.74452 0.90178
 C1144 C 0.41373 0.73116 0.91738
 C1145 C 0.39375 0.74509 0.93130
 N1146 N 0.39170 0.77194 0.92913
 N1147 N 0.40738 0.81216 0.91225
 C1148 C 0.42465 0.82554 0.89705
 C1149 C 0.44384 0.81138 0.88250
 N1150 N 0.44513 0.78451 0.88423
 H1151 H 0.41560 0.70981 0.91851
 H1152 H 0.42321 0.84693 0.89614
 C1153 C 0.75012 0.89040 0.41865
 C1154 C 0.77571 0.90003 0.42672
 N1155 N 0.78517 0.92343 0.41817
 C1156 C 0.77027 0.93767 0.40171
 C1157 C 0.74463 0.92806 0.39334
 N1158 N 0.73517 0.90461 0.40223
 N1159 N 0.74065 0.86701 0.42737
 C1160 C 0.75566 0.85281 0.44386
 C1161 C 0.78131 0.86247 0.45202
 N1162 N 0.79063 0.88593 0.44316
 H1163 H 0.77823 0.95648 0.39562
 H1164 H 0.74758 0.83427 0.45056
 C1165 C 0.22046 0.91797 0.58632
 C1166 C 0.23592 0.90099 0.57100
 N1167 N 0.26404 0.90013 0.57288
 C1168 C 0.27744 0.91549 0.58940
 C1169 C 0.26203 0.93230 0.60503
 N1170 N 0.23379 0.93301 0.60311
 N1171 N 0.19239 0.91926 0.58404
 C1172 C 0.17904 0.90431 0.56714
 C1173 C 0.19443 0.88698 0.55199
 N1174 N 0.22259 0.88576 0.55438
 H1175 H 0.29986 0.91421 0.59064
 H1176 H 0.15664 0.90574 0.56573
 C1177 C 0.21511 0.08275 0.40665
 C1178 C 0.22622 0.10649 0.41543
 N1179 N 0.25102 0.11490 0.40670
 C1180 C 0.26537 0.10051 0.38973
 C1181 C 0.25450 0.07642 0.38106
 N1182 N 0.22942 0.06836 0.38977
 N1183 N 0.19028 0.07432 0.41528
 C1184 C 0.17607 0.08854 0.43243
 C1185 C 0.18721 0.11229 0.44145
 N1186 N 0.21209 0.12070 0.43261
 H1187 H 0.28482 0.10810 0.38291
 H1188 H 0.15638 0.08124 0.43904
 C1189 C 0.76441 0.09879 0.58662
 C1190 C 0.79329 0.09543 0.58428
 N1191 N 0.80713 0.07958 0.60017
 C1192 C 0.79336 0.06686 0.61830
 C1193 C 0.76435 0.06985 0.62043
 N1194 N 0.75063 0.08578 0.60443
 N1195 N 0.75059 0.11504 0.57110
 C1196 C 0.76435 0.12811 0.55324
 C1197 C 0.79322 0.12449 0.55055
 N1198 N 0.80701 0.10814 0.56619
 H1199 H 0.80484 0.05411 0.63056
 H1200 H 0.75280 0.14093 0.54108
 C1201 C 0.89584 0.59409 0.23519
 C1202 C 0.91185 0.57693 0.22048
 N1203 N 0.94000 0.57741 0.22204
 C1204 C 0.95288 0.59425 0.23767
 C1205 C 0.93692 0.61169 0.25229
 N1206 N 0.90868 0.61119 0.25052
 N1207 N 0.86769 0.59314 0.23417
 C1208 C 0.85478 0.57571 0.21915
 C1209 C 0.87070 0.55863 0.20418
 N1210 N 0.89897 0.55976 0.20518
 H1211 H 0.97535 0.59434 0.23839
 H1212 H 0.83229 0.57529 0.21882
 C1213 C 0.91302 0.39992 0.77887
 C1214 C 0.88532 0.40598 0.77302
 N1215 N 0.87313 0.39360 0.75396
 C1216 C 0.88757 0.37582 0.74006
 C1217 C 0.91573 0.37037 0.74521
 N1218 N 0.92759 0.38238 0.76483
 N1219 N 0.92516 0.41234 0.79799
 C1220 C 0.91094 0.43083 0.81134
 C1221 C 0.88340 0.43746 0.80510
 N1222 N 0.87126 0.42464 0.78612
 H1223 H 0.87710 0.36619 0.72511
 H1224 H 0.92126 0.44066 0.82629
 C1225 C 0.10956 0.59549 0.76216
 C1226 C 0.09714 0.58826 0.78428
 N1227 N 0.07308 0.60032 0.79142
 C1228 C 0.06078 0.61920 0.77737
 C1229 C 0.07296 0.62627 0.75496
 N1230 N 0.09715 0.61409 0.74802
 N1231 N 0.13359 0.58349 0.75495
 C1232 C 0.14576 0.56443 0.76883
 C1233 C 0.13320 0.55679 0.79087
 N1234 N 0.10912 0.56902 0.79807
 H1235 H 0.04125 0.62791 0.78331
 H1236 H 0.16487 0.55514 0.76253
 C1237 C 0.09830 0.41828 0.23907
 C1238 C 0.08175 0.43383 0.22356
 N1239 N 0.05365 0.43296 0.22558
 C1240 C 0.04132 0.41723 0.24242
 C1241 C 0.05782 0.40134 0.25774
 N1242 N 0.08600 0.40222 0.25558
 N1243 N 0.12640 0.41972 0.23757
 C1244 C 0.13875 0.43605 0.22126
 C1245 C 0.12227 0.45137 0.20545
 N1246 N 0.09408 0.44980 0.20696
 H1247 H 0.01886 0.41676 0.24356
 H1248 H 0.16121 0.43688 0.22049
   
