data_POSCAR
  _audit_creation_date              2014-09-24
  _audit_creation_method            'ToBaCCo'
  _symmetry_space_group_name_H-M    'P1'
  _symmetry_Int_Tables_number       1
  _symmetry_cell_setting            triclinic
  loop_
  _symmetry_equiv_pos_as_xyz
 x,y,z
_cell_length_a 41.4240
_cell_length_b 42.0162
_cell_length_c 42.4386
_cell_angle_alpha 88.974600
_cell_angle_beta 91.858600
_cell_angle_gamma 89.345500
loop_
  _atom_site_label
  _atom_site_type_symbol
  _atom_site_fract_x
  _atom_site_fract_y
  _atom_site_fract_z
C1 C 0.71869 0.67126 0.96052
 H2 H 0.74052 0.67164 0.94721
 C3 C 0.68999 0.68445 0.94735
 H4 H 0.69005 0.69513 0.92394
 C5 C 0.69132 0.65411 1.00581
 H6 H 0.69130 0.64128 1.02802
 C7 C 0.66233 0.66710 0.99370
 H8 H 0.64077 0.66477 1.00727
 N9 N 0.71865 0.65571 0.98893
 C10 C 0.81525 0.63355 1.02826
 H11 H 0.81078 0.60850 1.03217
 C12 C 0.84505 0.64604 1.03708
 H13 H 0.86309 0.63049 1.04844
 C14 C 0.79662 0.68400 1.00897
 H15 H 0.77765 0.69847 0.99771
 C16 C 0.82635 0.69763 1.01757
 H17 H 0.83011 0.72271 1.01291
 Zn18 Zn 0.75452 0.62953 1.00190
 N19 N 0.79190 0.65236 1.01415
 C20 C 0.79459 0.60728 0.95502
 N21 N 0.76487 0.60377 0.96722
 C22 C 0.74246 0.58468 0.95325
 C23 C 0.74996 0.56774 0.92622
 C24 C 0.80302 0.59094 0.92827
 C25 C 0.74072 0.62186 1.06457
 C26 C 0.72952 0.60754 1.09188
 C27 C 0.72548 0.55805 1.06414
 C28 C 0.73669 0.57357 1.03722
 N29 N 0.74311 0.60514 1.03772
 H30 H 0.81173 0.62345 0.96544
 H31 H 0.71865 0.58295 0.96284
 H32 H 0.73201 0.55247 0.91544
 H33 H 0.82664 0.59476 0.91875
 H34 H 0.74611 0.64700 1.06431
 H35 H 0.72585 0.62323 1.11131
 H36 H 0.72157 0.53278 1.06244
 H37 H 0.73974 0.56043 1.01585
 C38 C 0.85118 0.67837 1.03144
 C39 C 0.66109 0.68148 0.96361
 C40 C 0.72063 0.57502 1.09231
 C41 C 0.78072 0.57071 0.91352
 C42 C 0.72476 0.34596 0.54753
 H43 H 0.74909 0.34583 0.55759
 C44 C 0.70066 0.32889 0.56244
 H45 H 0.70684 0.31508 0.58361
 C46 C 0.68686 0.36527 0.50857
 H47 H 0.68110 0.38038 0.48832
 C48 C 0.66208 0.34865 0.52271
 H49 H 0.63769 0.35122 0.51296
 N50 N 0.71752 0.36373 0.52108
 C51 C 0.80457 0.38194 0.46898
 H52 H 0.80003 0.40680 0.46322
 C53 C 0.83071 0.36617 0.45610
 H54 H 0.84638 0.37912 0.44060
 C55 C 0.78961 0.33490 0.49620
 H56 H 0.77330 0.32266 0.51145
 C57 C 0.81579 0.31829 0.48413
 H58 H 0.81941 0.29334 0.49023
 Zn59 Zn 0.74973 0.39028 0.50419
 N60 N 0.78472 0.36627 0.48874
 C61 C 0.79623 0.42462 0.53987
 N62 N 0.76443 0.41725 0.53671
 C63 C 0.74272 0.42720 0.55794
 C64 C 0.75295 0.44445 0.58421
 C65 C 0.80738 0.44227 0.56546
 C66 C 0.72143 0.39825 0.44432
 C67 C 0.70570 0.41416 0.41907
 C68 C 0.71333 0.46377 0.44623
 C69 C 0.72842 0.44677 0.47136
 N70 N 0.73161 0.41455 0.47011
 H71 H 0.81314 0.41629 0.52294
 H72 H 0.71757 0.42095 0.55492
 H73 H 0.73557 0.45159 0.60133
 H74 H 0.83291 0.44726 0.56806
 H75 H 0.72467 0.37267 0.44390
 H76 H 0.69675 0.40085 0.39905
 H77 H 0.71022 0.48934 0.44753
 H78 H 0.73705 0.45920 0.49201
 C79 C 0.83662 0.33397 0.46372
 C80 C 0.66871 0.33047 0.55024
 C81 C 0.70128 0.44719 0.42011
 C82 C 0.78570 0.45194 0.58827
 C83 C 0.22126 -0.17222 0.03234
 H84 H 0.24506 -0.17654 0.04290
 C85 C 0.19466 -0.18860 0.04385
 H86 H 0.19843 -0.20600 0.06277
 C87 C 0.18720 -0.14365 -0.00431
 H88 H 0.18391 -0.12541 -0.02238
 C89 C 0.16013 -0.15932 0.00646
 H90 H 0.13660 -0.15275 -0.00362
 N91 N 0.21711 -0.15012 0.00865
 C92 C 0.30941 -0.13105 -0.03512
 H93 H 0.30543 -0.10586 -0.03894
 C94 C 0.33461 -0.14595 -0.05018
 H95 H 0.35028 -0.13192 -0.06477
 C96 C 0.29197 -0.18044 -0.01438
 H97 H 0.27451 -0.19397 -0.00157
 C98 C 0.31734 -0.19639 -0.02889
 H99 H 0.31943 -0.22207 -0.02691
 Zn100 Zn 0.25145 -0.12425 -0.00608
 N101 N 0.28832 -0.14827 -0.01802
 C102 C 0.28518 -0.07100 0.01834
 N103 N 0.26385 -0.09431 0.02527
 C104 C 0.25310 -0.09813 0.05507
 C105 C 0.26539 -0.07956 0.07959
 C106 C 0.29809 -0.05191 0.04213
 C107 C 0.23243 -0.12516 -0.06771
 C108 C 0.21990 -0.11529 -0.09702
 C109 C 0.21573 -0.06181 -0.07756
 C110 C 0.22863 -0.07292 -0.04835
 N111 N 0.23616 -0.10426 -0.04399
 H112 H 0.29277 -0.06751 -0.00553
 H113 H 0.23590 -0.11643 0.06026
 H114 H 0.25772 -0.08417 0.10337
 H115 H 0.31562 -0.03403 0.03620
 H116 H 0.23915 -0.14990 -0.06371
 H117 H 0.21925 -0.13304 -0.11511
 H118 H 0.20847 -0.03705 -0.07916
 H119 H 0.23168 -0.05673 -0.02899
 C120 C 0.33840 -0.17901 -0.04769
 C121 C 0.16348 -0.18201 0.03101
 C122 C 0.21016 -0.08322 -0.10268
 C123 C 0.28892 -0.05669 0.07342
 C124 C 0.21269 0.17776 0.45026
 H125 H 0.23449 0.17505 0.43714
 C126 C 0.18718 0.19662 0.43792
 H127 H 0.18958 0.20797 0.41503
 C128 C 0.18258 0.16424 0.49496
 H129 H 0.18060 0.15118 0.51693
 C130 C 0.15665 0.18323 0.48373
 H131 H 0.13529 0.18494 0.49765
 N132 N 0.20984 0.16174 0.47811
 C133 C 0.30430 0.13914 0.52135
 H134 H 0.30290 0.11345 0.52269
 C135 C 0.33098 0.15449 0.53467
 H136 H 0.34992 0.14042 0.54655
 C137 C 0.28044 0.18860 0.50533
 H138 H 0.26054 0.20176 0.49408
 C139 C 0.30670 0.20496 0.51837
 H140 H 0.30692 0.23070 0.51668
 Zn141 Zn 0.24381 0.13347 0.49117
 N142 N 0.27976 0.15627 0.50702
 C143 C 0.28641 0.11135 0.44580
 N144 N 0.25554 0.10976 0.45561
 C145 C 0.23261 0.09349 0.43898
 C146 C 0.24047 0.07790 0.41133
 C147 C 0.29519 0.09642 0.41828
 C148 C 0.22690 0.11999 0.55281
 C149 C 0.21509 0.10228 0.57793
 C150 C 0.21076 0.05694 0.54386
 C151 C 0.22300 0.07545 0.51944
 N152 N 0.22999 0.10660 0.52411
 H153 H 0.30417 0.12487 0.45883
 H154 H 0.20803 0.09322 0.44686
 H155 H 0.22192 0.06553 0.39800
 H156 H 0.31985 0.09820 0.41073
 H157 H 0.23290 0.14475 0.55591
 H158 H 0.21171 0.11364 0.60031
 H159 H 0.20456 0.03237 0.53965
 H160 H 0.22626 0.06503 0.49669
 C161 C 0.33237 0.18787 0.53342
 C162 C 0.15845 0.19932 0.45453
 C163 C 0.20629 0.07052 0.57340
 C164 C 0.27203 0.07975 0.40049
 C165 C 0.19131 0.44316 0.20650
 H166 H 0.19526 0.43675 0.23113
 C167 C 0.20849 0.42736 0.18349
 H168 H 0.22612 0.40923 0.19074
 C169 C 0.16282 0.47382 0.16710
 H170 H 0.14413 0.49102 0.16057
 C171 C 0.17928 0.45860 0.14342
 H172 H 0.17299 0.46451 0.11903
 N173 N 0.16913 0.46610 0.19797
 C174 C 0.14891 0.51975 0.28198
 H175 H 0.12327 0.52202 0.27661
 C176 C 0.16164 0.53195 0.30982
 H177 H 0.14543 0.54344 0.32570
 C178 C 0.20032 0.49995 0.26836
 H179 H 0.21515 0.48724 0.25218
 C180 C 0.21425 0.51206 0.29619
 H181 H 0.23991 0.50886 0.30107
 Zn182 Zn 0.14363 0.48557 0.22871
 N183 N 0.16801 0.50353 0.26223
 C184 C 0.12180 0.44622 0.27720
 N185 N 0.11637 0.45440 0.24631
 C186 C 0.09269 0.44027 0.22871
 C187 C 0.07244 0.41791 0.24265
 C188 C 0.10212 0.42440 0.29200
 C189 C 0.13773 0.54290 0.19629
 C190 C 0.12290 0.56976 0.18238
 C191 C 0.07126 0.54989 0.19836
 C192 C 0.08708 0.52290 0.21140
 N193 N 0.11974 0.51989 0.20991
 H194 H 0.14156 0.45644 0.29058
 H195 H 0.08926 0.44668 0.20402
 H196 H 0.05326 0.40722 0.22866
 H197 H 0.10685 0.41838 0.31666
 H198 H 0.16373 0.54019 0.19615
 H199 H 0.13753 0.58780 0.17145
 H200 H 0.04528 0.55229 0.19971
 H201 H 0.07337 0.50476 0.22317
 C202 C 0.19468 0.52808 0.31746
 C203 C 0.20237 0.43489 0.15140
 C204 C 0.08932 0.57347 0.18341
 C205 C 0.07680 0.41027 0.27488
 C206 C -0.16399 0.02887 0.24153
 H207 H -0.16503 0.03960 0.26446
 C208 C -0.17845 0.04443 0.21525
 H209 H -0.19196 0.06611 0.21908
 C210 C -0.14426 -0.01192 0.20940
 H211 H -0.12949 -0.03293 0.20672
 C212 C -0.15867 0.00257 0.18253
 H213 H -0.15427 -0.00810 0.16006
 N214 N -0.14644 0.00173 0.23809
 C215 C -0.12402 -0.04271 0.33056
 H216 H -0.09897 -0.04847 0.32665
 C217 C -0.13790 -0.05242 0.35858
 H218 H -0.12339 -0.06592 0.37591
 C219 C -0.17338 -0.01896 0.31216
 H220 H -0.18710 -0.00591 0.29401
 C221 C -0.18834 -0.02834 0.33993
 H222 H -0.21348 -0.02216 0.34295
 Zn223 Zn -0.11871 -0.01235 0.27237
 N224 N -0.14159 -0.02583 0.30825
 C225 C -0.07941 0.02536 0.31295
 N226 N -0.09195 0.02243 0.28313
 C227 C -0.08722 0.04522 0.26060
 C228 C -0.07073 0.07299 0.26809
 C229 C -0.06235 0.05256 0.32133
 C230 C -0.10818 -0.07398 0.25110
 C231 C -0.09076 -0.09907 0.23854
 C232 C -0.04192 -0.06889 0.24630
 C233 C -0.06044 -0.04406 0.25805
 N234 N -0.09301 -0.04680 0.25954
 H235 H -0.08324 0.00707 0.33053
 H236 H -0.09685 0.04220 0.23688
 H237 H -0.06787 0.09127 0.25011
 H238 H -0.05338 0.05500 0.34541
 H239 H -0.13412 -0.07554 0.25279
 H240 H -0.10384 -0.11955 0.23014
 H241 H -0.01604 -0.06615 0.24527
 H242 H -0.04885 -0.02237 0.26541
 C243 C -0.17040 -0.04499 0.36376
 C244 C -0.17498 0.03208 0.18475
 C245 C -0.05714 -0.09661 0.23552
 C246 C -0.05848 0.07704 0.29890
 C247 C 0.31288 0.52635 0.70803
 H248 H 0.30934 0.53846 0.72996
 C249 C 0.29327 0.53410 0.68160
 H250 H 0.27494 0.55248 0.68346
 C251 C 0.34235 0.48906 0.67880
 H252 H 0.36161 0.47162 0.67771
 C253 C 0.32324 0.49604 0.65175
 H254 H 0.32790 0.48370 0.63016
 N255 N 0.33743 0.50480 0.70602
 C256 C 0.35911 0.48509 0.80584
 H257 H 0.38435 0.49081 0.80732
 C258 C 0.34453 0.47304 0.83251
 H259 H 0.35869 0.47027 0.85431
 C260 C 0.31056 0.47966 0.77549
 H261 H 0.29772 0.48111 0.75294
 C262 C 0.29492 0.46741 0.80178
 H263 H 0.27014 0.45968 0.79929
 Zn264 Zn 0.36617 0.49862 0.74157
 N265 N 0.34233 0.48773 0.77784
 C266 C 0.41466 0.53668 0.77081
 N267 N 0.38983 0.53681 0.74899
 C268 C 0.38053 0.56428 0.73361
 C269 C 0.39403 0.59329 0.74213
 C270 C 0.42869 0.56524 0.78029
 C271 C 0.38926 0.43563 0.74806
 C272 C 0.40740 0.40880 0.74055
 C273 C 0.43745 0.44149 0.70472
 C274 C 0.41880 0.46781 0.71306
 N275 N 0.39482 0.46429 0.73394
 H276 H 0.42319 0.51450 0.78148
 H277 H 0.36196 0.56411 0.71525
 H278 H 0.38554 0.61490 0.73012
 H279 H 0.44701 0.56466 0.79906
 H280 H 0.36980 0.43315 0.76422
 H281 H 0.40157 0.38599 0.75104
 H282 H 0.45592 0.44450 0.68748
 H283 H 0.42268 0.49083 0.70210
 C284 C 0.31234 0.46316 0.83047
 C285 C 0.29870 0.51931 0.65277
 C286 C 0.43139 0.41136 0.71810
 C287 C 0.41756 0.59422 0.76665
 C288 C 0.66761 0.95477 0.73478
 H289 H 0.66686 0.94420 0.75818
 C290 C 0.68192 0.93814 0.71056
 H291 H 0.69258 0.91488 0.71561
 C292 C 0.65315 0.99726 0.69945
 H293 H 0.64094 1.01979 0.69489
 C294 C 0.66730 0.98153 0.67459
 H295 H 0.66574 0.99220 0.65116
 N296 N 0.65307 0.98349 0.72872
 C297 C 0.63798 1.02715 0.81944
 H298 H 0.61216 1.03102 0.81673
 C299 C 0.65395 1.03505 0.84749
 H300 H 0.63889 1.04367 0.86581
 C301 C 0.68652 1.00808 0.79855
 H302 H 0.69903 0.99760 0.77925
 C303 C 0.70386 1.01672 0.82592
 H304 H 0.72972 1.01330 0.82606
 Zn305 Zn 0.62817 1.00174 0.76054
 N306 N 0.65410 1.01311 0.79604
 C307 C 0.59840 0.96053 0.80366
 N308 N 0.59760 0.97083 0.77306
 C309 C 0.57735 0.95740 0.75126
 C310 C 0.55671 0.93279 0.76012
 C311 C 0.57788 0.93667 0.81357
 C312 C 0.62884 1.06436 0.74069
 C313 C 0.61782 1.09310 0.72727
 C314 C 0.56413 1.07137 0.72310
 C315 C 0.57623 1.04290 0.73690
 N316 N 0.60827 1.03977 0.74464
 H317 H 0.61558 0.96999 0.82050
 H318 H 0.57775 0.96531 0.72688
 H319 H 0.54098 0.92197 0.74259
 H320 H 0.57928 0.92862 0.83798
 H321 H 0.65413 1.06132 0.74737
 H322 H 0.63480 1.11219 0.72404
 H323 H 0.53888 1.07311 0.71581
 H324 H 0.56024 1.02313 0.74055
 C325 C 0.68776 1.03035 0.85153
 C326 C 0.68117 0.95119 0.67980
 C327 C 0.58525 1.09668 0.71750
 C328 C 0.55680 0.92240 0.79175
 C329 C 0.04154 0.19998 -0.16777
 H330 H 0.05592 0.22107 -0.17076
 C331 C 0.04966 0.17209 -0.18337
 H332 H 0.07029 0.17201 -0.19839
 C333 C -0.00129 0.17370 -0.14282
 H334 H -0.02089 0.17407 -0.12670
 C335 C 0.00603 0.14540 -0.15782
 H336 H -0.00828 0.12450 -0.15329
 N337 N 0.01673 0.20017 -0.14752
 C338 C -0.02270 0.29477 -0.13176
 H339 H -0.02812 0.29096 -0.10725
 C340 C -0.03414 0.32221 -0.14740
 H341 H -0.04797 0.33947 -0.13462
 C342 C 0.00157 0.27681 -0.17810
 H343 H 0.01530 0.25896 -0.19003
 C344 C -0.00921 0.30432 -0.19469
 H345 H -0.00385 0.30735 -0.21936
 Zn346 Zn 0.00831 0.23626 -0.12244
 N347 N -0.00534 0.27258 -0.14714
 C348 C 0.04443 0.27427 -0.08142
 N349 N 0.04568 0.24694 -0.09800
 C350 C 0.07291 0.22846 -0.09744
 C351 C 0.10062 0.23787 -0.08047
 C352 C 0.07151 0.28466 -0.06442
 C353 C -0.05607 0.22793 -0.10648
 C354 C -0.08144 0.21703 -0.08862
 C355 C -0.04271 0.20098 -0.04751
 C356 C -0.01813 0.21271 -0.06613
 N357 N -0.02517 0.22544 -0.09516
 H358 H 0.02255 0.28844 -0.08180
 H359 H 0.07328 0.20643 -0.11017
 H360 H 0.12204 0.22286 -0.08031
 H361 H 0.07012 0.30718 -0.05252
 H362 H -0.06104 0.23803 -0.12978
 H363 H -0.10542 0.22134 -0.09857
 H364 H -0.03510 0.18929 -0.02564
 H365 H 0.00680 0.21037 -0.05793
 C366 C -0.02761 0.32721 -0.17930
 C367 C 0.03216 0.14416 -0.17793
 C368 C -0.07543 0.20209 -0.05869
 C369 C 0.10025 0.26655 -0.06391
 C370 C 0.47837 0.23749 0.17758
 H371 H 0.46981 0.26188 0.17733
 C372 C 0.45793 0.21316 0.18719
 H373 H 0.43423 0.21923 0.19546
 C374 C 0.51840 0.19965 0.16466
 H375 H 0.54107 0.19399 0.15426
 C376 C 0.49885 0.17471 0.17407
 H377 H 0.50722 0.15046 0.17117
 N378 N 0.50789 0.23040 0.16622
 C379 C 0.57562 0.30708 0.16517
 H380 H 0.58989 0.29617 0.14740
 C381 C 0.58773 0.33355 0.18055
 H382 H 0.61134 0.34223 0.17465
 C383 C 0.52672 0.31081 0.19237
 H384 H 0.50269 0.30230 0.19637
 C385 C 0.53784 0.33784 0.20811
 H386 H 0.52245 0.34964 0.22454
 Zn387 Zn 0.53058 0.26284 0.14473
 N388 N 0.54563 0.29610 0.17120
 C389 C 0.49271 0.31118 0.11483
 N390 N 0.50111 0.27988 0.11406
 C391 C 0.48580 0.25963 0.09407
 C392 C 0.46033 0.27059 0.07424
 C393 C 0.46709 0.32300 0.09587
 C394 C 0.58960 0.23108 0.14608
 C395 C 0.61587 0.21459 0.13455
 C396 C 0.59626 0.22750 0.08151
 C397 C 0.56998 0.24346 0.09410
 N398 N 0.56679 0.24422 0.12589
 H399 H 0.50497 0.32681 0.13108
 H400 H 0.49276 0.23473 0.09426
 H401 H 0.44843 0.25407 0.05856
 H402 H 0.45986 0.34765 0.09824
 H403 H 0.58667 0.23255 0.17125
 H404 H 0.63325 0.20330 0.15091
 H405 H 0.59811 0.22602 0.05618
 H406 H 0.55187 0.25461 0.07853
 C407 C 0.56874 0.34949 0.20211
 C408 C 0.46788 0.18123 0.18484
 C409 C 0.61904 0.21221 0.10194
 C410 C 0.45016 0.30258 0.07547
 C411 C 0.95143 0.71151 0.67589
 H412 H 0.93697 0.73306 0.67350
 C413 C 0.94129 0.68648 0.69518
 H414 H 0.91890 0.68916 0.70736
 C415 C 0.99672 0.68113 0.66091
 H416 H 1.01804 0.67880 0.64712
 C417 C 0.98767 0.65566 0.68016
 H418 H 1.00260 0.63434 0.68134
 N419 N 0.97846 0.70828 0.65882
 C420 C 1.01915 0.79948 0.63246
 H421 H 1.02628 0.79299 0.60914
 C422 C 1.02969 0.82807 0.64495
 H423 H 1.04438 0.84357 0.63081
 C424 C 0.99203 0.78683 0.67927
 H425 H 0.97767 0.77052 0.69269
 C426 C 1.00202 0.81550 0.69272
 H427 H 0.99542 0.82092 0.71653
 Zn428 Zn 0.98947 0.74083 0.62934
 N429 N 1.00073 0.77942 0.64957
 C430 C 0.95638 0.77490 0.58050
 N431 N 0.95423 0.74929 0.60032
 C432 C 0.92704 0.73139 0.60048
 C433 C 0.90004 0.74016 0.58149
 C434 C 0.93000 0.78458 0.56129
 C435 C 1.05518 0.72814 0.62304
 C436 C 1.08317 0.71877 0.60816
 C437 C 1.05062 0.70745 0.56147
 C438 C 1.02324 0.71744 0.57714
 N439 N 1.02601 0.72734 0.60742
 H440 H 0.97823 0.78859 0.58027
 H441 H 0.92597 0.71059 0.61571
 H442 H 0.87845 0.72595 0.58241
 H443 H 0.93190 0.80607 0.54704
 H444 H 1.05662 0.73605 0.64715
 H445 H 1.10615 0.71922 0.62104
 H446 H 1.04812 0.69947 0.53740
 H447 H 0.99976 0.71702 0.56525
 C448 C 1.02144 0.83631 0.67555
 C449 C 0.95927 0.65784 0.69724
 C450 C 1.08105 0.70811 0.57704
 C451 C 0.90103 0.76758 0.56209
 C452 C 0.51356 0.73041 0.33820
 H453 H 0.52745 0.75205 0.33910
 C454 C 0.52609 0.70350 0.32383
 H455 H 0.54974 0.70463 0.31376
 C456 C 0.46685 0.70210 0.35226
 H457 H 0.44392 0.70155 0.36367
 C458 C 0.47851 0.67462 0.33828
 H459 H 0.46430 0.65316 0.33888
 N460 N 0.48477 0.72903 0.35261
 C461 C 0.45087 0.82651 0.36579
 H462 H 0.45070 0.82673 0.39128
 C463 C 0.44011 0.85323 0.34842
 H464 H 0.43117 0.87322 0.36140
 C465 C 0.46028 0.79844 0.31910
 H466 H 0.46802 0.77691 0.30784
 C467 C 0.44938 0.82460 0.30067
 H468 H 0.45014 0.82273 0.27533
 Zn469 Zn 0.47237 0.76397 0.37715
 N470 N 0.46069 0.79982 0.35107
 C471 C 0.52174 0.80347 0.40162
 N472 N 0.50869 0.77397 0.40370
 C473 C 0.52332 0.75060 0.42188
 C474 C 0.55179 0.75670 0.43929
 C475 C 0.55001 0.81057 0.41857
 C476 C 0.40654 0.76516 0.39095
 C477 C 0.37804 0.75396 0.40339
 C478 C 0.40950 0.71704 0.43639
 C479 C 0.43757 0.72915 0.42343
 N480 N 0.43561 0.75233 0.40056
 H481 H 0.51105 0.82139 0.38596
 H482 H 0.51365 0.72686 0.42201
 H483 H 0.56308 0.73782 0.45357
 H484 H 0.56027 0.83401 0.41579
 H485 H 0.40502 0.78288 0.37225
 H486 H 0.35517 0.76391 0.39464
 H487 H 0.41142 0.69734 0.45317
 H488 H 0.46065 0.71869 0.43038
 C489 C 0.43883 0.85278 0.31515
 C490 C 0.50885 0.67490 0.32445
 C491 C 0.37920 0.72883 0.42559
 C492 C 0.56548 0.78708 0.43773
 Si493 Si 0.36304 0.02265 0.23911
 Si494 Si 0.12442 0.99574 0.73476
 Si495 Si 0.62496 0.53090 0.25503
 Si496 Si 0.87260 0.49238 0.76050
 Si497 Si 0.27266 0.35240 -0.01035
 Si498 Si 0.76431 0.11365 1.01300
 Si499 Si 0.23213 0.61412 0.49060
 Si500 Si 0.73356 0.86763 0.51142
 Si501 Si -0.01235 0.25767 0.36162
 Si502 Si 1.00778 0.74979 0.13239
 Si503 Si 0.50097 0.25401 0.62220
 Si504 Si 0.49775 0.74901 0.86087
 C505 C 0.41196 -0.12443 0.26685
 C506 C 0.42644 -0.12060 0.29716
 C507 C 0.42732 -0.08952 0.30947
 C508 C 0.41331 -0.06352 0.29270
 C509 C 0.39814 -0.06814 0.26291
 C510 C 0.39791 -0.09860 0.25008
 C511 C 0.38325 -0.04228 0.24659
 C512 C 0.38376 -0.01180 0.25958
 C513 C 0.39927 -0.00731 0.28897
 C514 C 0.41397 -0.03294 0.30543
 H515 H 0.43960 -0.08502 0.33182
 H516 H 0.38636 -0.10258 0.22724
 H517 H 0.37120 -0.04605 0.22399
 H518 H 0.42558 -0.02890 0.32823
 H519 H 0.40973 -0.14762 0.25642
 H520 H 0.39978 0.01606 0.29934
 C521 C 0.97866 0.37568 0.78574
 C522 C 0.95908 0.35598 0.80397
 C523 C 0.92675 0.36484 0.80803
 C524 C 0.91436 0.39358 0.79530
 C525 C 0.93439 0.41398 0.77793
 C526 C 0.96644 0.40454 0.77288
 C527 C 0.92213 0.44362 0.76661
 C528 C 0.89008 0.45262 0.77228
 C529 C 0.87054 0.43188 0.78932
 C530 C 0.88245 0.40262 0.80059
 H531 H 0.91134 0.34954 0.82169
 H532 H 0.98219 0.41971 0.75953
 H533 H 0.93765 0.45966 0.75409
 H534 H 0.86689 0.38735 0.81407
 H535 H 1.00370 0.36929 0.78239
 H536 H 0.84619 0.43869 0.79500
 C537 C 0.04374 1.08563 0.82763
 C538 C 0.04242 1.11343 0.80862
 C539 C 0.05244 1.11195 0.77736
 C540 C 0.06492 1.08346 0.76568
 C541 C 0.06720 1.05595 0.78537
 C542 C 0.05595 1.05714 0.81610
 C543 C 0.08221 1.02826 0.77458
 C544 C 0.09570 1.02809 0.74471
 C545 C 0.09191 1.05495 0.72474
 C546 C 0.07642 1.08235 0.73504
 H547 H 0.05116 1.13313 0.76239
 H548 H 0.05752 1.03633 0.83155
 H549 H 0.08524 1.00761 0.79012
 H550 H 0.07467 1.10311 0.71952
 H551 H 0.03642 1.08619 0.85188
 H552 H 0.10201 1.05538 0.70157
 C553 C 0.52192 0.61674 0.33107
 C554 C 0.52362 0.64505 0.31303
 C555 C 0.54129 0.64512 0.28529
 C556 C 0.55814 0.61769 0.27642
 C557 C 0.55719 0.58972 0.29537
 C558 C 0.53850 0.58932 0.32231
 C559 C 0.57584 0.56303 0.28771
 C560 C 0.59586 0.56414 0.26171
 C561 C 0.59534 0.59140 0.24208
 C562 C 0.57668 0.61800 0.24939
 H563 H 0.54244 0.66668 0.27098
 H564 H 0.53744 0.56809 0.33709
 H565 H 0.57556 0.54192 0.30264
 H566 H 0.57737 0.63905 0.23432
 H567 H 0.50875 0.61613 0.35269
 H568 H 0.60978 0.59256 0.22135
 C569 C 0.61351 0.37980 0.22778
 C570 C 0.58118 0.37885 0.21679
 C571 C 0.56208 0.40677 0.21711
 C572 C 0.57570 0.43565 0.22684
 C573 C 0.60863 0.43636 0.23663
 C574 C 0.62712 0.40826 0.23762
 C575 C 0.62278 0.46525 0.24480
 C576 C 0.60449 0.49350 0.24378
 C577 C 0.57168 0.49280 0.23474
 C578 C 0.55735 0.46403 0.22617
 H579 H 0.53718 0.40633 0.20845
 H580 H 0.65230 0.40841 0.24537
 H581 H 0.64816 0.46579 0.25187
 H582 H 0.53207 0.46399 0.21879
 H583 H 0.62853 0.35851 0.22810
 H584 H 0.55726 0.51447 0.23396
 C585 C 0.01481 0.88687 0.70596
 C586 C 0.03449 0.86585 0.68948
 C587 C 0.06700 0.87350 0.68534
 C588 C 0.07962 0.90196 0.69674
 C589 C 0.05961 0.92344 0.71271
 C590 C 0.02724 0.91552 0.71738
 C591 C 0.07249 0.95224 0.72375
 C592 C 0.10510 0.95922 0.71919
 C593 C 0.12468 0.93750 0.70364
 C594 C 0.11206 0.90921 0.69234
 H595 H 0.08256 0.85716 0.67321
 H596 H 0.01151 0.93154 0.72967
 H597 H 0.05746 0.96881 0.73613
 H598 H 0.12772 0.89292 0.68031
 H599 H -0.01035 0.88147 0.70934
 H600 H 0.14999 0.94235 0.70039
 C601 C 0.93089 0.63460 0.74368
 C602 C 0.94746 0.63000 0.71567
 C603 C 0.95104 0.59878 0.70447
 C604 C 0.93685 0.57293 0.72003
 C605 C 0.91890 0.57826 0.74721
 C606 C 0.91672 0.60902 0.75925
 C607 C 0.90204 0.55311 0.76096
 C608 C 0.90250 0.52270 0.74773
 C609 C 0.92186 0.51715 0.72182
 C610 C 0.93894 0.54206 0.70806
 H611 H 0.96342 0.59471 0.68278
 H612 H 0.90333 0.61345 0.78028
 H613 H 0.88701 0.55794 0.78074
 H614 H 0.95264 0.53747 0.68727
 H615 H 0.92843 0.65813 0.75337
 H616 H 0.92205 0.49407 0.71089
 C617 C 0.41286 0.15700 0.18125
 C618 C 0.44550 0.15473 0.19132
 C619 C 0.45696 0.12646 0.20627
 C620 C 0.43609 0.10096 0.21136
 C621 C 0.40331 0.10361 0.20125
 C622 C 0.39198 0.13165 0.18610
 C623 C 0.38219 0.07859 0.20741
 C624 C 0.39309 0.05169 0.22485
 C625 C 0.42589 0.04858 0.23367
 C626 C 0.44731 0.07302 0.22688
 H627 H 0.48200 0.12447 0.21438
 H628 H 0.36692 0.13406 0.17818
 H629 H 0.35684 0.08088 0.20042
 H630 H 0.47243 0.07045 0.23453
 H631 H 0.40358 0.17822 0.16908
 H632 H 0.43493 0.02778 0.24662
 C633 C 0.26805 0.45283 -0.13133
 C634 C 0.29871 0.44549 -0.14266
 C635 C 0.31720 0.42099 -0.12792
 C636 C 0.30597 0.40469 -0.10158
 C637 C 0.27556 0.41268 -0.08951
 C638 C 0.25659 0.43659 -0.10483
 C639 C 0.26504 0.39674 -0.06228
 C640 C 0.28496 0.37356 -0.04698
 C641 C 0.31434 0.36496 -0.06024
 C642 C 0.32489 0.38053 -0.08709
 H643 H 0.34055 0.41465 -0.13700
 H644 H 0.23313 0.44298 -0.09612
 H645 H 0.24173 0.40256 -0.05288
 H646 H 0.34794 0.37373 -0.09647
 H647 H 0.25337 0.47157 -0.14252
 H648 H 0.32935 0.34597 -0.05010
 C649 C 0.83229 0.94651 0.42254
 C650 C 0.81471 0.94482 0.39369
 C651 C 0.78351 0.93197 0.39346
 C652 C 0.77064 0.91977 0.42135
 C653 C 0.78892 0.92081 0.45004
 C654 C 0.81951 0.93471 0.45044
 C655 C 0.77680 0.90690 0.47754
 C656 C 0.74700 0.89132 0.47654
 C657 C 0.72864 0.89124 0.44813
 C658 C 0.74025 0.90548 0.42083
 H659 H 0.76980 0.93022 0.37138
 H660 H 0.83383 0.93587 0.47221
 H661 H 0.79123 0.90677 0.49931
 H662 H 0.72587 0.90448 0.39909
 H663 H 0.85615 0.95680 0.42349
 H664 H 0.70566 0.87935 0.44653
 C665 C 0.81297 0.08333 1.15755
 C666 C 0.81463 0.04970 1.15723
 C667 C 0.80717 0.03450 1.12837
 C668 C 0.79864 0.05232 1.10092
 C669 C 0.79795 0.08586 1.10191
 C670 C 0.80501 0.10107 1.13028
 C671 C 0.78958 0.10373 1.07465
 C672 C 0.78067 0.08861 1.04656
 C673 C 0.78104 0.05530 1.04560
 C674 C 0.79036 0.03723 1.07252
 H675 H 0.80683 0.00879 1.12722
 H676 H 0.80456 0.12682 1.13137
 H677 H 0.78877 0.12950 1.07563
 H678 H 0.79051 0.01150 1.07129
 H679 H 0.81952 0.09647 1.17843
 H680 H 0.77376 0.04323 1.02426
 C681 C 0.24744 0.53848 0.62518
 C682 C 0.28025 0.52985 0.62373
 C683 C 0.29597 0.53395 0.59500
 C684 C 0.27975 0.54842 0.56882
 C685 C 0.24732 0.55859 0.57127
 C686 C 0.23112 0.55269 0.59921
 C687 C 0.23212 0.57598 0.54641
 C688 C 0.24899 0.58370 0.51923
 C689 C 0.28054 0.57199 0.51613
 C690 C 0.29585 0.55442 0.54075
 H691 H 0.32131 0.52765 0.59353
 H692 H 0.20614 0.56003 0.60134
 H693 H 0.20778 0.58483 0.54914
 H694 H 0.32067 0.54668 0.53835
 H695 H 0.23455 0.53493 0.64673
 H696 H 0.29394 0.57791 0.49537
 C697 C 0.23017 0.52228 0.36672
 C698 C 0.20771 0.54018 0.34796
 C699 C 0.19549 0.56883 0.35962
 C700 C 0.20400 0.57865 0.39003
 C701 C 0.22605 0.56026 0.40910
 C702 C 0.23938 0.53232 0.39700
 C703 C 0.23419 0.57019 0.43983
 C704 C 0.22034 0.59812 0.45137
 C705 C 0.19836 0.61598 0.43223
 C706 C 0.19032 0.60641 0.40180
 H707 H 0.17875 0.58330 0.34518
 H708 H 0.25637 0.51790 0.41117
 H709 H 0.25134 0.55646 0.45447
 H710 H 0.17338 0.62075 0.38747
 H711 H 0.23977 0.49998 0.35843
 H712 H 0.18782 0.63784 0.44060
 C713 C 0.73663 0.02860 0.88755
 C714 C 0.70465 0.03932 0.87997
 C715 C 0.69002 0.05968 0.90178
 C716 C 0.70629 0.06893 0.92947
 C717 C 0.73846 0.05891 0.93585
 C718 C 0.75329 0.03850 0.91486
 C719 C 0.75541 0.07040 0.96253
 C720 C 0.74029 0.09172 0.98266
 C721 C 0.70775 0.10017 0.97683
 C722 C 0.69094 0.08896 0.95047
 H723 H 0.66639 0.07010 0.89716
 H724 H 0.77786 0.03016 0.91952
 H725 H 0.78065 0.06409 0.96673
 H726 H 0.66612 0.09667 0.94608
 H727 H 0.74916 0.01201 0.87301
 H728 H 0.69535 0.11656 0.99173
 C729 C 0.68257 0.89991 0.65099
 C730 C 0.69157 0.93200 0.65280
 C731 C 0.70838 0.94589 0.62778
 C732 C 0.71555 0.92803 0.60111
 C733 C 0.70567 0.89603 0.59946
 C734 C 0.68948 0.88213 0.62458
 C735 C 0.71154 0.87851 0.57247
 C736 C 0.72788 0.89206 0.54721
 C737 C 0.73776 0.92382 0.54888
 C738 C 0.73171 0.94169 0.57568
 H739 H 0.71555 0.97058 0.62896
 H740 H 0.68173 0.85761 0.62360
 H741 H 0.70232 0.85460 0.57082
 H742 H 0.73933 0.96626 0.57639
 H743 H 0.66913 0.88880 0.66960
 H744 H 0.74974 0.93504 0.52943
 C745 C 0.22282 0.38371 0.12951
 C746 C 0.21812 0.41681 0.12618
 C747 C 0.22658 0.43210 0.09782
 C748 C 0.23842 0.41443 0.07281
 C749 C 0.24233 0.38111 0.07635
 C750 C 0.23492 0.36606 0.10488
 C751 C 0.25303 0.36328 0.05112
 C752 C 0.25943 0.37809 0.02215
 C753 C 0.25649 0.41125 0.01893
 C754 C 0.24594 0.42934 0.04410
 H755 H 0.22355 0.45766 0.09505
 H756 H 0.23779 0.34050 0.10791
 H757 H 0.25583 0.33766 0.05381
 H758 H 0.24339 0.45491 0.04105
 H759 H 0.21610 0.37122 0.15080
 H760 H 0.26224 0.42322 -0.00289
 C761 C -0.11474 0.29794 0.46945
 C762 C -0.13568 0.31695 0.45018
 C763 C -0.12972 0.32028 0.41790
 C764 C -0.10298 0.30513 0.40502
 C765 C -0.08160 0.28659 0.42468
 C766 C -0.08781 0.28302 0.45685
 C767 C -0.05435 0.27214 0.41184
 C768 C -0.04867 0.27553 0.37954
 C769 C -0.07024 0.29369 0.36022
 C770 C -0.09714 0.30843 0.37282
 H771 H -0.14600 0.33457 0.40279
 H772 H -0.07177 0.26884 0.47228
 H773 H -0.03772 0.25851 0.42705
 H774 H -0.11324 0.32256 0.35741
 H775 H -0.11883 0.29520 0.49442
 H776 H -0.06602 0.29699 0.33534
 C777 C 0.35949 0.80962 0.89962
 C778 C 0.36220 0.80516 0.93246
 C779 C 0.38890 0.78829 0.94583
 C780 C 0.41348 0.77722 0.92647
 C781 C 0.41070 0.78247 0.89346
 C782 C 0.38339 0.79819 0.88026
 C783 C 0.43573 0.77288 0.87422
 C784 C 0.46379 0.75830 0.88731
 C785 C 0.46644 0.75294 0.92004
 C786 C 0.44136 0.76210 0.93947
 H787 H 0.39120 0.78513 0.97122
 H788 H 0.38090 0.80239 0.85502
 H789 H 0.43392 0.77807 0.84912
 H790 H 0.44409 0.75800 0.96469
 H791 H 0.33903 0.82259 0.88901
 H792 H 0.48797 0.74213 0.93078
 C793 C 1.10774 0.79534 0.02402
 C794 C 1.13423 0.80296 0.04403
 C795 C 1.13174 0.79801 0.07672
 C796 C 1.10307 0.78654 0.08927
 C797 C 1.07629 0.77991 0.06897
 C798 C 1.07906 0.78404 0.03635
 C799 C 1.04725 0.76938 0.08170
 C800 C 1.04498 0.76513 0.11438
 C801 C 1.07188 0.77101 0.13424
 C802 C 1.10060 0.78191 0.12187
 H803 H 1.15171 0.80408 0.09254
 H804 H 1.05897 0.77877 0.02038
 H805 H 1.02667 0.76432 0.06627
 H806 H 1.12089 0.78666 0.13778
 H807 H 1.10911 0.79834 -0.00129
 H808 H 1.07058 0.76732 0.15950
 C809 C 0.64128 0.31674 0.60032
 C810 C 0.64196 0.31535 0.56727
 C811 C 0.61602 0.30128 0.55060
 C812 C 0.58944 0.28949 0.56666
 C813 C 0.58891 0.29160 0.59983
 C814 C 0.61504 0.30493 0.61645
 C815 C 0.56210 0.28067 0.61585
 C816 C 0.53591 0.26734 0.59929
 C817 C 0.53644 0.26515 0.56642
 C818 C 0.56312 0.27611 0.55016
 H819 H 0.61640 0.29974 0.52515
 H820 H 0.61493 0.30671 0.64189
 H821 H 0.56156 0.28251 0.64129
 H822 H 0.56305 0.27439 0.52472
 H823 H 0.66061 0.32790 0.61370
 H824 H 0.51623 0.25529 0.55327
 C825 C 0.35420 0.23229 0.56620
 C826 C 0.35983 0.20469 0.54884
 C827 C 0.39160 0.19266 0.54731
 C828 C 0.41724 0.20760 0.56341
 C829 C 0.41111 0.23505 0.58113
 C830 C 0.37958 0.24734 0.58215
 C831 C 0.43647 0.24943 0.59804
 C832 C 0.46793 0.23680 0.59742
 C833 C 0.47395 0.20968 0.57969
 C834 C 0.44882 0.19524 0.56263
 H835 H 0.39635 0.17162 0.53372
 H836 H 0.37447 0.26834 0.59569
 H837 H 0.43138 0.26992 0.61222
 H838 H 0.45399 0.17417 0.54926
 H839 H 0.32996 0.24182 0.56814
 H840 H 0.49805 0.19944 0.57935
 C841 C 0.91145 0.67317 0.03683
 C842 C 0.88321 0.69138 0.04095
 C843 C 0.88558 0.72043 0.05675
 C844 C 0.91527 0.72985 0.07038
 C845 C 0.94304 0.71029 0.06772
 C846 C 0.94107 0.68253 0.05004
 C847 C 0.97184 0.71791 0.08413
 C848 C 0.97302 0.74439 0.10376
 C849 C 0.94601 0.76487 0.10448
 C850 C 0.91737 0.75768 0.08796
 H851 H 0.86403 0.73468 0.06015
 H852 H 0.96216 0.66744 0.04740
 H853 H 0.99259 0.70223 0.08286
 H854 H 0.89653 0.77325 0.08993
 H855 H 0.91044 0.65108 0.02408
 H856 H 0.94647 0.78599 0.11867
 C857 C 0.60262 0.67072 0.95180
 C858 C 0.62939 0.69072 0.94850
 C859 C 0.62576 0.71878 0.93012
 C860 C 0.59588 0.72663 0.91516
 C861 C 0.56926 0.70619 0.91857
 C862 C 0.57288 0.67839 0.93706
 C863 C 0.53965 0.71360 0.90299
 C864 C 0.53632 0.74102 0.88382
 C865 C 0.56270 0.76146 0.88093
 C866 C 0.59221 0.75438 0.89651
 H867 H 0.64612 0.73450 0.92752
 H868 H 0.55280 0.66237 0.93982
 H869 H 0.51941 0.69766 0.90515
 H870 H 0.61227 0.77039 0.89365
 H871 H 0.60484 0.64865 0.96531
 H872 H 0.56083 0.78282 0.86637
 C873 C 0.13433 0.24437 0.42131
 C874 C 0.13003 0.21718 0.44050
 C875 C 0.09846 0.20600 0.44461
 C876 C 0.07194 0.22069 0.42860
 C877 C 0.07692 0.24690 0.40809
 C878 C 0.10807 0.25901 0.40519
 C879 C 0.05094 0.25962 0.38974
 C880 C 0.02009 0.24635 0.39148
 C881 C 0.01497 0.22154 0.41325
 C882 C 0.04070 0.20874 0.43165
 H883 H 0.09456 0.18490 0.45897
 H884 H 0.11226 0.27935 0.38986
 H885 H 0.05532 0.27872 0.37305
 H886 H 0.03638 0.18874 0.44735
 H887 H 0.15814 0.25410 0.41832
 H888 H -0.00856 0.21074 0.41465
 C889 C 0.59445 0.13892 0.67677
 C890 C 0.57437 0.12582 0.69962
 C891 C 0.54422 0.14048 0.70467
 C892 C 0.53446 0.16789 0.68709
 C893 C 0.55510 0.18062 0.66431
 C894 C 0.58498 0.16603 0.65940
 C895 C 0.54531 0.20733 0.64615
 C896 C 0.51507 0.22172 0.65019
 C897 C 0.49457 0.20917 0.67282
 C898 C 0.50429 0.18257 0.69137
 H899 H 0.52855 0.13069 0.72226
 H900 H 0.60094 0.17541 0.64184
 H901 H 0.56098 0.21601 0.62809
 H902 H 0.48800 0.17314 0.70858
 H903 H 0.61742 0.12781 0.67189
 H904 H 0.47083 0.21957 0.67570
 C905 C 1.07934 0.61092 0.13792
 C906 C 1.07369 0.60231 0.16935
 C907 C 1.05508 0.62244 0.18781
 C908 C 1.04307 0.65153 0.17523
 C909 C 1.04900 0.66002 0.14357
 C910 C 1.06684 0.63942 0.12502
 C911 C 1.03768 0.68933 0.13118
 C912 C 1.02065 0.71047 0.14992
 C913 C 1.01546 0.70222 0.18152
 C914 C 1.02621 0.67278 0.19398
 H915 H 1.05112 0.61604 0.21224
 H916 H 1.07166 0.64563 0.10074
 H917 H 1.04300 0.69604 0.10715
 H918 H 1.02188 0.66691 0.21844
 H919 H 1.09369 0.59561 0.12344
 H920 H 1.00356 0.71844 0.19690
 C921 C 0.98751 0.88620 0.20052
 C922 C 0.96136 0.87813 0.21940
 C923 C 0.95163 0.84614 0.22087
 C924 C 0.96637 0.82310 0.20244
 C925 C 0.99225 0.83169 0.18327
 C926 C 1.00301 0.86315 0.18294
 C927 C 1.00601 0.80902 0.16373
 C928 C 0.99369 0.77809 0.16252
 C929 C 0.96779 0.76984 0.18141
 C930 C 0.95465 0.79195 0.20170
 H931 H 0.93203 0.83920 0.23572
 H932 H 1.02269 0.87020 0.16822
 H933 H 1.02513 0.81606 0.14838
 H934 H 0.93450 0.78506 0.21587
 H935 H 0.99532 0.91060 0.19828
 H936 H 0.95702 0.74655 0.17974
 C937 C 0.45743 0.35744 0.72781
 C938 C 0.44774 0.38226 0.70676
 C939 C 0.45151 0.37825 0.67430
 C940 C 0.46388 0.34965 0.66290
 C941 C 0.47308 0.32457 0.68415
 C942 C 0.47013 0.32891 0.71663
 C943 C 0.48458 0.29555 0.67243
 C944 C 0.48649 0.29152 0.63981
 C945 C 0.47779 0.31675 0.61905
 C946 C 0.46654 0.34555 0.63044
 H947 H 0.44362 0.39693 0.65777
 H948 H 0.47714 0.31008 0.73333
 H949 H 0.49171 0.27627 0.68854
 H950 H 0.45966 0.36451 0.61384
 H951 H 0.45495 0.36004 0.75296
 H952 H 0.47945 0.31404 0.59381
 C953 C 0.40631 0.65048 0.78213
 C954 C 0.42860 0.62523 0.77932
 C955 C 0.46071 0.62934 0.79026
 C956 C 0.47009 0.65783 0.80463
 C957 C 0.44723 0.68270 0.80778
 C958 C 0.41555 0.67895 0.79606
 C959 C 0.45614 0.71058 0.82339
 C960 C 0.48739 0.71372 0.83654
 C961 C 0.51031 0.68941 0.83236
 C962 C 0.50176 0.66169 0.81652
 H963 H 0.47830 0.61031 0.78793
 H964 H 0.39769 0.69774 0.79836
 H965 H 0.43839 0.72930 0.82597
 H966 H 0.51975 0.64305 0.81407
 H967 H 0.38130 0.64791 0.77448
 H968 H 0.53482 0.69158 0.84155
 C969 C -0.01456 0.10726 0.32643
 C970 C -0.04347 0.10735 0.30821
 C971 C -0.05912 0.13646 0.30053
 C972 C -0.04683 0.16508 0.31216
 C973 C -0.01805 0.16464 0.33097
 C974 C -0.00176 0.13572 0.33746
 C975 C -0.00667 0.19295 0.34398
 C976 C -0.02439 0.22145 0.33965
 C977 C -0.05223 0.22197 0.31996
 C978 C -0.06334 0.19400 0.30618
 H979 H -0.08164 0.13666 0.28676
 H980 H 0.02036 0.13500 0.35182
 H981 H 0.01555 0.19239 0.35807
 H982 H -0.08531 0.19483 0.29161
 H983 H -0.00207 0.08506 0.33237
 H984 H -0.06588 0.24380 0.31576
 C985 C 0.04404 0.39534 0.32095
 C986 C 0.05554 0.38769 0.29119
 C987 C 0.04887 0.35764 0.27863
 C988 C 0.03248 0.33483 0.29650
 C989 C 0.02217 0.34252 0.32694
 C990 C 0.02743 0.37301 0.33863
 C991 C 0.00772 0.31931 0.34565
 C992 C 0.00354 0.28843 0.33452
 C993 C 0.01286 0.28099 0.30404
 C994 C 0.02724 0.30409 0.28508
 H995 H 0.05783 0.35152 0.25577
 H996 H 0.01946 0.37932 0.36180
 H997 H 0.00056 0.32499 0.36927
 H998 H 0.03491 0.29773 0.26183
 H999 H 0.04855 0.41853 0.33083
 H1000 H 0.00982 0.25719 0.29517
 C1001 C 0.51919 0.89874 0.83006
 C1002 C 0.53667 0.89568 0.80244
 C1003 C 0.53843 0.86591 0.78792
 C1004 C 0.52502 0.83893 0.80233
 C1005 C 0.50896 0.84211 0.83105
 C1006 C 0.50527 0.87223 0.84414
 C1007 C 0.49856 0.81495 0.84721
 C1008 C 0.50409 0.78458 0.83522
 C1009 C 0.51894 0.78151 0.80620
 C1010 C 0.52913 0.80855 0.78970
 H1011 H 0.55217 0.86336 0.76679
 H1012 H 0.49287 0.87508 0.86603
 H1013 H 0.48788 0.81743 0.87002
 H1014 H 0.54143 0.80559 0.76778
 H1015 H 0.51743 0.92154 0.84143
 H1016 H 0.52386 0.75817 0.79695
 C1017 C 0.68870 0.53284 0.11593
 C1018 C 0.70673 0.56131 0.11822
 C1019 C 0.70841 0.57581 0.14825
 C1020 C 0.69087 0.56418 0.17363
 C1021 C 0.67211 0.53666 0.17008
 C1022 C 0.67179 0.52080 0.14142
 C1023 C 0.65333 0.52593 0.19500
 C1024 C 0.65284 0.54269 0.22331
 C1025 C 0.67193 0.56982 0.22679
 C1026 C 0.69109 0.58030 0.20231
 H1027 H 0.72367 0.59600 0.15275
 H1028 H 0.65750 0.49958 0.13830
 H1029 H 0.63842 0.50517 0.19183
 H1030 H 0.70528 0.60158 0.20547
 H1031 H 0.68532 0.52041 0.09407
 H1032 H 0.67135 0.58343 0.24820
 C1033 C 0.16204 1.03575 0.59189
 C1034 C 0.19050 1.05247 0.59875
 C1035 C 0.20256 1.05343 0.63008
 C1036 C 0.18587 1.03853 0.65441
 C1037 C 0.15669 1.02267 0.64729
 C1038 C 0.14521 1.02105 0.61596
 C1039 C 0.13908 1.00930 0.67167
 C1040 C 0.15037 1.01111 0.70308
 C1041 C 0.17975 1.02607 0.71002
 C1042 C 0.19740 1.03977 0.68583
 H1043 H 0.22467 1.06606 0.63549
 H1044 H 0.12292 1.00891 0.61015
 H1045 H 0.11618 0.99809 0.66624
 H1046 H 0.21978 1.05171 0.69172
 H1047 H 0.15218 1.03499 0.56796
 H1048 H 0.18884 1.02775 0.73407
 C1049 C 0.18088 0.90340 0.84892
 C1050 C 0.19563 0.92610 0.86903
 C1051 C 0.19418 0.95848 0.85865
 C1052 C 0.17919 0.96739 0.82951
 C1053 C 0.16512 0.94397 0.81026
 C1054 C 0.16609 0.91219 0.82017
 C1055 C 0.14971 0.95261 0.78152
 C1056 C 0.14811 0.98451 0.77145
 C1057 C 0.16223 1.00787 0.79048
 C1058 C 0.17783 0.99938 0.81925
 H1059 H 0.20578 0.97695 0.87215
 H1060 H 0.15486 0.89401 0.80585
 H1061 H 0.13855 0.93431 0.76744
 H1062 H 0.18836 1.01785 0.83365
 H1063 H 0.17873 0.87863 0.85566
 H1064 H 0.16058 1.03274 0.78342
 C1065 C 0.65004 0.45698 0.38948
 C1066 C 0.68285 0.46376 0.39443
 C1067 C 0.69826 0.48456 0.37368
 C1068 C 0.68116 0.49758 0.34729
 C1069 C 0.64812 0.49043 0.34237
 C1070 C 0.63267 0.47050 0.36382
 C1071 C 0.63135 0.50228 0.31542
 C1072 C 0.64721 0.52048 0.29277
 C1073 C 0.68000 0.52750 0.29775
 C1074 C 0.69675 0.51652 0.32504
 H1075 H 0.72373 0.48944 0.37738
 H1076 H 0.60740 0.46470 0.36030
 H1077 H 0.60633 0.49585 0.31132
 H1078 H 0.72213 0.52200 0.32825
 H1079 H 0.63799 0.44089 0.40536
 H1080 H 0.69305 0.54081 0.28043
 C1081 C 0.81991 0.49291 0.61471
 C1082 C 0.79788 0.46789 0.61704
 C1083 C 0.78978 0.45626 0.64701
 C1084 C 0.80528 0.46798 0.67427
 C1085 C 0.82831 0.49233 0.67153
 C1086 C 0.83473 0.50529 0.64175
 C1087 C 0.84595 0.50202 0.69834
 C1088 C 0.84224 0.48652 0.72756
 C1089 C 0.81789 0.46384 0.73049
 C1090 C 0.79940 0.45472 0.70407
 H1091 H 0.77300 0.43676 0.64897
 H1092 H 0.85225 0.52406 0.63926
 H1093 H 0.86364 0.52048 0.69580
 H1094 H 0.78152 0.43632 0.70672
 H1095 H 0.82619 0.50237 0.59183
 H1096 H 0.81376 0.45229 0.75289
 C1097 C 0.33937 -0.03620 0.09956
 C1098 C 0.30567 -0.03989 0.09970
 C1099 C 0.28867 -0.02916 0.12579
 C1100 C 0.30524 -0.01560 0.15161
 C1101 C 0.33920 -0.01274 0.15132
 C1102 C 0.35596 -0.02276 0.12507
 C1103 C 0.35597 -0.00048 0.17753
 C1104 C 0.33933 0.00894 0.20410
 C1105 C 0.30559 0.00693 0.20407
 C1106 C 0.28862 -0.00534 0.17800
 H1107 H 0.26266 -0.03160 0.12610
 H1108 H 0.38199 -0.02074 0.12451
 H1109 H 0.38208 0.00116 0.17752
 H1110 H 0.26258 -0.00719 0.17863
 H1111 H 0.35313 -0.04468 0.08007
 H1112 H 0.29240 0.01427 0.22434
 C1113 C 0.27338 0.03432 0.36262
 C1114 C 0.28089 0.06590 0.37006
 C1115 C 0.29858 0.08420 0.34890
 C1116 C 0.31027 0.07080 0.32154
 C1117 C 0.30391 0.03862 0.31469
 C1118 C 0.28484 0.02075 0.33511
 C1119 C 0.31786 0.02473 0.28833
 C1120 C 0.33841 0.04259 0.26932
 C1121 C 0.34361 0.07477 0.27601
 C1122 C 0.32943 0.08882 0.30164
 H1123 H 0.30397 0.10877 0.35422
 H1124 H 0.27957 -0.00392 0.33028
 H1125 H 0.31412 -0.00025 0.28358
 H1126 H 0.33452 0.11351 0.30661
 H1127 H 0.25966 0.01985 0.37864
 H1128 H 0.35962 0.08916 0.26242
 C1129 C 0.76874 0.55184 0.85833
 C1130 C 0.78998 0.55363 0.88476
 C1131 C 0.82141 0.54110 0.88292
 C1132 C 0.83223 0.52870 0.85474
 C1133 C 0.81114 0.52782 0.82788
 C1134 C 0.77921 0.53893 0.83013
 C1135 C 0.82267 0.51647 0.79926
 C1136 C 0.85501 0.50652 0.79749
 C1137 C 0.87550 0.50719 0.82440
 C1138 C 0.86421 0.51802 0.85283
 H1139 H 0.83783 0.54173 0.90333
 H1140 H 0.76263 0.53841 0.80988
 H1141 H 0.80683 0.51595 0.77846
 H1142 H 0.88065 0.51856 0.87320
 H1143 H 0.74443 0.56148 0.85910
 H1144 H 0.90049 0.49950 0.82334
 C1145 C 0.13908 0.71419 0.56326
 C1146 C 0.11035 0.69674 0.56141
 C1147 C 0.10998 0.66771 0.54555
 C1148 C 0.13811 0.65587 0.53221
 C1149 C 0.16696 0.67356 0.53418
 C1150 C 0.16710 0.70280 0.54957
 C1151 C 0.19521 0.66142 0.52116
 C1152 C 0.19493 0.63167 0.50676
 C1153 C 0.16627 0.61426 0.50499
 C1154 C 0.13800 0.62633 0.51744
 H1155 H 0.08804 0.65389 0.54442
 H1156 H 0.18895 0.71668 0.55135
 H1157 H 0.21739 0.67480 0.52275
 H1158 H 0.11617 0.61241 0.51584
 H1159 H 0.13979 0.73672 0.57525
 H1160 H 0.16581 0.59116 0.49408
 C1161 C 0.64816 0.16030 1.10080
 C1162 C 0.64470 0.19182 1.08957
 C1163 C 0.66546 0.20338 1.06660
 C1164 C 0.68960 0.18348 1.05497
 C1165 C 0.69241 0.15159 1.06606
 C1166 C 0.67170 0.14027 1.08901
 C1167 C 0.71558 0.13132 1.05372
 C1168 C 0.73644 0.14253 1.03085
 C1169 C 0.73422 0.17431 1.02033
 C1170 C 0.71083 0.19470 1.03227
 H1171 H 0.66293 0.22779 1.05808
 H1172 H 0.67363 0.11591 1.09775
 H1173 H 0.71700 0.10663 1.06155
 H1174 H 0.70912 0.21907 1.02355
 H1175 H 0.63218 0.15102 1.11837
 H1176 H 0.74997 0.18318 1.00240
 C1177 C 0.90410 0.18036 0.99058
 C1178 C 0.90013 0.18859 0.95804
 C1179 C 0.86985 0.18143 0.94327
 C1180 C 0.84528 0.16661 0.95982
 C1181 C 0.85033 0.15809 0.99188
 C1182 C 0.87971 0.16530 1.00705
 C1183 C 0.82598 0.14232 1.00810
 C1184 C 0.79667 0.13517 0.99249
 C1185 C 0.79157 0.14437 0.96080
 C1186 C 0.81574 0.15976 0.94451
 H1187 H 0.86527 0.18534 0.91831
 H1188 H 0.88384 0.15941 1.03184
 H1189 H 0.82999 0.13552 1.03265
 H1190 H 0.81131 0.16628 0.91991
 H1191 H 0.92549 0.18634 1.00431
 H1192 H 0.76892 0.13955 0.94847
 C1193 C 0.32558 0.70631 0.41054
 C1194 C 0.34904 0.71259 0.43424
 C1195 C 0.34423 0.70163 0.46526
 C1196 C 0.31667 0.68391 0.47224
 C1197 C 0.29382 0.67715 0.44789
 C1198 C 0.29823 0.68885 0.41730
 C1199 C 0.26746 0.65780 0.45415
 C1200 C 0.26357 0.64475 0.48437
 C1201 C 0.28545 0.65259 0.50886
 C1202 C 0.31187 0.67205 0.50286
 H1203 H 0.36207 0.70650 0.48375
 H1204 H 0.28093 0.68381 0.39839
 H1205 H 0.25070 0.65224 0.43507
 H1206 H 0.32896 0.67712 0.52193
 H1207 H 0.32892 0.71395 0.38637
 H1208 H 0.28270 0.64283 0.53239
 C1209 C 0.62241 0.77235 0.45546
 C1210 C 0.59645 0.79428 0.45463
 C1211 C 0.60090 0.82429 0.46807
 C1212 C 0.63117 0.83306 0.48044
 C1213 C 0.65747 0.81128 0.48029
 C1214 C 0.65263 0.78074 0.46830
 C1215 C 0.68825 0.82089 0.49110
 C1216 C 0.69281 0.85210 0.50141
 C1217 C 0.66646 0.87329 0.50191
 C1218 C 0.63581 0.86378 0.49183
 H1219 H 0.58094 0.84121 0.46813
 H1220 H 0.67244 0.76369 0.46798
 H1221 H 0.70870 0.80464 0.49036
 H1222 H 0.61593 0.88076 0.49203
 H1223 H 0.61971 0.74915 0.44507
 H1224 H 0.66971 0.89755 0.50950
 C1225 C 0.12701 0.29570 -0.01928
 C1226 C 0.12974 0.27850 -0.04723
 C1227 C 0.16042 0.27487 -0.06023
 C1228 C 0.18749 0.28983 -0.04657
 C1229 C 0.18384 0.30862 -0.01960
 C1230 C 0.15373 0.31074 -0.00570
 C1231 C 0.21001 0.32601 -0.00767
 C1232 C 0.23996 0.32467 -0.02210
 C1233 C 0.24397 0.30476 -0.04787
 C1234 C 0.21788 0.28750 -0.06012
 H1235 H 0.16300 0.26184 -0.08183
 H1236 H 0.15066 0.32466 0.01527
 H1237 H 0.20643 0.34154 0.01197
 H1238 H 0.22124 0.27307 -0.08070
 H1239 H 0.10397 0.29812 -0.00817
 H1240 H 0.26693 0.30356 -0.05931
 C1241 C 0.41982 0.34627 0.04591
 C1242 C 0.42126 0.31448 0.05691
 C1243 C 0.39428 0.29485 0.05154
 C1244 C 0.36607 0.30712 0.03632
 C1245 C 0.36466 0.33955 0.02697
 C1246 C 0.39170 0.35876 0.03144
 C1247 C 0.33617 0.35237 0.01336
 C1248 C 0.30943 0.33302 0.00747
 C1249 C 0.31089 0.30069 0.01602
 C1250 C 0.33903 0.28782 0.03068
 H1251 H 0.39474 0.27037 0.06002
 H1252 H 0.39108 0.38353 0.02383
 H1253 H 0.33489 0.37747 0.00694
 H1254 H 0.33966 0.26288 0.03762
 H1255 H 0.44040 0.36172 0.04873
 H1256 H 0.29021 0.28562 0.01187
 C1257 C 0.87397 0.79590 0.51545
 C1258 C 0.87157 0.78011 0.54480
 C1259 C 0.84132 0.77914 0.55898
 C1260 C 0.81460 0.79565 0.54528
 C1261 C 0.81793 0.81311 0.51684
 C1262 C 0.84742 0.81222 0.50159
 C1263 C 0.79231 0.83246 0.50502
 C1264 C 0.76377 0.83534 0.52179
 C1265 C 0.75973 0.81584 0.54852
 C1266 C 0.78497 0.79626 0.56029
 H1267 H 0.83899 0.76730 0.58167
 H1268 H 0.85030 0.82512 0.47954
 H1269 H 0.79537 0.84626 0.48361
 H1270 H 0.78170 0.78250 0.58177
 H1271 H 0.89670 0.79638 0.50356
 H1272 H 0.73753 0.81639 0.56108
   
