data_POSCAR
  _audit_creation_date              2014-09-24
  _audit_creation_method            'ToBaCCo'
  _symmetry_space_group_name_H-M    'P1'
  _symmetry_Int_Tables_number       1
  _symmetry_cell_setting            triclinic
  loop_
  _symmetry_equiv_pos_as_xyz
 x,y,z
_cell_length_a 41.5078
_cell_length_b 41.5639
_cell_length_c 35.3872
_cell_angle_alpha 90.911200
_cell_angle_beta 89.147800
_cell_angle_gamma 95.080000
loop_
  _atom_site_label
  _atom_site_type_symbol
  _atom_site_fract_x
  _atom_site_fract_y
  _atom_site_fract_z
C1 C 0.37795 0.03512 0.30631
 C2 C 0.35694 0.06068 0.29248
 C3 C 0.33665 0.04975 0.26424
 C4 C 0.33920 0.01426 0.25237
 C5 C 0.35427 0.00642 0.31768
 C6 C 0.33400 -0.00457 0.28943
 C7 C 0.39559 0.02346 0.27099
 C8 C 0.37532 0.01244 0.24281
 H9 H 0.35763 0.08504 0.30427
 H10 H 0.32254 0.00553 0.22937
 H11 H 0.35628 -0.00665 0.34379
 H12 H 0.42177 0.02493 0.26800
 C13 C 0.13243 -0.02887 0.79074
 C14 C 0.14875 -0.05700 0.77308
 C15 C 0.16849 -0.04831 0.74318
 C16 C 0.16995 -0.01201 0.73367
 C17 C 0.16020 -0.00360 0.80117
 C18 C 0.17984 0.00552 0.77116
 C19 C 0.11566 -0.01483 0.76014
 C20 C 0.13630 -0.00539 0.72887
 H21 H 0.14591 -0.08138 0.78407
 H22 H 0.18614 -0.00507 0.70926
 H23 H 0.16095 0.00966 0.82792
 H24 H 0.08995 -0.01157 0.76086
 C25 C 0.63225 0.46870 0.29045
 C26 C 0.64812 0.44020 0.27332
 C27 C 0.66814 0.44819 0.24354
 C28 C 0.67037 0.48434 0.23334
 C29 C 0.66015 0.49386 0.30045
 C30 C 0.68001 0.50240 0.27048
 C31 C 0.61503 0.48339 0.25770
 C32 C 0.63499 0.49181 0.22787
 H33 H 0.64526 0.41608 0.28510
 H34 H 0.68670 0.49069 0.20891
 H35 H 0.66075 0.50766 0.32682
 H36 H 0.58954 0.48757 0.25847
 C37 C 0.87762 0.53558 0.80374
 C38 C 0.85658 0.56111 0.78988
 C39 C 0.83607 0.55004 0.76192
 C40 C 0.83845 0.51445 0.75033
 C41 C 0.85394 0.50704 0.81557
 C42 C 0.83346 0.49590 0.78761
 C43 C 0.89499 0.52363 0.76839
 C44 C 0.87451 0.51246 0.74048
 H45 H 0.85724 0.58546 0.80168
 H46 H 0.82162 0.50559 0.72755
 H47 H 0.85610 0.49416 0.84179
 H48 H 0.92116 0.52496 0.76520
 C49 C 0.28552 0.42680 1.02732
 C50 C 0.26730 0.40600 1.05757
 C51 C 0.24061 0.38816 1.04396
 C52 C 0.23488 0.39238 1.00167
 C53 C 0.29323 0.40299 0.99565
 C54 C 0.26689 0.38486 0.98242
 C55 C 0.26022 0.44720 1.01100
 C56 C 0.23351 0.42909 0.99791
 H57 H 0.27509 0.40497 1.08667
 H58 H 0.21328 0.37771 0.99058
 H59 H 0.31751 0.40065 0.98461
 H60 H 0.26103 0.47324 1.01495
 C61 C 0.77014 0.06987 0.97738
 C62 C 0.75955 0.09073 0.94525
 C63 C 0.73803 0.11209 0.95683
 C64 C 0.72931 0.11055 0.99926
 C65 C 0.78349 0.09417 1.00746
 C66 C 0.76235 0.11551 1.01885
 C67 C 0.74060 0.05429 0.99356
 C68 C 0.71796 0.07671 1.00539
 H69 H 0.76888 0.08944 0.91647
 H70 H 0.71199 0.12806 1.00873
 H71 H 0.80695 0.09320 1.02052
 H72 H 0.73404 0.02844 0.99111
 C73 C 0.27126 0.57118 0.47708
 C74 C 0.26116 0.59265 0.44539
 C75 C 0.23947 0.61378 0.45702
 C76 C 0.23007 0.61163 0.49911
 C77 C 0.28390 0.59467 0.50822
 C78 C 0.26262 0.61584 0.51960
 C79 C 0.23969 0.55451 0.49287
 C80 C 0.21798 0.57576 0.50415
 H81 H 0.27054 0.59157 0.41661
 H82 H 0.21256 0.62892 0.50861
 H83 H 0.30729 0.59371 0.52143
 H84 H 0.23334 0.52865 0.49030
 C85 C 0.78602 0.92430 0.52754
 C86 C 0.76748 0.90392 0.55794
 C87 C 0.74059 0.88633 0.54439
 C88 C 0.73504 0.89032 0.50202
 C89 C 0.79349 0.90013 0.49617
 C90 C 0.76699 0.88222 0.48301
 C91 C 0.76104 0.94492 0.51091
 C92 C 0.73413 0.92707 0.49792
 H93 H 0.77508 0.90311 0.58714
 H94 H 0.71332 0.87581 0.49096
 H95 H 0.81777 0.89731 0.48539
 H96 H 0.76209 0.97098 0.51484
 C97 C -0.01029 0.28403 0.41274
 C98 C 0.01927 0.28831 0.38599
 C99 C 0.02254 0.26220 0.36258
 C100 C -0.00431 0.23423 0.36828
 C101 C -0.03774 0.27638 0.38849
 C102 C -0.03465 0.24930 0.36399
 C103 C -0.00600 0.25304 0.43419
 C104 C -0.00267 0.22688 0.41111
 H105 H 0.03690 0.30924 0.38692
 H106 H -0.00193 0.21296 0.34934
 H107 H -0.05902 0.28991 0.38891
 H108 H -0.00411 0.25221 0.46475
 C109 C 0.00478 0.77915 0.10604
 C110 C -0.02294 0.77846 0.13508
 C111 C -0.02364 0.75342 0.15952
 C112 C 0.00330 0.73084 0.15259
 C113 C 0.03538 0.77883 0.12965
 C114 C 0.03451 0.75370 0.15410
 C115 C 0.00096 0.74605 0.08612
 C116 C 0.00021 0.72075 0.11047
 H117 H -0.04041 0.79647 0.13641
 H118 H 0.00264 0.71030 0.17240
 H119 H 0.05609 0.79660 0.12692
 H120 H -0.00040 0.74288 0.05564
 C121 C 0.50556 0.27989 0.60681
 C122 C 0.47757 0.27939 0.63544
 C123 C 0.47660 0.25451 0.66010
 C124 C 0.50358 0.23185 0.65377
 C125 C 0.53592 0.27969 0.63087
 C126 C 0.53481 0.25469 0.65551
 C127 C 0.50191 0.24669 0.58711
 C128 C 0.50090 0.22153 0.61167
 H129 H 0.46017 0.29748 0.63645
 H130 H 0.50267 0.21142 0.67375
 H131 H 0.55671 0.29738 0.62814
 H132 H 0.50100 0.24338 0.55662
 C133 C 0.48994 0.78549 0.91665
 C134 C 0.51993 0.78943 0.89054
 C135 C 0.52311 0.76338 0.86703
 C136 C 0.49583 0.73574 0.87207
 C137 C 0.46151 0.77840 0.88990
 C138 C 0.46436 0.75257 0.86632
 C139 C 0.49260 0.75581 0.93682
 C140 C 0.49601 0.72847 0.91255
 H141 H 0.53767 0.81027 0.89164
 H142 H 0.49815 0.71450 0.85307
 H143 H 0.44079 0.79268 0.88962
 H144 H 0.49437 0.75480 0.96741
 C145 C -0.21333 0.62366 0.94287
 C146 C -0.18786 0.60249 0.95647
 C147 C -0.19867 0.58250 0.98496
 C148 C -0.23407 0.58548 0.99729
 C149 C -0.24241 0.60026 0.93198
 C150 C -0.25344 0.58036 0.96053
 C151 C -0.22445 0.64163 0.97820
 C152 C -0.23545 0.62166 1.00661
 H153 H -0.16355 0.60301 0.94450
 H154 H -0.24273 0.56906 1.02050
 H155 H -0.25586 0.60247 0.90615
 H156 H -0.22322 0.66781 0.98076
 C157 C -0.28766 0.37397 0.46689
 C158 C -0.31541 0.39103 0.48436
 C159 C -0.30599 0.41179 0.51310
 C160 C -0.26952 0.41314 0.52196
 C161 C -0.26238 0.40123 0.45487
 C162 C -0.25266 0.42173 0.48386
 C163 C -0.27319 0.35807 0.49777
 C164 C -0.26300 0.37963 0.52793
 H165 H -0.33960 0.38927 0.47269
 H166 H -0.26207 0.42994 0.54565
 H167 H -0.24964 0.40117 0.42780
 H168 H -0.26915 0.33257 0.49743
 C169 C 0.21339 -0.12334 -0.03478
 C170 C 0.18560 -0.10638 -0.01732
 C171 C 0.19476 -0.08621 0.01204
 C172 C 0.23110 -0.08532 0.02148
 C173 C 0.23902 -0.09603 -0.04577
 C174 C 0.24851 -0.07614 -0.01613
 C175 C 0.22733 -0.13996 -0.00412
 C176 C 0.23729 -0.11902 0.02672
 H177 H 0.16155 -0.10779 -0.02935
 H178 H 0.23836 -0.06902 0.04569
 H179 H 0.25205 -0.09562 -0.07268
 H180 H 0.23127 -0.16548 -0.00509
 C181 C 0.28708 1.12350 0.44379
 C182 C 0.31300 1.10300 0.45773
 C183 C 0.30263 1.08327 0.48663
 C184 C 0.26716 1.08581 0.49900
 C185 C 0.25832 1.09948 0.43343
 C186 C 0.24775 1.07982 0.46238
 C187 C 0.27574 1.14173 0.47882
 C188 C 0.26517 1.12202 0.50764
 H189 H 0.33724 1.10367 0.44554
 H190 H 0.25886 1.06960 0.52255
 H191 H 0.24471 1.10110 0.40762
 H192 H 0.27649 1.16791 0.48088
 C193 C 0.18096 0.53310 0.22842
 C194 C 0.15955 0.51652 0.19752
 C195 C 0.14129 0.48963 0.20978
 C196 C 0.14573 0.48209 0.25159
 C197 C 0.15755 0.53995 0.26085
 C198 C 0.13905 0.51343 0.27286
 C199 C 0.20100 0.50671 0.24285
 C200 C 0.18243 0.47984 0.25468
 H201 H 0.15877 0.52527 0.16881
 H202 H 0.13074 0.46034 0.26166
 H203 H 0.15466 0.56406 0.27204
 H204 H 0.22703 0.50719 0.23866
 C205 C -0.17838 1.02261 0.27880
 C206 C -0.15896 1.00921 0.31052
 C207 C -0.13813 0.98758 0.29783
 C208 C -0.13885 0.98152 0.25473
 C209 C -0.15276 1.03687 0.25063
 C210 C -0.13202 1.01551 0.23805
 C211 C -0.19459 0.99475 0.25971
 C212 C -0.17283 0.97204 0.24650
 H213 H -0.16003 1.01755 0.33974
 H214 H -0.12183 0.96402 0.24440
 H215 H -0.15290 1.06093 0.23898
 H216 H -0.22068 0.98914 0.26074
 C217 C 0.32051 0.52858 -0.22076
 C218 C 0.34043 0.51585 -0.18911
 C219 C 0.36107 0.49399 -0.20152
 C220 C 0.35993 0.48701 -0.24430
 C221 C 0.34548 0.54201 -0.25005
 C222 C 0.36611 0.52045 -0.26225
 C223 C 0.30322 0.49858 -0.23956
 C224 C 0.32394 0.47678 -0.25184
 H225 H 0.33928 0.52428 -0.15994
 H226 H 0.37677 0.46927 -0.25437
 H227 H 0.34517 0.56579 -0.26240
 H228 H 0.27711 0.49330 -0.23896
 C229 C 0.68178 0.03367 -0.26952
 C230 C 0.66027 0.01701 -0.30028
 C231 C 0.64185 -0.00969 -0.28779
 C232 C 0.64624 -0.01697 -0.24590
 C233 C 0.65845 0.04090 -0.23717
 C234 C 0.63978 0.01457 -0.22493
 C235 C 0.70164 0.00723 -0.25486
 C236 C 0.68290 -0.01946 -0.24279
 H237 H 0.65962 0.02552 -0.32911
 H238 H 0.63111 -0.03856 -0.23561
 H239 H 0.65566 0.06513 -0.22629
 H240 H 0.72763 0.00746 -0.25918
 C241 C 0.03595 0.24076 0.83532
 C242 C 0.04112 0.27011 0.86222
 C243 C 0.01525 0.27394 0.88580
 C244 C -0.01344 0.24797 0.88000
 C245 C 0.02762 0.21203 0.86132
 C246 C 0.00187 0.21564 0.88490
 C247 C 0.00657 0.24511 0.81525
 C248 C -0.02054 0.24919 0.83960
 H249 H 0.06256 0.28713 0.86144
 H250 H -0.03456 0.25092 0.89903
 H251 H 0.04099 0.19068 0.86116
 H252 H 0.00550 0.24685 0.78467
 C253 C 0.52854 0.25111 0.13944
 C254 C 0.52794 0.22377 0.10993
 C255 C 0.50305 0.22353 0.08528
 C256 C 0.48053 0.25059 0.09250
 C257 C 0.52859 0.28201 0.11645
 C258 C 0.50361 0.28172 0.09180
 C259 C 0.49525 0.24724 0.15900
 C260 C 0.47006 0.24698 0.13449
 H261 H 0.54593 0.20629 0.10835
 H262 H 0.46013 0.25033 0.07248
 H263 H 0.54635 0.30263 0.12001
 H264 H 0.49190 0.24548 0.18942
 C265 C 0.02628 0.74920 0.63644
 C266 C 0.02549 0.72140 0.60754
 C267 C 0.00037 0.72073 0.58315
 C268 C -0.02217 0.74781 0.59002
 C269 C 0.02605 0.77967 0.61279
 C270 C 0.00085 0.77893 0.58843
 C271 C -0.00684 0.74559 0.65643
 C272 C -0.03225 0.74488 0.63218
 H273 H 0.04368 0.70413 0.60594
 H274 H -0.04276 0.74718 0.57021
 H275 H 0.04378 0.80040 0.61574
 H276 H -0.00992 0.74440 0.68693
 C277 C 0.53750 0.74108 0.33695
 C278 C 0.54285 0.77043 0.36372
 C279 C 0.51710 0.77451 0.38731
 C280 C 0.48824 0.74883 0.38184
 C281 C 0.52869 0.71242 0.36275
 C282 C 0.50311 0.71632 0.38638
 C283 C 0.50653 0.74606 0.31590
 C284 C 0.48077 0.75026 0.33918
 H285 H 0.56436 0.78734 0.36278
 H286 H 0.46719 0.75200 0.40089
 H287 H 0.54171 0.69084 0.36245
 H288 H 0.50533 0.74730 0.28530
 B289 B -0.03173 0.01937 1.03385
 B290 B -0.04766 0.00709 0.99214
 B291 B -0.01780 0.03727 0.99350
 B292 B 0.00847 0.02935 1.02737
 B293 B -0.00551 -0.00653 1.04681
 B294 B -0.04054 -0.02048 1.02486
 B295 B 0.00799 -0.01781 0.97224
 B296 B 0.02417 -0.00490 1.01389
 B297 B -0.00561 -0.03534 1.01248
 B298 B -0.03201 -0.02751 0.97855
 B299 B -0.01820 0.00856 0.95921
 B300 B 0.01694 0.02218 0.98069
 B301 B 0.46884 0.51995 0.53469
 B302 B 0.45312 0.50788 0.49281
 B303 B 0.48307 0.53794 0.49452
 B304 B 0.50910 0.52980 0.52857
 B305 B 0.49485 0.49388 0.54774
 B306 B 0.45991 0.48016 0.52544
 B307 B 0.50876 0.48285 0.47318
 B308 B 0.52472 0.49549 0.51504
 B309 B 0.49484 0.46520 0.51325
 B310 B 0.46870 0.47327 0.47917
 B311 B 0.48277 0.50937 0.46011
 B312 B 0.51783 0.52277 0.48192
 B313 B 0.52159 0.96975 0.54453
 B314 B 0.54487 0.98567 0.50870
 B315 B 0.51452 0.95689 0.49986
 B316 B 0.48314 0.96281 0.52946
 B317 B 0.49442 0.99614 0.55667
 B318 B 0.53302 1.00991 0.54408
 B319 B 0.49441 1.01508 0.48329
 B320 B 0.47112 0.99917 0.51884
 B321 B 0.50158 1.02801 0.52770
 B322 B 0.53289 1.02201 0.49822
 B323 B 0.52149 0.98895 0.47104
 B324 B 0.48309 0.97498 0.48362
 B325 B 0.01997 0.46928 1.04280
 B326 B 0.04333 0.48528 1.00711
 B327 B 0.01313 0.45637 0.99812
 B328 B -0.01840 0.46216 1.02752
 B329 B -0.00737 0.49553 1.05477
 B330 B 0.03121 0.50948 1.04238
 B331 B -0.00714 0.51444 0.98136
 B332 B -0.03053 0.49844 1.01679
 B333 B -0.00024 0.52741 1.02581
 B334 B 0.03123 0.52154 0.99652
 B335 B 0.02010 0.48843 0.96929
 B336 B -0.01831 0.47431 0.98165
 B337 B 0.00006 0.51577 0.44937
 B338 B 0.01789 0.51811 0.49208
 B339 B -0.00979 0.54403 0.48117
 B340 B -0.03896 0.52370 0.45498
 B341 B -0.02924 0.48500 0.45014
 B342 B 0.00634 0.48179 0.47276
 B343 B -0.03862 0.49714 0.52548
 B344 B -0.05647 0.49438 0.48318
 B345 B -0.02876 0.46889 0.49358
 B346 B 0.00032 0.48914 0.51982
 B347 B -0.00969 0.52798 0.52489
 B348 B -0.04508 0.53089 0.50203
 B349 B 0.50112 0.01823 -0.04857
 B350 B 0.51920 0.02046 -0.00602
 B351 B 0.49153 0.04649 -0.01662
 B352 B 0.46217 0.02625 -0.04264
 B353 B 0.47176 -0.01249 -0.04766
 B354 B 0.50744 -0.01582 -0.02533
 B355 B 0.46280 -0.00042 0.02775
 B356 B 0.44473 -0.00308 -0.01441
 B357 B 0.47243 -0.02867 -0.00427
 B358 B 0.50170 -0.00851 0.02180
 B359 B 0.49182 0.03035 0.02704
 B360 B 0.45631 0.03338 0.00446
 B361 B 0.48913 0.49082 -0.02579
 B362 B 0.47842 0.49670 0.01963
 B363 B 0.50544 0.47004 0.00872
 B364 B 0.52888 0.48454 -0.02778
 B365 B 0.51619 0.52103 -0.03894
 B366 B 0.48469 0.52852 -0.00944
 B367 B 0.53817 0.52498 0.03393
 B368 B 0.54887 0.51910 -0.01154
 B369 B 0.52184 0.54587 -0.00082
 B370 B 0.49835 0.53124 0.03575
 B371 B 0.51105 0.49475 0.04685
 B372 B 0.54254 0.48719 0.01743
 B373 B -0.00945 0.98881 0.47395
 B374 B -0.02073 0.99443 0.51922
 B375 B 0.00622 0.96770 0.50854
 B376 B 0.03026 0.98228 0.47260
 B377 B 0.01794 1.01894 0.46152
 B378 B -0.01389 1.02643 0.49053
 B379 B 0.03894 1.02224 0.53481
 B380 B 0.05022 1.01662 0.48949
 B381 B 0.02322 1.04348 0.49994
 B382 B -0.00082 1.02874 0.53599
 B383 B 0.01149 0.99207 0.54701
 B384 B 0.04330 0.98451 0.51808
 B385 B 0.76820 0.21791 0.22095
 B386 B 0.75605 0.20262 0.26302
 B387 B 0.78519 0.23339 0.26121
 B388 B 0.77660 0.25838 0.22632
 B389 B 0.74128 0.24269 0.20663
 B390 B 0.72854 0.20775 0.22953
 B391 B 0.72866 0.25738 0.28060
 B392 B 0.74138 0.27298 0.23858
 B393 B 0.71200 0.24213 0.24040
 B394 B 0.72056 0.21709 0.27533
 B395 B 0.75598 0.23276 0.29499
 B396 B 0.76856 0.26765 0.27259
 B397 B 0.71666 0.76518 0.70693
 B398 B 0.73345 0.78849 0.74222
 B399 B 0.70483 0.75820 0.75193
 B400 B 0.71011 0.72680 0.72212
 B401 B 0.74281 0.73804 0.69386
 B402 B 0.75688 0.77659 0.70606
 B403 B 0.76359 0.73825 0.76657
 B404 B 0.74682 0.71488 0.73155
 B405 B 0.77545 0.74528 0.72177
 B406 B 0.77009 0.77659 0.75147
 B407 B 0.73763 0.76526 0.77972
 B408 B 0.72342 0.72687 0.76756
 B409 B 0.26786 0.26158 0.78873
 B410 B 0.26856 0.27675 0.74498
 B411 B 0.29565 0.25086 0.75639
 B412 B 0.27739 0.22280 0.78571
 B413 B 0.23829 0.23150 0.79163
 B414 B 0.23287 0.26511 0.76616
 B415 B 0.24829 0.21802 0.71649
 B416 B 0.24770 0.20270 0.76016
 B417 B 0.22063 0.22859 0.74878
 B418 B 0.23890 0.25673 0.71954
 B419 B 0.27794 0.24796 0.71357
 B420 B 0.28332 0.21428 0.73892
 B421 B 0.24094 0.73931 0.27861
 B422 B 0.24711 0.72769 0.23357
 B423 B 0.21997 0.75445 0.24354
 B424 B 0.23411 0.77888 0.27948
 B425 B 0.27083 0.76693 0.29120
 B426 B 0.27884 0.73505 0.26262
 B427 B 0.27455 0.78736 0.21774
 B428 B 0.26853 0.79890 0.26290
 B429 B 0.29565 0.77210 0.25299
 B430 B 0.28140 0.74774 0.21703
 B431 B 0.24466 0.75961 0.20540
 B432 B 0.23664 0.79155 0.23393
 B433 B 0.26746 0.72233 0.71848
 B434 B 0.25540 0.70835 0.76120
 B435 B 0.28411 0.73941 0.75819
 B436 B 0.27524 0.76292 0.72192
 B437 B 0.24001 0.74607 0.70274
 B438 B 0.22795 0.71185 0.72730
 B439 B 0.22716 0.76321 0.77592
 B440 B 0.23975 0.77743 0.73314
 B441 B 0.21075 0.74624 0.73644
 B442 B 0.21968 0.72267 0.77254
 B443 B 0.25473 0.73958 0.79175
 B444 B 0.26696 0.77374 0.76767
 B445 B 0.21799 0.26479 0.20561
 B446 B 0.23428 0.28816 0.24114
 B447 B 0.20562 0.25779 0.25043
 B448 B 0.21136 0.22641 0.22075
 B449 B 0.24438 0.23773 0.19303
 B450 B 0.25819 0.27631 0.20542
 B451 B 0.26424 0.23801 0.26612
 B452 B 0.24798 0.21460 0.23083
 B453 B 0.27666 0.24508 0.22150
 B454 B 0.27084 0.27636 0.25107
 B455 B 0.23805 0.26495 0.27877
 B456 B 0.22410 0.22653 0.26642
 B457 B 0.76808 0.75843 0.28967
 B458 B 0.76895 0.77400 0.24611
 B459 B 0.79593 0.74791 0.25724
 B460 B 0.77752 0.71963 0.28619
 B461 B 0.73842 0.72839 0.29211
 B462 B 0.73318 0.76228 0.26704
 B463 B 0.74855 0.71557 0.21685
 B464 B 0.74782 0.69984 0.26032
 B465 B 0.72088 0.72595 0.24918
 B466 B 0.73932 0.75431 0.22035
 B467 B 0.77831 0.74544 0.21436
 B468 B 0.78352 0.71150 0.23930
 B469 B 0.74134 0.23943 0.77952
 B470 B 0.74762 0.22802 0.73443
 B471 B 0.72050 0.25480 0.74447
 B472 B 0.73459 0.27903 0.78060
 B473 B 0.77124 0.26696 0.79238
 B474 B 0.77927 0.23519 0.76364
 B475 B 0.77524 0.28770 0.71905
 B476 B 0.76908 0.29907 0.76425
 B477 B 0.79619 0.27224 0.75430
 B478 B 0.78199 0.24807 0.71814
 B479 B 0.74531 0.26007 0.70644
 B480 B 0.73728 0.29190 0.73511
 C481 C 0.44304 1.05376 0.39033
 C482 C 0.47210 1.04017 0.38305
 C483 C 0.49067 1.03126 0.41291
 C484 C 0.40016 1.04599 0.33643
 C485 C 0.45363 1.05390 0.45730
 C486 C 0.43462 1.06223 0.42732
 C487 C 0.41941 1.05178 0.36116
 C488 C 0.48024 1.03566 0.45056
 H489 H 0.47892 1.03371 0.35442
 H490 H 0.51168 1.01852 0.40612
 H491 H 0.44583 1.05947 0.48573
 H492 H 0.41219 1.07295 0.43325
 C493 C -0.05750 0.55389 0.88795
 C494 C -0.02844 0.54022 0.88097
 C495 C -0.01026 0.53097 0.91101
 C496 C -0.10003 0.54650 0.83369
 C497 C -0.04780 0.55327 0.95510
 C498 C -0.06636 0.56198 0.92492
 C499 C -0.08083 0.55217 0.85849
 C500 C -0.02113 0.53507 0.94856
 H501 H -0.02132 0.53397 0.85238
 H502 H 0.01080 0.51826 0.90441
 H503 H -0.05594 0.55857 0.98347
 H504 H -0.08884 0.57270 0.93061
 C505 C 0.06860 -0.04698 0.87816
 C506 C 0.07695 -0.05464 0.91488
 C507 C 0.05584 -0.04926 0.94507
 C508 C 0.11106 -0.03815 0.82264
 C509 C 0.01730 -0.03123 0.90120
 C510 C 0.03805 -0.03709 0.87120
 C511 C 0.09234 -0.04385 0.84840
 C512 C 0.02705 -0.03468 0.93883
 H513 H 0.10039 -0.06301 0.92046
 H514 H 0.06294 -0.05498 0.97322
 H515 H -0.00543 -0.02185 0.89464
 H516 H 0.03115 -0.03158 0.84276
 C517 C 0.56875 0.45288 0.37864
 C518 C 0.53825 0.46297 0.37193
 C519 C 0.51784 0.46930 0.40209
 C520 C 0.61073 0.46020 0.32244
 C521 C 0.55667 0.45151 0.44575
 C522 C 0.57746 0.44568 0.41539
 C523 C 0.59213 0.45519 0.34845
 C524 C 0.52784 0.46605 0.43967
 H525 H 0.53110 0.46817 0.34348
 H526 H 0.49513 0.47874 0.39564
 H527 H 0.56398 0.44594 0.47386
 H528 H 0.60089 0.43724 0.42079
 C529 C 0.59852 0.53111 0.13401
 C530 C 0.56890 0.54499 0.13520
 C531 C 0.55149 0.54804 0.10186
 C532 C 0.62345 0.50763 0.19522
 C533 C 0.59444 0.52547 0.06618
 C534 C 0.61191 0.52308 0.09916
 C535 C 0.61251 0.51964 0.16786
 C536 C 0.56312 0.53645 0.06702
 H537 H 0.55814 0.55124 0.16211
 H538 H 0.52752 0.55633 0.10409
 H539 H 0.60431 0.51499 0.04094
 H540 H 0.63463 0.51208 0.09776
 C541 C 0.09900 1.02960 0.63555
 C542 C 0.11228 1.02064 0.60100
 C543 C 0.09481 1.02228 0.56791
 C544 C 0.12473 1.00843 0.69755
 C545 C 0.05185 1.04561 0.60280
 C546 C 0.06930 1.04336 0.63627
 C547 C 0.11335 1.01941 0.66981
 C548 C 0.06358 1.03347 0.56828
 H549 H 0.13500 1.00962 0.59999
 H550 H 0.10470 1.01133 0.54296
 H551 H 0.02788 1.05394 0.60469
 H552 H 0.05859 1.05023 0.66296
 C553 C -0.08916 0.49130 0.63607
 C554 C -0.10266 0.50596 0.60566
 C555 C -0.08748 0.50615 0.57035
 C556 C -0.11352 0.50270 0.70397
 C557 C -0.04584 0.47515 0.59473
 C558 C -0.06104 0.47532 0.63048
 C559 C -0.10253 0.49620 0.67332
 C560 C -0.05848 0.49129 0.56436
 H561 H -0.12424 0.51859 0.60963
 H562 H -0.09812 0.51906 0.54807
 H563 H -0.02355 0.46366 0.59137
 H564 H -0.05021 0.46406 0.65398
 C565 C 0.41218 -0.00726 0.13827
 C566 C 0.39883 0.00790 0.10813
 C567 C 0.41412 0.00855 0.07287
 C568 C 0.38753 0.00317 0.20624
 C569 C 0.45556 -0.02296 0.09675
 C570 C 0.44028 -0.02323 0.13245
 C571 C 0.39867 -0.00290 0.17553
 C572 C 0.44305 -0.00639 0.06666
 H573 H 0.37725 0.02050 0.11226
 H574 H 0.40356 0.02177 0.05081
 H575 H 0.47779 -0.03453 0.09319
 H576 H 0.45098 -0.03487 0.15575
 C577 C 0.37631 0.46613 0.04698
 C578 C 0.38976 0.49630 0.06011
 C579 C 0.42286 0.50545 0.05392
 C580 C 0.31520 0.44512 0.04019
 C581 C 0.42822 0.45431 0.02186
 C582 C 0.39589 0.44503 0.02885
 C583 C 0.34217 0.45697 0.04624
 C584 C 0.44245 0.48473 0.03388
 H585 H 0.37459 0.51309 0.07369
 H586 H 0.43262 0.52927 0.06304
 H587 H 0.44102 0.43825 0.00413
 H588 H 0.38563 0.42197 0.01769
 C589 C -0.12300 0.96366 0.54610
 C590 C -0.10946 0.99359 0.55988
 C591 C -0.07640 1.00286 0.55354
 C592 C -0.18415 0.94246 0.54021
 C593 C -0.07127 0.95236 0.51999
 C594 C -0.10356 0.94297 0.52704
 C595 C -0.15712 0.95435 0.54592
 C596 C -0.05692 0.98250 0.53280
 H597 H -0.12451 1.01007 0.57421
 H598 H -0.06655 1.02647 0.56329
 H599 H -0.05853 0.93657 0.50185
 H600 H -0.11389 0.92011 0.51540
 C601 C -0.14732 0.02784 0.96642
 C602 C -0.12600 0.05090 0.98408
 C603 C -0.09474 0.04422 0.99163
 C604 C -0.20487 0.04855 0.96712
 C605 C -0.10493 -0.00873 0.96244
 C606 C -0.13690 -0.00208 0.95532
 C607 C -0.18004 0.03586 0.96381
 C608 C -0.08352 0.01435 0.98111
 H609 H -0.13394 0.07395 0.99335
 H610 H -0.07992 0.06234 1.00724
 H611 H -0.09729 -0.03207 0.95411
 H612 H -0.15343 -0.02025 0.94193
 C613 C 0.35384 0.52921 0.46621
 C614 C 0.37507 0.55208 0.48429
 C615 C 0.40621 0.54520 0.49216
 C616 C 0.29638 0.55006 0.46670
 C617 C 0.39604 0.49245 0.46246
 C618 C 0.36418 0.49929 0.45505
 C619 C 0.32118 0.53738 0.46342
 C620 C 0.41738 0.51534 0.48153
 H621 H 0.36715 0.57510 0.49367
 H622 H 0.42095 0.56317 0.50807
 H623 H 0.40364 0.46911 0.45405
 H624 H 0.34767 0.48124 0.44142
 C625 C 0.12225 0.54473 0.50730
 C626 C 0.10011 0.55385 0.53475
 C627 C 0.06708 0.54471 0.53058
 C628 C 0.18421 0.56523 0.50839
 C629 C 0.07859 0.51641 0.47226
 C630 C 0.11147 0.52551 0.47649
 C631 C 0.15590 0.55600 0.50930
 C632 C 0.05572 0.52720 0.49822
 H633 H 0.10827 0.56846 0.55896
 H634 H 0.05042 0.55247 0.55196
 H635 H 0.07122 0.50119 0.44830
 H636 H 0.12850 0.51786 0.45538
 C637 C 0.62380 0.04663 0.00807
 C638 C 0.60189 0.05609 0.03560
 C639 C 0.56879 0.04710 0.03181
 C640 C 0.68589 0.06679 0.00882
 C641 C 0.57976 0.01828 -0.02631
 C642 C 0.61272 0.02720 -0.02244
 C643 C 0.65753 0.05769 0.00976
 C644 C 0.55712 0.02941 -0.00027
 H645 H 0.61030 0.07086 0.05959
 H646 H 0.55232 0.05513 0.05324
 H647 H 0.57214 0.00293 -0.05008
 H648 H 0.62956 0.01924 -0.04357
 C649 C 0.64662 0.96423 0.49498
 C650 C 0.63725 0.98258 0.52609
 C651 C 0.60536 0.99069 0.52967
 C652 C 0.70395 0.94131 0.49441
 C653 C 0.59250 0.96314 0.47028
 C654 C 0.62437 0.95513 0.46672
 C655 C 0.67812 0.95238 0.49376
 C656 C 0.58219 0.97991 0.50252
 H657 H 0.65433 0.98976 0.54819
 H658 H 0.59862 1.00410 0.55459
 H659 H 0.57594 0.95561 0.44799
 H660 H 0.63142 0.94108 0.44238
 C661 C 0.14539 0.46481 0.99439
 C662 C 0.13560 0.48294 1.02546
 C663 C 0.10359 0.49068 1.02877
 C664 C 0.20315 0.44290 0.99422
 C665 C 0.09139 0.46309 0.96922
 C666 C 0.12339 0.45545 0.96594
 C667 C 0.17711 0.45351 0.99338
 C668 C 0.08071 0.47975 1.00135
 H669 H 0.15245 0.49025 1.04774
 H670 H 0.09655 0.50394 1.05367
 H671 H 0.07503 0.45540 0.94679
 H672 H 0.13076 0.44152 0.94167
 C673 C -0.02835 0.36551 0.47337
 C674 C -0.01003 0.37986 0.50304
 C675 C -0.01357 0.41198 0.51387
 C676 C -0.01481 0.31209 0.43740
 C677 C -0.05530 0.41431 0.46716
 C678 C -0.05209 0.38227 0.45693
 C679 C -0.02036 0.33582 0.45556
 C680 C -0.03495 0.43028 0.49446
 H681 H 0.00844 0.36705 0.51603
 H682 H 0.00265 0.42326 0.53485
 H683 H -0.07153 0.42728 0.45072
 H684 H -0.06639 0.37143 0.43389
 C685 C 0.47223 -0.13239 -0.02359
 C686 C 0.49069 -0.11788 0.00588
 C687 C 0.48746 -0.08560 0.01628
 C688 C 0.48540 -0.18635 -0.05879
 C689 C 0.44574 -0.08334 -0.03044
 C690 C 0.44868 -0.11552 -0.04030
 C691 C 0.47995 -0.16239 -0.04095
 C692 C 0.46618 -0.06730 -0.00328
 H693 H 0.50903 -0.13074 0.01907
 H694 H 0.50379 -0.07427 0.03711
 H695 H 0.42957 -0.07035 -0.04696
 H696 H 0.43428 -0.12645 -0.06320
 C697 C 0.00303 -0.13549 1.05017
 C698 C -0.00208 -0.11077 1.07605
 C699 C -0.00459 -0.07949 1.06382
 C700 C 0.00519 -0.19264 1.08136
 C701 C 0.00297 -0.09699 0.99902
 C702 C 0.00548 -0.12865 1.01148
 C703 C 0.00468 -0.16751 1.06476
 C704 C -0.00150 -0.07174 1.02517
 H705 H -0.00443 -0.11573 1.10600
 H706 H -0.00913 -0.06145 1.08513
 H707 H 0.00399 -0.09254 0.96900
 H708 H 0.00897 -0.14773 0.99103
 C709 C 0.50366 0.36507 0.55080
 C710 C 0.49760 0.38957 0.57661
 C711 C 0.49486 0.42080 0.56439
 C712 C 0.50613 0.30799 0.58197
 C713 C 0.50404 0.40369 0.49975
 C714 C 0.50674 0.37206 0.51220
 C715 C 0.50556 0.33309 0.56535
 C716 C 0.49874 0.42874 0.52585
 H717 H 0.49471 0.38446 0.60648
 H718 H 0.48966 0.43868 0.58563
 H719 H 0.50559 0.40825 0.46979
 H720 H 0.51088 0.35312 0.49180
 C721 C 0.49714 1.12805 0.57192
 C722 C 0.49177 1.10178 0.59612
 C723 C 0.49236 1.07018 0.58199
 C724 C 0.49911 1.18826 0.59857
 C725 C 0.50353 1.09086 0.51921
 C726 C 0.50292 1.12245 0.53340
 C727 C 0.49797 1.16073 0.58672
 C728 C 0.49776 1.06412 0.54315
 H729 H 0.48772 1.10571 0.62609
 H730 H 0.48914 1.05056 0.60181
 H731 H 0.50940 1.08758 0.48961
 H732 H 0.50763 1.14256 0.51441
 C733 C -0.00454 0.62739 1.07018
 C734 C -0.01025 0.60109 1.09427
 C735 C -0.00986 0.56950 1.08005
 C736 C -0.00192 0.68754 1.09714
 C737 C 0.00173 0.59027 1.01738
 C738 C 0.00130 0.62185 1.03167
 C739 C -0.00336 0.66005 1.08513
 C740 C -0.00425 0.56350 1.04123
 H741 H -0.01438 0.60499 1.12423
 H742 H -0.01326 0.54985 1.09981
 H743 H 0.00769 0.58702 0.98780
 H744 H 0.00625 0.64199 1.01277
 C745 C 0.51755 0.64527 -0.04076
 C746 C 0.50536 0.63687 -0.00469
 C747 C 0.50967 0.60640 0.01019
 C748 C 0.50348 0.69969 -0.07281
 C749 C 0.53984 0.59346 -0.04620
 C750 C 0.53568 0.62382 -0.06081
 C751 C 0.51002 0.67495 -0.05828
 C752 C 0.52610 0.58375 -0.01091
 H753 H 0.49135 0.65331 0.01127
 H754 H 0.49836 0.59993 0.03709
 H755 H 0.55218 0.57687 -0.06393
 H756 H 0.54537 0.62993 -0.08864
 C757 C 0.01915 1.14258 0.45966
 C758 C 0.00633 1.13419 0.49545
 C759 C 0.01066 1.10387 0.51065
 C760 C 0.00505 1.19654 0.42675
 C761 C 0.04219 1.09115 0.45522
 C762 C 0.03800 1.12136 0.44030
 C763 C 0.01157 1.17197 0.44166
 C764 C 0.02774 1.08136 0.49012
 H765 H -0.00820 1.15051 0.51089
 H766 H -0.00120 1.09733 0.53723
 H767 H 0.05501 1.07466 0.43790
 H768 H 0.04820 1.12750 0.41271
 C769 C 0.80503 0.68798 0.85839
 C770 C 0.79183 0.71718 0.86588
 C771 C 0.78208 0.73541 0.83620
 C772 C 0.79752 0.64553 0.91253
 C773 C 0.80326 0.69780 0.79138
 C774 C 0.81243 0.67913 0.82122
 C775 C 0.80327 0.66457 0.88766
 C776 C 0.78521 0.72445 0.79855
 H777 H 0.78620 0.72433 0.89465
 H778 H 0.76966 0.75656 0.84324
 H779 H 0.80801 0.68969 0.76286
 H780 H 0.82286 0.65659 0.81514
 C781 C 0.30443 0.18745 0.35864
 C782 C 0.29083 0.21646 0.36598
 C783 C 0.28145 0.23479 0.33618
 C784 C 0.29746 0.14515 0.41304
 C785 C 0.30366 0.19760 0.29163
 C786 C 0.31246 0.17883 0.32157
 C787 C 0.30289 0.16408 0.38798
 C788 C 0.28537 0.22413 0.29854
 H789 H 0.28471 0.22342 0.39467
 H790 H 0.26874 0.25577 0.34307
 H791 H 0.30891 0.18967 0.26317
 H792 H 0.32321 0.15645 0.31560
 C793 C 0.69497 0.31311 0.37686
 C794 C 0.70079 0.28090 0.38138
 C795 C 0.70823 0.26223 0.35000
 C796 C 0.70274 0.35222 0.43555
 C797 C 0.70055 0.30695 0.30912
 C798 C 0.69329 0.32571 0.34065
 C799 C 0.69735 0.33438 0.40898
 C800 C 0.71060 0.27579 0.31362
 H801 H 0.70199 0.27089 0.40937
 H802 H 0.71435 0.23787 0.35484
 H803 H 0.69922 0.31752 0.28176
 H804 H 0.68833 0.35062 0.33690
 C805 C 0.19466 0.81895 0.87266
 C806 C 0.19508 0.78555 0.87533
 C807 C 0.20187 0.76727 0.84330
 C808 C 0.20375 0.85560 0.93327
 C809 C 0.20463 0.81540 0.80544
 C810 C 0.19774 0.83362 0.83746
 C811 C 0.19790 0.83866 0.90604
 C812 C 0.20905 0.78236 0.80831
 H813 H 0.19267 0.77397 0.90256
 H814 H 0.20412 0.74175 0.84685
 H815 H 0.20782 0.82792 0.77928
 H816 H 0.19714 0.85953 0.83513
 C817 C 0.27925 0.84624 0.11689
 C818 C 0.29302 0.81661 0.11576
 C819 C 0.29666 0.79967 0.14928
 C820 C 0.25353 0.87018 0.05664
 C821 C 0.27478 0.84312 0.18477
 C822 C 0.27193 0.86014 0.15165
 C823 C 0.26667 0.85959 0.08337
 C824 C 0.28568 0.81180 0.18416
 H825 H 0.29861 0.80544 0.08887
 H826 H 0.30478 0.77565 0.14722
 H827 H 0.26451 0.85329 0.20994
 H828 H 0.26092 0.88284 0.15295
 C829 C 0.78010 0.34643 0.61822
 C830 C 0.79405 0.31688 0.61722
 C831 C 0.79776 0.30008 0.65080
 C832 C 0.75367 0.36951 0.55790
 C833 C 0.77571 0.34351 0.68613
 C834 C 0.77282 0.36044 0.65293
 C835 C 0.76717 0.35939 0.58466
 C836 C 0.78662 0.31220 0.68561
 H837 H 0.79965 0.30564 0.59038
 H838 H 0.80598 0.27609 0.64884
 H839 H 0.76544 0.35373 0.71126
 H840 H 0.76171 0.38308 0.65413
 C841 C 0.24253 0.16172 0.60976
 C842 C 0.25780 0.15026 0.64099
 C843 C 0.25786 0.16718 0.67521
 C844 C 0.25488 0.13493 0.54345
 C845 C 0.22535 0.20637 0.64820
 C846 C 0.22571 0.18946 0.61352
 C847 C 0.24791 0.14692 0.57340
 C848 C 0.24218 0.19587 0.67930
 H849 H 0.27110 0.12902 0.63844
 H850 H 0.27145 0.15820 0.69804
 H851 H 0.21327 0.22839 0.65008
 H852 H 0.21401 0.19874 0.58932
 C853 C 0.74242 0.66034 0.10941
 C854 C 0.75789 0.64862 0.14034
 C855 C 0.75807 0.66518 0.17480
 C856 C 0.75443 0.63423 0.04265
 C857 C 0.72533 0.70457 0.14860
 C858 C 0.72552 0.68799 0.11370
 C859 C 0.74761 0.64591 0.07282
 C860 C 0.74236 0.69381 0.17940
 H861 H 0.77127 0.62746 0.13736
 H862 H 0.77174 0.65599 0.19741
 H863 H 0.71319 0.72653 0.15088
 H864 H 0.71366 0.69745 0.08974
 C865 C 0.21935 0.62442 0.20986
 C866 C 0.19760 0.64378 0.22721
 C867 C 0.20590 0.67647 0.23291
 C868 C 0.19941 0.56305 0.21669
 C869 C 0.25742 0.67171 0.20137
 C870 C 0.24920 0.63836 0.19631
 C871 C 0.21090 0.59019 0.21095
 C872 C 0.23603 0.69118 0.22053
 H873 H 0.17470 0.63320 0.23850
 H874 H 0.18931 0.68936 0.24980
 H875 H 0.28104 0.68186 0.19197
 H876 H 0.26642 0.62343 0.18314
 C877 C 0.72015 0.12476 0.71090
 C878 C 0.69812 0.14419 0.72759
 C879 C 0.70630 0.17691 0.73312
 C880 C 0.70034 0.06345 0.71844
 C881 C 0.75822 0.17205 0.70256
 C882 C 0.75013 0.13866 0.69773
 C883 C 0.71182 0.09054 0.71240
 C884 C 0.73658 0.19158 0.72117
 H885 H 0.67514 0.13364 0.73867
 H886 H 0.68954 0.18982 0.74972
 H887 H 0.78198 0.18215 0.69358
 H888 H 0.76759 0.12367 0.68516
 C889 C 0.77964 0.10484 0.29236
 C890 C 0.80258 0.12655 0.27519
 C891 C 0.79504 0.15727 0.26651
 C892 C 0.80077 0.04761 0.29032
 C893 C 0.74158 0.14586 0.29414
 C894 C 0.74907 0.11438 0.30217
 C895 C 0.78807 0.07230 0.29445
 C896 C 0.76446 0.16758 0.27564
 H897 H 0.82607 0.11918 0.26668
 H898 H 0.81295 0.17214 0.25072
 H899 H 0.71770 0.15277 0.30136
 H900 H 0.73095 0.09746 0.31499
 C901 C 0.27899 0.61113 0.79281
 C902 C 0.30231 0.63300 0.77656
 C903 C 0.29484 0.66362 0.76737
 C904 C 0.29987 0.55377 0.79058
 C905 C 0.24070 0.65193 0.79296
 C906 C 0.24810 0.62051 0.80137
 C907 C 0.28729 0.57856 0.79473
 C908 C 0.26396 0.67376 0.77523
 H909 H 0.32604 0.62572 0.76890
 H910 H 0.31298 0.67840 0.75184
 H911 H 0.21653 0.65862 0.79903
 H912 H 0.22966 0.60344 0.81336
 C913 C 0.29598 0.38141 0.73424
 C914 C 0.31274 0.36282 0.75827
 C915 C 0.30435 0.32989 0.76090
 C916 C 0.31263 0.44389 0.73931
 C917 C 0.26249 0.33335 0.71456
 C918 C 0.27089 0.36674 0.71215
 C919 C 0.30412 0.41568 0.73497
 C920 C 0.27905 0.31446 0.73926
 H921 H 0.33200 0.37396 0.77574
 H922 H 0.31760 0.31672 0.78064
 H923 H 0.24273 0.32254 0.69770
 H924 H 0.25755 0.38110 0.69365
 C925 C 0.79812 0.87841 0.23535
 C926 C 0.81382 0.85971 0.26029
 C927 C 0.80477 0.82691 0.26308
 C928 C 0.81625 0.94070 0.23928
 C929 C 0.76419 0.83073 0.21529
 C930 C 0.77332 0.86399 0.21263
 C931 C 0.80717 0.91255 0.23553
 C932 C 0.77976 0.81173 0.24079
 H933 H 0.83289 0.87063 0.27819
 H934 H 0.81750 0.81358 0.28318
 H935 H 0.74477 0.82009 0.19781
 H936 H 0.76083 0.87842 0.19334
 C937 C 0.71527 0.89091 0.75727
 C938 C 0.70539 0.86866 0.78522
 C939 C 0.71203 0.83644 0.78104
 C940 C 0.69576 0.94963 0.75959
 C941 C 0.73935 0.84885 0.72140
 C942 C 0.73265 0.88106 0.72562
 C943 C 0.70532 0.92312 0.75943
 C944 C 0.72820 0.82584 0.74851
 H945 H 0.69196 0.87605 0.80988
 H946 H 0.70408 0.81991 0.80316
 H947 H 0.75219 0.84185 0.69616
 H948 H 0.74028 0.89809 0.70370
 C949 C 0.21545 0.39048 0.25530
 C950 C 0.20556 0.36831 0.28334
 C951 C 0.21241 0.33613 0.27945
 C952 C 0.19552 0.44904 0.25714
 C953 C 0.24001 0.34842 0.21995
 C954 C 0.23308 0.38059 0.22388
 C955 C 0.20527 0.42262 0.25716
 C956 C 0.22883 0.32549 0.24714
 H957 H 0.19196 0.37575 0.30785
 H958 H 0.20443 0.31966 0.30163
 H959 H 0.25306 0.34140 0.19488
 H960 H 0.24076 0.39757 0.20190
 C961 C 0.11726 0.22415 0.77338
 C962 C 0.12966 0.24186 0.74225
 C963 C 0.16185 0.23986 0.73042
 C964 C 0.06377 0.23596 0.81040
 C965 C 0.16821 0.20101 0.77943
 C966 C 0.13613 0.20259 0.79059
 C967 C 0.08744 0.23093 0.79181
 C968 C 0.18212 0.22067 0.75025
 H969 H 0.11522 0.25874 0.72875
 H970 H 0.17155 0.25558 0.70813
 H971 H 0.18274 0.18663 0.79641
 H972 H 0.12686 0.18887 0.81482
 C973 C 0.61785 0.72293 0.27418
 C974 C 0.63626 0.70065 0.29080
 C975 C 0.66818 0.69847 0.27928
 C976 C 0.56509 0.73587 0.31191
 C977 C 0.66240 0.73812 0.23101
 C978 C 0.63040 0.74070 0.24318
 C979 C 0.58846 0.73036 0.29307
 C980 C 0.68235 0.71831 0.25040
 H981 H 0.62685 0.68685 0.31491
 H982 H 0.68248 0.68357 0.29588
 H983 H 0.67229 0.75396 0.20893
 H984 H 0.61631 0.75812 0.23013
 C985 C 0.61252 0.24771 0.19824
 C986 C 0.63639 0.23526 0.17565
 C987 C 0.66731 0.23327 0.18955
 C988 C 0.55649 0.25107 0.16451
 C989 C 0.65088 0.25561 0.24963
 C990 C 0.61968 0.25773 0.23542
 C991 C 0.58121 0.25011 0.18189
 C992 C 0.67544 0.24398 0.22657
 H993 H 0.63117 0.22722 0.14692
 H994 H 0.68494 0.22353 0.17075
 H995 H 0.65543 0.26298 0.27852
 H996 H 0.60126 0.26720 0.25336
 C997 C 0.11060 0.74810 0.69509
 C998 C 0.11984 0.76568 0.72788
 C999 C 0.15124 0.76491 0.74189
 C1000 C 0.05447 0.74985 0.66116
 C1001 C 0.16391 0.72907 0.69027
 C1002 C 0.13271 0.72967 0.67664
 C1003 C 0.07932 0.74964 0.67842
 C1004 C 0.17394 0.74681 0.72303
 H1005 H 0.10295 0.78025 0.74232
 H1006 H 0.15757 0.77896 0.76692
 H1007 H 0.18031 0.71486 0.67451
 H1008 H 0.12596 0.71608 0.65114
 C1009 C 0.87472 0.74101 0.67419
 C1010 C 0.84778 0.73550 0.65090
 C1011 C 0.81647 0.73603 0.66608
 C1012 C 0.93453 0.74310 0.64578
 C1013 C 0.83871 0.74737 0.72813
 C1014 C 0.87001 0.74681 0.71288
 C1015 C 0.90715 0.74192 0.65832
 C1016 C 0.81132 0.74151 0.70511
 H1017 H 0.85099 0.73135 0.62083
 H1018 H 0.79633 0.73271 0.64692
 H1019 H 0.83615 0.75327 0.75782
 H1020 H 0.89061 0.75156 0.73123
 C1021 C 0.37655 0.24195 0.17533
 C1022 C 0.34990 0.23634 0.15163
 C1023 C 0.31839 0.23642 0.16638
 C1024 C 0.43670 0.24485 0.14771
 C1025 C 0.33986 0.24747 0.22884
 C1026 C 0.37136 0.24740 0.21401
 C1027 C 0.40919 0.24332 0.15990
 C1028 C 0.31275 0.24154 0.20538
 H1029 H 0.35346 0.23248 0.12156
 H1030 H 0.29848 0.23304 0.14690
 H1031 H 0.33691 0.25311 0.25855
 H1032 H 0.39172 0.25227 0.23269
 C1033 C 0.39552 0.77052 0.29198
 C1034 C 0.37370 0.78797 0.31230
 C1035 C 0.34305 0.79123 0.29801
 C1036 C 0.45026 0.75763 0.32382
 C1037 C 0.35649 0.76154 0.24138
 C1038 C 0.38726 0.75816 0.25595
 C1039 C 0.42538 0.76368 0.30932
 C1040 C 0.33348 0.77719 0.26281
 H1041 H 0.37978 0.79778 0.34011
 H1042 H 0.32622 0.80313 0.31587
 H1043 H 0.35013 0.75015 0.21447
 H1044 H 0.40407 0.74469 0.23982
 C1045 C 0.89602 0.27015 0.79349
 C1046 C 0.87417 0.28746 0.81397
 C1047 C 0.84355 0.29089 0.79965
 C1048 C 0.95069 0.25665 0.82515
 C1049 C 0.85704 0.26160 0.74275
 C1050 C 0.88780 0.25809 0.75732
 C1051 C 0.92584 0.26305 0.81079
 C1052 C 0.83401 0.27714 0.76429
 H1053 H 0.88020 0.29704 0.84189
 H1054 H 0.82669 0.30270 0.81758
 H1055 H 0.85071 0.25040 0.71573
 H1056 H 0.90463 0.24474 0.74106
 C1057 C 0.57634 0.94586 0.63998
 C1058 C 0.58586 0.93471 0.60434
 C1059 C 0.56506 0.93576 0.57366
 C1060 C 0.61950 0.97152 0.68813
 C1061 C 0.52406 0.95487 0.61535
 C1062 C 0.54450 0.95323 0.64600
 C1063 C 0.60023 0.95788 0.66688
 C1064 C 0.53570 0.94999 0.57821
 H1065 H 0.61034 0.92834 0.59940
 H1066 H 0.57371 0.92912 0.54592
 H1067 H 0.50074 0.96393 0.62065
 H1068 H 0.53662 0.96139 0.67359
 C1069 C 0.07530 0.44556 1.13782
 C1070 C 0.04356 0.45316 1.14412
 C1071 C 0.02290 0.45479 1.11368
 C1072 C 0.11885 0.47100 1.18565
 C1073 C 0.06341 0.43515 1.07171
 C1074 C 0.08445 0.43413 1.10216
 C1075 C 0.09943 0.45747 1.16448
 C1076 C 0.03420 0.44961 1.07647
 H1077 H 0.03594 0.46146 1.17175
 H1078 H -0.00031 0.46403 1.11915
 H1079 H 0.07182 0.42833 1.04390
 H1080 H 0.10882 0.42753 1.09702
 C1081 C -0.08265 0.03461 1.13991
 C1082 C -0.05149 0.04995 1.13475
 C1083 C -0.03643 0.04940 1.09897
 C1084 C -0.11166 0.02289 1.20556
 C1085 C -0.08456 0.01995 1.07387
 C1086 C -0.09958 0.02113 1.10904
 C1087 C -0.09701 0.02924 1.17666
 C1088 C -0.05223 0.03287 1.06839
 H1089 H -0.03821 0.06063 1.15862
 H1090 H -0.01150 0.05925 1.09621
 H1091 H -0.09753 0.00570 1.05231
 H1092 H -0.12369 0.00917 1.11274
 C1093 C 0.41665 0.53690 0.63979
 C1094 C 0.40017 0.52272 0.60898
 C1095 C 0.41573 0.52069 0.57420
 C1096 C 0.38660 0.52716 0.70522
 C1097 C 0.46360 0.55045 0.59950
 C1098 C 0.44801 0.55186 0.63491
 C1099 C 0.40163 0.53267 0.67637
 C1100 C 0.44812 0.53351 0.56901
 H1101 H 0.37595 0.51098 0.61248
 H1102 H 0.40300 0.50613 0.55271
 H1103 H 0.48861 0.56015 0.59701
 H1104 H 0.46097 0.56297 0.65877
 C1105 C 0.42197 0.47101 -0.11995
 C1106 C 0.45267 0.45937 -0.12228
 C1107 C 0.47328 0.46251 -0.09094
 C1108 C 0.38411 0.48194 -0.17647
 C1109 C 0.43207 0.48830 -0.05562
 C1110 C 0.41147 0.48425 -0.08609
 C1111 C 0.40237 0.47478 -0.15247
 C1112 C 0.46356 0.47796 -0.05742
 H1113 H 0.46125 0.44944 -0.14867
 H1114 H 0.49748 0.45490 -0.09388
 H1115 H 0.42369 0.50185 -0.03172
 H1116 H 0.38804 0.49386 -0.08407
 C1117 C -0.07616 0.96752 0.37943
 C1118 C -0.08654 0.98204 0.41259
 C1119 C -0.06601 0.98684 0.44304
 C1120 C -0.11456 0.97621 0.32270
 C1121 C -0.02496 0.95966 0.40910
 C1122 C -0.04553 0.95568 0.37777
 C1123 C -0.09596 0.96996 0.34678
 C1124 C -0.03469 0.97608 0.44195
 H1125 H -0.10991 0.99183 0.41407
 H1126 H -0.07438 1.00094 0.46651
 H1127 H -0.00087 0.95171 0.40672
 H1128 H -0.03703 0.94481 0.35189
 C1129 C 0.06583 0.52161 0.35038
 C1130 C 0.06627 0.54777 0.37594
 C1131 C 0.04336 0.54782 0.40553
 C1132 C 0.11311 0.51607 0.30013
 C1133 C 0.01856 0.49649 0.38256
 C1134 C 0.04121 0.49662 0.35306
 C1135 C 0.09154 0.51897 0.32289
 C1136 C 0.02013 0.52135 0.41040
 H1137 H 0.08512 0.56746 0.37398
 H1138 H 0.04542 0.56740 0.42593
 H1139 H 0.00109 0.47567 0.38452
 H1140 H 0.04036 0.47639 0.33330
 C1141 C 0.56648 0.02374 -0.14782
 C1142 C 0.56725 0.04986 -0.12219
 C1143 C 0.54441 0.05007 -0.09255
 C1144 C 0.61381 0.01759 -0.19783
 C1145 C 0.51902 -0.00094 -0.11566
 C1146 C 0.54159 -0.00097 -0.14523
 C1147 C 0.59221 0.02079 -0.17520
 C1148 C 0.52097 0.02380 -0.08768
 H1149 H 0.58632 0.06935 -0.12409
 H1150 H 0.54673 0.06959 -0.07207
 H1151 H 0.50132 -0.02159 -0.11375
 H1152 H 0.54047 -0.02116 -0.16507
 C1153 C 0.65160 0.54696 -0.03727
 C1154 C 0.63268 0.56863 -0.01889
 C1155 C 0.59986 0.56049 -0.01279
 C1156 C 0.71401 0.56528 -0.04005
 C1157 C 0.60400 0.50927 -0.04529
 C1158 C 0.63720 0.51746 -0.05115
 C1159 C 0.68587 0.55537 -0.03978
 C1160 C 0.58497 0.53048 -0.02530
 H1161 H 0.64360 0.59145 -0.00785
 H1162 H 0.58685 0.57707 0.00406
 H1163 H 0.59363 0.48582 -0.05496
 H1164 H 0.65172 0.50050 -0.06551
 C1165 C 0.15324 1.04484 0.46531
 C1166 C 0.13414 1.06622 0.48388
 C1167 C 0.10131 1.05792 0.48963
 C1168 C 0.21544 1.06410 0.46215
 C1169 C 0.10581 1.00701 0.45658
 C1170 C 0.13905 1.01537 0.45106
 C1171 C 0.18743 1.05369 0.46263
 C1172 C 0.08656 1.02802 0.47656
 H1173 H 0.14488 1.08902 0.49520
 H1174 H 0.08812 1.07434 0.50651
 H1175 H 0.09556 0.98363 0.44653
 H1176 H 0.15371 0.99861 0.43658
 C1177 C 0.12310 -0.02904 1.03560
 C1178 C 0.11770 -0.00677 1.00766
 C1179 C 0.08676 0.00313 1.00274
 C1180 C 0.17276 -0.06371 1.02577
 C1181 C 0.06705 -0.02941 1.05577
 C1182 C 0.09802 -0.03929 1.06063
 C1183 C 0.15133 -0.04666 1.03264
 C1184 C 0.06056 -0.00985 1.02517
 H1185 H 0.13680 0.00105 0.98777
 H1186 H 0.08302 0.01879 0.97936
 H1187 H 0.04798 -0.03848 1.07487
 H1188 H 0.10182 -0.05662 1.08231
 C1189 C 0.62307 0.46989 0.53672
 C1190 C 0.61816 0.49293 0.50949
 C1191 C 0.58740 0.50333 0.50471
 C1192 C 0.67217 0.43457 0.52654
 C1193 C 0.56701 0.46984 0.55664
 C1194 C 0.59776 0.45940 0.56131
 C1195 C 0.65101 0.45190 0.53343
 C1196 C 0.56095 0.49015 0.52658
 H1197 H 0.63748 0.50100 0.49001
 H1198 H 0.58399 0.51955 0.48177
 H1199 H 0.54777 0.46056 0.57536
 H1200 H 0.60121 0.44148 0.58244
 C1201 C -0.16092 0.46393 0.48041
 C1202 C -0.14810 0.48868 0.45675
 C1203 C -0.11483 0.49811 0.45690
 C1204 C -0.22177 0.44011 0.48167
 C1205 C -0.10764 0.45764 0.50383
 C1206 C -0.14060 0.44844 0.50373
 C1207 C -0.19455 0.45263 0.48033
 C1208 C -0.09413 0.48268 0.48055
 H1209 H -0.16372 0.50061 0.43829
 H1210 H -0.10547 0.51758 0.43876
 H1211 H -0.09291 0.44521 0.52274
 H1212 H -0.15026 0.42908 0.52195
 C1213 C 0.34026 -0.03366 -0.01751
 C1214 C 0.35313 -0.00883 -0.04104
 C1215 C 0.38638 0.00070 -0.04068
 C1216 C 0.27947 -0.05777 -0.01741
 C1217 C 0.39348 -0.03974 0.00632
 C1218 C 0.36052 -0.04902 0.00603
 C1219 C 0.30668 -0.04518 -0.01811
 C1220 C 0.40704 -0.01470 -0.01694
 H1221 H 0.33757 0.00304 -0.05964
 H1222 H 0.39576 0.02019 -0.05878
 H1223 H 0.40817 -0.05214 0.02529
 H1224 H 0.35082 -0.06842 0.02417
 C1225 C 0.37154 1.02701 0.51999
 C1226 C 0.39153 1.03550 0.55071
 C1227 C 0.42222 1.02416 0.55238
 C1228 C 0.32395 1.06172 0.50241
 C1229 C 0.41196 0.99410 0.49401
 C1230 C 0.38129 1.00524 0.49254
 C1231 C 0.34443 1.04502 0.51235
 C1232 C 0.43363 1.00506 0.52273
 H1233 H 0.38423 1.05235 0.57218
 H1234 H 0.43749 1.03182 0.57581
 H1235 H 0.41935 0.97888 0.47096
 H1236 H 0.36611 0.99864 0.46849
 C1237 C -0.13030 0.52565 1.01800
 C1238 C -0.11047 0.53388 1.04892
 C1239 C -0.07969 0.52277 1.05048
 C1240 C -0.17771 0.56059 1.00064
 C1241 C -0.08952 0.49344 0.99154
 C1242 C -0.12029 0.50435 0.99018
 C1243 C -0.15738 0.54370 1.01049
 C1244 C -0.06804 0.50416 1.02053
 H1245 H -0.11797 0.55043 1.07063
 H1246 H -0.06453 0.53025 1.07408
 H1247 H -0.08191 0.47862 0.96822
 H1248 H -0.13532 0.49802 0.96593
 C1249 C -0.00241 0.64721 0.50555
 C1250 C -0.03085 0.63246 0.49009
 C1251 C -0.03167 0.60074 0.47610
 C1252 C -0.00280 0.69689 0.55306
 C1253 C 0.02512 0.59974 0.48920
 C1254 C 0.02601 0.63153 0.50290
 C1255 C -0.00332 0.67526 0.52987
 C1256 C -0.00433 0.58285 0.47877
 H1257 H -0.05299 0.64443 0.49153
 H1258 H -0.05476 0.58925 0.46705
 H1259 H 0.04721 0.58816 0.48918
 H1260 H 0.04843 0.64297 0.51405
 C1261 C 0.49951 0.14982 0.00779
 C1262 C 0.47085 0.13509 -0.00716
 C1263 C 0.46975 0.10332 -0.02107
 C1264 C 0.49969 0.19969 0.05517
 C1265 C 0.52669 0.10217 -0.00895
 C1266 C 0.52784 0.13400 0.00471
 C1267 C 0.49896 0.17799 0.03203
 C1268 C 0.49707 0.08535 -0.01891
 H1269 H 0.44876 0.14714 -0.00538
 H1270 H 0.44651 0.09190 -0.02968
 H1271 H 0.54875 0.09053 -0.00935
 H1272 H 0.55042 0.14539 0.01549
 C1273 C -0.02081 0.13636 0.94997
 C1274 C -0.03592 0.10979 0.93055
 C1275 C -0.03635 0.07886 0.94538
 C1276 C -0.00882 0.19026 0.91104
 C1277 C -0.00813 0.10072 1.00071
 C1278 C -0.00740 0.13184 0.98547
 C1279 C -0.01524 0.16675 0.93043
 C1280 C -0.02191 0.07361 0.98038
 H1281 H -0.04607 0.11275 0.90291
 H1282 H -0.04720 0.05888 0.92859
 H1283 H 0.00333 0.09777 1.02757
 H1284 H 0.00480 0.15211 1.00066
 C1285 C 0.48012 0.63714 0.45133
 C1286 C 0.46520 0.61061 0.43170
 C1287 C 0.46480 0.57963 0.44639
 C1288 C 0.49227 0.69103 0.41254
 C1289 C 0.49266 0.60138 0.50202
 C1290 C 0.49338 0.63255 0.48691
 C1291 C 0.48576 0.66754 0.43191
 C1292 C 0.47907 0.57432 0.48147
 H1293 H 0.45520 0.61362 0.40399
 H1294 H 0.45409 0.55971 0.42943
 H1295 H 0.50399 0.59837 0.52894
 H1296 H 0.50545 0.65280 0.50224
 C1297 C 0.51776 0.85907 0.44852
 C1298 C 0.52054 0.88657 0.42620
 C1299 C 0.52067 0.91721 0.44275
 C1300 C 0.51631 0.80287 0.41156
 C1301 C 0.51583 0.89353 0.50480
 C1302 C 0.51561 0.86258 0.48798
 C1303 C 0.51667 0.82775 0.42987
 C1304 C 0.51846 0.92140 0.48237
 H1305 H 0.52204 0.88432 0.39568
 H1306 H 0.52180 0.93759 0.42400
 H1307 H 0.51298 0.89549 0.53515
 H1308 H 0.51323 0.84145 0.50566
 C1309 C 0.01613 0.35841 0.94716
 C1310 C 0.01347 0.36199 0.98657
 C1311 C 0.01387 0.39299 1.00328
 C1312 C 0.01432 0.30218 0.91021
 C1313 C 0.02004 0.41658 0.94126
 C1314 C 0.01975 0.38588 0.92481
 C1315 C 0.01477 0.32705 0.92855
 C1316 C 0.01721 0.42084 0.98081
 H1317 H 0.01049 0.34089 1.00427
 H1318 H 0.01057 0.39503 1.03357
 H1319 H 0.02172 0.43694 0.92247
 H1320 H 0.02174 0.38357 0.89433
 C1321 C 0.49507 0.36682 0.03913
 C1322 C 0.48505 0.39037 0.06403
 C1323 C 0.48743 0.42258 0.05365
 C1324 C 0.49903 0.30964 0.06943
 C1325 C 0.50844 0.40819 -0.00796
 C1326 C 0.50645 0.37563 0.00285
 C1327 C 0.49670 0.33477 0.05350
 C1328 C 0.49945 0.43221 0.01764
 H1329 H 0.47647 0.38398 0.09224
 H1330 H 0.48015 0.44000 0.07443
 H1331 H 0.51798 0.41463 -0.03573
 H1332 H 0.51464 0.35758 -0.01657
 C1333 C -0.00717 0.86411 0.53643
 C1334 C -0.01625 0.88757 0.56204
 C1335 C -0.01275 0.91997 0.55254
 C1336 C -0.00400 0.80662 0.56591
 C1337 C 0.00749 0.90598 0.49039
 C1338 C 0.00437 0.87322 0.50033
 C1339 C -0.00616 0.83182 0.55015
 C1340 C -0.00049 0.92987 0.51674
 H1341 H -0.02491 0.88092 0.59015
 H1342 H -0.01943 0.93727 0.57378
 H1343 H 0.01705 0.91264 0.46270
 H1344 H 0.01187 0.85521 0.48039
 C1345 C 0.19399 0.32123 0.11241
 C1346 C 0.20133 0.28956 0.10522
 C1347 C 0.20278 0.26834 0.13509
 C1348 C 0.22108 0.36556 0.06688
 C1349 C 0.18326 0.30817 0.17807
 C1350 C 0.18241 0.32975 0.14822
 C1351 C 0.20677 0.34585 0.08695
 C1352 C 0.19774 0.27907 0.17254
 H1353 H 0.20975 0.28245 0.07744
 H1354 H 0.21201 0.24523 0.12907
 H1355 H 0.17654 0.31614 0.20608
 H1356 H 0.17605 0.35408 0.15403
 C1357 C 0.69232 0.82115 0.61363
 C1358 C 0.69880 0.78920 0.60665
 C1359 C 0.70024 0.76820 0.63675
 C1360 C 0.72046 0.86446 0.56756
 C1361 C 0.68219 0.80888 0.67959
 C1362 C 0.68138 0.83024 0.64951
 C1363 C 0.70564 0.84529 0.58787
 C1364 C 0.69604 0.77943 0.67416
 H1365 H 0.70672 0.78165 0.57882
 H1366 H 0.70891 0.74482 0.63084
 H1367 H 0.67597 0.81723 0.70761
 H1368 H 0.67561 0.85479 0.65514
 C1369 C 0.28318 0.66809 0.61557
 C1370 C 0.27252 0.65165 0.64800
 C1371 C 0.27191 0.66792 0.68251
 C1372 C 0.26977 0.63691 0.55153
 C1373 C 0.29695 0.71638 0.65343
 C1374 C 0.29684 0.70006 0.61841
 C1375 C 0.27660 0.65239 0.57975
 C1376 C 0.28252 0.70108 0.68559
 H1377 H 0.26200 0.62686 0.64610
 H1378 H 0.25936 0.65507 0.70534
 H1379 H 0.30514 0.74184 0.65430
 H1380 H 0.30543 0.71293 0.59333
 C1381 C 0.78293 0.16611 0.11593
 C1382 C 0.77184 0.14903 0.14774
 C1383 C 0.77143 0.16443 0.18277
 C1384 C 0.76954 0.13626 0.05107
 C1385 C 0.79738 0.21328 0.15546
 C1386 C 0.79710 0.19782 0.11989
 C1387 C 0.77638 0.15126 0.07963
 C1388 C 0.78268 0.19735 0.18705
 H1389 H 0.76092 0.12444 0.14500
 H1390 H 0.75858 0.15120 0.20512
 H1391 H 0.80601 0.23860 0.15728
 H1392 H 0.80604 0.21119 0.09530
 C1393 C 0.71931 0.17331 0.87406
 C1394 C 0.70683 0.20360 0.87505
 C1395 C 0.71103 0.22393 0.84359
 C1396 C 0.72732 0.13545 0.93134
 C1397 C 0.73965 0.18326 0.81090
 C1398 C 0.73465 0.16295 0.84144
 C1399 C 0.72141 0.15382 0.90693
 C1400 C 0.72831 0.21429 0.81135
 H1401 H 0.69527 0.21205 0.90052
 H1402 H 0.70254 0.24780 0.84543
 H1403 H 0.75438 0.17497 0.78794
 H1404 H 0.74487 0.13982 0.84050
 C1405 C 0.21946 0.67402 0.37393
 C1406 C 0.20698 0.70430 0.37470
 C1407 C 0.21095 0.72434 0.34298
 C1408 C 0.22832 0.63685 0.43152
 C1409 C 0.23934 0.68338 0.31049
 C1410 C 0.23455 0.66335 0.34129
 C1411 C 0.22200 0.65493 0.40701
 C1412 C 0.22802 0.71441 0.31071
 H1413 H 0.19563 0.71299 0.40019
 H1414 H 0.20252 0.74824 0.34466
 H1415 H 0.25393 0.67491 0.28750
 H1416 H 0.24481 0.64023 0.34056
 C1417 C 0.77340 0.81939 0.39371
 C1418 C 0.75682 0.82828 0.36223
 C1419 C 0.75646 0.80957 0.32941
 C1420 C 0.76951 0.85826 0.45331
 C1421 C 0.79040 0.77270 0.35837
 C1422 C 0.79059 0.79170 0.39177
 C1423 C 0.77196 0.83948 0.42723
 C1424 C 0.77304 0.78129 0.32671
 H1425 H 0.74359 0.84963 0.36317
 H1426 H 0.74255 0.81746 0.30624
 H1427 H 0.80313 0.75105 0.35761
 H1428 H 0.80368 0.78460 0.41608
 C1429 C 0.27358 0.32300 0.89226
 C1430 C 0.29080 0.29537 0.89035
 C1431 C 0.29054 0.27628 0.85705
 C1432 C 0.26953 0.36138 0.95226
 C1433 C 0.25648 0.31303 0.82805
 C1434 C 0.25694 0.33185 0.86079
 C1435 C 0.27203 0.34291 0.92590
 C1436 C 0.27303 0.28473 0.82545
 H1437 H 0.30395 0.28833 0.91465
 H1438 H 0.30327 0.25464 0.85635
 H1439 H 0.24245 0.32076 0.80489
 H1440 H 0.24370 0.35320 0.86172
 C1441 C 0.79747 0.40193 0.78826
 C1442 C 0.76769 0.38802 0.80203
 C1443 C 0.75924 0.35480 0.79671
 C1444 C 0.81720 0.46392 0.78942
 C1445 C 0.81066 0.34987 0.76486
 C1446 C 0.81906 0.38261 0.77050
 C1447 C 0.80642 0.43608 0.79005
 C1448 C 0.78045 0.33534 0.77736
 H1449 H 0.75076 0.40289 0.81587
 H1450 H 0.73565 0.34472 0.80630
 H1451 H 0.82720 0.33665 0.74823
 H1452 H 0.84206 0.39315 0.75948
 C1453 C 0.29755 0.90156 0.28799
 C1454 C 0.31868 0.88242 0.26910
 C1455 C 0.31005 0.84977 0.26297
 C1456 C 0.31771 0.96344 0.29070
 C1457 C 0.25923 0.85445 0.29623
 C1458 C 0.26795 0.88756 0.30216
 C1459 C 0.30680 0.93563 0.29067
 C1460 C 0.28003 0.83518 0.27595
 H1461 H 0.34153 0.89303 0.25775
 H1462 H 0.32631 0.83666 0.24578
 H1463 H 0.23579 0.84431 0.30625
 H1464 H 0.25136 0.90228 0.31687
 C1465 C 0.21613 0.87565 0.70808
 C1466 C 0.24559 0.87097 0.72488
 C1467 C 0.25473 0.83971 0.72945
 C1468 C 0.18749 0.92812 0.72557
 C1469 C 0.20672 0.81792 0.69665
 C1470 C 0.19751 0.84920 0.69235
 C1471 C 0.20159 0.90538 0.71513
 C1472 C 0.23402 0.81262 0.71806
 H1473 H 0.26023 0.89120 0.73725
 H1474 H 0.27666 0.83686 0.74474
 H1475 H 0.19136 0.79806 0.68498
 H1476 H 0.17468 0.85248 0.67913
 C1477 C 0.71785 0.37182 0.21504
 C1478 C 0.74469 0.36692 0.23696
 C1479 C 0.75383 0.33574 0.24193
 C1480 C 0.68794 0.42435 0.22797
 C1481 C 0.71102 0.31444 0.20043
 C1482 C 0.70184 0.34568 0.19560
 C1483 C 0.70267 0.40148 0.21960
 C1484 C 0.73577 0.30881 0.22564
 H1485 H 0.75712 0.38690 0.25245
 H1486 H 0.77362 0.33272 0.26074
 H1487 H 0.69755 0.29473 0.18588
 H1488 H 0.68094 0.34910 0.17862
 C1489 C 0.72058 0.59488 0.26887
 C1490 C 0.70373 0.61385 0.24534
 C1491 C 0.71194 0.64691 0.24352
 C1492 C 0.69812 0.53358 0.27076
 C1493 C 0.75416 0.64272 0.28919
 C1494 C 0.74574 0.60930 0.29107
 C1495 C 0.71016 0.56103 0.27066
 C1496 C 0.73732 0.66202 0.26527
 H1497 H 0.68404 0.60305 0.22827
 H1498 H 0.69843 0.66042 0.22440
 H1499 H 0.77395 0.65331 0.30617
 H1500 H 0.75877 0.59479 0.30973
 C1501 C 0.22056 0.09787 0.76998
 C1502 C 0.20371 0.11662 0.74622
 C1503 C 0.21190 0.14962 0.74400
 C1504 C 0.19804 0.03664 0.77193
 C1505 C 0.25419 0.14586 0.78970
 C1506 C 0.24577 0.11245 0.79199
 C1507 C 0.21016 0.06404 0.77198
 C1508 C 0.23729 0.16494 0.76558
 H1509 H 0.18406 0.10566 0.72920
 H1510 H 0.19840 0.16294 0.72465
 H1511 H 0.27404 0.15659 0.80649
 H1512 H 0.25886 0.09809 0.81074
 C1513 C 0.27772 0.11612 0.23047
 C1514 C 0.28563 0.13587 0.19946
 C1515 C 0.27346 0.16609 0.19739
 C1516 C 0.31429 0.07032 0.24875
 C1517 C 0.24355 0.15566 0.25582
 C1518 C 0.25552 0.12543 0.25767
 C1519 C 0.29676 0.08997 0.23864
 C1520 C 0.25412 0.17726 0.22694
 H1521 H 0.30276 0.12883 0.17814
 H1522 H 0.28081 0.18130 0.17384
 H1523 H 0.22814 0.16287 0.27879
 H1524 H 0.24930 0.11037 0.28188
 C1525 C 0.77625 0.61622 0.72992
 C1526 C 0.78331 0.63590 0.69864
 C1527 C 0.77121 0.66619 0.69712
 C1528 C 0.81331 0.57046 0.74693
 C1529 C 0.74300 0.65598 0.75668
 C1530 C 0.75492 0.62570 0.75803
 C1531 C 0.79550 0.59006 0.73737
 C1532 C 0.75279 0.67750 0.72743
 H1533 H 0.79978 0.62876 0.67665
 H1534 H 0.77790 0.68133 0.67330
 H1535 H 0.72833 0.66332 0.78026
 H1536 H 0.74943 0.61074 0.78250
 C1537 C 0.89934 0.75468 0.23039
 C1538 C 0.88752 0.73476 0.25999
 C1539 C 0.85532 0.73565 0.27273
 C1540 C 0.95192 0.75003 0.18889
 C1541 C 0.84782 0.77701 0.22712
 C1542 C 0.87983 0.77678 0.21547
 C1543 C 0.92917 0.75052 0.21041
 C1544 C 0.83451 0.75584 0.25519
 H1545 H 0.90241 0.71733 0.27164
 H1546 H 0.84602 0.71850 0.29378
 H1547 H 0.83298 0.79170 0.21104
 H1548 H 0.88854 0.79207 0.19225
 C1549 C 0.39911 0.25707 0.73004
 C1550 C 0.38716 0.23769 0.76005
 C1551 C 0.35495 0.23885 0.77255
 C1552 C 0.45194 0.25154 0.68924
 C1553 C 0.34765 0.27947 0.72594
 C1554 C 0.37970 0.27897 0.71447
 C1555 C 0.42903 0.25248 0.71046
 C1556 C 0.33423 0.25875 0.75438
 H1557 H 0.40197 0.22043 0.77220
 H1558 H 0.34558 0.22209 0.79398
 H1559 H 0.33285 0.29400 0.70956
 H1560 H 0.38854 0.29387 0.69099
 C1561 C 0.38349 0.73549 0.80240
 C1562 C 0.37932 0.74564 0.76522
 C1563 C 0.34800 0.74621 0.75045
 C1564 C 0.43872 0.74334 0.83978
 C1565 C 0.32530 0.72653 0.80997
 C1566 C 0.35628 0.72561 0.82432
 C1567 C 0.41470 0.73872 0.82068
 C1568 C 0.32047 0.73708 0.77288
 H1569 H 0.40013 0.75386 0.74802
 H1570 H 0.34535 0.75443 0.72188
 H1571 H 0.30510 0.71898 0.82839
 H1572 H 0.35894 0.71809 0.85321
 C1573 C 0.88508 0.22947 0.30352
 C1574 C 0.88032 0.24074 0.26698
 C1575 C 0.84885 0.24095 0.25267
 C1576 C 0.94059 0.23946 0.34002
 C1577 C 0.82704 0.21837 0.31126
 C1578 C 0.85826 0.21786 0.32518
 C1579 C 0.91635 0.23374 0.32152
 C1580 C 0.82167 0.23034 0.27496
 H1581 H 0.90080 0.25033 0.25004
 H1582 H 0.84579 0.25028 0.22469
 H1583 H 0.80707 0.20970 0.32946
 H1584 H 0.86138 0.20949 0.35364
 C1585 C 0.10761 0.26082 0.30212
 C1586 C 0.13525 0.26403 0.32435
 C1587 C 0.16597 0.26417 0.30773
 C1588 C 0.05109 0.26033 0.33869
 C1589 C 0.14205 0.25843 0.24583
 C1590 C 0.11108 0.25823 0.26269
 C1591 C 0.07616 0.26012 0.32069
 C1592 C 0.17007 0.26156 0.26813
 H1593 H 0.13308 0.26594 0.35485
 H1594 H 0.18648 0.26567 0.32637
 H1595 H 0.14391 0.25523 0.21552
 H1596 H 0.08989 0.25556 0.24503
 C1597 C 0.60752 0.76184 0.80529
 C1598 C 0.61049 0.75941 0.76580
 C1599 C 0.64123 0.75938 0.74841
 C1600 C 0.55146 0.76154 0.84281
 C1601 C 0.66592 0.76459 0.80991
 C1602 C 0.63544 0.76469 0.82706
 C1603 C 0.57632 0.76128 0.82441
 C1604 C 0.66952 0.76212 0.77024
 H1605 H 0.58908 0.75702 0.74850
 H1606 H 0.64270 0.75633 0.71804
 H1607 H 0.68666 0.76583 0.82820
 H1608 H 0.63366 0.76649 0.85759
 C1609 C 0.61784 0.24461 0.71195
 C1610 C 0.62624 0.25733 0.74780
 C1611 C 0.65856 0.25895 0.75957
 C1612 C 0.56194 0.24984 0.67906
 C1613 C 0.67346 0.23472 0.69984
 C1614 C 0.64145 0.23269 0.68856
 C1615 C 0.58642 0.24702 0.69615
 C1616 C 0.68275 0.24825 0.73531
 H1617 H 0.60815 0.26706 0.76599
 H1618 H 0.66476 0.26976 0.78683
 H1619 H 0.69106 0.22629 0.68002
 H1620 H 0.63538 0.22315 0.66062
 C1621 C 0.11743 0.74397 0.21080
 C1622 C 0.14105 0.73177 0.18769
 C1623 C 0.17302 0.73386 0.19908
 C1624 C 0.06164 0.74901 0.17765
 C1625 C 0.15803 0.75872 0.25842
 C1626 C 0.12575 0.75703 0.24653
 C1627 C 0.08607 0.74630 0.19484
 C1628 C 0.18225 0.74775 0.23441
 H1629 H 0.13502 0.72191 0.15988
 H1630 H 0.19063 0.72522 0.17943
 H1631 H 0.16418 0.76979 0.28557
 H1632 H 0.10761 0.76693 0.26450
   
