data_POSCAR
  _audit_creation_date              2014-09-24
  _audit_creation_method            'ToBaCCo'
  _symmetry_space_group_name_H-M    'P1'
  _symmetry_Int_Tables_number       1
  _symmetry_cell_setting            triclinic
  loop_
  _symmetry_equiv_pos_as_xyz
 x,y,z
_cell_length_a 54.0271
_cell_length_b 48.6705
_cell_length_c 54.6127
_cell_angle_alpha 91.025900
_cell_angle_beta 90.651400
_cell_angle_gamma 91.018600
loop_
  _atom_site_label
  _atom_site_type_symbol
  _atom_site_fract_x
  _atom_site_fract_y
  _atom_site_fract_z
C1 C 0.39954 0.28567 -0.00320
 C2 C 0.39988 0.28631 0.02186
 C3 C 0.37920 0.30065 0.02901
 N4 N 0.36604 0.30852 0.00916
 C5 C 0.37832 0.29908 -0.01060
 C6 C 0.37121 0.30340 0.05339
 C7 C 0.35257 0.32163 0.06059
 C8 C 0.34130 0.32194 0.08328
 C9 C 0.32537 0.34365 0.08341
 C10 C 0.32741 0.35596 0.06080
 N11 N 0.34416 0.34257 0.04708
 C12 C 0.31497 0.37982 0.05375
 C13 C 0.31244 0.38733 0.02900
 C14 C 0.30305 0.41201 0.02121
 C15 C 0.30134 0.41007 -0.00380
 C16 C 0.30979 0.38427 -0.01050
 N17 N 0.31672 0.37041 0.00959
 C18 C 0.30855 0.37304 -0.03463
 C19 C 0.32314 0.35050 -0.04227
 C20 C 0.31905 0.33497 -0.06356
 C21 C 0.33626 0.31453 -0.06377
 C22 C 0.35044 0.31786 -0.04255
 N23 N 0.34252 0.34007 -0.02968
 C24 C 0.36932 0.29972 -0.03509
 H25 H 0.41302 0.27573 -0.01471
 H26 H 0.41356 0.27688 0.03347
 H27 H 0.35057 0.34836 -0.01372
 H28 H 0.34441 0.30818 0.09831
 H29 H 0.31367 0.34972 0.09845
 H30 H 0.29762 0.42941 0.03240
 H31 H 0.29429 0.42569 -0.01577
 H32 H 0.33741 0.29835 -0.07753
 H33 H 0.35133 0.34913 0.03054
 H34 H 0.30459 0.33739 -0.07718
 C35 C 0.70886 0.60363 0.01083
 C36 C 0.71556 0.61064 -0.01246
 C37 C 0.70525 0.63598 -0.01681
 N38 N 0.69299 0.64491 0.00306
 C39 C 0.69519 0.62526 0.02003
 C40 C 0.70920 0.65185 -0.03773
 C41 C 0.69498 0.67508 -0.04314
 C42 C 0.70103 0.69435 -0.06056
 C43 C 0.68142 0.71191 -0.06196
 C44 C 0.66381 0.70271 -0.04554
 N45 N 0.67237 0.68044 -0.03390
 C46 C 0.63955 0.71320 -0.04331
 C47 C 0.62650 0.71084 -0.02093
 C48 C 0.60152 0.71583 -0.01741
 C49 C 0.59681 0.71123 0.00688
 C50 C 0.61881 0.70281 0.01725
 N51 N 0.63694 0.70275 0.00036
 C52 C 0.62205 0.69545 0.04195
 C53 C 0.64270 0.68074 0.05026
 C54 C 0.64941 0.67791 0.07468
 C55 C 0.66740 0.65832 0.07541
 C56 C 0.67116 0.64974 0.05142
 N57 N 0.65623 0.66373 0.03618
 C58 C 0.68664 0.62801 0.04425
 H59 H 0.71389 0.58499 0.02001
 H60 H 0.72686 0.59857 -0.02468
 H61 H 0.65278 0.65908 0.01777
 H62 H 0.71759 0.69530 -0.07150
 H63 H 0.67998 0.72913 -0.07414
 H64 H 0.58781 0.72143 -0.03090
 H65 H 0.57906 0.71300 0.01571
 H66 H 0.67630 0.65081 0.09177
 H67 H 0.66197 0.66765 -0.02274
 H68 H 0.64151 0.68821 0.09041
 C69 C 0.72416 0.37826 0.98721
 C70 C 0.72223 0.37268 1.01161
 C71 C 0.70732 0.34932 1.01318
 N72 N 0.70000 0.34049 0.99062
 C73 C 0.71039 0.35809 0.97470
 C74 C 0.70379 0.33430 1.03471
 C75 C 0.68638 0.31256 1.03649
 C76 C 0.68627 0.29331 1.05485
 C77 C 0.66641 0.27591 1.05009
 C78 C 0.65468 0.28530 1.02914
 N79 N 0.66699 0.30775 1.02103
 C80 C 0.63324 0.27313 1.01792
 C81 C 0.62664 0.27864 0.99330
 C82 C 0.60377 0.27253 0.98254
 C83 C 0.60590 0.27792 0.95815
 C84 C 0.62978 0.28793 0.95485
 N85 N 0.64245 0.28843 0.97636
 C86 C 0.64055 0.29261 0.93185
 C87 C 0.66279 0.30776 0.92905
 C88 C 0.67668 0.30863 0.90787
 C89 C 0.69652 0.32615 0.91273
 C90 C 0.69408 0.33549 0.93671
 N91 N 0.67323 0.32459 0.94633
 C92 C 0.71069 0.35378 0.94910
 H93 H 0.73521 0.39464 0.97946
 H94 H 0.73153 0.38389 1.02645
 H95 H 0.66552 0.32983 0.96312
 H96 H 0.69937 0.29169 1.06987
 H97 H 0.66152 0.25806 1.06065
 H98 H 0.58735 0.26447 0.99126
 H99 H 0.59156 0.27447 0.94440
 H100 H 0.71115 0.33126 0.90013
 H101 H 0.66136 0.32037 1.00688
 H102 H 0.67296 0.29772 0.89074
 C103 C 0.27528 0.62429 1.00353
 C104 C 0.28111 0.62541 0.97920
 C105 C 0.29167 0.65117 0.97562
 N106 N 0.29285 0.66565 0.99700
 C107 C 0.28270 0.64929 1.01403
 C108 C 0.29882 0.66185 0.95284
 C109 C 0.31384 0.68582 0.95164
 C110 C 0.31628 0.70232 0.93136
 C111 C 0.33461 0.72153 0.93704
 C112 C 0.34301 0.71591 0.96050
 N113 N 0.33004 0.69433 0.96933
 C114 C 0.36370 0.72856 0.97239
 C115 C 0.36888 0.72468 0.99745
 C116 C 0.39190 0.72844 1.00846
 C117 C 0.38876 0.72377 1.03294
 C118 C 0.36370 0.71830 1.03620
 N119 N 0.35167 0.71844 1.01433
 C120 C 0.35175 0.71410 1.05888
 C121 C 0.32732 0.70295 1.05920
 C122 C 0.31023 0.70767 1.07750
 C123 C 0.28966 0.69169 1.07178
 C124 C 0.29480 0.67747 1.05022
 N125 N 0.31762 0.68491 1.04241
 C126 C 0.27915 0.65727 1.03874
 H127 H 0.26683 0.60694 1.01257
 H128 H 0.27801 0.60904 0.96581
 H129 H 0.32713 0.67598 1.02788
 H130 H 0.30618 0.70042 0.91417
 H131 H 0.34141 0.73730 0.92499
 H132 H 0.40921 0.73346 0.99965
 H133 H 0.40341 0.72415 1.04661
 H134 H 0.27286 0.69067 1.08235
 H135 H 0.33417 0.68375 0.98523
 H136 H 0.31239 0.72125 1.09332
 C137 C -0.01978 0.30113 0.39775
 C138 C 0.00539 0.29882 0.40004
 C139 C 0.01572 0.31457 0.38184
 N140 N -0.00233 0.32648 0.36851
 C141 C -0.02421 0.31808 0.37799
 C142 C 0.04137 0.32002 0.37947
 C143 C 0.05153 0.33542 0.36025
 C144 C 0.07526 0.34688 0.36017
 C145 C 0.07835 0.35872 0.33775
 C146 C 0.05667 0.35361 0.32453
 N147 N 0.04042 0.33944 0.33839
 C148 C 0.05260 0.36051 0.29984
 C149 C 0.02867 0.35960 0.28940
 C150 C 0.02344 0.35928 0.26455
 C151 C -0.00169 0.36201 0.26229
 C152 C -0.01083 0.36439 0.28589
 N153 N 0.00774 0.36252 0.30245
 C154 C -0.03528 0.37179 0.29187
 C155 C -0.04541 0.36523 0.31507
 C156 C -0.06705 0.37563 0.32463
 C157 C -0.07086 0.36304 0.34659
 C158 C -0.05077 0.34622 0.35079
 N159 N -0.03555 0.34745 0.33124
 C160 C -0.04769 0.32866 0.37121
 H161 H -0.03303 0.29228 0.41016
 H162 H 0.01497 0.28769 0.41416
 H163 H -0.02051 0.33486 0.32803
 H164 H 0.08907 0.34674 0.37465
 H165 H 0.09483 0.36957 0.33187
 H166 H 0.03643 0.35776 0.24967
 H167 H -0.01202 0.36308 0.24524
 H168 H -0.08686 0.36629 0.35785
 H169 H 0.02380 0.33037 0.33235
 H170 H -0.07907 0.39077 0.31684
 C171 C -0.01653 0.70231 0.60090
 C172 C 0.00834 0.70444 0.59690
 C173 C 0.01975 0.69036 0.61550
 N174 N 0.00282 0.68032 0.63118
 C175 C -0.01953 0.68827 0.62267
 C176 C 0.04532 0.68566 0.61644
 C177 C 0.05585 0.66421 0.62961
 C178 C 0.07608 0.64950 0.62198
 C179 C 0.08044 0.63043 0.63961
 C180 C 0.06400 0.63539 0.65842
 N181 N 0.04819 0.65526 0.65159
 C182 C 0.06327 0.62116 0.68086
 C183 C 0.03967 0.61254 0.68940
 C184 C 0.03444 0.58825 0.70139
 C185 C 0.00987 0.58870 0.70736
 C186 C 0.00056 0.61252 0.69771
 N187 N 0.01860 0.62680 0.68633
 C188 C -0.02344 0.62223 0.70199
 C189 C -0.03501 0.64193 0.68720
 C190 C -0.05701 0.65467 0.69288
 C191 C -0.06264 0.67128 0.67365
 C192 C -0.04385 0.66848 0.65671
 N193 N -0.02707 0.65039 0.66507
 C194 C -0.04244 0.68341 0.63462
 H195 H -0.03060 0.70998 0.58872
 H196 H 0.01700 0.71386 0.58128
 H197 H -0.01207 0.64264 0.65552
 H198 H 0.08592 0.65122 0.60495
 H199 H 0.09376 0.61414 0.63822
 H200 H 0.04678 0.57147 0.70494
 H201 H -0.00015 0.57314 0.71736
 H202 H -0.07845 0.68458 0.67259
 H203 H 0.03470 0.66443 0.66234
 H204 H -0.06790 0.65242 0.70926
 C205 C 0.97223 0.71637 0.38488
 C206 C 0.99743 0.71578 0.38286
 C207 C 1.00234 0.70511 0.35970
 N208 N 0.98099 0.69875 0.34765
 C209 C 0.96259 0.70581 0.36301
 C210 C 1.02607 0.70489 0.34900
 C211 C 1.03159 0.68827 0.32824
 C212 C 1.05240 0.69150 0.31385
 C213 C 1.05020 0.67261 0.29490
 C214 C 1.02813 0.65814 0.29818
 N215 N 1.01704 0.66765 0.31873
 C216 C 1.01828 0.63753 0.28186
 C217 C 0.99292 0.62936 0.28225
 C218 C 0.98311 0.60567 0.27106
 C219 C 0.95790 0.60737 0.27231
 C220 C 0.95308 0.63161 0.28485
 N221 N 0.97448 0.64505 0.29102
 C222 C 0.92929 0.64255 0.28776
 C223 C 0.92421 0.66388 0.30457
 C224 C 0.90245 0.67858 0.30531
 C225 C 0.90467 0.69663 0.32494
 C226 C 0.92769 0.69232 0.33552
 N227 N 0.93926 0.67203 0.32327
 C228 C 0.93737 0.70645 0.35627
 H229 H 0.96213 0.72445 0.40034
 H230 H 1.01070 0.72324 0.39652
 H231 H 0.95558 0.66263 0.32859
 H232 H 1.06723 0.70659 0.31619
 H233 H 1.06297 0.67062 0.27989
 H234 H 0.99311 0.58922 0.26226
 H235 H 0.94463 0.59262 0.26458
 H236 H 0.89097 0.71128 0.33071
 H237 H 1.00098 0.65966 0.32645
 H238 H 0.88663 0.67649 0.29304
 C239 C 0.97275 0.29467 0.61509
 C240 C 0.99724 0.28791 0.61347
 C241 C 1.00758 0.29263 0.63652
 N242 N 0.99029 0.30166 0.65221
 C243 C 0.96891 0.30276 0.63922
 C244 C 1.03198 0.28630 0.64346
 C245 C 1.04365 0.29825 0.66447
 C246 C 1.06555 0.28946 0.67493
 C247 C 1.07167 0.30797 0.69347
 C248 C 1.05335 0.32760 0.69377
 N249 N 1.03621 0.32134 0.67621
 C250 C 1.05311 0.35133 0.70927
 C251 C 1.03014 0.36321 0.71556
 C252 C 1.02683 0.38893 0.72641
 C253 C 1.00207 0.39097 0.73117
 C254 C 0.99092 0.36710 0.72203
 N255 N 1.00797 0.35013 0.71251
 C256 C 0.96557 0.36048 0.72400
 C257 C 0.95305 0.34267 0.70720
 C258 C 0.92885 0.33310 0.70939
 C259 C 0.92304 0.31883 0.68801
 C260 C 0.94396 0.31986 0.67358
 N261 N 0.96210 0.33447 0.68537
 C262 C 0.94574 0.30871 0.64964
 H263 H 0.95931 0.29338 0.60026
 H264 H 1.00641 0.28033 0.59724
 H265 H 0.97875 0.34105 0.67782
 H266 H 1.07617 0.27171 0.66963
 H267 H 1.08779 0.30712 0.70537
 H268 H 1.04063 0.40480 0.73035
 H269 H 0.99313 0.40830 0.73980
 H270 H 0.90545 0.30884 0.68360
 H271 H 1.02176 0.33388 0.67083
 H272 H 0.91650 0.33650 0.72457
 C273 C 0.28504 -0.00876 0.39110
 C274 C 0.28744 0.01920 0.39419
 C275 C 0.30264 0.02837 0.37568
 N276 N 0.31000 0.00681 0.36175
 C277 C 0.29962 -0.01605 0.37131
 C278 C 0.30832 0.05624 0.37077
 C279 C 0.32533 0.06391 0.35252
 C280 C 0.32630 0.08935 0.34154
 C281 C 0.34648 0.08927 0.32638
 C282 C 0.35743 0.06388 0.32875
 N283 N 0.34434 0.04850 0.34464
 C284 C 0.37998 0.05624 0.31785
 C285 C 0.38843 0.02898 0.31745
 C286 C 0.41235 0.02118 0.31207
 C287 C 0.41235 -0.00703 0.31221
 C288 C 0.38837 -0.01541 0.31741
 N289 N 0.37380 0.00661 0.32055
 C290 C 0.37976 -0.04289 0.31786
 C291 C 0.35542 -0.05009 0.32477
 C292 C 0.34405 -0.07525 0.31965
 C293 C 0.32185 -0.07525 0.33156
 C294 C 0.32002 -0.04989 0.34360
 N295 N 0.34073 -0.03476 0.33929
 C296 C 0.30156 -0.04290 0.36091
 H297 H 0.27360 -0.02192 0.40219
 H298 H 0.27859 0.03128 0.40830
 H299 H 0.34623 -0.01682 0.34855
 H300 H 0.31384 0.10627 0.34431
 H301 H 0.35261 0.10620 0.31525
 H302 H 0.42814 0.03444 0.30848
 H303 H 0.42813 -0.01984 0.30867
 H304 H 0.30929 -0.09274 0.33210
 H305 H 0.34977 0.03000 0.35207
 H306 H 0.35134 -0.09221 0.30904
 C307 C 0.70584 0.01966 0.59679
 C308 C 0.70696 -0.00822 0.59907
 C309 C 0.69127 -0.01518 0.61800
 N310 N 0.68055 0.00751 0.62732
 C311 C 0.68959 0.02887 0.61446
 C312 C 0.68901 -0.04184 0.62770
 C313 C 0.66935 -0.05012 0.64301
 C314 C 0.66840 -0.07467 0.65555
 C315 C 0.64691 -0.07469 0.66871
 C316 C 0.63537 -0.05005 0.66413
 N317 N 0.64894 -0.03538 0.64811
 C318 C 0.61286 -0.04191 0.67485
 C319 C 0.60524 -0.01421 0.67626
 C320 C 0.58333 -0.00565 0.68660
 C321 C 0.58427 0.02252 0.68726
 C322 C 0.60644 0.03044 0.67669
 N323 N 0.61929 0.00789 0.67009
 C324 C 0.61552 0.05791 0.67562
 C325 C 0.63632 0.06620 0.66169
 C326 C 0.64701 0.09241 0.66248
 C327 C 0.66679 0.09213 0.64691
 C328 C 0.66767 0.06586 0.63686
 N329 N 0.64863 0.05040 0.64542
 C330 C 0.68598 0.05682 0.62046
 H331 H 0.71636 0.03189 0.58407
 H332 H 0.71838 -0.02184 0.58834
 H333 H 0.64350 0.03074 0.63941
 H334 H 0.68197 -0.09075 0.65555
 H335 H 0.64084 -0.09075 0.68085
 H336 H 0.56849 -0.01833 0.69365
 H337 H 0.57023 0.03551 0.69499
 H338 H 0.67930 0.10926 0.64363
 H339 H 0.64367 -0.01726 0.63990
 H340 H 0.64129 0.11003 0.67321
 C341 C 0.34698 0.98104 0.73748
 C342 C 0.34337 1.00881 0.73635
 C343 C 0.33694 1.01428 0.71227
 N344 N 0.33622 0.99077 0.69873
 C345 C 0.34251 0.97049 0.71409
 C346 C 0.33309 1.04076 0.70270
 C347 C 0.31837 1.04404 0.68121
 C348 C 0.31747 1.06751 0.66714
 C349 C 0.29936 1.06300 0.64959
 C350 C 0.29045 1.03643 0.65259
 N351 N 0.30209 1.02501 0.67187
 C352 C 0.27089 1.02383 0.63892
 C353 C 0.26824 0.99503 0.63644
 C354 C 0.24861 0.98123 0.62482
 C355 C 0.25451 0.95394 0.62416
 C356 C 0.27769 0.95202 0.63506
 N357 N 0.28602 0.97716 0.64258
 C358 C 0.29173 0.92782 0.63631
 C359 C 0.31241 0.92592 0.65227
 C360 C 0.32968 0.90515 0.65172
 C361 C 0.34493 0.90929 0.67188
 C362 C 0.33676 0.93268 0.68390
 N363 N 0.31706 0.94275 0.67182
 C364 C 0.34585 0.94293 0.70664
 H365 H 0.35228 0.96994 0.75365
 H366 H 0.34523 1.02335 0.75151
 H367 H 0.30563 0.95813 0.67845
 H368 H 0.32858 1.08613 0.66920
 H369 H 0.29374 1.07767 0.63607
 H370 H 0.23199 0.98985 0.61713
 H371 H 0.24311 0.93747 0.61627
 H372 H 0.36013 0.89642 0.67724
 H373 H 0.29720 1.00637 0.67974
 H374 H 0.33089 0.88843 0.63849
 C375 C 0.72030 1.00491 0.39777
 C376 C 0.71724 1.03233 0.39366
 C377 C 0.70568 1.03430 0.37091
 N378 N 0.70172 1.00889 0.36106
 C379 C 0.71073 0.99094 0.37738
 C380 C 0.70289 1.05891 0.35774
 C381 C 0.68985 1.05956 0.33508
 C382 C 0.69145 1.08053 0.31825
 C383 C 0.67526 1.07374 0.29939
 C384 C 0.66369 1.04913 0.30544
 N385 N 0.67266 1.04071 0.32726
 C386 C 0.64514 1.03508 0.29123
 C387 C 0.63807 1.00760 0.29611
 C388 C 0.61547 0.99555 0.28949
 C389 C 0.61672 0.96841 0.29553
 C390 C 0.64016 0.96470 0.30538
 N391 N 0.65311 0.98879 0.30602
 C392 C 0.65020 0.93911 0.31165
 C393 C 0.67178 0.93767 0.32640
 C394 C 0.68688 0.91506 0.32823
 C395 C 0.70480 0.92175 0.34560
 C396 C 0.70002 0.94820 0.35393
 N397 N 0.67985 0.95770 0.34215
 C398 C 0.71340 0.96251 0.37268
 H399 H 0.72938 0.99629 0.41356
 H400 H 0.72386 1.04881 0.40569
 H401 H 0.67053 0.97569 0.34637
 H402 H 0.70309 1.09884 0.31930
 H403 H 0.67250 1.08561 0.28306
 H404 H 0.59976 1.00537 0.28110
 H405 H 0.60210 0.95316 0.29278
 H406 H 0.71957 0.90856 0.35149
 H407 H 0.66587 1.02422 0.33723
 H408 H 0.68519 0.89578 0.31811
 O409 O 0.85752 0.82182 0.49203
 O410 O 0.82521 0.85196 0.54397
 O411 O 0.85509 0.81097 0.53861
 O412 O 0.82793 0.86140 0.49740
 O413 O 0.79611 0.83334 0.48971
 O414 O 0.82294 0.78317 0.53205
 O415 O 0.79270 0.82491 0.53656
 O416 O 0.82626 0.79276 0.48493
 Cu417 Cu 0.84464 0.83922 0.51898
 Cu418 Cu 0.80631 0.80555 0.51031
 C419 C 0.84725 0.80280 0.47918
 C420 C 0.80333 0.84422 0.54890
 C421 C 0.84372 0.78842 0.54241
 C422 C 0.80777 0.85578 0.48602
 O423 O 0.14503 0.18921 0.47325
 O424 O 0.16760 0.13684 0.51539
 O425 O 0.13341 0.17233 0.51616
 O426 O 0.18101 0.15264 0.47156
 O427 O 0.20653 0.18386 0.48793
 O428 O 0.15958 0.20255 0.53326
 O429 O 0.19465 0.16699 0.53126
 O430 O 0.17048 0.21988 0.49064
 Cu431 Cu 0.15441 0.15962 0.49198
 Cu432 Cu 0.18564 0.19636 0.51216
 C433 C 0.15289 0.21386 0.47577
 C434 C 0.18458 0.14323 0.53081
 C435 C 0.13844 0.19069 0.53240
 C436 C 0.20212 0.16459 0.47242
 O437 O 0.15166 0.81440 0.50675
 O438 O 0.19066 0.84302 0.45907
 O439 O 0.14784 0.81866 0.45934
 O440 O 0.19511 0.83753 0.50559
 O441 O 0.21134 0.79635 0.50163
 O442 O 0.16512 0.77840 0.45332
 O443 O 0.20840 0.80277 0.45373
 O444 O 0.16738 0.77330 0.50060
 Cu445 Cu 0.16952 0.83240 0.48323
 Cu446 Cu 0.18993 0.78362 0.47678
 C447 C 0.15272 0.78912 0.51187
 C448 C 0.20613 0.82790 0.44834
 C449 C 0.14846 0.79553 0.44820
 C450 C 0.21106 0.82006 0.51175
 O451 O 0.81263 0.17621 0.47046
 O452 O 0.83984 0.21397 0.52333
 O453 O 0.81083 0.17143 0.51841
 O454 O 0.84202 0.21833 0.47623
 O455 O 0.80988 0.24570 0.47757
 O456 O 0.77802 0.19781 0.51922
 O457 O 0.80737 0.24083 0.52453
 O458 O 0.77984 0.20266 0.47163
 Cu459 Cu 0.82943 0.19210 0.49697
 Cu460 Cu 0.79041 0.22434 0.49821
 C461 C 0.79175 0.18312 0.46191
 C462 C 0.82842 0.23403 0.53283
 C463 C 0.78940 0.17673 0.52636
 C464 C 0.83151 0.24032 0.47009
 O465 O 0.47767 0.86224 0.81811
 O466 O 0.53197 0.83084 0.84840
 O467 O 0.52457 0.85919 0.80820
 O468 O 0.48571 0.83765 0.85918
 O469 O 0.47826 0.79748 0.84100
 O470 O 0.51428 0.82116 0.78771
 O471 O 0.52421 0.79273 0.82698
 O472 O 0.46833 0.82192 0.80083
 Cu473 Cu 0.50603 0.85139 0.83537
 Cu474 Cu 0.49570 0.80433 0.81222
 C475 C 0.46344 0.84696 0.80476
 C476 C 0.53724 0.80620 0.84263
 C477 C 0.52536 0.84447 0.78883
 C478 C 0.47527 0.81409 0.85895
 O479 O 0.48322 0.13718 0.18612
 O480 O 0.52012 0.15731 0.13299
 O481 O 0.52754 0.12723 0.17088
 O482 O 0.47507 0.16520 0.14735
 O483 O 0.48877 0.20309 0.16623
 O484 O 0.54058 0.16351 0.19251
 O485 O 0.53429 0.19374 0.15367
 O486 O 0.49575 0.17484 0.20603
 Cu487 Cu 0.50020 0.14304 0.15731
 Cu488 Cu 0.51623 0.18756 0.18164
 C489 C 0.48302 0.15266 0.20511
 C490 C 0.53363 0.17895 0.13428
 C491 C 0.54284 0.13849 0.18588
 C492 C 0.47290 0.19052 0.15252
 O493 O 0.50617 0.14986 0.79615
 O494 O 0.46324 0.17433 0.84259
 O495 O 0.45863 0.14796 0.80050
 O496 O 0.51120 0.17644 0.83610
 O497 O 0.50780 0.21614 0.81744
 O498 O 0.45421 0.18770 0.78222
 O499 O 0.46004 0.21414 0.82428
 O500 O 0.50288 0.18903 0.77653
 Cu501 Cu 0.48477 0.15824 0.82089
 Cu502 Cu 0.48062 0.20567 0.79809
 C503 C 0.51252 0.16555 0.77899
 C504 C 0.45449 0.19833 0.84175
 C505 C 0.44748 0.16287 0.78525
 C506 C 0.51906 0.20071 0.83224
 O507 O 0.53225 0.82669 0.20866
 O508 O 0.47573 0.80105 0.17578
 O509 O 0.48493 0.83466 0.21290
 O510 O 0.52299 0.79488 0.16981
 O511 O 0.51995 0.75905 0.19384
 O512 O 0.48388 0.79948 0.23781
 O513 O 0.47356 0.76642 0.20122
 O514 O 0.53042 0.79056 0.23241
 Cu515 Cu 0.50429 0.81789 0.18933
 Cu516 Cu 0.50193 0.77534 0.21874
 C517 C 0.54062 0.81316 0.22659
 C518 C 0.46505 0.77916 0.18299
 C519 C 0.47818 0.82400 0.23287
 C520 C 0.52717 0.76982 0.17407
 O521 O 0.88178 0.53790 0.84897
 O522 O 0.84438 0.48789 0.88247
 O523 O 0.87990 0.48531 0.85223
 O524 O 0.84629 0.54190 0.88063
 O525 O 0.81844 0.53999 0.85074
 O526 O 0.85295 0.48342 0.82150
 O527 O 0.81671 0.48609 0.85238
 O528 O 0.85464 0.53629 0.81846
 Cu529 Cu 0.86561 0.51372 0.86928
 Cu530 Cu 0.83275 0.51154 0.83279
 C531 C 0.87509 0.54497 0.82767
 C532 C 0.82468 0.47772 0.87285
 C533 C 0.87232 0.47471 0.83206
 C534 C 0.82669 0.55063 0.87070
 O535 O 0.13329 0.52300 0.16966
 O536 O 0.18352 0.47948 0.14707
 O537 O 0.14763 0.47365 0.17886
 O538 O 0.16742 0.52788 0.13746
 O539 O 0.19244 0.54561 0.16607
 O540 O 0.17327 0.49004 0.20761
 O541 O 0.20848 0.49714 0.17569
 O542 O 0.15788 0.53965 0.19910
 Cu543 Cu 0.15548 0.49908 0.15546
 Cu544 Cu 0.18549 0.51979 0.19009
 C545 C 0.13698 0.53879 0.18818
 C546 C 0.20483 0.48143 0.15714
 C547 C 0.15684 0.47270 0.20027
 C548 C 0.18324 0.54599 0.14453
 O549 O 0.79957 0.50560 0.13656
 O550 O 0.85084 0.47154 0.16717
 O551 O 0.81530 0.45502 0.13724
 O552 O 0.83464 0.52065 0.16597
 O553 O 0.81246 0.51084 0.19853
 O554 O 0.78961 0.44721 0.16763
 O555 O 0.82662 0.46021 0.19782
 O556 O 0.77580 0.49817 0.16846
 Cu557 Cu 0.82742 0.48877 0.14843
 Cu558 Cu 0.79864 0.47805 0.18626
 C559 C 0.77917 0.50848 0.14750
 C560 C 0.84776 0.46058 0.18785
 C561 C 0.79877 0.44028 0.14719
 C562 C 0.82731 0.52667 0.18736
 O563 O 0.20161 0.53143 0.84133
 O564 O 0.16679 0.47476 0.80877
 O565 O 0.19429 0.47900 0.84838
 O566 O 0.17032 0.52755 0.80443
 O567 O 0.20230 0.52054 0.78050
 O568 O 0.22705 0.47136 0.82570
 O569 O 0.19951 0.46772 0.78587
 O570 O 0.23341 0.52352 0.81744
 Cu571 Cu 0.18013 0.50389 0.82813
 Cu572 Cu 0.21878 0.49506 0.80010
 C573 C 0.22368 0.53700 0.83477
 C574 C 0.17732 0.46191 0.79134
 C575 C 0.21456 0.46691 0.84493
 C576 C 0.18175 0.53208 0.78476
 C577 C 0.26723 0.41645 0.09192
 C578 C 0.28199 0.42742 0.11046
 C579 C 0.30750 0.42405 0.11132
 C580 C 0.31820 0.40863 0.09236
 C581 C 0.30335 0.39693 0.07315
 C582 C 0.27747 0.40093 0.07297
 O583 O 0.24349 0.42247 0.09430
 C584 C 0.24326 0.43756 0.11479
 C585 C 0.26632 0.44112 0.12543
 C586 C 0.27034 0.45651 0.14683
 C587 C 0.24981 0.46906 0.15754
 C588 C 0.22583 0.46612 0.14673
 C589 C 0.22258 0.44983 0.12513
 H590 H 0.31875 0.43300 0.12602
 H591 H 0.33802 0.40564 0.09261
 H592 H 0.26573 0.39210 0.05857
 H593 H 0.28867 0.45906 0.15484
 H594 H 0.25274 0.48148 0.17400
 H595 H 0.20464 0.44729 0.11627
 C596 C 0.72722 0.58462 0.08446
 C597 C 0.70967 0.57066 0.09770
 C598 C 0.68440 0.57461 0.09449
 C599 C 0.67700 0.59355 0.07683
 C600 C 0.69483 0.60824 0.06305
 C601 C 0.72031 0.60388 0.06723
 O602 O 0.75019 0.57737 0.08968
 C603 C 0.74711 0.55847 0.10661
 C604 C 0.72272 0.55368 0.11237
 C605 C 0.71551 0.53469 0.12982
 C606 C 0.73423 0.52003 0.14169
 C607 C 0.75947 0.52430 0.13563
 C608 C 0.76587 0.54389 0.11785
 H609 H 0.67087 0.56328 0.10496
 H610 H 0.65743 0.59671 0.07373
 H611 H 0.73432 0.61492 0.05711
 H612 H 0.69621 0.53128 0.13411
 H613 H 0.72908 0.50508 0.15526
 H614 H 0.78497 0.54780 0.11295
 C615 C 0.75010 0.40129 0.91103
 C616 C 0.77327 0.39248 0.91764
 C617 C 0.77703 0.37005 0.93253
 C618 C 0.75604 0.35651 0.94151
 C619 C 0.73196 0.36576 0.93579
 C620 C 0.72887 0.38812 0.91990
 O621 O 0.75081 0.42365 0.89740
 C622 C 0.77492 0.42913 0.89557
 C623 C 0.78937 0.41075 0.90783
 C624 C 0.81496 0.41345 0.90974
 C625 C 0.82620 0.43595 0.89842
 C626 C 0.81187 0.45496 0.88520
 C627 C 0.78582 0.45140 0.88362
 H628 H 0.79546 0.36366 0.93755
 H629 H 0.75846 0.33951 0.95380
 H630 H 0.71066 0.39579 0.91566
 H631 H 0.82585 0.39893 0.91984
 H632 H 0.84615 0.43836 0.89962
 H633 H 0.77444 0.46580 0.87390
 C634 C 0.26175 0.62068 0.90493
 C635 C 0.28014 0.61446 0.88867
 C636 C 0.30441 0.62399 0.89162
 C637 C 0.31011 0.64022 0.91246
 C638 C 0.29158 0.64689 0.92969
 C639 C 0.26686 0.63749 0.92543
 O640 O 0.24039 0.60774 0.89970
 C641 C 0.24546 0.59302 0.87970
 C642 C 0.26949 0.59662 0.87217
 C643 C 0.27921 0.58240 0.85236
 C644 C 0.26362 0.56348 0.83987
 C645 C 0.23881 0.55879 0.84743
 C646 C 0.22955 0.57412 0.86756
 H647 H 0.31866 0.61833 0.87879
 H648 H 0.32913 0.64690 0.91561
 H649 H 0.25235 0.64209 0.93830
 H650 H 0.29826 0.58542 0.84695
 H651 H 0.27117 0.55204 0.82459
 H652 H 0.21086 0.57088 0.87399
 C653 C 0.08404 0.27350 0.41384
 C654 C 0.09457 0.29182 0.43056
 C655 C 0.08742 0.31909 0.43257
 C656 C 0.06903 0.32797 0.41631
 C657 C 0.05866 0.30970 0.39831
 C658 C 0.06602 0.28200 0.39728
 O659 O 0.09298 0.24836 0.41539
 C660 C 0.10963 0.25088 0.43339
 C661 C 0.11150 0.27711 0.44311
 C662 C 0.12790 0.28435 0.46202
 C663 C 0.14254 0.26354 0.47173
 C664 C 0.14028 0.23605 0.46267
 C665 C 0.12378 0.22980 0.44295
 H666 H 0.09578 0.33304 0.44605
 H667 H 0.06335 0.34919 0.41715
 H668 H 0.05826 0.26773 0.38370
 H669 H 0.12911 0.30516 0.46932
 H670 H 0.15486 0.26868 0.48697
 H671 H 0.12150 0.20904 0.43571
 C672 C 0.08914 0.71965 0.57193
 C673 C 0.09145 0.74522 0.58296
 C674 C 0.07957 0.75227 0.60452
 C675 C 0.06473 0.73206 0.61525
 C676 C 0.06191 0.70557 0.60427
 C677 C 0.07410 0.69928 0.58213
 O678 O 0.10208 0.71741 0.55146
 C679 C 0.11267 0.74214 0.54957
 C680 C 0.10657 0.75990 0.56833
 C681 C 0.11488 0.78706 0.56970
 C682 C 0.13008 0.79639 0.55088
 C683 C 0.13692 0.77846 0.53143
 C684 C 0.12821 0.75085 0.53086
 H685 H 0.08166 0.77256 0.61279
 H686 H 0.05525 0.73699 0.63210
 H687 H 0.07171 0.67944 0.57307
 H688 H 0.10964 0.80065 0.58459
 H689 H 0.13669 0.81753 0.55155
 H690 H 0.13293 0.73684 0.51608
 C691 C 0.89316 0.73768 0.40155
 C692 C 0.89754 0.76512 0.39734
 C693 C 0.91331 0.77447 0.37924
 C694 C 0.92543 0.75470 0.36511
 C695 C 0.92169 0.72633 0.36940
 C696 C 0.90504 0.71759 0.38759
 O697 O 0.87861 0.73337 0.42063
 C698 C 0.87387 0.75865 0.42869
 C699 C 0.88515 0.77873 0.41507
 C700 C 0.88437 0.80650 0.42119
 C701 C 0.87155 0.81394 0.44233
 C702 C 0.85962 0.79376 0.45668
 C703 C 0.86046 0.76569 0.44959
 H704 H 0.91667 0.79619 0.37656
 H705 H 0.93838 0.76138 0.35133
 H706 H 0.90239 0.69601 0.39146
 H707 H 0.89378 0.82182 0.41039
 H708 H 0.87093 0.83549 0.44759
 H709 H 0.85189 0.74989 0.46053
 C710 C 0.89787 0.27160 0.60953
 C711 C 0.88121 0.29221 0.60581
 C712 C 0.88403 0.31821 0.61662
 C713 C 0.90506 0.32325 0.63151
 C714 C 0.92261 0.30236 0.63540
 C715 C 0.91853 0.27595 0.62470
 O716 O 0.89284 0.24904 0.59630
 C717 C 0.87257 0.25551 0.58392
 C718 C 0.86454 0.28160 0.58918
 C719 C 0.84415 0.29284 0.57751
 C720 C 0.83174 0.27663 0.55951
 C721 C 0.84011 0.24992 0.55332
 C722 C 0.86068 0.23919 0.56600
 H723 H 0.87091 0.33427 0.61313
 H724 H 0.90807 0.34357 0.63951
 H725 H 0.93161 0.25963 0.62733
 H726 H 0.83828 0.31350 0.58178
 H727 H 0.81613 0.28523 0.54990
 H728 H 0.86765 0.21898 0.56165
 C729 C 0.41612 0.09292 0.26934
 C730 C 0.42578 0.11506 0.28251
 C731 C 0.42066 0.11961 0.30717
 C732 C 0.40516 0.10040 0.31871
 C733 C 0.39517 0.07740 0.30542
 C734 C 0.40057 0.07385 0.28033
 O735 O 0.42383 0.09171 0.24641
 C736 C 0.43872 0.11354 0.24500
 C737 C 0.44055 0.12860 0.26652
 C738 C 0.45562 0.15197 0.26908
 C739 C 0.46938 0.16003 0.24865
 C740 C 0.46794 0.14461 0.22632
 C741 C 0.45223 0.12109 0.22458
 H742 H 0.42862 0.13703 0.31724
 H743 H 0.40123 0.10310 0.33799
 H744 H 0.39328 0.05635 0.26986
 H745 H 0.45688 0.16345 0.28622
 H746 H 0.48135 0.17806 0.25035
 H747 H 0.45069 0.10879 0.20790
 C748 C 0.57209 0.10726 0.70745
 C749 C 0.58692 0.11569 0.72691
 C750 C 0.61072 0.10614 0.73061
 C751 C 0.61969 0.08711 0.71353
 C752 C 0.60509 0.07846 0.69298
 C753 C 0.58098 0.08889 0.68975
 O754 O 0.54926 0.11695 0.70870
 C755 C 0.54976 0.13186 0.72936
 C756 C 0.57252 0.13192 0.74099
 C757 C 0.57700 0.14474 0.76356
 C758 C 0.55707 0.15747 0.77498
 C759 C 0.53329 0.15707 0.76380
 C760 C 0.52956 0.14450 0.74047
 H761 H 0.62174 0.11256 0.74644
 H762 H 0.63803 0.07895 0.71626
 H763 H 0.56935 0.08222 0.67442
 H764 H 0.59498 0.14411 0.77247
 H765 H 0.55984 0.16662 0.79306
 H766 H 0.51132 0.14313 0.73206
 C767 C 0.39454 0.91228 0.74793
 C768 C 0.38282 0.88805 0.75396
 C769 C 0.35932 0.88058 0.74529
 C770 C 0.34731 0.89892 0.72982
 C771 C 0.35901 0.92397 0.72317
 C772 C 0.38303 0.93068 0.73235
 O773 O 0.41708 0.91510 0.75775
 C774 C 0.41967 0.89210 0.77018
 C775 C 0.39923 0.87485 0.76836
 C776 C 0.39833 0.84907 0.77884
 C777 C 0.41951 0.84051 0.79140
 C778 C 0.44086 0.85783 0.79352
 C779 C 0.44080 0.88422 0.78310
 H780 H 0.35055 0.86133 0.75022
 H781 H 0.32891 0.89368 0.72296
 H782 H 0.39246 0.94955 0.72736
 H783 H 0.38214 0.83576 0.77690
 H784 H 0.41943 0.82022 0.79925
 H785 H 0.45705 0.89756 0.78399
 C786 C 0.61580 0.88738 0.27039
 C787 C 0.61079 0.86690 0.28671
 C788 C 0.61887 0.86816 0.31099
 C789 C 0.63233 0.89170 0.31887
 C790 C 0.63782 0.91317 0.30241
 C791 C 0.62995 0.91044 0.27759
 O792 O 0.60435 0.88356 0.24891
 C793 C 0.59183 0.86012 0.25171
 C794 C 0.59539 0.84894 0.27442
 C795 C 0.58314 0.82519 0.28173
 C796 C 0.56617 0.81273 0.26517
 C797 C 0.56135 0.82439 0.24195
 C798 C 0.57479 0.84823 0.23502
 H799 H 0.61414 0.85211 0.32367
 H800 H 0.63785 0.89361 0.33796
 H801 H 0.63370 0.92648 0.26459
 H802 H 0.58605 0.81693 0.29978
 H803 H 0.55599 0.79466 0.27096
 H804 H 0.57134 0.85790 0.21764
 C805 C 0.39723 0.26541 0.91040
 C806 C 0.39671 0.23861 0.91796
 C807 C 0.38663 0.23066 0.94003
 C808 C 0.37703 0.25121 0.95523
 C809 C 0.37758 0.27927 0.94825
 C810 C 0.38730 0.28627 0.92507
 O811 O 0.40910 0.26860 0.88939
 C812 C 0.41619 0.24326 0.88368
 C813 C 0.40894 0.22422 0.90057
 C814 C 0.41524 0.19673 0.89897
 C815 C 0.42980 0.18845 0.87921
 C816 C 0.43789 0.20762 0.86154
 C817 C 0.43069 0.23545 0.86373
 H818 H 0.38662 0.20943 0.94562
 H819 H 0.36921 0.24531 0.97259
 H820 H 0.38836 0.30744 0.91932
 H821 H 0.40948 0.18222 0.91267
 H822 H 0.43503 0.16710 0.87791
 H823 H 0.43677 0.25066 0.85078
 C824 C 0.60304 0.75899 0.91573
 C825 C 0.60651 0.74581 0.89362
 C826 C 0.62048 0.72234 0.89112
 C827 C 0.63139 0.71191 0.91229
 C828 C 0.62835 0.72491 0.93566
 C829 C 0.61397 0.74911 0.93713
 O830 O 0.58792 0.78019 0.91412
 C831 C 0.58168 0.78021 0.89048
 C832 C 0.59267 0.75958 0.87720
 C833 C 0.58773 0.75461 0.85250
 C834 C 0.57025 0.77114 0.84107
 C835 C 0.55820 0.79226 0.85434
 C836 C 0.56443 0.79728 0.87932
 H837 H 0.62250 0.71205 0.87355
 H838 H 0.64160 0.69304 0.91051
 H839 H 0.61156 0.76013 0.95431
 H840 H 0.59642 0.73801 0.84256
 H841 H 0.56559 0.76700 0.82200
 H842 H 0.55504 0.81276 0.89005
 C843 C 0.39231 0.74929 0.10637
 C844 C 0.38927 0.73169 0.12551
 C845 C 0.37378 0.70864 0.12410
 C846 C 0.36110 0.70330 0.10194
 C847 C 0.36393 0.72091 0.08152
 C848 C 0.37952 0.74469 0.08428
 O849 O 0.40904 0.76911 0.11104
 C850 C 0.41678 0.76377 0.13360
 C851 C 0.40513 0.74116 0.14329
 C852 C 0.41115 0.73105 0.16618
 C853 C 0.43028 0.74448 0.17948
 C854 C 0.44310 0.76751 0.16973
 C855 C 0.43586 0.77755 0.14657
 H856 H 0.37204 0.69481 0.13931
 H857 H 0.34986 0.68468 0.10043
 H858 H 0.38170 0.75928 0.06970
 H859 H 0.40185 0.71306 0.17331
 H860 H 0.43548 0.73644 0.19712
 H861 H 0.44547 0.79476 0.13841
 C862 C 0.59708 0.24019 0.06754
 C863 C 0.58995 0.21592 0.05605
 C864 C 0.59675 0.20916 0.03230
 C865 C 0.61139 0.22827 0.01980
 C866 C 0.61887 0.25379 0.03105
 C867 C 0.61166 0.25951 0.05550
 O868 O 0.58829 0.24280 0.09004
 C869 C 0.57534 0.21966 0.09279
 C870 C 0.57576 0.20250 0.07253
 C871 C 0.56306 0.17740 0.07132
 C872 C 0.54933 0.16970 0.09183
 C873 C 0.54856 0.18706 0.11299
 C874 C 0.56190 0.21239 0.11339
 H875 H 0.59101 0.18985 0.02368
 H876 H 0.61724 0.22298 0.00143
 H877 H 0.61659 0.27881 0.06463
 H878 H 0.56359 0.16430 0.05511
 H879 H 0.53925 0.15027 0.09116
 H880 H 0.56163 0.22622 0.12913
 C881 C 0.24179 0.07123 0.59319
 C882 C 0.21788 0.07170 0.60159
 C883 C 0.21039 0.05780 0.62235
 C884 C 0.22826 0.04269 0.63487
 C885 C 0.25283 0.04130 0.62615
 C886 C 0.25964 0.05566 0.60493
 O887 O 0.24526 0.08657 0.57363
 C888 C 0.22303 0.09680 0.56949
 C889 C 0.20554 0.08803 0.58589
 C890 C 0.18088 0.09569 0.58457
 C891 C 0.17404 0.11330 0.56569
 C892 C 0.19193 0.12325 0.54912
 C893 C 0.21676 0.11492 0.55101
 H894 H 0.19153 0.05869 0.62874
 H895 H 0.22296 0.03166 0.65110
 H896 H 0.27824 0.05470 0.59782
 H897 H 0.16743 0.08838 0.59758
 H898 H 0.15501 0.11981 0.56432
 H899 H 0.23066 0.12228 0.53846
 C900 C 0.72841 0.11593 0.39664
 C901 C 0.75055 0.12056 0.38508
 C902 C 0.75682 0.10722 0.36335
 C903 C 0.73983 0.08782 0.35342
 C904 C 0.71721 0.08196 0.36542
 C905 C 0.71127 0.09665 0.38713
 O906 O 0.72675 0.12945 0.41788
 C907 C 0.74839 0.14270 0.41988
 C908 C 0.76370 0.13778 0.40037
 C909 C 0.78807 0.14744 0.39978
 C910 C 0.79705 0.16268 0.42016
 C911 C 0.78151 0.16830 0.44031
 C912 C 0.75673 0.15849 0.44003
 H913 H 0.77453 0.11089 0.35481
 H914 H 0.74482 0.07627 0.33712
 H915 H 0.69445 0.09206 0.39699
 H916 H 0.79996 0.14273 0.38450
 H917 H 0.81610 0.17001 0.42035
 H918 H 0.74476 0.16190 0.45553
 C919 C 0.72715 0.90121 0.60377
 C920 C 0.75001 0.90958 0.61277
 C921 C 0.75358 0.93288 0.62751
 C922 C 0.73279 0.94849 0.63294
 C923 C 0.70892 0.94035 0.62402
 C924 C 0.70597 0.91593 0.60970
 O925 O 0.72838 0.88054 0.58760
 C926 C 0.75251 0.87586 0.58640
 C927 C 0.76645 0.89295 0.60165
 C928 C 0.79215 0.89341 0.60189
 C929 C 0.80406 0.87600 0.58530
 C930 C 0.79023 0.85877 0.56872
 C931 C 0.76402 0.85818 0.56977
 H932 H 0.77186 0.93948 0.63372
 H933 H 0.73527 0.96724 0.64375
 H934 H 0.68813 0.90984 0.60193
 H935 H 0.80266 0.90742 0.61378
 H936 H 0.82409 0.87674 0.58479
 H937 H 0.75296 0.84582 0.55695
 C938 C 0.27006 0.90505 0.39891
 C939 C 0.25475 0.89247 0.38163
 C940 C 0.25321 0.90121 0.35757
 C941 C 0.26839 0.92350 0.35099
 C942 C 0.28496 0.93627 0.36830
 C943 C 0.28561 0.92688 0.39267
 O944 O 0.26779 0.89460 0.42103
 C945 C 0.25074 0.87492 0.41765
 C946 C 0.24234 0.87254 0.39380
 C947 C 0.22393 0.85370 0.38639
 C948 C 0.21328 0.83724 0.40446
 C949 C 0.22110 0.84016 0.42921
 C950 C 0.24029 0.85894 0.43586
 H951 H 0.24068 0.89134 0.34441
 H952 H 0.26750 0.93070 0.33234
 H953 H 0.29817 0.93599 0.40626
 H954 H 0.21747 0.85235 0.36757
 H955 H 0.19810 0.82332 0.39949
 H956 H 0.24595 0.86201 0.45482
 C957 C 0.10032 0.38828 0.74915
 C958 C 0.12005 0.38890 0.73356
 C959 C 0.11924 0.37677 0.71036
 C960 C 0.09700 0.36387 0.70269
 C961 C 0.07596 0.36295 0.71824
 C962 C 0.07827 0.37476 0.74223
 O963 O 0.10440 0.40271 0.76976
 C964 C 0.12723 0.41271 0.76703
 C965 C 0.13767 0.40460 0.74528
 C966 C 0.16108 0.41327 0.73821
 C967 C 0.17421 0.43135 0.75404
 C968 C 0.16371 0.44078 0.77637
 C969 C 0.13989 0.43100 0.78303
 H970 H 0.13490 0.37804 0.69822
 H971 H 0.09590 0.35577 0.68411
 H972 H 0.06331 0.37372 0.75521
 H973 H 0.16881 0.40673 0.72090
 H974 H 0.19230 0.43862 0.74847
 H975 H 0.13124 0.43793 0.79978
 C976 C 0.07057 0.60387 0.24938
 C977 C 0.06069 0.60180 0.22610
 C978 C 0.03773 0.61208 0.21990
 C979 C 0.02412 0.62462 0.23853
 C980 C 0.03336 0.62644 0.26308
 C981 C 0.05735 0.61636 0.26831
 O982 O 0.09241 0.59189 0.25142
 C983 C 0.09627 0.58202 0.22894
 C984 C 0.07734 0.58751 0.21282
 C985 C 0.07690 0.57805 0.18866
 C986 C 0.09676 0.56215 0.18075
 C987 C 0.11664 0.55621 0.19692
 C988 C 0.11644 0.56654 0.22135
 H989 H 0.03040 0.61026 0.20140
 H990 H 0.00627 0.63296 0.23380
 H991 H 0.06495 0.61699 0.28675
 H992 H 0.06162 0.58240 0.17643
 H993 H 0.09663 0.55447 0.16202
 H994 H 0.13116 0.56203 0.23422
 C995 C 0.91422 0.40078 0.25284
 C996 C 0.92751 0.42085 0.24113
 C997 C 0.95243 0.42611 0.24564
 C998 C 0.96432 0.40991 0.26288
 C999 C 0.95152 0.38823 0.27499
 C1000 C 0.92587 0.38380 0.26970
 O1001 O 0.89042 0.39995 0.24626
 C1002 C 0.88881 0.41990 0.23001
 C1003 C 0.91112 0.43304 0.22610
 C1004 C 0.91402 0.45422 0.20964
 C1005 C 0.89299 0.46242 0.19672
 C1006 C 0.86954 0.44980 0.20076
 C1007 C 0.86740 0.42818 0.21769
 H1008 H 0.96232 0.44243 0.23648
 H1009 H 0.98358 0.41466 0.26711
 H1010 H 0.91542 0.36726 0.27794
 H1011 H 0.93185 0.46412 0.20687
 H1012 H 0.89488 0.47914 0.18401
 H1013 H 0.84975 0.41819 0.22110
 C1014 C 0.93098 0.59235 0.74708
 C1015 C 0.94228 0.60040 0.76882
 C1016 C 0.96462 0.61498 0.76993
 C1017 C 0.97571 0.62175 0.74772
 C1018 C 0.96441 0.61387 0.72504
 C1019 C 0.94172 0.59889 0.72470
 O1020 O 0.91014 0.57798 0.75021
 C1021 C 0.90830 0.57696 0.77443
 C1022 C 0.92749 0.59041 0.78662
 C1023 C 0.92977 0.59115 0.81199
 C1024 C 0.91179 0.57697 0.82538
 C1025 C 0.89197 0.56250 0.81332
 C1026 C 0.89002 0.56294 0.78742
 H1027 H 0.97323 0.62089 0.78728
 H1028 H 0.99304 0.63330 0.74807
 H1029 H 0.93283 0.59257 0.70760
 H1030 H 0.94515 0.60174 0.82113
 H1031 H 0.91362 0.57680 0.84515
 H1032 H 0.87541 0.55170 0.77764
 C1033 C 0.74989 0.61627 0.91640
 C1034 C 0.77257 0.62770 0.92287
 C1035 C 0.77544 0.64819 0.94082
 C1036 C 0.75412 0.65695 0.95288
 C1037 C 0.73066 0.64512 0.94684
 C1038 C 0.72841 0.62481 0.92808
 O1039 O 0.75145 0.59569 0.90021
 C1040 C 0.77563 0.59399 0.89649
 C1041 C 0.78935 0.61309 0.90998
 C1042 C 0.81508 0.61351 0.91055
 C1043 C 0.82718 0.59321 0.89691
 C1044 C 0.81350 0.57322 0.88290
 C1045 C 0.78733 0.57395 0.88234
 H1046 H 0.79353 0.65650 0.94591
 H1047 H 0.75588 0.67221 0.96750
 H1048 H 0.71072 0.61501 0.92372
 H1049 H 0.82545 0.62838 0.92170
 H1050 H 0.84721 0.59277 0.89755
 H1051 H 0.77644 0.55848 0.87235
 C1052 C 0.27637 0.40325 0.91150
 C1053 C 0.25270 0.40419 0.92040
 C1054 C 0.24634 0.39494 0.94341
 C1055 C 0.26519 0.38441 0.95804
 C1056 C 0.28994 0.38294 0.94951
 C1057 C 0.29545 0.39214 0.92558
 O1058 O 0.27857 0.41505 0.88980
 C1059 C 0.25575 0.42354 0.88500
 C1060 C 0.23931 0.41715 0.90316
 C1061 C 0.21475 0.42495 0.90269
 C1062 C 0.20679 0.44043 0.88288
 C1063 C 0.22336 0.44806 0.86403
 C1064 C 0.24818 0.43902 0.86494
 H1065 H 0.22761 0.39631 0.95007
 H1066 H 0.26049 0.37719 0.97609
 H1067 H 0.31417 0.39191 0.91871
 H1068 H 0.20227 0.41979 0.91734
 H1069 H 0.18774 0.44697 0.88256
 H1070 H 0.26137 0.44480 0.85108
 C1071 C 0.24366 0.62167 0.08750
 C1072 C 0.22126 0.61770 0.07567
 C1073 C 0.21661 0.62693 0.05220
 C1074 C 0.23591 0.64063 0.04028
 C1075 C 0.25947 0.64491 0.05184
 C1076 C 0.26309 0.63555 0.07610
 O1077 O 0.24472 0.60954 0.10909
 C1078 C 0.22250 0.59763 0.11085
 C1079 C 0.20747 0.60209 0.09087
 C1080 C 0.18407 0.59011 0.08805
 C1081 C 0.17594 0.57243 0.10637
 C1082 C 0.19119 0.56708 0.12704
 C1083 C 0.21466 0.58034 0.12950
 H1084 H 0.19889 0.62327 0.04318
 H1085 H 0.23245 0.64800 0.02197
 H1086 H 0.28091 0.63753 0.08529
 H1087 H 0.17274 0.59364 0.07197
 H1088 H 0.15796 0.56244 0.10419
 H1089 H 0.22693 0.57620 0.14476
 C1090 C 0.73414 0.36637 0.09077
 C1091 C 0.75806 0.35769 0.08775
 C1092 C 0.76473 0.33939 0.06923
 C1093 C 0.74612 0.33021 0.05280
 C1094 C 0.72158 0.33962 0.05509
 C1095 C 0.71533 0.35737 0.07468
 O1096 O 0.73220 0.38596 0.10781
 C1097 C 0.75538 0.38995 0.11553
 C1098 C 0.77195 0.37324 0.10377
 C1099 C 0.79747 0.37646 0.10666
 C1100 C 0.80625 0.39805 0.12195
 C1101 C 0.78950 0.41549 0.13418
 C1102 C 0.76372 0.41097 0.13139
 H1103 H 0.78376 0.33340 0.06683
 H1104 H 0.75098 0.31697 0.03751
 H1105 H 0.69688 0.36554 0.07616
 H1106 H 0.81016 0.36367 0.09659
 H1107 H 0.82603 0.40171 0.12375
 H1108 H 0.75063 0.42478 0.13974
 C1109 C 0.91343 0.73167 0.60580
 C1110 C 0.89336 0.71438 0.60172
 C1111 C 0.89276 0.68737 0.60961
 C1112 C 0.91399 0.67758 0.62150
 C1113 C 0.93546 0.69467 0.62502
 C1114 C 0.93450 0.72254 0.61789
 O1115 O 0.91090 0.75611 0.59579
 C1116 C 0.88881 0.75418 0.58501
 C1117 C 0.87721 0.72912 0.58811
 C1118 C 0.85440 0.72238 0.57731
 C1119 C 0.84320 0.74221 0.56261
 C1120 C 0.85497 0.76812 0.55889
 C1121 C 0.87804 0.77413 0.57054
 H1122 H 0.87683 0.67403 0.60607
 H1123 H 0.91415 0.65625 0.62684
 H1124 H 0.95003 0.73660 0.62105
 H1125 H 0.84572 0.70242 0.57976
 H1126 H 0.82559 0.73717 0.55384
 H1127 H 0.88770 0.79353 0.56799
 C1128 C 0.90382 0.28932 0.40431
 C1129 C 0.89195 0.31029 0.41629
 C1130 C 0.89932 0.33769 0.41439
 C1131 C 0.91963 0.34369 0.39943
 C1132 C 0.93169 0.32253 0.38608
 C1133 C 0.92355 0.29489 0.38878
 O1134 O 0.89506 0.26457 0.40984
 C1135 C 0.87718 0.27003 0.42558
 C1136 C 0.87429 0.29770 0.42995
 C1137 C 0.85671 0.30789 0.44603
 C1138 C 0.84179 0.28876 0.45835
 C1139 C 0.84509 0.26011 0.45482
 C1140 C 0.86292 0.25069 0.43799
 H1141 H 0.89019 0.35379 0.42458
 H1142 H 0.92632 0.36477 0.39865
 H1143 H 0.93254 0.27818 0.37923
 H1144 H 0.85477 0.32975 0.44921
 H1145 H 0.82838 0.29622 0.47135
 H1146 H 0.86592 0.22896 0.43498
 C1147 C 0.07918 0.25221 0.60281
 C1148 C 0.06789 0.22694 0.59876
 C1149 C 0.04549 0.21954 0.60928
 C1150 C 0.03417 0.23907 0.62445
 C1151 C 0.04521 0.26546 0.62857
 C1152 C 0.06816 0.27201 0.61771
 O1153 O 0.10019 0.25526 0.59070
 C1154 C 0.10214 0.23145 0.57869
 C1155 C 0.08281 0.21345 0.58290
 C1156 C 0.08066 0.18777 0.57142
 C1157 C 0.09917 0.18037 0.55484
 C1158 C 0.11941 0.19850 0.55029
 C1159 C 0.12092 0.22436 0.56257
 H1160 H 0.03694 0.19956 0.60578
 H1161 H 0.01663 0.23387 0.63275
 H1162 H 0.07684 0.29208 0.62039
 H1163 H 0.06515 0.17407 0.57486
 H1164 H 0.09777 0.16052 0.54560
 H1165 H 0.13592 0.23881 0.55923
 C1166 C 0.08193 0.73614 0.37947
 C1167 C 0.07462 0.76304 0.38124
 C1168 C 0.05253 0.77213 0.37139
 C1169 C 0.03695 0.75259 0.35975
 C1170 C 0.04368 0.72449 0.35796
 C1171 C 0.06698 0.71636 0.36730
 O1172 O 0.10256 0.73150 0.39211
 C1173 C 0.10827 0.75596 0.40206
 C1174 C 0.09179 0.77593 0.39585
 C1175 C 0.09316 0.80256 0.40541
 C1176 C 0.11226 0.80890 0.42224
 C1177 C 0.12942 0.78865 0.42930
 C1178 C 0.12751 0.76184 0.41876
 H1179 H 0.04703 0.79332 0.37341
 H1180 H 0.01930 0.75919 0.35254
 H1181 H 0.07234 0.69503 0.36681
 H1182 H 0.07970 0.81777 0.40048
 H1183 H 0.11338 0.82949 0.43005
 H1184 H 0.14005 0.74581 0.42400
 C1185 C 0.58099 0.91634 0.72360
 C1186 C 0.57156 0.89461 0.70973
 C1187 C 0.57445 0.89274 0.68446
 C1188 C 0.58768 0.91404 0.67310
 C1189 C 0.59771 0.93653 0.68706
 C1190 C 0.59434 0.93758 0.71271
 O1191 O 0.57587 0.91450 0.74722
 C1192 C 0.56295 0.89111 0.74833
 C1193 C 0.55987 0.87802 0.72595
 C1194 C 0.54674 0.85328 0.72306
 C1195 C 0.53607 0.84180 0.74402
 C1196 C 0.53856 0.85523 0.76725
 C1197 C 0.55248 0.88014 0.76932
 H1198 H 0.56681 0.87553 0.67388
 H1199 H 0.59033 0.91299 0.65348
 H1200 H 0.60203 0.95437 0.72382
 H1201 H 0.54452 0.84333 0.70527
 H1202 H 0.52539 0.82284 0.74201
 H1203 H 0.55472 0.89104 0.78668
 C1204 C 0.42000 0.90984 0.28036
 C1205 C 0.42503 0.89011 0.29736
 C1206 C 0.41667 0.89157 0.32131
 C1207 C 0.40232 0.91418 0.32797
 C1208 C 0.39656 0.93459 0.31070
 C1209 C 0.40566 0.93246 0.28656
 O1210 O 0.42952 0.90436 0.25854
 C1211 C 0.44073 0.88061 0.26183
 C1212 C 0.43844 0.87099 0.28523
 C1213 C 0.44827 0.84620 0.29254
 C1214 C 0.46110 0.83074 0.27504
 C1215 C 0.46399 0.84031 0.25079
 C1216 C 0.45360 0.86569 0.24417
 H1217 H 0.42084 0.87575 0.33434
 H1218 H 0.39531 0.91567 0.34644
 H1219 H 0.40126 0.94763 0.27300
 H1220 H 0.44609 0.83899 0.31104
 H1221 H 0.46897 0.81145 0.28048
 H1222 H 0.45534 0.87353 0.22583
 C1223 C 0.61207 0.08517 0.25212
 C1224 C 0.61048 0.07021 0.23056
 C1225 C 0.62032 0.04423 0.22774
 C1226 C 0.63217 0.03301 0.24805
 C1227 C 0.63419 0.04782 0.27074
 C1228 C 0.62424 0.07461 0.27255
 O1229 O 0.59965 0.10851 0.25135
 C1230 C 0.59004 0.10816 0.22881
 C1231 C 0.59627 0.08518 0.21538
 C1232 C 0.58704 0.07952 0.19198
 C1233 C 0.57026 0.09801 0.18213
 C1234 C 0.56300 0.12164 0.19569
 C1235 C 0.57349 0.12711 0.21921
 H1236 H 0.61846 0.03273 0.21066
 H1237 H 0.63989 0.01271 0.24609
 H1238 H 0.62468 0.08616 0.28969
 H1239 H 0.59200 0.06108 0.18195
 H1240 H 0.56242 0.09354 0.16412
 H1241 H 0.56787 0.14460 0.23020
 C1242 C 0.38104 0.08485 0.73442
 C1243 C 0.36908 0.10947 0.73609
 C1244 C 0.34489 0.11261 0.72779
 C1245 C 0.33269 0.08951 0.71716
 C1246 C 0.34493 0.06393 0.71438
 C1247 C 0.36957 0.06192 0.72345
 O1248 O 0.40368 0.08575 0.74401
 C1249 C 0.40615 0.11156 0.75188
 C1250 C 0.38565 0.12712 0.74727
 C1251 C 0.38464 0.15490 0.75370
 C1252 C 0.40550 0.16695 0.76556
 C1253 C 0.42644 0.15094 0.77114
 C1254 C 0.42674 0.12291 0.76406
 H1255 H 0.33560 0.13204 0.72975
 H1256 H 0.31355 0.09150 0.71150
 H1257 H 0.37993 0.04318 0.72146
 H1258 H 0.36839 0.16683 0.74978
 H1259 H 0.40509 0.18844 0.77102
 H1260 H 0.44256 0.11027 0.76796
 C1261 C 0.58224 0.73153 0.08848
 C1262 C 0.57137 0.70914 0.09937
 C1263 C 0.57454 0.68233 0.09097
 C1264 C 0.59012 0.67833 0.07094
 C1265 C 0.60230 0.70095 0.05995
 C1266 C 0.59788 0.72801 0.06848
 O1267 O 0.57731 0.75515 0.09985
 C1268 C 0.56319 0.74742 0.11837
 C1269 C 0.55918 0.71947 0.11896
 C1270 C 0.54592 0.70675 0.13738
 C1271 C 0.53607 0.72357 0.15582
 C1272 C 0.53941 0.75257 0.15542
 C1273 C 0.55324 0.76462 0.13636
 H1274 H 0.56587 0.66505 0.09993
 H1275 H 0.59361 0.65757 0.06458
 H1276 H 0.60735 0.74551 0.06065
 H1277 H 0.54330 0.68466 0.13758
 H1278 H 0.52541 0.71401 0.17012
 H1279 H 0.55624 0.78665 0.13562
 C1280 C 0.41232 0.26802 0.09910
 C1281 C 0.39844 0.24451 0.10281
 C1282 C 0.37555 0.23947 0.09158
 C1283 C 0.36661 0.25943 0.07573
 C1284 C 0.38060 0.28373 0.07150
 C1285 C 0.40367 0.28828 0.08350
 O1286 O 0.43427 0.26787 0.11033
 C1287 C 0.43427 0.24369 0.12127
 C1288 C 0.41273 0.22868 0.11720
 C1289 C 0.40933 0.20204 0.12537
 C1290 C 0.42910 0.19014 0.13785
 C1291 C 0.45164 0.20498 0.14207
 C1292 C 0.45407 0.23239 0.13410
 H1293 H 0.36519 0.22059 0.09449
 H1294 H 0.34903 0.25586 0.06639
 H1295 H 0.41480 0.30651 0.08012
 H1296 H 0.39236 0.19051 0.12159
 H1297 H 0.42706 0.16911 0.14380
 H1298 H 0.47130 0.24390 0.13652
 C1299 C 0.59570 0.26684 0.88316
 C1300 C 0.60436 0.24064 0.87969
 C1301 C 0.62612 0.23161 0.89044
 C1302 C 0.63906 0.25002 0.90612
 C1303 C 0.63001 0.27672 0.91076
 C1304 C 0.60845 0.28559 0.89856
 O1305 O 0.57362 0.27048 0.87288
 C1306 C 0.56815 0.24599 0.86291
 C1307 C 0.58632 0.22701 0.86671
 C1308 C 0.58353 0.19947 0.85996
 C1309 C 0.56113 0.19112 0.84874
 C1310 C 0.54221 0.21032 0.84429
 C1311 C 0.54589 0.23824 0.85124
 H1312 H 0.63228 0.21074 0.88777
 H1313 H 0.65532 0.24304 0.91582
 H1314 H 0.60080 0.30557 0.90256
 H1315 H 0.59787 0.18481 0.86366
 H1316 H 0.55855 0.16972 0.84338
 H1317 H 0.53156 0.25318 0.84846
 C1318 C 0.40801 0.75600 0.92488
 C1319 C 0.41211 0.78223 0.93398
 C1320 C 0.40095 0.79217 0.95508
 C1321 C 0.38490 0.77432 0.96737
 C1322 C 0.38043 0.74707 0.95852
 C1323 C 0.39222 0.73778 0.93694
 O1324 O 0.42029 0.75084 0.90439
 C1325 C 0.43241 0.77435 0.90053
 C1326 C 0.42806 0.79413 0.91819
 C1327 C 0.43878 0.82025 0.91783
 C1328 C 0.45455 0.82635 0.89840
 C1329 C 0.45925 0.80649 0.87970
 C1330 C 0.44800 0.78001 0.88091
 H1331 H 0.40441 0.81296 0.96181
 H1332 H 0.37592 0.78162 0.98381
 H1333 H 0.38923 0.71704 0.92988
 H1334 H 0.43506 0.83545 0.93196
 H1335 H 0.46287 0.84673 0.89785
 H1336 H 0.45113 0.76439 0.86698
 C1337 C 0.74566 0.91488 0.41645
 C1338 C 0.76952 0.92508 0.41521
 C1339 C 0.77638 0.94620 0.39976
 C1340 C 0.75780 0.95761 0.38524
 C1341 C 0.73289 0.94806 0.38664
 C1342 C 0.72679 0.92610 0.40225
 O1343 O 0.74318 0.89484 0.43251
 C1344 C 0.76594 0.89249 0.44167
 C1345 C 0.78266 0.91067 0.43177
 C1346 C 0.80733 0.91243 0.43916
 C1347 C 0.81520 0.89455 0.45741
 C1348 C 0.79849 0.87520 0.46769
 C1349 C 0.77345 0.87419 0.45964
 H1350 H 0.79530 0.95381 0.39910
 H1351 H 0.76261 0.97433 0.37326
 H1352 H 0.70789 0.91857 0.40371
 H1353 H 0.82008 0.92707 0.43120
 H1354 H 0.83443 0.89549 0.46320
 H1355 H 0.76024 0.85977 0.46720
 C1356 C 0.27032 0.88598 0.58078
 C1357 C 0.26679 0.86046 0.59075
 C1358 C 0.27188 0.85531 0.61527
 C1359 C 0.28059 0.87742 0.63011
 C1360 C 0.28451 0.90388 0.62014
 C1361 C 0.27989 0.90785 0.59490
 O1362 O 0.26181 0.88757 0.55801
 C1363 C 0.25273 0.86251 0.55340
 C1364 C 0.25561 0.84493 0.57266
 C1365 C 0.24628 0.81806 0.57202
 C1366 C 0.23298 0.80922 0.55093
 C1367 C 0.22879 0.82752 0.53148
 C1368 C 0.23919 0.85435 0.53259
 H1369 H 0.26828 0.83530 0.62294
 H1370 H 0.28363 0.87417 0.64946
 H1371 H 0.28240 0.92784 0.58680
 H1372 H 0.24851 0.80466 0.58747
 H1373 H 0.22476 0.78876 0.55035
 H1374 H 0.23591 0.86883 0.51813
 C1375 C 0.26095 0.10021 0.40338
 C1376 C 0.27639 0.11909 0.41515
 C1377 C 0.30198 0.11895 0.41279
 C1378 C 0.31211 0.09834 0.39789
 C1379 C 0.29666 0.07855 0.38552
 C1380 C 0.27061 0.07992 0.38798
 O1381 O 0.23734 0.10286 0.40941
 C1382 C 0.23791 0.12386 0.42532
 C1383 C 0.26134 0.13463 0.42930
 C1384 C 0.26636 0.15601 0.44592
 C1385 C 0.24649 0.16648 0.45928
 C1386 C 0.22216 0.15530 0.45607
 C1387 C 0.21785 0.13388 0.43850
 H1388 H 0.31377 0.13374 0.42256
 H1389 H 0.33204 0.09743 0.39629
 H1390 H 0.25835 0.06513 0.37877
 H1391 H 0.28501 0.16399 0.44886
 H1392 H 0.25027 0.18273 0.47267
 H1393 H 0.19963 0.12464 0.43576
 C1394 C 0.72015 0.11112 0.58434
 C1395 C 0.74372 0.10801 0.59359
 C1396 C 0.74916 0.09027 0.61248
 C1397 C 0.72960 0.07462 0.62193
 C1398 C 0.70525 0.07670 0.61224
 C1399 C 0.70033 0.09558 0.59345
 O1400 O 0.71928 0.12852 0.56585
 C1401 C 0.74282 0.13636 0.56332
 C1402 C 0.75848 0.12420 0.57976
 C1403 C 0.78401 0.12810 0.57954
 C1404 C 0.79388 0.14530 0.56166
 C1405 C 0.77821 0.15852 0.54469
 C1406 C 0.75223 0.15412 0.54566
 H1407 H 0.76789 0.08811 0.61933
 H1408 H 0.73346 0.06010 0.63622
 H1409 H 0.68195 0.09719 0.58555
 H1410 H 0.79595 0.11795 0.59246
 H1411 H 0.81375 0.14856 0.56118
 H1412 H 0.73987 0.16364 0.53271
 C1413 C 0.87906 0.59960 0.25669
 C1414 C 0.87708 0.61301 0.23478
 C1415 C 0.89058 0.63680 0.22973
 C1416 C 0.90703 0.64697 0.24788
 C1417 C 0.90964 0.63323 0.27037
 C1418 C 0.89520 0.60950 0.27506
 O1419 O 0.86635 0.57603 0.25693
 C1420 C 0.85627 0.57443 0.23467
 C1421 C 0.86228 0.59654 0.22039
 C1422 C 0.85589 0.59775 0.19571
 C1423 C 0.84324 0.57500 0.18518
 C1424 C 0.83710 0.55185 0.19945
 C1425 C 0.84317 0.55187 0.22470
 H1426 H 0.88912 0.64662 0.21216
 H1427 H 0.91834 0.66500 0.24421
 H1428 H 0.89749 0.59836 0.29189
 H1429 H 0.86137 0.61507 0.18471
 H1430 H 0.83886 0.57503 0.16577
 H1431 H 0.83948 0.53404 0.23576
 C1432 C 0.92153 0.40261 0.76192
 C1433 C 0.92977 0.39653 0.78510
 C1434 C 0.94890 0.37848 0.78949
 C1435 C 0.96012 0.36629 0.76912
 C1436 C 0.95211 0.37236 0.74504
 C1437 C 0.93241 0.39063 0.74137
 O1438 O 0.90395 0.42133 0.76184
 C1439 C 0.90111 0.42724 0.78547
 C1440 C 0.91650 0.41260 0.80042
 C1441 C 0.91766 0.41658 0.82566
 C1442 C 0.90252 0.43671 0.83591
 C1443 C 0.88657 0.45227 0.82092
 C1444 C 0.88561 0.44713 0.79533
 H1445 H 0.95523 0.37430 0.80790
 H1446 H 0.97530 0.35242 0.77198
 H1447 H 0.92632 0.39591 0.72311
 H1448 H 0.93016 0.40502 0.83698
 H1449 H 0.90345 0.44040 0.85552
 H1450 H 0.87398 0.45903 0.78339
 C1451 C 0.10828 0.59165 0.72840
 C1452 C 0.13057 0.59480 0.71696
 C1453 C 0.13293 0.60931 0.69552
 C1454 C 0.11127 0.61947 0.68476
 C1455 C 0.08718 0.61328 0.69422
 C1456 C 0.08661 0.60157 0.71797
 O1457 O 0.10990 0.57788 0.74907
 C1458 C 0.13373 0.57193 0.75050
 C1459 C 0.14729 0.58180 0.73132
 C1460 C 0.17247 0.57680 0.72880
 C1461 C 0.18399 0.56065 0.74663
 C1462 C 0.17028 0.55022 0.76655
 C1463 C 0.14483 0.55632 0.76852
 H1464 H 0.15089 0.61319 0.68757
 H1465 H 0.11411 0.63285 0.66959
 H1466 H 0.07003 0.60030 0.72870
 H1467 H 0.18273 0.58453 0.71340
 H1468 H 0.20343 0.55612 0.74481
 H1469 H 0.13367 0.54837 0.78323
 C1470 C 0.09057 0.40802 0.26054
 C1471 C 0.11260 0.39435 0.25925
 C1472 C 0.11605 0.36901 0.27013
 C1473 C 0.09606 0.35752 0.28299
 C1474 C 0.07342 0.37172 0.28511
 C1475 C 0.07077 0.39730 0.27358
 O1476 O 0.09070 0.43143 0.24853
 C1477 C 0.11334 0.43273 0.23952
 C1478 C 0.12767 0.41073 0.24570
 C1479 C 0.15219 0.40841 0.23835
 C1480 C 0.16216 0.42949 0.22390
 C1481 C 0.14737 0.45183 0.21691
 C1482 C 0.12270 0.45349 0.22487
 H1483 H 0.13344 0.35842 0.26869
 H1484 H 0.09823 0.33778 0.29152
 H1485 H 0.05377 0.40868 0.27492
 H1486 H 0.16319 0.39102 0.24349
 H1487 H 0.18106 0.42813 0.21767
 H1488 H 0.11112 0.47043 0.21969
   
