data_POSCAR
  _audit_creation_date              2014-09-24
  _audit_creation_method            'ToBaCCo'
  _symmetry_space_group_name_H-M    'P1'
  _symmetry_Int_Tables_number       1
  _symmetry_cell_setting            triclinic
  loop_
  _symmetry_equiv_pos_as_xyz
 x,y,z
_cell_length_a 68.7219
_cell_length_b 68.7316
_cell_length_c 68.7547
_cell_angle_alpha 89.943100
_cell_angle_beta 90.076600
_cell_angle_gamma 89.915200
loop_
  _atom_site_label
  _atom_site_type_symbol
  _atom_site_fract_x
  _atom_site_fract_y
  _atom_site_fract_z
C1 C 0.24866 0.99391 -0.01607
 C2 C 0.25016 0.99376 0.00364
 C3 C 0.25115 1.01199 0.01517
 C4 C 0.25052 0.97550 0.01514
 C5 C 0.24799 0.97571 -0.02768
 C6 C 0.24789 1.01240 -0.02722
 C7 C 0.26635 1.02528 0.01274
 C8 C 0.26777 1.04163 0.02477
 C9 C 0.25409 1.04510 0.03988
 C10 C 0.23857 1.03160 0.04162
 C11 C 0.23726 1.01535 0.02959
 C12 C 0.26599 0.97223 0.02805
 C13 C 0.26540 0.95675 0.04114
 C14 C 0.24921 0.94430 0.04174
 C15 C 0.23405 0.94710 0.02824
 C16 C 0.23467 0.96264 0.01506
 C17 C 0.23271 0.97290 -0.04091
 C18 C 0.23242 0.95660 -0.05298
 C19 C 0.24752 0.94280 -0.05218
 C20 C 0.26277 0.94555 -0.03880
 C21 C 0.26302 0.96189 -0.02667
 C22 C 0.23314 1.02618 -0.02395
 C23 C 0.23265 1.04346 -0.03470
 C24 C 0.24684 1.04721 -0.04894
 C25 C 0.26143 1.03325 -0.05228
 C26 C 0.26189 1.01600 -0.04158
 H27 H 0.27746 1.02269 0.00189
 H28 H 0.28047 1.05062 0.02273
 H29 H 0.22673 1.03363 0.05173
 H30 H 0.22526 1.00533 0.03151
 H31 H 0.27832 0.98203 0.02832
 H32 H 0.27747 0.95474 0.05108
 H33 H 0.22245 0.96514 0.00542
 H34 H 0.22108 0.98350 -0.04204
 H35 H 0.22064 0.95508 -0.06334
 H36 H 0.27455 0.93512 -0.03778
 H37 H 0.27513 0.96397 -0.01679
 H38 H 0.22203 1.02351 -0.01313
 H39 H 0.22128 1.05398 -0.03175
 H40 H 0.27233 1.03554 -0.06340
 H41 H 0.27327 1.00546 -0.04441
 H42 H 0.22132 0.93784 0.02847
 C43 C 0.74965 0.49440 0.48264
 C44 C 0.75112 0.49460 0.50236
 C45 C 0.75243 0.51300 0.51357
 C46 C 0.75125 0.47653 0.51418
 C47 C 0.74902 0.47598 0.47140
 C48 C 0.74885 0.51270 0.47116
 C49 C 0.76784 0.52609 0.51075
 C50 C 0.76973 0.54243 0.52273
 C51 C 0.75635 0.54581 0.53783
 C52 C 0.74071 0.53289 0.54026
 C53 C 0.73883 0.51663 0.52831
 C54 C 0.76659 0.47334 0.52726
 C55 C 0.76580 0.45804 0.54056
 C56 C 0.74953 0.44569 0.54119
 C57 C 0.73449 0.44842 0.52754
 C58 C 0.73531 0.46377 0.51416
 C59 C 0.73379 0.47288 0.45817
 C60 C 0.73351 0.45626 0.44653
 C61 C 0.74855 0.44243 0.44778
 C62 C 0.76377 0.44550 0.46113
 C63 C 0.76402 0.46216 0.47282
 C64 C 0.73423 0.52663 0.47435
 C65 C 0.73364 0.54367 0.46323
 C66 C 0.74760 0.54703 0.44866
 C67 C 0.76207 0.53292 0.44540
 C68 C 0.76263 0.51591 0.45649
 H69 H 0.77867 0.52335 0.49965
 H70 H 0.78203 0.55204 0.52064
 H71 H 0.72999 0.53528 0.55153
 H72 H 0.72685 0.50668 0.53071
 H73 H 0.77899 0.48305 0.52750
 H74 H 0.77778 0.45608 0.55062
 H75 H 0.72318 0.46621 0.50439
 H76 H 0.72219 0.48347 0.45672
 H77 H 0.72177 0.45449 0.43617
 H78 H 0.77550 0.43506 0.46249
 H79 H 0.77609 0.46445 0.48270
 H80 H 0.72327 0.52426 0.48540
 H81 H 0.72238 0.55431 0.46614
 H82 H 0.77280 0.53491 0.43406
 H83 H 0.77390 0.50525 0.45369
 H84 H 0.72170 0.43924 0.52778
 C85 C 0.74803 1.00308 0.99375
 C86 C 0.75060 0.98348 0.99417
 C87 C 0.75239 0.97175 0.97615
 C88 C 0.75139 0.97249 1.01277
 C89 C 0.74630 1.01481 1.01176
 C90 C 0.74714 1.01429 0.97534
 C91 C 0.73753 0.97150 0.96211
 C92 C 0.73871 0.95889 0.94618
 C93 C 0.75468 0.94622 0.94412
 C94 C 0.76970 0.94687 0.95800
 C95 C 0.76851 0.95944 0.97388
 C96 C 0.73824 0.95722 1.01584
 C97 C 0.73891 0.94636 1.03298
 C98 C 0.75284 0.95046 1.04738
 C99 C 0.76603 0.96579 1.04430
 C100 C 0.76538 0.97664 1.02707
 C101 C 0.75936 1.03015 1.01485
 C102 C 0.75728 1.04236 1.03088
 C103 C 0.74198 1.03956 1.04413
 C104 C 0.72909 1.02395 1.04125
 C105 C 0.73116 1.01172 1.02511
 C106 C 0.76323 1.01550 0.96293
 C107 C 0.76322 1.02868 0.94738
 C108 C 0.74711 1.04114 0.94398
 C109 C 0.73062 1.03883 0.95604
 C110 C 0.73075 1.02575 0.97154
 H111 H 0.72478 0.98060 0.96382
 H112 H 0.72680 0.95855 0.93586
 H113 H 0.78233 0.93754 0.95667
 H114 H 0.78009 0.95939 0.98458
 H115 H 0.72736 0.95378 1.00497
 H116 H 0.72839 0.93483 1.03504
 H117 H 0.77590 0.98814 1.02481
 H118 H 0.77112 1.03276 1.00471
 H119 H 0.76763 1.05405 1.03290
 H120 H 0.71706 1.02157 1.05113
 H121 H 0.72075 1.00014 1.02278
 H122 H 0.77616 1.00696 0.96586
 H123 H 0.77647 1.02987 0.93903
 H124 H 0.71737 1.04695 0.95360
 H125 H 0.71811 1.02485 0.98090
 H126 H 0.77708 0.96911 1.05502
 C127 C 0.25167 0.48219 0.49502
 C128 C 0.24946 0.50183 0.49496
 C129 C 0.24866 0.51339 0.47677
 C130 C 0.24807 0.51331 0.51317
 C131 C 0.25231 0.47089 0.51344
 C132 C 0.25327 0.47075 0.47679
 C133 C 0.26475 0.51456 0.46427
 C134 C 0.26490 0.52812 0.44905
 C135 C 0.24899 0.54074 0.44620
 C136 C 0.23256 0.53878 0.45819
 C137 C 0.23246 0.52533 0.47337
 C138 C 0.26153 0.52826 0.51646
 C139 C 0.25963 0.54044 0.53252
 C140 C 0.24412 0.53804 0.54560
 C141 C 0.23088 0.52274 0.54257
 C142 C 0.23279 0.51051 0.52641
 C143 C 0.23887 0.45584 0.51634
 C144 C 0.23932 0.44477 0.53334
 C145 C 0.25334 0.44843 0.54779
 C146 C 0.26685 0.46351 0.54486
 C147 C 0.26641 0.47457 0.52776
 C148 C 0.23849 0.47111 0.46266
 C149 C 0.23957 0.45892 0.44639
 C150 C 0.25536 0.44606 0.44408
 C151 C 0.27027 0.44607 0.45809
 C152 C 0.26918 0.45822 0.47429
 H153 H 0.27751 0.50567 0.46689
 H154 H 0.27781 0.52938 0.44013
 H155 H 0.21994 0.54801 0.45612
 H156 H 0.21994 0.52464 0.48290
 H157 H 0.27341 0.53062 0.50640
 H158 H 0.27025 0.55187 0.53465
 H159 H 0.22208 0.49923 0.52393
 H160 H 0.22790 0.45276 0.50544
 H161 H 0.22856 0.43344 0.53528
 H162 H 0.27798 0.46648 0.55560
 H163 H 0.27716 0.48588 0.52562
 H164 H 0.22588 0.48039 0.46452
 H165 H 0.22774 0.45908 0.43598
 H166 H 0.28277 0.43658 0.45657
 H167 H 0.28070 0.45771 0.48505
 H168 H 0.21870 0.52066 0.55232
 C169 C 0.99366 0.24769 0.01644
 C170 C 0.99364 0.24765 -0.00332
 C171 C 1.01186 0.24898 -0.01479
 C172 C 0.97549 0.24659 -0.01495
 C173 C 0.97544 0.24628 0.02793
 C174 C 1.01204 0.24889 0.02779
 C175 C 1.01405 0.26420 -0.02811
 C176 C 1.03024 0.26500 -0.04025
 C177 C 1.04475 0.25040 -0.03964
 C178 C 1.04260 0.23536 -0.02571
 C179 C 1.02630 0.23463 -0.01354
 C180 C 0.96154 0.26144 -0.01428
 C181 C 0.94610 0.26171 -0.02759
 C182 C 0.94434 0.24716 -0.04208
 C183 C 0.95801 0.23177 -0.04177
 C184 C 0.97339 0.23161 -0.02853
 C185 C 0.96273 0.23044 0.02585
 C186 C 0.94651 0.22861 0.03801
 C187 C 0.94286 0.24251 0.05258
 C188 C 0.95544 0.25852 0.05433
 C189 C 0.97158 0.26033 0.04220
 C190 C 1.01641 0.23431 0.04133
 C191 C 1.03333 0.23527 0.05251
 C192 C 1.04645 0.25100 0.05063
 C193 C 1.04185 0.26562 0.03683
 C194 C 1.02483 0.26461 0.02569
 H195 H 1.00311 0.27552 -0.02914
 H196 H 1.03141 0.27748 -0.04976
 H197 H 1.05280 0.22342 -0.02479
 H198 H 1.02466 0.22254 -0.00356
 H199 H 0.96314 0.27333 -0.00407
 H200 H 0.93646 0.27414 -0.02717
 H201 H 0.98395 0.21991 -0.02913
 H202 H 0.96567 0.21922 0.01519
 H203 H 0.93722 0.21601 0.03646
 H204 H 0.95284 0.26963 0.06518
 H205 H 0.98123 0.27264 0.04405
 H206 H 1.00675 0.22199 0.04308
 H207 H 1.03628 0.22313 0.06208
 H208 H 1.05079 0.27842 0.03510
 H209 H 1.02147 0.27627 0.01562
 H210 H 0.95693 0.21955 -0.05159
 C211 C 0.49541 0.74803 0.51677
 C212 C 0.49509 0.74795 0.49701
 C213 C 0.51314 0.74891 0.48523
 C214 C 0.47672 0.74722 0.48571
 C215 C 0.47734 0.74659 0.52852
 C216 C 0.51393 0.74940 0.52783
 C217 C 0.51514 0.76378 0.47140
 C218 C 0.53104 0.76403 0.45884
 C219 C 0.54523 0.74932 0.45973
 C220 C 0.54349 0.73467 0.47394
 C221 C 0.52750 0.73442 0.48654
 C222 C 0.46293 0.76225 0.48689
 C223 C 0.44726 0.76287 0.47385
 C224 C 0.44526 0.74852 0.45940
 C225 C 0.45864 0.73304 0.45892
 C226 C 0.47425 0.73247 0.47186
 C227 C 0.46455 0.73081 0.52646
 C228 C 0.44840 0.72900 0.53871
 C229 C 0.44490 0.74285 0.55336
 C230 C 0.45759 0.75876 0.55515
 C231 C 0.47367 0.76056 0.54291
 C232 C 0.51844 0.73508 0.54167
 C233 C 0.53545 0.73636 0.55267
 C234 C 0.54828 0.75208 0.55018
 C235 C 0.54377 0.76641 0.53626
 C236 C 0.52668 0.76515 0.52526
 H237 H 0.50420 0.77508 0.47017
 H238 H 0.53216 0.77569 0.44830
 H239 H 0.55410 0.72305 0.47484
 H240 H 0.52603 0.72265 0.49691
 H241 H 0.46479 0.77394 0.49728
 H242 H 0.43727 0.77505 0.47448
 H243 H 0.48477 0.72077 0.47074
 H244 H 0.46735 0.71964 0.51571
 H245 H 0.43902 0.71646 0.53714
 H246 H 0.45512 0.76983 0.56607
 H247 H 0.48338 0.77282 0.54476
 H248 H 0.50877 0.72285 0.54388
 H249 H 0.53865 0.72495 0.56308
 H250 H 0.55323 0.77883 0.53421
 H251 H 0.52326 0.77656 0.51493
 H252 H 0.45727 0.72158 0.44822
 C253 C 0.00365 0.75025 0.00529
 C254 C -0.01611 0.75025 0.00540
 C255 C -0.02750 0.75114 0.02371
 C256 C -0.02759 0.74950 -0.01289
 C257 C 0.01503 0.74886 -0.01299
 C258 C 0.01537 0.75129 0.02336
 C259 C -0.04134 0.73673 0.02746
 C260 C -0.05336 0.73793 0.04373
 C261 C -0.05210 0.75379 0.05677
 C262 C -0.03769 0.76803 0.05304
 C263 C -0.02566 0.76675 0.03666
 C264 C -0.02580 0.73395 -0.02593
 C265 C -0.03714 0.73335 -0.04283
 C266 C -0.05081 0.74821 -0.04703
 C267 C -0.05234 0.76378 -0.03367
 C268 C -0.04097 0.76432 -0.01687
 C269 C 0.01392 0.76328 -0.02736
 C270 C 0.02604 0.76243 -0.04369
 C271 C 0.03977 0.74721 -0.04595
 C272 C 0.04022 0.73255 -0.03152
 C273 C 0.02814 0.73346 -0.01529
 C274 C 0.02900 0.76631 0.02539
 C275 C 0.04216 0.76623 0.04082
 C276 C 0.04211 0.75099 0.05446
 C277 C 0.02793 0.73633 0.05286
 C278 C 0.01468 0.73644 0.03737
 H279 H -0.04287 0.72447 0.01768
 H280 H -0.06328 0.72598 0.04617
 H281 H -0.03626 0.78085 0.06201
 H282 H -0.01532 0.77827 0.03378
 H283 H -0.01584 0.72211 -0.02286
 H284 H -0.03568 0.72066 -0.05200
 H285 H -0.04247 0.77651 -0.00701
 H286 H 0.00410 0.77549 -0.02563
 H287 H 0.02524 0.77442 -0.05384
 H288 H 0.04955 0.71994 -0.03277
 H289 H 0.02905 0.72209 -0.00440
 H290 H 0.02974 0.77786 0.01469
 H291 H 0.05265 0.77792 0.04187
 H292 H 0.02765 0.72433 0.06307
 H293 H 0.00445 0.72456 0.03585
 H294 H -0.06179 0.77608 -0.03633
 C295 C 0.50180 0.25163 0.50530
 C296 C 0.48203 0.25164 0.50514
 C297 C 0.47084 0.25042 0.48668
 C298 C 0.47047 0.25303 0.52330
 C299 C 0.51331 0.25297 0.52350
 C300 C 0.51345 0.25001 0.48722
 C301 C 0.45759 0.26524 0.48200
 C302 C 0.44699 0.26451 0.46469
 C303 C 0.44932 0.24886 0.45175
 C304 C 0.46240 0.23385 0.45661
 C305 C 0.47303 0.23460 0.47397
 C306 C 0.47255 0.26883 0.53606
 C307 C 0.46091 0.27019 0.55269
 C308 C 0.44695 0.25581 0.55680
 C309 C 0.44494 0.24004 0.54396
 C310 C 0.45653 0.23872 0.52736
 C311 C 0.51262 0.23823 0.53763
 C312 C 0.52584 0.23828 0.55316
 C313 C 0.53997 0.25301 0.55468
 C314 C 0.53996 0.26816 0.54095
 C315 C 0.52684 0.26807 0.52548
 C316 C 0.52681 0.23470 0.48543
 C317 C 0.53928 0.23377 0.46949
 C318 C 0.53877 0.24825 0.45506
 C319 C 0.52501 0.26335 0.45660
 C320 C 0.51249 0.26428 0.47262
 H321 H 0.45558 0.27747 0.49172
 H322 H 0.43677 0.27610 0.46154
 H323 H 0.46456 0.22164 0.44691
 H324 H 0.48297 0.22287 0.47748
 H325 H 0.48299 0.28021 0.53301
 H326 H 0.46284 0.28247 0.56236
 H327 H 0.45458 0.22652 0.51759
 H328 H 0.50246 0.22629 0.53615
 H329 H 0.52559 0.22633 0.56343
 H330 H 0.55040 0.27991 0.54194
 H331 H 0.52758 0.27954 0.51469
 H332 H 0.52775 0.22357 0.49656
 H333 H 0.54947 0.22177 0.46854
 H334 H 0.52441 0.27481 0.44580
 H335 H 0.50246 0.27638 0.47393
 H336 H 0.43410 0.22892 0.54651
 C337 C 1.00543 0.01690 0.24864
 C338 C 1.00566 -0.00272 0.25098
 C339 C 0.98753 -0.01430 0.25248
 C340 C 1.02396 -0.01414 0.25177
 C341 C 1.02359 0.02850 0.24738
 C342 C 0.98690 0.02801 0.24755
 C343 C 0.97428 -0.01139 0.26767
 C344 C 0.95812 -0.02360 0.26969
 C345 C 0.95495 -0.03923 0.25666
 C346 C 0.96823 -0.04153 0.24114
 C347 C 0.98427 -0.02933 0.23919
 C348 C 1.02752 -0.02598 0.26793
 C349 C 1.04281 -0.03933 0.26783
 C350 C 1.05488 -0.04151 0.25133
 C351 C 1.05177 -0.02865 0.23550
 C352 C 1.03643 -0.01521 0.23572
 C353 C 1.02623 0.04114 0.23159
 C354 C 1.04230 0.05350 0.23089
 C355 C 1.05601 0.05361 0.24608
 C356 C 1.05357 0.04064 0.26173
 C357 C 1.03744 0.02824 0.26242
 C358 C 0.97287 0.02397 0.23324
 C359 C 0.95569 0.03489 0.23229
 C360 C 0.95238 0.05017 0.24547
 C361 C 0.96651 0.05417 0.25971
 C362 C 0.98361 0.04324 0.26068
 H363 H 0.97677 -0.00004 0.27830
 H364 H 0.94889 -0.02130 0.28219
 H365 H 0.96617 -0.05244 0.23002
 H366 H 0.99427 -0.03166 0.22724
 H367 H 1.01812 -0.02520 0.28054
 H368 H 1.04507 -0.04777 0.28091
 H369 H 1.03367 -0.00638 0.22296
 H370 H 1.01568 0.04158 0.21988
 H371 H 1.04393 0.06309 0.21850
 H372 H 1.06375 0.04056 0.27376
 H373 H 1.03546 0.01888 0.27494
 H374 H 0.97532 0.01252 0.22272
 H375 H 0.94519 0.03165 0.22100
 H376 H 0.96427 0.06567 0.27023
 H377 H 0.99427 0.04660 0.27180
 H378 H 1.06014 -0.02971 0.22225
 C379 C 0.50481 0.51713 0.74814
 C380 C 0.50493 0.49745 0.75022
 C381 C 0.52316 0.48586 0.75015
 C382 C 0.48669 0.48613 0.75230
 C383 C 0.48633 0.52838 0.74752
 C384 C 0.52302 0.52864 0.74668
 C385 C 0.53557 0.48576 0.73395
 C386 C 0.55129 0.47281 0.73316
 C387 C 0.55483 0.45977 0.74856
 C388 C 0.54267 0.46034 0.76496
 C389 C 0.52696 0.47319 0.76570
 C390 C 0.48261 0.47128 0.73894
 C391 C 0.46606 0.45977 0.74111
 C392 C 0.45332 0.46277 0.75679
 C393 C 0.45740 0.47769 0.77017
 C394 C 0.47397 0.48928 0.76795
 C395 C 0.48338 0.54352 0.76085
 C396 C 0.46634 0.55458 0.76027
 C397 C 0.45193 0.55082 0.74624
 C398 C 0.45491 0.53563 0.73287
 C399 C 0.47202 0.52458 0.73343
 C400 C 0.53725 0.52792 0.76134
 C401 C 0.55348 0.54017 0.76051
 C402 C 0.55566 0.55347 0.74508
 C403 C 0.54155 0.55383 0.73027
 C404 C 0.52538 0.54161 0.73111
 H405 H 0.53268 0.49522 0.72167
 H406 H 0.56050 0.47278 0.72040
 H407 H 0.54481 0.45030 0.77692
 H408 H 0.51743 0.47292 0.77823
 H409 H 0.49235 0.46853 0.72688
 H410 H 0.46351 0.44818 0.73076
 H411 H 0.47705 0.50050 0.77856
 H412 H 0.49426 0.54670 0.77180
 H413 H 0.46437 0.56600 0.77093
 H414 H 0.44420 0.53257 0.72172
 H415 H 0.47420 0.51320 0.72276
 H416 H 0.53551 0.51830 0.77370
 H417 H 0.56398 0.53972 0.77226
 H418 H 0.54296 0.56366 0.71804
 H419 H 0.51454 0.54240 0.71968
 H420 H 0.44778 0.48038 0.78234
 C421 C 1.01648 1.00635 0.75180
 C422 C 0.99671 1.00634 0.75213
 C423 C 0.98523 0.98808 0.75124
 C424 C 0.98512 1.02452 0.75317
 C425 C 1.02795 1.02460 0.75307
 C426 C 1.02783 0.98801 0.75041
 C427 C 0.97128 0.98585 0.73652
 C428 C 0.95915 0.96962 0.73623
 C429 C 0.96060 0.95531 0.75077
 C430 C 0.97487 0.95733 0.76531
 C431 C 0.98704 0.97365 0.76560
 C432 C 0.98590 1.03848 0.73835
 C433 C 0.97286 1.05415 0.73822
 C434 C 0.95851 1.05613 0.75288
 C435 C 0.95864 1.04237 0.76819
 C436 C 0.97163 1.02678 0.76821
 C437 C 1.02606 1.03724 0.76899
 C438 C 1.03798 1.05366 0.77053
 C439 C 1.05203 1.05768 0.75621
 C440 C 1.05373 1.04504 0.74024
 C441 C 1.04187 1.02865 0.73874
 C442 C 1.04153 0.98357 0.76482
 C443 C 1.05255 0.96656 0.76376
 C444 C 1.05036 0.95343 0.74807
 C445 C 1.03659 0.95824 0.73349
 C446 C 1.02553 0.97530 0.73466
 H447 H 0.96966 0.99684 0.72532
 H448 H 0.94853 0.96831 0.72465
 H449 H 0.97619 0.94663 0.77681
 H450 H 0.99750 0.97528 0.77728
 H451 H 0.99603 1.03678 0.72641
 H452 H 0.97336 1.06383 0.72584
 H453 H 0.97094 1.01621 0.77989
 H454 H 1.01563 1.03418 0.78038
 H455 H 1.03626 1.06319 0.78295
 H456 H 1.06462 1.04753 0.72915
 H457 H 1.04368 1.01896 0.72645
 H458 H 1.04371 0.99338 0.77695
 H459 H 1.06339 0.96433 0.77495
 H460 H 1.03369 0.94861 0.72141
 H461 H 1.01514 0.97859 0.72325
 H462 H 0.94892 1.04358 0.78047
 C463 C 0.51710 0.50602 0.25067
 C464 C 0.49740 0.50619 0.24903
 C465 C 0.48581 0.48802 0.24794
 C466 C 0.48597 0.52449 0.24851
 C467 C 0.52868 0.52419 0.25186
 C468 C 0.52836 0.48757 0.25113
 C469 C 0.48831 0.47467 0.23270
 C470 C 0.47605 0.45849 0.23114
 C471 C 0.46100 0.45556 0.24469
 C472 C 0.45887 0.46877 0.26012
 C473 C 0.47109 0.48486 0.26167
 C474 C 0.47349 0.52791 0.23274
 C475 C 0.46050 0.54349 0.23305
 C476 C 0.45958 0.55589 0.24926
 C477 C 0.47266 0.55292 0.26476
 C478 C 0.48573 0.53728 0.26441
 C479 C 0.54160 0.52671 0.26745
 C480 C 0.55395 0.54279 0.26807
 C481 C 0.55377 0.55662 0.25301
 C482 C 0.54051 0.55431 0.23758
 C483 C 0.52812 0.53817 0.23696
 C484 C 0.52510 0.47341 0.26549
 C485 C 0.53639 0.45646 0.26598
 C486 C 0.55126 0.45351 0.25225
 C487 C 0.55440 0.46772 0.23788
 C488 C 0.54311 0.48459 0.23738
 H489 H 0.49939 0.47705 0.22178
 H490 H 0.47791 0.44864 0.21900
 H491 H 0.44764 0.46673 0.27096
 H492 H 0.46894 0.49501 0.27352
 H493 H 0.47347 0.51816 0.22036
 H494 H 0.45089 0.54563 0.22074
 H495 H 0.49505 0.53466 0.27686
 H496 H 0.54227 0.51607 0.27906
 H497 H 0.56376 0.54432 0.28032
 H498 H 0.54019 0.56461 0.22565
 H499 H 0.51852 0.53629 0.22460
 H500 H 0.51402 0.47563 0.27646
 H501 H 0.53380 0.44588 0.27736
 H502 H 0.56554 0.46574 0.22694
 H503 H 0.54586 0.49536 0.22621
 H504 H 0.47217 0.56214 0.27751
 O505 O 0.26277 0.20052 0.20838
 O506 O 0.28394 0.19442 0.23543
 O507 O 0.21221 0.22410 0.23690
 O508 O 0.20513 0.24936 0.25582
 O509 O 0.23575 0.25183 0.18536
 O510 O 0.26301 0.27288 0.18016
 O511 O 0.26365 0.27694 0.28647
 O512 O 0.24081 0.25152 0.29146
 O513 O 0.31311 0.25035 0.26285
 O514 O 0.31878 0.22850 0.23469
 O515 O 0.29015 0.30051 0.23703
 O516 O 0.26234 0.30706 0.21506
 O517 O 0.26388 0.30049 0.26329
 O518 O 0.24182 0.30703 0.23570
 O519 O 0.31328 0.27690 0.23683
 O520 O 0.31909 0.24947 0.21452
 O521 O 0.28977 0.25075 0.28618
 O522 O 0.26306 0.22860 0.29214
 O523 O 0.26298 0.22415 0.18523
 O524 O 0.28439 0.25109 0.17992
 O525 O 0.21248 0.25145 0.20879
 O526 O 0.20816 0.27394 0.23602
 O527 O 0.23540 0.20050 0.23602
 O528 O 0.26248 0.19436 0.25692
 Zr529 Zr 0.26183 0.21583 0.23489
 O530 O 0.28019 0.23208 0.25321
 Zr531 Zr 0.22795 0.25029 0.23520
 O532 O 0.24479 0.26804 0.25368
 Zr533 Zr 0.26208 0.25031 0.20104
 O534 O 0.28044 0.26811 0.21789
 Zr535 Zr 0.26344 0.25078 0.27065
 O536 O 0.24484 0.23278 0.25396
 Zr537 Zr 0.29752 0.25075 0.23644
 O538 O 0.28079 0.23276 0.21786
 Zr539 Zr 0.26361 0.28524 0.23679
 O540 O 0.24509 0.26910 0.21819
 O541 O 0.24382 0.23223 0.21694
 O542 O 0.28180 0.26901 0.25487
 C543 C 0.26332 0.20622 0.19055
 C544 C 0.21759 0.20616 0.23707
 C545 C 0.21789 0.25225 0.19092
 C546 C 0.26379 0.29487 0.28112
 C547 C 0.30763 0.25045 0.28072
 C548 C 0.30798 0.29482 0.23702
 H549 H 0.28821 0.22308 0.26106
 H550 H 0.28851 0.27616 0.20915
 H551 H 0.23540 0.22401 0.20863
 H552 H 0.23613 0.27599 0.26195
 H553 H 0.23090 0.24198 0.28719
 H554 H 0.20950 0.25668 0.26740
 H555 H 0.31631 0.25991 0.20499
 H556 H 0.29467 0.24207 0.18449
 H557 H 0.27286 0.21867 0.28864
 H558 H 0.25384 0.19906 0.26743
 H559 H 0.27272 0.30433 0.20549
 H560 H 0.25420 0.28324 0.18490
 H561 H 0.29433 0.19905 0.22661
 H562 H 0.31614 0.21898 0.24516
 H563 H 0.21228 0.28326 0.22584
 H564 H 0.23223 0.30417 0.24603
 O565 O 0.75042 0.81434 0.23634
 O566 O 0.72834 0.81892 0.26296
 O567 O 0.80083 0.79070 0.26492
 O568 O 0.80789 0.76494 0.28348
 O569 O 0.77860 0.76433 0.21232
 O570 O 0.75171 0.74299 0.20583
 O571 O 0.74979 0.73501 0.31181
 O572 O 0.77236 0.76111 0.31772
 O573 O 0.70022 0.76101 0.28837
 O574 O 0.69436 0.78433 0.26145
 O575 O 0.72434 0.71284 0.26094
 O576 O 0.75284 0.70779 0.23922
 O577 O 0.74989 0.71235 0.28780
 O578 O 0.77271 0.70709 0.26063
 O579 O 0.70079 0.73603 0.26113
 O580 O 0.69486 0.76449 0.23992
 O581 O 0.72328 0.76010 0.31203
 O582 O 0.74623 0.78266 0.31913
 O583 O 0.75105 0.79148 0.21249
 O584 O 0.73007 0.76451 0.20586
 O585 O 0.80156 0.76434 0.23613
 O586 O 0.80596 0.74118 0.26282
 O587 O 0.77721 0.81385 0.26412
 O588 O 0.74858 0.81917 0.28472
 Zr589 Zr 0.75103 0.79813 0.26239
 O590 O 0.73289 0.78077 0.27991
 Zr591 Zr 0.78559 0.76431 0.26226
 O592 O 0.76886 0.74543 0.27968
 Zr593 Zr 0.75199 0.76482 0.22746
 O594 O 0.73370 0.74609 0.24332
 Zr595 Zr 0.74967 0.76170 0.29688
 O596 O 0.76811 0.78090 0.28131
 Zr597 Zr 0.71607 0.76246 0.26220
 O598 O 0.73267 0.78141 0.24448
 Zr599 Zr 0.75062 0.72855 0.26184
 O600 O 0.76914 0.74578 0.24425
 O601 O 0.76961 0.78265 0.24429
 O602 O 0.73191 0.74379 0.28012
 C603 C 0.75043 0.80923 0.21834
 C604 C 0.79510 0.80852 0.26532
 C605 C 0.79639 0.76409 0.21815
 C606 C 0.74962 0.71731 0.30582
 C607 C 0.70550 0.75999 0.30629
 C608 C 0.70641 0.71821 0.26075
 H609 H 0.72480 0.78923 0.28828
 H610 H 0.72590 0.73827 0.23413
 H611 H 0.77802 0.79126 0.23639
 H612 H 0.77754 0.73734 0.28783
 H613 H 0.78095 0.77230 0.31485
 H614 H 0.80307 0.75774 0.29495
 H615 H 0.69791 0.75448 0.23006
 H616 H 0.71959 0.77324 0.21050
 H617 H 0.75412 0.79402 0.31530
 H618 H 0.75964 0.81719 0.29374
 H619 H 0.74233 0.71046 0.22975
 H620 H 0.76081 0.73271 0.21026
 H621 H 0.71828 0.81432 0.25373
 H622 H 0.69693 0.79345 0.27227
 H623 H 0.80209 0.73196 0.25246
 H624 H 0.78209 0.70980 0.27120
 O625 O 0.75043 0.19990 0.77652
 O626 O 0.72970 0.19327 0.75016
 O627 O 0.80043 0.22488 0.74838
 O628 O 0.80721 0.25047 0.73008
 O629 O 0.77605 0.25144 0.80013
 O630 O 0.74874 0.27147 0.80599
 O631 O 0.74732 0.27664 0.69910
 O632 O 0.77059 0.25177 0.69386
 O633 O 0.69870 0.24984 0.72339
 O634 O 0.69274 0.22859 0.75053
 O635 O 0.72169 0.30013 0.74871
 O636 O 0.74891 0.30725 0.77005
 O637 O 0.74722 0.30024 0.72219
 O638 O 0.77037 0.30624 0.75018
 O639 O 0.69858 0.27658 0.74898
 O640 O 0.69398 0.24824 0.77231
 O641 O 0.72162 0.25057 0.69963
 O642 O 0.74586 0.22834 0.69385
 O643 O 0.74980 0.22307 0.80007
 O644 O 0.72723 0.24988 0.80522
 O645 O 0.79951 0.25176 0.77687
 O646 O 0.80307 0.27473 0.74897
 O647 O 0.77790 0.20076 0.74947
 O648 O 0.74920 0.19444 0.72789
 Zr649 Zr 0.75092 0.21551 0.75029
 O650 O 0.73198 0.23177 0.73250
 Zr651 Zr 0.78405 0.25055 0.75028
 O652 O 0.76688 0.26799 0.73173
 Zr653 Zr 0.74992 0.24956 0.78448
 O654 O 0.73156 0.26768 0.76786
 Zr655 Zr 0.74820 0.25062 0.71493
 O656 O 0.76754 0.23284 0.73126
 Zr657 Zr 0.71453 0.25029 0.74948
 O658 O 0.73158 0.23195 0.76751
 Zr659 Zr 0.74815 0.28497 0.74883
 O660 O 0.76665 0.26884 0.76754
 O661 O 0.76855 0.23204 0.76839
 O662 O 0.72992 0.26867 0.73097
 C663 C 0.74991 0.20521 0.79442
 C664 C 0.79557 0.20685 0.74839
 C665 C 0.79392 0.25223 0.79474
 C666 C 0.74691 0.29455 0.70437
 C667 C 0.70383 0.25015 0.70544
 C668 C 0.70390 0.29452 0.74864
 H669 H 0.72414 0.22278 0.72446
 H670 H 0.72349 0.27567 0.77666
 H671 H 0.77716 0.22394 0.77663
 H672 H 0.77538 0.27599 0.72334
 H673 H 0.78008 0.24149 0.69730
 H674 H 0.80187 0.25533 0.71763
 H675 H 0.69543 0.25988 0.78064
 H676 H 0.71767 0.23996 0.80105
 H677 H 0.75541 0.21820 0.69745
 H678 H 0.76105 0.19567 0.71983
 H679 H 0.73955 0.30374 0.78039
 H680 H 0.75667 0.28243 0.80107
 H681 H 0.71881 0.19799 0.75831
 H682 H 0.69676 0.21800 0.74166
 H683 H 0.79957 0.28344 0.75988
 H684 H 0.77879 0.30459 0.73864
 O685 O 0.23860 0.78886 0.77482
 O686 O 0.25987 0.79354 0.74757
 O687 O 0.18713 0.76611 0.74664
 O688 O 0.17962 0.74058 0.72813
 O689 O 0.20987 0.73938 0.79887
 O690 O 0.23641 0.71724 0.80475
 O691 O 0.23683 0.71013 0.69887
 O692 O 0.21463 0.73688 0.69336
 O693 O 0.28720 0.73590 0.72175
 O694 O 0.29362 0.75843 0.74891
 O695 O 0.26294 0.68728 0.74869
 O696 O 0.23504 0.68244 0.77128
 O697 O 0.23658 0.68732 0.72278
 O698 O 0.21447 0.68230 0.75047
 O699 O 0.28665 0.71023 0.74829
 O700 O 0.29315 0.73829 0.77014
 O701 O 0.26389 0.73515 0.69834
 O702 O 0.24102 0.75764 0.69147
 O703 O 0.23812 0.76581 0.79853
 O704 O 0.25844 0.73834 0.80469
 O705 O 0.18663 0.73980 0.77532
 O706 O 0.18165 0.71669 0.74862
 O707 O 0.21092 0.78902 0.74752
 O708 O 0.23907 0.79427 0.72645
 Zr709 Zr 0.23704 0.77298 0.74862
 O710 O 0.25477 0.75555 0.73073
 Zr711 Zr 0.20223 0.73959 0.74901
 O712 O 0.21853 0.72065 0.73125
 Zr713 Zr 0.23628 0.73936 0.78336
 O714 O 0.25419 0.72054 0.76712
 Zr715 Zr 0.23765 0.73678 0.71384
 O716 O 0.21961 0.75610 0.72980
 Zr717 Zr 0.27165 0.73688 0.74810
 O718 O 0.25548 0.75587 0.76615
 Zr719 Zr 0.23683 0.70339 0.74876
 O720 O 0.21871 0.72069 0.76669
 O721 O 0.21861 0.75760 0.76690
 O722 O 0.25543 0.71852 0.73027
 C723 C 0.23906 0.78358 0.79278
 C724 C 0.19297 0.78388 0.74641
 C725 C 0.19200 0.73953 0.79324
 C726 C 0.23658 0.69239 0.70479
 C727 C 0.28175 0.73513 0.70388
 C728 C 0.28090 0.69246 0.74839
 H729 H 0.26281 0.76401 0.72234
 H730 H 0.26209 0.71252 0.77608
 H731 H 0.21049 0.76631 0.77499
 H732 H 0.20961 0.71274 0.72321
 H733 H 0.20633 0.74826 0.69640
 H734 H 0.18431 0.73361 0.71647
 H735 H 0.29050 0.72777 0.77960
 H736 H 0.26917 0.74659 0.79981
 H737 H 0.23411 0.76945 0.69584
 H738 H 0.22793 0.79233 0.71753
 H739 H 0.24583 0.68488 0.78050
 H740 H 0.22710 0.70720 0.80031
 H741 H 0.27005 0.78883 0.75662
 H742 H 0.29091 0.76786 0.73837
 H743 H 0.18537 0.70753 0.75912
 H744 H 0.20485 0.68526 0.74017
 O745 O 0.25002 0.31322 0.73738
 O746 O 0.22831 0.31831 0.76420
 O747 O 0.30080 0.29000 0.76563
 O748 O 0.30808 0.26454 0.78450
 O749 O 0.27774 0.26281 0.71379
 O750 O 0.25079 0.24136 0.70806
 O751 O 0.25026 0.23519 0.81418
 O752 O 0.27299 0.26129 0.81935
 O753 O 0.20047 0.26094 0.79096
 O754 O 0.19426 0.28372 0.76369
 O755 O 0.22416 0.21218 0.76428
 O756 O 0.25223 0.20672 0.74204
 O757 O 0.25012 0.21214 0.79055
 O758 O 0.27255 0.20643 0.76309
 O759 O 0.20064 0.23541 0.76440
 O760 O 0.19446 0.26344 0.74254
 O761 O 0.22383 0.26032 0.81434
 O762 O 0.24695 0.28302 0.82070
 O763 O 0.25023 0.28997 0.71390
 O764 O 0.22913 0.26290 0.70805
 O765 O 0.30104 0.26320 0.73727
 O766 O 0.30580 0.24043 0.76429
 O767 O 0.27718 0.31315 0.76481
 O768 O 0.24882 0.31887 0.78569
 Zr769 Zr 0.25095 0.29745 0.76369
 O770 O 0.23303 0.28043 0.78175
 Zr771 Zr 0.28547 0.26360 0.76363
 O772 O 0.26896 0.24505 0.78161
 Zr773 Zr 0.25136 0.26356 0.72931
 O774 O 0.23329 0.24511 0.74574
 Zr775 Zr 0.25003 0.26163 0.79881
 O776 O 0.26828 0.28053 0.78265
 Zr777 Zr 0.21596 0.26184 0.76457
 O778 O 0.23232 0.28048 0.74632
 Zr779 Zr 0.25046 0.22789 0.76432
 O780 O 0.26874 0.24479 0.74617
 O781 O 0.26925 0.28165 0.74559
 O782 O 0.23204 0.24347 0.78259
 C783 C 0.24976 0.30781 0.71947
 C784 C 0.29508 0.30783 0.76583
 C785 C 0.29562 0.26269 0.71936
 C786 C 0.25002 0.21740 0.80848
 C787 C 0.20597 0.26017 0.80883
 C788 C 0.20624 0.21757 0.76440
 H789 H 0.22507 0.28904 0.79007
 H790 H 0.22533 0.23712 0.73683
 H791 H 0.27756 0.29012 0.73743
 H792 H 0.27774 0.23708 0.78978
 H793 H 0.28159 0.27239 0.81617
 H794 H 0.30342 0.25755 0.79617
 H795 H 0.19725 0.25310 0.73294
 H796 H 0.21870 0.27168 0.71272
 H797 H 0.25494 0.29422 0.81664
 H798 H 0.25999 0.31704 0.79459
 H799 H 0.24151 0.20920 0.73275
 H800 H 0.25988 0.23111 0.71259
 H801 H 0.21813 0.31358 0.75518
 H802 H 0.19701 0.29306 0.77427
 H803 H 0.30181 0.23108 0.75409
 H804 H 0.28205 0.20925 0.77352
 O805 O 0.76386 0.69996 0.70866
 O806 O 0.78466 0.69335 0.73590
 O807 O 0.71290 0.72298 0.73692
 O808 O 0.70550 0.74792 0.75609
 O809 O 0.73722 0.75167 0.68619
 O810 O 0.76451 0.77280 0.68177
 O811 O 0.76362 0.77496 0.78814
 O812 O 0.74072 0.74943 0.79237
 O813 O 0.81341 0.74869 0.76468
 O814 O 0.81953 0.72751 0.73621
 O815 O 0.79075 0.79939 0.73991
 O816 O 0.76343 0.80633 0.71725
 O817 O 0.76402 0.79889 0.76535
 O818 O 0.74243 0.80587 0.73747
 O819 O 0.81391 0.77582 0.73959
 O820 O 0.82001 0.74891 0.71640
 O821 O 0.78977 0.74878 0.78772
 O822 O 0.76296 0.72649 0.79292
 O823 O 0.76444 0.72401 0.68595
 O824 O 0.78594 0.75103 0.68148
 O825 O 0.71360 0.75082 0.70926
 O826 O 0.70886 0.77283 0.73686
 O827 O 0.73610 0.69941 0.73595
 O828 O 0.76291 0.69290 0.75708
 Zr829 Zr 0.76254 0.71477 0.73544
 O830 O 0.78063 0.73069 0.75430
 Zr831 Zr 0.72866 0.74920 0.73588
 O832 O 0.74521 0.76662 0.75492
 Zr833 Zr 0.76329 0.74986 0.70222
 O834 O 0.78140 0.76739 0.71965
 Zr835 Zr 0.76363 0.74906 0.77185
 O836 O 0.74528 0.73137 0.75457
 Zr837 Zr 0.79819 0.74967 0.73811
 O838 O 0.78175 0.73200 0.71899
 Zr839 Zr 0.76425 0.78412 0.73860
 O840 O 0.74602 0.76831 0.71945
 O841 O 0.74480 0.73149 0.71752
 O842 O 0.78217 0.76756 0.75664
 C843 C 0.76469 0.70598 0.69095
 C844 C 0.71828 0.70504 0.73686
 C845 C 0.71928 0.75196 0.69149
 C846 C 0.76376 0.79298 0.78307
 C847 C 0.80770 0.74854 0.78247
 C848 C 0.80857 0.79372 0.74028
 H849 H 0.78856 0.72155 0.76209
 H850 H 0.78961 0.77563 0.71123
 H851 H 0.73651 0.72341 0.70896
 H852 H 0.73641 0.77441 0.76321
 H853 H 0.73087 0.73997 0.78779
 H854 H 0.70973 0.75491 0.76792
 H855 H 0.81760 0.75983 0.70733
 H856 H 0.79620 0.74202 0.68610
 H857 H 0.77287 0.71667 0.78941
 H858 H 0.75416 0.69741 0.76757
 H859 H 0.77418 0.80394 0.70800
 H860 H 0.75577 0.78315 0.68667
 H861 H 0.79514 0.69811 0.72726
 H862 H 0.81665 0.71770 0.74633
 H863 H 0.71305 0.78229 0.72684
 H864 H 0.73270 0.80287 0.74762
 O865 O 0.25027 0.70009 0.27894
 O866 O 0.22993 0.69305 0.25234
 O867 O 0.30067 0.72468 0.25128
 O868 O 0.30754 0.74982 0.23230
 O869 O 0.27567 0.75204 0.30206
 O870 O 0.24823 0.77209 0.30733
 O871 O 0.24806 0.77565 0.20036
 O872 O 0.27144 0.75071 0.19577
 O873 O 0.19922 0.74918 0.22448
 O874 O 0.19296 0.72829 0.25186
 O875 O 0.22186 0.79984 0.24933
 O876 O 0.24885 0.80729 0.27088
 O877 O 0.24762 0.79957 0.22310
 O878 O 0.27048 0.80605 0.25121
 O879 O 0.19876 0.77627 0.24975
 O880 O 0.19390 0.74825 0.27335
 O881 O 0.22241 0.74954 0.20099
 O882 O 0.24673 0.72728 0.19580
 O883 O 0.24948 0.72359 0.30215
 O884 O 0.22677 0.75043 0.30664
 O885 O 0.29937 0.75209 0.27904
 O886 O 0.30329 0.77450 0.25083
 O887 O 0.27814 0.70056 0.25244
 O888 O 0.24987 0.69391 0.23039
 Zr889 Zr 0.25114 0.71529 0.25250
 O890 O 0.23240 0.73126 0.23424
 Zr891 Zr 0.28423 0.75036 0.25232
 O892 O 0.26726 0.76751 0.23333
 Zr893 Zr 0.24971 0.74986 0.28617
 O894 O 0.23153 0.76769 0.26906
 Zr895 Zr 0.24880 0.74986 0.21659
 O896 O 0.26796 0.73234 0.23340
 Zr897 Zr 0.21473 0.75001 0.25075
 O898 O 0.23158 0.73196 0.26925
 Zr899 Zr 0.24832 0.78471 0.24997
 O900 O 0.26662 0.76889 0.26912
 O901 O 0.26852 0.73214 0.27054
 O902 O 0.23032 0.76812 0.23215
 C903 C 0.24963 0.70566 0.29676
 C904 C 0.29582 0.70664 0.25163
 C905 C 0.29358 0.75281 0.29684
 C906 C 0.24752 0.79362 0.20536
 C907 C 0.20456 0.74921 0.20660
 C908 C 0.20408 0.79421 0.24919
 H909 H 0.22466 0.72213 0.22625
 H910 H 0.22335 0.77581 0.27766
 H911 H 0.27703 0.72419 0.27905
 H912 H 0.27584 0.77541 0.22492
 H913 H 0.28089 0.74046 0.19947
 H914 H 0.30240 0.75476 0.21981
 H915 H 0.19530 0.75996 0.28159
 H916 H 0.21730 0.74041 0.30251
 H917 H 0.25617 0.71716 0.19972
 H918 H 0.26188 0.69504 0.22254
 H919 H 0.23933 0.80396 0.28112
 H920 H 0.25621 0.78299 0.30234
 H921 H 0.21893 0.69786 0.26030
 H922 H 0.19705 0.71762 0.24313
 H923 H 0.29959 0.78345 0.26148
 H924 H 0.27902 0.80425 0.23978
 O925 O 0.73921 0.28694 0.27691
 O926 O 0.75992 0.29207 0.24930
 O927 O 0.68719 0.26461 0.24966
 O928 O 0.67952 0.23957 0.23039
 O929 O 0.71080 0.23713 0.30073
 O930 O 0.73745 0.21489 0.30585
 O931 O 0.73609 0.20941 0.19985
 O932 O 0.71384 0.23629 0.19511
 O933 O 0.78685 0.23479 0.22229
 O934 O 0.79371 0.25695 0.24968
 O935 O 0.76304 0.18580 0.24891
 O936 O 0.73555 0.18056 0.27182
 O937 O 0.73628 0.18624 0.22341
 O938 O 0.71458 0.18081 0.25142
 O939 O 0.78674 0.20876 0.24846
 O940 O 0.79361 0.23649 0.27060
 O941 O 0.76317 0.23438 0.19925
 O942 O 0.74021 0.25700 0.19310
 O943 O 0.73905 0.26358 0.30032
 O944 O 0.75950 0.23601 0.30573
 O945 O 0.68722 0.23774 0.27754
 O946 O 0.68175 0.21519 0.25051
 O947 O 0.71098 0.28750 0.25040
 O948 O 0.73860 0.29305 0.22860
 Zr949 Zr 0.73713 0.27147 0.25053
 O950 O 0.75458 0.25433 0.23210
 Zr951 Zr 0.70236 0.23806 0.25099
 O952 O 0.71836 0.21940 0.23268
 Zr953 Zr 0.73698 0.23733 0.28479
 O954 O 0.75460 0.21877 0.26796
 Zr955 Zr 0.73718 0.23583 0.21521
 O956 O 0.71939 0.25489 0.23175
 Zr957 Zr 0.77175 0.23540 0.24890
 O958 O 0.75588 0.25412 0.26750
 Zr959 Zr 0.73694 0.20189 0.24963
 O960 O 0.71913 0.21892 0.26813
 O961 O 0.71905 0.25578 0.26889
 O962 O 0.75523 0.21732 0.23106
 C963 C 0.73992 0.28143 0.29479
 C964 C 0.69301 0.28238 0.24975
 C965 C 0.69286 0.23729 0.29536
 C966 C 0.73597 0.19158 0.20550
 C967 C 0.78111 0.23426 0.20450
 C968 C 0.78099 0.19099 0.24840
 H969 H 0.76249 0.26292 0.22370
 H970 H 0.76265 0.21062 0.27667
 H971 H 0.71109 0.26433 0.27730
 H972 H 0.70931 0.21162 0.22467
 H973 H 0.70562 0.24765 0.19845
 H974 H 0.68393 0.23257 0.21864
 H975 H 0.79111 0.22585 0.27996
 H976 H 0.77013 0.24436 0.30080
 H977 H 0.73359 0.26883 0.19784
 H978 H 0.72718 0.29127 0.22000
 H979 H 0.74641 0.18294 0.28096
 H980 H 0.72806 0.20493 0.30141
 H981 H 0.77029 0.28724 0.25808
 H982 H 0.79088 0.26649 0.23927
 H983 H 0.68566 0.20581 0.26074
 H984 H 0.70488 0.18383 0.24122
 C985 C 0.24827 0.07622 0.08365
 C986 C 0.25978 0.09217 0.07882
 C987 C 0.26939 0.09257 0.06096
 C988 C 0.26753 0.07703 0.04794
 C989 C 0.25589 0.06056 0.05245
 C990 C 0.24632 0.06067 0.07077
 C991 C 0.26167 0.10798 0.09239
 C992 C 0.26285 0.12088 0.10419
 C993 C 0.26380 0.13564 0.11841
 C994 C 0.26429 0.14803 0.13079
 C995 C 0.26455 0.16264 0.14576
 C996 C 0.26454 0.18237 0.14079
 C997 C 0.26427 0.19656 0.15535
 C998 C 0.26398 0.19117 0.17512
 C999 C 0.26412 0.17126 0.17995
 C1000 C 0.26439 0.15711 0.16535
 H1001 H 0.24094 0.07565 0.09759
 H1002 H 0.27823 0.10499 0.05699
 H1003 H 0.27465 0.07872 0.03405
 H1004 H 0.23806 0.04842 0.07605
 H1005 H 0.26461 0.18681 0.12566
 H1006 H 0.26416 0.21173 0.15108
 H1007 H 0.26391 0.16658 0.19499
 H1008 H 0.26436 0.14186 0.16936
 C1009 C 0.75780 0.57490 0.58457
 C1010 C 0.76313 0.59333 0.57782
 C1011 C 0.76659 0.59625 0.55796
 C1012 C 0.76456 0.58078 0.54487
 C1013 C 0.75897 0.56226 0.55154
 C1014 C 0.75575 0.55948 0.57155
 C1015 C 0.76467 0.60916 0.59141
 C1016 C 0.76558 0.62201 0.60328
 C1017 C 0.76625 0.63664 0.61764
 C1018 C 0.76653 0.64886 0.63019
 C1019 C 0.76654 0.66321 0.64541
 C1020 C 0.76658 0.68303 0.64079
 C1021 C 0.76610 0.69695 0.65559
 C1022 C 0.76556 0.69122 0.67526
 C1023 C 0.76564 0.67122 0.67973
 C1024 C 0.76612 0.65734 0.66489
 H1025 H 0.75516 0.57246 0.59991
 H1026 H 0.77069 0.61049 0.55258
 H1027 H 0.76701 0.58338 0.52953
 H1028 H 0.75177 0.54531 0.57718
 H1029 H 0.76686 0.68774 0.62574
 H1030 H 0.76605 0.71220 0.65159
 H1031 H 0.76523 0.66627 0.69468
 H1032 H 0.76605 0.64202 0.66862
 C1033 C 0.75682 0.93589 0.10059
 C1034 C 0.75408 0.91574 0.09942
 C1035 C 0.75136 0.90696 0.08127
 C1036 C 0.75116 0.91824 0.06438
 C1037 C 0.75368 0.93852 0.06537
 C1038 C 0.75666 0.94723 0.08365
 C1039 C 0.75380 0.90391 0.11670
 C1040 C 0.75336 0.89336 0.13071
 C1041 C 0.75268 0.88030 0.14655
 C1042 C 0.75204 0.86857 0.15958
 C1043 C 0.75128 0.85388 0.17449
 C1044 C 0.75068 0.83426 0.16917
 C1045 C 0.75020 0.81978 0.18342
 C1046 C 0.75031 0.82472 0.20330
 C1047 C 0.75077 0.84453 0.20852
 C1048 C 0.75126 0.85901 0.19419
 H1049 H 0.75892 0.94284 0.11457
 H1050 H 0.74930 0.89137 0.08019
 H1051 H 0.74915 0.91107 0.05051
 H1052 H 0.75846 0.96283 0.08488
 H1053 H 0.75067 0.83012 0.15396
 H1054 H 0.74986 0.80472 0.17883
 H1055 H 0.75092 0.84885 0.22366
 H1056 H 0.75172 0.87416 0.19847
 C1057 C 0.25703 0.43340 0.60088
 C1058 C 0.25383 0.41333 0.59958
 C1059 C 0.25087 0.40473 0.58138
 C1060 C 0.25091 0.41613 0.56456
 C1061 C 0.25390 0.43634 0.56569
 C1062 C 0.25709 0.44486 0.58403
 C1063 C 0.25337 0.40140 0.61679
 C1064 C 0.25280 0.39086 0.63080
 C1065 C 0.25199 0.37787 0.64669
 C1066 C 0.25126 0.36626 0.65982
 C1067 C 0.25043 0.35178 0.67494
 C1068 C 0.24959 0.33209 0.66991
 C1069 C 0.24914 0.31784 0.68439
 C1070 C 0.24952 0.32306 0.70418
 C1071 C 0.25020 0.34294 0.70911
 C1072 C 0.25066 0.35720 0.69456
 H1073 H 0.25931 0.44021 0.61490
 H1074 H 0.24847 0.38920 0.58020
 H1075 H 0.24872 0.40910 0.55064
 H1076 H 0.25925 0.46040 0.58536
 H1077 H 0.24940 0.32774 0.65477
 H1078 H 0.24863 0.30271 0.68003
 H1079 H 0.25056 0.34750 0.72418
 H1080 H 0.25132 0.37242 0.69861
 C1081 C 0.73693 0.08785 0.91755
 C1082 C 0.74948 0.08639 0.90169
 C1083 C 0.76109 0.06983 0.89954
 C1084 C 0.76026 0.05480 0.91328
 C1085 C 0.74769 0.05601 0.92954
 C1086 C 0.73601 0.07292 0.93129
 C1087 C 0.75036 0.10203 0.88778
 C1088 C 0.75076 0.11532 0.87633
 C1089 C 0.75090 0.13094 0.86300
 C1090 C 0.75082 0.14417 0.85146
 C1091 C 0.75057 0.15963 0.83733
 C1092 C 0.75035 0.17913 0.84323
 C1093 C 0.75004 0.19405 0.82934
 C1094 C 0.74994 0.18960 0.80935
 C1095 C 0.75012 0.16992 0.80364
 C1096 C 0.75043 0.15509 0.81753
 H1097 H 0.72797 0.10070 0.91946
 H1098 H 0.77077 0.06848 0.88718
 H1099 H 0.76910 0.04206 0.91064
 H1100 H 0.72671 0.07534 0.94372
 H1101 H 0.75044 0.18281 0.85855
 H1102 H 0.74994 0.20901 0.83425
 H1103 H 0.75006 0.16591 0.78842
 H1104 H 0.75058 0.14006 0.81279
 C1105 C 0.24344 0.59049 0.42301
 C1106 C 0.25135 0.58738 0.40455
 C1107 C 0.25864 0.56898 0.39963
 C1108 C 0.25794 0.55373 0.41313
 C1109 C 0.24986 0.55672 0.43168
 C1110 C 0.24271 0.57530 0.43648
 C1111 C 0.25173 0.60310 0.39072
 C1112 C 0.25172 0.61644 0.37932
 C1113 C 0.25145 0.63207 0.36600
 C1114 C 0.25106 0.64525 0.35443
 C1115 C 0.25050 0.66058 0.34017
 C1116 C 0.25048 0.68014 0.34586
 C1117 C 0.25003 0.69491 0.33181
 C1118 C 0.24959 0.69024 0.31188
 C1119 C 0.24951 0.67050 0.30639
 C1120 C 0.24996 0.65583 0.32042
 H1121 H 0.23783 0.60467 0.42700
 H1122 H 0.26477 0.56641 0.38535
 H1123 H 0.26346 0.53956 0.40899
 H1124 H 0.23676 0.57819 0.45077
 H1125 H 0.25088 0.68398 0.36114
 H1126 H 0.25014 0.70993 0.33654
 H1127 H 0.24919 0.66631 0.29121
 H1128 H 0.24995 0.64074 0.31585
 C1129 C 0.23001 0.90132 0.91590
 C1130 C 0.24719 0.89599 0.90638
 C1131 C 0.26465 0.90540 0.91098
 C1132 C 0.26487 0.92032 0.92481
 C1133 C 0.24759 0.92605 0.93417
 C1134 C 0.23019 0.91624 0.92970
 C1135 C 0.24675 0.88124 0.89152
 C1136 C 0.24615 0.86902 0.87896
 C1137 C 0.24524 0.85477 0.86421
 C1138 C 0.24432 0.84256 0.85165
 C1139 C 0.24311 0.82784 0.83681
 C1140 C 0.24274 0.83307 0.81713
 C1141 C 0.24143 0.81872 0.80276
 C1142 C 0.24047 0.79890 0.80791
 C1143 C 0.24085 0.79384 0.82777
 C1144 C 0.24216 0.80821 0.84208
 H1145 H 0.21643 0.89410 0.91249
 H1146 H 0.27803 0.90142 0.90367
 H1147 H 0.27844 0.92775 0.92775
 H1148 H 0.21671 0.92015 0.93683
 H1149 H 0.24344 0.84824 0.81288
 H1150 H 0.24116 0.82315 0.78764
 H1151 H 0.24013 0.77877 0.83231
 H1152 H 0.24241 0.80399 0.85727
 C1153 C 0.76571 0.40387 0.41218
 C1154 C 0.74824 0.39438 0.40779
 C1155 C 0.73104 0.40006 0.41706
 C1156 C 0.73121 0.41540 0.43039
 C1157 C 0.74862 0.42529 0.43463
 C1158 C 0.76592 0.41921 0.42554
 C1159 C 0.74781 0.37924 0.39333
 C1160 C 0.74723 0.36676 0.38103
 C1161 C 0.74635 0.35229 0.36649
 C1162 C 0.74545 0.34000 0.35402
 C1163 C 0.74424 0.32533 0.33913
 C1164 C 0.74350 0.30565 0.34427
 C1165 C 0.74214 0.29138 0.32987
 C1166 C 0.74149 0.29660 0.31005
 C1167 C 0.74227 0.31645 0.30505
 C1168 C 0.74364 0.33070 0.31950
 H1169 H 0.77911 0.39963 0.40504
 H1170 H 0.71744 0.39279 0.41380
 H1171 H 0.71770 0.41958 0.43734
 H1172 H 0.77950 0.42668 0.42830
 H1173 H 0.74394 0.30133 0.35943
 H1174 H 0.74156 0.27626 0.33428
 H1175 H 0.74179 0.32101 0.28997
 H1176 H 0.74417 0.34590 0.31536
 C1177 C 0.08133 0.24352 0.09203
 C1178 C 0.09749 0.25403 0.08571
 C1179 C 0.09684 0.26367 0.06782
 C1180 C 0.08008 0.26278 0.05626
 C1181 C 0.06354 0.25210 0.06233
 C1182 C 0.06458 0.24254 0.08056
 C1183 C 0.11461 0.25490 0.09779
 C1184 C 0.12858 0.25529 0.10841
 C1185 C 0.14451 0.25541 0.12140
 C1186 C 0.15771 0.25527 0.13297
 C1187 C 0.17297 0.25486 0.14735
 C1188 C 0.16812 0.25473 0.16710
 C1189 C 0.18272 0.25397 0.18123
 C1190 C 0.20247 0.25331 0.17582
 C1191 C 0.20721 0.25353 0.15589
 C1192 C 0.19254 0.25429 0.14176
 H1193 H 0.08159 0.23617 0.10598
 H1194 H 0.10934 0.27179 0.06273
 H1195 H 0.08059 0.26989 0.04224
 H1196 H 0.05227 0.23486 0.08658
 H1197 H 0.15302 0.25514 0.17159
 H1198 H 0.17849 0.25383 0.19639
 H1199 H 0.22224 0.25302 0.15120
 H1200 H 0.19645 0.25435 0.12650
 C1201 C 0.58211 0.74988 0.59372
 C1202 C 0.59981 0.75561 0.58551
 C1203 C 0.60068 0.76050 0.56575
 C1204 C 0.58389 0.75953 0.55423
 C1205 C 0.56607 0.75359 0.56235
 C1206 C 0.56536 0.74888 0.58225
 C1207 C 0.61699 0.75622 0.59748
 C1208 C 0.63098 0.75640 0.60808
 C1209 C 0.64685 0.75630 0.62113
 C1210 C 0.65995 0.75597 0.63280
 C1211 C 0.67500 0.75532 0.64736
 C1212 C 0.66987 0.75488 0.66703
 C1213 C 0.68427 0.75387 0.68134
 C1214 C 0.70409 0.75329 0.67620
 C1215 C 0.70912 0.75383 0.65635
 C1216 C 0.69465 0.75483 0.64203
 H1217 H 0.58126 0.74614 0.60901
 H1218 H 0.61432 0.76492 0.55924
 H1219 H 0.58492 0.76307 0.53891
 H1220 H 0.55181 0.74457 0.58900
 H1221 H 0.65471 0.75522 0.67132
 H1222 H 0.67983 0.75349 0.69644
 H1223 H 0.72421 0.75339 0.65186
 H1224 H 0.69877 0.75513 0.62683
 C1225 C 0.06201 0.75598 0.90488
 C1226 C 0.07972 0.74615 0.90679
 C1227 C 0.08419 0.73669 0.92419
 C1228 C 0.07107 0.73699 0.93966
 C1229 C 0.05300 0.74681 0.93813
 C1230 C 0.04879 0.75637 0.92035
 C1231 C 0.09352 0.74577 0.89108
 C1232 C 0.10548 0.74516 0.87828
 C1233 C 0.11983 0.74420 0.86365
 C1234 C 0.13227 0.74325 0.85135
 C1235 C 0.14725 0.74207 0.83680
 C1236 C 0.16684 0.74143 0.84233
 C1237 C 0.18143 0.74042 0.82820
 C1238 C 0.17658 0.74004 0.80830
 C1239 C 0.15680 0.74058 0.80292
 C1240 C 0.14226 0.74158 0.81708
 H1241 H 0.05835 0.76328 0.89138
 H1242 H 0.09798 0.72920 0.92591
 H1243 H 0.07573 0.73015 0.95304
 H1244 H 0.03502 0.76360 0.91791
 H1245 H 0.17085 0.74178 0.85757
 H1246 H 0.19647 0.74006 0.83288
 H1247 H 0.15252 0.74033 0.78776
 H1248 H 0.12714 0.74206 0.81263
 C1249 C 0.56117 0.25160 0.40468
 C1250 C 0.58051 0.24646 0.40863
 C1251 C 0.58619 0.24219 0.42769
 C1252 C 0.57262 0.24290 0.44275
 C1253 C 0.55311 0.24787 0.43896
 C1254 C 0.54753 0.25235 0.41977
 C1255 C 0.59462 0.24535 0.39323
 C1256 C 0.60676 0.24421 0.38067
 C1257 C 0.62124 0.24271 0.36623
 C1258 C 0.63371 0.24140 0.35399
 C1259 C 0.64857 0.23988 0.33936
 C1260 C 0.66822 0.23932 0.34472
 C1261 C 0.68268 0.23821 0.33046
 C1262 C 0.67763 0.23766 0.31061
 C1263 C 0.65779 0.23805 0.30542
 C1264 C 0.64340 0.23916 0.31971
 H1265 H 0.55663 0.25492 0.38995
 H1266 H 0.60113 0.23828 0.43092
 H1267 H 0.57744 0.23972 0.45742
 H1268 H 0.53259 0.25609 0.41640
 H1269 H 0.67238 0.23987 0.35992
 H1270 H 0.69777 0.23798 0.33498
 H1271 H 0.65334 0.23767 0.29031
 H1272 H 0.62823 0.23957 0.31540
 C1273 C 0.92667 0.76807 0.10511
 C1274 C 0.90853 0.75895 0.10430
 C1275 C 0.90344 0.74815 0.08790
 C1276 C 0.91636 0.74641 0.07235
 C1277 C 0.93485 0.75548 0.07277
 C1278 C 0.93969 0.76641 0.08955
 C1279 C 0.89494 0.76063 0.12015
 C1280 C 0.88314 0.76170 0.13307
 C1281 C 0.86893 0.76263 0.14785
 C1282 C 0.85653 0.76318 0.16024
 C1283 C 0.84149 0.76363 0.17480
 C1284 C 0.82191 0.76381 0.16919
 C1285 C 0.80723 0.76396 0.18325
 C1286 C 0.81195 0.76392 0.20319
 C1287 C 0.83171 0.76378 0.20867
 C1288 C 0.84635 0.76363 0.19457
 H1289 H 0.93082 0.77639 0.11783
 H1290 H 0.88933 0.74119 0.08702
 H1291 H 0.91124 0.73859 0.05971
 H1292 H 0.95379 0.77318 0.09118
 H1293 H 0.81797 0.76379 0.15392
 H1294 H 0.79221 0.76409 0.17849
 H1295 H 0.83590 0.76377 0.22386
 H1296 H 0.86147 0.76346 0.19908
 C1297 C 0.41277 0.27658 0.59489
 C1298 C 0.40793 0.25987 0.60548
 C1299 C 0.41642 0.24200 0.60064
 C1300 C 0.42942 0.24076 0.58507
 C1301 C 0.43410 0.25739 0.57409
 C1302 C 0.42580 0.27537 0.57931
 C1303 C 0.39378 0.26086 0.62087
 C1304 C 0.38170 0.26144 0.63357
 C1305 C 0.36736 0.26188 0.64825
 C1306 C 0.35499 0.26210 0.66067
 C1307 C 0.34011 0.26226 0.67540
 C1308 C 0.32046 0.26216 0.67005
 C1309 C 0.30598 0.26223 0.68432
 C1310 C 0.31096 0.26240 0.70420
 C1311 C 0.33079 0.26249 0.70941
 C1312 C 0.34524 0.26241 0.69510
 H1313 H 0.40624 0.29048 0.59846
 H1314 H 0.41281 0.22898 0.60876
 H1315 H 0.43577 0.22677 0.58158
 H1316 H 0.42893 0.28839 0.57100
 H1317 H 0.31632 0.26202 0.65484
 H1318 H 0.29089 0.26218 0.67976
 H1319 H 0.33519 0.26264 0.72454
 H1320 H 0.36041 0.26248 0.69941
 C1321 C 0.91892 0.24061 0.91004
 C1322 C 0.90183 0.25117 0.91295
 C1323 C 0.89856 0.26026 0.93083
 C1324 C 0.91240 0.25889 0.94573
 C1325 C 0.92988 0.24829 0.94308
 C1326 C 0.93277 0.23916 0.92484
 C1327 C 0.88776 0.25257 0.89748
 C1328 C 0.87620 0.25340 0.88429
 C1329 C 0.86276 0.25402 0.86875
 C1330 C 0.85116 0.25429 0.85558
 C1331 C 0.83698 0.25432 0.84015
 C1332 C 0.81717 0.25476 0.84472
 C1333 C 0.80324 0.25425 0.82994
 C1334 C 0.80889 0.25327 0.81027
 C1335 C 0.82888 0.25299 0.80579
 C1336 C 0.84282 0.25350 0.82066
 H1337 H 0.92169 0.23364 0.89618
 H1338 H 0.88525 0.26836 0.93329
 H1339 H 0.90891 0.26568 0.95947
 H1340 H 0.94610 0.23157 0.92138
 H1341 H 0.81248 0.25537 0.85975
 H1342 H 0.78802 0.25450 0.83398
 H1343 H 0.83375 0.25222 0.79084
 H1344 H 0.85814 0.25311 0.81696
 C1345 C 0.42070 0.74748 0.41005
 C1346 C 0.40177 0.75332 0.41466
 C1347 C 0.39696 0.75772 0.43396
 C1348 C 0.41106 0.75621 0.44861
 C1349 C 0.43010 0.75020 0.44409
 C1350 C 0.43477 0.74595 0.42462
 C1351 C 0.38737 0.75452 0.39950
 C1352 C 0.37561 0.75520 0.38650
 C1353 C 0.36203 0.75565 0.37110
 C1354 C 0.35039 0.75576 0.35797
 C1355 C 0.33628 0.75560 0.34250
 C1356 C 0.31645 0.75600 0.34695
 C1357 C 0.30261 0.75527 0.33208
 C1358 C 0.30841 0.75411 0.31247
 C1359 C 0.32843 0.75388 0.30812
 C1360 C 0.34226 0.75460 0.32306
 H1361 H 0.42460 0.74411 0.39516
 H1362 H 0.38232 0.76222 0.43769
 H1363 H 0.40703 0.75948 0.46347
 H1364 H 0.44939 0.74166 0.42061
 H1365 H 0.31166 0.75674 0.36194
 H1366 H 0.28736 0.75549 0.33601
 H1367 H 0.33340 0.75297 0.29321
 H1368 H 0.35760 0.75424 0.31947
 C1369 C 0.08438 0.10041 0.23932
 C1370 C 0.10305 0.09480 0.24520
 C1371 C 0.10641 0.07571 0.25150
 C1372 C 0.09113 0.06225 0.25186
 C1373 C 0.07233 0.06775 0.24585
 C1374 C 0.06913 0.08702 0.23964
 C1375 C 0.11867 0.10874 0.24465
 C1376 C 0.13146 0.12070 0.24398
 C1377 C 0.14618 0.13497 0.24301
 C1378 C 0.15862 0.14729 0.24206
 C1379 C 0.17340 0.16206 0.24084
 C1380 C 0.19303 0.15678 0.23980
 C1381 C 0.20739 0.17111 0.23855
 C1382 C 0.20231 0.19097 0.23833
 C1383 C 0.18250 0.19612 0.23936
 C1384 C 0.16816 0.18175 0.24061
 H1385 H 0.08160 0.11517 0.23449
 H1386 H 0.12083 0.07120 0.25607
 H1387 H 0.09408 0.04750 0.25656
 H1388 H 0.05476 0.09181 0.23526
 H1389 H 0.19724 0.14159 0.23994
 H1390 H 0.22247 0.16659 0.23777
 H1391 H 0.17804 0.21124 0.23922
 H1392 H 0.15300 0.18600 0.24139
 C1393 C 0.58442 0.60007 0.73853
 C1394 C 0.60317 0.59414 0.74385
 C1395 C 0.60645 0.57489 0.74968
 C1396 C 0.59103 0.56160 0.75015
 C1397 C 0.57214 0.56743 0.74472
 C1398 C 0.56903 0.58685 0.73897
 C1399 C 0.61892 0.60793 0.74325
 C1400 C 0.63182 0.61979 0.74258
 C1401 C 0.64665 0.63395 0.74165
 C1402 C 0.65916 0.64621 0.74079
 C1403 C 0.67398 0.66096 0.73972
 C1404 C 0.69362 0.65566 0.73873
 C1405 C 0.70802 0.66998 0.73774
 C1406 C 0.70297 0.68985 0.73773
 C1407 C 0.68316 0.69502 0.73868
 C1408 C 0.66879 0.68066 0.73966
 H1409 H 0.58169 0.61496 0.73408
 H1410 H 0.62091 0.57013 0.75381
 H1411 H 0.59391 0.54672 0.75448
 H1412 H 0.55461 0.59189 0.73503
 H1413 H 0.69780 0.64046 0.73875
 H1414 H 0.72310 0.66544 0.73702
 H1415 H 0.67873 0.71014 0.73869
 H1416 H 0.65362 0.68493 0.74041
 C1417 C 0.93241 0.10261 0.74030
 C1418 C 0.91452 0.09969 0.74948
 C1419 C 0.91127 0.08261 0.75993
 C1420 C 0.92576 0.06841 0.76119
 C1421 C 0.94401 0.07093 0.75197
 C1422 C 0.94700 0.08842 0.74148
 C1423 C 0.89931 0.11407 0.74819
 C1424 C 0.88628 0.12580 0.74744
 C1425 C 0.87082 0.13933 0.74688
 C1426 C 0.85760 0.15087 0.74664
 C1427 C 0.84193 0.16480 0.74662
 C1428 C 0.84609 0.18468 0.74584
 C1429 C 0.83101 0.19831 0.74628
 C1430 C 0.81147 0.19225 0.74751
 C1431 C 0.80743 0.17218 0.74817
 C1432 C 0.82258 0.15856 0.74773
 H1433 H 0.93513 0.11590 0.73227
 H1434 H 0.89739 0.08011 0.76696
 H1435 H 0.92204 0.05511 0.76870
 H1436 H 0.96078 0.09164 0.73464
 H1437 H 0.86102 0.18967 0.74501
 H1438 H 0.83470 0.21362 0.74575
 H1439 H 0.79259 0.16700 0.74914
 H1440 H 0.81920 0.14318 0.74838
 C1441 C 0.41063 0.58096 0.24490
 C1442 C 0.41476 0.59946 0.25222
 C1443 C 0.43358 0.60381 0.25872
 C1444 C 0.44825 0.58967 0.25784
 C1445 C 0.44423 0.57106 0.25035
 C1446 C 0.42522 0.56686 0.24399
 C1447 C 0.39958 0.61389 0.25284
 C1448 C 0.38656 0.62565 0.25304
 C1449 C 0.37112 0.63919 0.25298
 C1450 C 0.35790 0.65073 0.25276
 C1451 C 0.34224 0.66465 0.25236
 C1452 C 0.34641 0.68452 0.25127
 C1453 C 0.33131 0.69813 0.25090
 C1454 C 0.31175 0.69206 0.25160
 C1455 C 0.30770 0.67201 0.25263
 C1456 C 0.32287 0.65841 0.25300
 H1457 H 0.39610 0.57741 0.23990
 H1458 H 0.43693 0.61812 0.26440
 H1459 H 0.46276 0.59336 0.26274
 H1460 H 0.42156 0.55255 0.23851
 H1461 H 0.36135 0.68950 0.25075
 H1462 H 0.33501 0.71342 0.25013
 H1463 H 0.29284 0.66683 0.25323
 H1464 H 0.31949 0.64304 0.25383
 C1465 C 0.07791 0.91078 0.72781
 C1466 C 0.08592 0.90279 0.74471
 C1467 C 0.08172 0.91113 0.76272
 C1468 C 0.06983 0.92758 0.76387
 C1469 C 0.06183 0.93620 0.74694
 C1470 C 0.06595 0.92723 0.72886
 C1471 C 0.09894 0.88641 0.74365
 C1472 C 0.11017 0.87293 0.74313
 C1473 C 0.12366 0.85742 0.74292
 C1474 C 0.13544 0.84441 0.74302
 C1475 C 0.14980 0.82915 0.74343
 C1476 C 0.16959 0.83388 0.74388
 C1477 C 0.18363 0.81917 0.74474
 C1478 C 0.17806 0.79946 0.74517
 C1479 C 0.15809 0.79487 0.74460
 C1480 C 0.14408 0.80963 0.74375
 H1481 H 0.08119 0.90450 0.71374
 H1482 H 0.08770 0.90494 0.77594
 H1483 H 0.06656 0.93304 0.77824
 H1484 H 0.06086 0.93333 0.71528
 H1485 H 0.17418 0.84895 0.74368
 H1486 H 0.19883 0.82327 0.74516
 H1487 H 0.15327 0.77988 0.74493
 H1488 H 0.12879 0.80581 0.74345
 C1489 C 0.59568 0.42086 0.24988
 C1490 C 0.58756 0.40255 0.25338
 C1491 C 0.56756 0.40086 0.25689
 C1492 C 0.55571 0.41745 0.25674
 C1493 C 0.56375 0.43589 0.25299
 C1494 C 0.58389 0.43742 0.24969
 C1495 C 0.59987 0.38560 0.25314
 C1496 C 0.61067 0.37179 0.25272
 C1497 C 0.62383 0.35603 0.25206
 C1498 C 0.63547 0.34292 0.25143
 C1499 C 0.64980 0.32765 0.25068
 C1500 C 0.66958 0.33238 0.25030
 C1501 C 0.68362 0.31767 0.24980
 C1502 C 0.67806 0.29796 0.24968
 C1503 C 0.65810 0.29336 0.24994
 C1504 C 0.64407 0.30812 0.25044
 H1505 H 0.61115 0.42235 0.24722
 H1506 H 0.56113 0.38674 0.25960
 H1507 H 0.54023 0.41581 0.25916
 H1508 H 0.59055 0.45144 0.24708
 H1509 H 0.67417 0.34745 0.25047
 H1510 H 0.69883 0.32177 0.24963
 H1511 H 0.65328 0.27837 0.24990
 H1512 H 0.62878 0.30431 0.25073
 C1513 C 0.92506 0.91527 0.25429
 C1514 C 0.90824 0.92093 0.26411
 C1515 C 0.90678 0.93975 0.27163
 C1516 C 0.92211 0.95293 0.26928
 C1517 C 0.93925 0.94754 0.25921
 C1518 C 0.94037 0.92833 0.25186
 C1519 C 0.89254 0.90727 0.26620
 C1520 C 0.87976 0.89536 0.26743
 C1521 C 0.86515 0.88101 0.26832
 C1522 C 0.85288 0.86852 0.26864
 C1523 C 0.83838 0.85346 0.26856
 C1524 C 0.81863 0.85834 0.26799
 C1525 C 0.80455 0.84373 0.26713
 C1526 C 0.81004 0.82398 0.26679
 C1527 C 0.82997 0.81923 0.26756
 C1528 C 0.84402 0.83389 0.26842
 H1529 H 0.92641 0.90064 0.24857
 H1530 H 0.89371 0.94432 0.27917
 H1531 H 0.92001 0.96752 0.27474
 H1532 H 0.95334 0.92286 0.24485
 H1533 H 0.81411 0.87346 0.26803
 H1534 H 0.78936 0.84794 0.26657
 H1535 H 0.83473 0.80421 0.26731
 H1536 H 0.85929 0.82996 0.26879
 C1537 C 0.41003 0.43062 0.74541
 C1538 C 0.40578 0.42292 0.76375
 C1539 C 0.41642 0.42898 0.78002
 C1540 C 0.43156 0.44240 0.77788
 C1541 C 0.43626 0.44984 0.75940
 C1542 C 0.42515 0.44400 0.74323
 C1543 C 0.39103 0.40820 0.76563
 C1544 C 0.37887 0.39564 0.76676
 C1545 C 0.36477 0.38078 0.76762
 C1546 C 0.35275 0.36804 0.76799
 C1547 C 0.33834 0.35289 0.76805
 C1548 C 0.34403 0.33333 0.76791
 C1549 C 0.32999 0.31862 0.76735
 C1550 C 0.31005 0.32332 0.76689
 C1551 C 0.30451 0.34306 0.76719
 C1552 C 0.31857 0.35771 0.76776
 H1553 H 0.40185 0.42606 0.73273
 H1554 H 0.41329 0.42305 0.79428
 H1555 H 0.43999 0.44646 0.79055
 H1556 H 0.42827 0.44967 0.72887
 H1557 H 0.35931 0.32944 0.76808
 H1558 H 0.33478 0.30361 0.76712
 H1559 H 0.28932 0.34724 0.76686
 H1560 H 0.31401 0.37281 0.76781
 C1561 C 0.07446 0.26039 0.91575
 C1562 C 0.09193 0.25110 0.92034
 C1563 C 0.09394 0.24155 0.93818
 C1564 C 0.07848 0.24128 0.95142
 C1565 C 0.06064 0.25067 0.94709
 C1566 C 0.05901 0.26021 0.92889
 C1567 C 0.10766 0.25143 0.90656
 C1568 C 0.12047 0.25204 0.89464
 C1569 C 0.13515 0.25308 0.88036
 C1570 C 0.14751 0.25416 0.86799
 C1571 C 0.16215 0.25564 0.85314
 C1572 C 0.18185 0.25603 0.85826
 C1573 C 0.19609 0.25759 0.84387
 C1574 C 0.19082 0.25880 0.82409
 C1575 C 0.17094 0.25838 0.81910
 C1576 C 0.15673 0.25682 0.83355
 H1577 H 0.07268 0.26767 0.90187
 H1578 H 0.10749 0.23440 0.94192
 H1579 H 0.08099 0.23427 0.96528
 H1580 H 0.04557 0.26690 0.92417
 H1581 H 0.18620 0.25513 0.87339
 H1582 H 0.21123 0.25780 0.84825
 H1583 H 0.16636 0.25922 0.80405
 H1584 H 0.14151 0.25654 0.82943
 C1585 C 0.57264 0.75353 0.41214
 C1586 C 0.59166 0.74916 0.41793
 C1587 C 0.59555 0.74451 0.43739
 C1588 C 0.58045 0.74438 0.45105
 C1589 C 0.56132 0.74899 0.44537
 C1590 C 0.55757 0.75344 0.42573
 C1591 C 0.60709 0.74980 0.40384
 C1592 C 0.61971 0.75064 0.39172
 C1593 C 0.63424 0.75191 0.37730
 C1594 C 0.64656 0.75317 0.36491
 C1595 C 0.66128 0.75484 0.35015
 C1596 C 0.68093 0.75512 0.35543
 C1597 C 0.69529 0.75687 0.34118
 C1598 C 0.69018 0.75838 0.32138
 C1599 C 0.67035 0.75807 0.31622
 C1600 C 0.65601 0.75632 0.33054
 H1601 H 0.56945 0.75709 0.39711
 H1602 H 0.61025 0.74114 0.44203
 H1603 H 0.58379 0.74104 0.46608
 H1604 H 0.54294 0.75670 0.42084
 H1605 H 0.68517 0.75399 0.37058
 H1606 H 0.71039 0.75699 0.34570
 H1607 H 0.66590 0.75915 0.30115
 H1608 H 0.64082 0.75613 0.32630
 C1609 C 0.93119 0.73654 0.90266
 C1610 C 0.91339 0.74637 0.90243
 C1611 C 0.90738 0.75668 0.91883
 C1612 C 0.91910 0.75727 0.93542
 C1613 C 0.93725 0.74751 0.93604
 C1614 C 0.94300 0.73705 0.91926
 C1615 C 0.90107 0.74590 0.88550
 C1616 C 0.89027 0.74581 0.87167
 C1617 C 0.87712 0.74599 0.85589
 C1618 C 0.86548 0.74632 0.84277
 C1619 C 0.85111 0.74684 0.82754
 C1620 C 0.83134 0.74709 0.83234
 C1621 C 0.81724 0.74768 0.81770
 C1622 C 0.82272 0.74802 0.79798
 C1623 C 0.84267 0.74782 0.79329
 C1624 C 0.85676 0.74723 0.80800
 H1625 H 0.93603 0.72858 0.88996
 H1626 H 0.89349 0.76417 0.91889
 H1627 H 0.91332 0.76480 0.94794
 H1628 H 0.95694 0.72980 0.91844
 H1629 H 0.82680 0.74683 0.84743
 H1630 H 0.80205 0.74784 0.82187
 H1631 H 0.84742 0.74810 0.77828
 H1632 H 0.87203 0.74708 0.80413
 C1633 C 0.42342 0.26484 0.40562
 C1634 C 0.41478 0.24745 0.39957
 C1635 C 0.41794 0.23034 0.41020
 C1636 C 0.42947 0.23069 0.42699
 C1637 C 0.43792 0.24819 0.43339
 C1638 C 0.43492 0.26522 0.42240
 C1639 C 0.40202 0.24738 0.38293
 C1640 C 0.39099 0.24756 0.36928
 C1641 C 0.37767 0.24799 0.35363
 C1642 C 0.36593 0.24846 0.34060
 C1643 C 0.35144 0.24909 0.32545
 C1644 C 0.33172 0.24979 0.33040
 C1645 C 0.31751 0.25031 0.31587
 C1646 C 0.32281 0.25015 0.29609
 C1647 C 0.34272 0.24954 0.29124
 C1648 C 0.35692 0.24901 0.30585
 H1649 H 0.42108 0.27816 0.39750
 H1650 H 0.41124 0.21682 0.40570
 H1651 H 0.43133 0.21739 0.43525
 H1652 H 0.44146 0.27885 0.42679
 H1653 H 0.32731 0.24989 0.34553
 H1654 H 0.30236 0.25081 0.32017
 H1655 H 0.34733 0.24941 0.27619
 H1656 H 0.37216 0.24850 0.30185
 C1657 C 0.06796 0.74351 0.10282
 C1658 C 0.08713 0.74827 0.09784
 C1659 C 0.09155 0.75375 0.07877
 C1660 C 0.07689 0.75457 0.06473
 C1661 C 0.05754 0.74997 0.06956
 C1662 C 0.05323 0.74431 0.08874
 C1663 C 0.10236 0.74776 0.11221
 C1664 C 0.11538 0.74759 0.12397
 C1665 C 0.13074 0.74761 0.13759
 C1666 C 0.14381 0.74778 0.14929
 C1667 C 0.15918 0.74809 0.16352
 C1668 C 0.17869 0.74863 0.15771
 C1669 C 0.19354 0.74901 0.17167
 C1670 C 0.18901 0.74884 0.19163
 C1671 C 0.16931 0.74832 0.19726
 C1672 C 0.15455 0.74795 0.18330
 H1673 H 0.06439 0.73928 0.11757
 H1674 H 0.10634 0.75738 0.07474
 H1675 H 0.08075 0.75861 0.05000
 H1676 H 0.03845 0.74079 0.09291
 H1677 H 0.18243 0.74878 0.14241
 H1678 H 0.20852 0.74944 0.16682
 H1679 H 0.16524 0.74821 0.21247
 H1680 H 0.13949 0.74756 0.18796
 C1681 C 0.56607 0.24561 0.60294
 C1682 C 0.58522 0.25042 0.59787
 C1683 C 0.58951 0.25594 0.57878
 C1684 C 0.57478 0.25674 0.56482
 C1685 C 0.55546 0.25208 0.56973
 C1686 C 0.55127 0.24639 0.58894
 C1687 C 0.60055 0.24985 0.61214
 C1688 C 0.61367 0.24960 0.62379
 C1689 C 0.62918 0.24952 0.63727
 C1690 C 0.64238 0.24956 0.64883
 C1691 C 0.65792 0.24969 0.66288
 C1692 C 0.65353 0.24935 0.68272
 C1693 C 0.66846 0.24952 0.69650
 C1694 C 0.68810 0.25003 0.69065
 C1695 C 0.69238 0.25042 0.67063
 C1696 C 0.67737 0.25025 0.65685
 H1697 H 0.56259 0.24134 0.61770
 H1698 H 0.60428 0.25960 0.57468
 H1699 H 0.57856 0.26079 0.55008
 H1700 H 0.53653 0.24282 0.59317
 H1701 H 0.63853 0.24895 0.68756
 H1702 H 0.66457 0.24924 0.71176
 H1703 H 0.70731 0.25085 0.66561
 H1704 H 0.68092 0.25055 0.64151
 C1705 C 0.91358 0.24238 0.09929
 C1706 C 0.89535 0.23615 0.09275
 C1707 C 0.89263 0.23172 0.07305
 C1708 C 0.90809 0.23364 0.05993
 C1709 C 0.92642 0.24009 0.06638
 C1710 C 0.92900 0.24433 0.08623
 C1711 C 0.87950 0.23462 0.10634
 C1712 C 0.86656 0.23369 0.11813
 C1713 C 0.85174 0.23296 0.13232
 C1714 C 0.83931 0.23262 0.14468
 C1715 C 0.82468 0.23253 0.15966
 C1716 C 0.80493 0.23260 0.15470
 C1717 C 0.79075 0.23304 0.16926
 C1718 C 0.79614 0.23347 0.18904
 C1719 C 0.81606 0.23324 0.19385
 C1720 C 0.83021 0.23279 0.17925
 H1721 H 0.91588 0.24579 0.11451
 H1722 H 0.87856 0.22692 0.06782
 H1723 H 0.90562 0.23041 0.04471
 H1724 H 0.94301 0.24899 0.09172
 H1725 H 0.80048 0.23243 0.13958
 H1726 H 0.77557 0.23316 0.16501
 H1727 H 0.82076 0.23350 0.20888
 H1728 H 0.84546 0.23276 0.18325
 C1729 C 0.41559 0.74275 0.60007
 C1730 C 0.39732 0.73666 0.59348
 C1731 C 0.39459 0.73234 0.57377
 C1732 C 0.41007 0.73420 0.56067
 C1733 C 0.42844 0.74050 0.56715
 C1734 C 0.43104 0.74465 0.58703
 C1735 C 0.38144 0.73518 0.60704
 C1736 C 0.36842 0.73427 0.61875
 C1737 C 0.35347 0.73355 0.63279
 C1738 C 0.34089 0.73322 0.64499
 C1739 C 0.32603 0.73315 0.65975
 C1740 C 0.30636 0.73302 0.65449
 C1741 C 0.29195 0.73352 0.66882
 C1742 C 0.29703 0.73420 0.68867
 C1743 C 0.31688 0.73415 0.69379
 C1744 C 0.33125 0.73364 0.67942
 H1745 H 0.41789 0.74608 0.61530
 H1746 H 0.38049 0.72765 0.56850
 H1747 H 0.40759 0.73106 0.54544
 H1748 H 0.44508 0.74920 0.59254
 H1749 H 0.30216 0.73266 0.63930
 H1750 H 0.27684 0.73350 0.66433
 H1751 H 0.32134 0.73462 0.70890
 H1752 H 0.34644 0.73377 0.68366
 C1753 C 0.22839 0.08937 0.92042
 C1754 C 0.24579 0.09887 0.91581
 C1755 C 0.26342 0.09189 0.92326
 C1756 C 0.26372 0.07529 0.93501
 C1757 C 0.24635 0.06542 0.93945
 C1758 C 0.22865 0.07277 0.93220
 C1759 C 0.24571 0.11530 0.90282
 C1760 C 0.24591 0.12879 0.89161
 C1761 C 0.24638 0.14428 0.87813
 C1762 C 0.24693 0.15724 0.86633
 C1763 C 0.24772 0.17241 0.85191
 C1764 C 0.24790 0.19198 0.85751
 C1765 C 0.24874 0.20664 0.84342
 C1766 C 0.24942 0.20191 0.82350
 C1767 C 0.24923 0.18216 0.81806
 C1768 C 0.24840 0.16755 0.83217
 H1769 H 0.21466 0.09461 0.91466
 H1770 H 0.27697 0.09914 0.91980
 H1771 H 0.27754 0.07015 0.94060
 H1772 H 0.21508 0.06537 0.93519
 H1773 H 0.24739 0.19590 0.87276
 H1774 H 0.24879 0.22167 0.84814
 H1775 H 0.24969 0.17796 0.80289
 H1776 H 0.24827 0.15244 0.82768
 C1777 C 0.72881 0.58871 0.41756
 C1778 C 0.74617 0.59804 0.41246
 C1779 C 0.76390 0.59106 0.41967
 C1780 C 0.76434 0.57467 0.43170
 C1781 C 0.74701 0.56499 0.43666
 C1782 C 0.72921 0.57231 0.42961
 C1783 C 0.74592 0.61435 0.39931
 C1784 C 0.74597 0.62780 0.38804
 C1785 C 0.74627 0.64330 0.37457
 C1786 C 0.74670 0.65634 0.36284
 C1787 C 0.74736 0.67169 0.34860
 C1788 C 0.74738 0.69118 0.35446
 C1789 C 0.74817 0.70604 0.34058
 C1790 C 0.74896 0.70159 0.32060
 C1791 C 0.74890 0.68192 0.31488
 C1792 C 0.74812 0.66711 0.32879
 H1793 H 0.71500 0.59394 0.41199
 H1794 H 0.77742 0.59818 0.41584
 H1795 H 0.77823 0.56955 0.43712
 H1796 H 0.71565 0.56505 0.43300
 H1797 H 0.74681 0.69488 0.36977
 H1798 H 0.74813 0.72100 0.34551
 H1799 H 0.74945 0.67794 0.29966
 H1800 H 0.74811 0.65206 0.32409
 C1801 C 0.73291 0.05971 0.09475
 C1802 C 0.73569 0.07965 0.09159
 C1803 C 0.73999 0.08646 0.07292
 C1804 C 0.74179 0.07341 0.05749
 C1805 C 0.73933 0.05332 0.06052
 C1806 C 0.73467 0.04660 0.07927
 C1807 C 0.73464 0.09324 0.10745
 C1808 C 0.73415 0.10508 0.12035
 C1809 C 0.73395 0.11934 0.13507
 C1810 C 0.73403 0.13176 0.14742
 C1811 C 0.73433 0.14676 0.16199
 C1812 C 0.73457 0.16635 0.15644
 C1813 C 0.73510 0.18096 0.17056
 C1814 C 0.73539 0.17614 0.19047
 C1815 C 0.73516 0.15637 0.19588
 C1816 C 0.73464 0.14180 0.18172
 H1817 H 0.72961 0.05429 0.10917
 H1818 H 0.74211 0.10186 0.07031
 H1819 H 0.74505 0.07906 0.04315
 H1820 H 0.73283 0.03120 0.08204
 H1821 H 0.73439 0.17034 0.14119
 H1822 H 0.73530 0.19600 0.16587
 H1823 H 0.73541 0.15211 0.21104
 H1824 H 0.73451 0.12667 0.18617
 C1825 C 0.23456 0.55883 0.59589
 C1826 C 0.23781 0.57868 0.59261
 C1827 C 0.24266 0.58521 0.57398
 C1828 C 0.24449 0.57199 0.55871
 C1829 C 0.24154 0.55198 0.56185
 C1830 C 0.23637 0.54553 0.58057
 C1831 C 0.23662 0.59247 0.60829
 C1832 C 0.23600 0.60450 0.62101
 C1833 C 0.23563 0.61900 0.63551
 C1834 C 0.23555 0.63162 0.64766
 C1835 C 0.23565 0.64686 0.66198
 C1836 C 0.23600 0.66636 0.65612
 C1837 C 0.23630 0.68120 0.67001
 C1838 C 0.23626 0.67671 0.69000
 C1839 C 0.23593 0.65702 0.69571
 C1840 C 0.23562 0.64222 0.68179
 H1841 H 0.23084 0.55362 0.61028
 H1842 H 0.24513 0.60054 0.57127
 H1843 H 0.24814 0.57744 0.54439
 H1844 H 0.23413 0.53020 0.58343
 H1845 H 0.23607 0.67010 0.64081
 H1846 H 0.23659 0.69616 0.66508
 H1847 H 0.23591 0.65301 0.71095
 H1848 H 0.23540 0.62717 0.68648
 C1849 C 0.75026 0.92316 0.89407
 C1850 C 0.75694 0.90425 0.89780
 C1851 C 0.76278 0.89910 0.91661
 C1852 C 0.76202 0.91274 0.93162
 C1853 C 0.75541 0.93181 0.92805
 C1854 C 0.74947 0.93686 0.90911
 C1855 C 0.75784 0.89006 0.88244
 C1856 C 0.75874 0.87794 0.86981
 C1857 C 0.75987 0.86357 0.85520
 C1858 C 0.76084 0.85125 0.84276
 C1859 C 0.76194 0.83658 0.82786
 C1860 C 0.76288 0.84207 0.80830
 C1861 C 0.76363 0.82789 0.79376
 C1862 C 0.76344 0.80797 0.79859
 C1863 C 0.76266 0.80261 0.81834
 C1864 C 0.76190 0.81684 0.83286
 H1865 H 0.74572 0.92731 0.87955
 H1866 H 0.76789 0.88449 0.91968
 H1867 H 0.76637 0.90829 0.94610
 H1868 H 0.74447 0.95146 0.90587
 H1869 H 0.76294 0.85731 0.80426
 H1870 H 0.76427 0.83258 0.77873
 H1871 H 0.76251 0.78744 0.82260
 H1872 H 0.76119 0.81243 0.84798
 C1873 C 0.26311 0.39976 0.41511
 C1874 C 0.25753 0.40559 0.39642
 C1875 C 0.25112 0.42469 0.39325
 C1876 C 0.25034 0.43791 0.40872
 C1877 C 0.25603 0.43217 0.42754
 C1878 C 0.26236 0.41291 0.43055
 C1879 C 0.25841 0.39187 0.38063
 C1880 C 0.25929 0.38005 0.36771
 C1881 C 0.26038 0.36592 0.35285
 C1882 C 0.26132 0.35369 0.34032
 C1883 C 0.26235 0.33895 0.32548
 C1884 C 0.26270 0.31925 0.33066
 C1885 C 0.26336 0.30490 0.31627
 C1886 C 0.26365 0.31006 0.29645
 C1887 C 0.26347 0.32994 0.29142
 C1888 C 0.26282 0.34425 0.30584
 H1889 H 0.26801 0.38499 0.41776
 H1890 H 0.24678 0.42937 0.37883
 H1891 H 0.24556 0.45266 0.40592
 H1892 H 0.26651 0.40794 0.44492
 H1893 H 0.26237 0.31498 0.34583
 H1894 H 0.26351 0.28977 0.32069
 H1895 H 0.26370 0.33447 0.27633
 H1896 H 0.26257 0.35945 0.30166
 C1897 C 0.25241 0.91967 0.09098
 C1898 C 0.24528 0.90109 0.08682
 C1899 C 0.23926 0.89656 0.06788
 C1900 C 0.24045 0.91059 0.05313
 C1901 C 0.24777 0.92926 0.05718
 C1902 C 0.25363 0.93365 0.07630
 C1903 C 0.24444 0.88675 0.10206
 C1904 C 0.24411 0.87503 0.11510
 C1905 C 0.24408 0.86149 0.13055
 C1906 C 0.24431 0.84992 0.14373
 C1907 C 0.24485 0.83592 0.15930
 C1908 C 0.24533 0.81605 0.15498
 C1909 C 0.24620 0.80235 0.16996
 C1910 C 0.24662 0.80831 0.18956
 C1911 C 0.24605 0.82835 0.19377
 C1912 C 0.24519 0.84205 0.17871
 H1913 H 0.25704 0.92335 0.10559
 H1914 H 0.23375 0.88220 0.06450
 H1915 H 0.23594 0.90676 0.03854
 H1916 H 0.25896 0.94800 0.07998
 H1917 H 0.24509 0.81115 0.14001
 H1918 H 0.24655 0.78707 0.16614
 H1919 H 0.24630 0.83345 0.20866
 H1920 H 0.24484 0.85741 0.18221
 C1921 C 0.75232 0.42144 0.59065
 C1922 C 0.74514 0.40286 0.58659
 C1923 C 0.73921 0.39822 0.56765
 C1924 C 0.74054 0.41212 0.55281
 C1925 C 0.74791 0.43079 0.55676
 C1926 C 0.75368 0.43531 0.57588
 C1927 C 0.74420 0.38860 0.60190
 C1928 C 0.74377 0.37690 0.61497
 C1929 C 0.74364 0.36332 0.63037
 C1930 C 0.74379 0.35165 0.64347
 C1931 C 0.74424 0.33746 0.65888
 C1932 C 0.74435 0.31765 0.65431
 C1933 C 0.74519 0.30375 0.66911
 C1934 C 0.74595 0.30945 0.68878
 C1935 C 0.74572 0.32944 0.69324
 C1936 C 0.74489 0.34335 0.67837
 H1937 H 0.75689 0.42521 0.60525
 H1938 H 0.73367 0.38385 0.56434
 H1939 H 0.73610 0.40820 0.53822
 H1940 H 0.75905 0.44966 0.57947
 H1941 H 0.74387 0.31293 0.63929
 H1942 H 0.74527 0.28852 0.66509
 H1943 H 0.74624 0.33435 0.70819
 H1944 H 0.74483 0.35867 0.68206
 C1945 C 0.08743 0.09417 0.77776
 C1946 C 0.09268 0.10491 0.76128
 C1947 C 0.08405 0.10073 0.74332
 C1948 C 0.07050 0.08567 0.74175
 C1949 C 0.06539 0.07454 0.75816
 C1950 C 0.07385 0.07910 0.77624
 C1951 C 0.10735 0.11979 0.76259
 C1952 C 0.11979 0.13212 0.76342
 C1953 C 0.13446 0.14647 0.76411
 C1954 C 0.14700 0.15872 0.76450
 C1955 C 0.16191 0.17343 0.76475
 C1956 C 0.15674 0.19312 0.76496
 C1957 C 0.17114 0.20745 0.76488
 C1958 C 0.19099 0.20230 0.76456
 C1959 C 0.19604 0.18243 0.76445
 C1960 C 0.18158 0.16812 0.76453
 H1961 H 0.09406 0.09724 0.79173
 H1962 H 0.08797 0.10897 0.73047
 H1963 H 0.06406 0.08267 0.72769
 H1964 H 0.07041 0.07065 0.78907
 H1965 H 0.14156 0.19740 0.76512
 H1966 H 0.16669 0.22257 0.76502
 H1967 H 0.21114 0.17793 0.76425
 H1968 H 0.18575 0.15291 0.76435
 C1969 C 0.57573 0.60711 0.24783
 C1970 C 0.59494 0.60370 0.25379
 C1971 C 0.60066 0.58496 0.25932
 C1972 C 0.58728 0.56970 0.25900
 C1973 C 0.56791 0.57295 0.25316
 C1974 C 0.56229 0.59182 0.24748
 C1975 C 0.60886 0.61932 0.25436
 C1976 C 0.62084 0.63210 0.25504
 C1977 C 0.63513 0.64681 0.25600
 C1978 C 0.64746 0.65923 0.25690
 C1979 C 0.66226 0.67400 0.25800
 C1980 C 0.68195 0.66875 0.25831
 C1981 C 0.69634 0.68309 0.25928
 C1982 C 0.69121 0.70292 0.25996
 C1983 C 0.67134 0.70802 0.25973
 C1984 C 0.65700 0.69365 0.25876
 H1985 H 0.57114 0.62157 0.24354
 H1986 H 0.61550 0.58213 0.26388
 H1987 H 0.59216 0.55528 0.26312
 H1988 H 0.54745 0.59480 0.24306
 H1989 H 0.68618 0.65357 0.25775
 H1990 H 0.71145 0.67862 0.25945
 H1991 H 0.66684 0.72311 0.26027
 H1992 H 0.64181 0.69788 0.25856
 C1993 C 0.09884 0.92927 0.23686
 C1994 C 0.09632 0.91250 0.24808
 C1995 C 0.08038 0.91106 0.26052
 C1996 C 0.06691 0.92622 0.26173
 C1997 C 0.06904 0.94336 0.25046
 C1998 C 0.08537 0.94453 0.23798
 C1999 C 0.11002 0.89668 0.24698
 C2000 C 0.12134 0.88329 0.24645
 C2001 C 0.13462 0.86761 0.24622
 C2002 C 0.14620 0.85441 0.24629
 C2003 C 0.16050 0.83910 0.24666
 C2004 C 0.18024 0.84388 0.24621
 C2005 C 0.19433 0.82927 0.24699
 C2006 C 0.18890 0.80955 0.24827
 C2007 C 0.16897 0.80484 0.24859
 C2008 C 0.15486 0.81956 0.24781
 H2009 H 0.11128 0.93061 0.22729
 H2010 H 0.07819 0.89806 0.26917
 H2011 H 0.05439 0.92385 0.27091
 H2012 H 0.08830 0.95742 0.22946
 H2013 H 0.18477 0.85895 0.24533
 H2014 H 0.20950 0.83348 0.24663
 H2015 H 0.16427 0.78984 0.24952
 H2016 H 0.13958 0.81570 0.24819
 C2017 C 0.58661 0.41901 0.72911
 C2018 C 0.59739 0.41400 0.74566
 C2019 C 0.59503 0.42464 0.76284
 C2020 C 0.58162 0.43992 0.76363
 C2021 C 0.57036 0.44478 0.74721
 C2022 C 0.57319 0.43432 0.72985
 C2023 C 0.61053 0.39767 0.74524
 C2024 C 0.62152 0.38398 0.74518
 C2025 C 0.63457 0.36810 0.74540
 C2026 C 0.64605 0.35481 0.74578
 C2027 C 0.66033 0.33947 0.74640
 C2028 C 0.68008 0.34426 0.74665
 C2029 C 0.69416 0.32964 0.74743
 C2030 C 0.68872 0.30989 0.74798
 C2031 C 0.66878 0.30518 0.74769
 C2032 C 0.65468 0.31990 0.74692
 H2033 H 0.58831 0.41086 0.71573
 H2034 H 0.60336 0.42094 0.77572
 H2035 H 0.57993 0.44785 0.77712
 H2036 H 0.56457 0.43754 0.71705
 H2037 H 0.68463 0.35935 0.74626
 H2038 H 0.70933 0.33386 0.74757
 H2039 H 0.66408 0.29015 0.74805
 H2040 H 0.63941 0.31604 0.74674
 C2041 C 0.89926 0.06482 0.24040
 C2042 C 0.90038 0.08496 0.24325
 C2043 C 0.91847 0.09371 0.24642
 C2044 C 0.93536 0.08241 0.24695
 C2045 C 0.93441 0.06214 0.24432
 C2046 C 0.91619 0.05346 0.24090
 C2047 C 0.88309 0.09679 0.24323
 C2048 C 0.86904 0.10731 0.24347
 C2049 C 0.85313 0.12031 0.24401
 C2050 C 0.84004 0.13198 0.24463
 C2051 C 0.82505 0.14660 0.24551
 C2052 C 0.83026 0.16625 0.24572
 C2053 C 0.81594 0.18064 0.24671
 C2054 C 0.79611 0.17559 0.24753
 C2055 C 0.79099 0.15575 0.24729
 C2056 C 0.80539 0.14136 0.24630
 H2057 H 0.88532 0.05789 0.23797
 H2058 H 0.91952 0.10929 0.24857
 H2059 H 0.94920 0.08956 0.24930
 H2060 H 0.91499 0.03787 0.23901
 H2061 H 0.84544 0.17048 0.24512
 H2062 H 0.82046 0.19573 0.24681
 H2063 H 0.77588 0.15134 0.24785
 H2064 H 0.80120 0.12617 0.24616
 C2065 C 0.39888 0.56596 0.74182
 C2066 C 0.40018 0.58606 0.74482
 C2067 C 0.41836 0.59463 0.74799
 C2068 C 0.43516 0.58318 0.74831
 C2069 C 0.43403 0.56294 0.74547
 C2070 C 0.41571 0.55445 0.74211
 C2071 C 0.38298 0.59805 0.74486
 C2072 C 0.36899 0.60866 0.74508
 C2073 C 0.35312 0.62172 0.74551
 C2074 C 0.34004 0.63342 0.74599
 C2075 C 0.32503 0.64805 0.74664
 C2076 C 0.33024 0.66771 0.74688
 C2077 C 0.31589 0.68210 0.74754
 C2078 C 0.29605 0.67705 0.74797
 C2079 C 0.29094 0.65721 0.74774
 C2080 C 0.30536 0.64281 0.74708
 H2081 H 0.38487 0.55917 0.73938
 H2082 H 0.41955 0.61018 0.75026
 H2083 H 0.44907 0.59019 0.75062
 H2084 H 0.41436 0.53890 0.74006
 H2085 H 0.34542 0.67193 0.74655
 H2086 H 0.32040 0.69719 0.74766
 H2087 H 0.27582 0.65280 0.74800
 H2088 H 0.30117 0.62762 0.74690
 C2089 C 0.91387 0.92640 0.74654
 C2090 C 0.92029 0.90754 0.75069
 C2091 C 0.93991 0.90423 0.75518
 C2092 C 0.95308 0.91976 0.75539
 C2093 C 0.94675 0.93875 0.75101
 C2094 C 0.92697 0.94190 0.74671
 C2095 C 0.90666 0.89168 0.75004
 C2096 C 0.89482 0.87879 0.74921
 C2097 C 0.88059 0.86406 0.74798
 C2098 C 0.86822 0.85171 0.74675
 C2099 C 0.85327 0.83715 0.74515
 C2100 C 0.85828 0.81745 0.74409
 C2101 C 0.84376 0.80332 0.74243
 C2102 C 0.82398 0.80873 0.74179
 C2103 C 0.81912 0.82861 0.74286
 C2104 C 0.83368 0.84270 0.74452
 H2105 H 0.89871 0.92914 0.74312
 H2106 H 0.94504 0.88967 0.75839
 H2107 H 0.96824 0.91689 0.75861
 H2108 H 0.92158 0.95639 0.74362
 H2109 H 0.87340 0.81300 0.74455
 H2110 H 0.84805 0.78818 0.74169
 H2111 H 0.80408 0.83330 0.74246
 H2112 H 0.82965 0.85792 0.74532
 C2113 C 0.44025 0.40512 0.23574
 C2114 C 0.42045 0.40832 0.23937
 C2115 C 0.41393 0.42693 0.24434
 C2116 C 0.42712 0.44227 0.24589
 C2117 C 0.44708 0.43922 0.24251
 C2118 C 0.45351 0.42050 0.23726
 C2119 C 0.40671 0.39258 0.23832
 C2120 C 0.39477 0.37977 0.23776
 C2121 C 0.38042 0.36512 0.23739
 C2122 C 0.36795 0.35282 0.23723
 C2123 C 0.35291 0.33827 0.23718
 C2124 C 0.33332 0.34386 0.23725
 C2125 C 0.31867 0.32976 0.23725
 C2126 C 0.32345 0.30984 0.23717
 C2127 C 0.34322 0.30439 0.23715
 C2128 C 0.35782 0.31852 0.23715
 H2129 H 0.44546 0.39075 0.23190
 H2130 H 0.39864 0.42958 0.24710
 H2131 H 0.42167 0.45658 0.24962
 H2132 H 0.46881 0.41770 0.23471
 H2133 H 0.32936 0.35913 0.23731
 H2134 H 0.30363 0.33449 0.23729
 H2135 H 0.34745 0.28921 0.23711
 H2136 H 0.37295 0.31404 0.23713
   
