data_POSCAR
  _audit_creation_date              2014-09-24
  _audit_creation_method            'ToBaCCo'
  _symmetry_space_group_name_H-M    'P1'
  _symmetry_Int_Tables_number       1
  _symmetry_cell_setting            triclinic
  loop_
  _symmetry_equiv_pos_as_xyz
 x,y,z
_cell_length_a 50.4849
_cell_length_b 49.9178
_cell_length_c 50.0367
_cell_angle_alpha 89.474000
_cell_angle_beta 90.703500
_cell_angle_gamma 90.424800
loop_
  _atom_site_label
  _atom_site_type_symbol
  _atom_site_fract_x
  _atom_site_fract_y
  _atom_site_fract_z
N1 N 0.37348 1.36171 0.29966
 N2 N 0.35204 1.37633 0.29762
 C3 C 0.35457 1.39378 0.27724
 C4 C 0.37890 1.39004 0.26599
 C5 C 0.39060 1.36950 0.28066
 H6 H 0.33988 1.40824 0.27089
 H7 H 0.40960 1.36032 0.27740
 Cu8 Cu 0.32386 1.37238 0.32272
 Cu9 Cu 0.37622 1.33249 0.32547
 Cu10 Cu 0.32451 1.32514 0.37091
 N11 N 0.29520 1.36929 0.34730
 N12 N 0.29572 1.35243 0.36767
 C13 C 0.27479 1.35800 0.38343
 C14 C 0.26079 1.37938 0.37182
 C15 C 0.27425 1.38552 0.34899
 H16 H 0.27035 1.34758 0.40191
 H17 H 0.26959 1.40173 0.33529
 N18 N 0.35586 1.30010 0.36961
 N19 N 0.37547 1.30392 0.35266
 C20 C 0.39334 1.28423 0.35566
 C21 C 0.38495 1.26672 0.37517
 C22 C 0.36101 1.27735 0.38379
 H23 H 0.41103 1.28218 0.34392
 H24 H 0.34821 1.26900 0.39894
 H25 H 0.33576 1.32595 0.33169
 H26 H 0.35286 1.34947 0.35483
 N27 N 0.36828 0.85936 0.79691
 N28 N 0.35367 0.88051 0.80113
 C29 C 0.36073 0.90018 0.78404
 C30 C 0.38065 0.89068 0.76815
 C31 C 0.38498 0.86463 0.77681
 H32 H 0.35130 0.91952 0.78239
 H33 H 0.39857 0.85023 0.76878
 Cu34 Cu 0.32487 0.87878 0.82620
 Cu35 Cu 0.36302 0.82609 0.81652
 Cu36 Cu 0.32891 0.83369 0.87607
 N37 N 0.29832 0.87700 0.85354
 N38 N 0.29976 0.85987 0.87364
 C39 C 0.27913 0.86424 0.89002
 C40 C 0.26406 0.88497 0.87909
 C41 C 0.27681 0.89234 0.85603
 H42 H 0.27528 0.85303 0.90818
 H43 H 0.27085 0.90800 0.84220
 N44 N 0.35326 0.80319 0.86921
 N45 N 0.36510 0.80019 0.84604
 C46 C 0.38019 0.77815 0.84694
 C47 C 0.37807 0.76653 0.87185
 C48 C 0.36070 0.78283 0.88559
 H49 H 0.39248 0.77140 0.83082
 H50 H 0.35404 0.78016 0.90590
 H51 H 0.32657 0.83077 0.83616
 H52 H 0.35620 0.84933 0.84895
 N53 N 0.86420 1.35447 0.79517
 N54 N 0.84200 1.36725 0.79011
 C55 C 0.84556 1.38463 0.76982
 C56 C 0.87144 1.38290 0.76169
 C57 C 0.88284 1.36345 0.77817
 H58 H 0.83055 1.39802 0.76195
 H59 H 0.90301 1.35634 0.77795
 Cu60 Cu 0.81104 1.36226 0.81167
 Cu61 Cu 0.86670 1.32733 0.82358
 Cu62 Cu 0.81616 1.32847 0.86972
 N63 N 0.78635 1.36794 0.84003
 N64 N 0.78880 1.35570 0.86329
 C65 C 0.76996 1.36492 0.87967
 C66 C 0.75513 1.38396 0.86571
 C67 C 0.76603 1.38515 0.84065
 H68 H 0.76722 1.35813 0.90003
 H69 H 0.75997 1.39804 0.82422
 N70 N 0.84577 1.30249 0.87183
 N71 N 0.86490 1.30184 0.85406
 C72 C 0.88118 1.28124 0.86003
 C73 C 0.87185 1.26830 0.88271
 C74 C 0.84946 1.28238 0.88960
 H75 H 0.89827 1.27587 0.84850
 H76 H 0.83647 1.27781 0.90608
 H77 H 0.82671 1.32022 0.83062
 H78 H 0.84233 1.35036 0.84669
 N79 N 0.86381 0.84767 0.28788
 N80 N 0.85563 0.87187 0.29348
 C81 C 0.86566 0.88935 0.27558
 C82 C 0.88091 0.87506 0.25779
 C83 C 0.87902 0.84871 0.26605
 H84 H 0.86199 0.91066 0.27560
 H85 H 0.88855 0.83160 0.25728
 Cu86 Cu 0.83233 0.87768 0.32343
 Cu87 Cu 0.85534 0.81715 0.31036
 Cu88 Cu 0.83135 0.83199 0.37313
 N89 N 0.80484 0.87807 0.35020
 N90 N 0.80429 0.86070 0.37016
 C91 C 0.78334 0.86644 0.38569
 C92 C 0.77012 0.88841 0.37454
 C93 C 0.78440 0.89504 0.35209
 H94 H 0.77795 0.85522 0.40342
 H95 H 0.78012 0.91108 0.33803
 N96 N 0.85213 0.79888 0.36556
 N97 N 0.85917 0.79281 0.34101
 C98 C 0.87389 0.77051 0.34152
 C99 C 0.87691 0.76204 0.36757
 C100 C 0.86263 0.78037 0.38249
 H101 H 0.88334 0.76205 0.32427
 H102 H 0.86070 0.78072 0.40398
 H103 H 0.82436 0.83043 0.33449
 H104 H 0.85858 0.84195 0.34329
 N105 N 0.63388 0.64268 0.30573
 N106 N 0.65350 0.62550 0.30722
 C107 C 0.65170 0.60840 0.28664
 C108 C 0.62972 0.61494 0.27132
 C109 C 0.61874 0.63685 0.28406
 H110 H 0.66542 0.59233 0.28302
 H111 H 0.60128 0.64789 0.27802
 Cu112 Cu 0.67952 0.62640 0.33616
 Cu113 Cu 0.63025 0.67105 0.33268
 Cu114 Cu 0.69135 0.68708 0.36085
 N115 N 0.70846 0.63282 0.36137
 N116 N 0.71348 0.65699 0.37035
 C117 C 0.73512 0.65642 0.38623
 C118 C 0.74391 0.63039 0.38766
 C119 C 0.72661 0.61584 0.37152
 H120 H 0.74376 0.67369 0.39604
 H121 H 0.72738 0.59473 0.36701
 N122 N 0.66074 0.71078 0.36245
 N123 N 0.63686 0.70424 0.35351
 C124 C 0.61949 0.72250 0.36234
 C125 C 0.63337 0.74120 0.37762
 C126 C 0.65935 0.73324 0.37693
 H127 H 0.59836 0.72170 0.35862
 H128 H 0.67581 0.74216 0.38775
 H129 H 0.66902 0.67356 0.32798
 H130 H 0.65906 0.66155 0.36188
 N131 N 0.63190 0.14472 0.79433
 N132 N 0.65302 0.12959 0.79645
 C133 C 0.65189 0.11043 0.77767
 C134 C 0.62880 0.11369 0.76290
 C135 C 0.61653 0.13573 0.77412
 H136 H 0.66691 0.09543 0.77475
 H137 H 0.59822 0.14508 0.76785
 Cu138 Cu 0.68042 0.13685 0.82296
 Cu139 Cu 0.62716 0.17614 0.81674
 Cu140 Cu 0.66639 0.17758 0.87407
 N141 N 0.70124 0.13680 0.85572
 N142 N 0.69548 0.15230 0.87589
 C143 C 0.71327 0.14825 0.89576
 C144 C 0.73105 0.12919 0.88759
 C145 C 0.72279 0.12232 0.86203
 H146 H 0.71359 0.15873 0.91459
 H147 H 0.73175 0.10808 0.84882
 N148 N 0.63619 0.20175 0.86810
 N149 N 0.62150 0.20165 0.84608
 C150 C 0.60389 0.22176 0.84725
 C151 C 0.60774 0.23515 0.87108
 C152 C 0.62835 0.22186 0.88381
 H153 H 0.58973 0.22680 0.83165
 H154 H 0.63769 0.22704 0.90262
 H155 H 0.66476 0.18201 0.83329
 H156 H 0.64359 0.15488 0.84771
 N157 N 1.12409 0.65070 0.80940
 N158 N 1.14452 0.63510 0.80532
 C159 C 1.14012 0.62081 0.78295
 C160 C 1.11549 0.62777 0.77250
 C161 C 1.10590 0.64668 0.78990
 H162 H 1.15384 0.60653 0.77494
 H163 H 1.08715 0.65697 0.78833
 Cu164 Cu 1.17477 0.63482 0.82999
 Cu165 Cu 1.12290 0.67507 0.83983
 Cu166 Cu 1.18527 0.69073 0.86478
 N167 N 1.20394 0.63762 0.85585
 N168 N 1.20833 0.66014 0.86863
 C169 C 1.22977 0.65755 0.88454
 C170 C 1.23918 0.63190 0.88205
 C171 C 1.22242 0.61967 0.86354
 H172 H 1.23761 0.67307 0.89743
 H173 H 1.22357 0.59944 0.85614
 N174 N 1.15423 0.71284 0.87108
 N175 N 1.13009 0.70630 0.86296
 C176 C 1.11291 0.72408 0.87291
 C177 C 1.12714 0.74249 0.88813
 C178 C 1.15318 0.73479 0.88637
 H179 H 1.09175 0.72351 0.86938
 H180 H 1.17007 0.74402 0.89620
 H181 H 1.16098 0.68171 0.83144
 H182 H 1.15523 0.66335 0.86354
 N183 N 1.13187 0.14518 0.30305
 N184 N 1.15268 0.12951 0.30216
 C185 C 1.15060 0.11326 0.28101
 C186 C 1.12716 0.11859 0.26784
 C187 C 1.11554 0.13901 0.28234
 H188 H 1.16508 0.09852 0.27550
 H189 H 1.09692 0.14883 0.27805
 Cu190 Cu 1.18063 0.13103 0.32870
 Cu191 Cu 1.12844 0.17190 0.33174
 Cu192 Cu 1.18795 0.18599 0.36485
 N193 N 1.20616 0.13257 0.35775
 N194 N 1.20961 0.15467 0.37142
 C195 C 1.22982 0.15139 0.38882
 C196 C 1.23929 0.12573 0.38607
 C197 C 1.22383 0.11425 0.36616
 H198 H 1.23726 0.16665 0.40223
 H199 H 1.22577 0.09448 0.35781
 N200 N 1.15696 0.20911 0.36670
 N201 N 1.13376 0.20350 0.35551
 C202 C 1.11618 0.22206 0.36340
 C203 C 1.12922 0.23992 0.38037
 C204 C 1.15492 0.23111 0.38174
 H205 H 1.09552 0.22237 0.35748
 H206 H 1.17082 0.23955 0.39375
 H207 H 1.16749 0.17813 0.32862
 H208 H 1.15725 0.15966 0.35939
 N209 N 0.63216 1.36037 0.69477
 N210 N 0.65171 1.37798 0.69405
 C211 C 0.64867 1.39570 0.71393
 C212 C 0.62606 1.38908 0.72791
 C213 C 0.61601 1.36649 0.71514
 H214 H 0.66212 1.41208 0.71835
 H215 H 0.59867 1.35496 0.72059
 Cu216 Cu 0.68015 1.37527 0.66808
 Cu217 Cu 0.62996 1.32997 0.66988
 Cu218 Cu 0.68164 1.32447 0.62533
 N219 N 0.70821 1.37259 0.64155
 N220 N 0.70878 1.35178 0.62568
 C221 C 0.72995 1.35355 0.60982
 C222 C 0.74347 1.37673 0.61575
 C223 C 0.72925 1.38852 0.63610
 H224 H 0.73517 1.33911 0.59485
 H225 H 0.73403 1.40697 0.64630
 N226 N 0.65276 1.29853 0.62713
 N227 N 0.63220 1.30074 0.64300
 C228 C 0.61522 1.28028 0.63772
 C229 C 0.62607 1.26470 0.61775
 C230 C 0.64972 1.27680 0.61179
 H231 H 0.59666 1.27680 0.64777
 H232 H 0.66349 1.27031 0.59685
 H233 H 0.66986 1.32763 0.66524
 H234 H 0.65102 1.34807 0.64011
 N235 N 0.63436 0.86097 1.20370
 N236 N 0.65427 0.87789 1.20115
 C237 C 0.65273 0.89651 1.22047
 C238 C 0.63068 0.89094 1.23584
 C239 C 0.61953 0.86819 1.22455
 H240 H 0.66674 0.91274 1.22344
 H241 H 0.60236 0.85715 1.23134
 Cu242 Cu 0.68054 0.87360 1.17300
 Cu243 Cu 0.63015 0.82963 1.18120
 Cu244 Cu 0.67435 0.82224 1.12996
 N245 N 0.70394 0.86986 1.14230
 N246 N 0.70120 0.84984 1.12557
 C247 C 0.72002 0.85161 1.10681
 C248 C 0.73542 0.87396 1.11186
 C249 C 0.72466 0.88516 1.13457
 H250 H 0.72262 0.83746 1.09083
 H251 H 0.73162 0.90277 1.14499
 N252 N 0.64307 0.79901 1.13423
 N253 N 0.62612 0.80165 1.15387
 C254 C 0.60732 0.78244 1.15167
 C255 C 0.61269 0.76709 1.12956
 C256 C 0.63550 0.77822 1.11896
 H257 H 0.59104 0.77955 1.16527
 H258 H 0.64613 0.77145 1.10171
 H259 H 0.66921 0.82589 1.17070
 H260 H 0.64792 0.84732 1.14848
 N261 N 1.13296 1.34431 1.21339
 N262 N 1.14272 1.36843 1.20917
 C263 C 1.13164 1.38547 1.22641
 C264 C 1.11411 1.37098 1.24224
 C265 C 1.11572 1.34496 1.23361
 H266 H 1.13636 1.40659 1.22755
 H267 H 1.10489 1.32778 1.24121
 Cu268 Cu 1.16963 1.37458 1.18207
 Cu269 Cu 1.14241 1.31428 1.19146
 Cu270 Cu 1.17012 1.33186 1.13077
 N271 N 1.19777 1.37577 1.15572
 N272 N 1.19775 1.35937 1.13528
 C273 C 1.21899 1.36484 1.12003
 C274 C 1.23318 1.38569 1.13174
 C275 C 1.21910 1.39204 1.15433
 H276 H 1.22383 1.35413 1.10208
 H277 H 1.22410 1.40738 1.16871
 N278 N 1.14963 1.29841 1.13643
 N279 N 1.14085 1.29115 1.16018
 C280 C 1.12688 1.26827 1.15799
 C281 C 1.12649 1.26083 1.13161
 C282 C 1.14132 1.28024 1.11836
 H283 H 1.11627 1.25866 1.17416
 H284 H 1.14514 1.28157 1.09717
 H285 H 1.17552 1.32761 1.17002
 H286 H 1.14229 1.34085 1.16012
 N287 N 1.13320 0.84539 0.71325
 N288 N 1.14354 0.86926 0.70898
 C289 C 1.13354 0.88643 0.72680
 C290 C 1.11607 0.87230 0.74305
 C291 C 1.11658 0.84635 0.73399
 H292 H 1.13889 0.90740 0.72800
 H293 H 1.10555 0.82940 0.74178
 Cu294 Cu 1.16973 0.87481 0.68097
 Cu295 Cu 1.14161 0.81503 0.69125
 Cu296 Cu 1.16808 0.83192 0.62979
 N297 N 1.19719 0.87527 0.65378
 N298 N 1.19617 0.85887 0.63336
 C299 C 1.21711 0.86364 0.61750
 C300 C 1.23222 0.88400 0.62881
 C301 C 1.21897 0.89085 0.65178
 H302 H 1.22120 0.85268 0.59950
 H303 H 1.22486 0.90599 0.66605
 N304 N 1.14805 0.79852 0.63628
 N305 N 1.13960 0.79153 0.66022
 C306 C 1.12644 0.76812 0.65859
 C307 C 1.12638 0.76005 0.63238
 C308 C 1.14042 0.77967 0.61865
 H309 H 1.11640 0.75836 0.67504
 H310 H 1.14439 0.78053 0.59748
 H311 H 1.17442 0.82770 0.66909
 H312 H 1.14115 0.84138 0.65998
 N313 N 0.35994 0.65142 0.70787
 N314 N 0.33649 0.64124 0.71329
 C315 C 0.33817 0.62527 0.73494
 C316 C 0.36410 0.62490 0.74347
 C317 C 0.37753 0.64196 0.72605
 H318 H 0.32201 0.61337 0.74283
 H319 H 0.39847 0.64664 0.72614
 Cu320 Cu 0.30715 0.64425 0.68883
 Cu321 Cu 0.36544 0.67521 0.67686
 Cu322 Cu 0.31435 0.67518 0.63010
 N323 N 0.28549 0.63492 0.65849
 N324 N 0.28937 0.64600 0.63496
 C325 C 0.27312 0.63444 0.61696
 C326 C 0.25851 0.61493 0.63012
 C327 C 0.26664 0.61592 0.65643
 H328 H 0.27189 0.64018 0.59610
 H329 H 0.25973 0.60346 0.67276
 N330 N 0.34616 0.69728 0.62610
 N331 N 0.36568 0.69785 0.64390
 C332 C 0.38353 0.71653 0.63612
 C333 C 0.37464 0.72795 0.61224
 C334 C 0.35108 0.71512 0.60651
 H335 H 0.40122 0.72182 0.64732
 H336 H 0.33796 0.71926 0.58976
 H337 H 0.32668 0.68483 0.66935
 H338 H 0.33921 0.65331 0.65428
 N339 N 0.35952 0.15152 1.21067
 N340 N 0.33636 0.14232 1.21845
 C341 C 0.33962 0.12506 1.23891
 C342 C 0.36626 0.12289 1.24423
 C343 C 0.37852 0.14012 1.22610
 H344 H 0.32381 0.11391 1.24840
 H345 H 0.39951 0.14391 1.22409
 Cu346 Cu 0.30436 0.14923 1.19870
 Cu347 Cu 0.36250 0.17740 1.18086
 Cu348 Cu 0.30514 0.18625 1.14314
 N349 N 0.27809 0.14422 1.17101
 N350 N 0.27939 0.15770 1.14841
 C351 C 0.26126 0.14784 1.13121
 C352 C 0.24815 0.12689 1.14383
 C353 C 0.25900 0.12539 1.16915
 H354 H 0.25829 0.15513 1.11098
 H355 H 0.25450 0.11070 1.18450
 N356 N 0.33779 0.20631 1.13618
 N357 N 0.35996 0.20299 1.15008
 C358 C 0.37826 0.22046 1.14070
 C359 C 0.36682 0.23530 1.11998
 C360 C 0.34128 0.22569 1.11775
 H361 H 0.39804 0.22282 1.14893
 H362 H 0.32610 0.23280 1.10404
 H363 H 0.32425 0.19044 1.18072
 H364 H 0.33146 0.16021 1.16047
 N365 N 0.86027 0.65274 1.20625
 N366 N 0.83736 0.64170 1.21232
 C367 C 0.84023 0.62541 1.23360
 C368 C 0.86639 0.62576 1.24136
 C369 C 0.87875 0.64349 1.22373
 H370 H 0.82462 0.61313 1.24201
 H371 H 0.89949 0.64903 1.22343
 Cu372 Cu 0.80665 0.64508 1.18975
 Cu373 Cu 0.86342 0.67812 1.17587
 Cu374 Cu 0.80864 0.68065 1.13337
 N375 N 0.78340 0.63700 1.16018
 N376 N 0.78514 0.65011 1.13741
 C377 C 0.76797 0.63942 1.11972
 C378 C 0.75499 0.61837 1.13226
 C379 C 0.76505 0.61752 1.15793
 H380 H 0.76492 0.64682 1.09954
 H381 H 0.75972 0.60357 1.17368
 N382 N 0.83974 0.70351 1.12841
 N383 N 0.86097 0.70269 1.14410
 C384 C 0.87814 0.72180 1.13570
 C385 C 0.86692 0.73504 1.11375
 C386 C 0.84271 0.72282 1.10982
 H387 H 0.89684 0.72639 1.14543
 H388 H 0.82799 0.72816 1.09486
 H389 H 0.82425 0.68744 1.17216
 H390 H 0.83584 0.65759 1.15355
 N391 N 0.86324 0.15103 0.70477
 N392 N 0.84090 0.13791 0.70849
 C393 C 0.84352 0.12107 0.72939
 C394 C 0.86891 0.12341 0.73931
 C395 C 0.88105 0.14277 0.72336
 H396 H 0.82825 0.10746 0.73635
 H397 H 0.90111 0.15035 0.72514
 Cu398 Cu 0.81109 0.14129 0.68444
 Cu399 Cu 0.86616 0.17819 0.67632
 Cu400 Cu 0.82202 0.16804 0.62379
 N401 N 0.78870 0.13295 0.65433
 N402 N 0.79382 0.14223 0.63029
 C403 C 0.77612 0.13189 0.61289
 C404 C 0.75918 0.11518 0.62698
 C405 C 0.76765 0.11639 0.65319
 H406 H 0.77552 0.13655 0.59176
 H407 H 0.75932 0.10582 0.67011
 N408 N 0.85157 0.19380 0.62185
 N409 N 0.86814 0.19821 0.64199
 C410 C 0.88392 0.21914 0.63561
 C411 C 0.87677 0.22831 0.61024
 C412 C 0.85639 0.21165 0.60215
 H413 H 0.89872 0.22762 0.64890
 H414 H 0.84497 0.21344 0.58381
 H415 H 0.82719 0.18202 0.66232
 H416 H 0.84615 0.15145 0.65323
 N417 N 1.36499 0.37472 0.68788
 N418 N 1.38697 0.36186 0.68274
 C419 C 1.40453 0.36529 0.70281
 C420 C 1.39319 0.38105 0.72187
 C421 C 1.36799 0.38688 0.71177
 H422 H 1.42389 0.35616 0.70393
 H423 H 1.35286 0.39859 0.72122
 Cu424 Cu 1.39030 0.33909 0.65216
 Cu425 Cu 1.33416 0.37342 0.66304
 Cu426 Cu 1.33656 0.32312 0.61597
 N427 N 1.38927 0.30717 0.63082
 N428 N 1.36784 0.30056 0.61722
 C429 C 1.37145 0.27656 0.60598
 C430 C 1.39660 0.26763 0.61309
 C431 C 1.40737 0.28766 0.62874
 H432 H 1.35660 0.26638 0.59404
 H433 H 1.42655 0.28765 0.63863
 N434 N 1.30679 0.34814 0.61784
 N435 N 1.30560 0.36758 0.63552
 C436 C 1.28302 0.38141 0.63098
 C437 C 1.26952 0.36996 0.60941
 C438 C 1.28522 0.34899 0.60178
 H439 H 1.27696 0.39852 0.64243
 H440 H 1.28124 0.33549 0.58543
 H441 H 1.34276 0.33442 0.65565
 H442 H 1.35255 0.35964 0.62955
 N443 N 1.35618 0.86184 1.19797
 N444 N 1.37235 0.84132 1.19716
 C445 C 1.39068 0.84337 1.21677
 C446 C 1.38611 0.86651 1.23075
 C447 C 1.36400 0.87793 1.21820
 H448 H 1.40623 0.82903 1.22070
 H449 H 1.35411 0.89626 1.22340
 Cu450 Cu 1.36825 0.81375 1.17054
 Cu451 Cu 1.32651 0.86547 1.17197
 Cu452 Cu 1.30964 0.80548 1.14094
 N453 N 1.36352 0.78874 1.14147
 N454 N 1.34001 0.78456 1.13072
 C455 C 1.34145 0.76460 1.11296
 C456 C 1.36738 0.75608 1.11228
 C457 C 1.38095 0.77193 1.13061
 H458 H 1.32481 0.75678 1.10155
 H459 H 1.40159 0.77080 1.13645
 N460 N 1.28615 0.83648 1.14124
 N461 N 1.29275 0.85997 1.15140
 C462 C 1.27371 0.87777 1.14450
 C463 C 1.25447 0.86456 1.12927
 C464 C 1.26300 0.83853 1.12791
 H465 H 1.27417 0.89876 1.14960
 H466 H 1.25372 0.82252 1.11667
 H467 H 1.32168 0.82585 1.17594
 H468 H 1.33550 0.83705 1.14328
 N469 N 0.85493 0.36648 1.19591
 N470 N 0.87187 0.34660 1.19494
 C471 C 0.88956 0.34873 1.21513
 C472 C 0.88372 0.37120 1.22969
 C473 C 0.86154 0.38217 1.21687
 H474 H 0.90554 0.33487 1.21906
 H475 H 0.85091 0.40000 1.22230
 Cu476 Cu 0.86941 0.31953 1.16756
 Cu477 Cu 0.82607 0.36996 1.16897
 Cu478 Cu 0.81172 0.31023 1.13649
 N479 N 0.86608 0.29506 1.13777
 N480 N 0.84289 0.29060 1.12644
 C481 C 0.84518 0.27140 1.10801
 C482 C 0.87131 0.26372 1.10745
 C483 C 0.88414 0.27907 1.12667
 H484 H 0.82898 0.26351 1.09603
 H485 H 0.90471 0.27805 1.13281
 N486 N 0.78744 0.34049 1.13647
 N487 N 0.79322 0.36401 1.14703
 C488 C 0.77426 0.38154 1.13931
 C489 C 0.75596 0.36813 1.12310
 C490 C 0.76489 0.34224 1.12209
 H491 H 0.77419 0.40252 1.14449
 H492 H 0.75644 0.32618 1.11029
 H493 H 0.82240 0.33024 1.17214
 H494 H 0.83670 0.34248 1.14004
 N495 N 0.85054 0.86108 0.70708
 N496 N 0.86291 0.83839 0.71173
 C497 C 0.87937 0.84102 0.73282
 C498 C 0.87772 0.86681 0.74193
 C499 C 0.85906 0.87916 0.72527
 H500 H 0.89254 0.82557 0.74026
 H501 H 0.85239 0.89967 0.72610
 Cu502 Cu 0.86020 0.80851 0.68790
 Cu503 Cu 0.82477 0.86458 0.67723
 Cu504 Cu 0.83130 0.81698 0.62793
 N505 N 0.86906 0.78619 0.65829
 N506 N 0.85881 0.79026 0.63435
 C507 C 0.87005 0.77323 0.61721
 C508 C 0.88836 0.75788 0.63139
 C509 C 0.88703 0.76653 0.65736
 H510 H 0.86507 0.77204 0.59618
 H511 H 0.89868 0.75943 0.67425
 N512 N 0.80450 0.84553 0.62580
 N513 N 0.80155 0.86357 0.64467
 C514 C 0.78041 0.87891 0.63824
 C515 C 0.76965 0.86998 0.61414
 C516 C 0.78553 0.84892 0.60695
 H517 H 0.77312 0.89493 0.65047
 H518 H 0.78286 0.83643 0.58956
 H519 H 0.81962 0.82474 0.66721
 H520 H 0.85006 0.84256 0.65487
 N521 N 0.65424 0.62414 0.70486
 N522 N 0.63448 0.64088 0.70135
 C523 C 0.61725 0.63731 0.72160
 C524 C 0.62718 0.61739 0.73846
 C525 C 0.65057 0.60973 0.72725
 H526 H 0.59912 0.64837 0.72398
 H527 H 0.66371 0.59427 0.73468
 Cu528 Cu 0.63436 0.66578 0.67073
 Cu529 Cu 0.68255 0.62028 0.67971
 Cu530 Cu 0.68194 0.66154 0.62401
 N531 N 0.63538 0.69008 0.63970
 N532 N 0.65378 0.68782 0.62148
 C533 C 0.65069 0.70723 0.60290
 C534 C 0.62938 0.72272 0.60974
 C535 C 0.62000 0.71125 0.63326
 H536 H 0.66355 0.71045 0.58602
 H537 H 0.60364 0.71807 0.64508
 N538 N 0.70890 0.63383 0.63036
 N539 N 0.70955 0.61882 0.65218
 C540 C 0.73083 0.60281 0.65157
 C541 C 0.74411 0.60780 0.62823
 C542 C 0.72978 0.62763 0.61516
 H543 H 0.73640 0.58853 0.66697
 H544 H 0.73453 0.63730 0.59639
 H545 H 0.68176 0.65938 0.66503
 H546 H 0.66128 0.63397 0.64662
 N547 N 0.64818 1.13341 1.20214
 N548 N 0.63037 1.15238 1.19912
 C549 C 0.61263 1.15084 1.21892
 C550 C 0.61912 1.12968 1.23560
 C551 C 0.64197 1.11890 1.22431
 H552 H 0.59599 1.16418 1.22101
 H553 H 0.65320 1.10190 1.23156
 Cu554 Cu 0.63089 1.17742 1.16924
 Cu555 Cu 0.67758 1.13013 1.17570
 Cu556 Cu 0.69096 1.19225 1.14714
 N557 N 0.63662 1.20658 1.14397
 N558 N 0.66060 1.21307 1.13621
 C559 C 0.65942 1.23445 1.11975
 C560 C 0.63322 1.24138 1.11658
 C561 C 0.61918 1.22340 1.13238
 H562 H 0.67635 1.24393 1.11045
 H563 H 0.59806 1.22273 1.13558
 N564 N 0.71583 1.16248 1.14561
 N565 N 0.71009 1.13784 1.15366
 C566 C 0.72795 1.12112 1.14270
 C567 C 0.74556 1.13633 1.12725
 C568 C 0.73738 1.16228 1.13012
 H569 H 0.72760 1.09956 1.14499
 H570 H 0.74513 1.17958 1.11955
 H571 H 0.67766 1.16916 1.17970
 H572 H 0.66743 1.15782 1.14562
 N573 N 0.14733 0.61925 1.19350
 N574 N 0.13189 0.63971 1.19835
 C575 C 0.11888 0.63494 1.22130
 C576 C 0.12655 0.60998 1.23128
 C577 C 0.14451 0.60066 1.21296
 H578 H 0.10502 0.64870 1.22993
 H579 H 0.15511 0.58190 1.21393
 Cu580 Cu 0.13035 0.67059 1.17386
 Cu581 Cu 0.17069 0.61890 1.16269
 Cu582 Cu 0.18652 0.68299 1.14115
 N583 N 0.13369 0.70152 1.14962
 N584 N 0.15637 0.70665 1.13791
 C585 C 0.15424 0.72901 1.12294
 C586 C 0.12870 0.73831 1.12477
 C587 C 0.11604 0.72040 1.14201
 H588 H 0.16998 0.73743 1.11093
 H589 H 0.09571 0.72096 1.14853
 N590 N 0.20854 0.65181 1.13385
 N591 N 0.20181 0.62712 1.14068
 C592 C 0.21966 0.61008 1.13076
 C593 C 0.23839 0.62495 1.11689
 C594 C 0.23075 0.65124 1.11934
 H595 H 0.21895 0.58858 1.13351
 H596 H 0.24031 0.66865 1.11062
 H597 H 0.17678 0.65711 1.17281
 H598 H 0.15945 0.65268 1.13995
 N599 N 0.14342 1.12555 0.69594
 N600 N 0.12464 1.14349 0.69275
 C601 C 0.10751 1.14166 0.71305
 C602 C 0.11580 1.12173 0.73039
 C603 C 0.13882 1.11177 0.71891
 H604 H 0.09038 1.15430 0.71537
 H605 H 0.15140 1.09599 0.72667
 Cu606 Cu 0.12478 1.16927 0.66356
 Cu607 Cu 0.17264 1.12338 0.66969
 Cu608 Cu 0.15524 1.15143 0.60800
 N609 N 0.12302 1.19124 0.63143
 N610 N 0.13455 1.18397 0.60929
 C611 C 0.13006 1.20259 0.59014
 C612 C 0.11519 1.22281 0.60104
 C613 C 0.11098 1.21484 0.62733
 H614 H 0.13760 1.20175 0.57002
 H615 H 0.10031 1.22536 0.64254
 N616 N 0.18579 1.12775 0.61297
 N617 N 0.19362 1.11795 0.63637
 C618 C 0.21749 1.10629 0.63316
 C619 C 0.22484 1.10918 0.60648
 C620 C 0.20415 1.12266 0.59448
 H621 H 0.22901 1.09727 0.64917
 H622 H 0.20323 1.12965 0.57396
 H623 H 0.16830 1.15828 0.64669
 H624 H 0.14429 1.12998 0.64283
 N625 N 1.34038 0.63392 0.28156
 N626 N 1.36353 0.64554 0.28531
 C627 C 1.38104 0.63513 0.26837
 C628 C 1.36793 0.61603 0.25315
 C629 C 1.34215 0.61599 0.26181
 H630 H 1.40152 0.64139 0.26702
 H631 H 1.32597 0.60356 0.25463
 Cu632 Cu 1.36795 0.67404 0.31103
 Cu633 Cu 1.31051 0.64206 0.30377
 Cu634 Cu 1.32891 0.67020 0.36460
 N635 N 1.37201 0.69918 0.33993
 N636 N 1.35701 0.69794 0.36124
 C637 C 1.36484 0.71750 0.37817
 C638 C 1.38568 0.73176 0.36646
 C639 C 1.38950 0.71946 0.34228
 H640 H 1.35585 0.72111 0.39730
 H641 H 1.40406 0.72493 0.32747
 N642 N 1.29602 0.64809 0.35933
 N643 N 1.28863 0.63934 0.33552
 C644 C 1.26652 0.62442 0.33768
 C645 C 1.25959 0.62313 0.36410
 C646 C 1.27856 0.63859 0.37746
 H647 H 1.25706 0.61381 0.32135
 H648 H 1.27997 0.64209 0.39872
 H649 H 1.32190 0.67646 0.32573
 H650 H 1.33793 0.64388 0.33418
 N651 N 1.36336 1.12464 0.79572
 N652 N 1.37382 1.14834 0.79093
 C653 C 1.38994 1.14687 0.76986
 C654 C 1.38958 1.12084 0.76099
 C655 C 1.37247 1.10716 0.77779
 H656 H 1.40099 1.16354 0.76151
 H657 H 1.36654 1.08635 0.77675
 Cu658 Cu 1.36608 1.17878 0.81274
 Cu659 Cu 1.33739 1.11903 0.82357
 Cu660 Cu 1.33161 1.17000 0.86949
 N661 N 1.36896 1.20372 0.84174
 N662 N 1.35649 1.20012 0.86442
 C663 C 1.36405 1.21970 0.88139
 C664 C 1.38221 1.23621 0.86838
 C665 C 1.38463 1.22551 0.84332
 H666 H 1.35693 1.22167 0.90157
 H667 H 1.39747 1.23264 0.82759
 N668 N 1.30910 1.13711 0.87015
 N669 N 1.31199 1.11750 0.85291
 C670 C 1.29340 1.09857 0.85730
 C671 C 1.27782 1.10657 0.87812
 C672 C 1.28835 1.13114 0.88594
 H673 H 1.29056 1.08075 0.84545
 H674 H 1.28109 1.14406 0.90139
 H675 H 1.32588 1.15872 0.83028
 H676 H 1.35669 1.14689 0.84802
 N677 N 0.84364 0.63727 0.79074
 N678 N 0.86605 0.64950 0.79678
 C679 C 0.88465 0.64190 0.77925
 C680 C 0.87292 0.62410 0.76134
 C681 C 0.84695 0.62190 0.76918
 H682 H 0.90501 0.64878 0.77954
 H683 H 0.83166 0.60947 0.76023
 Cu684 Cu 0.86780 0.67438 0.82691
 Cu685 Cu 0.81210 0.64065 0.81208
 Cu686 Cu 0.82444 0.66325 0.87615
 N687 N 0.86565 0.69858 0.85749
 N688 N 0.84884 0.69384 0.87688
 C689 C 0.85152 0.71299 0.89553
 C690 C 0.87087 0.73094 0.88742
 C691 C 0.87947 0.72113 0.86309
 H692 H 0.84000 0.71397 0.91358
 H693 H 0.89456 0.72966 0.85038
 N694 N 0.79340 0.64090 0.86658
 N695 N 0.78807 0.63363 0.84180
 C696 C 0.76560 0.61898 0.84134
 C697 C 0.75633 0.61682 0.86707
 C698 C 0.77438 0.63108 0.88264
 H699 H 0.75697 0.60996 0.82366
 H700 H 0.77382 0.63421 0.90397
 H701 H 0.82061 0.67300 0.83750
 H702 H 0.83738 0.64033 0.84401
 N703 N 0.84651 1.12744 0.29058
 N704 N 0.86798 1.14231 0.29277
 C705 C 0.88388 1.13721 0.27199
 C706 C 0.87145 1.11814 0.25611
 C707 C 0.84783 1.11255 0.26843
 H708 H 0.90288 1.14672 0.26869
 H709 H 0.83303 1.09814 0.26202
 Cu710 Cu 0.87298 1.16674 0.32260
 Cu711 Cu 0.81963 1.12663 0.31756
 Cu712 Cu 0.82462 1.17219 0.36901
 N713 N 0.87302 1.19543 0.34868
 N714 N 0.85454 1.19774 0.36683
 C715 C 0.86005 1.21958 0.38178
 C716 C 0.88320 1.23147 0.37235
 C717 C 0.89071 1.21555 0.35141
 H718 H 0.84807 1.22628 0.39815
 H719 H 0.90781 1.21864 0.33890
 N720 N 0.79595 1.14448 0.36668
 N721 N 0.79406 1.12794 0.34630
 C722 C 0.77281 1.11193 0.34929
 C723 C 0.76057 1.11828 0.37267
 C724 C 0.77567 1.13910 0.38342
 H725 H 0.76666 1.09639 0.33558
 H726 H 0.77204 1.14965 0.40178
 H727 H 0.82536 1.16702 0.32869
 H728 H 0.84218 1.14114 0.35014
 N729 N 0.63921 0.37447 0.30361
 N730 N 0.62662 0.35135 0.30339
 C731 C 0.60905 0.35104 0.28295
 C732 C 0.61063 0.37536 0.26969
 C733 C 0.62999 0.38983 0.28342
 H734 H 0.59621 0.33432 0.27800
 H735 H 0.63750 0.40963 0.27879
 Cu736 Cu 0.63417 0.32389 0.32975
 Cu737 Cu 0.66790 0.38210 0.32881
 Cu738 Cu 0.67444 0.33799 0.38210
 N739 N 0.63339 0.30308 0.36244
 N740 N 0.64884 0.30851 0.38304
 C741 C 0.64379 0.29071 0.40278
 C742 C 0.62407 0.27335 0.39400
 C743 C 0.61795 0.28187 0.36824
 H744 H 0.65378 0.29031 0.42203
 H745 H 0.60350 0.27347 0.35453
 N746 N 0.69815 0.36918 0.37685
 N747 N 0.69571 0.38594 0.35642
 C748 C 0.71577 0.40386 0.35725
 C749 C 0.73154 0.39820 0.37927
 C750 C 0.71977 0.37607 0.39130
 H751 H 0.71923 0.41937 0.34245
 H752 H 0.72696 0.36505 0.40856
 H753 H 0.67711 0.34328 0.34115
 H754 H 0.64893 0.36003 0.35833
 N755 N 0.65673 0.85837 0.78988
 N756 N 0.64563 0.83495 0.78516
 C757 C 0.63013 0.83654 0.76323
 C758 C 0.63096 0.86245 0.75384
 C759 C 0.64826 0.87591 0.77101
 H760 H 0.61753 0.82052 0.75589
 H761 H 0.65370 0.89689 0.77034
 Cu762 Cu 0.64651 0.80634 0.81097
 Cu763 Cu 0.68035 0.86385 0.82097
 Cu764 Cu 0.67660 0.81450 0.86995
 N765 N 0.63549 0.78641 0.84195
 N766 N 0.64632 0.79058 0.86555
 C767 C 0.63389 0.77520 0.88375
 C768 C 0.61411 0.76085 0.87062
 C769 C 0.61581 0.76832 0.84416
 H770 H 0.63932 0.77419 0.90470
 H771 H 0.60358 0.76124 0.82775
 N772 N 0.70075 0.84535 0.87275
 N773 N 0.70261 0.86418 0.85412
 C774 C 0.72227 0.88129 0.86116
 C775 C 0.73310 0.87269 0.88541
 C776 C 0.71884 0.85003 0.89212
 H777 H 0.72863 0.89823 0.84919
 H778 H 0.72210 0.83732 0.90945
 H779 H 0.68744 0.82440 0.83049
 H780 H 0.65691 0.83972 0.84434
 N781 N 0.15647 0.37473 0.80165
 N782 N 0.13461 0.36031 0.80107
 C783 C 0.11864 0.36939 0.78145
 C784 C 0.13130 0.39062 0.76889
 C785 C 0.15535 0.39338 0.78210
 H786 H 0.09979 0.36037 0.77616
 H787 H 0.17101 0.40756 0.77756
 Cu788 Cu 0.13000 0.32940 0.82400
 Cu789 Cu 0.18456 0.36712 0.82744
 Cu790 Cu 0.16096 0.33363 0.88355
 N791 N 0.12318 0.30386 0.85218
 N792 N 0.13493 0.30579 0.87567
 C793 C 0.12655 0.28564 0.89148
 C794 C 0.10882 0.27008 0.87680
 C795 C 0.10710 0.28230 0.85203
 H796 H 0.13370 0.28227 0.91168
 H797 H 0.09531 0.27577 0.83508
 N798 N 0.19413 0.35468 0.88357
 N799 N 0.20334 0.36654 0.86188
 C800 C 0.22663 0.37829 0.86765
 C801 C 0.23251 0.37363 0.89438
 C802 C 0.21154 0.35848 0.90384
 H803 H 0.23827 0.38936 0.85327
 H804 H 0.20930 0.35055 0.92389
 H805 H 0.17378 0.33003 0.84541
 H806 H 0.15419 0.36072 0.85239
 N807 N 0.14593 0.88468 0.30914
 N808 N 0.12822 0.86568 0.30513
 C809 C 0.11298 0.87219 0.28389
 C810 C 0.12169 0.89661 0.27395
 C811 C 0.14265 0.90394 0.29039
 H812 H 0.09723 0.85967 0.27601
 H813 H 0.15486 0.92174 0.28854
 Cu814 Cu 0.12707 0.83346 0.32682
 Cu815 Cu 0.17233 0.88232 0.33773
 Cu816 Cu 0.16422 0.83036 0.38302
 N817 N 0.11991 0.80751 0.35477
 N818 N 0.13400 0.80690 0.37701
 C819 C 0.12554 0.78651 0.39243
 C820 C 0.10516 0.77341 0.37892
 C821 C 0.10204 0.78737 0.35516
 H822 H 0.13455 0.78103 0.41138
 H823 H 0.08833 0.78274 0.33904
 N824 N 0.19363 0.85616 0.38541
 N825 N 0.19670 0.87605 0.36816
 C826 C 0.21930 0.88925 0.37411
 C827 C 0.23102 0.87695 0.39615
 C828 C 0.21425 0.85608 0.40274
 H829 H 0.22707 0.90586 0.36257
 H830 H 0.21733 0.84144 0.41851
 H831 H 0.17188 0.84123 0.34373
 H832 H 0.14632 0.86116 0.36163
 O833 O 1.09449 1.03004 1.13660
 O834 O 1.12446 1.03007 1.16902
 C835 C 1.10355 1.03960 1.15839
 C836 C 1.08996 1.06260 1.17075
 C837 C 1.09826 1.07297 1.19563
 H838 H 1.11397 1.06297 1.20658
 O839 O 0.90468 0.97987 1.12870
 O840 O 0.87439 0.98082 1.16008
 C841 C 0.89565 0.97148 1.15089
 C842 C 0.90916 0.94989 1.16586
 C843 C 0.89947 0.94163 1.19078
 H844 H 0.88304 0.95208 1.19960
 O845 O 1.03064 1.13825 1.09135
 O846 O 1.03041 1.17019 1.12150
 C847 C 1.03998 1.16002 1.10059
 C848 C 1.06271 1.17299 1.08718
 C849 C 1.07377 1.19709 1.09670
 H850 H 1.06483 1.20705 1.11345
 O851 O 0.97113 0.86905 1.09672
 O852 O 0.96960 0.83879 1.12906
 C853 C 0.96139 0.84769 1.10658
 C854 C 0.93994 0.83324 1.09214
 C855 C 0.93080 0.80847 1.10185
 H856 H 0.94015 0.79963 1.11941
 O857 O 1.13461 1.09487 1.02607
 O858 O 1.16586 1.12601 1.02668
 C859 C 1.15586 1.10439 1.03590
 C860 C 1.16850 1.09098 1.05905
 C861 C 1.19168 1.10179 1.07021
 H862 H 1.20111 1.11900 1.06087
 O863 O 0.86671 0.90460 1.02381
 O864 O 0.83498 0.87405 1.02420
 C865 C 0.84507 0.89567 1.03318
 C866 C 0.83214 0.91033 1.05526
 C867 C 0.80815 0.90107 1.06629
 H868 H 0.79866 0.88363 1.05775
 O869 O 0.97706 1.10253 1.12569
 O870 O 0.97644 1.13449 1.15583
 C871 C 0.96745 1.11252 1.14665
 C872 C 0.94531 1.09875 1.16025
 C873 C 0.93604 1.10850 1.18457
 H874 H 0.94558 1.12574 1.19367
 O875 O 1.02287 0.90571 1.13410
 O876 O 1.02110 0.87558 1.16657
 C877 C 1.03087 0.89695 1.15668
 C878 C 1.05208 0.91150 1.17138
 C879 C 1.06080 0.90234 1.19656
 H880 H 1.05143 0.88491 1.20554
 O881 O 1.12927 0.97573 1.10251
 O882 O 1.15958 0.97597 1.13462
 C883 C 1.15033 0.96632 1.11298
 C884 C 1.16375 0.94337 1.10038
 C885 C 1.18751 0.93349 1.11132
 H886 H 1.19657 0.94333 1.12839
 O887 O 0.86727 1.03107 1.09088
 O888 O 0.83709 1.03079 1.12238
 C889 C 0.84589 1.03995 1.10051
 C890 C 0.83166 1.06212 1.08711
 C891 C 0.80783 1.07117 1.09760
 H892 H 0.79897 1.06059 1.11431
 O893 O 0.90539 1.13640 1.02024
 O894 O 0.87593 1.16879 1.01897
 C895 C 0.89743 1.15900 1.02809
 C896 C 0.91297 1.17362 1.04859
 C897 C 0.90453 1.19870 1.05747
 H898 H 0.88748 1.20798 1.04805
 O899 O 1.09352 0.86530 1.03346
 O900 O 1.12340 0.83332 1.03417
 C901 C 1.10211 0.84317 1.04284
 C902 C 1.08766 0.82953 1.06479
 C903 C 1.09680 0.80535 1.07617
 H904 H 1.11366 0.79564 1.06744
 O905 O 0.90543 1.03218 1.12606
 O906 O 0.87512 1.03267 1.15742
 C907 C 0.89650 1.04178 1.14755
 C908 C 0.91073 1.06423 1.16082
 C909 C 0.90183 1.07425 1.18527
 H910 H 0.88540 1.06437 1.19502
 O911 O 1.09179 0.97773 1.13707
 O912 O 1.12191 0.97761 1.16936
 C913 C 1.10041 0.96866 1.15925
 C914 C 1.08583 0.94674 1.17285
 C915 C 1.09427 0.93733 1.19805
 H916 H 1.11065 0.94740 1.20780
 O917 O 1.02270 0.86711 1.09986
 O918 O 1.02110 0.83690 1.13226
 C919 C 1.03093 0.84549 1.11056
 C920 C 1.05273 0.83079 1.09801
 C921 C 1.06205 0.80668 1.10916
 H922 H 1.05247 0.79815 1.12658
 O923 O 0.97899 1.13857 1.08836
 O924 O 0.97881 1.17062 1.11842
 C925 C 0.97016 1.16068 1.09672
 C926 C 0.94881 1.17453 1.08178
 C927 C 0.94011 1.19960 1.09032
 H928 H 0.94999 1.20939 1.10697
 O929 O 0.86602 1.10267 1.02299
 O930 O 0.83624 1.13469 1.02199
 C931 C 0.84499 1.11298 1.03209
 C932 C 0.83131 1.09918 1.05480
 C933 C 0.80779 1.10887 1.06655
 H934 H 0.79873 1.12704 1.05896
 O935 O 1.12920 0.90300 1.03480
 O936 O 1.15927 0.87122 1.03601
 C937 C 1.15023 0.89315 1.04487
 C938 C 1.16371 0.90725 1.06748
 C939 C 1.18739 0.89748 1.07903
 H940 H 1.19654 0.87998 1.07063
 O941 O 0.97152 0.90622 1.13268
 O942 O 0.96973 0.87604 1.16510
 C943 C 0.96186 0.89784 1.15456
 C944 C 0.94094 0.91341 1.16752
 C945 C 0.93080 0.90522 1.19235
 H946 H 0.93928 0.88806 1.20257
 O947 O 1.02844 1.10241 1.12901
 O948 O 1.02773 1.13435 1.15917
 C949 C 1.03660 1.11221 1.15100
 C950 C 1.05706 1.09806 1.16692
 C951 C 1.06545 1.10807 1.19174
 H952 H 1.05622 1.12581 1.19966
 O953 O 0.86883 0.97849 1.09110
 O954 O 0.83876 0.97871 1.12269
 C955 C 0.84770 0.96910 1.10116
 C956 C 0.83365 0.94633 1.08823
 C957 C 0.80975 0.93680 1.09879
 H958 H 0.80129 0.94679 1.11579
 O959 O 1.13050 1.02794 1.10026
 O960 O 1.16065 1.02834 1.13252
 C961 C 1.15200 1.03700 1.11012
 C962 C 1.16651 1.05846 1.09575
 C963 C 1.18955 1.06992 1.10692
 H964 H 1.19758 1.06199 1.12550
 O965 O 0.90185 0.86705 1.02453
 O966 O 0.87047 0.83613 1.02467
 C967 C 0.89216 0.84546 1.03404
 C968 C 0.90597 0.83184 1.05682
 C969 C 0.89695 0.80701 1.06706
 H970 H 0.88049 0.79708 1.05720
 O971 O 1.10153 1.13421 1.02414
 O972 O 1.13293 1.16521 1.02427
 C973 C 1.11108 1.15619 1.03280
 C974 C 1.09717 1.17109 1.05358
 C975 C 1.10761 1.19542 1.06288
 H976 H 1.12525 1.20392 1.05390
 Cu977 Cu 1.10846 1.00294 1.11593
 Cu978 Cu 1.14469 1.00298 1.15462
 Cu979 Cu 0.88959 1.00538 1.10597
 Cu980 Cu 0.85329 1.00576 1.14372
 Cu981 Cu 1.00393 1.11727 1.10549
 Cu982 Cu 1.00324 1.15568 1.14174
 Cu983 Cu 0.99722 0.89002 1.11253
 Cu984 Cu 0.99516 0.85374 1.15147
 C985 C 1.06924 1.07526 1.15673
 H986 H 1.06301 1.06774 1.13740
 C987 C 1.08616 1.09599 1.20619
 C988 C 0.93009 0.93589 1.15448
 H989 H 0.93734 0.94197 1.13504
 C990 C 0.90971 0.91906 1.20385
 C991 C 1.07454 1.16023 1.06554
 H992 H 1.06661 1.14131 1.05848
 C993 C 1.09645 1.20824 1.08468
 C994 C 0.92762 0.84462 1.06948
 H995 H 0.93444 0.86393 1.06216
 C996 C 0.90926 0.79525 1.08981
 C997 C 1.15618 1.06906 1.07170
 H998 H 1.13799 1.06090 1.06333
 C999 C 1.20190 1.09191 1.09437
 C1000 C 0.84461 0.93310 1.06634
 H1001 H 0.86327 0.94017 1.05836
 C1002 C 0.79685 0.91419 1.08826
 C1003 C 0.93263 1.07653 1.14855
 H1004 H 0.93945 1.06917 1.12955
 C1005 C 0.91421 1.09666 1.19709
 C1006 C 1.06457 0.93387 1.15978
 H1007 H 1.05825 0.94078 1.14015
 C1008 C 1.08196 0.91493 1.21004
 C1009 C 1.15215 0.93027 1.07835
 H1010 H 1.13369 0.93771 1.07001
 C1011 C 1.19930 0.91045 1.10117
 C1012 C 0.84292 1.07582 1.06551
 H1013 H 0.86135 1.06858 1.05752
 C1014 C 0.79594 1.09461 1.08806
 C1015 C 0.93532 1.16176 1.06071
 H1016 H 0.94159 1.14211 1.05444
 C1017 C 0.91769 1.21148 1.07877
 C1018 C 1.06549 0.84186 1.07574
 H1019 H 1.05861 0.86070 1.06739
 C1020 C 1.08427 0.79395 1.09872
 O1021 O 1.09983 0.97548 0.87378
 O1022 O 1.13074 0.97360 0.84311
 C1023 C 1.10851 0.96593 0.85219
 C1024 C 1.09305 0.94538 0.83753
 C1025 C 1.10181 0.93693 0.81255
 H1026 H 1.11920 0.94617 0.80378
 O1027 O 0.90512 1.02998 0.86573
 O1028 O 0.87464 1.03050 0.83380
 C1029 C 0.89636 1.03923 0.84361
 C1030 C 0.91143 1.06063 0.82948
 C1031 C 0.90191 1.07173 0.80528
 H1032 H 0.88400 1.06363 0.79632
 O1033 O 0.97763 1.13316 0.89985
 O1034 O 0.97872 1.16430 0.86835
 C1035 C 0.96854 1.15471 0.88960
 C1036 C 0.94544 1.16830 0.90205
 C1037 C 0.93537 1.19230 0.89098
 H1038 H 0.94495 1.20128 0.87380
 O1039 O 1.02273 0.87157 0.90708
 O1040 O 1.02379 0.84062 0.87597
 C1041 C 1.03202 0.84988 0.89823
 C1042 C 1.05307 0.83545 0.91339
 C1043 C 1.06172 0.81061 0.90422
 H1044 H 1.05230 0.80166 0.88684
 O1045 O 1.13134 0.90252 0.98251
 O1046 O 1.16132 0.87063 0.98357
 C1047 C 1.15278 0.89262 0.97405
 C1048 C 1.16748 0.90628 0.95232
 C1049 C 1.19158 0.89578 0.94354
 H1050 H 1.19988 0.87827 0.95339
 O1051 O 0.86615 1.09916 0.97092
 O1052 O 0.83632 1.13120 0.96937
 C1053 C 0.84493 1.10889 0.96122
 C1054 C 0.83101 1.09450 0.93942
 C1055 C 0.80696 1.10400 0.92863
 H1056 H 0.79817 1.12158 0.93717
 O1057 O 1.03180 1.09730 0.86598
 O1058 O 1.03313 1.12833 0.83442
 C1059 C 1.04204 1.10673 0.84469
 C1060 C 1.06499 1.09264 0.83245
 C1061 C 1.07596 1.10117 0.80784
 H1062 H 1.06710 1.11799 0.79748
 O1063 O 0.97248 0.90731 0.86667
 O1064 O 0.97324 0.87631 0.83561
 C1065 C 0.96380 0.89788 0.84469
 C1066 C 0.94185 0.91179 0.83033
 C1067 C 0.93062 0.90154 0.80652
 H1068 H 0.93903 0.88389 0.79767
 O1069 O 1.14045 1.02603 0.90843
 O1070 O 1.17137 1.02417 0.87780
 C1071 C 1.16238 1.03423 0.89897
 C1072 C 1.17662 1.05649 0.91240
 C1073 C 1.20087 1.06683 0.90288
 H1074 H 1.20980 1.05755 0.88582
 O1075 O 0.86817 0.97722 0.90179
 O1076 O 0.83770 0.97754 0.86983
 C1077 C 0.84677 0.96801 0.89174
 C1078 C 0.83267 0.94550 0.90518
 C1079 C 0.80879 0.93559 0.89438
 H1080 H 0.80024 0.94517 0.87680
 O1081 O 1.10034 1.13114 0.97245
 O1082 O 1.13133 1.16255 0.97294
 C1083 C 1.10964 1.15312 0.96371
 C1084 C 1.09507 1.16785 0.94265
 C1085 C 1.10268 1.19395 0.93565
 H1086 H 1.11920 1.20343 0.94598
 O1087 O 0.90148 0.86700 0.97213
 O1088 O 0.87002 0.83617 0.97178
 C1089 C 0.89164 0.84552 0.96265
 C1090 C 0.90530 0.83216 0.94020
 C1091 C 0.89544 0.80821 0.92887
 H1092 H 0.87790 0.79906 0.93720
 O1093 O 0.90433 0.97787 0.86561
 O1094 O 0.87384 0.97847 0.83366
 C1095 C 0.89512 0.96911 0.84360
 C1096 C 0.90861 0.94710 0.82989
 C1097 C 0.89806 0.93701 0.80598
 H1098 H 0.88083 0.94636 0.79685
 O1099 O 1.10249 1.02758 0.87316
 O1100 O 1.13333 1.02561 0.84243
 C1101 C 1.11220 1.03590 0.85128
 C1102 C 1.09912 1.05799 0.83608
 C1103 C 1.10952 1.06671 0.81160
 H1104 H 1.12674 1.05679 0.80372
 O1105 O 0.97103 0.87016 0.90332
 O1106 O 0.97222 0.83919 0.87223
 C1107 C 0.96232 0.84834 0.89348
 C1108 C 0.94000 0.83386 0.90643
 C1109 C 0.92999 0.80996 0.89555
 H1110 H 0.93932 0.80162 0.87812
 O1111 O 1.02957 1.13363 0.90263
 O1112 O 1.03071 1.16497 0.87131
 C1113 C 1.03890 1.15550 0.89352
 C1114 C 1.06019 1.16937 0.90856
 C1115 C 1.06810 1.19553 0.90166
 H1116 H 1.05737 1.20616 0.88607
 O1117 O 0.86646 0.90459 0.97150
 O1118 O 0.83468 0.87408 0.97139
 C1119 C 0.84470 0.89563 0.96203
 C1120 C 0.83152 0.91007 0.93937
 C1121 C 0.80765 0.90037 0.92805
 H1122 H 0.79878 0.88256 0.93657
 O1123 O 1.13882 1.09690 0.97438
 O1124 O 1.16992 1.12817 0.97494
 C1125 C 1.16079 1.10626 0.96610
 C1126 C 1.17546 1.09190 0.94546
 C1127 C 1.19966 1.10190 0.93606
 H1128 H 1.20823 1.11973 0.94498
 O1129 O 1.02458 0.90748 0.86931
 O1130 O 1.02537 0.87667 0.83805
 C1131 C 1.03444 0.89822 0.84806
 C1132 C 1.05720 0.91218 0.83533
 C1133 C 1.06678 0.90362 0.81050
 H1134 H 1.05675 0.88751 0.80006
 O1135 O 0.97968 1.09596 0.86440
 O1136 O 0.98086 1.12700 0.83279
 C1137 C 0.97115 1.10545 0.84236
 C1138 C 0.94863 1.09226 0.82853
 C1139 C 0.93893 1.10289 0.80434
 H1140 H 0.94908 1.11964 0.79495
 O1141 O 0.86777 1.02959 0.90133
 O1142 O 0.83729 1.02977 0.86938
 C1143 C 0.84629 1.03859 0.89141
 C1144 C 0.83197 1.06006 0.90520
 C1145 C 0.80789 1.06958 0.89481
 H1146 H 0.79919 1.06026 0.87726
 O1147 O 1.13613 0.97370 0.91117
 O1148 O 1.16709 0.97176 0.88058
 C1149 C 1.15714 0.96328 0.90234
 C1150 C 1.16965 0.94060 0.91718
 C1151 C 1.19381 0.92981 0.90877
 H1152 H 1.20395 0.93936 0.89231
 O1153 O 1.09251 0.86834 0.98111
 O1154 O 1.12231 0.83627 0.98155
 C1155 C 1.10126 0.84663 0.97175
 C1156 C 1.08714 0.83379 0.94881
 C1157 C 1.09578 0.80913 0.93875
 H1158 H 1.11222 0.79894 0.94839
 O1159 O 0.90397 1.13422 0.96830
 O1160 O 0.87444 1.16651 0.96674
 C1161 C 0.89546 1.15588 0.95793
 C1162 C 0.90984 1.16868 0.93515
 C1163 C 0.90027 1.19258 0.92362
 H1164 H 0.88272 1.20123 0.93191
 Cu1165 Cu 1.11680 1.00089 0.89487
 Cu1166 Cu 1.15370 0.99846 0.85791
 Cu1167 Cu 0.88940 1.00376 0.88685
 Cu1168 Cu 0.85277 1.00418 0.84851
 Cu1169 Cu 1.11571 1.11111 0.99912
 Cu1170 Cu 1.15323 1.14851 0.99965
 Cu1171 Cu 1.10868 0.88791 1.00797
 Cu1172 Cu 1.14452 0.84970 1.00886
 Cu1173 Cu 0.88816 1.11481 0.99591
 Cu1174 Cu 0.85279 1.15356 0.99414
 Cu1175 Cu 0.88726 0.88876 0.99799
 Cu1176 Cu 0.84938 0.85206 0.99804
 Cu1177 Cu 1.00469 1.11192 0.88630
 Cu1178 Cu 1.00600 1.14921 0.84854
 Cu1179 Cu 0.99753 0.89232 0.88957
 Cu1180 Cu 0.99887 0.85514 0.85237
 C1181 C 1.07049 0.93318 0.84867
 H1182 H 1.06376 0.93950 0.86808
 C1183 C 1.08922 0.91591 0.79914
 C1184 C 0.93493 1.07097 0.84083
 H1185 H 0.94211 1.06302 0.85976
 C1186 C 0.91538 1.09326 0.79286
 C1187 C 0.93253 1.15677 0.92427
 H1188 H 0.93984 1.13819 0.93281
 C1189 C 0.91282 1.20472 0.90151
 C1190 C 1.06567 0.84680 0.93593
 H1191 H 1.05923 0.86611 0.94299
 C1192 C 1.08320 0.79759 0.91632
 C1193 C 1.15676 0.92876 0.93912
 H1194 H 1.13794 0.93661 0.94550
 C1195 C 1.20476 0.90705 0.92162
 C1196 C 0.84313 1.07231 0.92777
 H1197 H 0.86194 1.06523 0.93559
 C1198 C 0.79517 1.09147 0.90629
 C1199 C 1.07676 1.07091 0.84619
 H1200 H 1.06881 1.06433 0.86517
 C1201 C 1.09832 1.08812 0.79713
 C1202 C 0.93069 0.93467 0.84170
 H1203 H 0.93865 0.94234 0.86034
 C1204 C 0.90845 0.91405 0.79439
 C1205 C 1.16444 1.06898 0.93392
 H1206 H 1.14560 1.06148 0.94107
 C1207 C 1.21268 1.08962 0.91487
 C1208 C 0.84372 0.93279 0.92785
 H1209 H 0.86232 0.94012 0.93606
 C1210 C 0.79605 0.91309 0.90547
 C1211 C 1.07370 1.15576 0.92918
 H1212 H 1.06799 1.13540 0.93432
 C1213 C 1.08955 1.20785 0.91508
 C1214 C 0.92771 0.84456 0.92890
 H1215 H 0.93522 0.86315 0.93715
 C1216 C 0.90783 0.79684 0.90647
 O1217 O 0.96969 0.40222 0.36357
 O1218 O 0.96986 0.37118 0.33255
 C1219 C 0.96078 0.39287 0.34158
 C1220 C 0.93913 0.40724 0.32717
 C1221 C 0.92759 0.39750 0.30325
 H1222 H 0.93548 0.37952 0.29469
 O1223 O 1.02803 0.59877 0.36783
 O1224 O 1.02883 0.63017 0.33658
 C1225 C 1.03777 0.60840 0.34650
 C1226 C 1.06006 0.59459 0.33328
 C1227 C 1.06997 0.60489 0.30922
 H1228 H 1.06072 0.62232 0.30014
 O1229 O 0.87234 0.47471 0.40164
 O1230 O 0.83965 0.47556 0.37202
 C1231 C 0.84990 0.46621 0.39350
 C1232 C 0.83579 0.44516 0.40914
 C1233 C 0.81008 0.43675 0.40162
 H1234 H 0.80058 0.44628 0.38463
 O1235 O 1.13670 0.52583 0.40416
 O1236 O 1.16658 0.52528 0.37244
 C1237 C 1.15803 0.53483 0.39412
 C1238 C 1.17196 0.55744 0.40747
 C1239 C 1.19584 0.56846 0.39770
 H1240 H 1.20523 0.55953 0.38064
 O1241 O 0.90502 0.36739 0.47577
 O1242 O 0.87224 0.33799 0.47692
 C1243 C 0.89380 0.34636 0.46682
 C1244 C 0.90550 0.33219 0.44378
 C1245 C 0.89395 0.30852 0.43388
 H1246 H 0.87698 0.29989 0.44394
 O1247 O 1.09770 0.63237 0.47233
 O1248 O 1.12906 0.66340 0.47256
 C1249 C 1.10701 0.65444 0.46380
 C1250 C 1.09215 0.66967 0.44329
 C1251 C 1.09987 0.69577 0.43635
 H1252 H 1.11661 0.70498 0.44657
 O1253 O 0.90733 0.52715 0.36346
 O1254 O 0.87490 0.52849 0.33358
 C1255 C 0.89706 0.53721 0.34236
 C1256 C 0.91090 0.55979 0.32864
 C1257 C 0.90094 0.57116 0.30469
 H1258 H 0.88343 0.56258 0.29534
 O1259 O 1.09546 0.47530 0.37008
 O1260 O 1.12509 0.47456 0.33813
 C1261 C 1.10341 0.46616 0.34806
 C1262 C 1.08794 0.44506 0.33397
 C1263 C 1.09635 0.43665 0.30889
 H1264 H 1.11321 0.44637 0.29958
 O1265 O 1.02104 0.36688 0.40301
 O1266 O 1.02101 0.33570 0.37210
 C1267 C 1.03018 0.34521 0.39383
 C1268 C 1.05232 0.33130 0.40783
 C1269 C 1.06166 0.30707 0.39771
 H1270 H 1.05187 0.29808 0.38055
 O1271 O 0.97509 0.63618 0.40077
 O1272 O 0.97540 0.66766 0.36960
 C1273 C 0.96600 0.65797 0.39108
 C1274 C 0.94407 0.67151 0.40518
 C1275 C 0.93275 0.69581 0.39597
 H1276 H 0.94036 0.70553 0.37819
 O1277 O 0.87525 0.59588 0.47383
 O1278 O 0.84394 0.62645 0.47455
 C1279 C 0.85329 0.60497 0.46522
 C1280 C 0.83885 0.59077 0.44364
 C1281 C 0.81361 0.59931 0.43509
 H1282 H 0.80415 0.61573 0.44514
 O1283 O 1.13091 0.40185 0.47476
 O1284 O 1.16085 0.36992 0.47509
 C1285 C 1.15210 0.39198 0.46585
 C1286 C 1.16637 0.40552 0.44384
 C1287 C 1.18975 0.39429 0.43448
 H1288 H 1.19777 0.37667 0.44437
 O1289 O 0.97631 0.59831 0.36574
 O1290 O 0.97697 0.62963 0.33438
 C1291 C 0.96776 0.60773 0.34368
 C1292 C 0.94610 0.59376 0.32924
 C1293 C 0.93632 0.60432 0.30510
 H1294 H 0.94569 0.62184 0.29628
 O1295 O 1.02138 0.40483 0.36747
 O1296 O 1.02191 0.37395 0.33627
 C1297 C 1.03096 0.39573 0.34610
 C1298 C 1.05322 0.41032 0.33296
 C1299 C 1.06267 0.40184 0.30810
 H1300 H 1.05316 0.38515 0.29807
 O1301 O 1.13483 0.47311 0.40403
 O1302 O 1.16475 0.47206 0.37240
 C1303 C 1.15557 0.46287 0.39425
 C1304 C 1.16834 0.43957 0.40832
 C1305 C 1.19179 0.42759 0.39894
 H1306 H 1.20130 0.43621 0.38163
 O1307 O 0.87342 0.52654 0.40190
 O1308 O 0.84081 0.52741 0.37215
 C1309 C 0.85139 0.53576 0.39369
 C1310 C 0.83805 0.55675 0.40893
 C1311 C 0.81273 0.56518 0.40104
 H1312 H 0.80268 0.55564 0.38434
 O1313 O 0.91036 0.63401 0.47293
 O1314 O 0.87896 0.66447 0.47398
 C1315 C 0.90023 0.65569 0.46424
 C1316 C 0.91264 0.67038 0.44190
 C1317 C 0.90223 0.69487 0.43310
 H1318 H 0.88588 0.70371 0.44366
 O1319 O 1.09390 0.36557 0.47367
 O1320 O 1.12377 0.33359 0.47357
 C1321 C 1.10252 0.34379 0.46418
 C1322 C 1.08798 0.33064 0.44161
 C1323 C 1.09718 0.30650 0.43073
 H1324 H 1.11435 0.29691 0.43959
 O1325 O 1.09914 0.52767 0.36853
 O1326 O 1.12884 0.52701 0.33664
 C1327 C 1.10805 0.53696 0.34660
 C1328 C 1.09439 0.55996 0.33303
 C1329 C 1.10402 0.57088 0.30882
 H1330 H 1.12131 0.56216 0.29995
 O1331 O 0.90575 0.47470 0.36271
 O1332 O 0.87325 0.47582 0.33289
 C1333 C 0.89489 0.46601 0.34143
 C1334 C 0.90706 0.44352 0.32719
 C1335 C 0.89584 0.43380 0.30340
 H1336 H 0.87885 0.44388 0.29463
 O1337 O 1.02658 0.63580 0.40353
 O1338 O 1.02716 0.66749 0.37253
 C1339 C 1.03570 0.65781 0.39452
 C1340 C 1.05707 0.67160 0.40947
 C1341 C 1.06504 0.69778 0.40263
 H1342 H 1.05428 0.70842 0.38709
 O1343 O 0.96904 0.36704 0.40228
 O1344 O 0.96880 0.33582 0.37144
 C1345 C 0.95966 0.34529 0.39299
 C1346 C 0.93753 0.33160 0.40736
 C1347 C 0.92562 0.30787 0.39769
 H1348 H 0.93326 0.29923 0.37968
 O1349 O 1.13507 0.59675 0.47142
 O1350 O 1.16635 0.62786 0.47176
 C1351 C 1.15682 0.60619 0.46268
 C1352 C 1.17100 0.59223 0.44139
 C1353 C 1.19512 0.60242 0.43206
 H1354 H 1.20390 0.62002 0.44125
 O1355 O 0.87156 0.40633 0.47661
 O1356 O 0.83869 0.37704 0.47800
 C1357 C 0.84916 0.39810 0.46812
 C1358 C 0.83542 0.41250 0.44596
 C1359 C 0.80981 0.40456 0.43815
 H1360 H 0.79988 0.38866 0.44912
 Cu1361 Cu 0.99506 0.38829 0.38711
 Cu1362 Cu 0.99552 0.35105 0.35007
 Cu1363 Cu 1.00135 0.61421 0.38765
 Cu1364 Cu 1.00223 0.65179 0.35000
 Cu1365 Cu 0.89312 0.50065 0.38524
 Cu1366 Cu 0.85394 0.50192 0.34958
 Cu1367 Cu 1.11379 0.50058 0.38996
 Cu1368 Cu 1.14926 0.49947 0.35174
 C1369 C 0.92885 0.43040 0.33861
 H1370 H 0.93730 0.43779 0.35715
 C1371 C 0.90575 0.41082 0.29111
 C1372 C 1.07227 0.57197 0.34496
 H1373 H 1.06488 0.56407 0.36370
 C1374 C 1.09179 0.59340 0.29672
 C1375 C 0.84821 0.43297 0.43146
 H1376 H 0.86813 0.43899 0.43719
 C1377 C 0.79697 0.41627 0.41601
 C1378 C 1.15986 0.56954 0.42938
 H1379 H 1.14116 0.56180 0.43664
 C1380 C 1.20748 0.59111 0.41006
 C1381 C 0.92739 0.34331 0.43054
 H1382 H 0.93612 0.36173 0.43792
 C1383 C 0.90376 0.29599 0.41097
 C1384 C 1.07059 0.65784 0.42995
 H1385 H 1.06482 0.63748 0.43500
 C1386 C 1.08664 0.70995 0.41598
 C1387 C 0.93359 0.57127 0.34063
 H1388 H 0.94101 0.56326 0.35945
 C1389 C 0.91357 0.59364 0.29297
 C1390 C 1.06606 0.43205 0.34580
 H1391 H 1.05955 0.43833 0.36529
 C1392 C 1.08435 0.41490 0.29614
 C1393 C 1.06546 0.34285 0.42995
 H1394 H 1.05854 0.36173 0.43765
 C1395 C 1.08421 0.29477 0.40852
 C1396 C 0.93371 0.65912 0.42816
 H1397 H 0.94166 0.64016 0.43509
 C1398 C 0.91171 0.70759 0.41007
 C1399 C 0.85087 0.56938 0.43047
 H1400 H 0.87056 0.56306 0.43648
 C1401 C 0.80060 0.58662 0.41362
 C1402 C 1.15595 0.42826 0.43090
 H1403 H 1.13767 0.43670 0.43804
 C1404 C 1.20256 0.40464 0.41202
 O1405 O 1.02906 0.40315 0.63406
 O1406 O 1.02959 0.37177 0.66541
 C1407 C 1.03836 0.39369 0.65582
 C1408 C 1.05975 0.40825 0.66997
 C1409 C 1.06838 0.39982 0.69536
 H1410 H 1.05893 0.38273 0.70490
 O1411 O 0.98334 0.59969 0.63700
 O1412 O 0.98466 0.63197 0.66680
 C1413 C 0.97506 0.60998 0.65845
 C1414 C 0.95333 0.59664 0.67311
 C1415 C 0.94317 0.60786 0.69644
 H1416 H 0.95214 0.62586 0.70459
 O1417 O 0.87952 0.52892 0.60186
 O1418 O 0.84816 0.52920 0.63217
 C1419 C 0.85767 0.53778 0.61028
 C1420 C 0.84340 0.55847 0.59458
 C1421 C 0.81817 0.56692 0.60232
 H1422 H 0.80888 0.55725 0.61922
 O1423 O 1.13305 0.47145 0.59760
 O1424 O 1.16522 0.47126 0.62781
 C1425 C 1.15465 0.46182 0.60670
 C1426 C 1.16755 0.43912 0.59308
 C1427 C 1.19198 0.42960 0.60266
 H1428 H 1.20151 0.43941 0.61949
 O1429 O 1.09428 0.36413 0.52597
 O1430 O 1.12412 0.33210 0.52594
 C1431 C 1.10295 0.34192 0.53493
 C1432 C 1.08871 0.32803 0.55671
 C1433 C 1.09683 0.30268 0.56612
 H1434 H 1.11331 0.29292 0.55676
 O1435 O 0.91347 0.63244 0.52498
 O1436 O 0.88207 0.66293 0.52565
 C1437 C 0.90411 0.65393 0.53424
 C1438 C 0.91836 0.66829 0.55580
 C1439 C 0.90885 0.69294 0.56448
 H1440 H 0.89187 0.70194 0.55452
 O1441 O 0.91448 0.47720 0.64052
 O1442 O 0.88337 0.47721 0.67107
 C1443 C 0.90467 0.46776 0.66191
 C1444 C 0.91762 0.44464 0.67522
 C1445 C 0.90780 0.43361 0.69913
 H1446 H 0.89170 0.44347 0.70905
 O1447 O 1.10135 0.52644 0.63431
 O1448 O 1.13353 0.52570 0.66449
 C1449 C 1.11207 0.53561 0.65555
 C1450 C 1.09979 0.55845 0.66954
 C1451 C 1.11059 0.56825 0.69363
 H1452 H 1.12764 0.55845 0.70261
 O1453 O 0.97575 0.36744 0.59877
 O1454 O 0.97636 0.33589 0.62994
 C1455 C 0.96683 0.34559 0.60835
 C1456 C 0.94482 0.33158 0.59457
 C1457 C 0.93515 0.30722 0.60466
 H1458 H 0.94459 0.29823 0.62210
 O1459 O 1.03408 0.63438 0.59765
 O1460 O 1.03545 0.66679 0.62730
 C1461 C 1.04367 0.65644 0.60589
 C1462 C 1.06516 0.66968 0.59084
 C1463 C 1.07609 0.69406 0.59962
 H1464 H 1.06766 0.70393 0.61667
 O1465 O 0.87384 0.40642 0.52914
 O1466 O 0.84103 0.37707 0.53038
 C1467 C 0.85218 0.39825 0.53914
 C1468 C 0.84017 0.41300 0.56165
 C1469 C 0.81522 0.40520 0.57144
 H1470 H 0.80434 0.38941 0.56142
 O1471 O 1.13383 0.59370 0.52303
 O1472 O 1.16550 0.62443 0.52318
 C1473 C 1.15586 0.60243 0.53182
 C1474 C 1.17017 0.58729 0.55276
 C1475 C 1.19537 0.59580 0.56111
 H1476 H 1.20475 0.61287 0.55147
 O1477 O 1.03478 0.59845 0.63511
 O1478 O 1.03647 0.63059 0.66503
 C1479 C 1.04484 0.60842 0.65619
 C1480 C 1.06691 0.59417 0.66992
 C1481 C 1.07803 0.60378 0.69394
 H1482 H 1.07002 0.62174 0.70247
 O1483 O 0.97790 0.40330 0.63586
 O1484 O 0.97850 0.37172 0.66700
 C1485 C 0.96976 0.39381 0.65795
 C1486 C 0.94947 0.40827 0.67293
 C1487 C 0.93966 0.39762 0.69687
 H1488 H 0.94772 0.37913 0.70493
 O1489 O 1.13425 0.52362 0.59499
 O1490 O 1.16658 0.52333 0.62505
 C1491 C 1.15658 0.53208 0.60324
 C1492 C 1.17059 0.55297 0.58777
 C1493 C 1.19576 0.56187 0.59598
 H1494 H 1.20560 0.55222 0.61279
 O1495 O 0.87982 0.47709 0.60216
 O1496 O 0.84856 0.47741 0.63257
 C1497 C 0.85796 0.46826 0.61104
 C1498 C 0.84323 0.44696 0.59660
 C1499 C 0.81834 0.43879 0.60590
 H1500 H 0.80991 0.44845 0.62312
 O1501 O 1.10036 0.63270 0.52428
 O1502 O 1.13203 0.66341 0.52412
 C1503 C 1.11051 0.65424 0.53335
 C1504 C 1.09768 0.66855 0.55527
 C1505 C 1.10822 0.69303 0.56418
 H1506 H 1.12516 0.70194 0.55427
 O1507 O 0.90662 0.36662 0.52819
 O1508 O 0.87393 0.33713 0.52944
 C1509 C 0.89630 0.34541 0.53794
 C1510 C 0.91019 0.33110 0.56009
 C1511 C 0.90052 0.30665 0.57063
 H1512 H 0.88290 0.29775 0.56189
 O1513 O 1.09783 0.47421 0.63453
 O1514 O 1.12992 0.47344 0.66484
 C1515 C 1.10768 0.46497 0.65609
 C1516 C 1.09351 0.44340 0.67040
 C1517 C 1.10201 0.43472 0.69581
 H1518 H 1.11817 0.44517 0.70565
 O1519 O 0.91493 0.52974 0.63990
 O1520 O 0.88372 0.53000 0.67032
 C1521 C 0.90529 0.53926 0.66113
 C1522 C 0.91893 0.56204 0.67444
 C1523 C 0.90885 0.57358 0.69774
 H1524 H 0.89177 0.56450 0.70714
 O1525 O 0.98259 0.63382 0.59784
 O1526 O 0.98363 0.66634 0.62738
 C1527 C 0.97395 0.65598 0.60622
 C1528 C 0.95200 0.66931 0.59141
 C1529 C 0.94176 0.69383 0.60012
 H1530 H 0.95065 0.70366 0.61725
 O1531 O 1.02709 0.36654 0.59764
 O1532 O 1.02759 0.33509 0.62891
 C1533 C 1.03577 0.34445 0.60682
 C1534 C 1.05591 0.32964 0.59197
 C1535 C 1.06409 0.30439 0.60102
 H1536 H 1.05485 0.29541 0.61841
 O1537 O 1.13163 0.40016 0.52718
 O1538 O 1.16162 0.36830 0.52749
 C1539 C 1.15287 0.39015 0.53675
 C1540 C 1.16701 0.40394 0.55922
 C1541 C 1.19160 0.39462 0.56934
 H1542 H 1.20053 0.37750 0.56008
 O1543 O 0.87690 0.59585 0.52610
 O1544 O 0.84554 0.62639 0.52642
 C1545 C 0.85551 0.60487 0.53552
 C1546 C 0.84231 0.59080 0.55777
 C1547 C 0.81717 0.59900 0.56580
 H1548 H 0.80712 0.61492 0.55494
 Cu1549 Cu 1.00240 0.38831 0.61340
 Cu1550 Cu 1.00312 0.35038 0.65094
 Cu1551 Cu 1.00855 0.61333 0.61397
 Cu1552 Cu 1.01019 0.65220 0.64962
 Cu1553 Cu 0.89258 0.38954 0.50238
 Cu1554 Cu 0.85317 0.35444 0.50381
 Cu1555 Cu 1.10969 0.38608 0.50049
 Cu1556 Cu 1.14561 0.34783 0.50048
 Cu1557 Cu 0.89715 0.61141 0.49932
 Cu1558 Cu 0.85948 0.64813 0.50029
 Cu1559 Cu 1.11349 0.61081 0.49765
 Cu1560 Cu 1.15141 0.64788 0.49791
 Cu1561 Cu 0.90054 0.50333 0.61827
 Cu1562 Cu 0.86288 0.50349 0.65468
 Cu1563 Cu 1.11334 0.49905 0.61241
 Cu1564 Cu 1.15206 0.49841 0.64857
 C1565 C 1.07222 0.43022 0.65776
 H1566 H 1.06584 0.43659 0.63796
 C1567 C 1.08956 0.41276 0.70834
 C1568 C 0.94130 0.57362 0.66252
 H1569 H 0.94887 0.56517 0.64430
 C1570 C 0.92072 0.59680 0.70870
 C1571 C 0.85526 0.57040 0.57212
 H1572 H 0.87487 0.56430 0.56622
 C1573 C 0.80505 0.58750 0.58816
 C1574 C 1.15531 0.42630 0.57127
 H1575 H 1.13633 0.43346 0.56398
 C1576 C 1.20430 0.40745 0.59121
 C1577 C 1.06800 0.34115 0.56957
 H1578 H 1.06196 0.36088 0.56278
 C1579 C 1.08440 0.29069 0.58831
 C1580 C 0.94015 0.65673 0.56913
 H1581 H 0.94737 0.63750 0.56264
 C1582 C 0.91995 0.70554 0.58681
 C1583 C 0.93862 0.43192 0.66247
 H1584 H 0.94593 0.43992 0.64374
 C1585 C 0.91857 0.40978 0.70987
 C1586 C 1.07777 0.57136 0.65813
 H1587 H 1.06952 0.56407 0.63945
 C1588 C 1.09979 0.59074 0.70619
 C1589 C 0.93252 0.34314 0.57208
 H1590 H 0.93983 0.36215 0.56446
 C1591 C 0.91314 0.29448 0.59296
 C1592 C 1.07600 0.65712 0.56853
 H1593 H 1.06808 0.63803 0.56196
 C1594 C 1.09794 0.70560 0.58658
 C1595 C 0.85402 0.43406 0.57435
 H1596 H 0.87341 0.44002 0.56729
 C1597 C 0.80437 0.41780 0.59386
 C1598 C 1.15799 0.56563 0.56594
 H1599 H 1.13825 0.55933 0.55988
 C1600 C 1.20792 0.58367 0.58303
 O1601 O 0.47344 0.89964 0.36362
 O1602 O 0.47454 0.86873 0.33251
 C1603 C 0.46496 0.89021 0.34151
 C1604 C 0.44320 0.90422 0.32690
 C1605 C 0.43206 0.89432 0.30281
 H1606 H 0.44035 0.87655 0.29415
 O1607 O 0.52885 1.09855 0.36741
 O1608 O 0.52838 1.12962 0.33589
 C1609 C 0.53847 1.10841 0.34603
 C1610 C 0.56180 1.09490 0.33342
 C1611 C 0.57380 1.10491 0.30973
 H1612 H 0.56576 1.12266 0.30025
 O1613 O 0.37356 0.96951 0.40104
 O1614 O 0.34198 0.96940 0.37018
 C1615 C 0.35181 0.96028 0.39197
 C1616 C 0.33769 0.93875 0.40678
 C1617 C 0.31199 0.93138 0.39890
 H1618 H 0.30256 0.94174 0.38224
 O1619 O 0.63378 1.02605 0.40863
 O1620 O 0.66482 1.02734 0.37806
 C1621 C 0.65483 1.03646 0.39937
 C1622 C 0.66689 1.06025 0.41283
 C1623 C 0.69113 1.07129 0.40418
 H1624 H 0.70192 1.06114 0.38878
 O1625 O 0.40571 0.86112 0.47402
 O1626 O 0.37520 0.82929 0.47359
 C1627 C 0.39644 0.83939 0.46451
 C1628 C 0.40970 0.82619 0.44195
 C1629 C 0.39944 0.80209 0.43191
 H1630 H 0.38268 0.79266 0.44166
 O1631 O 0.59075 1.13864 0.47476
 O1632 O 0.62138 1.17036 0.47571
 C1633 C 0.59994 1.16081 0.46621
 C1634 C 0.58597 1.17492 0.44424
 C1635 C 0.59572 1.19927 0.43390
 H1636 H 0.61310 1.20814 0.44309
 O1637 O 0.40766 1.02315 0.36386
 O1638 O 0.37634 1.02321 0.33276
 C1639 C 0.39800 1.03252 0.34220
 C1640 C 0.41197 1.05482 0.32833
 C1641 C 0.40207 1.06572 0.30418
 H1642 H 0.38446 1.05717 0.29498
 O1643 O 0.59795 0.97329 0.37126
 O1644 O 0.62888 0.97398 0.34058
 C1645 C 0.60727 0.96440 0.34963
 C1646 C 0.59315 0.94227 0.33531
 C1647 C 0.60271 0.93266 0.31084
 H1648 H 0.61991 0.94215 0.30217
 O1649 O 0.52475 0.86507 0.40389
 O1650 O 0.52565 0.83408 0.37282
 C1651 C 0.53432 0.84359 0.39476
 C1652 C 0.55643 0.82986 0.40897
 C1653 C 0.56574 0.80561 0.39895
 H1654 H 0.55584 0.79644 0.38196
 O1655 O 0.47259 1.13084 0.40152
 O1656 O 0.47122 1.16223 0.37032
 C1657 C 0.46196 1.15185 0.39173
 C1658 C 0.43838 1.16377 0.40534
 C1659 C 0.42668 1.18795 0.39613
 H1660 H 0.43506 1.19810 0.37900
 O1661 O 0.36546 1.08643 0.47375
 O1662 O 0.33399 1.11686 0.47288
 C1663 C 0.34382 1.09530 0.46426
 C1664 C 0.33073 1.08119 0.44199
 C1665 C 0.30595 1.08964 0.43244
 H1666 H 0.29546 1.10487 0.44322
 O1667 O 0.63511 0.90002 0.47598
 O1668 O 0.66610 0.86915 0.47597
 C1669 C 0.65673 0.89107 0.46703
 C1670 C 0.67078 0.90585 0.44553
 C1671 C 0.69511 0.89651 0.43628
 H1672 H 0.70396 0.87902 0.44566
 O1673 O 0.47702 1.09464 0.36504
 O1674 O 0.47630 1.12582 0.33356
 C1675 C 0.46818 1.10353 0.34286
 C1676 C 0.44717 1.08871 0.32838
 C1677 C 0.43752 1.09872 0.30395
 H1678 H 0.44679 1.11616 0.29484
 O1679 O 0.52527 0.90270 0.36801
 O1680 O 0.52654 0.87187 0.33680
 C1681 C 0.53531 0.89366 0.34680
 C1682 C 0.55789 0.90808 0.33402
 C1683 C 0.56778 0.89904 0.30966
 H1684 H 0.55821 0.88219 0.29990
 O1685 O 0.63609 0.97302 0.40700
 O1686 O 0.66713 0.97425 0.37645
 C1687 C 0.65777 0.96422 0.39778
 C1688 C 0.67157 0.94145 0.41154
 C1689 C 0.69602 0.93154 0.40235
 H1690 H 0.70548 0.94154 0.38574
 O1691 O 0.37036 1.02127 0.39953
 O1692 O 0.33911 1.02110 0.36832
 C1693 C 0.34828 1.02963 0.39036
 C1694 C 0.33325 1.04967 0.40529
 C1695 C 0.30855 1.05858 0.39574
 H1696 H 0.30015 1.05036 0.37751
 O1697 O 0.40072 1.12436 0.47220
 O1698 O 0.36931 1.15480 0.47149
 C1699 C 0.39091 1.14578 0.46242
 C1700 C 0.40417 1.16037 0.43999
 C1701 C 0.39320 1.18440 0.43041
 H1702 H 0.37577 1.19230 0.43991
 O1703 O 0.59772 0.86403 0.47486
 O1704 O 0.62847 0.83294 0.47426
 C1705 C 0.60687 0.84267 0.46507
 C1706 C 0.59241 0.82948 0.44247
 C1707 C 0.60178 0.80550 0.43139
 H1708 H 0.61927 0.79610 0.43984
 O1709 O 0.59835 1.02620 0.37090
 O1710 O 0.62937 1.02669 0.34030
 C1711 C 0.60796 1.03596 0.34947
 C1712 C 0.59498 1.05899 0.33538
 C1713 C 0.60621 1.06921 0.31187
 H1714 H 0.62341 1.05945 0.30377
 O1715 O 0.40704 0.97076 0.36238
 O1716 O 0.37562 0.97094 0.33137
 C1717 C 0.39723 0.96183 0.34068
 C1718 C 0.41042 0.93984 0.32668
 C1719 C 0.39977 0.93006 0.30270
 H1720 H 0.38270 0.93985 0.29374
 O1721 O 0.52428 1.13580 0.40322
 O1722 O 0.52324 1.16708 0.37185
 C1723 C 0.53206 1.15830 0.39406
 C1724 C 0.55247 1.17368 0.40886
 C1725 C 0.56220 1.19811 0.39882
 H1726 H 0.55346 1.20665 0.38081
 O1727 O 0.47279 0.86366 0.40172
 O1728 O 0.47370 0.83265 0.37069
 C1729 C 0.46409 0.84173 0.39216
 C1730 C 0.44220 0.82723 0.40606
 C1731 C 0.43137 0.80303 0.39609
 H1732 H 0.43984 0.79445 0.37843
 O1733 O 0.62642 1.10152 0.47400
 O1734 O 0.65716 1.13314 0.47488
 C1735 C 0.64811 1.11123 0.46556
 C1736 C 0.66304 1.09701 0.44470
 C1737 C 0.68727 1.10752 0.43583
 H1738 H 0.69507 1.12584 0.44445
 O1739 O 0.37110 0.89896 0.47402
 O1740 O 0.34028 0.86744 0.47285
 C1741 C 0.34977 0.88957 0.46415
 C1742 C 0.33635 0.90433 0.44196
 C1743 C 0.31054 0.89723 0.43362
 H1744 H 0.30025 0.88144 0.44425
 Cu1745 Cu 0.49870 0.88585 0.38734
 Cu1746 Cu 0.50032 0.84877 0.35014
 Cu1747 Cu 0.50090 1.11191 0.38739
 Cu1748 Cu 0.49967 1.14925 0.34978
 Cu1749 Cu 0.39294 0.99637 0.38468
 Cu1750 Cu 0.35518 0.99612 0.34751
 Cu1751 Cu 0.61360 0.99938 0.39254
 Cu1752 Cu 0.65059 1.00058 0.35588
 C1753 C 0.43229 0.92712 0.33836
 H1754 H 0.44027 0.93459 0.35708
 C1755 C 0.41009 0.90727 0.29055
 C1756 C 0.57273 1.07185 0.34588
 H1757 H 0.56420 1.06412 0.36418
 C1758 C 0.59623 1.09205 0.29878
 C1759 C 0.34970 0.92527 0.42849
 H1760 H 0.36967 0.93074 0.43456
 C1761 C 0.29821 0.91076 0.41202
 C1762 C 0.65309 1.07329 0.43323
 H1763 H 0.63424 1.06529 0.43980
 C1764 C 0.70132 1.09518 0.41544
 C1765 C 0.43119 0.83846 0.42909
 H1766 H 0.43891 0.85726 0.43667
 C1767 C 0.40971 0.79037 0.40894
 C1768 C 0.56408 1.16261 0.43190
 H1769 H 0.55687 1.14355 0.43949
 C1770 C 0.58384 1.21113 0.41113
 C1771 C 0.43463 1.06648 0.34020
 H1772 H 0.44189 1.05892 0.35927
 C1773 C 0.41471 1.08794 0.29211
 C1774 C 0.57062 0.92988 0.34662
 H1775 H 0.56336 0.93678 0.36562
 C1776 C 0.59015 0.91092 0.29789
 C1777 C 0.56966 0.84153 0.43097
 H1778 H 0.56266 0.86038 0.43865
 C1779 C 0.58853 0.79363 0.40947
 C1780 C 0.42687 1.15030 0.42745
 H1781 H 0.43528 1.13164 0.43463
 C1782 C 0.40401 1.19850 0.40874
 C1783 C 0.34411 1.06096 0.42853
 H1784 H 0.36347 1.05466 0.43561
 C1785 C 0.29504 1.07891 0.40890
 C1786 C 0.65933 0.92845 0.43324
 H1787 H 0.64039 0.93550 0.44015
 C1788 C 0.70795 0.90887 0.41467
 O1789 O 0.53184 0.89931 0.63203
 O1790 O 0.53231 0.86855 0.66393
 C1791 C 0.54119 0.89029 0.65401
 C1792 C 0.56302 0.90513 0.66763
 C1793 C 0.57499 0.89527 0.69130
 H1794 H 0.56753 0.87702 0.70042
 O1795 O 0.47317 1.08965 0.63095
 O1796 O 0.47182 1.11987 0.66279
 C1797 C 0.46394 1.09785 0.65288
 C1798 C 0.44329 1.08209 0.66668
 C1799 C 0.43480 1.08974 0.69207
 H1800 H 0.44475 1.10613 0.70213
 O1801 O 0.36614 1.01750 0.59402
 O1802 O 0.33666 1.01620 0.62618
 C1803 C 0.34507 1.02615 0.60439
 C1804 C 0.33064 1.04853 0.59143
 C1805 C 0.30723 1.05811 0.60250
 H1806 H 0.29918 1.04836 0.62009
 O1807 O 0.63401 0.97245 0.59565
 O1808 O 0.66544 0.97413 0.62659
 C1809 C 0.65572 0.96378 0.60549
 C1810 C 0.66934 0.94081 0.59291
 C1811 C 0.69305 0.93092 0.60403
 H1812 H 0.70189 0.94087 0.62115
 O1813 O 0.59963 0.86090 0.52720
 O1814 O 0.63034 0.82977 0.52694
 C1815 C 0.60898 0.83894 0.53617
 C1816 C 0.59518 0.82473 0.55825
 C1817 C 0.60443 0.80015 0.56878
 H1818 H 0.62149 0.79108 0.55983
 O1819 O 0.40159 1.12452 0.52458
 O1820 O 0.37034 1.15517 0.52368
 C1821 C 0.39207 1.14623 0.53305
 C1822 C 0.40594 1.16082 0.55457
 C1823 C 0.39661 1.18568 0.56278
 H1824 H 0.37984 1.19464 0.55245
 O1825 O 0.40495 0.96545 0.62859
 O1826 O 0.37535 0.96407 0.66064
 C1827 C 0.39688 0.95599 0.65069
 C1828 C 0.41251 0.93530 0.66499
 C1829 C 0.40409 0.92553 0.68990
 H1830 H 0.38603 0.93319 0.69821
 O1831 O 0.59798 1.02540 0.63108
 O1832 O 0.62948 1.02706 0.66195
 C1833 C 0.60752 1.03534 0.65252
 C1834 C 0.59304 1.05704 0.66619
 C1835 C 0.60254 1.06799 0.69046
 H1836 H 0.62035 1.05994 0.69950
 O1837 O 0.47962 0.86256 0.59544
 O1838 O 0.47956 0.83189 0.62746
 C1839 C 0.47032 0.84106 0.60547
 C1840 C 0.44797 0.82700 0.59195
 C1841 C 0.43818 0.80285 0.60256
 H1842 H 0.44780 0.79400 0.61996
 O1843 O 0.52262 1.13074 0.59599
 O1844 O 0.52104 1.16096 0.62782
 C1845 C 0.53055 1.15269 0.60608
 C1846 C 0.55172 1.16823 0.59289
 C1847 C 0.56057 1.19262 0.60361
 H1848 H 0.55100 1.20071 0.62102
 O1849 O 0.36772 0.89525 0.52596
 O1850 O 0.33720 0.86345 0.52495
 C1851 C 0.34608 0.88520 0.53445
 C1852 C 0.33169 0.89872 0.55608
 C1853 C 0.30723 0.88891 0.56543
 H1854 H 0.29820 0.87153 0.55613
 O1855 O 0.62698 1.09993 0.52550
 O1856 O 0.65781 1.13149 0.52636
 C1857 C 0.64886 1.10902 0.53438
 C1858 C 0.66403 1.09348 0.55439
 C1859 C 0.68944 1.10204 0.56211
 H1860 H 0.69818 1.11969 0.55289
 O1861 O 0.52479 1.09225 0.63063
 O1862 O 0.52336 1.12246 0.66247
 C1863 C 0.53358 1.10165 0.65250
 C1864 C 0.55650 1.08892 0.66611
 C1865 C 0.56606 1.09929 0.69028
 H1866 H 0.55581 1.11584 0.69935
 O1867 O 0.48008 0.89942 0.63122
 O1868 O 0.48057 0.86884 0.66333
 C1869 C 0.47125 0.89022 0.65313
 C1870 C 0.44919 0.90376 0.66646
 C1871 C 0.44059 0.89445 0.69144
 H1872 H 0.45103 0.87828 0.70150
 O1873 O 0.63231 1.02502 0.59285
 O1874 O 0.66389 1.02652 0.62366
 C1875 C 0.65382 1.03491 0.60178
 C1876 C 0.66668 1.05713 0.58715
 C1877 C 0.69200 1.06613 0.59484
 H1878 H 0.70280 1.05563 0.61050
 O1879 O 0.36617 0.96517 0.59403
 O1880 O 0.33648 0.96389 0.62599
 C1881 C 0.34512 0.95540 0.60395
 C1882 C 0.33120 0.93333 0.59006
 C1883 C 0.30670 0.92357 0.59908
 H1884 H 0.29736 0.93376 0.61535
 O1885 O 0.59104 1.13675 0.52690
 O1886 O 0.62168 1.16843 0.52804
 C1887 C 0.60029 1.15828 0.53681
 C1888 C 0.58621 1.17100 0.55921
 C1889 C 0.59496 1.19541 0.57025
 H1890 H 0.61144 1.20584 0.56116
 O1891 O 0.40712 0.86194 0.52652
 O1892 O 0.37669 0.83006 0.52616
 C1893 C 0.39813 0.83996 0.53568
 C1894 C 0.41250 0.82637 0.55811
 C1895 C 0.40289 0.80224 0.56924
 H1896 H 0.38510 0.79350 0.56079
 O1897 O 0.59749 0.97325 0.63126
 O1898 O 0.62888 0.97484 0.66228
 C1899 C 0.60742 0.96486 0.65314
 C1900 C 0.59473 0.94233 0.66742
 C1901 C 0.60594 0.93265 0.69128
 H1902 H 0.62289 0.94284 0.70013
 O1903 O 0.40363 1.01723 0.62961
 O1904 O 0.37414 1.01571 0.66180
 C1905 C 0.39520 1.02540 0.65188
 C1906 C 0.40966 1.04679 0.66615
 C1907 C 0.40136 1.05479 0.69148
 H1908 H 0.38479 1.04471 0.70092
 O1909 O 0.47124 1.12757 0.59514
 O1910 O 0.46971 1.15792 0.62683
 C1911 C 0.46132 1.14867 0.60471
 C1912 C 0.43952 1.16214 0.58999
 C1913 C 0.42982 1.18711 0.59814
 H1914 H 0.43857 1.19670 0.61544
 O1915 O 0.53127 0.86182 0.59628
 O1916 O 0.53115 0.83103 0.62817
 C1917 C 0.54002 0.84006 0.60623
 C1918 C 0.56127 0.82556 0.59253
 C1919 C 0.57053 0.80105 0.60268
 H1920 H 0.56119 0.79219 0.62008
 O1921 O 0.63443 0.89939 0.52822
 O1922 O 0.66541 0.86853 0.52851
 C1923 C 0.65596 0.89011 0.53777
 C1924 C 0.66955 0.90449 0.56019
 C1925 C 0.69332 0.89486 0.57181
 H1926 H 0.70187 0.87683 0.56396
 O1927 O 0.36375 1.08905 0.52585
 O1928 O 0.33247 1.11962 0.52502
 C1929 C 0.34211 1.09822 0.53483
 C1930 C 0.32878 1.08399 0.55741
 C1931 C 0.30496 1.09326 0.56869
 H1932 H 0.29554 1.11093 0.56040
 Cu1933 Cu 0.50586 0.88390 0.61056
 Cu1934 Cu 0.50591 0.84700 0.64894
 Cu1935 Cu 0.49798 1.10702 0.60993
 Cu1936 Cu 0.49625 1.14326 0.64828
 Cu1937 Cu 0.39094 0.88241 0.50036
 Cu1938 Cu 0.35442 0.84436 0.49924
 Cu1939 Cu 0.61365 0.88407 0.50164
 Cu1940 Cu 0.65063 0.84703 0.50132
 Cu1941 Cu 0.38592 1.10298 0.49931
 Cu1942 Cu 0.34845 1.13973 0.49811
 Cu1943 Cu 0.60550 1.11621 0.50022
 Cu1944 Cu 0.64255 1.15412 0.50136
 Cu1945 Cu 0.38809 0.99140 0.60819
 Cu1946 Cu 0.35260 0.98977 0.64684
 Cu1947 Cu 0.61236 0.99900 0.60957
 Cu1948 Cu 0.65013 1.00083 0.64666
 C1949 C 0.57305 0.92875 0.65595
 H1950 H 0.56453 0.93613 0.63735
 C1951 C 0.59671 0.90893 0.70301
 C1952 C 0.43078 1.06042 0.65393
 H1953 H 0.43691 1.05472 0.63412
 C1954 C 0.41344 1.07651 0.70431
 C1955 C 0.34107 1.06139 0.56882
 H1956 H 0.35939 1.05419 0.56056
 C1957 C 0.29403 1.08020 0.59134
 C1958 C 0.65792 0.92759 0.57087
 H1959 H 0.63949 0.93497 0.56243
 C1960 C 0.70533 0.90807 0.59382
 C1961 C 0.57341 0.83698 0.57013
 H1962 H 0.56645 0.85608 0.56250
 C1963 C 0.59204 0.78804 0.59110
 C1964 C 0.42760 1.14934 0.56801
 H1965 H 0.43464 1.12992 0.56186
 C1966 C 0.40841 1.19908 0.58434
 C1967 C 0.43527 0.92449 0.65350
 H1968 H 0.44160 0.93154 0.63404
 C1969 C 0.41818 0.90521 0.70335
 C1970 C 0.56994 1.06765 0.65432
 H1971 H 0.56273 1.05976 0.63546
 C1972 C 0.58907 1.08931 0.70261
 C1973 C 0.43520 0.83845 0.56954
 H1974 H 0.44249 0.85728 0.56149
 C1975 C 0.41570 0.79026 0.59156
 C1976 C 0.56446 1.15776 0.57061
 H1977 H 0.55786 1.13873 0.56259
 C1978 C 0.58235 1.20621 0.59279
 C1979 C 0.34330 0.92100 0.56844
 H1980 H 0.36234 0.92834 0.56167
 C1981 C 0.29454 0.90108 0.58707
 C1982 C 0.65288 1.07079 0.56673
 H1983 H 0.63306 1.06434 0.56111
 C1984 C 0.70327 1.08882 0.58257
 O1985 O 0.47100 0.40227 0.86364
 O1986 O 0.47022 0.37040 0.83346
 C1987 C 0.46145 0.39242 0.84224
 C1988 C 0.43953 0.40674 0.82818
 C1989 C 0.42868 0.39770 0.80370
 H1990 H 0.43670 0.37999 0.79462
 O1991 O 0.52161 0.60115 0.87028
 O1992 O 0.52135 0.63308 0.83952
 C1993 C 0.53048 0.61110 0.84867
 C1994 C 0.55169 0.59715 0.83403
 C1995 C 0.56112 0.60794 0.80988
 H1996 H 0.55273 0.62629 0.80185
 O1997 O 0.37045 0.47262 0.90373
 O1998 O 0.33874 0.47224 0.87301
 C1999 C 0.34874 0.46321 0.89477
 C2000 C 0.33511 0.44121 0.90934
 C2001 C 0.31066 0.43173 0.89980
 H2002 H 0.30157 0.44119 0.88243
 O2003 O 0.62647 0.52627 0.89901
 O2004 O 0.65702 0.52784 0.86791
 C2005 C 0.64777 0.53624 0.88977
 C2006 C 0.66149 0.55821 0.90434
 C2007 C 0.68613 0.56821 0.89562
 H2008 H 0.69560 0.55915 0.87868
 O2009 O 0.40509 0.36485 0.97635
 O2010 O 0.37433 0.33326 0.97591
 C2011 C 0.39572 0.34318 0.96691
 C2012 C 0.40907 0.32970 0.94460
 C2013 C 0.39919 0.30509 0.93541
 H2014 H 0.38271 0.29551 0.94550
 O2015 O 0.59200 0.63318 0.97487
 O2016 O 0.62350 0.66406 0.97433
 C2017 C 0.60110 0.65539 0.96639
 C2018 C 0.58583 0.67097 0.94657
 C2019 C 0.59476 0.69631 0.93843
 H2020 H 0.61235 0.70500 0.94763
 O2021 O 0.40390 0.52604 0.86579
 O2022 O 0.37228 0.52615 0.83501
 C2023 C 0.39386 0.53565 0.84440
 C2024 C 0.40719 0.55866 0.83109
 C2025 C 0.39764 0.56948 0.80675
 H2026 H 0.38074 0.56033 0.79681
 O2027 O 0.59097 0.47369 0.86126
 O2028 O 0.62124 0.47528 0.82994
 C2029 C 0.60022 0.46504 0.83944
 C2030 C 0.58680 0.44214 0.82578
 C2031 C 0.59652 0.43157 0.80176
 H2032 H 0.61327 0.44133 0.79254
 O2033 O 0.52359 0.36816 0.90191
 O2034 O 0.52334 0.33587 0.87215
 C2035 C 0.53284 0.34633 0.89337
 C2036 C 0.55536 0.33346 0.90784
 C2037 C 0.56510 0.30867 0.89936
 H2038 H 0.55506 0.29853 0.88312
 O2039 O 0.46844 0.63632 0.90530
 O2040 O 0.46807 0.66833 0.87464
 C2041 C 0.45884 0.65799 0.89591
 C2042 C 0.43628 0.67067 0.90970
 C2043 C 0.42570 0.69540 0.90100
 H2044 H 0.43491 0.70599 0.88456
 O2045 O 0.36428 0.59225 0.97388
 O2046 O 0.33281 0.62265 0.97419
 C2047 C 0.34260 0.60140 0.96470
 C2048 C 0.32937 0.58763 0.94206
 C2049 C 0.30525 0.59702 0.93137
 H2050 H 0.29543 0.61349 0.94094
 O2051 O 0.63085 0.40825 0.97432
 O2052 O 0.66219 0.37772 0.97459
 C2053 C 0.65230 0.39919 0.96514
 C2054 C 0.66522 0.41283 0.94233
 C2055 C 0.68929 0.40322 0.93286
 H2056 H 0.69913 0.38695 0.94338
 O2057 O 0.47040 0.59923 0.86964
 O2058 O 0.47004 0.63106 0.83875
 C2059 C 0.46165 0.60868 0.84769
 C2060 C 0.44093 0.59397 0.83278
 C2061 C 0.43179 0.60390 0.80818
 H2062 H 0.44088 0.62164 0.79949
 O2063 O 0.52268 0.40256 0.86294
 O2064 O 0.52223 0.37051 0.83292
 C2065 C 0.53145 0.39262 0.84150
 C2066 C 0.55313 0.40662 0.82698
 C2067 C 0.56307 0.39638 0.80305
 H2068 H 0.55411 0.37853 0.79457
 O2069 O 0.62677 0.47412 0.89906
 O2070 O 0.65740 0.47547 0.86805
 C2071 C 0.64855 0.46584 0.88987
 C2072 C 0.66323 0.44454 0.90475
 C2073 C 0.68727 0.43421 0.89527
 H2074 H 0.69570 0.44248 0.87719
 O2075 O 0.36742 0.52457 0.90195
 O2076 O 0.33588 0.52401 0.87105
 C2077 C 0.34538 0.53303 0.89276
 C2078 C 0.33091 0.55410 0.90695
 C2079 C 0.30673 0.56358 0.89664
 H2080 H 0.29816 0.55472 0.87880
 O2081 O 0.39887 0.63066 0.97402
 O2082 O 0.36748 0.66114 0.97491
 C2083 C 0.38900 0.65253 0.96550
 C2084 C 0.40234 0.66782 0.94402
 C2085 C 0.39229 0.69256 0.93536
 H2086 H 0.37516 0.70088 0.94507
 O2087 O 0.59492 0.37100 0.97352
 O2088 O 0.62616 0.34035 0.97357
 C2089 C 0.60441 0.34950 0.96430
 C2090 C 0.59031 0.33518 0.94228
 C2091 C 0.59971 0.31045 0.93333
 H2092 H 0.61695 0.30162 0.94293
 O2093 O 0.58842 0.52643 0.86408
 O2094 O 0.61877 0.52841 0.83282
 C2095 C 0.59747 0.53711 0.84295
 C2096 C 0.58380 0.56070 0.83080
 C2097 C 0.59270 0.57182 0.80661
 H2098 H 0.60814 0.56169 0.79594
 O2099 O 0.40360 0.47344 0.86464
 O2100 O 0.37199 0.47367 0.83384
 C2101 C 0.39363 0.46447 0.84301
 C2102 C 0.40667 0.44243 0.82879
 C2103 C 0.39616 0.43323 0.80448
 H2104 H 0.37922 0.44324 0.79549
 O2105 O 0.52017 0.63722 0.90729
 O2106 O 0.51998 0.66927 0.87666
 C2107 C 0.52892 0.65942 0.89841
 C2108 C 0.55050 0.67314 0.91308
 C2109 C 0.55993 0.69836 0.90476
 H2110 H 0.55019 0.70874 0.88833
 O2111 O 0.47173 0.36645 0.90172
 O2112 O 0.47118 0.33430 0.87182
 C2113 C 0.46255 0.34424 0.89331
 C2114 C 0.44119 0.33023 0.90834
 C2115 C 0.43072 0.30562 0.89933
 H2116 H 0.43920 0.29633 0.88200
 O2117 O 0.62737 0.59580 0.97183
 O2118 O 0.65886 0.62666 0.97136
 C2119 C 0.64869 0.60522 0.96220
 C2120 C 0.66179 0.59153 0.93990
 C2121 C 0.68651 0.60079 0.93118
 H2122 H 0.69621 0.61734 0.94132
 O2123 O 0.36922 0.40153 0.97645
 O2124 O 0.33831 0.37010 0.97542
 C2125 C 0.34782 0.39213 0.96665
 C2126 C 0.33437 0.40656 0.94430
 C2127 C 0.30989 0.39725 0.93415
 H2128 H 0.30073 0.37979 0.94316
 Cu2129 Cu 0.49720 0.38805 0.88546
 Cu2130 Cu 0.49667 0.34949 0.84967
 Cu2131 Cu 0.49522 0.61544 0.89137
 Cu2132 Cu 0.49486 0.65368 0.85431
 Cu2133 Cu 0.38966 0.49931 0.88697
 Cu2134 Cu 0.35161 0.49889 0.85012
 Cu2135 Cu 0.60507 0.49983 0.88381
 Cu2136 Cu 0.64147 0.50185 0.84642
 C2137 C 0.42850 0.42934 0.84027
 H2138 H 0.43637 0.43629 0.85923
 C2139 C 0.40698 0.41114 0.79160
 C2140 C 0.56313 0.57347 0.84432
 H2141 H 0.55632 0.56530 0.86317
 C2142 C 0.58184 0.59577 0.79627
 C2143 C 0.34675 0.42872 0.93184
 H2144 H 0.36586 0.43571 0.93912
 C2145 C 0.29794 0.40983 0.91186
 C2146 C 0.64950 0.57004 0.92657
 H2147 H 0.63032 0.56291 0.93314
 C2148 C 0.69865 0.58961 0.90899
 C2149 C 0.43024 0.34205 0.93112
 H2150 H 0.43770 0.36125 0.93793
 C2151 C 0.40941 0.29311 0.91264
 C2152 C 0.56341 0.65975 0.93421
 H2153 H 0.55674 0.63994 0.94025
 C2154 C 0.58234 0.70982 0.91724
 C2155 C 0.42891 0.57110 0.84387
 H2156 H 0.43593 0.56353 0.86301
 C2157 C 0.40996 0.59224 0.79533
 C2158 C 0.56499 0.42960 0.83795
 H2159 H 0.55767 0.43733 0.85659
 C2160 C 0.58480 0.40849 0.79017
 C2161 C 0.56802 0.34648 0.92944
 H2162 H 0.56085 0.36573 0.93593
 C2163 C 0.58748 0.29711 0.91181
 C2164 C 0.42443 0.65719 0.93128
 H2165 H 0.43207 0.63797 0.93785
 C2166 C 0.40349 0.70641 0.91376
 C2167 C 0.34193 0.56603 0.92979
 H2168 H 0.36079 0.55900 0.93754
 C2169 C 0.29402 0.58528 0.90833
 C2170 C 0.65248 0.43368 0.92837
 H2171 H 0.63371 0.44092 0.93552
 C2172 C 0.70028 0.41330 0.90925
 O2173 O 0.52814 0.40184 1.13356
 O2174 O 0.52929 0.37051 1.16492
 C2175 C 0.53751 0.39270 1.15551
 C2176 C 0.55822 0.40811 1.17004
 C2177 C 0.56734 0.39994 1.19554
 H2178 H 0.55849 0.38251 1.20490
 O2179 O 0.47664 0.59417 1.13016
 O2180 O 0.47521 0.62575 1.16066
 C2181 C 0.46702 0.60348 1.15139
 C2182 C 0.44554 0.58884 1.16512
 C2183 C 0.43630 0.59831 1.18951
 H2184 H 0.44561 0.61564 1.19868
 O2185 O 0.36707 0.52063 1.09546
 O2186 O 0.33751 0.52023 1.12757
 C2187 C 0.34574 0.52920 1.10532
 C2188 C 0.33090 0.55049 1.09121
 C2189 C 0.30640 0.55893 1.10080
 H2190 H 0.29768 0.54889 1.11790
 O2191 O 0.62927 0.47610 1.09952
 O2192 O 0.66091 0.47616 1.13033
 C2193 C 0.65098 0.46699 1.10879
 C2194 C 0.66471 0.44515 1.09484
 C2195 C 0.68883 0.43561 1.10513
 H2196 H 0.69767 0.44482 1.12267
 O2197 O 0.59568 0.36917 1.02553
 O2198 O 0.62688 0.33848 1.02553
 C2199 C 0.60519 0.34727 1.03436
 C2200 C 0.59121 0.33245 1.05567
 C2201 C 0.60026 0.30740 1.06487
 H2202 H 0.61705 0.29817 1.05545
 O2203 O 0.40135 0.62830 1.02576
 O2204 O 0.37005 0.65887 1.02664
 C2205 C 0.39218 0.64984 1.03503
 C2206 C 0.40725 0.66430 1.05600
 C2207 C 0.39837 0.68913 1.06517
 H2208 H 0.38107 0.69810 1.05591
 O2209 O 0.40617 0.47081 1.13233
 O2210 O 0.37691 0.47052 1.16471
 C2211 C 0.39830 0.46213 1.15481
 C2212 C 0.41386 0.44149 1.16912
 C2213 C 0.40698 0.43319 1.19498
 H2214 H 0.39129 0.44356 1.20498
 O2215 O 0.59620 0.52934 1.13674
 O2216 O 0.62786 0.52946 1.16746
 C2217 C 0.60631 0.53876 1.15816
 C2218 C 0.59293 0.56123 1.17166
 C2219 C 0.60255 0.57206 1.19592
 H2220 H 0.61963 0.56299 1.20539
 O2221 O 0.47567 0.36474 1.09779
 O2222 O 0.47685 0.33341 1.12916
 C2223 C 0.46700 0.34283 1.10761
 C2224 C 0.44477 0.32858 1.09424
 C2225 C 0.43499 0.30436 1.10478
 H2226 H 0.44442 0.29555 1.12231
 O2227 O 0.52750 0.63317 1.09528
 O2228 O 0.52655 0.66476 1.12578
 C2229 C 0.53617 0.65517 1.10460
 C2230 C 0.55836 0.66895 1.09105
 C2231 C 0.56876 0.69335 1.10053
 H2232 H 0.55931 0.70280 1.11719
 O2233 O 0.36789 0.39921 1.02868
 O2234 O 0.33698 0.36779 1.02768
 C2235 C 0.34632 0.38932 1.03738
 C2236 C 0.33253 0.40260 1.05955
 C2237 C 0.30828 0.39267 1.06915
 H2238 H 0.29903 0.37557 1.05954
 O2239 O 0.63023 0.59441 1.02392
 O2240 O 0.66179 0.62523 1.02320
 C2241 C 0.65234 0.60343 1.03233
 C2242 C 0.66661 0.58914 1.05384
 C2243 C 0.69148 0.59835 1.06257
 H2244 H 0.70093 0.61507 1.05240
 O2245 O 0.52800 0.59792 1.13342
 O2246 O 0.52650 0.62949 1.16391
 C2247 C 0.53635 0.60802 1.15523
 C2248 C 0.55833 0.59504 1.17009
 C2249 C 0.56797 0.60559 1.19426
 H2250 H 0.55845 0.62292 1.20268
 O2251 O 0.47707 0.40273 1.13231
 O2252 O 0.47808 0.37158 1.16389
 C2253 C 0.46894 0.39335 1.15435
 C2254 C 0.44829 0.40766 1.16873
 C2255 C 0.44099 0.39928 1.19436
 H2256 H 0.45107 0.38256 1.20387
 O2257 O 0.62957 0.52780 1.09773
 O2258 O 0.66150 0.52786 1.12824
 C2259 C 0.65181 0.53633 1.10621
 C2260 C 0.66616 0.55673 1.09049
 C2261 C 0.69106 0.56612 1.09901
 H2262 H 0.70043 0.55712 1.11641
 O2263 O 0.36774 0.46857 1.09756
 O2264 O 0.33828 0.46806 1.12974
 C2265 C 0.34682 0.45891 1.10789
 C2266 C 0.33281 0.43650 1.09439
 C2267 C 0.30851 0.42636 1.10382
 H2268 H 0.29960 0.43592 1.12072
 O2269 O 0.59550 0.63206 1.02633
 O2270 O 0.62709 0.66284 1.02564
 C2271 C 0.60572 0.65360 1.03527
 C2272 C 0.59271 0.66780 1.05728
 C2273 C 0.60292 0.69212 1.06690
 H2274 H 0.62033 0.70088 1.05772
 O2275 O 0.40496 0.36359 1.02864
 O2276 O 0.37414 0.33207 1.02823
 C2277 C 0.39567 0.34164 1.03770
 C2278 C 0.40973 0.32785 1.06010
 C2279 C 0.40016 0.30356 1.07095
 H2280 H 0.38312 0.29408 1.06169
 O2281 O 0.59319 0.47705 1.13557
 O2282 O 0.62478 0.47700 1.16644
 C2283 C 0.60302 0.46783 1.15714
 C2284 C 0.58960 0.44548 1.17097
 C2285 C 0.59832 0.43724 1.19632
 H2286 H 0.61412 0.44830 1.20624
 O2287 O 0.40506 0.52269 1.13049
 O2288 O 0.37565 0.52248 1.16274
 C2289 C 0.39660 0.53196 1.15231
 C2290 C 0.41094 0.55431 1.16546
 C2291 C 0.40188 0.56434 1.18980
 H2292 H 0.38511 0.55489 1.19943
 O2293 O 0.47572 0.63134 1.09394
 O2294 O 0.47480 0.66307 1.12431
 C2295 C 0.46604 0.65291 1.10275
 C2296 C 0.44371 0.66593 1.08850
 C2297 C 0.43457 0.69075 1.09726
 H2298 H 0.44472 0.70082 1.11358
 O2299 O 0.52707 0.36696 1.09527
 O2300 O 0.52823 0.33550 1.12652
 C2301 C 0.53628 0.34519 1.10447
 C2302 C 0.55711 0.33143 1.08974
 C2303 C 0.56595 0.30628 1.09831
 H2304 H 0.55662 0.29635 1.11515
 O2305 O 0.63126 0.40687 1.02710
 O2306 O 0.66249 0.37625 1.02732
 C2307 C 0.65270 0.39748 1.03685
 C2308 C 0.66578 0.41100 1.06003
 C2309 C 0.68975 0.40134 1.07116
 H2310 H 0.69941 0.38446 1.06211
 O2311 O 0.36417 0.59215 1.02604
 O2312 O 0.33264 0.62247 1.02660
 C2313 C 0.34259 0.60081 1.03541
 C2314 C 0.32943 0.58588 1.05728
 C2315 C 0.30503 0.59434 1.06737
 H2316 H 0.29505 0.61124 1.05814
 Cu2317 Cu 0.50200 0.38715 1.11152
 Cu2318 Cu 0.50327 0.34951 1.14925
 Cu2319 Cu 0.50222 0.61103 1.11007
 Cu2320 Cu 0.50047 0.64899 1.14669
 Cu2321 Cu 0.38986 0.38545 1.00272
 Cu2322 Cu 0.35287 0.34764 1.00165
 Cu2323 Cu 0.61017 0.39199 1.00022
 Cu2324 Cu 0.64768 0.35528 1.00019
 Cu2325 Cu 0.38522 0.60769 0.99990
 Cu2326 Cu 0.34752 0.64428 1.00076
 Cu2327 Cu 0.60811 0.61067 0.99928
 Cu2328 Cu 0.64613 0.64772 0.99842
 Cu2329 Cu 0.38941 0.49560 1.11065
 Cu2330 Cu 0.35410 0.49531 1.14946
 Cu2331 Cu 0.60873 0.50275 1.11445
 Cu2332 Cu 0.64689 0.50264 1.15130
 C2333 C 0.56937 0.43101 1.15806
 H2334 H 0.56283 0.43716 1.13825
 C2335 C 0.58760 0.41446 1.20874
 C2336 C 0.43292 0.56663 1.15326
 H2337 H 0.43972 0.55944 1.13419
 C2338 C 0.41425 0.58663 1.20161
 C2339 C 0.34210 0.56382 1.06925
 H2340 H 0.36121 0.55758 1.06203
 C2341 C 0.29355 0.58103 1.08933
 C2342 C 0.65345 0.43295 1.07213
 H2343 H 0.63474 0.44021 1.06423
 C2344 C 0.70127 0.41357 1.09389
 C2345 C 0.56951 0.34420 1.06815
 H2346 H 0.56286 0.36382 1.06167
 C2347 C 0.58772 0.29439 1.08637
 C2348 C 0.43008 0.65289 1.06768
 H2349 H 0.43678 0.63349 1.06113
 C2350 C 0.41175 0.70224 1.08614
 C2351 C 0.43477 0.42885 1.15627
 H2352 H 0.43997 0.43493 1.13616
 C2353 C 0.42012 0.41157 1.20750
 C2354 C 0.57074 0.57278 1.15921
 H2355 H 0.56346 0.56483 1.14042
 C2356 C 0.59008 0.59443 1.20746
 C2357 C 0.43215 0.34002 1.07182
 H2358 H 0.43940 0.35893 1.06391
 C2359 C 0.41253 0.29182 1.09364
 C2360 C 0.57035 0.65654 1.06933
 H2361 H 0.56262 0.63760 1.06215
 C2362 C 0.59126 0.70509 1.08858
 C2363 C 0.34443 0.42459 1.07219
 H2364 H 0.36327 0.43210 1.06505
 C2365 C 0.29603 0.40426 1.09132
 C2366 C 0.65421 0.56812 1.06769
 H2367 H 0.63469 0.56138 1.06136
 C2368 C 0.70349 0.58744 1.08546
 C2369 C 1.11836 1.10497 1.24318
 C2370 C 1.09452 1.10854 1.23186
 H2371 H 1.13257 1.09193 1.23403
 H2372 H 1.08095 1.12232 1.24102
 C2373 C 1.10182 0.61807 0.74806
 C2374 C 1.11273 0.60054 0.73128
 H2375 H 1.08218 0.62574 0.74421
 H2376 H 1.13208 0.59258 0.73620
 C2377 C 0.62090 1.09841 0.74075
 C2378 C 0.59808 1.10291 0.72751
 H2379 H 0.63417 1.08295 0.73426
 H2380 H 0.58511 1.11831 0.73478
 C2381 C 0.62119 0.60094 1.24664
 C2382 C 0.59921 0.60741 1.23281
 H2383 H 0.63382 0.58504 1.23996
 H2384 H 0.58722 0.62357 1.24021
 C2385 C 0.89529 0.88415 1.23588
 C2386 C 0.89688 0.91001 1.22876
 H2387 H 0.90482 0.86915 1.22390
 H2388 H 0.88658 0.92494 1.24016
 C2389 C 0.88243 0.39796 0.74093
 C2390 C 0.90779 0.39607 0.73378
 H2391 H 0.86922 0.41106 0.72984
 H2392 H 0.92074 0.38229 0.74437
 C2393 C 0.39195 0.90479 0.74502
 C2394 C 0.40883 0.89294 0.72856
 H2395 H 0.38542 0.92507 0.74129
 H2396 H 0.41598 0.87307 0.73340
 C2397 C 0.38792 0.40374 1.24359
 C2398 C 0.41190 0.39997 1.23338
 H2399 H 0.37403 0.41719 1.23396
 H2400 H 0.42545 0.38620 1.24318
 C2401 C 0.87938 1.10798 0.76222
 C2402 C 0.90511 1.10716 0.76861
 H2403 H 0.86503 1.09733 0.77426
 H2404 H 0.91904 1.11859 0.75668
 C2405 C 0.87726 0.60953 0.26358
 C2406 C 0.90313 0.60762 0.26886
 H2407 H 0.86315 0.59937 0.27634
 H2408 H 0.91701 0.61871 0.25658
 C2409 C 0.37766 1.10537 0.26506
 C2410 C 0.40366 1.10200 0.26844
 H2411 H 0.36397 1.09587 0.27877
 H2412 H 0.41728 1.11251 0.25539
 C2413 C 0.37421 0.60836 0.76574
 C2414 C 0.40000 0.60560 0.77085
 H2415 H 0.35981 0.59884 0.77867
 H2416 H 0.41424 0.61599 0.75841
 C2417 C 1.10081 0.88152 0.76608
 C2418 C 1.10096 0.90705 0.77380
 H2419 H 1.09037 0.86648 0.77767
 H2420 H 1.11239 0.92167 0.76261
 C2421 C 1.09796 0.38006 0.26463
 C2422 C 1.09621 0.40588 0.27100
 H2423 H 1.08856 0.36487 0.27694
 H2424 H 1.10648 0.42076 0.25904
 C2425 C 0.62223 0.90536 0.26003
 C2426 C 0.59954 0.89914 0.27246
 H2427 H 0.63532 0.92077 0.26766
 H2428 H 0.58704 0.88367 0.26389
 C2429 C 0.61656 0.40305 0.75203
 C2430 C 0.59455 0.39576 0.76516
 H2431 H 0.62867 0.41950 0.75905
 H2432 H 0.58314 0.37897 0.75755
 C2433 C 1.22782 1.10894 1.13277
 C2434 C 1.22442 1.10648 1.10642
 H2435 H 1.21525 1.09820 1.14664
 H2436 H 1.23715 1.11767 1.09301
 C2437 C 1.23743 0.59773 0.61950
 C2438 C 1.23236 0.59611 0.59334
 H2439 H 1.22484 0.58763 0.63384
 H2440 H 1.24460 0.60706 0.57930
 C2441 C 0.73606 1.10013 0.61729
 C2442 C 0.72870 1.10030 0.59158
 H2443 H 0.72400 1.09005 0.63210
 H2444 H 0.74013 1.11157 0.57712
 C2445 C 0.73366 0.60133 1.12181
 C2446 C 0.72773 0.60049 1.09576
 H2447 H 0.72192 0.59045 1.13628
 H2448 H 0.73946 0.61208 1.08176
 C2449 C 1.23945 0.89747 0.88822
 C2450 C 1.22967 0.89418 0.91276
 H2451 H 1.22933 0.91006 0.87375
 H2452 H 1.23980 0.88089 0.92667
 C2453 C 1.23862 0.39378 0.38004
 C2454 C 1.22660 0.38987 0.40335
 H2455 H 1.23128 0.40904 0.36644
 H2456 H 1.23425 0.37444 0.41668
 C2457 C 0.74563 0.90217 0.38293
 C2458 C 0.73342 0.89670 0.40598
 H2459 H 0.73754 0.91694 0.36925
 H2460 H 0.74208 0.88161 0.41902
 C2461 C 0.73217 0.39964 0.87443
 C2462 C 0.72490 0.40048 0.89998
 H2463 H 0.72078 0.41003 0.85916
 H2464 H 0.73646 0.38949 0.91474
 C2465 C 0.75896 0.88237 1.09653
 C2466 C 0.77213 0.90515 1.10169
 H2467 H 0.76544 0.86903 1.08110
 H2468 H 0.76479 0.91786 1.11733
 C2469 C 0.76816 0.38523 0.60279
 C2470 C 0.77876 0.40960 0.60579
 H2471 H 0.77781 0.37049 0.59064
 H2472 H 0.76904 0.42372 0.61865
 C2473 C 0.25748 0.89588 0.61971
 C2474 C 0.26885 0.88962 0.59645
 H2475 H 0.26681 0.90993 0.63319
 H2476 H 0.25921 0.87493 0.58377
 C2477 C 0.25823 0.39860 1.12323
 C2478 C 0.27045 0.39233 1.10047
 H2479 H 0.26659 0.41339 1.13655
 H2480 H 0.26153 0.37713 1.08787
 C2481 C 0.75433 1.11956 0.90285
 C2482 C 0.77075 1.10137 0.89284
 H2483 H 0.75769 1.12784 0.92249
 H2484 H 0.76619 1.09300 0.87344
 C2485 C 0.76768 0.62129 0.40224
 C2486 C 0.77480 0.59559 0.40286
 H2487 H 0.78022 0.63642 0.41136
 H2488 H 0.76261 0.58083 0.39272
 C2489 C 0.26234 1.11456 0.40020
 C2490 C 0.27030 1.08931 0.39683
 H2491 H 0.27357 1.12817 0.41273
 H2492 H 0.25948 1.07634 0.38327
 C2493 C 0.26237 0.62119 0.89652
 C2494 C 0.26960 0.59555 0.89526
 H2495 H 0.27405 0.63531 0.90805
 H2496 H 0.25831 0.58191 0.88276
 C2497 C 1.11142 1.23791 1.12093
 C2498 C 1.10979 1.23257 1.09488
 H2499 H 1.10188 1.22473 1.13525
 H2500 H 1.12045 1.24504 1.08076
 C2501 C 1.11252 0.73620 0.62223
 C2502 C 1.11107 0.73026 0.59628
 H2503 H 1.10356 0.72300 0.63689
 H2504 H 1.12122 0.74280 0.58184
 C2505 C 0.61638 1.24020 0.60460
 C2506 C 0.59148 1.23121 0.60607
 H2507 H 0.63072 1.22943 0.59304
 H2508 H 0.57757 1.24181 0.61837
 C2509 C 0.59782 0.74314 1.12060
 C2510 C 0.60387 0.73035 1.09803
 H2511 H 0.58219 0.73593 1.13338
 H2512 H 0.61971 0.73834 1.08589
 C2513 C 0.88204 1.24414 0.89675
 C2514 C 0.90273 1.22977 0.88825
 H2515 H 0.87150 1.23833 0.91452
 H2516 H 0.91282 1.23650 0.87041
 C2517 C 0.89338 0.73897 0.37602
 C2518 C 0.89830 0.73271 0.40158
 H2519 H 0.90098 0.72629 0.36047
 H2520 H 0.88976 0.74492 0.41701
 C2521 C 0.39948 1.24199 0.38311
 C2522 C 0.38995 1.22357 0.40012
 H2523 H 0.41870 1.23918 0.37432
 H2524 H 0.37077 1.22727 0.40879
 C2525 C 0.39213 0.74201 0.88049
 C2526 C 0.39099 0.73208 0.90534
 H2527 H 0.40323 0.73164 0.86544
 H2528 H 0.37899 0.74224 0.91985
 C2529 C 1.11778 0.76568 0.90327
 C2530 C 1.09226 0.77240 0.90419
 H2531 H 1.13264 0.77820 0.91283
 H2532 H 1.07769 0.76049 0.89344
 C2533 C 1.11928 0.26325 0.39504
 C2534 C 1.09376 0.27011 0.39542
 H2535 H 1.13389 0.27541 0.40540
 H2536 H 1.07950 0.25835 0.38409
 C2537 C 0.62375 0.76399 0.39325
 C2538 C 0.59807 0.76921 0.39616
 H2539 H 0.63851 0.77714 0.40212
 H2540 H 0.58349 0.75656 0.38632
 C2541 C 0.59406 0.25971 0.87946
 C2542 C 0.59902 0.27132 0.90313
 H2543 H 0.58044 0.26861 0.86520
 H2544 H 0.61324 0.26212 0.91664
 C2545 C 0.87629 0.75879 1.09867
 C2546 C 0.90027 0.76971 1.10246
 H2547 H 0.86233 0.76786 1.08483
 H2548 H 0.91356 0.76037 1.11687
 C2549 C 0.88621 0.25220 0.59542
 C2550 C 0.90352 0.26953 0.60616
 H2551 H 0.87827 0.25549 0.57551
 H2552 H 0.91145 0.26524 0.62592
 C2553 C 0.38554 0.75054 0.59657
 C2554 C 0.40571 0.76572 0.60537
 H2555 H 0.37568 0.75500 0.57781
 H2556 H 0.41514 0.76033 0.62420
 C2557 C 0.37745 0.25821 1.10452
 C2558 C 0.40242 0.26709 1.10701
 H2559 H 0.36355 0.26856 1.09155
 H2560 H 0.41567 0.25684 1.12080
 C2561 C 1.10287 1.11482 0.75430
 C2562 C 1.11145 1.09586 0.77142
 H2563 H 1.08509 1.12576 0.75871
 H2564 H 1.12925 1.08509 0.76641
 C2565 C 1.11868 0.59646 0.25466
 C2566 C 1.10128 0.60675 0.27178
 H2567 H 1.12703 0.57690 0.25851
 H2568 H 1.09279 0.62612 0.26717
 C2569 C 0.60456 1.12204 0.25844
 C2570 C 0.61091 1.10117 0.27429
 H2571 H 0.58735 1.13383 0.26304
 H2572 H 0.62818 1.08966 0.26906
 C2573 C 0.61662 0.60548 0.76315
 C2574 C 0.59182 0.60877 0.77148
 H2575 H 0.63021 0.59315 0.77463
 H2576 H 0.57870 0.62200 0.76037
 C2577 C 0.89357 0.87751 0.76442
 C2578 C 0.89461 0.90352 0.77031
 H2579 H 0.90429 0.86317 0.77669
 H2580 H 0.88312 0.91747 0.75828
 C2581 C 0.89788 0.37964 0.25247
 C2582 C 0.89173 0.40156 0.26633
 H2583 H 0.91438 0.36739 0.25880
 H2584 H 0.87514 0.41351 0.25942
 C2585 C 0.40104 0.87508 0.25299
 C2586 C 0.39609 0.89788 0.26586
 H2587 H 0.41691 0.86224 0.25985
 H2588 H 0.38014 0.91038 0.25840
 C2589 C 0.40613 0.38839 0.74747
 C2590 C 0.39403 0.40252 0.76621
 H2591 H 0.42645 0.38220 0.75050
 H2592 H 0.37401 0.40931 0.76230
 C2593 C 1.11243 0.91109 1.24986
 C2594 C 1.09106 0.90301 1.23584
 H2595 H 1.12413 0.92815 1.24365
 H2596 H 1.07982 0.88598 1.24316
 C2597 C 1.12267 0.40526 0.74475
 C2598 C 1.09824 0.40204 0.73457
 H2599 H 1.13725 0.41756 0.73470
 H2600 H 1.08424 0.38931 0.74498
 C2601 C 0.61468 0.87263 0.73145
 C2602 C 0.61130 0.89871 0.72672
 H2603 H 0.60532 0.85798 0.71853
 H2604 H 0.62139 0.91316 0.73935
 C2605 C 0.59652 0.38248 1.24652
 C2606 C 0.59909 0.40669 1.23503
 H2607 H 0.58395 0.36734 1.23752
 H2608 H 0.61170 0.42152 1.24453
 C2609 C 0.88045 1.10550 1.23146
 C2610 C 0.90508 1.10850 1.22238
 H2611 H 0.86599 1.09365 1.22058
 H2612 H 0.91891 1.12116 1.23324
 C2613 C 0.88425 0.60961 0.73866
 C2614 C 0.90992 0.61055 0.73238
 H2615 H 0.87049 0.59814 0.72651
 H2616 H 0.92328 0.62308 0.74398
 C2617 C 0.40334 1.11118 0.73736
 C2618 C 0.40237 1.08558 0.72982
 H2619 H 0.41337 1.12610 0.72528
 H2620 H 0.39123 1.07113 0.74150
 C2621 C 0.37822 0.59983 1.23137
 C2622 C 0.40401 0.59929 1.22580
 H2623 H 0.36394 0.58925 1.21901
 H2624 H 0.41791 0.61069 1.23788
 C2625 C 1.09636 1.24613 0.88396
 C2626 C 1.09948 1.23488 0.90815
 H2627 H 1.08481 1.23608 0.86865
 H2628 H 1.11163 1.24481 0.92309
 C2629 C 1.09201 0.74975 0.38596
 C2630 C 1.09685 0.73697 0.40916
 H2631 H 1.07850 0.74129 0.37134
 H2632 H 1.11051 0.74576 0.42348
 C2633 C 0.61352 1.25162 0.40826
 C2634 C 0.59451 1.23563 0.39798
 H2635 H 0.62144 1.24798 0.42809
 H2636 H 0.58624 1.24030 0.37845
 C2637 C 0.59632 0.74011 0.88118
 C2638 C 0.59507 0.73448 0.90724
 H2639 H 0.58559 0.72797 0.86680
 H2640 H 0.60669 0.74615 0.92132
 C2641 C 0.88179 1.24185 1.09143
 C2642 C 0.90759 1.23615 1.09093
 H2643 H 0.86745 1.22930 1.08115
 H2644 H 0.92153 1.24839 1.10212
 C2645 C 0.90520 0.73607 0.62202
 C2646 C 0.90704 0.73008 0.59618
 H2647 H 0.91515 0.72392 0.63704
 H2648 H 0.89626 0.74193 0.58149
 C2649 C 0.40876 1.24346 0.60689
 C2650 C 0.39650 1.22475 0.59215
 H2651 H 0.42876 1.24029 0.61417
 H2652 H 0.37677 1.22855 0.58439
 C2653 C 0.37667 0.73467 1.09746
 C2654 C 0.40213 0.72728 1.09806
 H2655 H 0.36217 0.72322 1.08621
 H2656 H 0.41639 0.73867 1.10971
 C2657 C 0.87957 0.75520 0.90214
 C2658 C 0.89812 0.77210 0.89278
 H2659 H 0.87038 0.75877 0.92115
 H2660 H 0.90718 0.76747 0.87389
 C2661 C 0.89770 0.25579 0.38134
 C2662 C 0.88980 0.27114 0.40159
 H2663 H 0.91547 0.26082 0.37056
 H2664 H 0.87203 0.26519 0.41208
 C2665 C 0.40013 0.75410 0.37554
 C2666 C 0.39620 0.76547 0.39930
 H2667 H 0.41474 0.76244 0.36216
 H2668 H 0.38138 0.75673 0.41227
 C2669 C 0.39659 0.26018 0.87783
 C2670 C 0.39660 0.26796 0.90330
 H2671 H 0.40707 0.27184 0.86296
 H2672 H 0.38533 0.25639 0.91768
 C2673 C 1.11906 0.76090 1.11118
 C2674 C 1.09392 0.76921 1.11238
 H2675 H 1.13320 0.77219 1.09945
 H2676 H 1.08006 0.75842 1.12493
 C2677 C 1.10722 0.24639 0.58808
 C2678 C 1.09303 0.26504 0.60048
 H2679 H 1.11278 0.24924 0.56743
 H2680 H 1.08673 0.26142 0.62079
 C2681 C 0.62051 0.74704 0.59517
 C2682 C 0.60114 0.76267 0.60411
 H2683 H 0.63073 0.75203 0.57695
 H2684 H 0.59132 0.75673 0.62237
 C2685 C 0.62336 0.26405 1.10058
 C2686 C 0.59756 0.26920 1.09812
 H2687 H 0.63787 0.27759 1.09200
 H2688 H 0.58325 0.25618 1.10774
 C2689 C 1.25402 1.09212 0.88762
 C2690 C 1.23755 1.10260 0.90539
 H2691 H 1.25007 1.07263 0.87919
 H2692 H 1.24243 1.12204 0.91360
 C2693 C 1.23717 0.60705 0.37434
 C2694 C 1.23187 0.60448 0.40028
 H2695 H 1.22416 0.59773 0.35972
 H2696 H 1.24425 0.61487 0.41473
 C2697 C 0.73628 1.10484 0.38218
 C2698 C 0.72631 1.10827 0.40649
 H2699 H 0.72635 1.09171 0.36815
 H2700 H 0.73607 1.12218 0.41995
 C2701 C 0.73209 0.60237 0.87518
 C2702 C 0.72430 0.60126 0.90060
 H2703 H 0.71995 0.59351 0.85958
 H2704 H 0.73610 0.61124 0.91578
 C2705 C 1.23060 0.87477 1.11530
 C2706 C 1.22390 0.90063 1.11453
 H2707 H 1.21804 0.86008 1.10552
 H2708 H 1.23600 0.91499 1.12536
 C2709 C 1.24405 0.37744 0.59631
 C2710 C 1.23016 0.39895 0.60337
 H2711 H 1.23695 0.36462 0.58046
 H2712 H 1.23810 0.41120 0.61937
 C2713 C 0.74578 0.87909 0.59912
 C2714 C 0.72989 0.89850 0.60783
 H2715 H 0.74148 0.86919 0.58044
 H2716 H 0.73518 0.90823 0.62642
 C2717 C 0.73261 0.37811 1.10811
 C2718 C 0.72595 0.40392 1.10707
 H2719 H 0.72031 0.36339 1.09802
 H2720 H 0.73779 0.41833 1.11812
 C2721 C 0.76748 1.12837 1.10950
 C2722 C 0.77166 1.10315 1.10214
 H2723 H 0.78085 1.14398 1.10264
 H2724 H 0.75863 1.08757 1.10974
 C2725 C 0.76903 0.59519 0.62052
 C2726 C 0.77904 0.59814 0.59607
 H2727 H 0.77935 0.58378 0.63581
 H2728 H 0.76833 0.61008 0.58140
 C2729 C 0.24963 1.10185 0.59276
 C2730 C 0.26968 1.08926 0.60507
 H2731 H 0.25092 1.10651 0.57164
 H2732 H 0.26754 1.08371 0.62592
 C2733 C 0.26178 0.61578 1.10240
 C2734 C 0.26865 0.59000 1.10148
 H2735 H 0.27422 0.63099 1.09328
 H2736 H 0.25687 0.57512 1.11192
 C2737 C 0.75609 0.88319 0.90072
 C2738 C 0.77162 0.90306 0.89165
 H2739 H 0.76031 0.87349 0.91966
 H2740 H 0.76645 0.91243 0.87271
 C2741 C 0.75683 0.41161 0.38622
 C2742 C 0.77029 0.40562 0.40870
 H2743 H 0.76446 0.42600 0.37197
 H2744 H 0.76171 0.39115 0.42238
 C2745 C 0.25693 0.88276 0.40880
 C2746 C 0.27114 0.90443 0.40198
 H2747 H 0.26433 0.86843 0.42331
 H2748 H 0.26286 0.91820 0.38733
 C2749 C 0.25613 0.38251 0.90958
 C2750 C 0.27330 0.40000 0.89889
 H2751 H 0.25889 0.37484 0.92969
 H2752 H 0.26903 0.40815 0.87921
   
