data_POSCAR
  _audit_creation_date              2014-09-24
  _audit_creation_method            'ToBaCCo'
  _symmetry_space_group_name_H-M    'P1'
  _symmetry_Int_Tables_number       1
  _symmetry_cell_setting            triclinic
  loop_
  _symmetry_equiv_pos_as_xyz
 x,y,z
_cell_length_a 66.3563
_cell_length_b 66.5446
_cell_length_c 62.2342
_cell_angle_alpha 90.258600
_cell_angle_beta 88.625600
_cell_angle_gamma 89.790400
loop_
  _atom_site_label
  _atom_site_type_symbol
  _atom_site_fract_x
  _atom_site_fract_y
  _atom_site_fract_z
C1 C 0.39475 0.03556 0.28360
 H2 H 0.39551 0.04391 0.26873
 C3 C 0.40367 0.04334 0.30206
 H4 H 0.41142 0.05762 0.30139
 C5 C 0.38246 0.00749 0.30317
 H6 H 0.37360 -0.00606 0.30391
 C7 C 0.39094 0.01472 0.32186
 H8 H 0.38886 0.00641 0.33667
 N9 N 0.38421 0.01804 0.28458
 C10 C 0.37360 -0.00294 0.21937
 H11 H 0.35765 -0.00590 0.22142
 C12 C 0.38314 -0.00644 0.19955
 H13 H 0.37444 -0.01206 0.18632
 C14 C 0.40422 0.00818 0.23419
 H15 H 0.41231 0.01387 0.24779
 C16 C 0.41447 0.00474 0.21456
 H17 H 0.43037 0.00817 0.21299
 Zn18 Zn 0.36844 0.00965 0.26127
 N19 N 0.38404 0.00476 0.23600
 C20 C 0.34827 0.03938 0.23712
 N21 N 0.34937 0.03020 0.25654
 C22 C 0.33792 0.03654 0.27368
 C23 C 0.32494 0.05296 0.27177
 C24 C 0.33537 0.05574 0.23444
 C25 C 0.36791 -0.03080 0.27021
 C26 C 0.36010 -0.04985 0.27397
 C27 C 0.32657 -0.03570 0.27350
 C28 C 0.33516 -0.01680 0.26981
 N29 N 0.35547 -0.01479 0.26808
 H30 H 0.35774 0.03441 0.22377
 H31 H 0.33935 0.02917 0.28903
 H32 H 0.31656 0.05822 0.28585
 H33 H 0.33476 0.06283 0.21886
 H34 H 0.38406 -0.02869 0.26900
 H35 H 0.37096 -0.06166 0.27662
 H36 H 0.31032 -0.03652 0.27349
 H37 H 0.32551 -0.00387 0.26772
 C38 C 0.40373 -0.00222 0.19684
 C39 C 0.40124 0.03306 0.32156
 C40 C 0.33898 -0.05303 0.27507
 C41 C 0.32374 0.06297 0.25201
 C42 C 0.13355 0.02038 0.70892
 H43 H 0.14073 0.03302 0.71650
 C44 C 0.12200 0.02354 0.69072
 H45 H 0.12046 0.03860 0.68442
 C46 C 0.12581 -0.01434 0.70850
 H47 H 0.12706 -0.02903 0.71575
 C48 C 0.11408 -0.01184 0.69041
 H49 H 0.10668 -0.02479 0.68360
 N50 N 0.13509 0.00169 0.71757
 C51 C 0.13515 -0.00925 0.78706
 H52 H 0.15039 -0.00564 0.79130
 C53 C 0.12126 -0.01447 0.80331
 H54 H 0.12610 -0.01485 0.81979
 C55 C 0.10997 -0.01160 0.76092
 H56 H 0.10535 -0.01029 0.74452
 C57 C 0.09566 -0.01705 0.77660
 H58 H 0.08041 -0.02016 0.77180
 Zn59 Zn 0.14890 -0.00213 0.74383
 N60 N 0.12943 -0.00807 0.76622
 C61 C 0.15816 0.03347 0.76751
 N62 N 0.16325 0.02169 0.75027
 C63 C 0.17818 0.02715 0.73620
 C64 C 0.18835 0.04528 0.73887
 C65 C 0.16828 0.05152 0.77109
 C66 C 0.17555 -0.03157 0.75920
 C67 C 0.18538 -0.05013 0.75898
 C68 C 0.18047 -0.05230 0.72074
 C69 C 0.17040 -0.03378 0.72177
 N70 N 0.16725 -0.02428 0.74102
 H71 H 0.14599 0.02915 0.77831
 H72 H 0.18174 0.01765 0.72246
 H73 H 0.19953 0.04959 0.72684
 H74 H 0.16411 0.06041 0.78510
 H75 H 0.17375 -0.02353 0.77417
 H76 H 0.19072 -0.05635 0.77387
 H77 H 0.18181 -0.06030 0.70558
 H78 H 0.16441 -0.02748 0.70729
 C79 C 0.10120 -0.01855 0.79816
 C80 C 0.11179 0.00735 0.68147
 C81 C 0.18726 -0.06101 0.73972
 C82 C 0.18346 0.05787 0.75650
 C83 C 0.60894 0.52612 0.21748
 H84 H 0.60703 0.53392 0.23269
 C85 C 0.59788 0.53221 0.19979
 H86 H 0.58755 0.54478 0.20141
 C87 C 0.62473 0.50020 0.19691
 H88 H 0.63495 0.48757 0.19587
 C89 C 0.61419 0.50595 0.17876
 H90 H 0.61642 0.49761 0.16391
 N91 N 0.62213 0.51044 0.21573
 C92 C 0.62096 0.50758 0.28388
 H93 H 0.63509 0.51473 0.28726
 C94 C 0.60699 0.50439 0.30063
 H95 H 0.61042 0.50929 0.31674
 C96 C 0.59910 0.49241 0.25901
 H97 H 0.59633 0.48742 0.24279
 C98 C 0.58456 0.48926 0.27521
 H99 H 0.57052 0.48199 0.27138
 Zn100 Zn 0.63632 0.50309 0.24075
 N101 N 0.61693 0.50134 0.26358
 C102 C 0.66871 0.52062 0.26358
 N103 N 0.65612 0.52268 0.24673
 C104 C 0.65691 0.53921 0.23401
 C105 C 0.66928 0.55523 0.23917
 C106 C 0.68135 0.53647 0.26944
 C107 C 0.64247 0.46269 0.25043
 C108 C 0.65060 0.44350 0.24838
 C109 C 0.67271 0.45547 0.21985
 C110 C 0.66414 0.47462 0.22252
 N111 N 0.64897 0.47772 0.23731
 H112 H 0.66828 0.50702 0.27305
 H113 H 0.64741 0.54035 0.22024
 H114 H 0.66902 0.56865 0.22939
 H115 H 0.69036 0.53523 0.28365
 H116 H 0.63085 0.46545 0.26251
 H117 H 0.64514 0.43180 0.25905
 H118 H 0.68435 0.45303 0.20762
 H119 H 0.66933 0.48694 0.21257
 C120 C 0.58859 0.49505 0.29635
 C121 C 0.60060 0.52217 0.18007
 C122 C 0.66561 0.43955 0.23267
 C123 C 0.68104 0.55431 0.25757
 C124 C 0.90343 0.52055 0.78314
 H125 H 0.90742 0.52913 0.76896
 C126 C 0.91179 0.52561 0.80295
 H127 H 0.92232 0.53796 0.80361
 C128 C 0.88358 0.49523 0.79966
 H129 H 0.87223 0.48374 0.79867
 C130 C 0.89101 0.50006 0.81961
 H131 H 0.88589 0.49118 0.83319
 N132 N 0.88965 0.50549 0.78188
 C133 C 0.88130 0.48486 0.71647
 H134 H 0.86539 0.48178 0.71862
 C135 C 0.89146 0.47802 0.69807
 H136 H 0.88308 0.46938 0.68657
 C137 C 0.91140 0.49834 0.73008
 H138 H 0.91922 0.50577 0.74287
 C139 C 0.92210 0.49242 0.71137
 H140 H 0.93794 0.49608 0.70980
 Zn141 Zn 0.87489 0.49990 0.75688
 N142 N 0.89128 0.49468 0.73211
 C143 C 0.85727 0.53202 0.73380
 N144 N 0.85751 0.52185 0.75268
 C145 C 0.84625 0.52800 0.77003
 C146 C 0.83459 0.54541 0.76907
 C147 C 0.84566 0.54948 0.73206
 C148 C 0.87116 0.45930 0.76372
 C149 C 0.86203 0.44057 0.76482
 C150 C 0.82958 0.45675 0.76144
 C151 C 0.83940 0.47533 0.76048
 N152 N 0.85986 0.47616 0.76132
 H153 H 0.86643 0.52688 0.72026
 H154 H 0.84690 0.51968 0.78489
 H155 H 0.82647 0.55048 0.78340
 H156 H 0.84575 0.55747 0.71695
 H157 H 0.88741 0.46045 0.76421
 H158 H 0.87136 0.42729 0.76638
 H159 H 0.81338 0.45612 0.75985
 H160 H 0.83076 0.48893 0.75825
 C161 C 0.91213 0.48204 0.69496
 C162 C 0.90504 0.51575 0.82179
 C163 C 0.84105 0.43907 0.76310
 C164 C 0.83443 0.55663 0.75001
 C165 C 0.22791 0.42011 1.01724
 H166 H 0.23727 0.42236 1.03104
 C167 C 0.21080 0.43207 1.01459
 H168 H 0.20751 0.44389 1.02617
 C169 C 0.22066 0.40149 0.98585
 H170 H 0.22418 0.38911 0.97509
 C171 C 0.20324 0.41286 0.98279
 H172 H 0.19360 0.40894 0.96965
 N173 N 0.23233 0.40500 1.00312
 C174 C 0.29294 0.38518 1.01869
 H175 H 0.28952 0.36939 1.02058
 C176 C 0.31262 0.39184 1.02094
 H177 H 0.32415 0.38104 1.02498
 C178 C 0.28176 0.41823 1.01130
 H179 H 0.26970 0.42834 1.00713
 C180 C 0.30145 0.42555 1.01306
 H181 H 0.30435 0.44130 1.01012
 Zn182 Zn 0.25250 0.38615 1.00998
 N183 N 0.27796 0.39831 1.01406
 C184 C 0.24903 0.34878 0.98640
 N185 N 0.25635 0.36784 0.98680
 C186 C 0.26750 0.37520 0.97005
 C187 C 0.27168 0.36338 0.95196
 C188 C 0.25234 0.33658 0.96825
 C189 C 0.25468 0.37642 1.05371
 C190 C 0.24811 0.36884 1.07343
 C191 C 0.21897 0.35498 1.05628
 C192 C 0.22606 0.36304 1.03676
 N193 N 0.24377 0.37336 1.03579
 H194 H 0.24039 0.34306 0.99994
 H195 H 0.27332 0.39034 0.97083
 H196 H 0.28113 0.36959 0.93925
 H197 H 0.24568 0.32177 0.96797
 H198 H 0.26824 0.38530 1.05299
 H199 H 0.25708 0.37149 1.08748
 H200 H 0.20479 0.34698 1.05692
 H201 H 0.21721 0.36146 1.02249
 C202 C 0.31726 0.41220 1.01770
 C203 C 0.19780 0.42812 0.99756
 C204 C 0.22998 0.35812 1.07496
 C205 C 0.26375 0.34387 0.95057
 C206 C 0.77449 0.08941 0.97681
 H207 H 0.76139 0.08508 0.96790
 C208 C 0.79310 0.07996 0.97256
 H209 H 0.79403 0.06872 0.95997
 C210 C 0.78890 0.10963 1.00370
 H211 H 0.78733 0.12068 1.01631
 C212 C 0.80767 0.10096 0.99979
 H213 H 0.81983 0.10549 1.01000
 N214 N 0.77284 0.10424 0.99191
 C215 C 0.71016 0.09995 0.99089
 H216 H 0.70762 0.11302 0.98111
 C217 C 0.69521 0.08543 0.99279
 H218 H 0.68116 0.08777 0.98465
 C219 C 0.73134 0.08125 1.01359
 H220 H 0.74558 0.07977 1.02154
 C221 C 0.71673 0.06623 1.01588
 H222 H 0.71983 0.05311 1.02551
 Zn223 Zn 0.74790 0.11753 0.99769
 N224 N 0.72779 0.09769 1.00124
 C225 C 0.72662 0.14903 0.97747
 N226 N 0.74150 0.13503 0.97471
 C227 C 0.75175 0.13314 0.95564
 C228 C 0.74660 0.14495 0.93814
 C229 C 0.72105 0.16132 0.96036
 C230 C 0.74177 0.12588 1.04194
 C231 C 0.74638 0.13497 1.06143
 C232 C 0.76697 0.15900 1.04203
 C233 C 0.76177 0.14958 1.02286
 N234 N 0.75008 0.13283 1.02324
 H235 H 0.71880 0.15037 0.99287
 H236 H 0.76375 0.12223 0.95379
 H237 H 0.75483 0.14303 0.92302
 H238 H 0.70887 0.17204 0.96262
 H239 H 0.73221 0.11279 1.04190
 H240 H 0.73992 0.12894 1.07618
 H241 H 0.77733 0.17153 1.04146
 H242 H 0.76815 0.15480 1.00774
 C243 C 0.69846 0.06815 1.00517
 C244 C 0.81030 0.08610 0.98373
 C245 C 0.75972 0.15131 1.06172
 C246 C 0.73087 0.15904 0.94026
 C247 C 0.25811 0.59311 0.48779
 H248 H 0.24631 0.58956 0.47672
 C249 C 0.27747 0.58484 0.48451
 H250 H 0.28051 0.57523 0.47072
 C251 C 0.26884 0.61021 0.51887
 H252 H 0.26575 0.61997 0.53240
 C253 C 0.28811 0.60222 0.51634
 H254 H 0.29936 0.60600 0.52801
 N255 N 0.25443 0.60636 0.50422
 C256 C 0.18949 0.61559 0.51812
 H257 H 0.18908 0.63180 0.51860
 C258 C 0.17173 0.60485 0.52173
 H259 H 0.15777 0.61304 0.52443
 C260 C 0.20814 0.58541 0.51352
 H261 H 0.22238 0.57793 0.51027
 C262 C 0.19068 0.57403 0.51712
 H263 H 0.19173 0.55779 0.51677
 Zn264 Zn 0.23012 0.62197 0.50751
 N265 N 0.20718 0.60584 0.51379
 C266 C 0.21257 0.65383 0.48539
 N267 N 0.22510 0.63772 0.48269
 C268 C 0.23404 0.63368 0.46323
 C269 C 0.23028 0.64589 0.44555
 C270 C 0.20860 0.66657 0.46824
 C271 C 0.22889 0.63485 0.55091
 C272 C 0.23595 0.64601 0.56823
 C273 C 0.25313 0.66802 0.54306
 C274 C 0.24586 0.65641 0.52626
 N275 N 0.23425 0.64002 0.53046
 H276 H 0.20601 0.65716 0.50107
 H277 H 0.24425 0.62116 0.46129
 H278 H 0.23770 0.64258 0.43025
 H279 H 0.19869 0.67937 0.47076
 H280 H 0.22008 0.62145 0.55382
 H281 H 0.23198 0.64146 0.58446
 H282 H 0.26305 0.68050 0.53943
 H283 H 0.25041 0.65979 0.50987
 C284 C 0.17208 0.58376 0.52104
 C285 C 0.29294 0.59007 0.49852
 C286 C 0.24862 0.66255 0.56437
 C287 C 0.21750 0.66263 0.44800
 C288 C 0.71224 0.92284 0.49944
 H289 H 0.72613 0.93031 0.50329
 C290 C 0.69471 0.93417 0.49682
 H291 H 0.69524 0.95036 0.49856
 C292 C 0.69445 0.89270 0.49280
 H293 H 0.69450 0.87648 0.49143
 C294 C 0.67666 0.90346 0.48973
 H295 H 0.66295 0.89543 0.48622
 N296 N 0.71182 0.90250 0.49720
 C297 C 0.76473 0.91516 0.49067
 H298 H 0.75679 0.91566 0.47569
 C299 C 0.78269 0.92574 0.49274
 H300 H 0.78850 0.93448 0.47934
 C301 C 0.76742 0.90221 0.52591
 H302 H 0.76179 0.89249 0.53852
 C303 C 0.78534 0.91282 0.52879
 H304 H 0.79338 0.91118 0.54362
 Zn305 Zn 0.73538 0.88684 0.50047
 N306 N 0.75765 0.90339 0.50695
 C307 C 0.73087 0.87634 0.45667
 N308 N 0.74231 0.87349 0.47423
 C309 C 0.75961 0.86241 0.47295
 C310 C 0.76586 0.85350 0.45347
 C311 C 0.73656 0.86779 0.43696
 C312 C 0.72438 0.87499 0.54250
 C313 C 0.72246 0.86179 0.55984
 C314 C 0.73133 0.83437 0.53581
 C315 C 0.73292 0.84804 0.51894
 N316 N 0.73029 0.86804 0.52272
 H317 H 0.71750 0.88560 0.45771
 H318 H 0.76871 0.86075 0.48703
 H319 H 0.77979 0.84498 0.45265
 H320 H 0.72715 0.87021 0.42322
 H321 H 0.72203 0.89094 0.54498
 H322 H 0.71901 0.86767 0.57576
 H323 H 0.73453 0.81862 0.53278
 H324 H 0.73695 0.84269 0.50301
 C325 C 0.79340 0.92433 0.51184
 C326 C 0.67668 0.92446 0.49174
 C327 C 0.72668 0.84131 0.55667
 C328 C 0.75436 0.85636 0.43510
 C329 C 0.01008 0.25577 0.40944
 H330 H 0.02399 0.24725 0.40968
 C331 C 0.00882 0.27458 0.41964
 H332 H 0.02185 0.28051 0.42764
 C333 C -0.02337 0.25909 0.39743
 H334 H -0.03580 0.25334 0.38842
 C335 C -0.02529 0.27780 0.40740
 H336 H -0.03931 0.28604 0.40612
 N337 N -0.00577 0.24863 0.39822
 C338 C 0.00124 0.18386 0.38853
 H339 H 0.00078 0.18318 0.37118
 C340 C 0.00409 0.16632 0.40021
 H341 H 0.00555 0.15229 0.39144
 C342 C -0.00124 0.20307 0.42057
 H343 H -0.00321 0.21750 0.42839
 C344 C 0.00070 0.18568 0.43302
 H345 H 0.00066 0.18718 0.45034
 Zn346 Zn -0.00285 0.22499 0.38112
 N347 N -0.00050 0.20188 0.39872
 C348 C 0.03455 0.21335 0.36046
 N349 N 0.02046 0.22818 0.36277
 C350 C 0.02288 0.24610 0.35255
 C351 C 0.03988 0.24956 0.33935
 C352 C 0.05150 0.21600 0.34703
 C353 C -0.04304 0.21487 0.37507
 C354 C -0.06169 0.21509 0.36520
 C355 C -0.04561 0.22897 0.33339
 C356 C -0.02719 0.22847 0.34390
 N357 N -0.02636 0.22200 0.36458
 H358 H 0.03292 0.19944 0.36910
 H359 H 0.01168 0.25781 0.35486
 H360 H 0.04170 0.26395 0.33149
 H361 H 0.06259 0.20407 0.34545
 H362 H -0.04201 0.20985 0.39151
 H363 H -0.07488 0.20986 0.37408
 H364 H -0.04620 0.23512 0.31734
 H365 H -0.01378 0.23410 0.33583
 C366 C 0.00417 0.16695 0.42287
 C367 C -0.00889 0.28607 0.41814
 C368 C -0.06328 0.22279 0.34432
 C369 C 0.05435 0.23432 0.33638
 C370 C 0.01895 0.71520 0.09417
 H371 H 0.03327 0.72236 0.09688
 C372 C 0.01828 0.69795 0.08128
 H373 H 0.03220 0.69194 0.07443
 C374 C -0.01624 0.71359 0.10092
 H375 H -0.02973 0.71947 0.10865
 C376 C -0.01767 0.69666 0.08780
 H377 H -0.03238 0.69015 0.08544
 N378 N 0.00186 0.72253 0.10397
 C379 C -0.00333 0.78606 0.10996
 H380 H -0.01351 0.78650 0.12376
 C381 C -0.00147 0.80299 0.09693
 H382 H -0.01042 0.81624 0.10072
 C383 C 0.02112 0.76865 0.08862
 H384 H 0.02984 0.75524 0.08534
 C385 C 0.02363 0.78538 0.07530
 H386 H 0.03417 0.78460 0.06176
 Zn387 Zn 0.00271 0.74565 0.12220
 N388 N 0.00745 0.76909 0.10530
 C389 C 0.02590 0.75993 0.15525
 N390 N 0.02329 0.74351 0.14258
 C391 C 0.03469 0.72667 0.14494
 C392 C 0.05001 0.72626 0.15998
 C393 C 0.04074 0.76004 0.17072
 C394 C -0.03862 0.75474 0.12638
 C395 C -0.05719 0.75758 0.13686
 C396 C -0.04239 0.74656 0.16985
 C397 C -0.02399 0.74416 0.15867
 N398 N -0.02239 0.74843 0.13736
 H399 H 0.01635 0.77297 0.15331
 H400 H 0.03203 0.71354 0.13518
 H401 H 0.05940 0.71299 0.16101
 H402 H 0.04231 0.77325 0.18074
 H403 H -0.03711 0.75757 0.10931
 H404 H -0.06963 0.76176 0.12690
 H405 H -0.04244 0.74379 0.18694
 H406 H -0.01093 0.73898 0.16712
 C407 C 0.01192 0.80267 0.07916
 C408 C -0.00022 0.68829 0.07810
 C409 C -0.05960 0.75377 0.15919
 C410 C 0.05337 0.74321 0.17298
 C411 C 0.51732 0.23852 0.59370
 H412 H 0.53157 0.24599 0.59585
 C413 C 0.51670 0.22072 0.58159
 H414 H 0.53053 0.21477 0.57448
 C415 C 0.48239 0.23622 0.60179
 H416 H 0.46903 0.24182 0.60997
 C417 C 0.48106 0.21860 0.58972
 H418 H 0.46655 0.21135 0.58850
 N419 N 0.50032 0.24586 0.60369
 C420 C 0.49384 0.30891 0.61002
 H421 H 0.48311 0.30869 0.62332
 C422 C 0.49522 0.32602 0.59717
 H423 H 0.48541 0.33872 0.60068
 C424 C 0.52009 0.29309 0.58973
 H425 H 0.52971 0.28021 0.58683
 C426 C 0.52212 0.31002 0.57659
 H427 H 0.53322 0.30993 0.56354
 Zn428 Zn 0.50209 0.26878 0.62234
 N429 N 0.50582 0.29265 0.60581
 C430 C 0.53635 0.28051 0.64580
 N431 N 0.52430 0.26486 0.64042
 C432 C 0.52829 0.24585 0.64707
 C433 C 0.54546 0.24184 0.65887
 C434 C 0.55355 0.27721 0.65790
 C435 C 0.46057 0.27540 0.62910
 C436 C 0.44202 0.27451 0.64000
 C437 C 0.45926 0.26544 0.67230
 C438 C 0.47760 0.26644 0.66071
 N439 N 0.47786 0.27080 0.63934
 H440 H 0.53282 0.29550 0.64035
 H441 H 0.51840 0.23370 0.64269
 H442 H 0.54876 0.22653 0.66351
 H443 H 0.56336 0.28967 0.66154
 H444 H 0.46114 0.27888 0.61214
 H445 H 0.42838 0.27754 0.63133
 H446 H 0.45917 0.26100 0.68902
 H447 H 0.49151 0.26291 0.66859
 C448 C 0.50931 0.32662 0.58001
 C449 C 0.49841 0.21033 0.57976
 C450 C 0.44114 0.26888 0.66170
 C451 C 0.55848 0.25759 0.66415
 C452 C 0.53303 0.77246 0.91182
 H453 H 0.54467 0.76103 0.91205
 C454 C 0.53351 0.78854 0.92641
 H455 H 0.54542 0.78904 0.93797
 C456 C 0.50316 0.78512 0.89684
 H457 H 0.49143 0.78391 0.88518
 C458 C 0.50331 0.80165 0.91072
 H459 H 0.49174 0.81301 0.90918
 N460 N 0.51758 0.77063 0.89796
 C461 C 0.51027 0.70642 0.88609
 H462 H 0.50778 0.70687 0.86898
 C463 C 0.50887 0.68823 0.89704
 H464 H 0.50502 0.67482 0.88815
 C465 C 0.51727 0.72367 0.91839
 H466 H 0.52012 0.73752 0.92682
 C467 C 0.51633 0.70572 0.92996
 H468 H 0.51910 0.70603 0.94702
 Zn469 Zn 0.51580 0.74744 0.87994
 N470 N 0.51469 0.72365 0.89675
 C471 C 0.55069 0.73022 0.85951
 N472 N 0.53852 0.74672 0.86073
 C473 C 0.54251 0.76327 0.84864
 C474 C 0.55933 0.76367 0.83467
 C475 C 0.56756 0.72992 0.84562
 C476 C 0.47417 0.74696 0.87639
 C477 C 0.45551 0.74727 0.86657
 C478 C 0.47268 0.74962 0.83202
 C479 C 0.49112 0.74927 0.84256
 N480 N 0.49150 0.74826 0.86440
 H481 H 0.54750 0.71731 0.86946
 H482 H 0.53266 0.77623 0.84998
 H483 H 0.56229 0.77701 0.82521
 H484 H 0.57725 0.71679 0.84516
 H485 H 0.47490 0.74576 0.89368
 H486 H 0.44193 0.74623 0.87650
 H487 H 0.47261 0.75090 0.81469
 H488 H 0.50507 0.74989 0.83327
 C489 C 0.51225 0.68760 0.91927
 C490 C 0.51829 0.80332 0.92627
 C491 C 0.45454 0.74888 0.84411
 C492 C 0.57215 0.74685 0.83307
 C493 C -0.22209 0.62620 0.96318
 H494 H -0.21313 0.61433 0.96991
 C495 C -0.21473 0.63648 0.94516
 H496 H -0.20002 0.63262 0.93842
 C497 C -0.25233 0.64528 0.96325
 H498 H -0.26712 0.64836 0.97023
 C499 C -0.24544 0.65610 0.94536
 H500 H -0.25505 0.66749 0.93854
 N501 N -0.24056 0.63078 0.97190
 C502 C -0.26573 0.62400 1.03677
 H503 H -0.26777 0.60787 1.03672
 C504 C -0.27166 0.63524 1.05478
 H505 H -0.27892 0.62719 1.06783
 C506 C -0.25518 0.65336 1.01857
 H507 H -0.24843 0.66032 1.00451
 C508 C -0.26057 0.66524 1.03645
 H509 H -0.25727 0.68111 1.03561
 Zn510 Zn -0.25065 0.61586 0.99565
 N511 N -0.25788 0.63312 1.01904
 C512 C -0.21422 0.60863 1.01403
 N513 N -0.22983 0.59869 1.00513
 C514 C -0.22891 0.57850 1.00149
 C515 C -0.21095 0.56794 1.00489
 C516 C -0.19618 0.59871 1.01781
 C517 C -0.29195 0.60737 0.99501
 C518 C -0.30954 0.59815 0.98843
 C519 C -0.28967 0.57712 0.96427
 C520 C -0.27233 0.58699 0.97116
 N521 N -0.27373 0.60157 0.98659
 H522 H -0.21540 0.62464 1.01691
 H523 H -0.24159 0.57075 0.99483
 H524 H -0.20988 0.55222 1.00046
 H525 H -0.18360 0.60716 1.02389
 H526 H -0.29302 0.61952 1.00650
 H527 H -0.32386 0.60300 0.99543
 H528 H -0.28842 0.56555 0.95201
 H529 H -0.25779 0.58318 0.96402
 C530 C -0.26882 0.65631 1.05527
 C531 C -0.22645 0.65165 0.93604
 C532 C -0.30857 0.58286 0.97287
 C533 C -0.19405 0.57834 1.01222
 C534 C -0.25953 0.35068 0.52619
 H535 H -0.26435 0.34084 0.51347
 C536 C -0.25426 0.34287 0.54512
 H537 H -0.25531 0.32678 0.54722
 C538 C -0.25403 0.38416 0.53828
 H539 H -0.25402 0.40018 0.53566
 C540 C -0.24834 0.37634 0.55935
 H541 H -0.24346 0.38721 0.57107
 N542 N -0.25918 0.37206 0.52293
 C543 C -0.29118 0.37053 0.46457
 H544 H -0.30038 0.38320 0.46951
 C545 C -0.29625 0.35983 0.44618
 H546 H -0.30919 0.36448 0.43711
 C547 C -0.26247 0.34988 0.46923
 H548 H -0.24893 0.34649 0.47786
 C549 C -0.26715 0.33859 0.45097
 H550 H -0.25709 0.32666 0.44554
 Zn551 Zn -0.26579 0.38471 0.49665
 N552 N -0.27408 0.36599 0.47523
 C553 C -0.23002 0.39115 0.47139
 N554 N -0.24268 0.39924 0.48666
 C555 C -0.23847 0.41721 0.49606
 C556 C -0.22060 0.42732 0.49085
 C557 C -0.21192 0.40066 0.46584
 C558 C -0.30115 0.39888 0.51776
 C559 C -0.31826 0.41097 0.52061
 C560 C -0.30630 0.43171 0.49128
 C561 C -0.28943 0.41920 0.48904
 N562 N -0.28727 0.40305 0.50204
 H563 H -0.23354 0.37700 0.46390
 H564 H -0.24878 0.42354 0.50799
 H565 H -0.21716 0.44120 0.49913
 H566 H -0.20177 0.39369 0.45412
 H567 H -0.29930 0.38569 0.52762
 H568 H -0.32937 0.40634 0.53256
 H569 H -0.30707 0.44462 0.48087
 H570 H -0.27824 0.42214 0.47654
 C571 C -0.28382 0.34408 0.43883
 C572 C -0.24843 0.35636 0.56321
 C573 C -0.32146 0.42758 0.50699
 C574 C -0.20683 0.41877 0.47597
 C575 C 0.24937 -0.15339 0.02554
 H576 H 0.24507 -0.16173 0.01143
 C577 C 0.25287 -0.16312 0.04392
 H578 H 0.25057 -0.17918 0.04421
 C579 C 0.25622 -0.12153 0.04129
 H580 H 0.25818 -0.10545 0.03992
 C581 C 0.26051 -0.13151 0.06166
 H582 H 0.26602 -0.12197 0.07427
 N583 N 0.25126 -0.13192 0.02456
 C584 C 0.22953 -0.14402 -0.02693
 H585 H 0.21881 -0.14431 -0.01357
 C586 C 0.22497 -0.15353 -0.04628
 H587 H 0.21076 -0.16130 -0.04777
 C588 C 0.26049 -0.13219 -0.04183
 H589 H 0.27395 -0.12329 -0.04034
 C590 C 0.25651 -0.14135 -0.06140
 H591 H 0.26725 -0.13982 -0.07467
 Zn592 Zn 0.25028 -0.11692 -0.00094
 N593 N 0.24692 -0.13339 -0.02521
 C594 C 0.29177 -0.11496 -0.00183
 N595 N 0.27507 -0.10315 -0.00286
 C596 C 0.27643 -0.08275 -0.00296
 C597 C 0.29525 -0.07348 -0.00179
 C598 C 0.31079 -0.10636 -0.00053
 C599 C 0.21394 -0.09988 0.01558
 C600 C 0.19619 -0.08868 0.01413
 C601 C 0.20882 -0.07505 -0.01945
 C602 C 0.22613 -0.08676 -0.01747
 N603 N 0.22831 -0.09894 -0.00026
 H604 H 0.29019 -0.13113 -0.00144
 H605 H 0.26295 -0.07363 -0.00317
 H606 H 0.29614 -0.05724 -0.00126
 H607 H 0.32390 -0.11602 0.00053
 H608 H 0.21575 -0.11011 0.02884
 H609 H 0.18473 -0.09109 0.02644
 H610 H 0.20818 -0.06517 -0.03314
 H611 H 0.23775 -0.08647 -0.02996
 C612 C 0.23833 -0.15171 -0.06395
 C613 C 0.25903 -0.15173 0.06350
 C614 C 0.19300 -0.07622 -0.00388
 C615 C 0.31265 -0.08538 -0.00014
 C616 C 0.25820 1.12877 0.46949
 H617 H 0.26804 1.11835 0.47735
 C618 C 0.26467 1.13738 0.45017
 H619 H 0.27940 1.13354 0.44343
 C620 C 0.22720 1.14649 0.46839
 H621 H 0.21253 1.14988 0.47548
 C622 C 0.23330 1.15581 0.44923
 H623 H 0.22328 1.16634 0.44159
 N624 N 0.23972 1.13336 0.47825
 C625 C 0.22032 1.13228 0.54606
 H626 H 0.22143 1.11629 0.54881
 C627 C 0.21648 1.14524 0.56336
 H628 H 0.21492 1.13890 0.57928
 C629 C 0.22307 1.15976 0.52217
 H630 H 0.22637 1.16551 0.50632
 C631 C 0.21875 1.17326 0.53893
 H632 H 0.21814 1.18915 0.53540
 Zn633 Zn 0.23225 1.12073 0.50472
 N634 N 0.22390 1.13967 0.52602
 C635 C 0.26795 1.11841 0.52726
 N636 N 0.25536 1.10757 0.51482
 C637 C 0.26058 1.08901 0.50728
 C638 C 0.27955 1.08101 0.51149
 C639 C 0.28699 1.11098 0.53188
 C640 C 0.19876 1.10359 0.48403
 C641 C 0.18324 1.08979 0.48129
 C642 C 0.19455 1.07192 0.51248
 C643 C 0.20965 1.08626 0.51483
 N644 N 0.21151 1.10170 0.50068
 H645 H 0.26361 1.13329 0.53269
 H646 H 0.25050 1.08095 0.49694
 H647 H 0.28393 1.06671 0.50439
 H648 H 0.29707 1.12008 0.54126
 H649 H 0.20038 1.11594 0.47297
 H650 H 0.17291 1.09204 0.46832
 H651 H 0.19367 1.05957 0.52372
 H652 H 0.22003 1.08498 0.52788
 C653 C 0.21590 1.16613 0.56003
 C654 C 0.25222 1.15116 0.43995
 C655 C 0.18094 1.07364 0.49562
 C656 C 0.29323 1.09235 0.52337
 C657 C 0.16580 0.48459 0.27043
 H658 H 0.16919 0.49716 0.28071
 C659 C 0.17382 0.46562 0.27501
 H660 H 0.18357 0.46385 0.28859
 C661 C 0.14759 0.47098 0.24157
 H662 H 0.13672 0.47258 0.22916
 C663 C 0.15525 0.45194 0.24551
 H664 H 0.15065 0.43950 0.23549
 N665 N 0.15285 0.48694 0.25393
 C666 C 0.15447 0.54417 0.22505
 H667 H 0.14303 0.54009 0.21381
 C668 C 0.16590 0.56142 0.22128
 H669 H 0.16344 0.57004 0.20687
 C670 C 0.17109 0.53839 0.25769
 H671 H 0.17253 0.52988 0.27228
 C672 C 0.18267 0.55565 0.25470
 H673 H 0.19294 0.56005 0.26712
 Zn674 Zn 0.13907 0.51178 0.24987
 N675 N 0.15703 0.53317 0.24317
 C676 C 0.12615 0.53586 0.28575
 N677 N 0.12489 0.51763 0.27585
 C678 C 0.11339 0.50264 0.28434
 C679 C 0.10228 0.50577 0.30334
 C680 C 0.11557 0.53950 0.30508
 C681 C 0.12706 0.50332 0.20745
 C682 C 0.11355 0.49803 0.19156
 C683 C 0.08614 0.50519 0.21664
 C684 C 0.10023 0.51014 0.23204
 N685 N 0.12027 0.50854 0.22747
 H686 H 0.13521 0.54765 0.27863
 H687 H 0.11274 0.48828 0.27617
 H688 H 0.09313 0.49371 0.30989
 H689 H 0.11663 0.55404 0.31285
 H690 H 0.14311 0.50252 0.20405
 H691 H 0.11991 0.49437 0.17588
 H692 H 0.07052 0.50544 0.22192
 H693 H 0.09503 0.51461 0.24793
 C694 C 0.17991 0.56766 0.23648
 C695 C 0.16817 0.44896 0.26268
 C696 C 0.09248 0.49840 0.19592
 C697 C 0.10335 0.52436 0.31393
 C698 C -0.14167 1.03212 0.26931
 H699 H -0.13132 1.02648 0.28098
 C700 C -0.15169 1.05024 0.27337
 H701 H -0.14926 1.05799 0.28841
 C702 C -0.15702 1.02914 0.23547
 H703 H -0.15865 1.02098 0.22054
 C704 C -0.16719 1.04738 0.23877
 H705 H -0.17652 1.05318 0.22618
 N706 N -0.14436 1.02202 0.25055
 C707 C -0.13334 0.95864 0.23824
 H708 H -0.11711 0.95959 0.23647
 C709 C -0.14267 0.94000 0.23806
 H710 H -0.13352 0.92658 0.23598
 C711 C -0.16482 0.97511 0.24366
 H712 H -0.17324 0.98888 0.24629
 C713 C -0.17487 0.95659 0.24355
 H714 H -0.19105 0.95615 0.24619
 Zn715 Zn -0.12847 0.99901 0.24392
 N716 N -0.14438 0.97568 0.24127
 C717 C -0.12151 0.98728 0.28476
 N718 N -0.11118 0.99361 0.26696
 C719 C -0.09074 0.99555 0.26681
 C720 C -0.08010 0.99228 0.28573
 C721 C -0.11159 0.98385 0.30378
 C722 C -0.12176 0.99366 0.20020
 C723 C -0.11459 0.99788 0.17959
 C724 C -0.09233 1.02267 0.19446
 C725 C -0.10033 1.01817 0.21496
 N726 N -0.11474 1.00381 0.21741
 H727 H -0.13769 0.98555 0.28433
 H728 H -0.08276 1.00014 0.25233
 H729 H -0.06399 0.99476 0.28587
 H730 H -0.12024 0.97949 0.31798
 H731 H -0.13352 0.98263 0.20225
 H732 H -0.12040 0.98902 0.16652
 H733 H -0.08133 1.03457 0.19298
 H734 H -0.09544 1.02656 0.22881
 C735 C -0.16362 0.93875 0.24123
 C736 C -0.16434 1.05837 0.25782
 C737 C -0.09988 1.01285 0.17618
 C738 C -0.09075 0.98693 0.30462
 C739 C 0.37239 0.52814 -0.21813
 H740 H 0.38309 0.52181 -0.20718
 C741 C 0.36267 0.54628 -0.21296
 H742 H 0.36569 0.55358 -0.19780
 C743 C 0.35612 0.52678 -0.25159
 H744 H 0.35420 0.51940 -0.26692
 C745 C 0.34608 0.54483 -0.24706
 H746 H 0.33644 0.55120 -0.25908
 N747 N 0.36919 0.51898 -0.23733
 C748 C 0.38077 0.45713 -0.26124
 H749 H 0.39671 0.45867 -0.26491
 C750 C 0.37149 0.43985 -0.26534
 H751 H 0.38042 0.42822 -0.27311
 C752 C 0.35043 0.47296 -0.24879
 H753 H 0.34244 0.48577 -0.24202
 C754 C 0.33962 0.45383 -0.25217
 H755 H 0.32401 0.45362 -0.24697
 Zn756 Zn 0.38536 0.49711 -0.24688
 N757 N 0.36968 0.47410 -0.25294
 C758 C 0.39369 0.47721 -0.20995
 N759 N 0.40292 0.48904 -0.22491
 C760 C 0.42282 0.49367 -0.22363
 C761 C 0.43399 0.48679 -0.20623
 C762 C 0.40433 0.46955 -0.19286
 C763 C 0.39286 0.49701 -0.29121
 C764 C 0.39934 0.50457 -0.31093
 C765 C 0.41809 0.53008 -0.29239
 C766 C 0.41118 0.52195 -0.27280
 N767 N 0.39871 0.50572 -0.27258
 H768 H 0.37790 0.47361 -0.21136
 H769 H 0.42995 0.50293 -0.23580
 H770 H 0.44957 0.49129 -0.20499
 H771 H 0.39654 0.45975 -0.18163
 H772 H 0.38224 0.48481 -0.29102
 H773 H 0.39424 0.49746 -0.32551
 H774 H 0.42750 0.54334 -0.29243
 H775 H 0.41503 0.52914 -0.25783
 C776 C 0.34953 0.43733 -0.25995
 C777 C 0.34959 0.55506 -0.22771
 C778 C 0.41169 0.52159 -0.31176
 C779 C 0.42466 0.47469 -0.19036
 C780 C 0.67016 -0.02248 -0.24765
 H781 H 0.67343 -0.01006 -0.23702
 C782 C 0.68015 -0.03998 -0.24578
 H783 H 0.69127 -0.04138 -0.23345
 C784 C 0.65054 -0.03503 -0.27627
 H785 H 0.63872 -0.03364 -0.28770
 C786 C 0.66106 -0.05430 -0.27490
 H787 H 0.65717 -0.06573 -0.28650
 N788 N 0.65449 -0.02041 -0.26313
 C789 C 0.63841 0.03979 -0.28282
 H790 H 0.62278 0.03655 -0.28585
 C791 C 0.64589 0.05885 -0.28714
 H792 H 0.63589 0.06963 -0.29435
 C793 C 0.66998 0.02923 -0.26995
 H794 H 0.67910 0.01776 -0.26267
 C795 C 0.67822 0.04818 -0.27418
 H796 H 0.69359 0.05088 -0.26959
 Zn797 Zn 0.63697 0.00229 -0.26402
 N798 N 0.65024 0.02565 -0.27375
 C799 C 0.61477 0.02520 -0.23379
 N800 N 0.62514 0.00768 -0.23671
 C801 C 0.62559 -0.00647 -0.22108
 C802 C 0.61529 -0.00325 -0.20157
 C803 C 0.60438 0.02912 -0.21446
 C804 C 0.61941 -0.00287 -0.30430
 C805 C 0.60451 -0.00867 -0.31841
 C806 C 0.58244 -0.01566 -0.28788
 C807 C 0.59780 -0.00980 -0.27433
 N808 N 0.61584 -0.00363 -0.28272
 H809 H 0.61427 0.03607 -0.24659
 H810 H 0.63337 -0.02055 -0.22398
 H811 H 0.61534 -0.01500 -0.18961
 H812 H 0.59636 0.04322 -0.21239
 H813 H 0.63398 0.00193 -0.31048
 H814 H 0.60751 -0.00780 -0.33556
 H815 H 0.56821 -0.02073 -0.28100
 H816 H 0.59543 -0.01057 -0.25712
 C817 C 0.66584 0.06374 -0.28194
 C818 C 0.67478 -0.05747 -0.25961
 C819 C 0.58579 -0.01525 -0.31021
 C820 C 0.60449 0.01476 -0.19804
 C821 C 0.02370 0.25978 0.84659
 H822 H 0.01376 0.27270 0.84709
 C823 C 0.04021 0.25934 0.83224
 H824 H 0.04267 0.27193 0.82155
 C825 C 0.03244 0.22772 0.85998
 H826 H 0.02963 0.21559 0.87109
 C827 C 0.04921 0.22673 0.84603
 H828 H 0.05916 0.21384 0.84675
 N829 N 0.02002 0.24403 0.85994
 C830 C -0.04442 0.24676 0.87569
 H831 H -0.04413 0.24537 0.89300
 C832 C -0.06283 0.24831 0.86542
 H833 H -0.07667 0.24806 0.87500
 C834 C -0.02671 0.24825 0.84225
 H835 H -0.01265 0.24799 0.83319
 C836 C -0.04481 0.24985 0.83131
 H837 H -0.04439 0.25130 0.81398
 Zn838 Zn -0.00233 0.24577 0.87943
 N839 N -0.02680 0.24725 0.86412
 C840 C -0.01398 0.28231 0.90086
 N841 N 0.00121 0.26890 0.89692
 C842 C 0.01980 0.27166 0.90519
 C843 C 0.02373 0.28850 0.91788
 C844 C -0.01079 0.29918 0.91380
 C845 C -0.00749 0.20490 0.88703
 C846 C -0.00827 0.18714 0.89878
 C847 C -0.00087 0.20609 0.93083
 C848 C -0.00020 0.22355 0.91841
 N849 N -0.00334 0.22260 0.89689
 H850 H -0.02856 0.28006 0.89395
 H851 H 0.03163 0.26080 0.90177
 H852 H 0.03865 0.29057 0.92420
 H853 H -0.02295 0.30983 0.91665
 H854 H -0.00998 0.20461 0.86991
 H855 H -0.01116 0.17316 0.89047
 H856 H 0.00153 0.20709 0.94795
 H857 H 0.00282 0.23783 0.92599
 C858 C -0.06319 0.25024 0.84294
 C859 C 0.05333 0.24269 0.83192
 C860 C -0.00500 0.18757 0.92102
 C861 C 0.00831 0.30248 0.92233
 C862 C 0.47402 0.25676 0.15026
 H863 H 0.48524 0.26851 0.14955
 C864 C 0.45627 0.25969 0.16235
 H865 H 0.45400 0.27369 0.17103
 C866 C 0.46320 0.22448 0.13934
 H867 H 0.46584 0.21092 0.13005
 C868 C 0.44527 0.22669 0.15152
 H869 H 0.43415 0.21483 0.15143
 N870 N 0.47707 0.23951 0.13877
 C871 C 0.54253 0.23464 0.12959
 H872 H 0.54373 0.23128 0.11262
 C873 C 0.55995 0.23515 0.14174
 H874 H 0.57447 0.23260 0.13386
 C875 C 0.52220 0.24084 0.16069
 H876 H 0.50749 0.24281 0.16818
 C877 C 0.53925 0.24126 0.17351
 H878 H 0.53746 0.24398 0.19062
 Zn879 Zn 0.50102 0.23795 0.12114
 N880 N 0.52412 0.23805 0.13902
 C881 C 0.51867 0.26484 0.09023
 N882 N 0.50170 0.26055 0.10208
 C883 C 0.48487 0.27217 0.10054
 C884 C 0.48507 0.28940 0.08782
 C885 C 0.51946 0.28188 0.07713
 C886 C 0.50517 0.19632 0.11497
 C887 C 0.50811 0.17854 0.10328
 C888 C 0.50322 0.19706 0.07051
 C889 C 0.50045 0.21454 0.08284
 N890 N 0.50175 0.21390 0.10463
 H891 H 0.53173 0.25524 0.09104
 H892 H 0.47119 0.26820 0.10921
 H893 H 0.47163 0.29864 0.08718
 H894 H 0.53331 0.28540 0.06840
 H895 H 0.50620 0.19624 0.13229
 H896 H 0.51110 0.16473 0.11180
 H897 H 0.50278 0.19796 0.05316
 H898 H 0.49774 0.22869 0.07494
 C899 C 0.55847 0.23876 0.16397
 C900 C 0.44151 0.24466 0.16289
 C901 C 0.50754 0.17882 0.08070
 C902 C 0.50265 0.29465 0.07621
 C903 C -0.01931 0.74944 0.62839
 H904 H -0.01609 0.75949 0.61522
 C905 C -0.03714 0.75074 0.63850
 H906 H -0.04726 0.76261 0.63376
 C907 C -0.00856 0.72247 0.65044
 H908 H 0.00241 0.71115 0.65456
 C909 C -0.02820 0.72353 0.66243
 H910 H -0.03107 0.71261 0.67494
 N911 N -0.00468 0.73478 0.63464
 C912 C 0.06073 0.73586 0.62267
 H913 H 0.06075 0.73453 0.60534
 C914 C 0.07881 0.73869 0.63319
 H915 H 0.09275 0.73911 0.62380
 C916 C 0.04237 0.73718 0.65577
 H917 H 0.02808 0.73715 0.66445
 C918 C 0.06018 0.74010 0.66699
 H919 H 0.05940 0.74221 0.68424
 Zn920 Zn 0.01945 0.73359 0.61736
 N921 N 0.04298 0.73515 0.63399
 C922 C 0.02085 0.77444 0.60939
 N923 N 0.01964 0.75642 0.59913
 C924 C 0.01655 0.75534 0.57760
 C925 C 0.01270 0.77284 0.56595
 C926 C 0.01697 0.79220 0.59845
 C927 C 0.03430 0.69591 0.60122
 C928 C 0.03361 0.67851 0.58856
 C929 C 0.00132 0.68935 0.57567
 C930 C 0.00260 0.70648 0.58858
 N931 N 0.01902 0.70959 0.60080
 H932 H 0.02348 0.77487 0.62648
 H933 H 0.01601 0.74092 0.56962
 H934 H 0.00910 0.77172 0.54911
 H935 H 0.01700 0.80634 0.60715
 H936 H 0.04700 0.69837 0.61142
 H937 H 0.04581 0.66770 0.58929
 H938 H -0.01173 0.68741 0.56576
 H939 H -0.00946 0.71747 0.58873
 C940 C 0.07871 0.74114 0.65562
 C941 C -0.04250 0.73675 0.65637
 C942 C 0.01697 0.67506 0.57551
 C943 C 0.01207 0.79146 0.57665
 C944 C 0.52127 0.78034 0.33419
 H945 H 0.50945 0.79129 0.33186
 C946 C 0.53786 0.77959 0.31988
 H947 H 0.53819 0.78966 0.30628
 C948 C 0.53479 0.75387 0.35468
 H949 H 0.53369 0.74409 0.36847
 C950 C 0.55194 0.75316 0.34136
 H951 H 0.56391 0.74295 0.34558
 N952 N 0.51969 0.76704 0.35068
 C953 C 0.45553 0.76804 0.36698
 H954 H 0.45678 0.76725 0.38426
 C955 C 0.43661 0.76941 0.35792
 H956 H 0.42333 0.76953 0.36839
 C957 C 0.47139 0.76827 0.33248
 H958 H 0.48492 0.76727 0.32257
 C959 C 0.45268 0.76973 0.32269
 H960 H 0.45208 0.77052 0.30534
 Zn961 Zn 0.49686 0.76707 0.36954
 N962 N 0.47248 0.76812 0.35432
 C963 C 0.48482 0.80465 0.38734
 N964 N 0.49877 0.78966 0.38810
 C965 C 0.51469 0.79090 0.40142
 C966 C 0.51677 0.80751 0.41504
 C967 C 0.48627 0.82145 0.40071
 C968 C 0.49445 0.72576 0.37316
 C969 C 0.49159 0.70714 0.38291
 C970 C 0.49167 0.72361 0.41758
 C971 C 0.49457 0.74201 0.40711
 N972 N 0.49576 0.74273 0.38525
 H973 H 0.47267 0.80381 0.37615
 H974 H 0.52576 0.77892 0.40148
 H975 H 0.52939 0.80812 0.42573
 H976 H 0.47512 0.83330 0.39964
 H977 H 0.49526 0.72680 0.35581
 H978 H 0.49058 0.69385 0.37289
 H979 H 0.49017 0.72333 0.43493
 H980 H 0.49520 0.75573 0.41642
 C981 C 0.43502 0.77075 0.33552
 C982 C 0.55349 0.76568 0.32319
 C983 C 0.48981 0.70589 0.40540
 C984 C 0.50235 0.82302 0.41487
 B985 B -0.01530 0.00015 1.00240
 B986 B -0.02794 -0.00436 0.97984
 B987 B -0.00813 0.01132 0.97910
 B988 B 0.00938 0.00265 0.99591
 B989 B 0.00021 -0.01921 1.00681
 B990 B -0.02305 -0.02337 0.99675
 B991 B 0.00428 -0.02464 0.96329
 B992 B 0.01699 -0.01961 0.98596
 B993 B -0.00281 -0.03572 0.98638
 B994 B -0.02052 -0.02685 0.96968
 B995 B -0.01142 -0.00521 0.95895
 B996 B 0.01195 -0.00090 0.96872
 B997 B 0.48059 0.52475 0.50811
 B998 B 0.46643 0.52075 0.48643
 B999 B 0.48596 0.53676 0.48494
 B1000 B 0.50483 0.52764 0.49978
 B1001 B 0.49673 0.50540 0.51055
 B1002 B 0.47277 0.50133 0.50227
 B1003 B 0.49771 0.50150 0.46674
 B1004 B 0.51197 0.50588 0.48837
 B1005 B 0.49240 0.48953 0.48989
 B1006 B 0.47355 0.49872 0.47496
 B1007 B 0.48148 0.52091 0.46436
 B1008 B 0.50543 0.52516 0.47244
 B1009 B 0.49532 0.99743 0.53000
 B1010 B 0.50986 1.00364 0.50845
 B1011 B 0.49007 0.98767 0.50593
 B1012 B 0.47125 0.99570 0.52261
 B1013 B 0.47940 1.01664 0.53534
 B1014 B 0.50335 1.02143 0.52674
 B1015 B 0.47880 1.02446 0.49225
 B1016 B 0.46452 1.01867 0.51408
 B1017 B 0.48416 1.03429 0.51649
 B1018 B 0.50304 1.02643 0.49979
 B1019 B 0.49483 1.00526 0.48693
 B1020 B 0.47071 1.00071 0.49579
 B1021 B 0.00498 0.47954 1.03345
 B1022 B 0.02046 0.48487 1.01229
 B1023 B 0.00255 0.46696 1.01036
 B1024 B -0.01826 0.47463 1.02458
 B1025 B -0.01286 0.49754 1.03513
 B1026 B 0.01119 0.50368 1.02774
 B1027 B -0.01096 0.50058 0.99136
 B1028 B -0.02623 0.49585 1.01269
 B1029 B -0.00823 0.51342 1.01460
 B1030 B 0.01233 0.50582 1.00031
 B1031 B 0.00694 0.48282 0.98962
 B1032 B -0.01713 0.47658 0.99737
 B1033 B 0.00093 0.49631 0.47548
 B1034 B 0.01218 0.49274 0.49936
 B1035 B -0.00868 0.50737 0.49773
 B1036 B -0.02431 0.49700 0.47981
 B1037 B -0.01281 0.47582 0.47010
 B1038 B 0.00982 0.47331 0.48203
 B1039 B -0.01977 0.47106 0.51335
 B1040 B -0.03077 0.47418 0.48946
 B1041 B -0.00991 0.45992 0.49097
 B1042 B 0.00550 0.47021 0.50910
 B1043 B -0.00598 0.49160 0.51872
 B1044 B -0.02867 0.49380 0.50654
 B1045 B 0.51754 -0.00335 -0.02268
 B1046 B 0.53039 -0.00270 0.00035
 B1047 B 0.51261 0.01472 -0.00395
 B1048 B 0.49357 0.00383 -0.01730
 B1049 B 0.49965 -0.02093 -0.02077
 B1050 B 0.52266 -0.02491 -0.00973
 B1051 B 0.49671 -0.01337 0.02251
 B1052 B 0.48386 -0.01368 -0.00050
 B1053 B 0.50164 -0.03135 0.00380
 B1054 B 0.52084 -0.02037 0.01713
 B1055 B 0.51459 0.00431 0.02067
 B1056 B 0.49162 0.00837 0.00967
 B1057 B 0.49682 0.47546 -0.01719
 B1058 B 0.48778 0.48357 0.00689
 B1059 B 0.50819 0.46847 0.00565
 B1060 B 0.52232 0.47449 -0.01628
 B1061 B 0.51039 0.49387 -0.02854
 B1062 B 0.48879 0.49944 -0.01418
 B1063 B 0.52090 0.50660 0.01149
 B1064 B 0.52991 0.49841 -0.01254
 B1065 B 0.50935 0.51351 -0.01122
 B1066 B 0.49536 0.50748 0.01072
 B1067 B 0.50732 0.48817 0.02299
 B1068 B 0.52889 0.48255 0.00864
 B1069 B -0.01215 0.97319 0.48142
 B1070 B -0.02694 0.97418 0.50371
 B1071 B -0.00836 0.95705 0.50179
 B1072 B 0.01156 0.96723 0.48867
 B1073 B 0.00516 0.99131 0.48256
 B1074 B -0.01887 0.99574 0.49200
 B1075 B 0.00435 0.98791 0.52639
 B1076 B 0.01938 0.98615 0.50415
 B1077 B 0.00089 1.00377 0.50594
 B1078 B -0.01929 0.99357 0.51917
 B1079 B -0.01292 0.96945 0.52520
 B1080 B 0.01114 0.96511 0.51612
 B1081 B 0.76501 0.23933 0.22917
 B1082 B 0.75738 0.22636 0.25120
 B1083 B 0.77384 0.24554 0.25344
 B1084 B 0.76750 0.26379 0.23610
 B1085 B 0.74675 0.25567 0.22303
 B1086 B 0.74064 0.23238 0.23221
 B1087 B 0.73680 0.25885 0.26582
 B1088 B 0.74421 0.27172 0.24381
 B1089 B 0.72795 0.25254 0.24144
 B1090 B 0.73426 0.23438 0.25893
 B1091 B 0.75504 0.24248 0.27204
 B1092 B 0.76112 0.26588 0.26263
 B1093 B 0.75626 0.76381 0.73254
 B1094 B 0.76035 0.77854 0.75411
 B1095 B 0.74459 0.75878 0.75643
 B1096 B 0.75381 0.73980 0.74086
 B1097 B 0.77578 0.74809 0.72939
 B1098 B 0.77963 0.77230 0.73779
 B1099 B 0.78046 0.74799 0.77285
 B1100 B 0.77619 0.73344 0.75107
 B1101 B 0.79201 0.75322 0.74919
 B1102 B 0.78276 0.77214 0.76472
 B1103 B 0.76076 0.76391 0.77621
 B1104 B 0.75687 0.73970 0.76807
 B1105 B 0.26131 0.26608 0.77234
 B1106 B 0.25843 0.27764 0.74840
 B1107 B 0.27315 0.25699 0.75006
 B1108 B 0.26248 0.24103 0.76796
 B1109 B 0.24060 0.25201 0.77743
 B1110 B 0.23857 0.27482 0.76547
 B1111 B 0.23712 0.24604 0.73414
 B1112 B 0.24009 0.23439 0.75802
 B1113 B 0.22531 0.25512 0.75630
 B1114 B 0.23607 0.27106 0.73851
 B1115 B 0.25775 0.26011 0.72903
 B1116 B 0.25998 0.23728 0.74098
 B1117 B 0.22781 0.75339 0.27869
 B1118 B 0.23146 0.74385 0.25357
 B1119 B 0.21609 0.76394 0.25798
 B1120 B 0.22621 0.77876 0.27698
 B1121 B 0.24794 0.76753 0.28457
 B1122 B 0.25106 0.74582 0.27032
 B1123 B 0.25187 0.77699 0.24188
 B1124 B 0.24869 0.78654 0.26679
 B1125 B 0.26365 0.76639 0.26283
 B1126 B 0.25368 0.75179 0.24366
 B1127 B 0.23172 0.76303 0.23606
 B1128 B 0.22889 0.78472 0.25052
 B1129 B 0.27876 0.73408 0.73390
 B1130 B 0.27259 0.72298 0.75753
 B1131 B 0.28840 0.74286 0.75693
 B1132 B 0.28060 0.75912 0.73805
 B1133 B 0.25952 0.74917 0.72704
 B1134 B 0.25475 0.72668 0.73894
 B1135 B 0.25145 0.75595 0.76971
 B1136 B 0.25735 0.76698 0.74611
 B1137 B 0.24177 0.74717 0.74677
 B1138 B 0.24956 0.73092 0.76561
 B1139 B 0.27053 0.74090 0.77668
 B1140 B 0.27526 0.76350 0.76449
 B1141 B 0.23735 0.26815 0.24174
 B1142 B 0.24258 0.27966 0.26504
 B1143 B 0.22694 0.25979 0.26505
 B1144 B 0.23535 0.24321 0.24621
 B1145 B 0.25676 0.25306 0.23470
 B1146 B 0.26107 0.27578 0.24645
 B1147 B 0.26352 0.24706 0.27751
 B1148 B 0.25808 0.23550 0.25401
 B1149 B 0.27393 0.25527 0.25430
 B1150 B 0.26552 0.27200 0.27290
 B1151 B 0.24411 0.26226 0.28442
 B1152 B 0.23971 0.23946 0.27288
 B1153 B 0.76048 0.75980 0.26869
 B1154 B 0.75753 0.77046 0.24446
 B1155 B 0.77334 0.75083 0.24693
 B1156 B 0.76336 0.73466 0.26524
 B1157 B 0.74089 0.74469 0.27386
 B1158 B 0.73734 0.76700 0.26094
 B1159 B 0.73872 0.73712 0.23058
 B1160 B 0.74157 0.72651 0.25483
 B1161 B 0.72581 0.74631 0.25245
 B1162 B 0.73578 0.76225 0.23403
 B1163 B 0.75826 0.75228 0.22545
 B1164 B 0.76190 0.73001 0.23839
 B1165 B 0.73796 0.23959 0.76655
 B1166 B 0.74220 0.22998 0.74176
 B1167 B 0.72630 0.24959 0.74523
 B1168 B 0.73541 0.26490 0.76445
 B1169 B 0.75733 0.25447 0.77273
 B1170 B 0.76153 0.23266 0.75870
 B1171 B 0.76188 0.26358 0.72992
 B1172 B 0.75774 0.27336 0.75462
 B1173 B 0.77357 0.25371 0.75140
 B1174 B 0.76453 0.23845 0.73217
 B1175 B 0.74249 0.24881 0.72385
 B1176 B 0.73833 0.27061 0.73787
 C1177 C 0.39965 1.04707 0.37988
 C1178 C 0.42033 1.04872 0.38455
 C1179 C 0.43435 1.04969 0.36703
 C1180 C 0.42798 1.04614 0.34590
 C1181 C 0.40773 1.04169 0.34215
 C1182 C 0.39357 1.04332 0.35905
 C1183 C 0.45471 1.05303 0.37090
 C1184 C 0.46168 1.05400 0.39184
 C1185 C 0.44860 1.05071 0.40970
 C1186 C 0.42755 1.04813 0.40594
 C1187 C 0.41462 1.04307 0.42341
 C1188 C 0.42217 1.03892 0.44340
 C1189 C 0.44268 1.04069 0.44710
 C1190 C 0.45600 1.04806 0.43095
 C1191 C 0.47632 1.05123 0.43661
 C1192 C 0.48325 1.04551 0.45684
 C1193 C 0.47030 1.03607 0.47183
 C1194 C 0.44999 1.03392 0.46660
 H1195 H 0.38783 1.04808 0.39200
 H1196 H 0.43891 1.04541 0.33269
 H1197 H 0.37772 1.04081 0.35624
 H1198 H 0.46549 1.05429 0.35761
 H1199 H 0.47770 1.05592 0.39348
 H1200 H 0.39870 1.04059 0.42184
 H1201 H 0.41187 1.03377 0.45599
 H1202 H 0.48721 1.05786 0.42566
 H1203 H 0.49906 1.04743 0.46020
 H1204 H 0.43979 1.02563 0.47695
 C1205 C -0.09426 0.51919 0.88111
 C1206 C -0.07370 0.52249 0.88482
 C1207 C -0.06122 0.52861 0.86732
 C1208 C -0.06858 0.52794 0.84621
 C1209 C -0.08829 0.52099 0.84250
 C1210 C -0.10131 0.51826 0.86039
 C1211 C -0.04131 0.53428 0.87102
 C1212 C -0.03333 0.53295 0.89156
 C1213 C -0.04469 0.52474 0.90886
 C1214 C -0.06510 0.51907 0.90517
 C1215 C -0.07583 0.50837 0.92122
 C1216 C -0.06680 0.50281 0.93998
 C1217 C -0.04713 0.50857 0.94401
 C1218 C -0.03608 0.52059 0.92927
 C1219 C -0.01683 0.52740 0.93558
 C1220 C -0.00894 0.52189 0.95552
 C1221 C -0.01967 0.50892 0.96931
 C1222 C -0.03846 0.50191 0.96278
 H1223 H -0.10525 0.51708 0.89395
 H1224 H -0.05834 0.53103 0.83282
 H1225 H -0.11718 0.51517 0.85846
 H1226 H -0.03169 0.53941 0.85786
 H1227 H -0.01775 0.53715 0.89313
 H1228 H -0.09085 0.50271 0.91910
 H1229 H -0.07533 0.49382 0.95147
 H1230 H -0.00782 0.53728 0.92560
 H1231 H 0.00573 0.52743 0.95991
 H1232 H -0.04687 0.49129 0.97255
 C1233 C 0.05201 -0.01937 0.83030
 C1234 C 0.05681 -0.03090 0.84856
 C1235 C 0.07664 -0.03877 0.84968
 C1236 C 0.09087 -0.03524 0.83300
 C1237 C 0.08591 -0.02344 0.81522
 C1238 C 0.06633 -0.01569 0.81408
 C1239 C 0.08234 -0.04961 0.86771
 C1240 C 0.06919 -0.05181 0.88529
 C1241 C 0.04955 -0.04358 0.88531
 C1242 C 0.04295 -0.03390 0.86619
 C1243 C 0.02284 -0.02699 0.86557
 C1244 C 0.01047 -0.02702 0.88379
 C1245 C 0.01751 -0.03423 0.90320
 C1246 C 0.03661 -0.04369 0.90409
 C1247 C 0.04218 -0.05187 0.92409
 C1248 C 0.03057 -0.04812 0.94280
 C1249 C 0.01345 -0.03578 0.94223
 C1250 C 0.00600 -0.03079 0.92199
 H1251 H 0.03757 -0.01226 0.82837
 H1252 H 0.10592 -0.04148 0.83402
 H1253 H 0.06213 -0.00613 0.80087
 H1254 H 0.09740 -0.05586 0.86859
 H1255 H 0.07504 -0.05973 0.89886
 H1256 H 0.01626 -0.02102 0.85128
 H1257 H -0.00449 -0.02052 0.88287
 H1258 H 0.05582 -0.06043 0.92604
 H1259 H 0.03591 -0.05376 0.95784
 H1260 H -0.00809 -0.02265 0.92076
 C1261 C 0.53982 0.49643 0.32884
 C1262 C 0.54557 0.48838 0.34884
 C1263 C 0.56544 0.48067 0.35034
 C1264 C 0.57928 0.48257 0.33305
 C1265 C 0.57359 0.49167 0.31388
 C1266 C 0.55365 0.49802 0.31170
 C1267 C 0.57157 0.47158 0.36925
 C1268 C 0.55872 0.47072 0.38716
 C1269 C 0.53930 0.47943 0.38703
 C1270 C 0.53258 0.48835 0.36753
 C1271 C 0.51360 0.49803 0.36773
 C1272 C 0.50231 0.50033 0.38662
 C1273 C 0.50911 0.49253 0.40587
 C1274 C 0.52696 0.48085 0.40616
 C1275 C 0.53202 0.47183 0.42589
 C1276 C 0.52141 0.47665 0.44491
 C1277 C 0.50579 0.49088 0.44498
 C1278 C 0.49872 0.49737 0.42506
 H1279 H 0.52481 0.50177 0.32587
 H1280 H 0.59462 0.47715 0.33456
 H1281 H 0.54890 0.50483 0.29687
 H1282 H 0.58665 0.46541 0.37037
 H1283 H 0.56489 0.46401 0.40130
 H1284 H 0.50745 0.50505 0.35378
 H1285 H 0.48838 0.50887 0.38624
 H1286 H 0.54436 0.46138 0.42724
 H1287 H 0.52647 0.47021 0.45970
 H1288 H 0.48579 0.50729 0.42436
 C1289 C 0.55742 0.53513 0.14367
 C1290 C 0.56710 0.53570 0.12313
 C1291 C 0.58839 0.53342 0.12221
 C1292 C 0.59920 0.52991 0.14092
 C1293 C 0.58925 0.52829 0.16091
 C1294 C 0.56838 0.53147 0.16221
 C1295 C 0.59879 0.53401 0.10252
 C1296 C 0.58844 0.53483 0.08347
 C1297 C 0.56717 0.53501 0.08343
 C1298 C 0.55640 0.53720 0.10345
 C1299 C 0.53530 0.54004 0.10302
 C1300 C 0.52490 0.53862 0.08388
 C1301 C 0.53501 0.53364 0.06463
 C1302 C 0.55632 0.53213 0.06412
 C1303 C 0.56583 0.52564 0.04482
 C1304 C 0.55463 0.51917 0.02757
 C1305 C 0.53346 0.52010 0.02801
 C1306 C 0.52385 0.52851 0.04639
 H1307 H 0.54133 0.53660 0.14585
 H1308 H 0.61542 0.52786 0.13987
 H1309 H 0.56036 0.53030 0.17752
 H1310 H 0.61511 0.53308 0.10177
 H1311 H 0.59757 0.53517 0.06892
 H1312 H 0.52635 0.54316 0.11733
 H1313 H 0.50863 0.54022 0.08442
 H1314 H 0.58188 0.52332 0.04324
 H1315 H 0.56294 0.51163 0.01488
 H1316 H 0.50753 0.52901 0.04747
 C1317 C 0.09120 1.02452 0.62806
 C1318 C 0.07250 1.01432 0.62733
 C1319 C 0.06682 1.00246 0.64536
 C1320 C 0.07947 1.00075 0.66299
 C1321 C 0.09816 1.01041 0.66316
 C1322 C 0.10376 1.02257 0.64571
 C1323 C 0.04867 0.99204 0.64566
 C1324 C 0.03649 0.99201 0.62790
 C1325 C 0.04199 1.00252 0.60902
 C1326 C 0.05961 1.01485 0.60916
 C1327 C 0.06381 1.02699 0.59104
 C1328 C 0.05198 1.02612 0.57288
 C1329 C 0.03591 1.01271 0.57177
 C1330 C 0.03067 1.00076 0.58984
 C1331 C 0.01507 0.98658 0.58754
 C1332 C 0.00615 0.98345 0.56782
 C1333 C 0.01195 0.99463 0.54964
 C1334 C 0.02585 1.01029 0.55225
 H1335 H 0.09685 1.03365 0.61501
 H1336 H 0.07478 0.99167 0.67664
 H1337 H 0.11816 1.03018 0.64544
 H1338 H 0.04401 0.98339 0.65963
 H1339 H 0.02270 0.98361 0.62956
 H1340 H 0.07622 1.03738 0.59039
 H1341 H 0.05604 1.03542 0.55919
 H1342 H 0.01024 0.97666 0.60026
 H1343 H -0.00483 0.97152 0.56685
 H1344 H 0.03035 1.01934 0.53855
 C1345 C -0.04687 0.46542 0.65431
 C1346 C -0.05765 0.46400 0.63497
 C1347 C -0.07862 0.46807 0.63618
 C1348 C -0.08799 0.47425 0.65548
 C1349 C -0.07723 0.47572 0.67454
 C1350 C -0.05656 0.47101 0.67373
 C1351 C -0.09035 0.46607 0.61807
 C1352 C -0.08159 0.46137 0.59832
 C1353 C -0.06051 0.45918 0.59569
 C1354 C -0.04841 0.45940 0.61441
 C1355 C -0.02751 0.45568 0.61173
 C1356 C -0.01853 0.45349 0.59135
 C1357 C -0.02991 0.45534 0.57286
 C1358 C -0.05110 0.45776 0.57485
 C1359 C -0.06191 0.46060 0.55588
 C1360 C -0.05200 0.46297 0.53624
 C1361 C -0.03094 0.46133 0.53404
 C1362 C -0.02009 0.45641 0.55248
 H1363 H -0.03094 0.46237 0.65499
 H1364 H -0.10379 0.47836 0.65536
 H1365 H -0.04777 0.47153 0.68814
 H1366 H -0.10653 0.46838 0.61912
 H1367 H -0.09189 0.45977 0.58534
 H1368 H -0.01756 0.45482 0.62512
 H1369 H -0.00234 0.45138 0.59006
 H1370 H -0.07794 0.46306 0.55576
 H1371 H -0.06114 0.46820 0.52335
 H1372 H -0.00378 0.45554 0.55144
 C1373 C 0.41201 0.00441 0.13722
 C1374 C 0.43081 -0.00515 0.13309
 C1375 C 0.44036 -0.01459 0.15055
 C1376 C 0.43175 -0.01343 0.17145
 C1377 C 0.41329 -0.00352 0.17515
 C1378 C 0.40353 0.00520 0.15784
 C1379 C 0.45837 -0.02515 0.14700
 C1380 C 0.46717 -0.02657 0.12649
 C1381 C 0.45857 -0.01693 0.10872
 C1382 C 0.44033 -0.00565 0.11225
 C1383 C 0.43245 0.00529 0.09498
 C1384 C 0.44190 0.00523 0.07497
 C1385 C 0.45939 -0.00594 0.07116
 C1386 C 0.46783 -0.01760 0.08765
 C1387 C 0.48522 -0.02925 0.08221
 C1388 C 0.49409 -0.02859 0.06150
 C1389 C 0.48601 -0.01627 0.04563
 C1390 C 0.46857 -0.00510 0.05080
 H1391 H 0.40320 0.01119 0.12488
 H1392 H 0.43920 -0.02051 0.18477
 H1393 H 0.38923 0.01289 0.16031
 H1394 H 0.46572 -0.03249 0.16022
 H1395 H 0.48109 -0.03491 0.12517
 H1396 H 0.41928 0.01472 0.09647
 H1397 H 0.43543 0.01416 0.06231
 H1398 H 0.49226 -0.03906 0.09355
 H1399 H 0.50747 -0.03750 0.05804
 H1400 H 0.46182 0.00443 0.03885
 C1401 C 0.37408 0.41176 0.01056
 C1402 C 0.37988 0.43042 0.01936
 C1403 C 0.36443 0.44372 0.02668
 C1404 C 0.34405 0.43782 0.02631
 C1405 C 0.33864 0.41893 0.01810
 C1406 C 0.35391 0.40624 0.00990
 C1407 C 0.36943 0.46286 0.03410
 C1408 C 0.38937 0.46939 0.03366
 C1409 C 0.40526 0.45668 0.02644
 C1410 C 0.40046 0.43653 0.02033
 C1411 C 0.41638 0.42304 0.01547
 C1412 C 0.43619 0.42942 0.01456
 C1413 C 0.44095 0.44947 0.01836
 C1414 C 0.42576 0.46339 0.02477
 C1415 C 0.43171 0.48358 0.02811
 C1416 C 0.45160 0.48973 0.02387
 C1417 C 0.46632 0.47601 0.01640
 C1418 C 0.46080 0.45573 0.01459
 H1419 H 0.38470 0.40130 0.00336
 H1420 H 0.33243 0.44791 0.03254
 H1421 H 0.35026 0.39197 0.00255
 H1422 H 0.35774 0.47311 0.03985
 H1423 H 0.39191 0.48446 0.03936
 H1424 H 0.41404 0.40728 0.01245
 H1425 H 0.44788 0.41861 0.01021
 H1426 H 0.42117 0.49519 0.03296
 H1427 H 0.45515 0.50552 0.02552
 H1428 H 0.47130 0.44488 0.00787
 C1429 C -0.16096 0.95279 0.53141
 C1430 C -0.14625 0.94834 0.51515
 C1431 C -0.15206 0.93566 0.49800
 C1432 C -0.17183 0.92849 0.49690
 C1433 C -0.18615 0.93303 0.51306
 C1434 C -0.18053 0.94504 0.53042
 C1435 C -0.13810 0.92997 0.48205
 C1436 C -0.11818 0.93594 0.48306
 C1437 C -0.11148 0.94828 0.49993
 C1438 C -0.12592 0.95557 0.51551
 C1439 C -0.11959 0.97007 0.53056
 C1440 C -0.09974 0.97691 0.53057
 C1441 C -0.08521 0.96891 0.51630
 C1442 C -0.09084 0.95396 0.50132
 C1443 C -0.07546 0.94479 0.48869
 C1444 C -0.05559 0.95101 0.48996
 C1445 C -0.05006 0.96692 0.50348
 C1446 C -0.06505 0.97559 0.51697
 H1447 H -0.15762 0.96173 0.54536
 H1448 H -0.17600 0.91880 0.48368
 H1449 H -0.19136 0.94853 0.54321
 H1450 H -0.14255 0.92053 0.46874
 H1451 H -0.10844 0.93116 0.46988
 H1452 H -0.12986 0.97692 0.54213
 H1453 H -0.09565 0.98833 0.54213
 H1454 H -0.07816 0.93226 0.47813
 H1455 H -0.04456 0.94319 0.47995
 H1456 H -0.06108 0.98737 0.52815
 C1457 C -0.13389 0.08117 0.98199
 C1458 C -0.13097 0.06062 0.97725
 C1459 C -0.14787 0.04928 0.97102
 C1460 C -0.16736 0.05787 0.97211
 C1461 C -0.17028 0.07779 0.97951
 C1462 C -0.15307 0.08945 0.98326
 C1463 C -0.14521 0.02933 0.96435
 C1464 C -0.12617 0.02033 0.96414
 C1465 C -0.10914 0.03074 0.97151
 C1466 C -0.11181 0.05107 0.97870
 C1467 C -0.09554 0.06098 0.98827
 C1468 C -0.07715 0.05162 0.99036
 C1469 C -0.07404 0.03218 0.98268
 C1470 C -0.08966 0.02144 0.97276
 C1471 C -0.08496 0.00193 0.96470
 C1472 C -0.06556 -0.00636 0.96671
 C1473 C -0.05038 0.00438 0.97703
 C1474 C -0.05516 0.02352 0.98518
 H1475 H -0.12162 0.09139 0.98459
 H1476 H -0.18018 0.04849 0.96860
 H1477 H -0.15426 0.10534 0.98691
 H1478 H -0.15800 0.02054 0.95933
 H1479 H -0.12539 0.00487 0.95894
 H1480 H -0.09676 0.07578 0.99527
 H1481 H -0.06517 0.05976 0.99811
 H1482 H -0.09582 -0.00709 0.95647
 H1483 H -0.06250 -0.02120 0.96020
 H1484 H -0.04410 0.03206 0.99376
 C1485 C 0.34979 0.59274 0.49616
 C1486 C 0.35565 0.57278 0.49119
 C1487 C 0.34023 0.55885 0.48638
 C1488 C 0.31975 0.56452 0.48810
 C1489 C 0.31430 0.58407 0.49447
 C1490 C 0.32955 0.59818 0.49779
 C1491 C 0.34534 0.53926 0.48025
 C1492 C 0.36539 0.53308 0.47896
 C1493 C 0.38125 0.54617 0.48430
 C1494 C 0.37623 0.56624 0.49094
 C1495 C 0.39186 0.57891 0.49786
 C1496 C 0.41169 0.57235 0.49816
 C1497 C 0.41691 0.55307 0.49124
 C1498 C 0.40193 0.53977 0.48384
 C1499 C 0.40835 0.52059 0.47646
 C1500 C 0.42862 0.51482 0.47700
 C1501 C 0.44332 0.52786 0.48492
 C1502 C 0.43714 0.54700 0.49200
 H1503 H 0.36043 0.60463 0.49876
 H1504 H 0.30808 0.55356 0.48517
 H1505 H 0.32579 0.61361 0.50185
 H1506 H 0.33368 0.52853 0.47646
 H1507 H 0.36791 0.51766 0.47431
 H1508 H 0.38923 0.59391 0.50386
 H1509 H 0.42309 0.58256 0.50390
 H1510 H 0.39815 0.50969 0.47000
 H1511 H 0.43263 0.49991 0.47132
 H1512 H 0.44795 0.55716 0.49884
 C1513 C 0.11894 0.56887 0.53862
 C1514 C 0.11499 0.55221 0.52514
 C1515 C 0.13096 0.54525 0.51144
 C1516 C 0.14959 0.55523 0.51063
 C1517 C 0.15296 0.57221 0.52342
 C1518 C 0.13755 0.57865 0.53770
 C1519 C 0.12820 0.52861 0.49821
 C1520 C 0.10986 0.51872 0.49800
 C1521 C 0.09328 0.52523 0.51093
 C1522 C 0.09578 0.54240 0.52455
 C1523 C 0.07883 0.54953 0.53653
 C1524 C 0.06004 0.54050 0.53498
 C1525 C 0.05737 0.52383 0.52172
 C1526 C 0.07405 0.51560 0.51002
 C1527 C 0.07072 0.49808 0.49770
 C1528 C 0.05139 0.49047 0.49532
 C1529 C 0.03452 0.50001 0.50499
 C1530 C 0.03794 0.51570 0.51959
 H1531 H 0.10800 0.57477 0.55007
 H1532 H 0.16127 0.55012 0.49939
 H1533 H 0.13986 0.59139 0.54822
 H1534 H 0.14034 0.52324 0.48770
 H1535 H 0.10904 0.50631 0.48691
 H1536 H 0.07940 0.56253 0.54686
 H1537 H 0.04737 0.54688 0.54402
 H1538 H 0.08265 0.48995 0.48944
 H1539 H 0.04974 0.47751 0.48496
 H1540 H 0.02537 0.52221 0.52864
 C1541 C 0.65968 0.03126 0.02735
 C1542 C 0.64755 0.02818 0.00923
 C1543 C 0.65424 0.03658 -0.01063
 C1544 C 0.67192 0.04784 -0.01199
 C1545 C 0.68266 0.05244 0.00643
 C1546 C 0.67687 0.04347 0.02598
 C1547 C 0.64265 0.03476 -0.02889
 C1548 C 0.62341 0.02695 -0.02733
 C1549 C 0.61549 0.02000 -0.00754
 C1550 C 0.62836 0.01845 0.01032
 C1551 C 0.62125 0.00770 0.02853
 C1552 C 0.60174 -0.00033 0.02937
 C1553 C 0.58819 0.00361 0.01297
 C1554 C 0.59492 0.01472 -0.00514
 C1555 C 0.58056 0.02191 -0.01938
 C1556 C 0.56047 0.01720 -0.01651
 C1557 C 0.55381 0.00370 -0.00054
 C1558 C 0.56786 -0.00272 0.01464
 H1559 H 0.65545 0.02559 0.04303
 H1560 H 0.67665 0.05419 -0.02731
 H1561 H 0.68500 0.04674 0.04045
 H1562 H 0.64800 0.04052 -0.04426
 H1563 H 0.61493 0.02629 -0.04193
 H1564 H 0.63070 0.00488 0.04207
 H1565 H 0.59691 -0.00875 0.04342
 H1566 H 0.58433 0.03239 -0.03205
 H1567 H 0.55016 0.02463 -0.02701
 H1568 H 0.56292 -0.01198 0.02802
 C1569 C 0.62691 0.94254 0.47017
 C1570 C 0.62047 0.95677 0.48590
 C1571 C 0.63333 0.96036 0.50340
 C1572 C 0.65191 0.95036 0.50471
 C1573 C 0.65781 0.93606 0.48924
 C1574 C 0.64521 0.93229 0.47197
 C1575 C 0.62742 0.97358 0.51981
 C1576 C 0.60849 0.98247 0.51997
 C1577 C 0.59482 0.97881 0.50337
 C1578 C 0.60142 0.96690 0.48536
 C1579 C 0.58872 0.96550 0.46752
 C1580 C 0.56970 0.97437 0.46785
 C1581 C 0.56229 0.98430 0.48620
 C1582 C 0.57471 0.98655 0.50427
 C1583 C 0.56616 0.99564 0.52291
 C1584 C 0.54599 1.00137 0.52382
 C1585 C 0.53343 0.99835 0.50625
 C1586 C 0.54221 0.99121 0.48693
 H1587 H 0.61784 0.93846 0.45671
 H1588 H 0.66146 0.95309 0.51831
 H1589 H 0.64951 0.92126 0.45983
 H1590 H 0.63734 0.97667 0.53301
 H1591 H 0.60512 0.99247 0.53325
 H1592 H 0.59321 0.95784 0.45288
 H1593 H 0.56038 0.97273 0.45387
 H1594 H 0.57432 0.99757 0.53753
 H1595 H 0.54011 1.00755 0.53883
 H1596 H 0.53298 0.98946 0.47291
 C1597 C 0.14956 0.44975 0.97507
 C1598 C 0.13787 0.45400 0.99390
 C1599 C 0.14724 0.45150 1.01395
 C1600 C 0.16685 0.44361 1.01497
 C1601 C 0.17788 0.43847 0.99620
 C1602 C 0.16918 0.44216 0.97628
 C1603 C 0.13685 0.45641 1.03299
 C1604 C 0.11723 0.46365 1.03269
 C1605 C 0.10696 0.46581 1.01323
 C1606 C 0.11724 0.46040 0.99355
 C1607 C 0.10629 0.46074 0.97436
 C1608 C 0.08596 0.46588 0.97442
 C1609 C 0.07585 0.47147 0.99344
 C1610 C 0.08641 0.47233 1.01293
 C1611 C 0.07595 0.47992 1.03129
 C1612 C 0.05547 0.48455 1.03068
 C1613 C 0.04440 0.48110 1.01210
 C1614 C 0.05514 0.47600 0.99311
 H1615 H 0.14406 0.45224 0.95916
 H1616 H 0.17318 0.44078 1.03056
 H1617 H 0.17750 0.43904 0.96146
 H1618 H 0.14392 0.45451 1.04838
 H1619 H 0.11017 0.46658 1.04816
 H1620 H 0.11281 0.45629 0.95905
 H1621 H 0.07803 0.46533 0.95940
 H1622 H 0.08323 0.48280 1.04628
 H1623 H 0.04827 0.49058 1.04511
 H1624 H 0.04746 0.47552 0.97796
 C1625 C -0.01945 0.34184 0.41876
 C1626 C -0.01246 0.34821 0.43899
 C1627 C -0.00404 0.33344 0.45252
 C1628 C -0.00266 0.31319 0.44577
 C1629 C -0.00988 0.30726 0.42570
 C1630 C -0.01814 0.32183 0.41235
 C1631 C 0.00292 0.33898 0.47270
 C1632 C 0.00176 0.35884 0.47981
 C1633 C -0.00637 0.37413 0.46691
 C1634 C -0.01352 0.36869 0.44611
 C1635 C -0.02140 0.38392 0.43299
 C1636 C -0.02209 0.40373 0.43966
 C1637 C -0.01515 0.40932 0.45972
 C1638 C -0.00744 0.39475 0.47388
 C1639 C -0.00114 0.40160 0.49430
 C1640 C -0.00216 0.42205 0.49999
 C1641 C -0.00940 0.43633 0.48556
 C1642 C -0.01592 0.42961 0.46549
 H1643 H -0.02607 0.35181 0.40733
 H1644 H 0.00372 0.30199 0.45624
 H1645 H -0.02346 0.31777 0.39659
 H1646 H 0.00936 0.32780 0.48315
 H1647 H 0.00756 0.36179 0.49552
 H1648 H -0.02708 0.38120 0.41721
 H1649 H -0.02813 0.41488 0.42887
 H1650 H 0.00462 0.39158 0.50625
 H1651 H 0.00286 0.42667 0.51568
 H1652 H -0.02191 0.44020 0.45410
 C1653 C 0.53509 -0.15474 -0.03608
 C1654 C 0.51660 -0.14545 -0.02997
 C1655 C 0.49866 -0.15394 -0.03791
 C1656 C 0.49937 -0.17114 -0.05104
 C1657 C 0.51783 -0.17965 -0.05789
 C1658 C 0.53566 -0.17136 -0.05000
 C1659 C 0.48006 -0.14486 -0.03329
 C1660 C 0.47903 -0.12648 -0.02271
 C1661 C 0.49660 -0.11687 -0.01566
 C1662 C 0.51533 -0.12738 -0.01739
 C1663 C 0.53205 -0.11923 -0.00681
 C1664 C 0.53082 -0.10056 0.00351
 C1665 C 0.51334 -0.08882 0.00241
 C1666 C 0.49611 -0.09683 -0.00747
 C1667 C 0.47982 -0.08378 -0.01109
 C1668 C 0.48114 -0.06341 -0.00635
 C1669 C 0.49777 -0.05531 0.00425
 C1670 C 0.51354 -0.06860 0.00941
 H1671 H 0.54941 -0.14880 -0.03127
 H1672 H 0.48536 -0.17759 -0.05634
 H1673 H 0.55022 -0.17727 -0.05511
 H1674 H 0.46622 -0.15157 -0.03877
 H1675 H 0.46419 -0.12015 -0.01994
 H1676 H 0.54625 -0.12713 -0.00609
 H1677 H 0.54409 -0.09474 0.01118
 H1678 H 0.46685 -0.08839 -0.01998
 H1679 H 0.46978 -0.05399 -0.01315
 H1680 H 0.52704 -0.06273 0.01658
 C1681 C 0.03298 -0.15486 1.04501
 C1682 C 0.01527 -0.14498 1.03818
 C1683 C -0.00352 -0.15360 1.04427
 C1684 C -0.00440 -0.17069 1.05738
 C1685 C 0.01323 -0.17981 1.06456
 C1686 C 0.03190 -0.17199 1.05792
 C1687 C -0.02145 -0.14500 1.03754
 C1688 C -0.02131 -0.12763 1.02534
 C1689 C -0.00312 -0.11791 1.01951
 C1690 C 0.01550 -0.12675 1.02596
 C1691 C 0.03364 -0.11668 1.02060
 C1692 C 0.03357 -0.09821 1.01028
 C1693 C 0.01553 -0.08912 1.00454
 C1694 C -0.00300 -0.09915 1.00830
 C1695 C -0.02069 -0.08966 1.00112
 C1696 C -0.02015 -0.07026 0.99280
 C1697 C -0.00201 -0.05949 0.99104
 C1698 C 0.01589 -0.06967 0.99578
 H1699 H 0.04791 -0.14973 1.04077
 H1700 H -0.01891 -0.17696 1.06206
 H1701 H 0.04574 -0.17890 1.06317
 H1702 H -0.03584 -0.15164 1.04202
 H1703 H -0.03591 -0.12187 1.02131
 H1704 H 0.04823 -0.12236 1.02478
 H1705 H 0.04784 -0.09073 1.00719
 H1706 H -0.03532 -0.09658 1.00210
 H1707 H -0.03433 -0.06341 0.98857
 H1708 H 0.03021 -0.06247 0.99340
 C1709 C 0.52973 0.37030 0.54711
 C1710 C 0.51191 0.37977 0.54001
 C1711 C 0.49326 0.37056 0.54554
 C1712 C 0.49262 0.35321 0.55830
 C1713 C 0.51034 0.34444 0.56573
 C1714 C 0.52889 0.35294 0.55971
 C1715 C 0.47524 0.37883 0.53861
 C1716 C 0.47513 0.39643 0.52677
 C1717 C 0.49315 0.40670 0.52146
 C1718 C 0.51188 0.39816 0.52804
 C1719 C 0.52985 0.40863 0.52297
 C1720 C 0.52952 0.42717 0.51282
 C1721 C 0.51136 0.43601 0.50705
 C1722 C 0.49299 0.42564 0.51058
 C1723 C 0.47518 0.43502 0.50351
 C1724 C 0.47547 0.45455 0.49545
 C1725 C 0.49348 0.46558 0.49382
 C1726 C 0.51146 0.45554 0.49852
 H1727 H 0.54458 0.37594 0.54339
 H1728 H 0.47820 0.34647 0.56250
 H1729 H 0.54281 0.34641 0.56520
 H1730 H 0.46097 0.37175 0.54266
 H1731 H 0.46047 0.40186 0.52249
 H1732 H 0.54451 0.40316 0.52718
 H1733 H 0.54368 0.43492 0.50992
 H1734 H 0.46063 0.42795 0.50448
 H1735 H 0.46120 0.46130 0.49139
 H1736 H 0.52567 0.46286 0.49618
 C1737 C 0.50771 1.16745 0.53983
 C1738 C 0.49531 1.15195 0.54837
 C1739 C 0.48403 1.15633 0.56747
 C1740 C 0.48522 1.17522 0.57740
 C1741 C 0.49746 1.19042 0.56875
 C1742 C 0.50873 1.18631 0.54989
 C1743 C 0.47159 1.14183 0.57678
 C1744 C 0.47028 1.12280 0.56788
 C1745 C 0.48152 1.11734 0.54918
 C1746 C 0.49390 1.13226 0.53895
 C1747 C 0.50448 1.12691 0.51977
 C1748 C 0.50354 1.10755 0.51125
 C1749 C 0.49219 1.09263 0.52151
 C1750 C 0.48093 1.09736 0.54054
 C1751 C 0.46993 1.08168 0.55053
 C1752 C 0.47063 1.06220 0.54242
 C1753 C 0.48194 1.05737 0.52374
 C1754 C 0.49244 1.07287 0.51314
 H1755 H 0.51691 1.16550 0.52547
 H1756 H 0.47678 1.17796 0.59227
 H1757 H 0.51824 1.19777 0.54273
 H1758 H 0.46277 1.14520 0.59126
 H1759 H 0.46019 1.11273 0.57621
 H1760 H 0.51373 1.13739 0.51089
 H1761 H 0.51210 1.10414 0.49663
 H1762 H 0.46099 1.08367 0.56503
 H1763 H 0.46225 1.05081 0.55115
 H1764 H 0.50136 1.06947 0.49874
 C1765 C 0.01084 0.64662 1.03720
 C1766 C -0.00289 0.63141 1.04374
 C1767 C -0.01614 0.63584 1.06134
 C1768 C -0.01515 0.65427 1.07220
 C1769 C -0.00132 0.66906 1.06579
 C1770 C 0.01152 0.66509 1.04804
 C1771 C -0.03028 0.62180 1.06834
 C1772 C -0.03114 0.60300 1.05888
 C1773 C -0.01756 0.59726 1.04211
 C1774 C -0.00362 0.61188 1.03390
 C1775 C 0.00933 0.60628 1.01652
 C1776 C 0.00946 0.58681 1.00822
 C1777 C -0.00316 0.57208 1.01695
 C1778 C -0.01710 0.57720 1.03376
 C1779 C -0.02937 0.56174 1.04226
 C1780 C -0.02704 0.54201 1.03537
 C1781 C -0.01288 0.53672 1.01917
 C1782 C -0.00136 0.55206 1.00958
 H1783 H 0.02135 0.64471 1.02389
 H1784 H -0.02491 0.65681 1.08617
 H1785 H 0.02215 0.67631 1.04241
 H1786 H -0.04073 0.62531 1.08150
 H1787 H -0.04263 0.59326 1.06536
 H1788 H 0.01984 0.61657 1.00909
 H1789 H 0.02000 0.58312 0.99521
 H1790 H -0.04042 0.56405 1.05497
 H1791 H -0.03619 0.53074 1.04337
 H1792 H 0.00976 0.54832 0.99715
 C1793 C 0.50378 0.64829 -0.03705
 C1794 C 0.51034 0.63037 -0.04744
 C1795 C 0.51755 0.63187 -0.06902
 C1796 C 0.51863 0.65051 -0.07933
 C1797 C 0.51180 0.66810 -0.06902
 C1798 C 0.50441 0.66677 -0.04775
 C1799 C 0.52359 0.61473 -0.08039
 C1800 C 0.52176 0.59591 -0.07122
 C1801 C 0.51418 0.59350 -0.05001
 C1802 C 0.50961 0.61101 -0.03745
 C1803 C 0.50485 0.60850 -0.01535
 C1804 C 0.50426 0.58947 -0.00602
 C1805 C 0.50735 0.57218 -0.01850
 C1806 C 0.51160 0.57406 -0.04083
 C1807 C 0.51263 0.55638 -0.05334
 C1808 C 0.51103 0.53762 -0.04391
 C1809 C 0.50855 0.53552 -0.02152
 C1810 C 0.50625 0.55300 -0.00892
 H1811 H 0.49747 0.64841 -0.02093
 H1812 H 0.52483 0.65126 -0.09558
 H1813 H 0.49866 0.67999 -0.03942
 H1814 H 0.52949 0.61584 -0.09674
 H1815 H 0.52707 0.58347 -0.08099
 H1816 H 0.50217 0.62108 -0.00468
 H1817 H 0.50100 0.58827 0.01107
 H1818 H 0.51422 0.55654 -0.07062
 H1819 H 0.51236 0.52473 -0.05449
 H1820 H 0.50381 0.55172 0.00830
 C1821 C 0.02499 1.11687 0.43737
 C1822 C 0.01543 1.11290 0.45740
 C1823 C 0.00169 1.12738 0.46586
 C1824 C -0.00127 1.14573 0.45506
 C1825 C 0.00802 1.14929 0.43479
 C1826 C 0.02114 1.13450 0.42626
 C1827 C -0.00954 1.12307 0.48459
 C1828 C -0.00827 1.10425 0.49431
 C1829 C 0.00514 1.08934 0.48625
 C1830 C 0.01825 1.09446 0.46855
 C1831 C 0.03369 1.08089 0.46236
 C1832 C 0.03468 1.06190 0.47118
 C1833 C 0.02026 1.05568 0.48635
 C1834 C 0.00565 1.06932 0.49473
 C1835 C -0.00852 1.06182 0.51010
 C1836 C -0.00903 1.04127 0.51535
 C1837 C 0.00469 1.02765 0.50569
 C1838 C 0.01976 1.03542 0.49202
 H1839 H 0.03489 1.10623 0.42932
 H1840 H -0.01197 1.15654 0.46177
 H1841 H 0.02910 1.13669 0.41106
 H1842 H -0.02005 1.13406 0.49130
 H1843 H -0.01786 1.10180 0.50828
 H1844 H 0.04533 1.08458 0.45067
 H1845 H 0.04637 1.05167 0.46536
 H1846 H -0.02012 1.07119 0.51734
 H1847 H -0.02095 1.03594 0.52602
 H1848 H 0.03009 1.02550 0.48380
 C1849 C 0.79459 0.66102 0.87993
 C1850 C 0.79209 0.68205 0.87760
 C1851 C 0.78455 0.69302 0.89569
 C1852 C 0.77892 0.68311 0.91478
 C1853 C 0.78075 0.66222 0.91642
 C1854 C 0.78901 0.65136 0.89901
 C1855 C 0.78220 0.71379 0.89454
 C1856 C 0.78616 0.72394 0.87549
 C1857 C 0.79253 0.71363 0.85663
 C1858 C 0.79605 0.69241 0.85781
 C1859 C 0.80255 0.68216 0.83894
 C1860 C 0.80381 0.69186 0.81926
 C1861 C 0.79896 0.71217 0.81761
 C1862 C 0.79431 0.72360 0.83633
 C1863 C 0.79070 0.74440 0.83368
 C1864 C 0.78876 0.75262 0.81324
 C1865 C 0.79055 0.74055 0.79471
 C1866 C 0.79757 0.72081 0.79716
 H1867 H 0.80049 0.65146 0.86725
 H1868 H 0.77289 0.69165 0.92837
 H1869 H 0.79060 0.63518 0.89992
 H1870 H 0.77673 0.72229 0.90842
 H1871 H 0.78338 0.73989 0.87595
 H1872 H 0.80610 0.66637 0.83860
 H1873 H 0.80785 0.68313 0.80502
 H1874 H 0.78840 0.75459 0.84700
 H1875 H 0.78446 0.76829 0.81215
 H1876 H 0.80111 0.71167 0.78329
 C1877 C 0.27106 0.15746 0.38263
 C1878 C 0.27111 0.17862 0.38016
 C1879 C 0.26586 0.19053 0.39845
 C1880 C 0.25962 0.18149 0.41782
 C1881 C 0.25901 0.16058 0.41963
 C1882 C 0.26517 0.14867 0.40210
 C1883 C 0.26656 0.21141 0.39729
 C1884 C 0.27157 0.22091 0.37813
 C1885 C 0.27568 0.20985 0.35911
 C1886 C 0.27557 0.18835 0.36013
 C1887 C 0.27886 0.17734 0.34088
 C1888 C 0.28048 0.18690 0.32114
 C1889 C 0.27942 0.20778 0.31983
 C1890 C 0.27835 0.21957 0.33880
 C1891 C 0.27899 0.24067 0.33645
 C1892 C 0.27710 0.24947 0.31630
 C1893 C 0.27470 0.23758 0.29779
 C1894 C 0.27800 0.21686 0.29961
 H1895 H 0.27548 0.14723 0.36991
 H1896 H 0.25529 0.19071 0.43159
 H1897 H 0.26506 0.13243 0.40337
 H1898 H 0.26283 0.22055 0.41131
 H1899 H 0.27114 0.23709 0.37857
 H1900 H 0.27920 0.16117 0.34032
 H1901 H 0.28177 0.17780 0.30666
 H1902 H 0.28003 0.25083 0.34990
 H1903 H 0.27581 0.26568 0.31561
 H1904 H 0.27830 0.20746 0.28559
 C1905 C 0.71457 0.34230 0.37852
 C1906 C 0.71325 0.32150 0.37400
 C1907 C 0.71038 0.30821 0.39155
 C1908 C 0.71118 0.31546 0.41285
 C1909 C 0.71379 0.33602 0.41687
 C1910 C 0.71484 0.34934 0.39959
 C1911 C 0.70707 0.28781 0.38765
 C1912 C 0.70710 0.28021 0.36673
 C1913 C 0.71156 0.29260 0.34889
 C1914 C 0.71515 0.31351 0.35272
 C1915 C 0.72194 0.32554 0.33541
 C1916 C 0.72594 0.31732 0.31530
 C1917 C 0.72246 0.29704 0.31132
 C1918 C 0.71407 0.28460 0.32755
 C1919 C 0.70942 0.26453 0.32178
 C1920 C 0.71467 0.25685 0.30133
 C1921 C 0.72501 0.26876 0.28613
 C1922 C 0.72850 0.28897 0.29144
 H1923 H 0.71522 0.35356 0.36614
 H1924 H 0.70985 0.30517 0.42626
 H1925 H 0.71646 0.36533 0.40241
 H1926 H 0.70452 0.27757 0.40093
 H1927 H 0.70474 0.26426 0.36508
 H1928 H 0.72569 0.34118 0.33720
 H1929 H 0.73215 0.32692 0.30278
 H1930 H 0.70196 0.25440 0.33283
 H1931 H 0.71170 0.24118 0.29797
 H1932 H 0.73733 0.29840 0.28078
 C1933 C 0.23369 0.84584 0.87603
 C1934 C 0.22876 0.82546 0.87237
 C1935 C 0.22399 0.81340 0.89051
 C1936 C 0.22611 0.82110 0.91144
 C1937 C 0.23310 0.84073 0.91454
 C1938 C 0.23601 0.85319 0.89674
 C1939 C 0.21802 0.79350 0.88765
 C1940 C 0.21795 0.78485 0.86726
 C1941 C 0.22438 0.79571 0.84891
 C1942 C 0.22949 0.81647 0.85149
 C1943 C 0.23666 0.82721 0.83337
 C1944 C 0.24062 0.81763 0.81400
 C1945 C 0.23682 0.79722 0.81161
 C1946 C 0.22737 0.78620 0.82837
 C1947 C 0.22246 0.76588 0.82406
 C1948 C 0.22851 0.75660 0.80466
 C1949 C 0.23975 0.76720 0.78909
 C1950 C 0.24351 0.78763 0.79280
 H1951 H 0.23624 0.85650 0.86331
 H1952 H 0.22341 0.81151 0.92525
 H1953 H 0.24051 0.86870 0.89886
 H1954 H 0.21393 0.78431 0.90141
 H1955 H 0.21383 0.76922 0.86653
 H1956 H 0.24057 0.84288 0.83383
 H1957 H 0.24728 0.82622 0.80088
 H1958 H 0.21430 0.75667 0.83548
 H1959 H 0.22529 0.74080 0.80244
 H1960 H 0.25279 0.79611 0.78160
 C1961 C 0.27145 0.80787 0.10326
 C1962 C 0.27064 0.81840 0.12305
 C1963 C 0.26642 0.83925 0.12239
 C1964 C 0.26267 0.84885 0.10292
 C1965 C 0.26322 0.83833 0.08319
 C1966 C 0.26784 0.81764 0.08382
 C1967 C 0.26559 0.85059 0.14125
 C1968 C 0.26735 0.84146 0.16102
 C1969 C 0.26974 0.82047 0.16271
 C1970 C 0.27294 0.80893 0.14350
 C1971 C 0.27782 0.78835 0.14553
 C1972 C 0.27792 0.77906 0.16557
 C1973 C 0.27245 0.78972 0.18421
 C1974 C 0.26839 0.81060 0.18297
 C1975 C 0.26131 0.82052 0.20174
 C1976 C 0.25736 0.80999 0.22050
 C1977 C 0.26138 0.78931 0.22201
 C1978 C 0.26963 0.77940 0.20381
 H1979 H 0.27454 0.79198 0.10225
 H1980 H 0.25819 0.86447 0.10372
 H1981 H 0.26924 0.80874 0.06930
 H1982 H 0.26314 0.86670 0.14078
 H1983 H 0.26680 0.85134 0.17479
 H1984 H 0.28155 0.77895 0.13185
 H1985 H 0.28132 0.76314 0.16633
 H1986 H 0.25689 0.83612 0.20203
 H1987 H 0.24980 0.81815 0.23341
 H1988 H 0.27224 0.76332 0.20428
 C1989 C 0.75715 0.35275 0.62281
 C1990 C 0.76402 0.33283 0.62560
 C1991 C 0.76772 0.32109 0.60688
 C1992 C 0.76368 0.32885 0.58635
 C1993 C 0.75628 0.34859 0.58380
 C1994 C 0.75337 0.36036 0.60251
 C1995 C 0.77524 0.30155 0.60873
 C1996 C 0.77848 0.29312 0.62880
 C1997 C 0.77397 0.30381 0.64797
 C1998 C 0.76676 0.32407 0.64632
 C1999 C 0.76168 0.33464 0.66543
 C2000 C 0.76206 0.32536 0.68525
 C2001 C 0.76811 0.30541 0.68702
 C2002 C 0.77524 0.29461 0.66873
 C2003 C 0.78237 0.27477 0.67205
 C2004 C 0.78034 0.26552 0.69221
 C2005 C 0.77112 0.27567 0.70968
 C2006 C 0.76580 0.29593 0.70691
 H2007 H 0.75427 0.36297 0.63598
 H2008 H 0.76692 0.31953 0.57238
 H2009 H 0.74709 0.37535 0.60190
 H2010 H 0.77838 0.29253 0.59449
 H2011 H 0.78386 0.27782 0.62876
 H2012 H 0.75642 0.34994 0.66569
 H2013 H 0.75704 0.33381 0.69935
 H2014 H 0.78902 0.26579 0.65928
 H2015 H 0.78479 0.24992 0.69365
 H2016 H 0.75820 0.30413 0.71980
 C2017 C 0.22443 0.21112 0.59641
 C2018 C 0.21457 0.20539 0.61581
 C2019 C 0.20408 0.18688 0.61608
 C2020 C 0.20333 0.17490 0.59748
 C2021 C 0.21401 0.18030 0.57863
 C2022 C 0.22432 0.19868 0.57831
 C2023 C 0.19505 0.18001 0.63514
 C2024 C 0.19755 0.19033 0.65434
 C2025 C 0.20864 0.20837 0.65504
 C2026 C 0.21582 0.21681 0.63523
 C2027 C 0.22425 0.23624 0.63556
 C2028 C 0.22734 0.24627 0.65480
 C2029 C 0.22270 0.23710 0.67440
 C2030 C 0.21314 0.21812 0.67486
 C2031 C 0.20961 0.20917 0.69514
 C2032 C 0.21624 0.21824 0.71395
 C2033 C 0.22620 0.23680 0.71349
 C2034 C 0.22845 0.24648 0.69352
 H2035 H 0.23339 0.22454 0.59506
 H2036 H 0.19493 0.16097 0.59798
 H2037 H 0.23317 0.20319 0.56434
 H2038 H 0.18667 0.16606 0.63539
 H2039 H 0.19042 0.18389 0.66843
 H2040 H 0.22847 0.24420 0.62110
 H2041 H 0.23424 0.26101 0.65432
 H2042 H 0.20281 0.19457 0.69695
 H2043 H 0.21391 0.21009 0.72860
 H2044 H 0.23583 0.26096 0.69252
 C2045 C 0.72028 0.70002 0.09269
 C2046 C 0.72015 0.69071 0.11307
 C2047 C 0.72275 0.66957 0.11353
 C2048 C 0.72584 0.65850 0.09455
 C2049 C 0.72666 0.66780 0.07425
 C2050 C 0.72352 0.68881 0.07376
 C2051 C 0.72279 0.65942 0.13304
 C2052 C 0.72206 0.66992 0.15225
 C2053 C 0.72132 0.69108 0.15264
 C2054 C 0.71854 0.70159 0.13302
 C2055 C 0.71469 0.72250 0.13419
 C2056 C 0.71486 0.73285 0.15383
 C2057 C 0.72002 0.72300 0.17275
 C2058 C 0.72369 0.70202 0.17211
 C2059 C 0.73157 0.69290 0.19040
 C2060 C 0.73570 0.70408 0.20851
 C2061 C 0.73076 0.72463 0.21020
 C2062 C 0.72274 0.73402 0.19201
 H2063 H 0.71846 0.71602 0.09090
 H2064 H 0.72903 0.64265 0.09615
 H2065 H 0.72316 0.69686 0.05873
 H2066 H 0.72396 0.64317 0.13351
 H2067 H 0.72193 0.66102 0.16670
 H2068 H 0.71134 0.73122 0.12016
 H2069 H 0.71193 0.74888 0.15398
 H2070 H 0.73649 0.67744 0.19056
 H2071 H 0.74382 0.69638 0.22083
 H2072 H 0.72000 0.75009 0.19229
 C2073 C 0.21890 0.60857 0.24266
 C2074 C 0.20834 0.62597 0.23619
 C2075 C 0.18922 0.62329 0.22698
 C2076 C 0.18034 0.60417 0.22636
 C2077 C 0.19038 0.58730 0.23441
 C2078 C 0.21001 0.58964 0.24181
 C2079 C 0.17874 0.63978 0.21907
 C2080 C 0.18659 0.65905 0.22055
 C2081 C 0.20502 0.66267 0.23073
 C2082 C 0.21589 0.64588 0.23901
 C2083 C 0.23332 0.64960 0.25093
 C2084 C 0.23961 0.66902 0.25518
 C2085 C 0.22922 0.68548 0.24716
 C2086 C 0.21236 0.68261 0.23401
 C2087 C 0.20353 0.69991 0.22489
 C2088 C 0.21012 0.71918 0.23026
 C2089 C 0.22512 0.72192 0.24547
 C2090 C 0.23539 0.70485 0.25277
 H2091 H 0.23406 0.60904 0.24844
 H2092 H 0.16518 0.60267 0.22049
 H2093 H 0.21848 0.57678 0.24728
 H2094 H 0.16416 0.63781 0.21185
 H2095 H 0.17731 0.67099 0.21452
 H2096 H 0.24195 0.63783 0.25821
 H2097 H 0.25265 0.67116 0.26510
 H2098 H 0.19167 0.69903 0.21340
 H2099 H 0.20303 0.73199 0.22283
 H2100 H 0.24787 0.70644 0.26354
 C2101 C 0.66527 0.11956 0.72281
 C2102 C 0.68595 0.12434 0.72156
 C2103 C 0.69974 0.10878 0.71606
 C2104 C 0.69311 0.08878 0.71448
 C2105 C 0.67256 0.08393 0.71736
 C2106 C 0.65876 0.09984 0.72072
 C2107 C 0.72007 0.11326 0.71246
 C2108 C 0.72705 0.13286 0.71451
 C2109 C 0.71403 0.14860 0.72134
 C2110 C 0.69331 0.14404 0.72571
 C2111 C 0.68079 0.15894 0.73525
 C2112 C 0.68822 0.17774 0.74024
 C2113 C 0.70811 0.18270 0.73516
 C2114 C 0.72117 0.16856 0.72496
 C2115 C 0.74083 0.17502 0.71903
 C2116 C 0.74729 0.19450 0.72380
 C2117 C 0.73453 0.20810 0.73488
 C2118 C 0.71503 0.20178 0.74065
 H2119 H 0.65368 0.13077 0.72531
 H2120 H 0.70403 0.07710 0.71059
 H2121 H 0.64282 0.09719 0.72325
 H2122 H 0.73073 0.10149 0.70800
 H2123 H 0.74297 0.13505 0.71168
 H2124 H 0.66537 0.15620 0.74015
 H2125 H 0.67820 0.18856 0.74809
 H2126 H 0.75143 0.16550 0.71038
 H2127 H 0.76248 0.19872 0.71903
 H2128 H 0.70516 0.21146 0.75013
 C2129 C 0.82943 0.11328 0.27331
 C2130 C 0.81002 0.11808 0.26586
 C2131 C 0.79908 0.10258 0.25567
 C2132 C 0.80722 0.08311 0.25356
 C2133 C 0.82652 0.07867 0.26098
 C2134 C 0.83747 0.09400 0.27082
 C2135 C 0.78020 0.10665 0.24734
 C2136 C 0.77215 0.12594 0.24813
 C2137 C 0.78255 0.14200 0.25776
 C2138 C 0.80140 0.13780 0.26757
 C2139 C 0.81100 0.15346 0.27873
 C2140 C 0.80320 0.17283 0.27918
 C2141 C 0.78565 0.17748 0.26837
 C2142 C 0.77489 0.16216 0.25774
 C2143 C 0.75715 0.16784 0.24709
 C2144 C 0.75118 0.18793 0.24605
 C2145 C 0.76264 0.20320 0.25546
 C2146 C 0.77914 0.19755 0.26773
 H2147 H 0.83912 0.12421 0.28055
 H2148 H 0.79851 0.07140 0.24601
 H2149 H 0.85264 0.09126 0.27617
 H2150 H 0.77168 0.09485 0.23969
 H2151 H 0.75759 0.12772 0.24111
 H2152 H 0.82462 0.15124 0.28750
 H2153 H 0.81132 0.18443 0.28764
 H2154 H 0.74788 0.15728 0.23872
 H2155 H 0.73792 0.19150 0.23700
 H2156 H 0.78738 0.20873 0.27647
 C2157 C 0.34477 0.61044 0.78655
 C2158 C 0.32523 0.61535 0.77944
 C2159 C 0.31337 0.59946 0.77133
 C2160 C 0.32105 0.57978 0.76994
 C2161 C 0.34070 0.57537 0.77622
 C2162 C 0.35231 0.59083 0.78489
 C2163 C 0.29404 0.60330 0.76412
 C2164 C 0.28638 0.62271 0.76389
 C2165 C 0.29778 0.63925 0.77096
 C2166 C 0.31729 0.63546 0.77949
 C2167 C 0.32831 0.65194 0.78740
 C2168 C 0.32103 0.67149 0.78610
 C2169 C 0.30255 0.67553 0.77680
 C2170 C 0.29050 0.65949 0.76940
 C2171 C 0.27184 0.66447 0.76025
 C2172 C 0.26607 0.68442 0.75747
 C2173 C 0.27853 0.70034 0.76370
 C2174 C 0.29630 0.69563 0.77440
 H2175 H 0.35488 0.62145 0.79294
 H2176 H 0.31178 0.56788 0.76354
 H2177 H 0.36763 0.58795 0.78968
 H2178 H 0.28481 0.59117 0.75815
 H2179 H 0.27140 0.62418 0.75782
 H2180 H 0.34280 0.65028 0.79460
 H2181 H 0.33022 0.68367 0.79203
 H2182 H 0.26148 0.65339 0.75449
 H2183 H 0.25188 0.68724 0.74978
 H2184 H 0.30564 0.70748 0.78051
 C2185 C 0.34250 0.38177 0.73203
 C2186 C 0.32140 0.37957 0.73299
 C2187 C 0.30960 0.39698 0.73700
 C2188 C 0.31871 0.41599 0.73853
 C2189 C 0.33992 0.41822 0.73758
 C2190 C 0.35147 0.40050 0.73457
 C2191 C 0.28873 0.39532 0.73982
 C2192 C 0.27949 0.37659 0.73998
 C2193 C 0.29074 0.35881 0.73627
 C2194 C 0.31173 0.36052 0.73109
 C2195 C 0.32232 0.34319 0.72398
 C2196 C 0.31304 0.32454 0.72347
 C2197 C 0.29317 0.32230 0.73085
 C2198 C 0.28175 0.33935 0.73752
 C2199 C 0.26209 0.33611 0.74602
 C2200 C 0.25457 0.31669 0.74863
 C2201 C 0.26617 0.29979 0.74256
 C2202 C 0.28493 0.30296 0.73232
 H2203 H 0.35258 0.36906 0.73049
 H2204 H 0.30884 0.42885 0.74030
 H2205 H 0.36770 0.40044 0.73503
 H2206 H 0.27949 0.40858 0.74265
 H2207 H 0.26337 0.37654 0.74251
 H2208 H 0.33777 0.34371 0.71821
 H2209 H 0.32178 0.31159 0.71806
 H2210 H 0.25259 0.34818 0.75195
 H2211 H 0.23979 0.31502 0.75613
 H2212 H 0.29360 0.29042 0.72606
 C2213 C 0.82881 0.88507 0.25829
 C2214 C 0.81213 0.87883 0.24624
 C2215 C 0.80212 0.89352 0.23390
 C2216 C 0.80959 0.91331 0.23266
 C2217 C 0.82698 0.91871 0.24367
 C2218 C 0.83609 0.90456 0.25687
 C2219 C 0.78489 0.88827 0.22274
 C2220 C 0.77735 0.86876 0.22352
 C2221 C 0.78710 0.85350 0.23511
 C2222 C 0.80508 0.85858 0.24619
 C2223 C 0.81581 0.84315 0.25644
 C2224 C 0.80885 0.82363 0.25675
 C2225 C 0.79093 0.81860 0.24695
 C2226 C 0.77970 0.83326 0.23593
 C2227 C 0.76145 0.82695 0.22660
 C2228 C 0.75466 0.80707 0.22863
 C2229 C 0.76584 0.79278 0.23986
 C2230 C 0.78414 0.79886 0.24859
 H2231 H 0.83655 0.87536 0.26918
 H2232 H 0.80227 0.92431 0.22266
 H2233 H 0.84908 0.90862 0.26616
 H2234 H 0.77709 0.89940 0.21332
 H2235 H 0.76401 0.86599 0.21445
 H2236 H 0.82998 0.84550 0.26409
 H2237 H 0.81759 0.81232 0.26495
 H2238 H 0.75183 0.83710 0.21810
 H2239 H 0.74039 0.80305 0.22175
 H2240 H 0.79293 0.78842 0.25780
 C2241 C 0.67961 0.88679 0.73942
 C2242 C 0.69958 0.88357 0.74587
 C2243 C 0.71065 0.90041 0.75293
 C2244 C 0.70235 0.91995 0.75174
 C2245 C 0.68303 0.92306 0.74334
 C2246 C 0.67166 0.90599 0.73806
 C2247 C 0.72999 0.89761 0.76086
 C2248 C 0.73857 0.87847 0.76186
 C2249 C 0.72833 0.86136 0.75430
 C2250 C 0.70869 0.86413 0.74569
 C2251 C 0.69895 0.84750 0.73647
 C2252 C 0.70753 0.82862 0.73652
 C2253 C 0.72619 0.82547 0.74563
 C2254 C 0.73701 0.84157 0.75467
 C2255 C 0.75590 0.83696 0.76373
 C2256 C 0.76344 0.81717 0.76366
 C2257 C 0.75245 0.80140 0.75460
 C2258 C 0.73393 0.80601 0.74560
 H2259 H 0.66945 0.87476 0.73570
 H2260 H 0.71147 0.93265 0.75632
 H2261 H 0.65608 0.90724 0.73344
 H2262 H 0.73859 0.91036 0.76643
 H2263 H 0.75351 0.87760 0.76821
 H2264 H 0.68479 0.84858 0.72847
 H2265 H 0.69942 0.81630 0.72926
 H2266 H 0.76508 0.84822 0.77118
 H2267 H 0.77788 0.81428 0.77081
 H2268 H 0.72483 0.79428 0.73912
 C2269 C 0.16641 0.39281 0.26940
 C2270 C 0.18689 0.38769 0.27201
 C2271 C 0.20082 0.40353 0.27485
 C2272 C 0.19464 0.42368 0.27270
 C2273 C 0.17459 0.42827 0.26799
 C2274 C 0.16047 0.41273 0.26732
 C2275 C 0.22088 0.39911 0.27920
 C2276 C 0.22757 0.37929 0.28026
 C2277 C 0.21454 0.36306 0.27611
 C2278 C 0.19396 0.36742 0.27149
 C2279 C 0.18133 0.35153 0.26520
 C2280 C 0.18853 0.33208 0.26329
 C2281 C 0.20837 0.32753 0.26815
 C2282 C 0.22155 0.34267 0.27534
 C2283 C 0.24125 0.33671 0.28098
 C2284 C 0.24767 0.31673 0.27855
 C2285 C 0.23480 0.30206 0.27029
 C2286 C 0.21515 0.30782 0.26521
 H2287 H 0.15455 0.38181 0.26895
 H2288 H 0.20558 0.43568 0.27376
 H2289 H 0.14469 0.41599 0.26481
 H2290 H 0.23160 0.41112 0.28165
 H2291 H 0.24334 0.37720 0.28338
 H2292 H 0.16597 0.35374 0.26053
 H2293 H 0.17842 0.32047 0.25779
 H2294 H 0.25201 0.34709 0.28739
 H2295 H 0.26296 0.31295 0.28272
 H2296 H 0.20511 0.29717 0.25792
 C2297 C 0.09702 0.22399 0.79653
 C2298 C 0.10887 0.24150 0.79376
 C2299 C 0.10122 0.25967 0.80282
 C2300 C 0.08296 0.26000 0.81463
 C2301 C 0.07178 0.24242 0.81785
 C2302 C 0.07885 0.22450 0.80837
 C2303 C 0.11204 0.27744 0.80054
 C2304 C 0.13079 0.27756 0.79032
 C2305 C 0.13965 0.25975 0.78195
 C2306 C 0.12824 0.24154 0.78301
 C2307 C 0.13682 0.22395 0.77378
 C2308 C 0.15630 0.22383 0.76501
 C2309 C 0.16807 0.24115 0.76516
 C2310 C 0.15978 0.25943 0.77317
 C2311 C 0.17231 0.27653 0.77272
 C2312 C 0.19249 0.27509 0.76639
 C2313 C 0.20120 0.25664 0.75999
 C2314 C 0.18836 0.24008 0.75807
 H2315 H 0.10148 0.20955 0.79009
 H2316 H 0.07786 0.27393 0.82208
 H2317 H 0.07035 0.21073 0.81022
 H2318 H 0.10609 0.29143 0.80713
 H2319 H 0.13806 0.29197 0.78956
 H2320 H 0.12897 0.20983 0.77333
 H2321 H 0.16243 0.20984 0.75863
 H2322 H 0.16729 0.29123 0.77780
 H2323 H 0.20132 0.28870 0.76711
 H2324 H 0.19416 0.22602 0.75201
 C2325 C 0.59648 0.77966 0.28408
 C2326 C 0.60818 0.76187 0.28358
 C2327 C 0.60079 0.74511 0.29531
 C2328 C 0.58225 0.74610 0.30643
 C2329 C 0.57147 0.76423 0.30825
 C2330 C 0.57866 0.78091 0.29660
 C2331 C 0.61235 0.72765 0.29676
 C2332 C 0.63197 0.72721 0.28868
 C2333 C 0.64021 0.74386 0.27775
 C2334 C 0.62754 0.76048 0.27308
 C2335 C 0.63482 0.77497 0.25831
 C2336 C 0.65430 0.77352 0.24927
 C2337 C 0.66767 0.75867 0.25613
 C2338 C 0.66084 0.74433 0.27134
 C2339 C 0.67515 0.73209 0.28120
 C2340 C 0.69538 0.73350 0.27554
 C2341 C 0.70207 0.74548 0.25821
 C2342 C 0.68799 0.75845 0.24878
 H2343 H 0.60148 0.79320 0.27613
 H2344 H 0.57668 0.73273 0.31440
 H2345 H 0.57099 0.79526 0.29768
 H2346 H 0.60661 0.71461 0.30527
 H2347 H 0.64038 0.71344 0.29070
 H2348 H 0.62546 0.78720 0.25300
 H2349 H 0.65925 0.78469 0.23770
 H2350 H 0.67124 0.72236 0.29450
 H2351 H 0.70580 0.72476 0.28484
 H2352 H 0.69298 0.76903 0.23661
 C2353 C 0.59623 0.23197 0.20847
 C2354 C 0.61307 0.24309 0.20071
 C2355 C 0.61104 0.25323 0.18086
 C2356 C 0.59327 0.25174 0.16920
 C2357 C 0.57695 0.24039 0.17688
 C2358 C 0.57849 0.23075 0.19675
 C2359 C 0.62678 0.26479 0.17256
 C2360 C 0.64481 0.26626 0.18317
 C2361 C 0.64803 0.25599 0.20262
 C2362 C 0.63185 0.24437 0.21171
 C2363 C 0.63515 0.23420 0.23122
 C2364 C 0.65373 0.23485 0.24118
 C2365 C 0.66982 0.24565 0.23222
 C2366 C 0.66708 0.25661 0.21299
 C2367 C 0.68375 0.26737 0.20457
 C2368 C 0.70242 0.26643 0.21410
 C2369 C 0.70543 0.25521 0.23284
 C2370 C 0.68881 0.24513 0.24207
 H2371 H 0.59625 0.22396 0.22347
 H2372 H 0.59206 0.25961 0.15405
 H2373 H 0.56604 0.22190 0.20306
 H2374 H 0.62520 0.27274 0.15751
 H2375 H 0.65602 0.27551 0.17537
 H2376 H 0.62370 0.22529 0.23913
 H2377 H 0.65560 0.22652 0.25593
 H2378 H 0.68318 0.27640 0.19031
 H2379 H 0.71467 0.27456 0.20638
 H2380 H 0.69076 0.23635 0.25650
 C2381 C 0.13040 0.76205 0.66683
 C2382 C 0.13552 0.75258 0.68630
 C2383 C 0.12078 0.74016 0.69635
 C2384 C 0.10216 0.73671 0.68658
 C2385 C 0.09780 0.74550 0.66676
 C2386 C 0.11195 0.75850 0.65732
 C2387 C 0.12481 0.73101 0.71591
 C2388 C 0.14332 0.73350 0.72558
 C2389 C 0.15880 0.74508 0.71587
 C2390 C 0.15481 0.75479 0.69589
 C2391 C 0.17044 0.76586 0.68577
 C2392 C 0.18944 0.76695 0.69440
 C2393 C 0.19367 0.75734 0.71359
 C2394 C 0.17839 0.74675 0.72502
 C2395 C 0.18361 0.73797 0.74488
 C2396 C 0.20338 0.73882 0.75227
 C2397 C 0.21860 0.74842 0.74023
 C2398 C 0.21339 0.75792 0.72105
 H2399 H 0.14022 0.77235 0.65844
 H2400 H 0.09128 0.72671 0.69414
 H2401 H 0.10873 0.76608 0.64242
 H2402 H 0.11356 0.72162 0.72378
 H2403 H 0.14521 0.72566 0.74050
 H2404 H 0.16876 0.77346 0.67070
 H2405 H 0.20107 0.77524 0.68573
 H2406 H 0.17286 0.73018 0.75501
 H2407 H 0.20677 0.73145 0.76724
 H2408 H 0.22483 0.76561 0.71151
 C2409 C 0.90263 0.74755 0.66291
 C2410 C 0.89865 0.74362 0.68483
 C2411 C 0.91417 0.73474 0.69682
 C2412 C 0.93358 0.73179 0.68742
 C2413 C 0.93784 0.73759 0.66594
 C2414 C 0.92171 0.74470 0.65381
 C2415 C 0.91022 0.72912 0.71814
 C2416 C 0.89118 0.73209 0.72773
 C2417 C 0.87548 0.74154 0.71658
 C2418 C 0.87962 0.74798 0.69500
 C2419 C 0.86484 0.75920 0.68436
 C2420 C 0.84618 0.76290 0.69380
 C2421 C 0.84140 0.75566 0.71421
 C2422 C 0.85583 0.74502 0.72613
 C2423 C 0.84969 0.73819 0.74685
 C2424 C 0.82991 0.74136 0.75487
 C2425 C 0.81561 0.75143 0.74258
 C2426 C 0.82195 0.75890 0.72245
 H2427 H 0.89119 0.75244 0.65208
 H2428 H 0.94546 0.72597 0.69729
 H2429 H 0.92348 0.74760 0.63678
 H2430 H 0.92192 0.72220 0.72747
 H2431 H 0.88932 0.72722 0.74415
 H2432 H 0.86737 0.76584 0.66879
 H2433 H 0.83525 0.77143 0.68485
 H2434 H 0.85967 0.72993 0.75702
 H2435 H 0.82587 0.73554 0.77049
 H2436 H 0.81145 0.76675 0.71238
 C2437 C 0.39300 0.27028 0.18104
 C2438 C 0.38389 0.25603 0.19501
 C2439 C 0.39466 0.23799 0.19883
 C2440 C 0.41330 0.23416 0.18820
 C2441 C 0.42185 0.24837 0.17417
 C2442 C 0.41160 0.26647 0.17090
 C2443 C 0.38677 0.22387 0.21323
 C2444 C 0.36841 0.22719 0.22396
 C2445 C 0.35685 0.24467 0.22035
 C2446 C 0.36453 0.25910 0.20524
 C2447 C 0.35234 0.27582 0.20036
 C2448 C 0.33328 0.27830 0.20963
 C2449 C 0.32569 0.26455 0.22454
 C2450 C 0.33752 0.24788 0.23069
 C2451 C 0.32933 0.23512 0.24681
 C2452 C 0.30977 0.23809 0.25522
 C2453 C 0.29751 0.25366 0.24775
 C2454 C 0.30602 0.26720 0.23286
 H2455 H 0.38633 0.28468 0.17775
 H2456 H 0.42132 0.22024 0.19109
 H2457 H 0.41791 0.27770 0.16017
 H2458 H 0.39492 0.21006 0.21627
 H2459 H 0.36335 0.21540 0.23458
 H2460 H 0.35675 0.28704 0.18879
 H2461 H 0.32431 0.29113 0.20493
 H2462 H 0.33760 0.22263 0.25321
 H2463 H 0.30400 0.22748 0.26685
 H2464 H 0.29717 0.27967 0.22705
 C2465 C 0.38157 0.78861 0.32870
 C2466 C 0.37511 0.77731 0.31085
 C2467 C 0.38963 0.76541 0.29954
 C2468 C 0.40935 0.76356 0.30723
 C2469 C 0.41495 0.77372 0.32598
 C2470 C 0.40106 0.78672 0.33611
 C2471 C 0.38426 0.75516 0.28091
 C2472 C 0.36466 0.75618 0.27343
 C2473 C 0.34941 0.76694 0.28481
 C2474 C 0.35471 0.77732 0.30408
 C2475 C 0.33929 0.78659 0.31662
 C2476 C 0.31941 0.78575 0.31069
 C2477 C 0.31405 0.77609 0.29182
 C2478 C 0.32887 0.76706 0.27815
 C2479 C 0.32231 0.75850 0.25859
 C2480 C 0.30183 0.75851 0.25334
 C2481 C 0.28728 0.76677 0.26752
 C2482 C 0.29373 0.77536 0.28680
 H2483 H 0.37202 0.79922 0.33723
 H2484 H 0.42010 0.75373 0.29902
 H2485 H 0.40528 0.79550 0.34999
 H2486 H 0.39532 0.74617 0.27205
 H2487 H 0.36170 0.74766 0.25909
 H2488 H 0.34191 0.79392 0.33175
 H2489 H 0.30804 0.79273 0.32111
 H2490 H 0.33266 0.75194 0.24690
 H2491 H 0.29741 0.75190 0.23824
 H2492 H 0.28289 0.78206 0.29801
 C2493 C 0.88435 0.26926 0.83162
 C2494 C 0.87970 0.25969 0.81197
 C2495 C 0.89468 0.24715 0.80226
 C2496 C 0.91333 0.24418 0.81220
 C2497 C 0.91739 0.25346 0.83195
 C2498 C 0.90278 0.26615 0.84132
 C2499 C 0.89087 0.23745 0.78283
 C2500 C 0.87236 0.23955 0.77296
 C2501 C 0.85677 0.25148 0.78220
 C2502 C 0.86063 0.26190 0.80192
 C2503 C 0.84514 0.27390 0.81122
 C2504 C 0.82631 0.27497 0.80232
 C2505 C 0.82209 0.26443 0.78362
 C2506 C 0.83723 0.25299 0.77280
 C2507 C 0.83186 0.24327 0.75337
 C2508 C 0.81207 0.24423 0.74580
 C2509 C 0.79702 0.25485 0.75729
 C2510 C 0.80246 0.26500 0.77612
 H2511 H 0.87414 0.27924 0.84012
 H2512 H 0.92451 0.23428 0.80479
 H2513 H 0.90566 0.27393 0.85625
 H2514 H 0.90228 0.22791 0.77525
 H2515 H 0.87061 0.23132 0.75818
 H2516 H 0.84685 0.28251 0.82572
 H2517 H 0.81477 0.28402 0.81040
 H2518 H 0.84250 0.23457 0.74382
 H2519 H 0.80846 0.23614 0.73126
 H2520 H 0.79119 0.27322 0.78552
 C2521 C 0.53547 0.98396 0.66297
 C2522 C 0.54014 0.97405 0.64327
 C2523 C 0.55964 0.96547 0.64056
 C2524 C 0.57406 0.96790 0.65644
 C2525 C 0.56963 0.97921 0.67498
 C2526 C 0.55006 0.98657 0.67846
 C2527 C 0.56504 0.95550 0.62153
 C2528 C 0.55229 0.95559 0.60419
 C2529 C 0.53353 0.96565 0.60535
 C2530 C 0.52678 0.97378 0.62562
 C2531 C 0.50740 0.98255 0.62715
 C2532 C 0.49635 0.98611 0.60896
 C2533 C 0.50402 0.98071 0.58872
 C2534 C 0.52196 0.96922 0.58666
 C2535 C 0.52821 0.96311 0.56572
 C2536 C 0.51863 0.97052 0.54766
 C2537 C 0.50277 0.98437 0.54984
 C2538 C 0.49449 0.98791 0.57048
 H2539 H 0.52105 0.99082 0.66653
 H2540 H 0.58910 0.96175 0.65393
 H2541 H 0.54627 0.99531 0.69272
 H2542 H 0.57973 0.94844 0.61961
 H2543 H 0.55796 0.94828 0.58979
 H2544 H 0.50061 0.98757 0.64213
 H2545 H 0.48213 0.99410 0.61067
 H2546 H 0.54099 0.95340 0.56264
 H2547 H 0.52462 0.96630 0.53204
 H2548 H 0.48136 0.99748 0.57268
 C2549 C 0.04490 0.49348 1.16642
 C2550 C 0.05075 0.48149 1.14855
 C2551 C 0.07088 0.47447 1.14745
 C2552 C 0.08460 0.47986 1.16334
 C2553 C 0.07891 0.49251 1.18084
 C2554 C 0.05857 0.49881 1.18207
 C2555 C 0.07744 0.46242 1.13021
 C2556 C 0.06483 0.45826 1.11326
 C2557 C 0.04501 0.46597 1.11294
 C2558 C 0.03760 0.47711 1.13127
 C2559 C 0.01757 0.48433 1.13124
 C2560 C 0.00618 0.48323 1.11294
 C2561 C 0.01404 0.47435 1.09425
 C2562 C 0.03283 0.46424 1.09435
 C2563 C 0.03897 0.45389 1.07531
 C2564 C 0.02854 0.45648 1.05621
 C2565 C 0.01220 0.46985 1.05551
 C2566 C 0.00383 0.47685 1.07508
 H2567 H 0.02998 0.49967 1.16858
 H2568 H 0.09958 0.47342 1.16212
 H2569 H 0.05301 0.50911 1.19432
 H2570 H 0.09276 0.45669 1.12942
 H2571 H 0.07135 0.44956 1.10019
 H2572 H 0.01041 0.49171 1.14482
 H2573 H -0.00861 0.49022 1.11315
 H2574 H 0.05220 0.44447 1.07441
 H2575 H 0.03446 0.44947 1.04164
 H2576 H -0.00982 0.48583 1.07537
 C2577 C -0.09971 0.01659 1.11657
 C2578 C -0.07932 0.02069 1.11147
 C2579 C -0.06655 0.02578 1.12855
 C2580 C -0.07359 0.02438 1.15008
 C2581 C -0.09329 0.01756 1.15494
 C2582 C -0.10641 0.01486 1.13776
 C2583 C -0.04664 0.03141 1.12403
 C2584 C -0.03884 0.03109 1.10303
 C2585 C -0.05053 0.02441 1.08574
 C2586 C -0.07114 0.01916 1.09010
 C2587 C -0.08256 0.01111 1.07329
 C2588 C -0.07395 0.00724 1.05328
 C2589 C -0.05385 0.01182 1.04892
 C2590 C -0.04205 0.02146 1.06453
 C2591 C -0.02209 0.02687 1.05833
 C2592 C -0.01394 0.02151 1.03806
 C2593 C -0.02531 0.01044 1.02345
 C2594 C -0.04533 0.00587 1.02921
 H2595 H -0.11096 0.01455 1.10457
 H2596 H -0.06312 0.02709 1.16286
 H2597 H -0.12223 0.01158 1.14057
 H2598 H -0.03682 0.03570 1.13694
 H2599 H -0.02321 0.03515 1.10099
 H2600 H -0.09798 0.00639 1.07535
 H2601 H -0.08308 0.00016 1.04118
 H2602 H -0.01236 0.03505 1.06886
 H2603 H 0.00158 0.02531 1.03426
 H2604 H -0.05437 -0.00319 1.01866
 C2605 C 0.40658 0.53661 0.63046
 C2606 C 0.42685 0.53920 0.62359
 C2607 C 0.44173 0.54003 0.63954
 C2608 C 0.43667 0.53558 0.66113
 C2609 C 0.41682 0.53047 0.66702
 C2610 C 0.40175 0.53218 0.65176
 C2611 C 0.46168 0.54431 0.63365
 C2612 C 0.46741 0.54661 0.61213
 C2613 C 0.45350 0.54380 0.59556
 C2614 C 0.43288 0.54000 0.60143
 C2615 C 0.41926 0.53535 0.58506
 C2616 C 0.42579 0.53305 0.56391
 C2617 C 0.44590 0.53619 0.55804
 C2618 C 0.45976 0.54295 0.57338
 C2619 C 0.47953 0.54753 0.56592
 C2620 C 0.48565 0.54351 0.54463
 C2621 C 0.47238 0.53464 0.53015
 C2622 C 0.45238 0.53146 0.53707
 H2623 H 0.39412 0.53760 0.61972
 H2624 H 0.44834 0.53485 0.67299
 H2625 H 0.38613 0.52935 0.65621
 H2626 H 0.47310 0.54539 0.64577
 H2627 H 0.48321 0.54927 0.60891
 H2628 H 0.40363 0.53192 0.58823
 H2629 H 0.41504 0.52828 0.55207
 H2630 H 0.49068 0.55392 0.57623
 H2631 H 0.50120 0.54633 0.53996
 H2632 H 0.44193 0.52397 0.52670
 C2633 C 0.46599 0.45868 -0.15223
 C2634 C 0.45531 0.45719 -0.13230
 C2635 C 0.43426 0.46092 -0.13226
 C2636 C 0.42466 0.46648 -0.15112
 C2637 C 0.43539 0.46823 -0.17071
 C2638 C 0.45615 0.46407 -0.17107
 C2639 C 0.42280 0.45947 -0.11331
 C2640 C 0.43195 0.45608 -0.09391
 C2641 C 0.45308 0.45429 -0.09272
 C2642 C 0.46479 0.45321 -0.11227
 C2643 C 0.48557 0.44885 -0.11094
 C2644 C 0.49491 0.44773 -0.09114
 C2645 C 0.48407 0.45164 -0.07203
 C2646 C 0.46294 0.45458 -0.07258
 C2647 C 0.45278 0.46003 -0.05327
 C2648 C 0.46339 0.46463 -0.03496
 C2649 C 0.48445 0.46253 -0.03436
 C2650 C 0.49446 0.45454 -0.05275
 H2651 H 0.48203 0.45621 -0.15371
 H2652 H 0.40874 0.47016 -0.15023
 H2653 H 0.46488 0.46499 -0.18595
 H2654 H 0.40658 0.46150 -0.11336
 H2655 H 0.42201 0.45504 -0.08002
 H2656 H 0.49509 0.44650 -0.12501
 H2657 H 0.51103 0.44509 -0.09090
 H2658 H 0.43686 0.46324 -0.05235
 H2659 H 0.45492 0.47209 -0.02229
 H2660 H 0.51074 0.45312 -0.05300
 C2661 C -0.08316 0.99630 0.36335
 C2662 C -0.06696 0.98339 0.36824
 C2663 C -0.05685 0.97327 0.35100
 C2664 C -0.06405 0.97483 0.32989
 C2665 C -0.08115 0.98657 0.32582
 C2666 C -0.09014 0.99769 0.34258
 C2667 C -0.03981 0.96159 0.35506
 C2668 C -0.03249 0.95990 0.37583
 C2669 C -0.04242 0.96928 0.39355
 C2670 C -0.06040 0.98054 0.38967
 C2671 C -0.07164 0.98824 0.40738
 C2672 C -0.06476 0.98661 0.42802
 C2673 C -0.04650 0.97716 0.43194
 C2674 C -0.03513 0.96794 0.41505
 C2675 C -0.01678 0.95837 0.42054
 C2676 C -0.00984 0.95883 0.44174
 C2677 C -0.02100 0.96866 0.45810
 C2678 C -0.03946 0.97749 0.45282
 H2679 H -0.09067 1.00579 0.37513
 H2680 H -0.05679 0.96650 0.31684
 H2681 H -0.10287 1.00745 0.33960
 H2682 H -0.03192 0.95384 0.34200
 H2683 H -0.01917 0.95080 0.37759
 H2684 H -0.08612 0.99540 0.40591
 H2685 H -0.07376 0.99314 0.44108
 H2686 H -0.00716 0.95102 0.40871
 H2687 H 0.00462 0.95212 0.44510
 H2688 H -0.04833 0.98553 0.46491
 C2689 C 0.09106 0.53481 0.37251
 C2690 C 0.07047 0.52923 0.37427
 C2691 C 0.06054 0.52423 0.35504
 C2692 C 0.07124 0.52331 0.33536
 C2693 C 0.09183 0.52764 0.33423
 C2694 C 0.10150 0.53401 0.35275
 C2695 C 0.04010 0.51956 0.35556
 C2696 C 0.02933 0.51883 0.37490
 C2697 C 0.03874 0.52235 0.39467
 C2698 C 0.05962 0.52778 0.39437
 C2699 C 0.06917 0.53052 0.41421
 C2700 C 0.05912 0.52680 0.43360
 C2701 C 0.03904 0.52069 0.43407
 C2702 C 0.02828 0.51938 0.41476
 C2703 C 0.00761 0.51443 0.41641
 C2704 C -0.00118 0.50869 0.43598
 C2705 C 0.01013 0.50779 0.45477
 C2706 C 0.02996 0.51502 0.45372
 H2707 H 0.09962 0.53962 0.38607
 H2708 H 0.06364 0.51881 0.32088
 H2709 H 0.11740 0.53767 0.35209
 H2710 H 0.03240 0.51600 0.34086
 H2711 H 0.01377 0.51453 0.37378
 H2712 H 0.08478 0.53467 0.41535
 H2713 H 0.06735 0.52820 0.44838
 H2714 H -0.00215 0.51440 0.40284
 H2715 H -0.01680 0.50402 0.43603
 H2716 H 0.03879 0.51579 0.46789
 C2717 C 0.56277 0.02866 -0.15760
 C2718 C 0.57023 0.02063 -0.13833
 C2719 C 0.58980 0.01190 -0.13909
 C2720 C 0.60118 0.01126 -0.15827
 C2721 C 0.59319 0.01818 -0.17745
 C2722 C 0.57404 0.02726 -0.17688
 C2723 C 0.59779 0.00323 -0.12085
 C2724 C 0.58611 0.00134 -0.10230
 C2725 C 0.56611 0.00857 -0.10120
 C2726 C 0.55868 0.02000 -0.11861
 C2727 C 0.54008 0.03021 -0.11557
 C2728 C 0.52892 0.02862 -0.09629
 C2729 C 0.53516 0.01572 -0.08005
 C2730 C 0.55346 0.00489 -0.08296
 C2731 C 0.55810 -0.01009 -0.06806
 C2732 C 0.54600 -0.01311 -0.05005
 C2733 C 0.52900 -0.00091 -0.04554
 C2734 C 0.52335 0.01328 -0.06100
 H2735 H 0.54789 0.03513 -0.15847
 H2736 H 0.61617 0.00470 -0.15838
 H2737 H 0.56740 0.03262 -0.19152
 H2738 H 0.61297 -0.00287 -0.12115
 H2739 H 0.59328 -0.00549 -0.08875
 H2740 H 0.53413 0.04004 -0.12763
 H2741 H 0.51496 0.03703 -0.09439
 H2742 H 0.57075 -0.02019 -0.07028
 H2743 H 0.55086 -0.02467 -0.03916
 H2744 H 0.50992 0.02233 -0.05826
 C2745 C 0.63710 0.57817 -0.04185
 C2746 C 0.63344 0.55740 -0.03908
 C2747 C 0.65031 0.54456 -0.03657
 C2748 C 0.66971 0.55273 -0.03416
 C2749 C 0.67247 0.57362 -0.03429
 C2750 C 0.65624 0.58608 -0.03923
 C2751 C 0.64752 0.52379 -0.03546
 C2752 C 0.62824 0.51555 -0.03564
 C2753 C 0.61089 0.52789 -0.03603
 C2754 C 0.61361 0.54919 -0.03773
 C2755 C 0.59648 0.56178 -0.03627
 C2756 C 0.57751 0.55403 -0.03214
 C2757 C 0.57466 0.53341 -0.03019
 C2758 C 0.59095 0.51989 -0.03325
 C2759 C 0.58654 0.49906 -0.03239
 C2760 C 0.56700 0.49225 -0.02725
 C2761 C 0.55129 0.50588 -0.02242
 C2762 C 0.55558 0.52645 -0.02409
 H2763 H 0.62546 0.58879 -0.04570
 H2764 H 0.68235 0.54296 -0.03082
 H2765 H 0.65827 0.60220 -0.04035
 H2766 H 0.66035 0.51382 -0.03395
 H2767 H 0.62735 0.49944 -0.03418
 H2768 H 0.59729 0.57792 -0.03685
 H2769 H 0.56493 0.56439 -0.03010
 H2770 H 0.59789 0.48771 -0.03548
 H2771 H 0.56448 0.47622 -0.02614
 H2772 H 0.54477 0.53754 -0.01888
 C2773 C 0.14015 1.04177 0.47080
 C2774 C 0.12954 1.03428 0.48905
 C2775 C 0.13748 1.03847 0.50953
 C2776 C 0.15434 1.05096 0.51153
 C2777 C 0.16403 1.05918 0.49333
 C2778 C 0.15706 1.05396 0.47297
 C2779 C 0.12830 1.03058 0.52800
 C2780 C 0.11109 1.01891 0.52673
 C2781 C 0.10202 1.01509 0.50685
 C2782 C 0.11118 1.02318 0.48772
 C2783 C 0.10111 1.02082 0.46812
 C2784 C 0.08236 1.01167 0.46737
 C2785 C 0.07318 1.00397 0.48593
 C2786 C 0.08336 1.00457 0.50566
 C2787 C 0.07420 0.99475 0.52344
 C2788 C 0.05458 0.98746 0.52236
 C2789 C 0.04319 0.99042 0.50394
 C2790 C 0.05347 0.99647 0.48510
 H2791 H 0.13589 1.03839 0.45459
 H2792 H 0.15944 1.05483 0.52743
 H2793 H 0.16467 1.05935 0.45855
 H2794 H 0.13436 1.03366 0.54370
 H2795 H 0.10462 1.01393 0.54183
 H2796 H 0.10683 1.02682 0.45315
 H2797 H 0.07475 1.01104 0.45216
 H2798 H 0.08179 0.99252 0.53837
 H2799 H 0.04819 0.98002 0.53633
 H2800 H 0.04571 0.99668 0.46997
 C2801 C 0.14913 -0.05182 0.96940
 C2802 C 0.13530 -0.04871 0.98670
 C2803 C 0.14143 -0.05433 1.00746
 C2804 C 0.16071 -0.06243 1.01062
 C2805 C 0.17424 -0.06614 0.99321
 C2806 C 0.16804 -0.06039 0.97259
 C2807 C 0.12817 -0.05220 1.02505
 C2808 C 0.10852 -0.04566 1.02234
 C2809 C 0.10147 -0.04047 1.00187
 C2810 C 0.11541 -0.04089 0.98398
 C2811 C 0.10900 -0.03345 0.96404
 C2812 C 0.08935 -0.02684 0.96136
 C2813 C 0.07518 -0.02786 0.97821
 C2814 C 0.08096 -0.03480 0.99867
 C2815 C 0.06580 -0.03626 1.01494
 C2816 C 0.04582 -0.03137 1.01088
 C2817 C 0.04004 -0.02504 0.99042
 C2818 C 0.05513 -0.02233 0.97454
 H2819 H 0.14550 -0.04868 0.95298
 H2820 H 0.16500 -0.06559 1.02691
 H2821 H 0.17714 -0.06347 0.95832
 H2822 H 0.13285 -0.05615 1.04106
 H2823 H 0.09928 -0.04453 1.03676
 H2824 H 0.11895 -0.03221 0.95018
 H2825 H 0.08508 -0.02136 0.94572
 H2826 H 0.06869 -0.04181 1.03080
 H2827 H 0.03480 -0.03317 1.02382
 H2828 H 0.05122 -0.01646 0.95896
 C2829 C 0.63020 0.45013 0.52867
 C2830 C 0.62244 0.45992 0.51050
 C2831 C 0.63453 0.45974 0.49144
 C2832 C 0.65313 0.44958 0.49056
 C2833 C 0.66040 0.43912 0.50847
 C2834 C 0.64866 0.43996 0.52762
 C2835 C 0.62782 0.46929 0.47303
 C2836 C 0.60914 0.47868 0.47287
 C2837 C 0.59621 0.47887 0.49123
 C2838 C 0.60303 0.46950 0.51044
 C2839 C 0.59000 0.46955 0.52873
 C2840 C 0.57076 0.47776 0.52812
 C2841 C 0.56369 0.48639 0.50937
 C2842 C 0.57642 0.48753 0.49080
 C2843 C 0.56860 0.49705 0.47247
 C2844 C 0.54859 0.50347 0.47211
 C2845 C 0.53547 0.50044 0.48979
 C2846 C 0.54366 0.49330 0.50892
 H2847 H 0.62241 0.44994 0.54404
 H2848 H 0.66121 0.44895 0.47526
 H2849 H 0.65381 0.43319 0.54227
 H2850 H 0.63703 0.46928 0.45840
 H2851 H 0.60514 0.48531 0.45782
 H2852 H 0.59402 0.46298 0.54380
 H2853 H 0.56114 0.47699 0.54242
 H2854 H 0.57740 0.49958 0.45799
 H2855 H 0.54328 0.51033 0.45755
 H2856 H 0.53410 0.49183 0.52319
 C2857 C -0.16456 0.45670 0.46881
 C2858 C -0.14713 0.44443 0.47007
 C2859 C -0.15002 0.42342 0.47242
 C2860 C -0.16945 0.41524 0.47325
 C2861 C -0.18651 0.42763 0.47259
 C2862 C -0.18390 0.44840 0.47026
 C2863 C -0.13352 0.41064 0.47451
 C2864 C -0.11419 0.41831 0.47568
 C2865 C -0.11058 0.43916 0.47443
 C2866 C -0.12704 0.45227 0.47000
 C2867 C -0.12279 0.47268 0.46573
 C2868 C -0.10325 0.48017 0.46683
 C2869 C -0.08736 0.46787 0.47314
 C2870 C -0.09097 0.44728 0.47741
 C2871 C -0.07511 0.43584 0.48582
 C2872 C -0.05643 0.44437 0.48944
 C2873 C -0.05230 0.46446 0.48412
 C2874 C -0.06804 0.47613 0.47590
 H2875 H -0.16375 0.47283 0.46757
 H2876 H -0.17133 0.39920 0.47550
 H2877 H -0.19689 0.45828 0.46977
 H2878 H -0.13560 0.39453 0.47582
 H2879 H -0.10223 0.40743 0.47715
 H2880 H -0.13427 0.48318 0.46107
 H2881 H -0.10068 0.49592 0.46340
 H2882 H -0.07704 0.42055 0.49112
 H2883 H -0.04569 0.43524 0.49773
 H2884 H -0.06558 0.49189 0.47245
 C2885 C 0.36416 -0.07572 0.02204
 C2886 C 0.37149 -0.05969 0.00921
 C2887 C 0.35868 -0.05200 -0.00676
 C2888 C 0.33934 -0.06006 -0.00947
 C2889 C 0.33259 -0.07614 0.00318
 C2890 C 0.34511 -0.08376 0.01898
 C2891 C 0.36537 -0.03656 -0.02019
 C2892 C 0.38478 -0.02899 -0.01871
 C2893 C 0.39828 -0.03641 -0.00342
 C2894 C 0.39124 -0.05148 0.01129
 C2895 C 0.40423 -0.05798 0.02752
 C2896 C 0.42380 -0.05101 0.02857
 C2897 C 0.43126 -0.03729 0.01359
 C2898 C 0.41867 -0.02951 -0.00245
 C2899 C 0.42733 -0.01566 -0.01721
 C2900 C 0.44768 -0.01034 -0.01630
 C2901 C 0.46016 -0.01853 -0.00068
 C2902 C 0.45153 -0.03178 0.01438
 H2903 H 0.37286 -0.08278 0.03430
 H2904 H 0.32975 -0.05422 -0.02187
 H2905 H 0.34011 -0.09607 0.02910
 H2906 H 0.35560 -0.03050 -0.03230
 H2907 H 0.38873 -0.01722 -0.02983
 H2908 H 0.39978 -0.06849 0.03981
 H2909 H 0.43332 -0.05670 0.04111
 H2910 H 0.41897 -0.00900 -0.02998
 H2911 H 0.45365 -0.00004 -0.02823
 H2912 H 0.46087 -0.03897 0.02610
 C2913 C 0.35005 1.09385 0.52021
 C2914 C 0.35551 1.07346 0.52303
 C2915 C 0.33989 1.05959 0.52791
 C2916 C 0.31963 1.06583 0.52853
 C2917 C 0.31453 1.08592 0.52473
 C2918 C 0.32994 1.09986 0.52095
 C2919 C 0.34453 1.03952 0.53183
 C2920 C 0.36435 1.03277 0.53085
 C2921 C 0.38040 1.04580 0.52536
 C2922 C 0.37584 1.06642 0.52101
 C2923 C 0.39164 1.07918 0.51410
 C2924 C 0.41122 1.07216 0.51159
 C2925 C 0.41597 1.05228 0.51620
 C2926 C 0.40081 1.03884 0.52348
 C2927 C 0.40679 1.01897 0.52838
 C2928 C 0.42681 1.01275 0.52562
 C2929 C 0.44166 1.02601 0.51788
 C2930 C 0.43591 1.04579 0.51324
 H2931 H 0.36088 1.10560 0.51739
 H2932 H 0.30778 1.05502 0.53184
 H2933 H 0.32641 1.11548 0.51790
 H2934 H 0.33267 1.02887 0.53567
 H2935 H 0.36651 1.01701 0.53392
 H2936 H 0.38936 1.09466 0.50984
 H2937 H 0.42279 1.08246 0.50597
 H2938 H 0.39645 1.00785 0.53454
 H2939 H 0.43052 0.99735 0.52946
 H2940 H 0.44683 1.05618 0.50654
 C2941 C -0.13849 0.57208 1.00013
 C2942 C -0.13418 0.55253 1.00763
 C2943 C -0.15015 0.54152 1.01747
 C2944 C -0.16979 0.54973 1.01889
 C2945 C -0.17365 0.56913 1.01119
 C2946 C -0.15781 0.58008 1.00184
 C2947 C -0.14633 0.52253 1.02597
 C2948 C -0.12695 0.51433 1.02529
 C2949 C -0.11060 0.52466 1.01554
 C2950 C -0.11449 0.54380 1.00598
 C2951 C -0.09860 0.55359 0.99485
 C2952 C -0.07937 0.54566 0.99406
 C2953 C -0.07509 0.52761 1.00418
 C2954 C -0.09047 0.51661 1.01490
 C2955 C -0.08481 0.49823 1.02465
 C2956 C -0.06472 0.49142 1.02381
 C2957 C -0.04961 0.50263 1.01328
 C2958 C -0.05525 0.52070 1.00355
 H2959 H -0.12727 0.58186 0.99315
 H2960 H -0.18197 0.54121 1.02630
 H2961 H -0.16041 0.59499 0.99552
 H2962 H -0.15843 0.51400 1.03352
 H2963 H -0.12528 0.49970 1.03239
 H2964 H -0.10049 0.56742 0.98622
 H2965 H -0.06763 0.55387 0.98547
 H2966 H -0.09548 0.48892 1.03327
 H2967 H -0.06103 0.47742 1.03163
 H2968 H -0.04407 0.52980 0.99531
 C2969 C 0.03144 0.63077 0.53943
 C2970 C 0.01299 0.62027 0.53777
 C2971 C -0.00416 0.62851 0.54869
 C2972 C -0.00275 0.64637 0.56063
 C2973 C 0.01564 0.65646 0.56227
 C2974 C 0.03268 0.64850 0.55150
 C2975 C -0.02268 0.61880 0.54792
 C2976 C -0.02451 0.60057 0.53732
 C2977 C -0.00779 0.59126 0.52688
 C2978 C 0.01106 0.60168 0.52624
 C2979 C 0.02729 0.59306 0.51427
 C2980 C 0.02554 0.57442 0.50429
 C2981 C 0.00774 0.56340 0.50620
 C2982 C -0.00920 0.57169 0.51740
 C2983 C -0.02661 0.55964 0.51945
 C2984 C -0.02663 0.53985 0.51212
 C2985 C -0.00947 0.53123 0.50207
 C2986 C 0.00713 0.54372 0.49785
 H2987 H 0.04530 0.62552 0.53194
 H2988 H -0.01599 0.65215 0.56919
 H2989 H 0.04706 0.65606 0.55231
 H2990 H -0.03591 0.62522 0.55593
 H2991 H -0.03940 0.59422 0.53755
 H2992 H 0.04166 0.60038 0.51227
 H2993 H 0.03853 0.56825 0.49562
 H2994 H -0.04023 0.56459 0.52762
 H2995 H -0.04016 0.53119 0.51512
 H2996 H 0.02024 0.53779 0.48940
 C2997 C 0.53337 0.13058 0.06272
 C2998 C 0.52215 0.12448 0.04476
 C2999 C 0.50601 0.13702 0.03851
 C3000 C 0.50149 0.15490 0.04992
 C3001 C 0.51254 0.16040 0.06798
 C3002 C 0.52859 0.14814 0.07404
 C3003 C 0.49418 0.13141 0.02123
 C3004 C 0.49735 0.11315 0.01063
 C3005 C 0.51275 0.09979 0.01673
 C3006 C 0.52589 0.10599 0.03346
 C3007 C 0.54205 0.09324 0.03874
 C3008 C 0.54401 0.07421 0.02986
 C3009 C 0.53022 0.06721 0.01510
 C3010 C 0.51499 0.08007 0.00743
 C3011 C 0.50201 0.07209 -0.00825
 C3012 C 0.50283 0.05168 -0.01407
 C3013 C 0.51662 0.03857 -0.00459
 C3014 C 0.53090 0.04692 0.00915
 H3015 H 0.54568 0.12195 0.06888
 H3016 H 0.48895 0.16422 0.04514
 H3017 H 0.53761 0.15218 0.08766
 H3018 H 0.48195 0.14101 0.01620
 H3019 H 0.48722 0.10978 -0.00215
 H3020 H 0.55334 0.09732 0.05007
 H3021 H 0.55612 0.06460 0.03520
 H3022 H 0.49041 0.08094 -0.01552
 H3023 H 0.49160 0.04593 -0.02481
 H3024 H 0.54149 0.03730 0.01716
 C3025 C 0.00818 0.14574 0.95976
 C3026 C -0.00585 0.13064 0.95441
 C3027 C -0.02038 0.13540 0.93883
 C3028 C -0.02057 0.15427 0.92901
 C3029 C -0.00598 0.16868 0.93364
 C3030 C 0.00813 0.16441 0.94943
 C3031 C -0.03440 0.12113 0.93262
 C3032 C -0.03337 0.10165 0.94018
 C3033 C -0.01834 0.09577 0.95455
 C3034 C -0.00547 0.11075 0.96317
 C3035 C 0.00731 0.10522 0.98003
 C3036 C 0.00809 0.08546 0.98744
 C3037 C -0.00296 0.07030 0.97758
 C3038 C -0.01590 0.07531 0.96059
 C3039 C -0.02507 0.05954 0.94934
 C3040 C -0.02212 0.03972 0.95517
 C3041 C -0.01056 0.03460 0.97300
 C3042 C -0.00085 0.05010 0.98411
 H3043 H 0.01992 0.14327 0.97114
 H3044 H -0.03187 0.15758 0.91722
 H3045 H 0.01965 0.17525 0.95325
 H3046 H -0.04594 0.12488 0.92124
 H3047 H -0.04483 0.09150 0.93476
 H3048 H 0.01662 0.11598 0.98811
 H3049 H 0.01798 0.08189 1.00051
 H3050 H -0.03389 0.06197 0.93525
 H3051 H -0.02943 0.02837 0.94563
 H3052 H 0.00871 0.04646 0.99743
 C3053 C 0.46788 0.65416 0.41512
 C3054 C 0.47791 0.64753 0.43364
 C3055 C 0.49125 0.66117 0.44353
 C3056 C 0.49478 0.68032 0.43464
 C3057 C 0.48530 0.68625 0.41577
 C3058 C 0.47158 0.67309 0.40643
 C3059 C 0.50130 0.65551 0.46198
 C3060 C 0.49893 0.63639 0.47059
 C3061 C 0.48639 0.62197 0.46096
 C3062 C 0.47550 0.62774 0.44234
 C3063 C 0.46297 0.61335 0.43266
 C3064 C 0.46189 0.59379 0.44011
 C3065 C 0.47297 0.58773 0.45766
 C3066 C 0.48489 0.60176 0.46884
 C3067 C 0.49518 0.59471 0.48707
 C3068 C 0.49463 0.57442 0.49291
 C3069 C 0.48380 0.56043 0.48091
 C3070 C 0.47260 0.56745 0.46362
 H3071 H 0.45717 0.64512 0.40674
 H3072 H 0.50542 0.69038 0.44206
 H3073 H 0.46357 0.67747 0.39221
 H3074 H 0.51140 0.66590 0.46973
 H3075 H 0.50753 0.63324 0.48464
 H3076 H 0.45406 0.61651 0.41886
 H3077 H 0.45249 0.58317 0.43174
 H3078 H 0.50410 0.60438 0.49695
 H3079 H 0.50330 0.56964 0.50649
 H3080 H 0.46387 0.55699 0.45425
 C3081 C 0.52420 0.86801 0.44380
 C3082 C 0.50688 0.87704 0.45361
 C3083 C 0.48817 0.86714 0.45119
 C3084 C 0.48696 0.84932 0.43913
 C3085 C 0.50413 0.84097 0.42899
 C3086 C 0.52277 0.85032 0.43172
 C3087 C 0.47062 0.87521 0.46047
 C3088 C 0.47094 0.89339 0.47143
 C3089 C 0.48898 0.90434 0.47362
 C3090 C 0.50736 0.89573 0.46518
 C3091 C 0.52551 0.90626 0.46831
 C3092 C 0.52563 0.92499 0.47826
 C3093 C 0.50771 0.93409 0.48541
 C3094 C 0.48918 0.92380 0.48357
 C3095 C 0.47156 0.93377 0.49123
 C3096 C 0.47229 0.95338 0.49914
 C3097 C 0.49055 0.96400 0.50001
 C3098 C 0.50824 0.95371 0.49386
 H3099 H 0.53902 0.87443 0.44468
 H3100 H 0.47251 0.84201 0.43744
 H3101 H 0.53626 0.84428 0.42394
 H3102 H 0.45633 0.86755 0.45891
 H3103 H 0.45662 0.89850 0.47788
 H3104 H 0.54001 0.90050 0.46309
 H3105 H 0.53991 0.93266 0.47989
 H3106 H 0.45680 0.92716 0.49076
 H3107 H 0.45814 0.96040 0.50397
 H3108 H 0.52257 0.96081 0.49523
 C3109 C 0.03206 0.35115 0.94013
 C3110 C 0.01860 0.35799 0.95663
 C3111 C 0.00254 0.34510 0.96290
 C3112 C -0.00063 0.32693 0.95187
 C3113 C 0.01233 0.32093 0.93491
 C3114 C 0.02892 0.33295 0.92953
 C3115 C -0.01047 0.35058 0.97987
 C3116 C -0.00834 0.36886 0.99046
 C3117 C 0.00665 0.38276 0.98405
 C3118 C 0.02025 0.37728 0.96674
 C3119 C 0.03436 0.39166 0.95935
 C3120 C 0.03453 0.41099 0.96773
 C3121 C 0.02112 0.41665 0.98425
 C3122 C 0.00771 0.40242 0.99345
 C3123 C -0.00455 0.40884 1.01116
 C3124 C -0.00489 0.42898 1.01779
 C3125 C 0.00691 0.44342 1.00704
 C3126 C 0.02043 0.43681 0.99084
 H3127 H 0.04519 0.35946 0.93497
 H3128 H -0.01326 0.31743 0.95642
 H3129 H 0.03925 0.32850 0.91660
 H3130 H -0.02264 0.34070 0.98490
 H3131 H -0.01932 0.37206 1.00305
 H3132 H 0.04492 0.38881 0.94628
 H3133 H 0.04504 0.42177 0.96087
 H3134 H -0.01430 0.39875 1.01999
 H3135 H -0.01520 0.43333 1.03074
 H3136 H 0.02955 0.44749 0.98212
 C3137 C 0.51342 0.33367 0.03292
 C3138 C 0.50620 0.35162 0.04282
 C3139 C 0.49791 0.35015 0.06399
 C3140 C 0.49651 0.33155 0.07437
 C3141 C 0.50370 0.31397 0.06440
 C3142 C 0.51228 0.31520 0.04365
 C3143 C 0.49113 0.36727 0.07489
 C3144 C 0.49300 0.38606 0.06563
 C3145 C 0.50156 0.38850 0.04482
 C3146 C 0.50726 0.37097 0.03275
 C3147 C 0.51349 0.37346 0.01103
 C3148 C 0.51443 0.39244 0.00161
 C3149 C 0.51005 0.40976 0.01362
 C3150 C 0.50413 0.40795 0.03557
 C3151 C 0.50142 0.42575 0.04766
 C3152 C 0.50331 0.44446 0.03814
 C3153 C 0.50793 0.44645 0.01609
 C3154 C 0.51157 0.42890 0.00393
 H3155 H 0.52043 0.33348 0.01712
 H3156 H 0.49025 0.33081 0.09061
 H3157 H 0.51803 0.30180 0.03565
 H3158 H 0.48447 0.36618 0.09093
 H3159 H 0.48698 0.39840 0.07506
 H3160 H 0.51720 0.36088 0.00070
 H3161 H 0.51896 0.39358 -0.01519
 H3162 H 0.49826 0.42582 0.06472
 H3163 H 0.50064 0.45742 0.04838
 H3164 H 0.51548 0.43009 -0.01303
 C3165 C -0.01671 0.83953 0.56715
 C3166 C -0.00919 0.84590 0.54683
 C3167 C 0.00539 0.83355 0.53612
 C3168 C 0.01190 0.81549 0.54549
 C3169 C 0.00465 0.80980 0.56590
 C3170 C -0.00983 0.82187 0.57644
 C3171 C 0.01380 0.83959 0.51644
 C3172 C 0.00902 0.85818 0.50773
 C3173 C -0.00478 0.87137 0.51822
 C3174 C -0.01492 0.86457 0.53739
 C3175 C -0.03012 0.87689 0.54678
 C3176 C -0.03365 0.89613 0.53932
 C3177 C -0.02227 0.90384 0.52219
 C3178 C -0.00826 0.89143 0.51077
 C3179 C 0.00252 0.90012 0.49324
 C3180 C 0.00096 0.92067 0.48886
 C3181 C -0.01153 0.93320 0.50159
 C3182 C -0.02401 0.92431 0.51736
 H3183 H -0.02741 0.84814 0.57669
 H3184 H 0.02319 0.80624 0.53729
 H3185 H -0.01587 0.81764 0.59210
 H3186 H 0.02474 0.83012 0.50800
 H3187 H 0.01656 0.86186 0.49275
 H3188 H -0.03950 0.87217 0.56018
 H3189 H -0.04488 0.90536 0.54764
 H3190 H 0.01314 0.89175 0.48334
 H3191 H 0.01058 0.92689 0.47629
 H3192 H -0.03405 0.93360 0.52719
 C3193 C 0.22073 0.35650 0.13478
 C3194 C 0.21702 0.33587 0.13849
 C3195 C 0.21379 0.32338 0.12039
 C3196 C 0.21670 0.33093 0.09942
 C3197 C 0.22280 0.35088 0.09627
 C3198 C 0.22377 0.36375 0.11404
 C3199 C 0.20867 0.30323 0.12336
 C3200 C 0.20789 0.29487 0.14384
 C3201 C 0.21295 0.30623 0.16214
 C3202 C 0.21745 0.32712 0.15940
 C3203 C 0.22389 0.33825 0.17732
 C3204 C 0.22740 0.32904 0.19674
 C3205 C 0.22381 0.30861 0.19941
 C3206 C 0.21526 0.29713 0.18279
 C3207 C 0.21047 0.27682 0.18737
 C3208 C 0.21577 0.26800 0.20690
 C3209 C 0.22623 0.27902 0.22233
 C3210 C 0.22985 0.29945 0.21834
 H3211 H 0.22176 0.36742 0.14753
 H3212 H 0.21548 0.32099 0.08567
 H3213 H 0.22754 0.37945 0.11190
 H3214 H 0.20578 0.29366 0.10964
 H3215 H 0.20446 0.27907 0.14467
 H3216 H 0.22771 0.35394 0.17656
 H3217 H 0.23347 0.33795 0.20969
 H3218 H 0.20292 0.26731 0.17606
 H3219 H 0.21262 0.25221 0.20934
 H3220 H 0.23861 0.30825 0.22933
 C3221 C 0.75252 0.80710 0.59521
 C3222 C 0.73893 0.80663 0.61304
 C3223 C 0.71961 0.81535 0.61077
 C3224 C 0.71524 0.82643 0.59217
 C3225 C 0.72961 0.82798 0.57531
 C3226 C 0.74790 0.81764 0.57675
 C3227 C 0.70507 0.81323 0.62726
 C3228 C 0.70946 0.80290 0.64608
 C3229 C 0.72901 0.79537 0.64963
 C3230 C 0.74412 0.79803 0.63309
 C3231 C 0.76431 0.79328 0.63752
 C3232 C 0.76962 0.78623 0.65741
 C3233 C 0.75500 0.78279 0.67337
 C3234 C 0.73440 0.78633 0.66957
 C3235 C 0.72030 0.78054 0.68590
 C3236 C 0.72674 0.77253 0.70552
 C3237 C 0.74736 0.77128 0.70997
 C3238 C 0.76120 0.77601 0.69327
 H3239 H 0.76681 0.79933 0.59497
 H3240 H 0.70083 0.83400 0.59086
 H3241 H 0.75908 0.81834 0.56380
 H3242 H 0.69014 0.81962 0.62559
 H3243 H 0.69759 0.80201 0.65819
 H3244 H 0.77663 0.79603 0.62633
 H3245 H 0.78544 0.78345 0.66033
 H3246 H 0.70425 0.78157 0.68366
 H3247 H 0.71554 0.76782 0.71733
 H3248 H 0.77725 0.77429 0.69546
 C3249 C 0.26783 0.70469 0.59941
 C3250 C 0.27561 0.69422 0.61719
 C3251 C 0.27451 0.67295 0.61697
 C3252 C 0.26593 0.66278 0.59965
 C3253 C 0.25795 0.67342 0.58242
 C3254 C 0.25917 0.69440 0.58238
 C3255 C 0.28150 0.66191 0.63428
 C3256 C 0.28823 0.67152 0.65258
 C3257 C 0.28852 0.69268 0.65414
 C3258 C 0.28337 0.70417 0.63565
 C3259 C 0.28550 0.72525 0.63653
 C3260 C 0.28968 0.73498 0.65566
 C3261 C 0.29191 0.72408 0.67454
 C3262 C 0.29250 0.70282 0.67390
 C3263 C 0.29548 0.69268 0.69351
 C3264 C 0.29424 0.70301 0.71308
 C3265 C 0.29032 0.72371 0.71372
 C3266 C 0.29169 0.73434 0.69426
 H3267 H 0.26755 0.72084 0.59846
 H3268 H 0.26537 0.64649 0.59963
 H3269 H 0.25297 0.70296 0.56931
 H3270 H 0.28106 0.64562 0.63401
 H3271 H 0.29276 0.66187 0.66546
 H3272 H 0.28353 0.73475 0.62277
 H3273 H 0.28999 0.75127 0.65592
 H3274 H 0.29739 0.67663 0.69448
 H3275 H 0.29518 0.69433 0.72752
 H3276 H 0.28983 0.75053 0.69428
 C3277 C 0.77567 0.15456 0.11970
 C3278 C 0.77795 0.17548 0.12299
 C3279 C 0.77527 0.18826 0.10509
 C3280 C 0.76964 0.18035 0.08515
 C3281 C 0.76655 0.15968 0.08249
 C3282 C 0.77009 0.14689 0.09984
 C3283 C 0.77766 0.20895 0.10727
 C3284 C 0.78151 0.21748 0.12712
 C3285 C 0.78299 0.20558 0.14575
 C3286 C 0.78187 0.18419 0.14355
 C3287 C 0.78371 0.17231 0.16217
 C3288 C 0.78430 0.18098 0.18245
 C3289 C 0.78346 0.20178 0.18496
 C3290 C 0.78410 0.21439 0.16670
 C3291 C 0.78459 0.23537 0.17035
 C3292 C 0.78110 0.24328 0.19090
 C3293 C 0.77721 0.23061 0.20852
 C3294 C 0.78054 0.20996 0.20562
 H3295 H 0.77781 0.14364 0.13215
 H3296 H 0.76697 0.19045 0.07188
 H3297 H 0.76854 0.13078 0.09808
 H3298 H 0.77596 0.21876 0.09356
 H3299 H 0.78248 0.23362 0.12741
 H3300 H 0.78390 0.15614 0.16178
 H3301 H 0.78447 0.17125 0.19639
 H3302 H 0.78657 0.24613 0.15761
 H3303 H 0.77983 0.25944 0.19255
 H3304 H 0.77957 0.19991 0.21903
 C3305 C 0.71783 0.20266 0.90376
 C3306 C 0.71711 0.19314 0.88336
 C3307 C 0.71934 0.17192 0.88268
 C3308 C 0.72279 0.16101 0.90144
 C3309 C 0.72464 0.17075 0.92125
 C3310 C 0.72157 0.19158 0.92238
 C3311 C 0.71875 0.16164 0.86317
 C3312 C 0.71793 0.17205 0.84401
 C3313 C 0.71760 0.19324 0.84367
 C3314 C 0.71538 0.20389 0.86355
 C3315 C 0.71203 0.22487 0.86277
 C3316 C 0.71243 0.23519 0.84327
 C3317 C 0.71719 0.22520 0.82398
 C3318 C 0.71998 0.20408 0.82407
 C3319 C 0.72704 0.19476 0.80498
 C3320 C 0.73177 0.20598 0.78685
 C3321 C 0.72834 0.22682 0.78615
 C3322 C 0.72054 0.23628 0.80489
 H3323 H 0.71644 0.21872 0.90570
 H3324 H 0.72467 0.14482 0.90052
 H3325 H 0.72287 0.19943 0.93756
 H3326 H 0.71967 0.14537 0.86264
 H3327 H 0.71749 0.16306 0.82956
 H3328 H 0.70901 0.23371 0.87705
 H3329 H 0.71008 0.25132 0.84345
 H3330 H 0.73096 0.17904 0.80413
 H3331 H 0.73954 0.19812 0.77392
 H3332 H 0.71868 0.25246 0.80520
 C3333 C 0.21379 0.71005 0.41494
 C3334 C 0.21053 0.70249 0.39398
 C3335 C 0.20814 0.68142 0.39163
 C3336 C 0.21003 0.66859 0.40932
 C3337 C 0.21411 0.67631 0.42971
 C3338 C 0.21554 0.69714 0.43242
 C3339 C 0.20429 0.67315 0.37155
 C3340 C 0.20357 0.68518 0.35344
 C3341 C 0.20693 0.70610 0.35463
 C3342 C 0.21019 0.71496 0.37527
 C3343 C 0.21382 0.73584 0.37638
 C3344 C 0.21562 0.74741 0.35793
 C3345 C 0.21351 0.73879 0.33767
 C3346 C 0.20825 0.71827 0.33573
 C3347 C 0.20528 0.71068 0.31480
 C3348 C 0.20975 0.72225 0.29670
 C3349 C 0.21712 0.74188 0.29858
 C3350 C 0.21764 0.75039 0.31929
 H3351 H 0.21531 0.72582 0.41843
 H3352 H 0.20851 0.65248 0.40721
 H3353 H 0.21863 0.70346 0.44807
 H3354 H 0.20220 0.65709 0.36972
 H3355 H 0.20101 0.67740 0.33856
 H3356 H 0.21609 0.74370 0.39127
 H3357 H 0.21927 0.76320 0.35954
 H3358 H 0.20002 0.69568 0.31175
 H3359 H 0.20784 0.71524 0.28136
 H3360 H 0.22257 0.76578 0.32132
 C3361 C 0.76263 0.85189 0.37507
 C3362 C 0.76812 0.83146 0.37224
 C3363 C 0.77176 0.81999 0.39090
 C3364 C 0.76811 0.82832 0.41151
 C3365 C 0.76085 0.84808 0.41383
 C3366 C 0.75895 0.85991 0.39547
 C3367 C 0.77835 0.80010 0.38887
 C3368 C 0.78050 0.79099 0.36874
 C3369 C 0.77555 0.80130 0.34979
 C3370 C 0.76936 0.82192 0.35161
 C3371 C 0.76330 0.83200 0.33292
 C3372 C 0.76198 0.82203 0.31349
 C3373 C 0.76728 0.80184 0.31163
 C3374 C 0.77525 0.79140 0.32926
 C3375 C 0.78166 0.77126 0.32562
 C3376 C 0.77863 0.76163 0.30582
 C3377 C 0.76897 0.77163 0.28913
 C3378 C 0.76361 0.79188 0.29236
 H3379 H 0.76088 0.86213 0.36191
 H3380 H 0.76999 0.81913 0.42566
 H3381 H 0.75428 0.87549 0.39687
 H3382 H 0.78149 0.79132 0.40304
 H3383 H 0.78515 0.77546 0.36863
 H3384 H 0.75835 0.84741 0.33289
 H3385 H 0.75629 0.83015 0.29982
 H3386 H 0.78878 0.76249 0.33784
 H3387 H 0.78298 0.74600 0.30403
 H3388 H 0.75548 0.79992 0.28023
 C3389 C 0.27035 0.29908 0.91254
 C3390 C 0.27193 0.30836 0.89212
 C3391 C 0.27186 0.32964 0.89158
 C3392 C 0.26898 0.34092 0.91050
 C3393 C 0.26697 0.33157 0.93061
 C3394 C 0.26802 0.31051 0.93137
 C3395 C 0.27439 0.33969 0.87211
 C3396 C 0.27674 0.32912 0.85298
 C3397 C 0.27608 0.30793 0.85244
 C3398 C 0.27326 0.29735 0.87228
 C3399 C 0.27089 0.27627 0.87146
 C3400 C 0.27030 0.26603 0.85196
 C3401 C 0.27273 0.27622 0.83254
 C3402 C 0.27677 0.29708 0.83256
 C3403 C 0.28079 0.30630 0.81252
 C3404 C 0.27796 0.29596 0.79333
 C3405 C 0.27120 0.27601 0.79324
 C3406 C 0.27009 0.26588 0.81305
 H3407 H 0.27116 0.28303 0.91456
 H3408 H 0.26789 0.35712 0.90934
 H3409 H 0.26722 0.30274 0.94660
 H3410 H 0.27443 0.35597 0.87163
 H3411 H 0.27808 0.33811 0.83867
 H3412 H 0.26842 0.26732 0.88565
 H3413 H 0.26749 0.24999 0.85209
 H3414 H 0.28590 0.32161 0.81112
 H3415 H 0.28082 0.30402 0.77870
 H3416 H 0.26576 0.25019 0.81352
 C3417 C 0.83346 0.38542 0.74585
 C3418 C 0.81608 0.37952 0.75779
 C3419 C 0.80597 0.39428 0.77057
 C3420 C 0.81388 0.41384 0.77221
 C3421 C 0.83176 0.41897 0.76108
 C3422 C 0.84112 0.40471 0.74760
 C3423 C 0.78809 0.38938 0.78161
 C3424 C 0.77991 0.37017 0.78012
 C3425 C 0.78965 0.35487 0.76793
 C3426 C 0.80836 0.35955 0.75714
 C3427 C 0.81905 0.34402 0.74634
 C3428 C 0.81128 0.32489 0.74495
 C3429 C 0.79264 0.32035 0.75432
 C3430 C 0.78150 0.33500 0.76613
 C3431 C 0.76260 0.32907 0.77521
 C3432 C 0.75517 0.30953 0.77218
 C3433 C 0.76630 0.29530 0.76012
 C3434 C 0.78511 0.30106 0.75152
 H3435 H 0.84137 0.37567 0.73465
 H3436 H 0.80637 0.42494 0.78242
 H3437 H 0.85446 0.40856 0.73814
 H3438 H 0.78022 0.40058 0.79137
 H3439 H 0.76603 0.36766 0.78901
 H3440 H 0.83376 0.34599 0.73902
 H3441 H 0.81999 0.31351 0.73627
 H3442 H 0.75305 0.33925 0.78434
 H3443 H 0.74052 0.30571 0.77900
 H3444 H 0.79391 0.29069 0.74168
 C3445 C 0.33455 0.89176 0.27039
 C3446 C 0.31411 0.88841 0.27583
 C3447 C 0.30255 0.90493 0.28347
 C3448 C 0.31086 0.92441 0.28357
 C3449 C 0.33105 0.92797 0.27661
 C3450 C 0.34272 0.91093 0.27067
 C3451 C 0.28272 0.90192 0.29083
 C3452 C 0.27401 0.88289 0.29035
 C3453 C 0.28461 0.86619 0.28164
 C3454 C 0.30485 0.86920 0.27378
 C3455 C 0.31492 0.85319 0.26314
 C3456 C 0.30571 0.83486 0.26031
 C3457 C 0.28628 0.83152 0.26835
 C3458 C 0.27552 0.84676 0.27965
 C3459 C 0.25607 0.84182 0.28805
 C3460 C 0.24769 0.82270 0.28467
 C3461 C 0.25827 0.80804 0.27265
 C3462 C 0.27752 0.81294 0.26452
 H3463 H 0.34482 0.87984 0.26580
 H3464 H 0.30152 0.93653 0.28985
 H3465 H 0.35806 0.91201 0.26464
 H3466 H 0.27378 0.91443 0.29700
 H3467 H 0.25862 0.88186 0.29614
 H3468 H 0.32972 0.85454 0.25584
 H3469 H 0.31392 0.82314 0.25160
 H3470 H 0.24708 0.85233 0.29741
 H3471 H 0.23276 0.81958 0.29118
 H3472 H 0.28577 0.80250 0.25428
 C3473 C 0.18833 0.88401 0.75358
 C3474 C 0.20497 0.87657 0.74128
 C3475 C 0.21637 0.89050 0.72885
 C3476 C 0.21043 0.91083 0.72792
 C3477 C 0.19377 0.91775 0.74011
 C3478 C 0.18296 0.90423 0.75302
 C3479 C 0.23375 0.88408 0.71769
 C3480 C 0.24045 0.86428 0.71913
 C3481 C 0.22952 0.84985 0.73118
 C3482 C 0.21093 0.85591 0.74143
 C3483 C 0.19872 0.84109 0.75126
 C3484 C 0.20499 0.82125 0.75227
 C3485 C 0.22378 0.81542 0.74392
 C3486 C 0.23641 0.82951 0.73329
 C3487 C 0.25563 0.82272 0.72587
 C3488 C 0.26204 0.80294 0.72941
 C3489 C 0.24949 0.78914 0.74017
 C3490 C 0.23012 0.79555 0.74673
 H3491 H 0.17949 0.87472 0.76434
 H3492 H 0.21901 0.92138 0.71816
 H3493 H 0.17012 0.90938 0.76266
 H3494 H 0.24252 0.89459 0.70809
 H3495 H 0.25407 0.86059 0.71018
 H3496 H 0.18392 0.84426 0.75794
 H3497 H 0.19514 0.81042 0.76011
 H3498 H 0.26636 0.83251 0.71801
 H3499 H 0.27708 0.79866 0.72402
 H3500 H 0.22015 0.78538 0.75530
 C3501 C 0.66658 0.38298 0.23169
 C3502 C 0.68743 0.37854 0.23095
 C3503 C 0.70104 0.39460 0.22733
 C3504 C 0.69395 0.41458 0.22703
 C3505 C 0.67330 0.41874 0.22989
 C3506 C 0.65973 0.40271 0.23124
 C3507 C 0.72162 0.39063 0.22459
 C3508 C 0.72903 0.37105 0.22566
 C3509 C 0.71616 0.35473 0.23052
 C3510 C 0.69511 0.35873 0.23387
 C3511 C 0.68249 0.34306 0.24121
 C3512 C 0.69004 0.32403 0.24483
 C3513 C 0.71029 0.31966 0.24071
 C3514 C 0.72363 0.33467 0.23299
 C3515 C 0.74384 0.32884 0.22823
 C3516 C 0.75036 0.30903 0.23140
 C3517 C 0.73711 0.29445 0.23968
 C3518 C 0.71716 0.30021 0.24451
 H3519 H 0.65515 0.37153 0.23248
 H3520 H 0.70455 0.42687 0.22548
 H3521 H 0.64364 0.40548 0.23231
 H3522 H 0.73213 0.40279 0.22161
 H3523 H 0.74510 0.36926 0.22355
 H3524 H 0.66677 0.34522 0.24530
 H3525 H 0.67984 0.31255 0.25084
 H3526 H 0.75483 0.33914 0.22164
 H3527 H 0.76589 0.30522 0.22743
 H3528 H 0.70675 0.28959 0.25171
 C3529 C 0.72042 0.59266 0.27342
 C3530 C 0.70897 0.61069 0.27304
 C3531 C 0.68790 0.60901 0.26993
 C3532 C 0.67904 0.59033 0.26666
 C3533 C 0.69074 0.57290 0.26524
 C3534 C 0.71137 0.57399 0.26939
 C3535 C 0.67578 0.62607 0.26899
 C3536 C 0.68436 0.64491 0.26859
 C3537 C 0.70539 0.64729 0.26962
 C3538 C 0.71766 0.63033 0.27420
 C3539 C 0.73804 0.63379 0.27923
 C3540 C 0.74616 0.65323 0.27876
 C3541 C 0.73472 0.66951 0.27159
 C3542 C 0.71444 0.66626 0.26604
 C3543 C 0.70424 0.68152 0.25525
 C3544 C 0.71337 0.69974 0.25128
 C3545 C 0.73247 0.70439 0.25925
 C3546 C 0.74337 0.68884 0.26909
 H3547 H 0.73651 0.59270 0.27552
 H3548 H 0.66297 0.58943 0.26394
 H3549 H 0.72063 0.56056 0.26851
 H3550 H 0.65958 0.62482 0.26744
 H3551 H 0.67419 0.65758 0.26762
 H3552 H 0.74787 0.62176 0.28405
 H3553 H 0.76175 0.65534 0.28302
 H3554 H 0.68963 0.67926 0.24836
 H3555 H 0.70514 0.71018 0.24154
 H3556 H 0.75868 0.69149 0.27402
 C3557 C 0.22274 0.09920 0.75233
 C3558 C 0.21219 0.11625 0.76037
 C3559 C 0.19264 0.11327 0.76939
 C3560 C 0.18342 0.09430 0.76832
 C3561 C 0.19366 0.07770 0.75909
 C3562 C 0.21364 0.08034 0.75182
 C3563 C 0.18225 0.12933 0.77908
 C3564 C 0.19077 0.14839 0.77987
 C3565 C 0.20976 0.15233 0.77012
 C3566 C 0.22032 0.13612 0.75960
 C3567 C 0.23812 0.14045 0.74767
 C3568 C 0.24520 0.15995 0.74578
 C3569 C 0.23533 0.17581 0.75633
 C3570 C 0.21804 0.17217 0.76947
 C3571 C 0.20982 0.18861 0.78133
 C3572 C 0.21750 0.20805 0.77870
 C3573 C 0.23291 0.21192 0.76349
 C3574 C 0.24246 0.19540 0.75332
 H3575 H 0.23819 0.09985 0.74664
 H3576 H 0.16800 0.09270 0.77415
 H3577 H 0.22242 0.06775 0.74564
 H3578 H 0.16733 0.12716 0.78614
 H3579 H 0.18164 0.16003 0.78731
 H3580 H 0.24641 0.12919 0.73860
 H3581 H 0.25852 0.16266 0.73579
 H3582 H 0.19764 0.18685 0.79293
 H3583 H 0.21080 0.22018 0.78809
 H3584 H 0.25517 0.19769 0.74238
 C3585 C 0.28225 0.10176 0.26086
 C3586 C 0.28985 0.11863 0.24950
 C3587 C 0.30821 0.11613 0.23763
 C3588 C 0.31881 0.09787 0.23809
 C3589 C 0.31149 0.08161 0.25016
 C3590 C 0.29294 0.08365 0.26118
 C3591 C 0.31624 0.13201 0.22575
 C3592 C 0.30681 0.15062 0.22577
 C3593 C 0.28892 0.15422 0.23793
 C3594 C 0.28022 0.13795 0.24993
 C3595 C 0.26263 0.14174 0.26254
 C3596 C 0.25433 0.16087 0.26421
 C3597 C 0.26299 0.17696 0.25316
 C3598 C 0.27995 0.17379 0.23929
 C3599 C 0.28745 0.19054 0.22769
 C3600 C 0.27982 0.20979 0.23156
 C3601 C 0.26466 0.21315 0.24724
 C3602 C 0.25520 0.19638 0.25661
 H3603 H 0.26816 0.10201 0.26979
 H3604 H 0.33324 0.09662 0.22965
 H3605 H 0.28667 0.07118 0.27022
 H3606 H 0.33021 0.13012 0.21655
 H3607 H 0.31439 0.16209 0.21654
 H3608 H 0.25515 0.13033 0.27195
 H3609 H 0.24122 0.16317 0.27467
 H3610 H 0.29935 0.18939 0.21568
 H3611 H 0.28625 0.22214 0.22250
 H3612 H 0.24263 0.19848 0.26784
 C3613 C 0.79653 0.59841 0.76182
 C3614 C 0.80564 0.61518 0.75162
 C3615 C 0.82368 0.61175 0.73945
 C3616 C 0.83262 0.59262 0.73859
 C3617 C 0.82384 0.57635 0.74947
 C3618 C 0.80553 0.57939 0.76075
 C3619 C 0.83303 0.62748 0.72849
 C3620 C 0.82493 0.64668 0.72924
 C3621 C 0.80715 0.65106 0.74132
 C3622 C 0.79761 0.63518 0.75315
 C3623 C 0.78079 0.63997 0.76659
 C3624 C 0.77351 0.65954 0.76841
 C3625 C 0.78235 0.67506 0.75657
 C3626 C 0.79898 0.67095 0.74248
 C3627 C 0.80668 0.68697 0.72998
 C3628 C 0.79912 0.70637 0.73247
 C3629 C 0.78368 0.71075 0.74757
 C3630 C 0.77478 0.69476 0.75893
 H3631 H 0.78242 0.59942 0.77067
 H3632 H 0.84688 0.59059 0.72998
 H3633 H 0.79811 0.56701 0.76887
 H3634 H 0.84688 0.62494 0.71925
 H3635 H 0.83343 0.65795 0.72065
 H3636 H 0.77319 0.62897 0.77647
 H3637 H 0.76081 0.66254 0.77924
 H3638 H 0.81837 0.68505 0.71784
 H3639 H 0.80552 0.71793 0.72229
 H3640 H 0.76235 0.69768 0.77014
 C3641 C 0.88879 0.77259 0.17097
 C3642 C 0.88316 0.76221 0.18990
 C3643 C 0.89785 0.74981 0.19931
 C3644 C 0.91708 0.74738 0.18946
 C3645 C 0.92223 0.75690 0.16974
 C3646 C 0.90766 0.76992 0.16119
 C3647 C 0.89311 0.73948 0.21827
 C3648 C 0.87394 0.74076 0.22780
 C3649 C 0.85856 0.75237 0.21861
 C3650 C 0.86337 0.76347 0.19946
 C3651 C 0.84806 0.77501 0.19007
 C3652 C 0.82858 0.77502 0.19835
 C3653 C 0.82351 0.76383 0.21648
 C3654 C 0.83834 0.75281 0.22740
 C3655 C 0.83201 0.74239 0.24627
 C3656 C 0.81167 0.74235 0.25321
 C3657 C 0.79705 0.75260 0.24157
 C3658 C 0.80337 0.76335 0.22328
 H3659 H 0.87906 0.78306 0.16312
 H3660 H 0.92732 0.73688 0.19672
 H3661 H 0.91085 0.77911 0.14725
 H3662 H 0.90430 0.73005 0.22571
 H3663 H 0.87150 0.73208 0.24219
 H3664 H 0.85035 0.78392 0.17586
 H3665 H 0.81725 0.78373 0.19019
 H3666 H 0.84232 0.73397 0.25588
 H3667 H 0.80736 0.73387 0.26738
 H3668 H 0.79247 0.77136 0.21383
 C3669 C 0.38829 0.24943 0.67054
 C3670 C 0.38278 0.25673 0.69127
 C3671 C 0.39715 0.26833 0.70236
 C3672 C 0.41636 0.27201 0.69300
 C3673 C 0.42133 0.26478 0.67232
 C3674 C 0.40715 0.25342 0.66135
 C3675 C 0.39212 0.27644 0.72252
 C3676 C 0.37299 0.27374 0.73176
 C3677 C 0.35812 0.26240 0.72133
 C3678 C 0.36337 0.25327 0.70104
 C3679 C 0.34899 0.24100 0.69107
 C3680 C 0.32979 0.23872 0.69977
 C3681 C 0.32407 0.24838 0.71884
 C3682 C 0.33810 0.26001 0.73026
 C3683 C 0.33121 0.26900 0.74983
 C3684 C 0.31106 0.26724 0.75697
 C3685 C 0.29703 0.25663 0.74485
 C3686 C 0.30407 0.24672 0.72614
 H3687 H 0.37831 0.24092 0.66065
 H3688 H 0.42724 0.28093 0.70154
 H3689 H 0.41070 0.24745 0.64547
 H3690 H 0.40301 0.28530 0.73113
 H3691 H 0.37029 0.28079 0.74718
 H3692 H 0.35203 0.23280 0.67641
 H3693 H 0.31917 0.22947 0.69124
 H3694 H 0.34087 0.27788 0.75975
 H3695 H 0.30649 0.27485 0.77159
 H3696 H 0.29375 0.23821 0.71643
 C3697 C 0.40023 0.76318 0.83493
 C3698 C 0.39537 0.75218 0.81624
 C3699 C 0.41103 0.74104 0.80578
 C3700 C 0.43042 0.74017 0.81459
 C3701 C 0.43460 0.75042 0.83377
 C3702 C 0.41940 0.76220 0.84348
 C3703 C 0.40717 0.73071 0.78673
 C3704 C 0.38809 0.73109 0.77783
 C3705 C 0.37185 0.74152 0.78792
 C3706 C 0.37555 0.75194 0.80766
 C3707 C 0.35917 0.76137 0.81856
 C3708 C 0.34000 0.76105 0.81040
 C3709 C 0.33623 0.75146 0.79100
 C3710 C 0.35195 0.74167 0.77925
 C3711 C 0.34690 0.73251 0.75943
 C3712 C 0.32706 0.73297 0.75195
 C3713 C 0.31157 0.74241 0.76400
 C3714 C 0.31655 0.75162 0.78352
 H3715 H 0.38970 0.77291 0.84334
 H3716 H 0.44212 0.73113 0.80680
 H3717 H 0.42237 0.77087 0.85783
 H3718 H 0.41906 0.72222 0.77856
 H3719 H 0.38641 0.72267 0.76316
 H3720 H 0.36048 0.76883 0.83383
 H3721 H 0.32791 0.76842 0.81949
 H3722 H 0.35794 0.72499 0.74926
 H3723 H 0.32394 0.72571 0.73686
 H3724 H 0.30499 0.75902 0.79330
 C3725 C 0.88192 0.23757 0.33951
 C3726 C 0.87797 0.23381 0.31760
 C3727 C 0.89385 0.22564 0.30458
 C3728 C 0.91296 0.22199 0.31323
 C3729 C 0.91656 0.22602 0.33495
 C3730 C 0.90082 0.23377 0.34790
 C3731 C 0.89056 0.22116 0.28302
 C3732 C 0.87184 0.22447 0.27403
 C3733 C 0.85557 0.23273 0.28622
 C3734 C 0.85883 0.23777 0.30829
 C3735 C 0.84289 0.24681 0.32031
 C3736 C 0.82432 0.25039 0.31139
 C3737 C 0.82072 0.24510 0.29017
 C3738 C 0.83615 0.23621 0.27717
 C3739 C 0.83131 0.23109 0.25575
 C3740 C 0.81197 0.23445 0.24790
 C3741 C 0.79670 0.24300 0.26100
 C3742 C 0.80151 0.24853 0.28207
 H3743 H 0.87078 0.24336 0.35077
 H3744 H 0.92499 0.21580 0.30309
 H3745 H 0.90320 0.23730 0.36465
 H3746 H 0.90261 0.21491 0.27296
 H3747 H 0.87067 0.22056 0.25730
 H3748 H 0.84422 0.25156 0.33675
 H3749 H 0.81256 0.25731 0.32134
 H3750 H 0.84202 0.22418 0.24471
 H3751 H 0.80909 0.22997 0.23161
 H3752 H 0.79006 0.25519 0.29263
 C3753 C 0.09711 0.22648 0.29565
 C3754 C 0.11014 0.24269 0.30020
 C3755 C 0.10395 0.25639 0.31665
 C3756 C 0.08532 0.25411 0.32754
 C3757 C 0.07290 0.23773 0.32317
 C3758 C 0.07893 0.22397 0.30717
 C3759 C 0.11662 0.27203 0.32257
 C3760 C 0.13583 0.27372 0.31347
 C3761 C 0.14295 0.26009 0.29757
 C3762 C 0.12942 0.24529 0.28970
 C3763 C 0.13563 0.23369 0.27163
 C3764 C 0.15482 0.23579 0.26231
 C3765 C 0.16887 0.24881 0.27119
 C3766 C 0.16319 0.26084 0.28922
 C3767 C 0.17828 0.27234 0.29898
 C3768 C 0.19807 0.27199 0.29110
 C3769 C 0.20361 0.26095 0.27255
 C3770 C 0.18874 0.24941 0.26261
 H3771 H 0.10095 0.21503 0.28393
 H3772 H 0.08087 0.26459 0.34020
 H3773 H 0.06958 0.21111 0.30368
 H3774 H 0.11185 0.28277 0.33484
 H3775 H 0.14467 0.28624 0.31889
 H3776 H 0.12576 0.22313 0.26403
 H3777 H 0.15891 0.22662 0.24843
 H3778 H 0.17554 0.28093 0.31349
 H3779 H 0.20912 0.28049 0.29982
 H3780 H 0.19277 0.24022 0.24874
 C3781 C 0.61489 0.73082 0.79484
 C3782 C 0.62793 0.74762 0.79529
 C3783 C 0.62173 0.76439 0.80803
 C3784 C 0.60329 0.76424 0.81956
 C3785 C 0.59080 0.74734 0.81933
 C3786 C 0.59674 0.73069 0.80680
 C3787 C 0.63414 0.78114 0.80960
 C3788 C 0.65314 0.78124 0.79987
 C3789 C 0.66044 0.76458 0.78786
 C3790 C 0.64717 0.74811 0.78427
 C3791 C 0.65366 0.73279 0.76986
 C3792 C 0.67284 0.73308 0.76018
 C3793 C 0.68660 0.74815 0.76513
 C3794 C 0.68061 0.76390 0.77934
 C3795 C 0.69541 0.77776 0.78557
 C3796 C 0.71517 0.77611 0.77793
 C3797 C 0.72108 0.76122 0.76295
 C3798 C 0.70653 0.74719 0.75663
 H3799 H 0.61860 0.71729 0.78599
 H3800 H 0.59902 0.77707 0.82949
 H3801 H 0.58732 0.71744 0.80631
 H3802 H 0.62930 0.79418 0.81890
 H3803 H 0.66170 0.79485 0.80171
 H3804 H 0.64407 0.72047 0.76547
 H3805 H 0.67716 0.72100 0.74926
 H3806 H 0.69252 0.78937 0.79738
 H3807 H 0.72599 0.78652 0.78437
 H3808 H 0.71088 0.73503 0.74583
 C3809 C 0.60961 0.23486 0.67393
 C3810 C 0.61661 0.24616 0.69156
 C3811 C 0.60318 0.26032 0.70130
 C3812 C 0.58419 0.26405 0.69243
 C3813 C 0.57795 0.25325 0.67438
 C3814 C 0.59064 0.23839 0.66557
 C3815 C 0.60886 0.27075 0.71969
 C3816 C 0.62767 0.26760 0.72858
 C3817 C 0.64195 0.25442 0.71887
 C3818 C 0.63647 0.24396 0.69971
 C3819 C 0.65130 0.23234 0.68871
 C3820 C 0.67084 0.23117 0.69593
 C3821 C 0.67630 0.24094 0.71473
 C3822 C 0.66186 0.25204 0.72701
 C3823 C 0.66817 0.26046 0.74672
 C3824 C 0.68823 0.25880 0.75317
 C3825 C 0.70271 0.24891 0.74013
 C3826 C 0.69639 0.23998 0.72095
 H3827 H 0.61831 0.22300 0.66634
 H3828 H 0.57421 0.27529 0.69959
 H3829 H 0.58603 0.22971 0.65177
 H3830 H 0.59863 0.28148 0.72734
 H3831 H 0.63095 0.27642 0.74263
 H3832 H 0.64859 0.22469 0.67378
 H3833 H 0.68186 0.22255 0.68657
 H3834 H 0.65793 0.26833 0.75754
 H3835 H 0.69248 0.26578 0.76814
 H3836 H 0.70721 0.23224 0.71052
 C3837 C 0.09353 0.72687 0.21204
 C3838 C 0.10474 0.74475 0.21487
 C3839 C 0.09778 0.76231 0.20453
 C3840 C 0.08104 0.76166 0.19125
 C3841 C 0.07046 0.74375 0.18808
 C3842 C 0.07672 0.72646 0.19890
 C3843 C 0.10776 0.78049 0.20706
 C3844 C 0.12500 0.78164 0.21907
 C3845 C 0.13320 0.76448 0.22893
 C3846 C 0.12281 0.74575 0.22704
 C3847 C 0.13126 0.72857 0.23668
 C3848 C 0.14976 0.72939 0.24669
 C3849 C 0.16049 0.74733 0.24774
 C3850 C 0.15202 0.76525 0.23963
 C3851 C 0.16317 0.78314 0.24191
 C3852 C 0.18281 0.78271 0.24917
 C3853 C 0.19210 0.76455 0.25487
 C3854 C 0.18010 0.74727 0.25588
 H3855 H 0.09735 0.71292 0.21967
 H3856 H 0.07668 0.77513 0.18279
 H3857 H 0.06859 0.71248 0.19723
 H3858 H 0.10236 0.79400 0.19936
 H3859 H 0.13186 0.79624 0.21970
 H3860 H 0.12426 0.71402 0.23617
 H3861 H 0.15602 0.71565 0.25311
 H3862 H 0.15748 0.79771 0.23765
 H3863 H 0.19086 0.79681 0.24950
 H3864 H 0.18633 0.73338 0.26162
   
