data_POSCAR
  _audit_creation_date              2014-09-24
  _audit_creation_method            'ToBaCCo'
  _symmetry_space_group_name_H-M    'P1'
  _symmetry_Int_Tables_number       1
  _symmetry_cell_setting            triclinic
  loop_
  _symmetry_equiv_pos_as_xyz
 x,y,z
_cell_length_a 83.1616
_cell_length_b 83.2488
_cell_length_c 83.4113
_cell_angle_alpha 89.984100
_cell_angle_beta 89.981200
_cell_angle_gamma 89.937800
loop_
  _atom_site_label
  _atom_site_type_symbol
  _atom_site_fract_x
  _atom_site_fract_y
  _atom_site_fract_z
N1 N 0.35727 0.31277 0.32419
 N2 N 0.35690 0.32385 0.31293
 C3 C 0.36944 0.32161 0.30294
 C4 C 0.37797 0.30844 0.30827
 C5 C 0.37002 0.30309 0.32173
 H6 H 0.37220 0.32896 0.29261
 H7 H 0.37328 0.29295 0.32917
 Cu8 Cu 0.34009 0.34011 0.31289
 Cu9 Cu 0.34130 0.31178 0.34132
 Cu10 Cu 0.31184 0.34144 0.34143
 N11 N 0.32383 0.35692 0.31294
 N12 N 0.31282 0.35738 0.32428
 C13 C 0.30311 0.37010 0.32179
 C14 C 0.30837 0.37795 0.30823
 C15 C 0.32151 0.36938 0.30287
 H16 H 0.29300 0.37339 0.32926
 H17 H 0.32879 0.37205 0.29246
 N18 N 0.31292 0.32420 0.35768
 N19 N 0.32409 0.31288 0.35759
 C20 C 0.32156 0.30291 0.37007
 C21 C 0.30823 0.30825 0.37830
 C22 C 0.30300 0.32171 0.37022
 H23 H 0.32883 0.29254 0.37299
 H24 H 0.29273 0.32907 0.37326
 H25 H 0.32285 0.32301 0.32917
 H26 H 0.33613 0.33609 0.34153
 N27 N 0.35815 0.81292 -0.17583
 N28 N 0.35798 0.82418 -0.18692
 C29 C 0.37051 0.82188 -0.19693
 C30 C 0.37878 0.80847 -0.19179
 C31 C 0.37073 0.80304 -0.17842
 H32 H 0.37337 0.82932 -0.20716
 H33 H 0.37379 0.79272 -0.17114
 Cu34 Cu 0.34138 0.84073 -0.18693
 Cu35 Cu 0.34211 0.81188 -0.15880
 Cu36 Cu 0.31275 0.84159 -0.15867
 N37 N 0.32484 0.85737 -0.18694
 N38 N 0.31369 0.85767 -0.17573
 C39 C 0.30377 0.87021 -0.17838
 C40 C 0.30906 0.87814 -0.19190
 C41 C 0.32244 0.86979 -0.19707
 H42 H 0.29348 0.87330 -0.17105
 H43 H 0.32977 0.87249 -0.20743
 N44 N 0.31376 0.82431 -0.14245
 N45 N 0.32488 0.81296 -0.14257
 C46 C 0.32234 0.80297 -0.13010
 C47 C 0.30902 0.80832 -0.12185
 C48 C 0.30384 0.82182 -0.12990
 H49 H 0.32960 0.79259 -0.12719
 H50 H 0.29361 0.82923 -0.12681
 H51 H 0.32395 0.82322 -0.17126
 H52 H 0.33710 0.83607 -0.15845
 N53 N 0.85724 0.31349 -0.17576
 N54 N 0.85715 0.32482 -0.18677
 C55 C 0.86969 0.32254 -0.19677
 C56 C 0.87791 0.30907 -0.19171
 C57 C 0.86978 0.30359 -0.17840
 H58 H 0.87263 0.33004 -0.20694
 H59 H 0.87278 0.29322 -0.17118
 Cu60 Cu 0.84065 0.34142 -0.18672
 Cu61 Cu 0.84117 0.31247 -0.15876
 Cu62 Cu 0.81184 0.34219 -0.15856
 N63 N 0.82416 0.35804 -0.18667
 N64 N 0.81293 0.35827 -0.17555
 C65 C 0.80308 0.37086 -0.17815
 C66 C 0.80851 0.37885 -0.19157
 C67 C 0.82188 0.37052 -0.19673
 H68 H 0.79277 0.37395 -0.17086
 H69 H 0.82931 0.37333 -0.20700
 N70 N 0.81279 0.32486 -0.14243
 N71 N 0.82392 0.31351 -0.14255
 C72 C 0.82139 0.30354 -0.13006
 C73 C 0.80811 0.30893 -0.12179
 C74 C 0.80291 0.32240 -0.12985
 H75 H 0.82867 0.29318 -0.12712
 H76 H 0.79271 0.32984 -0.12673
 H77 H 0.82300 0.32400 -0.17117
 H78 H 0.83608 0.33678 -0.15824
 N79 N 0.85740 0.81358 0.32434
 N80 N 0.85718 0.82479 0.31323
 C81 C 0.86962 0.82242 0.30313
 C82 C 0.87793 0.80903 0.30825
 C83 C 0.86993 0.80366 0.32169
 H84 H 0.87243 0.82981 0.29285
 H85 H 0.87299 0.79333 0.32895
 Cu86 Cu 0.84066 0.84137 0.31335
 Cu87 Cu 0.84140 0.81260 0.34142
 Cu88 Cu 0.81184 0.84209 0.34141
 N89 N 0.82406 0.85787 0.31321
 N90 N 0.81281 0.85808 0.32432
 C91 C 0.80289 0.87060 0.32167
 C92 C 0.80828 0.87857 0.30823
 C93 C 0.82169 0.87029 0.30310
 H94 H 0.79254 0.87365 0.32894
 H95 H 0.82910 0.87309 0.29283
 N96 N 0.81293 0.82489 0.35767
 N97 N 0.82418 0.81366 0.35767
 C98 C 0.82166 0.80370 0.37017
 C99 C 0.80825 0.80896 0.37831
 C100 C 0.80297 0.82235 0.37017
 H101 H 0.82899 0.79338 0.37314
 H102 H 0.79263 0.82966 0.37315
 H103 H 0.82318 0.82392 0.32889
 H104 H 0.83613 0.83687 0.34180
 N105 N 0.64237 0.68711 0.32461
 N106 N 0.64258 0.67586 0.31351
 C107 C 0.63010 0.67817 0.30347
 C108 C 0.62180 0.69157 0.30855
 C109 C 0.62981 0.69698 0.32195
 H110 H 0.62728 0.67077 0.29318
 H111 H 0.62675 0.70730 0.32922
 Cu112 Cu 0.65913 0.65934 0.31348
 Cu113 Cu 0.65842 0.68815 0.34159
 Cu114 Cu 0.68798 0.65864 0.34157
 N115 N 0.67568 0.64280 0.31348
 N116 N 0.68695 0.64260 0.32457
 C117 C 0.69683 0.63005 0.32190
 C118 C 0.69142 0.62205 0.30849
 C119 C 0.67799 0.63034 0.30343
 H120 H 0.70717 0.62699 0.32916
 H121 H 0.67057 0.62753 0.29315
 N122 N 0.68696 0.67590 0.35775
 N123 N 0.67570 0.68713 0.35776
 C124 C 0.67820 0.69706 0.37027
 C125 C 0.69159 0.69179 0.37842
 C126 C 0.69690 0.67841 0.37027
 H127 H 0.67085 0.70735 0.37328
 H128 H 0.70721 0.67108 0.37327
 H129 H 0.67668 0.67690 0.32903
 H130 H 0.66370 0.66391 0.34192
 N131 N 0.64258 0.18693 -0.17582
 N132 N 0.64294 0.17583 -0.18705
 C133 C 0.63037 0.17805 -0.19702
 C134 C 0.62184 0.19123 -0.19170
 C135 C 0.62982 0.19660 -0.17826
 H136 H 0.62758 0.17068 -0.20732
 H137 H 0.62657 0.20674 -0.17083
 Cu138 Cu 0.65976 0.15954 -0.18712
 Cu139 Cu 0.65859 0.18799 -0.15876
 Cu140 Cu 0.68819 0.15845 -0.15877
 N141 N 0.67612 0.14277 -0.18712
 N142 N 0.68723 0.14242 -0.17588
 C143 C 0.69698 0.12972 -0.17838
 C144 C 0.69164 0.12177 -0.19187
 C145 C 0.67840 0.13027 -0.19716
 H146 H 0.70716 0.12651 -0.17096
 H147 H 0.67103 0.12752 -0.20747
 N148 N 0.68710 0.17572 -0.14253
 N149 N 0.67585 0.18696 -0.14255
 C150 C 0.67829 0.19688 -0.13002
 C151 C 0.69166 0.19161 -0.12182
 C152 C 0.69699 0.17823 -0.12997
 H153 H 0.67090 0.20714 -0.12701
 H154 H 0.70729 0.17090 -0.12692
 H155 H 0.67691 0.17681 -0.17096
 H156 H 0.66377 0.16369 -0.15847
 N157 N 0.14257 0.68689 -0.17570
 N158 N 0.14299 0.67587 -0.18700
 C159 C 0.13051 0.67817 -0.19705
 C160 C 0.12196 0.69131 -0.19169
 C161 C 0.12984 0.69659 -0.17817
 H162 H 0.12781 0.67087 -0.20743
 H163 H 0.12656 0.70670 -0.17071
 Cu164 Cu 0.15980 0.65963 -0.18705
 Cu165 Cu 0.15851 0.68787 -0.15856
 Cu166 Cu 0.18804 0.65827 -0.15855
 N167 N 0.17602 0.64279 -0.18700
 N168 N 0.18704 0.64233 -0.17569
 C169 C 0.19671 0.62958 -0.17816
 C170 C 0.19141 0.62172 -0.19170
 C171 C 0.17828 0.63031 -0.19705
 H172 H 0.20682 0.62628 -0.17070
 H173 H 0.17097 0.62763 -0.20743
 N174 N 0.18696 0.67548 -0.14230
 N175 N 0.17573 0.68674 -0.14231
 C176 C 0.17828 0.69671 -0.12984
 C177 C 0.19169 0.69144 -0.12170
 C178 C 0.19694 0.67802 -0.12982
 H179 H 0.17099 0.70706 -0.12689
 H180 H 0.20727 0.67071 -0.12685
 H181 H 0.17697 0.67676 -0.17076
 H182 H 0.16374 0.66359 -0.15842
 N183 N 0.14240 0.18703 0.32417
 N184 N 0.14278 0.17596 0.31291
 C185 C 0.13027 0.17823 0.30289
 C186 C 0.12174 0.19140 0.30821
 C187 C 0.12968 0.19673 0.32169
 H188 H 0.12752 0.17090 0.29255
 H189 H 0.12643 0.20688 0.32911
 Cu190 Cu 0.15953 0.15966 0.31285
 Cu191 Cu 0.15836 0.18804 0.34128
 Cu192 Cu 0.18797 0.15852 0.34121
 N193 N 0.17586 0.14291 0.31287
 N194 N 0.18696 0.14255 0.32411
 C195 C 0.19667 0.12983 0.32161
 C196 C 0.19132 0.12190 0.30814
 C197 C 0.17811 0.13040 0.30285
 H198 H 0.20682 0.12657 0.32904
 H199 H 0.17072 0.12764 0.29255
 N200 N 0.18689 0.17574 0.35745
 N201 N 0.17561 0.18695 0.35749
 C202 C 0.17807 0.19682 0.37006
 C203 C 0.19145 0.19152 0.37822
 C204 C 0.19679 0.17819 0.37001
 H205 H 0.17069 0.20708 0.37310
 H206 H 0.20708 0.17084 0.37302
 H207 H 0.17667 0.17690 0.32903
 H208 H 0.16357 0.16372 0.34150
 N209 N 0.64244 0.31297 0.67592
 N210 N 0.64280 0.32404 0.68717
 C211 C 0.63026 0.32181 0.69717
 C212 C 0.62174 0.30865 0.69185
 C213 C 0.62970 0.30330 0.67838
 H214 H 0.62749 0.32917 0.70749
 H215 H 0.62645 0.29318 0.67094
 Cu216 Cu 0.65959 0.34032 0.68722
 Cu217 Cu 0.65845 0.31193 0.65883
 Cu218 Cu 0.68803 0.34142 0.65883
 N219 N 0.67593 0.35706 0.68719
 N220 N 0.68703 0.35741 0.67594
 C221 C 0.69673 0.37011 0.67842
 C222 C 0.69139 0.37807 0.69190
 C223 C 0.67819 0.36957 0.69721
 H224 H 0.70689 0.37334 0.67100
 H225 H 0.67081 0.37233 0.70752
 N226 N 0.68695 0.32418 0.64259
 N227 N 0.67570 0.31297 0.64260
 C228 C 0.67815 0.30307 0.63004
 C229 C 0.69152 0.30835 0.62186
 C230 C 0.69684 0.32170 0.63002
 H231 H 0.67076 0.29284 0.62701
 H232 H 0.70713 0.32903 0.62698
 H233 H 0.67680 0.32312 0.67101
 H234 H 0.66365 0.33628 0.65855
 N235 N 0.64240 0.81344 1.17571
 N236 N 0.64260 0.82467 1.18680
 C237 C 0.63009 0.82241 1.19684
 C238 C 0.62179 0.80903 1.19175
 C239 C 0.62983 0.80360 1.17835
 H240 H 0.62724 0.82985 1.20711
 H241 H 0.62678 0.79330 1.17108
 Cu242 Cu 0.65917 0.84113 1.18680
 Cu243 Cu 0.65850 0.81238 1.15872
 Cu244 Cu 0.68804 0.84185 1.15869
 N245 N 0.67569 0.85763 1.18680
 N246 N 0.68694 0.85784 1.17570
 C247 C 0.69682 0.87035 1.17836
 C248 C 0.69138 0.87836 1.19175
 C249 C 0.67797 0.87010 1.19686
 H250 H 0.70715 0.87340 1.17110
 H251 H 0.67056 0.87294 1.20714
 N252 N 0.68702 0.82459 1.14253
 N253 N 0.67579 0.81337 1.14254
 C254 C 0.67829 0.80345 1.13002
 C255 C 0.69169 0.80872 1.12187
 C256 C 0.69696 0.82210 1.13001
 H257 H 0.67095 0.79318 1.12700
 H258 H 0.70724 0.82944 1.12699
 H259 H 0.67682 0.82372 1.17121
 H260 H 0.66382 0.83669 1.15833
 N261 N 0.14230 0.31338 1.17562
 N262 N 0.14248 0.32462 1.18671
 C263 C 0.13003 0.32230 1.19679
 C264 C 0.12174 0.30892 1.19168
 C265 C 0.12976 0.30350 1.17827
 H266 H 0.12719 0.32973 1.20704
 H267 H 0.12672 0.29317 1.17103
 Cu268 Cu 0.15895 0.34119 1.18646
 Cu269 Cu 0.15833 0.31235 1.15855
 Cu270 Cu 0.18783 0.34183 1.15848
 N271 N 0.17555 0.35762 1.18666
 N272 N 0.18679 0.35780 1.17554
 C273 C 0.19669 0.37031 1.17817
 C274 C 0.19129 0.37831 1.19158
 C275 C 0.17790 0.37004 1.19673
 H276 H 0.20703 0.37335 1.17091
 H277 H 0.17049 0.37288 1.20701
 N278 N 0.18678 0.32462 1.14228
 N279 N 0.17556 0.31338 1.14231
 C280 C 0.17812 0.30340 1.12984
 C281 C 0.19152 0.30866 1.12170
 C282 C 0.19677 0.32207 1.12981
 H283 H 0.17083 0.29307 1.12689
 H284 H 0.20709 0.32936 1.12682
 H285 H 0.17657 0.32374 1.17103
 H286 H 0.16360 0.33664 1.15810
 N287 N 0.14275 0.81316 0.67562
 N288 N 0.14283 0.82452 0.68661
 C289 C 0.13032 0.82227 0.69664
 C290 C 0.12206 0.80884 0.69160
 C291 C 0.13018 0.80334 0.67828
 H292 H 0.12736 0.82980 0.70681
 H293 H 0.12719 0.79297 0.67107
 Cu294 Cu 0.15934 0.84104 0.68656
 Cu295 Cu 0.15882 0.81214 0.65863
 Cu296 Cu 0.18816 0.84178 0.65838
 N297 N 0.17583 0.85755 0.68650
 N298 N 0.18709 0.85775 0.67539
 C299 C 0.19693 0.87030 0.67802
 C300 C 0.19153 0.87827 0.69145
 C301 C 0.17817 0.86997 0.69659
 H302 H 0.20727 0.87333 0.67077
 H303 H 0.17078 0.87281 0.70691
 N304 N 0.18716 0.82450 0.64226
 N305 N 0.17605 0.81316 0.64240
 C306 C 0.17857 0.80321 0.62990
 C307 C 0.19185 0.80859 0.62163
 C308 C 0.19704 0.82204 0.62968
 H309 H 0.17129 0.79287 0.62696
 H310 H 0.20723 0.82948 0.62657
 H311 H 0.17701 0.82377 0.67101
 H312 H 0.16390 0.83655 0.65807
 N313 N 0.35776 0.68676 0.67551
 N314 N 0.35757 0.67554 0.68666
 C315 C 0.37005 0.67787 0.69667
 C316 C 0.37833 0.69127 0.69155
 C317 C 0.37027 0.69667 0.67817
 H318 H 0.37289 0.67045 0.70692
 H319 H 0.37329 0.70703 0.67093
 Cu320 Cu 0.34098 0.65904 0.68666
 Cu321 Cu 0.34169 0.68784 0.65850
 Cu322 Cu 0.31224 0.65830 0.65845
 N323 N 0.32449 0.64245 0.68664
 N324 N 0.31330 0.64223 0.67547
 C325 C 0.30339 0.62972 0.67811
 C326 C 0.30878 0.62167 0.69150
 C327 C 0.32216 0.62996 0.69665
 H328 H 0.29304 0.62669 0.67085
 H329 H 0.32956 0.62715 0.70692
 N330 N 0.31323 0.67557 0.64225
 N331 N 0.32444 0.68682 0.64228
 C332 C 0.32191 0.69677 0.62978
 C333 C 0.30853 0.69151 0.62162
 C334 C 0.30329 0.67809 0.62974
 H335 H 0.32922 0.70710 0.62681
 H336 H 0.29300 0.67076 0.62672
 H337 H 0.32340 0.67659 0.67098
 H338 H 0.33643 0.66368 0.65814
 N339 N 0.35754 0.18654 1.17558
 N340 N 0.35738 0.17525 1.18665
 C341 C 0.36980 0.17756 1.19674
 C342 C 0.37813 0.19093 1.19166
 C343 C 0.37011 0.19637 1.17826
 H344 H 0.37266 0.17009 1.20699
 H345 H 0.37317 0.20669 1.17101
 Cu346 Cu 0.34088 0.15870 1.18671
 Cu347 Cu 0.34149 0.18754 1.15858
 Cu348 Cu 0.31198 0.15804 1.15853
 N349 N 0.32432 0.14225 1.18661
 N350 N 0.31304 0.14208 1.17554
 C351 C 0.30319 0.12953 1.17820
 C352 C 0.30863 0.12152 1.19159
 C353 C 0.32199 0.12983 1.19670
 H354 H 0.29287 0.12646 1.17094
 H355 H 0.32943 0.12696 1.20697
 N356 N 0.31301 0.17529 1.14236
 N357 N 0.32423 0.18652 1.14238
 C358 C 0.32170 0.19647 1.12988
 C359 C 0.30831 0.19119 1.12174
 C360 C 0.30305 0.17780 1.12987
 H361 H 0.32901 0.20678 1.12688
 H362 H 0.29276 0.17047 1.12687
 H363 H 0.32321 0.17613 1.17104
 H364 H 0.33620 0.16321 1.15812
 N365 N 0.85747 0.68669 1.17571
 N366 N 0.85729 0.67544 1.18680
 C367 C 0.86976 0.67774 1.19686
 C368 C 0.87807 0.69111 1.19174
 C369 C 0.87004 0.69653 1.17834
 H370 H 0.87262 0.67028 1.20709
 H371 H 0.87311 0.70684 1.17107
 Cu372 Cu 0.84076 0.65893 1.18678
 Cu373 Cu 0.84141 0.68772 1.15870
 Cu374 Cu 0.81190 0.65824 1.15867
 N375 N 0.82424 0.64242 1.18676
 N376 N 0.81299 0.64224 1.17567
 C377 C 0.80315 0.62967 1.17826
 C378 C 0.80859 0.62164 1.19164
 C379 C 0.82195 0.62994 1.19679
 H380 H 0.79284 0.62660 1.17098
 H381 H 0.82940 0.62706 1.20703
 N382 N 0.81291 0.67550 1.14251
 N383 N 0.82414 0.68673 1.14251
 C384 C 0.82162 0.69667 1.13001
 C385 C 0.80824 0.69139 1.12186
 C386 C 0.80296 0.67801 1.13000
 H387 H 0.82895 0.70696 1.12700
 H388 H 0.79267 0.67068 1.12700
 H389 H 0.82314 0.67636 1.17120
 H390 H 0.83613 0.66340 1.15832
 N391 N 0.85751 0.18662 0.67541
 N392 N 0.85732 0.17538 0.68651
 C393 C 0.86975 0.17773 0.69663
 C394 C 0.87803 0.19112 0.69153
 C395 C 0.87003 0.19651 0.67809
 H396 H 0.87253 0.17037 0.70697
 H397 H 0.87305 0.20684 0.67084
 Cu398 Cu 0.84070 0.15896 0.68673
 Cu399 Cu 0.84141 0.18764 0.65848
 Cu400 Cu 0.81171 0.15842 0.65871
 N401 N 0.82422 0.14241 0.68655
 N402 N 0.81283 0.14236 0.67561
 C403 C 0.80298 0.12982 0.67824
 C404 C 0.80855 0.12167 0.69150
 C405 C 0.82200 0.12988 0.69654
 H406 H 0.79259 0.12684 0.67105
 H407 H 0.82953 0.12692 0.70672
 N408 N 0.81271 0.17563 0.64254
 N409 N 0.82408 0.18671 0.64237
 C410 C 0.82161 0.19657 0.62979
 C411 C 0.80812 0.19138 0.62176
 C412 C 0.80273 0.17814 0.63005
 H413 H 0.82906 0.20673 0.62665
 H414 H 0.79236 0.17088 0.62715
 H415 H 0.82321 0.17650 0.67127
 H416 H 0.83599 0.16333 0.65834
 N417 N 0.31293 0.35741 0.67560
 N418 N 0.32395 0.35696 0.68692
 C419 C 0.32167 0.36945 0.69695
 C420 C 0.30854 0.37802 0.69159
 C421 C 0.30325 0.37014 0.67806
 H422 H 0.32897 0.37213 0.70734
 H423 H 0.29313 0.37344 0.67060
 Cu424 Cu 0.34018 0.34014 0.68697
 Cu425 Cu 0.31194 0.34146 0.65846
 Cu426 Cu 0.34149 0.31189 0.65848
 N427 N 0.35700 0.32390 0.68693
 N428 N 0.35743 0.31288 0.67562
 C429 C 0.37017 0.30320 0.67810
 C430 C 0.37805 0.30849 0.69162
 C431 C 0.36949 0.32162 0.69697
 H432 H 0.37346 0.29308 0.67065
 H433 H 0.37218 0.32892 0.70735
 N434 N 0.32427 0.31300 0.64223
 N435 N 0.31303 0.32424 0.64222
 C436 C 0.30306 0.32171 0.62974
 C437 C 0.30831 0.30829 0.62162
 C438 C 0.32173 0.30302 0.62976
 H439 H 0.29272 0.32901 0.62677
 H440 H 0.32903 0.29268 0.62680
 H441 H 0.32302 0.32298 0.67069
 H442 H 0.33625 0.33616 0.65834
 N443 N 0.31321 0.85778 0.17537
 N444 N 0.32420 0.85732 0.18671
 C445 C 0.32190 0.86979 0.19676
 C446 C 0.30879 0.87838 0.19137
 C447 C 0.30352 0.87052 0.17783
 H448 H 0.32917 0.87246 0.20717
 H449 H 0.29342 0.87382 0.17035
 Cu450 Cu 0.34043 0.84051 0.18681
 Cu451 Cu 0.31220 0.84182 0.15826
 Cu452 Cu 0.34156 0.81206 0.15852
 N453 N 0.35719 0.82422 0.18682
 N454 N 0.35753 0.81309 0.17563
 C455 C 0.37028 0.80341 0.17811
 C456 C 0.37825 0.80882 0.19153
 C457 C 0.36975 0.82202 0.19680
 H458 H 0.37354 0.79326 0.17070
 H459 H 0.37255 0.82944 0.20707
 N460 N 0.32437 0.81316 0.14225
 N461 N 0.31326 0.82453 0.14208
 C462 C 0.30337 0.82206 0.12952
 C463 C 0.30856 0.80855 0.12151
 C464 C 0.32184 0.80317 0.12978
 H465 H 0.29317 0.82949 0.12641
 H466 H 0.32910 0.79279 0.12689
 H467 H 0.32315 0.82346 0.17058
 H468 H 0.33653 0.83642 0.15816
 N469 N 0.81333 0.35814 0.17525
 N470 N 0.82477 0.35811 0.18615
 C471 C 0.82236 0.37046 0.19633
 C472 C 0.80875 0.37856 0.19144
 C473 C 0.80327 0.37051 0.17809
 H474 H 0.82984 0.37331 0.20654
 H475 H 0.79276 0.37341 0.17103
 Cu476 Cu 0.84139 0.34168 0.18588
 Cu477 Cu 0.81222 0.34210 0.15823
 Cu478 Cu 0.84177 0.31252 0.15826
 N479 N 0.85781 0.32504 0.18617
 N480 N 0.85782 0.31360 0.17529
 C481 C 0.87017 0.30353 0.17815
 C482 C 0.87823 0.30900 0.19150
 C483 C 0.87015 0.32261 0.19637
 H484 H 0.87305 0.29301 0.17110
 H485 H 0.87301 0.33008 0.20658
 N486 N 0.82450 0.31358 0.14206
 N487 N 0.81326 0.32482 0.14205
 C488 C 0.80324 0.32224 0.12962
 C489 C 0.80847 0.30879 0.12153
 C490 C 0.82191 0.30355 0.12964
 H491 H 0.79287 0.32951 0.12668
 H492 H 0.82917 0.29317 0.12673
 H493 H 0.82357 0.32390 0.17094
 H494 H 0.83632 0.33661 0.15762
 N495 N 0.81336 0.85797 0.67546
 N496 N 0.82465 0.85779 0.68651
 C497 C 0.82226 0.87018 0.69667
 C498 C 0.80887 0.87851 0.69154
 C499 C 0.80347 0.87050 0.67813
 H500 H 0.82967 0.87299 0.70695
 H501 H 0.79314 0.87355 0.67088
 Cu502 Cu 0.84121 0.84125 0.68647
 Cu503 Cu 0.81238 0.84196 0.65840
 Cu504 Cu 0.84188 0.81239 0.65842
 N505 N 0.85773 0.82469 0.68651
 N506 N 0.85788 0.81339 0.67548
 C507 C 0.87041 0.80350 0.67814
 C508 C 0.87842 0.80889 0.69155
 C509 C 0.87013 0.82229 0.69666
 H510 H 0.87346 0.79316 0.67090
 H511 H 0.87297 0.82970 0.70692
 N512 N 0.82466 0.81348 0.64219
 N513 N 0.81344 0.82474 0.64217
 C514 C 0.80344 0.82218 0.62971
 C515 C 0.80869 0.80875 0.62161
 C516 C 0.82210 0.80349 0.62974
 H517 H 0.79309 0.82947 0.62675
 H518 H 0.82937 0.79312 0.62681
 H519 H 0.82367 0.82372 0.67096
 H520 H 0.83664 0.83661 0.65801
 N521 N 0.68704 0.64234 0.67568
 N522 N 0.67578 0.64255 0.68676
 C523 C 0.67807 0.63007 0.69682
 C524 C 0.69151 0.62178 0.69176
 C525 C 0.69692 0.62980 0.67835
 H526 H 0.67065 0.62726 0.70709
 H527 H 0.70726 0.62671 0.67109
 Cu528 Cu 0.65919 0.65906 0.68684
 Cu529 Cu 0.68807 0.65841 0.65868
 Cu530 Cu 0.65850 0.68794 0.65869
 N531 N 0.64268 0.67564 0.68678
 N532 N 0.64246 0.68689 0.67571
 C533 C 0.62992 0.69678 0.67840
 C534 C 0.62191 0.69136 0.69181
 C535 C 0.63019 0.67794 0.69686
 H536 H 0.62683 0.70711 0.67115
 H537 H 0.62741 0.67054 0.70715
 N538 N 0.67577 0.68691 0.64249
 N539 N 0.68703 0.67569 0.64248
 C540 C 0.69696 0.67819 0.62995
 C541 C 0.69165 0.69157 0.62179
 C542 C 0.67826 0.69685 0.62997
 H543 H 0.70727 0.67086 0.62693
 H544 H 0.67091 0.70714 0.62697
 H545 H 0.67670 0.67664 0.67117
 H546 H 0.66377 0.66370 0.65826
 N547 N 0.68691 0.14205 0.17544
 N548 N 0.67562 0.14224 0.18649
 C549 C 0.67794 0.12978 0.19659
 C550 C 0.69134 0.12147 0.19149
 C551 C 0.69678 0.12950 0.17809
 H552 H 0.67050 0.12697 0.20684
 H553 H 0.70713 0.12642 0.17086
 Cu554 Cu 0.65908 0.15878 0.18650
 Cu555 Cu 0.68794 0.15810 0.15842
 Cu556 Cu 0.65841 0.18766 0.15848
 N557 N 0.64253 0.17531 0.18653
 N558 N 0.64235 0.18660 0.17550
 C559 C 0.62979 0.19646 0.17816
 C560 C 0.62176 0.19103 0.19155
 C561 C 0.63006 0.17762 0.19662
 H562 H 0.62672 0.20682 0.17093
 H563 H 0.62722 0.17016 0.20685
 N564 N 0.67568 0.18664 0.14228
 N565 N 0.68691 0.17539 0.14224
 C566 C 0.69685 0.17792 0.12972
 C567 C 0.69157 0.19133 0.12161
 C568 C 0.67818 0.19660 0.12978
 H569 H 0.70714 0.17058 0.12669
 H570 H 0.67084 0.20691 0.12680
 H571 H 0.67662 0.17626 0.17093
 H572 H 0.66366 0.16339 0.15800
 N573 N 0.18681 0.64240 0.17553
 N574 N 0.17570 0.64276 0.18677
 C575 C 0.17791 0.63022 0.19676
 C576 C 0.19109 0.62169 0.19144
 C577 C 0.19648 0.62966 0.17800
 H578 H 0.17054 0.62747 0.20708
 H579 H 0.20665 0.62641 0.17058
 Cu580 Cu 0.15942 0.65956 0.18682
 Cu581 Cu 0.18786 0.65840 0.15845
 Cu582 Cu 0.15835 0.68800 0.15848
 N583 N 0.14267 0.67588 0.18680
 N584 N 0.14233 0.68699 0.17557
 C585 C 0.12962 0.69670 0.17806
 C586 C 0.12165 0.69134 0.19151
 C587 C 0.13013 0.67813 0.19680
 H588 H 0.12641 0.70688 0.17066
 H589 H 0.12736 0.67077 0.20712
 N590 N 0.17561 0.68692 0.14225
 N591 N 0.18684 0.67567 0.14224
 C592 C 0.19679 0.67817 0.12972
 C593 C 0.19152 0.69157 0.12158
 C594 C 0.17814 0.69687 0.12974
 H595 H 0.20709 0.67083 0.12672
 H596 H 0.17083 0.70719 0.12677
 H597 H 0.17670 0.67678 0.17072
 H598 H 0.16354 0.66369 0.15821
 N599 N 0.18666 0.14197 0.67564
 N600 N 0.17564 0.14240 0.68696
 C601 C 0.17791 0.12989 0.69699
 C602 C 0.19104 0.12130 0.69161
 C603 C 0.19633 0.12921 0.67808
 H604 H 0.17059 0.12719 0.70736
 H605 H 0.20644 0.12592 0.67060
 Cu606 Cu 0.15938 0.15924 0.68703
 Cu607 Cu 0.18764 0.15797 0.65852
 Cu608 Cu 0.15807 0.18753 0.65853
 N609 N 0.14258 0.17552 0.68700
 N610 N 0.14214 0.18654 0.67569
 C611 C 0.12941 0.19624 0.67819
 C612 C 0.12154 0.19097 0.69173
 C613 C 0.13010 0.17782 0.69707
 H614 H 0.12613 0.20637 0.67074
 H615 H 0.12741 0.17053 0.70746
 N616 N 0.17530 0.18643 0.64227
 N617 N 0.18655 0.17520 0.64227
 C618 C 0.19650 0.17773 0.62976
 C619 C 0.19122 0.19112 0.62162
 C620 C 0.17782 0.19639 0.62977
 H621 H 0.20683 0.17041 0.62676
 H622 H 0.17049 0.20671 0.62680
 H623 H 0.17648 0.17644 0.67071
 H624 H 0.16329 0.16324 0.65836
 N625 N 0.31288 0.64233 0.32400
 N626 N 0.32398 0.64267 0.31276
 C627 C 0.32174 0.63014 0.30276
 C628 C 0.30855 0.62165 0.30809
 C629 C 0.30319 0.62962 0.32154
 H630 H 0.32911 0.62737 0.29244
 H631 H 0.29303 0.62639 0.32897
 Cu632 Cu 0.34028 0.65943 0.31273
 Cu633 Cu 0.31188 0.65829 0.34113
 Cu634 Cu 0.34158 0.68764 0.34128
 N635 N 0.35712 0.67566 0.31280
 N636 N 0.35755 0.68664 0.32414
 C637 C 0.37027 0.69633 0.32167
 C638 C 0.37815 0.69110 0.30810
 C639 C 0.36959 0.67798 0.30273
 H640 H 0.37354 0.70643 0.32914
 H641 H 0.37227 0.67072 0.29232
 N642 N 0.32432 0.68659 0.35751
 N643 N 0.31298 0.67547 0.35741
 C644 C 0.30299 0.67803 0.36989
 C645 C 0.30835 0.69133 0.37811
 C646 C 0.32183 0.69651 0.37004
 H647 H 0.29260 0.67080 0.37281
 H648 H 0.32921 0.70674 0.37309
 H649 H 0.32315 0.67670 0.32898
 H650 H 0.33622 0.66339 0.34137
 N651 N 0.31313 0.14177 0.82474
 N652 N 0.32428 0.14209 0.81355
 C653 C 0.32190 0.12971 0.80338
 C654 C 0.30859 0.12133 0.80857
 C655 C 0.30329 0.12922 0.82210
 H656 H 0.32923 0.12700 0.79301
 H657 H 0.29303 0.12607 0.82942
 Cu658 Cu 0.34076 0.15868 0.81349
 Cu659 Cu 0.31213 0.15777 0.84179
 Cu660 Cu 0.34140 0.18752 0.84156
 N661 N 0.35724 0.17527 0.81345
 N662 N 0.35740 0.18655 0.82449
 C663 C 0.36993 0.19642 0.82183
 C664 C 0.37798 0.19100 0.80843
 C665 C 0.36972 0.17759 0.80336
 H666 H 0.37299 0.20674 0.82908
 H667 H 0.37259 0.17014 0.79312
 N668 N 0.32420 0.18640 0.85784
 N669 N 0.31312 0.17503 0.85799
 C670 C 0.30319 0.17752 0.87052
 C671 C 0.30831 0.19104 0.87853
 C672 C 0.32160 0.19641 0.87028
 H673 H 0.29297 0.17012 0.87360
 H674 H 0.32879 0.20684 0.87314
 H675 H 0.32320 0.17607 0.82922
 H676 H 0.33637 0.16328 0.84203
 N677 N 0.81346 0.64230 0.82478
 N678 N 0.82462 0.64256 0.81358
 C679 C 0.82219 0.63018 0.80347
 C680 C 0.80892 0.62176 0.80872
 C681 C 0.80361 0.62972 0.82221
 H682 H 0.82958 0.62738 0.79318
 H683 H 0.79337 0.62658 0.82957
 Cu684 Cu 0.84127 0.65901 0.81358
 Cu685 Cu 0.81253 0.65824 0.84189
 Cu686 Cu 0.84198 0.68775 0.84185
 N687 N 0.85768 0.67569 0.81355
 N688 N 0.85792 0.68685 0.82472
 C689 C 0.87047 0.69672 0.82212
 C690 C 0.87844 0.69144 0.80863
 C691 C 0.87006 0.67815 0.80341
 H692 H 0.87359 0.70698 0.82945
 H693 H 0.87288 0.67076 0.79313
 N694 N 0.82481 0.68666 0.85814
 N695 N 0.81360 0.67542 0.85816
 C696 C 0.80355 0.67803 0.87059
 C697 C 0.80875 0.69149 0.87866
 C698 C 0.82219 0.69671 0.87055
 H699 H 0.79317 0.67079 0.87351
 H700 H 0.82941 0.70711 0.87343
 H701 H 0.82374 0.67651 0.82934
 H702 H 0.83676 0.66355 0.84213
 N703 N 0.81307 0.14213 0.32445
 N704 N 0.82435 0.14230 0.31338
 C705 C 0.82197 0.12990 0.30327
 C706 C 0.80859 0.12160 0.30840
 C707 C 0.80318 0.12961 0.32181
 H708 H 0.82939 0.12708 0.29299
 H709 H 0.79285 0.12655 0.32907
 Cu710 Cu 0.84088 0.15884 0.31340
 Cu711 Cu 0.81203 0.15813 0.34150
 Cu712 Cu 0.84148 0.18767 0.34144
 N713 N 0.85740 0.17540 0.31335
 N714 N 0.85752 0.18668 0.32440
 C715 C 0.87004 0.19658 0.32175
 C716 C 0.87808 0.19120 0.30834
 C717 C 0.86981 0.17780 0.30323
 H718 H 0.87307 0.20692 0.32900
 H719 H 0.87268 0.17038 0.29299
 N720 N 0.82426 0.18661 0.35768
 N721 N 0.81305 0.17536 0.35771
 C722 C 0.80310 0.17788 0.37023
 C723 C 0.80834 0.19128 0.37835
 C724 C 0.82173 0.19656 0.37018
 H725 H 0.79281 0.17054 0.37324
 H726 H 0.82903 0.20688 0.37316
 H727 H 0.82333 0.17625 0.32897
 H728 H 0.83634 0.16337 0.34192
 N729 N 0.68677 0.35784 0.32443
 N730 N 0.67551 0.35765 0.31337
 C731 C 0.67783 0.37010 0.30327
 C732 C 0.69122 0.37840 0.30838
 C733 C 0.69663 0.37038 0.32179
 H734 H 0.67040 0.37293 0.29301
 H735 H 0.70695 0.37346 0.32905
 Cu736 Cu 0.65897 0.34111 0.31336
 Cu737 Cu 0.68781 0.34181 0.34146
 Cu738 Cu 0.65829 0.31231 0.34146
 N739 N 0.64243 0.32456 0.31335
 N740 N 0.64225 0.31331 0.32441
 C741 C 0.62972 0.30343 0.32175
 C742 C 0.62170 0.30882 0.30833
 C743 C 0.62999 0.32222 0.30323
 H744 H 0.62666 0.29311 0.32901
 H745 H 0.62718 0.32964 0.29296
 N746 N 0.67554 0.31335 0.35768
 N747 N 0.68677 0.32457 0.35768
 C748 C 0.69674 0.32202 0.37017
 C749 C 0.69149 0.30862 0.37830
 C750 C 0.67808 0.30337 0.37016
 H751 H 0.70707 0.32932 0.37315
 H752 H 0.67077 0.29306 0.37314
 H753 H 0.67653 0.32362 0.32898
 H754 H 0.66357 0.33656 0.34186
 N755 N 0.68717 0.85777 0.82433
 N756 N 0.67607 0.85743 0.81308
 C757 C 0.67831 0.86997 0.80309
 C758 C 0.69150 0.87846 0.80840
 C759 C 0.69686 0.87049 0.82186
 H760 H 0.67093 0.87276 0.79279
 H761 H 0.70699 0.87374 0.82931
 Cu762 Cu 0.65976 0.84069 0.81305
 Cu763 Cu 0.68820 0.84179 0.84142
 Cu764 Cu 0.65863 0.81228 0.84144
 N765 N 0.64298 0.82440 0.81309
 N766 N 0.64262 0.81332 0.82435
 C767 C 0.62989 0.80364 0.82188
 C768 C 0.62193 0.80899 0.80841
 C769 C 0.63045 0.82216 0.80309
 H770 H 0.62664 0.79352 0.82932
 H771 H 0.62767 0.82954 0.79278
 N772 N 0.67590 0.81332 0.85766
 N773 N 0.68715 0.82454 0.85764
 C774 C 0.69704 0.82207 0.87021
 C775 C 0.69172 0.80874 0.87841
 C776 C 0.67835 0.80345 0.87023
 H777 H 0.70728 0.82946 0.87328
 H778 H 0.67096 0.79322 0.87329
 H779 H 0.67694 0.82349 0.82927
 H780 H 0.66379 0.83666 0.84174
 N781 N 0.18673 0.35750 0.82456
 N782 N 0.17545 0.35734 0.81349
 C783 C 0.17785 0.36974 0.80336
 C784 C 0.19125 0.37803 0.80846
 C785 C 0.19663 0.37001 0.82189
 H786 H 0.17043 0.37256 0.79309
 H787 H 0.20697 0.37306 0.82915
 Cu788 Cu 0.15889 0.34082 0.81350
 Cu789 Cu 0.18771 0.34149 0.84162
 Cu790 Cu 0.15818 0.31202 0.84163
 N791 N 0.14233 0.32429 0.81351
 N792 N 0.14216 0.31302 0.82458
 C793 C 0.12963 0.30313 0.82192
 C794 C 0.12162 0.30852 0.80849
 C795 C 0.12993 0.32190 0.80338
 H796 H 0.12657 0.29281 0.82918
 H797 H 0.12711 0.32931 0.79311
 N798 N 0.17541 0.31307 0.85786
 N799 N 0.18665 0.32428 0.85786
 C800 C 0.19662 0.32173 0.87035
 C801 C 0.19135 0.30834 0.87848
 C802 C 0.17794 0.30310 0.87035
 H803 H 0.20695 0.32903 0.87332
 H804 H 0.17063 0.29279 0.87333
 H805 H 0.17638 0.32333 0.82910
 H806 H 0.16341 0.33629 0.84203
 N807 N 0.18694 0.85773 0.32427
 N808 N 0.17567 0.85755 0.31321
 C809 C 0.17795 0.87004 0.30317
 C810 C 0.19139 0.87828 0.30822
 C811 C 0.19683 0.87025 0.32160
 H812 H 0.17051 0.87288 0.29294
 H813 H 0.20716 0.87334 0.32885
 Cu814 Cu 0.15904 0.84112 0.31318
 Cu815 Cu 0.18797 0.84175 0.34133
 Cu816 Cu 0.15817 0.81251 0.34157
 N817 N 0.14248 0.82461 0.31330
 N818 N 0.14215 0.81350 0.32452
 C819 C 0.12961 0.80362 0.32187
 C820 C 0.12171 0.80890 0.30833
 C821 C 0.13007 0.82223 0.30318
 H822 H 0.12647 0.79337 0.32919
 H823 H 0.12740 0.82951 0.29278
 N824 N 0.17546 0.81351 0.35775
 N825 N 0.18685 0.82457 0.35760
 C826 C 0.19689 0.82195 0.37002
 C827 C 0.19151 0.80866 0.37827
 C828 C 0.17797 0.80356 0.37027
 H829 H 0.20735 0.82911 0.37287
 H830 H 0.17058 0.79333 0.37332
 H831 H 0.17655 0.82352 0.32896
 H832 H 0.16375 0.83673 0.34179
 C833 C 0.25598 1.01459 0.24391
 C834 C 0.24400 1.01462 0.25583
 C835 C 0.23810 1.00002 0.26170
 C836 C 0.24402 0.98542 0.25582
 C837 C 0.25599 0.98541 0.24389
 C838 C 0.26190 1.00000 0.23803
 H839 H 0.27115 1.00000 0.22885
 H840 H 0.22886 1.00003 0.27089
 C841 C 0.25601 0.51446 0.74399
 C842 C 0.24403 0.51449 0.75593
 C843 C 0.23810 0.49989 0.76181
 C844 C 0.24397 0.48526 0.75595
 C845 C 0.25595 0.48524 0.74401
 C846 C 0.26189 0.49984 0.73813
 H847 H 0.27114 0.49981 0.72895
 H848 H 0.22887 0.49993 0.77101
 C849 C 0.75610 -0.01484 0.25614
 C850 C 0.74413 -0.01483 0.24421
 C851 C 0.73822 -0.00024 0.23831
 C852 C 0.74410 0.01437 0.24416
 C853 C 0.75608 0.01437 0.25609
 C854 C 0.76200 -0.00023 0.26198
 H855 H 0.77125 -0.00023 0.27116
 H856 H 0.72898 -0.00025 0.22912
 C857 C 0.75622 0.48528 0.75620
 C858 C 0.74424 0.48529 0.74428
 C859 C 0.73834 0.49992 0.73842
 C860 C 0.74424 0.51453 0.74429
 C861 C 0.75622 0.51452 0.75622
 C862 C 0.76213 0.49989 0.76208
 H863 H 0.77137 0.49988 0.77126
 H864 H 0.72910 0.49993 0.72923
 C865 C 0.25578 0.48529 0.25586
 C866 C 0.24382 0.48532 0.24393
 C867 C 0.23792 0.49992 0.23803
 C868 C 0.24382 0.51451 0.24390
 C869 C 0.25578 0.51450 0.25584
 C870 C 0.26169 0.49989 0.26172
 H871 H 0.27094 0.49987 0.27090
 H872 H 0.22870 0.49992 0.22883
 C873 C 0.75597 1.01491 0.74422
 C874 C 0.74400 1.01494 0.75616
 C875 C 0.73814 1.00030 0.76202
 C876 C 0.74410 0.98569 0.75614
 C877 C 0.75607 0.98570 0.74419
 C878 C 0.76192 1.00031 0.73833
 H879 H 0.77115 1.00033 0.72913
 H880 H 0.72891 1.00028 0.77122
 C881 C 0.75589 0.51474 0.24406
 C882 C 0.74391 0.51476 0.25599
 C883 C 0.73801 0.50016 0.26186
 C884 C 0.74393 0.48555 0.25599
 C885 C 0.75591 0.48555 0.24405
 C886 C 0.76181 0.50014 0.23818
 H887 H 0.77105 0.50014 0.22900
 H888 H 0.72877 0.50017 0.27105
 C889 C 0.25632 -0.01513 0.75606
 C890 C 0.24432 -0.01509 0.74414
 C891 C 0.23837 -0.00049 0.73826
 C892 C 0.24421 0.01413 0.74412
 C893 C 0.25620 0.01412 0.75604
 C894 C 0.26217 -0.00049 0.76191
 H895 H 0.27144 -0.00047 0.77107
 H896 H 0.22912 -0.00051 0.72908
 C897 C 0.24391 0.25583 1.01472
 C898 C 0.25584 0.24382 1.01472
 C899 C 0.26171 0.23789 1.00015
 C900 C 0.25584 0.24379 0.98556
 C901 C 0.24390 0.25580 0.98556
 C902 C 0.23803 0.26173 1.00014
 H903 H 0.22883 0.27099 1.00013
 H904 H 0.27091 0.22863 1.00016
 C905 C 0.24414 0.75603 0.51446
 C906 C 0.25609 0.74403 0.51446
 C907 C 0.26195 0.73811 0.49986
 C908 C 0.25605 0.74402 0.48528
 C909 C 0.24411 0.75602 0.48529
 C910 C 0.23824 0.76194 0.49988
 H911 H 0.22903 0.77119 0.49989
 H912 H 0.27116 0.72886 0.49986
 C913 C 0.25624 0.75589 -0.01472
 C914 C 0.24425 0.74396 -0.01471
 C915 C 0.23833 0.73808 -0.00013
 C916 C 0.24421 0.74397 0.01446
 C917 C 0.25619 0.75591 0.01446
 C918 C 0.26212 0.76178 -0.00013
 H919 H 0.27136 0.77098 -0.00012
 H920 H 0.22910 0.72887 -0.00013
 C921 C 0.25576 0.25576 0.48544
 C922 C 0.24380 0.24381 0.48544
 C923 C 0.23790 0.23791 0.50002
 C924 C 0.24378 0.24379 0.51461
 C925 C 0.25576 0.25574 0.51461
 C926 C 0.26165 0.26163 0.50003
 H927 H 0.27088 0.27085 0.50003
 H928 H 0.22868 0.22868 0.50002
 C929 C 0.74408 0.75615 1.01476
 C930 C 0.75601 0.74414 1.01476
 C931 C 0.76190 0.73823 1.00018
 C932 C 0.75604 0.74415 0.98560
 C933 C 0.74409 0.75615 0.98559
 C934 C 0.73820 0.76207 1.00017
 H935 H 0.72901 0.77133 1.00017
 H936 H 0.77110 0.72897 1.00019
 C937 C 0.74383 0.25587 0.51460
 C938 C 0.75578 0.24388 0.51459
 C939 C 0.76167 0.23799 0.50000
 C940 C 0.75580 0.24392 0.48542
 C941 C 0.74385 0.25592 0.48543
 C942 C 0.73796 0.26181 0.50002
 H943 H 0.72876 0.27106 0.50004
 H944 H 0.77088 0.22874 0.49999
 C945 C 0.75588 0.25619 -0.01462
 C946 C 0.74394 0.24421 -0.01463
 C947 C 0.73808 0.23828 -0.00003
 C948 C 0.74396 0.24418 0.01456
 C949 C 0.75590 0.25617 0.01455
 C950 C 0.76177 0.26208 -0.00004
 H951 H 0.77097 0.27131 -0.00004
 H952 H 0.72889 0.22903 -0.00003
 C953 C 0.75598 0.75625 0.48548
 C954 C 0.74404 0.74428 0.48549
 C955 C 0.73817 0.73836 0.50009
 C956 C 0.74406 0.74425 0.51467
 C957 C 0.75601 0.75622 0.51465
 C958 C 0.76188 0.76213 0.50006
 H959 H 0.77110 0.77136 0.50005
 H960 H 0.72897 0.72912 0.50009
 C961 C 1.01452 0.24418 0.25594
 C962 C 1.01452 0.25618 0.24404
 C963 C 0.99990 0.26208 0.23818
 C964 C 0.98528 0.25615 0.24403
 C965 C 0.98527 0.24415 0.25593
 C966 C 0.99990 0.23825 0.26179
 H967 H 0.99991 0.22900 0.27096
 H968 H 0.99989 0.27134 0.22901
 C969 C 0.51447 0.24387 0.75604
 C970 C 0.51446 0.25584 0.74412
 C971 C 0.49982 0.26172 0.73825
 C972 C 0.48521 0.25579 0.74412
 C973 C 0.48523 0.24382 0.75604
 C974 C 0.49986 0.23794 0.76191
 H975 H 0.49988 0.22871 0.77110
 H976 H 0.49980 0.27096 0.72906
 C977 C -0.01492 0.25595 0.75598
 C978 C -0.01491 0.24394 0.74410
 C979 C -0.00028 0.23802 0.73825
 C980 C 0.01434 0.24393 0.74411
 C981 C 0.01434 0.25593 0.75600
 C982 C -0.00030 0.26186 0.76184
 H983 H -0.00031 0.27113 0.77099
 H984 H -0.00026 0.22875 0.72910
 C985 C 0.48528 0.25574 0.25596
 C986 C 0.48531 0.24374 0.24407
 C987 C 0.49995 0.23785 0.23821
 C988 C 0.51456 0.24379 0.24407
 C989 C 0.51453 0.25580 0.25595
 C990 C 0.49989 0.26168 0.26181
 H991 H 0.49986 0.27094 0.27097
 H992 H 0.49997 0.22859 0.22905
 C993 C 1.01483 0.74424 0.75599
 C994 C 1.01483 0.75623 0.74408
 C995 C 1.00020 0.76213 0.73823
 C996 C 0.98559 0.75622 0.74410
 C997 C 0.98559 0.74423 0.75601
 C998 C 1.00022 0.73832 0.76186
 H999 H 1.00024 0.72908 0.77104
 H1000 H 1.00019 0.77138 0.72905
 C1001 C 0.51462 0.74419 0.25599
 C1002 C 0.51462 0.75619 0.24410
 C1003 C 0.49999 0.76207 0.23822
 C1004 C 0.48538 0.75613 0.24406
 C1005 C 0.48538 0.74414 0.25596
 C1006 C 0.50001 0.73825 0.26183
 H1007 H 0.50002 0.72899 0.27100
 H1008 H 0.49998 0.77133 0.22905
 C1009 C -0.01482 0.75612 0.25593
 C1010 C -0.01481 0.74411 0.24405
 C1011 C -0.00018 0.73820 0.23819
 C1012 C 0.01444 0.74413 0.24403
 C1013 C 0.01444 0.75614 0.25592
 C1014 C -0.00020 0.76205 0.26177
 H1015 H -0.00021 0.77131 0.27092
 H1016 H -0.00016 0.72894 0.22903
 C1017 C 0.48537 0.75611 0.75617
 C1018 C 0.48539 0.74413 0.74426
 C1019 C 0.50002 0.73822 0.73840
 C1020 C 0.51464 0.74413 0.74427
 C1021 C 0.51463 0.75612 0.75618
 C1022 C 0.49999 0.76202 0.76204
 H1023 H 0.49997 0.77126 0.77121
 H1024 H 0.50004 0.72898 0.72923
 C1025 C 0.41796 0.28843 0.28824
 N1026 N 0.43282 0.29393 0.29204
 N1027 N 0.44585 0.28727 0.28553
 C1028 C 0.44442 0.27492 0.27503
 N1029 N 0.42957 0.26940 0.27125
 N1030 N 0.41653 0.27606 0.27776
 C1031 C 0.40393 0.29559 0.29525
 C1032 C 0.39211 0.30153 0.30117
 C1033 C 0.45849 0.26786 0.26804
 C1034 C 0.47054 0.26218 0.26239
 C1035 C 0.41796 0.78878 0.78843
 N1036 N 0.43281 0.79432 0.79221
 N1037 N 0.44586 0.78768 0.78571
 C1038 C 0.44446 0.77530 0.77524
 N1039 N 0.42962 0.76974 0.77147
 N1040 N 0.41656 0.77638 0.77797
 C1041 C 0.40392 0.79592 0.79547
 C1042 C 0.39212 0.80186 0.80143
 C1043 C 0.45856 0.76825 0.76827
 C1044 C 0.47062 0.76256 0.76261
 C1045 C -0.08221 0.28893 0.78812
 N1046 N -0.06736 0.29462 0.79166
 N1047 N -0.05433 0.28792 0.78517
 C1048 C -0.05577 0.27533 0.77495
 N1049 N -0.07061 0.26962 0.77143
 N1050 N -0.08364 0.27632 0.77792
 C1051 C -0.09623 0.29610 0.79516
 C1052 C -0.10801 0.30208 0.80112
 C1053 C -0.04170 0.26819 0.76801
 C1054 C -0.02965 0.26245 0.76238
 C1055 C -0.08215 0.78900 0.28806
 N1056 N -0.06730 0.79454 0.29184
 N1057 N -0.05425 0.78787 0.28536
 C1058 C -0.05567 0.77546 0.27492
 N1059 N -0.07052 0.76991 0.27116
 N1060 N -0.08357 0.77658 0.27764
 C1061 C -0.09620 0.79613 0.29510
 C1062 C -0.10800 0.80206 0.30107
 C1063 C -0.04160 0.76835 0.26798
 C1064 C -0.02955 0.76262 0.26234
 C1065 C 0.58196 0.71156 0.28827
 N1066 N 0.56711 0.70767 0.29372
 N1067 N 0.55407 0.71430 0.28721
 C1068 C 0.55549 0.72504 0.27507
 N1069 N 0.57034 0.72895 0.26962
 N1070 N 0.58339 0.72231 0.27613
 C1071 C 0.59599 0.70446 0.29534
 C1072 C 0.60776 0.69855 0.30135
 C1073 C 0.54141 0.73207 0.26809
 C1074 C 0.52935 0.73774 0.26243
 C1075 C 0.58182 0.21127 0.78836
 N1076 N 0.58325 0.22202 0.77621
 N1077 N 0.57021 0.22867 0.76971
 C1078 C 0.55535 0.22478 0.77517
 N1079 N 0.55393 0.21406 0.78733
 N1080 N 0.56696 0.20741 0.79383
 C1081 C 0.59586 0.20409 0.79534
 C1082 C 0.60769 0.19814 0.80123
 C1083 C 0.54128 0.23180 0.76815
 C1084 C 0.52921 0.23744 0.76248
 C1085 C 1.08208 0.71142 0.78821
 N1086 N 1.08354 0.72212 0.77604
 N1087 N 1.07052 0.72883 0.76954
 C1088 C 1.05566 0.72502 0.77505
 N1089 N 1.05420 0.71434 0.78723
 N1090 N 1.06722 0.70764 0.79372
 C1091 C 1.09609 0.70423 0.79523
 C1092 C 1.10787 0.69826 0.80117
 C1093 C 1.04161 0.73209 0.76805
 C1094 C 1.02956 0.73778 0.76241
 C1095 C 1.08179 0.21142 0.28820
 N1096 N 1.08324 0.22225 0.27613
 N1097 N 1.07021 0.22894 0.26963
 C1098 C 1.05535 0.22500 0.27503
 N1099 N 1.05390 0.21419 0.28711
 N1100 N 1.06692 0.20750 0.29360
 C1101 C 1.09580 0.20424 0.29520
 C1102 C 1.10762 0.19831 0.30111
 C1103 C 1.04129 0.23205 0.26804
 C1104 C 1.02924 0.23773 0.26238
 C1105 C 0.58174 0.28861 0.71184
 N1106 N 0.58318 0.27795 0.72407
 N1107 N 0.57016 0.27127 0.73056
 C1108 C 0.55530 0.27504 0.72501
 N1109 N 0.55386 0.28567 0.71277
 N1110 N 0.56688 0.29235 0.70628
 C1111 C 0.59577 0.29580 0.70485
 C1112 C 0.60759 0.30174 0.69895
 C1113 C 0.54123 0.26799 0.73202
 C1114 C 0.52918 0.26231 0.73768
 C1115 C 0.58194 0.78902 0.21199
 N1116 N 0.58337 0.77837 0.22422
 N1117 N 0.57034 0.77170 0.23071
 C1118 C 0.55549 0.77548 0.22514
 N1119 N 0.55407 0.78613 0.21291
 N1120 N 0.56710 0.79279 0.20643
 C1121 C 0.59596 0.79614 0.20493
 C1122 C 0.60774 0.80207 0.19894
 C1123 C 0.54141 0.76841 0.23209
 C1124 C 0.52935 0.76269 0.23770
 C1125 C 1.08183 0.28899 0.21191
 N1126 N 1.08328 0.27733 0.22318
 N1127 N 1.07024 0.27068 0.22966
 C1128 C 1.05536 0.27550 0.22506
 N1129 N 1.05391 0.28715 0.21378
 N1130 N 1.06695 0.29379 0.20729
 C1131 C 1.09587 0.29607 0.20485
 C1132 C 1.10767 0.30198 0.19887
 C1133 C 1.04129 0.26840 0.23200
 C1134 C 1.02924 0.26268 0.23763
 C1135 C 1.08213 0.78897 0.71182
 N1136 N 1.08357 0.77836 0.72409
 N1137 N 1.07054 0.77171 0.73060
 C1138 C 1.05569 0.77545 0.72502
 N1139 N 1.05425 0.78605 0.71275
 N1140 N 1.06728 0.79271 0.70624
 C1141 C 1.09617 0.79603 0.70475
 C1142 C 1.10798 0.80191 0.69878
 C1143 C 1.04162 0.76839 0.73201
 C1144 C 1.02957 0.76270 0.73766
 C1145 C 0.41809 0.71143 0.71189
 N1146 N 0.41663 0.72353 0.72270
 N1147 N 0.42967 0.73014 0.72924
 C1148 C 0.44455 0.72486 0.72517
 N1149 N 0.44600 0.71278 0.71435
 N1150 N 0.43298 0.70617 0.70782
 C1151 C 0.40409 0.70427 0.70480
 C1152 C 0.39236 0.69828 0.69876
 C1153 C 0.45863 0.73193 0.73215
 C1154 C 0.47066 0.73765 0.73781
 C1155 C 0.41800 0.21091 0.21192
 N1156 N 0.41656 0.22328 0.22241
 N1157 N 0.42959 0.22994 0.22890
 C1158 C 0.44446 0.22442 0.22509
 N1159 N 0.44590 0.21206 0.21459
 N1160 N 0.43287 0.20541 0.20810
 C1161 C 0.40397 0.20380 0.20486
 C1162 C 0.39219 0.19788 0.19887
 C1163 C 0.45853 0.23152 0.23203
 C1164 C 0.47058 0.23723 0.23765
 C1165 C -0.08211 0.71117 0.21201
 N1166 N -0.06724 0.70566 0.20822
 N1167 N -0.05421 0.71234 0.21469
 C1168 C -0.05566 0.72474 0.22513
 N1169 N -0.07053 0.73028 0.22892
 N1170 N -0.08356 0.72359 0.22245
 C1171 C -0.09612 0.70403 0.20495
 C1172 C -0.10789 0.69809 0.19895
 C1173 C -0.04159 0.73187 0.23205
 C1174 C -0.02954 0.73761 0.23765
 C1175 C -0.08219 0.21111 0.71192
 N1176 N -0.08364 0.22356 0.72232
 N1177 N -0.07061 0.23021 0.72882
 C1178 C -0.05575 0.22462 0.72510
 N1179 N -0.05430 0.21219 0.71469
 N1180 N -0.06733 0.20553 0.70820
 C1181 C -0.09621 0.20404 0.70482
 C1182 C -0.10796 0.19812 0.69878
 C1183 C -0.04168 0.23173 0.73205
 C1184 C -0.02964 0.23745 0.73768
 C1185 C 0.28834 0.41785 0.28804
 N1186 N 0.29773 0.43006 0.28274
 N1187 N 0.29111 0.44308 0.27618
 C1188 C 0.27492 0.44428 0.27470
 N1189 N 0.26552 0.43208 0.28001
 N1190 N 0.27213 0.41906 0.28657
 C1191 C 0.29547 0.40383 0.29511
 C1192 C 0.30141 0.39204 0.30108
 C1193 C 0.26787 0.45844 0.26787
 C1194 C 0.26221 0.47054 0.26229
 C1195 C 0.28919 -0.08276 0.78806
 N1196 N 0.29851 -0.07033 0.78315
 N1197 N 0.29186 -0.05729 0.77666
 C1198 C 0.27568 -0.05625 0.77484
 N1199 N 0.26635 -0.06867 0.77975
 N1200 N 0.27300 -0.08172 0.78626
 C1201 C 0.29638 -0.09679 0.79520
 C1202 C 0.30237 -0.10857 0.80124
 C1203 C 0.26857 -0.04204 0.76803
 C1204 C 0.26285 -0.02992 0.76247
 C1205 C 0.78887 0.41795 0.78851
 N1206 N 0.79239 0.43275 0.79428
 N1207 N 0.78576 0.44579 0.78776
 C1208 C 0.77540 0.44441 0.77528
 N1209 N 0.77186 0.42960 0.76951
 N1210 N 0.77849 0.41656 0.77603
 C1211 C 0.79597 0.40392 0.79559
 C1212 C 0.80190 0.39215 0.80160
 C1213 C 0.76836 0.45849 0.76829
 C1214 C 0.76269 0.47055 0.76264
 C1215 C 0.78868 -0.08229 0.28833
 N1216 N 0.79810 -0.07022 0.28276
 N1217 N 0.79151 -0.05719 0.27620
 C1218 C 0.77530 -0.05584 0.27499
 N1219 N 0.76587 -0.06789 0.28058
 N1220 N 0.77247 -0.08092 0.28714
 C1221 C 0.79578 -0.09632 0.29542
 C1222 C 0.80168 -0.10812 0.30142
 C1223 C 0.76825 -0.04168 0.26815
 C1224 C 0.76257 -0.02958 0.26256
 C1225 C 0.28867 0.58183 0.71175
 N1226 N 0.27248 0.58074 0.71347
 N1227 N 0.26589 0.56770 0.72003
 C1228 C 0.27529 0.55538 0.72508
 N1229 N 0.29147 0.55645 0.72329
 N1230 N 0.29805 0.56947 0.71674
 C1231 C 0.29580 0.59584 0.70465
 C1232 C 0.30178 0.60760 0.69866
 C1233 C 0.26824 0.54124 0.73195
 C1234 C 0.26253 0.52918 0.73756
 C1235 C 0.28866 1.08173 0.21171
 N1236 N 0.27244 1.08034 0.21265
 N1237 N 0.26580 1.06734 0.21921
 C1238 C 0.27521 1.05538 0.22504
 N1239 N 0.29142 1.05675 0.22407
 N1240 N 0.29806 1.06974 0.21751
 C1241 C 0.29578 1.09571 0.20468
 C1242 C 0.30169 1.10748 0.19873
 C1243 C 0.26813 1.04131 0.23189
 C1244 C 0.26244 1.02927 0.23749
 C1245 C 0.78858 0.58189 0.21184
 N1246 N 0.79796 0.56969 0.21720
 N1247 N 0.79133 0.55670 0.22376
 C1248 C 0.77513 0.55553 0.22518
 N1249 N 0.76574 0.56772 0.21980
 N1250 N 0.77237 0.58071 0.21323
 C1251 C 0.79570 0.59585 0.20476
 C1252 C 0.80164 0.60761 0.19879
 C1253 C 0.76806 0.54146 0.23203
 C1254 C 0.76236 0.52942 0.23764
 C1255 C 0.78865 1.08192 0.71175
 N1256 N 0.77544 1.08330 0.72120
 N1257 N 0.76880 1.07031 0.72776
 C1258 C 0.77519 1.05556 0.72506
 N1259 N 0.78838 1.05418 0.71560
 N1260 N 0.79502 1.06717 0.70904
 C1261 C 0.79573 1.09588 0.70464
 C1262 C 0.80162 1.10763 0.69866
 C1263 C 0.76812 1.04157 0.73207
 C1264 C 0.76242 1.02958 0.73776
 C1265 C 0.71141 0.58222 0.28817
 N1266 N 0.70677 0.56737 0.29298
 N1267 N 0.71337 0.55432 0.28649
 C1268 C 0.72483 0.55570 0.27500
 N1269 N 0.72949 0.57055 0.27018
 N1270 N 0.72288 0.58361 0.27668
 C1271 C 0.70434 0.59626 0.29524
 C1272 C 0.69841 0.60803 0.30126
 C1273 C 0.73184 0.54159 0.26804
 C1274 C 0.73748 0.52950 0.26242
 C1275 C 0.71132 1.08249 0.78838
 N1276 N 0.72285 1.08388 0.77694
 N1277 N 0.72949 1.07082 0.77045
 C1278 C 0.72482 1.05595 0.77522
 N1279 N 0.71332 1.05457 0.78667
 N1280 N 0.70668 1.06762 0.79316
 C1281 C 0.70417 1.09657 0.79541
 C1282 C 0.69822 1.10840 0.80136
 C1283 C 0.73186 1.04181 0.76824
 C1284 C 0.73753 1.02971 0.76261
 C1285 C 0.21139 0.58178 0.78821
 N1286 N 0.20691 0.56693 0.79314
 N1287 N 0.21356 0.55389 0.78664
 C1288 C 0.22489 0.55533 0.77503
 N1289 N 0.22938 0.57018 0.77011
 N1290 N 0.22273 0.58322 0.77661
 C1291 C 0.20425 0.59581 0.79523
 C1292 C 0.19832 0.60762 0.80117
 C1293 C 0.23193 0.54126 0.76804
 C1294 C 0.23760 0.52921 0.76237
 C1295 C 0.21137 1.08197 0.28806
 N1296 N 0.20640 1.06711 0.29249
 N1297 N 0.21305 1.05408 0.28598
 C1298 C 0.22487 1.05552 0.27487
 N1299 N 0.22986 1.07038 0.27045
 N1300 N 0.22320 1.08341 0.27695
 C1301 C 0.20420 1.09600 0.29507
 C1302 C 0.19825 1.10779 0.30101
 C1303 C 0.23191 1.04143 0.26789
 C1304 C 0.23756 1.02936 0.26225
 C1305 C 0.71145 0.41802 0.71196
 N1306 N 0.70607 0.43290 0.70803
 N1307 N 0.71274 0.44590 0.71453
 C1308 C 0.72500 0.44445 0.72516
 N1309 N 0.73041 0.42958 0.72907
 N1310 N 0.72373 0.41656 0.72256
 C1311 C 0.70426 0.40400 0.70494
 C1312 C 0.69831 0.39219 0.69902
 C1313 C 0.73208 0.45851 0.73216
 C1314 C 0.73777 0.47056 0.73782
 C1315 C 0.71143 -0.08194 0.21198
 N1316 N 0.70643 -0.06707 0.20760
 N1317 N 0.71309 -0.05407 0.21410
 C1318 C 0.72494 -0.05556 0.22517
 N1319 N 0.72995 -0.07043 0.22954
 N1320 N 0.72330 -0.08344 0.22303
 C1321 C 0.70431 -0.09591 0.20492
 C1322 C 0.69837 -0.10765 0.19894
 C1323 C 0.73200 -0.04154 0.23214
 C1324 C 0.73769 -0.02952 0.23779
 C1325 C 0.21120 0.41815 0.21169
 N1326 N 0.22285 0.41670 0.22297
 N1327 N 0.22947 0.42973 0.22947
 C1328 C 0.22463 0.44459 0.22486
 N1329 N 0.21299 0.44604 0.21356
 N1330 N 0.20638 0.43301 0.20706
 C1331 C 0.20413 0.40414 0.20466
 C1332 C 0.19823 0.39235 0.19872
 C1333 C 0.23167 0.45862 0.23183
 C1334 C 0.23736 0.47064 0.23749
 C1335 C 0.21150 -0.08201 0.71167
 N1336 N 0.20699 -0.06711 0.70686
 N1337 N 0.21367 -0.05414 0.71341
 C1338 C 0.22506 -0.05570 0.72494
 N1339 N 0.22957 -0.07059 0.72975
 N1340 N 0.22289 -0.08356 0.72320
 C1341 C 0.20440 -0.09597 0.70459
 C1342 C 0.19850 -0.10773 0.69862
 C1343 C 0.23215 -0.04173 0.73198
 C1344 C 0.23787 -0.02976 0.73768
 C1345 C 0.28822 0.28819 0.41818
 N1346 N 0.27691 0.27654 0.41679
 N1347 N 0.27036 0.26999 0.42983
 C1348 C 0.27492 0.27489 0.44465
 N1349 N 0.28623 0.28654 0.44603
 N1350 N 0.29278 0.29309 0.43300
 C1351 C 0.29526 0.29525 0.40415
 C1352 C 0.30118 0.30119 0.39235
 C1353 C 0.26791 0.26789 0.45872
 C1354 C 0.26224 0.26222 0.47075
 C1355 C 0.28890 0.78817 -0.08201
 N1356 N 0.29178 0.79448 -0.06730
 N1357 N 0.28518 0.78796 -0.05428
 C1358 C 0.27547 0.77494 -0.05556
 N1359 N 0.27258 0.76861 -0.07027
 N1360 N 0.27920 0.77514 -0.08329
 C1361 C 0.29599 0.79524 -0.09604
 C1362 C 0.30194 0.80121 -0.10781
 C1363 C 0.26844 0.76795 -0.04148
 C1364 C 0.26274 0.76232 -0.02943
 C1365 C 0.78819 0.28884 -0.08185
 N1366 N 0.77667 0.27740 -0.08326
 N1367 N 0.77015 0.27079 -0.07023
 C1368 C 0.77496 0.27543 -0.05541
 N1369 N 0.78649 0.28686 -0.05400
 N1370 N 0.79300 0.29347 -0.06702
 C1371 C 0.79521 0.29595 -0.09588
 C1372 C 0.80110 0.30189 -0.10769
 C1373 C 0.76798 0.26838 -0.04134
 C1374 C 0.76233 0.26268 -0.02932
 C1375 C 0.78824 0.78882 0.41818
 N1376 N 0.79299 0.79354 0.43300
 N1377 N 0.78648 0.78696 0.44603
 C1378 C 0.77503 0.77546 0.44465
 N1379 N 0.77027 0.77073 0.42984
 N1380 N 0.77678 0.77731 0.41680
 C1381 C 0.79527 0.79591 0.40414
 C1382 C 0.80119 0.80187 0.39236
 C1383 C 0.76806 0.76842 0.45874
 C1384 C 0.76242 0.76273 0.47077
 C1385 C 0.71143 0.28834 0.58188
 N1386 N 0.71099 0.29619 0.56764
 N1387 N 0.71758 0.28964 0.55462
 C1388 C 0.72482 0.27506 0.55545
 N1389 N 0.72525 0.26720 0.56968
 N1390 N 0.71866 0.27375 0.58270
 C1391 C 0.70438 0.29542 0.59591
 C1392 C 0.69850 0.30134 0.60773
 C1393 C 0.73176 0.26802 0.54136
 C1394 C 0.73739 0.26234 0.52931
 C1395 C 0.71176 0.78871 1.08201
 N1396 N 0.72276 0.77675 1.08340
 N1397 N 0.72931 0.77017 1.07037
 C1398 C 0.72504 0.77537 1.05556
 N1399 N 0.71405 0.78733 1.05417
 N1400 N 0.70750 0.79390 1.06719
 C1401 C 0.70468 0.79577 1.09602
 C1402 C 0.69874 0.80169 1.10780
 C1403 C 0.73201 0.76833 1.04149
 C1404 C 0.73764 0.76264 1.02945
 C1405 C 0.21165 0.28851 1.08193
 N1406 N 0.22305 0.27692 1.08334
 N1407 N 0.22957 0.27032 1.07032
 C1408 C 0.22489 0.27511 1.05550
 N1409 N 0.21350 0.28669 1.05408
 N1410 N 0.20698 0.29330 1.06710
 C1411 C 0.20459 0.29560 1.09594
 C1412 C 0.19863 0.30156 1.10769
 C1413 C 0.23185 0.26804 1.04144
 C1414 C 0.23748 0.26233 1.02941
 C1415 C 0.21184 0.78860 0.58171
 N1416 N 0.22264 0.77645 0.58309
 N1417 N 0.22918 0.76988 0.57006
 C1418 C 0.22512 0.77526 0.55526
 N1419 N 0.21432 0.78740 0.55388
 N1420 N 0.20778 0.79397 0.56690
 C1421 C 0.20478 0.79566 0.59573
 C1422 C 0.19886 0.80158 0.60753
 C1423 C 0.23208 0.76822 0.54119
 C1424 C 0.23772 0.76252 0.52916
 C1425 C 0.28848 0.71158 0.58174
 N1426 N 0.29073 0.70478 0.56714
 N1427 N 0.28417 0.71133 0.55411
 C1428 C 0.27516 0.72486 0.55528
 N1429 N 0.27291 0.73167 0.56988
 N1430 N 0.27947 0.72512 0.58292
 C1431 C 0.29554 0.70452 0.59578
 C1432 C 0.30147 0.69858 0.60756
 C1433 C 0.26820 0.73189 0.54120
 C1434 C 0.26255 0.73756 0.52915
 C1435 C 0.28817 0.21124 1.08193
 N1436 N 0.29287 0.20649 1.06711
 N1437 N 0.28632 0.21307 1.05409
 C1438 C 0.27488 0.22460 1.05550
 N1439 N 0.27017 0.22936 1.07033
 N1440 N 0.27672 0.22277 1.08335
 C1441 C 0.29526 0.20418 1.09594
 C1442 C 0.30122 0.19825 1.10770
 C1443 C 0.26790 0.23164 1.04145
 C1444 C 0.26226 0.23734 1.02942
 C1445 C 0.78822 0.71147 1.08200
 N1446 N 0.77620 0.70388 1.07406
 N1447 N 0.76962 0.71052 1.06109
 C1448 C 0.77484 0.72497 1.05568
 N1449 N 0.78688 0.73255 1.06360
 N1450 N 0.79346 0.72591 1.07657
 C1451 C 0.79528 0.70435 1.09599
 C1452 C 0.80120 0.69842 1.10778
 C1453 C 0.76799 0.73195 1.04153
 C1454 C 0.76241 0.73763 1.02946
 C1455 C 0.78806 0.21130 0.58184
 N1456 N 0.77667 0.22289 0.58323
 N1457 N 0.77014 0.22947 0.57019
 C1458 C 0.77482 0.22465 0.55538
 N1459 N 0.78621 0.21306 0.55399
 N1460 N 0.79273 0.20648 0.56703
 C1461 C 0.79513 0.20426 0.59587
 C1462 C 0.80107 0.19837 0.60767
 C1463 C 0.76786 0.23168 0.54131
 C1464 C 0.76222 0.23738 0.52928
 C1465 C 0.71162 0.71184 0.41828
 N1466 N 0.71815 0.70241 0.42983
 N1467 N 0.72477 0.70897 0.44282
 C1468 C 0.72508 0.72515 0.44463
 N1469 N 0.71854 0.73459 0.43309
 N1470 N 0.71192 0.72803 0.42010
 C1471 C 0.70454 0.70477 0.40427
 C1472 C 0.69862 0.69884 0.39249
 C1473 C 0.73197 0.73215 0.45875
 C1474 C 0.73759 0.73782 0.47080
 C1475 C 0.71151 0.21170 -0.08186
 N1476 N 0.71432 0.20267 -0.06861
 N1477 N 0.72093 0.20924 -0.05562
 C1478 C 0.72496 0.22502 -0.05548
 N1479 N 0.72213 0.23406 -0.06872
 N1480 N 0.71552 0.22750 -0.08171
 C1481 C 0.70448 0.20461 -0.09589
 C1482 C 0.69862 0.19865 -0.10770
 C1483 C 0.73187 0.23206 -0.04139
 C1484 C 0.73750 0.23774 -0.02934
 C1485 C 0.21181 0.71154 -0.08193
 N1486 N 0.21227 0.70327 -0.06792
 N1487 N 0.21887 0.70981 -0.05491
 C1488 C 0.22521 0.72480 -0.05551
 N1489 N 0.22474 0.73308 -0.06951
 N1490 N 0.21814 0.72654 -0.08253
 C1491 C 0.20472 0.70448 -0.09593
 C1492 C 0.19877 0.69853 -0.10769
 C1493 C 0.23216 0.73182 -0.04144
 C1494 C 0.23780 0.73750 -0.02941
 C1495 C 0.21138 0.21141 0.41819
 N1496 N 0.22393 0.20415 0.42564
 N1497 N 0.23055 0.21075 0.43861
 C1498 C 0.22484 0.22483 0.44449
 N1499 N 0.21228 0.23208 0.43706
 N1500 N 0.20566 0.22548 0.42409
 C1501 C 0.20432 0.20436 0.40417
 C1502 C 0.19843 0.19848 0.39235
 C1503 C 0.23173 0.23175 0.45866
 C1504 C 0.23735 0.23737 0.47073
 C1505 C 0.28857 0.41796 0.71169
 N1506 N 0.29797 0.42998 0.71737
 N1507 N 0.29134 0.44299 0.72395
 C1508 C 0.27513 0.44435 0.72508
 N1509 N 0.26573 0.43234 0.71937
 N1510 N 0.27235 0.41934 0.71279
 C1511 C 0.29570 0.40395 0.70464
 C1512 C 0.30162 0.39214 0.69870
 C1513 C 0.26807 0.45845 0.73196
 C1514 C 0.26239 0.47052 0.73757
 C1515 C 0.28881 0.91831 0.21143
 N1516 N 0.29818 0.93008 0.21765
 N1517 N 0.29152 0.94306 0.22425
 C1518 C 0.27530 0.94463 0.22485
 N1519 N 0.26592 0.93289 0.21860
 N1520 N 0.27258 0.91991 0.21199
 C1521 C 0.29596 0.90431 0.20439
 C1522 C 0.30188 0.89250 0.19847
 C1523 C 0.26819 0.95869 0.23178
 C1524 C 0.26247 0.97071 0.23744
 C1525 C 0.78863 0.41837 0.21163
 N1526 N 0.79802 0.42995 0.21817
 N1527 N 0.79139 0.44296 0.22473
 C1528 C 0.77518 0.44477 0.22495
 N1529 N 0.76580 0.43323 0.21835
 N1530 N 0.77242 0.42021 0.21179
 C1531 C 0.79576 0.40434 0.20461
 C1532 C 0.80173 0.39256 0.19866
 C1533 C 0.76811 0.45884 0.23190
 C1534 C 0.76239 0.47086 0.23758
 C1535 C 0.78889 0.91849 0.71168
 N1536 N 0.79828 0.93007 0.71822
 N1537 N 0.79166 0.94307 0.72482
 C1538 C 0.77545 0.94488 0.72509
 N1539 N 0.76606 0.93332 0.71850
 N1540 N 0.77269 0.92032 0.71191
 C1541 C 0.79600 0.90444 0.70464
 C1542 C 0.80192 0.89261 0.69870
 C1543 C 0.76835 0.95897 0.73204
 C1544 C 0.76260 0.97099 0.73772
 C1545 C 0.71151 0.58186 0.71198
 N1546 N 0.70655 0.56700 0.70756
 N1547 N 0.71319 0.55396 0.71407
 C1548 C 0.72499 0.55538 0.72520
 N1549 N 0.72997 0.57024 0.72962
 N1550 N 0.72333 0.58329 0.72311
 C1551 C 0.70438 0.59590 0.70492
 C1552 C 0.69846 0.60770 0.69894
 C1553 C 0.73205 0.54130 0.73218
 C1554 C 0.73775 0.52925 0.73784
 C1555 C 0.71128 0.08155 0.21172
 N1556 N 0.72286 0.08301 0.22308
 N1557 N 0.72952 0.06999 0.22961
 C1558 C 0.72480 0.05512 0.22496
 N1559 N 0.71324 0.05366 0.21359
 N1560 N 0.70658 0.06667 0.20706
 C1561 C 0.70417 0.09558 0.20465
 C1562 C 0.69827 0.10739 0.19868
 C1563 C 0.73188 0.04108 0.23198
 C1564 C 0.73761 0.02907 0.23768
 C1565 C 0.21105 0.58170 0.21148
 N1566 N 0.20614 0.56682 0.20703
 N1567 N 0.21280 0.55381 0.21355
 C1568 C 0.22458 0.55527 0.22470
 N1569 N 0.22951 0.57014 0.22913
 N1570 N 0.22284 0.58316 0.22261
 C1571 C 0.20389 0.59572 0.20445
 C1572 C 0.19798 0.60755 0.19854
 C1573 C 0.23165 0.54123 0.23172
 C1574 C 0.23736 0.52922 0.23742
 C1575 C 0.21116 0.08132 0.71168
 N1576 N 0.22284 0.08281 0.72294
 N1577 N 0.22955 0.06981 0.72946
 C1578 C 0.22479 0.05491 0.72491
 N1579 N 0.21313 0.05342 0.71363
 N1580 N 0.20643 0.06642 0.70711
 C1581 C 0.20394 0.09534 0.70464
 C1582 C 0.19798 0.10716 0.69872
 C1583 C 0.23192 0.04086 0.73194
 C1584 C 0.23767 0.02884 0.73764
 C1585 C 0.28854 0.58170 0.28808
 N1586 N 0.29791 0.56964 0.28237
 N1587 N 0.29125 0.55666 0.27581
 C1588 C 0.27504 0.55536 0.27473
 N1589 N 0.26566 0.56739 0.28046
 N1590 N 0.27232 0.58038 0.28703
 C1591 C 0.29571 0.59571 0.29510
 C1592 C 0.30164 0.60752 0.30101
 C1593 C 0.26794 0.54126 0.26787
 C1594 C 0.26224 0.52922 0.26226
 C1595 C 0.28860 0.08152 0.78824
 N1596 N 0.27239 0.08021 0.78697
 N1597 N 0.26581 0.06719 0.78040
 C1598 C 0.27525 0.05510 0.77489
 N1599 N 0.29145 0.05640 0.77619
 N1600 N 0.29803 0.06941 0.78275
 C1601 C 0.29568 0.09553 0.79534
 C1602 C 0.30161 0.10730 0.80134
 C1603 C 0.26824 0.04095 0.76804
 C1604 C 0.26260 0.02886 0.76246
 C1605 C 0.78886 0.58187 0.78852
 N1606 N 0.77265 0.58051 0.78736
 N1607 N 0.76605 0.56750 0.78079
 C1608 C 0.77547 0.55544 0.77516
 N1609 N 0.79168 0.55678 0.77636
 N1610 N 0.79828 0.56979 0.78293
 C1611 C 0.79598 0.59591 0.79558
 C1612 C 0.80193 0.60769 0.80156
 C1613 C 0.76841 0.54131 0.76828
 C1614 C 0.76271 0.52925 0.76266
 C1615 C 0.78870 0.08165 0.28829
 N1616 N 0.77250 0.08043 0.28689
 N1617 N 0.76589 0.06742 0.28033
 C1618 C 0.77530 0.05525 0.27496
 N1619 N 0.79150 0.05644 0.27640
 N1620 N 0.79811 0.06945 0.28296
 C1621 C 0.79579 0.09569 0.29532
 C1622 C 0.80167 0.10751 0.30125
 C1623 C 0.76824 0.04114 0.26809
 C1624 C 0.76254 0.02909 0.26249
 C1625 C 0.71123 0.41827 0.28819
 N1626 N 0.70188 0.42968 0.28125
 N1627 N 0.70852 0.44268 0.27470
 C1628 C 0.72470 0.44465 0.27485
 N1629 N 0.73406 0.43328 0.28182
 N1630 N 0.72742 0.42027 0.28838
 C1631 C 0.70410 0.40427 0.29525
 C1632 C 0.69817 0.39248 0.30121
 C1633 C 0.73177 0.45877 0.26800
 C1634 C 0.73746 0.47083 0.26241
 C1635 C 0.71150 0.91839 0.78836
 N1636 N 0.72724 0.91836 0.78408
 N1637 N 0.73387 0.93137 0.77751
 C1638 C 0.72495 0.94478 0.77502
 N1639 N 0.70922 0.94482 0.77933
 N1640 N 0.70259 0.93182 0.78589
 C1641 C 0.70435 0.90438 0.79539
 C1642 C 0.69842 0.89258 0.80131
 C1643 C 0.73204 0.95887 0.76815
 C1644 C 0.73770 0.97095 0.76255
 C1645 C 0.21123 0.41795 0.78825
 N1646 N 0.22339 0.41653 0.77749
 N1647 N 0.23003 0.42957 0.77099
 C1648 C 0.22470 0.44443 0.77506
 N1649 N 0.21255 0.44584 0.78582
 N1650 N 0.20592 0.43281 0.79232
 C1651 C 0.20413 0.40390 0.79530
 C1652 C 0.19822 0.39210 0.80127
 C1653 C 0.23178 0.45851 0.76808
 C1654 C 0.23748 0.47055 0.76241
 C1655 C 0.21138 0.91815 0.28803
 N1656 N 0.22508 0.91693 0.27927
 N1657 N 0.23170 0.92997 0.27275
 C1658 C 0.22482 0.94460 0.27481
 N1659 N 0.21114 0.94581 0.28359
 N1660 N 0.20452 0.93278 0.29010
 C1661 C 0.20425 0.90413 0.29507
 C1662 C 0.19833 0.89235 0.30104
 C1663 C 0.23188 0.95866 0.26788
 C1664 C 0.23757 0.97071 0.26225
 C1665 C 0.41795 0.28847 0.71176
 N1666 N 0.43279 0.29414 0.70817
 N1667 N 0.44582 0.28749 0.71470
 C1668 C 0.44438 0.27497 0.72501
 N1669 N 0.42954 0.26928 0.72859
 N1670 N 0.41651 0.27593 0.72205
 C1671 C 0.40393 0.29561 0.70472
 C1672 C 0.39214 0.30155 0.69877
 C1673 C 0.45844 0.26791 0.73201
 C1674 C 0.47048 0.26223 0.73767
 C1675 C 0.41818 0.78883 0.21162
 N1676 N 0.43305 0.79434 0.20787
 N1677 N 0.44606 0.78768 0.21442
 C1678 C 0.44458 0.77532 0.22491
 N1679 N 0.42972 0.76979 0.22865
 N1680 N 0.41671 0.77645 0.22209
 C1681 C 0.40418 0.79600 0.20457
 C1682 C 0.39238 0.80193 0.19864
 C1683 C 0.45862 0.76825 0.23193
 C1684 C 0.47066 0.76257 0.23761
 C1685 C 0.91797 0.28879 0.21175
 N1686 N 0.93284 0.29363 0.20717
 N1687 N 0.94589 0.28699 0.21366
 C1688 C 0.94446 0.27532 0.22491
 N1689 N 0.92959 0.27046 0.22948
 N1690 N 0.91654 0.27710 0.22299
 C1691 C 0.90394 0.29594 0.20475
 C1692 C 0.89219 0.30193 0.19877
 C1693 C 0.95853 0.26829 0.23190
 C1694 C 0.97057 0.26261 0.23757
 C1695 C 0.91830 0.78890 0.71177
 N1696 N 0.93304 0.79532 0.70909
 N1697 N 0.94608 0.78870 0.71562
 C1698 C 0.94477 0.77548 0.72503
 N1699 N 0.93004 0.76905 0.72770
 N1700 N 0.91700 0.77566 0.72117
 C1701 C 0.90427 0.79599 0.70471
 C1702 C 0.89248 0.80191 0.69873
 C1703 C 0.95883 0.76841 0.73201
 C1704 C 0.97087 0.76269 0.73767
 C1705 C 0.58182 0.28869 0.28813
 N1706 N 0.58326 0.27807 0.27588
 N1707 N 0.57023 0.27138 0.26941
 C1708 C 0.55538 0.27511 0.27500
 N1709 N 0.55394 0.28572 0.28726
 N1710 N 0.56696 0.29240 0.29373
 C1711 C 0.59585 0.29586 0.29516
 C1712 C 0.60764 0.30183 0.30112
 C1713 C 0.54130 0.26802 0.26802
 C1714 C 0.52926 0.26230 0.26238
 C1715 C 0.58192 0.78895 0.78844
 N1716 N 0.58337 0.77833 0.77619
 N1717 N 0.57035 0.77163 0.76970
 C1718 C 0.55548 0.77535 0.77529
 N1719 N 0.55404 0.78595 0.78755
 N1720 N 0.56705 0.79265 0.79403
 C1721 C 0.59595 0.79615 0.79543
 C1722 C 0.60777 0.80210 0.80133
 C1723 C 0.54141 0.76828 0.76828
 C1724 C 0.52936 0.76259 0.76262
 C1725 C 0.08169 0.28858 0.78828
 N1726 N 0.06683 0.29234 0.79386
 N1727 N 0.05380 0.28571 0.78736
 C1728 C 0.05521 0.27511 0.77510
 N1729 N 0.07006 0.27134 0.76951
 N1730 N 0.08310 0.27797 0.77601
 C1731 C 0.09574 0.29567 0.79533
 C1732 C 0.10755 0.30157 0.80130
 C1733 C 0.04113 0.26807 0.76810
 C1734 C 0.02907 0.26239 0.76244
 C1735 C 0.08183 0.78881 0.28812
 N1736 N 0.08323 0.77819 0.27585
 N1737 N 0.07017 0.77156 0.26936
 C1738 C 0.05533 0.77533 0.27496
 N1739 N 0.05393 0.78593 0.28723
 N1740 N 0.06698 0.79256 0.29371
 C1741 C 0.09588 0.79596 0.29514
 C1742 C 0.10767 0.80190 0.30111
 C1743 C 0.04123 0.76830 0.26799
 C1744 C 0.02917 0.76262 0.26234
 C1745 C 0.58200 0.71138 0.71204
 N1746 N 0.58342 0.72209 0.72421
 N1747 N 0.57037 0.72876 0.73071
 C1748 C 0.55552 0.72492 0.72521
 N1749 N 0.55411 0.71422 0.71304
 N1750 N 0.56714 0.70755 0.70654
 C1751 C 0.59603 0.70424 0.70499
 C1752 C 0.60783 0.69832 0.69901
 C1753 C 0.54144 0.73197 0.73219
 C1754 C 0.52938 0.73766 0.73784
 C1755 C 0.58186 0.21104 0.21178
 N1756 N 0.58330 0.22175 0.22394
 N1757 N 0.57026 0.22842 0.23045
 C1758 C 0.55541 0.22458 0.22497
 N1759 N 0.55397 0.21388 0.21280
 N1760 N 0.56700 0.20721 0.20630
 C1761 C 0.59589 0.20390 0.20473
 C1762 C 0.60769 0.19797 0.19875
 C1763 C 0.54134 0.23164 0.23197
 C1764 C 0.52929 0.23733 0.23764
 C1765 C 0.08169 0.71138 0.21161
 N1766 N 0.08315 0.72208 0.22379
 N1767 N 0.07013 0.72876 0.23031
 C1768 C 0.05526 0.72493 0.22484
 N1769 N 0.05381 0.71425 0.21266
 N1770 N 0.06683 0.70758 0.20614
 C1771 C 0.09572 0.70421 0.20458
 C1772 C 0.10753 0.69827 0.19864
 C1773 C 0.04121 0.73199 0.23188
 C1774 C 0.02917 0.73767 0.23757
 C1775 C 0.08160 0.21106 0.71182
 N1776 N 0.08305 0.22176 0.72399
 N1777 N 0.07003 0.22846 0.73049
 C1778 C 0.05517 0.22467 0.72499
 N1779 N 0.05372 0.21398 0.71281
 N1780 N 0.06674 0.20728 0.70631
 C1781 C 0.09563 0.20387 0.70481
 C1782 C 0.10743 0.19791 0.69887
 C1783 C 0.04111 0.23174 0.73200
 C1784 C 0.02907 0.23745 0.73767
 C1785 C 0.41807 0.71126 0.28807
 N1786 N 0.43294 0.70578 0.29189
 N1787 N 0.44597 0.71247 0.28543
 C1788 C 0.44452 0.72484 0.27495
 N1789 N 0.42966 0.73035 0.27114
 N1790 N 0.41662 0.72366 0.27760
 C1791 C 0.40404 0.70406 0.29505
 C1792 C 0.39224 0.69807 0.30097
 C1793 C 0.45859 0.73194 0.26800
 C1794 C 0.47065 0.73765 0.26237
 C1795 C 0.41790 0.21104 0.78825
 N1796 N 0.43276 0.20551 0.79204
 N1797 N 0.44579 0.21217 0.78555
 C1798 C 0.44436 0.22455 0.77508
 N1799 N 0.42950 0.23010 0.77130
 N1800 N 0.41646 0.22344 0.77779
 C1801 C 0.40386 0.20390 0.79529
 C1802 C 0.39207 0.19796 0.80125
 C1803 C 0.45844 0.23163 0.76811
 C1804 C 0.47049 0.23734 0.76247
 C1805 C 0.91827 0.71156 0.78837
 N1806 N 0.91685 0.72401 0.77797
 N1807 N 0.92989 0.73063 0.77143
 C1808 C 0.94474 0.72498 0.77511
 N1809 N 0.94617 0.71254 0.78552
 N1810 N 0.93313 0.70593 0.79206
 C1811 C 0.90424 0.70442 0.79543
 C1812 C 0.89247 0.69845 0.80143
 C1813 C 0.95882 0.73206 0.76812
 C1814 C 0.97086 0.73776 0.76245
 C1815 C 0.91799 0.21128 0.28817
 N1816 N 0.91654 0.22363 0.27765
 N1817 N 0.92956 0.23030 0.27115
 C1818 C 0.94444 0.22482 0.27497
 N1819 N 0.94589 0.21248 0.28550
 N1820 N 0.93287 0.20582 0.29200
 C1821 C 0.90395 0.20413 0.29521
 C1822 C 0.89216 0.19819 0.30117
 C1823 C 0.95850 0.23193 0.26800
 C1824 C 0.97054 0.23766 0.26235
 C1825 C 0.28820 0.28817 0.58184
 N1826 N 0.27685 0.27655 0.58325
 N1827 N 0.27030 0.27000 0.57023
 C1828 C 0.27490 0.27486 0.55540
 N1829 N 0.28624 0.28647 0.55399
 N1830 N 0.29279 0.29302 0.56701
 C1831 C 0.29527 0.29524 0.59586
 C1832 C 0.30122 0.30119 0.60761
 C1833 C 0.26789 0.26785 0.54134
 C1834 C 0.26222 0.26219 0.52931
 C1835 C 0.28858 0.78843 0.08166
 N1836 N 0.29127 0.79488 0.06697
 N1837 N 0.28470 0.78830 0.05397
 C1838 C 0.27525 0.77510 0.05525
 N1839 N 0.27256 0.76865 0.06994
 N1840 N 0.27913 0.77522 0.08295
 C1841 C 0.29563 0.79553 0.09567
 C1842 C 0.30154 0.80149 0.10745
 C1843 C 0.26827 0.76805 0.04120
 C1844 C 0.26263 0.76237 0.02916
 C1845 C 0.78829 0.28858 0.08183
 N1846 N 0.79261 0.29372 0.06702
 N1847 N 0.78607 0.28718 0.05398
 C1848 C 0.77502 0.27529 0.05536
 N1849 N 0.77069 0.27014 0.07017
 N1850 N 0.77723 0.27669 0.08321
 C1851 C 0.79534 0.29565 0.09585
 C1852 C 0.80132 0.30163 0.10758
 C1853 C 0.76803 0.26829 0.04128
 C1854 C 0.76236 0.26263 0.02925
 C1855 C 0.78853 0.78862 0.58185
 N1856 N 0.77720 0.77700 0.58326
 N1857 N 0.77063 0.77045 0.57024
 C1858 C 0.77521 0.77534 0.55541
 N1859 N 0.78654 0.78696 0.55400
 N1860 N 0.79310 0.79350 0.56703
 C1861 C 0.79560 0.79568 0.59587
 C1862 C 0.80157 0.80164 0.60762
 C1863 C 0.76819 0.76834 0.54136
 C1864 C 0.76250 0.76267 0.52934
 C1865 C 0.28834 0.71145 0.41800
 N1866 N 0.27690 0.72299 0.41662
 N1867 N 0.27038 0.72957 0.42966
 C1868 C 0.27511 0.72480 0.44447
 N1869 N 0.28655 0.71327 0.44585
 N1870 N 0.29307 0.70669 0.43282
 C1871 C 0.29537 0.70436 0.40396
 C1872 C 0.30129 0.69840 0.39217
 C1873 C 0.26813 0.73184 0.45855
 C1874 C 0.26248 0.73753 0.47058
 C1875 C 0.28819 0.21123 0.91831
 N1876 N 0.29301 0.20659 0.93314
 N1877 N 0.28648 0.21317 0.94616
 C1878 C 0.27492 0.22459 0.94477
 N1879 N 0.27009 0.22924 0.92994
 N1880 N 0.27662 0.22266 0.91691
 C1881 C 0.29524 0.20413 0.90429
 C1882 C 0.30119 0.19815 0.89254
 C1883 C 0.26793 0.23162 0.95883
 C1884 C 0.26228 0.23731 0.97087
 C1885 C 0.78851 0.71174 0.91834
 N1886 N 0.79336 0.70711 0.93316
 N1887 N 0.78681 0.71366 0.94619
 C1888 C 0.77520 0.72503 0.94481
 N1889 N 0.77033 0.72966 0.93000
 N1890 N 0.77689 0.72311 0.91695
 C1891 C 0.79558 0.70467 0.90432
 C1892 C 0.80157 0.69867 0.89260
 C1893 C 0.76819 0.73202 0.95888
 C1894 C 0.76251 0.73768 0.97091
 C1895 C 0.78827 0.21141 0.41819
 N1896 N 0.79311 0.20680 0.43302
 N1897 N 0.78655 0.21337 0.44604
 C1898 C 0.77495 0.22475 0.44462
 N1899 N 0.77010 0.22937 0.42980
 N1900 N 0.77667 0.22279 0.41677
 C1901 C 0.79534 0.20431 0.40418
 C1902 C 0.80127 0.19835 0.39240
 C1903 C 0.76793 0.23177 0.45869
 C1904 C 0.76226 0.23745 0.47072
 C1905 C 0.71153 0.28846 0.41815
 N1906 N 0.72176 0.27583 0.41682
 N1907 N 0.72830 0.26926 0.42986
 C1908 C 0.72481 0.27514 0.44462
 N1909 N 0.71458 0.28777 0.44594
 N1910 N 0.70804 0.29433 0.43291
 C1911 C 0.70449 0.29555 0.40411
 C1912 C 0.69856 0.30152 0.39234
 C1913 C 0.73177 0.26810 0.45869
 C1914 C 0.73741 0.26241 0.47073
 C1915 C 0.71167 0.78874 0.91837
 N1916 N 0.72187 0.77609 0.91701
 N1917 N 0.72844 0.76950 0.93002
 C1918 C 0.72500 0.77538 0.94479
 N1919 N 0.71480 0.78803 0.94616
 N1920 N 0.70823 0.79461 0.93315
 C1921 C 0.70460 0.79583 0.90435
 C1922 C 0.69870 0.80174 0.89254
 C1923 C 0.73200 0.76832 0.95885
 C1924 C 0.73765 0.76263 0.97088
 C1925 C 0.21145 0.28824 0.91831
 N1926 N 0.20739 0.29361 0.93311
 N1927 N 0.21395 0.28707 0.94614
 C1928 C 0.22478 0.27495 0.94477
 N1929 N 0.22885 0.26956 0.92997
 N1930 N 0.22228 0.27611 0.91693
 C1931 C 0.20438 0.29530 0.90429
 C1932 C 0.19843 0.30125 0.89252
 C1933 C 0.23178 0.26794 0.95883
 C1934 C 0.23744 0.26227 0.97086
 C1935 C 0.21165 0.78846 0.41803
 N1936 N 0.22316 0.77698 0.41664
 N1937 N 0.22971 0.77043 0.42968
 C1938 C 0.22495 0.77517 0.44449
 N1939 N 0.21345 0.78664 0.44588
 N1940 N 0.20690 0.79319 0.43285
 C1941 C 0.20459 0.79554 0.40401
 C1942 C 0.19864 0.80152 0.39225
 C1943 C 0.23196 0.76816 0.45857
 C1944 C 0.23764 0.76249 0.47060
 C1945 C 0.71168 0.71168 0.58191
 N1946 N 0.72279 0.70350 0.57324
 N1947 N 0.72940 0.71012 0.56027
 C1948 C 0.72513 0.72514 0.55560
 N1949 N 0.71401 0.73331 0.56426
 N1950 N 0.70739 0.72669 0.57723
 C1951 C 0.70460 0.70457 0.59591
 C1952 C 0.69868 0.69862 0.60771
 C1953 C 0.73202 0.73211 0.54145
 C1954 C 0.73763 0.73778 0.52938
 C1955 C 0.71159 0.21152 0.08177
 N1956 N 0.71161 0.20351 0.06762
 N1957 N 0.71819 0.21010 0.05462
 C1958 C 0.72497 0.22489 0.05537
 N1959 N 0.72495 0.23291 0.06952
 N1960 N 0.71837 0.22632 0.08253
 C1961 C 0.70453 0.20441 0.09578
 C1962 C 0.69861 0.19843 0.10755
 C1963 C 0.73191 0.23197 0.04130
 C1964 C 0.73754 0.23768 0.02927
 C1965 C 0.21159 0.71157 0.08167
 N1966 N 0.21474 0.70243 0.06858
 N1967 N 0.22138 0.70896 0.05558
 C1968 C 0.22510 0.72482 0.05529
 N1969 N 0.22193 0.73397 0.06837
 N1970 N 0.21529 0.72743 0.08137
 C1971 C 0.20449 0.70452 0.09569
 C1972 C 0.19856 0.69860 0.10749
 C1973 C 0.23206 0.73184 0.04119
 C1974 C 0.23772 0.73751 0.02916
 C1975 C 0.21133 0.21126 0.58181
 N1976 N 0.22245 0.20307 0.57315
 N1977 N 0.22908 0.20968 0.56019
 C1978 C 0.22482 0.22470 0.55552
 N1979 N 0.21368 0.23288 0.56416
 N1980 N 0.20705 0.22626 0.57712
 C1981 C 0.20422 0.20414 0.59579
 C1982 C 0.19828 0.19819 0.60756
 C1983 C 0.23171 0.23167 0.54137
 C1984 C 0.23733 0.23732 0.52931
   
