data_POSCAR
  _audit_creation_date              2014-09-24
  _audit_creation_method            'ToBaCCo'
  _symmetry_space_group_name_H-M    'P1'
  _symmetry_Int_Tables_number       1
  _symmetry_cell_setting            triclinic
  loop_
  _symmetry_equiv_pos_as_xyz
 x,y,z
_cell_length_a 54.2215
_cell_length_b 54.1775
_cell_length_c 54.1570
_cell_angle_alpha 89.953400
_cell_angle_beta 90.023100
_cell_angle_gamma 89.993600
loop_
  _atom_site_label
  _atom_site_type_symbol
  _atom_site_fract_x
  _atom_site_fract_y
  _atom_site_fract_z
C1 C 0.24738 0.99719 -0.01542
 C2 C 0.24806 0.99599 0.00955
 C3 C 0.24829 0.97220 0.02301
 C4 C 0.24825 1.01843 0.02513
 C5 C 0.24739 1.02104 -0.02880
 C6 C 0.24651 0.97476 -0.03095
 C7 C 0.22717 0.95728 0.02404
 C8 C 0.22652 0.93676 0.03976
 C9 C 0.24709 0.93076 0.05443
 C10 C 0.26848 0.94527 0.05262
 C11 C 0.26898 0.96593 0.03721
 C12 C 0.22945 1.02190 0.04237
 C13 C 0.23018 1.04169 0.05876
 C14 C 0.25009 1.05871 0.05878
 C15 C 0.26860 1.05525 0.04051
 C16 C 0.26770 1.03534 0.02410
 C17 C 0.26747 1.02706 -0.04394
 C18 C 0.26717 1.04861 -0.05807
 C19 C 0.24655 1.06430 -0.05766
 C20 C 0.22648 1.05833 -0.04233
 C21 C 0.22696 1.03690 -0.02788
 C22 C 0.26639 0.95822 -0.03168
 C23 C 0.26627 0.93853 -0.04838
 C24 C 0.24626 0.93512 -0.06460
 C25 C 0.22609 0.95137 -0.06318
 C26 C 0.22632 0.97109 -0.04666
 H27 H 0.21094 0.96210 0.01341
 H28 H 0.20985 0.92579 0.04077
 H29 H 0.28447 0.94124 0.06392
 H30 H 0.28531 0.97744 0.03682
 H31 H 0.21406 1.00917 0.04316
 H32 H 0.21437 1.04373 0.07069
 H33 H 0.28267 1.03264 0.01115
 H34 H 0.28329 1.01488 -0.04498
 H35 H 0.28273 1.05262 -0.06994
 H36 H 0.21041 1.07018 -0.04166
 H37 H 0.21121 1.03235 -0.01645
 H38 H 0.28229 0.96104 -0.01991
 H39 H 0.28221 0.92652 -0.04920
 H40 H 0.21017 0.94898 -0.07501
 H41 H 0.21082 0.98371 -0.04630
 H42 H 0.28490 1.06664 0.03958
 C43 C 0.74904 0.49744 0.48337
 C44 C 0.74946 0.49722 0.50836
 C45 C 0.74949 0.47401 0.52267
 C46 C 0.74993 0.52018 0.52314
 C47 C 0.74977 0.52076 0.46913
 C48 C 0.74787 0.47442 0.46867
 C49 C 0.72815 0.45952 0.52458
 C50 C 0.72746 0.43959 0.54102
 C51 C 0.74819 0.43380 0.55553
 C52 C 0.76978 0.44787 0.55286
 C53 C 0.77033 0.46793 0.53672
 C54 C 0.73037 0.52513 0.53928
 C55 C 0.73155 0.54512 0.55544
 C56 C 0.75252 0.56037 0.55605
 C57 C 0.77184 0.55577 0.53930
 C58 C 0.77055 0.53580 0.52296
 C59 C 0.76959 0.52513 0.45314
 C60 C 0.76975 0.54591 0.43794
 C61 C 0.74985 0.56257 0.43811
 C62 C 0.73024 0.55844 0.45465
 C63 C 0.73021 0.53768 0.47005
 C64 C 0.76746 0.45751 0.46864
 C65 C 0.76717 0.43730 0.45255
 C66 C 0.74727 0.43370 0.43622
 C67 C 0.72736 0.45033 0.43697
 C68 C 0.72777 0.47056 0.45288
 H69 H 0.71183 0.46422 0.51405
 H70 H 0.71065 0.42892 0.54269
 H71 H 0.78590 0.44399 0.56402
 H72 H 0.78684 0.47915 0.53561
 H73 H 0.71432 0.51324 0.53963
 H74 H 0.71613 0.54845 0.56768
 H75 H 0.78596 0.53200 0.51083
 H76 H 0.78485 0.51225 0.45227
 H77 H 0.78538 0.54879 0.42585
 H78 H 0.71451 0.57074 0.45504
 H79 H 0.71462 0.53438 0.48210
 H80 H 0.78332 0.46045 0.48045
 H81 H 0.78293 0.42503 0.45225
 H82 H 0.71152 0.44785 0.42506
 H83 H 0.71250 0.48346 0.45267
 H84 H 0.78834 0.56702 0.53946
 C85 C 0.75209 1.00992 0.99665
 C86 C 0.75188 0.98496 0.99515
 C87 C 0.75268 0.97176 0.97122
 C88 C 0.75127 0.96932 1.01755
 C89 C 0.75122 1.02291 1.02067
 C90 C 0.75293 1.02597 0.97456
 C91 C 0.73289 0.95653 0.96452
 C92 C 0.73426 0.94188 0.94338
 C93 C 0.75566 0.94185 0.92877
 C94 C 0.77537 0.95742 0.93529
 C95 C 0.77383 0.97240 0.95631
 C96 C 0.73101 0.96977 1.03364
 C97 C 0.73029 0.95401 1.05409
 C98 C 0.74981 0.93752 1.05871
 C99 C 0.77021 0.93748 1.04269
 C100 C 0.77084 0.95311 1.02223
 C101 C 0.77152 1.02265 1.03672
 C102 C 0.77142 1.03730 1.05800
 C103 C 0.75091 1.05217 1.06359
 C104 C 0.73035 1.05174 1.04781
 C105 C 0.73061 1.03741 1.02643
 C106 C 0.77206 1.04311 0.97225
 C107 C 0.77158 1.06083 0.95360
 C108 C 0.75167 1.06220 0.93679
 C109 C 0.73294 1.04407 0.93876
 C110 C 0.73356 1.02627 0.95748
 H111 H 0.71654 0.95565 0.97598
 H112 H 0.71893 0.92984 0.93896
 H113 H 0.79203 0.95779 0.92428
 H114 H 0.78939 0.98384 0.96142
 H115 H 0.71558 0.98197 1.03007
 H116 H 0.71417 0.95426 1.06588
 H117 H 0.78664 0.95258 1.01000
 H118 H 0.78767 1.01173 1.03236
 H119 H 0.78746 1.03727 1.06993
 H120 H 0.71445 1.06325 1.05153
 H121 H 0.71489 1.03794 1.01408
 H122 H 0.78728 1.04301 0.98522
 H123 H 0.78723 1.07313 0.95236
 H124 H 0.71682 1.04434 0.92702
 H125 H 0.71835 1.01344 0.95933
 H126 H 0.78573 0.92533 1.04596
 C127 C 0.25071 0.50765 0.49746
 C128 C 0.25251 0.48275 0.49824
 C129 C 0.25414 0.46753 0.47563
 C130 C 0.25279 0.46924 0.52199
 C131 C 0.25068 0.52275 0.52017
 C132 C 0.24919 0.52166 0.47406
 C133 C 0.23452 0.46628 0.45879
 C134 C 0.23552 0.44986 0.43886
 C135 C 0.25616 0.43445 0.43549
 C136 C 0.27605 0.43642 0.45204
 C137 C 0.27495 0.45264 0.47199
 C138 C 0.23269 0.45425 0.52827
 C139 C 0.23300 0.44048 0.55006
 C140 C 0.25363 0.44116 0.56575
 C141 C 0.27375 0.45630 0.55947
 C142 C 0.27327 0.47035 0.53778
 C143 C 0.27056 0.53861 0.52471
 C144 C 0.26987 0.55498 0.54453
 C145 C 0.24908 0.55608 0.56000
 C146 C 0.22944 0.53959 0.55582
 C147 C 0.23026 0.52302 0.53603
 C148 C 0.26960 0.52360 0.45828
 C149 C 0.26924 0.54038 0.43859
 C150 C 0.24846 0.55544 0.43446
 C151 C 0.22766 0.55244 0.44966
 C152 C 0.22812 0.53586 0.46935
 H153 H 0.21816 0.47741 0.46154
 H154 H 0.21977 0.44860 0.42663
 H155 H 0.29244 0.42524 0.44972
 H156 H 0.29027 0.45341 0.48481
 H157 H 0.21681 0.45312 0.51617
 H158 H 0.21741 0.42873 0.55430
 H159 H 0.28900 0.48174 0.53305
 H160 H 0.28646 0.53856 0.51260
 H161 H 0.28551 0.56702 0.54755
 H162 H 0.21308 0.54014 0.56725
 H163 H 0.21464 0.51105 0.53254
 H164 H 0.28616 0.51304 0.46192
 H165 H 0.28562 0.54239 0.42735
 H166 H 0.21117 0.56331 0.44666
 H167 H 0.21224 0.53461 0.48143
 H168 H 0.28983 0.45718 0.57130
 C169 C 0.99744 0.24672 0.01792
 C170 C 0.99708 0.24749 -0.00707
 C171 C 0.97387 0.24678 -0.02143
 C172 C 1.01993 0.24931 -0.02189
 C173 C 1.02080 0.24617 0.03213
 C174 C 0.97450 0.24615 0.03271
 C175 C 0.97007 0.22738 -0.03800
 C176 C 0.95041 0.22798 -0.05455
 C177 C 0.93409 0.24833 -0.05539
 C178 C 0.93744 0.26723 -0.03763
 C179 C 0.95717 0.26647 -0.02094
 C180 C 1.03732 0.23021 -0.02222
 C181 C 1.05741 0.23122 -0.03839
 C182 C 1.06047 0.25133 -0.05485
 C183 C 1.04317 0.27082 -0.05348
 C184 C 1.02317 0.26968 -0.03740
 C185 C 1.03759 0.26580 0.03128
 C186 C 1.05856 0.26566 0.04637
 C187 C 1.06313 0.24594 0.06295
 C188 C 1.04631 0.22598 0.06288
 C189 C 1.02544 0.22624 0.04786
 C190 C 0.96982 0.26543 0.04927
 C191 C 0.94984 0.26416 0.06541
 C192 C 0.93433 0.24337 0.06560
 C193 C 0.93865 0.22434 0.04843
 C194 C 0.95862 0.22573 0.03210
 H195 H 0.98273 0.21191 -0.03844
 H196 H 0.94812 0.21216 -0.06648
 H197 H 0.92605 0.28359 -0.03747
 H198 H 0.96011 0.28182 -0.00848
 H199 H 1.03483 0.21413 -0.01060
 H200 H 1.06952 0.21538 -0.03884
 H201 H 1.01000 0.28472 -0.03717
 H202 H 1.03406 0.28157 0.01950
 H203 H 1.07023 0.28183 0.04588
 H204 H 1.04928 0.20967 0.07398
 H205 H 1.01278 0.21078 0.04853
 H206 H 0.98194 0.28131 0.04995
 H207 H 0.94673 0.27937 0.07798
 H208 H 0.92720 0.20797 0.04826
 H209 H 0.96221 0.21053 0.01964
 H210 H 1.04508 0.28740 -0.06443
 C211 C 0.49524 0.74803 0.51464
 C212 C 0.49546 0.74780 0.48964
 C213 C 0.47251 0.74833 0.47492
 C214 C 0.51864 0.74739 0.47528
 C215 C 0.51825 0.74910 0.52934
 C216 C 0.47190 0.74746 0.52876
 C217 C 0.45780 0.72720 0.47245
 C218 C 0.43812 0.72703 0.45570
 C219 C 0.43280 0.74807 0.44141
 C220 C 0.44713 0.76943 0.44462
 C221 C 0.46692 0.76948 0.46109
 C222 C 0.52368 0.72704 0.46017
 C223 C 0.54383 0.72738 0.44418
 C224 C 0.55913 0.74828 0.44269
 C225 C 0.55447 0.76838 0.45849
 C226 C 0.53435 0.76793 0.47467
 C227 C 0.52242 0.76942 0.54476
 C228 C 0.54317 0.77022 0.55996
 C229 C 0.56005 0.75050 0.56038
 C230 C 0.55603 0.73030 0.54452
 C231 C 0.53529 0.72961 0.52912
 C232 C 0.45622 0.76804 0.52941
 C233 C 0.43545 0.76801 0.54474
 C234 C 0.42996 0.74730 0.55943
 C235 C 0.44540 0.72651 0.55819
 C236 C 0.46630 0.72669 0.54314
 H237 H 0.46210 0.71065 0.48283
 H238 H 0.42725 0.71038 0.45366
 H239 H 0.44364 0.78578 0.43366
 H240 H 0.47832 0.78583 0.46262
 H241 H 0.51170 0.71104 0.46044
 H242 H 0.54720 0.71139 0.43269
 H243 H 0.53048 0.78392 0.48602
 H244 H 0.50948 0.78465 0.54508
 H245 H 0.54594 0.78629 0.57151
 H246 H 0.56847 0.71467 0.54459
 H247 H 0.53218 0.71364 0.51752
 H248 H 0.46046 0.78431 0.51858
 H249 H 0.42377 0.78422 0.54531
 H250 H 0.44178 0.71044 0.56953
 H251 H 0.47836 0.71075 0.54296
 H252 H 0.56575 0.78485 0.45763
 C253 C -0.01682 0.75245 0.00085
 C254 C 0.00812 0.75228 0.00134
 C255 C 0.02288 0.75197 -0.02156
 C256 C 0.02233 0.75171 0.02456
 C257 C -0.03192 0.75129 0.02363
 C258 C -0.03053 0.75442 -0.02271
 C259 C 0.03152 0.72949 -0.03078
 C260 C 0.04744 0.72895 -0.05100
 C261 C 0.05563 0.75105 -0.06226
 C262 C 0.04632 0.77361 -0.05294
 C263 C 0.03007 0.77401 -0.03290
 C264 C 0.02595 0.72945 0.03726
 C265 C 0.04256 0.72835 0.05703
 C266 C 0.05562 0.74955 0.06440
 C267 C 0.05120 0.77197 0.05212
 C268 C 0.03483 0.77298 0.03226
 C269 C -0.03127 0.77022 0.04120
 C270 C -0.04761 0.77005 0.06123
 C271 C -0.06525 0.75096 0.06412
 C272 C -0.06497 0.73162 0.04657
 C273 C -0.04872 0.73194 0.02660
 C274 C -0.04366 0.77598 -0.02793
 C275 C -0.05809 0.77770 -0.04920
 C276 C -0.06014 0.75764 -0.06581
 C277 C -0.04618 0.73616 -0.06052
 C278 C -0.03168 0.73459 -0.03920
 H279 H 0.02636 0.71233 -0.02189
 H280 H 0.05442 0.71112 -0.05661
 H281 H 0.05106 0.79109 -0.06134
 H282 H 0.02345 0.79153 -0.02594
 H283 H 0.01662 0.71282 0.03129
 H284 H 0.04550 0.71089 0.06631
 H285 H 0.03242 0.79023 0.02241
 H286 H -0.01878 0.78564 0.03890
 H287 H -0.04715 0.78581 0.07343
 H288 H -0.07692 0.71574 0.04823
 H289 H -0.04936 0.71705 0.01328
 H290 H -0.04277 0.79156 -0.01542
 H291 H -0.06713 0.79515 -0.05263
 H292 H -0.04738 0.71983 -0.07190
 H293 H -0.02195 0.71760 -0.03517
 H294 H 0.06120 0.78851 0.05719
 C295 C 0.48422 0.25032 0.50536
 C296 C 0.50915 0.25005 0.50511
 C297 C 0.52337 0.24793 0.48194
 C298 C 0.52402 0.25157 0.52791
 C299 C 0.46995 0.25033 0.52864
 C300 C 0.46966 0.25069 0.48226
 C301 C 0.53725 0.22655 0.47775
 C302 C 0.55312 0.22514 0.45757
 C303 C 0.55572 0.24527 0.44138
 C304 C 0.54110 0.26642 0.44518
 C305 C 0.52501 0.26773 0.46534
 C306 C 0.52548 0.23160 0.54431
 C307 C 0.54266 0.23190 0.56361
 C308 C 0.55858 0.25221 0.56672
 C309 C 0.55615 0.27260 0.55083
 C310 C 0.53918 0.27218 0.53152
 C311 C 0.47015 0.27073 0.54457
 C312 C 0.45440 0.27136 0.56505
 C313 C 0.43825 0.25157 0.56988
 C314 C 0.43889 0.23083 0.55429
 C315 C 0.45443 0.23033 0.53380
 C316 C 0.45484 0.27122 0.47707
 C317 C 0.43971 0.27144 0.45625
 C318 C 0.43881 0.25093 0.44036
 C319 C 0.45409 0.23051 0.44538
 C320 C 0.46940 0.23040 0.46620
 H321 H 0.53613 0.21112 0.49043
 H322 H 0.56368 0.20839 0.45487
 H323 H 0.54284 0.28232 0.43319
 H324 H 0.51457 0.28447 0.46855
 H325 H 0.51412 0.21540 0.54149
 H326 H 0.54421 0.21583 0.57539
 H327 H 0.53827 0.28771 0.51894
 H328 H 0.48183 0.28647 0.54064
 H329 H 0.45418 0.28770 0.57653
 H330 H 0.42711 0.21507 0.55775
 H331 H 0.45411 0.21442 0.52168
 H332 H 0.45490 0.28704 0.48928
 H333 H 0.42857 0.28764 0.45267
 H334 H 0.45361 0.21432 0.43370
 H335 H 0.48054 0.21427 0.47014
 H336 H 0.56773 0.28873 0.55305
 C337 C 1.00323 0.01236 0.25133
 C338 C 1.00308 -0.01258 0.25278
 C339 C 0.97970 -0.02658 0.25364
 C340 C 1.02589 -0.02756 0.25298
 C341 C 1.02627 0.02694 0.24966
 C342 C 0.98003 0.02672 0.25231
 C343 C 0.96708 -0.02991 0.27591
 C344 C 0.94640 -0.04530 0.27694
 C345 C 0.93764 -0.05747 0.25555
 C346 C 0.95016 -0.05310 0.23306
 C347 C 0.97107 -0.03811 0.23225
 C348 C 1.03040 -0.04333 0.27292
 C349 C 1.04976 -0.06021 0.27215
 C350 C 1.06513 -0.06215 0.25115
 C351 C 1.06106 -0.04525 0.23158
 C352 C 1.04160 -0.02827 0.23249
 C353 C 1.02976 0.04267 0.22942
 C354 C 1.04971 0.05891 0.22878
 C355 C 1.06643 0.06008 0.24861
 C356 C 1.06331 0.04371 0.26859
 C357 C 1.04338 0.02726 0.26910
 C358 C 0.96351 0.02680 0.23238
 C359 C 0.94259 0.04191 0.23294
 C360 C 0.93793 0.05719 0.25343
 C361 C 0.95428 0.05646 0.27359
 C362 C 0.97521 0.04149 0.27294
 H363 H 0.97357 -0.02099 0.29259
 H364 H 0.93708 -0.04711 0.29450
 H365 H 0.94495 -0.06242 0.21620
 H366 H 0.98086 -0.03587 0.21496
 H367 H 1.01861 -0.04282 0.28906
 H368 H 1.05268 -0.07144 0.28840
 H369 H 1.03812 -0.01645 0.21672
 H370 H 1.01671 0.04268 0.21427
 H371 H 1.05184 0.07082 0.21287
 H372 H 1.07567 0.04428 0.28428
 H373 H 1.04074 0.01551 0.28507
 H374 H 0.96719 0.01568 0.21618
 H375 H 0.93055 0.04228 0.21699
 H376 H 0.95101 0.06762 0.28983
 H377 H 0.98780 0.04157 0.28848
 H378 H 1.07168 -0.04599 0.21472
 C379 C 0.50320 0.51942 0.74991
 C380 C 0.50336 0.49446 0.75105
 C381 C 0.52645 0.47990 0.75144
 C382 C 0.48034 0.47987 0.75188
 C383 C 0.47990 0.53372 0.75020
 C384 C 0.52623 0.53402 0.74856
 C385 C 0.54169 0.47849 0.73058
 C386 C 0.56109 0.46143 0.72985
 C387 C 0.56548 0.44556 0.74999
 C388 C 0.55082 0.44798 0.77126
 C389 C 0.53141 0.46484 0.77188
 C390 C 0.47525 0.46340 0.73263
 C391 C 0.45534 0.44724 0.73429
 C392 C 0.44033 0.44696 0.75545
 C393 C 0.44499 0.46410 0.77441
 C394 C 0.46489 0.48045 0.77263
 C395 C 0.47561 0.55042 0.76945
 C396 C 0.45470 0.56542 0.76928
 C397 C 0.43780 0.56433 0.74959
 C398 C 0.44189 0.54716 0.73052
 C399 C 0.46279 0.53197 0.73083
 C400 C 0.54315 0.53419 0.76816
 C401 C 0.56336 0.55025 0.76770
 C402 C 0.56694 0.56638 0.74762
 C403 C 0.55035 0.56544 0.72768
 C404 C 0.53011 0.54957 0.72826
 H405 H 0.53785 0.48974 0.71449
 H406 H 0.57192 0.45989 0.71313
 H407 H 0.55404 0.43648 0.78730
 H408 H 0.51976 0.46568 0.78811
 H409 H 0.48703 0.46276 0.71649
 H410 H 0.45191 0.43467 0.71914
 H411 H 0.46883 0.49286 0.78780
 H412 H 0.48861 0.55195 0.78457
 H413 H 0.45188 0.57804 0.78450
 H414 H 0.42941 0.54604 0.71496
 H415 H 0.46601 0.51938 0.71564
 H416 H 0.54020 0.52255 0.78416
 H417 H 0.57563 0.55071 0.78347
 H418 H 0.55283 0.57721 0.71171
 H419 H 0.51721 0.54965 0.71297
 H420 H 0.43391 0.46419 0.79103
 C421 C 1.01633 1.00629 0.74919
 C422 C 0.99139 1.00663 0.74810
 C423 C 0.97668 0.98366 0.74771
 C424 C 0.97698 1.02982 0.74724
 C425 C 1.03108 1.02914 0.75143
 C426 C 1.03050 0.98296 0.74769
 C427 C 0.97652 0.96816 0.72699
 C428 C 0.96020 0.94817 0.72591
 C429 C 0.94385 0.94347 0.74555
 C430 C 0.94483 0.95859 0.76661
 C431 C 0.96096 0.97859 0.76757
 C432 C 0.96180 1.03425 0.72685
 C433 C 0.94520 1.05387 0.72689
 C434 C 0.94295 1.06958 0.74761
 C435 C 0.95933 1.06561 0.76763
 C436 C 0.97603 1.04588 0.76745
 C437 C 1.04582 1.03248 0.77240
 C438 C 1.06192 1.05248 0.77394
 C439 C 1.06393 1.06937 0.75432
 C440 C 1.04858 1.06634 0.73354
 C441 C 1.03226 1.04636 0.73212
 C442 C 1.02929 0.96515 0.76639
 C443 C 1.04420 0.94407 0.76533
 C444 C 1.06088 0.94035 0.74554
 C445 C 1.06114 0.95825 0.72648
 C446 C 1.04636 0.97925 0.72771
 H447 H 0.98836 0.97207 0.71137
 H448 H 0.95973 0.93700 0.70936
 H449 H 0.93288 0.95517 0.78225
 H450 H 0.96090 0.99043 0.78369
 H451 H 0.96248 1.02212 0.71096
 H452 H 0.93440 1.05667 0.71034
 H453 H 0.98739 1.04245 0.78355
 H454 H 1.04510 1.01932 0.78746
 H455 H 1.07304 1.05454 0.79042
 H456 H 1.04985 1.07885 0.71800
 H457 H 1.02123 1.04383 0.71564
 H458 H 1.01732 0.96792 0.78215
 H459 H 1.04343 0.93159 0.78088
 H460 H 1.07230 0.95604 0.71011
 H461 H 1.04727 0.99273 0.71294
 H462 H 0.95833 1.07652 0.78429
 C463 C 0.51636 0.50016 0.24954
 C464 C 0.49144 0.49976 0.24825
 C465 C 0.47746 0.47633 0.24801
 C466 C 0.47645 0.52251 0.24717
 C467 C 0.53056 0.52342 0.25147
 C468 C 0.53104 0.47717 0.24855
 C469 C 0.47645 0.46161 0.22675
 C470 C 0.46096 0.44096 0.22603
 C471 C 0.44650 0.43466 0.24666
 C472 C 0.44817 0.44911 0.26812
 C473 C 0.46337 0.46987 0.26870
 C474 C 0.46193 0.52692 0.22623
 C475 C 0.44510 0.54635 0.22591
 C476 C 0.44217 0.56159 0.24670
 C477 C 0.45742 0.55766 0.26740
 C478 C 0.47445 0.53823 0.26762
 C479 C 0.54525 0.52742 0.27237
 C480 C 0.56098 0.54776 0.27356
 C481 C 0.56268 0.56435 0.25365
 C482 C 0.54735 0.56068 0.23296
 C483 C 0.53140 0.54036 0.23189
 C484 C 0.53109 0.46040 0.26828
 C485 C 0.54654 0.43970 0.26768
 C486 C 0.56212 0.43549 0.24731
 C487 C 0.56137 0.45208 0.22733
 C488 C 0.54613 0.47280 0.22805
 H489 H 0.48709 0.46654 0.21056
 H490 H 0.46007 0.43004 0.20932
 H491 H 0.43701 0.44486 0.28415
 H492 H 0.46382 0.48122 0.28516
 H493 H 0.46327 0.51492 0.21029
 H494 H 0.43405 0.54920 0.20949
 H495 H 0.48531 0.53482 0.28407
 H496 H 0.54482 0.51450 0.28764
 H497 H 0.57208 0.55029 0.28998
 H498 H 0.54837 0.57294 0.21720
 H499 H 0.52042 0.53734 0.21546
 H500 H 0.51968 0.46370 0.28435
 H501 H 0.54687 0.42748 0.28350
 H502 H 0.57271 0.44914 0.21115
 H503 H 0.54621 0.48557 0.21265
 H504 H 0.45547 0.56894 0.28377
 O505 O 0.25724 0.18368 0.21048
 O506 O 0.28384 0.17610 0.24506
 O507 O 0.19301 0.21374 0.24633
 O508 O 0.18402 0.24607 0.27011
 O509 O 0.22318 0.24847 0.18070
 O510 O 0.25784 0.27523 0.17409
 O511 O 0.25786 0.28123 0.30889
 O512 O 0.22879 0.24888 0.31524
 O513 O 0.32077 0.24738 0.27948
 O514 O 0.32800 0.21916 0.24397
 O515 O 0.29210 0.31067 0.24564
 O516 O 0.25666 0.31872 0.21791
 O517 O 0.25892 0.31094 0.27930
 O518 O 0.23092 0.31912 0.24437
 O519 O 0.32129 0.28062 0.24644
 O520 O 0.32868 0.24573 0.21818
 O521 O 0.29096 0.24774 0.30892
 O522 O 0.25725 0.22021 0.31681
 O523 O 0.25752 0.21342 0.18085
 O524 O 0.28487 0.24743 0.17401
 O525 O 0.19361 0.24828 0.21041
 O526 O 0.18794 0.27697 0.24470
 O527 O 0.22233 0.18377 0.24504
 O528 O 0.25634 0.17622 0.27216
 Zr529 Zr 0.25586 0.20326 0.24400
 O530 O 0.27903 0.22400 0.26721
 Zr531 Zr 0.21303 0.24700 0.24400
 O532 O 0.23433 0.26972 0.26730
 Zr533 Zr 0.25646 0.24671 0.20074
 O534 O 0.27974 0.26940 0.22205
 Zr535 Zr 0.25773 0.24789 0.28907
 O536 O 0.23423 0.22489 0.26800
 Zr537 Zr 0.30118 0.24751 0.24587
 O538 O 0.28004 0.22457 0.22233
 Zr539 Zr 0.25837 0.29136 0.24579
 O540 O 0.23489 0.27070 0.22229
 O541 O 0.23320 0.22395 0.22101
 O542 O 0.28119 0.27086 0.26901
 C543 C 0.25788 0.19073 0.18781
 C544 C 0.19978 0.19096 0.24636
 C545 C 0.20053 0.24905 0.18773
 C546 C 0.25843 0.30392 0.30197
 C547 C 0.31364 0.24749 0.30211
 C548 C 0.31465 0.30336 0.24610
 H549 H 0.28911 0.21264 0.27731
 H550 H 0.29005 0.27951 0.21091
 H551 H 0.22255 0.21348 0.21049
 H552 H 0.22333 0.27989 0.27769
 H553 H 0.21639 0.23656 0.30990
 H554 H 0.18950 0.25550 0.28474
 H555 H 0.32529 0.25893 0.20603
 H556 H 0.29787 0.23608 0.18000
 H557 H 0.26882 0.20700 0.31192
 H558 H 0.24501 0.18211 0.28522
 H559 H 0.26983 0.31518 0.20579
 H560 H 0.24643 0.28828 0.17985
 H561 H 0.29708 0.18188 0.23387
 H562 H 0.32469 0.20735 0.25751
 H563 H 0.19339 0.28883 0.23190
 H564 H 0.21867 0.31551 0.25741
 O565 O 0.74724 0.82029 0.22011
 O566 O 0.72031 0.82720 0.25451
 O567 O 0.81183 0.79125 0.25640
 O568 O 0.82151 0.75899 0.27992
 O569 O 0.78248 0.75631 0.19060
 O570 O 0.74854 0.72861 0.18383
 O571 O 0.74771 0.72263 0.31880
 O572 O 0.77643 0.75514 0.32515
 O573 O 0.68475 0.75542 0.28898
 O574 O 0.67682 0.78314 0.25336
 O575 O 0.71472 0.69250 0.25511
 O576 O 0.75048 0.68512 0.22781
 O577 O 0.74705 0.69306 0.28911
 O578 O 0.77600 0.68528 0.25457
 O579 O 0.68484 0.72184 0.25588
 O580 O 0.67686 0.75674 0.22757
 O581 O 0.71438 0.75511 0.31863
 O582 O 0.74782 0.78400 0.32609
 O583 O 0.74693 0.79038 0.19069
 O584 O 0.72097 0.75558 0.18350
 O585 O 0.81217 0.75690 0.22024
 O586 O 0.81798 0.72799 0.25461
 O587 O 0.78194 0.82066 0.25459
 O588 O 0.74780 0.82746 0.28188
 Zr589 Zr 0.74880 0.80058 0.25362
 O590 O 0.72593 0.77938 0.27678
 Zr591 Zr 0.79251 0.75762 0.25380
 O592 O 0.77154 0.73456 0.27714
 Zr593 Zr 0.74911 0.75711 0.21048
 O594 O 0.72623 0.73397 0.23170
 Zr595 Zr 0.74763 0.75592 0.29880
 O596 O 0.77078 0.77930 0.27770
 Zr597 Zr 0.70429 0.75543 0.25538
 O598 O 0.72506 0.77880 0.23192
 Zr599 Zr 0.74800 0.71250 0.25555
 O600 O 0.77113 0.73354 0.23207
 O601 O 0.77191 0.78031 0.23074
 O602 O 0.72469 0.73254 0.27861
 C603 C 0.74633 0.81309 0.19750
 C604 C 0.80460 0.81387 0.25613
 C605 C 0.80518 0.75614 0.19754
 C606 C 0.74711 0.69998 0.31179
 C607 C 0.69174 0.75512 0.31167
 C608 C 0.69199 0.69924 0.25548
 H609 H 0.71559 0.79054 0.28681
 H610 H 0.71618 0.72367 0.22052
 H611 H 0.78232 0.79102 0.22021
 H612 H 0.78263 0.72456 0.28764
 H613 H 0.78876 0.76755 0.31984
 H614 H 0.81612 0.74956 0.29459
 H615 H 0.68040 0.74345 0.21557
 H616 H 0.70749 0.76636 0.18947
 H617 H 0.73502 0.79628 0.32180
 H618 H 0.75921 0.82170 0.29494
 H619 H 0.73750 0.68854 0.21543
 H620 H 0.76034 0.71589 0.18957
 H621 H 0.70723 0.82118 0.24328
 H622 H 0.68006 0.79523 0.26664
 H623 H 0.81280 0.71613 0.24171
 H624 H 0.78782 0.68890 0.26800
 O625 O 0.75037 0.19024 0.78691
 O626 O 0.72485 0.18166 0.75286
 O627 O 0.81507 0.22047 0.75235
 O628 O 0.82481 0.25217 0.72866
 O629 O 0.78343 0.25530 0.81668
 O630 O 0.74942 0.28174 0.82299
 O631 O 0.75001 0.28534 0.68680
 O632 O 0.77826 0.25375 0.68064
 O633 O 0.68714 0.25338 0.71756
 O634 O 0.67849 0.22728 0.75258
 O635 O 0.71685 0.31739 0.74915
 O636 O 0.75079 0.32676 0.77560
 O637 O 0.74918 0.31599 0.71539
 O638 O 0.77892 0.32373 0.75132
 O639 O 0.68714 0.28788 0.74915
 O640 O 0.68014 0.25275 0.77953
 O641 O 0.71670 0.25257 0.68787
 O642 O 0.75167 0.22333 0.68205
 O643 O 0.74914 0.22014 0.81629
 O644 O 0.72137 0.25518 0.82180
 O645 O 0.81364 0.25525 0.78762
 O646 O 0.81913 0.28395 0.75181
 O647 O 0.78595 0.19031 0.75312
 O648 O 0.75159 0.18274 0.72508
 Zr649 Zr 0.75211 0.20954 0.75344
 O650 O 0.72863 0.22988 0.73016
 Zr651 Zr 0.79479 0.25342 0.75354
 O652 O 0.77380 0.27513 0.72896
 Zr653 Zr 0.75068 0.25350 0.79611
 O654 O 0.72826 0.27644 0.77411
 Zr655 Zr 0.75018 0.25288 0.70772
 O656 O 0.77401 0.23084 0.72949
 Zr657 Zr 0.70669 0.25424 0.75091
 O658 O 0.72751 0.23108 0.77454
 Zr659 Zr 0.74999 0.29751 0.74975
 O660 O 0.77261 0.27732 0.77452
 O661 O 0.77431 0.23059 0.77650
 O662 O 0.72700 0.27662 0.72714
 C663 C 0.74910 0.19737 0.80947
 C664 C 0.80852 0.19768 0.75242
 C665 C 0.80619 0.25595 0.81018
 C666 C 0.74938 0.30819 0.69295
 C667 C 0.69404 0.25284 0.69491
 C668 C 0.69421 0.31054 0.74871
 H669 H 0.71842 0.21835 0.72040
 H670 H 0.71805 0.28701 0.78491
 H671 H 0.78478 0.22026 0.78735
 H672 H 0.78489 0.28490 0.71825
 H673 H 0.79169 0.24294 0.68670
 H674 H 0.81896 0.25922 0.71286
 H675 H 0.68194 0.26780 0.78969
 H676 H 0.70916 0.24262 0.81664
 H677 H 0.73748 0.21228 0.68509
 H678 H 0.76409 0.18785 0.71278
 H679 H 0.74007 0.32198 0.78957
 H680 H 0.76007 0.29523 0.81680
 H681 H 0.71086 0.18795 0.76276
 H682 H 0.68327 0.21359 0.74150
 H683 H 0.81480 0.29507 0.76565
 H684 H 0.78901 0.32191 0.73621
 O685 O 0.24328 0.80897 0.78205
 O686 O 0.26903 0.81612 0.74677
 O687 O 0.17773 0.77931 0.74789
 O688 O 0.16848 0.74725 0.72358
 O689 O 0.20863 0.74543 0.81270
 O690 O 0.24283 0.71758 0.81896
 O691 O 0.24139 0.71064 0.68438
 O692 O 0.21234 0.74309 0.67813
 O693 O 0.30472 0.74506 0.71261
 O694 O 0.31278 0.77259 0.74835
 O695 O 0.27596 0.68131 0.74711
 O696 O 0.24103 0.67399 0.77572
 O697 O 0.24251 0.68122 0.71427
 O698 O 0.21471 0.67368 0.74961
 O699 O 0.30532 0.71113 0.74524
 O700 O 0.31381 0.74575 0.77363
 O701 O 0.27462 0.74352 0.68346
 O702 O 0.24098 0.77174 0.67603
 O703 O 0.24359 0.77941 0.81187
 O704 O 0.27038 0.74504 0.81864
 O705 O 0.17855 0.74500 0.78344
 O706 O 0.17219 0.71617 0.74946
 O707 O 0.20751 0.80884 0.74811
 O708 O 0.24103 0.81603 0.72033
 Zr709 Zr 0.24090 0.78917 0.74866
 O710 O 0.26350 0.76805 0.72526
 Zr711 Zr 0.19757 0.74589 0.74960
 O712 O 0.21835 0.72277 0.72618
 Zr713 Zr 0.24168 0.74603 0.79224
 O714 O 0.26444 0.72298 0.77079
 Zr715 Zr 0.24167 0.74417 0.70387
 O716 O 0.21870 0.76757 0.72513
 Zr717 Zr 0.28570 0.74451 0.74651
 O718 O 0.26516 0.76779 0.77019
 Zr719 Zr 0.24248 0.70108 0.74756
 O720 O 0.21952 0.72213 0.77120
 O721 O 0.21840 0.76888 0.77210
 O722 O 0.26516 0.72118 0.72387
 C723 C 0.24424 0.80204 0.80476
 C724 C 0.18482 0.80199 0.74757
 C725 C 0.18587 0.74490 0.80602
 C726 C 0.24199 0.68802 0.69155
 C727 C 0.29737 0.74435 0.69005
 C728 C 0.29854 0.68843 0.74581
 H729 H 0.27353 0.77928 0.71497
 H730 H 0.27485 0.71284 0.78180
 H731 H 0.20812 0.77960 0.78273
 H732 H 0.20714 0.71259 0.71601
 H733 H 0.20013 0.75559 0.68349
 H734 H 0.17342 0.73708 0.70926
 H735 H 0.31054 0.73250 0.78576
 H736 H 0.28365 0.75580 0.81221
 H737 H 0.25308 0.78465 0.68046
 H738 H 0.22958 0.81002 0.70742
 H739 H 0.25442 0.67754 0.78760
 H740 H 0.23088 0.70487 0.81355
 H741 H 0.28236 0.81050 0.75793
 H742 H 0.30935 0.78457 0.73499
 H743 H 0.17773 0.70432 0.76223
 H744 H 0.20247 0.67715 0.73652
 O745 O 0.25113 0.32333 0.72650
 O746 O 0.22359 0.32999 0.76051
 O747 O 0.31510 0.29356 0.76331
 O748 O 0.32401 0.26111 0.78715
 O749 O 0.28650 0.25929 0.69710
 O750 O 0.25228 0.23219 0.68938
 O751 O 0.25050 0.22452 0.82420
 O752 O 0.27899 0.25788 0.83092
 O753 O 0.18750 0.25726 0.79390
 O754 O 0.18024 0.28638 0.75920
 O755 O 0.21743 0.19542 0.75970
 O756 O 0.25360 0.18810 0.73278
 O757 O 0.24921 0.19521 0.79425
 O758 O 0.27875 0.18773 0.75998
 O759 O 0.18778 0.22502 0.76002
 O760 O 0.18049 0.26053 0.73244
 O761 O 0.21671 0.25644 0.82395
 O762 O 0.24590 0.28503 0.83241
 O763 O 0.25244 0.29381 0.69672
 O764 O 0.22492 0.25982 0.68917
 O765 O 0.31579 0.25941 0.72714
 O766 O 0.32111 0.23058 0.76163
 O767 O 0.28544 0.32316 0.76130
 O768 O 0.24955 0.33053 0.78792
 Zr769 Zr 0.25210 0.30337 0.75995
 O770 O 0.22900 0.28191 0.78266
 Zr771 Zr 0.29558 0.26013 0.76041
 O772 O 0.27423 0.23677 0.78305
 Zr773 Zr 0.25288 0.26035 0.71638
 O774 O 0.22961 0.23707 0.73699
 Zr775 Zr 0.25014 0.25800 0.80458
 O776 O 0.27365 0.28181 0.78427
 Zr777 Zr 0.20748 0.25841 0.76062
 O778 O 0.22862 0.28195 0.73765
 Zr779 Zr 0.25089 0.21511 0.76087
 O780 O 0.27446 0.23639 0.73803
 O781 O 0.27545 0.28315 0.73730
 O782 O 0.22740 0.23503 0.78378
 C783 C 0.25160 0.31644 0.70378
 C784 C 0.30804 0.31623 0.76307
 C785 C 0.30908 0.25896 0.70436
 C786 C 0.24948 0.20195 0.81700
 C787 C 0.19417 0.25634 0.81666
 C788 C 0.19477 0.20237 0.75961
 H789 H 0.21885 0.29289 0.79311
 H790 H 0.21964 0.22700 0.72551
 H791 H 0.28619 0.29380 0.72706
 H792 H 0.28517 0.22662 0.79356
 H793 H 0.28984 0.27205 0.82696
 H794 H 0.31770 0.25267 0.80205
 H795 H 0.18443 0.24779 0.71998
 H796 H 0.21199 0.27143 0.69479
 H797 H 0.25549 0.29955 0.82703
 H798 H 0.26376 0.32819 0.79916
 H799 H 0.24068 0.19165 0.72038
 H800 H 0.26383 0.21924 0.69512
 H801 H 0.21070 0.32405 0.74901
 H802 H 0.18344 0.29802 0.77289
 H803 H 0.31601 0.21864 0.74878
 H804 H 0.29028 0.19102 0.77374
 O805 O 0.75830 0.68857 0.70777
 O806 O 0.78547 0.68237 0.74220
 O807 O 0.69408 0.71850 0.74454
 O808 O 0.68478 0.75137 0.76725
 O809 O 0.72211 0.75188 0.67713
 O810 O 0.75614 0.77920 0.66917
 O811 O 0.75979 0.78878 0.80368
 O812 O 0.73054 0.75656 0.81148
 O813 O 0.82176 0.75506 0.77395
 O814 O 0.82873 0.72613 0.73888
 O815 O 0.79111 0.81699 0.73937
 O816 O 0.75518 0.82369 0.71176
 O817 O 0.75829 0.81765 0.77328
 O818 O 0.72979 0.82432 0.73859
 O819 O 0.82092 0.78757 0.74006
 O820 O 0.82848 0.75216 0.71253
 O821 O 0.79251 0.75584 0.80392
 O822 O 0.75919 0.72777 0.81306
 O823 O 0.75711 0.71760 0.67745
 O824 O 0.78368 0.75190 0.66919
 O825 O 0.69315 0.75134 0.70745
 O826 O 0.68780 0.78155 0.74081
 O827 O 0.72379 0.68892 0.74302
 O828 O 0.75840 0.68266 0.76969
 Zr829 Zr 0.75697 0.70897 0.74088
 O830 O 0.78021 0.73074 0.76311
 Zr831 Zr 0.71333 0.75196 0.74062
 O832 O 0.73464 0.77566 0.76294
 Zr833 Zr 0.75586 0.75133 0.69651
 O834 O 0.77913 0.77495 0.71678
 Zr835 Zr 0.75893 0.75487 0.78476
 O836 O 0.73545 0.73090 0.76475
 Zr837 Zr 0.80148 0.75407 0.74070
 O838 O 0.78029 0.73018 0.71817
 Zr839 Zr 0.75777 0.79712 0.74033
 O840 O 0.73424 0.77547 0.71783
 O841 O 0.73348 0.72866 0.71786
 O842 O 0.78149 0.77767 0.76355
 C843 C 0.75826 0.69510 0.68491
 C844 C 0.70118 0.69584 0.74480
 C845 C 0.69959 0.75171 0.68460
 C846 C 0.75931 0.81127 0.79611
 C847 C 0.81506 0.75579 0.79672
 C848 C 0.81381 0.81016 0.73954
 H849 H 0.79069 0.71984 0.77329
 H850 H 0.78904 0.78496 0.70520
 H851 H 0.72289 0.71764 0.70785
 H852 H 0.72371 0.78593 0.77331
 H853 H 0.71814 0.74398 0.80679
 H854 H 0.69035 0.76133 0.78149
 H855 H 0.82455 0.76494 0.70009
 H856 H 0.79704 0.74098 0.67520
 H857 H 0.77127 0.71489 0.80854
 H858 H 0.74732 0.68878 0.78286
 H859 H 0.76835 0.82017 0.69962
 H860 H 0.74458 0.79216 0.67481
 H861 H 0.79840 0.68806 0.73062
 H862 H 0.82601 0.71468 0.75285
 H863 H 0.69249 0.79279 0.72717
 H864 H 0.71765 0.82065 0.75172
 O865 O 0.24935 0.68298 0.28226
 O866 O 0.22321 0.67484 0.24835
 O867 O 0.31373 0.71293 0.24651
 O868 O 0.32339 0.74486 0.22306
 O869 O 0.28329 0.74828 0.31162
 O870 O 0.24923 0.77431 0.31864
 O871 O 0.24835 0.77877 0.18245
 O872 O 0.27631 0.74684 0.17583
 O873 O 0.18563 0.74705 0.21394
 O874 O 0.17731 0.72058 0.24878
 O875 O 0.21607 0.81048 0.24523
 O876 O 0.25054 0.81943 0.27164
 O877 O 0.24807 0.80918 0.21130
 O878 O 0.27815 0.81661 0.24679
 O879 O 0.18624 0.78111 0.24604
 O880 O 0.17949 0.74570 0.27600
 O881 O 0.21472 0.74616 0.18379
 O882 O 0.24937 0.71675 0.17727
 O883 O 0.24944 0.71282 0.31174
 O884 O 0.22127 0.74762 0.31768
 O885 O 0.31321 0.74714 0.28227
 O886 O 0.31827 0.77643 0.24676
 O887 O 0.28445 0.68295 0.24811
 O888 O 0.24984 0.67571 0.22034
 Zr889 Zr 0.25077 0.70242 0.24877
 O890 O 0.22716 0.72305 0.22584
 Zr891 Zr 0.29377 0.74604 0.24842
 O892 O 0.27255 0.76804 0.22426
 Zr893 Zr 0.25025 0.74623 0.29160
 O894 O 0.22764 0.76938 0.27003
 Zr895 Zr 0.24850 0.74609 0.20319
 O896 O 0.27244 0.72374 0.22458
 Zr897 Zr 0.20565 0.74738 0.24703
 O898 O 0.22663 0.72402 0.27031
 Zr899 Zr 0.24916 0.79046 0.24550
 O900 O 0.27202 0.77000 0.26981
 O901 O 0.27344 0.72326 0.27156
 O902 O 0.22573 0.76983 0.22310
 C903 C 0.24896 0.69007 0.30488
 C904 C 0.30703 0.69018 0.24692
 C905 C 0.30599 0.74831 0.30489
 C906 C 0.24795 0.80159 0.18879
 C907 C 0.19217 0.74665 0.19118
 C908 C 0.19339 0.80374 0.24536
 H909 H 0.21674 0.71166 0.21614
 H910 H 0.21763 0.77992 0.28104
 H911 H 0.28404 0.71285 0.28221
 H912 H 0.28356 0.77781 0.21348
 H913 H 0.28968 0.73585 0.18169
 H914 H 0.31738 0.75220 0.20746
 H915 H 0.18170 0.76049 0.28646
 H916 H 0.20916 0.73487 0.31274
 H917 H 0.23527 0.70567 0.18058
 H918 H 0.26209 0.68094 0.20783
 H919 H 0.23933 0.81500 0.28534
 H920 H 0.25953 0.78798 0.31226
 H921 H 0.20949 0.68113 0.25864
 H922 H 0.18185 0.70697 0.23751
 H923 H 0.31417 0.78741 0.26077
 H924 H 0.28828 0.81455 0.23174
 O925 O 0.74567 0.30428 0.28539
 O926 O 0.77199 0.31068 0.25048
 O927 O 0.68033 0.27484 0.25028
 O928 O 0.67107 0.24259 0.22637
 O929 O 0.70964 0.24121 0.31610
 O930 O 0.74347 0.21348 0.32355
 O931 O 0.74559 0.20476 0.18893
 O932 O 0.71588 0.23681 0.18173
 O933 O 0.80747 0.23762 0.21802
 O934 O 0.81537 0.26648 0.25297
 O935 O 0.77730 0.17574 0.25235
 O936 O 0.74189 0.16911 0.28060
 O937 O 0.74424 0.17565 0.21912
 O938 O 0.71581 0.16899 0.25423
 O939 O 0.80705 0.20521 0.25143
 O940 O 0.81526 0.24044 0.27933
 O941 O 0.77796 0.23790 0.18824
 O942 O 0.74440 0.26590 0.18000
 O943 O 0.74484 0.27514 0.31561
 O944 O 0.77132 0.24053 0.32323
 O945 O 0.68005 0.24116 0.28635
 O946 O 0.67409 0.21175 0.25266
 O947 O 0.71037 0.30411 0.25110
 O948 O 0.74441 0.31051 0.22352
 Zr949 Zr 0.74354 0.28406 0.25223
 O950 O 0.76638 0.26238 0.22955
 Zr951 Zr 0.69973 0.24125 0.25287
 O952 O 0.72065 0.21763 0.23007
 Zr953 Zr 0.74306 0.24148 0.29634
 O954 O 0.76586 0.21781 0.27562
 Zr955 Zr 0.74468 0.23853 0.20803
 O956 O 0.72154 0.26242 0.22855
 Zr957 Zr 0.78784 0.23880 0.25153
 O958 O 0.76717 0.26269 0.27447
 Zr959 Zr 0.74405 0.19590 0.25221
 O960 O 0.72099 0.21755 0.27519
 O961 O 0.72040 0.26430 0.27549
 O962 O 0.76742 0.21550 0.22880
 C963 C 0.74600 0.29767 0.30822
 C964 C 0.68764 0.29744 0.25012
 C965 C 0.68699 0.24102 0.30906
 C966 C 0.74527 0.18221 0.19635
 C967 C 0.80057 0.23742 0.19531
 C968 C 0.79999 0.18260 0.25172
 H969 H 0.77676 0.27332 0.21931
 H970 H 0.77593 0.20768 0.28696
 H971 H 0.71006 0.27524 0.28583
 H972 H 0.70958 0.20745 0.21975
 H973 H 0.70356 0.24941 0.18658
 H974 H 0.67610 0.23214 0.21228
 H975 H 0.81172 0.22730 0.29151
 H976 H 0.78465 0.25139 0.31707
 H977 H 0.75644 0.27883 0.18455
 H978 H 0.73274 0.30469 0.21071
 H979 H 0.75521 0.17256 0.29260
 H980 H 0.73183 0.20059 0.31791
 H981 H 0.78528 0.30476 0.26154
 H982 H 0.81253 0.27797 0.23905
 H983 H 0.67912 0.20018 0.26589
 H984 H 0.70392 0.17237 0.24079
 C985 C 0.25517 0.11507 0.11247
 C986 C 0.23992 0.09459 0.11624
 C987 C 0.23811 0.07608 0.09847
 C988 C 0.25155 0.07726 0.07600
 C989 C 0.26680 0.09828 0.07249
 C990 C 0.26848 0.11681 0.09038
 C991 C 0.25703 0.13452 0.13164
 C992 C 0.25700 0.15961 0.12507
 C993 C 0.25762 0.17787 0.14327
 C994 C 0.25833 0.17143 0.16844
 C995 C 0.25883 0.14631 0.17494
 C996 C 0.25820 0.12809 0.15675
 H997 H 0.22701 0.06032 0.10350
 H998 H 0.27683 0.10142 0.05556
 H999 H 0.25718 0.19704 0.13759
 H1000 H 0.25951 0.14066 0.19411
 H1001 H 0.28040 0.13248 0.08695
 H1002 H 0.25586 0.16512 0.10588
 H1003 H 0.22928 0.09281 0.13307
 H1004 H 0.25866 0.10890 0.16235
 C1005 C 0.75776 0.61796 0.61081
 C1006 C 0.74720 0.59501 0.61664
 C1007 C 0.74568 0.57639 0.59892
 C1008 C 0.75450 0.58028 0.57481
 C1009 C 0.76522 0.60317 0.56897
 C1010 C 0.76684 0.62180 0.58677
 C1011 C 0.75884 0.63786 0.62967
 C1012 C 0.75431 0.66254 0.62306
 C1013 C 0.75443 0.68112 0.64094
 C1014 C 0.75894 0.67546 0.66589
 C1015 C 0.76373 0.65082 0.67246
 C1016 C 0.76376 0.63226 0.65456
 H1017 H 0.73772 0.55884 0.60419
 H1018 H 0.77205 0.60681 0.55054
 H1019 H 0.75054 0.69988 0.63522
 H1020 H 0.76747 0.64584 0.69147
 H1021 H 0.77534 0.63918 0.58175
 H1022 H 0.75009 0.66744 0.60414
 H1023 H 0.73973 0.59151 0.63485
 H1024 H 0.76774 0.61351 0.66021
 C1025 C 0.74634 0.88566 0.11903
 C1026 C 0.75618 0.87871 0.09606
 C1027 C 0.75722 0.89553 0.07659
 C1028 C 0.74864 0.91981 0.07962
 C1029 C 0.73889 0.92686 0.10261
 C1030 C 0.73776 0.90995 0.12213
 C1031 C 0.74512 0.86748 0.13953
 C1032 C 0.75054 0.87446 0.16394
 C1033 C 0.75049 0.85693 0.18293
 C1034 C 0.74514 0.83205 0.17785
 C1035 C 0.73924 0.82522 0.15352
 C1036 C 0.73913 0.84273 0.13464
 H1037 H 0.76451 0.88939 0.05903
 H1038 H 0.73233 0.94549 0.10559
 H1039 H 0.75521 0.86276 0.20146
 H1040 H 0.73474 0.80628 0.14901
 H1041 H 0.72990 0.91580 0.13954
 H1042 H 0.75546 0.89333 0.16826
 H1043 H 0.76329 0.86027 0.09315
 H1044 H 0.73434 0.83684 0.11614
 C1045 C 0.25457 0.39144 0.62769
 C1046 C 0.23407 0.40674 0.62348
 C1047 C 0.23396 0.42331 0.60367
 C1048 C 0.25448 0.42513 0.58792
 C1049 C 0.27530 0.41045 0.59266
 C1050 C 0.27528 0.39366 0.61227
 C1051 C 0.25393 0.37245 0.64738
 C1052 C 0.26138 0.34818 0.64224
 C1053 C 0.26033 0.32999 0.66048
 C1054 C 0.25206 0.33574 0.68441
 C1055 C 0.24476 0.36009 0.68962
 C1056 C 0.24549 0.37823 0.67121
 H1057 H 0.21774 0.43453 0.60048
 H1058 H 0.29127 0.41137 0.58069
 H1059 H 0.26625 0.31146 0.65590
 H1060 H 0.23832 0.36508 0.70787
 H1061 H 0.29139 0.38221 0.61526
 H1062 H 0.26770 0.34318 0.62394
 H1063 H 0.21783 0.40529 0.63502
 H1064 H 0.23974 0.39684 0.67566
 C1065 C 0.74780 0.12030 0.88366
 C1066 C 0.73532 0.09796 0.87966
 C1067 C 0.73651 0.07889 0.89701
 C1068 C 0.75032 0.08152 0.91900
 C1069 C 0.76256 0.10427 0.92288
 C1070 C 0.76131 0.12326 0.90551
 C1071 C 0.74735 0.14018 0.86478
 C1072 C 0.74573 0.16516 0.87170
 C1073 C 0.74612 0.18381 0.85382
 C1074 C 0.74812 0.17786 0.82864
 C1075 C 0.74954 0.15284 0.82180
 C1076 C 0.74919 0.13427 0.83963
 H1077 H 0.72730 0.06181 0.89242
 H1078 H 0.77252 0.10809 0.93973
 H1079 H 0.74492 0.20286 0.85973
 H1080 H 0.75121 0.14752 0.80260
 H1081 H 0.77125 0.14022 0.90909
 H1082 H 0.74402 0.17027 0.89095
 H1083 H 0.72459 0.09518 0.86303
 H1084 H 0.75089 0.11526 0.83371
 C1085 C 0.24936 0.61307 0.37937
 C1086 C 0.23826 0.61695 0.40247
 C1087 C 0.23804 0.59827 0.42024
 C1088 C 0.24880 0.57515 0.41534
 C1089 C 0.26003 0.57128 0.39229
 C1090 C 0.26031 0.59003 0.37450
 C1091 C 0.24923 0.63291 0.36037
 C1092 C 0.24546 0.62713 0.33537
 C1093 C 0.24521 0.64570 0.31748
 C1094 C 0.24861 0.67057 0.32413
 C1095 C 0.25224 0.67641 0.34915
 C1096 C 0.25260 0.65778 0.36705
 H1097 H 0.22964 0.60205 0.43796
 H1098 H 0.26837 0.55367 0.38789
 H1099 H 0.24225 0.64051 0.29840
 H1100 H 0.25512 0.69533 0.35489
 H1101 H 0.26929 0.58654 0.35700
 H1102 H 0.24238 0.60824 0.32963
 H1103 H 0.22943 0.63436 0.40674
 H1104 H 0.25588 0.66283 0.38611
 C1105 C 0.24731 0.87801 0.87993
 C1106 C 0.23750 0.90144 0.87467
 C1107 C 0.23730 0.91988 0.89262
 C1108 C 0.24669 0.91535 0.91640
 C1109 C 0.25656 0.89194 0.92170
 C1110 C 0.25689 0.87348 0.90365
 C1111 C 0.24726 0.85839 0.86076
 C1112 C 0.24213 0.83376 0.86710
 C1113 C 0.24140 0.81545 0.84897
 C1114 C 0.24564 0.82136 0.82403
 C1115 C 0.25093 0.84595 0.81771
 C1116 C 0.25183 0.86423 0.83587
 H1117 H 0.22994 0.93782 0.88777
 H1118 H 0.26378 0.88779 0.93987
 H1119 H 0.23711 0.79671 0.85446
 H1120 H 0.25448 0.85110 0.79872
 H1121 H 0.26483 0.85572 0.90823
 H1122 H 0.23815 0.82869 0.88602
 H1123 H 0.22968 0.90547 0.85672
 H1124 H 0.25626 0.88293 0.83041
 C1125 C 0.74830 0.37511 0.38213
 C1126 C 0.73867 0.39848 0.37626
 C1127 C 0.73843 0.41737 0.39377
 C1128 C 0.74761 0.41338 0.41773
 C1129 C 0.75724 0.39002 0.42367
 C1130 C 0.75759 0.37111 0.40607
 C1131 C 0.74845 0.35508 0.36334
 C1132 C 0.74333 0.33054 0.37006
 C1133 C 0.74279 0.31187 0.35224
 C1134 C 0.74725 0.31732 0.32724
 C1135 C 0.75258 0.34181 0.32055
 C1136 C 0.75327 0.36043 0.33838
 H1137 H 0.73126 0.43523 0.38840
 H1138 H 0.76429 0.38626 0.44200
 H1139 H 0.73848 0.29323 0.35803
 H1140 H 0.75631 0.34664 0.30150
 H1141 H 0.76539 0.35342 0.41114
 H1142 H 0.73918 0.32581 0.38904
 H1143 H 0.73104 0.40214 0.35814
 H1144 H 0.75774 0.37903 0.33261
 C1145 C 0.12300 0.24822 0.11411
 C1146 C 0.12434 0.26133 0.09180
 C1147 C 0.10483 0.26053 0.07486
 C1148 C 0.08341 0.24639 0.07967
 C1149 C 0.08258 0.23301 0.10209
 C1150 C 0.10201 0.23392 0.11892
 C1151 C 0.14312 0.24961 0.13266
 C1152 C 0.13740 0.25150 0.15787
 C1153 C 0.15605 0.25165 0.17561
 C1154 C 0.18096 0.24996 0.16860
 C1155 C 0.18676 0.24862 0.14331
 C1156 C 0.16801 0.24847 0.12551
 H1157 H 0.10711 0.27052 0.05773
 H1158 H 0.06649 0.22260 0.10755
 H1159 H 0.15085 0.25292 0.19487
 H1160 H 0.20574 0.24729 0.13726
 H1161 H 0.10052 0.22342 0.13588
 H1162 H 0.11842 0.25288 0.16393
 H1163 H 0.14034 0.27252 0.08758
 H1164 H 0.17296 0.24684 0.10621
 C1165 C 0.62069 0.75081 0.61217
 C1166 C 0.62388 0.74123 0.58825
 C1167 C 0.60432 0.74118 0.57135
 C1168 C 0.58112 0.75071 0.57801
 C1169 C 0.57802 0.76033 0.60191
 C1170 C 0.59755 0.76049 0.61870
 C1171 C 0.64119 0.75054 0.63047
 C1172 C 0.63632 0.74569 0.65550
 C1173 C 0.65525 0.74614 0.67294
 C1174 C 0.67966 0.75125 0.66584
 C1175 C 0.68468 0.75571 0.64075
 C1176 C 0.66564 0.75543 0.62326
 H1177 H 0.60740 0.73385 0.55302
 H1178 H 0.56034 0.76746 0.60784
 H1179 H 0.65073 0.74228 0.69204
 H1180 H 0.70327 0.75972 0.63465
 H1181 H 0.59451 0.76836 0.63681
 H1182 H 0.61782 0.74131 0.66163
 H1183 H 0.64140 0.73342 0.58269
 H1184 H 0.67000 0.75949 0.60418
 C1185 C 0.11009 0.74849 0.88109
 C1186 C 0.09351 0.72890 0.88424
 C1187 C 0.07547 0.72981 0.90262
 C1188 C 0.07326 0.75053 0.91832
 C1189 C 0.08971 0.77043 0.91451
 C1190 C 0.10796 0.76929 0.89632
 C1191 C 0.12961 0.74719 0.86200
 C1192 C 0.15401 0.75382 0.86768
 C1193 C 0.17242 0.75261 0.84964
 C1194 C 0.16671 0.74504 0.82549
 C1195 C 0.14228 0.73837 0.81987
 C1196 C 0.12396 0.73929 0.83798
 H1197 H 0.06285 0.71440 0.90386
 H1198 H 0.08954 0.78652 0.92631
 H1199 H 0.19103 0.75801 0.85452
 H1200 H 0.13728 0.73244 0.80144
 H1201 H 0.12046 0.78473 0.89416
 H1202 H 0.15887 0.75976 0.88614
 H1203 H 0.09471 0.71266 0.87265
 H1204 H 0.10526 0.73424 0.83309
 C1205 C 0.61114 0.24353 0.38433
 C1206 C 0.58802 0.25441 0.37977
 C1207 C 0.56993 0.25492 0.39818
 C1208 C 0.57459 0.24456 0.42152
 C1209 C 0.59773 0.23373 0.42602
 C1210 C 0.61572 0.23313 0.40764
 C1211 C 0.63051 0.24303 0.36495
 C1212 C 0.65541 0.24677 0.37119
 C1213 C 0.67373 0.24590 0.35311
 C1214 C 0.66759 0.24143 0.32830
 C1215 C 0.64268 0.23782 0.32202
 C1216 C 0.62436 0.23856 0.34015
 H1217 H 0.55224 0.26326 0.39409
 H1218 H 0.60210 0.22596 0.44392
 H1219 H 0.69270 0.24903 0.35856
 H1220 H 0.63731 0.23427 0.30309
 H1221 H 0.63319 0.22433 0.41167
 H1222 H 0.66073 0.25069 0.39006
 H1223 H 0.58401 0.26281 0.36208
 H1224 H 0.60541 0.23527 0.33479
 C1225 C 0.88057 0.75320 0.12147
 C1226 C 0.87644 0.73965 0.09982
 C1227 C 0.89420 0.73880 0.08118
 C1228 C 0.91691 0.75146 0.08349
 C1229 C 0.92094 0.76492 0.10550
 C1230 C 0.90307 0.76573 0.12415
 C1231 C 0.86134 0.75431 0.14105
 C1232 C 0.86782 0.75327 0.16616
 C1233 C 0.84964 0.75390 0.18449
 C1234 C 0.82452 0.75556 0.17814
 C1235 C 0.81808 0.75675 0.15301
 C1236 C 0.83625 0.75617 0.13472
 H1237 H 0.88929 0.72894 0.06455
 H1238 H 0.93815 0.77435 0.10898
 H1239 H 0.85530 0.75290 0.20364
 H1240 H 0.79896 0.75823 0.14741
 H1241 H 0.90682 0.77642 0.14061
 H1242 H 0.88694 0.75154 0.17166
 H1243 H 0.85937 0.72961 0.09723
 H1244 H 0.83064 0.75743 0.11557
 C1245 C 0.38424 0.25575 0.62829
 C1246 C 0.37839 0.24496 0.60545
 C1247 C 0.39591 0.24367 0.58664
 C1248 C 0.41987 0.25293 0.59021
 C1249 C 0.42583 0.26363 0.61309
 C1250 C 0.40821 0.26501 0.63195
 C1251 C 0.36526 0.25732 0.64805
 C1252 C 0.37145 0.25319 0.67293
 C1253 C 0.35329 0.25387 0.69128
 C1254 C 0.32853 0.25859 0.68513
 C1255 C 0.32244 0.26303 0.66029
 C1256 C 0.34057 0.26249 0.64202
 H1257 H 0.39052 0.23568 0.56914
 H1258 H 0.44417 0.27077 0.61649
 H1259 H 0.35860 0.25035 0.71024
 H1260 H 0.30362 0.26706 0.65491
 H1261 H 0.41325 0.27363 0.64926
 H1262 H 0.39024 0.24890 0.67816
 H1263 H 0.36024 0.23732 0.60211
 H1264 H 0.33524 0.26628 0.62312
 C1265 C 0.87959 0.25407 0.88794
 C1266 C 0.87653 0.26657 0.91042
 C1267 C 0.89425 0.26465 0.92912
 C1268 C 0.91563 0.25004 0.92595
 C1269 C 0.91838 0.23753 0.90319
 C1270 C 0.90068 0.23951 0.88460
 C1271 C 0.86078 0.25583 0.86807
 C1272 C 0.86793 0.25740 0.84316
 C1273 C 0.85026 0.25781 0.82437
 C1274 C 0.82499 0.25671 0.83007
 C1275 C 0.81785 0.25564 0.85503
 C1276 C 0.83553 0.25519 0.87379
 H1277 H 0.89052 0.27410 0.94628
 H1278 H 0.93469 0.22688 0.89894
 H1279 H 0.85643 0.25878 0.80538
 H1280 H 0.79856 0.25471 0.86012
 H1281 H 0.90351 0.22946 0.86756
 H1282 H 0.88725 0.25832 0.83818
 H1283 H 0.86045 0.27800 0.91353
 H1284 H 0.82942 0.25368 0.89277
 C1285 C 0.37824 0.74803 0.38365
 C1286 C 0.37958 0.76771 0.40048
 C1287 C 0.39701 0.76753 0.41950
 C1288 C 0.41328 0.74754 0.42224
 C1289 C 0.41166 0.72764 0.40568
 C1290 C 0.39440 0.72795 0.38649
 C1291 C 0.35996 0.74846 0.36328
 C1292 C 0.36675 0.74173 0.33915
 C1293 C 0.34940 0.74214 0.32001
 C1294 C 0.32484 0.74900 0.32469
 C1295 C 0.31814 0.75578 0.34885
 C1296 C 0.33552 0.75562 0.36787
 H1297 H 0.39781 0.78305 0.43206
 H1298 H 0.42417 0.71213 0.40722
 H1299 H 0.35512 0.73670 0.30164
 H1300 H 0.29939 0.76119 0.35311
 H1301 H 0.39358 0.71243 0.37392
 H1302 H 0.38555 0.73635 0.33507
 H1303 H 0.36744 0.78348 0.39864
 H1304 H 0.32973 0.76070 0.38632
 C1305 C 0.12365 0.11564 0.24915
 C1306 C 0.10012 0.12089 0.23961
 C1307 C 0.08167 0.10290 0.23954
 C1308 C 0.08628 0.07908 0.24881
 C1309 C 0.10980 0.07380 0.25839
 C1310 C 0.12826 0.09187 0.25858
 C1311 C 0.14327 0.13488 0.24901
 C1312 C 0.16789 0.12861 0.24385
 C1313 C 0.18621 0.14676 0.24317
 C1314 C 0.18036 0.17168 0.24751
 C1315 C 0.15577 0.17796 0.25278
 C1316 C 0.13748 0.15977 0.25361
 H1317 H 0.06366 0.10780 0.23242
 H1318 H 0.11403 0.05561 0.26553
 H1319 H 0.20493 0.14126 0.23891
 H1320 H 0.15062 0.19693 0.25639
 H1321 H 0.14608 0.08727 0.26633
 H1322 H 0.17297 0.10970 0.23983
 H1323 H 0.09598 0.13886 0.23190
 H1324 H 0.11879 0.16522 0.25807
 C1325 C 0.62502 0.62086 0.74844
 C1326 C 0.60162 0.62652 0.73882
 C1327 C 0.58291 0.60886 0.73863
 C1328 C 0.58711 0.58497 0.74786
 C1329 C 0.61052 0.57922 0.75746
 C1330 C 0.62927 0.59698 0.75775
 C1331 C 0.64482 0.63984 0.74855
 C1332 C 0.66936 0.63345 0.74313
 C1333 C 0.68773 0.65155 0.74227
 C1334 C 0.68197 0.67647 0.74671
 C1335 C 0.65750 0.68278 0.75249
 C1336 C 0.63919 0.66469 0.75349
 H1337 H 0.56499 0.61407 0.73148
 H1338 H 0.61441 0.56094 0.76455
 H1339 H 0.70637 0.64605 0.73766
 H1340 H 0.65244 0.70175 0.75623
 H1341 H 0.64702 0.59208 0.76551
 H1342 H 0.67427 0.61455 0.73893
 H1343 H 0.59780 0.64459 0.73118
 H1344 H 0.62058 0.67018 0.75822
 C1345 C 0.88622 0.12418 0.75071
 C1346 C 0.88378 0.10340 0.73553
 C1347 C 0.90240 0.08567 0.73441
 C1348 C 0.92427 0.08805 0.74849
 C1349 C 0.92651 0.10909 0.76376
 C1350 C 0.90781 0.12688 0.76476
 C1351 C 0.86631 0.14298 0.75166
 C1352 C 0.87204 0.16825 0.75181
 C1353 C 0.85330 0.18595 0.75204
 C1354 C 0.82834 0.17880 0.75217
 C1355 C 0.82262 0.15349 0.75223
 C1356 C 0.84139 0.13580 0.75196
 H1357 H 0.89884 0.06960 0.72315
 H1358 H 0.94300 0.11252 0.77445
 H1359 H 0.85843 0.20526 0.75201
 H1360 H 0.80363 0.14731 0.75248
 H1361 H 0.91020 0.14271 0.77672
 H1362 H 0.89105 0.17437 0.75129
 H1363 H 0.86742 0.10085 0.72435
 H1364 H 0.83639 0.11645 0.75220
 C1365 C 0.38453 0.61647 0.24751
 C1366 C 0.38059 0.59324 0.23671
 C1367 C 0.39927 0.57553 0.23656
 C1368 C 0.42244 0.58061 0.24707
 C1369 C 0.42639 0.60379 0.25800
 C1370 C 0.40763 0.62153 0.25821
 C1371 C 0.36463 0.63534 0.24741
 C1372 C 0.37018 0.66031 0.24320
 C1373 C 0.35147 0.67804 0.24288
 C1374 C 0.32673 0.67121 0.24667
 C1375 C 0.32116 0.64621 0.25080
 C1376 C 0.33990 0.62849 0.25122
 H1377 H 0.39545 0.55771 0.22838
 H1378 H 0.44406 0.60832 0.26613
 H1379 H 0.35645 0.69711 0.23957
 H1380 H 0.30234 0.64033 0.25401
 H1381 H 0.41116 0.63915 0.26695
 H1382 H 0.38897 0.66614 0.23980
 H1383 H 0.36313 0.58883 0.22807
 H1384 H 0.33504 0.60945 0.25487
 C1385 C 0.11145 0.87986 0.74534
 C1386 C 0.11634 0.90134 0.73177
 C1387 C 0.09971 0.92097 0.73165
 C1388 C 0.07736 0.91985 0.74507
 C1389 C 0.07239 0.89788 0.75833
 C1390 C 0.08917 0.87822 0.75840
 C1391 C 0.12997 0.85965 0.74627
 C1392 C 0.12279 0.83474 0.74512
 C1393 C 0.14052 0.81593 0.74552
 C1394 C 0.16578 0.82166 0.74711
 C1395 C 0.17284 0.84660 0.74850
 C1396 C 0.15518 0.86531 0.74813
 H1397 H 0.10534 0.93741 0.72186
 H1398 H 0.05530 0.89532 0.76826
 H1399 H 0.13443 0.79692 0.74445
 H1400 H 0.19207 0.85177 0.74998
 H1401 H 0.08486 0.86186 0.76907
 H1402 H 0.10351 0.82981 0.74348
 H1403 H 0.13326 0.90311 0.72128
 H1404 H 0.16130 0.88428 0.74956
 C1405 C 0.61443 0.37542 0.24779
 C1406 C 0.62064 0.39844 0.23757
 C1407 C 0.60366 0.41778 0.23742
 C1408 C 0.57988 0.41458 0.24725
 C1409 C 0.57351 0.39147 0.25724
 C1410 C 0.59060 0.37211 0.25751
 C1411 C 0.63297 0.35522 0.24859
 C1412 C 0.62613 0.33056 0.24426
 C1413 C 0.64381 0.31174 0.24474
 C1414 C 0.66873 0.31720 0.24944
 C1415 C 0.67550 0.34185 0.25388
 C1416 C 0.65784 0.36057 0.25356
 H1417 H 0.60936 0.43541 0.22992
 H1418 H 0.55528 0.38832 0.26474
 H1419 H 0.63798 0.29295 0.24122
 H1420 H 0.69445 0.34671 0.25787
 H1421 H 0.58530 0.35467 0.26573
 H1422 H 0.60717 0.32585 0.24012
 H1423 H 0.63868 0.40154 0.22959
 H1424 H 0.66368 0.37927 0.25750
 C1425 C 0.87917 0.89012 0.25793
 C1426 C 0.88353 0.90395 0.23649
 C1427 C 0.90249 0.92138 0.23577
 C1428 C 0.91750 0.92578 0.25666
 C1429 C 0.91235 0.91229 0.27842
 C1430 C 0.89364 0.89454 0.27891
 C1431 C 0.85989 0.87078 0.25815
 C1432 C 0.86524 0.84699 0.26698
 C1433 C 0.84732 0.82844 0.26628
 C1434 C 0.82358 0.83346 0.25712
 C1435 C 0.81817 0.85740 0.24863
 C1436 C 0.83620 0.87582 0.24897
 H1437 H 0.90479 0.93180 0.21889
 H1438 H 0.92355 0.91427 0.29482
 H1439 H 0.85201 0.81021 0.27300
 H1440 H 0.80009 0.86182 0.24135
 H1441 H 0.89054 0.88414 0.29571
 H1442 H 0.88345 0.84263 0.27395
 H1443 H 0.87253 0.90092 0.22007
 H1444 H 0.83162 0.89406 0.24217
 C1445 C 0.38365 0.39163 0.76251
 C1446 C 0.37948 0.41582 0.77094
 C1447 C 0.39783 0.43384 0.76874
 C1448 C 0.42072 0.42802 0.75807
 C1449 C 0.42494 0.40376 0.74993
 C1450 C 0.40662 0.38583 0.75203
 C1451 C 0.36405 0.37255 0.76404
 C1452 C 0.37000 0.34791 0.76963
 C1453 C 0.35181 0.32967 0.76960
 C1454 C 0.32719 0.33568 0.76416
 C1455 C 0.32113 0.36043 0.75915
 C1456 C 0.33936 0.37864 0.75903
 H1457 H 0.39398 0.45240 0.77508
 H1458 H 0.44253 0.39853 0.74204
 H1459 H 0.35707 0.31083 0.77376
 H1460 H 0.30236 0.36570 0.75477
 H1461 H 0.41034 0.36748 0.74505
 H1462 H 0.38878 0.34269 0.77401
 H1463 H 0.36206 0.42081 0.77934
 H1464 H 0.33421 0.39737 0.75432
 C1465 C 0.11770 0.25221 0.89114
 C1466 C 0.12047 0.23852 0.91297
 C1467 C 0.10180 0.23822 0.93078
 C1468 C 0.07976 0.25175 0.92734
 C1469 C 0.07731 0.26549 0.90525
 C1470 C 0.09596 0.26571 0.88754
 C1471 C 0.13738 0.25258 0.87211
 C1472 C 0.13131 0.25172 0.84690
 C1473 C 0.14972 0.25290 0.82892
 C1474 C 0.17465 0.25492 0.83574
 C1475 C 0.18074 0.25546 0.86099
 C1476 C 0.16230 0.25432 0.87897
 H1477 H 0.10528 0.22795 0.94754
 H1478 H 0.06060 0.27541 0.90081
 H1479 H 0.14437 0.25218 0.80966
 H1480 H 0.19975 0.25699 0.86692
 H1481 H 0.09333 0.27660 0.87097
 H1482 H 0.11229 0.24998 0.84105
 H1483 H 0.13705 0.22785 0.91622
 H1484 H 0.16752 0.25529 0.89825
 C1485 C 0.61623 0.75203 0.38734
 C1486 C 0.59343 0.74086 0.38215
 C1487 C 0.57504 0.73968 0.40011
 C1488 C 0.57900 0.74946 0.42383
 C1489 C 0.60181 0.76060 0.42909
 C1490 C 0.62023 0.76187 0.41104
 C1491 C 0.63568 0.75330 0.36805
 C1492 C 0.66061 0.74964 0.37416
 C1493 C 0.67880 0.75036 0.35590
 C1494 C 0.67248 0.75466 0.33107
 C1495 C 0.64757 0.75842 0.32498
 C1496 C 0.62941 0.75783 0.34326
 H1497 H 0.55754 0.73136 0.39528
 H1498 H 0.60551 0.76815 0.44722
 H1499 H 0.69780 0.74724 0.36123
 H1500 H 0.64206 0.76195 0.30608
 H1501 H 0.63750 0.77082 0.41556
 H1502 H 0.66603 0.74575 0.39301
 H1503 H 0.58984 0.73281 0.36422
 H1504 H 0.61043 0.76115 0.33797
 C1505 C 0.88960 0.75924 0.87346
 C1506 C 0.88639 0.77496 0.89374
 C1507 C 0.90306 0.77475 0.91338
 C1508 C 0.92367 0.75875 0.91347
 C1509 C 0.92708 0.74346 0.89256
 C1510 C 0.91033 0.74376 0.87289
 C1511 C 0.87077 0.75839 0.85354
 C1512 C 0.87762 0.75668 0.82856
 C1513 C 0.85962 0.75590 0.81001
 C1514 C 0.83440 0.75668 0.81610
 C1515 C 0.82766 0.75832 0.84112
 C1516 C 0.84559 0.75914 0.85956
 H1517 H 0.89868 0.78637 0.92898
 H1518 H 0.94295 0.73151 0.89086
 H1519 H 0.86546 0.75469 0.79093
 H1520 H 0.80845 0.75893 0.84657
 H1521 H 0.91333 0.73142 0.85745
 H1522 H 0.89689 0.75627 0.82335
 H1523 H 0.87072 0.78732 0.89461
 H1524 H 0.83969 0.76003 0.87864
 C1525 C 0.38682 0.24920 0.38007
 C1526 C 0.38052 0.25997 0.40280
 C1527 C 0.39741 0.26053 0.42221
 C1528 C 0.42116 0.25053 0.41937
 C1529 C 0.42761 0.23996 0.39656
 C1530 C 0.41062 0.23931 0.37710
 C1531 C 0.36838 0.24808 0.35980
 C1532 C 0.37528 0.25224 0.33512
 C1533 C 0.35760 0.25184 0.31628
 C1534 C 0.33265 0.24735 0.32176
 C1535 C 0.32586 0.24291 0.34641
 C1536 C 0.34350 0.24318 0.36516
 H1537 H 0.39168 0.26848 0.43962
 H1538 H 0.44583 0.23230 0.39372
 H1539 H 0.36343 0.25543 0.29749
 H1540 H 0.30686 0.23913 0.35129
 H1541 H 0.41597 0.23071 0.35988
 H1542 H 0.39426 0.25631 0.33043
 H1543 H 0.36249 0.26809 0.40560
 H1544 H 0.33764 0.23939 0.38389
 C1545 C 0.11330 0.74725 0.11901
 C1546 C 0.11127 0.72849 0.10122
 C1547 C 0.09215 0.72889 0.08390
 C1548 C 0.07480 0.74817 0.08387
 C1549 C 0.07673 0.76682 0.10178
 C1550 C 0.09571 0.76631 0.11922
 C1551 C 0.13363 0.74698 0.13735
 C1552 C 0.12881 0.75239 0.16222
 C1553 C 0.14783 0.75225 0.17957
 C1554 C 0.17221 0.74685 0.17247
 C1555 C 0.17708 0.74158 0.14753
 C1556 C 0.15794 0.74152 0.13016
 H1557 H 0.09127 0.71444 0.07012
 H1558 H 0.06355 0.78183 0.10225
 H1559 H 0.14340 0.75650 0.19860
 H1560 H 0.19562 0.73734 0.14146
 H1561 H 0.09692 0.78110 0.13261
 H1562 H 0.11023 0.75644 0.16832
 H1563 H 0.12443 0.71346 0.10079
 H1564 H 0.16220 0.73753 0.11104
 C1565 C 0.61664 0.25121 0.62115
 C1566 C 0.62072 0.26121 0.59757
 C1567 C 0.60190 0.26141 0.57999
 C1568 C 0.57848 0.25177 0.58557
 C1569 C 0.57441 0.24161 0.60909
 C1570 C 0.59329 0.24132 0.62668
 C1571 C 0.63657 0.25146 0.63998
 C1572 C 0.63109 0.25660 0.66479
 C1573 C 0.64977 0.25706 0.68252
 C1574 C 0.67443 0.25252 0.67587
 C1575 C 0.67997 0.24753 0.65103
 C1576 C 0.66123 0.24693 0.63329
 H1577 H 0.60580 0.26897 0.56189
 H1578 H 0.55655 0.23414 0.61400
 H1579 H 0.64484 0.26120 0.70145
 H1580 H 0.69875 0.24382 0.64532
 H1581 H 0.58965 0.23319 0.64458
 H1582 H 0.61238 0.26063 0.67048
 H1583 H 0.63838 0.26921 0.59279
 H1584 H 0.66602 0.24262 0.61437
 C1585 C 0.87691 0.23771 0.12048
 C1586 C 0.87285 0.22917 0.09628
 C1587 C 0.89143 0.23091 0.07843
 C1588 C 0.91446 0.24123 0.08439
 C1589 C 0.91855 0.24950 0.10864
 C1590 C 0.90000 0.24787 0.12641
 C1591 C 0.85712 0.23650 0.13944
 C1592 C 0.86285 0.23111 0.16419
 C1593 C 0.84450 0.23128 0.18228
 C1594 C 0.81992 0.23665 0.17603
 C1595 C 0.81407 0.24147 0.15119
 C1596 C 0.83247 0.24148 0.13312
 H1597 H 0.88765 0.22449 0.05988
 H1598 H 0.93621 0.25713 0.11401
 H1599 H 0.84959 0.22715 0.20118
 H1600 H 0.79532 0.24571 0.14574
 H1601 H 0.90367 0.25494 0.14474
 H1602 H 0.88156 0.22671 0.16961
 H1603 H 0.85537 0.22099 0.09118
 H1604 H 0.82746 0.24601 0.11430
 C1605 C 0.37136 0.74705 0.61301
 C1606 C 0.37445 0.72700 0.59688
 C1607 C 0.39320 0.72725 0.57915
 C1608 C 0.40900 0.74769 0.57700
 C1609 C 0.40547 0.76803 0.59268
 C1610 C 0.38693 0.76765 0.61061
 C1611 C 0.35236 0.74626 0.63269
 C1612 C 0.35832 0.75328 0.65693
 C1613 C 0.34056 0.75236 0.67560
 C1614 C 0.31634 0.74470 0.67036
 C1615 C 0.31039 0.73770 0.64607
 C1616 C 0.32827 0.73832 0.62747
 H1617 H 0.39547 0.71139 0.56720
 H1618 H 0.41753 0.78392 0.59156
 H1619 H 0.34574 0.75792 0.69409
 H1620 H 0.29193 0.73163 0.64145
 H1621 H 0.38479 0.78343 0.62267
 H1622 H 0.37685 0.75920 0.66150
 H1623 H 0.36278 0.71085 0.59842
 H1624 H 0.32318 0.73292 0.60890
 C1625 C 0.24561 0.12547 0.89163
 C1626 C 0.22499 0.10991 0.89386
 C1627 C 0.22497 0.09054 0.91095
 C1628 C 0.24570 0.08616 0.92588
 C1629 C 0.26615 0.10196 0.92394
 C1630 C 0.26604 0.12153 0.90710
 C1631 C 0.24617 0.14523 0.87269
 C1632 C 0.25446 0.16904 0.87868
 C1633 C 0.25538 0.18752 0.86066
 C1634 C 0.24839 0.18245 0.83617
 C1635 C 0.24013 0.15859 0.83020
 C1636 C 0.23889 0.14023 0.84831
 H1637 H 0.20906 0.07851 0.91194
 H1638 H 0.28231 0.09901 0.93533
 H1639 H 0.26182 0.20571 0.86585
 H1640 H 0.23446 0.15412 0.81155
 H1641 H 0.28222 0.13316 0.90565
 H1642 H 0.26004 0.17340 0.89738
 H1643 H 0.20894 0.11269 0.88228
 H1644 H 0.23264 0.12195 0.84316
 C1645 C 0.74733 0.62239 0.38549
 C1646 C 0.73876 0.62589 0.40975
 C1647 C 0.73965 0.60659 0.42693
 C1648 C 0.74913 0.58338 0.42022
 C1649 C 0.75770 0.57997 0.39597
 C1650 C 0.75693 0.59923 0.37889
 C1651 C 0.74628 0.64263 0.36696
 C1652 C 0.74046 0.63740 0.34222
 C1653 C 0.74062 0.65604 0.32444
 C1654 C 0.74640 0.68047 0.33096
 C1655 C 0.75161 0.68588 0.35581
 C1656 C 0.75163 0.66714 0.37361
 H1657 H 0.73308 0.60988 0.44552
 H1658 H 0.76474 0.56225 0.39001
 H1659 H 0.73614 0.65127 0.30554
 H1660 H 0.75613 0.70452 0.36144
 H1661 H 0.76404 0.59598 0.36050
 H1662 H 0.73569 0.61884 0.33656
 H1663 H 0.73106 0.64345 0.41536
 H1664 H 0.75641 0.67175 0.39246
 C1665 C 0.75041 0.10499 0.12278
 C1666 C 0.73035 0.08894 0.11937
 C1667 C 0.73074 0.07135 0.10052
 C1668 C 0.75133 0.06926 0.08492
 C1669 C 0.77171 0.08478 0.08883
 C1670 C 0.77119 0.10259 0.10748
 C1671 C 0.74932 0.12468 0.14173
 C1672 C 0.75628 0.14894 0.13580
 C1673 C 0.75471 0.16769 0.15345
 C1674 C 0.74641 0.16248 0.17749
 C1675 C 0.73963 0.13813 0.18344
 C1676 C 0.74091 0.11947 0.16568
 H1677 H 0.71484 0.05953 0.09793
 H1678 H 0.78771 0.08369 0.07691
 H1679 H 0.76022 0.18621 0.14833
 H1680 H 0.73316 0.13352 0.20179
 H1681 H 0.78697 0.11460 0.10988
 H1682 H 0.76260 0.15349 0.11738
 H1683 H 0.71406 0.09051 0.13083
 H1684 H 0.73556 0.10088 0.17074
 C1685 C 0.24463 0.61192 0.61653
 C1686 C 0.23545 0.58803 0.62094
 C1687 C 0.23691 0.56984 0.60268
 C1688 C 0.24755 0.57516 0.57962
 C1689 C 0.25659 0.59908 0.57522
 C1690 C 0.25524 0.61719 0.59347
 C1691 C 0.24333 0.63130 0.63587
 C1692 C 0.23819 0.65594 0.62950
 C1693 C 0.23772 0.67433 0.64755
 C1694 C 0.24220 0.66850 0.67243
 C1695 C 0.24706 0.64381 0.67885
 C1696 C 0.24768 0.62544 0.66077
 H1697 H 0.22993 0.55155 0.60670
 H1698 H 0.26452 0.60394 0.55753
 H1699 H 0.23374 0.69312 0.64198
 H1700 H 0.25075 0.63869 0.69783
 H1701 H 0.26279 0.63528 0.58956
 H1702 H 0.23434 0.66101 0.61055
 H1703 H 0.22692 0.58345 0.63842
 H1704 H 0.25206 0.60672 0.66625
 C1705 C 0.75995 0.88876 0.86980
 C1706 C 0.73920 0.90412 0.87217
 C1707 C 0.73803 0.92174 0.89098
 C1708 C 0.75771 0.92458 0.90762
 C1709 C 0.77877 0.90972 0.90482
 C1710 C 0.77980 0.89187 0.88619
 C1711 C 0.76049 0.86909 0.85074
 C1712 C 0.76806 0.84505 0.85688
 C1713 C 0.76763 0.82625 0.83918
 C1714 C 0.75992 0.83118 0.81488
 C1715 C 0.75274 0.85535 0.80867
 C1716 C 0.75286 0.87406 0.82645
 H1717 H 0.72164 0.93303 0.89268
 H1718 H 0.79410 0.91137 0.91753
 H1719 H 0.77342 0.80787 0.84453
 H1720 H 0.74669 0.85978 0.79013
 H1721 H 0.79609 0.88040 0.88464
 H1722 H 0.77382 0.84067 0.87552
 H1723 H 0.72357 0.90202 0.85989
 H1724 H 0.74711 0.89247 0.82119
 C1725 C 0.25737 0.37935 0.37793
 C1726 C 0.24709 0.40278 0.37347
 C1727 C 0.24675 0.42073 0.39204
 C1728 C 0.25666 0.41564 0.41549
 C1729 C 0.26691 0.39220 0.41990
 C1730 C 0.26735 0.37435 0.40134
 C1731 C 0.25758 0.36008 0.35837
 C1732 C 0.25336 0.33519 0.36439
 C1733 C 0.25382 0.31699 0.34614
 C1734 C 0.25832 0.32324 0.32136
 C1735 C 0.26246 0.34815 0.31529
 C1736 C 0.26214 0.36634 0.33359
 H1737 H 0.23891 0.43866 0.38797
 H1738 H 0.27435 0.38748 0.43785
 H1739 H 0.25037 0.29802 0.35146
 H1740 H 0.26612 0.35361 0.29640
 H1741 H 0.27570 0.35663 0.40533
 H1742 H 0.24937 0.32976 0.38321
 H1743 H 0.23900 0.40716 0.35572
 H1744 H 0.26582 0.38528 0.32837
 C1745 C 0.24553 0.87403 0.11009
 C1746 C 0.22561 0.89041 0.10744
 C1747 C 0.22575 0.90832 0.08881
 C1748 C 0.24595 0.91038 0.07269
 C1749 C 0.26572 0.89380 0.07516
 C1750 C 0.26544 0.87571 0.09357
 C1751 C 0.24578 0.85546 0.13024
 C1752 C 0.25286 0.83101 0.12543
 C1753 C 0.25345 0.81356 0.14443
 C1754 C 0.24727 0.82023 0.16875
 C1755 C 0.24023 0.84474 0.17358
 C1756 C 0.23935 0.86213 0.15448
 H1757 H 0.21039 0.92103 0.08746
 H1758 H 0.28147 0.89496 0.06293
 H1759 H 0.25896 0.79485 0.14007
 H1760 H 0.23523 0.85043 0.19208
 H1761 H 0.28109 0.86341 0.09530
 H1762 H 0.25771 0.82533 0.10689
 H1763 H 0.20995 0.88936 0.11979
 H1764 H 0.23403 0.88093 0.15872
 C1765 C 0.74691 0.37902 0.61298
 C1766 C 0.76657 0.37994 0.59611
 C1767 C 0.76673 0.39738 0.57712
 C1768 C 0.74711 0.41409 0.57445
 C1769 C 0.72717 0.41283 0.59097
 C1770 C 0.72714 0.39555 0.61016
 C1771 C 0.74721 0.36096 0.63353
 C1772 C 0.74113 0.36821 0.65769
 C1773 C 0.74204 0.35120 0.67712
 C1774 C 0.74877 0.32654 0.67268
 C1775 C 0.75465 0.31933 0.64843
 C1776 C 0.75398 0.33637 0.62912
 H1777 H 0.78227 0.39793 0.56457
 H1778 H 0.71195 0.42569 0.58946
 H1779 H 0.73728 0.35729 0.69555
 H1780 H 0.75992 0.30049 0.64435
 H1781 H 0.71166 0.39506 0.62278
 H1782 H 0.73604 0.38714 0.66159
 H1783 H 0.78211 0.36751 0.59797
 H1784 H 0.75854 0.33025 0.61064
 C1785 C 0.11920 0.12669 0.75652
 C1786 C 0.09582 0.13139 0.74625
 C1787 C 0.07781 0.11290 0.74560
 C1788 C 0.08278 0.08929 0.75517
 C1789 C 0.10617 0.08464 0.76539
 C1790 C 0.12409 0.10311 0.76615
 C1791 C 0.13851 0.14618 0.75715
 C1792 C 0.16340 0.14018 0.75298
 C1793 C 0.18164 0.15836 0.75392
 C1794 C 0.17543 0.18305 0.75886
 C1795 C 0.15053 0.18910 0.76293
 C1796 C 0.13230 0.17087 0.76214
 H1797 H 0.05993 0.11715 0.73777
 H1798 H 0.11081 0.06656 0.77255
 H1799 H 0.20060 0.15307 0.75052
 H1800 H 0.14511 0.20791 0.76695
 H1801 H 0.14176 0.09892 0.77449
 H1802 H 0.16879 0.12143 0.74867
 H1803 H 0.09154 0.14928 0.73843
 H1804 H 0.11337 0.17607 0.76582
 C1805 C 0.61716 0.62259 0.25456
 C1806 C 0.59370 0.62671 0.24422
 C1807 C 0.57594 0.60794 0.24399
 C1808 C 0.58124 0.58461 0.25410
 C1809 C 0.60469 0.58056 0.26444
 C1810 C 0.62236 0.59930 0.26476
 C1811 C 0.63626 0.64234 0.25464
 C1812 C 0.66122 0.63652 0.25064
 C1813 C 0.67927 0.65493 0.25105
 C1814 C 0.67281 0.67969 0.25529
 C1815 C 0.64784 0.68557 0.25917
 C1816 C 0.62979 0.66711 0.25890
 H1817 H 0.55801 0.61176 0.23606
 H1818 H 0.60959 0.56272 0.27202
 H1819 H 0.69828 0.64974 0.24780
 H1820 H 0.64221 0.70443 0.26263
 H1821 H 0.64008 0.59556 0.27319
 H1822 H 0.66683 0.61772 0.24687
 H1823 H 0.58917 0.64434 0.23596
 H1824 H 0.61081 0.67220 0.26241
 C1825 C 0.11939 0.88093 0.24623
 C1826 C 0.12194 0.90275 0.23248
 C1827 C 0.10424 0.92149 0.23404
 C1828 C 0.08342 0.91904 0.24957
 C1829 C 0.08113 0.89690 0.26327
 C1830 C 0.09879 0.87825 0.26161
 C1831 C 0.13829 0.86113 0.24497
 C1832 C 0.13131 0.83613 0.24478
 C1833 C 0.14913 0.81748 0.24470
 C1834 C 0.17437 0.82341 0.24480
 C1835 C 0.18132 0.84844 0.24457
 C1836 C 0.16350 0.86705 0.24466
 H1837 H 0.10761 0.93817 0.22361
 H1838 H 0.06521 0.89320 0.27468
 H1839 H 0.14310 0.79842 0.24467
 H1840 H 0.20058 0.85372 0.24461
 H1841 H 0.09636 0.86172 0.27259
 H1842 H 0.11201 0.83097 0.24463
 H1843 H 0.13762 0.90532 0.22037
 H1844 H 0.16948 0.88612 0.24509
 C1845 C 0.62007 0.38767 0.74645
 C1846 C 0.62486 0.41096 0.73597
 C1847 C 0.60720 0.42977 0.73701
 C1848 C 0.58435 0.42570 0.74855
 C1849 C 0.57947 0.40230 0.75870
 C1850 C 0.59711 0.38357 0.75774
 C1851 C 0.63909 0.36788 0.74622
 C1852 C 0.63241 0.34301 0.74283
 C1853 C 0.65024 0.32436 0.74360
 C1854 C 0.67517 0.33017 0.74767
 C1855 C 0.68186 0.35507 0.75074
 C1856 C 0.66404 0.37367 0.75008
 H1857 H 0.61157 0.44760 0.72910
 H1858 H 0.56188 0.39837 0.76731
 H1859 H 0.64448 0.30541 0.74092
 H1860 H 0.70088 0.36024 0.75397
 H1861 H 0.59290 0.36598 0.76625
 H1862 H 0.61340 0.33796 0.73942
 H1863 H 0.64225 0.41463 0.72686
 H1864 H 0.66978 0.39256 0.75315
 C1865 C 0.87754 0.10903 0.25236
 C1866 C 0.87441 0.08510 0.24282
 C1867 C 0.89389 0.06814 0.24329
 C1868 C 0.91687 0.07475 0.25337
 C1869 C 0.91985 0.09860 0.26309
 C1870 C 0.90043 0.11547 0.26268
 C1871 C 0.85730 0.12749 0.25133
 C1872 C 0.86260 0.15228 0.24590
 C1873 C 0.84396 0.17001 0.24590
 C1874 C 0.81945 0.16341 0.25119
 C1875 C 0.81397 0.13850 0.25605
 C1876 C 0.83272 0.12072 0.25616
 H1877 H 0.89095 0.04983 0.23586
 H1878 H 0.93738 0.10445 0.27067
 H1879 H 0.84882 0.18894 0.24170
 H1880 H 0.79528 0.13280 0.26017
 H1881 H 0.90336 0.13361 0.27053
 H1882 H 0.88122 0.15802 0.24153
 H1883 H 0.85705 0.07964 0.23459
 H1884 H 0.82808 0.10179 0.26058
 C1885 C 0.37706 0.61580 0.74629
 C1886 C 0.37384 0.59122 0.73859
 C1887 C 0.39346 0.57442 0.73970
 C1888 C 0.41669 0.58185 0.74855
 C1889 C 0.41981 0.60642 0.75626
 C1890 C 0.40026 0.62311 0.75525
 C1891 C 0.35649 0.63394 0.74500
 C1892 C 0.36122 0.65856 0.73829
 C1893 C 0.34236 0.67607 0.73836
 C1894 C 0.31818 0.66942 0.74494
 C1895 C 0.31323 0.64466 0.75096
 C1896 C 0.33220 0.62711 0.75106
 H1897 H 0.39038 0.55558 0.73381
 H1898 H 0.43753 0.61291 0.76280
 H1899 H 0.34678 0.69489 0.73325
 H1900 H 0.29480 0.63893 0.75611
 H1901 H 0.40331 0.64177 0.76170
 H1902 H 0.37957 0.66434 0.73294
 H1903 H 0.35626 0.58504 0.73140
 H1904 H 0.32797 0.60836 0.75651
 C1905 C 0.88875 0.88629 0.74079
 C1906 C 0.88320 0.90924 0.75149
 C1907 C 0.90106 0.92771 0.75288
 C1908 C 0.92500 0.92367 0.74379
 C1909 C 0.93058 0.90076 0.73298
 C1910 C 0.91264 0.88227 0.73150
 C1911 C 0.86969 0.86664 0.73966
 C1912 C 0.87595 0.84188 0.74418
 C1913 C 0.85786 0.82353 0.74392
 C1914 C 0.83305 0.82954 0.73925
 C1915 C 0.82682 0.85428 0.73454
 C1916 C 0.84495 0.87259 0.73466
 H1917 H 0.89600 0.94528 0.76093
 H1918 H 0.94889 0.89704 0.72594
 H1919 H 0.86328 0.80468 0.74777
 H1920 H 0.80794 0.85952 0.73068
 H1921 H 0.91742 0.86488 0.72291
 H1922 H 0.89477 0.83673 0.74846
 H1923 H 0.86510 0.91285 0.75911
 H1924 H 0.83958 0.89143 0.73069
 C1925 C 0.39208 0.37691 0.24513
 C1926 C 0.39446 0.39329 0.22514
 C1927 C 0.41268 0.41155 0.22529
 C1928 C 0.42868 0.41396 0.24555
 C1929 C 0.42654 0.39734 0.26536
 C1930 C 0.40851 0.37891 0.26509
 C1931 C 0.37225 0.35808 0.24537
 C1932 C 0.37734 0.33369 0.25251
 C1933 C 0.35864 0.31595 0.25274
 C1934 C 0.33436 0.32229 0.24611
 C1935 C 0.32923 0.34678 0.23922
 C1936 C 0.34802 0.36445 0.23871
 H1937 H 0.41378 0.42427 0.20989
 H1938 H 0.43872 0.39875 0.28115
 H1939 H 0.36319 0.29727 0.25825
 H1940 H 0.31075 0.35225 0.23397
 H1941 H 0.40700 0.36660 0.28078
 H1942 H 0.39589 0.32827 0.25760
 H1943 H 0.38217 0.39199 0.20943
 H1944 H 0.34355 0.38321 0.23340
   
