data_POSCAR
  _audit_creation_date              2014-09-24
  _audit_creation_method            'ToBaCCo'
  _symmetry_space_group_name_H-M    'P1'
  _symmetry_Int_Tables_number       1
  _symmetry_cell_setting            triclinic
  loop_
  _symmetry_equiv_pos_as_xyz
 x,y,z
_cell_length_a 51.5881
_cell_length_b 51.6169
_cell_length_c 51.6387
_cell_angle_alpha 89.919200
_cell_angle_beta 90.005100
_cell_angle_gamma 89.957500
loop_
  _atom_site_label
  _atom_site_type_symbol
  _atom_site_fract_x
  _atom_site_fract_y
  _atom_site_fract_z
C1 C 0.36839 1.35101 0.33169
 C2 C 0.36776 1.33104 0.35017
 C3 C 0.34755 1.32976 0.36771
 C4 C 0.32789 1.34852 0.36728
 C5 C 0.32868 1.36833 0.34934
 C6 C 0.34886 1.36933 0.33115
 C7 C 0.38546 1.35705 0.31208
 N8 N 0.37652 1.37836 0.29926
 C9 C 0.35412 1.38595 0.31103
 C10 C 0.30789 1.38434 0.35427
 N11 N 0.29428 1.37462 0.37472
 C12 C 0.30643 1.35250 0.38255
 C13 C 0.35200 1.30874 0.38343
 N14 N 0.37445 1.29715 0.37596
 C15 C 0.38422 1.31070 0.35557
 H16 H 0.40259 1.34602 0.30714
 H17 H 0.34257 1.40263 0.30571
 H18 H 0.30311 1.40167 0.34346
 H19 H 0.30082 1.34065 0.39892
 H20 H 0.33998 1.30260 0.39949
 H21 H 0.40192 1.30609 0.34531
 C22 C 0.36879 0.85037 0.83235
 C23 C 0.36767 0.83030 0.85063
 C24 C 0.34778 0.82970 0.86850
 C25 C 0.32892 0.84923 0.86854
 C26 C 0.33028 0.86936 0.85093
 C27 C 0.35033 0.86986 0.83250
 C28 C 0.38562 0.85551 0.81240
 N29 N 0.37790 0.87759 0.80028
 C30 C 0.35638 0.88660 0.81256
 C31 C 0.30994 0.88585 0.85626
 N32 N 0.29608 0.87605 0.87654
 C33 C 0.30771 0.85355 0.88398
 C34 C 0.35181 0.80852 0.88416
 N35 N 0.37381 0.79631 0.87638
 C36 C 0.38359 0.80948 0.85576
 H37 H 0.40231 0.84396 0.80706
 H38 H 0.34555 0.90371 0.80706
 H39 H 0.30551 0.90344 0.84574
 H40 H 0.30180 0.84148 0.90008
 H41 H 0.33999 0.80285 0.90054
 H42 H 0.40108 0.80444 0.84534
 C43 C 0.86905 1.35173 0.83217
 C44 C 0.86766 1.33088 0.84959
 C45 C 0.84662 1.32855 0.86604
 C46 C 0.82682 1.34714 0.86550
 C47 C 0.82832 1.36779 0.84857
 C48 C 0.84939 1.36989 0.83153
 C49 C 0.88627 1.35800 0.81277
 N50 N 0.87732 1.37933 0.79997
 C51 C 0.85475 1.38668 0.81157
 C52 C 0.80619 1.38229 0.85180
 N53 N 0.79102 1.37084 0.87014
 C54 C 0.80363 1.34917 0.87850
 C55 C 0.84955 1.30577 0.87955
 N56 N 0.87183 1.29413 0.87170
 C57 C 0.88305 1.30945 0.85342
 H58 H 0.90330 1.34688 0.80766
 H59 H 0.84291 1.40306 0.80597
 H60 H 0.80116 1.39942 0.84078
 H61 H 0.79683 1.33585 0.89318
 H62 H 0.83621 1.29813 0.89381
 H63 H 0.90066 1.30487 0.84297
 C64 C 0.86912 0.85049 0.33157
 C65 C 0.86897 0.83112 0.35071
 C66 C 0.84902 0.83027 0.36857
 C67 C 0.82916 0.84874 0.36778
 C68 C 0.82929 0.86783 0.34901
 C69 C 0.84928 0.86850 0.33060
 C70 C 0.88598 0.85625 0.31170
 N71 N 0.87670 0.87714 0.29839
 C72 C 0.85420 0.88465 0.31002
 C73 C 0.80815 0.88353 0.35354
 N74 N 0.79526 0.87433 0.37460
 C75 C 0.80796 0.85296 0.38330
 C76 C 0.85366 0.80970 0.38478
 N77 N 0.87597 0.79789 0.37729
 C78 C 0.88554 0.81093 0.35647
 H79 H 0.90333 0.84544 0.30704
 H80 H 0.84243 0.90107 0.30440
 H81 H 0.80268 0.90044 0.34240
 H82 H 0.80259 0.84171 0.40017
 H83 H 0.84176 0.80389 0.40103
 H84 H 0.90303 0.80594 0.34603
 C85 C 0.63297 0.65134 0.32968
 C86 C 0.63431 0.67204 0.34713
 C87 C 0.65314 0.67230 0.36613
 C88 C 0.67073 0.65170 0.36804
 C89 C 0.66926 0.63106 0.35102
 C90 C 0.65012 0.63087 0.33165
 C91 C 0.61718 0.64661 0.30886
 N92 N 0.62405 0.62360 0.29795
 C93 C 0.64419 0.61378 0.31202
 C94 C 0.68910 0.61427 0.35729
 N95 N 0.70253 0.62432 0.37761
 C96 C 0.69131 0.64718 0.38427
 C97 C 0.65021 0.69496 0.37985
 N98 N 0.62992 0.70835 0.36969
 C99 C 0.62009 0.69442 0.34967
 H100 H 0.60149 0.65899 0.30249
 H101 H 0.65448 0.59597 0.30798
 H102 H 0.69371 0.59639 0.34739
 H103 H 0.69763 0.65968 0.39985
 H104 H 0.66187 0.70111 0.39615
 H105 H 0.60399 0.70033 0.33757
 C106 C 0.63121 0.14922 0.83187
 C107 C 0.63170 0.16897 0.85056
 C108 C 0.65184 0.17004 0.86821
 C109 C 0.67153 0.15133 0.86770
 C110 C 0.67087 0.13175 0.84957
 C111 C 0.65080 0.13095 0.83128
 C112 C 0.61430 0.14334 0.81207
 N113 N 0.62342 0.12220 0.79912
 C114 C 0.64575 0.11456 0.81098
 C115 C 0.69167 0.11573 0.85441
 N116 N 0.70516 0.12522 0.87502
 C117 C 0.69292 0.14721 0.88303
 C118 C 0.64736 0.19086 0.88411
 N119 N 0.62496 0.20257 0.87665
 C120 C 0.61523 0.18927 0.85610
 H121 H 0.59715 0.15434 0.80709
 H122 H 0.65740 0.09798 0.80561
 H123 H 0.69654 0.09857 0.84344
 H124 H 0.69843 0.15886 0.89954
 H125 H 0.65934 0.19680 0.90025
 H126 H 0.59758 0.19404 0.84581
 C127 C 1.13172 0.64969 0.83208
 C128 C 1.13178 0.66897 0.85122
 C129 C 1.15142 0.66956 0.86945
 C130 C 1.17111 0.65084 0.86896
 C131 C 1.17063 0.63145 0.85059
 C132 C 1.15091 0.63095 0.83194
 C133 C 1.11679 0.64590 0.81030
 N134 N 1.12654 0.62539 0.79698
 C135 C 1.14727 0.61601 0.81024
 C136 C 1.19263 0.61679 0.85395
 N137 N 1.20685 0.62703 0.87366
 C138 C 1.19363 0.64792 0.88296
 C139 C 1.14717 0.69076 0.88494
 N140 N 1.12530 0.70297 0.87678
 C141 C 1.11582 0.68983 0.85603
 H142 H 1.10061 0.65778 0.80417
 H143 H 1.15971 0.60041 0.80377
 H144 H 1.19847 0.60068 0.84187
 H145 H 1.19977 0.66031 0.89868
 H146 H 1.15900 0.69669 0.90120
 H147 H 1.09876 0.69516 0.84504
 C148 C 1.13009 0.14831 0.33254
 C149 C 1.13035 0.16815 0.35107
 C150 C 1.15049 0.16977 0.36867
 C151 C 1.17048 0.15134 0.36822
 C152 C 1.17003 0.13162 0.35018
 C153 C 1.14995 0.13037 0.33192
 C154 C 1.11479 0.14398 0.31117
 N155 N 1.12519 0.12423 0.29710
 C156 C 1.14665 0.11570 0.30995
 C157 C 1.19249 0.11760 0.35324
 N158 N 1.20686 0.12845 0.37253
 C159 C 1.19342 0.14927 0.38167
 C160 C 1.14722 0.19238 0.38236
 N161 N 1.12561 0.20456 0.37347
 C162 C 1.11514 0.18978 0.35439
 H163 H 1.09845 0.15579 0.30533
 H164 H 1.15954 0.10043 0.30363
 H165 H 1.19842 0.10141 0.34133
 H166 H 1.19962 0.16208 0.39702
 H167 H 1.16009 0.19973 0.39718
 H168 H 1.09844 0.19506 0.34282
 C169 C 0.63273 1.34924 0.66973
 C170 C 0.63170 1.33130 0.64933
 C171 C 0.65047 1.33181 0.63023
 C172 C 0.67025 1.35034 0.63102
 C173 C 0.67125 1.36806 0.65103
 C174 C 0.65253 1.36726 0.67071
 C175 C 0.61784 1.35266 0.69156
 N176 N 0.62834 1.37201 0.70612
 C177 C 0.64958 1.38105 0.69328
 C178 C 0.69249 1.38367 0.64670
 N179 N 0.70434 1.37573 0.62458
 C180 C 0.69091 1.35525 0.61498
 C181 C 0.64540 1.31178 0.61352
 N182 N 0.62398 1.29902 0.62193
 C183 C 0.61539 1.31087 0.64382
 H184 H 0.60127 1.34099 0.69695
 H185 H 0.66211 1.39659 0.69962
 H186 H 0.69891 1.39948 0.65885
 H187 H 0.69562 1.34493 0.59736
 H188 H 0.65659 1.30677 0.59651
 H189 H 0.59895 1.30471 0.65529
 C190 C 0.63239 0.84824 1.17040
 C191 C 0.63163 0.83035 1.14994
 C192 C 0.65149 0.82984 1.13192
 C193 C 0.67223 0.84728 1.13393
 C194 C 0.67285 0.86491 1.15401
 C195 C 0.65299 0.86518 1.17249
 C196 C 0.61679 0.85217 1.19168
 N197 N 0.62771 0.87075 1.20695
 C198 C 0.64986 0.87882 1.19508
 C199 C 0.69545 0.87878 1.15175
 N200 N 0.70870 0.86995 1.13082
 C201 C 0.69467 0.85058 1.11982
 C202 C 0.64652 0.80974 1.11524
 N203 N 0.62415 0.79794 1.12261
 C204 C 0.61488 0.81049 1.14383
 H205 H 0.59952 0.84123 1.19632
 H206 H 0.66301 0.89349 1.20217
 H207 H 0.70209 0.89383 1.16474
 H208 H 0.70034 0.83968 1.10285
 H209 H 0.65850 0.80394 1.09904
 H210 H 0.59770 0.80509 1.15457
 C211 C 1.13014 1.35349 1.16763
 C212 C 1.13205 1.33229 1.15078
 C213 C 1.15208 1.33103 1.13304
 C214 C 1.17035 1.35108 1.13174
 C215 C 1.16835 1.37211 1.14809
 C216 C 1.14824 1.37321 1.16635
 C217 C 1.11347 1.35923 1.18764
 N218 N 1.12117 1.38184 1.19866
 C219 C 1.14238 1.39054 1.18568
 C220 C 1.18864 1.38849 1.14246
 N221 N 1.20313 1.37783 1.12311
 C222 C 1.19195 1.35482 1.11662
 C223 C 1.14957 1.30803 1.11984
 N224 N 1.12846 1.29531 1.12911
 C225 C 1.11763 1.31007 1.14803
 H226 H 1.09752 1.34734 1.19428
 H227 H 1.15301 1.40802 1.19024
 H228 H 1.19267 1.40652 1.15230
 H229 H 1.19854 1.34189 1.10152
 H230 H 1.16218 1.30115 1.10458
 H231 H 1.10078 1.30477 1.15935
 C232 C 1.12954 0.85207 0.66772
 C233 C 1.13008 0.83241 0.64891
 C234 C 1.15062 0.83099 0.63169
 C235 C 1.17077 0.84914 0.63287
 C236 C 1.17008 0.86854 0.65121
 C237 C 1.14947 0.86994 0.66874
 C238 C 1.11280 0.85787 0.68775
 N239 N 1.12231 0.87869 0.70083
 C240 C 1.14468 0.88615 0.68917
 C241 C 1.19228 0.88294 0.64846
 N242 N 1.20660 0.87269 0.62893
 C243 C 1.19356 0.85196 0.61925
 C244 C 1.14648 0.80988 0.61610
 N245 N 1.12391 0.79837 0.62325
 C246 C 1.11373 0.81203 0.64335
 H247 H 1.09544 0.84726 0.69283
 H248 H 1.15675 0.90218 0.69523
 H249 H 1.19795 0.89928 0.66029
 H250 H 1.20016 0.83976 0.60355
 H251 H 1.15895 0.80348 0.60051
 H252 H 1.09598 0.80733 0.65348
 C253 C 0.36685 0.65093 0.66976
 C254 C 0.36717 0.66970 0.65017
 C255 C 0.34934 0.66868 0.63016
 C256 C 0.33107 0.64849 0.62937
 C257 C 0.33073 0.63009 0.64884
 C258 C 0.34880 0.63122 0.66906
 C259 C 0.38079 0.64817 0.69231
 N260 N 0.37167 0.62715 0.70527
 C261 C 0.35214 0.61662 0.69111
 C262 C 0.31024 0.61383 0.64410
 N263 N 0.29809 0.62153 0.62197
 C264 C 0.31090 0.64277 0.61281
 C265 C 0.35306 0.69054 0.61523
 N266 N 0.37274 0.70458 0.62571
 C267 C 0.38152 0.69185 0.64699
 H268 H 0.39623 0.66073 0.69889
 H269 H 0.34061 0.60008 0.69687
 H270 H 0.30490 0.59730 0.65586
 H271 H 0.30554 0.65396 0.59591
 H272 H 0.34191 0.69607 0.59835
 H273 H 0.39651 0.69881 0.65990
 C274 C 0.37190 0.14652 1.16571
 C275 C 0.37117 0.16609 1.14694
 C276 C 0.35107 0.16704 1.12930
 C277 C 0.33146 0.14824 1.13014
 C278 C 0.33194 0.12912 1.14893
 C279 C 0.35249 0.12809 1.16675
 C280 C 0.38840 0.14191 1.18605
 N281 N 0.37969 0.12098 1.19940
 C282 C 0.35769 0.11236 1.18774
 C283 C 0.30934 0.11514 1.14653
 N284 N 0.29525 0.12507 1.12649
 C285 C 0.30890 0.14526 1.11634
 C286 C 0.35407 0.18944 1.11509
 N287 N 0.37551 0.20206 1.12376
 C288 C 0.38616 0.18773 1.14312
 H289 H 0.40547 0.15309 1.19088
 H290 H 0.34594 0.09633 1.19443
 H291 H 0.30378 0.09893 1.15861
 H292 H 0.30234 0.15783 1.10087
 H293 H 0.34110 0.19641 1.10015
 H294 H 0.40279 0.19339 1.15459
 C295 C 0.87000 0.65022 1.16792
 C296 C 0.86956 0.66908 1.14837
 C297 C 0.85032 0.66861 1.12973
 C298 C 0.83134 0.64916 1.13027
 C299 C 0.83181 0.63056 1.14957
 C300 C 0.85132 0.63103 1.16848
 C301 C 0.88640 0.64589 1.18846
 N302 N 0.87825 0.62446 1.20142
 C303 C 0.85677 0.61523 1.18930
 C304 C 0.81123 0.61421 1.14529
 N305 N 0.79835 0.62232 1.12379
 C306 C 0.81056 0.64371 1.11447
 C307 C 0.85474 0.68910 1.11326
 N308 N 0.87628 0.70191 1.12136
 C309 C 0.88547 0.68976 1.14285
 H310 H 0.90327 0.65733 1.19343
 H311 H 0.84576 0.59842 1.19529
 H312 H 0.80619 0.59741 1.15681
 H313 H 0.80464 0.65468 1.09759
 H314 H 0.84331 0.69413 1.09640
 H315 H 0.90233 0.69564 1.15384
 C316 C 0.86959 0.15045 0.66921
 C317 C 0.86937 0.16983 0.65011
 C318 C 0.84940 0.17072 0.63227
 C319 C 0.82957 0.15223 0.63307
 C320 C 0.82976 0.13312 0.65182
 C321 C 0.84979 0.13243 0.67020
 C322 C 0.88651 0.14470 0.68904
 N323 N 0.87730 0.12381 0.70235
 C324 C 0.85479 0.11629 0.69077
 C325 C 0.80866 0.11740 0.64730
 N326 N 0.79571 0.12660 0.62625
 C327 C 0.80835 0.14800 0.61757
 C328 C 0.85400 0.19134 0.61612
 N329 N 0.87630 0.20313 0.62363
 C330 C 0.88589 0.19003 0.64441
 H331 H 0.90384 0.15553 0.69367
 H332 H 0.84306 0.09986 0.69643
 H333 H 0.80326 0.10046 0.65842
 H334 H 0.80293 0.15925 0.60070
 H335 H 0.84207 0.19721 0.59989
 H336 H 0.90338 0.19499 0.65487
 C337 C 1.34929 0.36711 0.66952
 C338 C 1.33036 0.36728 0.65004
 C339 C 1.33144 0.34941 0.63009
 C340 C 1.35173 0.33126 0.62923
 C341 C 1.37022 0.33103 0.64857
 C342 C 1.36911 0.34913 0.66872
 C343 C 1.35220 0.38109 0.69203
 N344 N 1.37340 0.37205 0.70482
 C345 C 1.38387 0.35254 0.69061
 C346 C 1.38651 0.31055 0.64386
 N347 N 1.37870 0.29829 0.62187
 C348 C 1.35739 0.31104 0.61275
 C349 C 1.30952 0.35291 0.61522
 N350 N 1.29531 0.37249 0.62566
 C351 C 1.30803 0.38144 0.64686
 H352 H 1.33962 0.39648 0.69868
 H353 H 1.40051 0.34104 0.69623
 H354 H 1.40309 0.30525 0.65556
 H355 H 1.34609 0.30557 0.59599
 H356 H 1.30408 0.34168 0.59839
 H357 H 1.30096 0.39644 0.65970
 C358 C 1.34752 0.86676 1.17107
 C359 C 1.32984 0.86794 1.15044
 C360 C 1.33068 0.84939 1.13113
 C361 C 1.34918 0.82948 1.13213
 C362 C 1.36651 0.82835 1.15246
 C363 C 1.36592 0.84732 1.17184
 C364 C 1.35036 0.88117 1.19332
 N365 N 1.37037 0.87119 1.20742
 C366 C 1.37998 0.85050 1.19419
 C367 C 1.38062 0.80591 1.14972
 N368 N 1.37242 0.79328 1.12806
 C369 C 1.35332 0.80790 1.11708
 C370 C 1.31058 0.85449 1.11441
 N371 N 1.29765 0.87579 1.12294
 C372 C 1.30932 0.88415 1.14500
 H373 H 1.33876 0.89783 1.19853
 H374 H 1.39538 0.83787 1.20082
 H375 H 1.39560 0.79937 1.16285
 H376 H 1.34209 0.80257 1.10021
 H377 H 1.30563 0.84343 1.09732
 H378 H 1.30297 0.90039 1.15662
 C379 C 0.84830 0.36853 1.16892
 C380 C 0.83178 0.37048 1.14740
 C381 C 0.83211 0.35138 1.12865
 C382 C 0.84896 0.33018 1.13106
 C383 C 0.86481 0.32803 1.15246
 C384 C 0.86446 0.34733 1.17154
 C385 C 0.85151 0.38357 1.19066
 N386 N 0.86906 0.37191 1.20664
 C387 C 0.87697 0.34963 1.19492
 C388 C 0.87776 0.30480 1.15053
 N389 N 0.87036 0.29276 1.12824
 C390 C 0.85269 0.30836 1.11628
 C391 C 0.81282 0.35707 1.11120
 N392 N 0.80062 0.37910 1.11890
 C393 C 0.81224 0.38755 1.14097
 H394 H 0.84098 0.40119 1.19489
 H395 H 0.89100 0.33601 1.20249
 H396 H 0.89169 0.29755 1.16441
 H397 H 0.84241 0.30383 1.09859
 H398 H 0.80754 0.34556 1.09451
 H399 H 0.80610 0.40410 1.15226
 C400 C 0.85094 0.87087 0.66787
 C401 C 0.83186 0.87115 0.64843
 C402 C 0.83059 0.85099 0.63084
 C403 C 0.84820 0.83039 0.63232
 C404 C 0.86680 0.83000 0.65152
 C405 C 0.86819 0.85037 0.66934
 C406 C 0.85677 0.88744 0.68797
 N407 N 0.87707 0.87738 0.70151
 C408 C 0.88409 0.85471 0.69016
 C409 C 0.88053 0.80728 0.64892
 N410 N 0.87070 0.79392 0.62850
 C411 C 0.85095 0.80799 0.61821
 C412 C 0.80994 0.85570 0.61478
 N413 N 0.79846 0.87822 0.62206
 C414 C 0.81181 0.88789 0.64262
 H415 H 0.84669 0.90522 0.69261
 H416 H 0.89977 0.84229 0.69651
 H417 H 0.89646 0.80097 0.66103
 H418 H 0.83902 0.80205 0.60202
 H419 H 0.80367 0.84349 0.59895
 H420 H 0.80695 0.90541 0.65304
 C421 C 0.64867 0.63084 0.66808
 C422 C 0.66801 0.63100 0.64906
 C423 C 0.66738 0.64917 0.62930
 C424 C 0.64704 0.66727 0.62817
 C425 C 0.62790 0.66693 0.64695
 C426 C 0.62871 0.64864 0.66698
 C427 C 0.64577 0.61701 0.69070
 N428 N 0.62450 0.62603 0.70333
 C429 C 0.61388 0.64528 0.68883
 C430 C 0.61162 0.68741 0.64216
 N431 N 0.62021 0.70025 0.62086
 C432 C 0.64189 0.68804 0.61211
 C433 C 0.68971 0.64592 0.61499
 N434 N 0.70366 0.62618 0.62556
 C435 C 0.69044 0.61696 0.64634
 H436 H 0.65860 0.60195 0.69768
 H437 H 0.59729 0.65687 0.69440
 H438 H 0.59483 0.69275 0.65354
 H439 H 0.65353 0.69426 0.59581
 H440 H 0.69555 0.65736 0.59841
 H441 H 0.69718 0.60179 0.65919
 C442 C 0.65040 1.13072 1.16949
 C443 C 0.67073 1.13195 1.15150
 C444 C 0.67209 1.15244 1.13431
 C445 C 0.65311 1.17188 1.13476
 C446 C 0.63269 1.17028 1.15198
 C447 C 0.63133 1.14953 1.16953
 C448 C 0.64495 1.11384 1.18934
 N449 N 0.62290 1.12177 1.20152
 C450 C 0.61436 1.14355 1.18922
 C451 C 0.61757 1.19195 1.14832
 N452 N 0.62853 1.20701 1.12957
 C453 C 0.65030 1.19463 1.12116
 C454 C 0.69363 1.14861 1.11913
 N455 N 0.70528 1.12614 1.12646
 C456 C 0.69145 1.11590 1.14642
 H457 H 0.65626 1.09690 1.19436
 H458 H 0.59772 1.15503 1.19477
 H459 H 0.60048 1.19688 1.15943
 H460 H 0.66328 1.20141 1.10617
 H461 H 0.69995 1.16095 1.10338
 H462 H 0.69599 1.09806 1.15648
 C463 C 0.15035 0.63259 1.16972
 C464 C 0.16936 0.63226 1.15033
 C465 C 0.16851 0.65029 1.13055
 C466 C 0.14854 0.66867 1.12971
 C467 C 0.12932 0.66850 1.14833
 C468 C 0.13030 0.65034 1.16859
 C469 C 0.14748 0.61871 1.19226
 N470 N 0.12610 0.62748 1.20502
 C471 C 0.11533 0.64666 1.19034
 C472 C 0.11269 0.68864 1.14267
 N473 N 0.12159 0.70131 1.12125
 C474 C 0.14357 0.68903 1.11330
 C475 C 0.18938 0.64564 1.11469
 N476 N 0.20273 0.62500 1.12417
 C477 C 0.19068 0.61677 1.14609
 H478 H 0.16030 0.60342 1.19874
 H479 H 0.09865 0.65819 1.19571
 H480 H 0.09597 0.69412 1.15406
 H481 H 0.15506 0.69423 1.09656
 H482 H 0.19420 0.65615 1.09718
 H483 H 0.19695 0.60072 1.15808
 C484 C 0.14990 1.13037 0.66799
 C485 C 0.16898 1.13039 0.64864
 C486 C 0.16899 1.14961 0.62996
 C487 C 0.14987 1.16891 0.63023
 C488 C 0.13059 1.16838 0.64875
 C489 C 0.13062 1.14898 0.66781
 C490 C 0.14682 1.11594 0.69019
 N491 N 0.12604 1.12526 0.70358
 C492 C 0.11587 1.14528 0.68967
 C493 C 0.11569 1.19023 0.64527
 N494 N 0.12575 1.20439 0.62538
 C495 C 0.14665 1.19123 0.61602
 C496 C 0.19017 1.14549 0.61437
 N497 N 0.20288 1.12404 0.62290
 C498 C 0.19013 1.11478 0.64400
 H499 H 0.15923 1.10013 0.69617
 H500 H 0.09999 1.15753 0.69582
 H501 H 0.09970 1.19611 0.65750
 H502 H 0.15899 1.19738 0.60023
 H503 H 0.19575 1.15707 0.59779
 H504 H 0.19591 1.09808 0.65531
 C505 C 1.35140 0.63017 0.33320
 C506 C 1.33154 0.63042 0.35176
 C507 C 1.33003 0.65046 0.36947
 C508 C 1.34857 0.67031 0.36911
 C509 C 1.36831 0.66984 0.35106
 C510 C 1.36946 0.64989 0.33269
 C511 C 1.35572 0.61499 0.31174
 N512 N 1.37557 0.62537 0.29774
 C513 C 1.38418 0.64667 0.31072
 C514 C 1.38250 0.69213 0.35422
 N515 N 1.37172 0.70645 0.37358
 C516 C 1.35079 0.69314 0.38267
 C517 C 1.30743 0.64720 0.38324
 N518 N 1.29516 0.62570 0.37432
 C519 C 1.30985 0.61529 0.35512
 H520 H 1.34386 0.59877 0.30579
 H521 H 1.39955 0.65949 0.30451
 H522 H 1.39875 0.69799 0.34233
 H523 H 1.33800 0.69936 0.39805
 H524 H 1.30017 0.65998 0.39817
 H525 H 1.30451 0.59866 0.34353
 C526 C 1.35109 1.13049 0.83344
 C527 C 1.33208 1.13027 0.85290
 C528 C 1.33118 1.15014 0.87083
 C529 C 1.34931 1.17031 0.86975
 C530 C 1.36832 1.17021 0.85095
 C531 C 1.36904 1.15036 0.83250
 C532 C 1.35515 1.11526 0.81195
 N533 N 1.37487 1.12563 0.79787
 C534 C 1.38358 1.14701 0.81045
 C535 C 1.38254 1.19251 0.85390
 N536 N 1.37240 1.20651 0.87383
 C537 C 1.35196 1.19292 0.88358
 C538 C 1.31020 1.14570 0.88657
 N539 N 1.29830 1.12356 0.87880
 C540 C 1.31154 1.11401 0.85813
 H541 H 1.34364 1.09870 0.80622
 H542 H 1.39881 1.15974 0.80368
 H543 H 1.39834 1.19862 0.84154
 H544 H 1.33982 1.19879 0.89961
 H545 H 1.30406 1.15773 0.90260
 H546 H 1.30636 1.09682 0.84733
 C547 C 0.85086 0.63011 0.83260
 C548 C 0.83106 0.63050 0.85130
 C549 C 0.82939 0.65099 0.86851
 C550 C 0.84744 0.67127 0.86742
 C551 C 0.86697 0.67072 0.84917
 C552 C 0.86861 0.65015 0.83165
 C553 C 0.85699 0.61332 0.81273
 N554 N 0.87790 0.62290 0.79980
 C555 C 0.88509 0.64537 0.81138
 C556 C 0.88133 0.69291 0.85209
 N557 N 0.87095 0.70710 0.87165
 C558 C 0.85015 0.69399 0.88116
 C559 C 0.80827 0.64658 0.88407
 N560 N 0.79700 0.62391 0.87689
 C561 C 0.81084 0.61393 0.85680
 H562 H 0.84658 0.59585 0.80770
 H563 H 0.90114 0.65749 0.80544
 H564 H 0.89779 0.69861 0.84041
 H565 H 0.83788 0.70046 0.89687
 H566 H 0.80173 0.65892 0.89969
 H567 H 0.80640 0.59615 0.84667
 C568 C 0.84736 1.13511 0.32931
 C569 C 0.82884 1.13370 0.34909
 C570 C 0.82990 1.15069 0.36973
 C571 C 0.84954 1.16948 0.37077
 C572 C 0.86797 1.17075 0.35133
 C573 C 0.86687 1.15341 0.33046
 C574 C 0.85052 1.12152 0.30664
 N575 N 0.87151 1.13113 0.29397
 C576 C 0.88168 1.15058 0.30849
 C577 C 0.88430 1.19102 0.35710
 N578 N 0.87614 1.20219 0.37948
 C579 C 0.85490 1.18911 0.38796
 C580 C 0.80945 1.14478 0.38587
 N581 N 0.79606 1.12462 0.37545
 C582 C 0.80781 1.11784 0.35290
 H583 H 0.83838 1.10584 0.29989
 H584 H 0.89826 1.16226 0.30313
 H585 H 0.90049 1.19755 0.34548
 H586 H 0.84406 1.19362 0.40533
 H587 H 0.80460 1.15460 0.40372
 H588 H 0.80172 1.10223 0.34032
 C589 C 0.65080 0.36826 0.33119
 C590 C 0.67047 0.36809 0.34984
 C591 C 0.66976 0.35047 0.36999
 C592 C 0.64906 0.33297 0.37188
 C593 C 0.62936 0.33339 0.35367
 C594 C 0.63025 0.35125 0.33314
 C595 C 0.64805 0.38163 0.30836
 N596 N 0.62617 0.37332 0.29620
 C597 C 0.61503 0.35488 0.31152
 C598 C 0.61277 0.31330 0.35955
 N599 N 0.62201 0.30072 0.38080
 C600 C 0.64417 0.31271 0.38843
 C601 C 0.69220 0.35366 0.38409
 N602 N 0.70631 0.37295 0.37303
 C603 C 0.69312 0.38186 0.35208
 H604 H 0.66132 0.39621 0.30126
 H605 H 0.59794 0.34376 0.30666
 H606 H 0.59581 0.30771 0.34858
 H607 H 0.65612 0.30687 0.40465
 H608 H 0.69789 0.34266 0.40102
 H609 H 0.69990 0.39679 0.33898
 C610 C 0.64843 0.87170 0.83359
 C611 C 0.66904 0.87023 0.85118
 C612 C 0.67061 0.84978 0.86840
 C613 C 0.65138 0.83058 0.86838
 C614 C 0.63088 0.83215 0.85114
 C615 C 0.62941 0.85285 0.83354
 C616 C 0.64325 0.88834 0.81349
 N617 N 0.62153 0.88012 0.80110
 C618 C 0.61284 0.85844 0.81332
 C619 C 0.61608 0.81025 0.85452
 N620 N 0.62714 0.79537 0.87325
 C621 C 0.64875 0.80771 0.88184
 C622 C 0.69351 0.85248 0.88183
 N623 N 0.70582 0.87411 0.87316
 C624 C 0.69089 0.88507 0.85444
 H625 H 0.65476 0.90497 0.80796
 H626 H 0.59635 0.84697 0.80734
 H627 H 0.59901 0.80508 0.84348
 H628 H 0.66182 0.80051 0.89658
 H629 H 0.70078 0.83943 0.89657
 H630 H 0.69600 0.90210 0.84330
 C631 C 0.15077 0.36857 0.83029
 C632 C 0.17157 0.36698 0.84763
 C633 C 0.17189 0.34800 0.86647
 C634 C 0.15126 0.33047 0.86833
 C635 C 0.13051 0.33216 0.85141
 C636 C 0.13025 0.35149 0.83218
 C637 C 0.14603 0.38455 0.80960
 N638 N 0.12296 0.37787 0.79866
 C639 C 0.11311 0.35766 0.81260
 C640 C 0.11375 0.31228 0.85759
 N641 N 0.12393 0.29864 0.87775
 C642 C 0.14684 0.30976 0.88439
 C643 C 0.19468 0.35067 0.88008
 N644 N 0.20809 0.37096 0.86997
 C645 C 0.19404 0.38103 0.85011
 H646 H 0.15845 0.40022 0.80332
 H647 H 0.09527 0.34748 0.80849
 H648 H 0.09579 0.30779 0.84774
 H649 H 0.15944 0.30326 0.89986
 H650 H 0.20092 0.33883 0.89623
 H651 H 0.19995 0.39716 0.83806
 C652 C 0.14969 0.87097 0.33296
 C653 C 0.16857 0.87138 0.35254
 C654 C 0.16832 0.85266 0.37174
 C655 C 0.14915 0.83341 0.37177
 C656 C 0.13021 0.83344 0.35284
 C657 C 0.13045 0.85238 0.33337
 C658 C 0.14665 0.88497 0.31045
 N659 N 0.12590 0.87542 0.29719
 C660 C 0.11577 0.85563 0.31141
 C661 C 0.11538 0.81162 0.35643
 N662 N 0.12499 0.79818 0.37693
 C663 C 0.14560 0.81146 0.38653
 C664 C 0.18939 0.85707 0.38740
 N665 N 0.20229 0.87819 0.37842
 C666 C 0.18975 0.88700 0.35699
 H667 H 0.15899 0.90073 0.30423
 H668 H 0.09989 0.84329 0.30550
 H669 H 0.09961 0.80526 0.34415
 H670 H 0.15764 0.80524 0.40254
 H671 H 0.19480 0.84585 0.40429
 H672 H 0.19575 0.90334 0.34529
 O673 O 0.97572 0.90722 0.87028
 O674 O 0.97578 0.87718 0.83994
 C675 C 0.96710 0.89834 0.84905
 C676 C 0.94633 0.91247 0.83518
 C677 C 0.93857 0.90477 0.81034
 H678 H 0.94881 0.88912 0.80084
 O679 O 1.02660 1.09463 0.87104
 O680 O 1.02684 1.12516 0.84113
 C681 C 1.03572 1.10405 0.85022
 C682 C 1.05719 1.09052 0.83682
 C683 C 1.06718 1.10013 0.81340
 H684 H 1.05895 1.11760 0.80524
 O685 O 0.87279 0.97578 0.90569
 O686 O 0.84260 0.97583 0.87546
 C687 C 0.85172 0.96697 0.89657
 C688 C 0.83808 0.94572 0.91026
 C689 C 0.81480 0.93571 0.90038
 H690 H 0.80656 0.94406 0.88298
 O691 O 1.12896 1.02553 0.90677
 O692 O 1.15967 1.02550 0.87706
 C693 C 1.15026 1.03427 0.89805
 C694 C 1.16388 1.05513 0.91234
 C695 C 1.18869 1.06343 0.90468
 H696 H 1.19793 1.05441 0.88818
 O697 O 0.90676 0.87225 0.97433
 O698 O 0.87629 0.84231 0.97416
 C699 C 0.89737 0.85139 0.96526
 C700 C 0.91064 0.83807 0.94357
 C701 C 0.90063 0.81488 0.93341
 H702 H 0.88405 0.80594 0.94262
 O703 O 1.09329 1.12919 0.97566
 O704 O 1.12373 1.15917 0.97560
 C705 C 1.10250 1.15025 0.96687
 C706 C 1.08862 1.16422 0.94597
 C707 C 1.09641 1.18914 0.93844
 H708 H 1.11202 1.19855 0.94882
 O709 O 0.90867 1.02591 0.87002
 O710 O 0.87857 1.02607 0.83968
 C711 C 0.89977 1.03466 0.84881
 C712 C 0.91385 1.05550 0.83502
 C713 C 0.90632 1.06308 0.81005
 H714 H 0.89120 1.05229 0.80036
 O715 O 1.09349 0.97545 0.87084
 O716 O 1.12383 0.97547 0.84075
 C717 C 1.10261 0.96677 0.84973
 C718 C 1.08863 0.94593 0.83588
 C719 C 1.09604 0.93857 0.81082
 H720 H 1.11138 0.94914 0.80117
 O721 O 1.02560 0.87115 0.90600
 O722 O 1.02567 0.84081 0.87598
 C723 C 1.03441 0.84999 0.89706
 C724 C 1.05540 0.83639 0.91117
 C725 C 1.06408 0.81180 0.90324
 H726 H 1.05515 0.80266 0.88663
 O727 O 0.97542 1.12913 0.90647
 O728 O 0.97533 1.15960 0.87650
 C729 C 0.96638 1.15014 0.89741
 C730 C 0.94474 1.16331 0.91088
 C731 C 0.93453 1.18648 0.90098
 H732 H 0.94305 1.19498 0.88379
 O733 O 0.87203 1.09306 0.97478
 O734 O 0.84142 1.12292 0.97485
 C735 C 0.85081 1.10197 0.96598
 C736 C 0.83731 1.08829 0.94470
 C737 C 0.81253 1.09618 0.93673
 H738 H 0.80272 1.11127 0.94747
 O739 O 1.12834 0.90706 0.97536
 O740 O 1.15873 0.87698 0.97546
 C741 C 1.14958 0.89811 0.96669
 C742 C 1.16340 0.91206 0.94572
 C743 C 1.18828 0.90425 0.93795
 H744 H 1.19790 0.88892 0.94854
 O745 O 0.97604 1.09468 0.87016
 O746 O 0.97614 1.12496 0.84000
 C747 C 0.96734 1.10380 0.84901
 C748 C 0.94648 1.08973 0.83519
 C749 C 0.93806 1.09768 0.81050
 H750 H 0.94690 1.11451 0.80170
 O751 O 1.02608 0.90674 0.87064
 O752 O 1.02620 0.87665 0.84035
 C753 C 1.03494 0.89773 0.84954
 C754 C 1.05578 0.91190 0.83584
 C755 C 1.06372 0.90448 0.81089
 H756 H 1.05453 0.88806 0.80168
 O757 O 1.12879 0.97495 0.90642
 O758 O 1.15936 0.97483 0.87658
 C759 C 1.14992 0.96597 0.89752
 C760 C 1.16338 0.94482 0.91156
 C761 C 1.18794 0.93619 0.90352
 H762 H 1.19676 0.94500 0.88668
 O763 O 0.87267 1.02632 0.90501
 O764 O 0.84236 1.02651 0.87490
 C765 C 0.85158 1.03527 0.89595
 C766 C 0.83789 1.05621 0.91002
 C767 C 0.81343 1.06496 0.90176
 H768 H 0.80488 1.05645 0.88466
 O769 O 0.90721 1.12889 0.97489
 O770 O 0.87669 1.15882 0.97478
 C771 C 0.89784 1.14982 0.96592
 C772 C 0.91123 1.16328 0.94435
 C773 C 0.90134 1.18657 0.93419
 H774 H 0.88463 1.19551 0.94318
 O775 O 1.09287 0.87150 0.97498
 O776 O 1.12315 0.84130 0.97505
 C777 C 1.10205 0.85042 0.96620
 C778 C 1.08834 0.83668 0.94513
 C779 C 1.09648 0.81199 0.93724
 H780 H 1.11212 0.80256 0.94758
 O781 O 1.09395 1.02588 0.87080
 O782 O 1.12447 1.02597 0.84090
 C783 C 1.10330 1.03481 0.84985
 C784 C 1.08986 1.05630 0.83636
 C785 C 1.09902 1.06562 0.81248
 H786 H 1.11479 1.05550 0.80313
 O787 O 0.90772 0.97550 0.86971
 O788 O 0.87767 0.97565 0.83932
 C789 C 0.89869 0.96675 0.84856
 C790 C 0.91266 0.94574 0.83495
 C791 C 0.90486 0.93752 0.81020
 H792 H 0.88841 0.94674 0.80099
 O793 O 1.02593 1.12998 0.90647
 O794 O 1.02597 1.16072 0.87677
 C795 C 1.03467 1.15129 0.89779
 C796 C 1.05552 1.16481 0.91213
 C797 C 1.06381 1.18966 0.90463
 H798 H 1.05468 1.19906 0.88824
 O799 O 0.97497 0.87199 0.90589
 O800 O 0.97484 0.84178 0.87573
 C801 C 0.96582 0.85113 0.89664
 C802 C 0.94400 0.83806 0.90996
 C803 C 0.93349 0.81511 0.89989
 H804 H 0.94184 0.80679 0.88256
 O805 O 1.12864 1.09334 0.97598
 O806 O 1.15925 1.12314 0.97591
 C807 C 1.14992 1.10209 0.96723
 C808 C 1.16367 1.08802 0.94634
 C809 C 1.18859 1.09572 0.93871
 H810 H 1.19815 1.11119 0.94914
 O811 O 0.87168 0.90817 0.97484
 O812 O 0.84118 0.87827 0.97483
 C813 C 0.85055 0.89923 0.96594
 C814 C 0.83735 0.91278 0.94430
 C815 C 0.81395 0.90318 0.93424
 H816 H 0.80468 0.88682 0.94354
 Cu817 Cu 1.00065 0.89225 0.89126
 Cu818 Cu 1.00064 0.85600 0.85502
 Cu819 Cu 1.00101 1.10904 0.89151
 Cu820 Cu 1.00107 1.14570 0.85559
 Cu821 Cu 0.89347 1.00088 0.89064
 Cu822 Cu 0.85722 1.00107 0.85433
 Cu823 Cu 1.10827 1.00047 0.89171
 Cu824 Cu 1.14492 1.00043 0.85582
 C825 C 0.93349 0.93318 0.84717
 H826 H 0.93930 0.93910 0.86644
 C827 C 0.91782 0.91710 0.79761
 C828 C 1.06866 1.06861 0.84811
 H829 H 1.06154 1.06154 0.86654
 C830 C 1.08812 1.08784 0.80090
 C831 C 0.84910 0.93424 0.93235
 H832 H 0.86734 0.94150 0.93976
 C833 C 0.80262 0.91434 0.91210
 C834 C 1.15161 1.06748 0.93327
 H835 H 1.13230 1.06155 0.93899
 C836 C 1.20133 1.08367 0.91787
 C837 C 0.93251 0.84932 0.93189
 H838 H 0.94016 0.86733 0.93944
 C839 C 0.91174 0.80334 0.91138
 C840 C 1.06795 1.15236 0.93292
 H841 H 1.06197 1.13304 0.93853
 C842 C 1.08418 1.20211 0.91779
 C843 C 0.93424 1.06862 0.84722
 H844 H 0.94012 1.06281 0.86651
 C845 C 0.91806 1.08431 0.79754
 C846 C 1.06826 0.93271 0.84808
 H847 H 1.06254 0.93824 0.86748
 C848 C 1.08375 0.91784 0.79807
 C849 C 1.06759 0.84856 0.93221
 H850 H 1.06135 0.86770 0.93814
 C851 C 1.08455 0.79931 0.91629
 C852 C 0.93310 1.15196 0.93270
 H853 H 0.94060 1.13382 0.94014
 C854 C 0.91276 1.19824 0.91235
 C855 C 0.84964 1.06800 0.93151
 H856 H 0.86876 1.06180 0.93760
 C857 C 0.80032 1.08481 0.91516
 C858 C 1.15131 0.93265 0.93268
 H859 H 1.13212 0.93878 0.93859
 C860 C 1.20082 0.91606 0.91675
 O861 O 1.02527 0.90548 1.13004
 O862 O 1.02535 0.87497 1.15998
 C863 C 1.03429 0.89607 1.15091
 C864 C 1.05576 0.90961 1.16434
 C865 C 1.06592 0.89992 1.18766
 H866 H 1.05782 0.88238 1.19580
 O867 O 0.97521 1.09455 1.12946
 O868 O 0.97525 1.12481 1.15956
 C869 C 0.96630 1.10381 1.15043
 C870 C 0.94474 1.09052 1.16388
 C871 C 0.93440 1.10088 1.18676
 H872 H 0.94278 1.11831 1.19483
 O873 O 0.87231 1.02531 1.09480
 O874 O 0.84175 1.02521 1.12465
 C875 C 0.85101 1.03399 1.10359
 C876 C 0.83730 1.05491 1.08939
 C877 C 0.81286 1.06375 1.09765
 H878 H 0.80387 1.05496 1.11443
 O879 O 1.12834 0.97416 1.09498
 O880 O 1.15881 0.97404 1.12493
 C881 C 1.14951 0.96527 1.10392
 C882 C 1.16308 0.94428 1.08980
 C883 C 1.18789 0.93588 1.09745
 H884 H 1.19708 0.94487 1.11399
 O885 O 1.09251 0.87109 1.02546
 O886 O 1.12270 0.84082 1.02542
 C887 C 1.10147 0.84983 1.03407
 C888 C 1.08735 0.83578 1.05477
 C889 C 1.09464 0.81055 1.06187
 H890 H 1.10965 0.80090 1.05089
 O891 O 0.90708 1.12869 1.02558
 O892 O 0.87655 1.15861 1.02550
 C893 C 0.89761 1.14957 1.03453
 C894 C 0.91080 1.16306 1.05615
 C895 C 0.90023 1.18584 1.06658
 H896 H 0.88258 1.19366 1.05834
 O897 O 0.90833 0.97550 1.13086
 O898 O 0.87823 0.97567 1.16118
 C899 C 0.89937 0.96688 1.15209
 C900 C 0.91325 0.94582 1.16584
 C901 C 0.90568 0.93824 1.19081
 H902 H 0.89074 0.94921 1.20060
 O903 O 1.09290 1.02484 1.13026
 O904 O 1.12310 1.02473 1.16048
 C905 C 1.10203 1.03366 1.15132
 C906 C 1.08848 1.05515 1.16471
 C907 C 1.09752 1.06437 1.18864
 H908 H 1.11323 1.05422 1.19810
 O909 O 0.97448 0.87075 1.09441
 O910 O 0.97417 0.84007 1.12416
 C911 C 0.96552 0.84956 1.10313
 C912 C 0.94461 0.83616 1.08871
 C913 C 0.93619 0.81131 1.09607
 H914 H 0.94507 0.80193 1.11259
 O915 O 1.02591 1.12988 1.09405
 O916 O 1.02582 1.16017 1.12413
 C917 C 1.03478 1.15092 1.10319
 C918 C 1.05629 1.16431 1.08979
 C919 C 1.06652 1.18736 1.09985
 H920 H 1.05804 1.19564 1.11714
 O921 O 0.87191 0.90752 1.02558
 O922 O 0.84156 0.87747 1.02559
 C923 C 0.85098 0.89829 1.03469
 C924 C 0.83806 0.91132 1.05678
 C925 C 0.81506 0.90115 1.06727
 H926 H 0.80587 0.88483 1.05789
 O927 O 1.12824 1.09360 1.02663
 O928 O 1.15881 1.12345 1.02655
 C929 C 1.14930 1.10261 1.03563
 C930 C 1.16254 1.08905 1.05724
 C931 C 1.18579 1.09881 1.06745
 H932 H 1.19383 1.11636 1.05930
 O933 O 1.02581 1.09428 1.12940
 O934 O 1.02587 1.12448 1.15956
 C935 C 1.03471 1.10338 1.15044
 C936 C 1.05594 1.08956 1.16404
 C937 C 1.06577 1.09898 1.18758
 H938 H 1.05756 1.11643 1.19576
 O939 O 0.97476 0.90570 1.13038
 O940 O 0.97456 0.87534 1.16046
 C941 C 0.96594 0.89661 1.15148
 C942 C 0.94527 0.91095 1.16537
 C943 C 0.93686 0.90308 1.19006
 H944 H 0.94547 0.88607 1.19878
 O945 O 1.12833 1.02471 1.09464
 O946 O 1.15865 1.02464 1.12473
 C947 C 1.14947 1.03352 1.10367
 C948 C 1.16295 1.05495 1.09007
 C949 C 1.18674 1.06441 1.09936
 H950 H 1.19603 1.05439 1.11523
 O951 O 0.87303 0.97472 1.09523
 O952 O 0.84279 0.97452 1.12540
 C953 C 0.85212 0.96557 1.10446
 C954 C 0.83888 0.94391 1.09107
 C955 C 0.81618 0.93315 1.10151
 H956 H 0.80831 0.94106 1.11925
 O957 O 1.09374 1.12996 1.02612
 O958 O 1.12427 1.15984 1.02605
 C959 C 1.10313 1.15094 1.03493
 C960 C 1.08974 1.16447 1.05638
 C961 C 1.09964 1.18770 1.06658
 H962 H 1.11631 1.19665 1.05754
 O963 O 0.90736 0.87198 1.02488
 O964 O 0.87710 0.84182 1.02461
 C965 C 0.89827 0.85077 1.03344
 C966 C 0.91207 0.83673 1.05433
 C967 C 0.90423 0.81177 1.06165
 H968 H 0.88887 0.80234 1.05094
 O969 O 1.09269 0.97430 1.13031
 O970 O 1.12299 0.97414 1.16042
 C971 C 1.10185 0.96538 1.15134
 C972 C 1.08833 0.94392 1.16480
 C973 C 1.09761 0.93453 1.18859
 H974 H 1.11337 0.94464 1.19793
 O975 O 0.90753 1.02605 1.13052
 O976 O 0.87710 1.02625 1.16051
 C977 C 0.89813 1.03518 1.15134
 C978 C 0.91139 1.05698 1.16445
 C979 C 0.90141 1.06750 1.18750
 H980 H 0.88476 1.05853 1.19656
 O981 O 0.97531 1.12978 1.09377
 O982 O 0.97518 1.16010 1.12381
 C983 C 0.96630 1.15081 1.10282
 C984 C 0.94456 1.16392 1.08933
 C985 C 0.93402 1.18704 1.09913
 H986 H 0.94323 1.19625 1.11552
 O987 O 1.02499 0.87040 1.09448
 O988 O 1.02487 0.83963 1.12415
 C989 C 1.03374 0.84911 1.10322
 C990 C 1.05466 0.83556 1.08896
 C991 C 1.06287 0.81068 1.09643
 H992 H 1.05392 0.80169 1.11310
 O993 O 1.12795 0.90678 1.02591
 O994 O 1.15828 0.87665 1.02592
 C995 C 1.14908 0.89771 1.03472
 C996 C 1.16284 0.91151 1.05573
 C997 C 1.18779 0.90375 1.06327
 H998 H 1.19734 0.88839 1.05268
 O999 O 0.87210 1.09274 1.02534
 O1000 O 0.84151 1.12261 1.02526
 C1001 C 0.85087 1.10161 1.03411
 C1002 C 0.83729 1.08778 1.05528
 C1003 C 0.81278 1.09610 1.06358
 H1004 H 0.80331 1.11186 1.05345
 Cu1005 Cu 0.99983 0.89113 1.10936
 Cu1006 Cu 0.99967 0.85444 1.14522
 Cu1007 Cu 1.00058 1.10910 1.10864
 Cu1008 Cu 1.00054 1.14544 1.14479
 Cu1009 Cu 0.89243 0.89302 0.99991
 Cu1010 Cu 0.85594 0.85701 0.99982
 Cu1011 Cu 1.10739 0.89214 1.00044
 Cu1012 Cu 1.14377 0.85592 1.00050
 Cu1013 Cu 0.89270 1.10788 1.00013
 Cu1014 Cu 0.85601 1.14378 1.00010
 Cu1015 Cu 1.10792 1.10853 1.00107
 Cu1016 Cu 1.14463 1.14435 1.00090
 Cu1017 Cu 0.89334 1.00042 1.10985
 Cu1018 Cu 0.85690 1.00038 1.14594
 Cu1019 Cu 1.10754 0.99950 1.10953
 Cu1020 Cu 1.14391 0.99938 1.14568
 C1021 C 1.06712 0.93162 1.15308
 H1022 H 1.05993 0.93876 1.13470
 C1023 C 1.08691 0.91220 1.20008
 C1024 C 0.93323 1.06847 1.15298
 H1025 H 0.94083 1.06071 1.13504
 C1026 C 0.91265 1.08965 1.19872
 C1027 C 0.84925 1.06696 1.06809
 H1028 H 0.86829 1.06061 1.06191
 C1029 C 0.80035 1.08431 1.08477
 C1030 C 1.15080 0.93200 1.06887
 H1031 H 1.13151 0.93801 1.06315
 C1032 C 1.20058 0.91571 1.08415
 C1033 C 1.06704 0.84792 1.06812
 H1034 H 1.06128 0.86736 1.06267
 C1035 C 1.08269 0.79770 1.08281
 C1036 C 0.93302 1.15231 1.06761
 H1037 H 0.94087 1.13436 1.06008
 C1038 C 0.91159 1.19805 1.08812
 C1039 C 0.93335 0.93235 1.15349
 H1040 H 0.93925 0.93813 1.13420
 C1041 C 0.91718 0.91677 1.20319
 C1042 C 1.06742 1.06762 1.15280
 H1043 H 1.06043 1.06067 1.13429
 C1044 C 1.08662 1.08659 1.20016
 C1045 C 0.93249 0.84862 1.06774
 H1046 H 0.93852 0.86796 1.06223
 C1047 C 0.91609 0.79880 1.08250
 C1048 C 1.06787 1.15314 1.06793
 H1049 H 1.06036 1.13506 1.06041
 C1050 C 1.08826 1.19924 1.08850
 C1051 C 0.84964 0.93290 1.06865
 H1052 H 0.86749 0.94069 1.06083
 C1053 C 0.80409 0.91169 1.08987
 C1054 C 1.15126 1.06712 1.06872
 H1055 H 1.13292 1.05995 1.06147
 C1056 C 1.19825 1.08667 1.08851
 O1057 O 0.97342 0.40716 0.36926
 O1058 O 0.97301 0.37680 0.33927
 C1059 C 0.96429 0.39794 0.34837
 C1060 C 0.94271 0.41153 0.33514
 C1061 C 0.93206 0.40163 0.31214
 H1062 H 0.94103 0.38497 0.30315
 O1063 O 1.02563 0.59483 0.37148
 O1064 O 1.02567 0.62536 0.34155
 C1065 C 1.03458 0.60424 0.35057
 C1066 C 1.05595 0.59073 0.33700
 C1067 C 1.06607 0.60069 0.31380
 H1068 H 1.05791 0.61830 0.30584
 O1069 O 0.87198 0.47591 0.40616
 O1070 O 0.84130 0.47617 0.37641
 C1071 C 0.85086 0.46705 0.39722
 C1072 C 0.83772 0.44541 0.41077
 C1073 C 0.81467 0.43499 0.40083
 H1074 H 0.80639 0.44324 0.38341
 O1075 O 1.12745 0.52492 0.40633
 O1076 O 1.15785 0.52486 0.37632
 C1077 C 1.14861 0.53371 0.39735
 C1078 C 1.16222 0.55496 0.41103
 C1079 C 1.18568 0.56473 0.40131
 H1080 H 1.19408 0.55616 0.38412
 O1081 O 0.90769 0.37237 0.47510
 O1082 O 0.87743 0.34220 0.47549
 C1083 C 0.89853 0.35121 0.46653
 C1084 C 0.91218 0.33723 0.44553
 C1085 C 0.90450 0.31217 0.43845
 H1086 H 0.88939 0.30264 0.44944
 O1087 O 1.09370 0.62921 0.47554
 O1088 O 1.12415 0.65919 0.47542
 C1089 C 1.10293 0.65027 0.46670
 C1090 C 1.08921 0.66401 0.44554
 C1091 C 1.09838 0.68790 0.43623
 H1092 H 1.11468 0.69701 0.44574
 O1093 O 0.90684 0.52655 0.37039
 O1094 O 0.87639 0.52707 0.34042
 C1095 C 0.89764 0.53565 0.34946
 C1096 C 0.91172 0.55670 0.33591
 C1097 C 0.90415 0.56503 0.31110
 H1098 H 0.88772 0.55592 0.30181
 O1099 O 1.09160 0.47517 0.37008
 O1100 O 1.12184 0.47531 0.33989
 C1101 C 1.10056 0.46670 0.34881
 C1102 C 1.08641 0.44623 0.33462
 C1103 C 1.09375 0.43938 0.30942
 H1104 H 1.10899 0.45025 0.29997
 O1105 O 1.02429 0.37205 0.40472
 O1106 O 1.02431 0.34179 0.37462
 C1107 C 1.03323 0.35102 0.39562
 C1108 C 1.05460 0.33752 0.40926
 C1109 C 1.06452 0.31415 0.39954
 H1110 H 1.05608 0.30580 0.38226
 O1111 O 0.97492 0.62979 0.40709
 O1112 O 0.97474 0.66041 0.37727
 C1113 C 0.96601 0.65098 0.39826
 C1114 C 0.94503 0.66447 0.41245
 C1115 C 0.93660 0.68922 0.40475
 H1116 H 0.94562 0.69847 0.38823
 O1117 O 0.87175 0.59328 0.47562
 O1118 O 0.84141 0.62342 0.47570
 C1119 C 0.85058 0.60235 0.46689
 C1120 C 0.83676 0.58858 0.44592
 C1121 C 0.81180 0.59634 0.43846
 H1122 H 0.80226 0.61176 0.44899
 O1123 O 1.12728 0.40642 0.47455
 O1124 O 1.15757 0.37625 0.47441
 C1125 C 1.14843 0.39742 0.46572
 C1126 C 1.16209 0.41130 0.44460
 C1127 C 1.18681 0.40330 0.43654
 H1128 H 1.19647 0.38795 0.44708
 O1129 O 0.97512 0.59446 0.37145
 O1130 O 0.97512 0.62487 0.34140
 C1131 C 0.96642 0.60363 0.35033
 C1132 C 0.94559 0.58973 0.33636
 C1133 C 0.93812 0.59748 0.31142
 H1134 H 0.94862 0.61298 0.30195
 O1135 O 1.02389 0.40695 0.36877
 O1136 O 1.02373 0.37698 0.33839
 C1137 C 1.03258 0.39803 0.34757
 C1138 C 1.05346 0.41230 0.33394
 C1139 C 1.06150 0.40522 0.30889
 H1140 H 1.05231 0.38893 0.29946
 O1141 O 1.12728 0.47423 0.40548
 O1142 O 1.15768 0.47415 0.37548
 C1143 C 1.14833 0.46521 0.39642
 C1144 C 1.16183 0.44396 0.41032
 C1145 C 1.18623 0.43511 0.40199
 H1146 H 1.19487 0.44381 0.38501
 O1147 O 0.87136 0.52636 0.40595
 O1148 O 0.84065 0.52677 0.37624
 C1149 C 0.85008 0.53526 0.39730
 C1150 C 0.83648 0.55596 0.41175
 C1151 C 0.81158 0.56421 0.40429
 H1152 H 0.80226 0.55524 0.38781
 O1153 O 0.90720 0.62895 0.47595
 O1154 O 0.87699 0.65921 0.47600
 C1155 C 0.89816 0.65015 0.46727
 C1156 C 0.91208 0.66408 0.44640
 C1157 C 0.90420 0.68895 0.43873
 H1158 H 0.88862 0.69841 0.44912
 O1159 O 1.09185 0.37086 0.47412
 O1160 O 1.12202 0.34058 0.47382
 C1161 C 1.10101 0.34994 0.46497
 C1162 C 1.08760 0.33686 0.44323
 C1163 C 1.09711 0.31336 0.43331
 H1164 H 1.11341 0.30404 0.44268
 O1165 O 1.09254 0.52563 0.37031
 O1166 O 1.12288 0.52570 0.34023
 C1167 C 1.10185 0.53466 0.34938
 C1168 C 1.08855 0.55644 0.33616
 C1169 C 1.09796 0.56624 0.31256
 H1170 H 1.11389 0.55640 0.30316
 O1171 O 0.90622 0.47594 0.36980
 O1172 O 0.87565 0.47636 0.33995
 C1173 C 0.89663 0.46713 0.34893
 C1174 C 0.90954 0.44530 0.33553
 C1175 C 0.89881 0.43479 0.31288
 H1176 H 0.88129 0.44323 0.30497
 O1177 O 1.02548 0.62971 0.40732
 O1178 O 1.02538 0.66033 0.37750
 C1179 C 1.03432 0.65088 0.39841
 C1180 C 1.05572 0.66421 0.41210
 C1181 C 1.06537 0.68789 0.40284
 H1182 H 1.05665 0.69660 0.38586
 O1183 O 0.97382 0.37171 0.40480
 O1184 O 0.97362 0.34108 0.37507
 C1185 C 0.96501 0.35044 0.39616
 C1186 C 0.94435 0.33684 0.41080
 C1187 C 0.93604 0.31190 0.40363
 H1188 H 0.94481 0.30259 0.38704
 O1189 O 1.12850 0.59300 0.47525
 O1190 O 1.15905 0.62286 0.47509
 C1191 C 1.14959 0.60193 0.46623
 C1192 C 1.16276 0.58827 0.44466
 C1193 C 1.18635 0.59761 0.43474
 H1194 H 1.19564 0.61397 0.44397
 O1195 O 0.87217 0.40797 0.47505
 O1196 O 0.84188 0.37785 0.47516
 C1197 C 0.85110 0.39884 0.46618
 C1198 C 0.83768 0.41225 0.44459
 C1199 C 0.81432 0.40242 0.43464
 H1200 H 0.80528 0.38602 0.44407
 Cu1201 Cu 0.99885 0.39250 0.38986
 Cu1202 Cu 0.99865 0.35610 0.35381
 Cu1203 Cu 1.00024 0.60915 0.39234
 Cu1204 Cu 1.00016 0.64583 0.35642
 Cu1205 Cu 0.89220 0.50126 0.39102
 Cu1206 Cu 0.85542 0.50171 0.35524
 Cu1207 Cu 1.10670 0.49995 0.39108
 Cu1208 Cu 1.14315 0.49994 0.35500
 C1209 C 0.93154 0.43359 0.34644
 H1210 H 0.93950 0.44120 0.36428
 C1211 C 0.90981 0.41288 0.30099
 C1212 C 1.06729 0.56858 0.34798
 H1213 H 1.06002 0.56121 0.36623
 C1214 C 1.08712 0.58865 0.30130
 C1215 C 0.84904 0.43395 0.43272
 H1216 H 0.86718 0.44148 0.44013
 C1217 C 0.80277 0.41342 0.41252
 C1218 C 1.15100 0.56676 0.43283
 H1219 H 1.13263 0.55968 0.44012
 C1220 C 1.19786 0.58615 0.41288
 C1221 C 0.93234 0.34925 0.43184
 H1222 H 0.93826 0.36865 0.43719
 C1223 C 0.91620 0.29923 0.41750
 C1224 C 1.06767 0.65251 0.43356
 H1225 H 1.06067 0.63396 0.44045
 C1226 C 1.08676 0.69994 0.41468
 C1227 C 0.93253 0.56910 0.34828
 H1228 H 0.93816 0.56312 0.36760
 C1229 C 0.91741 0.58532 0.29851
 C1230 C 1.06601 0.43287 0.34654
 H1231 H 1.06034 0.43809 0.36605
 C1232 C 1.08158 0.41883 0.29628
 C1233 C 1.06617 0.34865 0.43122
 H1234 H 1.05894 0.36694 0.43853
 C1235 C 1.08586 0.30194 0.41131
 C1236 C 0.93273 0.65215 0.43337
 H1237 H 0.93880 0.63288 0.43911
 C1238 C 0.91627 0.70177 0.41790
 C1239 C 0.84881 0.56816 0.43268
 H1240 H 0.86817 0.56221 0.43825
 C1241 C 0.79897 0.58434 0.41765
 C1242 C 1.14996 0.43193 0.43165
 H1243 H 1.13089 0.43821 0.43779
 C1244 C 1.19916 0.41493 0.41514
 O1245 O 1.02518 0.40665 0.63083
 O1246 O 1.02528 0.37648 0.66111
 C1247 C 1.03402 0.39761 0.65194
 C1248 C 1.05488 0.41179 0.66559
 C1249 C 1.06312 0.40418 0.69040
 H1250 H 1.05416 0.38752 0.69942
 O1251 O 0.97582 0.59379 0.63034
 O1252 O 0.97610 0.62377 0.66072
 C1253 C 0.96730 0.60266 0.65163
 C1254 C 0.94653 0.58857 0.66554
 C1255 C 0.93902 0.59607 0.69054
 H1256 H 0.94946 0.61151 0.70012
 O1257 O 0.87214 0.52593 0.59539
 O1258 O 0.84181 0.52593 0.62547
 C1259 C 0.85103 0.53480 0.60444
 C1260 C 0.83745 0.55604 0.59066
 C1261 C 0.81398 0.56599 0.60020
 H1262 H 0.80564 0.55769 0.61756
 O1263 O 1.12788 0.47347 0.59397
 O1264 O 1.15832 0.47302 0.62394
 C1265 C 1.14877 0.46414 0.60308
 C1266 C 1.16184 0.44247 0.58954
 C1267 C 1.18525 0.43237 0.59906
 H1268 H 1.19371 0.44072 0.61632
 O1269 O 1.09162 0.37051 0.52482
 O1270 O 1.12169 0.34012 0.52453
 C1271 C 1.10072 0.34936 0.53358
 C1272 C 1.08740 0.33601 0.55528
 C1273 C 1.09674 0.31222 0.56470
 H1274 H 1.11236 0.30274 0.55446
 O1275 O 0.90698 0.62846 0.52655
 O1276 O 0.87667 0.65861 0.52651
 C1277 C 0.89765 0.64938 0.53553
 C1278 C 0.91086 0.66273 0.55719
 C1279 C 0.90054 0.68569 0.56739
 H1280 H 0.88314 0.69381 0.55890
 O1281 O 0.90775 0.47554 0.63106
 O1282 O 0.87753 0.47552 0.66128
 C1283 C 0.89872 0.46683 0.65224
 C1284 C 0.91268 0.44594 0.66610
 C1285 C 0.90538 0.43874 0.69126
 H1286 H 0.89049 0.44983 0.70098
 O1287 O 1.09416 0.52554 0.62899
 O1288 O 1.12478 0.52543 0.65879
 C1289 C 1.10377 0.53457 0.64975
 C1290 C 1.09061 0.55625 0.66319
 C1291 C 1.10040 0.56595 0.68662
 H1292 H 1.11758 0.55725 0.69499
 O1293 O 0.97484 0.37152 0.59518
 O1294 O 0.97477 0.34091 0.62501
 C1295 C 0.96602 0.35031 0.60398
 C1296 C 0.94512 0.33685 0.58967
 C1297 C 0.93671 0.31206 0.59722
 H1298 H 0.94567 0.30274 0.61374
 O1299 O 1.02575 0.62962 0.59445
 O1300 O 1.02581 0.66009 0.62435
 C1301 C 1.03454 0.65081 0.60330
 C1302 C 1.05553 0.66436 0.58914
 C1303 C 1.06389 0.68913 0.59675
 H1304 H 1.05471 0.69847 0.61311
 O1305 O 0.87254 0.40828 0.52571
 O1306 O 0.84207 0.37833 0.52572
 C1307 C 0.85137 0.39934 0.53453
 C1308 C 0.83775 0.41309 0.55571
 C1309 C 0.81300 0.40509 0.56360
 H1310 H 0.80340 0.38974 0.55306
 O1311 O 1.12914 0.59323 0.52582
 O1312 O 1.15973 0.62303 0.52574
 C1313 C 1.15042 0.60200 0.53453
 C1314 C 1.16425 0.58764 0.55522
 C1315 C 1.18908 0.59534 0.56336
 H1316 H 1.19781 0.61222 0.55454
 O1317 O 1.02627 0.59404 0.62973
 O1318 O 1.02666 0.62429 0.65985
 C1319 C 1.03543 0.60322 0.65062
 C1320 C 1.05703 0.58963 0.66378
 C1321 C 1.06684 0.59881 0.68741
 H1322 H 1.05741 0.61502 0.69677
 O1323 O 0.97472 0.40636 0.63114
 O1324 O 0.97462 0.37607 0.66129
 C1325 C 0.96587 0.39723 0.65222
 C1326 C 0.94504 0.41142 0.66600
 C1327 C 0.93685 0.40385 0.69088
 H1328 H 0.94573 0.38710 0.69982
 O1329 O 1.12929 0.52403 0.59318
 O1330 O 1.16005 0.52356 0.62284
 C1331 C 1.15080 0.53236 0.60178
 C1332 C 1.16468 0.55311 0.58757
 C1333 C 1.18985 0.56046 0.59482
 H1334 H 1.19969 0.54954 0.60976
 O1335 O 0.87245 0.47540 0.59539
 O1336 O 0.84200 0.47522 0.62535
 C1337 C 0.85133 0.46648 0.60431
 C1338 C 0.83779 0.44552 0.59013
 C1339 C 0.81323 0.43684 0.59813
 H1340 H 0.80427 0.44553 0.61495
 O1341 O 1.09355 0.62874 0.52597
 O1342 O 1.12394 0.65877 0.52587
 C1343 C 1.10274 0.64983 0.53466
 C1344 C 1.08883 0.66379 0.55550
 C1345 C 1.09669 0.68864 0.56312
 H1346 H 1.11238 0.69803 0.55283
 O1347 O 0.90773 0.37234 0.52569
 O1348 O 0.87734 0.34230 0.52585
 C1349 C 0.89855 0.35128 0.53454
 C1350 C 0.91236 0.33735 0.55551
 C1351 C 0.90449 0.31245 0.56305
 H1352 H 0.88900 0.30301 0.55253
 O1353 O 1.09289 0.47503 0.62997
 O1354 O 1.12321 0.47495 0.66009
 C1355 C 1.10185 0.46648 0.65125
 C1356 C 1.08763 0.44592 0.66539
 C1357 C 1.09507 0.43861 0.69050
 H1358 H 1.11029 0.44936 0.70008
 O1359 O 0.90751 0.52594 0.63091
 O1360 O 0.87737 0.52595 0.66120
 C1361 C 0.89848 0.53472 0.65203
 C1362 C 0.91262 0.55558 0.66570
 C1363 C 0.90505 0.56362 0.69058
 H1364 H 0.88861 0.55443 0.69979
 O1365 O 0.97518 0.62925 0.59484
 O1366 O 0.97506 0.65943 0.62502
 C1367 C 0.96610 0.65017 0.60406
 C1368 C 0.94433 0.66328 0.59065
 C1369 C 0.93389 0.68647 0.60041
 H1370 H 0.94292 0.69560 0.61696
 O1371 O 1.02531 0.37150 0.59520
 O1372 O 1.02551 0.34107 0.62521
 C1373 C 1.03429 0.35040 0.60417
 C1374 C 1.05544 0.33688 0.59020
 C1375 C 1.06561 0.31353 0.59979
 H1376 H 1.05777 0.30552 0.61751
 O1377 O 1.12747 0.40563 0.52511
 O1378 O 1.15762 0.37532 0.52493
 C1379 C 1.14850 0.39631 0.53397
 C1380 C 1.16196 0.40957 0.55557
 C1381 C 1.18567 0.40005 0.56510
 H1382 H 1.19486 0.38390 0.55541
 O1383 O 0.87144 0.59317 0.52614
 O1384 O 0.84111 0.62331 0.52611
 C1385 C 0.85033 0.60227 0.53498
 C1386 C 0.83693 0.58878 0.55647
 C1387 C 0.81321 0.59816 0.56600
 H1388 H 0.80389 0.61422 0.55626
 Cu1389 Cu 0.99998 0.39205 0.61011
 Cu1390 Cu 1.00005 0.35553 0.64616
 Cu1391 Cu 1.00073 0.60868 0.60930
 Cu1392 Cu 1.00091 0.64495 0.64551
 Cu1393 Cu 0.89306 0.39327 0.50037
 Cu1394 Cu 0.85661 0.35720 0.50059
 Cu1395 Cu 1.10652 0.39136 0.49967
 Cu1396 Cu 1.14271 0.35500 0.49937
 Cu1397 Cu 0.89239 0.60794 0.50101
 Cu1398 Cu 0.85602 0.64419 0.50100
 Cu1399 Cu 1.10820 0.60804 0.50069
 Cu1400 Cu 1.14481 0.64394 0.50057
 Cu1401 Cu 0.89297 0.50070 0.61016
 Cu1402 Cu 0.85658 0.50062 0.64632
 Cu1403 Cu 1.10800 0.49955 0.60854
 Cu1404 Cu 1.14467 0.49919 0.64440
 C1405 C 1.06723 0.43270 0.65332
 H1406 H 1.06143 0.43825 0.63392
 C1407 C 1.08309 0.41763 0.70326
 C1408 C 0.93345 0.56809 0.65345
 H1409 H 0.93907 0.56231 0.63408
 C1410 C 0.91827 0.58377 0.70330
 C1411 C 0.84870 0.56750 0.56871
 H1412 H 0.86711 0.56035 0.56160
 C1413 C 0.80167 0.58713 0.58809
 C1414 C 1.15039 0.43099 0.56773
 H1415 H 1.13204 0.43832 0.56061
 C1416 C 1.19742 0.41114 0.58705
 C1417 C 1.06647 0.34796 0.56792
 H1418 H 1.05924 0.36636 0.56084
 C1419 C 1.08632 0.30092 0.58726
 C1420 C 0.93285 0.65174 0.56885
 H1421 H 0.94058 0.63372 0.56140
 C1422 C 0.91179 0.69775 0.58905
 C1423 C 0.93280 0.43247 0.65384
 H1424 H 0.93853 0.43801 0.63442
 C1425 C 0.91713 0.41758 0.70393
 C1426 C 1.06886 0.56816 0.65199
 H1427 H 1.06152 0.56111 0.63366
 C1428 C 1.08872 0.58729 0.69892
 C1429 C 0.93290 0.34924 0.56871
 H1430 H 0.93895 0.36853 0.56306
 C1431 C 0.91648 0.29956 0.58389
 C1432 C 1.06803 0.65196 0.56840
 H1433 H 1.06199 0.63270 0.56271
 C1434 C 1.08438 0.70157 0.58373
 C1435 C 0.84983 0.43356 0.56885
 H1436 H 0.86898 0.43976 0.56289
 C1437 C 0.80051 0.41671 0.58485
 C1438 C 1.15227 0.56651 0.56743
 H1439 H 1.13286 0.56091 0.56173
 C1440 C 1.20233 0.58170 0.58299
 O1441 O 0.47372 0.90663 0.37131
 O1442 O 0.47354 0.87620 0.34138
 C1443 C 0.46465 0.89727 0.35045
 C1444 C 0.44309 0.91070 0.33705
 C1445 C 0.43229 0.90030 0.31438
 H1446 H 0.44004 0.88237 0.30682
 O1447 O 0.52607 1.09498 0.37044
 O1448 O 0.52620 1.12523 0.34024
 C1449 C 0.53495 1.10407 0.34937
 C1450 C 0.55572 1.08978 0.33560
 C1451 C 0.56393 1.09736 0.31074
 H1452 H 0.55523 1.11427 0.30194
 O1453 O 0.37181 0.97627 0.40619
 O1454 O 0.34114 0.97649 0.37645
 C1455 C 0.35050 0.96761 0.39745
 C1456 C 0.33684 0.94671 0.41170
 C1457 C 0.31210 0.93832 0.40391
 H1458 H 0.30299 0.94731 0.38729
 O1459 O 0.62752 1.02491 0.40589
 O1460 O 0.65791 1.02489 0.37585
 C1461 C 0.64871 1.03366 0.39693
 C1462 C 0.66250 1.05460 0.41089
 C1463 C 0.68724 1.06254 0.40287
 H1464 H 0.69665 1.05245 0.38708
 O1465 O 0.40634 0.87166 0.47544
 O1466 O 0.37566 0.84193 0.47542
 C1467 C 0.39688 0.85073 0.46660
 C1468 C 0.41023 0.83709 0.44519
 C1469 C 0.40043 0.81365 0.43541
 H1470 H 0.38420 0.80464 0.44511
 O1471 O 0.59319 1.12904 0.47488
 O1472 O 0.62360 1.15906 0.47473
 C1473 C 0.60230 1.15019 0.46616
 C1474 C 0.58825 1.16432 0.44552
 C1475 C 0.59564 1.18950 0.43853
 H1476 H 0.61097 1.19896 0.44927
 O1477 O 0.40742 1.02633 0.37024
 O1478 O 0.37724 1.02641 0.33998
 C1479 C 0.39841 1.03511 0.34908
 C1480 C 0.41257 1.05595 0.33532
 C1481 C 0.40515 1.06378 0.31032
 H1482 H 0.38879 1.05444 0.30113
 O1483 O 0.59221 0.97452 0.37008
 O1484 O 0.62259 0.97426 0.34005
 C1485 C 0.60143 0.96553 0.34913
 C1486 C 0.58787 0.94404 0.33580
 C1487 C 0.59756 0.93384 0.31251
 H1488 H 0.61393 0.94318 0.30334
 O1489 O 0.52453 0.87161 0.40699
 O1490 O 0.52445 0.84119 0.37705
 C1491 C 0.53350 0.85059 0.39791
 C1492 C 0.55529 0.83740 0.41121
 C1493 C 0.56599 0.81471 0.40077
 H1494 H 0.55772 0.80664 0.38328
 O1495 O 0.47525 1.12986 0.40590
 O1496 O 0.47500 1.16035 0.37595
 C1497 C 0.46625 1.15097 0.39699
 C1498 C 0.44518 1.16441 0.41118
 C1499 C 0.43639 1.18898 0.40326
 H1500 H 0.44515 1.19815 0.38656
 O1501 O 0.37195 1.09419 0.47513
 O1502 O 0.34178 1.12448 0.47522
 C1503 C 0.35094 1.10349 0.46622
 C1504 C 0.33763 1.09029 0.44449
 C1505 C 0.31418 1.10005 0.43457
 H1506 H 0.30493 1.11610 0.44433
 O1507 O 0.62794 0.90713 0.47523
 O1508 O 0.65845 0.87718 0.47542
 C1509 C 0.64912 0.89815 0.46646
 C1510 C 0.66264 0.91186 0.44518
 C1511 C 0.68724 0.90368 0.43698
 H1512 H 0.69683 0.88811 0.44728
 O1513 O 0.47568 1.09442 0.37047
 O1514 O 0.47561 1.12460 0.34019
 C1515 C 0.46698 1.10337 0.34927
 C1516 C 0.44629 1.08915 0.33540
 C1517 C 0.43900 1.09635 0.31023
 H1518 H 0.44954 1.11168 0.30054
 O1519 O 0.52433 0.90645 0.37094
 O1520 O 0.52417 0.87606 0.34097
 C1521 C 0.53315 0.89710 0.34997
 C1522 C 0.55465 0.91040 0.33640
 C1523 C 0.56497 0.90009 0.31347
 H1524 H 0.55669 0.88255 0.30554
 O1525 O 0.62761 0.97436 0.40567
 O1526 O 0.65812 0.97432 0.37576
 C1527 C 0.64880 0.96551 0.39678
 C1528 C 0.66244 0.94451 0.41088
 C1529 C 0.68690 0.93575 0.40266
 H1530 H 0.69579 0.94450 0.38581
 O1531 O 0.37233 1.02688 0.40595
 O1532 O 0.34199 1.02721 0.37587
 C1533 C 0.35140 1.03608 0.39680
 C1534 C 0.33820 1.05768 0.41029
 C1535 C 0.31523 1.06822 0.40019
 H1536 H 0.30733 1.06025 0.38251
 O1537 O 0.40795 1.12915 0.47536
 O1538 O 0.37786 1.15952 0.47566
 C1539 C 0.39890 1.15034 0.46669
 C1540 C 0.41256 1.16412 0.44551
 C1541 C 0.40432 1.18878 0.43757
 H1542 H 0.38872 1.19821 0.44796
 O1543 O 0.59276 0.87144 0.47532
 O1544 O 0.62317 0.84140 0.47529
 C1545 C 0.60208 0.85050 0.46636
 C1546 C 0.58876 0.83721 0.44469
 C1547 C 0.59898 0.81426 0.43414
 H1548 H 0.61574 0.80539 0.44311
 O1549 O 0.59228 1.02503 0.37012
 O1550 O 0.62246 1.02481 0.33987
 C1551 C 0.60137 1.03371 0.34896
 C1552 C 0.58763 1.05484 0.33523
 C1553 C 0.59492 1.06204 0.31007
 H1554 H 0.60962 1.05080 0.30023
 O1555 O 0.40693 0.97584 0.37034
 O1556 O 0.37643 0.97585 0.34042
 C1557 C 0.39751 0.96689 0.34946
 C1558 C 0.41066 0.94511 0.33621
 C1559 C 0.40074 0.93503 0.31297
 H1560 H 0.38475 0.94492 0.30374
 O1561 O 0.52573 1.13018 0.40604
 O1562 O 0.52574 1.16076 0.37618
 C1563 C 0.53448 1.15143 0.39723
 C1564 C 0.55529 1.16500 0.41158
 C1565 C 0.56326 1.19009 0.40450
 H1566 H 0.55403 1.19960 0.38824
 O1567 O 0.47383 0.87137 0.40687
 O1568 O 0.47376 0.84090 0.37698
 C1569 C 0.46483 0.85033 0.39786
 C1570 C 0.44324 0.83715 0.41137
 C1571 C 0.43269 0.81420 0.40136
 H1572 H 0.44080 0.80616 0.38381
 O1573 O 0.62848 1.09325 0.47449
 O1574 O 0.65904 1.12309 0.47423
 C1575 C 0.64959 1.10214 0.46546
 C1576 C 0.66296 1.08815 0.44425
 C1577 C 0.68761 1.09604 0.43571
 H1578 H 0.69688 1.11245 0.44485
 O1579 O 0.37192 0.90841 0.47547
 O1580 O 0.34115 0.87878 0.47566
 C1581 C 0.35059 0.89974 0.46681
 C1582 C 0.33692 0.91382 0.44582
 C1583 C 0.31204 0.90610 0.43809
 H1584 H 0.30244 0.89067 0.44858
 Cu1585 Cu 0.49911 0.89207 0.39204
 Cu1586 Cu 0.49898 0.85550 0.35611
 Cu1587 Cu 0.50071 1.10936 0.39122
 Cu1588 Cu 0.50061 1.14581 0.35512
 Cu1589 Cu 0.39266 1.00129 0.39118
 Cu1590 Cu 0.35611 1.00151 0.35519
 Cu1591 Cu 0.60686 0.99971 0.39093
 Cu1592 Cu 0.64332 0.99961 0.35486
 C1593 C 0.43214 0.93310 0.34780
 H1594 H 0.43985 0.94075 0.36574
 C1595 C 0.41108 0.91227 0.30199
 C1596 C 0.56773 1.06853 0.34763
 H1597 H 0.56197 1.06297 0.36703
 C1598 C 0.58339 1.08341 0.29754
 C1599 C 0.34902 0.93437 0.43274
 H1600 H 0.36829 0.94034 0.43855
 C1601 C 0.29939 0.91809 0.41712
 C1602 C 0.65065 1.06732 0.43180
 H1603 H 0.63148 1.06140 0.43798
 C1604 C 0.70004 1.08323 0.41512
 C1605 C 0.43191 0.84841 0.43332
 H1606 H 0.43948 0.86653 0.44068
 C1607 C 0.41127 0.80212 0.41319
 C1608 C 0.56784 1.15238 0.43219
 H1609 H 0.56215 1.13287 0.43746
 C1610 C 0.58335 1.20266 0.41803
 C1611 C 0.43322 1.06868 0.34761
 H1612 H 0.43871 1.06309 0.36708
 C1613 C 0.41843 1.08383 0.29741
 C1614 C 0.56616 0.93243 0.34734
 H1615 H 0.55872 0.94005 0.36541
 C1616 C 0.58652 0.91154 0.30132
 C1617 C 0.56671 0.84843 0.43326
 H1618 H 0.55891 0.86628 0.44106
 C1619 C 0.58792 0.80298 0.41194
 C1620 C 0.43321 1.15223 0.43241
 H1621 H 0.43955 1.13312 0.43835
 C1622 C 0.41602 1.20144 0.41645
 C1623 C 0.34924 1.06884 0.43246
 H1624 H 0.36735 1.06127 0.43992
 C1625 C 0.30289 1.08940 0.41213
 C1626 C 0.65055 0.93251 0.43223
 H1627 H 0.63149 0.93882 0.43838
 C1628 C 0.69961 0.91541 0.41569
 O1629 O 0.52563 0.90650 0.63023
 O1630 O 0.52580 0.87622 0.66039
 C1631 C 0.53460 0.89731 0.65123
 C1632 C 0.55560 0.91132 0.66487
 C1633 C 0.56352 0.90393 0.68989
 H1634 H 0.55427 0.88756 0.69916
 O1635 O 0.47587 1.09482 0.63031
 O1636 O 0.47569 1.12527 0.66021
 C1637 C 0.46685 1.10414 0.65121
 C1638 C 0.44539 1.09054 0.66464
 C1639 C 0.43567 1.09972 0.68837
 H1640 H 0.44491 1.11612 0.69757
 O1641 O 0.37207 1.02582 0.59507
 O1642 O 0.34150 1.02598 0.62493
 C1643 C 0.35082 1.03464 0.60384
 C1644 C 0.33719 1.05549 0.58950
 C1645 C 0.31243 1.06391 0.59718
 H1646 H 0.30324 1.05496 0.61377
 O1647 O 0.62868 0.97544 0.59449
 O1648 O 0.65926 0.97522 0.62434
 C1649 C 0.64989 0.96656 0.60330
 C1650 C 0.66347 0.94569 0.58903
 C1651 C 0.68845 0.93762 0.59643
 H1652 H 0.69781 0.94682 0.61275
 O1653 O 0.59283 0.87144 0.52589
 O1654 O 0.62302 0.84118 0.52594
 C1655 C 0.60189 0.85029 0.53469
 C1656 C 0.58777 0.83649 0.55553
 C1657 C 0.59523 0.81146 0.56334
 H1658 H 0.61162 0.80229 0.55402
 O1659 O 0.40746 1.12925 0.52599
 O1660 O 0.37729 1.15953 0.52620
 C1661 C 0.39840 1.15032 0.53493
 C1662 C 0.41249 1.16407 0.55582
 C1663 C 0.40466 1.18890 0.56385
 H1664 H 0.38786 1.19763 0.55486
 O1665 O 0.40744 0.97581 0.63134
 O1666 O 0.37733 0.97603 0.66165
 C1667 C 0.39842 0.96716 0.65256
 C1668 C 0.41247 0.94620 0.66630
 C1669 C 0.40482 0.93798 0.69114
 H1670 H 0.38842 0.94723 0.70037
 O1671 O 0.59333 1.02562 0.63047
 O1672 O 0.62361 1.02540 0.66063
 C1673 C 0.60241 1.03419 0.65165
 C1674 C 0.58847 1.05505 0.66554
 C1675 C 0.59581 1.06230 0.69066
 H1676 H 0.61078 1.05130 0.70039
 O1677 O 0.47414 0.87211 0.59516
 O1678 O 0.47401 0.84174 0.62523
 C1679 C 0.46504 0.85114 0.60429
 C1680 C 0.44352 0.83790 0.59065
 C1681 C 0.43340 0.81450 0.60016
 H1682 H 0.44164 0.80606 0.61751
 O1683 O 0.52672 1.12966 0.59475
 O1684 O 0.52688 1.16027 0.62450
 C1685 C 0.53564 1.15083 0.60353
 C1686 C 0.55658 1.16430 0.58924
 C1687 C 0.56485 1.18916 0.59665
 H1688 H 0.55586 1.19842 0.61315
 O1689 O 0.37156 0.90769 0.52610
 O1690 O 0.34096 0.87788 0.52620
 C1691 C 0.35049 0.89871 0.53514
 C1692 C 0.33748 0.91205 0.55694
 C1693 C 0.31421 0.90228 0.56718
 H1694 H 0.30494 0.88595 0.55788
 O1695 O 0.62878 1.09312 0.52517
 O1696 O 0.65931 1.12300 0.52489
 C1697 C 0.64998 1.10206 0.53390
 C1698 C 0.66353 1.08841 0.55523
 C1699 C 0.68804 1.09672 0.56355
 H1700 H 0.69758 1.11232 0.55327
 O1701 O 0.52640 1.09454 0.63049
 O1702 O 0.52645 1.12485 0.66054
 C1703 C 0.53519 1.10366 0.65156
 C1704 C 0.55600 1.08947 0.66538
 C1705 C 0.56421 1.09710 0.69019
 H1706 H 0.55533 1.11387 0.69903
 O1707 O 0.47519 0.90757 0.63059
 O1708 O 0.47530 0.87737 0.66085
 C1709 C 0.46667 0.89863 0.65187
 C1710 C 0.44609 0.91285 0.66593
 C1711 C 0.43856 0.90523 0.69090
 H1712 H 0.44894 0.88964 0.70037
 O1713 O 0.62859 1.02598 0.59473
 O1714 O 0.65908 1.02589 0.62466
 C1715 C 0.64975 1.03480 0.60368
 C1716 C 0.66334 1.05585 0.58963
 C1717 C 0.68771 1.06474 0.59796
 H1718 H 0.69657 1.05606 0.61487
 O1719 O 0.37269 0.97530 0.59519
 O1720 O 0.34241 0.97536 0.62533
 C1721 C 0.35168 0.96638 0.60438
 C1722 C 0.33825 0.94491 0.59094
 C1723 C 0.31519 0.93464 0.60107
 H1724 H 0.30707 0.94287 0.61857
 O1725 O 0.59365 1.12898 0.52531
 O1726 O 0.62405 1.15900 0.52505
 C1727 C 0.60291 1.15005 0.53398
 C1728 C 0.58922 1.16396 0.55499
 C1729 C 0.59691 1.18896 0.56232
 H1730 H 0.61222 1.19850 0.55161
 O1731 O 0.40690 0.87216 0.52594
 O1732 O 0.37637 0.84228 0.52595
 C1733 C 0.39751 0.85122 0.53484
 C1734 C 0.41082 0.83771 0.55642
 C1735 C 0.40129 0.81405 0.56591
 H1736 H 0.38521 0.80486 0.55610
 O1737 O 0.59325 0.97521 0.62997
 O1738 O 0.62358 0.97497 0.66008
 C1739 C 0.60239 0.96631 0.65101
 C1740 C 0.58845 0.94535 0.66477
 C1741 C 0.59576 0.93809 0.68990
 H1742 H 0.61095 0.94882 0.69957
 O1743 O 0.40785 1.02635 0.63019
 O1744 O 0.37747 1.02663 0.66023
 C1745 C 0.39856 1.03545 0.65106
 C1746 C 0.41204 1.05693 0.66443
 C1747 C 0.40251 1.06649 0.68799
 H1748 H 0.38551 1.05765 0.69655
 O1749 O 0.47628 1.12960 0.59412
 O1750 O 0.47631 1.16032 0.62376
 C1751 C 0.46761 1.15094 0.60273
 C1752 C 0.44673 1.16457 0.58846
 C1753 C 0.43928 1.18973 0.59554
 H1754 H 0.45014 1.19962 0.61046
 O1755 O 0.52468 0.87164 0.59418
 O1756 O 0.52467 0.84109 0.62409
 C1757 C 0.53329 0.85031 0.60293
 C1758 C 0.55394 0.83644 0.58862
 C1759 C 0.56128 0.81127 0.59580
 H1760 H 0.55071 0.80154 0.61109
 O1761 O 0.62797 0.90738 0.52574
 O1762 O 0.65838 0.87733 0.52587
 C1763 C 0.64920 0.89848 0.53450
 C1764 C 0.66309 0.91260 0.55525
 C1765 C 0.68817 0.90510 0.56261
 H1766 H 0.69772 0.88965 0.55214
 O1767 O 0.37240 1.09327 0.52569
 O1768 O 0.34208 1.12341 0.52574
 C1769 C 0.35122 1.10225 0.53444
 C1770 C 0.33742 1.08829 0.55536
 C1771 C 0.31254 1.09612 0.56298
 H1772 H 0.30300 1.11159 0.55248
 Cu1773 Cu 0.49993 0.89248 0.60953
 Cu1774 Cu 0.49996 0.85601 0.64563
 Cu1775 Cu 0.50134 1.10909 0.60948
 Cu1776 Cu 0.50131 1.14574 0.64527
 Cu1777 Cu 0.39225 0.89296 0.50068
 Cu1778 Cu 0.35545 0.85724 0.50075
 Cu1779 Cu 0.60730 0.89232 0.50059
 Cu1780 Cu 0.64380 0.85624 0.50071
 Cu1781 Cu 0.39296 1.10844 0.50055
 Cu1782 Cu 0.35672 1.14476 0.50076
 Cu1783 Cu 0.60802 1.10806 0.49997
 Cu1784 Cu 0.64461 1.14400 0.49968
 Cu1785 Cu 0.39305 1.00079 0.60996
 Cu1786 Cu 0.35662 1.00104 0.64605
 Cu1787 Cu 0.60795 1.00060 0.60939
 Cu1788 Cu 0.64446 1.00034 0.64543
 C1789 C 0.56815 0.93209 0.65256
 H1790 H 0.56247 0.93761 0.63312
 C1791 C 0.58349 0.91738 0.70275
 C1792 C 0.43359 1.06896 0.65300
 H1793 H 0.44073 1.06194 0.63457
 C1794 C 0.41408 1.08791 0.70015
 C1795 C 0.34944 1.06773 0.56849
 H1796 H 0.36872 1.06171 0.56277
 C1797 C 0.29980 1.08415 0.58390
 C1798 C 0.65104 0.93314 0.56834
 H1799 H 0.63162 0.93893 0.56283
 C1800 C 0.70110 0.91740 0.58320
 C1801 C 0.56705 0.84873 0.56823
 H1802 H 0.56153 0.86821 0.56266
 C1803 C 0.58194 0.79850 0.58335
 C1804 C 0.43353 1.15210 0.56826
 H1805 H 0.43924 1.13271 0.56263
 C1806 C 0.41812 1.20217 0.58354
 C1807 C 0.43319 0.93358 0.65398
 H1808 H 0.43884 0.93944 0.63464
 C1809 C 0.41789 0.91757 0.70377
 C1810 C 0.56826 1.06844 0.65329
 H1811 H 0.56249 1.06287 0.63390
 C1812 C 0.58398 1.08344 0.70327
 C1813 C 0.43214 0.84929 0.56871
 H1814 H 0.43945 0.86764 0.56160
 C1815 C 0.41222 0.80236 0.58799
 C1816 C 0.56882 1.15195 0.56834
 H1817 H 0.56286 1.13261 0.56281
 C1818 C 0.58489 1.20184 0.58314
 C1819 C 0.34918 0.93356 0.56878
 H1820 H 0.36728 0.94101 0.56118
 C1821 C 0.30303 0.91323 0.58945
 C1822 C 0.65149 1.06775 0.56818
 H1823 H 0.63250 1.06135 0.56194
 C1824 C 0.70037 1.08510 0.58493
 O1825 O 0.47554 0.40621 0.87088
 O1826 O 0.47551 0.37585 0.84087
 C1827 C 0.46670 0.39700 0.84987
 C1828 C 0.44536 0.41060 0.83629
 C1829 C 0.43526 0.40070 0.81310
 H1830 H 0.44369 0.38337 0.80484
 O1831 O 0.52501 0.59426 0.87155
 O1832 O 0.52489 0.62469 0.84153
 C1833 C 0.53382 0.60357 0.85056
 C1834 C 0.55515 0.59005 0.83695
 C1835 C 0.56486 0.59975 0.81350
 H1836 H 0.55622 0.61694 0.80509
 O1837 O 0.37278 0.47438 0.90634
 O1838 O 0.34242 0.47451 0.87628
 C1839 C 0.35172 0.46550 0.89722
 C1840 C 0.33832 0.44396 0.91062
 C1841 C 0.31548 0.43352 0.90022
 H1842 H 0.30751 0.44175 0.88264
 O1843 O 0.62829 0.52499 0.90609
 O1844 O 0.65885 0.52509 0.87624
 C1845 C 0.64959 0.53371 0.89734
 C1846 C 0.66336 0.55444 0.91168
 C1847 C 0.68809 0.56286 0.90383
 H1848 H 0.69722 0.55395 0.88721
 O1849 O 0.40724 0.37133 0.97576
 O1850 O 0.37692 0.34123 0.97588
 C1851 C 0.39803 0.35028 0.96698
 C1852 C 0.41144 0.33682 0.94547
 C1853 C 0.40171 0.31336 0.93569
 H1854 H 0.38569 0.30418 0.94557
 O1855 O 0.59388 0.62879 0.97529
 O1856 O 0.62433 0.65874 0.97508
 C1857 C 0.60319 0.64973 0.96626
 C1858 C 0.58966 0.66324 0.94479
 C1859 C 0.59933 0.68668 0.93476
 H1860 H 0.61601 0.69561 0.94378
 O1861 O 0.40788 0.52521 0.87086
 O1862 O 0.37754 0.52523 0.84076
 C1863 C 0.39853 0.53421 0.84994
 C1864 C 0.41166 0.55595 0.83666
 C1865 C 0.40162 0.56597 0.81349
 H1866 H 0.38456 0.55715 0.80506
 O1867 O 0.59264 0.47513 0.86988
 O1868 O 0.62293 0.47529 0.83974
 C1869 C 0.60188 0.46632 0.84884
 C1870 C 0.58862 0.44458 0.83560
 C1871 C 0.59833 0.43456 0.81224
 H1872 H 0.61427 0.44439 0.80285
 O1873 O 0.52544 0.37035 0.90685
 O1874 O 0.52535 0.33970 0.87714
 C1875 C 0.53408 0.34901 0.89816
 C1876 C 0.55486 0.33529 0.91247
 C1877 C 0.56342 0.31064 0.90464
 H1878 H 0.55455 0.30153 0.88799
 O1879 O 0.47459 0.62946 0.90729
 O1880 O 0.47445 0.66015 0.87754
 C1881 C 0.46571 0.65069 0.89853
 C1882 C 0.44469 0.66413 0.91272
 C1883 C 0.43585 0.68866 0.90476
 H1884 H 0.44467 0.69784 0.88809
 O1885 O 0.37190 0.59254 0.97556
 O1886 O 0.34159 0.62269 0.97539
 C1887 C 0.35089 0.60169 0.96652
 C1888 C 0.33765 0.58829 0.94488
 C1889 C 0.31408 0.59784 0.93510
 H1890 H 0.30478 0.61380 0.94494
 O1891 O 0.62792 0.40629 0.97495
 O1892 O 0.65814 0.37607 0.97479
 C1893 C 0.64881 0.39702 0.96578
 C1894 C 0.66186 0.41026 0.94384
 C1895 C 0.68499 0.40026 0.93342
 H1896 H 0.69413 0.38388 0.94279
 O1897 O 0.47457 0.59445 0.87134
 O1898 O 0.47431 0.62498 0.84143
 C1899 C 0.46564 0.60375 0.85037
 C1900 C 0.44441 0.59006 0.83679
 C1901 C 0.43426 0.59969 0.81340
 H1902 H 0.44312 0.61647 0.80447
 O1903 O 0.52608 0.40582 0.87127
 O1904 O 0.52616 0.37533 0.84140
 C1905 C 0.53505 0.39644 0.85038
 C1906 C 0.55639 0.40997 0.83675
 C1907 C 0.56682 0.39981 0.81379
 H1908 H 0.55895 0.38199 0.80607
 O1909 O 0.62729 0.47438 0.90595
 O1910 O 0.65767 0.47440 0.87591
 C1911 C 0.64822 0.46527 0.89674
 C1912 C 0.66132 0.44338 0.90997
 C1913 C 0.68402 0.43267 0.89950
 H1914 H 0.69188 0.44079 0.88184
 O1915 O 0.37259 0.52504 0.90633
 O1916 O 0.34220 0.52515 0.87629
 C1917 C 0.35154 0.53405 0.89724
 C1918 C 0.33819 0.55555 0.91079
 C1919 C 0.31509 0.56595 0.90078
 H1920 H 0.30711 0.55790 0.88317
 O1921 O 0.40707 0.62843 0.97625
 O1922 O 0.37683 0.65865 0.97642
 C1923 C 0.39800 0.64965 0.96765
 C1924 C 0.41181 0.66363 0.94674
 C1925 C 0.40350 0.68828 0.93879
 H1926 H 0.38775 0.69760 0.94904
 O1927 O 0.59256 0.37068 0.97592
 O1928 O 0.62271 0.34036 0.97622
 C1929 C 0.60156 0.34941 0.96742
 C1930 C 0.58766 0.33548 0.94657
 C1931 C 0.59571 0.31073 0.93875
 H1932 H 0.61135 0.30128 0.94909
 O1933 O 0.59267 0.52570 0.87063
 O1934 O 0.62305 0.52596 0.84060
 C1935 C 0.60195 0.53479 0.84974
 C1936 C 0.58846 0.55639 0.83647
 C1937 C 0.59778 0.56623 0.81285
 H1938 H 0.61411 0.55690 0.80357
 O1939 O 0.40783 0.47462 0.87038
 O1940 O 0.37750 0.47468 0.84029
 C1941 C 0.39860 0.46579 0.84936
 C1942 C 0.41209 0.44430 0.83593
 C1943 C 0.40239 0.43427 0.81255
 H1944 H 0.38589 0.44351 0.80346
 O1945 O 0.52521 0.62923 0.90726
 O1946 O 0.52513 0.65978 0.87736
 C1947 C 0.53417 0.65029 0.89822
 C1948 C 0.55585 0.66344 0.91163
 C1949 C 0.56589 0.68672 0.90181
 H1950 H 0.55719 0.69528 0.88475
 O1951 O 0.47488 0.37131 0.90678
 O1952 O 0.47471 0.34086 0.87686
 C1953 C 0.46574 0.35036 0.89772
 C1954 C 0.44409 0.33723 0.91125
 C1955 C 0.43350 0.31431 0.90121
 H1956 H 0.44143 0.30640 0.88352
 O1957 O 0.62847 0.59234 0.97559
 O1958 O 0.65905 0.62217 0.97563
 C1959 C 0.64971 0.60115 0.96685
 C1960 C 0.66337 0.58719 0.94583
 C1961 C 0.68816 0.59506 0.93796
 H1962 H 0.69773 0.61057 0.94830
 O1963 O 0.37165 0.40670 0.97535
 O1964 O 0.34127 0.37666 0.97531
 C1965 C 0.35065 0.39756 0.96631
 C1966 C 0.33760 0.41086 0.94445
 C1967 C 0.31453 0.40088 0.93394
 H1968 H 0.30540 0.38436 0.94306
 Cu1969 Cu 0.50056 0.39147 0.89194
 Cu1970 Cu 0.50046 0.35488 0.85605
 Cu1971 Cu 0.49978 0.60881 0.89237
 Cu1972 Cu 0.49966 0.64550 0.85647
 Cu1973 Cu 0.39333 0.49977 0.89149
 Cu1974 Cu 0.35684 0.49988 0.85540
 Cu1975 Cu 0.60717 0.50012 0.89111
 Cu1976 Cu 0.64369 0.50026 0.85512
 C1977 C 0.43378 0.43252 0.84743
 H1978 H 0.44113 0.43992 0.86562
 C1979 C 0.41369 0.41228 0.80107
 C1980 C 0.56696 0.56826 0.84819
 H1981 H 0.55987 0.56099 0.86655
 C1982 C 0.58623 0.58807 0.80128
 C1983 C 0.34916 0.43260 0.93282
 H1984 H 0.36710 0.44021 0.94060
 C1985 C 0.30343 0.41190 0.91160
 C1986 C 0.65127 0.56665 0.93279
 H1987 H 0.63203 0.56063 0.93866
 C1988 C 0.70075 0.58313 0.91695
 C1989 C 0.43292 0.34835 0.93339
 H1990 H 0.44047 0.36647 0.94076
 C1991 C 0.41228 0.30206 0.91323
 C1992 C 0.56775 0.65195 0.93324
 H1993 H 0.56039 0.63372 0.94060
 C1994 C 0.58768 0.69850 0.91311
 C1995 C 0.43317 0.56799 0.84806
 H1996 H 0.44067 0.56064 0.86624
 C1997 C 0.41266 0.58789 0.80166
 C1998 C 0.56738 0.43239 0.84744
 H1999 H 0.55990 0.43991 0.86553
 C2000 C 0.58786 0.41187 0.80128
 C2001 C 0.56700 0.34742 0.93355
 H2002 H 0.56085 0.36662 0.93938
 C2003 C 0.58380 0.29807 0.91777
 C2004 C 0.43263 0.65188 0.93382
 H2005 H 0.43898 0.63277 0.93976
 C2006 C 0.41532 0.70102 0.91779
 C2007 C 0.34932 0.56687 0.93285
 H2008 H 0.36754 0.55947 0.94022
 C2009 C 0.30276 0.58715 0.91272
 C2010 C 0.65039 0.43205 0.93217
 H2011 H 0.63250 0.43978 0.93997
 C2012 C 0.69612 0.41109 0.91098
 O2013 O 0.52493 0.40669 1.13050
 O2014 O 0.52495 0.37641 1.16067
 C2015 C 0.53390 0.39741 1.15145
 C2016 C 0.55548 0.41076 1.16480
 C2017 C 0.56551 0.40083 1.18804
 H2018 H 0.55700 0.38353 1.19628
 O2019 O 0.47541 0.59347 1.13073
 O2020 O 0.47551 0.62370 1.16087
 C2021 C 0.46659 0.60264 1.15179
 C2022 C 0.44511 0.58913 1.16527
 C2023 C 0.43580 0.59821 1.18917
 H2024 H 0.44587 0.61397 1.19855
 O2025 O 0.37099 0.52522 1.09523
 O2026 O 0.34047 0.52515 1.12514
 C2027 C 0.34970 0.53389 1.10406
 C2028 C 0.33596 0.55466 1.08978
 C2029 C 0.31135 0.56331 1.09772
 H2030 H 0.30236 0.55458 1.11453
 O2031 O 0.62914 0.47424 1.09494
 O2032 O 0.65986 0.47405 1.12464
 C2033 C 0.65046 0.46543 1.10360
 C2034 C 0.66416 0.44484 1.08901
 C2035 C 0.68944 0.43714 1.09583
 H2036 H 0.69888 0.44627 1.11215
 O2037 O 0.59307 0.37126 1.02646
 O2038 O 0.62352 0.34127 1.02672
 C2039 C 0.60242 0.35037 1.03559
 C2040 C 0.58905 0.33704 1.05728
 C2041 C 0.59883 0.31367 1.06733
 H2042 H 0.61515 0.30459 1.05783
 O2043 O 0.40669 0.62768 1.02687
 O2044 O 0.37623 0.65767 1.02696
 C2045 C 0.39727 0.64852 1.03595
 C2046 C 0.41063 0.66195 1.05752
 C2047 C 0.40053 0.68507 1.06767
 H2048 H 0.38294 0.69303 1.05945
 O2049 O 0.40720 0.47554 1.13106
 O2050 O 0.37702 0.47549 1.16131
 C2051 C 0.39826 0.46689 1.15228
 C2052 C 0.41236 0.44609 1.16614
 C2053 C 0.40503 0.43877 1.19124
 H2054 H 0.39009 0.44976 1.20099
 O2055 O 0.59422 0.52491 1.13058
 O2056 O 0.62452 0.52476 1.16071
 C2057 C 0.60345 0.53373 1.15160
 C2058 C 0.58958 0.55486 1.16522
 C2059 C 0.59757 0.56325 1.18986
 H2060 H 0.61427 0.55423 1.19876
 O2061 O 0.47436 0.37138 1.09503
 O2062 O 0.47427 0.34104 1.12514
 C2063 C 0.46547 0.35030 1.10409
 C2064 C 0.44420 0.33683 1.09033
 C2065 C 0.43464 0.31309 1.09953
 H2066 H 0.44331 0.30438 1.11654
 O2067 O 0.52595 0.62884 1.09508
 O2068 O 0.52613 0.65929 1.12498
 C2069 C 0.53481 0.65002 1.10391
 C2070 C 0.55567 0.66365 1.08960
 C2071 C 0.56397 0.68851 1.09708
 H2072 H 0.55498 0.69778 1.11358
 O2073 O 0.37184 0.40741 1.02596
 O2074 O 0.34128 0.37755 1.02589
 C2075 C 0.35059 0.39857 1.03468
 C2076 C 0.33693 0.41248 1.05573
 C2077 C 0.31194 0.40491 1.06329
 H2078 H 0.30220 0.38979 1.05254
 O2079 O 0.62908 0.59326 1.02616
 O2080 O 0.65954 0.62320 1.02617
 C2081 C 0.65024 0.60221 1.03503
 C2082 C 0.66386 0.58816 1.05609
 C2083 C 0.68866 0.59590 1.06437
 H2084 H 0.69783 0.61239 1.05522
 O2085 O 0.52591 0.59293 1.13030
 O2086 O 0.52607 0.62313 1.16046
 C2087 C 0.53472 0.60192 1.15141
 C2088 C 0.55563 0.58785 1.16520
 C2089 C 0.56331 0.59543 1.19011
 H2090 H 0.55270 0.61073 1.19973
 O2091 O 0.47437 0.40645 1.13094
 O2092 O 0.47434 0.37629 1.16123
 C2093 C 0.46558 0.39742 1.15211
 C2094 C 0.44478 0.41163 1.16592
 C2095 C 0.43654 0.40392 1.19073
 H2096 H 0.44538 0.38709 1.19957
 O2097 O 0.62883 0.52465 1.09440
 O2098 O 0.65940 0.52454 1.12427
 C2099 C 0.65008 0.53334 1.10323
 C2100 C 0.66377 0.55428 1.08918
 C2101 C 0.68869 0.56195 1.09683
 H2102 H 0.69829 0.55152 1.11231
 O2103 O 0.37183 0.47477 1.09543
 O2104 O 0.34138 0.47456 1.12540
 C2105 C 0.35073 0.46579 1.10438
 C2106 C 0.33714 0.44486 1.09020
 C2107 C 0.31236 0.43653 1.09793
 H2108 H 0.30340 0.44535 1.11468
 O2109 O 0.59312 0.62836 1.02582
 O2110 O 0.62340 0.65850 1.02565
 C2111 C 0.60223 0.64949 1.03446
 C2112 C 0.58838 0.66338 1.05539
 C2113 C 0.59612 0.68832 1.06282
 H2114 H 0.61151 0.69783 1.05220
 O2115 O 0.40676 0.37127 1.02626
 O2116 O 0.37635 0.34127 1.02641
 C2117 C 0.39747 0.35030 1.03521
 C2118 C 0.41101 0.33677 1.05660
 C2119 C 0.40186 0.31288 1.06591
 H2120 H 0.38567 0.30364 1.05632
 O2121 O 0.59353 0.47439 1.13043
 O2122 O 0.62401 0.47405 1.16036
 C2123 C 0.60275 0.46542 1.15141
 C2124 C 0.58900 0.44415 1.16497
 C2125 C 0.59837 0.43433 1.18859
 H2126 H 0.61468 0.44377 1.19773
 O2127 O 0.40658 0.52601 1.13046
 O2128 O 0.37625 0.52608 1.16055
 C2129 C 0.39728 0.53504 1.15136
 C2130 C 0.41086 0.55647 1.16477
 C2131 C 0.40134 0.56635 1.18824
 H2132 H 0.38391 0.55807 1.19644
 O2133 O 0.47535 0.62851 1.09482
 O2134 O 0.47539 0.65887 1.12481
 C2135 C 0.46642 0.64957 1.10386
 C2136 C 0.44472 0.66277 1.09036
 C2137 C 0.43475 0.68630 1.09978
 H2138 H 0.44442 0.69566 1.11581
 O2139 O 0.52502 0.37139 1.09518
 O2140 O 0.52502 0.34102 1.12525
 C2141 C 0.53406 0.35040 1.10435
 C2142 C 0.55580 0.33721 1.09099
 C2143 C 0.56630 0.31424 1.10114
 H2144 H 0.55807 0.30613 1.11864
 O2145 O 0.62842 0.40702 1.02555
 O2146 O 0.65900 0.37714 1.02532
 C2147 C 0.64982 0.39825 1.03402
 C2148 C 0.66386 0.41239 1.05463
 C2149 C 0.68924 0.40534 1.06133
 H2150 H 0.69891 0.39035 1.05031
 O2151 O 0.37119 0.59223 1.02605
 O2152 O 0.34067 0.62218 1.02578
 C2153 C 0.34986 0.60110 1.03457
 C2154 C 0.33601 0.58720 1.05546
 C2155 C 0.31124 0.59520 1.06324
 H2156 H 0.30171 0.61065 1.05269
 Cu2157 Cu 0.49958 0.39200 1.10989
 Cu2158 Cu 0.49959 0.35560 1.14607
 Cu2159 Cu 0.50069 0.60794 1.10972
 Cu2160 Cu 0.50085 0.64430 1.14579
 Cu2161 Cu 0.39241 0.39219 1.00085
 Cu2162 Cu 0.35589 0.35617 1.00093
 Cu2163 Cu 0.60746 0.39183 1.00073
 Cu2164 Cu 0.64389 0.35570 1.00081
 Cu2165 Cu 0.39228 0.60721 1.00118
 Cu2166 Cu 0.35580 0.64333 1.00112
 Cu2167 Cu 0.60810 0.60770 1.00074
 Cu2168 Cu 0.64463 0.64366 1.00064
 Cu2169 Cu 0.39217 0.50038 1.11004
 Cu2170 Cu 0.35575 0.50025 1.14616
 Cu2171 Cu 0.60836 0.49952 1.10964
 Cu2172 Cu 0.64499 0.49931 1.14554
 C2173 C 0.56730 0.43247 1.15346
 H2174 H 0.56008 0.43979 1.13516
 C2175 C 0.58700 0.41237 1.20018
 C2176 C 0.43276 0.56799 1.15347
 H2177 H 0.43979 0.56094 1.13501
 C2178 C 0.41362 0.58725 1.20075
 C2179 C 0.34803 0.56667 1.06857
 H2180 H 0.36724 0.56052 1.06270
 C2181 C 0.29868 0.58353 1.08443
 C2182 C 0.65163 0.43240 1.06832
 H2183 H 0.63199 0.43786 1.06326
 C2184 C 0.70230 0.41747 1.08194
 C2185 C 0.56729 0.34844 1.06903
 H2186 H 0.55974 0.36653 1.06150
 C2187 C 0.58787 0.30222 1.08956
 C2188 C 0.43275 0.65098 1.06898
 H2189 H 0.44023 0.63279 1.06169
 C2190 C 0.41236 0.69751 1.08885
 C2191 C 0.43255 0.43273 1.15385
 H2192 H 0.43831 0.43835 1.13446
 C2193 C 0.41677 0.41754 1.20381
 C2194 C 0.56860 0.56728 1.15311
 H2195 H 0.56273 0.56134 1.13387
 C2196 C 0.58439 0.58343 1.20270
 C2197 C 0.43237 0.34842 1.06875
 H2198 H 0.43932 0.36699 1.06185
 C2199 C 0.41340 0.30094 1.08753
 C2200 C 0.56793 0.65136 1.06866
 H2201 H 0.56198 0.63203 1.06307
 C2202 C 0.58413 0.70114 1.08367
 C2203 C 0.34921 0.43273 1.06904
 H2204 H 0.36851 0.43865 1.06330
 C2205 C 0.29940 0.41668 1.08443
 C2206 C 0.65166 0.56726 1.06857
 H2207 H 0.63237 0.56148 1.06265
 C2208 C 0.70139 0.58276 1.08465
 C2209 C 1.09222 1.12328 1.26388
 C2210 C 1.11681 1.11632 1.27321
 C2211 C 1.13288 1.10201 1.25622
 C2212 C 1.12356 1.09320 1.23216
 C2213 C 1.09760 1.09763 1.22455
 C2214 C 1.08286 1.11399 1.24044
 C2215 C 1.05613 1.11046 1.25091
 C2216 C 1.06631 1.12060 1.27655
 H2217 H 1.15273 1.09756 1.26120
 H2218 H 1.13678 1.08258 1.21988
 H2219 H 1.05018 1.08977 1.25166
 H2220 H 1.04191 1.12375 1.24165
 H2221 H 1.06624 1.10582 1.29225
 H2222 H 1.05789 1.13967 1.28195
 C2223 C 1.12317 0.59125 0.76379
 C2224 C 1.11847 0.61668 0.77179
 C2225 C 1.10711 0.63373 0.75369
 C2226 C 1.09817 0.62453 0.72961
 C2227 C 1.10007 0.59796 0.72319
 C2228 C 1.11410 0.58212 0.74024
 C2229 C 1.10739 0.55629 0.75141
 C2230 C 1.11736 0.56632 0.77723
 H2231 H 1.10469 0.65404 0.75825
 H2232 H 1.08933 0.63820 0.71639
 H2233 H 1.11956 0.54050 0.74325
 H2234 H 1.08618 0.55248 0.75131
 H2235 H 1.13527 0.55633 0.78386
 H2236 H 1.10196 0.56833 0.79215
 C2237 C 0.62682 1.09344 0.76243
 C2238 C 0.61253 1.11066 0.77786
 C2239 C 0.58658 1.11541 0.77032
 C2240 C 0.57670 1.10550 0.74686
 C2241 C 0.59265 1.09117 0.72980
 C2242 C 0.61727 1.08427 0.73904
 C2243 C 0.64309 1.08624 0.72614
 C2244 C 0.65359 1.09626 0.75165
 H2245 H 0.57384 1.12703 0.78221
 H2246 H 0.55680 1.10986 0.74194
 H2247 H 0.64339 1.10094 0.71037
 H2248 H 0.65109 1.06696 0.72083
 H2249 H 0.66006 1.11679 0.75074
 H2250 H 0.66757 1.08270 0.76087
 C2251 C 0.59606 0.62728 1.26063
 C2252 C 0.61258 0.61272 1.27664
 C2253 C 0.61647 0.58645 1.26975
 C2254 C 0.60635 0.57641 1.24643
 C2255 C 0.59259 0.59244 1.22895
 C2256 C 0.58662 0.61750 1.23747
 C2257 C 0.58968 0.64283 1.22383
 C2258 C 0.60003 0.65359 1.24911
 H2259 H 0.62754 0.57358 1.28203
 H2260 H 0.61003 0.55628 1.24196
 H2261 H 0.57075 0.65143 1.21817
 H2262 H 0.60445 0.64210 1.20816
 H2263 H 0.58701 0.66837 1.25781
 H2264 H 0.62083 0.65918 1.24815
 C2265 C 0.87358 0.90601 1.26167
 C2266 C 0.88774 0.88873 1.27721
 C2267 C 0.91381 0.88411 1.26995
 C2268 C 0.92394 0.89422 1.24665
 C2269 C 0.90817 0.90868 1.22952
 C2270 C 0.88342 0.91542 1.23847
 C2271 C 0.85778 0.91348 1.22520
 C2272 C 0.84698 0.90318 1.25051
 H2273 H 0.92646 0.87245 1.28192
 H2274 H 0.94390 0.88994 1.24191
 H2275 H 0.85775 0.89893 1.20934
 H2276 H 0.84980 0.93278 1.21990
 H2277 H 0.84061 0.88263 1.24938
 H2278 H 0.83282 0.91661 1.25962
 C2279 C 0.87413 0.40806 0.76313
 C2280 C 0.88833 0.39089 0.77875
 C2281 C 0.91430 0.38601 0.77128
 C2282 C 0.92424 0.39569 0.74772
 C2283 C 0.90838 0.40997 0.73051
 C2284 C 0.88377 0.41703 0.73967
 C2285 C 0.85796 0.41510 0.72673
 C2286 C 0.84738 0.40529 0.75232
 H2287 H 0.92697 0.37441 0.78329
 H2288 H 0.94412 0.39120 0.74284
 H2289 H 0.85762 0.40030 0.71111
 H2290 H 0.85006 0.43438 0.72123
 H2291 H 0.84081 0.38478 0.75158
 H2292 H 0.83343 0.41898 0.76138
 C2293 C 0.40507 0.87342 0.76121
 C2294 C 0.39026 0.88878 0.77789
 C2295 C 0.38808 0.91537 0.77185
 C2296 C 0.39795 0.92521 0.74830
 C2297 C 0.40995 0.90860 0.73009
 C2298 C 0.41450 0.88301 0.73798
 C2299 C 0.40931 0.85813 0.72417
 C2300 C 0.39899 0.84764 0.74966
 H2301 H 0.37809 0.92840 0.78487
 H2302 H 0.39541 0.94560 0.74414
 H2303 H 0.42745 0.84841 0.71781
 H2304 H 0.39417 0.86012 0.70897
 H2305 H 0.41123 0.83195 0.75792
 H2306 H 0.37784 0.84350 0.74929
 C2307 C 0.37352 0.40743 1.26270
 C2308 C 0.38762 0.39004 1.27816
 C2309 C 0.41360 0.38519 1.27076
 C2310 C 0.42367 0.39516 1.24738
 C2311 C 0.40791 0.40967 1.23027
 C2312 C 0.38327 0.41667 1.23940
 C2313 C 0.35751 0.41493 1.22634
 C2314 C 0.34680 0.40484 1.25178
 H2315 H 0.42620 0.37343 1.28268
 H2316 H 0.44357 0.39069 1.24254
 H2317 H 0.35720 0.40032 1.21054
 H2318 H 0.34965 0.43429 1.22104
 H2319 H 0.34021 0.38436 1.25077
 H2320 H 0.33286 0.41845 1.26095
 C2321 C 0.87426 1.09512 0.73919
 C2322 C 0.88841 1.11227 0.72353
 C2323 C 0.91451 1.11684 0.73070
 C2324 C 0.92470 1.10679 0.75399
 C2325 C 0.90897 1.09244 0.77124
 C2326 C 0.88415 1.08579 0.76239
 C2327 C 0.85856 1.08792 0.77574
 C2328 C 0.84771 1.09813 0.75041
 H2329 H 0.92713 1.12840 0.71863
 H2330 H 0.94469 1.11101 0.75864
 H2331 H 0.85863 1.10257 0.79151
 H2332 H 0.85052 1.06870 0.78117
 H2333 H 0.84140 1.11871 0.75144
 H2334 H 0.83347 1.08472 0.74141
 C2335 C 0.90515 0.62909 0.24063
 C2336 C 0.89049 0.61357 0.22400
 C2337 C 0.88836 0.58702 0.23020
 C2338 C 0.89802 0.57738 0.25390
 C2339 C 0.90975 0.59415 0.27209
 C2340 C 0.91438 0.61969 0.26403
 C2341 C 0.90904 0.64469 0.27756
 C2342 C 0.89895 0.65497 0.25188
 H2343 H 0.87856 0.57386 0.21718
 H2344 H 0.89552 0.55702 0.25817
 H2345 H 0.92712 0.65444 0.28401
 H2346 H 0.89376 0.64286 0.29264
 H2347 H 0.91127 0.67057 0.24358
 H2348 H 0.87779 0.65914 0.25201
 C2349 C 0.40653 1.12625 0.23851
 C2350 C 0.39164 1.11050 0.22230
 C2351 C 0.38917 1.08416 0.22913
 C2352 C 0.39886 1.07498 0.25301
 C2353 C 0.41086 1.09205 0.27076
 C2354 C 0.41572 1.11733 0.26210
 C2355 C 0.41066 1.14271 0.27503
 C2356 C 0.40062 1.15246 0.24913
 H2357 H 0.37913 1.07085 0.21645
 H2358 H 0.39616 1.05474 0.25774
 H2359 H 0.42885 1.15245 0.28119
 H2360 H 0.39540 1.14140 0.29018
 H2361 H 0.41307 1.16773 0.24042
 H2362 H 0.37951 1.15684 0.24920
 C2363 C 0.37670 0.59240 0.73769
 C2364 C 0.38008 0.61823 0.73030
 C2365 C 0.39130 0.63518 0.74855
 C2366 C 0.40134 0.62563 0.77210
 C2367 C 0.40066 0.59884 0.77781
 C2368 C 0.38681 0.58297 0.76071
 C2369 C 0.39428 0.55778 0.74865
 C2370 C 0.38317 0.56814 0.72341
 H2371 H 0.39285 0.65568 0.74446
 H2372 H 0.41005 0.63921 0.78544
 H2373 H 0.38302 0.54127 0.75669
 H2374 H 0.41563 0.55485 0.74807
 H2375 H 0.36552 0.55761 0.71698
 H2376 H 0.39805 0.57123 0.70813
 C2377 C 1.12716 0.90508 0.74028
 C2378 C 1.11147 0.89064 0.72357
 C2379 C 1.08490 0.88871 0.72979
 C2380 C 1.07540 0.89846 0.75350
 C2381 C 1.09233 0.91011 0.77164
 C2382 C 1.11789 0.91444 0.76362
 C2383 C 1.14280 0.90882 0.77725
 C2384 C 1.15297 0.89856 0.75164
 H2385 H 1.07163 0.87904 0.71678
 H2386 H 1.05503 0.89611 0.75785
 H2387 H 1.14076 0.89361 0.79238
 H2388 H 1.15278 0.92679 0.78366
 H2389 H 1.15686 0.87736 0.75185
 H2390 H 1.16877 0.91065 0.74338
 C2391 C 1.12501 0.40895 0.23772
 C2392 C 1.10988 0.39388 0.22111
 C2393 C 1.08352 0.39054 0.22760
 C2394 C 1.07379 0.39956 0.25150
 C2395 C 1.09031 0.41174 0.26965
 C2396 C 1.11556 0.41747 0.26133
 C2397 C 1.14096 0.41295 0.27449
 C2398 C 1.15129 0.40365 0.24857
 H2399 H 1.07067 0.38022 0.21467
 H2400 H 1.05359 0.39615 0.25597
 H2401 H 1.13995 0.39740 0.28939
 H2402 H 1.15011 0.43130 0.28105
 H2403 H 1.15631 0.38269 0.24838
 H2404 H 1.16627 0.41670 0.24024
 C2405 C 0.59341 0.87314 0.23877
 C2406 C 0.61874 0.87873 0.23059
 C2407 C 0.63470 0.89232 0.24828
 C2408 C 0.62464 0.90211 0.27163
 C2409 C 0.59813 0.89929 0.27784
 C2410 C 0.58339 0.88333 0.26156
 C2411 C 0.55738 0.88793 0.24978
 C2412 C 0.56827 0.87682 0.22483
 H2413 H 0.65499 0.89563 0.24428
 H2414 H 0.63769 0.91232 0.28443
 H2415 H 0.55245 0.90886 0.24840
 H2416 H 0.54215 0.87551 0.25860
 H2417 H 0.56964 0.89129 0.20891
 H2418 H 0.55921 0.85808 0.21936
 C2419 C 0.59490 0.37322 0.73888
 C2420 C 0.61968 0.37993 0.72990
 C2421 C 0.63544 0.39454 0.74692
 C2422 C 0.62559 0.40405 0.77051
 C2423 C 0.59944 0.39997 0.77758
 C2424 C 0.58505 0.38316 0.76185
 C2425 C 0.55854 0.38639 0.75076
 C2426 C 0.56924 0.37555 0.72563
 H2427 H 0.65540 0.39883 0.74223
 H2428 H 0.63852 0.41502 0.78279
 H2429 H 0.55257 0.40705 0.74932
 H2430 H 0.54415 0.37336 0.76010
 H2431 H 0.56947 0.38989 0.70953
 H2432 H 0.56094 0.35634 0.72060
 C2433 C 1.26119 1.12486 1.09444
 C2434 C 1.27116 1.11728 1.11857
 C2435 C 1.25484 1.10199 1.13443
 C2436 C 1.23077 1.09292 1.12525
 C2437 C 1.22257 1.09800 1.09958
 C2438 C 1.23784 1.11526 1.08517
 C2439 C 1.24801 1.11290 1.05820
 C2440 C 1.27353 1.12342 1.06830
 H2441 H 1.26043 1.09694 1.15397
 H2442 H 1.21903 1.08155 1.13834
 H2443 H 1.23821 1.12639 1.04454
 H2444 H 1.24923 1.09245 1.05158
 H2445 H 1.27827 1.14291 1.06044
 H2446 H 1.28964 1.10911 1.06750
 C2447 C 1.26160 0.59242 0.62559
 C2448 C 1.27678 0.60987 0.61126
 C2449 C 1.26908 0.61454 0.58537
 C2450 C 1.24571 0.60427 0.57557
 C2451 C 1.22887 0.58968 0.59156
 C2452 C 1.23829 0.58291 0.61612
 C2453 C 1.22543 0.58468 0.64196
 C2454 C 1.25087 0.59507 0.65236
 H2455 H 1.28078 0.62632 0.57260
 H2456 H 1.24068 0.60855 0.55570
 H2457 H 1.22042 0.56532 0.64997
 H2458 H 1.20945 0.59914 0.64231
 H2459 H 1.26034 0.58164 0.66630
 H2460 H 1.24969 0.61559 0.65882
 C2461 C 0.75660 1.13034 0.59902
 C2462 C 0.77323 1.11527 0.61423
 C2463 C 0.76758 1.08861 0.61644
 C2464 C 0.74442 1.07839 0.60613
 C2465 C 0.72622 1.09465 0.59361
 C2466 C 0.73373 1.12036 0.58913
 C2467 C 0.71936 1.14502 0.59392
 C2468 C 0.74446 1.15594 0.60475
 H2469 H 0.78068 1.07577 0.62662
 H2470 H 0.74057 1.05793 0.60862
 H2471 H 0.70385 1.14283 0.60872
 H2472 H 0.71321 1.15457 0.57562
 H2473 H 0.74356 1.16013 0.62585
 H2474 H 0.75272 1.17173 0.59264
 C2475 C 0.75915 0.59537 1.12843
 C2476 C 0.77577 0.61009 1.11291
 C2477 C 0.76957 0.61225 1.08637
 C2478 C 0.74591 0.60251 1.07674
 C2479 C 0.72774 0.59066 1.09349
 C2480 C 0.73578 0.58606 1.11903
 C2481 C 0.72216 0.59133 1.14400
 C2482 C 0.74780 0.60151 1.15428
 H2483 H 0.78258 0.62211 1.07321
 H2484 H 0.74164 0.60502 1.05638
 H2485 H 0.71577 0.57323 1.15377
 H2486 H 0.70700 0.60654 1.14212
 H2487 H 0.75613 0.58923 1.16990
 H2488 H 0.74756 0.62265 1.15840
 C2489 C 1.25900 0.87231 0.90486
 C2490 C 1.27469 0.88682 0.88802
 C2491 C 1.26758 0.91301 0.88403
 C2492 C 1.24435 0.92303 0.89440
 C2493 C 1.22709 0.90703 0.90846
 C2494 C 1.23585 0.88204 0.91451
 C2495 C 1.22238 0.85661 0.91184
 C2496 C 1.24764 0.84591 0.90128
 H2497 H 1.27966 0.92588 0.87275
 H2498 H 1.23977 0.94314 0.89068
 H2499 H 1.20650 0.85712 0.89728
 H2500 H 1.21701 0.84813 0.93090
 H2501 H 1.24647 0.84014 0.88056
 H2502 H 1.25666 0.83129 0.91430
 C2503 C 1.25737 0.37107 0.40331
 C2504 C 1.27287 0.38539 0.38616
 C2505 C 1.26562 0.41151 0.38187
 C2506 C 1.24245 0.42160 0.39227
 C2507 C 1.22533 0.40576 0.40664
 C2508 C 1.23423 0.38086 0.41297
 C2509 C 1.22086 0.35532 0.41072
 C2510 C 1.24612 0.34457 0.40016
 H2511 H 1.27759 0.42429 0.37039
 H2512 H 1.23783 0.44166 0.38834
 H2513 H 1.20491 0.35557 0.39624
 H2514 H 1.21564 0.34708 0.42992
 H2515 H 1.24486 0.33852 0.37954
 H2516 H 1.25529 0.33019 0.41333
 C2517 C 0.75614 0.87044 0.40178
 C2518 C 0.77272 0.88557 0.38660
 C2519 C 0.76694 0.91222 0.38440
 C2520 C 0.74370 0.92234 0.39467
 C2521 C 0.72555 0.90600 0.40712
 C2522 C 0.73320 0.88032 0.41161
 C2523 C 0.71897 0.85560 0.40677
 C2524 C 0.74416 0.84478 0.39600
 H2525 H 0.77998 0.92511 0.37425
 H2526 H 0.73975 0.94278 0.39217
 H2527 H 0.70349 0.85773 0.39193
 H2528 H 0.71283 0.84602 0.42506
 H2529 H 0.74334 0.84060 0.37490
 H2530 H 0.75248 0.82903 0.40813
 C2531 C 0.75855 0.40451 0.87227
 C2532 C 0.76716 0.37937 0.87807
 C2533 C 0.74984 0.36330 0.89205
 C2534 C 0.72634 0.37315 0.90191
 C2535 C 0.71966 0.39952 0.89874
 C2536 C 0.73567 0.41429 0.88250
 C2537 C 0.74709 0.44049 0.88672
 C2538 C 0.77214 0.42987 0.87557
 H2539 H 0.75428 0.34316 0.89566
 H2540 H 0.71383 0.36006 0.91246
 H2541 H 0.74852 0.44563 0.90758
 H2542 H 0.73798 0.45549 0.87420
 H2543 H 0.78819 0.42886 0.88993
 H2544 H 0.77737 0.43885 0.85670
 C2545 C 0.74138 0.90463 1.12775
 C2546 C 0.73362 0.87924 1.12249
 C2547 C 0.75137 0.86310 1.10943
 C2548 C 0.77475 0.87324 1.09953
 C2549 C 0.78071 0.89988 1.10209
 C2550 C 0.76416 0.91469 1.11771
 C2551 C 0.75205 0.94051 1.11275
 C2552 C 0.72708 0.92946 1.12378
 H2553 H 0.74697 0.84285 1.10632
 H2554 H 0.78770 0.86026 1.08939
 H2555 H 0.75080 0.94521 1.09176
 H2556 H 0.76058 0.95597 1.12504
 H2557 H 0.71128 0.92774 1.10923
 H2558 H 0.72132 0.93853 1.14243
 C2559 C 0.74327 0.37218 0.59719
 C2560 C 0.72691 0.38706 0.61279
 C2561 C 0.73303 0.41351 0.61586
 C2562 C 0.75642 0.42363 0.60594
 C2563 C 0.77440 0.40743 0.59307
 C2564 C 0.76641 0.38202 0.58778
 C2565 C 0.78023 0.35691 0.59193
 C2566 C 0.75482 0.34615 0.60223
 H2567 H 0.72013 0.42620 0.62645
 H2568 H 0.76059 0.44392 0.60906
 H2569 H 0.79566 0.35828 0.60691
 H2570 H 0.78633 0.34782 0.57341
 H2571 H 0.75546 0.34124 0.62319
 H2572 H 0.74632 0.33097 0.58957
 C2573 C 0.23912 0.90750 0.62531
 C2574 C 0.23169 0.88183 0.62092
 C2575 C 0.25001 0.86524 0.60924
 C2576 C 0.27363 0.87511 0.59970
 C2577 C 0.27935 0.90186 0.60135
 C2578 C 0.26223 0.91724 0.61572
 C2579 C 0.25025 0.94276 0.60918
 C2580 C 0.22490 0.93206 0.61972
 H2581 H 0.24589 0.84483 0.60691
 H2582 H 0.28702 0.86184 0.59054
 H2583 H 0.24980 0.94655 0.58798
 H2584 H 0.25827 0.95876 0.62112
 H2585 H 0.20970 0.92963 0.60465
 H2586 H 0.21839 0.94192 0.63770
 C2587 C 0.24095 0.37332 1.09586
 C2588 C 0.22479 0.38828 1.11183
 C2589 C 0.23181 0.41458 1.11526
 C2590 C 0.25539 0.42428 1.10541
 C2591 C 0.27297 0.40790 1.09230
 C2592 C 0.26435 0.38281 1.08662
 C2593 C 0.27777 0.35745 1.09029
 C2594 C 0.25223 0.34701 1.10045
 H2595 H 0.21944 0.42779 1.12579
 H2596 H 0.25999 0.44443 1.10877
 H2597 H 0.29325 0.35829 1.10525
 H2598 H 0.28365 0.34857 1.07159
 H2599 H 0.25285 0.34173 1.12133
 H2600 H 0.24359 0.33209 1.08756
 C2601 C 0.74195 1.12853 0.90375
 C2602 C 0.72656 1.11437 0.88641
 C2603 C 0.73391 1.08834 0.88186
 C2604 C 0.75711 1.07821 0.89217
 C2605 C 0.77413 1.09395 0.90674
 C2606 C 0.76511 1.11871 0.91333
 C2607 C 0.77837 1.14434 0.91139
 C2608 C 0.75309 1.15512 0.90090
 H2609 H 0.72202 1.07566 0.87021
 H2610 H 0.76185 1.05824 0.88803
 H2611 H 0.79435 1.14435 0.89693
 H2612 H 0.78353 1.15233 0.93068
 H2613 H 0.75435 1.16147 0.88035
 H2614 H 0.74384 1.16928 0.91422
 C2615 C 0.74206 0.62881 0.40413
 C2616 C 0.72500 0.61325 0.38997
 C2617 C 0.73064 0.58651 0.38860
 C2618 C 0.75419 0.57667 0.39849
 C2619 C 0.77270 0.59338 0.40981
 C2620 C 0.76523 0.61918 0.41369
 C2621 C 0.77941 0.64367 0.40768
 C2622 C 0.75400 0.65423 0.39718
 H2623 H 0.71734 0.57333 0.37921
 H2624 H 0.75815 0.55618 0.39650
 H2625 H 0.79451 0.64103 0.39254
 H2626 H 0.78604 0.65377 0.42548
 H2627 H 0.75431 0.65775 0.37593
 H2628 H 0.74608 0.67041 0.40896
 C2629 C 0.24025 1.09569 0.37364
 C2630 C 0.23087 1.12030 0.38037
 C2631 C 0.24762 1.13626 0.39508
 C2632 C 0.27141 1.12675 0.40457
 C2633 C 0.27894 1.10075 0.40038
 C2634 C 0.26338 1.08618 0.38357
 C2635 C 0.25266 1.05951 0.38680
 C2636 C 0.22735 1.06987 0.37594
 H2637 H 0.24252 1.15609 0.39946
 H2638 H 0.28349 1.13982 0.41560
 H2639 H 0.25132 1.05352 0.40745
 H2640 H 0.26218 1.04526 0.37378
 H2641 H 0.21125 1.06985 0.39026
 H2642 H 0.22243 1.06151 0.35673
 C2643 C 0.23997 0.59396 0.87450
 C2644 C 0.23075 0.61856 0.88149
 C2645 C 0.24767 0.63433 0.89617
 C2646 C 0.27148 0.62466 0.90541
 C2647 C 0.27883 0.59862 0.90105
 C2648 C 0.26311 0.58424 0.88423
 C2649 C 0.25226 0.55761 0.88730
 C2650 C 0.22694 0.56819 0.87667
 H2651 H 0.24273 0.65418 0.90067
 H2652 H 0.28370 0.63764 0.91636
 H2653 H 0.25100 0.55147 0.90792
 H2654 H 0.26164 0.54341 0.87412
 H2655 H 0.21092 0.56815 0.89107
 H2656 H 0.22187 0.56002 0.85742
 C2657 C 1.09350 1.26303 1.12458
 C2658 C 1.11936 1.27025 1.12097
 C2659 C 1.13612 1.25187 1.10959
 C2660 C 1.12632 1.22843 1.09959
 C2661 C 1.09949 1.22293 1.10051
 C2662 C 1.08385 1.24010 1.11455
 C2663 C 1.05862 1.25235 1.10737
 C2664 C 1.06922 1.27750 1.11838
 H2665 H 1.15663 1.25581 1.10782
 H2666 H 1.13973 1.21500 1.09069
 H2667 H 1.04219 1.24438 1.11880
 H2668 H 1.05547 1.25299 1.08608
 H2669 H 1.05888 1.28396 1.13611
 H2670 H 1.07224 1.29279 1.10348
 C2671 C 1.12873 0.75853 0.59732
 C2672 C 1.11302 0.77564 0.61129
 C2673 C 1.08629 0.76994 0.61261
 C2674 C 1.07657 0.74635 0.60280
 C2675 C 1.09339 0.72781 0.59164
 C2676 C 1.11922 0.73530 0.58788
 C2677 C 1.14372 0.72121 0.59414
 C2678 C 1.15415 0.74669 0.60450
 H2679 H 1.07301 0.78328 0.62182
 H2680 H 1.05606 0.74242 0.60468
 H2681 H 1.15398 0.71449 0.57644
 H2682 H 1.14102 0.70621 0.60938
 H2683 H 1.17038 0.75457 0.59274
 H2684 H 1.15752 0.74652 0.62577
 C2685 C 0.62841 1.25993 0.59488
 C2686 C 0.61300 1.27642 0.60985
 C2687 C 0.58654 1.27007 0.61243
 C2688 C 0.57691 1.24637 0.60280
 C2689 C 0.59362 1.22832 0.59070
 C2690 C 0.61903 1.23652 0.58570
 C2691 C 0.64422 1.22308 0.59056
 C2692 C 0.65448 1.24876 0.60060
 H2693 H 0.57347 1.28296 0.62255
 H2694 H 0.55660 1.24198 0.60563
 H2695 H 0.65375 1.21679 0.57231
 H2696 H 0.64273 1.20789 0.60578
 H2697 H 0.66984 1.25721 0.58808
 H2698 H 0.65897 1.24852 0.62166
 C2699 C 0.62836 0.75858 1.09586
 C2700 C 0.61298 0.77547 1.11043
 C2701 C 0.58636 0.76951 1.11264
 C2702 C 0.57653 0.74585 1.10310
 C2703 C 0.59313 0.72748 1.09135
 C2704 C 0.61874 0.73526 1.08671
 C2705 C 0.64361 0.72142 1.09207
 C2706 C 0.65413 0.74699 1.10210
 H2707 H 0.57331 0.78266 1.12243
 H2708 H 0.55613 0.74172 1.10569
 H2709 H 0.65331 0.71485 1.07401
 H2710 H 0.64161 0.70637 1.10736
 H2711 H 0.66985 0.75507 1.08979
 H2712 H 0.65827 0.74682 1.12324
 C2713 C 0.90741 1.26258 0.87715
 C2714 C 0.88128 1.26922 0.88001
 C2715 C 0.86458 1.25029 0.89058
 C2716 C 0.87456 1.22690 0.90059
 C2717 C 0.90150 1.22195 0.90043
 C2718 C 0.91722 1.23965 0.88713
 C2719 C 0.94195 1.25221 0.89530
 C2720 C 0.93117 1.27738 0.88437
 H2721 H 0.84393 1.25370 0.89169
 H2722 H 0.86120 1.21305 0.90891
 H2723 H 0.95889 1.24476 0.88428
 H2724 H 0.94441 1.25250 0.91670
 H2725 H 0.94195 1.28437 0.86709
 H2726 H 0.92736 1.29231 0.89940
 C2727 C 0.87169 0.75861 0.40421
 C2728 C 0.88713 0.77545 0.38962
 C2729 C 0.91383 0.76974 0.38794
 C2730 C 0.92376 0.74632 0.39805
 C2731 C 0.90714 0.72796 0.40982
 C2732 C 0.88138 0.73553 0.41391
 C2733 C 0.85676 0.72138 0.40837
 C2734 C 0.84614 0.74670 0.39773
 H2735 H 0.92692 0.78291 0.37821
 H2736 H 0.94424 0.74236 0.39588
 H2737 H 0.84683 0.71496 0.42637
 H2738 H 0.85918 0.70613 0.39337
 H2739 H 0.83013 0.75481 0.40964
 H2740 H 0.84237 0.74620 0.37653
 C2741 C 0.37063 1.25766 0.40268
 C2742 C 0.38584 1.27473 0.38813
 C2743 C 0.41262 1.26932 0.38640
 C2744 C 0.42284 1.24599 0.39641
 C2745 C 0.40649 1.22743 0.40820
 C2746 C 0.38063 1.23467 0.41232
 C2747 C 0.35620 1.22022 0.40679
 C2748 C 0.34523 1.24543 0.39620
 H2749 H 0.42556 1.28268 0.37674
 H2750 H 0.44337 1.24227 0.39421
 H2751 H 0.34637 1.21364 0.42479
 H2752 H 0.35880 1.20503 0.39175
 H2753 H 0.32913 1.25330 0.40814
 H2754 H 0.34145 1.24492 0.37501
 C2755 C 0.36987 0.75708 0.90346
 C2756 C 0.38512 0.77399 0.88877
 C2757 C 0.41192 0.76865 0.88727
 C2758 C 0.42214 0.74547 0.89758
 C2759 C 0.40576 0.72697 0.90942
 C2760 C 0.37987 0.73420 0.91337
 C2761 C 0.35546 0.71968 0.90787
 C2762 C 0.34451 0.74478 0.89700
 H2763 H 0.42488 0.78195 0.87755
 H2764 H 0.44269 0.74180 0.89554
 H2765 H 0.34557 0.71326 0.92589
 H2766 H 0.35814 0.70435 0.89299
 H2767 H 0.32837 0.75277 0.90881
 H2768 H 0.34081 0.74407 0.87580
 C2769 C 1.12946 0.74259 0.90308
 C2770 C 1.11415 0.72565 0.88856
 C2771 C 1.08745 0.73134 0.88659
 C2772 C 1.07741 0.75481 0.89638
 C2773 C 1.09390 0.77324 0.90815
 C2774 C 1.11966 0.76574 0.91247
 C2775 C 1.14429 0.77988 0.90693
 C2776 C 1.15503 0.75448 0.89664
 H2777 H 1.07444 0.71807 0.87693
 H2778 H 1.05693 0.75870 0.89406
 H2779 H 1.15410 0.78647 0.92492
 H2780 H 1.14194 0.79500 0.89174
 H2781 H 1.17097 0.74649 0.90874
 H2782 H 1.15894 0.75481 0.87546
 C2783 C 1.09069 0.23709 0.37713
 C2784 C 1.11651 0.22980 0.38108
 C2785 C 1.13336 0.24848 0.39177
 C2786 C 1.12368 0.27231 0.40092
 C2787 C 1.09689 0.27794 0.39980
 C2788 C 1.08115 0.26045 0.38631
 C2789 C 1.05582 0.24867 0.39381
 C2790 C 1.06630 0.22305 0.38375
 H2791 H 1.15387 0.24454 0.39363
 H2792 H 1.13715 0.28594 0.40938
 H2793 H 1.03949 0.25637 0.38205
 H2794 H 1.05259 0.24880 0.41510
 H2795 H 1.05598 0.21604 0.36621
 H2796 H 1.06916 0.20827 0.39919
 C2797 C 0.59467 0.74033 0.37409
 C2798 C 0.62046 0.73313 0.37823
 C2799 C 0.63676 0.75122 0.39061
 C2800 C 0.62653 0.77434 0.40096
 C2801 C 0.59968 0.77973 0.39950
 C2802 C 0.58456 0.76288 0.38453
 C2803 C 0.55925 0.75026 0.39063
 C2804 C 0.57035 0.72553 0.37915
 H2805 H 0.65724 0.74727 0.39287
 H2806 H 0.63963 0.78756 0.41057
 H2807 H 0.54306 0.75846 0.37900
 H2808 H 0.55552 0.74893 0.41180
 H2809 H 0.56057 0.71957 0.36093
 H2810 H 0.57308 0.70979 0.39363
 C2811 C 0.62893 0.24178 0.90364
 C2812 C 0.61364 0.22491 0.88898
 C2813 C 0.58688 0.23041 0.88735
 C2814 C 0.57675 0.25366 0.89757
 C2815 C 0.59319 0.27206 0.90947
 C2816 C 0.61902 0.26469 0.91349
 C2817 C 0.64350 0.27912 0.90802
 C2818 C 0.65435 0.25398 0.89722
 H2819 H 0.57389 0.21719 0.87758
 H2820 H 0.55623 0.25746 0.89543
 H2821 H 0.65339 0.28547 0.92605
 H2822 H 0.64092 0.29447 0.89310
 H2823 H 0.67045 0.24593 0.90907
 H2824 H 0.65810 0.25470 0.87602
 C2825 C 0.87196 0.74116 1.09437
 C2826 C 0.88734 0.72438 1.10908
 C2827 C 0.91394 0.73038 1.11133
 C2828 C 0.92374 0.75405 1.10178
 C2829 C 0.90710 0.77240 1.09001
 C2830 C 0.88153 0.76453 1.08523
 C2831 C 0.85656 0.77823 1.09042
 C2832 C 0.84609 0.75259 1.10042
 H2833 H 0.92700 0.71725 1.12118
 H2834 H 0.94412 0.75820 1.10441
 H2835 H 0.84693 0.78479 1.07230
 H2836 H 0.85839 0.79327 1.10571
 H2837 H 0.83050 0.74443 1.08802
 H2838 H 0.84183 0.75271 1.12153
 C2839 C 0.87199 0.24257 0.59695
 C2840 C 0.88744 0.22563 0.61144
 C2841 C 0.91413 0.23135 0.61324
 C2842 C 0.92402 0.25487 0.60339
 C2843 C 0.90738 0.27332 0.59174
 C2844 C 0.88166 0.26575 0.58749
 C2845 C 0.85698 0.27982 0.59307
 C2846 C 0.84639 0.25439 0.60345
 H2847 H 0.92722 0.21811 0.62289
 H2848 H 0.94448 0.25885 0.60566
 H2849 H 0.84709 0.28639 0.57510
 H2850 H 0.85931 0.29494 0.60822
 H2851 H 0.83044 0.24637 0.59141
 H2852 H 0.84255 0.25469 0.62463
 C2853 C 0.40692 0.73780 0.62295
 C2854 C 0.38169 0.72964 0.61740
 C2855 C 0.36509 0.74748 0.60502
 C2856 C 0.37461 0.77151 0.59614
 C2857 C 0.40109 0.77809 0.59905
 C2858 C 0.41638 0.76124 0.61390
 C2859 C 0.44248 0.75002 0.60837
 C2860 C 0.43208 0.72432 0.61832
 H2861 H 0.34490 0.74276 0.60185
 H2862 H 0.36125 0.78455 0.58659
 H2863 H 0.45778 0.75836 0.62099
 H2864 H 0.44711 0.74983 0.58733
 H2865 H 0.44137 0.71795 0.63669
 H2866 H 0.43068 0.70917 0.60310
 C2867 C 0.40981 0.23516 1.12023
 C2868 C 0.38418 0.22741 1.11601
 C2869 C 0.36700 0.24591 1.10547
 C2870 C 0.37619 0.27015 1.09686
 C2871 C 0.40283 0.27638 1.09835
 C2872 C 0.41888 0.25890 1.11156
 C2873 C 0.44450 0.24781 1.10396
 C2874 C 0.43454 0.22177 1.11347
 H2875 H 0.34659 0.24158 1.10344
 H2876 H 0.36244 0.28368 1.08860
 H2877 H 0.46061 0.25557 1.11595
 H2878 H 0.44782 0.24848 1.08269
 H2879 H 0.44492 0.21459 1.13092
 H2880 H 0.43207 0.20728 1.09774
 C2881 C 1.09361 1.12489 0.73728
 C2882 C 1.11793 1.11753 0.72762
 C2883 C 1.13399 1.10289 0.74437
 C2884 C 1.12485 1.09413 0.76854
 C2885 C 1.09905 1.09892 0.77647
 C2886 C 1.08438 1.11561 0.76079
 C2887 C 1.05748 1.11258 0.75060
 C2888 C 1.06752 1.12273 0.72489
 H2889 H 1.15369 1.09813 0.73907
 H2890 H 1.13807 1.08325 0.78061
 H2891 H 1.04356 1.12603 0.76005
 H2892 H 1.05119 1.09200 0.74984
 H2893 H 1.05935 1.14198 0.71967
 H2894 H 1.06703 1.10807 0.70914
 C2895 C 1.09297 0.62629 0.23808
 C2896 C 1.11773 0.61972 0.22898
 C2897 C 1.13386 0.60557 0.24611
 C2898 C 1.12439 0.59635 0.26997
 C2899 C 1.09828 0.60027 0.27725
 C2900 C 1.08350 0.61663 0.26135
 C2901 C 1.05691 0.61290 0.25060
 C2902 C 1.06721 0.62344 0.22514
 H2903 H 1.15383 0.60144 0.24131
 H2904 H 1.13759 0.58574 0.28233
 H2905 H 1.04245 0.62591 0.25983
 H2906 H 1.05122 0.59214 0.24963
 H2907 H 1.05860 0.64246 0.21982
 H2908 H 1.06747 0.60883 0.20933
 C2909 C 0.62593 1.09255 0.23797
 C2910 C 0.61190 1.11017 0.22270
 C2911 C 0.58611 1.11545 0.23045
 C2912 C 0.57621 1.10569 0.25399
 C2913 C 0.59200 1.09100 0.27092
 C2914 C 0.61638 1.08355 0.26145
 C2915 C 0.64237 1.08488 0.27410
 C2916 C 0.65285 1.09471 0.24848
 H2917 H 0.57354 1.12740 0.21868
 H2918 H 0.55646 1.11047 0.25907
 H2919 H 0.64997 1.06541 0.27934
 H2920 H 0.64317 1.09953 0.28985
 H2921 H 0.66641 1.08084 0.23912
 H2922 H 0.65982 1.11508 0.24932
 C2923 C 0.59009 0.62223 0.73630
 C2924 C 0.61579 0.61828 0.72865
 C2925 C 0.63293 0.60751 0.74707
 C2926 C 0.62362 0.59834 0.77104
 C2927 C 0.59692 0.59950 0.77707
 C2928 C 0.58091 0.61301 0.75978
 C2929 C 0.55542 0.60550 0.74836
 C2930 C 0.56551 0.61562 0.72260
 H2931 H 0.65337 0.60563 0.74281
 H2932 H 0.63731 0.58986 0.78449
 H2933 H 0.53919 0.61725 0.75626
 H2934 H 0.55223 0.58420 0.74856
 H2935 H 0.55507 0.63318 0.71573
 H2936 H 0.56818 0.60021 0.70781
 C2937 C 0.90353 0.87271 0.74101
 C2938 C 0.88930 0.88836 0.72403
 C2939 C 0.88803 0.91509 0.72963
 C2940 C 0.89816 0.92487 0.75306
 C2941 C 0.90961 0.90810 0.77149
 C2942 C 0.91329 0.88227 0.76406
 C2943 C 0.90723 0.85783 0.77833
 C2944 C 0.89651 0.84734 0.75303
 H2945 H 0.87860 0.92831 0.71636
 H2946 H 0.89630 0.94538 0.75695
 H2947 H 0.89218 0.86059 0.79350
 H2948 H 0.92503 0.84759 0.78486
 H2949 H 0.87522 0.84398 0.75347
 H2950 H 0.90817 0.83108 0.74508
 C2951 C 0.87158 0.40626 0.23832
 C2952 C 0.87666 0.38073 0.23046
 C2953 C 0.88962 0.36458 0.24849
 C2954 C 0.89945 0.37462 0.27185
 C2955 C 0.89724 0.40125 0.27772
 C2956 C 0.88176 0.41621 0.26113
 C2957 C 0.88706 0.44200 0.24920
 C2958 C 0.87599 0.43119 0.22422
 H2959 H 0.89253 0.34420 0.24469
 H2960 H 0.90930 0.36148 0.28489
 H2961 H 0.90812 0.44643 0.24804
 H2962 H 0.87488 0.45758 0.25774
 H2963 H 0.89060 0.42937 0.20849
 H2964 H 0.85751 0.44067 0.21844
 C2965 C 0.40314 0.87196 0.24075
 C2966 C 0.37889 0.87956 0.23107
 C2967 C 0.36359 0.89560 0.24717
 C2968 C 0.37345 0.90537 0.27065
 C2969 C 0.39927 0.90024 0.27842
 C2970 C 0.41310 0.88225 0.26349
 C2971 C 0.43989 0.88385 0.25265
 C2972 C 0.42904 0.87258 0.22778
 H2973 H 0.34399 0.90073 0.24182
 H2974 H 0.36078 0.91731 0.28226
 H2975 H 0.45359 0.87053 0.26260
 H2976 H 0.44678 0.90416 0.25053
 H2977 H 0.43652 0.85283 0.22359
 H2978 H 0.42967 0.88630 0.21117
 C2979 C 0.40836 0.37648 0.73713
 C2980 C 0.38257 0.38044 0.72977
 C2981 C 0.36588 0.39199 0.74807
 C2982 C 0.37568 0.40176 0.77160
 C2983 C 0.40247 0.40047 0.77727
 C2984 C 0.41803 0.38630 0.76014
 C2985 C 0.44340 0.39319 0.74807
 C2986 C 0.43278 0.38242 0.72282
 H2987 H 0.34539 0.39399 0.74405
 H2988 H 0.36229 0.41076 0.78498
 H2989 H 0.45965 0.38152 0.75607
 H2990 H 0.44681 0.41446 0.74752
 H2991 H 0.44293 0.36456 0.71636
 H2992 H 0.43002 0.39741 0.70758
 C2993 C 1.09320 0.87535 1.26372
 C2994 C 1.11760 0.88283 1.27311
 C2995 C 1.13348 0.89732 1.25611
 C2996 C 1.12407 0.90586 1.23196
 C2997 C 1.09817 0.90105 1.22434
 C2998 C 1.08372 0.88443 1.24024
 C2999 C 1.05689 0.88745 1.25062
 C3000 C 1.06720 0.87752 1.27632
 H3001 H 1.15321 0.90214 1.26120
 H3002 H 1.13715 0.91666 1.21967
 H3003 H 1.04297 0.87389 1.24138
 H3004 H 1.05051 0.90802 1.25128
 H3005 H 1.05917 0.85830 1.28175
 H3006 H 1.06678 0.89230 1.29196
 C3007 C 1.12672 0.40608 0.76148
 C3008 C 1.11211 0.38953 0.77740
 C3009 C 1.08583 0.38579 0.77045
 C3010 C 1.07584 0.39600 0.74712
 C3011 C 1.09195 0.40970 0.72967
 C3012 C 1.11700 0.41562 0.73830
 C3013 C 1.14238 0.41260 0.72476
 C3014 C 1.15308 0.40215 0.75006
 H3015 H 1.07291 0.37472 0.78267
 H3016 H 1.05571 0.39238 0.74256
 H3017 H 1.15098 0.43155 0.71919
 H3018 H 1.14171 0.39790 0.70905
 H3019 H 1.16783 0.41512 0.75885
 H3020 H 1.15869 0.38136 0.74906
 C3021 C 0.62630 0.90648 0.76154
 C3022 C 0.61074 0.89180 0.77816
 C3023 C 0.58437 0.88897 0.77148
 C3024 C 0.57501 0.89811 0.74744
 C3025 C 0.59190 0.90999 0.72939
 C3026 C 0.61719 0.91518 0.73784
 C3027 C 0.64254 0.91010 0.72482
 C3028 C 0.65251 0.90057 0.75082
 H3029 H 0.57117 0.87903 0.78439
 H3030 H 0.55478 0.89512 0.74281
 H3031 H 0.65211 0.92825 0.71825
 H3032 H 0.64125 0.89458 0.70996
 H3033 H 0.66776 0.91327 0.75917
 H3034 H 0.65705 0.87950 0.75110
 C3035 C 0.59254 0.37519 1.26367
 C3036 C 0.61771 0.38089 1.27222
 C3037 C 0.63406 0.39411 1.25459
 C3038 C 0.62450 0.40347 1.23083
 C3039 C 0.59812 0.40058 1.22414
 C3040 C 0.58301 0.38498 1.24048
 C3041 C 0.55680 0.38987 1.25165
 C3042 C 0.56716 0.37920 1.27704
 H3043 H 0.65427 0.39745 1.25893
 H3044 H 0.63784 0.41340 1.21808
 H3045 H 0.54169 0.37735 1.24282
 H3046 H 0.55192 0.41084 1.25250
 H3047 H 0.55794 0.36059 1.28273
 H3048 H 0.56827 0.39395 1.29268
 C3049 C 0.90676 1.12661 1.26197
 C3050 C 0.88087 1.12290 1.26905
 C3051 C 0.86433 1.11126 1.25068
 C3052 C 0.87435 1.10106 1.22743
 C3053 C 0.90121 1.10201 1.22213
 C3054 C 0.91665 1.11636 1.23923
 C3055 C 0.94184 1.10951 1.25172
 C3056 C 0.93098 1.12075 1.27666
 H3057 H 0.84379 1.10942 1.25449
 H3058 H 0.86108 1.09195 1.21402
 H3059 H 0.95825 1.12095 1.24373
 H3060 H 0.94514 1.08823 1.25265
 H3061 H 0.94114 1.13864 1.28297
 H3062 H 0.92796 1.10602 1.29211
 C3063 C 0.90475 0.62758 0.76058
 C3064 C 0.89023 0.61195 0.77730
 C3065 C 0.88855 0.58533 0.77136
 C3066 C 0.89860 0.57569 0.74782
 C3067 C 0.91031 0.59252 0.72961
 C3068 C 0.91440 0.61817 0.73741
 C3069 C 0.90877 0.64292 0.72348
 C3070 C 0.89818 0.65324 0.74891
 H3071 H 0.87884 0.57211 0.78441
 H3072 H 0.89642 0.55527 0.74366
 H3073 H 0.89371 0.64065 0.70825
 H3074 H 0.92675 0.65294 0.71713
 H3075 H 0.87696 0.65699 0.74847
 H3076 H 0.91010 0.66917 0.75712
 C3077 C 0.37957 1.09124 0.76503
 C3078 C 0.38310 1.11695 0.77269
 C3079 C 0.39392 1.13420 0.75440
 C3080 C 0.40347 1.12504 0.73054
 C3081 C 0.40266 1.09837 0.72447
 C3082 C 0.38918 1.08221 0.74165
 C3083 C 0.39691 1.05682 0.75319
 C3084 C 0.38637 1.06675 0.77882
 H3085 H 0.39547 1.15465 0.75865
 H3086 H 0.41189 1.13884 0.71719
 H3087 H 0.41827 1.05389 0.75325
 H3088 H 0.38548 1.04045 0.74516
 H3089 H 0.40159 1.06959 0.79380
 H3090 H 0.36887 1.05610 0.78548
 C3091 C 0.37662 0.59261 1.26439
 C3092 C 0.38356 0.61712 1.27384
 C3093 C 0.39798 0.63323 1.25696
 C3094 C 0.40692 0.62402 1.23289
 C3095 C 0.40250 0.59813 1.22517
 C3096 C 0.38604 0.58336 1.24096
 C3097 C 0.38950 0.55659 1.25137
 C3098 C 0.37921 0.56666 1.27700
 H3099 H 0.40243 0.65304 1.26203
 H3100 H 0.41762 0.63728 1.22071
 H3101 H 0.41020 0.55060 1.25219
 H3102 H 0.37626 0.54243 1.24202
 H3103 H 0.39391 0.56650 1.29276
 H3104 H 0.36010 0.55826 1.28229
 C3105 C 1.12863 1.25892 0.90400
 C3106 C 1.11294 1.27608 0.89001
 C3107 C 1.08618 1.27050 0.88881
 C3108 C 1.07640 1.24695 0.89874
 C3109 C 1.09320 1.22837 0.90990
 C3110 C 1.11905 1.23575 0.91358
 C3111 C 1.14348 1.22154 0.90733
 C3112 C 1.15398 1.24695 0.89682
 H3113 H 1.07292 1.28387 0.87956
 H3114 H 1.05587 1.24307 0.89690
 H3115 H 1.14067 1.20651 0.89217
 H3116 H 1.15376 1.21482 0.92503
 H3117 H 1.15729 1.24672 0.87554
 H3118 H 1.17029 1.25478 0.90849
 C3119 C 1.09075 0.76506 0.38058
 C3120 C 1.11626 0.77299 0.38509
 C3121 C 1.13329 0.75485 0.39644
 C3122 C 1.12404 0.73078 0.40546
 C3123 C 1.09744 0.72440 0.40366
 C3124 C 1.08158 0.74154 0.38973
 C3125 C 1.05583 0.75280 0.39661
 C3126 C 1.06590 0.77859 0.38655
 H3127 H 1.15364 0.75936 0.39875
 H3128 H 1.13771 0.71752 0.41423
 H3129 H 1.05216 0.75270 0.41783
 H3130 H 1.03992 0.74470 0.38458
 H3131 H 1.06808 0.79351 0.40191
 H3132 H 1.05581 0.78527 0.36873
 C3133 C 0.62674 1.26096 0.40693
 C3134 C 0.61113 1.27791 0.39265
 C3135 C 0.58461 1.27164 0.39031
 C3136 C 0.57510 1.24766 0.39943
 C3137 C 0.59197 1.22928 0.41084
 C3138 C 0.61746 1.23733 0.41565
 C3139 C 0.64253 1.22396 0.41006
 C3140 C 0.65269 1.24988 0.40051
 H3141 H 0.57139 1.28481 0.38072
 H3142 H 0.55476 1.24331 0.39676
 H3143 H 0.64076 1.20921 0.39449
 H3144 H 0.65232 1.21715 0.42800
 H3145 H 0.65684 1.25022 0.37938
 H3146 H 0.66828 1.25793 0.41298
 C3147 C 0.59222 0.76305 0.87809
 C3148 C 0.61814 0.77023 0.88138
 C3149 C 0.63509 0.75164 0.89218
 C3150 C 0.62548 0.72800 0.90195
 C3151 C 0.59866 0.72247 0.90136
 C3152 C 0.58276 0.73991 0.88789
 C3153 C 0.55765 0.75198 0.89569
 C3154 C 0.56804 0.77736 0.88495
 H3155 H 0.65564 0.75552 0.89363
 H3156 H 0.63905 0.71441 0.91040
 H3157 H 0.55486 0.75219 0.91705
 H3158 H 0.54104 0.74422 0.88441
 H3159 H 0.57129 0.79235 0.90006
 H3160 H 0.55739 0.78416 0.86751
 C3161 C 0.87323 1.26071 1.09427
 C3162 C 0.87840 1.26897 1.11964
 C3163 C 0.89178 1.25131 1.13588
 C3164 C 0.90174 1.22787 1.12605
 C3165 C 0.89920 1.22154 1.09956
 C3166 C 0.88349 1.23783 1.08455
 C3167 C 0.88851 1.24944 1.05856
 C3168 C 0.87736 1.27451 1.06912
 H3169 H 0.89490 1.25544 1.15615
 H3170 H 0.91188 1.21511 1.13924
 H3171 H 0.87627 1.24061 1.04322
 H3172 H 0.90953 1.25066 1.05395
 H3173 H 0.85878 1.28005 1.05971
 H3174 H 0.89188 1.29035 1.07061
 C3175 C 0.87497 0.76123 0.59400
 C3176 C 0.87899 0.76884 0.61965
 C3177 C 0.89086 0.75081 0.63646
 C3178 C 0.90090 0.72730 0.62686
 C3179 C 0.89960 0.72142 0.60015
 C3180 C 0.88510 0.73826 0.58452
 C3181 C 0.89170 0.75024 0.55902
 C3182 C 0.88058 0.77543 0.56945
 H3183 H 0.89295 0.75509 0.65686
 H3184 H 0.91015 0.71414 0.64032
 H3185 H 0.88007 0.74196 0.54292
 H3186 H 0.91295 0.75104 0.55550
 H3187 H 0.86256 0.78158 0.55935
 H3188 H 0.89535 0.79090 0.57198
 C3189 C 0.40761 1.26169 0.62571
 C3190 C 0.39025 1.27688 0.61128
 C3191 C 0.38549 1.26904 0.58547
 C3192 C 0.39562 1.24556 0.57584
 C3193 C 0.41013 1.22874 0.59193
 C3194 C 0.41697 1.23825 0.61642
 C3195 C 0.41509 1.22558 0.64236
 C3196 C 0.40487 1.25116 0.65257
 H3197 H 0.37375 1.28075 0.57264
 H3198 H 0.39130 1.24044 0.55601
 H3199 H 0.43441 1.22046 0.65041
 H3200 H 0.40049 1.20974 0.64285
 H3201 H 0.41837 1.26060 0.66642
 H3202 H 0.38433 1.25021 0.65906
 C3203 C 0.37430 0.76049 1.09474
 C3204 C 0.38053 0.76946 1.11962
 C3205 C 0.39468 0.75232 1.13574
 C3206 C 0.40418 0.72858 1.12620
 C3207 C 0.40054 0.72145 1.10004
 C3208 C 0.38422 0.73737 1.08522
 C3209 C 0.38816 0.74834 1.05877
 C3210 C 0.37735 0.77366 1.06912
 H3211 H 0.39859 0.75700 1.15574
 H3212 H 0.41476 0.71620 1.13939
 H3213 H 0.37535 0.73913 1.04414
 H3214 H 0.40897 0.74950 1.05329
 H3215 H 0.35837 0.77892 1.06036
 H3216 H 0.39186 0.78958 1.06962
 C3217 C 0.90588 0.73944 0.87560
 C3218 C 0.88015 0.73208 0.87989
 C3219 C 0.86359 0.75038 0.89162
 C3220 C 0.87351 0.77396 0.90121
 C3221 C 0.90029 0.77963 0.89958
 C3222 C 0.91567 0.76246 0.88526
 C3223 C 0.94112 0.75037 0.89187
 C3224 C 0.93037 0.72511 0.88126
 H3225 H 0.84315 0.74632 0.89390
 H3226 H 0.86023 0.78735 0.91035
 H3227 H 0.94481 0.74984 0.91308
 H3228 H 0.95723 0.75835 0.88000
 H3229 H 0.92781 0.70988 0.89629
 H3230 H 0.94029 0.71862 0.86330
 C3231 C 0.87238 0.24105 0.40701
 C3232 C 0.88745 0.22451 0.39177
 C3233 C 0.91388 0.23083 0.38865
 C3234 C 0.92373 0.25458 0.39794
 C3235 C 0.90728 0.27271 0.41025
 C3236 C 0.88197 0.26450 0.41585
 C3237 C 0.85667 0.27791 0.41148
 C3238 C 0.84619 0.25218 0.40182
 H3239 H 0.92672 0.21792 0.37827
 H3240 H 0.94397 0.25895 0.39464
 H3241 H 0.85781 0.29302 0.39615
 H3242 H 0.84756 0.28430 0.42991
 H3243 H 0.84121 0.25231 0.38086
 H3244 H 0.83112 0.24379 0.41472
 C3245 C 0.40474 0.73952 0.37482
 C3246 C 0.38003 0.73035 0.38149
 C3247 C 0.36412 0.74719 0.39614
 C3248 C 0.37374 0.77091 0.40562
 C3249 C 0.39983 0.77823 0.40149
 C3250 C 0.41438 0.76255 0.38476
 C3251 C 0.44097 0.75160 0.38809
 C3252 C 0.43048 0.72640 0.37723
 H3253 H 0.34423 0.74225 0.40046
 H3254 H 0.36068 0.78308 0.41656
 H3255 H 0.44685 0.75019 0.40877
 H3256 H 0.45537 0.76099 0.37511
 H3257 H 0.43030 0.71030 0.39156
 H3258 H 0.43889 0.72141 0.35805
 C3259 C 0.40523 0.23977 0.87444
 C3260 C 0.38077 0.23039 0.88168
 C3261 C 0.36509 0.24702 0.89680
 C3262 C 0.37477 0.27073 0.90617
 C3263 C 0.40073 0.27823 0.90153
 C3264 C 0.41498 0.26278 0.88433
 C3265 C 0.44169 0.25195 0.88693
 C3266 C 0.43109 0.22678 0.87611
 H3267 H 0.34534 0.24192 0.90154
 H3268 H 0.36187 0.28275 0.91746
 H3269 H 0.44808 0.25041 0.90744
 H3270 H 0.45572 0.26152 0.87368
 H3271 H 0.43135 0.21056 0.89031
 H3272 H 0.43905 0.22200 0.85669
 C3273 C 1.12514 0.73806 1.09246
 C3274 C 1.11084 0.72271 1.10977
 C3275 C 1.08498 0.73045 1.11465
 C3276 C 1.07522 0.75400 1.10476
 C3277 C 1.09122 0.77102 1.09039
 C3278 C 1.11573 0.76158 1.08336
 C3279 C 1.14169 0.77423 1.08521
 C3280 C 1.15202 0.74855 1.09514
 H3281 H 1.07223 0.71862 1.12633
 H3282 H 1.05536 0.75902 1.10918
 H3283 H 1.14223 0.78993 1.09992
 H3284 H 1.14962 0.77954 1.06591
 H3285 H 1.15863 0.74932 1.11562
 H3286 H 1.16582 0.73924 1.08149
 C3287 C 1.09289 0.23776 0.62498
 C3288 C 1.11732 0.22833 0.61762
 C3289 C 1.13307 0.24517 0.60275
 C3290 C 1.12352 0.26910 0.59374
 C3291 C 1.09763 0.27672 0.59854
 C3292 C 1.08329 0.26105 0.61549
 C3293 C 1.05650 0.25052 0.61274
 C3294 C 1.06695 0.22503 0.62311
 H3295 H 1.15282 0.24010 0.59795
 H3296 H 1.13648 0.28125 0.58264
 H3297 H 1.05008 0.24945 0.59221
 H3298 H 1.04257 0.25997 0.62617
 H3299 H 1.06656 0.20910 0.60863
 H3300 H 1.05897 0.21992 0.64245
 C3301 C 0.59368 0.73965 0.62592
 C3302 C 0.60853 0.72328 0.61027
 C3303 C 0.61116 0.73009 0.58394
 C3304 C 0.60163 0.75403 0.57468
 C3305 C 0.58957 0.77187 0.59165
 C3306 C 0.58462 0.76327 0.61693
 C3307 C 0.58965 0.77626 0.64226
 C3308 C 0.59957 0.75034 0.65211
 H3309 H 0.62118 0.71733 0.57068
 H3310 H 0.60444 0.75873 0.55446
 H3311 H 0.57146 0.78255 0.65194
 H3312 H 0.60498 0.79135 0.64093
 H3313 H 0.58704 0.74175 0.66738
 H3314 H 0.62067 0.75033 0.65653
 C3315 C 0.59463 0.23930 1.12762
 C3316 C 0.61976 0.23078 1.12163
 C3317 C 0.63572 0.24825 1.10773
 C3318 C 0.62581 0.27184 1.09816
 C3319 C 0.59943 0.27848 1.10150
 C3320 C 0.58476 0.26228 1.11764
 C3321 C 0.55853 0.25086 1.11342
 C3322 C 0.56927 0.22571 1.12431
 H3323 H 0.65587 0.24391 1.10403
 H3324 H 0.63887 0.28447 1.08775
 H3325 H 0.55328 0.24964 1.09257
 H3326 H 0.54358 0.25979 1.12608
 H3327 H 0.57023 0.20983 1.10980
 H3328 H 0.56042 0.22027 1.14317
 C3329 C 1.25856 1.12798 0.90500
 C3330 C 1.27552 1.11253 0.89059
 C3331 C 1.26963 1.08590 0.88860
 C3332 C 1.24599 1.07608 0.89826
 C3333 C 1.22759 1.09272 0.90992
 C3334 C 1.23527 1.11838 0.91426
 C3335 C 1.22133 1.14313 0.90864
 C3336 C 1.24688 1.15364 0.89847
 H3337 H 1.28287 1.07280 0.87900
 H3338 H 1.24193 1.05566 0.89590
 H3339 H 1.21470 1.15298 0.92659
 H3340 H 1.20628 1.14092 0.89337
 H3341 H 1.25490 1.16950 0.91061
 H3342 H 1.24672 1.15756 0.87729
 C3343 C 1.26265 0.59082 0.37831
 C3344 C 1.26993 0.61664 0.38208
 C3345 C 1.25128 0.63351 0.39282
 C3346 C 1.22750 0.62388 0.40218
 C3347 C 1.22187 0.59710 0.40123
 C3348 C 1.23933 0.58132 0.38769
 C3349 C 1.25120 0.55603 0.39524
 C3350 C 1.27676 0.56646 0.38494
 H3351 H 1.25522 0.65401 0.39457
 H3352 H 1.21388 0.63739 0.41064
 H3353 H 1.24345 0.53967 0.38361
 H3354 H 1.25119 0.55288 0.41655
 H3355 H 1.28368 0.55609 0.36740
 H3356 H 1.29163 0.56937 0.40026
 C3357 C 0.75657 1.09809 0.37054
 C3358 C 0.77358 1.11211 0.38629
 C3359 C 0.76808 1.11291 0.41305
 C3360 C 0.74469 1.10263 0.42281
 C3361 C 0.72616 1.09149 0.40600
 C3362 C 0.73352 1.08817 0.38010
 C3363 C 0.71917 1.09455 0.35579
 C3364 C 0.74445 1.10543 0.34532
 H3365 H 0.78140 1.12211 0.42635
 H3366 H 0.74089 1.10415 0.44336
 H3367 H 0.70397 1.10953 0.35878
 H3368 H 0.71263 1.07689 0.34538
 H3369 H 0.74396 1.12675 0.34221
 H3370 H 0.75240 1.09401 0.32891
 C3371 C 0.75726 0.62805 0.90317
 C3372 C 0.77438 0.61269 0.88885
 C3373 C 0.76881 0.58595 0.88718
 C3374 C 0.74534 0.57592 0.89707
 C3375 C 0.72682 0.59243 0.90869
 C3376 C 0.73417 0.61824 0.91271
 C3377 C 0.71983 0.64270 0.90692
 C3378 C 0.74516 0.65347 0.89644
 H3379 H 0.78216 0.57289 0.87767
 H3380 H 0.74150 0.55543 0.89492
 H3381 H 0.71319 0.65265 0.92481
 H3382 H 0.70471 0.64011 0.89179
 H3383 H 0.75302 0.66959 0.90833
 H3384 H 0.74478 0.65714 0.87522
 C3385 C 1.25851 0.87176 1.09581
 C3386 C 1.27509 0.88695 1.11088
 C3387 C 1.26880 0.91341 1.11368
 C3388 C 1.24510 0.92324 1.10414
 C3389 C 1.22697 0.90673 1.09189
 C3390 C 1.23511 0.88133 1.08674
 C3391 C 1.22159 0.85617 1.09145
 C3392 C 1.24728 0.84571 1.10137
 H3393 H 1.28175 0.92632 1.12389
 H3394 H 1.24078 0.94353 1.10711
 H3395 H 1.21521 0.84683 1.07315
 H3396 H 1.20644 0.85761 1.10671
 H3397 H 1.25565 0.83043 1.08874
 H3398 H 1.24709 0.84104 1.12240
 C3399 C 1.26180 0.40640 0.62249
 C3400 C 1.27018 0.38120 0.61723
 C3401 C 1.25259 0.36445 0.60474
 C3402 C 1.22859 0.37379 0.59552
 C3403 C 1.22178 0.40022 0.59820
 C3404 C 1.23839 0.41567 0.61311
 C3405 C 1.24954 0.44177 0.60748
 C3406 C 1.27519 0.43157 0.61780
 H3407 H 1.25749 0.34430 0.60173
 H3408 H 1.21574 0.36032 0.58593
 H3409 H 1.24094 0.45712 0.61988
 H3410 H 1.24995 0.44626 0.58641
 H3411 H 1.28127 0.44101 0.63616
 H3412 H 1.29054 0.43015 0.60275
 C3413 C 0.75870 0.87354 0.59596
 C3414 C 0.77567 0.88916 0.61016
 C3415 C 0.76966 0.91578 0.61196
 C3416 C 0.74590 0.92543 0.60233
 C3417 C 0.72752 0.90861 0.59091
 C3418 C 0.73532 0.88296 0.58672
 C3419 C 0.72153 0.85822 0.59259
 C3420 C 0.74718 0.84789 0.60274
 H3421 H 0.78286 0.92900 0.62143
 H3422 H 0.74172 0.94584 0.60458
 H3423 H 0.71488 0.84820 0.57475
 H3424 H 0.70654 0.86048 0.60790
 H3425 H 0.75522 0.83195 0.59070
 H3426 H 0.74712 0.84413 0.62395
 C3427 C 0.76132 0.37467 1.09205
 C3428 C 0.77797 0.39009 1.10681
 C3429 C 0.77130 0.41645 1.10976
 C3430 C 0.74721 0.42589 1.10076
 C3431 C 0.72911 0.40909 1.08889
 C3432 C 0.73758 0.38386 1.08347
 C3433 C 0.72456 0.35847 1.08835
 C3434 C 0.75060 0.34842 1.09775
 H3435 H 0.78420 0.42955 1.11981
 H3436 H 0.74255 0.44607 1.10393
 H3437 H 0.71799 0.34908 1.07014
 H3438 H 0.70969 0.35962 1.10390
 H3439 H 0.75895 0.33329 1.08491
 H3440 H 0.75088 0.34369 1.11877
 C3441 C 0.74478 1.13008 1.09978
 C3442 C 0.72769 1.11481 1.11423
 C3443 C 0.73285 1.08796 1.11552
 C3444 C 0.75599 1.07767 1.10519
 C3445 C 0.77459 1.09401 1.09347
 C3446 C 0.76758 1.12000 1.08980
 C3447 C 0.78236 1.14416 1.09560
 C3448 C 0.75735 1.15521 1.10656
 H3449 H 0.71943 1.07498 1.12504
 H3450 H 0.75953 1.05709 1.10705
 H3451 H 0.78889 1.15421 1.07771
 H3452 H 0.79767 1.14113 1.11048
 H3453 H 0.74954 1.17159 1.09494
 H3454 H 0.75810 1.15861 1.12781
 C3455 C 0.73708 0.59213 0.62299
 C3456 C 0.72890 0.61740 0.61761
 C3457 C 0.74678 0.63411 0.60546
 C3458 C 0.77083 0.62466 0.59657
 C3459 C 0.77741 0.59816 0.59925
 C3460 C 0.76057 0.58275 0.61395
 C3461 C 0.74939 0.55671 0.60818
 C3462 C 0.72364 0.56702 0.61813
 H3463 H 0.74204 0.65431 0.60240
 H3464 H 0.78389 0.63808 0.58716
 H3465 H 0.75775 0.54131 0.62073
 H3466 H 0.74926 0.55226 0.58712
 H3467 H 0.71725 0.55757 0.63640
 H3468 H 0.70851 0.56854 0.60286
 C3469 C 0.24241 1.12842 0.59642
 C3470 C 0.22566 1.11306 0.61114
 C3471 C 0.23166 1.08647 0.61340
 C3472 C 0.25527 1.07663 0.60371
 C3473 C 0.27354 1.09322 0.59180
 C3474 C 0.26571 1.11882 0.58716
 C3475 C 0.27952 1.14369 0.59241
 C3476 C 0.25394 1.15420 0.60255
 H3477 H 0.21853 1.07342 0.62322
 H3478 H 0.25940 1.05623 0.60627
 H3479 H 0.28602 1.15339 0.57431
 H3480 H 0.29464 1.14170 0.60764
 H3481 H 0.24576 1.16989 0.59025
 H3482 H 0.25417 1.15834 0.62368
 C3483 C 0.24170 0.62842 1.09681
 C3484 C 0.22523 0.61358 1.11235
 C3485 C 0.23119 0.58706 1.11533
 C3486 C 0.25453 0.57681 1.10543
 C3487 C 0.27262 0.59296 1.09263
 C3488 C 0.26478 0.61845 1.08739
 C3489 C 0.27874 0.64344 1.09163
 C3490 C 0.25339 0.65433 1.10192
 H3491 H 0.21821 0.57439 1.12585
 H3492 H 0.25860 0.55648 1.10850
 H3493 H 0.28492 0.65258 1.07313
 H3494 H 0.29414 0.64187 1.10662
 H3495 H 0.24500 0.66965 1.08929
 H3496 H 0.25404 0.65913 1.12290
 C3497 C 0.73814 0.90912 0.87720
 C3498 C 0.73095 0.88327 0.88108
 C3499 C 0.74960 0.86654 0.89209
 C3500 C 0.77328 0.87634 0.90152
 C3501 C 0.77879 0.90315 0.90037
 C3502 C 0.76135 0.91877 0.88663
 C3503 C 0.74934 0.94404 0.89394
 C3504 C 0.72388 0.93344 0.88360
 H3505 H 0.74574 0.84603 0.89398
 H3506 H 0.78691 0.86296 0.91021
 H3507 H 0.75707 0.96038 0.88223
 H3508 H 0.74924 0.94729 0.91522
 H3509 H 0.71699 0.94372 0.86596
 H3510 H 0.70896 0.93053 0.89887
 C3511 C 0.73919 0.40738 0.37600
 C3512 C 0.73137 0.38198 0.38116
 C3513 C 0.74922 0.36553 0.39373
 C3514 C 0.77286 0.37536 0.40324
 C3515 C 0.77899 0.40198 0.40080
 C3516 C 0.76224 0.41713 0.38569
 C3517 C 0.75041 0.44295 0.39120
 C3518 C 0.72515 0.43223 0.38054
 H3519 H 0.74471 0.34528 0.39670
 H3520 H 0.78592 0.36213 0.41296
 H3521 H 0.75880 0.45854 0.37892
 H3522 H 0.74962 0.44735 0.41227
 H3523 H 0.71908 0.44161 0.36211
 H3524 H 0.70964 0.43041 0.39538
 C3525 C 0.24181 0.87397 0.40496
 C3526 C 0.22514 0.88922 0.38999
 C3527 C 0.23132 0.91572 0.38729
 C3528 C 0.25496 0.92556 0.39688
 C3529 C 0.27313 0.90904 0.40912
 C3530 C 0.26515 0.88355 0.41410
 C3531 C 0.27883 0.85851 0.40921
 C3532 C 0.25320 0.84803 0.39921
 H3533 H 0.21826 0.92869 0.37722
 H3534 H 0.25918 0.94589 0.39403
 H3535 H 0.28527 0.84902 0.42745
 H3536 H 0.29396 0.86018 0.39396
 H3537 H 0.24493 0.83258 0.41174
 H3538 H 0.25342 0.84357 0.37815
 C3539 C 0.24048 0.40582 0.87406
 C3540 C 0.23305 0.38014 0.87834
 C3541 C 0.25107 0.36365 0.89066
 C3542 C 0.27437 0.37363 0.90085
 C3543 C 0.28002 0.40040 0.89926
 C3544 C 0.26323 0.41568 0.88432
 C3545 C 0.25093 0.44115 0.89039
 C3546 C 0.22598 0.43032 0.87911
 H3547 H 0.24693 0.34324 0.89301
 H3548 H 0.28753 0.36042 0.91045
 H3549 H 0.25924 0.45719 0.87864
 H3550 H 0.24981 0.44495 0.91155
 H3551 H 0.21999 0.44013 0.86089
 H3552 H 0.21032 0.42784 0.89371
   
