data_POSCAR
  _audit_creation_date              2014-09-24
  _audit_creation_method            'ToBaCCo'
  _symmetry_space_group_name_H-M    'P1'
  _symmetry_Int_Tables_number       1
  _symmetry_cell_setting            triclinic
  loop_
  _symmetry_equiv_pos_as_xyz
 x,y,z
_cell_length_a 48.2812
_cell_length_b 49.1806
_cell_length_c 48.6715
_cell_angle_alpha 89.773200
_cell_angle_beta 89.908500
_cell_angle_gamma 89.792600
loop_
  _atom_site_label
  _atom_site_type_symbol
  _atom_site_fract_x
  _atom_site_fract_y
  _atom_site_fract_z
C1 C 0.23457 0.93649 0.01753
 C2 C 0.24013 0.92421 -0.00771
 C3 C 0.24669 0.93940 -0.03137
 C4 C 0.24935 0.96811 -0.02903
 C5 C 0.24316 0.98094 -0.00366
 C6 C 0.23508 0.96512 0.01946
 C7 C 0.22749 0.97836 0.04385
 C8 C 0.23018 1.00631 0.04638
 C9 C 0.24055 1.02210 0.02460
 C10 C 0.24587 1.00961 -0.00108
 C11 C 0.26022 0.98410 -0.05054
 C12 C 0.26258 1.01215 -0.04812
 C13 C 0.25458 1.02558 -0.02393
 C14 C 0.25743 1.05423 -0.02107
 C15 C 0.25384 1.06560 0.00512
 C16 C 0.24557 1.05013 0.02778
 H17 H 0.21944 0.96723 0.06132
 H18 H 0.22406 1.01538 0.06567
 H19 H 0.26802 0.97505 -0.06922
 H20 H 0.27187 1.02305 -0.06511
 H21 H 0.23841 0.90227 -0.00895
 H22 H 0.25644 1.08730 0.00792
 C23 C 0.75482 0.44526 0.47146
 C24 C 0.75007 0.42945 0.49495
 C25 C 0.75349 0.43989 0.52143
 C26 C 0.76160 0.46731 0.52479
 C27 C 0.76550 0.48399 0.50127
 C28 C 0.76272 0.47282 0.47451
 C29 C 0.76907 0.48920 0.45166
 C30 C 0.77632 0.51634 0.45485
 C31 C 0.77754 0.52826 0.48102
 C32 C 0.77303 0.51172 0.50453
 C33 C 0.76706 0.47819 0.55092
 C34 C 0.77431 0.50532 0.55410
 C35 C 0.77663 0.52268 0.53128
 C36 C 0.78350 0.55047 0.53433
 C37 C 0.78680 0.56663 0.51087
 C38 C 0.78411 0.55606 0.48441
 H39 H 0.76889 0.48118 0.43102
 H40 H 0.78137 0.52774 0.43648
 H41 H 0.76621 0.46582 0.56930
 H42 H 0.77848 0.51240 0.57469
 H43 H 0.74375 0.40844 0.49259
 H44 H 0.79127 0.58810 0.51328
 C45 C 0.74141 1.02097 1.06113
 C46 C 0.74868 0.99671 1.07472
 C47 C 0.75364 0.97233 1.06090
 C48 C 0.75126 0.97178 1.03195
 C49 C 0.74599 0.99630 1.01727
 C50 C 0.74104 1.02104 1.03177
 C51 C 0.73346 1.04419 1.01641
 C52 C 0.73371 1.04393 0.98779
 C53 C 0.74042 1.02023 0.97301
 C54 C 0.74431 0.99574 0.98798
 C55 C 0.75298 0.94721 1.01736
 C56 C 0.75042 0.94664 0.98897
 C57 C 0.74570 0.97057 0.97384
 C58 C 0.74208 0.96986 0.94496
 C59 C 0.74057 0.99443 0.93033
 C60 C 0.74095 1.01990 0.94368
 H61 H 0.72670 1.06273 1.02615
 H62 H 0.72731 1.06234 0.97731
 H63 H 0.75557 0.92791 1.02772
 H64 H 0.75239 0.92711 0.97900
 H65 H 0.75089 0.99684 1.09691
 H66 H 0.74000 0.99344 0.90811
 C67 C 0.26098 0.51865 0.55746
 C68 C 0.25850 0.49357 0.57090
 C69 C 0.25665 0.46912 0.55630
 C70 C 0.25787 0.46987 0.52714
 C71 C 0.25922 0.49530 0.51324
 C72 C 0.26056 0.51975 0.52844
 C73 C 0.26068 0.54473 0.51426
 C74 C 0.26056 0.54568 0.48571
 C75 C 0.26042 0.52171 0.47010
 C76 C 0.25909 0.49631 0.48402
 C77 C 0.25831 0.44592 0.51147
 C78 C 0.25767 0.44692 0.48293
 C79 C 0.25727 0.47192 0.46882
 C80 C 0.25553 0.47308 0.43985
 C81 C 0.25789 0.49814 0.42631
 C82 C 0.26080 0.52246 0.44095
 H83 H 0.26044 0.56390 0.52507
 H84 H 0.26009 0.56552 0.47608
 H85 H 0.25934 0.42607 0.52103
 H86 H 0.25782 0.42780 0.47200
 H87 H 0.25785 0.49315 0.59317
 H88 H 0.25726 0.49872 0.40404
 C89 C 0.92508 0.27004 -0.04291
 C90 C 0.90878 0.27012 -0.01902
 C91 C 0.92020 0.27058 0.00721
 C92 C 0.94928 0.27073 0.01022
 C93 C 0.96657 0.26987 -0.01344
 C94 C 0.95450 0.26976 -0.04018
 C95 C 0.97211 0.27213 -0.06307
 C96 C 1.00075 0.27404 -0.05998
 C97 C 1.01332 0.27294 -0.03387
 C98 C 0.99596 0.27095 -0.01029
 C99 C 0.96143 0.27354 0.03620
 C100 C 0.98990 0.27404 0.03928
 C101 C 1.00772 0.27175 0.01655
 C102 C 1.03689 0.27315 0.01990
 C103 C 1.05332 0.27653 -0.00361
 C104 C 1.04240 0.27647 -0.03034
 H105 H 0.96389 0.27383 -0.08365
 H106 H 1.01276 0.27740 -0.07841
 H107 H 0.94911 0.27629 0.05454
 H108 H 0.99768 0.27761 0.05976
 H109 H 0.88637 0.26953 -0.02079
 H110 H 1.07566 0.27716 -0.00127
 C111 C 0.43344 0.76133 0.48041
 C112 C 0.41870 0.75899 0.50503
 C113 C 0.43193 0.75870 0.53053
 C114 C 0.46120 0.76012 0.53159
 C115 C 0.47661 0.76236 0.50676
 C116 C 0.46269 0.76277 0.48106
 C117 C 0.47832 0.76530 0.45684
 C118 C 0.50703 0.76716 0.45769
 C119 C 0.52127 0.76780 0.48285
 C120 C 0.50593 0.76514 0.50766
 C121 C 0.47543 0.76005 0.55672
 C122 C 0.50416 0.76199 0.55755
 C123 C 0.51980 0.76521 0.53335
 C124 C 0.54899 0.76810 0.53408
 C125 C 0.56376 0.77058 0.50942
 C126 C 0.55045 0.77065 0.48390
 H127 H 0.46860 0.76589 0.43686
 H128 H 0.51785 0.76815 0.43827
 H129 H 0.46455 0.75848 0.57609
 H130 H 0.51389 0.76098 0.57751
 H131 H 0.39624 0.75821 0.50435
 H132 H 0.58607 0.77300 0.51013
 C133 C -0.02809 0.79029 0.05926
 C134 C -0.00218 0.78526 0.07141
 C135 C 0.02243 0.78602 0.05606
 C136 C 0.02130 0.79180 0.02755
 C137 C -0.00471 0.79443 0.01441
 C138 C -0.02946 0.79365 0.03024
 C139 C -0.05499 0.79406 0.01639
 C140 C -0.05630 0.79667 -0.01191
 C141 C -0.03211 0.79856 -0.02793
 C142 C -0.00598 0.79704 -0.01475
 C143 C 0.04548 0.79542 0.01187
 C144 C 0.04424 0.79870 -0.01653
 C145 C 0.01885 0.79745 -0.03062
 C146 C 0.01735 0.79802 -0.05993
 C147 C -0.00899 0.79922 -0.07227
 C148 C -0.03345 0.79995 -0.05690
 H149 H -0.07442 0.79129 0.02708
 H150 H -0.07666 0.79634 -0.02110
 H151 H 0.06569 0.79596 0.02143
 H152 H 0.06353 0.80230 -0.02720
 H153 H -0.00096 0.78153 0.09336
 H154 H -0.01075 0.79855 -0.09449
 C155 C 0.51199 0.29475 0.43374
 C156 C 0.48615 0.29265 0.42089
 C157 C 0.46175 0.28916 0.43593
 C158 C 0.46308 0.28713 0.46488
 C159 C 0.48897 0.28979 0.47840
 C160 C 0.51353 0.29376 0.46284
 C161 C 0.53875 0.29718 0.47683
 C162 C 0.54002 0.29569 0.50544
 C163 C 0.51611 0.29090 0.52123
 C164 C 0.49025 0.28848 0.50758
 C165 C 0.43928 0.28181 0.48059
 C166 C 0.44050 0.28069 0.50906
 C167 C 0.46558 0.28484 0.52302
 C168 C 0.46667 0.28485 0.55205
 C169 C 0.49234 0.28645 0.56516
 C170 C 0.51710 0.28912 0.55033
 H171 H 0.55775 0.30136 0.46583
 H172 H 0.55994 0.29876 0.51506
 H173 H 0.41941 0.27822 0.47106
 H174 H 0.42152 0.27620 0.51997
 H175 H 0.48499 0.29359 0.39864
 H176 H 0.49302 0.28572 0.58743
 C177 C 1.06328 0.02973 0.23159
 C178 C 1.07718 0.00504 0.23651
 C179 C 1.06278 -0.01909 0.24251
 C180 C 1.03367 -0.01754 0.24657
 C181 C 1.01914 0.00665 0.23983
 C182 C 1.03391 0.03032 0.23207
 C183 C 1.01886 0.05383 0.22489
 C184 C 0.99006 0.05427 0.22592
 C185 C 0.97495 0.03093 0.23317
 C186 C 0.98970 0.00708 0.24094
 C187 C 1.01891 -0.03906 0.25881
 C188 C 0.99026 -0.03839 0.26075
 C189 C 0.97514 -0.01615 0.25055
 C190 C 0.94589 -0.01601 0.25076
 C191 C 0.93173 0.00708 0.24166
 C192 C 0.94558 0.03078 0.23360
 H193 H 1.02909 0.07218 0.21811
 H194 H 0.97994 0.07329 0.22108
 H195 H 1.02945 -0.05655 0.26745
 H196 H 0.98020 -0.05553 0.27044
 H197 H 1.09949 0.00451 0.23412
 H198 H 0.90925 0.00678 0.24142
 C199 C 0.45113 0.46036 0.74556
 C200 C 0.43781 0.48546 0.74818
 C201 C 0.45251 0.50993 0.74815
 C202 C 0.48170 0.50917 0.74488
 C203 C 0.49572 0.48375 0.74469
 C204 C 0.48036 0.45920 0.74499
 C205 C 0.49459 0.43429 0.74376
 C206 C 0.52337 0.43342 0.74364
 C207 C 0.53909 0.45745 0.74403
 C208 C 0.52514 0.48287 0.74343
 C209 C 0.49711 0.53296 0.74055
 C210 C 0.52580 0.53203 0.73813
 C211 C 0.54043 0.50736 0.74086
 C212 C 0.56981 0.50629 0.73989
 C213 C 0.58323 0.48097 0.74176
 C214 C 0.56839 0.45667 0.74402
 H215 H 0.48366 0.41516 0.74305
 H216 H 0.53314 0.41362 0.74264
 H217 H 0.48707 0.55253 0.73818
 H218 H 0.53622 0.55097 0.73386
 H219 H 0.41543 0.48580 0.75014
 H220 H 0.60569 0.48017 0.74164
 C221 C 0.98486 1.04344 0.75894
 C222 C 1.01105 1.05552 0.75763
 C223 C 1.03596 1.04080 0.76000
 C224 C 1.03427 1.01215 0.76396
 C225 C 1.00815 0.99899 0.76241
 C226 C 0.98330 1.01464 0.76054
 C227 C 0.95781 1.00106 0.76294
 C228 C 0.95647 0.97295 0.76302
 C229 C 0.98064 0.95710 0.76278
 C230 C 1.00670 0.97011 0.76452
 C231 C 1.05735 0.99659 0.77222
 C232 C 1.05569 0.96851 0.77536
 C233 C 1.03102 0.95446 0.76979
 C234 C 1.02901 0.92558 0.77210
 C235 C 1.00314 0.91336 0.76761
 C236 C 0.97919 0.92851 0.76272
 H237 H 0.93842 1.01171 0.76538
 H238 H 0.93619 0.96378 0.76452
 H239 H 1.07674 1.00609 0.77761
 H240 H 1.07392 0.95821 0.78297
 H241 H 1.01176 1.07709 0.75303
 H242 H 1.00163 0.89135 0.76721
 C243 C 0.52277 0.44872 0.26368
 C244 C 0.49695 0.43685 0.25880
 C245 C 0.47293 0.45249 0.25553
 C246 C 0.47468 0.48110 0.25763
 C247 C 0.50099 0.49363 0.25985
 C248 C 0.52517 0.47744 0.26320
 C249 C 0.55073 0.49049 0.26692
 C250 C 0.55287 0.51866 0.26504
 C251 C 0.52937 0.53501 0.26041
 C252 C 0.50299 0.52245 0.25939
 C253 C 0.45080 0.49743 0.25869
 C254 C 0.45271 0.52557 0.25974
 C255 C 0.47856 0.53861 0.25870
 C256 C 0.48076 0.56732 0.25820
 C257 C 0.50702 0.57926 0.25709
 C258 C 0.53135 0.56365 0.25797
 H259 H 0.56945 0.47918 0.27126
 H260 H 0.57311 0.52752 0.26800
 H261 H 0.43033 0.48860 0.25946
 H262 H 0.43353 0.53680 0.26136
 H263 H 0.49562 0.41488 0.25747
 H264 H 0.50850 0.60122 0.25566
 O265 O 0.23278 0.19280 0.19357
 O266 O 0.26344 0.17922 0.22866
 O267 O 0.16778 0.23385 0.23688
 O268 O 0.16336 0.27014 0.26429
 O269 O 0.20640 0.27317 0.16459
 O270 O 0.24964 0.29347 0.15595
 O271 O 0.25319 0.29393 0.30723
 O272 O 0.21596 0.26415 0.31392
 O273 O 0.31602 0.24659 0.26958
 O274 O 0.31970 0.21941 0.22842
 O275 O 0.29339 0.32403 0.23778
 O276 O 0.25448 0.33950 0.20687
 O277 O 0.25936 0.32702 0.27488
 O278 O 0.22668 0.34283 0.23820
 O279 O 0.32073 0.28630 0.23930
 O280 O 0.32198 0.25042 0.20038
 O281 O 0.28510 0.25527 0.30380
 O282 O 0.24398 0.22391 0.30882
 O283 O 0.23584 0.22712 0.16207
 O284 O 0.27389 0.25854 0.15483
 O285 O 0.17293 0.27361 0.19761
 O286 O 0.17248 0.30405 0.23837
 O287 O 0.19605 0.19709 0.23172
 O288 O 0.23302 0.18481 0.26451
 Zr289 Zr 0.23615 0.21295 0.23146
 O290 O 0.26598 0.23063 0.25716
 Zr291 Zr 0.19520 0.26737 0.23459
 O292 O 0.22337 0.28737 0.26076
 Zr293 Zr 0.24284 0.26238 0.18527
 O294 O 0.27292 0.28245 0.20888
 Zr295 Zr 0.24670 0.25889 0.28332
 O296 O 0.21606 0.23889 0.25968
 Zr297 Zr 0.29357 0.25367 0.23343
 O298 O 0.26578 0.23325 0.20734
 Zr299 Zr 0.25288 0.30824 0.23687
 O300 O 0.22291 0.29078 0.21077
 O301 O 0.21372 0.24045 0.20757
 O302 O 0.27536 0.28084 0.26058
 C303 C 0.23269 0.20200 0.16879
 C304 C 0.17212 0.20806 0.23477
 C305 C 0.18128 0.27637 0.17262
 C306 C 0.25888 0.31841 0.29980
 C307 C 0.30961 0.24977 0.29496
 C308 C 0.31693 0.31209 0.24056
 H309 H 0.27554 0.21617 0.26775
 H310 H 0.28581 0.29251 0.19680
 H311 H 0.19969 0.23170 0.19577
 H312 H 0.21323 0.29968 0.27327
 H313 H 0.20116 0.25087 0.30987
 H314 H 0.17236 0.27493 0.28183
 H315 H 0.32481 0.26877 0.19251
 H316 H 0.28605 0.24334 0.16068
 H317 H 0.24985 0.22923 0.32755
 H318 H 0.22493 0.16765 0.25755
 H319 H 0.27019 0.33555 0.19442
 H320 H 0.24154 0.31026 0.16376
 H321 H 0.27810 0.18417 0.21533
 H322 H 0.31290 0.20504 0.24098
 H323 H 0.17988 0.31673 0.22434
 H324 H 0.21411 0.34075 0.25414
 O325 O 0.76492 0.83098 0.23840
 O326 O 0.74262 0.83857 0.27860
 O327 O 0.83706 0.78373 0.26339
 O328 O 0.84293 0.74575 0.28969
 O329 O 0.79352 0.76015 0.19340
 O330 O 0.75037 0.73614 0.18624
 O331 O 0.76157 0.71187 0.33439
 O332 O 0.79734 0.74182 0.34237
 O333 O 0.69264 0.76135 0.31229
 O334 O 0.68608 0.79786 0.27677
 O335 O 0.71175 0.69293 0.26503
 O336 O 0.74689 0.68278 0.22954
 O337 O 0.75028 0.68419 0.29867
 O338 O 0.77845 0.67545 0.25587
 O339 O 0.68453 0.72970 0.27376
 O340 O 0.67925 0.77223 0.24520
 O341 O 0.72771 0.74867 0.34076
 O342 O 0.76766 0.78065 0.34690
 O343 O 0.75898 0.80281 0.20173
 O344 O 0.72438 0.77004 0.19174
 O345 O 0.82775 0.74894 0.22352
 O346 O 0.83327 0.71485 0.25853
 O347 O 0.80901 0.82035 0.27042
 O348 O 0.77518 0.82599 0.30927
 Zr349 Zr 0.76864 0.80444 0.27213
 O350 O 0.74135 0.78223 0.29734
 Zr351 Zr 0.80933 0.75080 0.26229
 O352 O 0.78398 0.72621 0.28716
 Zr353 Zr 0.75787 0.76336 0.21887
 O354 O 0.72995 0.73934 0.24198
 Zr355 Zr 0.76342 0.75043 0.31618
 O356 O 0.79152 0.77462 0.29348
 Zr357 Zr 0.71156 0.76293 0.27312
 O358 O 0.73693 0.78758 0.24800
 Zr359 Zr 0.75213 0.70915 0.26339
 O360 O 0.77964 0.73121 0.23769
 O361 O 0.78851 0.78187 0.24179
 O362 O 0.73233 0.73181 0.29353
 C363 C 0.76068 0.82649 0.21274
 C364 C 0.83292 0.80935 0.26678
 C365 C 0.81868 0.75339 0.19919
 C366 C 0.75521 0.68867 0.32422
 C367 C 0.70214 0.75402 0.33587
 C368 C 0.68825 0.70409 0.27044
 H369 H 0.73279 0.79434 0.31116
 H370 H 0.71593 0.73137 0.22967
 H371 H 0.80057 0.79310 0.22987
 H372 H 0.79550 0.71216 0.29622
 H373 H 0.81127 0.75620 0.33901
 H374 H 0.83621 0.73468 0.30532
 H375 H 0.67828 0.75738 0.23159
 H376 H 0.71100 0.78168 0.20173
 H377 H 0.76405 0.77197 0.36498
 H378 H 0.78428 0.84356 0.30499
 H379 H 0.73239 0.69070 0.21758
 H380 H 0.76165 0.71970 0.19002
 H381 H 0.72458 0.83420 0.27012
 H382 H 0.69164 0.80762 0.29361
 H383 H 0.82368 0.70318 0.24505
 H384 H 0.79208 0.67441 0.27100
 O385 O 0.73958 0.15178 0.76138
 O386 O 0.71116 0.14698 0.72478
 O387 O 0.81770 0.17506 0.72566
 O388 O 0.83334 0.20767 0.69758
 O389 O 0.78791 0.22042 0.79508
 O390 O 0.75209 0.25136 0.80260
 O391 O 0.75896 0.25494 0.65002
 O392 O 0.78434 0.21634 0.64474
 O393 O 0.68213 0.23360 0.68314
 O394 O 0.66771 0.20277 0.72162
 O395 O 0.72342 0.29560 0.71680
 O396 O 0.76149 0.30093 0.74930
 O397 O 0.76111 0.28869 0.68189
 O398 O 0.79317 0.29369 0.72316
 O399 O 0.68567 0.26837 0.72075
 O400 O 0.67168 0.23044 0.75180
 O401 O 0.71546 0.22673 0.65078
 O402 O 0.74611 0.18573 0.64833
 O403 O 0.74435 0.18405 0.79452
 O404 O 0.71788 0.22621 0.80043
 O405 O 0.82168 0.21346 0.76322
 O406 O 0.83268 0.24299 0.72355
 O407 O 0.78094 0.14624 0.72544
 O408 O 0.74288 0.14615 0.69039
 Zr409 Zr 0.74622 0.17270 0.72451
 O410 O 0.72365 0.19878 0.69828
 Zr411 Zr 0.80041 0.21401 0.72553
 O412 O 0.78091 0.24091 0.69802
 Zr413 Zr 0.75079 0.22081 0.77224
 O414 O 0.72963 0.24940 0.74734
 Zr415 Zr 0.75188 0.22021 0.67379
 O416 O 0.77454 0.19249 0.69844
 Zr417 Zr 0.70261 0.22874 0.72099
 O418 O 0.72203 0.20030 0.74753
 Zr419 Zr 0.75739 0.26908 0.72047
 O420 O 0.77902 0.24355 0.74841
 O421 O 0.77374 0.19222 0.75077
 O422 O 0.72932 0.24972 0.69495
 C423 C 0.73938 0.15952 0.78655
 C424 C 0.80709 0.15119 0.72582
 C425 C 0.81342 0.21747 0.78795
 C426 C 0.76172 0.27991 0.65700
 C427 C 0.69042 0.23199 0.65809
 C428 C 0.69719 0.29170 0.71780
 H429 H 0.71085 0.18807 0.68679
 H430 H 0.71965 0.26247 0.75916
 H431 H 0.78363 0.17962 0.76331
 H432 H 0.79517 0.24977 0.68651
 H433 H 0.79477 0.19966 0.64973
 H434 H 0.82723 0.21505 0.67966
 H435 H 0.67707 0.24468 0.76504
 H436 H 0.70273 0.21411 0.79441
 H437 H 0.74328 0.19225 0.62923
 H438 H 0.74682 0.12728 0.69660
 H439 H 0.74647 0.29896 0.76299
 H440 H 0.76335 0.26628 0.79475
 H441 H 0.69573 0.15778 0.73257
 H442 H 0.66916 0.19031 0.70578
 H443 H 0.82897 0.25654 0.73810
 H444 H 0.80516 0.28944 0.70723
 O445 O 0.26315 0.79690 0.80398
 O446 O 0.29505 0.79899 0.76794
 O447 O 0.18622 0.77902 0.76729
 O448 O 0.16954 0.74327 0.73683
 O449 O 0.21300 0.73288 0.83693
 O450 O 0.24487 0.69611 0.84275
 O451 O 0.24400 0.69395 0.69205
 O452 O 0.21754 0.73152 0.68542
 O453 O 0.31894 0.71521 0.72480
 O454 O 0.33414 0.74229 0.76428
 O455 O 0.27314 0.65285 0.75708
 O456 O 0.23466 0.65071 0.79270
 O457 O 0.23353 0.66202 0.72445
 O458 O 0.20450 0.65693 0.76472
 O459 O 0.31225 0.67821 0.76023
 O460 O 0.32817 0.71389 0.79356
 O461 O 0.28602 0.72468 0.69272
 O462 O 0.25341 0.76468 0.69031
 O463 O 0.25990 0.76283 0.83576
 O464 O 0.28091 0.71911 0.84263
 O465 O 0.17993 0.74151 0.80478
 O466 O 0.16545 0.71352 0.76654
 O467 O 0.22500 0.80510 0.76575
 O468 O 0.26388 0.80378 0.73306
 Zr469 Zr 0.25772 0.77653 0.76646
 O470 O 0.27844 0.74953 0.73991
 Zr471 Zr 0.20082 0.73876 0.76692
 O472 O 0.21888 0.71068 0.73981
 Zr473 Zr 0.24955 0.72771 0.81358
 O474 O 0.26967 0.69866 0.78876
 Zr475 Zr 0.24920 0.72954 0.71540
 O476 O 0.22836 0.75872 0.74001
 Zr477 Zr 0.29778 0.71843 0.76253
 O478 O 0.27981 0.74715 0.78943
 Zr479 Zr 0.24063 0.68102 0.76225
 O480 O 0.21986 0.70745 0.78969
 O481 O 0.22885 0.75824 0.79223
 O482 O 0.27004 0.69892 0.73666
 C483 C 0.26412 0.78773 0.82877
 C484 C 0.19858 0.80207 0.76620
 C485 C 0.18795 0.73844 0.82978
 C486 C 0.23692 0.66982 0.69949
 C487 C 0.31100 0.71907 0.69991
 C488 C 0.29960 0.65554 0.75708
 H489 H 0.29171 0.75998 0.72858
 H490 H 0.27895 0.68492 0.80044
 H491 H 0.21984 0.77158 0.80455
 H492 H 0.20414 0.70277 0.72826
 H493 H 0.20545 0.74695 0.69056
 H494 H 0.17572 0.75766 0.72398
 H495 H 0.32286 0.69826 0.80526
 H496 H 0.29786 0.72830 0.83597
 H497 H 0.25732 0.75865 0.67127
 H498 H 0.26231 0.82272 0.73986
 H499 H 0.25203 0.64882 0.80329
 H500 H 0.23068 0.68371 0.83528
 H501 H 0.30814 0.78848 0.77951
 H502 H 0.33221 0.75715 0.75066
 H503 H 0.16885 0.69882 0.78009
 H504 H 0.19043 0.66543 0.75265
 O505 O 0.26354 0.32062 0.72779
 O506 O 0.23078 0.32834 0.76226
 O507 O 0.32614 0.27215 0.76663
 O508 O 0.32913 0.23253 0.78859
 O509 O 0.29330 0.24988 0.68760
 O510 O 0.25238 0.22652 0.67366
 O511 O 0.23957 0.20292 0.82300
 O512 O 0.27351 0.23211 0.83632
 O513 O 0.17555 0.25119 0.78863
 O514 O 0.17474 0.28794 0.75367
 O515 O 0.20184 0.18297 0.74826
 O516 O 0.23900 0.17099 0.71878
 O517 O 0.23666 0.17423 0.78647
 O518 O 0.27056 0.16682 0.74628
 O519 O 0.17393 0.22020 0.74931
 O520 O 0.17412 0.26305 0.72046
 O521 O 0.20543 0.24239 0.82373
 O522 O 0.24567 0.27227 0.83493
 O523 O 0.25916 0.29284 0.69065
 O524 O 0.22502 0.25969 0.67611
 O525 O 0.32302 0.23923 0.72230
 O526 O 0.32142 0.20305 0.75812
 O527 O 0.29820 0.30957 0.76637
 O528 O 0.25859 0.31677 0.79858
 Zr529 Zr 0.25787 0.29439 0.76141
 O530 O 0.22650 0.27276 0.78201
 Zr531 Zr 0.29878 0.24001 0.75823
 O532 O 0.26961 0.21644 0.77964
 Zr533 Zr 0.25461 0.25327 0.70746
 O534 O 0.22375 0.22912 0.72618
 Zr535 Zr 0.24475 0.24121 0.80477
 O536 O 0.27661 0.26440 0.78625
 Zr537 Zr 0.20086 0.25326 0.75353
 O538 O 0.22991 0.27799 0.73274
 Zr539 Zr 0.24199 0.19916 0.75137
 O540 O 0.27294 0.22082 0.72941
 O541 O 0.28186 0.27120 0.73477
 O542 O 0.21764 0.22234 0.77769
 C543 C 0.26285 0.31631 0.70176
 C544 C 0.32196 0.29789 0.76824
 C545 C 0.31745 0.24368 0.69688
 C546 C 0.23701 0.17915 0.81243
 C547 C 0.18103 0.24648 0.81400
 C548 C 0.17788 0.19439 0.74860
 H549 H 0.21596 0.28519 0.79409
 H550 H 0.21182 0.22095 0.71197
 H551 H 0.29616 0.28213 0.72526
 H552 H 0.27964 0.20256 0.79055
 H553 H 0.28856 0.24565 0.83475
 H554 H 0.31914 0.22642 0.80522
 H555 H 0.17512 0.24808 0.70697
 H556 H 0.21192 0.27357 0.68308
 H557 H 0.23886 0.26445 0.85249
 H558 H 0.26755 0.33457 0.79501
 H559 H 0.23163 0.18093 0.70267
 H560 H 0.26228 0.20971 0.67922
 H561 H 0.21577 0.32454 0.74900
 H562 H 0.17912 0.29867 0.77024
 H563 H 0.31662 0.19342 0.74096
 H564 H 0.28093 0.16473 0.76368
 O565 O 0.74138 0.66216 0.72985
 O566 O 0.76761 0.65689 0.77076
 O567 O 0.67224 0.71038 0.75386
 O568 O 0.66745 0.75472 0.77633
 O569 O 0.71875 0.73052 0.68213
 O570 O 0.76093 0.75478 0.67432
 O571 O 0.74936 0.78540 0.82157
 O572 O 0.71175 0.75808 0.82990
 O573 O 0.81540 0.73107 0.80158
 O574 O 0.82346 0.69651 0.76730
 O575 O 0.79805 0.80086 0.75280
 O576 O 0.76358 0.80934 0.71481
 O577 O 0.75886 0.81139 0.78391
 O578 O 0.73194 0.81854 0.74081
 O579 O 0.82436 0.76428 0.76482
 O580 O 0.83011 0.72171 0.73494
 O581 O 0.78124 0.74622 0.83000
 O582 O 0.73865 0.71692 0.83647
 O583 O 0.75318 0.68901 0.69337
 O584 O 0.78739 0.72220 0.68216
 O585 O 0.68269 0.74220 0.70996
 O586 O 0.67569 0.77836 0.74244
 O587 O 0.70041 0.67387 0.76135
 O588 O 0.73261 0.66925 0.80039
 Zr589 Zr 0.74044 0.68992 0.76282
 O590 O 0.76716 0.71304 0.78744
 Zr591 Zr 0.70018 0.74337 0.74976
 O592 O 0.72533 0.76874 0.77411
 Zr593 Zr 0.75316 0.72909 0.70837
 O594 O 0.78041 0.75402 0.73054
 Zr595 Zr 0.74543 0.74595 0.80484
 O596 O 0.71748 0.72089 0.78257
 Zr597 Zr 0.79756 0.73101 0.76264
 O598 O 0.77291 0.70533 0.73847
 Zr599 Zr 0.75767 0.78483 0.75018
 O600 O 0.73072 0.76191 0.72504
 O601 O 0.72156 0.71165 0.73129
 O602 O 0.77690 0.76309 0.78149
 C603 C 0.74781 0.66581 0.70442
 C604 C 0.67653 0.68481 0.75796
 C605 C 0.69314 0.73637 0.68633
 C606 C 0.75542 0.80821 0.80993
 C607 C 0.80636 0.73883 0.82501
 C608 C 0.82093 0.78980 0.76051
 H609 H 0.77518 0.70110 0.80180
 H610 H 0.79480 0.76151 0.71824
 H611 H 0.70952 0.69998 0.71993
 H612 H 0.71374 0.78315 0.78244
 H613 H 0.69712 0.74426 0.82754
 H614 H 0.66775 0.74186 0.79199
 H615 H 0.83368 0.73794 0.72342
 H616 H 0.80051 0.71064 0.69261
 H617 H 0.74239 0.72597 0.85424
 H618 H 0.72549 0.65082 0.79624
 H619 H 0.77983 0.80218 0.70474
 H620 H 0.75017 0.77166 0.67749
 H621 H 0.78349 0.65877 0.75801
 H622 H 0.81532 0.68501 0.78194
 H623 H 0.68606 0.78967 0.72909
 H624 H 0.71691 0.81910 0.75463
 O625 O 0.23937 0.67798 0.27899
 O626 O 0.20738 0.67893 0.24502
 O627 O 0.31486 0.70285 0.23847
 O628 O 0.32895 0.73769 0.21275
 O629 O 0.29453 0.73943 0.31550
 O630 O 0.26176 0.76990 0.33153
 O631 O 0.24872 0.79504 0.18111
 O632 O 0.27445 0.75744 0.16743
 O633 O 0.17836 0.77137 0.21960
 O634 O 0.16606 0.73828 0.25511
 O635 O 0.22834 0.82710 0.25865
 O636 O 0.27042 0.82642 0.28344
 O637 O 0.25961 0.82357 0.21620
 O638 O 0.29784 0.82044 0.25291
 O639 O 0.18906 0.80180 0.25922
 O640 O 0.17672 0.76029 0.28852
 O641 O 0.20681 0.76677 0.18260
 O642 O 0.23594 0.72644 0.17122
 O643 O 0.25019 0.70540 0.31507
 O644 O 0.22580 0.74750 0.32893
 O645 O 0.32475 0.73608 0.27974
 O646 O 0.33282 0.76995 0.24219
 O647 O 0.27679 0.67564 0.23890
 O648 O 0.23525 0.68198 0.20764
 Zr649 Zr 0.24339 0.70333 0.24454
 O650 O 0.21936 0.73367 0.22501
 Zr651 Zr 0.29962 0.74204 0.24471
 O652 O 0.27867 0.77303 0.22311
 Zr653 Zr 0.25562 0.74446 0.29720
 O654 O 0.23404 0.77714 0.27899
 Zr655 Zr 0.24560 0.75707 0.20023
 O656 O 0.26958 0.72546 0.21816
 Zr657 Zr 0.20297 0.76135 0.25366
 O658 O 0.22329 0.72852 0.27352
 Zr659 Zr 0.26000 0.79883 0.25190
 O660 O 0.28269 0.76891 0.27373
 O661 O 0.27459 0.71823 0.26977
 O662 O 0.22778 0.78444 0.22772
 C663 C 0.24297 0.68237 0.30474
 C664 C 0.30312 0.67956 0.23732
 C665 C 0.31900 0.73688 0.30552
 C666 C 0.25438 0.81863 0.19075
 C667 C 0.18328 0.77232 0.19369
 C668 C 0.20202 0.82459 0.26064
 H669 H 0.20469 0.72507 0.21390
 H670 H 0.22646 0.78892 0.29362
 H671 H 0.28509 0.70381 0.27950
 H672 H 0.29177 0.78282 0.21101
 H673 H 0.28462 0.73995 0.16834
 H674 H 0.32117 0.74711 0.19652
 H675 H 0.18318 0.77433 0.30150
 H676 H 0.20995 0.73600 0.32349
 H677 H 0.23153 0.73549 0.15350
 H678 H 0.23933 0.66241 0.21065
 H679 H 0.25912 0.82165 0.29971
 H680 H 0.27372 0.78495 0.32512
 H681 H 0.19335 0.68907 0.25575
 H682 H 0.16621 0.72578 0.23924
 H683 H 0.33230 0.78099 0.25915
 H684 H 0.30648 0.81926 0.23451
 O685 O 0.75445 0.31577 0.29125
 O686 O 0.78681 0.32059 0.25628
 O687 O 0.67842 0.29782 0.25101
 O688 O 0.66168 0.26712 0.22198
 O689 O 0.70591 0.24843 0.31925
 O690 O 0.73856 0.21275 0.32392
 O691 O 0.74061 0.21980 0.17209
 O692 O 0.71147 0.25792 0.16905
 O693 O 0.81297 0.23859 0.20768
 O694 O 0.82781 0.26406 0.24811
 O695 O 0.76803 0.17375 0.24181
 O696 O 0.72732 0.16831 0.26781
 O697 O 0.73454 0.18447 0.20183
 O698 O 0.69790 0.17921 0.24052
 O699 O 0.80662 0.20018 0.24166
 O700 O 0.82145 0.23479 0.27670
 O701 O 0.78048 0.24993 0.17580
 O702 O 0.74884 0.28993 0.17544
 O703 O 0.75196 0.27967 0.32068
 O704 O 0.77412 0.23580 0.32476
 O705 O 0.67279 0.25789 0.28739
 O706 O 0.66117 0.23013 0.24587
 O707 O 0.71666 0.32476 0.25220
 O708 O 0.75662 0.32648 0.22085
 Zr709 Zr 0.75024 0.29725 0.25245
 O710 O 0.77198 0.27236 0.22457
 Zr711 Zr 0.69420 0.25807 0.24960
 O712 O 0.71323 0.23228 0.22053
 Zr713 Zr 0.74266 0.24571 0.29621
 O714 O 0.76321 0.21855 0.26986
 Zr715 Zr 0.74358 0.25348 0.19832
 O716 O 0.72175 0.28030 0.22454
 Zr717 Zr 0.79155 0.24015 0.24535
 O718 O 0.77281 0.26703 0.27373
 Zr719 Zr 0.73516 0.20179 0.24157
 O720 O 0.71386 0.22604 0.27076
 O721 O 0.72132 0.27687 0.27653
 O722 O 0.76464 0.22183 0.21787
 C723 C 0.75572 0.30505 0.31540
 C724 C 0.69034 0.32112 0.25140
 C725 C 0.68077 0.25334 0.31219
 C726 C 0.73756 0.19435 0.17743
 C727 C 0.80525 0.24348 0.18290
 C728 C 0.79436 0.17708 0.24172
 H729 H 0.78528 0.28358 0.21406
 H730 H 0.77228 0.20445 0.28129
 H731 H 0.71175 0.28928 0.28942
 H732 H 0.69928 0.22456 0.20796
 H733 H 0.70084 0.27433 0.17439
 H734 H 0.66751 0.26032 0.20379
 H735 H 0.81614 0.21861 0.28761
 H736 H 0.79062 0.24653 0.31946
 H737 H 0.75171 0.28495 0.15591
 H738 H 0.75414 0.34496 0.22862
 H739 H 0.73884 0.17080 0.28439
 H740 H 0.72346 0.20121 0.31678
 H741 H 0.80034 0.30924 0.26646
 H742 H 0.82541 0.28001 0.23590
 H743 H 0.66394 0.21602 0.26017
 H744 H 0.68852 0.18304 0.22286
 C745 C 0.22754 0.08831 0.05618
 C746 C 0.22870 0.10446 0.07970
 C747 C 0.24472 0.09590 0.10248
 C748 C 0.25930 0.07122 0.10123
 C749 C 0.25896 0.05580 0.07720
 C750 C 0.24317 0.06430 0.05450
 C751 C 0.24688 0.11270 0.12557
 C752 C 0.23433 0.13847 0.12554
 C753 C 0.21854 0.14705 0.10258
 C754 C 0.21526 0.12971 0.08013
 C755 C 0.20707 0.17323 0.10200
 C756 C 0.21183 0.19107 0.12363
 C757 C 0.22748 0.18275 0.14646
 C758 C 0.23820 0.15624 0.14763
 H759 H 0.21553 0.09502 0.03858
 H760 H 0.27186 0.06443 0.11839
 H761 H 0.27160 0.03760 0.07602
 H762 H 0.25925 0.10623 0.14301
 H763 H 0.20326 0.13636 0.06249
 H764 H 0.19497 0.18011 0.08456
 H765 H 0.20313 0.21139 0.12260
 H766 H 0.25042 0.14987 0.16521
 C767 C 0.76559 0.56509 0.58069
 C768 C 0.76784 0.58167 0.60406
 C769 C 0.79183 0.59770 0.60772
 C770 C 0.81378 0.59566 0.58900
 C771 C 0.81152 0.57893 0.56608
 C772 C 0.78724 0.56402 0.56132
 C773 C 0.79315 0.61625 0.62943
 C774 C 0.77088 0.61893 0.64770
 C775 C 0.74761 0.60173 0.64523
 C776 C 0.74616 0.58326 0.62331
 C777 C 0.72586 0.60394 0.66432
 C778 C 0.72662 0.62384 0.68479
 C779 C 0.74882 0.64210 0.68609
 C780 C 0.77116 0.63917 0.66788
 H781 H 0.74665 0.55394 0.57694
 H782 H 0.83240 0.60760 0.59166
 H783 H 0.82838 0.57837 0.55138
 H784 H 0.81120 0.62913 0.63166
 H785 H 0.72794 0.57068 0.62086
 H786 H 0.70800 0.59073 0.66301
 H787 H 0.70929 0.62581 0.69875
 H788 H 0.78847 0.65311 0.66907
 C789 C 0.74414 0.94191 0.10114
 C790 C 0.75111 0.92026 0.11861
 C791 C 0.77399 0.90340 0.11226
 C792 C 0.79030 0.90941 0.08914
 C793 C 0.78395 0.93188 0.07253
 C794 C 0.76041 0.94793 0.07796
 C795 C 0.78035 0.88113 0.12934
 C796 C 0.76477 0.87626 0.15326
 C797 C 0.74282 0.89414 0.16024
 C798 C 0.73579 0.91562 0.14261
 C799 C 0.72824 0.89031 0.18484
 C800 C 0.73501 0.86875 0.20225
 C801 C 0.75590 0.85024 0.19501
 C802 C 0.77079 0.85397 0.17048
 H803 H 0.72619 0.95441 0.10579
 H804 H 0.80824 0.89706 0.08420
 H805 H 0.79739 0.93673 0.05538
 H806 H 0.79758 0.86785 0.12423
 H807 H 0.71862 0.92896 0.14776
 H808 H 0.71157 0.90397 0.19059
 H809 H 0.72330 0.86597 0.22106
 H810 H 0.78709 0.83975 0.16503
 C811 C 0.27010 0.43754 0.59477
 C812 C 0.26581 0.41413 0.61083
 C813 C 0.24436 0.39588 0.60395
 C814 C 0.22694 0.40194 0.58170
 C815 C 0.23075 0.42579 0.56643
 C816 C 0.25275 0.44348 0.57234
 C817 C 0.24037 0.37220 0.61972
 C818 C 0.25683 0.36711 0.64296
 C819 C 0.27756 0.38599 0.65038
 C820 C 0.28229 0.40903 0.63398
 C821 C 0.29291 0.38182 0.67443
 C822 C 0.28766 0.35932 0.69113
 C823 C 0.26776 0.33997 0.68364
 C824 C 0.25253 0.34381 0.65933
 H825 H 0.28681 0.45130 0.59984
 H826 H 0.21008 0.38847 0.57639
 H827 H 0.21649 0.43044 0.54989
 H828 H 0.22410 0.35807 0.61425
 H829 H 0.29841 0.42328 0.63957
 H830 H 0.30865 0.39621 0.68058
 H831 H 0.29937 0.35690 0.70990
 H832 H 0.23680 0.32918 0.65369
 C833 C 0.72915 0.04647 0.90212
 C834 C 0.73253 0.06959 0.88540
 C835 C 0.75022 0.09080 0.89380
 C836 C 0.76413 0.08852 0.91895
 C837 C 0.76078 0.06541 0.93545
 C838 C 0.74311 0.04401 0.92749
 C839 C 0.75407 0.11366 0.87673
 C840 C 0.74067 0.11539 0.85116
 C841 C 0.72281 0.09413 0.84299
 C842 C 0.71869 0.07158 0.86020
 C843 C 0.70974 0.09542 0.81740
 C844 C 0.71487 0.11709 0.79963
 C845 C 0.73286 0.13822 0.80713
 C846 C 0.74530 0.13759 0.83327
 H847 H 0.71508 0.03066 0.89555
 H848 H 0.77804 0.10440 0.92564
 H849 H 0.77296 0.06389 0.95406
 H850 H 0.76783 0.12982 0.88312
 H851 H 0.70510 0.05530 0.85372
 H852 H 0.69595 0.07936 0.81086
 H853 H 0.70483 0.11722 0.77974
 H854 H 0.75935 0.15368 0.83916
 C855 C 0.24423 0.55602 0.40558
 C856 C 0.24735 0.58023 0.39047
 C857 C 0.27064 0.59698 0.39503
 C858 C 0.29066 0.58893 0.41431
 C859 C 0.28757 0.56462 0.42899
 C860 C 0.26415 0.54820 0.42510
 C861 C 0.27369 0.62131 0.38005
 C862 C 0.25405 0.62879 0.36012
 C863 C 0.23102 0.61171 0.35530
 C864 C 0.22766 0.58778 0.37071
 C865 C 0.21193 0.61857 0.33476
 C866 C 0.21584 0.64180 0.31870
 C867 C 0.23848 0.65902 0.32332
 C868 C 0.25736 0.65268 0.34438
 H869 H 0.22627 0.54327 0.40228
 H870 H 0.30878 0.60134 0.41792
 H871 H 0.30340 0.55864 0.44357
 H872 H 0.29152 0.63416 0.38362
 H873 H 0.20992 0.57482 0.36702
 H874 H 0.19424 0.60569 0.33074
 H875 H 0.20111 0.64637 0.30254
 H876 H 0.27510 0.66570 0.34772
 C877 C 0.26358 0.90001 0.94292
 C878 C 0.26401 0.88422 0.91911
 C879 C 0.25075 0.89374 0.89506
 C880 C 0.23750 0.91914 0.89526
 C881 C 0.23668 0.93457 0.91930
 C882 C 0.24965 0.92522 0.94352
 C883 C 0.25017 0.87733 0.87156
 C884 C 0.26196 0.85121 0.87219
 C885 C 0.27536 0.84184 0.89630
 C886 C 0.27672 0.85859 0.91940
 C887 C 0.28632 0.81547 0.89728
 C888 C 0.28315 0.79810 0.87497
 C889 C 0.26955 0.80703 0.85109
 C890 C 0.25960 0.83386 0.84951
 H891 H 0.27411 0.89256 0.96114
 H892 H 0.22698 0.92666 0.87709
 H893 H 0.22476 0.95327 0.91922
 H894 H 0.23975 0.88449 0.85315
 H895 H 0.28679 0.85128 0.93794
 H896 H 0.29664 0.80800 0.91559
 H897 H 0.29109 0.77752 0.87647
 H898 H 0.24882 0.84073 0.83122
 C899 C 0.76696 0.40770 0.43914
 C900 C 0.76311 0.39331 0.41463
 C901 C 0.74442 0.40326 0.39461
 C902 C 0.72967 0.42739 0.39971
 C903 C 0.73315 0.44126 0.42454
 C904 C 0.75199 0.43168 0.44433
 C905 C 0.74038 0.38862 0.37017
 C906 C 0.75419 0.36376 0.36594
 C907 C 0.77254 0.35374 0.38630
 C908 C 0.77720 0.36876 0.41024
 C909 C 0.78553 0.32850 0.38272
 C910 C 0.78003 0.31298 0.35948
 C911 C 0.76202 0.32266 0.33902
 C912 C 0.74945 0.34832 0.34208
 H913 H 0.78128 0.40003 0.45450
 H914 H 0.71506 0.43523 0.38475
 H915 H 0.72095 0.45937 0.42844
 H916 H 0.72606 0.39623 0.35480
 H917 H 0.79131 0.36101 0.42576
 H918 H 0.79955 0.32051 0.39816
 H919 H 0.78995 0.29329 0.35741
 H920 H 0.73526 0.35570 0.32649
 C921 C 0.07339 0.28716 0.05199
 C922 C 0.08829 0.28354 0.07644
 C923 C 0.08032 0.26316 0.09536
 C924 C 0.05734 0.24685 0.08946
 C925 C 0.04273 0.25038 0.06487
 C926 C 0.05043 0.27065 0.04574
 C927 C 0.09585 0.25901 0.11946
 C928 C 0.11962 0.27463 0.12450
 C929 C 0.12737 0.29512 0.10548
 C930 C 0.11147 0.29968 0.08186
 C931 C 0.15147 0.31020 0.10989
 C932 C 0.16839 0.30441 0.13232
 C933 C 0.16120 0.28395 0.15117
 C934 C 0.13641 0.26949 0.14761
 H935 H 0.07958 0.30316 0.03788
 H936 H 0.05105 0.23091 0.10355
 H937 H 0.02600 0.23648 0.06037
 H938 H 0.08988 0.24319 0.13386
 H939 H 0.11763 0.31527 0.06727
 H940 H 0.15770 0.32593 0.09552
 H941 H 0.18745 0.31570 0.13480
 H942 H 0.13104 0.25341 0.16194
 C943 C 0.58633 0.74941 0.56422
 C944 C 0.60250 0.75011 0.58811
 C945 C 0.59715 0.76999 0.60838
 C946 C 0.57595 0.78913 0.60409
 C947 C 0.56029 0.78861 0.57995
 C948 C 0.56507 0.76850 0.56006
 C949 C 0.61330 0.77061 0.63236
 C950 C 0.63515 0.75201 0.63598
 C951 C 0.64073 0.73250 0.61537
 C952 C 0.62418 0.73146 0.59178
 C953 C 0.66304 0.71450 0.61847
 C954 C 0.67994 0.71597 0.64160
 C955 C 0.67457 0.73508 0.66233
 C956 C 0.65189 0.75288 0.65960
 H957 H 0.59034 0.73412 0.54870
 H958 H 0.57172 0.80470 0.61924
 H959 H 0.54439 0.80388 0.57674
 H960 H 0.60914 0.78578 0.64796
 H961 H 0.62844 0.71640 0.57609
 H962 H 0.66761 0.69947 0.60287
 H963 H 0.69719 0.70191 0.64341
 H964 H 0.64778 0.76782 0.67543
 C965 C 0.06219 0.77693 0.92684
 C966 C 0.08379 0.77366 0.90761
 C967 C 0.08370 0.78933 0.88320
 C968 C 0.06275 0.80852 0.87878
 C969 C 0.04161 0.81186 0.89801
 C970 C 0.04074 0.79610 0.92232
 C971 C 0.10430 0.78531 0.86330
 C972 C 0.12529 0.76602 0.86754
 C973 C 0.12611 0.75093 0.89230
 C974 C 0.10519 0.75467 0.91212
 C975 C 0.14780 0.73230 0.89667
 C976 C 0.16826 0.72847 0.87658
 C977 C 0.16701 0.74276 0.85156
 C978 C 0.14546 0.76158 0.84728
 H979 H 0.06143 0.76356 0.94458
 H980 H 0.06254 0.82086 0.86029
 H981 H 0.02588 0.82709 0.89387
 H982 H 0.10388 0.79708 0.84441
 H983 H 0.10553 0.74279 0.93094
 H984 H 0.14893 0.72069 0.91560
 H985 H 0.18474 0.71394 0.88034
 H986 H 0.14457 0.77301 0.82822
 C987 C 0.55749 0.27708 0.41621
 C988 C 0.57871 0.27713 0.39643
 C989 C 0.57882 0.29721 0.37552
 C990 C 0.55838 0.31752 0.37541
 C991 C 0.53749 0.31743 0.39527
 C992 C 0.53663 0.29706 0.41558
 C993 C 0.59898 0.29636 0.35475
 C994 C 0.61924 0.27586 0.35478
 C995 C 0.61983 0.25643 0.37630
 C996 C 0.59944 0.25707 0.39687
 C997 C 0.64076 0.23659 0.37681
 C998 C 0.66078 0.23584 0.35607
 C999 C 0.65980 0.25446 0.33416
 C1000 C 0.63898 0.27446 0.33362
 H1001 H 0.55663 0.26103 0.43152
 H1002 H 0.55822 0.33314 0.35964
 H1003 H 0.52145 0.33287 0.39437
 H1004 H 0.59874 0.31148 0.33846
 H1005 H 0.59958 0.24186 0.41307
 H1006 H 0.64166 0.22169 0.39324
 H1007 H 0.67678 0.22035 0.35684
 H1008 H 0.63846 0.28917 0.31697
 C1009 C 0.94248 0.77053 0.09523
 C1010 C 0.91779 0.77063 0.11058
 C1011 C 0.89903 0.79266 0.10815
 C1012 C 0.90520 0.81410 0.09013
 C1013 C 0.92936 0.81345 0.07428
 C1014 C 0.94809 0.79147 0.07624
 C1015 C 0.87446 0.79288 0.12373
 C1016 C 0.86830 0.77120 0.14157
 C1017 C 0.88688 0.74892 0.14345
 C1018 C 0.91143 0.74880 0.12803
 C1019 C 0.88098 0.72731 0.16129
 C1020 C 0.85765 0.72830 0.17812
 C1021 C 0.83946 0.75064 0.17717
 C1022 C 0.84441 0.77178 0.15830
 H1023 H 0.95660 0.75341 0.09698
 H1024 H 0.89120 0.83126 0.08809
 H1025 H 0.93354 0.83028 0.06047
 H1026 H 0.86028 0.80997 0.12213
 H1027 H 0.92570 0.73179 0.12976
 H1028 H 0.89492 0.71006 0.16290
 H1029 H 0.85423 0.71192 0.19269
 H1030 H 0.83071 0.78929 0.15786
 C1031 C 0.43807 0.26354 0.58928
 C1032 C 0.41426 0.26284 0.60584
 C1033 C 0.39336 0.28280 0.60231
 C1034 C 0.39690 0.30340 0.58263
 C1035 C 0.42085 0.30415 0.56653
 C1036 C 0.44136 0.28401 0.56939
 C1037 C 0.36944 0.28204 0.61868
 C1038 C 0.36641 0.26194 0.63899
 C1039 C 0.38756 0.24229 0.64284
 C1040 C 0.41116 0.24266 0.62602
 C1041 C 0.38497 0.22285 0.66380
 C1042 C 0.36193 0.22317 0.68115
 C1043 C 0.34076 0.24247 0.67739
 C1044 C 0.34290 0.26159 0.65600
 H1045 H 0.45404 0.24817 0.59175
 H1046 H 0.38126 0.31901 0.57983
 H1047 H 0.42336 0.32039 0.55165
 H1048 H 0.35339 0.29730 0.61591
 H1049 H 0.42729 0.22751 0.62892
 H1050 H 0.40100 0.20771 0.66711
 H1051 H 0.36061 0.20831 0.69758
 H1052 H 0.32680 0.27681 0.65333
 C1053 C 0.91419 0.25131 0.91129
 C1054 C 0.89501 0.24928 0.88950
 C1055 C 0.87258 0.26785 0.88794
 C1056 C 0.87023 0.28868 0.90721
 C1057 C 0.88884 0.29024 0.92891
 C1058 C 0.91063 0.27126 0.93180
 C1059 C 0.85223 0.26490 0.86770
 C1060 C 0.85382 0.24359 0.84882
 C1061 C 0.87666 0.22550 0.84949
 C1062 C 0.89709 0.22839 0.86990
 C1063 C 0.87849 0.20481 0.82976
 C1064 C 0.85791 0.20209 0.80969
 C1065 C 0.83479 0.21953 0.80950
 C1066 C 0.83286 0.24018 0.82919
 H1067 H 0.93038 0.23612 0.91345
 H1068 H 0.85335 0.30324 0.90612
 H1069 H 0.88574 0.30603 0.94410
 H1070 H 0.83487 0.27895 0.86696
 H1071 H 0.91432 0.21420 0.87078
 H1072 H 0.89590 0.19084 0.82973
 H1073 H 0.85987 0.18619 0.79448
 H1074 H 0.81536 0.25407 0.82876
 C1075 C 0.41786 0.74595 0.43355
 C1076 C 0.40007 0.74876 0.41085
 C1077 C 0.38081 0.77053 0.41014
 C1078 C 0.38040 0.78969 0.43132
 C1079 C 0.39836 0.78697 0.45349
 C1080 C 0.41694 0.76501 0.45501
 C1081 C 0.36182 0.77260 0.38859
 C1082 C 0.36190 0.75338 0.36750
 C1083 C 0.38187 0.73229 0.36728
 C1084 C 0.40078 0.72999 0.38912
 C1085 C 0.38218 0.71371 0.34538
 C1086 C 0.36236 0.71562 0.32442
 C1087 C 0.34174 0.73576 0.32549
 C1088 C 0.34189 0.75476 0.34684
 H1089 H 0.43199 0.72881 0.43485
 H1090 H 0.36589 0.80655 0.43095
 H1091 H 0.39740 0.80177 0.46991
 H1092 H 0.34669 0.78898 0.38844
 H1093 H 0.41575 0.71349 0.38937
 H1094 H 0.39747 0.69755 0.34466
 H1095 H 0.36254 0.70088 0.30798
 H1096 H 0.32617 0.77057 0.34741
 C1097 C 0.07783 0.07820 0.24019
 C1098 C 0.09458 0.10078 0.23411
 C1099 C 0.11473 0.09877 0.21307
 C1100 C 0.11710 0.07475 0.19785
 C1101 C 0.09996 0.05268 0.20361
 C1102 C 0.08029 0.05407 0.22485
 C1103 C 0.13256 0.12060 0.20787
 C1104 C 0.13051 0.14449 0.22335
 C1105 C 0.10963 0.14713 0.24355
 C1106 C 0.09180 0.12517 0.24888
 C1107 C 0.10754 0.17144 0.25855
 C1108 C 0.12685 0.19232 0.25454
 C1109 C 0.14857 0.18905 0.23565
 C1110 C 0.14973 0.16541 0.21955
 H1111 H 0.06296 0.07928 0.25687
 H1112 H 0.13234 0.07297 0.18157
 H1113 H 0.10216 0.03432 0.19156
 H1114 H 0.14843 0.11877 0.19216
 H1115 H 0.07613 0.12690 0.26478
 H1116 H 0.09152 0.17394 0.27395
 H1117 H 0.12569 0.21036 0.26720
 H1118 H 0.16632 0.16291 0.20470
 C1119 C 0.58522 0.55329 0.75409
 C1120 C 0.60160 0.57653 0.74988
 C1121 C 0.62139 0.57673 0.72841
 C1122 C 0.62386 0.55420 0.71104
 C1123 C 0.60687 0.53161 0.71481
 C1124 C 0.58736 0.53091 0.73622
 C1125 C 0.63863 0.59929 0.72476
 C1126 C 0.63621 0.62184 0.74210
 C1127 C 0.61572 0.62231 0.76287
 C1128 C 0.59860 0.59954 0.76674
 C1129 C 0.61330 0.64532 0.77982
 C1130 C 0.63194 0.66698 0.77709
 C1131 C 0.65316 0.66579 0.75745
 C1132 C 0.65469 0.64356 0.73958
 H1133 H 0.57061 0.55268 0.77102
 H1134 H 0.63886 0.55408 0.69446
 H1135 H 0.60892 0.51456 0.70091
 H1136 H 0.65421 0.59914 0.70866
 H1137 H 0.58320 0.59960 0.78300
 H1138 H 0.59761 0.64615 0.79574
 H1139 H 0.63073 0.68391 0.79122
 H1140 H 0.67109 0.64275 0.72438
 C1141 C 0.93815 0.05704 0.74239
 C1142 C 0.91550 0.07509 0.74338
 C1143 C 0.91685 0.09823 0.76048
 C1144 C 0.94026 0.10272 0.77662
 C1145 C 0.96227 0.08444 0.77603
 C1146 C 0.96156 0.06113 0.75924
 C1147 C 0.89495 0.11684 0.76100
 C1148 C 0.87152 0.11263 0.74478
 C1149 C 0.86945 0.08917 0.72827
 C1150 C 0.89162 0.07055 0.72752
 C1151 C 0.84539 0.08512 0.71254
 C1152 C 0.82413 0.10466 0.71250
 C1153 C 0.82693 0.12853 0.72793
 C1154 C 0.85037 0.13203 0.74445
 H1155 H 0.93776 0.04022 0.72807
 H1156 H 0.94152 0.12035 0.78985
 H1157 H 0.97979 0.08831 0.78932
 H1158 H 0.89629 0.13480 0.77382
 H1159 H 0.89034 0.05270 0.71458
 H1160 H 0.84328 0.06716 0.69991
 H1161 H 0.80612 0.10168 0.69964
 H1162 H 0.85239 0.15028 0.75672
 C1163 C 0.43446 0.58519 0.24172
 C1164 C 0.41121 0.60210 0.24536
 C1165 C 0.41069 0.62061 0.26756
 C1166 C 0.43290 0.62151 0.28598
 C1167 C 0.45545 0.60411 0.28267
 C1168 C 0.45641 0.58571 0.26073
 C1169 C 0.38809 0.63811 0.27097
 C1170 C 0.36583 0.63732 0.25262
 C1171 C 0.36563 0.61832 0.23092
 C1172 C 0.38846 0.60083 0.22734
 C1173 C 0.34283 0.61771 0.21293
 C1174 C 0.32113 0.63660 0.21573
 C1175 C 0.32218 0.65625 0.23647
 C1176 C 0.34415 0.65597 0.25523
 H1177 H 0.43535 0.57133 0.22447
 H1178 H 0.43274 0.63556 0.30308
 H1179 H 0.47222 0.60486 0.29742
 H1180 H 0.38798 0.65261 0.28772
 H1181 H 0.38864 0.58648 0.21049
 H1182 H 0.34218 0.60318 0.19628
 H1183 H 0.30434 0.63672 0.20100
 H1184 H 0.34480 0.67110 0.27137
 C1185 C 0.07729 0.90958 0.76536
 C1186 C 0.09798 0.88994 0.77042
 C1187 C 0.09253 0.86822 0.78877
 C1188 C 0.06719 0.86700 0.80256
 C1189 C 0.04693 0.88655 0.79763
 C1190 C 0.05139 0.90800 0.77879
 C1191 C 0.11212 0.84753 0.79250
 C1192 C 0.13720 0.84813 0.77812
 C1193 C 0.14341 0.87034 0.76067
 C1194 C 0.12369 0.89113 0.75685
 C1195 C 0.16900 0.87094 0.74690
 C1196 C 0.18769 0.84923 0.74959
 C1197 C 0.18085 0.82651 0.76576
 C1198 C 0.15581 0.82639 0.78039
 H1199 H 0.08084 0.92506 0.74986
 H1200 H 0.06282 0.85060 0.81684
 H1201 H 0.02749 0.88485 0.80866
 H1202 H 0.10755 0.83060 0.80609
 H1203 H 0.12813 0.90788 0.74298
 H1204 H 0.17429 0.88789 0.73363
 H1205 H 0.20696 0.84969 0.73818
 H1206 H 0.15061 0.80906 0.79320
 C1207 C 0.56995 0.42926 0.25311
 C1208 C 0.59062 0.40961 0.25774
 C1209 C 0.58684 0.38976 0.27855
 C1210 C 0.56325 0.39073 0.29527
 C1211 C 0.54318 0.41073 0.29097
 C1212 C 0.54613 0.42993 0.26972
 C1213 C 0.60638 0.36891 0.28196
 C1214 C 0.62992 0.36787 0.26514
 C1215 C 0.63459 0.38857 0.24542
 C1216 C 0.61475 0.40918 0.24165
 C1217 C 0.65881 0.38797 0.22946
 C1218 C 0.67772 0.36656 0.23235
 C1219 C 0.67234 0.34522 0.25078
 C1220 C 0.64863 0.34615 0.26741
 H1221 H 0.57207 0.44365 0.23631
 H1222 H 0.56013 0.37581 0.31142
 H1223 H 0.52487 0.41087 0.30388
 H1224 H 0.60308 0.35329 0.29743
 H1225 H 0.61795 0.42465 0.22602
 H1226 H 0.66290 0.40380 0.21446
 H1227 H 0.69597 0.36606 0.21938
 H1228 H 0.64467 0.32980 0.28190
 C1229 C 0.93127 0.93499 0.24885
 C1230 C 0.91379 0.91380 0.25735
 C1231 C 0.89332 0.91883 0.27757
 C1232 C 0.89141 0.94452 0.28973
 C1233 C 0.90915 0.96531 0.28148
 C1234 C 0.92900 0.96084 0.26086
 C1235 C 0.87461 0.89834 0.28484
 C1236 C 0.87607 0.87285 0.27218
 C1237 C 0.89730 0.86731 0.25293
 C1238 C 0.91604 0.88786 0.24559
 C1239 C 0.89886 0.84154 0.24074
 C1240 C 0.87875 0.82193 0.24655
 C1241 C 0.85673 0.82789 0.26446
 C1242 C 0.85597 0.85314 0.27777
 H1243 H 0.94629 0.93158 0.23264
 H1244 H 0.87595 0.94866 0.30534
 H1245 H 0.90712 0.98514 0.29090
 H1246 H 0.85850 0.90244 0.29984
 H1247 H 0.93193 0.88386 0.23034
 H1248 H 0.91510 0.83684 0.22610
 H1249 H 0.87964 0.80261 0.23595
 H1250 H 0.83914 0.85778 0.29181
 C1251 C 0.43110 0.41584 0.76145
 C1252 C 0.41200 0.39462 0.75807
 C1253 C 0.39489 0.39426 0.73445
 C1254 C 0.39770 0.41446 0.71431
 C1255 C 0.41675 0.43532 0.71780
 C1256 C 0.43334 0.43633 0.74139
 C1257 C 0.37474 0.37415 0.73158
 C1258 C 0.37131 0.35438 0.75202
 C1259 C 0.38891 0.35396 0.77521
 C1260 C 0.40921 0.37415 0.77811
 C1261 C 0.38544 0.33361 0.79530
 C1262 C 0.36415 0.31448 0.79278
 C1263 C 0.34603 0.31577 0.77034
 C1264 C 0.35005 0.33534 0.74983
 H1265 H 0.44372 0.41684 0.77982
 H1266 H 0.38481 0.41439 0.69610
 H1267 H 0.41823 0.45112 0.70228
 H1268 H 0.36131 0.37424 0.71372
 H1269 H 0.42243 0.37421 0.79610
 H1270 H 0.39885 0.33280 0.81311
 H1271 H 0.36127 0.29930 0.80869
 H1272 H 0.33635 0.33579 0.73223
 C1273 C 0.06356 0.26107 0.92616
 C1274 C 0.08566 0.26245 0.90728
 C1275 C 0.10584 0.28307 0.90993
 C1276 C 0.10334 0.30227 0.93089
 C1277 C 0.08168 0.30056 0.94971
 C1278 C 0.06156 0.27991 0.94787
 C1279 C 0.12862 0.28386 0.89206
 C1280 C 0.13167 0.26423 0.87152
 C1281 C 0.11130 0.24384 0.86843
 C1282 C 0.08844 0.24307 0.88633
 C1283 C 0.11427 0.22447 0.84754
 C1284 C 0.13715 0.22535 0.82992
 C1285 C 0.15749 0.24536 0.83309
 C1286 C 0.15481 0.26467 0.85400
 H1287 H 0.04901 0.24437 0.92499
 H1288 H 0.11855 0.31825 0.93315
 H1289 H 0.08072 0.31543 0.96608
 H1290 H 0.14416 0.29957 0.89437
 H1291 H 0.07301 0.22725 0.88414
 H1292 H 0.09894 0.20868 0.84482
 H1293 H 0.13923 0.21016 0.81404
 H1294 H 0.17049 0.28023 0.85628
 C1295 C 0.58960 0.75515 0.45400
 C1296 C 0.60694 0.75822 0.43104
 C1297 C 0.60245 0.77997 0.41246
 C1298 C 0.58097 0.79860 0.41755
 C1299 C 0.56413 0.79568 0.44079
 C1300 C 0.56799 0.77369 0.45892
 C1301 C 0.61970 0.78294 0.38935
 C1302 C 0.64182 0.76481 0.38499
 C1303 C 0.64655 0.74341 0.40397
 C1304 C 0.62891 0.74006 0.42662
 C1305 C 0.66912 0.72584 0.40020
 C1306 C 0.68708 0.72957 0.37806
 C1307 C 0.68254 0.75056 0.35892
 C1308 C 0.65962 0.76796 0.36226
 H1309 H 0.59292 0.73840 0.46819
 H1310 H 0.57738 0.81557 0.40374
 H1311 H 0.54800 0.81055 0.44465
 H1312 H 0.61618 0.79955 0.37504
 H1313 H 0.63252 0.72353 0.44103
 H1314 H 0.67306 0.70937 0.41455
 H1315 H 0.70448 0.71578 0.37571
 H1316 H 0.65613 0.78431 0.34765
 C1317 C 0.93481 0.77452 0.91482
 C1318 C 0.90882 0.77143 0.90257
 C1319 C 0.88951 0.79312 0.90302
 C1320 C 0.89628 0.81724 0.91675
 C1321 C 0.92183 0.81970 0.93003
 C1322 C 0.94130 0.79840 0.92898
 C1323 C 0.86385 0.79025 0.88976
 C1324 C 0.85720 0.76580 0.87652
 C1325 C 0.87620 0.74379 0.87730
 C1326 C 0.90186 0.74681 0.89017
 C1327 C 0.86971 0.71932 0.86432
 C1328 C 0.84546 0.71716 0.84912
 C1329 C 0.82713 0.73927 0.84694
 C1330 C 0.83248 0.76327 0.86148
 H1331 H 0.94961 0.75786 0.91440
 H1332 H 0.88170 0.83403 0.91752
 H1333 H 0.92653 0.83825 0.94100
 H1334 H 0.84926 0.80708 0.88948
 H1335 H 0.91657 0.73007 0.89023
 H1336 H 0.88395 0.70224 0.86492
 H1337 H 0.84164 0.69861 0.83783
 H1338 H 0.81858 0.78052 0.85937
 C1339 C 0.43143 0.26750 0.40073
 C1340 C 0.40699 0.26667 0.38522
 C1341 C 0.38602 0.28635 0.38964
 C1342 C 0.38996 0.30657 0.40950
 C1343 C 0.41452 0.30740 0.42465
 C1344 C 0.43530 0.28779 0.42051
 C1345 C 0.36171 0.28577 0.37385
 C1346 C 0.35836 0.26606 0.35334
 C1347 C 0.37946 0.24649 0.34890
 C1348 C 0.40345 0.24673 0.36506
 C1349 C 0.37655 0.22736 0.32787
 C1350 C 0.35336 0.22806 0.31082
 C1351 C 0.33236 0.24743 0.31494
 C1352 C 0.33468 0.26610 0.33657
 H1353 H 0.44759 0.25250 0.39735
 H1354 H 0.37422 0.32192 0.41308
 H1355 H 0.41742 0.32342 0.43958
 H1356 H 0.34569 0.30093 0.37714
 H1357 H 0.41961 0.23175 0.36157
 H1358 H 0.39253 0.21228 0.32415
 H1359 H 0.35193 0.21359 0.29416
 H1360 H 0.31874 0.28144 0.33946
 C1361 C 0.05688 0.79487 0.09341
 C1362 C 0.08146 0.78853 0.10746
 C1363 C 0.09841 0.76685 0.09827
 C1364 C 0.09033 0.75180 0.07523
 C1365 C 0.06567 0.75807 0.06156
 C1366 C 0.04889 0.77976 0.07037
 C1367 C 0.12286 0.76030 0.11251
 C1368 C 0.13026 0.77478 0.13619
 C1369 C 0.11314 0.79637 0.14536
 C1370 C 0.08910 0.80330 0.13079
 C1371 C 0.12000 0.81037 0.16938
 C1372 C 0.14312 0.80259 0.18463
 C1373 C 0.16017 0.78109 0.17595
 C1374 C 0.15403 0.76758 0.15134
 H1375 H 0.04387 0.81149 0.10040
 H1376 H 0.10292 0.73501 0.06798
 H1377 H 0.05957 0.74593 0.04408
 H1378 H 0.13579 0.74363 0.10550
 H1379 H 0.07604 0.81983 0.13792
 H1380 H 0.10718 0.82697 0.17668
 H1381 H 0.14775 0.81338 0.20335
 H1382 H 0.16704 0.75084 0.14467
 C1383 C 0.56386 0.26968 0.56242
 C1384 C 0.58646 0.26765 0.58055
 C1385 C 0.58825 0.28559 0.60313
 C1386 C 0.56825 0.30603 0.60645
 C1387 C 0.54600 0.30800 0.58826
 C1388 C 0.54328 0.28960 0.56644
 C1389 C 0.60956 0.28240 0.62246
 C1390 C 0.62926 0.26160 0.61946
 C1391 C 0.62832 0.24446 0.59620
 C1392 C 0.60684 0.24750 0.57697
 C1393 C 0.64870 0.22432 0.59283
 C1394 C 0.66940 0.22074 0.61262
 C1395 C 0.66969 0.23685 0.63636
 C1396 C 0.64971 0.25744 0.63954
 H1397 H 0.56167 0.25516 0.54587
 H1398 H 0.56942 0.32008 0.62350
 H1399 H 0.53032 0.32343 0.59173
 H1400 H 0.61052 0.29580 0.64009
 H1401 H 0.60574 0.23395 0.55948
 H1402 H 0.64848 0.21117 0.57503
 H1403 H 0.68473 0.20485 0.60980
 H1404 H 0.65016 0.27024 0.65763
 C1405 C 0.90111 0.25270 0.05190
 C1406 C 0.88228 0.25444 0.07384
 C1407 C 0.86199 0.27528 0.07389
 C1408 C 0.86133 0.29440 0.05251
 C1409 C 0.88062 0.29299 0.03124
 C1410 C 0.90065 0.27222 0.03074
 C1411 C 0.84271 0.27677 0.09531
 C1412 C 0.84384 0.25816 0.11711
 C1413 C 0.86465 0.23784 0.11766
 C1414 C 0.88353 0.23587 0.09579
 C1415 C 0.86622 0.21996 0.14015
 C1416 C 0.84724 0.22210 0.16179
 C1417 C 0.82610 0.24176 0.16091
 C1418 C 0.82452 0.25970 0.13851
 H1419 H 0.91626 0.23638 0.05134
 H1420 H 0.84599 0.31054 0.05231
 H1421 H 0.87989 0.30811 0.01502
 H1422 H 0.82695 0.29256 0.09514
 H1423 H 0.89930 0.22011 0.09598
 H1424 H 0.88211 0.20437 0.14103
 H1425 H 0.84868 0.20804 0.17892
 H1426 H 0.80842 0.27513 0.13793
 C1427 C 0.41317 0.73826 0.57442
 C1428 C 0.39369 0.73850 0.59599
 C1429 C 0.37440 0.76018 0.59784
 C1430 C 0.37550 0.78163 0.57889
 C1431 C 0.39507 0.78140 0.55785
 C1432 C 0.41383 0.75968 0.55520
 C1433 C 0.35408 0.76001 0.61840
 C1434 C 0.35303 0.73876 0.63758
 C1435 C 0.37288 0.71757 0.63656
 C1436 C 0.39292 0.71739 0.61555
 C1437 C 0.37233 0.69701 0.65668
 C1438 C 0.35231 0.69751 0.67755
 C1439 C 0.33211 0.71810 0.67809
 C1440 C 0.33252 0.73859 0.65799
 H1441 H 0.42739 0.72129 0.57223
 H1442 H 0.36098 0.79844 0.58014
 H1443 H 0.39522 0.79797 0.54311
 H1444 H 0.33909 0.77646 0.61948
 H1445 H 0.40787 0.70093 0.61445
 H1446 H 0.38747 0.68071 0.65641
 H1447 H 0.35232 0.68162 0.69304
 H1448 H 0.31723 0.75479 0.65868
 C1449 C 0.24748 0.07061 0.93199
 C1450 C 0.24948 0.09123 0.91196
 C1451 C 0.26705 0.11369 0.91659
 C1452 C 0.28302 0.11476 0.94047
 C1453 C 0.28078 0.09442 0.96030
 C1454 C 0.26265 0.07227 0.95673
 C1455 C 0.26792 0.13514 0.89765
 C1456 C 0.25144 0.13454 0.87403
 C1457 C 0.23449 0.11179 0.86874
 C1458 C 0.23353 0.09026 0.88782
 C1459 C 0.21869 0.11115 0.84453
 C1460 C 0.21954 0.13295 0.82593
 C1461 C 0.23573 0.15592 0.83160
 C1462 C 0.25166 0.15650 0.85566
 H1463 H 0.23272 0.05431 0.92910
 H1464 H 0.29682 0.13168 0.94414
 H1465 H 0.29326 0.09611 0.97869
 H1466 H 0.28111 0.15252 0.90150
 H1467 H 0.22018 0.07299 0.88406
 H1468 H 0.20570 0.09382 0.83999
 H1469 H 0.20724 0.13210 0.80736
 H1470 H 0.26463 0.17396 0.85987
 C1471 C 0.76627 0.57915 0.44194
 C1472 C 0.76875 0.59898 0.42132
 C1473 C 0.79256 0.61566 0.42044
 C1474 C 0.81393 0.61150 0.43944
 C1475 C 0.81153 0.59136 0.45953
 C1476 C 0.78764 0.57523 0.46111
 C1477 C 0.79448 0.63648 0.40087
 C1478 C 0.77314 0.64055 0.38183
 C1479 C 0.74987 0.62314 0.38185
 C1480 C 0.74769 0.60261 0.40180
 C1481 C 0.72911 0.62675 0.36200
 C1482 C 0.73119 0.64769 0.34262
 C1483 C 0.75372 0.66560 0.34329
 C1484 C 0.77467 0.66190 0.36282
 H1485 H 0.74757 0.56708 0.44343
 H1486 H 0.83237 0.62400 0.43894
 H1487 H 0.82813 0.58867 0.47425
 H1488 H 0.81249 0.64962 0.40056
 H1489 H 0.72961 0.58958 0.40221
 H1490 H 0.71124 0.61349 0.36156
 H1491 H 0.71486 0.65042 0.32760
 H1492 H 0.79224 0.67559 0.36306
 C1493 C 0.74521 0.06961 0.07491
 C1494 C 0.73945 0.09024 0.09427
 C1495 C 0.72230 0.08448 0.11714
 C1496 C 0.71042 0.05877 0.11988
 C1497 C 0.71609 0.03856 0.10073
 C1498 C 0.73375 0.04334 0.07806
 C1499 C 0.71773 0.10424 0.13738
 C1500 C 0.73002 0.12990 0.13517
 C1501 C 0.74638 0.13620 0.11190
 C1502 C 0.75110 0.11631 0.09163
 C1503 C 0.75810 0.16218 0.10958
 C1504 C 0.75429 0.18140 0.13041
 C1505 C 0.73893 0.17496 0.15415
 C1506 C 0.72658 0.14918 0.15619
 H1507 H 0.75979 0.07359 0.05844
 H1508 H 0.69705 0.05409 0.13715
 H1509 H 0.70657 0.01884 0.10373
 H1510 H 0.70496 0.09946 0.15510
 H1511 H 0.76409 0.12101 0.07406
 H1512 H 0.77060 0.16750 0.09186
 H1513 H 0.76420 0.20103 0.12838
 H1514 H 0.71456 0.14401 0.17429
 C1515 C 0.24213 0.55098 0.59218
 C1516 C 0.24443 0.57442 0.60828
 C1517 C 0.26864 0.59049 0.60663
 C1518 C 0.29019 0.58270 0.58895
 C1519 C 0.28777 0.55921 0.57309
 C1520 C 0.26367 0.54338 0.57445
 C1521 C 0.27105 0.61384 0.62293
 C1522 C 0.24980 0.62098 0.64126
 C1523 C 0.22568 0.60475 0.64294
 C1524 C 0.22302 0.58181 0.62622
 C1525 C 0.20488 0.61129 0.66192
 C1526 C 0.20834 0.63311 0.67974
 C1527 C 0.23222 0.64922 0.67834
 C1528 C 0.25267 0.64350 0.65868
 H1529 H 0.22358 0.53865 0.59329
 H1530 H 0.30894 0.59466 0.58749
 H1531 H 0.30464 0.55337 0.55962
 H1532 H 0.28965 0.62610 0.62176
 H1533 H 0.20453 0.56940 0.62758
 H1534 H 0.18633 0.59904 0.66353
 H1535 H 0.19250 0.63725 0.69498
 H1536 H 0.27137 0.65566 0.65800
 C1537 C 0.75661 0.93709 0.90765
 C1538 C 0.75337 0.91241 0.89337
 C1539 C 0.73212 0.89418 0.90112
 C1540 C 0.71424 0.90113 0.92274
 C1541 C 0.71744 0.92575 0.93664
 C1542 C 0.73886 0.94378 0.92960
 C1543 C 0.72893 0.86943 0.88701
 C1544 C 0.74642 0.86282 0.86489
 C1545 C 0.76745 0.88127 0.85698
 C1546 C 0.77094 0.90575 0.87139
 C1547 C 0.78447 0.87513 0.83451
 C1548 C 0.78046 0.85126 0.81963
 C1549 C 0.75970 0.83268 0.82715
 C1550 C 0.74296 0.83836 0.85017
 H1551 H 0.77300 0.95101 0.90189
 H1552 H 0.69768 0.88756 0.92884
 H1553 H 0.70323 0.93074 0.95313
 H1554 H 0.71263 0.85550 0.89305
 H1555 H 0.78715 0.91975 0.86527
 H1556 H 0.80068 0.88900 0.82816
 H1557 H 0.79376 0.84725 0.80214
 H1558 H 0.72676 0.82425 0.85599
 C1559 C 0.26996 0.43872 0.40485
 C1560 C 0.26483 0.41514 0.38957
 C1561 C 0.23932 0.40134 0.39267
 C1562 C 0.21944 0.41134 0.41110
 C1563 C 0.22474 0.43480 0.42625
 C1564 C 0.25001 0.44853 0.42330
 C1565 C 0.23395 0.37802 0.37707
 C1566 C 0.25354 0.36858 0.35803
 C1567 C 0.27912 0.38233 0.35508
 C1568 C 0.28469 0.40531 0.37106
 C1569 C 0.29840 0.37338 0.33555
 C1570 C 0.29196 0.35177 0.31829
 C1571 C 0.26649 0.33833 0.32075
 C1572 C 0.24758 0.34627 0.34109
 H1573 H 0.28946 0.44938 0.40261
 H1574 H 0.19978 0.40109 0.41373
 H1575 H 0.20915 0.44227 0.44039
 H1576 H 0.21430 0.36759 0.37930
 H1577 H 0.30423 0.41590 0.36864
 H1578 H 0.31808 0.38364 0.33302
 H1579 H 0.30666 0.34583 0.30255
 H1580 H 0.22775 0.33609 0.34264
 C1581 C 0.24641 0.91973 0.06488
 C1582 C 0.24317 0.90101 0.08649
 C1583 C 0.22298 0.88034 0.08441
 C1584 C 0.20574 0.87936 0.06129
 C1585 C 0.20892 0.89825 0.04005
 C1586 C 0.22939 0.91840 0.04152
 C1587 C 0.22072 0.86065 0.10517
 C1588 C 0.23830 0.86140 0.12805
 C1589 C 0.25773 0.88265 0.13074
 C1590 C 0.26012 0.90229 0.10987
 C1591 C 0.27474 0.88361 0.15409
 C1592 C 0.27308 0.86324 0.17418
 C1593 C 0.25469 0.84144 0.17099
 C1594 C 0.23705 0.84089 0.14807
 H1595 H 0.26255 0.93497 0.06590
 H1596 H 0.19009 0.86374 0.05944
 H1597 H 0.19569 0.89687 0.02216
 H1598 H 0.20559 0.84450 0.10331
 H1599 H 0.27539 0.91831 0.11164
 H1600 H 0.28959 0.89987 0.15661
 H1601 H 0.28679 0.86405 0.19175
 H1602 H 0.22246 0.82434 0.14573
 C1603 C 0.76482 0.39678 0.54603
 C1604 C 0.76160 0.37873 0.56810
 C1605 C 0.74312 0.38522 0.58971
 C1606 C 0.72741 0.40923 0.58827
 C1607 C 0.73026 0.42679 0.56581
 C1608 C 0.74949 0.42103 0.54493
 C1609 C 0.74053 0.36751 0.61222
 C1610 C 0.75551 0.34302 0.61290
 C1611 C 0.77318 0.33613 0.59073
 C1612 C 0.77646 0.35424 0.56872
 C1613 C 0.78703 0.31106 0.59077
 C1614 C 0.78318 0.29279 0.61242
 C1615 C 0.76614 0.29967 0.63474
 C1616 C 0.75270 0.32499 0.63511
 H1617 H 0.77937 0.39209 0.52971
 H1618 H 0.71285 0.41435 0.60443
 H1619 H 0.71778 0.44512 0.56488
 H1620 H 0.72660 0.37258 0.62896
 H1621 H 0.79028 0.34910 0.55191
 H1622 H 0.80050 0.30541 0.57389
 H1623 H 0.79374 0.27333 0.61187
 H1624 H 0.73946 0.33026 0.65226
 C1625 C 0.06282 0.08253 0.76691
 C1626 C 0.08563 0.09892 0.76101
 C1627 C 0.10879 0.08791 0.74724
 C1628 C 0.10805 0.06075 0.73859
 C1629 C 0.08431 0.04497 0.74293
 C1630 C 0.06125 0.05550 0.75736
 C1631 C 0.13191 0.10444 0.74188
 C1632 C 0.13137 0.13215 0.74894
 C1633 C 0.10736 0.14329 0.76131
 C1634 C 0.08503 0.12649 0.76794
 C1635 C 0.10590 0.17113 0.76679
 C1636 C 0.12834 0.18783 0.76087
 C1637 C 0.15308 0.17690 0.75028
 C1638 C 0.15434 0.14900 0.74393
 H1639 H 0.04603 0.09115 0.77890
 H1640 H 0.12537 0.05205 0.72746
 H1641 H 0.08367 0.02496 0.73378
 H1642 H 0.15000 0.09592 0.73181
 H1643 H 0.06688 0.13504 0.77790
 H1644 H 0.08746 0.18000 0.77585
 H1645 H 0.12664 0.20924 0.76572
 H1646 H 0.17317 0.14040 0.73540
 C1647 C 0.56358 0.60052 0.27297
 C1648 C 0.58795 0.61566 0.26987
 C1649 C 0.60773 0.60805 0.24983
 C1650 C 0.60251 0.58557 0.23298
 C1651 C 0.57782 0.57102 0.23574
 C1652 C 0.55828 0.57818 0.25592
 C1653 C 0.63206 0.62334 0.24662
 C1654 C 0.63647 0.64659 0.26269
 C1655 C 0.61637 0.65435 0.28239
 C1656 C 0.59250 0.63865 0.28612
 C1657 C 0.62022 0.67799 0.29782
 C1658 C 0.64356 0.69405 0.29359
 C1659 C 0.66380 0.68655 0.27424
 C1660 C 0.66036 0.66254 0.25906
 H1661 H 0.54846 0.60634 0.28840
 H1662 H 0.61726 0.57958 0.21731
 H1663 H 0.57381 0.55427 0.22194
 H1664 H 0.64727 0.61747 0.23131
 H1665 H 0.57719 0.64463 0.30130
 H1666 H 0.60502 0.68423 0.31297
 H1667 H 0.64598 0.71229 0.30577
 H1668 H 0.67585 0.65672 0.24403
 C1669 C 0.10394 0.95317 0.25389
 C1670 C 0.11771 0.92794 0.25415
 C1671 C 0.10493 0.90492 0.24243
 C1672 C 0.07897 0.90761 0.23003
 C1673 C 0.06548 0.93270 0.22973
 C1674 C 0.07725 0.95571 0.24239
 C1675 C 0.11837 0.87961 0.24301
 C1676 C 0.14475 0.87709 0.25471
 C1677 C 0.15778 0.90020 0.26603
 C1678 C 0.14406 0.92539 0.26598
 C1679 C 0.18455 0.89781 0.27681
 C1680 C 0.19861 0.87300 0.27562
 C1681 C 0.18592 0.84993 0.26425
 C1682 C 0.15864 0.85197 0.25454
 H1683 H 0.11358 0.97048 0.26368
 H1684 H 0.06913 0.89033 0.22040
 H1685 H 0.04581 0.93416 0.21915
 H1686 H 0.10849 0.86199 0.23400
 H1687 H 0.15403 0.94304 0.27481
 H1688 H 0.19488 0.91527 0.28557
 H1689 H 0.21959 0.87190 0.28341
 H1690 H 0.14863 0.83431 0.24591
 C1691 C 0.60211 0.42237 0.72565
 C1692 C 0.61652 0.39758 0.72784
 C1693 C 0.61298 0.38105 0.75144
 C1694 C 0.59532 0.38978 0.77258
 C1695 C 0.58116 0.41452 0.77027
 C1696 C 0.58414 0.43079 0.74669
 C1697 C 0.62723 0.35617 0.75360
 C1698 C 0.64532 0.34779 0.73265
 C1699 C 0.64901 0.36450 0.70917
 C1700 C 0.63444 0.38912 0.70682
 C1701 C 0.66755 0.35648 0.68853
 C1702 C 0.68276 0.33247 0.69137
 C1703 C 0.67940 0.31583 0.71458
 C1704 C 0.66029 0.32327 0.73500
 H1705 H 0.60457 0.43500 0.70751
 H1706 H 0.59246 0.37749 0.79088
 H1707 H 0.56760 0.42092 0.78680
 H1708 H 0.62449 0.34352 0.77170
 H1709 H 0.63727 0.40184 0.68878
 H1710 H 0.67060 0.36897 0.67040
 H1711 H 0.69720 0.32677 0.67538
 H1712 H 0.65787 0.31050 0.75306
 C1713 C 0.90741 0.06211 0.24677
 C1714 C 0.88878 0.08316 0.24116
 C1715 C 0.89167 0.09871 0.21685
 C1716 C 0.91240 0.09176 0.19784
 C1717 C 0.92998 0.06960 0.20293
 C1718 C 0.92807 0.05504 0.22777
 C1719 C 0.87354 0.12057 0.21190
 C1720 C 0.85189 0.12615 0.23039
 C1721 C 0.84813 0.10933 0.25378
 C1722 C 0.86694 0.08839 0.25931
 C1723 C 0.82564 0.11377 0.27141
 C1724 C 0.80736 0.13515 0.26638
 C1725 C 0.81173 0.15279 0.24413
 C1726 C 0.83391 0.14824 0.22604
 H1727 H 0.90546 0.05069 0.26579
 H1728 H 0.91459 0.10304 0.17880
 H1729 H 0.94501 0.06377 0.18748
 H1730 H 0.87606 0.13299 0.19360
 H1731 H 0.86439 0.07592 0.27759
 H1732 H 0.82234 0.10088 0.28921
 H1733 H 0.79039 0.13866 0.28055
 H1734 H 0.83710 0.16187 0.20876
 C1735 C 0.41139 0.53973 0.73831
 C1736 C 0.39436 0.56201 0.74456
 C1737 C 0.40307 0.58118 0.76428
 C1738 C 0.42832 0.57728 0.77795
 C1739 C 0.44455 0.55434 0.77250
 C1740 C 0.43646 0.53552 0.75241
 C1741 C 0.38614 0.60358 0.77043
 C1742 C 0.36017 0.60651 0.75782
 C1743 C 0.35106 0.58679 0.73882
 C1744 C 0.36842 0.56494 0.73194
 C1745 C 0.32465 0.58919 0.72709
 C1746 C 0.30751 0.61110 0.73388
 C1747 C 0.31672 0.63121 0.75207
 C1748 C 0.34308 0.62879 0.76401
 H1749 H 0.40480 0.52523 0.72295
 H1750 H 0.43513 0.59155 0.79342
 H1751 H 0.46327 0.55106 0.78431
 H1752 H 0.39295 0.61847 0.78533
 H1753 H 0.36154 0.54997 0.71715
 H1754 H 0.31729 0.57419 0.71261
 H1755 H 0.28737 0.61279 0.72422
 H1756 H 0.35021 0.64420 0.77819
 C1757 C 0.94463 0.89273 0.77496
 C1758 C 0.92097 0.87745 0.76911
 C1759 C 0.90513 0.88345 0.74541
 C1760 C 0.91355 0.90445 0.72774
 C1761 C 0.93758 0.91914 0.73338
 C1762 C 0.95313 0.91358 0.75715
 C1763 C 0.88147 0.86805 0.73951
 C1764 C 0.87400 0.84621 0.75658
 C1765 C 0.89026 0.83999 0.78000
 C1766 C 0.91333 0.85590 0.78633
 C1767 C 0.88346 0.81765 0.79654
 C1768 C 0.86103 0.80133 0.78975
 C1769 C 0.84462 0.80738 0.76669
 C1770 C 0.85089 0.83011 0.75036
 H1771 H 0.95668 0.88824 0.79322
 H1772 H 0.90185 0.90919 0.70935
 H1773 H 0.94418 0.93479 0.71911
 H1774 H 0.86925 0.87269 0.72140
 H1775 H 0.92567 0.85115 0.80435
 H1776 H 0.89567 0.81262 0.81453
 H1777 H 0.85621 0.78407 0.80281
 H1778 H 0.83826 0.83476 0.73254
 C1779 C 0.43904 0.41508 0.26450
 C1780 C 0.41568 0.39994 0.25725
 C1781 C 0.39903 0.40841 0.23489
 C1782 C 0.40652 0.43156 0.21976
 C1783 C 0.43045 0.44595 0.22650
 C1784 C 0.44670 0.43808 0.24914
 C1785 C 0.37557 0.39328 0.22769
 C1786 C 0.36922 0.36921 0.24189
 C1787 C 0.38646 0.36037 0.26371
 C1788 C 0.40921 0.37605 0.27158
 C1789 C 0.38090 0.33574 0.27710
 C1790 C 0.35858 0.31988 0.26888
 C1791 C 0.34104 0.32871 0.24764
 C1792 C 0.34619 0.35354 0.23437
 H1793 H 0.45162 0.40870 0.28182
 H1794 H 0.39424 0.43817 0.20233
 H1795 H 0.43644 0.46314 0.21387
 H1796 H 0.36266 0.39988 0.21069
 H1797 H 0.42225 0.36935 0.28845
 H1798 H 0.39392 0.32863 0.29379
 H1799 H 0.35459 0.30092 0.27958
 H1800 H 0.33266 0.36031 0.21793
   
