data_POSCAR
  _audit_creation_date              2014-09-24
  _audit_creation_method            'ToBaCCo'
  _symmetry_space_group_name_H-M    'P1'
  _symmetry_Int_Tables_number       1
  _symmetry_cell_setting            triclinic
  loop_
  _symmetry_equiv_pos_as_xyz
 x,y,z
_cell_length_a 53.3309
_cell_length_b 52.8060
_cell_length_c 40.3805
_cell_angle_alpha 90.395500
_cell_angle_beta 91.691100
_cell_angle_gamma 90.262800
loop_
  _atom_site_label
  _atom_site_type_symbol
  _atom_site_fract_x
  _atom_site_fract_y
  _atom_site_fract_z
C1 C 0.30267 -0.03125 0.22435
 C2 C 0.31755 -0.01007 0.21730
 C3 C 0.33809 -0.01286 0.19680
 C4 C 0.34431 -0.03658 0.18346
 C5 C 0.32938 -0.05762 0.19086
 C6 C 0.30873 -0.05550 0.21190
 C7 C 0.31637 0.01303 0.23804
 C8 C 0.33185 0.01401 0.26664
 C9 C 0.33558 0.03666 0.28494
 C10 C 0.32224 0.05824 0.27416
 C11 C 0.30637 0.05748 0.24574
 C12 C 0.30356 0.03484 0.22748
 H13 H 0.28805 -0.02907 0.24218
 H14 H 0.35037 0.00327 0.19345
 H15 H 0.34274 -0.00271 0.27240
 H16 H 0.29235 0.03446 0.20466
 H17 H 0.33374 -0.07568 0.17964
 H18 H 0.32390 0.07595 0.28772
 C19 C 0.20179 -0.03781 0.76383
 C20 C 0.18712 -0.01671 0.77146
 C21 C 0.16860 -0.01870 0.79523
 C22 C 0.16442 -0.04157 0.81186
 C23 C 0.17958 -0.06245 0.80433
 C24 C 0.19780 -0.06089 0.77986
 C25 C 0.18732 0.00603 0.75060
 C26 C 0.17000 0.00748 0.72397
 C27 C 0.16594 0.03034 0.70664
 C28 C 0.18085 0.05147 0.71610
 C29 C 0.19851 0.05006 0.74264
 C30 C 0.20143 0.02738 0.76012
 H31 H 0.21494 -0.03674 0.74392
 H32 H 0.15635 -0.00269 0.79888
 H33 H 0.15815 -0.00890 0.71914
 H34 H 0.21413 0.02653 0.78153
 H35 H 0.17673 -0.08038 0.81656
 H36 H 0.17880 0.06927 0.70319
 C37 C 0.70185 0.47967 0.27576
 C38 C 0.68464 0.49834 0.28465
 C39 C 0.66871 0.49412 0.31098
 C40 C 0.66929 0.47114 0.32806
 C41 C 0.68659 0.45261 0.31938
 C42 C 0.70314 0.45683 0.29341
 C43 C 0.68010 0.52055 0.26364
 C44 C 0.66075 0.51921 0.23946
 C45 C 0.65310 0.54081 0.22185
 C46 C 0.66540 0.56389 0.22890
 C47 C 0.68444 0.56567 0.25375
 C48 C 0.69200 0.54377 0.27077
 H49 H 0.71365 0.48262 0.25473
 H50 H 0.65481 0.50824 0.31696
 H51 H 0.65084 0.50141 0.23577
 H52 H 0.70608 0.54500 0.29063
 H53 H 0.68663 0.43463 0.33218
 H54 H 0.66000 0.58072 0.21532
 C55 C 0.79783 0.45814 0.70381
 C56 C 0.81176 0.47964 0.69541
 C57 C 0.83071 0.47744 0.67225
 C58 C 0.83623 0.45393 0.65758
 C59 C 0.82146 0.43283 0.66536
 C60 C 0.80281 0.43453 0.68918
 C61 C 0.81195 0.50220 0.71720
 C62 C 0.82671 0.50127 0.74646
 C63 C 0.83178 0.52319 0.76578
 C64 C 0.82030 0.54594 0.75555
 C65 C 0.80524 0.54706 0.72648
 C66 C 0.80127 0.52521 0.70703
 H67 H 0.78470 0.45941 0.72372
 H68 H 0.84279 0.49365 0.66844
 H69 H 0.83608 0.48360 0.75195
 H70 H 0.79069 0.52626 0.68377
 H71 H 0.82534 0.41462 0.65424
 H72 H 0.82280 0.56314 0.77002
 C73 C 0.23413 0.42105 1.01994
 C74 C 0.24297 0.43735 0.99557
 C75 C 0.26399 0.45252 1.00223
 C76 C 0.27716 0.45097 1.03268
 C77 C 0.26799 0.43492 1.05728
 C78 C 0.24650 0.41936 1.05128
 C79 C 0.23300 0.43528 0.96133
 C80 C 0.21042 0.44675 0.95177
 C81 C 0.20015 0.44281 0.91974
 C82 C 0.21252 0.42684 0.89750
 C83 C 0.23552 0.41541 0.90678
 C84 C 0.24581 0.42040 0.93862
 H85 H 0.21774 0.40961 1.01385
 H86 H 0.27090 0.46449 0.98277
 H87 H 0.20044 0.45800 0.96961
 H88 H 0.26357 0.41216 0.94639
 H89 H 0.27936 0.43274 1.07969
 H90 H 0.20376 0.42276 0.87351
 C91 C 0.75629 0.10154 1.05204
 C92 C 0.75356 0.08104 1.03018
 C93 C 0.73796 0.06076 1.03769
 C94 C 0.72273 0.06172 1.06544
 C95 C 0.72541 0.08266 1.08722
 C96 C 0.74267 0.10255 1.08133
 C97 C 0.76591 0.08145 0.99823
 C98 C 0.78494 0.06430 0.99193
 C99 C 0.79796 0.06513 0.96217
 C100 C 0.78969 0.08225 0.93741
 C101 C 0.76935 0.09870 0.94292
 C102 C 0.75807 0.09851 0.97385
 H103 H 0.76832 0.11711 1.04519
 H104 H 0.73707 0.04477 1.02079
 H105 H 0.78962 0.05050 1.01079
 H106 H 0.74245 0.11092 0.97867
 H107 H 0.71418 0.08326 1.10898
 H108 H 0.79930 0.08332 0.91423
 C109 C 0.26527 0.58752 0.53069
 C110 C 0.25556 0.57185 0.50531
 C111 C 0.23587 0.55514 0.51149
 C112 C 0.22480 0.55450 0.54273
 C113 C 0.23502 0.57019 0.56824
 C114 C 0.25526 0.58670 0.56237
 C115 C 0.26506 0.57395 0.47164
 C116 C 0.28757 0.56237 0.46360
 C117 C 0.29738 0.56515 0.43191
 C118 C 0.28428 0.57998 0.40829
 C119 C 0.26158 0.59187 0.41626
 C120 C 0.25202 0.58843 0.44798
 H121 H 0.28052 0.60046 0.52568
 H122 H 0.22902 0.54297 0.49150
 H123 H 0.29779 0.55177 0.48246
 H124 H 0.23461 0.59741 0.45457
 H125 H 0.22650 0.57065 0.59223
 H126 H 0.29207 0.58282 0.38411
 C127 C 0.74294 0.91814 0.54980
 C128 C 0.75164 0.93433 0.52569
 C129 C 0.77357 0.94820 0.53148
 C130 C 0.78854 0.94484 0.56065
 C131 C 0.77948 0.92788 0.58488
 C132 C 0.75687 0.91420 0.57923
 C133 C 0.73907 0.93442 0.49290
 C134 C 0.71619 0.94668 0.48843
 C135 C 0.70195 0.94372 0.45880
 C136 C 0.71174 0.92891 0.43303
 C137 C 0.73517 0.91680 0.43714
 C138 C 0.74870 0.91983 0.46725
 H139 H 0.72566 0.90773 0.54480
 H140 H 0.77847 0.96160 0.51264
 H141 H 0.70940 0.95815 0.50858
 H142 H 0.76652 0.91036 0.47117
 H143 H 0.79071 0.92353 0.60680
 H144 H 0.70065 0.92573 0.41048
 C145 C -0.02085 0.23412 0.36054
 C146 C 0.00193 0.23288 0.37845
 C147 C 0.00642 0.21318 0.40073
 C148 C -0.01233 0.19514 0.40692
 C149 C -0.03552 0.19709 0.38925
 C150 C -0.04018 0.21625 0.36537
 C151 C 0.01929 0.25458 0.37818
 C152 C 0.01416 0.27559 0.39820
 C153 C 0.03092 0.29605 0.40056
 C154 C 0.05288 0.29537 0.38231
 C155 C 0.05804 0.27463 0.36155
 C156 C 0.04109 0.25417 0.35954
 H157 H -0.02292 0.24926 0.34285
 H158 H 0.02388 0.21333 0.41516
 H159 H -0.00267 0.27569 0.41262
 H160 H 0.04510 0.23783 0.34425
 H161 H -0.04997 0.18350 0.39445
 H162 H 0.06578 0.31129 0.38375
 C163 C -0.03918 0.75098 0.13182
 C164 C -0.01748 0.74918 0.11315
 C165 C -0.00906 0.77009 0.09549
 C166 C -0.02198 0.79302 0.09643
 C167 C -0.04366 0.79481 0.11525
 C168 C -0.05288 0.77386 0.13305
 C169 C -0.00271 0.72573 0.11243
 C170 C -0.00929 0.70616 0.09012
 C171 C 0.00736 0.68594 0.08449
 C172 C 0.03032 0.68555 0.10302
 C173 C 0.03669 0.70477 0.12602
 C174 C 0.02002 0.72482 0.13048
 H175 H -0.04553 0.73416 0.14428
 H176 H 0.00792 0.76858 0.08152
 H177 H -0.02644 0.70804 0.07533
 H178 H 0.02526 0.74047 0.14682
 H179 H -0.05283 0.81299 0.11644
 H180 H 0.04317 0.66990 0.10049
 C181 C 0.45861 0.26238 0.62727
 C182 C 0.48270 0.26393 0.61469
 C183 C 0.49100 0.28665 0.60104
 C184 C 0.47497 0.30764 0.59897
 C185 C 0.45076 0.30592 0.61178
 C186 C 0.44247 0.28329 0.62606
 C187 C 0.49842 0.24112 0.61382
 C188 C 0.48998 0.21989 0.59563
 C189 C 0.50467 0.19810 0.59443
 C190 C 0.52768 0.19730 0.61201
 C191 C 0.53641 0.21844 0.63046
 C192 C 0.52165 0.24045 0.63099
 H193 H 0.45248 0.24475 0.63806
 H194 H 0.50948 0.28759 0.59062
 H195 H 0.47212 0.22043 0.58211
 H196 H 0.52819 0.25709 0.64459
 H197 H 0.43827 0.32201 0.61012
 H198 H 0.53870 0.18012 0.61133
 C199 C 0.48274 0.73282 0.86716
 C200 C 0.50488 0.73252 0.88667
 C201 C 0.51059 0.71157 0.90668
 C202 C 0.49399 0.69073 0.90795
 C203 C 0.47225 0.69113 0.88710
 C204 C 0.46619 0.71214 0.86728
 C205 C 0.52106 0.75513 0.88845
 C206 C 0.51557 0.77486 0.91043
 C207 C 0.53158 0.79596 0.91372
 C208 C 0.55310 0.79714 0.89450
 C209 C 0.55847 0.77768 0.87188
 C210 C 0.54232 0.75667 0.86901
 H211 H 0.47807 0.74953 0.85289
 H212 H 0.52717 0.71259 0.92277
 H213 H 0.49908 0.77352 0.92538
 H214 H 0.54659 0.74122 0.85233
 H215 H 0.45995 0.67479 0.88556
 H216 H 0.56541 0.81349 0.89659
 C217 C -0.28805 0.56748 1.00359
 C218 C -0.26890 0.58572 1.00861
 C219 C -0.27284 0.60643 1.02962
 C220 C -0.29516 0.60883 1.04650
 C221 C -0.31350 0.59002 1.04299
 C222 C -0.31054 0.56932 1.02118
 C223 C -0.24495 0.58460 0.99118
 C224 C -0.23817 0.60530 0.97171
 C225 C -0.21465 0.60652 0.95686
 C226 C -0.19799 0.58628 0.96197
 C227 C -0.20407 0.56596 0.98250
 C228 C -0.22768 0.56499 0.99695
 H229 H -0.28514 0.55177 0.98675
 H230 H -0.25824 0.62064 1.03316
 H231 H -0.25184 0.62014 0.96755
 H232 H -0.23225 0.54957 1.01331
 H233 H -0.33091 0.59262 1.05573
 H234 H -0.17934 0.58701 0.95204
 C235 C -0.27679 0.45640 0.52258
 C236 C -0.25545 0.44212 0.51553
 C237 C -0.25555 0.42644 0.48753
 C238 C -0.27691 0.42428 0.46676
 C239 C -0.29792 0.43921 0.47315
 C240 C -0.29822 0.45568 0.50103
 C241 C -0.23421 0.44011 0.53954
 C242 C -0.23590 0.42234 0.56493
 C243 C -0.21453 0.41507 0.58365
 C244 C -0.19149 0.42684 0.57744
 C245 C -0.18936 0.44454 0.55175
 C246 C -0.21094 0.45121 0.53298
 H247 H -0.27627 0.46831 0.54452
 H248 H -0.23947 0.41448 0.48323
 H249 H -0.25357 0.41250 0.56789
 H250 H -0.20939 0.46364 0.51189
 H251 H -0.31449 0.43666 0.45730
 H252 H -0.17490 0.42146 0.59173
 C253 C 0.22558 -0.05395 -0.01155
 C254 C 0.24774 -0.06714 -0.01698
 C255 C 0.24825 -0.08576 -0.04186
 C256 C 0.22647 -0.09209 -0.06106
 C257 C 0.20461 -0.07781 -0.05587
 C258 C 0.20396 -0.05912 -0.03098
 C259 C 0.26786 -0.06687 0.00878
 C260 C 0.26457 -0.08212 0.03648
 C261 C 0.28435 -0.08675 0.05955
 C262 C 0.30738 -0.07424 0.05464
 C263 C 0.31099 -0.05884 0.02675
 C264 C 0.29105 -0.05519 0.00383
 H265 H 0.22486 -0.04054 0.00885
 H266 H 0.26502 -0.09716 -0.04312
 H267 H 0.24696 -0.09228 0.03765
 H268 H 0.29389 -0.04443 -0.01851
 H269 H 0.18765 -0.08149 -0.07050
 H270 H 0.32284 -0.07633 0.07233
 C271 C 0.21538 1.06399 0.49694
 C272 C 0.23059 1.08526 0.50390
 C273 C 0.22274 1.10356 0.52664
 C274 C 0.20016 1.10070 0.54302
 C275 C 0.18541 1.07916 0.53664
 C276 C 0.19267 1.06097 0.51323
 C277 C 0.25434 1.08947 0.48692
 C278 C 0.25802 1.11243 0.47059
 C279 C 0.28129 1.11868 0.45700
 C280 C 0.30095 1.10109 0.46051
 C281 C 0.29750 1.07812 0.47719
 C282 C 0.27399 1.07209 0.48971
 H283 H 0.22087 1.05026 0.47849
 H284 H 0.23454 1.11995 0.53202
 H285 H 0.24209 1.12493 0.46774
 H286 H 0.27147 1.05468 0.50331
 H287 H 0.16766 1.07714 0.54879
 H288 H 0.31943 1.10553 0.45172
 C289 C 0.14177 0.50085 0.20450
 C290 C 0.15749 0.51151 0.22931
 C291 C 0.17293 0.53203 0.22215
 C292 C 0.17297 0.54220 0.19022
 C293 C 0.15713 0.53155 0.16535
 C294 C 0.14148 0.51078 0.17233
 C295 C 0.15857 0.50097 0.26278
 C296 C 0.17249 0.47911 0.26896
 C297 C 0.17468 0.46936 0.30104
 C298 C 0.16257 0.48153 0.32704
 C299 C 0.14814 0.50346 0.32094
 C300 C 0.14657 0.51323 0.28869
 H301 H 0.12998 0.48478 0.21019
 H302 H 0.18473 0.54027 0.24176
 H303 H 0.18156 0.46958 0.24870
 H304 H 0.13591 0.53026 0.28361
 H305 H 0.15683 0.53955 0.14070
 H306 H 0.16337 0.47319 0.35149
 C307 C -0.15180 1.01148 0.20303
 C308 C -0.16982 1.00579 0.22623
 C309 C -0.18897 0.98862 0.21836
 C310 C -0.18914 0.97439 0.18864
 C311 C -0.17152 0.98140 0.16462
 C312 C -0.15284 1.00012 0.17131
 C313 C -0.16845 1.01707 0.25965
 C314 C -0.18571 1.03555 0.26844
 C315 C -0.18499 1.04685 0.30033
 C316 C -0.16750 1.03700 0.32397
 C317 C -0.15087 1.01735 0.31578
 C318 C -0.15116 1.00794 0.28323
 H319 H -0.13785 1.02575 0.20955
 H320 H -0.20327 0.98630 0.23646
 H321 H -0.19986 1.04048 0.24993
 H322 H -0.13862 0.99281 0.27642
 H323 H -0.17046 0.97073 0.14187
 H324 H -0.16549 1.04533 0.34840
 C325 C 0.34464 0.49187 -0.29830
 C326 C 0.32947 0.48014 -0.27525
 C327 C 0.31391 0.46007 -0.28500
 C328 C 0.31322 0.45144 -0.31794
 C329 C 0.32869 0.46318 -0.34112
 C330 C 0.34490 0.48352 -0.33160
 C331 C 0.32892 0.49014 -0.24125
 C332 C 0.31409 0.51120 -0.23483
 C333 C 0.31544 0.52381 -0.20389
 C334 C 0.33099 0.51309 -0.17869
 C335 C 0.34563 0.49138 -0.18470
 C336 C 0.34453 0.48013 -0.21629
 H337 H 0.35547 0.50823 -0.29002
 H338 H 0.30249 0.45103 -0.26668
 H339 H 0.30157 0.51750 -0.25462
 H340 H 0.35599 0.46382 -0.22169
 H341 H 0.32860 0.45564 -0.36609
 H342 H 0.33356 0.52266 -0.15508
 C343 C 0.64717 -0.01338 -0.29766
 C344 C 0.66310 -0.00203 -0.27363
 C345 C 0.67839 0.01835 -0.28209
 C346 C 0.67795 0.02759 -0.31458
 C347 C 0.66227 0.01577 -0.33875
 C348 C 0.64630 -0.00460 -0.33063
 C349 C 0.66399 -0.01181 -0.23958
 C350 C 0.67814 -0.03345 -0.23243
 C351 C 0.67920 -0.04345 -0.20029
 C352 C 0.66588 -0.03125 -0.17523
 C353 C 0.65138 -0.00958 -0.18220
 C354 C 0.65046 0.00002 -0.21455
 H355 H 0.63596 -0.02947 -0.29047
 H356 H 0.69005 0.02748 -0.26303
 H357 H 0.68786 -0.04280 -0.25225
 H358 H 0.63934 0.01663 -0.22025
 H359 H 0.66144 0.02381 -0.36333
 H360 H 0.66648 -0.03881 -0.15035
 C361 C -0.01604 0.20658 0.87878
 C362 C -0.01665 0.23035 0.86360
 C363 C -0.03714 0.23695 0.84299
 C364 C -0.05661 0.21953 0.83662
 C365 C -0.05591 0.19579 0.85196
 C366 C -0.03583 0.18925 0.87346
 C367 C 0.00511 0.24744 0.86684
 C368 C 0.02735 0.24091 0.85133
 C369 C 0.04739 0.25805 0.85100
 C370 C 0.04554 0.28131 0.86758
 C371 C 0.02353 0.28797 0.88380
 C372 C 0.00320 0.27091 0.88309
 H373 H 0.00008 0.20148 0.89426
 H374 H -0.03746 0.25523 0.83093
 H375 H 0.02857 0.22302 0.83814
 H376 H -0.01426 0.27606 0.89435
 H377 H -0.07139 0.18267 0.84776
 H378 H 0.06139 0.29423 0.86778
 C379 C 0.51857 0.21507 0.13418
 C380 C 0.51789 0.23873 0.15000
 C381 C 0.53780 0.24644 0.17114
 C382 C 0.55848 0.23060 0.17705
 C383 C 0.55895 0.20680 0.16119
 C384 C 0.53909 0.19893 0.13966
 C385 C 0.49546 0.25470 0.14731
 C386 C 0.47456 0.24865 0.16607
 C387 C 0.45448 0.26558 0.16810
 C388 C 0.45528 0.28832 0.15038
 C389 C 0.47597 0.29444 0.13124
 C390 C 0.49608 0.27751 0.12972
 H391 H 0.50280 0.20894 0.11854
 H392 H 0.53664 0.26449 0.18393
 H393 H 0.47457 0.23135 0.18037
 H394 H 0.51259 0.28254 0.11613
 H395 H 0.57490 0.19445 0.16521
 H396 H 0.43974 0.30142 0.15148
 C397 C 0.01444 0.71487 0.62991
 C398 C 0.01617 0.73913 0.64409
 C399 C 0.03680 0.74558 0.66490
 C400 C 0.05546 0.72763 0.67228
 C401 C 0.05344 0.70338 0.65801
 C402 C 0.03309 0.69694 0.63682
 C403 C -0.00507 0.75662 0.64073
 C404 C -0.02718 0.75103 0.65715
 C405 C -0.04673 0.76876 0.65838
 C406 C -0.04410 0.79162 0.64106
 C407 C -0.02240 0.79706 0.62346
 C408 C -0.00272 0.77952 0.62374
 H409 H -0.00179 0.70971 0.61450
 H410 H 0.03772 0.76418 0.67638
 H411 H -0.02811 0.73360 0.67109
 H412 H 0.01455 0.78385 0.61141
 H413 H 0.06795 0.68949 0.66294
 H414 H -0.05946 0.80496 0.63999
 C415 C 0.48719 0.72163 0.36959
 C416 C 0.48483 0.74338 0.35016
 C417 C 0.46189 0.74899 0.33433
 C418 C 0.44112 0.73293 0.33759
 C419 C 0.44354 0.71120 0.35740
 C420 C 0.46653 0.70538 0.37352
 C421 C 0.50595 0.76110 0.34738
 C422 C 0.52561 0.75576 0.32616
 C423 C 0.54447 0.77386 0.32141
 C424 C 0.54394 0.79692 0.33883
 C425 C 0.52469 0.80216 0.36080
 C426 C 0.50557 0.78418 0.36465
 H427 H 0.50496 0.71776 0.38220
 H428 H 0.46018 0.76613 0.31983
 H429 H 0.52582 0.73792 0.31274
 H430 H 0.49010 0.78824 0.38064
 H431 H 0.42771 0.69844 0.35949
 H432 H 0.55898 0.81052 0.33590
 B433 B -0.02283 -0.00030 1.00208
 B434 B -0.03422 -0.01272 0.96593
 B435 B -0.01571 0.01317 0.96604
 B436 B 0.00663 0.01050 0.99636
 B437 B 0.00180 -0.01773 1.01519
 B438 B -0.02391 -0.03196 0.99649
 B439 B 0.01238 -0.02748 0.95064
 B440 B 0.02370 -0.01498 0.98633
 B441 B 0.00502 -0.04099 0.98674
 B442 B -0.01716 -0.03825 0.95610
 B443 B -0.01217 -0.01001 0.93719
 B444 B 0.01309 0.00435 0.95603
 B445 B 0.47761 0.51840 0.51202
 B446 B 0.47249 0.51033 0.47162
 B447 B 0.49173 0.53467 0.48199
 B448 B 0.50798 0.52747 0.51737
 B449 B 0.49862 0.49794 0.52869
 B450 B 0.47613 0.48765 0.50058
 B451 B 0.52000 0.49375 0.46836
 B452 B 0.52539 0.50167 0.50815
 B453 B 0.50569 0.47745 0.49833
 B454 B 0.48971 0.48469 0.46286
 B455 B 0.49937 0.51405 0.45142
 B456 B 0.52127 0.52462 0.47993
 B457 B 0.51274 0.98846 0.50011
 B458 B 0.52380 1.00107 0.46512
 B459 B 0.50479 0.97549 0.46326
 B460 B 0.48297 0.97828 0.49258
 B461 B 0.48869 1.00627 0.51264
 B462 B 0.51427 1.02021 0.49576
 B463 B 0.47732 1.01678 0.44780
 B464 B 0.46627 1.00419 0.48260
 B465 B 0.48538 1.02979 0.48466
 B466 B 0.50709 1.02694 0.45523
 B467 B 0.50133 0.99897 0.43516
 B468 B 0.47588 0.98495 0.45208
 B469 B 0.01554 0.48998 0.98669
 B470 B 0.02261 0.49322 0.94663
 B471 B 0.00378 0.46946 0.95790
 B472 B -0.01453 0.47973 0.98864
 B473 B -0.00708 0.51082 0.99595
 B474 B 0.01623 0.51895 0.96980
 B475 B -0.02512 0.50660 0.93194
 B476 B -0.03249 0.50272 0.97192
 B477 B -0.01362 0.52704 0.96073
 B478 B 0.00484 0.51659 0.93003
 B479 B -0.00264 0.48574 0.92277
 B480 B -0.02584 0.47723 0.94868
 B481 B 0.03720 0.50547 0.50832
 B482 B 0.04733 0.49574 0.54600
 B483 B 0.02572 0.51875 0.54282
 B484 B 0.00632 0.51251 0.50995
 B485 B 0.01582 0.48482 0.49284
 B486 B 0.04147 0.47436 0.51529
 B487 B 0.00178 0.47513 0.55629
 B488 B -0.00849 0.48524 0.51889
 B489 B 0.01314 0.46193 0.52156
 B490 B 0.03267 0.46815 0.55472
 B491 B 0.02309 0.49590 0.57180
 B492 B -0.00235 0.50640 0.54937
 B493 B 0.54087 0.00443 0.00959
 B494 B 0.55025 -0.00287 0.04860
 B495 B 0.52980 0.02089 0.04228
 B496 B 0.51024 0.01303 0.00990
 B497 B 0.51870 -0.01634 -0.00330
 B498 B 0.54375 -0.02613 0.02080
 B499 B 0.50391 -0.02041 0.06091
 B500 B 0.49428 -0.01294 0.02219
 B501 B 0.51499 -0.03677 0.02824
 B502 B 0.53444 -0.02886 0.06068
 B503 B 0.52589 0.00044 0.07383
 B504 B 0.50100 0.01032 0.04971
 B505 B 0.47135 0.48822 0.00271
 B506 B 0.46115 0.49444 0.04098
 B507 B 0.48087 0.47022 0.03527
 B508 B 0.50143 0.47840 0.00596
 B509 B 0.49449 0.50867 -0.00588
 B510 B 0.46931 0.51835 0.01600
 B511 B 0.50773 0.50977 0.06020
 B512 B 0.51801 0.50297 0.02199
 B513 B 0.49832 0.52765 0.02787
 B514 B 0.47759 0.51934 0.05705
 B515 B 0.48464 0.48934 0.06893
 B516 B 0.50972 0.47929 0.04715
 B517 B -0.02653 0.99249 0.50138
 B518 B -0.03311 0.99733 0.54147
 B519 B -0.01364 0.97384 0.53111
 B520 B 0.00375 0.98340 0.49919
 B521 B -0.00486 1.01362 0.49015
 B522 B -0.02799 1.02227 0.51647
 B523 B 0.01443 1.01321 0.55380
 B524 B 0.02112 1.00798 0.51392
 B525 B 0.00165 1.03179 0.52389
 B526 B -0.01587 1.02222 0.55603
 B527 B -0.00712 0.99202 0.56503
 B528 B 0.01580 0.98327 0.53867
 B529 B 0.76016 0.23145 0.26445
 B530 B 0.75762 0.22346 0.30454
 B531 B 0.78080 0.24302 0.29350
 B532 B 0.77003 0.26193 0.26270
 B533 B 0.73944 0.25417 0.25512
 B534 B 0.73168 0.23011 0.28121
 B535 B 0.74403 0.27129 0.31922
 B536 B 0.74712 0.27942 0.27937
 B537 B 0.72357 0.25982 0.28992
 B538 B 0.73438 0.24080 0.32103
 B539 B 0.76508 0.24870 0.32864
 B540 B 0.77283 0.27265 0.30258
 B541 B 0.74294 0.77490 0.73943
 B542 B 0.75121 0.78363 0.77865
 B543 B 0.72859 0.76169 0.77171
 B544 B 0.73635 0.74356 0.73889
 B545 B 0.76461 0.75440 0.72587
 B546 B 0.77346 0.77961 0.75023
 B547 B 0.77142 0.73760 0.78915
 B548 B 0.76337 0.72885 0.75021
 B549 B 0.78583 0.75097 0.75719
 B550 B 0.77795 0.76906 0.78984
 B551 B 0.75011 0.75788 0.80303
 B552 B 0.74090 0.73289 0.77833
 B553 B 0.25592 0.27689 0.74995
 B554 B 0.24368 0.28257 0.71154
 B555 B 0.26796 0.26257 0.71662
 B556 B 0.26437 0.24612 0.75191
 B557 B 0.23708 0.25604 0.76868
 B558 B 0.22455 0.27907 0.74385
 B559 B 0.22554 0.23491 0.70830
 B560 B 0.23762 0.22916 0.74633
 B561 B 0.21345 0.24940 0.74143
 B562 B 0.21708 0.26576 0.70610
 B563 B 0.24412 0.25553 0.68922
 B564 B 0.25691 0.23280 0.71434
 B565 B 0.22739 0.72554 0.25442
 B566 B 0.23767 0.71615 0.21706
 B567 B 0.21230 0.73485 0.21956
 B568 B 0.21685 0.75571 0.25121
 B569 B 0.24572 0.74964 0.26841
 B570 B 0.25835 0.72469 0.24742
 B571 B 0.25224 0.76390 0.20449
 B572 B 0.24195 0.77343 0.24132
 B573 B 0.26731 0.75429 0.23931
 B574 B 0.26262 0.73378 0.20743
 B575 B 0.23384 0.74005 0.19015
 B576 B 0.22103 0.76459 0.21122
 B577 B 0.26919 0.71250 0.74760
 B578 B 0.26508 0.70454 0.78743
 B579 B 0.28749 0.72559 0.77816
 B580 B 0.27705 0.74376 0.74631
 B581 B 0.24744 0.73381 0.73616
 B582 B 0.23996 0.70928 0.76173
 B583 B 0.24766 0.75128 0.80025
 B584 B 0.25209 0.75969 0.76083
 B585 B 0.22948 0.73832 0.76939
 B586 B 0.23992 0.72025 0.80150
 B587 B 0.26960 0.73025 0.81166
 B588 B 0.27709 0.75465 0.78616
 B589 B 0.24602 0.28655 0.22700
 B590 B 0.25021 0.29822 0.26565
 B591 B 0.22640 0.27789 0.25737
 B592 B 0.23601 0.25607 0.22951
 B593 B 0.26645 0.26295 0.22133
 B594 B 0.27528 0.28921 0.24398
 B595 B 0.26406 0.25212 0.28749
 B596 B 0.25963 0.24010 0.24902
 B597 B 0.28347 0.26050 0.25714
 B598 B 0.27386 0.28243 0.28493
 B599 B 0.24350 0.27546 0.29305
 B600 B 0.23476 0.24911 0.27063
 B601 B 0.75678 0.79323 0.25307
 B602 B 0.75198 0.79901 0.21242
 B603 B 0.77412 0.77820 0.22457
 B604 B 0.76378 0.76212 0.25772
 B605 B 0.73455 0.77318 0.26562
 B606 B 0.72728 0.79625 0.23741
 B607 B 0.73319 0.75202 0.20358
 B608 B 0.73805 0.74602 0.24399
 B609 B 0.71596 0.76701 0.23198
 B610 B 0.72627 0.78297 0.19883
 B611 B 0.75543 0.77183 0.19086
 B612 B 0.76277 0.74887 0.21907
 B613 B 0.73184 0.21313 0.75364
 B614 B 0.73741 0.20471 0.71416
 B615 B 0.71466 0.22560 0.72194
 B616 B 0.72388 0.24426 0.75425
 B617 B 0.75315 0.23484 0.76637
 B618 B 0.76154 0.20999 0.74140
 B619 B 0.75535 0.25166 0.70268
 B620 B 0.74922 0.26032 0.74162
 B621 B 0.77234 0.23913 0.73441
 B622 B 0.76306 0.22062 0.70174
 B623 B 0.73382 0.23014 0.68962
 B624 B 0.72530 0.25456 0.71440
 C625 C 0.39456 1.03878 0.35696
 C626 C 0.38158 1.01615 0.35089
 C627 C 0.36123 1.01573 0.32857
 C628 C 0.35378 1.03782 0.31148
 C629 C 0.36653 1.06060 0.32035
 N630 N 0.38652 1.06041 0.34214
 C631 C 0.41789 1.03843 0.37715
 N632 N 0.41867 1.04861 0.40817
 C633 C 0.43841 1.04464 0.42964
 C634 C 0.45836 1.02879 0.42066
 C635 C 0.45843 1.01976 0.38781
 C636 C 0.43822 1.02439 0.36620
 H637 H 0.35142 0.99791 0.32501
 H638 H 0.36209 1.07829 0.30832
 H639 H 0.43729 1.05203 0.45454
 H640 H 0.47320 1.00758 0.37926
 H641 H 0.38748 0.99880 0.36294
 H642 H 0.43782 1.01597 0.34164
 C643 C -0.11038 0.51980 0.83930
 C644 C -0.12495 0.49825 0.83215
 C645 C -0.14487 0.49966 0.80924
 C646 C -0.15047 0.52253 0.79282
 C647 C -0.13639 0.54421 0.80293
 N648 N -0.11684 0.54222 0.82522
 C649 C -0.08745 0.51792 0.86045
 N650 N -0.08160 0.53619 0.88339
 C651 C -0.06137 0.53417 0.90465
 C652 C -0.04582 0.51273 0.90360
 C653 C -0.05100 0.49453 0.87868
 C654 C -0.07168 0.49702 0.85732
 H655 H -0.15585 0.48265 0.80477
 H656 H -0.13940 0.56242 0.79153
 H657 H -0.05827 0.54875 0.92312
 H658 H -0.03978 0.47762 0.87640
 H659 H -0.12080 0.48032 0.84394
 H660 H -0.07549 0.48250 0.83876
 C661 C 0.09859 -0.04649 0.87016
 C662 C 0.10735 -0.06837 0.85467
 C663 C 0.12916 -0.06705 0.83634
 C664 C 0.14263 -0.04411 0.83416
 C665 C 0.13368 -0.02304 0.85172
 N666 N 0.11202 -0.02463 0.86847
 C667 C 0.07469 -0.04630 0.88735
 N668 N 0.05653 -0.02984 0.87736
 C669 C 0.03533 -0.02629 0.89460
 C670 C 0.03209 -0.03863 0.92501
 C671 C 0.05029 -0.05656 0.93483
 C672 C 0.07142 -0.06064 0.91587
 H673 H 0.13479 -0.08377 0.82289
 H674 H 0.14361 -0.00514 0.85176
 H675 H 0.02207 -0.01224 0.88581
 H676 H 0.04954 -0.06591 0.95842
 H677 H 0.09686 -0.08595 0.85562
 H678 H 0.08591 -0.07345 0.92467
 C679 C 0.60914 0.46552 0.39414
 C680 C 0.61107 0.44713 0.36904
 C681 C 0.63189 0.44765 0.34861
 C682 C 0.65048 0.46638 0.35333
 C683 C 0.64865 0.48315 0.37998
 N684 N 0.62822 0.48250 0.39906
 C685 C 0.58597 0.47012 0.41247
 N686 N 0.58378 0.49348 0.42600
 C687 C 0.56348 0.50095 0.44246
 C688 C 0.54311 0.48431 0.44681
 C689 C 0.54474 0.45984 0.43307
 C690 C 0.56616 0.45264 0.41571
 H691 H 0.63270 0.43456 0.32790
 H692 H 0.66273 0.49771 0.38445
 H693 H 0.56391 0.51996 0.45242
 H694 H 0.52965 0.44634 0.43584
 H695 H 0.59614 0.43363 0.36381
 H696 H 0.56719 0.43373 0.40543
 C697 C 0.58852 0.53467 0.15624
 C698 C 0.59305 0.55743 0.17350
 C699 C 0.61430 0.55968 0.19447
 C700 C 0.63126 0.53944 0.19791
 C701 C 0.62624 0.51728 0.17936
 N702 N 0.60522 0.51541 0.15967
 C703 C 0.56584 0.53051 0.13503
 N704 N 0.55591 0.50680 0.13306
 C705 C 0.53643 0.50076 0.11209
 C706 C 0.52651 0.51882 0.08985
 C707 C 0.53551 0.54381 0.09299
 C708 C 0.55516 0.54973 0.11547
 H709 H 0.61694 0.57695 0.20874
 H710 H 0.63889 0.50134 0.18055
 H711 H 0.52981 0.48136 0.11155
 H712 H 0.52797 0.55877 0.07778
 H713 H 0.57992 0.57297 0.17177
 H714 H 0.56261 0.56883 0.11642
 C715 C 0.10278 1.03274 0.64075
 C716 C 0.11144 1.05533 0.65567
 C717 C 0.13314 1.05499 0.67620
 C718 C 0.14614 1.03211 0.68236
 C719 C 0.13744 1.01042 0.66499
 N720 N 0.11639 1.01131 0.64547
 C721 C 0.07887 1.03025 0.62124
 N722 N 0.07032 1.00636 0.61546
 C723 C 0.04959 1.00113 0.59661
 C724 C 0.03597 1.02066 0.58091
 C725 C 0.04338 1.04575 0.58818
 C726 C 0.06500 1.05066 0.60807
 H727 H 0.13844 1.07238 0.68892
 H728 H 0.14726 0.99259 0.66664
 H729 H 0.04444 0.98144 0.59330
 H730 H 0.03323 1.06148 0.57741
 H731 H 0.10117 1.07283 0.65285
 H732 H 0.07101 1.07005 0.61205
 C733 C -0.09161 0.44950 0.61466
 C734 C -0.10125 0.42801 0.62992
 C735 C -0.12544 0.42882 0.64237
 C736 C -0.14020 0.45081 0.63892
 C737 C -0.13038 0.47101 0.62087
 N738 N -0.10652 0.47009 0.61015
 C739 C -0.06503 0.45169 0.60630
 N740 N -0.05296 0.47363 0.61435
 C741 C -0.02981 0.47913 0.60352
 C742 C -0.01814 0.46294 0.58082
 C743 C -0.02894 0.43885 0.57544
 C744 C -0.05253 0.43315 0.58810
 H745 H -0.13184 0.41280 0.65644
 H746 H -0.14120 0.48800 0.61651
 H747 H -0.02185 0.49742 0.61011
 H748 H -0.02044 0.42529 0.55918
 H749 H -0.08966 0.41149 0.63413
 H750 H -0.06167 0.41537 0.58161
 C751 C 0.41423 -0.04130 0.13407
 C752 C 0.40620 -0.06214 0.15229
 C753 C 0.38297 -0.06111 0.16760
 C754 C 0.36763 -0.03953 0.16426
 C755 C 0.37593 -0.01982 0.14414
 N756 N 0.39878 -0.02101 0.13035
 C757 C 0.43969 -0.03922 0.12105
 N758 N 0.45061 -0.01601 0.12207
 C759 C 0.47238 -0.01096 0.10710
 C760 C 0.48397 -0.02954 0.08760
 C761 C 0.47447 -0.05440 0.08908
 C762 C 0.45213 -0.05932 0.10563
 H763 H 0.37760 -0.07668 0.18321
 H764 H 0.36461 -0.00313 0.14002
 H765 H 0.47947 0.00824 0.10869
 H766 H 0.48320 -0.06961 0.07569
 H767 H 0.41823 -0.07839 0.15609
 H768 H 0.44397 -0.07812 0.10463
 C769 C 0.35254 0.47836 0.04419
 C770 C 0.34359 0.46915 0.01345
 C771 C 0.31886 0.46119 0.00963
 C772 C 0.30265 0.46249 0.03631
 C773 C 0.31201 0.47290 0.06648
 N774 N 0.33655 0.48032 0.06978
 C775 C 0.37980 0.48217 0.04905
 N776 N 0.39490 0.46493 0.03486
 C777 C 0.42003 0.46763 0.03445
 C778 C 0.43195 0.48932 0.04809
 C779 C 0.41676 0.50712 0.06411
 C780 C 0.39060 0.50347 0.06493
 H781 H 0.31286 0.45285 -0.01387
 H782 H 0.30005 0.47445 0.08757
 H783 H 0.43022 0.45344 0.02113
 H784 H 0.42492 0.52422 0.07481
 H785 H 0.35597 0.46719 -0.00721
 H786 H 0.37892 0.51764 0.07622
 C787 C -0.13806 0.97586 0.56811
 C788 C -0.15064 0.97438 0.53746
 C789 C -0.17479 0.96470 0.53522
 C790 C -0.18729 0.95658 0.56372
 C791 C -0.17406 0.95957 0.59451
 N792 N -0.14999 0.96862 0.59585
 C793 C -0.11082 0.98009 0.56814
 N794 N -0.09752 0.96461 0.54847
 C795 C -0.07327 0.96896 0.54173
 C796 C -0.06067 0.99063 0.55424
 C797 C -0.07385 1.00662 0.57566
 C798 C -0.09902 1.00135 0.58276
 H799 H -0.18244 0.96200 0.51041
 H800 H -0.18259 0.95464 0.61754
 H801 H -0.06468 0.95617 0.52456
 H802 H -0.06508 1.02360 0.58586
 H803 H -0.14120 0.97929 0.51494
 H804 H -0.10946 1.01433 0.59792
 C805 C -0.13715 0.01799 0.95226
 C806 C -0.14469 0.02561 0.98360
 C807 C -0.16525 0.04134 0.98649
 C808 C -0.17948 0.04873 0.95831
 C809 C -0.17148 0.04029 0.92716
 N810 N -0.15056 0.02566 0.92490
 C811 C -0.11333 0.00409 0.94950
 N812 N -0.10548 -0.01104 0.97489
 C813 C -0.08157 -0.01959 0.97793
 C814 C -0.06342 -0.01118 0.95596
 C815 C -0.07185 0.00181 0.92749
 C816 C -0.09681 0.00955 0.92419
 H817 H -0.16948 0.04810 1.01103
 H818 H -0.18174 0.04522 0.90466
 H819 H -0.07632 -0.03056 0.99955
 H820 H -0.05896 0.00735 0.90873
 H821 H -0.13408 0.02040 1.00571
 H822 H -0.10253 0.02138 0.90355
 C823 C 0.37156 0.53593 0.42361
 C824 C 0.36568 0.55975 0.40998
 C825 C 0.34106 0.56869 0.41077
 C826 C 0.32229 0.55411 0.42510
 C827 C 0.32857 0.52985 0.43653
 N828 N 0.35267 0.52168 0.43591
 C829 C 0.39779 0.52705 0.42923
 N830 N 0.40173 0.50677 0.44937
 C831 C 0.42499 0.49963 0.46024
 C832 C 0.44613 0.51414 0.45233
 C833 C 0.44276 0.53349 0.42894
 C834 C 0.41875 0.54004 0.41740
 H835 H 0.33706 0.58763 0.40199
 H836 H 0.31454 0.51781 0.44730
 H837 H 0.42659 0.48388 0.47714
 H838 H 0.45854 0.54426 0.42035
 H839 H 0.37983 0.57214 0.40039
 H840 H 0.41693 0.55559 0.40030
 C841 C 0.15431 0.51707 0.55711
 C842 C 0.16093 0.52447 0.52533
 C843 C 0.18406 0.53588 0.52062
 C844 C 0.20123 0.53951 0.54737
 C845 C 0.19442 0.53022 0.57858
 N846 N 0.17120 0.51992 0.58281
 C847 C 0.12758 0.51221 0.56299
 N848 N 0.11847 0.48845 0.56831
 C849 C 0.09327 0.48325 0.56686
 C850 C 0.07590 0.50228 0.55788
 C851 C 0.08554 0.52687 0.55337
 C852 C 0.11093 0.53192 0.55666
 H853 H 0.18768 0.54316 0.49625
 H854 H 0.20714 0.53196 0.59984
 H855 H 0.08702 0.46394 0.57016
 H856 H 0.07424 0.54206 0.54369
 H857 H 0.14750 0.52307 0.50470
 H858 H 0.11778 0.55076 0.55128
 C859 C 0.65702 0.01586 0.07386
 C860 C 0.66871 0.01730 0.04341
 C861 C 0.69085 0.03101 0.04102
 C862 C 0.70213 0.04264 0.06923
 C863 C 0.69124 0.03797 0.10006
 N864 N 0.66873 0.02575 0.10142
 C865 C 0.62978 0.01194 0.07315
 N866 N 0.61897 -0.01017 0.08271
 C867 C 0.59391 -0.01475 0.07742
 C868 C 0.57869 0.00311 0.06067
 C869 C 0.59006 0.02594 0.05122
 C870 C 0.61517 0.03054 0.05793
 H871 H 0.69768 0.03409 0.01644
 H872 H 0.69965 0.04538 0.12282
 H873 H 0.58618 -0.03274 0.08488
 H874 H 0.58012 0.03995 0.03669
 H875 H 0.65927 0.01034 0.02098
 H876 H 0.62355 0.04798 0.04945
 C877 C 0.62889 0.97704 0.45260
 C878 C 0.63838 0.96809 0.48292
 C879 C 0.66177 0.95673 0.48457
 C880 C 0.67635 0.95486 0.45623
 C881 C 0.66602 0.96390 0.42609
 N882 N 0.64273 0.97447 0.42496
 C883 C 0.60352 0.98791 0.45098
 N884 N 0.59548 1.00156 0.47727
 C885 C 0.57116 1.00835 0.48022
 C886 C 0.55291 0.99973 0.45692
 C887 C 0.56123 0.98771 0.42811
 C888 C 0.58656 0.98177 0.42503
 H889 H 0.66821 0.94912 0.50812
 H890 H 0.67651 0.96290 0.40361
 H891 H 0.56595 1.01846 0.50234
 H892 H 0.54816 0.98193 0.40858
 H893 H 0.62745 0.96922 0.50503
 H894 H 0.59250 0.97102 0.40373
 C895 C 0.12561 0.47010 0.90869
 C896 C 0.14515 0.48760 0.91420
 C897 C 0.16990 0.47896 0.91603
 C898 C 0.17506 0.45314 0.91143
 C899 C 0.15511 0.43666 0.90349
 N900 N 0.13117 0.44530 0.90329
 C901 C 0.09955 0.47670 0.91575
 N902 N 0.08722 0.46137 0.93659
 C903 C 0.06369 0.46624 0.94631
 C904 C 0.05048 0.48750 0.93433
 C905 C 0.06299 0.50375 0.91271
 C906 C 0.08767 0.49856 0.90364
 H907 H 0.18491 0.49214 0.92249
 H908 H 0.15839 0.41660 0.90007
 H909 H 0.05586 0.45373 0.96431
 H910 H 0.05389 0.52059 0.90320
 H911 H 0.14122 0.50728 0.91961
 H912 H 0.09727 0.51128 0.88729
 C913 C 0.01579 0.36161 0.45911
 C914 C -0.00321 0.35129 0.43828
 C915 C 0.00156 0.32956 0.41974
 C916 C 0.02528 0.31824 0.42165
 C917 C 0.04357 0.32873 0.44347
 N918 N 0.03845 0.34989 0.46144
 C919 C 0.01230 0.38604 0.47630
 N920 N 0.02242 0.38995 0.50729
 C921 C 0.02124 0.41282 0.52303
 C922 C 0.00998 0.43368 0.50707
 C923 C -0.00015 0.42981 0.47480
 C924 C 0.00050 0.40610 0.45976
 H925 H -0.01303 0.32202 0.40320
 H926 H 0.06196 0.32024 0.44600
 H927 H 0.02994 0.41486 0.54744
 H928 H -0.00839 0.44524 0.46079
 H929 H -0.02147 0.36012 0.43608
 H930 H -0.00702 0.40383 0.43470
 C931 C 0.51561 -0.13987 -0.02557
 C932 C 0.49625 -0.15122 -0.04482
 C933 C 0.50124 -0.17273 -0.06372
 C934 C 0.52550 -0.18285 -0.06364
 C935 C 0.54406 -0.17162 -0.04286
 N936 N 0.53877 -0.15061 -0.02470
 C937 C 0.51209 -0.11493 -0.00966
 N938 N 0.52339 -0.10947 0.02026
 C939 C 0.52271 -0.08585 0.03409
 C940 C 0.51096 -0.06579 0.01697
 C941 C 0.49946 -0.07135 -0.01412
 C942 C 0.49951 -0.09577 -0.02704
 H943 H 0.48642 -0.18081 -0.07943
 H944 H 0.56288 -0.17921 -0.04166
 H945 H 0.53239 -0.08255 0.05766
 H946 H 0.49084 -0.05664 -0.02906
 H947 H 0.47762 -0.14314 -0.04592
 H948 H 0.49110 -0.09925 -0.05138
 C949 C 0.00274 -0.14158 1.04410
 C950 C 0.00287 -0.16534 1.02822
 C951 C -0.00480 -0.18683 1.04541
 C952 C -0.01265 -0.18467 1.07822
 C953 C -0.01174 -0.16074 1.09341
 N954 N -0.00425 -0.14019 1.07623
 C955 C 0.00873 -0.11754 1.02724
 N956 N 0.01313 -0.09676 1.04658
 C957 C 0.01501 -0.07311 1.03411
 C958 C 0.01173 -0.06886 0.99986
 C959 C 0.00822 -0.09025 0.97919
 C960 C 0.00682 -0.11456 0.99269
 H961 H -0.00513 -0.20503 1.03286
 H962 H -0.01704 -0.15832 1.11889
 H963 H 0.01695 -0.05760 1.05159
 H964 H 0.00495 -0.08807 0.95278
 H965 H 0.00872 -0.16745 1.00295
 H966 H 0.00258 -0.13039 0.97633
 C967 C 0.49814 0.37519 0.55071
 C968 C 0.51435 0.36379 0.57416
 C969 C 0.50689 0.34162 0.58976
 C970 C 0.48326 0.33096 0.58228
 C971 C 0.46783 0.34263 0.55818
 N972 N 0.47555 0.36415 0.54316
 C973 C 0.50418 0.39985 0.53587
 N974 N 0.49599 0.40509 0.50441
 C975 C 0.49854 0.42847 0.49085
 C976 C 0.50896 0.44860 0.50977
 C977 C 0.51765 0.44325 0.54225
 C978 C 0.51574 0.41899 0.55506
 H979 H 0.51936 0.33306 0.60810
 H980 H 0.44968 0.33463 0.55127
 H981 H 0.49103 0.43158 0.46605
 H982 H 0.52514 0.45807 0.55840
 H983 H 0.53254 0.37197 0.58047
 H984 H 0.52173 0.41572 0.58052
 C985 C 0.48326 1.13229 0.53898
 C986 C 0.49575 1.15218 0.52319
 C987 C 0.50218 1.17407 0.54116
 C988 C 0.49617 1.17613 0.57456
 C989 C 0.48314 1.15633 0.58921
 N990 N 0.47734 1.13508 0.57141
 C991 C 0.47935 1.10716 0.52314
 N992 N 0.47769 1.08677 0.54327
 C993 C 0.47721 1.06266 0.53159
 C994 C 0.47873 1.05767 0.49742
 C995 C 0.47944 1.07855 0.47602
 C996 C 0.47951 1.10326 0.48869
 H997 H 0.51249 1.18908 0.52935
 H998 H 0.47825 1.15746 0.61501
 H999 H 0.47740 1.04755 0.54949
 H1000 H 0.48117 1.07583 0.44959
 H1001 H 0.50164 1.15051 0.49789
 H1002 H 0.48043 1.11894 0.47168
 C1003 C -0.00939 0.62828 1.01374
 C1004 C 0.01554 0.63576 1.02000
 C1005 C 0.02102 0.65474 1.04324
 C1006 C 0.00172 0.66703 1.06014
 C1007 C -0.02321 0.65967 1.05181
 N1008 N -0.02798 0.64046 1.02978
 C1009 C -0.01498 0.60576 0.99257
 N1010 N 0.00277 0.59710 0.97189
 C1011 C 0.00117 0.57403 0.95696
 C1012 C -0.01836 0.55710 0.96447
 C1013 C -0.03836 0.56701 0.98227
 C1014 C -0.03677 0.59126 0.99643
 H1015 H 0.04049 0.66013 1.04708
 H1016 H -0.03891 0.66802 1.06416
 H1017 H 0.01667 0.56806 0.94212
 H1018 H -0.05479 0.55593 0.98654
 H1019 H 0.03087 0.62648 1.00785
 H1020 H -0.05160 0.59776 1.01210
 C1021 C 0.50504 0.62909 -0.02648
 C1022 C 0.52598 0.64275 -0.03697
 C1023 C 0.52250 0.66340 -0.05824
 C1024 C 0.49821 0.67039 -0.06964
 C1025 C 0.47787 0.65645 -0.05744
 N1026 N 0.48181 0.63669 -0.03674
 C1027 C 0.50667 0.60588 -0.00603
 N1028 N 0.48523 0.59742 0.00758
 C1029 C 0.48338 0.57439 0.02192
 C1030 C 0.50361 0.55733 0.02161
 C1031 C 0.52668 0.56677 0.01098
 C1032 C 0.52830 0.59086 -0.00318
 H1033 H 0.53903 0.67301 -0.06678
 H1034 H 0.45865 0.66153 -0.06334
 H1035 H 0.46538 0.56889 0.03132
 H1036 H 0.54343 0.55563 0.01302
 H1037 H 0.54483 0.63763 -0.02915
 H1038 H 0.54593 0.59685 -0.01317
 C1039 C 0.00015 1.13490 0.47380
 C1040 C -0.02373 1.14568 0.47095
 C1041 C -0.02788 1.16577 0.44920
 C1042 C -0.00813 1.17573 0.43065
 C1043 C 0.01589 1.16512 0.43595
 N1044 N 0.01914 1.14487 0.45624
 C1045 C 0.00401 1.11060 0.49100
 N1046 N 0.01669 1.09216 0.47512
 C1047 C 0.01809 1.06812 0.48655
 C1048 C 0.00630 1.06119 0.51598
 C1049 C -0.00593 1.08037 0.53360
 C1050 C -0.00726 1.10502 0.52108
 H1051 H -0.04655 1.17367 0.44752
 H1052 H 0.03177 1.17155 0.42219
 H1053 H 0.02710 1.05415 0.47132
 H1054 H -0.01571 1.07606 0.55600
 H1055 H -0.03935 1.13786 0.48412
 H1056 H -0.01763 1.11934 0.53416
 C1057 C 0.80025 0.66737 0.89359
 C1058 C 0.78684 0.67184 0.92222
 C1059 C 0.78241 0.65189 0.94372
 C1060 C 0.79193 0.62753 0.93727
 C1061 C 0.80722 0.62464 0.90958
 N1062 N 0.81004 0.64406 0.88809
 C1063 C 0.79738 0.68481 0.86582
 N1064 N 0.78227 0.67718 0.84010
 C1065 C 0.77513 0.69296 0.81543
 C1066 C 0.78351 0.71828 0.81529
 C1067 C 0.79965 0.72643 0.84147
 C1068 C 0.80638 0.70978 0.86708
 H1069 H 0.77146 0.65567 0.96534
 H1070 H 0.81490 0.60643 0.90303
 H1071 H 0.76182 0.68578 0.79699
 H1072 H 0.80611 0.74588 0.84301
 H1073 H 0.77826 0.69007 0.92658
 H1074 H 0.81788 0.71640 0.88796
 C1075 C 0.28457 0.18469 0.39955
 C1076 C 0.26975 0.18438 0.42753
 C1077 C 0.26962 0.16309 0.44751
 C1078 C 0.28438 0.14185 0.43998
 C1079 C 0.30110 0.14424 0.41363
 N1080 N 0.30028 0.16502 0.39386
 C1081 C 0.27995 0.20366 0.37359
 N1082 N 0.29919 0.21416 0.35690
 C1083 C 0.29504 0.23022 0.33101
 C1084 C 0.27042 0.23527 0.31947
 C1085 C 0.25056 0.22490 0.33721
 C1086 C 0.25523 0.20931 0.36405
 H1087 H 0.25775 0.16341 0.46878
 H1088 H 0.31312 0.12881 0.40660
 H1089 H 0.31096 0.23822 0.31888
 H1090 H 0.23114 0.22846 0.33033
 H1091 H 0.25746 0.20004 0.43304
 H1092 H 0.23951 0.20092 0.37645
 C1093 C 0.72651 0.36108 0.40116
 C1094 C 0.74400 0.38094 0.39867
 C1095 C 0.74202 0.40234 0.41871
 C1096 C 0.72233 0.40438 0.44071
 C1097 C 0.70400 0.38515 0.44050
 N1098 N 0.70667 0.36404 0.42130
 C1099 C 0.73056 0.33658 0.38400
 N1100 N 0.71083 0.32228 0.37222
 C1101 C 0.71419 0.30047 0.35448
 C1102 C 0.73851 0.29249 0.34682
 C1103 C 0.75884 0.30588 0.36162
 C1104 C 0.75497 0.32773 0.37992
 H1105 H 0.75633 0.41694 0.41793
 H1106 H 0.68850 0.38616 0.45716
 H1107 H 0.69792 0.29030 0.34478
 H1108 H 0.77804 0.30014 0.35819
 H1109 H 0.75955 0.37964 0.38210
 H1110 H 0.77109 0.33777 0.39046
 C1111 C 0.22714 0.84032 0.88188
 C1112 C 0.20427 0.84937 0.89327
 C1113 C 0.20377 0.87225 0.91092
 C1114 C 0.22605 0.88627 0.91769
 C1115 C 0.24827 0.87681 0.90431
 N1116 N 0.24819 0.85453 0.88742
 C1117 C 0.22993 0.81560 0.86483
 N1118 N 0.25355 0.80645 0.86254
 C1119 C 0.25885 0.78523 0.84524
 C1120 C 0.23980 0.77197 0.82740
 C1121 C 0.21495 0.77980 0.83166
 C1122 C 0.20992 0.80179 0.84998
 H1123 H 0.18605 0.87775 0.92103
 H1124 H 0.26582 0.88706 0.90681
 H1125 H 0.27829 0.77962 0.84432
 H1126 H 0.19951 0.76990 0.81948
 H1127 H 0.18709 0.83861 0.88990
 H1128 H 0.19076 0.80825 0.85114
 C1129 C 0.27547 0.85179 0.12434
 C1130 C 0.25451 0.86584 0.11435
 C1131 C 0.25759 0.88723 0.09499
 C1132 C 0.28158 0.89458 0.08453
 C1133 C 0.30233 0.88091 0.09773
 N1134 N 0.29875 0.86003 0.11667
 C1135 C 0.27224 0.82778 0.14197
 N1136 N 0.28533 0.82344 0.17072
 C1137 C 0.28109 0.80259 0.18939
 C1138 C 0.26259 0.78469 0.17949
 C1139 C 0.25003 0.78835 0.14881
 C1140 C 0.25467 0.80986 0.13022
 H1141 H 0.24092 0.89783 0.08831
 H1142 H 0.32132 0.88530 0.09112
 H1143 H 0.29099 0.80115 0.21293
 H1144 H 0.23555 0.77537 0.13989
 H1145 H 0.23583 0.86014 0.12122
 H1146 H 0.24416 0.81283 0.10722
 C1147 C 0.77819 0.34566 0.63595
 C1148 C 0.75917 0.36380 0.63779
 C1149 C 0.76227 0.38726 0.62284
 C1150 C 0.78415 0.39259 0.60563
 C1151 C 0.80345 0.37445 0.60640
 N1152 N 0.79998 0.35167 0.62117
 C1153 C 0.77419 0.31986 0.64835
 N1154 N 0.79179 0.30881 0.66844
 C1155 C 0.78776 0.28599 0.68290
 C1156 C 0.76474 0.27314 0.67787
 C1157 C 0.74740 0.28346 0.65478
 C1158 C 0.75190 0.30684 0.64041
 H1159 H 0.74721 0.40090 0.62383
 H1160 H 0.82068 0.37764 0.59355
 H1161 H 0.80183 0.27916 0.70017
 H1162 H 0.72946 0.27440 0.64950
 H1163 H 0.74189 0.35965 0.65016
 H1164 H 0.73781 0.31501 0.62389
 C1165 C 0.18804 0.15696 0.61632
 C1166 C 0.18402 0.13140 0.62405
 C1167 C 0.18624 0.11296 0.59945
 C1168 C 0.19260 0.12002 0.56738
 C1169 C 0.19432 0.14592 0.56004
 N1170 N 0.19244 0.16353 0.58451
 C1171 C 0.19386 0.17546 0.64281
 N1172 N 0.18448 0.19941 0.64169
 C1173 C 0.19267 0.21790 0.66325
 C1174 C 0.21230 0.21299 0.68636
 C1175 C 0.22244 0.18844 0.68675
 C1176 C 0.21282 0.16962 0.66599
 H1177 H 0.18475 0.09316 0.60600
 H1178 H 0.19863 0.15203 0.53530
 H1179 H 0.18474 0.23665 0.66117
 H1180 H 0.23862 0.18369 0.70210
 H1181 H 0.18095 0.12570 0.64934
 H1182 H 0.22149 0.15110 0.66634
 C1183 C 0.70027 0.67207 0.11143
 C1184 C 0.69311 0.64809 0.12257
 C1185 C 0.69335 0.62752 0.10084
 C1186 C 0.70094 0.63091 0.06826
 C1187 C 0.70637 0.65551 0.05750
 N1188 N 0.70627 0.67525 0.07924
 C1189 C 0.70692 0.69198 0.13549
 N1190 N 0.69717 0.71571 0.13290
 C1191 C 0.70453 0.73474 0.15408
 C1192 C 0.72316 0.73039 0.17874
 C1193 C 0.73395 0.70615 0.18038
 C1194 C 0.72552 0.68693 0.15945
 H1195 H 0.68904 0.60881 0.10996
 H1196 H 0.71176 0.65881 0.03225
 H1197 H 0.69620 0.75325 0.15118
 H1198 H 0.74890 0.70171 0.19805
 H1199 H 0.68881 0.64511 0.14832
 H1200 H 0.73410 0.66840 0.16120
 C1201 C 0.21441 0.61097 0.18426
 C1202 C 0.22630 0.58931 0.19706
 C1203 C 0.21327 0.56636 0.19714
 C1204 C 0.18862 0.56482 0.18412
 C1205 C 0.17824 0.58630 0.16896
 N1206 N 0.19106 0.60861 0.16988
 C1207 C 0.22510 0.63672 0.18895
 N1208 N 0.21544 0.65586 0.17026
 C1209 C 0.22092 0.68057 0.17668
 C1210 C 0.23599 0.68740 0.20444
 C1211 C 0.24791 0.66790 0.22231
 C1212 C 0.24231 0.64261 0.21494
 H1213 H 0.22211 0.54999 0.20842
 H1214 H 0.15933 0.58583 0.15847
 H1215 H 0.21259 0.69474 0.16081
 H1216 H 0.26009 0.67207 0.24358
 H1217 H 0.24511 0.59006 0.20777
 H1218 H 0.25012 0.62819 0.23100
 C1219 C 0.71154 0.10031 0.67491
 C1220 C 0.72606 0.08076 0.68864
 C1221 C 0.71574 0.05640 0.69050
 C1222 C 0.69128 0.05154 0.67803
 C1223 C 0.67835 0.07123 0.66196
 N1224 N 0.68835 0.09490 0.66167
 C1225 C 0.71799 0.12696 0.68197
 N1226 N 0.74075 0.13712 0.67484
 C1227 C 0.74697 0.16153 0.68324
 C1228 C 0.73014 0.17676 0.70074
 C1229 C 0.70703 0.16581 0.70889
 C1230 C 0.70072 0.14146 0.69890
 H1231 H 0.72636 0.04165 0.70298
 H1232 H 0.65943 0.06839 0.65215
 H1233 H 0.76527 0.16874 0.67711
 H1234 H 0.69405 0.17530 0.72466
 H1235 H 0.74425 0.08472 0.70022
 H1236 H 0.68291 0.13349 0.70597
 C1237 C 0.77700 0.11544 0.31917
 C1238 C 0.78447 0.10053 0.34609
 C1239 C 0.79582 0.07705 0.34020
 C1240 C 0.79991 0.06843 0.30743
 C1241 C 0.78991 0.08353 0.28151
 N1242 N 0.77963 0.10631 0.28803
 C1243 C 0.77301 0.14278 0.32222
 N1244 N 0.78786 0.15743 0.30367
 C1245 C 0.78438 0.18249 0.30021
 C1246 C 0.76418 0.19479 0.31513
 C1247 C 0.74885 0.18012 0.33551
 C1248 C 0.75331 0.15397 0.33929
 H1249 H 0.80161 0.06610 0.36156
 H1250 H 0.79228 0.07903 0.25573
 H1251 H 0.79637 0.19198 0.28322
 H1252 H 0.73290 0.18855 0.34727
 H1253 H 0.78310 0.10762 0.37119
 H1254 H 0.74088 0.14252 0.35378
 C1255 C 0.28567 0.59744 0.80761
 C1256 C 0.28933 0.58254 0.83579
 C1257 C 0.29827 0.55774 0.83222
 C1258 C 0.30340 0.54765 0.80053
 C1259 C 0.29769 0.56321 0.77300
 N1260 N 0.28972 0.58725 0.77734
 C1261 C 0.28229 0.62501 0.80947
 N1262 N 0.26107 0.63573 0.82122
 C1263 C 0.25612 0.66095 0.81726
 C1264 C 0.27260 0.67649 0.79964
 C1265 C 0.29485 0.66538 0.78866
 C1266 C 0.29977 0.64005 0.79376
 H1267 H 0.30114 0.54669 0.85444
 H1268 H 0.30161 0.55759 0.74796
 H1269 H 0.23869 0.66845 0.82611
 H1270 H 0.30774 0.67539 0.77336
 H1271 H 0.28658 0.59039 0.86026
 H1272 H 0.31648 0.63182 0.78358
 C1273 C 0.27093 0.38327 0.66863
 C1274 C 0.29394 0.38581 0.65281
 C1275 C 0.30715 0.40871 0.65521
 C1276 C 0.29740 0.42908 0.67311
 C1277 C 0.27339 0.42642 0.68610
 N1278 N 0.26118 0.40381 0.68411
 C1279 C 0.25928 0.35798 0.67306
 N1280 N 0.27026 0.33707 0.66009
 C1281 C 0.26364 0.31322 0.66881
 C1282 C 0.24604 0.30934 0.69350
 C1283 C 0.23250 0.33048 0.70436
 C1284 C 0.23913 0.35479 0.69430
 H1285 H 0.32564 0.40991 0.64494
 H1286 H 0.26493 0.44189 0.69941
 H1287 H 0.27323 0.29753 0.65770
 H1288 H 0.21814 0.32855 0.72257
 H1289 H 0.30241 0.36988 0.64046
 H1290 H 0.22971 0.37091 0.70488
 C1291 C 0.77338 0.90386 0.18077
 C1292 C 0.77402 0.91688 0.21084
 C1293 C 0.78500 0.94066 0.21301
 C1294 C 0.79544 0.95221 0.18498
 C1295 C 0.79191 0.93913 0.15433
 N1296 N 0.78183 0.91534 0.15321
 C1297 C 0.76934 0.87645 0.18171
 N1298 N 0.78533 0.86300 0.20138
 C1299 C 0.78115 0.83854 0.20903
 C1300 C 0.75916 0.82608 0.19760
 C1301 C 0.74275 0.83941 0.17606
 C1302 C 0.74784 0.86469 0.16798
 H1303 H 0.78701 0.94832 0.23775
 H1304 H 0.79776 0.94717 0.13130
 H1305 H 0.79422 0.82972 0.22622
 H1306 H 0.72549 0.83077 0.16671
 H1307 H 0.76786 0.90779 0.23321
 H1308 H 0.73453 0.87529 0.15285
 C1309 C 0.71677 0.88539 0.81155
 C1310 C 0.69421 0.88979 0.82792
 C1311 C 0.68252 0.91335 0.82522
 C1312 C 0.69306 0.93262 0.80627
 C1313 C 0.71611 0.92786 0.79154
 N1314 N 0.72702 0.90471 0.79423
 C1315 C 0.72839 0.85984 0.80919
 N1316 N 0.74698 0.85636 0.78720
 C1317 C 0.75622 0.83310 0.77978
 C1318 C 0.74561 0.81123 0.79343
 C1319 C 0.72836 0.81460 0.81865
 C1320 C 0.71967 0.83873 0.82657
 H1321 H 0.66461 0.91607 0.83667
 H1322 H 0.72514 0.94231 0.77716
 H1323 H 0.77033 0.83171 0.76116
 H1324 H 0.72090 0.79860 0.83168
 H1325 H 0.68485 0.87517 0.84149
 H1326 H 0.70583 0.84035 0.84543
 C1327 C 0.21269 0.39899 0.30030
 C1328 C 0.22488 0.41989 0.31546
 C1329 C 0.21199 0.44293 0.31789
 C1330 C 0.18716 0.44477 0.30562
 C1331 C 0.17537 0.42314 0.29249
 N1332 N 0.18832 0.40129 0.28980
 C1333 C 0.22554 0.37527 0.29149
 N1334 N 0.21562 0.36219 0.26527
 C1335 C 0.22425 0.33942 0.25567
 C1336 C 0.24396 0.32750 0.27343
 C1337 C 0.25516 0.34098 0.30029
 C1338 C 0.24609 0.36500 0.30932
 H1339 H 0.22169 0.45954 0.32771
 H1340 H 0.15628 0.42399 0.28265
 H1341 H 0.21393 0.32999 0.23583
 H1342 H 0.27020 0.33261 0.31503
 H1343 H 0.24438 0.41890 0.32350
 H1344 H 0.25430 0.37476 0.33067
 C1345 C 0.11422 0.24450 0.79884
 C1346 C 0.10651 0.22681 0.82232
 C1347 C 0.08418 0.23073 0.83875
 C1348 C 0.06991 0.25239 0.83208
 C1349 C 0.07784 0.26917 0.80771
 N1350 N 0.09954 0.26488 0.79187
 C1351 C 0.13888 0.24272 0.78367
 N1352 N 0.14150 0.24947 0.75147
 C1353 C 0.16427 0.25036 0.73718
 C1354 C 0.18623 0.24516 0.75596
 C1355 C 0.18372 0.23845 0.78939
 C1356 C 0.16017 0.23677 0.80306
 H1357 H 0.07846 0.21737 0.85735
 H1358 H 0.06698 0.28588 0.80168
 H1359 H 0.16518 0.25600 0.71155
 H1360 H 0.19996 0.23453 0.80520
 H1361 H 0.11780 0.21036 0.82819
 H1362 H 0.15874 0.23206 0.82900
 C1363 C 0.61004 0.76290 0.26587
 C1364 C 0.59436 0.78345 0.25831
 C1365 C 0.57218 0.78643 0.27538
 C1366 C 0.56544 0.76873 0.29932
 C1367 C 0.58075 0.74758 0.30451
 N1368 N 0.60270 0.74556 0.28849
 C1369 C 0.63598 0.76200 0.25441
 N1370 N 0.65413 0.75440 0.27633
 C1371 C 0.67879 0.75516 0.26938
 C1372 C 0.68667 0.76364 0.23835
 C1373 C 0.66813 0.77120 0.21505
 C1374 C 0.64277 0.77049 0.22302
 H1375 H 0.56076 0.80303 0.27086
 H1376 H 0.57613 0.73362 0.32290
 H1377 H 0.69219 0.74931 0.28842
 H1378 H 0.67318 0.77833 0.19109
 H1379 H 0.59997 0.79795 0.24118
 H1380 H 0.62870 0.77672 0.20505
 C1381 C 0.62065 0.25431 0.23972
 C1382 C 0.60820 0.27203 0.21943
 C1383 C 0.58781 0.26436 0.19939
 C1384 C 0.57948 0.23910 0.19963
 C1385 C 0.59168 0.22224 0.22150
 N1386 N 0.61179 0.23010 0.24053
 C1387 C 0.64489 0.26059 0.25671
 N1388 N 0.65204 0.24860 0.28524
 C1389 C 0.67567 0.25090 0.29887
 C1390 C 0.69419 0.26482 0.28260
 C1391 C 0.68666 0.27772 0.25356
 C1392 C 0.66220 0.27608 0.24106
 H1393 H 0.57907 0.27804 0.18294
 H1394 H 0.58547 0.20277 0.22314
 H1395 H 0.68048 0.24015 0.32085
 H1396 H 0.70008 0.28764 0.23877
 H1397 H 0.61455 0.29150 0.21841
 H1398 H 0.65764 0.28508 0.21766
 C1399 C 0.12326 0.74222 0.72773
 C1400 C 0.11301 0.76129 0.70743
 C1401 C 0.09017 0.75710 0.69059
 C1402 C 0.07746 0.73404 0.69410
 C1403 C 0.08736 0.71632 0.71676
 N1404 N 0.10988 0.72063 0.73247
 C1405 C 0.14956 0.74364 0.74001
 N1406 N 0.15667 0.73300 0.76947
 C1407 C 0.18117 0.73207 0.78012
 C1408 C 0.20019 0.74173 0.76028
 C1409 C 0.19293 0.75190 0.72929
 C1410 C 0.16789 0.75334 0.71950
 H1411 H 0.08318 0.77130 0.67349
 H1412 H 0.07770 0.69860 0.72090
 H1413 H 0.18578 0.72330 0.80364
 H1414 H 0.20663 0.75898 0.71236
 H1415 H 0.12307 0.77882 0.70352
 H1416 H 0.16307 0.76090 0.69530
 C1417 C 0.88829 0.75489 0.71225
 C1418 C 0.89785 0.77952 0.71073
 C1419 C 0.91927 0.78413 0.69282
 C1420 C 0.93176 0.76410 0.67711
 C1421 C 0.92194 0.73944 0.68060
 N1422 N 0.90037 0.73564 0.69704
 C1423 C 0.86375 0.75038 0.72654
 N1424 N 0.84518 0.74013 0.70697
 C1425 C 0.82113 0.73872 0.71684
 C1426 C 0.81460 0.74794 0.74822
 C1427 C 0.83386 0.75758 0.76930
 C1428 C 0.85840 0.75906 0.75839
 H1429 H 0.92633 0.80337 0.69214
 H1430 H 0.93038 0.72336 0.66858
 H1431 H 0.80704 0.73116 0.69961
 H1432 H 0.82988 0.76505 0.79359
 H1433 H 0.88828 0.79518 0.72226
 H1434 H 0.87294 0.76751 0.77423
 C1435 C 0.38843 0.25191 0.22256
 C1436 C 0.39946 0.23177 0.20540
 C1437 C 0.42159 0.23590 0.18860
 C1438 C 0.43277 0.25998 0.18899
 C1439 C 0.42209 0.27909 0.20835
 N1440 N 0.40036 0.27473 0.22413
 C1441 C 0.36282 0.24997 0.23529
 N1442 N 0.35590 0.26517 0.26082
 C1443 C 0.33165 0.26702 0.27024
 C1444 C 0.31248 0.25380 0.25268
 C1445 C 0.31951 0.23804 0.22630
 C1446 C 0.34447 0.23570 0.21804
 H1447 H 0.42932 0.22061 0.17417
 H1448 H 0.43060 0.29772 0.21012
 H1449 H 0.32727 0.27988 0.29019
 H1450 H 0.30564 0.22838 0.21069
 H1451 H 0.39071 0.21324 0.20411
 H1452 H 0.34896 0.22433 0.19664
 C1453 C 0.37081 0.75120 0.28996
 C1454 C 0.39304 0.75448 0.27266
 C1455 C 0.41601 0.74843 0.28811
 C1456 C 0.41690 0.73914 0.32066
 C1457 C 0.39431 0.73639 0.33710
 N1458 N 0.37225 0.74243 0.32160
 C1459 C 0.34560 0.75641 0.27532
 N1460 N 0.32626 0.75813 0.29630
 C1461 C 0.30206 0.76000 0.28560
 C1462 C 0.29573 0.75984 0.25148
 C1463 C 0.31553 0.75865 0.22926
 C1464 C 0.34044 0.75713 0.24100
 H1465 H 0.43305 0.75078 0.27451
 H1466 H 0.39416 0.72975 0.36240
 H1467 H 0.28780 0.76013 0.30408
 H1468 H 0.31174 0.75753 0.20280
 H1469 H 0.39290 0.76181 0.24773
 H1470 H 0.35510 0.75505 0.22329
 C1471 C 0.87779 0.23603 0.77848
 C1472 C 0.89244 0.21516 0.76983
 C1473 C 0.91439 0.21010 0.78824
 C1474 C 0.92192 0.22614 0.81457
 C1475 C 0.90751 0.24757 0.82117
 N1476 N 0.88576 0.25159 0.80372
 C1477 C 0.85211 0.23903 0.76492
 N1478 N 0.83399 0.24498 0.78645
 C1479 C 0.80946 0.24612 0.77714
 C1480 C 0.80166 0.24190 0.74387
 C1481 C 0.82025 0.23572 0.72115
 C1482 C 0.84547 0.23426 0.73158
 H1483 H 0.92515 0.19335 0.78257
 H1484 H 0.91276 0.26027 0.84139
 H1485 H 0.79612 0.25030 0.79606
 H1486 H 0.81524 0.23147 0.69553
 H1487 H 0.88621 0.20205 0.75052
 H1488 H 0.85956 0.22924 0.71395
 C1489 C 0.59132 0.97084 0.59871
 C1490 C 0.61492 0.97848 0.58806
 C1491 C 0.63343 0.98584 0.61136
 C1492 C 0.62879 0.98525 0.64556
 C1493 C 0.60528 0.97572 0.65501
 N1494 N 0.58726 0.96964 0.63173
 C1495 C 0.56976 0.96865 0.57507
 N1496 N 0.54759 0.97898 0.58372
 C1497 C 0.52835 0.98245 0.56149
 C1498 C 0.53114 0.97624 0.52783
 C1499 C 0.55282 0.96286 0.51935
 C1500 C 0.57229 0.95935 0.54274
 H1501 H 0.65136 0.99195 0.60233
 H1502 H 0.60019 0.97513 0.68070
 H1503 H 0.51172 0.99187 0.56990
 H1504 H 0.55572 0.95688 0.49410
 H1505 H 0.61860 0.98029 0.56199
 H1506 H 0.58954 0.95056 0.53525
 C1507 C 0.09178 0.48516 1.09425
 C1508 C 0.11766 0.48691 1.08889
 C1509 C 0.13396 0.49454 1.11465
 C1510 C 0.12471 0.49983 1.14601
 C1511 C 0.09905 0.49576 1.15118
 N1512 N 0.08331 0.48909 1.12535
 C1513 C 0.07365 0.48323 1.06585
 N1514 N 0.05099 0.47140 1.06868
 C1515 C 0.03306 0.47161 1.04374
 C1516 C 0.03719 0.48502 1.01439
 C1517 C 0.06043 0.49755 1.01179
 C1518 C 0.07859 0.49633 1.03683
 H1519 H 0.15373 0.49686 1.10993
 H1520 H 0.09131 0.49935 1.17524
 H1521 H 0.01529 0.46222 1.04740
 H1522 H 0.06456 0.50931 0.99083
 H1523 H 0.12512 0.48342 1.06463
 H1524 H 0.09579 0.50700 1.03417
 C1525 C -0.09850 0.01679 1.10018
 C1526 C -0.12288 0.01002 1.08961
 C1527 C -0.14088 0.00464 1.11301
 C1528 C -0.13495 0.00644 1.14724
 C1529 C -0.11035 0.01431 1.15652
 N1530 N -0.09298 0.01857 1.13319
 C1531 C -0.07794 0.01825 1.07654
 N1532 N -0.05555 0.00770 1.08523
 C1533 C -0.03706 0.00439 1.06325
 C1534 C -0.04083 0.01110 1.02975
 C1535 C -0.06282 0.02450 1.02128
 C1536 C -0.08150 0.02786 1.04447
 H1537 H -0.15956 -0.00047 1.10407
 H1538 H -0.10419 0.01542 1.18223
 H1539 H -0.02017 -0.00509 1.07177
 H1540 H -0.06645 0.03087 0.99622
 H1541 H -0.12773 0.00774 1.06355
 H1542 H -0.09883 0.03709 1.03713
 C1543 C 0.39563 0.51618 0.60165
 C1544 C 0.37310 0.50541 0.58928
 C1545 C 0.35621 0.49477 0.61116
 C1546 C 0.36137 0.49499 0.64566
 C1547 C 0.38402 0.50669 0.65677
 N1548 N 0.40033 0.51633 0.63488
 C1549 C 0.41598 0.52394 0.57964
 N1550 N 0.44008 0.52182 0.59116
 C1551 C 0.45997 0.52420 0.57119
 C1552 C 0.45623 0.52764 0.53682
 C1553 C 0.43176 0.53359 0.52561
 C1554 C 0.41155 0.53136 0.54670
 H1555 H 0.33895 0.48686 0.60079
 H1556 H 0.38986 0.50683 0.68261
 H1557 H 0.47853 0.52110 0.58191
 H1558 H 0.42790 0.53912 0.50038
 H1559 H 0.36892 0.50424 0.56293
 H1560 H 0.39272 0.53464 0.53701
 C1561 C 0.39871 0.47159 -0.10777
 C1562 C 0.40565 0.46910 -0.14084
 C1563 C 0.38802 0.47441 -0.16624
 C1564 C 0.36352 0.48194 -0.15865
 C1565 C 0.35700 0.48228 -0.12528
 N1566 N 0.37460 0.47773 -0.10114
 C1567 C 0.41741 0.47294 -0.08013
 N1568 N 0.41313 0.49032 -0.05621
 C1569 C 0.42940 0.49478 -0.03063
 C1570 C 0.45182 0.48085 -0.02701
 C1571 C 0.45667 0.46244 -0.05131
 C1572 C 0.43957 0.45857 -0.07818
 H1573 H 0.39399 0.47408 -0.19162
 H1574 H 0.33822 0.48728 -0.11826
 H1575 H 0.42453 0.50949 -0.01327
 H1576 H 0.47376 0.45146 -0.04989
 H1577 H 0.42483 0.46498 -0.14699
 H1578 H 0.44356 0.44459 -0.09700
 C1579 C -0.09955 0.98988 0.39090
 C1580 C -0.09160 0.99169 0.35816
 C1581 C -0.10840 1.00023 0.33345
 C1582 C -0.13307 1.00686 0.34122
 C1583 C -0.14046 1.00371 0.37399
 N1584 N -0.12370 0.99581 0.39762
 C1585 C -0.08183 0.98575 0.41921
 N1586 N -0.08741 0.99693 0.44837
 C1587 C -0.07137 0.99723 0.47491
 C1588 C -0.04763 0.98573 0.47345
 C1589 C -0.04186 0.97292 0.44400
 C1590 C -0.05887 0.97294 0.41676
 H1591 H -0.10176 1.00260 0.30857
 H1592 H -0.15942 1.00794 0.38101
 H1593 H -0.07680 1.00806 0.49629
 H1594 H -0.02375 0.96405 0.44137
 H1595 H -0.07237 0.98794 0.35195
 H1596 H -0.05383 0.96362 0.39398
 C1597 C 0.10337 0.52883 0.40039
 C1598 C 0.09325 0.52939 0.36794
 C1599 C 0.10828 0.52237 0.34164
 C1600 C 0.13330 0.51495 0.34763
 C1601 C 0.14314 0.51663 0.38010
 N1602 N 0.12803 0.52291 0.40529
 C1603 C 0.08726 0.52835 0.42947
 N1604 N 0.09500 0.51328 0.45468
 C1605 C 0.08044 0.50768 0.48037
 C1606 C 0.05602 0.51754 0.48234
 C1607 C 0.04786 0.53418 0.45722
 C1608 C 0.06340 0.53956 0.43059
 H1609 H 0.09986 0.52117 0.31695
 H1610 H 0.16248 0.51171 0.38571
 H1611 H 0.08766 0.49391 0.49771
 H1612 H 0.02910 0.54192 0.45720
 H1613 H 0.07356 0.53315 0.36309
 H1614 H 0.05655 0.55162 0.41079
 C1615 C 0.60807 0.01679 -0.10182
 C1616 C 0.63439 0.01619 -0.09846
 C1617 C 0.64860 0.00859 -0.12515
 C1618 C 0.63681 0.00234 -0.15555
 C1619 C 0.61071 0.00554 -0.15893
 N1620 N 0.59706 0.01205 -0.13213
 C1621 C 0.59248 0.01776 -0.07195
 N1622 N 0.56913 0.02832 -0.07267
 C1623 C 0.55343 0.02665 -0.04651
 C1624 C 0.56055 0.01279 -0.01807
 C1625 C 0.58453 0.00164 -0.01771
 C1626 C 0.60049 0.00455 -0.04378
 H1627 H 0.66874 0.00679 -0.12178
 H1628 H 0.60103 0.00116 -0.18222
 H1629 H 0.53492 0.03491 -0.04868
 H1630 H 0.59082 -0.01082 0.00188
 H1631 H 0.64383 0.02025 -0.07489
 H1632 H 0.61828 -0.00525 -0.04276
 C1633 C 0.62392 0.52559 0.00808
 C1634 C 0.63886 0.52983 -0.01942
 C1635 C 0.66193 0.54255 -0.01494
 C1636 C 0.66941 0.55194 0.01663
 C1637 C 0.65446 0.54568 0.04353
 N1638 N 0.63257 0.53299 0.03860
 C1639 C 0.59832 0.51486 0.00581
 N1640 N 0.59000 0.50261 0.03282
 C1641 C 0.56551 0.49694 0.03672
 C1642 C 0.54717 0.50516 0.01356
 C1643 C 0.55555 0.51545 -0.01626
 C1644 C 0.58115 0.52066 -0.02007
 H1645 H 0.67275 0.54679 -0.03651
 H1646 H 0.65992 0.55121 0.06860
 H1647 H 0.56054 0.48694 0.05876
 H1648 H 0.54222 0.52121 -0.03548
 H1649 H 0.63260 0.52387 -0.04402
 H1650 H 0.58709 0.53069 -0.04179
 C1651 C 0.12834 1.01726 0.49320
 C1652 C 0.13984 1.02912 0.46666
 C1653 C 0.16311 1.04097 0.47201
 C1654 C 0.17459 1.04085 0.50370
 C1655 C 0.16390 1.02611 0.52834
 N1656 N 0.14093 1.01549 0.52288
 C1657 C 0.10098 1.01570 0.49346
 N1658 N 0.08811 0.99464 0.48320
 C1659 C 0.06285 0.99251 0.48703
 C1660 C 0.04945 1.01201 0.50270
 C1661 C 0.06285 1.03384 0.51260
 C1662 C 0.08835 1.03579 0.50788
 H1663 H 0.17070 1.05251 0.45259
 H1664 H 0.17240 1.02552 0.55301
 H1665 H 0.05353 0.97514 0.47924
 H1666 H 0.05409 1.04927 0.52526
 H1667 H 0.12972 1.03167 0.44328
 H1668 H 0.09841 1.05254 0.51665
 C1669 C 0.13160 -0.03052 0.99038
 C1670 C 0.14725 -0.03910 1.01645
 C1671 C 0.17137 -0.04745 1.00968
 C1672 C 0.17979 -0.04736 0.97707
 C1673 C 0.16389 -0.03783 0.95195
 N1674 N 0.14053 -0.02979 0.95914
 C1675 C 0.10526 -0.02335 0.99504
 N1676 N 0.09439 -0.00748 0.97265
 C1677 C 0.06948 -0.00269 0.97183
 C1678 C 0.05341 -0.01531 0.99347
 C1679 C 0.06451 -0.03036 1.01830
 C1680 C 0.09039 -0.03454 1.01913
 H1681 H 0.18309 -0.05485 1.02969
 H1682 H 0.16982 -0.03727 0.92655
 H1683 H 0.06230 0.00971 0.95264
 H1684 H 0.05327 -0.03972 1.03626
 H1685 H 0.14093 -0.03959 1.04166
 H1686 H 0.09829 -0.04754 1.03717
 C1687 C 0.63286 0.49020 0.52172
 C1688 C 0.64023 0.48801 0.48890
 C1689 C 0.66343 0.47758 0.48206
 C1690 C 0.67983 0.46966 0.50794
 C1691 C 0.67253 0.47462 0.54075
 N1692 N 0.64917 0.48366 0.54670
 C1693 C 0.60593 0.49241 0.52782
 N1694 N 0.59485 0.51525 0.53294
 C1695 C 0.56936 0.51797 0.53147
 C1696 C 0.55368 0.49731 0.52233
 C1697 C 0.56534 0.47367 0.51803
 C1698 C 0.59108 0.47110 0.52148
 H1699 H 0.66831 0.47550 0.45636
 H1700 H 0.68415 0.46896 0.56178
 H1701 H 0.56155 0.53669 0.53450
 H1702 H 0.55538 0.45742 0.50829
 H1703 H 0.62733 0.49266 0.46866
 H1704 H 0.59957 0.45299 0.51603
 C1705 C -0.11622 0.46797 0.52236
 C1706 C -0.13569 0.48586 0.52261
 C1707 C -0.15963 0.47840 0.53232
 C1708 C -0.16414 0.45331 0.54194
 C1709 C -0.14422 0.43610 0.54102
 N1710 N -0.12127 0.44375 0.53144
 C1711 C -0.09000 0.47404 0.51382
 N1712 N -0.07405 0.45432 0.51031
 C1713 C -0.04898 0.45731 0.50743
 C1714 C -0.03792 0.48149 0.50929
 C1715 C -0.05433 0.50235 0.51026
 C1716 C -0.08026 0.49876 0.51273
 H1717 H -0.17454 0.49224 0.53258
 H1718 H -0.14690 0.41643 0.54744
 H1719 H -0.03802 0.44043 0.50732
 H1720 H -0.04705 0.52151 0.51174
 H1721 H -0.13275 0.50526 0.51527
 H1722 H -0.09203 0.51516 0.51577
 C1723 C 0.38581 -0.03292 0.01016
 C1724 C 0.36586 -0.01579 0.00575
 C1725 C 0.34117 -0.02414 0.01055
 C1726 C 0.33652 -0.04927 0.02001
 C1727 C 0.35689 -0.06573 0.02324
 N1728 N 0.38046 -0.05725 0.01845
 C1729 C 0.41279 -0.02623 0.00811
 N1730 N 0.42917 -0.04516 0.01472
 C1731 C 0.45422 -0.04175 0.01677
 C1732 C 0.46504 -0.01777 0.01235
 C1733 C 0.44855 0.00225 0.00436
 C1734 C 0.42241 -0.00185 0.00223
 H1735 H 0.32582 -0.01091 0.00765
 H1736 H 0.35413 -0.08540 0.02969
 H1737 H 0.46502 -0.05782 0.02424
 H1738 H 0.45573 0.02126 0.00120
 H1739 H 0.36909 0.00373 -0.00086
 H1740 H 0.41018 0.01399 -0.00290
 C1741 C 0.36234 1.03248 0.49242
 C1742 C 0.34067 1.02151 0.47759
 C1743 C 0.31902 1.03613 0.47347
 C1744 C 0.31920 1.06153 0.48372
 C1745 C 0.34084 1.07142 0.49954
 N1746 N 0.36159 1.05688 0.50336
 C1747 C 0.38671 1.01946 0.49396
 N1748 N 0.40400 1.02685 0.51756
 C1749 C 0.42840 1.01977 0.51672
 C1750 C 0.43703 1.00575 0.48980
 C1751 C 0.41904 0.99601 0.46681
 C1752 C 0.39392 1.00290 0.46872
 H1753 H 0.30247 1.02792 0.46140
 H1754 H 0.34141 1.09084 0.50829
 H1755 H 0.44114 1.02642 0.53609
 H1756 H 0.42452 0.98473 0.44577
 H1757 H 0.34053 1.00207 0.46894
 H1758 H 0.38087 0.99701 0.44909
 C1759 C -0.13787 0.52324 0.99734
 C1760 C -0.14789 0.53610 1.02455
 C1761 C -0.17112 0.54820 1.02078
 C1762 C -0.18429 0.54731 0.99022
 C1763 C -0.17464 0.53268 0.96464
 N1764 N -0.15194 0.52145 0.96868
 C1765 C -0.11158 0.51412 0.99654
 N1766 N -0.10486 0.50109 0.96910
 C1767 C -0.08071 0.49583 0.96247
 C1768 C -0.06103 0.50500 0.98328
 C1769 C -0.06753 0.51591 1.01368
 C1770 C -0.09273 0.52100 1.02015
 H1771 H -0.17797 0.55967 1.04091
 H1772 H -0.18426 0.53173 0.94067
 H1773 H -0.07709 0.48539 0.94004
 H1774 H -0.05309 0.52219 1.03132
 H1775 H -0.13766 0.53788 1.04795
 H1776 H -0.09696 0.53132 1.04247
 C1777 C 0.03033 0.62168 0.59824
 C1778 C 0.03200 0.62584 0.63269
 C1779 C 0.03263 0.65044 0.64509
 C1780 C 0.03095 0.67097 0.62350
 C1781 C 0.02804 0.66622 0.58940
 N1782 N 0.02800 0.64197 0.57771
 C1783 C 0.03087 0.59581 0.58386
 N1784 N 0.02194 0.59168 0.55229
 C1785 C 0.02119 0.56818 0.53817
 C1786 C 0.02945 0.54703 0.55631
 C1787 C 0.03929 0.55116 0.58858
 C1788 C 0.04047 0.57534 0.60207
 H1789 H 0.03435 0.65349 0.67163
 H1790 H 0.02655 0.68173 0.57209
 H1791 H 0.01353 0.56601 0.51319
 H1792 H 0.04628 0.53568 0.60361
 H1793 H 0.03263 0.61047 0.65020
 H1794 H 0.04892 0.57765 0.62655
 C1795 C 0.53896 0.12437 0.09709
 C1796 C 0.54393 0.12796 0.13128
 C1797 C 0.54429 0.15226 0.14478
 C1798 C 0.53910 0.17319 0.12477
 C1799 C 0.53336 0.16896 0.09097
 N1800 N 0.53356 0.14501 0.07810
 C1801 C 0.53888 0.09862 0.08169
 N1802 N 0.52708 0.09435 0.05166
 C1803 C 0.52528 0.07077 0.03753
 C1804 C 0.53531 0.04961 0.05413
 C1805 C 0.54783 0.05401 0.08484
 C1806 C 0.55030 0.07818 0.09801
 H1807 H 0.54808 0.15468 0.17112
 H1808 H 0.52905 0.18471 0.07479
 H1809 H 0.51522 0.06846 0.01403
 H1810 H 0.55567 0.03865 0.09933
 H1811 H 0.54703 0.11234 0.14799
 H1812 H 0.56089 0.08041 0.12105
 C1813 C -0.03382 0.11662 0.91973
 C1814 C -0.02643 0.13822 0.93812
 C1815 C -0.02725 0.16195 0.92312
 C1816 C -0.03540 0.16426 0.88993
 C1817 C -0.04286 0.14227 0.87255
 N1818 N -0.04169 0.11937 0.88758
 C1819 C -0.03147 0.09070 0.93307
 N1820 N -0.02980 0.07118 0.91115
 C1821 C -0.02612 0.04692 0.92084
 C1822 C -0.02394 0.04090 0.95467
 C1823 C -0.02579 0.06079 0.97776
 C1824 C -0.02986 0.08558 0.96715
 H1825 H -0.02150 0.17849 0.93748
 H1826 H -0.04897 0.14314 0.84679
 H1827 H -0.02390 0.03265 0.90186
 H1828 H -0.02339 0.05740 1.00405
 H1829 H -0.01934 0.13694 0.96340
 H1830 H -0.03141 0.10041 0.98554
 C1831 C 0.47477 0.63715 0.42970
 C1832 C 0.45284 0.65154 0.43264
 C1833 C 0.45013 0.67394 0.41455
 C1834 C 0.46920 0.68207 0.39372
 C1835 C 0.49086 0.66726 0.39187
 N1836 N 0.49294 0.64551 0.40939
 C1837 C 0.47845 0.61219 0.44562
 N1838 N 0.49595 0.59672 0.43273
 C1839 C 0.50056 0.57321 0.44442
 C1840 C 0.48700 0.56346 0.47095
 C1841 C 0.46946 0.57948 0.48563
 C1842 C 0.46498 0.60378 0.47293
 H1843 H 0.43314 0.68489 0.41683
 H1844 H 0.50587 0.67254 0.37580
 H1845 H 0.51462 0.56209 0.43228
 H1846 H 0.45920 0.57345 0.50678
 H1847 H 0.43766 0.64536 0.44785
 H1848 H 0.45139 0.61575 0.48465
 C1849 C 0.52257 0.87312 0.41236
 C1850 C 0.51629 0.85081 0.42904
 C1851 C 0.51722 0.82760 0.41236
 C1852 C 0.52435 0.82652 0.37919
 C1853 C 0.53076 0.84919 0.36361
 N1854 N 0.52954 0.87153 0.38025
 C1855 C 0.52003 0.89861 0.42724
 N1856 N 0.51842 0.91864 0.40636
 C1857 C 0.51477 0.94264 0.41713
 C1858 C 0.51257 0.94788 0.45109
 C1859 C 0.51424 0.92747 0.47318
 C1860 C 0.51827 0.90291 0.46147
 H1861 H 0.51232 0.81050 0.42538
 H1862 H 0.53605 0.84931 0.33795
 H1863 H 0.51269 0.95733 0.39876
 H1864 H 0.51187 0.93032 0.49946
 H1865 H 0.51000 0.85111 0.45423
 H1866 H 0.51973 0.88766 0.47912
 C1867 C 0.01837 0.36191 0.92734
 C1868 C 0.00806 0.34115 0.94389
 C1869 C 0.00966 0.31689 0.92984
 C1870 C 0.02154 0.31333 0.89954
 C1871 C 0.03157 0.33458 0.88403
 N1872 N 0.02966 0.35783 0.89801
 C1873 C 0.01608 0.38854 0.93852
 N1874 N 0.02136 0.40666 0.91609
 C1875 C 0.01882 0.43165 0.92236
 C1876 C 0.01037 0.44016 0.95314
 C1877 C 0.00550 0.42189 0.97731
 C1878 C 0.00834 0.39602 0.97014
 H1879 H 0.00173 0.30093 0.94266
 H1880 H 0.04044 0.33290 0.86035
 H1881 H 0.02307 0.44472 0.90278
 H1882 H -0.00107 0.42750 1.00138
 H1883 H -0.00157 0.34348 0.96688
 H1884 H 0.00433 0.38231 0.98903
 C1885 C 0.47506 0.36715 0.08584
 C1886 C 0.47225 0.36491 0.12022
 C1887 C 0.47297 0.34120 0.13480
 C1888 C 0.47710 0.31959 0.11557
 C1889 C 0.48127 0.32254 0.08163
 N1890 N 0.47998 0.34598 0.06766
 C1891 C 0.47305 0.39222 0.06965
 N1892 N 0.48592 0.39725 0.04173
 C1893 C 0.48664 0.42088 0.02824
 C1894 C 0.47454 0.44127 0.04364
 C1895 C 0.46037 0.43588 0.07158
 C1896 C 0.45899 0.41155 0.08391
 H1897 H 0.47030 0.33969 0.16121
 H1898 H 0.48475 0.30619 0.06615
 H1899 H 0.49790 0.42398 0.00678
 H1900 H 0.45106 0.45067 0.08514
 H1901 H 0.46966 0.38126 0.13600
 H1902 H 0.44763 0.40828 0.10523
 C1903 C -0.01999 0.86815 0.57325
 C1904 C -0.01083 0.84643 0.55734
 C1905 C -0.01106 0.82316 0.57385
 C1906 C -0.02043 0.82154 0.60593
 C1907 C -0.02897 0.84372 0.62096
 N1908 N -0.02856 0.86595 0.60452
 C1909 C -0.02021 0.89386 0.55870
 N1910 N -0.02809 0.91295 0.57844
 C1911 C -0.02775 0.93749 0.56930
 C1912 C -0.01885 0.94453 0.53824
 C1913 C -0.01139 0.92512 0.51670
 C1914 C -0.01206 0.89973 0.52678
 H1915 H -0.00441 0.80638 0.56135
 H1916 H -0.03594 0.84347 0.64587
 H1917 H -0.03372 0.95147 0.58707
 H1918 H -0.00422 0.92958 0.49261
 H1919 H -0.00359 0.84714 0.53266
 H1920 H -0.00573 0.88526 0.50999
 C1921 C 0.23166 0.36270 0.12200
 C1922 C 0.22312 0.35897 0.08921
 C1923 C 0.22681 0.37814 0.06590
 C1924 C 0.23918 0.40109 0.07508
 C1925 C 0.24551 0.40443 0.10894
 N1926 N 0.24205 0.38543 0.13075
 C1927 C 0.23346 0.34212 0.14667
 N1928 N 0.25232 0.34430 0.16966
 C1929 C 0.25652 0.32707 0.19361
 C1930 C 0.24079 0.30567 0.19653
 C1931 C 0.22100 0.30276 0.17294
 C1932 C 0.21737 0.32090 0.14770
 H1933 H 0.22167 0.37386 0.04038
 H1934 H 0.25347 0.42200 0.11838
 H1935 H 0.27193 0.33094 0.21087
 H1936 H 0.20835 0.28673 0.17417
 H1937 H 0.21522 0.34096 0.08115
 H1938 H 0.20199 0.31861 0.12983
 C1939 C 0.73385 0.85412 0.64275
 C1940 C 0.73157 0.85130 0.60826
 C1941 C 0.73934 0.87077 0.58794
 C1942 C 0.74887 0.89354 0.60159
 C1943 C 0.75018 0.89597 0.63626
 N1944 N 0.74285 0.87641 0.65572
 C1945 C 0.72927 0.83244 0.66491
 N1946 N 0.72203 0.83652 0.69656
 C1947 C 0.72177 0.81762 0.71938
 C1948 C 0.73125 0.79356 0.71164
 C1949 C 0.73558 0.78839 0.67805
 C1950 C 0.73484 0.80769 0.65484
 H1951 H 0.73828 0.86775 0.56138
 H1952 H 0.75708 0.91329 0.64782
 H1953 H 0.71546 0.82192 0.74388
 H1954 H 0.74164 0.76990 0.66990
 H1955 H 0.72418 0.83409 0.59694
 H1956 H 0.74067 0.80347 0.62998
 C1957 C 0.27858 0.63724 0.64069
 C1958 C 0.27800 0.61096 0.64628
 C1959 C 0.27091 0.59446 0.62056
 C1960 C 0.26512 0.60389 0.58898
 C1961 C 0.26797 0.63004 0.58364
 N1962 N 0.27405 0.64594 0.60942
 C1963 C 0.27974 0.65530 0.66904
 N1964 N 0.29016 0.67888 0.66647
 C1965 C 0.28900 0.69659 0.69135
 C1966 C 0.27600 0.69124 0.72037
 C1967 C 0.26491 0.66703 0.72254
 C1968 C 0.26714 0.64917 0.69770
 H1969 H 0.26951 0.57436 0.62545
 H1970 H 0.26396 0.63796 0.55941
 H1971 H 0.29719 0.71513 0.68784
 H1972 H 0.25327 0.66183 0.74285
 H1973 H 0.28197 0.60330 0.67067
 H1974 H 0.25748 0.63123 0.70015
 C1975 C 0.75421 0.16050 0.15280
 C1976 C 0.73038 0.14948 0.14821
 C1977 C 0.72642 0.13080 0.12426
 C1978 C 0.74601 0.12307 0.10398
 C1979 C 0.76918 0.13620 0.10774
 N1980 N 0.77278 0.15397 0.13210
 C1981 C 0.75944 0.17700 0.18191
 N1982 N 0.77292 0.19895 0.17977
 C1983 C 0.77556 0.21547 0.20595
 C1984 C 0.76381 0.21039 0.23600
 C1985 C 0.75074 0.18722 0.23828
 C1986 C 0.74906 0.17050 0.21196
 H1987 H 0.70772 0.12292 0.12141
 H1988 H 0.78508 0.13119 0.09309
 H1989 H 0.78561 0.23309 0.20272
 H1990 H 0.74051 0.18213 0.25997
 H1991 H 0.71497 0.15494 0.16358
 H1992 H 0.73875 0.15296 0.21477
 C1993 C 0.73804 0.14600 0.86631
 C1994 C 0.74040 0.15547 0.89884
 C1995 C 0.75094 0.14022 0.92374
 C1996 C 0.75919 0.11558 0.91645
 C1997 C 0.75634 0.10684 0.88371
 N1998 N 0.74616 0.12206 0.85993
 C1999 C 0.73009 0.16187 0.83769
 N2000 N 0.73689 0.15382 0.80735
 C2001 C 0.73427 0.16817 0.77990
 C2002 C 0.72466 0.19298 0.78165
 C2003 C 0.71562 0.20103 0.81237
 C2004 C 0.71829 0.18558 0.84045
 H2005 H 0.75302 0.14787 0.94862
 H2006 H 0.76198 0.08787 0.87702
 H2007 H 0.74253 0.16086 0.75783
 H2008 H 0.70830 0.21998 0.81532
 H2009 H 0.73504 0.17460 0.90501
 H2010 H 0.71213 0.19266 0.86402
 C2011 C 0.22716 0.64466 0.34894
 C2012 C 0.23488 0.62098 0.33689
 C2013 C 0.24581 0.60348 0.35880
 C2014 C 0.24876 0.60939 0.39265
 C2015 C 0.24003 0.63293 0.40374
 N2016 N 0.23003 0.64981 0.38191
 C2017 C 0.21995 0.66562 0.32647
 N2018 N 0.22611 0.68960 0.33616
 C2019 C 0.22471 0.70952 0.31519
 C2020 C 0.21785 0.70576 0.28156
 C2021 C 0.20781 0.68195 0.27248
 C2022 C 0.20933 0.66166 0.29460
 H2023 H 0.25223 0.58550 0.34927
 H2024 H 0.24217 0.63840 0.42955
 H2025 H 0.23115 0.72777 0.32439
 H2026 H 0.20058 0.67839 0.24760
 H2027 H 0.23373 0.61646 0.31071
 H2028 H 0.20326 0.64301 0.28638
 C2029 C 0.76087 0.86703 0.36088
 C2030 C 0.76410 0.86011 0.39426
 C2031 C 0.75610 0.87651 0.41911
 C2032 C 0.74486 0.89979 0.41096
 C2033 C 0.74258 0.90624 0.37742
 N2034 N 0.75033 0.88991 0.35371
 C2035 C 0.76542 0.84936 0.33290
 N2036 N 0.75465 0.85521 0.30309
 C2037 C 0.75433 0.83911 0.27689
 C2038 C 0.76495 0.81478 0.27960
 C2039 C 0.77766 0.80884 0.30951
 C2040 C 0.77803 0.82607 0.33618
 H2041 H 0.75791 0.87056 0.44467
 H2042 H 0.73441 0.92412 0.36999
 H2043 H 0.74386 0.84483 0.25493
 H2044 H 0.78600 0.79036 0.31303
 H2045 H 0.77168 0.84195 0.40137
 H2046 H 0.78730 0.82066 0.35919
 C2047 C 0.26673 0.35896 0.84314
 C2048 C 0.27007 0.35700 0.87763
 C2049 C 0.26028 0.37556 0.89816
 C2050 C 0.24774 0.39665 0.88468
 C2051 C 0.24630 0.39874 0.84998
 N2052 N 0.25539 0.37998 0.83044
 C2053 C 0.27223 0.33753 0.82053
 N2054 N 0.27394 0.34187 0.78747
 C2055 C 0.27339 0.32275 0.76466
 C2056 C 0.26887 0.29769 0.77444
 C2057 C 0.27060 0.29267 0.80861
 C2058 C 0.27203 0.31239 0.83161
 H2059 H 0.26176 0.37273 0.92465
 H2060 H 0.23746 0.41493 0.83836
 H2061 H 0.27524 0.32750 0.73902
 H2062 H 0.26854 0.27361 0.81791
 H2063 H 0.27949 0.34102 0.88894
 H2064 H 0.27065 0.30775 0.85751
 C2065 C 0.77276 0.36634 0.72940
 C2066 C 0.75660 0.38687 0.72323
 C2067 C 0.76620 0.40922 0.70989
 C2068 C 0.79170 0.41102 0.70248
 C2069 C 0.80715 0.39018 0.70941
 N2070 N 0.79745 0.36882 0.72242
 C2071 C 0.76429 0.34142 0.74164
 N2072 N 0.78216 0.32486 0.75223
 C2073 C 0.77726 0.30008 0.75792
 C2074 C 0.75329 0.28993 0.75110
 C2075 C 0.73393 0.30743 0.74399
 C2076 C 0.73934 0.33301 0.73882
 H2077 H 0.75373 0.42498 0.70510
 H2078 H 0.82705 0.39093 0.70495
 H2079 H 0.79285 0.28841 0.76444
 H2080 H 0.71480 0.30110 0.73939
 H2081 H 0.73690 0.38592 0.72870
 H2082 H 0.72440 0.34535 0.73038
 C2083 C 0.27086 0.87827 0.24147
 C2084 C 0.25752 0.90100 0.23890
 C2085 C 0.27003 0.92314 0.22980
 C2086 C 0.29565 0.92252 0.22197
 C2087 C 0.30811 0.89910 0.22514
 N2088 N 0.29567 0.87810 0.23487
 C2089 C 0.25865 0.85398 0.24889
 N2090 N 0.27105 0.83709 0.26860
 C2091 C 0.26367 0.81251 0.27083
 C2092 C 0.24402 0.80310 0.25034
 C2093 C 0.22952 0.82089 0.23235
 C2094 C 0.23676 0.84631 0.23163
 H2095 H 0.25927 0.94040 0.22744
 H2096 H 0.32800 0.89745 0.22112
 H2097 H 0.27445 0.80015 0.28665
 H2098 H 0.21378 0.81502 0.21657
 H2099 H 0.23768 0.90160 0.24386
 H2100 H 0.22667 0.85926 0.21544
 C2101 C 0.22838 0.86805 0.75077
 C2102 C 0.24506 0.88780 0.75978
 C2103 C 0.23538 0.91167 0.76816
 C2104 C 0.20932 0.91551 0.76770
 C2105 C 0.19359 0.89574 0.75676
 N2106 N 0.20333 0.87289 0.74915
 C2107 C 0.23582 0.84116 0.74853
 N2108 N 0.21797 0.82408 0.75612
 C2109 C 0.22223 0.79901 0.75788
 C2110 C 0.24593 0.78885 0.75153
 C2111 C 0.26483 0.80614 0.74265
 C2112 C 0.25992 0.83236 0.74133
 H2113 H 0.24805 0.92666 0.77642
 H2114 H 0.17344 0.89816 0.75544
 H2115 H 0.20718 0.78786 0.76683
 H2116 H 0.28363 0.79956 0.73819
 H2117 H 0.26505 0.88455 0.76216
 H2118 H 0.27476 0.84541 0.73523
 C2119 C 0.73964 0.38886 0.26828
 C2120 C 0.72828 0.40307 0.24287
 C2121 C 0.71828 0.42678 0.25032
 C2122 C 0.71960 0.43600 0.28301
 C2123 C 0.73335 0.42227 0.30686
 N2124 N 0.74228 0.39902 0.29924
 C2125 C 0.74042 0.36128 0.26533
 N2126 N 0.76090 0.34883 0.25439
 C2127 C 0.76254 0.32305 0.25580
 C2128 C 0.74322 0.30864 0.26981
 C2129 C 0.72197 0.32171 0.28033
 C2130 C 0.72045 0.34774 0.27791
 H2131 H 0.70758 0.43677 0.23135
 H2132 H 0.73504 0.42901 0.33222
 H2133 H 0.77949 0.31404 0.24768
 H2134 H 0.70679 0.31229 0.29213
 H2135 H 0.72503 0.39489 0.21844
 H2136 H 0.70423 0.35743 0.28732
 C2137 C 0.71221 0.64045 0.27298
 C2138 C 0.72949 0.62051 0.27124
 C2139 C 0.72060 0.59565 0.26641
 C2140 C 0.69469 0.59090 0.26325
 C2141 C 0.67821 0.61117 0.26735
 N2142 N 0.68724 0.63502 0.27145
 C2143 C 0.71949 0.66736 0.27034
 N2144 N 0.70286 0.68260 0.25435
 C2145 C 0.70775 0.70709 0.24770
 C2146 C 0.73080 0.71833 0.25746
 C2147 C 0.74827 0.70305 0.27485
 C2148 C 0.74276 0.67748 0.28118
 H2149 H 0.73388 0.58041 0.26342
 H2150 H 0.65811 0.60822 0.26597
 H2151 H 0.69411 0.71679 0.23238
 H2152 H 0.76650 0.71053 0.28239
 H2153 H 0.74948 0.62416 0.27148
 H2154 H 0.75654 0.66584 0.29396
 C2155 C 0.22923 0.12171 0.76984
 C2156 C 0.21636 0.10775 0.79341
 C2157 C 0.20790 0.08334 0.78541
 C2158 C 0.21190 0.07322 0.75383
 C2159 C 0.22610 0.08723 0.73169
 N2160 N 0.23402 0.11099 0.73995
 C2161 C 0.23140 0.14928 0.77308
 N2162 N 0.25415 0.16103 0.77302
 C2163 C 0.25633 0.18656 0.76899
 C2164 C 0.23490 0.20140 0.76207
 C2165 C 0.21140 0.18919 0.76267
 C2166 C 0.20960 0.16350 0.76902
 H2167 H 0.19676 0.07310 0.80293
 H2168 H 0.22960 0.07986 0.70718
 H2169 H 0.27493 0.19478 0.76829
 H2170 H 0.19436 0.19839 0.75474
 H2171 H 0.21156 0.11628 0.81684
 H2172 H 0.19138 0.15431 0.76738
 C2173 C 0.27893 0.13141 0.22743
 C2174 C 0.30257 0.12446 0.21610
 C2175 C 0.31066 0.09954 0.21956
 C2176 C 0.29521 0.08149 0.23404
 C2177 C 0.27100 0.08870 0.24297
 N2178 N 0.26366 0.11333 0.24002
 C2179 C 0.27338 0.15851 0.23258
 N2180 N 0.25269 0.16976 0.21867
 C2181 C 0.24793 0.19499 0.22313
 C2182 C 0.26436 0.21026 0.24278
 C2183 C 0.28513 0.19828 0.25799
 C2184 C 0.28984 0.17282 0.25267
 H2185 H 0.32959 0.09469 0.21293
 H2186 H 0.25873 0.07522 0.25453
 H2187 H 0.23135 0.20306 0.21136
 H2188 H 0.29839 0.20849 0.27360
 H2189 H 0.31528 0.13860 0.20674
 H2190 H 0.30621 0.16427 0.26443
 C2191 C 0.78363 0.62324 0.71267
 C2192 C 0.80678 0.61500 0.70102
 C2193 C 0.81296 0.58943 0.70284
 C2194 C 0.79602 0.57206 0.71577
 C2195 C 0.77227 0.58063 0.72465
 N2196 N 0.76682 0.60581 0.72335
 C2197 C 0.77920 0.65049 0.71864
 N2198 N 0.75608 0.66080 0.71323
 C2199 C 0.75104 0.68540 0.72116
 C2200 C 0.76963 0.70090 0.73656
 C2201 C 0.79335 0.69010 0.74275
 C2202 C 0.79827 0.66532 0.73343
 H2203 H 0.83155 0.58342 0.69615
 H2204 H 0.75886 0.56764 0.73494
 H2205 H 0.73228 0.69249 0.71649
 H2206 H 0.80793 0.70011 0.75659
 H2207 H 0.82051 0.62841 0.69240
 H2208 H 0.81651 0.65739 0.73954
 C2209 C 0.87897 0.77951 0.18434
 C2210 C 0.89703 0.76190 0.19497
 C2211 C 0.91962 0.76001 0.17826
 C2212 C 0.92459 0.77581 0.15105
 C2213 C 0.90589 0.79349 0.14192
 N2214 N 0.88403 0.79455 0.15819
 C2215 C 0.85346 0.78073 0.19784
 N2216 N 0.83489 0.78982 0.17760
 C2217 C 0.81060 0.79046 0.18629
 C2218 C 0.80338 0.78168 0.21746
 C2219 C 0.82235 0.77290 0.23936
 C2220 C 0.84742 0.77234 0.22964
 H2221 H 0.93328 0.74650 0.18742
 H2222 H 0.90763 0.80554 0.12061
 H2223 H 0.79692 0.79720 0.16817
 H2224 H 0.81777 0.76573 0.26350
 H2225 H 0.89357 0.74917 0.21521
 H2226 H 0.86172 0.76529 0.24671
 C2227 C 0.36860 0.27523 0.66315
 C2228 C 0.37881 0.25589 0.64377
 C2229 C 0.40268 0.25879 0.63140
 C2230 C 0.41670 0.28078 0.63845
 C2231 C 0.40596 0.29969 0.65810
 N2232 N 0.38251 0.29643 0.66998
 C2233 C 0.34306 0.27273 0.67611
 N2234 N 0.33742 0.28333 0.70584
 C2235 C 0.31435 0.28076 0.71918
 C2236 C 0.29529 0.26696 0.70224
 C2237 C 0.30098 0.25609 0.67145
 C2238 C 0.32450 0.25914 0.65828
 H2239 H 0.41017 0.24380 0.61621
 H2240 H 0.41634 0.31679 0.66443
 H2241 H 0.31123 0.28916 0.74311
 H2242 H 0.28721 0.24518 0.65714
 H2243 H 0.36867 0.23846 0.63853
 H2244 H 0.32795 0.25103 0.63417
 C2245 C 0.39394 0.71544 0.81782
 C2246 C 0.41492 0.72516 0.80175
 C2247 C 0.43868 0.72396 0.81754
 C2248 C 0.44153 0.71306 0.84911
 C2249 C 0.42008 0.70350 0.86401
 N2250 N 0.39736 0.70500 0.84832
 C2251 C 0.36775 0.71719 0.80461
 N2252 N 0.34936 0.71134 0.82582
 C2253 C 0.32470 0.71305 0.81759
 C2254 C 0.31679 0.72116 0.78587
 C2255 C 0.33537 0.72679 0.76302
 C2256 C 0.36090 0.72483 0.77225
 H2257 H 0.45477 0.73151 0.80512
 H2258 H 0.42116 0.69542 0.88856
 H2259 H 0.31140 0.70814 0.83622
 H2260 H 0.33021 0.73308 0.73829
 H2261 H 0.41318 0.73401 0.77775
 H2262 H 0.37482 0.72936 0.75428
 C2263 C 0.88758 0.22328 0.31965
 C2264 C 0.89522 0.19989 0.33212
 C2265 C 0.91937 0.19720 0.34568
 C2266 C 0.93608 0.21807 0.34808
 C2267 C 0.92765 0.24101 0.33352
 N2268 N 0.90398 0.24301 0.32030
 C2269 C 0.86104 0.22750 0.31074
 N2270 N 0.84362 0.22066 0.33282
 C2271 C 0.81886 0.22511 0.32763
 C2272 C 0.81000 0.23657 0.29816
 C2273 C 0.82776 0.24372 0.27486
 C2274 C 0.85338 0.23952 0.28131
 H2275 H 0.92462 0.17848 0.35383
 H2276 H 0.93883 0.25807 0.33447
 H2277 H 0.80617 0.21956 0.34670
 H2278 H 0.82197 0.25294 0.25205
 H2279 H 0.88243 0.18388 0.33177
 H2280 H 0.86702 0.24542 0.26355
 C2281 C 0.12604 0.27908 0.30858
 C2282 C 0.12636 0.28229 0.34320
 C2283 C 0.10426 0.28020 0.36029
 C2284 C 0.08173 0.27436 0.34333
 C2285 C 0.08226 0.26970 0.30901
 N2286 N 0.10413 0.27232 0.29256
 C2287 C 0.14935 0.28309 0.29006
 N2288 N 0.15479 0.26839 0.26333
 C2289 C 0.17781 0.26902 0.24925
 C2290 C 0.19729 0.28422 0.26317
 C2291 C 0.19108 0.30040 0.28954
 C2292 C 0.16723 0.30053 0.30205
 H2293 H 0.10472 0.28331 0.38685
 H2294 H 0.06517 0.26491 0.29519
 H2295 H 0.18149 0.25603 0.22915
 H2296 H 0.20502 0.31154 0.30300
 H2297 H 0.14355 0.28645 0.35713
 H2298 H 0.16346 0.31310 0.32258
 C2299 C 0.62676 0.77675 0.81930
 C2300 C 0.60409 0.77217 0.80175
 C2301 C 0.58156 0.77286 0.81869
 C2302 C 0.58170 0.77860 0.85274
 C2303 C 0.60470 0.78401 0.86891
 N2304 N 0.62632 0.78253 0.85218
 C2305 C 0.65138 0.77262 0.80463
 N2306 N 0.66963 0.76262 0.82451
 C2307 C 0.69312 0.75849 0.81416
 C2308 C 0.70005 0.76542 0.78205
 C2309 C 0.68126 0.77513 0.76059
 C2310 C 0.65682 0.77873 0.77179
 H2311 H 0.56409 0.76862 0.80539
 H2312 H 0.60562 0.78831 0.89517
 H2313 H 0.70640 0.75020 0.83164
 H2314 H 0.68533 0.77997 0.73535
 H2315 H 0.60386 0.76697 0.77576
 H2316 H 0.64260 0.78667 0.75530
 C2317 C 0.60866 0.21705 0.67977
 C2318 C 0.58854 0.22867 0.69555
 C2319 C 0.56485 0.22895 0.67970
 C2320 C 0.56115 0.21769 0.64828
 C2321 C 0.58168 0.20603 0.63367
 N2322 N 0.60449 0.20619 0.64941
 C2323 C 0.63481 0.21777 0.69320
 N2324 N 0.65332 0.21279 0.67175
 C2325 C 0.67795 0.21416 0.68058
 C2326 C 0.68556 0.22104 0.71308
 C2327 C 0.66682 0.22545 0.73613
 C2328 C 0.64142 0.22384 0.72633
 H2329 H 0.54945 0.23799 0.69197
 H2330 H 0.57985 0.19744 0.60931
 H2331 H 0.69147 0.21010 0.66185
 H2332 H 0.67175 0.23059 0.76150
 H2333 H 0.59099 0.23806 0.71929
 H2334 H 0.62737 0.22738 0.74451
 C2335 C 0.10930 0.71024 0.17362
 C2336 C 0.08789 0.71461 0.19225
 C2337 C 0.06410 0.71214 0.17704
 C2338 C 0.06158 0.70511 0.14349
 C2339 C 0.08343 0.70015 0.12611
 N2340 N 0.10634 0.70314 0.14125
 C2341 C 0.13501 0.71535 0.18688
 N2342 N 0.15279 0.72192 0.16508
 C2343 C 0.17670 0.72772 0.17471
 C2344 C 0.18436 0.72665 0.20832
 C2345 C 0.16621 0.72016 0.23138
 C2346 C 0.14161 0.71433 0.22079
 H2347 H 0.04768 0.71611 0.19131
 H2348 H 0.08236 0.69498 0.10012
 H2349 H 0.18953 0.73343 0.15589
 H2350 H 0.17082 0.71996 0.25763
 H2351 H 0.08939 0.72091 0.21778
 H2352 H 0.12806 0.70905 0.23895
   
