data_POSCAR
  _audit_creation_date              2014-09-24
  _audit_creation_method            'ToBaCCo'
  _symmetry_space_group_name_H-M    'P1'
  _symmetry_Int_Tables_number       1
  _symmetry_cell_setting            triclinic
  loop_
  _symmetry_equiv_pos_as_xyz
 x,y,z
_cell_length_a 67.0154
_cell_length_b 66.5432
_cell_length_c 64.5091
_cell_angle_alpha 90.349300
_cell_angle_beta 90.216100
_cell_angle_gamma 90.066200
loop_
  _atom_site_label
  _atom_site_type_symbol
  _atom_site_fract_x
  _atom_site_fract_y
  _atom_site_fract_z
C1 C 0.29797 0.45014 0.92548
 C2 C 0.29227 0.43172 0.93395
 C3 C 0.30212 0.42389 0.95130
 C4 C 0.31819 0.43460 0.95999
 C5 C 0.32487 0.45292 0.95142
 C6 C 0.31392 0.46081 0.93455
 H7 H 0.28075 0.42292 0.92634
 H8 H 0.32605 0.42779 0.97275
 H9 H 0.31753 0.47542 0.92836
 C10 C 0.43882 0.82379 0.45377
 C11 C 0.44881 0.81800 0.43547
 C12 C 0.44179 0.80221 0.42298
 C13 C 0.42499 0.79135 0.42933
 C14 C 0.41467 0.79663 0.44744
 C15 C 0.42165 0.81289 0.45947
 H16 H 0.46155 0.82643 0.43009
 H17 H 0.41959 0.77906 0.41979
 H18 H 0.41364 0.81691 0.47337
 C19 C 0.94089 0.91804 0.81466
 C20 C 0.92301 0.92307 0.80459
 C21 C 0.91095 0.93865 0.81210
 C22 C 0.91678 0.94912 0.83011
 C23 C 0.93466 0.94446 0.84064
 C24 C 0.94666 0.92891 0.83242
 H25 H 0.91834 0.91473 0.79094
 H26 H 0.90739 0.96124 0.83553
 H27 H 0.96021 0.92446 0.84025
 C28 C 0.44017 -0.09111 0.31342
 C29 C 0.42585 -0.08012 0.30248
 C30 C 0.41644 -0.06342 0.31133
 C31 C 0.42307 -0.05638 0.33072
 C32 C 0.43825 -0.06649 0.34169
 C33 C 0.44663 -0.08405 0.33292
 H34 H 0.42149 -0.08511 0.28710
 H35 H 0.41606 -0.04327 0.33750
 H36 H 0.45744 -0.09271 0.34161
 C37 C 0.80794 0.30880 0.32555
 C38 C 0.80040 0.32704 0.31794
 C39 C 0.81132 0.33892 0.30387
 C40 C 0.82959 0.33133 0.29618
 C41 C 0.83680 0.31244 0.30271
 C42 C 0.82611 0.30170 0.31770
 H43 H 0.78587 0.33202 0.32306
 H44 H 0.83823 0.34000 0.28527
 H45 H 0.83245 0.28795 0.32370
 C46 C -0.18657 0.83566 0.80402
 C47 C -0.17247 0.82431 0.79273
 C48 C -0.16358 0.80701 0.80089
 C49 C -0.17025 0.79978 0.81998
 C50 C -0.18517 0.80988 0.83115
 C51 C -0.19327 0.82778 0.82313
 H52 H -0.16837 0.82874 0.77722
 H53 H -0.16352 0.78643 0.82646
 H54 H -0.20369 0.83608 0.83263
 C55 C 0.94440 0.33300 0.45262
 C56 C 0.95497 0.32459 0.43571
 C57 C 0.94864 0.30662 0.42610
 C58 C 0.93175 0.29669 0.43380
 C59 C 0.92123 0.30444 0.45077
 C60 C 0.92766 0.32242 0.46004
 H61 H 0.96764 0.33236 0.42924
 H62 H 0.92652 0.28303 0.42636
 H63 H 0.91950 0.32797 0.47330
 C64 C 0.43604 0.43366 0.83844
 C65 C 0.41963 0.44324 0.82923
 C66 C 0.41354 0.43847 0.80889
 C67 C 0.42400 0.42351 0.79783
 C68 C 0.44015 0.41329 0.80692
 C69 C 0.44614 0.41868 0.82714
 H70 H 0.41114 0.45402 0.83820
 H71 H 0.41973 0.41997 0.78203
 H72 H 0.45863 0.41102 0.83422
 C73 C 0.81127 0.91494 0.94453
 C74 C 0.80043 0.92400 0.92823
 C75 C 0.80627 0.94259 0.91986
 C76 C 0.82310 0.95238 0.92823
 C77 C 0.83474 0.94339 0.94375
 C78 C 0.82855 0.92489 0.95187
 H79 H 0.78819 0.91603 0.92096
 H80 H 0.82727 0.96704 0.92253
 H81 H 0.83730 0.91845 0.96421
 C82 C 0.30917 0.83751 0.30379
 C83 C 0.30117 0.82968 0.32227
 C84 C 0.30798 0.81172 0.33096
 C85 C 0.32413 0.80185 0.32165
 C86 C 0.33321 0.80936 0.30359
 C87 C 0.32550 0.82718 0.29471
 H88 H 0.29010 0.83812 0.33079
 H89 H 0.32974 0.78830 0.32867
 H90 H 0.33167 0.83238 0.28024
 C91 C 0.81551 0.40983 0.43815
 C92 C 0.80473 0.41614 0.42068
 C93 C 0.81070 0.43304 0.40943
 C94 C 0.82776 0.44375 0.41588
 C95 C 0.83903 0.43785 0.43340
 C96 C 0.83242 0.42081 0.44445
 H97 H 0.79177 0.40768 0.41564
 H98 H 0.83194 0.45692 0.40720
 H99 H 0.84081 0.41532 0.45757
 C100 C 0.94124 0.83930 -0.05760
 C101 C 0.92502 0.82756 -0.05050
 C102 C 0.91643 0.81214 -0.06269
 C103 C 0.92493 0.80773 -0.08206
 C104 C 0.94194 0.81800 -0.08908
 C105 C 0.94990 0.83368 -0.07677
 H106 H 0.91930 0.82990 -0.03505
 H107 H 0.91795 0.79665 -0.09205
 H108 H 0.96246 0.84189 -0.08276
 C109 C 0.30963 0.32936 0.80179
 C110 C 0.32487 0.31963 0.79091
 C111 C 0.33520 0.30342 0.79952
 C112 C 0.32793 0.29483 0.81785
 C113 C 0.31149 0.30332 0.82828
 C114 C 0.30281 0.32098 0.82036
 H115 H 0.32950 0.32551 0.77606
 H116 H 0.33544 0.28192 0.82430
 H117 H 0.29144 0.32877 0.82915
 C118 C 0.16241 0.56083 0.55879
 C119 C 0.17377 0.55122 0.57422
 C120 C 0.19150 0.55982 0.58178
 C121 C 0.19848 0.57753 0.57266
 C122 C 0.18697 0.58784 0.55803
 C123 C 0.16906 0.57932 0.55093
 H124 H 0.16838 0.53740 0.58089
 H125 H 0.21260 0.58390 0.57761
 H126 H 0.15984 0.58762 0.54016
 C127 C 0.59828 0.67555 0.06395
 C128 C 0.59078 0.68546 0.08155
 C129 C 0.57419 0.67782 0.09230
 C130 C 0.56513 0.65990 0.08515
 C131 C 0.57251 0.64978 0.06753
 C132 C 0.58874 0.65807 0.05687
 H133 H 0.59805 0.69903 0.08704
 H134 H 0.55285 0.65344 0.09373
 H135 H 0.59403 0.65084 0.04284
 C136 C 0.69067 0.18895 0.66113
 C137 C 0.69807 0.17141 0.67066
 C138 C 0.68751 0.16192 0.68686
 C139 C 0.66997 0.17133 0.69399
 C140 C 0.66183 0.18815 0.68414
 C141 C 0.67229 0.19691 0.66776
 H142 H 0.71173 0.16497 0.66483
 H143 H 0.66257 0.16591 0.70772
 H144 H 0.66579 0.20958 0.65975
 C145 C 1.09103 0.06438 0.20263
 C146 C 1.08464 0.05522 0.18402
 C147 C 1.06700 0.06135 0.17373
 C148 C 1.05627 0.07766 0.18231
 C149 C 1.06216 0.08707 0.20097
 C150 C 1.07929 0.07983 0.21124
 H151 H 1.09343 0.04305 0.17780
 H152 H 1.04397 0.08404 0.17372
 H153 H 1.08358 0.08622 0.22605
 C154 C 0.04705 0.17324 1.05220
 C155 C 0.06408 0.17956 1.04149
 C156 C 0.07624 0.19486 1.04941
 C157 C 0.07127 0.20401 1.06835
 C158 C 0.05449 0.19781 1.07989
 C159 C 0.04228 0.18251 1.07121
 H160 H 0.06821 0.17223 1.02711
 H161 H 0.08069 0.21608 1.07387
 H162 H 0.02952 0.17691 1.07954
 C163 C 0.16500 0.68812 0.69541
 C164 C 0.17412 0.67130 0.70443
 C165 C 0.18852 0.65996 0.69375
 C166 C 0.19537 0.66713 0.67460
 C167 C 0.18826 0.68532 0.66634
 C168 C 0.17262 0.69538 0.67657
 H169 H 0.16965 0.66684 0.71981
 H170 H 0.20594 0.65837 0.66574
 H171 H 0.16630 0.70874 0.66976
 C172 C 1.19605 0.16886 0.19428
 C173 C 1.20261 0.17872 0.17642
 C174 C 1.19052 0.19269 0.16624
 C175 C 1.17269 0.19889 0.17562
 C176 C 1.16661 0.19052 0.19460
 C177 C 1.17823 0.17525 0.20359
 H178 H 1.21690 0.17484 0.16974
 H179 H 1.16312 0.20951 0.16772
 H180 H 1.17310 0.16803 0.21757
 C181 C 0.66962 1.05330 0.55059
 C182 C 0.67970 1.04686 0.56862
 C183 C 0.69611 1.05748 0.57678
 C184 C 0.70282 1.07475 0.56639
 C185 C 0.69277 1.08213 0.54875
 C186 C 0.67641 1.07104 0.54101
 H187 H 0.67498 1.03342 0.57645
 H188 H 0.71530 1.08299 0.57285
 H189 H 0.66874 1.07652 0.52747
 C190 C 0.54486 0.54394 0.18266
 C191 C 0.53777 0.56325 0.18713
 C192 C 0.54771 0.57575 0.20127
 C193 C 0.56514 0.56886 0.21110
 C194 C 0.57272 0.54955 0.20665
 C195 C 0.56208 0.53704 0.19280
 H196 H 0.52476 0.56895 0.17907
 H197 H 0.57326 0.57894 0.22133
 H198 H 0.56739 0.52199 0.18955
 C199 C 0.66716 0.69825 0.19796
 C200 C 0.67339 0.70548 0.17861
 C201 C 0.68909 0.69624 0.16779
 C202 C 0.69856 0.67949 0.17660
 C203 C 0.69280 0.67223 0.19610
 C204 C 0.67729 0.68193 0.20678
 H205 H 0.66571 0.71811 0.17174
 H206 H 0.70991 0.67160 0.16787
 H207 H 0.67301 0.67671 0.22199
 C208 C 0.16475 0.06161 1.05905
 C209 C 0.17171 0.08049 1.05190
 C210 C 0.18948 0.08909 1.05977
 C211 C 0.20064 0.07833 1.07447
 C212 C 0.19364 0.06019 1.08265
 C213 C 0.17577 0.05212 1.07491
 H214 H 0.16358 0.08854 1.04010
 H215 H 0.21479 0.08431 1.07980
 H216 H 0.16976 0.03902 1.08249
 C217 C 0.59160 0.18075 0.55284
 C218 C 0.58258 0.19081 0.56948
 C219 C 0.56783 0.18151 0.58149
 C220 C 0.56121 0.16214 0.57583
 C221 C 0.56951 0.15205 0.55862
 C222 C 0.58466 0.16158 0.54724
 H223 H 0.58732 0.20595 0.57330
 H224 H 0.55026 0.15457 0.58531
 H225 H 0.59144 0.15384 0.53426
 C226 C 0.09417 0.57201 0.68625
 C227 C 0.08576 0.59014 0.69310
 C228 C 0.07083 0.59991 0.68167
 C229 C 0.06339 0.59066 0.66354
 C230 C 0.07092 0.57196 0.65672
 C231 C 0.08631 0.56279 0.66833
 H232 H 0.09105 0.59685 0.70744
 H233 H 0.05234 0.59845 0.65432
 H234 H 0.09251 0.54862 0.66320
 C235 C 0.66144 0.55790 0.04702
 C236 C 0.66932 0.55007 0.06547
 C237 C 0.68670 0.55808 0.07457
 C238 C 0.69549 0.57530 0.06571
 C239 C 0.68771 0.58383 0.04738
 C240 C 0.67137 0.57413 0.03769
 H241 H 0.66152 0.53809 0.07330
 H242 H 0.70824 0.58208 0.07330
 H243 H 0.66613 0.57931 0.02280
 C244 C 0.05344 0.70134 0.56930
 C245 C 0.07140 0.70699 0.55981
 C246 C 0.07987 0.69512 0.54399
 C247 C 0.06996 0.67740 0.53774
 C248 C 0.05219 0.67133 0.54735
 C249 C 0.04395 0.68357 0.56287
 H250 H 0.07900 0.72043 0.56512
 H251 H 0.07634 0.66802 0.52572
 H252 H 0.03031 0.67890 0.57039
 C253 C 0.55035 1.04901 0.68417
 C254 C 0.56886 1.04269 0.69261
 C255 C 0.57799 1.05309 0.70920
 C256 C 0.56789 1.06931 0.71830
 C257 C 0.54999 1.07646 0.70986
 C258 C 0.54141 1.06628 0.69295
 H259 H 0.57649 1.02978 0.68636
 H260 H 0.57433 1.07683 0.73166
 H261 H 0.52855 1.07301 0.68565
 C262 C 0.43200 0.33380 0.93540
 C263 C 0.41346 0.32617 0.94240
 C264 C 0.40512 0.30855 0.93361
 C265 C 0.41561 0.29844 0.91785
 C266 C 0.43398 0.30560 0.91075
 C267 C 0.44225 0.32272 0.92009
 H268 H 0.40477 0.33450 0.95362
 H269 H 0.40925 0.28509 0.91076
 H270 H 0.45717 0.32703 0.91557
 C271 C 0.93942 0.44772 0.32344
 C272 C 0.94832 0.43110 0.31347
 C273 C 0.93947 0.42241 0.29574
 C274 C 0.92229 0.43125 0.28745
 C275 C 0.91243 0.44679 0.29788
 C276 C 0.92116 0.45508 0.31577
 H277 H 0.96184 0.42467 0.31976
 H278 H 0.91609 0.42548 0.27308
 H279 H 0.91330 0.46670 0.32425
 C280 C 0.30883 0.94206 0.42228
 C281 C 0.30005 0.92571 0.43258
 C282 C 0.30891 0.91708 0.45014
 C283 C 0.32740 0.92448 0.45718
 C284 C 0.33677 0.94066 0.44718
 C285 C 0.32699 0.94970 0.43028
 H286 H 0.28692 0.91853 0.42618
 H287 H 0.33461 0.91735 0.47022
 H288 H 0.33345 0.96311 0.42374
 O289 O 0.30338 0.48952 0.76926
 O290 O 0.29889 0.52562 0.76379
 O291 O 0.25222 0.47387 0.80448
 O292 O 0.21876 0.47709 0.80105
 O293 O 0.26923 0.43892 0.75151
 O294 O 0.26500 0.44327 0.71428
 O295 O 0.19859 0.52395 0.74541
 O296 O 0.20679 0.52241 0.78247
 O297 O 0.24953 0.54428 0.71623
 O298 O 0.28476 0.53384 0.71592
 O299 O 0.21935 0.49262 0.69454
 O300 O 0.21950 0.45626 0.70627
 O301 O 0.19470 0.49712 0.72380
 O302 O 0.19862 0.46130 0.72817
 O303 O 0.24451 0.51537 0.69140
 O304 O 0.28119 0.51074 0.69573
 O305 O 0.22677 0.54785 0.74199
 O306 O 0.23151 0.54632 0.77685
 O307 O 0.29904 0.46346 0.74673
 O308 O 0.28948 0.46289 0.71108
 O309 O 0.24743 0.44302 0.77820
 O310 O 0.21286 0.45354 0.77738
 O311 O 0.27835 0.49514 0.79961
 O312 O 0.28006 0.52995 0.78857
 Zr313 Zr 0.27563 0.50475 0.76891
 O314 O 0.25792 0.52383 0.75063
 Zr315 Zr 0.23779 0.47300 0.77527
 O316 O 0.21861 0.49040 0.75655
 Zr317 Zr 0.26959 0.46661 0.73617
 O318 O 0.25220 0.48408 0.71601
 Zr319 Zr 0.22756 0.52055 0.75791
 O320 O 0.24552 0.50363 0.77862
 Zr321 Zr 0.25990 0.51456 0.71960
 O322 O 0.27932 0.49668 0.73763
 Zr323 Zr 0.22224 0.48223 0.72521
 O324 O 0.23944 0.46302 0.74420
 O325 O 0.26769 0.47467 0.76722
 O326 O 0.22970 0.51260 0.72682
 C327 C 0.30954 0.47356 0.75984
 C328 C 0.26801 0.48318 0.81080
 C329 C 0.25989 0.43258 0.76756
 C330 C 0.18846 0.51342 0.73226
 C331 C 0.23628 0.55440 0.72617
 C332 C 0.22913 0.50599 0.68447
 H333 H 0.26231 0.53789 0.75274
 H334 H 0.25411 0.47929 0.70163
 H335 H 0.27609 0.46615 0.77624
 H336 H 0.20463 0.48889 0.76115
 H337 H 0.21404 0.51861 0.79526
 H338 H 0.20721 0.48512 0.79636
 H339 H 0.27762 0.49846 0.68783
 H340 H 0.29669 0.47579 0.70966
 H341 H 0.23998 0.54215 0.78862
 H342 H 0.26912 0.52996 0.79883
 H343 H 0.22964 0.45712 0.69520
 H344 H 0.25188 0.43719 0.71746
 H345 H 0.30496 0.52205 0.75029
 H346 H 0.28510 0.54315 0.72793
 H347 H 0.21272 0.44522 0.76461
 H348 H 0.19211 0.46383 0.74166
 O349 O 0.25389 0.06234 0.23256
 O350 O 0.28968 0.05771 0.23305
 O351 O 0.23399 0.01154 0.19729
 O352 O 0.23679 -0.02224 0.19973
 O353 O 0.20465 0.02901 0.25338
 O354 O 0.21218 0.02286 0.28962
 O355 O 0.28949 -0.04333 0.24813
 O356 O 0.28517 -0.03360 0.21266
 O357 O 0.31231 0.00821 0.27848
 O358 O 0.30165 0.04377 0.28020
 O359 O 0.26456 -0.02324 0.30372
 O360 O 0.22775 -0.02384 0.29656
 O361 O 0.26597 -0.04753 0.27301
 O362 O 0.22932 -0.04326 0.27258
 O363 O 0.28695 0.00244 0.30535
 O364 O 0.28092 0.03938 0.30265
 O365 O 0.31317 -0.01536 0.25283
 O366 O 0.30911 -0.00841 0.21772
 O367 O 0.23048 0.05851 0.25770
 O368 O 0.23254 0.04711 0.29277
 O369 O 0.20614 0.00667 0.22657
 O370 O 0.21694 -0.02860 0.22549
 O371 O 0.25526 0.03801 0.20078
 O372 O 0.29100 0.03890 0.20786
 Zr373 Zr 0.26829 0.03447 0.23010
 O374 O 0.28905 0.01678 0.24616
 Zr375 Zr 0.23609 -0.00327 0.22614
 O376 O 0.25546 -0.02275 0.24234
 Zr377 Zr 0.23362 0.02823 0.26633
 O378 O 0.25298 0.01031 0.28418
 Zr379 Zr 0.28516 -0.01359 0.23828
 O380 O 0.26606 0.00441 0.21978
 Zr381 Zr 0.28268 0.01838 0.27791
 O382 O 0.26326 0.03797 0.26206
 Zr383 Zr 0.25066 -0.01984 0.27446
 O384 O 0.22953 -0.00217 0.25808
 O385 O 0.23861 0.02673 0.23462
 O386 O 0.28033 -0.01196 0.27003
 C387 C 0.23956 0.06890 0.24391
 C388 C 0.24232 0.02769 0.19056
 C389 C 0.19674 0.01942 0.23802
 C390 C 0.28074 -0.05385 0.26205
 C391 C 0.32103 -0.00578 0.26820
 C392 C 0.27877 -0.01340 0.31266
 H393 H 0.30275 0.02131 0.24294
 H394 H 0.24977 0.01190 0.29904
 H395 H 0.22938 0.03547 0.22678
 H396 H 0.25350 -0.03671 0.23741
 H397 H 0.28005 -0.02599 0.20062
 H398 H 0.24674 -0.03284 0.20253
 H399 H 0.27024 0.03494 0.31213
 H400 H 0.24541 0.05441 0.29327
 H401 H 0.30377 -0.00007 0.20638
 H402 H 0.28935 0.02840 0.19706
 H403 H 0.22876 -0.01277 0.30681
 H404 H 0.20654 0.00936 0.28679
 H405 H 0.28817 0.06342 0.24717
 H406 H 0.31040 0.04379 0.26789
 H407 H 0.20966 -0.02864 0.23881
 H408 H 0.23114 -0.05018 0.25911
 O409 O 0.54861 0.71485 0.25493
 O410 O 0.53760 0.72048 0.29207
 O411 O 0.49715 0.69225 0.22570
 O412 O 0.46422 0.70158 0.22340
 O413 O 0.52953 0.74042 0.19963
 O414 O 0.52893 0.77700 0.20666
 O415 O 0.44467 0.75462 0.27293
 O416 O 0.44607 0.71916 0.26816
 O417 O 0.49463 0.77132 0.30618
 O418 O 0.53225 0.76413 0.30136
 O419 O 0.47907 0.80103 0.25307
 O420 O 0.48544 0.79321 0.21400
 O421 O 0.45003 0.77807 0.24810
 O422 O 0.45982 0.77656 0.21257
 O423 O 0.50153 0.79847 0.27941
 O424 O 0.53465 0.78835 0.28250
 O425 O 0.46874 0.74927 0.30334
 O426 O 0.46731 0.71552 0.29641
 O427 O 0.55392 0.73977 0.23163
 O428 O 0.54992 0.77507 0.23090
 O429 O 0.50266 0.71963 0.19690
 O430 O 0.46784 0.72652 0.20026
 O431 O 0.51666 0.69017 0.25456
 O432 O 0.51751 0.69670 0.28779
 Zr433 Zr 0.51914 0.71965 0.26536
 O434 O 0.50124 0.73874 0.28338
 Zr435 Zr 0.48785 0.72265 0.22542
 O436 O 0.46907 0.74289 0.24147
 Zr437 Zr 0.52621 0.75415 0.22912
 O438 O 0.50955 0.77535 0.24626
 Zr439 Zr 0.47135 0.73763 0.27335
 O440 O 0.48870 0.71602 0.25733
 Zr441 Zr 0.51038 0.76841 0.27803
 O442 O 0.52958 0.74913 0.26119
 Zr443 Zr 0.47933 0.77262 0.23807
 O444 O 0.49629 0.75260 0.21939
 O445 O 0.51778 0.72447 0.23366
 O446 O 0.48028 0.76737 0.26982
 C447 C 0.55969 0.72450 0.24211
 C448 C 0.50811 0.68243 0.23861
 C449 C 0.51880 0.72737 0.18979
 C450 C 0.43921 0.76991 0.26213
 C451 C 0.47918 0.76226 0.31336
 C452 C 0.48859 0.80821 0.26886
 H453 H 0.50255 0.73485 0.29809
 H454 H 0.51473 0.78900 0.24361
 H455 H 0.52608 0.71470 0.22595
 H456 H 0.45512 0.74140 0.23666
 H457 H 0.45108 0.70615 0.26281
 H458 H 0.45187 0.70837 0.22802
 H459 H 0.53776 0.79430 0.26888
 H460 H 0.55488 0.77473 0.24536
 H461 H 0.47274 0.70281 0.29074
 H462 H 0.50563 0.69959 0.29634
 H463 H 0.49566 0.80279 0.21910
 H464 H 0.51701 0.77601 0.19760
 H465 H 0.54826 0.73046 0.28947
 H466 H 0.52670 0.75480 0.31174
 H467 H 0.47118 0.73954 0.19379
 H468 H 0.45191 0.76408 0.21107
 O469 O -0.00237 0.78430 0.79653
 O470 O 0.03316 0.78140 0.79285
 O471 O -0.01898 0.81651 0.74182
 O472 O -0.01791 0.81270 0.70787
 O473 O -0.05157 0.76353 0.76117
 O474 O -0.04534 0.72816 0.75701
 O475 O 0.03524 0.76277 0.68918
 O476 O 0.03136 0.79778 0.69697
 O477 O 0.05509 0.73472 0.74128
 O478 O 0.04469 0.73304 0.77762
 O479 O 0.00538 0.71141 0.70903
 O480 O -0.02903 0.71940 0.70663
 O481 O 0.00983 0.74056 0.68413
 O482 O -0.02796 0.74422 0.68874
 O483 O 0.02816 0.70923 0.73512
 O484 O 0.02201 0.71329 0.77387
 O485 O 0.05842 0.76087 0.71908
 O486 O 0.05237 0.79672 0.72365
 O487 O -0.02622 0.76018 0.79259
 O488 O -0.02495 0.72535 0.78173
 O489 O -0.04819 0.78960 0.73878
 O490 O -0.03743 0.78744 0.70170
 O491 O 0.00120 0.81368 0.77010
 O492 O 0.03648 0.80509 0.77132
 Zr493 Zr 0.01279 0.78430 0.76796
 O494 O 0.03307 0.76706 0.75047
 Zr495 Zr -0.01861 0.78785 0.72816
 O496 O 0.00053 0.77130 0.70874
 Zr497 Zr -0.02303 0.75024 0.76163
 O498 O -0.00452 0.73171 0.74336
 Zr499 Zr 0.03015 0.77440 0.71899
 O500 O 0.01134 0.79330 0.73670
 Zr501 Zr 0.02543 0.73647 0.75181
 O502 O 0.00672 0.75345 0.77175
 Zr503 Zr -0.00607 0.74063 0.71219
 O504 O -0.02669 0.75736 0.73007
 O505 O -0.01684 0.78072 0.75941
 O506 O 0.02382 0.74379 0.72057
 C507 C -0.01709 0.77380 0.80326
 C508 C -0.01087 0.82355 0.75842
 C509 C -0.05836 0.77900 0.75159
 C510 C 0.02572 0.74971 0.67825
 C511 C 0.06520 0.74532 0.72842
 C512 C 0.01912 0.70213 0.71903
 H513 H 0.04674 0.76947 0.75572
 H514 H -0.00854 0.71753 0.74505
 H515 H -0.02574 0.78912 0.76806
 H516 H -0.00093 0.77579 0.69423
 H517 H 0.02482 0.80961 0.70339
 H518 H -0.00801 0.80962 0.69698
 H519 H 0.01138 0.70413 0.76886
 H520 H -0.01230 0.72505 0.78969
 H521 H 0.05911 0.79409 0.73702
 H522 H 0.03673 0.81313 0.75846
 H523 H -0.03115 0.71198 0.71968
 H524 H -0.05085 0.73034 0.74294
 H525 H 0.03149 0.76761 0.79824
 H526 H 0.05261 0.74552 0.77901
 H527 H -0.04664 0.77589 0.70321
 H528 H -0.02352 0.75514 0.67950
 O529 O 0.04540 0.03675 0.00880
 O530 O 0.03757 0.03516 -0.02687
 O531 O -0.00859 0.05402 0.03781
 O532 O -0.04029 0.04328 0.03843
 O533 O 0.02597 0.00650 0.06191
 O534 O 0.02893 -0.02851 0.05354
 O535 O -0.05502 -0.00618 -0.01696
 O536 O -0.05443 0.02897 -0.01177
 O537 O -0.00198 -0.02081 -0.04738
 O538 O 0.03317 -0.01511 -0.04100
 O539 O -0.02154 -0.05312 0.00369
 O540 O -0.01876 -0.05010 0.03962
 O541 O -0.05127 -0.03008 0.00776
 O542 O -0.04006 -0.02833 0.04621
 O543 O 0.00167 -0.04883 -0.02147
 O544 O 0.03748 -0.03625 -0.01896
 O545 O -0.03020 -0.00202 -0.04503
 O546 O -0.03132 0.03236 -0.03892
 O547 O 0.05136 0.01123 0.03131
 O548 O 0.04868 -0.02551 0.02836
 O549 O -0.00210 0.02551 0.06454
 O550 O -0.03769 0.01651 0.05761
 O551 O 0.01348 0.05915 0.01163
 O552 O 0.01195 0.05199 -0.02668
 Zr553 Zr 0.01671 0.03081 -0.00280
 O554 O 0.00154 0.01097 -0.02281
 Zr555 Zr -0.01585 0.02345 0.03511
 O556 O -0.03305 0.00399 0.01630
 Zr557 Zr 0.02442 -0.00547 0.03161
 O558 O 0.00871 -0.02677 0.01338
 Zr559 Zr -0.02878 0.01074 -0.01515
 O560 O -0.01403 0.03238 0.00371
 Zr561 Zr 0.01114 -0.01871 -0.01790
 O562 O 0.02847 0.00154 0.00014
 Zr563 Zr -0.02209 -0.02537 0.01950
 O564 O -0.00597 -0.00619 0.04005
 O565 O 0.01438 0.02379 0.02836
 O566 O -0.01935 -0.01883 -0.01183
 C567 C 0.05652 0.02741 0.02180
 C568 C 0.00329 0.06516 0.02735
 C569 C 0.01425 0.01834 0.07196
 C570 C -0.06124 -0.02140 -0.00675
 C571 C -0.01827 -0.01376 -0.05490
 C572 C -0.01158 -0.05938 -0.01207
 H573 H 0.00352 0.01532 -0.03729
 H574 H 0.01396 -0.04042 0.01592
 H575 H 0.02192 0.03338 0.03717
 H576 H -0.04726 0.00509 0.02022
 H577 H -0.04986 0.04196 -0.00589
 H578 H -0.05094 0.03842 0.02900
 H579 H 0.03630 -0.04701 -0.00852
 H580 H 0.05478 -0.02267 0.01473
 H581 H -0.02719 0.04538 -0.03286
 H582 H 0.00061 0.06061 -0.02251
 H583 H -0.00447 -0.05084 0.04333
 H584 H 0.01643 -0.02955 0.06160
 H585 H 0.04588 0.02288 -0.02742
 H586 H 0.03065 -0.00210 -0.04785
 H587 H -0.03250 0.00510 0.06580
 H588 H -0.05194 -0.01970 0.04429
 O589 O -0.02209 0.44804 0.49947
 O590 O -0.02016 0.45934 0.53510
 O591 O -0.05292 0.49540 0.46929
 O592 O -0.04948 0.52889 0.46636
 O593 O -0.00033 0.47048 0.44327
 O594 O 0.03487 0.47606 0.44970
 O595 O 0.00005 0.55788 0.51564
 O596 O -0.03521 0.54970 0.51265
 O597 O 0.02680 0.51254 0.54794
 O598 O 0.02658 0.47560 0.54575
 O599 O 0.05111 0.53119 0.49241
 O600 O 0.04327 0.52462 0.45533
 O601 O 0.02297 0.55640 0.48977
 O602 O 0.02105 0.54492 0.45344
 O603 O 0.05242 0.51025 0.52007
 O604 O 0.04683 0.47291 0.52273
 O605 O 0.00136 0.53499 0.54588
 O606 O -0.03208 0.52946 0.54203
 O607 O 0.00255 0.44658 0.47534
 O608 O 0.03676 0.45638 0.47506
 O609 O -0.02503 0.49376 0.44043
 O610 O -0.02447 0.53047 0.44457
 O611 O -0.05142 0.47433 0.49688
 O612 O -0.04325 0.47958 0.53373
 Zr613 Zr -0.02247 0.47843 0.50913
 O614 O -0.00570 0.49934 0.52666
 Zr615 Zr -0.02475 0.50933 0.46898
 O616 O -0.00808 0.53159 0.48477
 Zr617 Zr 0.01235 0.47634 0.47257
 O618 O 0.03064 0.49701 0.48843
 Zr619 Zr -0.01190 0.52868 0.51691
 O620 O -0.03084 0.50797 0.50109
 Zr621 Zr 0.02476 0.49553 0.52036
 O622 O 0.00819 0.47299 0.50470
 Zr623 Zr 0.02248 0.52631 0.47990
 O624 O 0.00570 0.50546 0.46213
 O625 O -0.01803 0.48006 0.47739
 O626 O 0.01850 0.52497 0.51188
 C627 C -0.01121 0.43850 0.48626
 C628 C -0.06055 0.48210 0.48129
 C629 C -0.01467 0.47897 0.43337
 C630 C 0.01357 0.56577 0.50417
 C631 C 0.01660 0.52738 0.55511
 C632 C 0.05997 0.52371 0.50827
 H633 H -0.00877 0.49781 0.54155
 H634 H 0.04476 0.49409 0.48526
 H635 H -0.02613 0.47003 0.46970
 H636 H -0.01220 0.54509 0.48009
 H637 H -0.04730 0.54189 0.50892
 H638 H -0.04595 0.54147 0.47374
 H639 H 0.05602 0.47440 0.51088
 H640 H 0.03690 0.45156 0.48954
 H641 H -0.04350 0.52088 0.53803
 H642 H -0.05327 0.48993 0.53022
 H643 H 0.05257 0.51347 0.45832
 H644 H 0.03265 0.48805 0.44097
 H645 H -0.00650 0.45369 0.53488
 H646 H 0.01428 0.47720 0.55402
 H647 H -0.01191 0.52835 0.43683
 H648 H 0.00871 0.55300 0.45438
 O649 O 0.50541 0.03798 0.53895
 O650 O 0.47074 0.03024 0.53832
 O651 O 0.53042 -0.01500 0.56700
 O652 O 0.53012 -0.04800 0.56102
 O653 O 0.55747 0.00996 0.51312
 O654 O 0.54947 0.00900 0.47683
 O655 O 0.47835 -0.06799 0.51004
 O656 O 0.48249 -0.06253 0.54641
 O657 O 0.45174 -0.01746 0.48603
 O658 O 0.45864 0.01876 0.48732
 O659 O 0.50276 -0.04134 0.45775
 O660 O 0.53806 -0.04015 0.46450
 O661 O 0.50290 -0.06816 0.48581
 O662 O 0.53957 -0.06001 0.48771
 O663 O 0.47798 -0.01808 0.45823
 O664 O 0.48046 0.01930 0.46593
 O665 O 0.45165 -0.04104 0.51137
 O666 O 0.45890 -0.03956 0.54787
 O667 O 0.52972 0.03792 0.51439
 O668 O 0.52684 0.03103 0.47755
 O669 O 0.55752 -0.01385 0.53828
 O670 O 0.55007 -0.05005 0.53385
 O671 O 0.50684 0.00958 0.56783
 O672 O 0.47112 0.00734 0.56062
 Zr673 Zr 0.49376 0.00855 0.53792
 O674 O 0.47442 -0.00895 0.51936
 Zr675 Zr 0.52886 -0.02664 0.53688
 O676 O 0.51086 -0.04590 0.51885
 Zr677 Zr 0.52825 0.00901 0.50100
 O678 O 0.51063 -0.00886 0.48103
 Zr679 Zr 0.48059 -0.03952 0.52401
 O680 O 0.49856 -0.02207 0.54433
 Zr681 Zr 0.48031 -0.00434 0.48775
 O682 O 0.49790 0.01534 0.50631
 Zr683 Zr 0.51556 -0.03936 0.48743
 O684 O 0.53521 -0.02148 0.50545
 O685 O 0.52382 0.00379 0.53230
 O686 O 0.48516 -0.03486 0.49245
 C687 C 0.51959 0.04647 0.52887
 C688 C 0.52107 -0.00066 0.57613
 C689 C 0.56595 0.00017 0.52786
 C690 C 0.48845 -0.07647 0.49555
 C691 C 0.44326 -0.03143 0.49650
 C692 C 0.48802 -0.03215 0.44934
 H693 H 0.46047 -0.00556 0.52282
 H694 H 0.51376 -0.00560 0.46648
 H695 H 0.53241 0.01239 0.54116
 H696 H 0.51397 -0.06004 0.52218
 H697 H 0.48902 -0.05656 0.55880
 H698 H 0.52229 -0.05985 0.55650
 H699 H 0.49138 0.01673 0.45600
 H700 H 0.51362 0.03754 0.47881
 H701 H 0.45169 -0.02662 0.54744
 H702 H 0.47280 -0.00559 0.56795
 H703 H 0.53762 -0.02725 0.45700
 H704 H 0.55611 -0.00427 0.47720
 H705 H 0.47049 0.03629 0.52434
 H706 H 0.45079 0.01777 0.50022
 H707 H 0.55809 -0.04716 0.52136
 H708 H 0.53730 -0.06956 0.49916
 O709 O 0.49985 0.54379 0.03910
 O710 O 0.46533 0.53828 0.04132
 O711 O 0.52450 0.48809 0.06110
 O712 O 0.52364 0.45586 0.05277
 O713 O 0.54750 0.51610 0.00619
 O714 O 0.53661 0.51685 -0.02895
 O715 O 0.46426 0.44122 0.00779
 O716 O 0.47172 0.44437 0.04295
 O717 O 0.43903 0.49435 -0.01179
 O718 O 0.44758 0.52993 -0.00915
 O719 O 0.48490 0.46884 -0.04556
 O720 O 0.52038 0.46762 -0.04327
 O721 O 0.48540 0.44128 -0.01965
 O722 O 0.52366 0.44703 -0.02014
 O723 O 0.46284 0.49455 -0.04222
 O724 O 0.46775 0.53097 -0.03221
 O725 O 0.43993 0.46933 0.01203
 O726 O 0.45140 0.46973 0.04905
 O727 O 0.52156 0.54434 0.01202
 O728 O 0.51439 0.53934 -0.02526
 O729 O 0.54940 0.49046 0.02923
 O730 O 0.53922 0.45437 0.02333
 O731 O 0.50163 0.51299 0.06577
 O732 O 0.46550 0.51389 0.06138
 Zr733 Zr 0.48659 0.51519 0.03712
 O734 O 0.46474 0.49987 0.01970
 Zr735 Zr 0.52001 0.47869 0.03042
 O736 O 0.49903 0.46118 0.01380
 Zr737 Zr 0.51743 0.51632 -0.00302
 O738 O 0.49734 0.50005 -0.02197
 Zr739 Zr 0.46977 0.46888 0.02234
 O740 O 0.49075 0.48412 0.04131
 Zr741 Zr 0.46814 0.50597 -0.01206
 O742 O 0.48815 0.52376 0.00575
 Zr743 Zr 0.50088 0.46893 -0.01759
 O744 O 0.52321 0.48524 -0.00122
 O745 O 0.51580 0.50950 0.02827
 O746 O 0.47156 0.47501 -0.00923
 C747 C 0.51336 0.55231 0.02813
 C748 C 0.51589 0.50163 0.07214
 C749 C 0.55717 0.50514 0.01910
 C750 C 0.47155 0.43322 -0.00866
 C751 C 0.43083 0.48010 -0.00151
 C752 C 0.47056 0.47977 -0.05232
 H753 H 0.45138 0.50377 0.02471
 H754 H 0.49934 0.50382 -0.03661
 H755 H 0.52548 0.51710 0.03689
 H756 H 0.50155 0.44672 0.01607
 H757 H 0.48061 0.44868 0.05444
 H758 H 0.51349 0.44545 0.04975
 H759 H 0.47788 0.52864 -0.04307
 H760 H 0.50252 0.54729 -0.02126
 H761 H 0.44220 0.48128 0.04787
 H762 H 0.46699 0.50055 0.06791
 H763 H 0.52132 0.48134 -0.04897
 H764 H 0.54228 0.50317 -0.03023
 H765 H 0.46373 0.54483 0.02768
 H766 H 0.44116 0.52882 0.00457
 H767 H 0.54667 0.45804 0.01069
 H768 H 0.52056 0.43605 -0.01040
 O769 O 0.77947 0.29952 0.49388
 O770 O 0.78186 0.29008 0.52964
 O771 O 0.80223 0.24898 0.46141
 O772 O 0.79546 0.21626 0.45791
 O773 O 0.74802 0.27779 0.44285
 O774 O 0.71394 0.27428 0.45407
 O775 O 0.75566 0.19175 0.51588
 O776 O 0.78911 0.19848 0.50968
 O777 O 0.73457 0.24058 0.55150
 O778 O 0.73567 0.27715 0.54771
 O779 O 0.70109 0.22075 0.50095
 O780 O 0.70268 0.22392 0.46426
 O781 O 0.72737 0.19402 0.49649
 O782 O 0.72548 0.20444 0.45785
 O783 O 0.70519 0.24231 0.52809
 O784 O 0.71244 0.27972 0.52773
 O785 O 0.75612 0.21495 0.54519
 O786 O 0.79283 0.22086 0.53494
 O787 O 0.75129 0.30219 0.47427
 O788 O 0.71633 0.29399 0.47978
 O789 O 0.77093 0.25332 0.43665
 O790 O 0.76705 0.21605 0.44164
 O791 O 0.80627 0.27043 0.48875
 O792 O 0.80301 0.26728 0.52565
 Zr793 Zr 0.77892 0.26967 0.50457
 O794 O 0.76382 0.25067 0.52524
 Zr795 Zr 0.77319 0.23767 0.46504
 O796 O 0.75847 0.21687 0.48425
 Zr797 Zr 0.73924 0.27297 0.47369
 O798 O 0.72250 0.25359 0.49260
 Zr799 Zr 0.76734 0.22082 0.51530
 O800 O 0.78424 0.23962 0.49572
 Zr801 Zr 0.73302 0.25598 0.52323
 O802 O 0.74835 0.27700 0.50470
 Zr803 Zr 0.72781 0.22345 0.48419
 O804 O 0.74230 0.24310 0.46322
 O805 O 0.76973 0.26746 0.47391
 O806 O 0.73675 0.22596 0.51494
 C807 C 0.76733 0.30948 0.48235
 C808 C 0.81255 0.26149 0.47229
 C809 C 0.76077 0.26884 0.43117
 C810 C 0.73945 0.18438 0.50842
 C811 C 0.74345 0.22427 0.55669
 C812 C 0.69528 0.22891 0.51799
 H813 H 0.76889 0.25275 0.53949
 H814 H 0.70820 0.25705 0.49147
 H815 H 0.77747 0.27666 0.46502
 H816 H 0.76121 0.20302 0.47941
 H817 H 0.79981 0.20491 0.50152
 H818 H 0.79337 0.20470 0.46720
 H819 H 0.70128 0.27778 0.51783
 H820 H 0.71922 0.29985 0.49361
 H821 H 0.78960 0.22827 0.54783
 H822 H 0.80888 0.25380 0.52345
 H823 H 0.69696 0.23758 0.46505
 H824 H 0.71411 0.26189 0.44549
 H825 H 0.76868 0.29658 0.53135
 H826 H 0.74916 0.27574 0.55378
 H827 H 0.75425 0.21991 0.43507
 H828 H 0.73554 0.19366 0.45926
 O829 O 0.80535 0.75682 -0.02752
 O830 O 0.80068 0.72048 -0.02614
 O831 O 0.75076 0.77643 -0.05574
 O832 O 0.71804 0.77317 -0.04969
 O833 O 0.77370 0.80545 -0.00130
 O834 O 0.77228 0.79712 0.03555
 O835 O 0.70210 0.72068 0.00116
 O836 O 0.70791 0.72534 -0.03616
 O837 O 0.75458 0.69692 0.02455
 O838 O 0.79015 0.70646 0.02221
 O839 O 0.72707 0.74499 0.05285
 O840 O 0.72767 0.78270 0.04678
 O841 O 0.70045 0.74548 0.02552
 O842 O 0.70542 0.78141 0.02560
 O843 O 0.75352 0.72362 0.05278
 O844 O 0.78965 0.72802 0.04449
 O845 O 0.72975 0.69610 0.00050
 O846 O 0.73242 0.70075 -0.03438
 O847 O 0.80317 0.78030 -0.00186
 O848 O 0.79680 0.77710 0.03441
 O849 O 0.74946 0.80402 -0.02610
 O850 O 0.71451 0.79341 -0.02291
 O851 O 0.77762 0.75553 -0.05593
 O852 O 0.77898 0.71905 -0.04946
 Zr853 Zr 0.77734 0.74182 -0.02650
 O854 O 0.76110 0.72083 -0.00873
 Zr855 Zr 0.73943 0.77402 -0.02550
 O856 O 0.72181 0.75467 -0.00745
 Zr857 Zr 0.77475 0.77618 0.01091
 O858 O 0.75891 0.75668 0.03044
 Zr859 Zr 0.73024 0.72477 -0.01290
 O860 O 0.74645 0.74393 -0.03309
 Zr861 Zr 0.76577 0.72664 0.02296
 O862 O 0.78375 0.74633 0.00519
 Zr863 Zr 0.72831 0.75958 0.02408
 O864 O 0.74404 0.78074 0.00611
 O865 O 0.76992 0.77149 -0.02051
 O866 O 0.73511 0.72949 0.01857
 C867 C 0.81242 0.77175 -0.01692
 C868 C 0.76609 0.76855 -0.06451
 C869 C 0.76310 0.81336 -0.01579
 C870 C 0.69315 0.73028 0.01582
 C871 C 0.74014 0.68799 0.01499
 C872 C 0.73812 0.73156 0.06133
 H873 H 0.76502 0.70701 -0.01269
 H874 H 0.76210 0.75990 0.04505
 H875 H 0.77763 0.78091 -0.02917
 H876 H 0.70754 0.75679 -0.01070
 H877 H 0.71439 0.73018 -0.04898
 H878 H 0.70742 0.76373 -0.04548
 H879 H 0.78718 0.73951 0.05394
 H880 H 0.80423 0.76428 0.03341
 H881 H 0.74092 0.70560 -0.04577
 H882 H 0.76756 0.72101 -0.05899
 H883 H 0.73846 0.78013 0.05692
 H884 H 0.75887 0.80326 0.03435
 H885 H 0.80740 0.72189 -0.01251
 H886 H 0.78912 0.69847 0.00927
 H887 H 0.71628 0.80122 -0.00992
 H888 H 0.69761 0.78044 0.01259
 O889 O 1.05932 0.23241 0.25232
 O890 O 1.05327 0.23877 0.28914
 O891 O 1.00817 0.20052 0.23276
 O892 O 0.97428 0.20517 0.23700
 O893 O 1.02829 0.24929 0.19744
 O894 O 1.02601 0.28549 0.20085
 O895 O 0.95491 0.26259 0.28245
 O896 O 0.96054 0.22647 0.28183
 O897 O 1.00561 0.28961 0.30376
 O898 O 1.04237 0.28592 0.29542
 O899 O 0.98044 0.30938 0.24958
 O900 O 0.98033 0.29631 0.21243
 O901 O 0.95431 0.28415 0.25522
 O902 O 0.95790 0.27650 0.21798
 O903 O 1.00582 0.31259 0.27284
 O904 O 1.04126 0.30519 0.27141
 O905 O 0.98322 0.26435 0.30852
 O906 O 0.98416 0.22893 0.30607
 O907 O 1.05773 0.25390 0.22503
 O908 O 1.04972 0.28836 0.22178
 O909 O 1.00394 0.22572 0.20126
 O910 O 0.96989 0.22754 0.21116
 O911 O 1.03276 0.20450 0.25683
 O912 O 1.03214 0.21541 0.29222
 Zr913 Zr 1.03096 0.23461 0.26625
 O914 O 1.01388 0.25422 0.28469
 Zr915 Zr 0.99429 0.22928 0.23204
 O916 O 0.97558 0.24921 0.24878
 Zr917 Zr 1.02853 0.26517 0.22580
 O918 O 1.01179 0.28635 0.24255
 Zr919 Zr 0.98323 0.24854 0.28030
 O920 O 1.00047 0.22685 0.26400
 Zr921 Zr 1.01811 0.28375 0.27438
 O922 O 1.03691 0.26436 0.25728
 Zr923 Zr 0.98139 0.27908 0.23989
 O924 O 0.99806 0.25896 0.22126
 O925 O 1.02452 0.23559 0.23477
 O926 O 0.98763 0.27825 0.27148
 C927 C 1.06694 0.24116 0.23646
 C928 C 1.02327 0.19398 0.24325
 C929 C 1.01737 0.23476 0.19061
 C930 C 0.94671 0.27656 0.27161
 C931 C 0.99249 0.28026 0.31455
 C932 C 0.99101 0.31961 0.26256
 H933 H 1.01788 0.25272 0.29935
 H934 H 1.01480 0.29991 0.23724
 H935 H 1.03287 0.22641 0.22638
 H936 H 0.96139 0.24557 0.24680
 H937 H 0.96666 0.21356 0.27755
 H938 H 0.96200 0.21084 0.24318
 H939 H 1.03978 0.31156 0.25768
 H940 H 1.05675 0.28995 0.23521
 H941 H 0.99796 0.22892 0.31151
 H942 H 1.01926 0.20811 0.29255
 H943 H 0.99124 0.30632 0.21316
 H944 H 1.01280 0.28306 0.19437
 H945 H 1.05994 0.25167 0.28600
 H946 H 1.03998 0.27642 0.30688
 H947 H 0.96940 0.24052 0.20377
 H948 H 0.94932 0.26512 0.22213
 O949 O 0.74943 1.05067 0.71800
 O950 O 0.78429 1.04227 0.71894
 O951 O 0.72371 0.99595 0.69382
 O952 O 0.72476 0.96311 0.70266
 O953 O 0.69703 1.02485 0.74638
 O954 O 0.70544 1.02730 0.78234
 O955 O 0.77510 0.94710 0.75530
 O956 O 0.77136 0.95022 0.71790
 O957 O 0.80318 1.00113 0.77357
 O958 O 0.79559 1.03691 0.76912
 O959 O 0.75387 0.97850 0.80502
 O960 O 0.71648 0.98146 0.79846
 O961 O 0.75141 0.94964 0.78028
 O962 O 0.71561 0.95746 0.77891
 O963 O 0.77808 1.00219 0.80165
 O964 O 0.77463 1.03871 0.79162
 O965 O 0.80181 0.97305 0.75337
 O966 O 0.79767 0.97284 0.71817
 O967 O 0.72504 1.05285 0.74236
 O968 O 0.72777 1.04930 0.77947
 O969 O 0.69631 0.99811 0.72422
 O970 O 0.70452 0.96301 0.72908
 O971 O 0.74685 1.02090 0.69179
 O972 O 0.78287 1.01859 0.69802
 Zr973 Zr 0.76064 1.02134 0.72107
 O974 O 0.78002 1.00531 0.74061
 Zr975 Zr 0.72551 0.98646 0.72504
 O976 O 0.74329 0.96889 0.74503
 Zr977 Zr 0.72640 1.02519 0.75804
 O978 O 0.74431 1.00942 0.77938
 Zr979 Zr 0.77356 0.97445 0.73917
 O980 O 0.75586 0.99019 0.71723
 Zr981 Zr 0.77444 1.01340 0.77155
 O982 O 0.75663 1.03123 0.75182
 Zr983 Zr 0.73921 0.97841 0.77594
 O984 O 0.71959 0.99433 0.75615
 O985 O 0.73050 1.01719 0.72722
 O986 O 0.76939 0.98255 0.76997
 C987 C 0.73536 1.06012 0.72737
 C988 C 0.73291 1.00995 0.68397
 C989 C 0.68801 1.01297 0.73363
 C990 C 0.76548 0.94018 0.77094
 C991 C 0.81079 0.98496 0.76609
 C992 C 0.76914 0.98832 0.81181
 H993 H 0.79399 1.00792 0.73650
 H994 H 0.74152 1.01407 0.79364
 H995 H 0.72162 1.02497 0.71798
 H996 H 0.74002 0.95451 0.74304
 H997 H 0.76726 0.95599 0.70442
 H998 H 0.73349 0.95224 0.70781
 H999 H 0.76423 1.03672 0.80225
 H1000 H 0.74120 1.05534 0.77807
 H1001 H 0.79379 0.98097 0.70607
 H1002 H 0.77954 1.00660 0.68952
 H1003 H 0.72006 0.99280 0.80775
 H1004 H 0.69946 1.01377 0.78376
 H1005 H 0.78390 1.05055 0.73173
 H1006 H 0.80372 1.03426 0.75663
 H1007 H 0.69775 0.96561 0.74245
 H1008 H 0.71668 0.94775 0.76730
 O1009 O 0.69057 0.52137 0.24638
 O1010 O 0.69707 0.51673 0.28248
 O1011 O 0.73978 0.55906 0.22821
 O1012 O 0.77313 0.55742 0.22831
 O1013 O 0.72257 0.50783 0.19121
 O1014 O 0.72951 0.47194 0.19481
 O1015 O 0.79816 0.50673 0.27566
 O1016 O 0.78690 0.54101 0.27533
 O1017 O 0.75113 0.47284 0.29857
 O1018 O 0.71460 0.47054 0.28948
 O1019 O 0.77913 0.45451 0.24374
 O1020 O 0.77764 0.46537 0.20765
 O1021 O 0.80137 0.48442 0.24901
 O1022 O 0.79513 0.49001 0.21069
 O1023 O 0.75572 0.44930 0.26850
 O1024 O 0.71871 0.45097 0.26563
 O1025 O 0.77123 0.50021 0.30205
 O1026 O 0.76403 0.53306 0.30103
 O1027 O 0.69450 0.50041 0.21873
 O1028 O 0.70637 0.46654 0.21647
 O1029 O 0.74275 0.53501 0.19590
 O1030 O 0.77858 0.53477 0.20431
 O1031 O 0.71417 0.55268 0.25025
 O1032 O 0.71551 0.54119 0.28677
 Zr1033 Zr 0.71913 0.52292 0.26007
 O1034 O 0.73864 0.50590 0.27858
 Zr1035 Zr 0.75488 0.53155 0.22567
 O1036 O 0.77583 0.51467 0.24256
 Zr1037 Zr 0.72482 0.49216 0.21972
 O1038 O 0.74432 0.47345 0.23671
 Zr1039 Zr 0.76813 0.51543 0.27399
 O1040 O 0.74841 0.53439 0.25754
 Zr1041 Zr 0.73837 0.47575 0.26866
 O1042 O 0.71704 0.49241 0.25141
 Zr1043 Zr 0.77362 0.48421 0.23386
 O1044 O 0.75438 0.50157 0.21493
 O1045 O 0.72549 0.52213 0.22865
 O1046 O 0.76778 0.48514 0.26552
 C1047 C 0.68389 0.51203 0.23027
 C1048 C 0.72393 0.56427 0.23802
 C1049 C 0.73039 0.52451 0.18510
 C1050 C 0.80813 0.49396 0.26492
 C1051 C 0.76359 0.48385 0.30882
 C1052 C 0.77100 0.44374 0.25790
 H1053 H 0.73480 0.50741 0.29330
 H1054 H 0.74311 0.45945 0.23167
 H1055 H 0.71606 0.53047 0.22061
 H1056 H 0.78938 0.52013 0.24039
 H1057 H 0.77854 0.55276 0.27178
 H1058 H 0.78477 0.55383 0.23698
 H1059 H 0.72180 0.44403 0.25243
 H1060 H 0.70040 0.46421 0.23026
 H1061 H 0.75463 0.54386 0.29729
 H1062 H 0.72479 0.55270 0.28552
 H1063 H 0.76617 0.45602 0.20698
 H1064 H 0.74228 0.47587 0.18832
 H1065 H 0.69276 0.50267 0.28007
 H1066 H 0.71496 0.48126 0.30015
 H1067 H 0.77814 0.52292 0.19498
 H1068 H 0.80295 0.50193 0.21507
 O1069 O 0.55668 0.23288 0.74007
 O1070 O 0.55236 0.24012 0.77674
 O1071 O 0.50752 0.19507 0.72600
 O1072 O 0.47436 0.19643 0.72589
 O1073 O 0.52325 0.24545 0.68704
 O1074 O 0.51568 0.28113 0.68967
 O1075 O 0.45079 0.24782 0.77389
 O1076 O 0.46238 0.21462 0.77506
 O1077 O 0.49837 0.28415 0.79358
 O1078 O 0.53511 0.28558 0.78318
 O1079 O 0.46753 0.29927 0.74137
 O1080 O 0.46763 0.28829 0.70499
 O1081 O 0.44602 0.26906 0.74682
 O1082 O 0.45118 0.26304 0.70836
 O1083 O 0.49339 0.30641 0.76304
 O1084 O 0.52947 0.30472 0.75961
 O1085 O 0.47828 0.25710 0.79875
 O1086 O 0.48679 0.22093 0.79702
 O1087 O 0.55206 0.25405 0.71284
 O1088 O 0.53946 0.28787 0.71059
 O1089 O 0.50283 0.21860 0.69226
 O1090 O 0.46743 0.21854 0.70256
 O1091 O 0.53346 0.20241 0.74767
 O1092 O 0.53386 0.21510 0.78246
 Zr1093 Zr 0.52920 0.23268 0.75570
 O1094 O 0.51055 0.25021 0.77466
 Zr1095 Zr 0.49219 0.22248 0.72270
 O1096 O 0.47190 0.23953 0.74030
 Zr1097 Zr 0.52169 0.26199 0.71496
 O1098 O 0.50260 0.28096 0.73210
 Zr1099 Zr 0.48100 0.24004 0.77147
 O1100 O 0.49999 0.22094 0.75435
 Zr1101 Zr 0.51023 0.27982 0.76368
 O1102 O 0.53096 0.26282 0.74618
 Zr1103 Zr 0.47330 0.26973 0.73088
 O1104 O 0.49199 0.25216 0.71150
 O1105 O 0.52153 0.23223 0.72450
 O1106 O 0.48075 0.26999 0.76218
 C1107 C 0.56269 0.24190 0.72365
 C1108 C 0.52338 0.19028 0.73615
 C1109 C 0.51495 0.22890 0.68117
 C1110 C 0.44003 0.25978 0.76307
 C1111 C 0.48594 0.27395 0.80444
 C1112 C 0.47689 0.31098 0.75405
 H1113 H 0.51527 0.24962 0.78916
 H1114 H 0.50341 0.29480 0.72671
 H1115 H 0.53049 0.22343 0.71636
 H1116 H 0.45837 0.23378 0.73875
 H1117 H 0.46977 0.20294 0.76943
 H1118 H 0.46333 0.19985 0.73542
 H1119 H 0.52684 0.31027 0.74568
 H1120 H 0.54698 0.28999 0.72366
 H1121 H 0.49798 0.22662 0.80520
 H1122 H 0.52157 0.20707 0.78435
 H1123 H 0.47904 0.29761 0.70361
 H1124 H 0.50242 0.27717 0.68419
 H1125 H 0.55694 0.25379 0.77309
 H1126 H 0.53450 0.27619 0.79498
 H1127 H 0.46753 0.22992 0.69275
 H1128 H 0.44375 0.25107 0.71309
 O1129 O 0.30282 0.74603 0.48041
 O1130 O 0.29113 0.71189 0.47880
 O1131 O 0.25791 0.77755 0.44671
 O1132 O 0.22509 0.78264 0.44869
 O1133 O 0.28015 0.79984 0.50521
 O1134 O 0.27231 0.79211 0.54042
 O1135 O 0.19308 0.73022 0.49459
 O1136 O 0.20231 0.73577 0.45922
 O1137 O 0.23590 0.69829 0.52294
 O1138 O 0.27282 0.70005 0.52608
 O1139 O 0.21482 0.74955 0.54982
 O1140 O 0.22233 0.78605 0.54578
 O1141 O 0.19254 0.75481 0.51922
 O1142 O 0.20473 0.79027 0.52066
 O1143 O 0.23659 0.72347 0.55191
 O1144 O 0.27349 0.72070 0.54885
 O1145 O 0.21593 0.70129 0.49456
 O1146 O 0.22332 0.70981 0.45840
 O1147 O 0.30324 0.76837 0.50728
 O1148 O 0.29087 0.76639 0.54250
 O1149 O 0.25885 0.80450 0.47806
 O1150 O 0.22202 0.80127 0.47628
 O1151 O 0.27934 0.75110 0.44865
 O1152 O 0.27173 0.71585 0.45327
 Zr1153 Zr 0.27276 0.73764 0.47724
 O1154 O 0.25112 0.72003 0.49206
 Zr1155 Zr 0.24276 0.77729 0.47532
 O1156 O 0.21944 0.76119 0.48961
 Zr1157 Zr 0.27306 0.77099 0.51583
 O1158 O 0.25100 0.75519 0.53217
 Zr1159 Zr 0.22258 0.73027 0.48373
 O1160 O 0.24426 0.74661 0.46695
 Zr1161 Zr 0.25291 0.72466 0.52423
 O1162 O 0.27643 0.74014 0.50960
 Zr1163 Zr 0.22248 0.76401 0.52197
 O1164 O 0.24461 0.78187 0.50759
 O1165 O 0.27120 0.76815 0.48379
 O1166 O 0.22422 0.73335 0.51582
 C1167 C 0.31180 0.75827 0.49279
 C1168 C 0.27195 0.76644 0.43935
 C1169 C 0.27293 0.81033 0.49034
 C1170 C 0.18420 0.74084 0.50844
 C1171 C 0.22230 0.69179 0.51053
 C1172 C 0.22203 0.73400 0.55890
 H1173 H 0.25312 0.70576 0.48831
 H1174 H 0.25283 0.75743 0.54722
 H1175 H 0.28173 0.77580 0.47657
 H1176 H 0.20636 0.76608 0.48464
 H1177 H 0.21010 0.74199 0.44792
 H1178 H 0.21236 0.77535 0.45058
 H1179 H 0.27194 0.73214 0.55858
 H1180 H 0.29632 0.75261 0.54135
 H1181 H 0.23400 0.69990 0.46102
 H1182 H 0.26000 0.71914 0.44455
 H1183 H 0.23265 0.78236 0.55607
 H1184 H 0.25988 0.79995 0.53861
 H1185 H 0.29571 0.71090 0.49337
 H1186 H 0.27147 0.69208 0.51316
 H1187 H 0.22392 0.80826 0.48973
 H1188 H 0.19713 0.78989 0.50749
 O1189 O 0.26546 0.30924 0.99601
 O1190 O 0.26195 0.30200 1.03249
 O1191 O 0.29383 0.25729 0.97208
 O1192 O 0.28818 0.22348 0.97393
 O1193 O 0.24334 0.28091 0.94080
 O1194 O 0.20822 0.27997 0.94652
 O1195 O 0.23509 0.20362 1.02253
 O1196 O 0.27068 0.20919 1.02087
 O1197 O 0.21131 0.25607 1.04882
 O1198 O 0.21380 0.29157 1.04168
 O1199 O 0.18692 0.23096 0.99531
 O1200 O 0.19616 0.23321 0.95717
 O1201 O 0.21307 0.20364 0.99568
 O1202 O 0.21607 0.21055 0.95896
 O1203 O 0.18601 0.25617 1.01924
 O1204 O 0.19473 0.29277 1.01757
 O1205 O 0.23382 0.23056 1.04972
 O1206 O 0.26789 0.23275 1.04748
 O1207 O 0.24200 0.30959 0.97038
 O1208 O 0.20713 0.30218 0.96921
 O1209 O 0.26733 0.25679 0.94232
 O1210 O 0.26404 0.22114 0.95023
 O1211 O 0.29300 0.28131 0.99729
 O1212 O 0.28370 0.28025 1.03391
 Zr1213 Zr 0.26356 0.28021 1.00856
 O1214 O 0.24471 0.26285 1.02735
 Zr1215 Zr 0.26484 0.24479 0.97233
 O1216 O 0.24591 0.22576 0.98953
 Zr1217 Zr 0.23005 0.28039 0.97027
 O1218 O 0.20978 0.26316 0.98743
 Zr1219 Zr 0.24885 0.23213 1.02126
 O1220 O 0.26992 0.24941 1.00434
 Zr1221 Zr 0.21486 0.26832 1.01917
 O1222 O 0.23361 0.28741 1.00193
 Zr1223 Zr 0.21591 0.23248 0.98286
 O1224 O 0.23487 0.24977 0.96372
 O1225 O 0.25993 0.27526 0.97697
 O1226 O 0.21897 0.23754 1.01458
 C1227 C 0.25565 0.31799 0.98147
 C1228 C 0.30194 0.27147 0.98288
 C1229 C 0.25765 0.27065 0.93282
 C1230 C 0.22148 0.19524 1.01131
 C1231 C 0.21978 0.24116 1.05777
 C1232 C 0.17800 0.24153 1.00920
 H1233 H 0.24748 0.26597 1.04209
 H1234 H 0.19602 0.26667 0.98325
 H1235 H 0.26879 0.28381 0.96852
 H1236 H 0.24913 0.21154 0.98655
 H1237 H 0.28342 0.21561 1.01685
 H1238 H 0.28307 0.21179 0.98167
 H1239 H 0.18578 0.29050 1.00556
 H1240 H 0.20710 0.30899 0.98289
 H1241 H 0.27989 0.24037 1.04340
 H1242 H 0.29293 0.26881 1.03190
 H1243 H 0.18638 0.24409 0.95959
 H1244 H 0.20877 0.26644 0.94009
 H1245 H 0.24913 0.30917 1.03060
 H1246 H 0.22597 0.29055 1.05032
 H1247 H 0.25166 0.22289 0.94202
 H1248 H 0.22851 0.20268 0.96040
 C1249 C 0.31669 0.36282 0.78622
 C1250 C 0.30273 0.34936 0.79469
 C1251 C 0.28266 0.35534 0.79650
 C1252 C 0.27664 0.37437 0.78951
 C1253 C 0.29081 0.38730 0.78036
 C1254 C 0.31076 0.38147 0.77892
 C1255 C 0.28493 0.40602 0.77295
 C1256 C 0.26514 0.41242 0.77493
 C1257 C 0.25111 0.39987 0.78449
 C1258 C 0.25678 0.38081 0.79152
 H1259 H 0.27177 0.34519 0.80310
 H1260 H 0.32183 0.39141 0.77229
 H1261 H 0.29593 0.41586 0.76602
 H1262 H 0.24571 0.37121 0.79862
 H1263 H 0.33237 0.35901 0.78535
 H1264 H 0.23578 0.40469 0.78628
 C1265 C 0.28079 -0.13928 0.29939
 C1266 C 0.30086 -0.14458 0.29519
 C1267 C 0.31220 -0.13119 0.28293
 C1268 C 0.30417 -0.11259 0.27658
 C1269 C 0.28452 -0.10728 0.28224
 C1270 C 0.27287 -0.12092 0.29322
 C1271 C 0.27683 -0.08832 0.27710
 C1272 C 0.28843 -0.07443 0.26608
 C1273 C 0.30770 -0.08014 0.25972
 C1274 C 0.31556 -0.09893 0.26507
 H1275 H 0.32762 -0.13446 0.27931
 H1276 H 0.25757 -0.11735 0.29719
 H1277 H 0.26185 -0.08432 0.28188
 H1278 H 0.33062 -0.10268 0.26039
 H1279 H 0.27078 -0.14944 0.30726
 H1280 H 0.31692 -0.06989 0.25098
 C1281 C 0.81959 0.86601 0.78322
 C1282 C 0.80712 0.85478 0.79656
 C1283 C 0.78866 0.86344 0.80237
 C1284 C 0.78277 0.88231 0.79469
 C1285 C 0.79538 0.89284 0.78104
 C1286 C 0.81376 0.88462 0.77554
 C1287 C 0.78954 0.91154 0.77319
 C1288 C 0.77122 0.92013 0.77890
 C1289 C 0.75876 0.90963 0.79263
 C1290 C 0.76443 0.89085 0.80036
 H1291 H 0.77841 0.85535 0.81221
 H1292 H 0.82381 0.89270 0.76541
 H1293 H 0.79943 0.91951 0.76281
 H1294 H 0.75450 0.88307 0.81083
 H1295 H 0.83442 0.86100 0.77916
 H1296 H 0.74456 0.91588 0.79734
 C1297 C 0.43239 0.87649 0.29549
 C1298 C 0.44669 0.88924 0.30476
 C1299 C 0.46685 0.88337 0.30488
 C1300 C 0.47263 0.86524 0.29528
 C1301 C 0.45810 0.85300 0.28543
 C1302 C 0.43804 0.85867 0.28580
 C1303 C 0.46374 0.83502 0.27575
 C1304 C 0.48360 0.82858 0.27630
 C1305 C 0.49802 0.84069 0.28621
 C1306 C 0.49263 0.85901 0.29538
 H1307 H 0.47797 0.89303 0.31204
 H1308 H 0.42669 0.84929 0.27863
 H1309 H 0.45251 0.82554 0.26863
 H1310 H 0.50400 0.86809 0.30290
 H1311 H 0.41670 0.88038 0.29565
 H1312 H 0.51343 0.83586 0.28701
 C1313 C -0.03781 0.88771 0.82135
 C1314 C -0.04689 0.90086 0.80715
 C1315 C -0.04484 0.89705 0.78579
 C1316 C -0.03472 0.87990 0.77875
 C1317 C -0.02594 0.86668 0.79321
 C1318 C -0.02721 0.87096 0.81443
 C1319 C -0.01682 0.84894 0.78629
 C1320 C -0.01701 0.84385 0.76513
 C1321 C -0.02527 0.85736 0.75080
 C1322 C -0.03385 0.87535 0.75754
 H1323 H -0.05143 0.90720 0.77463
 H1324 H -0.02050 0.86103 0.82569
 H1325 H -0.01067 0.83855 0.79750
 H1326 H -0.04046 0.88534 0.74622
 H1327 H -0.03936 0.89000 0.83789
 H1328 H -0.02554 0.85378 0.73440
 C1329 C -0.06484 -0.13332 -0.03212
 C1330 C -0.05202 -0.14334 -0.04623
 C1331 C -0.03280 -0.13482 -0.04928
 C1332 C -0.02705 -0.11679 -0.03932
 C1333 C -0.04029 -0.10714 -0.02557
 C1334 C -0.05901 -0.11566 -0.02192
 C1335 C -0.03482 -0.08884 -0.01608
 C1336 C -0.01634 -0.07971 -0.02048
 C1337 C -0.00317 -0.08958 -0.03407
 C1338 C -0.00838 -0.10801 -0.04322
 H1339 H -0.02195 -0.14215 -0.05908
 H1340 H -0.06947 -0.10834 -0.01156
 H1341 H -0.04529 -0.08135 -0.00585
 H1342 H 0.00204 -0.11516 -0.05373
 H1343 H -0.07998 -0.13827 -0.02955
 H1344 H 0.01114 -0.08295 -0.03776
 C1345 C -0.06449 0.36433 0.47111
 C1346 C -0.05009 0.35184 0.46149
 C1347 C -0.03022 0.35894 0.46062
 C1348 C -0.02508 0.37796 0.46852
 C1349 C -0.03981 0.39018 0.47780
 C1350 C -0.05939 0.38312 0.47920
 C1351 C -0.03490 0.40955 0.48484
 C1352 C -0.01551 0.41708 0.48220
 C1353 C -0.00080 0.40462 0.47346
 C1354 C -0.00550 0.38516 0.46686
 H1355 H -0.01849 0.34966 0.45420
 H1356 H -0.07093 0.39240 0.48605
 H1357 H -0.04641 0.41912 0.49132
 H1358 H 0.00604 0.37599 0.45988
 H1359 H -0.08011 0.36028 0.47153
 H1360 H 0.01427 0.41009 0.47131
 C1361 C 0.43172 -0.14726 0.47674
 C1362 C 0.44532 -0.15919 0.46532
 C1363 C 0.46549 -0.15302 0.46479
 C1364 C 0.47154 -0.13485 0.47379
 C1365 C 0.45755 -0.12278 0.48437
 C1366 C 0.43781 -0.12935 0.48619
 C1367 C 0.46337 -0.10404 0.49233
 C1368 C 0.48291 -0.09703 0.48930
 C1369 C 0.49686 -0.10938 0.47921
 C1370 C 0.49127 -0.12824 0.47170
 H1371 H 0.47670 -0.16229 0.45740
 H1372 H 0.42687 -0.12024 0.49423
 H1373 H 0.45249 -0.09456 0.50001
 H1374 H 0.50222 -0.13737 0.46369
 H1375 H 0.41600 -0.15083 0.47737
 H1376 H 0.51206 -0.10434 0.47690
 C1377 C 0.45313 0.36369 -0.06984
 C1378 C 0.44016 0.35230 -0.05717
 C1379 C 0.43584 0.35991 -0.03716
 C1380 C 0.44479 0.37780 -0.02990
 C1381 C 0.45808 0.38846 -0.04274
 C1382 C 0.46201 0.38134 -0.06268
 C1383 C 0.46713 0.40622 -0.03556
 C1384 C 0.46296 0.41374 -0.01566
 C1385 C 0.44972 0.40300 -0.00292
 C1386 C 0.44080 0.38518 -0.00993
 H1387 H 0.42627 0.35162 -0.02677
 H1388 H 0.47192 0.38950 -0.07287
 H1389 H 0.47718 0.41433 -0.04565
 H1390 H 0.43067 0.37725 0.00021
 H1391 H 0.45609 0.35948 -0.08575
 H1392 H 0.44616 0.40841 0.01249
 C1393 C 0.82423 0.37755 0.45604
 C1394 C 0.80961 0.39117 0.44917
 C1395 C 0.78934 0.38642 0.45208
 C1396 C 0.78376 0.36808 0.46101
 C1397 C 0.79861 0.35448 0.46766
 C1398 C 0.81879 0.35947 0.46534
 C1399 C 0.79306 0.33581 0.47580
 C1400 C 0.77284 0.33024 0.47676
 C1401 C 0.75817 0.34398 0.47038
 C1402 C 0.76357 0.36283 0.46280
 H1403 H 0.77789 0.39685 0.44713
 H1404 H 0.83037 0.34916 0.47022
 H1405 H 0.80452 0.32521 0.48036
 H1406 H 0.75198 0.37307 0.45777
 H1407 H 0.83993 0.38057 0.45368
 H1408 H 0.74251 0.34000 0.47097
 C1409 C 0.81932 0.88332 -0.03729
 C1410 C 0.80528 0.89617 -0.04693
 C1411 C 0.78511 0.88979 -0.04761
 C1412 C 0.77925 0.87141 -0.03890
 C1413 C 0.79356 0.85919 -0.02902
 C1414 C 0.81350 0.86525 -0.02834
 C1415 C 0.78784 0.84079 -0.02046
 C1416 C 0.76808 0.83400 -0.02223
 C1417 C 0.75385 0.84622 -0.03205
 C1418 C 0.75934 0.86491 -0.04007
 H1419 H 0.77366 0.89927 -0.05424
 H1420 H 0.82473 0.85580 -0.02122
 H1421 H 0.79899 0.83135 -0.01324
 H1422 H 0.74811 0.87405 -0.04761
 H1423 H 0.83512 0.88657 -0.03725
 H1424 H 0.73854 0.84121 -0.03369
 C1425 C 0.79885 0.27665 0.34404
 C1426 C 0.79753 0.29773 0.34254
 C1427 C 0.78721 0.30832 0.35816
 C1428 C 0.77908 0.29820 0.37521
 C1429 C 0.78150 0.27720 0.37705
 C1430 C 0.79109 0.26653 0.36117
 C1431 C 0.77477 0.26735 0.39498
 C1432 C 0.76537 0.27825 0.41095
 C1433 C 0.76221 0.29900 0.40840
 C1434 C 0.76910 0.30888 0.39080
 H1435 H 0.78617 0.32455 0.35758
 H1436 H 0.79283 0.25037 0.36212
 H1437 H 0.77726 0.25135 0.39671
 H1438 H 0.76701 0.32498 0.38961
 H1439 H 0.80612 0.26789 0.33206
 H1440 H 0.75519 0.30783 0.42050
 C1441 C 0.82310 0.79450 -0.13448
 C1442 C 0.80866 0.80208 -0.14827
 C1443 C 0.78842 0.80148 -0.14255
 C1444 C 0.78269 0.79300 -0.12355
 C1445 C 0.79736 0.78498 -0.11015
 C1446 C 0.81751 0.78597 -0.11568
 C1447 C 0.79171 0.77634 -0.09128
 C1448 C 0.77157 0.77597 -0.08530
 C1449 C 0.75708 0.78412 -0.09862
 C1450 C 0.76256 0.79239 -0.11767
 H1451 H 0.77714 0.80722 -0.15304
 H1452 H 0.82897 0.78014 -0.10547
 H1453 H 0.80307 0.77047 -0.08095
 H1454 H 0.75109 0.79850 -0.12769
 H1455 H 0.83882 0.79519 -0.13824
 H1456 H 0.74148 0.78412 -0.09427
 C1457 C 0.26800 0.45426 0.90215
 C1458 C 0.28851 0.45722 0.90596
 C1459 C 0.30034 0.46570 0.89036
 C1460 C 0.29204 0.47069 0.87113
 C1461 C 0.27157 0.46711 0.86719
 C1462 C 0.25962 0.45912 0.88293
 C1463 C 0.26353 0.47131 0.84751
 C1464 C 0.27574 0.47928 0.83189
 C1465 C 0.29599 0.48314 0.83627
 C1466 C 0.30406 0.47882 0.85563
 H1467 H 0.31622 0.46773 0.89285
 H1468 H 0.24386 0.45641 0.88030
 H1469 H 0.24790 0.46835 0.84435
 H1470 H 0.31978 0.48166 0.85841
 H1471 H 0.25847 0.44799 0.91399
 H1472 H 0.30582 0.48912 0.82451
 C1473 C 0.27944 -0.05229 0.39967
 C1474 C 0.30010 -0.05014 0.40385
 C1475 C 0.31196 -0.04066 0.38870
 C1476 C 0.30364 -0.03398 0.37002
 C1477 C 0.28309 -0.03678 0.36597
 C1478 C 0.27112 -0.04581 0.38098
 C1479 C 0.27489 -0.03040 0.34703
 C1480 C 0.28700 -0.02086 0.33237
 C1481 C 0.30741 -0.01808 0.33663
 C1482 C 0.31569 -0.02470 0.35520
 H1483 H 0.32794 -0.03927 0.39072
 H1484 H 0.25526 -0.04778 0.37832
 H1485 H 0.25912 -0.03250 0.34387
 H1486 H 0.33150 -0.02248 0.35799
 H1487 H 0.26934 -0.05850 0.41099
 H1488 H 0.31708 -0.01093 0.32543
 C1489 C -0.07436 -0.03680 -0.12752
 C1490 C -0.05981 -0.04536 -0.14074
 C1491 C -0.03960 -0.04401 -0.13453
 C1492 C -0.03422 -0.03544 -0.11543
 C1493 C -0.04904 -0.02743 -0.10230
 C1494 C -0.06901 -0.02792 -0.10863
 C1495 C -0.04369 -0.01955 -0.08284
 C1496 C -0.02371 -0.02003 -0.07617
 C1497 C -0.00902 -0.02768 -0.08956
 C1498 C -0.01421 -0.03515 -0.10909
 H1499 H -0.02779 -0.04926 -0.14458
 H1500 H -0.08060 -0.02193 -0.09870
 H1501 H -0.05515 -0.01376 -0.07262
 H1502 H -0.00262 -0.04116 -0.11901
 H1503 H -0.09013 -0.03784 -0.13097
 H1504 H 0.00650 -0.02808 -0.08485
 C1505 C -0.05325 0.47764 0.34618
 C1506 C -0.05157 0.45684 0.34244
 C1507 C -0.04175 0.44485 0.35721
 C1508 C -0.03410 0.45342 0.37551
 C1509 C -0.03656 0.47420 0.37937
 C1510 C -0.04597 0.48620 0.36451
 C1511 C -0.02984 0.48259 0.39813
 C1512 C -0.02035 0.47052 0.41299
 C1513 C -0.01735 0.45001 0.40872
 C1514 C -0.02429 0.44150 0.39020
 H1515 H -0.04052 0.42878 0.35483
 H1516 H -0.04778 0.50220 0.36709
 H1517 H -0.03209 0.49846 0.40124
 H1518 H -0.02219 0.42556 0.38748
 H1519 H -0.06027 0.48736 0.33491
 H1520 H -0.01019 0.44040 0.42001
 C1521 C 0.43049 -0.05069 0.37631
 C1522 C 0.44456 -0.05916 0.36263
 C1523 C 0.46464 -0.06032 0.36904
 C1524 C 0.47054 -0.05303 0.38864
 C1525 C 0.45630 -0.04416 0.40195
 C1526 C 0.43633 -0.04311 0.39563
 C1527 C 0.46220 -0.03675 0.42148
 C1528 C 0.48209 -0.03859 0.42817
 C1529 C 0.49612 -0.04757 0.41486
 C1530 C 0.49045 -0.05454 0.39521
 H1531 H 0.47572 -0.06666 0.35871
 H1532 H 0.42517 -0.03657 0.40571
 H1533 H 0.45121 -0.03006 0.43167
 H1534 H 0.50159 -0.06133 0.38526
 H1535 H 0.41484 -0.05004 0.37218
 H1536 H 0.51154 -0.04916 0.41965
 C1537 C 0.44996 0.42431 -0.12662
 C1538 C 0.44251 0.43912 -0.14008
 C1539 C 0.44149 0.45918 -0.13294
 C1540 C 0.44804 0.46435 -0.11288
 C1541 C 0.45606 0.44937 -0.09987
 C1542 C 0.45679 0.42941 -0.10681
 C1543 C 0.46330 0.45460 -0.08015
 C1544 C 0.46237 0.47458 -0.07299
 C1545 C 0.45381 0.48929 -0.08574
 C1546 C 0.44686 0.48425 -0.10561
 H1547 H 0.43598 0.47085 -0.14309
 H1548 H 0.46264 0.41771 -0.09690
 H1549 H 0.46958 0.44305 -0.07030
 H1550 H 0.44064 0.49593 -0.11532
 H1551 H 0.45043 0.40868 -0.13133
 H1552 H 0.45289 0.50476 -0.08052
 C1553 C 0.45793 0.81375 0.38999
 C1554 C 0.45121 0.79793 0.40260
 C1555 C 0.45260 0.77809 0.39518
 C1556 C 0.45986 0.77415 0.37526
 C1557 C 0.46663 0.79015 0.36276
 C1558 C 0.46580 0.80987 0.37037
 C1559 C 0.47360 0.78618 0.34267
 C1560 C 0.47314 0.76652 0.33476
 C1561 C 0.46632 0.75075 0.34725
 C1562 C 0.45997 0.75448 0.36744
 H1563 H 0.44778 0.76570 0.40478
 H1564 H 0.47073 0.82234 0.36094
 H1565 H 0.47869 0.79840 0.33296
 H1566 H 0.45479 0.74206 0.37679
 H1567 H 0.45663 0.82924 0.39501
 H1568 H 0.46600 0.73546 0.34137
 C1569 C -0.04049 0.82771 0.87786
 C1570 C -0.04902 0.81273 0.89038
 C1571 C -0.04897 0.79269 0.88304
 C1572 C -0.04078 0.78781 0.86360
 C1573 C -0.03193 0.80300 0.85150
 C1574 C -0.03182 0.82286 0.85882
 C1575 C -0.02365 0.79817 0.83213
 C1576 C -0.02463 0.77841 0.82431
 C1577 C -0.03369 0.76343 0.83634
 C1578 C -0.04146 0.76803 0.85592
 H1579 H -0.05521 0.78083 0.89245
 H1580 H -0.02526 0.83471 0.84967
 H1581 H -0.01700 0.80991 0.82285
 H1582 H -0.04826 0.75618 0.86492
 H1583 H -0.04072 0.84334 0.88257
 H1584 H -0.03466 0.74813 0.83061
 C1585 C 0.35314 0.77760 0.29710
 C1586 C 0.35090 0.79854 0.29452
 C1587 C 0.36622 0.80906 0.28426
 C1588 C 0.38362 0.79906 0.27761
 C1589 C 0.38617 0.77839 0.28178
 C1590 C 0.37066 0.76775 0.29119
 C1591 C 0.40422 0.76875 0.27660
 C1592 C 0.41952 0.77936 0.26652
 C1593 C 0.41617 0.79958 0.26121
 C1594 C 0.39864 0.80943 0.26706
 H1595 H 0.36502 0.82512 0.28199
 H1596 H 0.37208 0.75178 0.29402
 H1597 H 0.40634 0.75305 0.28040
 H1598 H 0.39685 0.82518 0.26333
 H1599 H 0.34142 0.76865 0.30390
 H1600 H 0.42734 0.80799 0.25288
 C1601 C -0.14227 0.77693 0.79158
 C1602 C -0.14609 0.79769 0.79031
 C1603 C -0.13232 0.80998 0.77990
 C1604 C -0.11491 0.80188 0.77138
 C1605 C -0.11078 0.78119 0.77354
 C1606 C -0.12472 0.76878 0.78338
 C1607 C -0.09256 0.77345 0.76635
 C1608 C -0.07858 0.78618 0.75683
 C1609 C -0.08335 0.80655 0.75395
 C1610 C -0.10128 0.81434 0.76125
 H1611 H -0.13464 0.82606 0.77910
 H1612 H -0.12194 0.75282 0.78499
 H1613 H -0.08908 0.75770 0.76857
 H1614 H -0.10430 0.83023 0.75937
 H1615 H -0.15274 0.76696 0.79908
 H1616 H -0.07283 0.81672 0.74680
 C1617 C 0.89872 0.29358 0.47960
 C1618 C 0.90281 0.29446 0.45825
 C1619 C 0.88865 0.28691 0.44405
 C1620 C 0.87034 0.27936 0.45102
 C1621 C 0.86608 0.27941 0.47246
 C1622 C 0.88049 0.28621 0.48663
 C1623 C 0.84731 0.27311 0.47935
 C1624 C 0.83277 0.26653 0.46510
 C1625 C 0.83740 0.26578 0.44389
 C1626 C 0.85601 0.27225 0.43688
 H1627 H 0.89150 0.28766 0.42755
 H1628 H 0.87754 0.28612 0.50314
 H1629 H 0.84392 0.27353 0.49577
 H1630 H 0.85906 0.27202 0.42040
 H1631 H 0.90955 0.29886 0.49088
 H1632 H 0.82637 0.26081 0.43264
 C1633 C 0.89455 0.78098 -0.06127
 C1634 C 0.89817 0.80114 -0.05546
 C1635 C 0.88400 0.81090 -0.04288
 C1636 C 0.86682 0.80083 -0.03609
 C1637 C 0.86311 0.78081 -0.04245
 C1638 C 0.87714 0.77102 -0.05503
 C1639 C 0.84543 0.77104 -0.03614
 C1640 C 0.83177 0.78095 -0.02305
 C1641 C 0.83615 0.80069 -0.01640
 C1642 C 0.85329 0.81057 -0.02303
 H1643 H 0.88606 0.82652 -0.03854
 H1644 H 0.87473 0.75560 -0.05994
 H1645 H 0.84236 0.75583 -0.04136
 H1646 H 0.85595 0.82588 -0.01789
 H1647 H 0.90523 0.77275 -0.07054
 H1648 H 0.82606 0.80879 -0.00632
 C1649 C -0.13385 -0.03736 -0.06385
 C1650 C -0.14594 -0.04743 -0.04944
 C1651 C -0.13878 -0.04981 -0.02898
 C1652 C -0.11968 -0.04296 -0.02332
 C1653 C -0.10786 -0.03281 -0.03799
 C1654 C -0.11513 -0.02992 -0.05812
 C1655 C -0.08885 -0.02587 -0.03238
 C1656 C -0.08119 -0.02926 -0.01237
 C1657 C -0.09287 -0.03972 0.00203
 C1658 C -0.11205 -0.04634 -0.00333
 H1659 H -0.14793 -0.05711 -0.01745
 H1660 H -0.10617 -0.02228 -0.06959
 H1661 H -0.07990 -0.01800 -0.04371
 H1662 H -0.12087 -0.05421 0.00810
 H1663 H -0.13856 -0.03566 -0.07981
 H1664 H -0.08730 -0.04245 0.01754
 C1665 C -0.13194 0.45926 0.42473
 C1666 C -0.14321 0.44831 0.43937
 C1667 C -0.13591 0.44767 0.46000
 C1668 C -0.11782 0.45696 0.46557
 C1669 C -0.10683 0.46757 0.45059
 C1670 C -0.11411 0.46878 0.43030
 C1671 C -0.08849 0.47641 0.45601
 C1672 C -0.08075 0.47444 0.47620
 C1673 C -0.09194 0.46402 0.49108
 C1674 C -0.11038 0.45551 0.48586
 H1675 H -0.14436 0.44040 0.47209
 H1676 H -0.10576 0.47671 0.41854
 H1677 H -0.07994 0.48422 0.44430
 H1678 H -0.11863 0.44745 0.49761
 H1679 H -0.13612 0.45978 0.40855
 H1680 H -0.08637 0.46231 0.50675
 C1681 C 0.37055 -0.04496 0.43872
 C1682 C 0.35714 -0.05240 0.45363
 C1683 C 0.36365 -0.05372 0.47441
 C1684 C 0.38317 -0.04806 0.48003
 C1685 C 0.39620 -0.04028 0.46490
 C1686 C 0.38970 -0.03870 0.44434
 C1687 C 0.41564 -0.03447 0.47049
 C1688 C 0.42252 -0.03693 0.49091
 C1689 C 0.40956 -0.04496 0.50582
 C1690 C 0.38998 -0.05025 0.50049
 H1691 H 0.35362 -0.05912 0.48626
 H1692 H 0.39956 -0.03295 0.43251
 H1693 H 0.42556 -0.02848 0.45882
 H1694 H 0.38025 -0.05627 0.51231
 H1695 H 0.36643 -0.04428 0.42251
 H1696 H 0.41451 -0.04695 0.52167
 C1697 C 0.35430 0.47448 -0.05485
 C1698 C 0.34292 0.46213 -0.04153
 C1699 C 0.35093 0.45804 -0.02164
 C1700 C 0.37014 0.46452 -0.01601
 C1701 C 0.38140 0.47617 -0.02991
 C1702 C 0.37317 0.48147 -0.04904
 C1703 C 0.40096 0.48182 -0.02474
 C1704 C 0.40964 0.47555 -0.00598
 C1705 C 0.39819 0.46422 0.00794
 C1706 C 0.37853 0.45894 0.00306
 H1707 H 0.34242 0.44981 -0.01029
 H1708 H 0.38166 0.49037 -0.05992
 H1709 H 0.40965 0.49045 -0.03569
 H1710 H 0.37009 0.45001 0.01396
 H1711 H 0.34951 0.47784 -0.07045
 H1712 H 0.40448 0.45932 0.02254
 C1713 C 0.39177 0.46900 0.80422
 C1714 C 0.39585 0.44870 0.79961
 C1715 C 0.38251 0.43803 0.78674
 C1716 C 0.36520 0.44727 0.77905
 C1717 C 0.36091 0.46743 0.78441
 C1718 C 0.37443 0.47823 0.79681
 C1719 C 0.34301 0.47630 0.77763
 C1720 C 0.32941 0.46528 0.76535
 C1721 C 0.33428 0.44544 0.75955
 C1722 C 0.35190 0.43651 0.76641
 H1723 H 0.38519 0.42232 0.78321
 H1724 H 0.37154 0.49376 0.80092
 H1725 H 0.33953 0.49160 0.78220
 H1726 H 0.35497 0.42106 0.76207
 H1727 H 0.40195 0.47781 0.81366
 H1728 H 0.32416 0.43651 0.75015
 C1729 C 0.38512 -0.06776 0.29057
 C1730 C 0.39852 -0.05482 0.30100
 C1731 C 0.39421 -0.03412 0.30197
 C1732 C 0.37673 -0.02658 0.29276
 C1733 C 0.36374 -0.03981 0.28202
 C1734 C 0.36810 -0.06031 0.28096
 C1735 C 0.34621 -0.03251 0.27308
 C1736 C 0.34090 -0.01227 0.27532
 C1737 C 0.35375 0.00089 0.28606
 C1738 C 0.37170 -0.00616 0.29446
 H1739 H 0.40432 -0.02393 0.30990
 H1740 H 0.35809 -0.07067 0.27308
 H1741 H 0.33618 -0.04284 0.26522
 H1742 H 0.38139 0.00422 0.30272
 H1743 H 0.38754 -0.08383 0.29015
 H1744 H 0.34983 0.01656 0.28809
 C1745 C 0.12665 0.57691 0.70516
 C1746 C 0.11208 0.56371 0.69708
 C1747 C 0.11519 0.54284 0.69888
 C1748 C 0.13266 0.53539 0.70827
 C1749 C 0.14702 0.54892 0.71639
 C1750 C 0.14377 0.56961 0.71486
 C1751 C 0.16470 0.54159 0.72529
 C1752 C 0.16863 0.52087 0.72559
 C1753 C 0.15419 0.50749 0.71764
 C1754 C 0.13628 0.51467 0.70929
 H1755 H 0.10413 0.53240 0.69291
 H1756 H 0.15468 0.58018 0.72077
 H1757 H 0.17580 0.55206 0.73111
 H1758 H 0.12550 0.50403 0.70315
 H1759 H 0.12509 0.59302 0.70358
 H1760 H 0.15687 0.49145 0.71767
 C1761 C 0.12262 0.07304 0.22226
 C1762 C 0.11048 0.05846 0.21249
 C1763 C 0.11763 0.03853 0.21124
 C1764 C 0.13672 0.03351 0.21876
 C1765 C 0.14869 0.04837 0.22842
 C1766 C 0.14138 0.06802 0.23030
 C1767 C 0.16797 0.04347 0.23551
 C1768 C 0.17574 0.02402 0.23244
 C1769 C 0.16368 0.00937 0.22281
 C1770 C 0.14429 0.01399 0.21629
 H1771 H 0.10849 0.02690 0.20421
 H1772 H 0.15039 0.07967 0.23751
 H1773 H 0.17722 0.05499 0.24263
 H1774 H 0.13537 0.00239 0.20887
 H1775 H 0.11791 0.08857 0.22318
 H1776 H 0.16931 -0.00569 0.22027
 C1777 C 0.64520 0.72757 0.20710
 C1778 C 0.64924 0.70687 0.20820
 C1779 C 0.63536 0.69417 0.21795
 C1780 C 0.61738 0.70188 0.22567
 C1781 C 0.61313 0.72256 0.22359
 C1782 C 0.62729 0.73533 0.21467
 C1783 C 0.59454 0.73000 0.22985
 C1784 C 0.58009 0.71707 0.23820
 C1785 C 0.58479 0.69670 0.24110
 C1786 C 0.60327 0.68915 0.23481
 H1787 H 0.63809 0.67814 0.21872
 H1788 H 0.62435 0.75127 0.21317
 H1789 H 0.59114 0.74579 0.22772
 H1790 H 0.60632 0.67327 0.23662
 H1791 H 0.65579 0.73776 0.20011
 H1792 H 0.57387 0.68644 0.24743
 C1793 C 0.13333 0.68434 0.71581
 C1794 C 0.14666 0.69690 0.70502
 C1795 C 0.14164 0.71734 0.70263
 C1796 C 0.12339 0.72478 0.71014
 C1797 C 0.11032 0.71189 0.72090
 C1798 C 0.11562 0.69183 0.72399
 C1799 C 0.09180 0.71902 0.72777
 C1800 C 0.08575 0.73876 0.72343
 C1801 C 0.09898 0.75161 0.71298
 C1802 C 0.11771 0.74475 0.70659
 H1803 H 0.15170 0.72743 0.69471
 H1804 H 0.10578 0.68175 0.73224
 H1805 H 0.08177 0.70889 0.73572
 H1806 H 0.12752 0.75490 0.69839
 H1807 H 0.13622 0.66844 0.71750
 H1808 H 0.09474 0.76692 0.70950
 C1809 C 0.61252 0.18718 0.52111
 C1810 C 0.60933 0.18962 0.54253
 C1811 C 0.62372 0.19992 0.55446
 C1812 C 0.64099 0.20759 0.54529
 C1813 C 0.64424 0.20476 0.52384
 C1814 C 0.62985 0.19463 0.51187
 C1815 C 0.66191 0.21192 0.51484
 C1816 C 0.67622 0.22209 0.52701
 C1817 C 0.67259 0.22508 0.54827
 C1818 C 0.65519 0.21782 0.55733
 H1819 H 0.62176 0.20155 0.57106
 H1820 H 0.63202 0.19241 0.49537
 H1821 H 0.66451 0.20956 0.49843
 H1822 H 0.65292 0.22010 0.57380
 H1823 H 0.60161 0.17952 0.51149
 H1824 H 0.68344 0.23267 0.55805
 C1825 C 0.63086 0.66895 0.04619
 C1826 C 0.61656 0.68281 0.05334
 C1827 C 0.62000 0.70346 0.05047
 C1828 C 0.63750 0.71014 0.04077
 C1829 C 0.65165 0.69601 0.03353
 C1830 C 0.64815 0.67547 0.03631
 C1831 C 0.66935 0.70267 0.02422
 C1832 C 0.67338 0.72329 0.02267
 C1833 C 0.65920 0.73723 0.02980
 C1834 C 0.64130 0.73072 0.03854
 H1835 H 0.60907 0.71432 0.05575
 H1836 H 0.65894 0.66446 0.03117
 H1837 H 0.68038 0.69185 0.01912
 H1838 H 0.63067 0.74178 0.04402
 H1839 H 0.62885 0.65298 0.04857
 H1840 H 0.66210 0.75321 0.02882
 C1841 C 0.14401 0.03142 0.05285
 C1842 C 0.14684 0.05249 0.05145
 C1843 C 0.13112 0.06396 0.04288
 C1844 C 0.11297 0.05484 0.03702
 C1845 C 0.11029 0.03394 0.03956
 C1846 C 0.12601 0.02237 0.04717
 C1847 C 0.09189 0.02494 0.03453
 C1848 C 0.07616 0.03656 0.02666
 C1849 C 0.07912 0.05731 0.02377
 C1850 C 0.09728 0.06637 0.02900
 H1851 H 0.13229 0.08013 0.04174
 H1852 H 0.12441 0.00624 0.04877
 H1853 H 0.08985 0.00893 0.03669
 H1854 H 0.09900 0.08242 0.02690
 H1855 H 0.15585 0.02156 0.05793
 H1856 H 0.06720 0.06667 0.01785
 C1857 C 0.13078 0.54214 0.56639
 C1858 C 0.14292 0.55229 0.55209
 C1859 C 0.13620 0.55440 0.53150
 C1860 C 0.11759 0.54665 0.52540
 C1861 C 0.10583 0.53618 0.53990
 C1862 C 0.11261 0.53388 0.56026
 C1863 C 0.08732 0.52839 0.53396
 C1864 C 0.07999 0.53129 0.51379
 C1865 C 0.09167 0.54184 0.49942
 C1866 C 0.11043 0.54931 0.50514
 H1867 H 0.14541 0.56199 0.52021
 H1868 H 0.10375 0.52586 0.57151
 H1869 H 0.07842 0.52043 0.54525
 H1870 H 0.11922 0.55734 0.49381
 H1871 H 0.13511 0.54077 0.58249
 H1872 H 0.08634 0.54423 0.48376
 C1873 C 0.64674 0.04451 0.52166
 C1874 C 0.65257 0.04285 0.54271
 C1875 C 0.64047 0.03100 0.55580
 C1876 C 0.62289 0.02201 0.54840
 C1877 C 0.61686 0.02491 0.52766
 C1878 C 0.62907 0.03586 0.51434
 C1879 C 0.59853 0.01717 0.52070
 C1880 C 0.58624 0.00633 0.53423
 C1881 C 0.59283 0.00271 0.55458
 C1882 C 0.61091 0.01061 0.56166
 H1883 H 0.64375 0.02962 0.57215
 H1884 H 0.62493 0.03782 0.49822
 H1885 H 0.59367 0.01990 0.50491
 H1886 H 0.61534 0.00810 0.57760
 H1887 H 0.65591 0.05213 0.51042
 H1888 H 0.58366 -0.00560 0.56532
 C1889 C 0.62887 0.56315 0.02809
 C1890 C 0.64213 0.55006 0.03832
 C1891 C 0.63620 0.52988 0.04118
 C1892 C 0.61718 0.52323 0.03479
 C1893 C 0.60417 0.53664 0.02461
 C1894 C 0.61029 0.55643 0.02104
 C1895 C 0.58500 0.53026 0.01872
 C1896 C 0.57824 0.51078 0.02345
 C1897 C 0.59133 0.49747 0.03348
 C1898 C 0.61071 0.50356 0.03887
 H1899 H 0.64619 0.51935 0.04863
 H1900 H 0.60046 0.56693 0.01330
 H1901 H 0.57507 0.54080 0.01116
 H1902 H 0.62045 0.49305 0.04670
 H1903 H 0.63252 0.57885 0.02601
 H1904 H 0.58654 0.48240 0.03730
 C1905 C 0.07392 0.04178 0.14169
 C1906 C 0.06039 0.05171 0.15508
 C1907 C 0.03996 0.05175 0.14929
 C1908 C 0.03342 0.04260 0.13078
 C1909 C 0.04726 0.03294 0.11768
 C1910 C 0.06743 0.03254 0.12334
 C1911 C 0.04079 0.02423 0.09892
 C1912 C 0.02061 0.02534 0.09286
 C1913 C 0.00690 0.03475 0.10622
 C1914 C 0.01321 0.04315 0.12504
 H1915 H 0.02885 0.05835 0.15937
 H1916 H 0.07832 0.02538 0.11336
 H1917 H 0.05160 0.01724 0.08871
 H1918 H 0.00234 0.05046 0.13492
 H1919 H 0.08980 0.04180 0.14465
 H1920 H -0.00871 0.03585 0.10198
 C1921 C 0.07653 0.55113 0.62447
 C1922 C 0.06347 0.56238 0.63707
 C1923 C 0.04339 0.56434 0.63067
 C1924 C 0.03657 0.55519 0.61219
 C1925 C 0.04983 0.54354 0.60014
 C1926 C 0.06973 0.54163 0.60644
 C1927 C 0.04306 0.53416 0.58186
 C1928 C 0.02325 0.53660 0.57502
 C1929 C 0.01022 0.54847 0.58697
 C1930 C 0.01675 0.55751 0.60547
 H1931 H 0.03298 0.57278 0.64013
 H1932 H 0.08012 0.53287 0.59732
 H1933 H 0.05338 0.52528 0.57273
 H1934 H 0.00635 0.56645 0.61443
 H1935 H 0.09218 0.54976 0.62837
 H1936 H -0.00509 0.55067 0.58206
 C1937 C 0.52094 0.04166 0.66192
 C1938 C 0.54152 0.03934 0.66656
 C1939 C 0.55303 0.02765 0.65267
 C1940 C 0.54461 0.01948 0.63457
 C1941 C 0.52438 0.02309 0.62971
 C1942 C 0.51261 0.03389 0.64368
 C1943 C 0.51640 0.01612 0.61080
 C1944 C 0.52839 0.00521 0.59693
 C1945 C 0.54827 0.00094 0.60243
 C1946 C 0.55635 0.00815 0.62095
 H1947 H 0.56889 0.02569 0.65492
 H1948 H 0.49692 0.03639 0.64051
 H1949 H 0.50101 0.01936 0.60680
 H1950 H 0.57187 0.00509 0.62447
 H1951 H 0.51090 0.04922 0.67246
 H1952 H 0.55786 -0.00743 0.59205
 C1953 C 0.51485 0.53291 0.16221
 C1954 C 0.53561 0.53230 0.16549
 C1955 C 0.54778 0.52283 0.15068
 C1956 C 0.53957 0.51556 0.13211
 C1957 C 0.51887 0.51761 0.12832
 C1958 C 0.50655 0.52567 0.14375
 C1959 C 0.51102 0.51238 0.10887
 C1960 C 0.52358 0.50497 0.09325
 C1961 C 0.54392 0.50191 0.09754
 C1962 C 0.55188 0.50725 0.11681
 H1963 H 0.56382 0.52239 0.15289
 H1964 H 0.49062 0.52705 0.14124
 H1965 H 0.49526 0.51453 0.10571
 H1966 H 0.56775 0.50546 0.11950
 H1967 H 0.50511 0.53973 0.17360
 H1968 H 0.55385 0.49620 0.08568
 C1969 C 0.21007 0.56551 0.61504
 C1970 C 0.20134 0.55195 0.60079
 C1971 C 0.20067 0.53136 0.60580
 C1972 C 0.20798 0.52463 0.62496
 C1973 C 0.21686 0.53852 0.63885
 C1974 C 0.21803 0.55883 0.63367
 C1975 C 0.22401 0.53203 0.65798
 C1976 C 0.22195 0.51191 0.66387
 C1977 C 0.21285 0.49812 0.65027
 C1978 C 0.20614 0.50440 0.63077
 H1979 H 0.19422 0.52060 0.59504
 H1980 H 0.22455 0.56967 0.64434
 H1981 H 0.23069 0.54284 0.66861
 H1982 H 0.19925 0.49354 0.62039
 H1983 H 0.21022 0.58152 0.61221
 H1984 H 0.21113 0.48253 0.65463
 C1985 C 0.20351 0.02941 0.10302
 C1986 C 0.20396 0.05044 0.10050
 C1987 C 0.21322 0.06228 0.11589
 C1988 C 0.22136 0.05343 0.13365
 C1989 C 0.21993 0.03243 0.13652
 C1990 C 0.21123 0.02053 0.12094
 C1991 C 0.22696 0.02382 0.15503
 C1992 C 0.23587 0.03597 0.17039
 C1993 C 0.23797 0.05671 0.16683
 C1994 C 0.23059 0.06538 0.14880
 H1995 H 0.21350 0.07849 0.11452
 H1996 H 0.21025 0.00437 0.12267
 H1997 H 0.22545 0.00779 0.15750
 H1998 H 0.23197 0.08149 0.14678
 H1999 H 0.19696 0.01978 0.09125
 H2000 H 0.24488 0.06641 0.17829
 C2001 C 0.70143 0.21975 0.64171
 C2002 C 0.70162 0.19869 0.64374
 C2003 C 0.71183 0.18713 0.62878
 C2004 C 0.72117 0.19640 0.61186
 C2005 C 0.72013 0.21749 0.60965
 C2006 C 0.71046 0.22903 0.62480
 C2007 C 0.72831 0.22665 0.59207
 C2008 C 0.73765 0.21504 0.57662
 C2009 C 0.73935 0.19416 0.57939
 C2010 C 0.73112 0.18492 0.59680
 H2011 H 0.71198 0.17089 0.62985
 H2012 H 0.70971 0.24523 0.62348
 H2013 H 0.72693 0.24277 0.59016
 H2014 H 0.73214 0.16874 0.59825
 H2015 H 0.69417 0.22912 0.65319
 H2016 H 0.74627 0.18483 0.56763
 C2017 C 0.68078 0.71071 0.13288
 C2018 C 0.69517 0.70365 0.14702
 C2019 C 0.71539 0.70363 0.14115
 C2020 C 0.72113 0.71053 0.12153
 C2021 C 0.70653 0.71791 0.10768
 C2022 C 0.68641 0.71789 0.11348
 C2023 C 0.71226 0.72504 0.08819
 C2024 C 0.73238 0.72453 0.08213
 C2025 C 0.74676 0.71686 0.09586
 C2026 C 0.74121 0.71009 0.11548
 H2027 H 0.72670 0.69844 0.15189
 H2028 H 0.67501 0.72328 0.10294
 H2029 H 0.70101 0.73063 0.07757
 H2030 H 0.75259 0.70440 0.12587
 H2031 H 0.66506 0.71046 0.13669
 H2032 H 0.76234 0.71630 0.09148
 C2033 C 0.58047 0.69676 0.12561
 C2034 C 0.56685 0.68833 0.11131
 C2035 C 0.54628 0.69021 0.11519
 C2036 C 0.53944 0.70032 0.13303
 C2037 C 0.55330 0.70881 0.14717
 C2038 C 0.57378 0.70693 0.14329
 C2039 C 0.54647 0.71860 0.16520
 C2040 C 0.52594 0.71960 0.16953
 C2041 C 0.51231 0.71126 0.15523
 C2042 C 0.51897 0.70187 0.13709
 H2043 H 0.53559 0.68397 0.10427
 H2044 H 0.58464 0.71317 0.15403
 H2045 H 0.55716 0.72466 0.17625
 H2046 H 0.50811 0.69548 0.12645
 H2047 H 0.59639 0.69527 0.12328
 H2048 H 0.49642 0.71178 0.15823
 C2049 C 0.02440 0.71499 0.58938
 C2050 C 0.04517 0.71302 0.58700
 C2051 C 0.05790 0.72086 0.60245
 C2052 C 0.04999 0.72961 0.62047
 C2053 C 0.02908 0.73047 0.62315
 C2054 C 0.01643 0.72354 0.60733
 C2055 C 0.02118 0.73767 0.64185
 C2056 C 0.03391 0.74426 0.65783
 C2057 C 0.05465 0.74426 0.65468
 C2058 C 0.06264 0.73688 0.63618
 H2059 H 0.07393 0.71931 0.60099
 H2060 H 0.00037 0.72435 0.60901
 H2061 H 0.00516 0.73780 0.64412
 H2062 H 0.07870 0.73644 0.63435
 H2063 H 0.01426 0.70953 0.57751
 H2064 H 0.06472 0.74921 0.66686
 C2065 C 0.53551 0.60870 0.18790
 C2066 C 0.54009 0.59630 0.20484
 C2067 C 0.53627 0.60316 0.22501
 C2068 C 0.52779 0.62217 0.22827
 C2069 C 0.52325 0.63460 0.21114
 C2070 C 0.52721 0.62771 0.19101
 C2071 C 0.51536 0.65389 0.21447
 C2072 C 0.51240 0.66103 0.23473
 C2073 C 0.51643 0.64834 0.25159
 C2074 C 0.52394 0.62905 0.24839
 H2075 H 0.53959 0.59355 0.23809
 H2076 H 0.52393 0.63702 0.17771
 H2077 H 0.51259 0.66370 0.20141
 H2078 H 0.52721 0.61971 0.26168
 H2079 H 0.53840 0.60364 0.17220
 H2080 H 0.51428 0.65360 0.26735
 C2081 C 0.07789 0.63401 0.69671
 C2082 C 0.06398 0.62020 0.68847
 C2083 C 0.04374 0.62580 0.68738
 C2084 C 0.03748 0.64463 0.69504
 C2085 C 0.05160 0.65792 0.70401
 C2086 C 0.07176 0.65256 0.70451
 C2087 C 0.04538 0.67644 0.71224
 C2088 C 0.02527 0.68219 0.71117
 C2089 C 0.01136 0.66915 0.70178
 C2090 C 0.01737 0.65042 0.69400
 H2091 H 0.03283 0.61538 0.68105
 H2092 H 0.08281 0.66273 0.71093
 H2093 H 0.05627 0.68658 0.71907
 H2094 H 0.00632 0.64053 0.68708
 H2095 H 0.09365 0.63044 0.69718
 H2096 H -0.00421 0.67336 0.70069
 C2097 C 0.03296 0.15271 0.02273
 C2098 C 0.03542 0.15575 0.04422
 C2099 C 0.02823 0.14106 0.05791
 C2100 C 0.01981 0.12319 0.05029
 C2101 C 0.01873 0.11976 0.02866
 C2102 C 0.02484 0.13483 0.01503
 C2103 C 0.01233 0.10103 0.02108
 C2104 C 0.00676 0.08580 0.03488
 C2105 C 0.00669 0.08979 0.05629
 C2106 C 0.01329 0.10830 0.06395
 H2107 H 0.03016 0.14295 0.07449
 H2108 H 0.02380 0.13260 -0.00160
 H2109 H 0.01229 0.09807 0.00453
 H2110 H 0.01387 0.11072 0.08057
 H2111 H 0.03781 0.16398 0.01181
 H2112 H 0.00257 0.07819 0.06720
 C2113 C 0.03482 0.63964 0.55799
 C2114 C 0.04281 0.65167 0.54217
 C2115 C 0.04226 0.64454 0.52160
 C2116 C 0.03419 0.62555 0.51698
 C2117 C 0.02616 0.61369 0.53305
 C2118 C 0.02644 0.62092 0.55346
 C2119 C 0.01853 0.59453 0.52855
 C2120 C 0.01936 0.58679 0.50828
 C2121 C 0.02726 0.59871 0.49237
 C2122 C 0.03440 0.61803 0.49664
 H2123 H 0.04818 0.65369 0.50922
 H2124 H 0.02054 0.61194 0.56599
 H2125 H 0.01277 0.58530 0.54098
 H2126 H 0.04052 0.62689 0.48414
 H2127 H 0.03544 0.64449 0.57403
 H2128 H 0.02805 0.59300 0.47664
 C2129 C 0.57726 0.11723 0.54575
 C2130 C 0.56312 0.13127 0.55290
 C2131 C 0.54295 0.12542 0.55412
 C2132 C 0.53699 0.10601 0.54791
 C2133 C 0.55133 0.09236 0.54015
 C2134 C 0.57141 0.09806 0.53929
 C2135 C 0.54540 0.07315 0.53352
 C2136 C 0.52537 0.06711 0.53499
 C2137 C 0.51125 0.08060 0.54310
 C2138 C 0.51697 0.09997 0.54930
 H2139 H 0.53185 0.13603 0.55953
 H2140 H 0.58263 0.08767 0.53368
 H2141 H 0.55648 0.06271 0.52766
 H2142 H 0.50577 0.11017 0.55530
 H2143 H 0.59296 0.12101 0.54521
 H2144 H 0.49574 0.07620 0.54446
 C2145 C 0.57699 0.61516 0.05281
 C2146 C 0.56408 0.63020 0.06032
 C2147 C 0.54337 0.62656 0.06015
 C2148 C 0.53573 0.60842 0.05200
 C2149 C 0.54893 0.59386 0.04379
 C2150 C 0.56951 0.59729 0.04450
 C2151 C 0.54139 0.57595 0.03524
 C2152 C 0.52082 0.57201 0.03538
 C2153 C 0.50778 0.58632 0.04393
 C2154 C 0.51514 0.60450 0.05192
 H2155 H 0.53322 0.63795 0.06590
 H2156 H 0.57984 0.58612 0.03868
 H2157 H 0.55157 0.56476 0.02913
 H2158 H 0.50476 0.61538 0.05825
 H2159 H 0.59302 0.61722 0.05329
 H2160 H 0.49188 0.58343 0.04436
 C2161 C 0.68413 0.11287 0.52936
 C2162 C 0.69843 0.10061 0.53940
 C2163 C 0.71838 0.10750 0.54011
 C2164 C 0.72378 0.12594 0.53126
 C2165 C 0.70920 0.13792 0.52145
 C2166 C 0.68946 0.13119 0.52053
 C2167 C 0.71450 0.15665 0.51316
 C2168 C 0.73423 0.16369 0.51478
 C2169 C 0.74871 0.15140 0.52419
 C2170 C 0.74356 0.13270 0.53225
 H2171 H 0.72998 0.09835 0.54696
 H2172 H 0.67801 0.14029 0.51330
 H2173 H 0.70313 0.16601 0.50614
 H2174 H 0.75500 0.12369 0.53963
 H2175 H 0.66846 0.10898 0.52911
 H2176 H 0.76404 0.15639 0.52564
 C2177 C 0.68296 0.61594 0.02717
 C2178 C 0.69563 0.60335 0.03885
 C2179 C 0.71537 0.61008 0.04276
 C2180 C 0.72198 0.62894 0.03548
 C2181 C 0.70906 0.64089 0.02343
 C2182 C 0.68972 0.63413 0.01918
 C2183 C 0.71545 0.65968 0.01619
 C2184 C 0.73443 0.66729 0.02143
 C2185 C 0.74722 0.65535 0.03354
 C2186 C 0.74116 0.63626 0.04027
 H2187 H 0.72566 0.60083 0.05144
 H2188 H 0.67960 0.64316 0.01001
 H2189 H 0.70533 0.66863 0.00693
 H2190 H 0.75133 0.62739 0.04955
 H2191 H 0.66750 0.61210 0.02442
 H2192 H 0.76192 0.66076 0.03782
 C2193 C 0.18279 0.62890 0.71506
 C2194 C 0.19546 0.64023 0.70219
 C2195 C 0.21436 0.63223 0.69714
 C2196 C 0.22018 0.61322 0.70439
 C2197 C 0.20739 0.60246 0.71766
 C2198 C 0.18890 0.61055 0.72311
 C2199 C 0.21307 0.58359 0.72503
 C2200 C 0.23115 0.57480 0.71885
 C2201 C 0.24378 0.58546 0.70545
 C2202 C 0.23844 0.60462 0.69847
 H2203 H 0.22461 0.64064 0.68759
 H2204 H 0.17898 0.60249 0.73334
 H2205 H 0.20311 0.57556 0.73527
 H2206 H 0.24845 0.61258 0.68823
 H2207 H 0.16788 0.63391 0.71877
 H2208 H 0.25782 0.57903 0.70046
 C2209 C 0.21617 0.13805 0.18679
 C2210 C 0.20676 0.15058 0.20149
 C2211 C 0.20672 0.14474 0.22247
 C2212 C 0.21557 0.12653 0.22847
 C2213 C 0.22529 0.11455 0.21346
 C2214 C 0.22566 0.12049 0.19277
 C2215 C 0.23391 0.09637 0.21913
 C2216 C 0.23223 0.08924 0.23942
 C2217 C 0.22241 0.10101 0.25438
 C2218 C 0.21442 0.11973 0.24901
 H2219 H 0.19964 0.15412 0.23408
 H2220 H 0.23273 0.11120 0.18105
 H2221 H 0.24119 0.08728 0.20742
 H2222 H 0.20692 0.12862 0.26075
 H2223 H 0.21580 0.14142 0.17041
 H2224 H 0.22090 0.09570 0.27014
 C2225 C 0.67958 1.13043 0.70516
 C2226 C 0.69368 1.14322 0.69553
 C2227 C 0.71370 1.13648 0.69452
 C2228 C 0.71932 1.11787 0.70300
 C2229 C 0.70495 1.10580 0.71293
 C2230 C 0.68517 1.11220 0.71388
 C2231 C 0.71046 1.08728 0.72144
 C2232 C 0.73013 1.08032 0.71972
 C2233 C 0.74438 1.09231 0.70968
 C2234 C 0.73907 1.11103 0.70159
 H2235 H 0.72520 1.14575 0.68778
 H2236 H 0.67387 1.10289 0.72105
 H2237 H 0.69926 1.07799 0.72883
 H2238 H 0.75035 1.12001 0.69399
 H2239 H 0.66382 1.13386 0.70536
 H2240 H 0.75965 1.08721 0.70813
 C2241 C 0.72267 0.65006 0.20178
 C2242 C 0.70222 0.65385 0.20472
 C2243 C 0.69060 0.63955 0.21524
 C2244 C 0.69911 0.62159 0.22224
 C2245 C 0.71951 0.61769 0.21855
 C2246 C 0.73122 0.63213 0.20856
 C2247 C 0.72774 0.59922 0.22445
 C2248 C 0.71585 0.58455 0.23403
 C2249 C 0.69575 0.58890 0.23830
 C2250 C 0.68744 0.60723 0.23240
 H2251 H 0.67476 0.64205 0.21739
 H2252 H 0.74693 0.62946 0.20578
 H2253 H 0.74330 0.59612 0.22117
 H2254 H 0.67179 0.61002 0.23542
 H2255 H 0.73207 0.66095 0.19410
 H2256 H 0.68623 0.57785 0.24557
 C2257 C 0.52069 0.09916 0.71681
 C2258 C 0.54145 0.09591 0.71701
 C2259 C 0.55419 0.11190 0.72252
 C2260 C 0.54645 0.13092 0.72708
 C2261 C 0.52566 0.13426 0.72582
 C2262 C 0.51288 0.11820 0.72103
 C2263 C 0.51808 0.15367 0.72900
 C2264 C 0.53102 0.16964 0.73388
 C2265 C 0.55156 0.16593 0.73601
 C2266 C 0.55925 0.14679 0.73241
 H2267 H 0.57023 0.10985 0.72244
 H2268 H 0.49688 0.12042 0.72027
 H2269 H 0.50217 0.15636 0.72762
 H2270 H 0.57521 0.14445 0.73360
 H2271 H 0.51049 0.08705 0.71304
 H2272 H 0.56180 0.17797 0.73994
 C2273 C 1.03056 0.10791 0.20478
 C2274 C 1.05108 0.10516 0.20895
 C2275 C 1.06119 0.12033 0.22015
 C2276 C 1.05124 0.13778 0.22675
 C2277 C 1.03094 0.14077 0.22161
 C2278 C 1.02070 0.12559 0.21078
 C2279 C 1.02140 0.15896 0.22722
 C2280 C 1.03189 0.17384 0.23847
 C2281 C 1.05184 0.17003 0.24425
 C2282 C 1.06145 0.15241 0.23824
 H2283 H 1.07700 0.11897 0.22331
 H2284 H 1.00505 0.12736 0.20694
 H2285 H 1.00602 0.16154 0.22275
 H2286 H 1.07696 0.15031 0.24249
 H2287 H 1.02201 0.09643 0.19679
 H2288 H 1.06038 0.18100 0.25299
 C2289 C 0.19992 0.62176 0.56739
 C2290 C 0.19285 0.60842 0.55204
 C2291 C 0.19162 0.61485 0.53135
 C2292 C 0.19820 0.63418 0.52599
 C2293 C 0.20595 0.64708 0.54154
 C2294 C 0.20646 0.64088 0.56219
 C2295 C 0.21340 0.66592 0.53625
 C2296 C 0.21330 0.67226 0.51556
 C2297 C 0.20494 0.65977 0.50019
 C2298 C 0.19751 0.64078 0.50536
 H2299 H 0.18608 0.60470 0.51945
 H2300 H 0.21212 0.65074 0.57430
 H2301 H 0.21942 0.67565 0.54830
 H2302 H 0.19149 0.63117 0.49323
 H2303 H 0.20043 0.61735 0.58352
 H2304 H 0.20461 0.66448 0.48415
 C2305 C 0.20510 0.12249 1.06843
 C2306 C 0.19622 0.10964 1.05357
 C2307 C 0.19403 0.11663 1.03309
 C2308 C 0.20084 0.13593 1.02759
 C2309 C 0.21018 0.14833 1.04264
 C2310 C 0.21214 0.14148 1.06300
 C2311 C 0.21726 0.16746 1.03714
 C2312 C 0.21477 0.17467 1.01685
 C2313 C 0.20522 0.16230 1.00206
 C2314 C 0.19848 0.14308 1.00732
 H2315 H 0.18734 0.10700 1.02138
 H2316 H 0.21905 0.15086 1.07480
 H2317 H 0.22438 0.17688 1.04878
 H2318 H 0.19132 0.13386 0.99556
 H2319 H 0.20652 0.11791 1.08444
 H2320 H 0.20308 0.16745 0.98631
 C2321 C 0.21789 0.69107 0.64342
 C2322 C 0.19734 0.69362 0.64710
 C2323 C 0.18587 0.70433 0.63251
 C2324 C 0.19478 0.71228 0.61464
 C2325 C 0.21532 0.70911 0.61102
 C2326 C 0.22673 0.69854 0.62551
 C2327 C 0.22414 0.71650 0.59294
 C2328 C 0.21283 0.72739 0.57849
 C2329 C 0.19252 0.73094 0.58242
 C2330 C 0.18352 0.72331 0.60027
 H2331 H 0.16999 0.70629 0.63483
 H2332 H 0.24254 0.69617 0.62307
 H2333 H 0.23986 0.71379 0.59011
 H2334 H 0.16777 0.72596 0.60279
 H2335 H 0.22730 0.68344 0.65454
 H2336 H 0.18346 0.73914 0.57140
 C2337 C 0.20393 0.18469 1.13114
 C2338 C 0.19596 0.19900 1.14498
 C2339 C 0.19350 0.21894 1.13835
 C2340 C 0.19957 0.22459 1.11837
 C2341 C 0.20824 0.21013 1.10501
 C2342 C 0.21015 0.19022 1.11145
 C2343 C 0.21490 0.21575 1.08537
 C2344 C 0.21276 0.23560 1.07859
 C2345 C 0.20372 0.24985 1.09171
 C2346 C 0.19731 0.24442 1.11152
 H2347 H 0.18729 0.23008 1.14882
 H2348 H 0.21650 0.17893 1.10128
 H2349 H 0.22158 0.20458 1.07526
 H2350 H 0.19062 0.25571 1.12147
 H2351 H 0.20540 0.16909 1.13557
 H2352 H 0.20188 0.26526 1.08675
 C2353 C 0.69426 0.52757 0.09619
 C2354 C 0.69506 0.54859 0.09368
 C2355 C 0.70340 0.56034 0.10973
 C2356 C 0.71051 0.55132 0.12798
 C2357 C 0.70908 0.53026 0.13051
 C2358 C 0.70105 0.51853 0.11441
 C2359 C 0.71562 0.52135 0.14910
 C2360 C 0.72395 0.53324 0.16503
 C2361 C 0.72559 0.55414 0.16207
 C2362 C 0.71885 0.56308 0.14384
 H2363 H 0.70395 0.57654 0.10831
 H2364 H 0.70001 0.50236 0.11591
 H2365 H 0.71431 0.50524 0.15113
 H2366 H 0.72009 0.57923 0.14221
 H2367 H 0.68837 0.51801 0.08397
 H2368 H 0.73172 0.56376 0.17412
 C2369 C 0.71212 1.06600 0.61113
 C2370 C 0.70528 1.05131 0.59697
 C2371 C 0.70619 1.03090 0.60284
 C2372 C 0.71312 1.02541 0.62262
 C2373 C 0.72007 1.04040 0.63645
 C2374 C 0.71967 1.06059 0.63050
 C2375 C 0.72692 1.03504 0.65620
 C2376 C 0.72638 1.01491 0.66270
 C2377 C 0.71914 1.00009 0.64904
 C2378 C 0.71283 1.00526 0.62903
 H2379 H 0.70136 1.01924 0.59216
 H2380 H 0.72473 1.07229 0.64104
 H2381 H 0.73215 1.04665 0.66678
 H2382 H 0.70742 0.99355 0.61869
 H2383 H 0.71114 1.08183 0.60757
 H2384 H 0.71856 0.98451 0.65377
 C2385 C 0.57383 0.20306 0.61293
 C2386 C 0.56047 0.19178 0.60058
 C2387 C 0.54033 0.19054 0.60660
 C2388 C 0.53367 0.20058 0.62455
 C2389 C 0.54724 0.21222 0.63643
 C2390 C 0.56726 0.21330 0.63052
 C2391 C 0.54070 0.22224 0.65433
 C2392 C 0.52089 0.22028 0.66099
 C2393 C 0.50749 0.20857 0.64923
 C2394 C 0.51376 0.19901 0.63100
 H2395 H 0.52984 0.18194 0.59728
 H2396 H 0.57792 0.22190 0.63964
 H2397 H 0.55125 0.23086 0.66358
 H2398 H 0.50314 0.19010 0.62218
 H2399 H 0.58953 0.20384 0.60910
 H2400 H 0.49218 0.20676 0.65422
 C2401 C 1.06599 0.21504 0.11192
 C2402 C 1.05053 0.20617 0.09990
 C2403 C 1.03121 0.20548 0.10874
 C2404 C 1.02764 0.21296 0.12878
 C2405 C 1.04332 0.22189 0.14024
 C2406 C 1.06237 0.22292 0.13163
 C2407 C 1.03979 0.22937 0.16025
 C2408 C 1.02081 0.22760 0.16923
 C2409 C 1.00530 0.21855 0.15780
 C2410 C 1.00862 0.21149 0.13766
 H2411 H 1.01863 0.19966 0.10005
 H2412 H 1.07466 0.22944 0.14035
 H2413 H 1.05192 0.23611 0.16904
 H2414 H 0.99638 0.20466 0.12915
 H2415 H 1.08131 0.21521 0.10680
 H2416 H 0.99053 0.21709 0.16439
 C2417 C 0.62717 0.18191 0.69676
 C2418 C 0.64196 0.19574 0.69079
 C2419 C 0.63770 0.21647 0.69178
 C2420 C 0.61917 0.22320 0.69934
 C2421 C 0.60496 0.20901 0.70616
 C2422 C 0.60897 0.18847 0.70455
 C2423 C 0.58685 0.21554 0.71444
 C2424 C 0.58235 0.23605 0.71562
 C2425 C 0.59609 0.25017 0.70818
 C2426 C 0.61455 0.24379 0.70035
 H2427 H 0.64888 0.22732 0.68717
 H2428 H 0.59804 0.17743 0.70938
 H2429 H 0.57597 0.20459 0.71957
 H2430 H 0.62514 0.25492 0.69502
 H2431 H 0.62972 0.16588 0.69553
 H2432 H 0.59265 0.26606 0.70871
 C2433 C 1.13512 0.18298 0.21415
 C2434 C 1.14769 0.19704 0.20449
 C2435 C 1.14206 0.21739 0.20426
 C2436 C 1.12407 0.22357 0.21327
 C2437 C 1.11167 0.20932 0.22307
 C2438 C 1.11736 0.18909 0.22349
 C2439 C 1.09350 0.21544 0.23172
 C2440 C 1.08721 0.23547 0.23004
 C2441 C 1.09965 0.24956 0.22036
 C2442 C 1.11806 0.24371 0.21227
 H2443 H 1.15167 0.22842 0.19706
 H2444 H 1.10792 0.17793 0.23073
 H2445 H 1.08382 0.20445 0.23885
 H2446 H 1.12735 0.25483 0.20478
 H2447 H 1.13881 0.16715 0.21419
 H2448 H 1.09500 0.26507 0.21886
 C2449 C 0.11335 0.68555 0.52933
 C2450 C 0.09958 0.70061 0.53491
 C2451 C 0.10514 0.72091 0.53259
 C2452 C 0.12427 0.72604 0.52556
 C2453 C 0.13784 0.71072 0.51995
 C2454 C 0.13216 0.69055 0.52170
 C2455 C 0.15709 0.71580 0.51333
 C2456 C 0.16324 0.73598 0.51302
 C2457 C 0.14973 0.75113 0.51870
 C2458 C 0.13028 0.74622 0.52461
 H2459 H 0.09471 0.73276 0.53647
 H2460 H 0.14247 0.67862 0.51770
 H2461 H 0.16759 0.70401 0.50937
 H2462 H 0.12012 0.75817 0.52895
 H2463 H 0.10985 0.66981 0.53138
 H2464 H 0.15427 0.76675 0.51864
 C2465 C 0.10739 0.18578 1.03004
 C2466 C 0.09484 0.20062 1.03851
 C2467 C 0.10065 0.22088 1.03749
 C2468 C 0.11913 0.22619 1.02906
 C2469 C 0.13180 0.21112 1.02093
 C2470 C 0.12565 0.19100 1.02119
 C2471 C 0.15069 0.21636 1.01339
 C2472 C 0.15728 0.23637 1.01452
 C2473 C 0.14444 0.25127 1.02229
 C2474 C 0.12543 0.24626 1.02929
 H2475 H 0.09096 0.23249 1.04365
 H2476 H 0.13520 0.17925 1.01511
 H2477 H 0.16062 0.20475 1.00763
 H2478 H 0.11589 0.25798 1.03545
 H2479 H 0.10341 0.17003 1.03086
 H2480 H 0.14922 0.26681 1.02318
 C2481 C 0.59872 0.54854 0.23507
 C2482 C 0.59243 0.54298 0.21500
 C2483 C 0.60542 0.53155 0.20251
 C2484 C 0.62429 0.52584 0.20982
 C2485 C 0.63059 0.53183 0.22983
 C2486 C 0.61763 0.54306 0.24239
 C2487 C 0.64986 0.52679 0.23676
 C2488 C 0.66291 0.51577 0.22391
 C2489 C 0.65617 0.50948 0.20423
 C2490 C 0.63710 0.51450 0.19724
 H2491 H 0.60112 0.52750 0.18682
 H2492 H 0.62215 0.54771 0.25784
 H2493 H 0.65478 0.53175 0.25198
 H2494 H 0.63246 0.50974 0.18187
 H2495 H 0.58900 0.55710 0.24516
 H2496 H 0.66583 0.50108 0.19393
 C2497 C 0.61194 1.06403 0.72148
 C2498 C 0.59882 1.04833 0.71582
 C2499 C 0.60613 1.02849 0.71546
 C2500 C 0.62622 1.02451 0.72021
 C2501 C 0.63907 1.04044 0.72605
 C2502 C 0.63175 1.06011 0.72675
 C2503 C 0.65914 1.03653 0.73074
 C2504 C 0.66673 1.01692 0.72918
 C2505 C 0.65392 1.00118 0.72315
 C2506 C 0.63379 1.00490 0.71891
 H2507 H 0.59630 1.01615 0.71138
 H2508 H 0.64145 1.07253 0.73095
 H2509 H 0.66895 1.04881 0.73514
 H2510 H 0.62421 0.99249 0.71439
 H2511 H 0.60707 1.07953 0.72135
 H2512 H 0.65945 0.98593 0.72191
 C2513 C 0.87896 0.43840 0.28300
 C2514 C 0.89227 0.45299 0.29084
 C2515 C 0.88605 0.47314 0.29212
 C2516 C 0.86687 0.47862 0.28543
 C2517 C 0.85399 0.46382 0.27699
 C2518 C 0.86011 0.44379 0.27592
 C2519 C 0.83504 0.46920 0.26995
 C2520 C 0.82845 0.48909 0.27170
 C2521 C 0.84102 0.50372 0.28053
 C2522 C 0.86025 0.49856 0.28712
 H2523 H 0.89611 0.48455 0.29813
 H2524 H 0.85025 0.43225 0.26981
 H2525 H 0.82519 0.45777 0.26355
 H2526 H 0.86984 0.51009 0.29368
 H2527 H 0.88302 0.42266 0.28249
 H2528 H 0.83605 0.51914 0.28209
 C2529 C 0.87921 0.92890 0.79376
 C2530 C 0.89211 0.94397 0.80132
 C2531 C 0.88670 0.96423 0.79900
 C2532 C 0.86843 0.96940 0.78991
 C2533 C 0.85548 0.95415 0.78253
 C2534 C 0.86109 0.93394 0.78436
 C2535 C 0.83696 0.95936 0.77393
 C2536 C 0.83103 0.97959 0.77312
 C2537 C 0.84410 0.99462 0.78036
 C2538 C 0.86272 0.98958 0.78850
 H2539 H 0.89666 0.97600 0.80441
 H2540 H 0.85130 0.92205 0.77890
 H2541 H 0.82687 0.94764 0.76862
 H2542 H 0.87248 1.00144 0.79410
 H2543 H 0.88291 0.91317 0.79556
 H2544 H 0.83985 1.01031 0.77984
 C2545 C 0.36716 0.31230 0.78190
 C2546 C 0.35479 0.29744 0.79061
 C2547 C 0.36185 0.27754 0.79171
 C2548 C 0.38098 0.27271 0.78436
 C2549 C 0.39285 0.28781 0.77520
 C2550 C 0.38580 0.30748 0.77399
 C2551 C 0.41184 0.28316 0.76782
 C2552 C 0.41958 0.26378 0.77003
 C2553 C 0.40799 0.24882 0.77945
 C2554 C 0.38867 0.25319 0.78631
 H2555 H 0.35263 0.26587 0.79833
 H2556 H 0.39491 0.31927 0.76736
 H2557 H 0.42090 0.29483 0.76092
 H2558 H 0.37989 0.24143 0.79340
 H2559 H 0.36270 0.32792 0.78158
 H2560 H 0.41381 0.23377 0.78132
 C2561 C 0.85593 0.28311 0.28866
 C2562 C 0.85562 0.30351 0.29458
 C2563 C 0.87358 0.31446 0.29445
 C2564 C 0.89167 0.30495 0.28916
 C2565 C 0.89179 0.28429 0.28366
 C2566 C 0.87377 0.27362 0.28323
 C2567 C 0.90991 0.27469 0.27863
 C2568 C 0.92783 0.28560 0.27878
 C2569 C 0.92758 0.30604 0.28431
 C2570 C 0.90972 0.31563 0.28952
 H2571 H 0.87358 0.33012 0.29919
 H2572 H 0.87350 0.25785 0.27894
 H2573 H 0.91002 0.25897 0.27415
 H2574 H 0.91002 0.33142 0.29374
 H2575 H 0.84228 0.27438 0.28853
 H2576 H 0.94133 0.31458 0.28463
 C2577 C 0.38273 0.77925 0.43747
 C2578 C 0.39588 0.78606 0.45309
 C2579 C 0.39039 0.78369 0.47401
 C2580 C 0.37168 0.77573 0.47916
 C2581 C 0.35875 0.76899 0.46326
 C2582 C 0.36453 0.77048 0.44251
 C2583 C 0.33980 0.76179 0.46823
 C2584 C 0.33302 0.76232 0.48876
 C2585 C 0.34594 0.76889 0.50459
 C2586 C 0.36532 0.77518 0.49987
 H2587 H 0.40040 0.78845 0.48631
 H2588 H 0.35461 0.76562 0.43014
 H2589 H 0.32985 0.75696 0.45592
 H2590 H 0.37500 0.78038 0.51228
 H2591 H 0.38612 0.78128 0.42123
 H2592 H 0.34093 0.76946 0.52053
 C2593 C 0.37198 0.29284 0.92491
 C2594 C 0.38503 0.30103 0.93992
 C2595 C 0.37887 0.30149 0.96079
 C2596 C 0.36019 0.29356 0.96653
 C2597 C 0.34761 0.28486 0.95129
 C2598 C 0.35362 0.28468 0.93056
 C2599 C 0.32903 0.27682 0.95693
 C2600 C 0.32247 0.27789 0.97756
 C2601 C 0.33499 0.28672 0.99262
 C2602 C 0.35377 0.29426 0.98721
 H2603 H 0.38870 0.30770 0.97258
 H2604 H 0.34407 0.27832 0.91865
 H2605 H 0.31936 0.27040 0.94511
 H2606 H 0.36314 0.30092 0.99914
 H2607 H 0.37590 0.29278 0.90865
 H2608 H 0.33020 0.28784 1.00860
 C2609 C 0.79210 0.42475 0.37648
 C2610 C 0.79945 0.43924 0.39056
 C2611 C 0.79647 0.45971 0.38620
 C2612 C 0.78705 0.46562 0.36777
 C2613 C 0.77997 0.45093 0.35362
 C2614 C 0.78232 0.43054 0.35829
 C2615 C 0.77124 0.45691 0.33477
 C2616 C 0.77012 0.47738 0.32966
 C2617 C 0.77687 0.49183 0.34408
 C2618 C 0.78507 0.48602 0.36302
 H2619 H 0.80167 0.47107 0.39705
 H2620 H 0.77699 0.41906 0.34769
 H2621 H 0.76620 0.44565 0.32373
 H2622 H 0.79036 0.49749 0.37371
 H2623 H 0.79435 0.40888 0.37925
 H2624 H 0.77604 0.50770 0.34058
 C2625 C 0.77500 0.94831 0.89853
 C2626 C 0.79567 0.95111 0.90145
 C2627 C 0.80643 0.96157 0.88621
 C2628 C 0.79687 0.96898 0.86847
 C2629 C 0.77625 0.96557 0.86541
 C2630 C 0.76543 0.95533 0.88064
 C2631 C 0.76695 0.97222 0.84707
 C2632 C 0.77801 0.98258 0.83200
 C2633 C 0.79841 0.98633 0.83562
 C2634 C 0.80775 0.97950 0.85357
 H2635 H 0.82241 0.96355 0.88780
 H2636 H 0.74957 0.95272 0.87871
 H2637 H 0.75123 0.96923 0.84448
 H2638 H 0.82357 0.98228 0.85569
 H2639 H 0.76616 0.94068 0.91009
 H2640 H 0.80738 0.99403 0.82420
 C2641 C 0.27751 0.80648 0.35309
 C2642 C 0.29812 0.80354 0.34990
 C2643 C 0.30906 0.79294 0.36497
 C2644 C 0.29968 0.78564 0.38286
 C2645 C 0.27920 0.78950 0.38620
 C2646 C 0.26824 0.79980 0.37114
 C2647 C 0.27007 0.78307 0.40458
 C2648 C 0.28102 0.77225 0.41939
 C2649 C 0.30116 0.76776 0.41546
 C2650 C 0.31048 0.77462 0.39753
 H2651 H 0.32495 0.79065 0.36310
 H2652 H 0.25245 0.80261 0.37325
 H2653 H 0.25447 0.78642 0.40733
 H2654 H 0.32615 0.77134 0.39517
 H2655 H 0.26841 0.81395 0.34158
 H2656 H 0.30988 0.75935 0.42654
 C2657 C 0.31750 0.28556 0.86213
 C2658 C 0.30418 0.29464 0.84809
 C2659 C 0.28382 0.29581 0.85333
 C2660 C 0.27704 0.28873 0.87248
 C2661 C 0.29059 0.27961 0.88634
 C2662 C 0.31071 0.27785 0.88089
 C2663 C 0.28393 0.27291 0.90567
 C2664 C 0.26401 0.27585 0.91166
 C2665 C 0.25060 0.28485 0.89774
 C2666 C 0.25700 0.29101 0.87820
 H2667 H 0.27324 0.30240 0.84261
 H2668 H 0.32128 0.27088 0.89133
 H2669 H 0.29444 0.26616 0.91636
 H2670 H 0.24640 0.29799 0.86777
 H2671 H 0.33331 0.28478 0.85894
 H2672 H 0.23516 0.28720 0.90202
 C2673 C 0.44371 0.27515 0.88962
 C2674 C 0.44412 0.29609 0.89270
 C2675 C 0.45382 0.30820 0.87800
 C2676 C 0.46283 0.29964 0.86051
 C2677 C 0.46191 0.27865 0.85734
 C2678 C 0.45247 0.26651 0.87206
 C2679 C 0.47009 0.27022 0.83929
 C2680 C 0.47927 0.28252 0.82442
 C2681 C 0.48065 0.30331 0.82810
 C2682 C 0.47243 0.31181 0.84595
 H2683 H 0.45395 0.32440 0.87985
 H2684 H 0.45174 0.25036 0.86994
 H2685 H 0.46901 0.25414 0.83668
 H2686 H 0.47330 0.32794 0.84820
 H2687 H 0.43665 0.26541 0.90080
 H2688 H 0.48748 0.31313 0.81682
 C2689 C 0.96079 0.27779 0.40424
 C2690 C 0.95886 0.29866 0.40730
 C2691 C 0.96571 0.31174 0.39176
 C2692 C 0.97366 0.30408 0.37321
 C2693 C 0.97460 0.28308 0.37002
 C2694 C 0.96846 0.27008 0.38576
 C2695 C 0.98126 0.27540 0.35099
 C2696 C 0.98728 0.28843 0.33513
 C2697 C 0.98711 0.30927 0.33871
 C2698 C 0.98021 0.31705 0.35756
 H2699 H 0.96416 0.32785 0.39370
 H2700 H 0.96934 0.25393 0.38367
 H2701 H 0.98153 0.25928 0.34840
 H2702 H 0.97970 0.33319 0.35976
 H2703 H 0.95613 0.26735 0.41609
 H2704 H 0.99161 0.31956 0.32665
 C2705 C 0.47114 0.39368 0.79818
 C2706 C 0.45045 0.39655 0.79575
 C2707 C 0.43956 0.38267 0.78356
 C2708 C 0.44902 0.36582 0.77472
 C2709 C 0.46962 0.36271 0.77815
 C2710 C 0.48059 0.37691 0.78957
 C2711 C 0.47882 0.34520 0.77059
 C2712 C 0.46775 0.33065 0.75951
 C2713 C 0.44747 0.33437 0.75535
 C2714 C 0.43817 0.35172 0.76299
 H2715 H 0.42360 0.38451 0.78161
 H2716 H 0.49645 0.37490 0.79213
 H2717 H 0.49450 0.34268 0.77381
 H2718 H 0.42238 0.35389 0.76006
 H2719 H 0.48007 0.40432 0.80696
 H2720 H 0.43858 0.32355 0.74677
 C2721 C 0.93287 0.38901 0.27894
 C2722 C 0.94675 0.40310 0.28681
 C2723 C 0.96715 0.39814 0.28681
 C2724 C 0.97347 0.37931 0.27944
 C2725 C 0.95933 0.36555 0.27130
 C2726 C 0.93912 0.37061 0.27097
 C2727 C 0.96547 0.34659 0.26440
 C2728 C 0.98541 0.34065 0.26663
 C2729 C 0.99947 0.35442 0.27456
 C2730 C 0.99360 0.37372 0.28061
 H2731 H 0.97807 0.40877 0.29270
 H2732 H 0.92806 0.36009 0.26513
 H2733 H 0.95452 0.33608 0.25831
 H2734 H 1.00467 0.38402 0.28682
 H2735 H 0.91700 0.39195 0.27936
 H2736 H 1.01497 0.35016 0.27633
 C2737 C 0.27822 0.89822 0.46093
 C2738 C 0.29919 0.89946 0.46003
 C2739 C 0.31061 0.88324 0.46735
 C2740 C 0.30125 0.86576 0.47454
 C2741 C 0.28019 0.86430 0.47414
 C2742 C 0.26883 0.88076 0.46772
 C2743 C 0.27089 0.84625 0.47973
 C2744 C 0.28237 0.82984 0.48622
 C2745 C 0.30322 0.83172 0.48755
 C2746 C 0.31261 0.84948 0.48157
 H2747 H 0.32675 0.88379 0.46666
 H2748 H 0.25267 0.88003 0.46765
 H2749 H 0.25478 0.84488 0.47886
 H2750 H 0.32875 0.85036 0.48211
 H2751 H 0.26902 0.91068 0.45599
 H2752 H 0.31230 0.81913 0.49243
 C2753 C 0.31118 0.39023 0.96612
 C2754 C 0.29647 0.40381 0.95936
 C2755 C 0.27634 0.39778 0.95948
 C2756 C 0.27105 0.37834 0.96561
 C2757 C 0.28596 0.36491 0.97247
 C2758 C 0.30595 0.37105 0.97285
 C2759 C 0.28071 0.34538 0.97833
 C2760 C 0.26083 0.33891 0.97672
 C2761 C 0.24610 0.35229 0.96978
 C2762 C 0.25113 0.37196 0.96452
 H2763 H 0.26480 0.40811 0.95456
 H2764 H 0.31759 0.36086 0.97785
 H2765 H 0.29217 0.33500 0.98341
 H2766 H 0.23952 0.38204 0.95922
 H2767 H 0.32684 0.39418 0.96573
 H2768 H 0.23068 0.34752 0.96850
 C2769 C 0.79249 0.37056 0.31268
 C2770 C 0.80351 0.35933 0.29806
 C2771 C 0.80639 0.36765 0.27817
 C2772 C 0.79792 0.38645 0.27296
 C2773 C 0.78618 0.39687 0.28765
 C2774 C 0.78370 0.38884 0.30745
 C2775 C 0.77718 0.41524 0.28244
 C2776 C 0.78007 0.42386 0.26281
 C2777 C 0.79216 0.41363 0.24840
 C2778 C 0.80081 0.39503 0.25334
 H2779 H 0.81481 0.35941 0.26662
 H2780 H 0.77492 0.39671 0.31895
 H2781 H 0.76816 0.42301 0.29384
 H2782 H 0.80983 0.38740 0.24183
 H2783 H 0.79056 0.36524 0.32836
 H2784 H 0.79475 0.41992 0.23321
   
