data_POSCAR
  _audit_creation_date              2014-09-24
  _audit_creation_method            'ToBaCCo'
  _symmetry_space_group_name_H-M    'P1'
  _symmetry_Int_Tables_number       1
  _symmetry_cell_setting            triclinic
  loop_
  _symmetry_equiv_pos_as_xyz
 x,y,z
_cell_length_a 45.5623
_cell_length_b 45.5262
_cell_length_c 45.4429
_cell_angle_alpha 89.814100
_cell_angle_beta 89.891400
_cell_angle_gamma 89.487000
loop_
  _atom_site_label
  _atom_site_type_symbol
  _atom_site_fract_x
  _atom_site_fract_y
  _atom_site_fract_z
C1 C 0.13010 -0.03641 0.25247
 C2 C 0.11823 -0.00874 0.25856
 C3 C 0.10815 -0.00240 0.28681
 C4 C 0.10943 -0.02372 0.30906
 C5 C 0.12124 -0.05165 0.30281
 C6 C 0.13231 -0.05816 0.27450
 C7 C 0.11789 0.01405 0.23558
 C8 C 0.10590 0.00832 0.20792
 C9 C 0.10752 0.02918 0.18498
 C10 C 0.12269 0.05556 0.19020
 C11 C 0.13385 0.06162 0.21829
 C12 C 0.13115 0.04096 0.24085
 H13 H 0.13728 -0.04083 0.23019
 H14 H 0.09934 0.01929 0.29147
 H15 H 0.09609 -0.01294 0.20430
 H16 H 0.14072 0.04530 0.26223
 H17 H 0.12270 -0.06763 0.32035
 H18 H 0.12441 0.07209 0.17312
 C19 C 0.37034 -0.04293 0.74082
 C20 C 0.37925 -0.01390 0.73624
 C21 C 0.38970 -0.00546 0.70849
 C22 C 0.39110 -0.02554 0.68519
 C23 C 0.38137 -0.05433 0.68982
 C24 C 0.37104 -0.06313 0.71762
 C25 C 0.37692 0.00802 0.76004
 C26 C 0.38721 0.00163 0.78835
 C27 C 0.38554 0.02264 0.81114
 C28 C 0.37305 0.05049 0.80459
 C29 C 0.36263 0.05691 0.77618
 C30 C 0.36452 0.03556 0.75422
 H31 H 0.36159 -0.04944 0.76204
 H32 H 0.39694 0.01691 0.70504
 H33 H 0.39614 -0.02009 0.79251
 H34 H 0.35634 0.04048 0.73234
 H35 H 0.38253 -0.07026 0.67230
 H36 H 0.37194 0.06755 0.82107
 C37 C 0.86769 0.46154 0.24103
 C38 C 0.87912 0.48945 0.23616
 C39 C 0.88954 0.49688 0.20820
 C40 C 0.88944 0.47627 0.18515
 C41 C 0.87749 0.44826 0.19034
 C42 C 0.86630 0.44103 0.21825
 C43 C 0.87897 0.51097 0.26031
 C44 C 0.88970 0.50291 0.28809
 C45 C 0.88647 0.52166 0.31254
 C46 C 0.87230 0.54899 0.30821
 C47 C 0.86245 0.55752 0.28021
 C48 C 0.86581 0.53853 0.25635
 H49 H 0.85902 0.45598 0.26256
 H50 H 0.89787 0.51881 0.20450
 H51 H 0.89942 0.48126 0.29072
 H52 H 0.85677 0.54451 0.23511
 H53 H 0.87665 0.43222 0.17301
 H54 H 0.86974 0.56440 0.32613
 C55 C 0.63418 0.46182 0.75701
 C56 C 0.62186 0.48946 0.76268
 C57 C 0.61069 0.49566 0.79070
 C58 C 0.61167 0.47438 0.81312
 C59 C 0.62413 0.44667 0.80723
 C60 C 0.63536 0.44047 0.77914
 C61 C 0.62119 0.51201 0.73942
 C62 C 0.60957 0.50558 0.71177
 C63 C 0.60934 0.52674 0.68922
 C64 C 0.62210 0.55427 0.69432
 C65 C 0.63384 0.56077 0.72211
 C66 C 0.63288 0.53976 0.74462
 H67 H 0.64332 0.45704 0.73547
 H68 H 0.60119 0.51714 0.79503
 H69 H 0.60047 0.48402 0.70791
 H70 H 0.64247 0.54458 0.76588
 H71 H 0.62506 0.43000 0.82430
 H72 H 0.62219 0.57080 0.67717
 C73 C 0.23802 0.12862 1.04227
 C74 C 0.23299 0.11823 1.01389
 C75 C 0.20494 0.10857 1.00622
 C76 C 0.18116 0.10993 1.02621
 C77 C 0.18649 0.12241 1.05409
 C78 C 0.21490 0.13094 1.06241
 C79 C 0.25649 0.11928 0.99146
 C80 C 0.28484 0.10907 0.99776
 C81 C 0.30756 0.11058 0.97659
 C82 C 0.30083 0.12263 0.94863
 C83 C 0.27240 0.13299 0.94230
 C84 C 0.25053 0.13135 0.96382
 H85 H 0.25960 0.13649 1.04817
 H86 H 0.20173 0.10136 0.98382
 H87 H 0.28913 0.10060 1.01962
 H88 H 0.22871 0.13973 0.95904
 H89 H 0.16930 0.12455 1.07021
 H90 H 0.31725 0.12363 0.93144
 C91 C 0.76059 0.37088 1.04245
 C92 C 0.76518 0.37978 1.01328
 C93 C 0.79326 0.38829 1.00434
 C94 C 0.81710 0.38698 1.02378
 C95 C 0.81283 0.37507 1.05196
 C96 C 0.78448 0.36754 1.06167
 C97 C 0.74123 0.37853 0.99147
 C98 C 0.71319 0.38929 0.99814
 C99 C 0.69003 0.38790 0.97754
 C100 C 0.69607 0.37480 0.94984
 C101 C 0.72408 0.36336 0.94328
 C102 C 0.74644 0.36559 0.96412
 H103 H 0.73893 0.36393 1.04932
 H104 H 0.79653 0.39616 0.98205
 H105 H 0.70958 0.39818 1.01988
 H106 H 0.76805 0.35674 0.95914
 H107 H 0.83093 0.37342 1.06717
 H108 H 0.67939 0.37338 0.93318
 C109 C 0.26199 0.86751 0.54041
 C110 C 0.26632 0.87782 0.51171
 C111 C 0.29380 0.88890 0.50356
 C112 C 0.31745 0.88922 0.52356
 C113 C 0.31281 0.87768 0.55197
 C114 C 0.28514 0.86730 0.56066
 C115 C 0.24237 0.87639 0.48985
 C116 C 0.21416 0.88661 0.49682
 C117 C 0.19145 0.88583 0.47594
 C118 C 0.19726 0.87438 0.44775
 C119 C 0.22550 0.86379 0.44066
 C120 C 0.24781 0.86490 0.46184
 H121 H 0.24088 0.85861 0.54663
 H122 H 0.29673 0.89646 0.48116
 H123 H 0.20996 0.89554 0.51852
 H124 H 0.26958 0.85671 0.45649
 H125 H 0.33002 0.87835 0.56820
 H126 H 0.17999 0.87378 0.43142
 C127 C 0.74022 0.62868 0.54409
 C128 C 0.73509 0.61806 0.51573
 C129 C 0.70720 0.60771 0.50843
 C130 C 0.68415 0.60855 0.52893
 C131 C 0.68924 0.62025 0.55699
 C132 C 0.71733 0.63017 0.56467
 C133 C 0.75814 0.61967 0.49297
 C134 C 0.78639 0.60876 0.49839
 C135 C 0.80870 0.61030 0.47677
 C136 C 0.80166 0.62355 0.44935
 C137 C 0.77330 0.63482 0.44406
 C138 C 0.75182 0.63276 0.46591
 H139 H 0.76154 0.63750 0.54954
 H140 H 0.70336 0.59936 0.48647
 H141 H 0.79088 0.59961 0.51994
 H142 H 0.73000 0.64157 0.46185
 H143 H 0.67158 0.62134 0.57296
 H144 H 0.81771 0.62476 0.43183
 C145 C -0.03510 0.26005 0.13397
 C146 C -0.00771 0.26492 0.12129
 C147 C -0.00060 0.29294 0.11119
 C148 C -0.02076 0.31658 0.11337
 C149 C -0.04821 0.31133 0.12711
 C150 C -0.05552 0.28300 0.13731
 C151 C 0.01379 0.24061 0.11961
 C152 C 0.00574 0.21364 0.10750
 C153 C 0.02466 0.18902 0.10887
 C154 C 0.05189 0.19209 0.12325
 C155 C 0.06062 0.21953 0.13416
 C156 C 0.04154 0.24368 0.13212
 H157 H -0.04038 0.23810 0.14149
 H158 H 0.02110 0.29617 0.10205
 H159 H -0.01603 0.21175 0.09820
 H160 H 0.04766 0.26448 0.14179
 H161 H -0.06428 0.32881 0.12916
 H162 H 0.06719 0.17385 0.12453
 C163 C -0.04445 0.74123 0.36914
 C164 C -0.01524 0.73625 0.37758
 C165 C -0.00645 0.70811 0.38674
 C166 C -0.02637 0.68484 0.38724
 C167 C -0.05548 0.69002 0.37856
 C168 C -0.06476 0.71819 0.36944
 C169 C 0.00650 0.76011 0.37611
 C170 C 0.00007 0.78794 0.38757
 C171 C 0.02112 0.81031 0.38686
 C172 C 0.04892 0.80458 0.37451
 C173 C 0.05546 0.77674 0.36285
 C174 C 0.03410 0.75480 0.36361
 H175 H -0.05095 0.76278 0.36122
 H176 H 0.01606 0.70428 0.39349
 H177 H -0.02126 0.79209 0.39739
 H178 H 0.03908 0.73332 0.35454
 H179 H -0.07110 0.67225 0.37952
 H180 H 0.06537 0.82162 0.37407
 C181 C 0.46213 0.24448 0.86404
 C182 C 0.48986 0.23770 0.87519
 C183 C 0.49560 0.20931 0.88582
 C184 C 0.47393 0.18732 0.88555
 C185 C 0.44597 0.19477 0.87410
 C186 C 0.44008 0.22328 0.86345
 C187 C 0.51274 0.26046 0.87681
 C188 C 0.50594 0.28847 0.88798
 C189 C 0.52840 0.30839 0.89423
 C190 C 0.55752 0.30060 0.88730
 C191 C 0.56430 0.27382 0.87357
 C192 C 0.54181 0.25358 0.86895
 H193 H 0.45764 0.26644 0.85579
 H194 H 0.51740 0.20444 0.89399
 H195 H 0.48357 0.29358 0.89446
 H196 H 0.54668 0.23265 0.85870
 H197 H 0.42844 0.17891 0.87390
 H198 H 0.57500 0.31600 0.89156
 C199 C 0.46386 0.75925 0.63486
 C200 C 0.49225 0.76282 0.62369
 C201 C 0.50087 0.79039 0.61323
 C202 C 0.48153 0.81454 0.61429
 C203 C 0.45343 0.81094 0.62651
 C204 C 0.44445 0.78321 0.63655
 C205 C 0.51321 0.73795 0.62372
 C206 C 0.50478 0.71044 0.61309
 C207 C 0.52446 0.68647 0.61334
 C208 C 0.55262 0.69033 0.62514
 C209 C 0.56115 0.71779 0.63592
 C210 C 0.54148 0.74150 0.63509
 H211 H 0.45733 0.73809 0.64355
 H212 H 0.52273 0.79304 0.60421
 H213 H 0.48280 0.70778 0.60451
 H214 H 0.54766 0.76238 0.64447
 H215 H 0.43829 0.82941 0.62751
 H216 H 0.56828 0.67244 0.62560
 C217 C 0.86004 1.03659 0.75310
 C218 C 0.87141 1.00881 0.75929
 C219 C 0.88259 1.00251 0.78712
 C220 C 0.88293 1.02390 0.80946
 C221 C 0.87084 1.05208 0.80293
 C222 C 0.85932 1.05840 0.77471
 C223 C 0.87169 0.98613 0.73649
 C224 C 0.88738 0.99060 0.71053
 C225 C 0.88847 0.96898 0.68846
 C226 C 0.87228 0.94281 0.69295
 C227 C 0.85648 0.93826 0.71935
 C228 C 0.85659 0.96004 0.74097
 H229 H 0.85165 1.04114 0.73122
 H230 H 0.89049 0.98038 0.79124
 H231 H 0.89817 1.01150 0.70760
 H232 H 0.84500 0.95672 0.76155
 H233 H 0.87080 1.06933 0.81923
 H234 H 0.87257 0.92568 0.67648
 C235 C 0.35596 0.53855 0.25561
 C236 C 0.36820 0.51115 0.26227
 C237 C 0.38083 0.50615 0.28976
 C238 C 0.38194 0.52860 0.31071
 C239 C 0.36902 0.55613 0.30415
 C240 C 0.35574 0.56111 0.27652
 C241 C 0.36881 0.48790 0.24005
 C242 C 0.38320 0.49268 0.21340
 C243 C 0.38555 0.47028 0.19253
 C244 C 0.37247 0.44286 0.19832
 C245 C 0.35770 0.43792 0.22525
 C246 C 0.35621 0.46069 0.24597
 H247 H 0.34651 0.54221 0.23402
 H248 H 0.39004 0.48468 0.29470
 H249 H 0.39302 0.51388 0.20914
 H250 H 0.34554 0.45720 0.26702
 H251 H 0.36921 0.57344 0.32042
 H252 H 0.37413 0.42547 0.18219
 C253 C 0.64332 1.04164 0.24073
 C254 C 0.62969 1.01470 0.23610
 C255 C 0.61544 1.00937 0.20951
 C256 C 0.61410 1.03100 0.18750
 C257 C 0.62827 1.05808 0.19215
 C258 C 0.64316 1.06342 0.21886
 C259 C 0.63005 0.99218 0.25935
 C260 C 0.61844 0.99853 0.28708
 C261 C 0.61901 0.97760 0.31006
 C262 C 0.63226 0.94984 0.30421
 C263 C 0.64408 0.94341 0.27616
 C264 C 0.64250 0.96467 0.25390
 H265 H 0.65386 1.04567 0.26165
 H266 H 0.60502 0.98833 0.20617
 H267 H 0.60963 1.02039 0.29069
 H268 H 0.65129 0.95997 0.23222
 H269 H 0.62746 1.07494 0.17529
 H270 H 0.63315 0.93299 0.32100
 C271 C 0.14479 0.53994 0.74033
 C272 C 0.13121 0.51293 0.73591
 C273 C 0.11678 0.50747 0.70945
 C274 C 0.11530 0.52897 0.68736
 C275 C 0.12944 0.55607 0.69172
 C276 C 0.14442 0.56161 0.71831
 C277 C 0.13125 0.49057 0.75932
 C278 C 0.11994 0.49733 0.78703
 C279 C 0.11860 0.47593 0.80927
 C280 C 0.12975 0.44741 0.80354
 C281 C 0.14158 0.44049 0.77556
 C282 C 0.14177 0.46229 0.75363
 H283 H 0.15537 0.54415 0.76120
 H284 H 0.10623 0.48647 0.70629
 H285 H 0.11175 0.51938 0.79110
 H286 H 0.15013 0.45733 0.73184
 H287 H 0.12850 0.57280 0.67475
 H288 H 0.12911 0.43080 0.82062
 C289 C 0.74145 0.85915 -0.03606
 C290 C 0.73599 0.87264 -0.00905
 C291 C 0.70843 0.88489 -0.00328
 C292 C 0.68606 0.88425 -0.02449
 C293 C 0.69166 0.87026 -0.05172
 C294 C 0.71943 0.85737 -0.05745
 C295 C 0.75909 0.87329 0.01346
 C296 C 0.78613 0.88597 0.00706
 C297 C 0.80927 0.88558 0.02765
 C298 C 0.80430 0.87153 0.05516
 C299 C 0.77694 0.85865 0.06165
 C300 C 0.75446 0.86006 0.04073
 H301 H 0.76299 0.84973 -0.04027
 H302 H 0.70447 0.89497 0.01795
 H303 H 0.78915 0.89527 -0.01468
 H304 H 0.73332 0.85034 0.04543
 H305 H 0.67457 0.86924 -0.06820
 H306 H 0.82129 0.87070 0.07173
 C307 C 0.24220 0.35617 0.46211
 C308 C 0.23582 0.36948 0.48901
 C309 C 0.20816 0.38196 0.49385
 C310 C 0.18672 0.38187 0.47178
 C311 C 0.19308 0.36793 0.44474
 C312 C 0.22093 0.35479 0.43992
 C313 C 0.25813 0.37041 0.51227
 C314 C 0.28504 0.38384 0.50702
 C315 C 0.30597 0.38606 0.52945
 C316 C 0.29996 0.37365 0.55733
 C317 C 0.27285 0.35972 0.56268
 C318 C 0.25209 0.35859 0.53995
 H319 H 0.26383 0.34671 0.45858
 H320 H 0.20340 0.39186 0.51499
 H321 H 0.28945 0.39302 0.48543
 H322 H 0.23092 0.34856 0.54375
 H323 H 0.17654 0.36727 0.42769
 H324 H 0.31610 0.37511 0.57472
 C325 C 0.25778 0.64030 -0.03895
 C326 C 0.26221 0.62745 -0.01139
 C327 C 0.28939 0.61490 -0.00450
 C328 C 0.31236 0.61461 -0.02512
 C329 C 0.30778 0.62790 -0.05295
 C330 C 0.28042 0.64110 -0.05981
 C331 C 0.23831 0.62742 0.01037
 C332 C 0.21106 0.61582 0.00305
 C333 C 0.18741 0.61633 0.02311
 C334 C 0.19204 0.62948 0.05102
 C335 C 0.21962 0.64128 0.05842
 C336 C 0.24260 0.63973 0.03802
 H337 H 0.23648 0.64972 -0.04413
 H338 H 0.29254 0.60524 0.01711
 H339 H 0.20834 0.60709 -0.01890
 H340 H 0.26397 0.64835 0.04354
 H341 H 0.32528 0.62802 -0.06910
 H342 H 0.17469 0.63021 0.06729
 C343 C 0.75932 0.14230 0.46264
 C344 C 0.76400 0.12866 0.48976
 C345 C 0.79093 0.11510 0.49572
 C346 C 0.81393 0.11508 0.47490
 C347 C 0.80889 0.12947 0.44751
 C348 C 0.78159 0.14315 0.44140
 C349 C 0.74066 0.12874 0.51216
 C350 C 0.71336 0.11692 0.50562
 C351 C 0.69092 0.11620 0.52677
 C352 C 0.69607 0.12838 0.55489
 C353 C 0.72366 0.14074 0.56162
 C354 C 0.74578 0.14043 0.54003
 H355 H 0.73819 0.15250 0.45821
 H356 H 0.79395 0.10528 0.51724
 H357 H 0.70970 0.10804 0.48383
 H358 H 0.76721 0.14936 0.54483
 H359 H 0.82573 0.12986 0.43073
 H360 H 0.67885 0.12818 0.57133
 C361 C 1.03971 0.75914 0.85578
 C362 C 1.01308 0.76332 0.87035
 C363 C 1.00740 0.78966 0.88503
 C364 C 1.02821 0.81241 0.88553
 C365 C 1.05494 0.80802 0.86998
 C366 C 1.06075 0.78134 0.85515
 C367 C 0.99081 0.74015 0.86989
 C368 C 0.99735 0.71229 0.88110
 C369 C 0.97638 0.68966 0.88107
 C370 C 0.94837 0.69596 0.86864
 C371 C 0.94175 0.72417 0.85713
 C372 C 0.96318 0.74600 0.85811
 H373 H 1.04396 0.73843 0.84478
 H374 H 0.98609 0.79241 0.89527
 H375 H 1.01932 0.70838 0.88932
 H376 H 0.95838 0.76783 0.84969
 H377 H 1.07159 0.82475 0.86992
 H378 H 0.93143 0.67949 0.86840
 C379 C 0.54100 0.25930 0.35825
 C380 C 0.51337 0.26362 0.37084
 C381 C 0.50624 0.29055 0.38365
 C382 C 0.52664 0.31344 0.38428
 C383 C 0.55444 0.30911 0.37099
 C384 C 0.56160 0.28195 0.35764
 C385 C 0.49175 0.23992 0.37031
 C386 C 0.49866 0.21258 0.38250
 C387 C 0.47835 0.18959 0.38207
 C388 C 0.45083 0.19433 0.36845
 C389 C 0.44393 0.22189 0.35568
 C390 C 0.46446 0.24456 0.35715
 H391 H 0.54638 0.23810 0.34883
 H392 H 0.48462 0.29359 0.39322
 H393 H 0.52009 0.20929 0.39236
 H394 H 0.45934 0.26592 0.34778
 H395 H 0.57032 0.32667 0.37100
 H396 H 0.43501 0.17676 0.36764
 C397 C 1.03782 0.24273 0.64144
 C398 C 1.01080 0.23706 0.62846
 C399 C 1.00597 0.21002 0.61506
 C400 C 1.02810 0.18819 0.61397
 C401 C 1.05528 0.19410 0.62788
 C402 C 1.06028 0.22151 0.64147
 C403 C 0.98761 0.25980 0.62830
 C404 C 0.99346 0.28766 0.61705
 C405 C 0.97172 0.30990 0.61622
 C406 C 0.94363 0.30332 0.62817
 C407 C 0.93765 0.27510 0.63979
 C408 C 0.95982 0.25355 0.63927
 H409 H 1.04137 0.26400 0.65141
 H410 H 0.98442 0.20613 0.60599
 H411 H 1.01554 0.29187 0.60939
 H412 H 0.95559 0.23168 0.64767
 H413 H 1.07291 0.17810 0.62733
 H414 H 0.92623 0.31961 0.62805
 C415 C 0.53733 0.74612 0.13991
 C416 C 0.51003 0.73946 0.12780
 C417 C 0.50570 0.71209 0.11476
 C418 C 0.52853 0.69131 0.11335
 C419 C 0.55597 0.69804 0.12600
 C420 C 0.56053 0.72562 0.13940
 C421 C 0.48622 0.76158 0.12784
 C422 C 0.49121 0.78951 0.11625
 C423 C 0.46858 0.81051 0.11470
 C424 C 0.44068 0.80350 0.12627
 C425 C 0.43552 0.77541 0.13858
 C426 C 0.45848 0.75460 0.13880
 H427 H 0.54048 0.76757 0.14963
 H428 H 0.48444 0.70707 0.10552
 H429 H 0.51289 0.79476 0.10810
 H430 H 0.45484 0.73276 0.14757
 H431 H 0.57362 0.68196 0.12529
 H432 H 0.42315 0.81970 0.12553
 O433 O -0.03226 0.99006 0.91676
 O434 O 0.01229 1.01961 0.91385
 O435 O -0.00853 0.91884 0.97377
 O436 O 0.00874 0.91194 1.01888
 O437 O -0.08646 0.97236 0.99198
 O438 O -0.09277 1.01997 1.01362
 O439 O 0.06261 1.00232 1.05170
 O440 O 0.06984 0.95838 1.02576
 O441 O 0.04640 1.06928 0.99453
 O442 O 0.01245 1.07367 0.94873
 O443 O -0.00709 1.05651 1.06401
 O444 O -0.05107 1.02448 1.07355
 O445 O 0.02135 1.01151 1.07863
 O446 O -0.02719 0.98916 1.08588
 O447 O 0.00075 1.08318 1.02239
 O448 O -0.02086 1.08853 0.97458
 O449 O 0.07489 1.02969 1.00644
 O450 O 0.07915 0.98275 0.97925
 O451 O -0.07151 1.00592 0.94364
 O452 O -0.08328 1.04375 0.97636
 O453 O -0.05821 0.93375 1.00686
 O454 O -0.02383 0.92814 1.04746
 O455 O 0.00358 0.94512 0.93285
 O456 O 0.04241 0.97817 0.92607
 Zr457 Zr 0.00231 0.98888 0.94767
 O458 O 0.02937 1.01698 0.97227
 Zr459 Zr -0.01524 0.95020 1.00729
 O460 O 0.01118 0.97667 1.03419
 Zr461 Zr -0.05658 1.00713 0.98731
 O462 O -0.03213 1.03640 1.01315
 Zr463 Zr 0.04550 0.99474 1.00940
 O464 O 0.02104 0.96552 0.98333
 Zr465 Zr 0.00402 1.05176 0.98901
 O466 O -0.02258 1.02529 0.96210
 Zr467 Zr -0.01332 1.01331 1.04857
 O468 O -0.04079 0.98478 1.02463
 O469 O -0.03310 0.97136 0.97086
 O470 O 0.02193 1.03062 1.02546
 C471 C -0.05898 0.99924 0.91918
 C472 C -0.00024 0.92079 0.94670
 C473 C -0.08314 0.94578 1.00112
 C474 C 0.04919 1.00801 1.07596
 C475 C 0.07114 1.05708 1.00090
 C476 C -0.00230 1.08077 1.05033
 H477 H 0.04563 1.02401 0.95971
 H478 H -0.04492 1.05272 1.01982
 H479 H -0.04514 0.95810 0.95867
 H480 H 0.01893 0.96482 1.05077
 H481 H 0.06698 0.94213 1.01165
 H482 H 0.02713 0.91856 1.02813
 H483 H -0.03942 1.08880 0.98591
 H484 H -0.07121 1.05657 0.96363
 H485 H 0.09831 0.98535 0.98919
 H486 H 0.03821 0.97230 0.90552
 H487 H -0.05980 1.04255 1.06500
 H488 H -0.09016 1.01012 1.03290
 H489 H 0.00956 1.01030 0.89438
 H490 H 0.03266 1.06857 0.94246
 H491 H -0.03985 0.93913 1.05738
 H492 H -0.01398 0.97190 1.08790
 O493 O 0.46953 0.49344 0.41858
 O494 O 0.51571 0.51955 0.41739
 O495 O 0.48869 0.41849 0.47338
 O496 O 0.50482 0.40937 0.51886
 O497 O 0.41257 0.47481 0.49351
 O498 O 0.40779 0.52239 0.51464
 O499 O 0.56151 0.49757 0.55574
 O500 O 0.56722 0.45328 0.52965
 O501 O 0.54943 0.56544 0.50095
 O502 O 0.51656 0.57227 0.45381
 O503 O 0.49188 0.55345 0.56796
 O504 O 0.44786 0.52144 0.57588
 O505 O 0.52022 0.50790 0.58222
 O506 O 0.47133 0.48585 0.58807
 O507 O 0.50290 0.58074 0.52749
 O508 O 0.48403 0.58873 0.48001
 O509 O 0.57608 0.52428 0.51151
 O510 O 0.57858 0.47794 0.48331
 O511 O 0.42955 0.50767 0.44526
 O512 O 0.41941 0.54617 0.47809
 O513 O 0.43894 0.43427 0.50663
 O514 O 0.47244 0.42581 0.54726
 O515 O 0.50147 0.44603 0.43357
 O516 O 0.54326 0.47640 0.42980
 Zr517 Zr 0.50304 0.48884 0.45028
 O518 O 0.53071 0.51491 0.47633
 Zr519 Zr 0.48261 0.44888 0.50807
 O520 O 0.50941 0.47346 0.53650
 Zr521 Zr 0.44402 0.50812 0.48912
 O522 O 0.46906 0.53548 0.51633
 Zr523 Zr 0.54496 0.49086 0.51310
 O524 O 0.52001 0.46349 0.48547
 Zr525 Zr 0.50642 0.55010 0.49355
 O526 O 0.47928 0.52571 0.46526
 Zr527 Zr 0.48607 0.51061 0.55149
 O528 O 0.45811 0.48397 0.52600
 O529 O 0.46638 0.47199 0.47204
 O530 O 0.52252 0.52719 0.52974
 C531 C 0.44274 0.50244 0.42080
 C532 C 0.49681 0.42130 0.44630
 C533 C 0.41458 0.44786 0.50186
 C534 C 0.54802 0.50375 0.57986
 C535 C 0.57362 0.55200 0.50713
 C536 C 0.49783 0.57787 0.55508
 H537 H 0.54753 0.52162 0.46435
 H538 H 0.45665 0.55204 0.52314
 H539 H 0.45392 0.45969 0.45927
 H540 H 0.51638 0.46095 0.55294
 H541 H 0.56454 0.43750 0.51498
 H542 H 0.52329 0.41495 0.52864
 H543 H 0.46428 0.58831 0.48907
 H544 H 0.43205 0.55815 0.46510
 H545 H 0.59756 0.47867 0.49390
 H546 H 0.53950 0.47061 0.40913
 H547 H 0.43944 0.53973 0.56749
 H548 H 0.40932 0.51209 0.53380
 H549 H 0.51348 0.51056 0.39770
 H550 H 0.53721 0.56767 0.44870
 H551 H 0.45727 0.43751 0.55768
 H552 H 0.48418 0.46831 0.58988
 O553 O 0.50680 -0.05184 0.56629
 O554 O 0.55130 -0.02216 0.56966
 O555 O 0.43697 0.00592 0.55151
 O556 O 0.42675 0.04460 0.52168
 O557 O 0.45112 -0.06625 0.49494
 O558 O 0.48307 -0.07371 0.45271
 O559 O 0.51273 0.08327 0.47053
 O560 O 0.48696 0.08902 0.51335
 O561 O 0.58548 0.02910 0.49103
 O562 O 0.58789 -0.02286 0.51662
 O563 O 0.53322 0.00974 0.41691
 O564 O 0.48663 -0.01214 0.40903
 O565 O 0.49966 0.05573 0.43106
 O566 O 0.45979 0.02009 0.42133
 O567 O 0.57226 -0.00480 0.44452
 O568 O 0.58468 -0.04038 0.47595
 O569 O 0.55768 0.06902 0.50294
 O570 O 0.52534 0.07296 0.54561
 O571 O 0.49838 -0.07959 0.52562
 O572 O 0.52004 -0.08582 0.47763
 O573 O 0.42331 -0.02549 0.50412
 O574 O 0.41876 0.02210 0.47991
 O575 O 0.47720 -0.00525 0.57926
 O576 O 0.52303 0.02064 0.58270
 Zr577 Zr 0.51154 -0.00917 0.54880
 O578 O 0.53916 0.01777 0.52355
 Zr579 Zr 0.45343 0.00885 0.50811
 O580 O 0.47891 0.03651 0.48139
 Zr581 Zr 0.49394 -0.04949 0.49071
 O582 O 0.52119 -0.02437 0.46327
 Zr583 Zr 0.51483 0.05248 0.50507
 O584 O 0.48742 0.02740 0.53296
 Zr585 Zr 0.55554 -0.00594 0.48762
 O586 O 0.53024 -0.03423 0.51450
 Zr587 Zr 0.49787 0.01220 0.44689
 O588 O 0.46934 -0.01505 0.47168
 O589 O 0.47633 -0.02642 0.52582
 O590 O 0.53340 0.03010 0.46937
 C591 C 0.50257 -0.07656 0.55339
 C592 C 0.44975 0.00059 0.57624
 C593 C 0.42645 -0.05314 0.49959
 C594 C 0.50525 0.08044 0.44338
 C595 C 0.58248 0.05632 0.49815
 C596 C 0.56016 0.00154 0.41979
 H597 H 0.55494 0.02502 0.53648
 H598 H 0.52870 -0.03720 0.44738
 H599 H 0.46370 -0.03877 0.53845
 H600 H 0.46630 0.05274 0.47411
 H601 H 0.47508 0.08395 0.53088
 H602 H 0.43468 0.06250 0.51233
 H603 H 0.57258 -0.05608 0.46732
 H604 H 0.53824 -0.08512 0.48947
 H605 H 0.53149 0.09341 0.54147
 H606 H 0.52068 0.01080 0.60205
 H607 H 0.49587 -0.03178 0.41098
 H608 H 0.46764 -0.06229 0.44231
 H609 H 0.54685 -0.02936 0.58978
 H610 H 0.59320 -0.00702 0.53042
 H611 H 0.41947 0.00902 0.46256
 H612 H 0.44924 0.03707 0.43000
 O613 O -0.05008 0.43391 0.99411
 O614 O -0.01917 0.42998 0.95038
 O615 O 0.00500 0.44957 1.06510
 O616 O 0.04476 0.47851 1.07411
 O617 O -0.06618 0.50607 1.05019
 O618 O -0.07421 0.54742 1.01740
 O619 O 0.08328 0.53030 0.98826
 O620 O 0.08961 0.48784 1.01438
 O621 O 0.03044 0.50952 0.91552
 O622 O -0.02072 0.48298 0.91318
 O623 O 0.00925 0.58314 0.96719
 O624 O -0.01388 0.59079 1.01445
 O625 O 0.05487 0.56949 1.00140
 O626 O 0.01898 0.57975 1.04054
 O627 O -0.00476 0.55534 0.92835
 O628 O -0.03942 0.52325 0.91610
 O629 O 0.07016 0.49768 0.94343
 O630 O 0.07463 0.45523 0.97609
 O631 O -0.07842 0.47444 1.00298
 O632 O -0.08542 0.52197 0.98079
 O633 O -0.02565 0.49695 1.07805
 O634 O 0.02146 0.52060 1.08267
 O635 O -0.00479 0.42122 1.02507
 O636 O 0.02359 0.41813 0.97959
 Zr637 Zr -0.00760 0.45145 0.99009
 O638 O 0.01913 0.47673 0.96216
 Zr639 Zr 0.00890 0.49252 1.04792
 O640 O 0.03632 0.51928 1.02224
 Zr641 Zr -0.04913 0.50952 1.00710
 O642 O -0.02427 0.53686 0.97960
 Zr643 Zr 0.05320 0.49555 0.98641
 O644 O 0.02837 0.46760 1.01414
 Zr645 Zr -0.00502 0.51238 0.94543
 O646 O -0.03299 0.48552 0.97102
 Zr647 Zr 0.01168 0.55349 1.00295
 O648 O -0.01535 0.52874 1.03172
 O649 O -0.02580 0.47470 1.02502
 O650 O 0.03039 0.53094 0.96753
 C651 C -0.07496 0.44677 0.99843
 C652 C -0.00016 0.42473 1.05272
 C653 C -0.05326 0.50168 1.07498
 C654 C 0.07983 0.55734 0.99582
 C655 C 0.05773 0.50261 0.91856
 C656 C 0.00118 0.58011 0.94026
 H657 H 0.02684 0.46384 0.94641
 H658 H -0.03731 0.55257 0.97192
 H659 H -0.03838 0.46234 1.03767
 H660 H 0.05223 0.52669 1.03488
 H661 H 0.08485 0.47031 1.02637
 H662 H 0.06239 0.48873 1.06676
 H663 H -0.05527 0.53220 0.92806
 H664 H -0.08415 0.51011 0.96260
 H665 H 0.09505 0.45953 0.96992
 H666 H 0.01419 0.39870 0.98172
 H667 H -0.03261 0.58967 1.00358
 H668 H -0.06296 0.55833 1.03237
 H669 H -0.02568 0.40977 0.95504
 H670 H -0.00435 0.46964 0.90770
 H671 H 0.00853 0.53817 1.08164
 H672 H 0.03527 0.57066 1.05181
 O673 O 0.00554 0.41583 0.52997
 O674 O -0.02271 0.41305 0.48441
 O675 O 0.07870 0.46979 0.50655
 O676 O 0.08743 0.51464 0.49025
 O677 O 0.02309 0.49242 0.58332
 O678 O -0.02412 0.51403 0.58761
 O679 O 0.00012 0.54905 0.43138
 O680 O 0.04284 0.52111 0.42622
 O681 O -0.06925 0.49501 0.44656
 O682 O -0.07625 0.45041 0.48138
 O683 O -0.05628 0.56482 0.49953
 O684 O -0.02518 0.57458 0.54339
 O685 O -0.00983 0.57728 0.47150
 O686 O 0.01153 0.58407 0.52116
 O687 O -0.08388 0.52429 0.49142
 O688 O -0.09094 0.47717 0.51382
 O689 O -0.02873 0.50470 0.41899
 O690 O 0.01743 0.47538 0.41743
 O691 O -0.01034 0.44381 0.56837
 O692 O -0.04854 0.47796 0.57719
 O693 O 0.06327 0.50375 0.55604
 O694 O 0.07058 0.54385 0.52074
 O695 O 0.05165 0.42950 0.49565
 O696 O 0.01973 0.42332 0.45541
 Zr697 Zr 0.00838 0.44598 0.49473
 O698 O -0.01829 0.47106 0.46607
 Zr699 Zr 0.04802 0.50429 0.51238
 O700 O 0.02317 0.53154 0.48417
 Zr701 Zr -0.01057 0.48721 0.55213
 O702 O -0.03817 0.51386 0.52594
 Zr703 Zr 0.00539 0.50685 0.44975
 O704 O 0.03318 0.48029 0.47599
 Zr705 Zr -0.05324 0.48973 0.48976
 O706 O -0.02835 0.46219 0.51793
 Zr707 Zr -0.01364 0.54794 0.50697
 O708 O 0.01315 0.52335 0.53623
 O709 O 0.02547 0.46907 0.53038
 O710 O -0.03067 0.52491 0.47158
 C711 C -0.00392 0.41896 0.55651
 C712 C 0.07625 0.44262 0.49917
 C713 C 0.05006 0.50013 0.58075
 C714 C -0.00512 0.57387 0.44387
 C715 C -0.05633 0.50035 0.42198
 C716 C -0.08082 0.55207 0.49456
 H717 H -0.02520 0.45848 0.44984
 H718 H -0.05460 0.52142 0.53805
 H719 H 0.03812 0.45674 0.54324
 H720 H 0.03577 0.54738 0.47642
 H721 H 0.05856 0.50644 0.43002
 H722 H 0.08179 0.52176 0.47048
 H723 H -0.09130 0.48871 0.53222
 H724 H -0.06064 0.46466 0.56513
 H725 H 0.01618 0.48502 0.39787
 H726 H 0.02557 0.40283 0.46029
 H727 H -0.04290 0.56620 0.55265
 H728 H -0.01495 0.53341 0.58440
 H729 H -0.01378 0.39339 0.48770
 H730 H -0.07032 0.44322 0.46170
 H731 H 0.05980 0.55408 0.53669
 H732 H 0.02888 0.58544 0.50812
 O733 O 0.50409 0.91832 0.02772
 O734 O 0.47743 0.91606 -0.01827
 O735 O 0.57821 0.97242 0.00702
 O736 O 0.58676 1.01712 -0.01115
 O737 O 0.52276 0.99448 0.08247
 O738 O 0.47562 1.01580 0.08717
 O739 O 0.49856 1.05239 -0.06915
 O740 O 0.54201 1.02530 -0.07444
 O741 O 0.43009 0.99884 -0.05407
 O742 O 0.42345 0.95341 -0.01999
 O743 O 0.44305 1.06757 0.00023
 O744 O 0.47495 1.07706 0.04354
 O745 O 0.48845 1.08045 -0.02891
 O746 O 0.51119 1.08704 0.02042
 O747 O 0.41558 1.02709 -0.00861
 O748 O 0.40875 0.97962 0.01299
 O749 O 0.47061 1.00826 -0.08176
 O750 O 0.51702 0.97921 -0.08362
 O751 O 0.48939 0.94585 0.06690
 O752 O 0.45104 0.98005 0.07609
 O753 O 0.56270 1.00700 0.05536
 O754 O 0.57037 1.04659 0.02009
 O755 O 0.55118 0.93240 -0.00487
 O756 O 0.52017 0.92751 -0.04648
 Zr757 Zr 0.50803 0.94907 -0.00677
 O758 O 0.48117 0.97434 -0.03505
 Zr759 Zr 0.54759 1.00719 0.01159
 O760 O 0.52264 1.03470 -0.01640
 Zr761 Zr 0.48908 0.98955 0.05122
 O762 O 0.46146 1.01650 0.02536
 Zr763 Zr 0.50479 1.01029 -0.05101
 O764 O 0.53281 0.98357 -0.02510
 Zr765 Zr 0.44629 0.99270 -0.01103
 O766 O 0.47133 0.96492 0.01672
 Zr767 Zr 0.48587 1.05085 0.00663
 O768 O 0.51268 1.02594 0.03564
 O769 O 0.52504 0.97174 0.02920
 O770 O 0.46879 1.02805 -0.02887
 C771 C 0.49489 0.92108 0.05438
 C772 C 0.57576 0.94522 -0.00027
 C773 C 0.54957 1.00276 0.08003
 C774 C 0.49275 1.07705 -0.05664
 C775 C 0.44296 1.00423 -0.07867
 C776 C 0.41857 1.05478 -0.00483
 H777 H 0.47424 0.96194 -0.05142
 H778 H 0.44508 1.02390 0.03764
 H779 H 0.53751 0.95927 0.04209
 H780 H 0.53506 1.05070 -0.02411
 H781 H 0.55784 1.01064 -0.07106
 H782 H 0.58090 1.02554 -0.03034
 H783 H 0.40845 0.99089 0.03157
 H784 H 0.43916 0.96654 0.06405
 H785 H 0.51579 0.98907 -0.10306
 H786 H 0.52633 0.90702 -0.04202
 H787 H 0.45746 1.06845 0.05304
 H788 H 0.48474 1.03525 0.08421
 H789 H 0.48665 0.89643 -0.01566
 H790 H 0.42898 0.94683 -0.03999
 H791 H 0.55913 1.05723 0.03545
 H792 H 0.52806 1.08880 0.00683
 O793 O 0.41895 0.52601 0.01230
 O794 O 0.41734 0.47946 -0.01409
 O795 O 0.47538 0.50623 0.08573
 O796 O 0.52096 0.49158 0.09428
 O797 O 0.49481 0.58187 0.02700
 O798 O 0.51491 0.58418 -0.02196
 O799 O 0.55567 0.43158 0.00847
 O800 O 0.52868 0.42787 0.05316
 O801 O 0.49746 0.44041 -0.05943
 O802 O 0.45192 0.47528 -0.06669
 O803 O 0.56647 0.49834 -0.05167
 O804 O 0.57502 0.54358 -0.02131
 O805 O 0.58199 0.47158 -0.00556
 O806 O 0.58825 0.52106 0.01469
 O807 O 0.52562 0.48619 -0.07742
 O808 O 0.47859 0.50563 -0.08515
 O809 O 0.51273 0.41656 -0.01809
 O810 O 0.48374 0.41510 0.02799
 O811 O 0.44567 0.56473 -0.00423
 O812 O 0.47741 0.57305 -0.04380
 O813 O 0.50729 0.55627 0.06816
 O814 O 0.54857 0.52340 0.07599
 O815 O 0.43470 0.49378 0.05969
 O816 O 0.42968 0.45225 0.02977
 Zr817 Zr 0.45039 0.49173 0.01632
 O818 O 0.47576 0.46234 -0.00918
 Zr819 Zr 0.50910 0.51236 0.05431
 O820 O 0.53694 0.48435 0.02991
 Zr821 Zr 0.48926 0.54928 -0.00553
 O822 O 0.51543 0.52244 -0.03293
 Zr823 Zr 0.51298 0.44861 0.01443
 O824 O 0.48592 0.47503 0.04132
 Zr825 Zr 0.49224 0.48475 -0.04579
 O826 O 0.46491 0.51376 -0.02164
 Zr827 Zr 0.55111 0.50595 -0.00852
 O828 O 0.52645 0.53532 0.01803
 O829 O 0.47276 0.52849 0.03172
 O830 O 0.52888 0.46915 -0.02325
 C831 C 0.42123 0.55251 0.00247
 C832 C 0.44838 0.49812 0.08395
 C833 C 0.50296 0.58039 0.05409
 C834 C 0.57960 0.44420 0.00060
 C835 C 0.50632 0.41730 -0.04547
 C836 C 0.55314 0.49145 -0.07554
 H837 H 0.46368 0.44536 -0.01497
 H838 H 0.52187 0.53404 -0.05016
 H839 H 0.46034 0.54144 0.04415
 H840 H 0.55355 0.47764 0.04227
 H841 H 0.51385 0.43168 0.06868
 H842 H 0.53116 0.47307 0.08905
 H843 H 0.48701 0.52558 -0.08515
 H844 H 0.46464 0.56000 -0.05543
 H845 H 0.49452 0.39609 0.02729
 H846 H 0.40883 0.45652 0.03445
 H847 H 0.56631 0.55128 -0.03975
 H848 H 0.53389 0.58321 -0.01142
 H849 H 0.39778 0.48214 -0.00489
 H850 H 0.44600 0.45528 -0.06067
 H851 H 0.55857 0.53809 0.06348
 H852 H 0.59006 0.50925 0.03292
 O853 O -0.02331 0.00731 0.58337
 O854 O 0.02261 -0.01954 0.58495
 O855 O -0.00425 0.08097 0.52686
 O856 O 0.01260 0.08886 0.48176
 O857 O -0.08025 0.02689 0.50982
 O858 O -0.08540 -0.02060 0.48748
 O859 O 0.06836 0.00060 0.44571
 O860 O 0.07456 0.04390 0.47218
 O861 O 0.05623 -0.06778 0.50196
 O862 O 0.02305 -0.07336 0.54885
 O863 O -0.00108 -0.05522 0.43450
 O864 O -0.04461 -0.02337 0.42592
 O865 O 0.02706 -0.00964 0.41971
 O866 O -0.02255 0.01270 0.41435
 O867 O 0.00966 -0.08233 0.47520
 O868 O -0.00952 -0.08911 0.52325
 O869 O 0.08295 -0.02749 0.49011
 O870 O 0.08584 0.01884 0.51813
 O871 O -0.06282 -0.00836 0.55738
 O872 O -0.07465 -0.04474 0.52387
 O873 O -0.05342 0.06588 0.49452
 O874 O -0.02025 0.07276 0.45350
 O875 O 0.00956 0.05438 0.56713
 O876 O 0.05058 0.02233 0.57155
 Zr877 Zr 0.01018 0.01085 0.55146
 O878 O 0.03760 -0.01642 0.52567
 Zr879 Zr -0.01009 0.05010 0.49301
 O880 O 0.01657 0.02456 0.46498
 Zr881 Zr -0.04911 -0.00767 0.51316
 O882 O -0.02417 -0.03608 0.48623
 Zr883 Zr 0.05205 0.00675 0.48855
 O884 O 0.02724 0.03513 0.51576
 Zr885 Zr 0.01320 -0.05132 0.50890
 O886 O -0.01374 -0.02572 0.53691
 Zr887 Zr -0.00699 -0.01219 0.45062
 O888 O -0.03489 0.01543 0.47578
 O889 O -0.02645 0.02813 0.52964
 O890 O 0.02950 -0.02932 0.47233
 C891 C -0.04956 -0.00280 0.58164
 C892 C 0.00441 0.07881 0.55374
 C893 C -0.07788 0.05355 0.50064
 C894 C 0.05473 -0.00510 0.42168
 C895 C 0.08046 -0.05503 0.49530
 C896 C 0.00471 -0.07966 0.44756
 H897 H 0.05439 -0.02337 0.53767
 H898 H -0.03661 -0.05248 0.47970
 H899 H -0.03875 0.04081 0.54246
 H900 H 0.02351 0.03682 0.44841
 H901 H 0.07160 0.05978 0.48675
 H902 H 0.03063 0.08271 0.47127
 H903 H -0.02879 -0.08909 0.51327
 H904 H -0.06180 -0.05804 0.53547
 H905 H 0.10480 0.01763 0.50744
 H906 H 0.04689 0.02844 0.59216
 H907 H -0.05420 -0.04010 0.43588
 H908 H -0.08391 -0.00984 0.46858
 H909 H 0.02023 -0.01025 0.60452
 H910 H 0.04348 -0.06863 0.55429
 H911 H -0.03587 0.06154 0.44358
 H912 H -0.00939 0.02968 0.41179
 O913 O 0.67175 0.24591 0.27214
 O914 O 0.67060 0.27001 0.22475
 O915 O 0.72981 0.17145 0.25498
 O916 O 0.77594 0.16336 0.24165
 O917 O 0.74602 0.22985 0.33113
 O918 O 0.76541 0.27824 0.33460
 O919 O 0.81095 0.25127 0.18280
 O920 O 0.78518 0.20586 0.17770
 O921 O 0.75136 0.31766 0.19069
 O922 O 0.70477 0.32399 0.22401
 O923 O 0.81915 0.30915 0.24979
 O924 O 0.82665 0.27854 0.29601
 O925 O 0.83609 0.26403 0.22403
 O926 O 0.84119 0.24271 0.27355
 O927 O 0.77822 0.33475 0.23626
 O928 O 0.73056 0.34211 0.25555
 O929 O 0.76869 0.27736 0.16664
 O930 O 0.74009 0.23108 0.16341
 O931 O 0.69712 0.26133 0.31225
 O932 O 0.72837 0.30057 0.32177
 O933 O 0.76056 0.18908 0.30617
 O934 O 0.80260 0.18153 0.27372
 O935 O 0.68901 0.19768 0.24216
 O936 O 0.68563 0.22681 0.19888
 Zr937 Zr 0.70432 0.24087 0.23927
 O938 O 0.73001 0.26705 0.21099
 Zr939 Zr 0.76292 0.20306 0.26200
 O940 O 0.79112 0.22795 0.23489
 Zr941 Zr 0.74114 0.26244 0.29844
 O942 O 0.76778 0.29016 0.27281
 Zr943 Zr 0.76802 0.24398 0.19831
 O944 O 0.74075 0.21638 0.22368
 Zr945 Zr 0.74521 0.30324 0.23452
 O946 O 0.71745 0.27859 0.26213
 Zr947 Zr 0.80417 0.26603 0.25734
 O948 O 0.77905 0.23914 0.28573
 O949 O 0.72580 0.22535 0.27693
 O950 O 0.78256 0.28116 0.21999
 C951 C 0.67311 0.25557 0.29873
 C952 C 0.70279 0.17336 0.24666
 C953 C 0.75503 0.20302 0.33011
 C954 C 0.83440 0.25906 0.19633
 C955 C 0.76163 0.30463 0.16774
 C956 C 0.80571 0.33286 0.24197
 H957 H 0.71834 0.27304 0.19361
 H958 H 0.77374 0.30724 0.28469
 H959 H 0.71315 0.21295 0.28954
 H960 H 0.80810 0.21582 0.22859
 H961 H 0.77041 0.19026 0.18047
 H962 H 0.78507 0.16877 0.22268
 H963 H 0.73979 0.34261 0.27522
 H964 H 0.71595 0.31233 0.30821
 H965 H 0.75149 0.23236 0.14483
 H966 H 0.66519 0.22028 0.20231
 H967 H 0.81816 0.29740 0.30282
 H968 H 0.78482 0.26833 0.33382
 H969 H 0.65134 0.26023 0.22666
 H970 H 0.69931 0.31805 0.20383
 H971 H 0.81198 0.19371 0.28901
 H972 H 0.84383 0.22493 0.26134
 O973 O 0.75330 0.68274 0.69330
 O974 O 0.79950 0.68033 0.72125
 O975 O 0.68639 0.68799 0.75690
 O976 O 0.67658 0.71551 0.79789
 O977 O 0.68999 0.75055 0.68710
 O978 O 0.71901 0.79518 0.67994
 O979 O 0.75797 0.77057 0.83364
 O980 O 0.73753 0.72557 0.83822
 O981 O 0.83027 0.75816 0.77470
 O982 O 0.83163 0.73546 0.72174
 O983 O 0.77092 0.82949 0.75939
 O984 O 0.71899 0.83177 0.74020
 O985 O 0.74167 0.81077 0.80838
 O986 O 0.70186 0.82174 0.77891
 O987 O 0.81156 0.80495 0.74352
 O988 O 0.82352 0.77607 0.70555
 O989 O 0.80565 0.74315 0.81551
 O990 O 0.77772 0.69779 0.81901
 O991 O 0.73586 0.72331 0.66923
 O992 O 0.75654 0.77188 0.66379
 O993 O 0.66664 0.73325 0.72783
 O994 O 0.66232 0.75717 0.77586
 O995 O 0.72705 0.66472 0.73872
 O996 O 0.77421 0.66279 0.76447
 Zr997 Zr 0.75897 0.69753 0.73701
 O998 O 0.78592 0.72313 0.76408
 Zr999 Zr 0.69889 0.73243 0.76070
 O1000 O 0.72375 0.75987 0.78779
 Zr1001 Zr 0.73369 0.75637 0.70120
 O1002 O 0.76069 0.78401 0.72592
 Zr1003 Zr 0.76234 0.73815 0.80088
 O1004 O 0.73607 0.70934 0.77582
 Zr1005 Zr 0.79796 0.76116 0.74135
 O1006 O 0.77291 0.73444 0.71287
 Zr1007 Zr 0.73844 0.79685 0.76433
 O1008 O 0.70986 0.77134 0.73798
 O1009 O 0.72100 0.71892 0.72342
 O1010 O 0.77674 0.77615 0.77934
 C1011 C 0.74314 0.69600 0.67033
 C1012 C 0.70005 0.66517 0.74693
 C1013 C 0.66734 0.74027 0.70046
 C1014 C 0.74841 0.79727 0.83238
 C1015 C 0.82932 0.74990 0.80184
 C1016 C 0.79756 0.82866 0.74983
 H1017 H 0.80308 0.71105 0.76998
 H1018 H 0.76603 0.80082 0.71323
 H1019 H 0.70865 0.70610 0.71121
 H1020 H 0.71151 0.76552 0.80486
 H1021 H 0.72667 0.70770 0.83260
 H1022 H 0.68341 0.72638 0.81535
 H1023 H 0.80960 0.78413 0.69085
 H1024 H 0.77502 0.76032 0.66260
 H1025 H 0.78477 0.70146 0.83930
 H1026 H 0.77258 0.64402 0.75361
 H1027 H 0.73145 0.83550 0.72275
 H1028 H 0.70261 0.80314 0.69191
 H1029 H 0.79614 0.66047 0.71309
 H1030 H 0.83879 0.72122 0.73663
 H1031 H 0.66046 0.77453 0.76279
 H1032 H 0.68870 0.80804 0.78937
 O1033 O 0.31677 0.19164 0.75010
 O1034 O 0.31946 0.22046 0.70443
 O1035 O 0.30536 0.25012 0.81885
 O1036 O 0.27698 0.29022 0.82900
 O1037 O 0.24648 0.18008 0.80810
 O1038 O 0.20358 0.17347 0.77742
 O1039 O 0.22449 0.32943 0.74372
 O1040 O 0.26808 0.33404 0.76806
 O1041 O 0.24094 0.27399 0.67155
 O1042 O 0.26552 0.22167 0.66910
 O1043 O 0.16843 0.25656 0.72669
 O1044 O 0.16296 0.23514 0.77619
 O1045 O 0.18465 0.30342 0.75851
 O1046 O 0.17395 0.27033 0.79849
 O1047 O 0.19472 0.24159 0.68689
 O1048 O 0.22514 0.20461 0.67463
 O1049 O 0.25457 0.31381 0.69805
 O1050 O 0.29849 0.31674 0.72866
 O1051 O 0.27573 0.16528 0.76042
 O1052 O 0.22729 0.16031 0.73996
 O1053 O 0.25791 0.22058 0.83475
 O1054 O 0.23506 0.26883 0.83917
 O1055 O 0.33178 0.23812 0.77790
 O1056 O 0.33421 0.26352 0.73117
 Zr1057 Zr 0.30023 0.23473 0.74460
 O1058 O 0.27491 0.26212 0.71706
 Zr1059 Zr 0.26176 0.25455 0.80370
 O1060 O 0.23504 0.28270 0.77838
 Zr1061 Zr 0.24176 0.19648 0.76496
 O1062 O 0.21422 0.22210 0.73798
 Zr1063 Zr 0.25800 0.29756 0.74123
 O1064 O 0.28601 0.27198 0.76841
 Zr1065 Zr 0.23805 0.23934 0.70239
 O1066 O 0.26490 0.21056 0.72753
 Zr1067 Zr 0.19944 0.25939 0.76105
 O1068 O 0.22437 0.23174 0.78949
 O1069 O 0.27782 0.21858 0.78097
 O1070 O 0.22131 0.27612 0.72430
 C1071 C 0.30340 0.16742 0.75546
 C1072 C 0.32958 0.24400 0.80543
 C1073 C 0.25233 0.19312 0.83240
 C1074 C 0.19753 0.32764 0.75197
 C1075 C 0.24849 0.30107 0.67369
 C1076 C 0.17044 0.24811 0.69975
 H1077 H 0.28743 0.26888 0.70063
 H1078 H 0.19792 0.20959 0.73130
 H1079 H 0.29040 0.20597 0.79356
 H1080 H 0.22854 0.29930 0.79083
 H1081 H 0.28581 0.32853 0.77944
 H1082 H 0.26760 0.30825 0.82111
 H1083 H 0.21588 0.18968 0.68738
 H1084 H 0.23881 0.16037 0.72147
 H1085 H 0.29458 0.33723 0.72215
 H1086 H 0.35329 0.25300 0.73255
 H1087 H 0.16218 0.21680 0.76463
 H1088 H 0.19380 0.18534 0.79286
 H1089 H 0.33945 0.21267 0.70842
 H1090 H 0.27961 0.23704 0.66324
 H1091 H 0.21732 0.25642 0.83915
 H1092 H 0.18513 0.28477 0.81008
 O1093 O 0.19012 0.75080 0.31694
 O1094 O 0.21850 0.70473 0.31966
 O1095 O 0.24923 0.81837 0.30521
 O1096 O 0.28935 0.82754 0.27677
 O1097 O 0.17847 0.80884 0.24711
 O1098 O 0.17097 0.77905 0.20375
 O1099 O 0.32673 0.74164 0.22348
 O1100 O 0.33220 0.76607 0.26681
 O1101 O 0.26999 0.67091 0.24102
 O1102 O 0.21785 0.66971 0.26517
 O1103 O 0.25264 0.72672 0.16779
 O1104 O 0.23332 0.77482 0.16117
 O1105 O 0.30026 0.75711 0.18387
 O1106 O 0.26627 0.79916 0.17471
 O1107 O 0.23784 0.68706 0.19422
 O1108 O 0.20090 0.67558 0.22461
 O1109 O 0.31061 0.69624 0.25437
 O1110 O 0.31467 0.72712 0.29791
 O1111 O 0.16348 0.76158 0.27587
 O1112 O 0.15775 0.74141 0.22721
 O1113 O 0.21966 0.83474 0.25763
 O1114 O 0.26783 0.83822 0.23468
 O1115 O 0.23702 0.77773 0.33182
 O1116 O 0.26207 0.73062 0.33405
 Zr1117 Zr 0.23298 0.74455 0.30018
 O1118 O 0.25954 0.71660 0.27453
 Zr1119 Zr 0.25320 0.80311 0.26148
 O1120 O 0.28065 0.77732 0.23450
 Zr1121 Zr 0.19430 0.76569 0.24176
 O1122 O 0.21912 0.73844 0.21394
 Zr1123 Zr 0.29524 0.73986 0.25735
 O1124 O 0.27043 0.76748 0.28566
 Zr1125 Zr 0.23608 0.70251 0.23769
 O1126 O 0.20809 0.72805 0.26489
 Zr1127 Zr 0.25655 0.76068 0.19898
 O1128 O 0.22961 0.78951 0.22413
 O1129 O 0.21711 0.78114 0.27777
 O1130 O 0.27302 0.72355 0.22070
 C1131 C 0.16583 0.75657 0.30359
 C1132 C 0.24313 0.80513 0.32954
 C1133 C 0.19203 0.83275 0.25275
 C1134 C 0.32459 0.75006 0.19649
 C1135 C 0.29710 0.67227 0.24872
 C1136 C 0.24396 0.69997 0.16985
 H1137 H 0.26611 0.70006 0.28713
 H1138 H 0.20634 0.73213 0.19763
 H1139 H 0.20484 0.79386 0.29051
 H1140 H 0.29733 0.78942 0.22789
 H1141 H 0.32728 0.77738 0.28476
 H1142 H 0.30714 0.81943 0.26718
 H1143 H 0.18610 0.68864 0.21532
 H1144 H 0.15761 0.72297 0.23883
 H1145 H 0.33528 0.72113 0.29398
 H1146 H 0.25188 0.73227 0.35327
 H1147 H 0.21330 0.76672 0.16256
 H1148 H 0.18282 0.79450 0.19414
 H1149 H 0.21103 0.70890 0.33973
 H1150 H 0.23305 0.66366 0.27953
 H1151 H 0.25524 0.83853 0.21694
 H1152 H 0.28332 0.80861 0.18410
 O1153 O 0.17146 0.74435 0.76941
 O1154 O 0.17051 0.76785 0.72260
 O1155 O 0.23036 0.67026 0.75341
 O1156 O 0.27661 0.66313 0.73929
 O1157 O 0.24426 0.72687 0.83027
 O1158 O 0.26270 0.77544 0.83568
 O1159 O 0.31354 0.74973 0.68480
 O1160 O 0.28641 0.70626 0.67728
 O1161 O 0.25078 0.81771 0.69186
 O1162 O 0.20708 0.82603 0.72427
 O1163 O 0.31911 0.80856 0.75470
 O1164 O 0.32572 0.77603 0.79900
 O1165 O 0.33593 0.76649 0.72617
 O1166 O 0.34068 0.74101 0.77524
 O1167 O 0.28037 0.83276 0.73417
 O1168 O 0.23100 0.83981 0.75939
 O1169 O 0.27265 0.77916 0.66854
 O1170 O 0.24319 0.73329 0.66199
 O1171 O 0.19540 0.75924 0.81061
 O1172 O 0.22620 0.79796 0.82197
 O1173 O 0.26004 0.68699 0.80459
 O1174 O 0.30241 0.68013 0.77350
 O1175 O 0.18985 0.69640 0.73959
 O1176 O 0.18846 0.72657 0.69586
 Zr1177 Zr 0.20496 0.73975 0.73750
 O1178 O 0.23128 0.76685 0.71079
 Zr1179 Zr 0.26312 0.70197 0.76101
 O1180 O 0.29198 0.72761 0.73549
 Zr1181 Zr 0.23987 0.76040 0.79826
 O1182 O 0.26725 0.78895 0.77422
 Zr1183 Zr 0.26978 0.74421 0.69858
 O1184 O 0.24191 0.71583 0.72238
 Zr1185 Zr 0.24582 0.80264 0.73548
 O1186 O 0.21724 0.77711 0.76142
 Zr1187 Zr 0.30402 0.76517 0.75939
 O1188 O 0.27821 0.73753 0.78621
 O1189 O 0.22545 0.72370 0.77546
 O1190 O 0.28347 0.78077 0.72172
 C1191 C 0.17188 0.75372 0.79614
 C1192 C 0.20354 0.67211 0.74453
 C1193 C 0.25382 0.70021 0.82872
 C1194 C 0.33571 0.76015 0.69868
 C1195 C 0.26365 0.80591 0.66958
 C1196 C 0.30725 0.83118 0.74243
 H1197 H 0.22004 0.77318 0.69323
 H1198 H 0.27296 0.80578 0.78656
 H1199 H 0.21254 0.71105 0.78755
 H1200 H 0.30922 0.71573 0.72942
 H1201 H 0.27130 0.69089 0.67950
 H1202 H 0.28750 0.66927 0.72151
 H1203 H 0.24600 0.84458 0.77429
 H1204 H 0.21666 0.81121 0.80749
 H1205 H 0.25532 0.73551 0.64399
 H1206 H 0.16841 0.71859 0.69825
 H1207 H 0.31625 0.79394 0.80700
 H1208 H 0.28212 0.76552 0.83549
 H1209 H 0.15165 0.75715 0.72344
 H1210 H 0.19779 0.81554 0.70775
 H1211 H 0.31207 0.69276 0.78822
 H1212 H 0.34531 0.72541 0.76081
 O1213 O 0.25409 0.18193 0.19024
 O1214 O 0.30044 0.17901 0.21761
 O1215 O 0.18797 0.18726 0.25475
 O1216 O 0.17870 0.21470 0.29583
 O1217 O 0.19054 0.25082 0.18537
 O1218 O 0.22048 0.29459 0.17742
 O1219 O 0.26126 0.26906 0.33078
 O1220 O 0.23996 0.22467 0.33549
 O1221 O 0.33240 0.25529 0.27050
 O1222 O 0.33215 0.23382 0.21668
 O1223 O 0.27390 0.32776 0.25846
 O1224 O 0.22297 0.33207 0.23859
 O1225 O 0.24415 0.30918 0.30593
 O1226 O 0.20337 0.32001 0.27536
 O1227 O 0.31386 0.30304 0.24127
 O1228 O 0.32489 0.27601 0.20251
 O1229 O 0.30842 0.24066 0.31190
 O1230 O 0.27952 0.19591 0.31546
 O1231 O 0.23578 0.22227 0.16642
 O1232 O 0.25729 0.27064 0.16068
 O1233 O 0.16798 0.23239 0.22609
 O1234 O 0.16452 0.25667 0.27402
 O1235 O 0.22825 0.16388 0.23591
 O1236 O 0.27555 0.16150 0.26098
 Zr1237 Zr 0.26021 0.19648 0.23386
 O1238 O 0.28766 0.22168 0.26066
 Zr1239 Zr 0.20069 0.23161 0.25845
 O1240 O 0.22610 0.25872 0.28536
 Zr1241 Zr 0.23477 0.25552 0.19844
 O1242 O 0.26234 0.28291 0.22302
 Zr1243 Zr 0.26470 0.23666 0.29788
 O1244 O 0.23789 0.20820 0.27302
 Zr1245 Zr 0.29957 0.25966 0.23785
 O1246 O 0.27402 0.23331 0.20954
 Zr1247 Zr 0.24073 0.29567 0.26181
 O1248 O 0.21167 0.27050 0.23566
 O1249 O 0.22216 0.21811 0.22079
 O1250 O 0.27901 0.27455 0.27622
 C1251 C 0.24335 0.19501 0.16745
 C1252 C 0.20140 0.16443 0.24449
 C1253 C 0.16813 0.24029 0.19897
 C1254 C 0.25145 0.29569 0.32975
 C1255 C 0.33192 0.24687 0.29760
 C1256 C 0.30062 0.32670 0.24917
 H1257 H 0.30478 0.20932 0.26613
 H1258 H 0.26790 0.29985 0.21061
 H1259 H 0.20951 0.20544 0.20872
 H1260 H 0.21410 0.26435 0.30261
 H1261 H 0.22893 0.20684 0.33011
 H1262 H 0.18557 0.22564 0.31323
 H1263 H 0.31080 0.28249 0.18724
 H1264 H 0.27557 0.25880 0.15923
 H1265 H 0.28582 0.19919 0.33605
 H1266 H 0.27371 0.14277 0.25009
 H1267 H 0.23496 0.33503 0.22068
 H1268 H 0.20510 0.30331 0.19018
 H1269 H 0.29686 0.15919 0.20945
 H1270 H 0.33999 0.21965 0.23130
 H1271 H 0.16261 0.27401 0.26092
 H1272 H 0.19156 0.30699 0.28809
 O1273 O 0.81183 0.68820 0.25260
 O1274 O 0.81884 0.71717 0.20810
 O1275 O 0.80299 0.75141 0.32079
 O1276 O 0.77552 0.79211 0.32952
 O1277 O 0.74093 0.68284 0.31164
 O1278 O 0.69782 0.67759 0.28039
 O1279 O 0.72779 0.83087 0.24219
 O1280 O 0.77094 0.83403 0.26629
 O1281 O 0.74336 0.77151 0.17147
 O1282 O 0.76493 0.71756 0.17225
 O1283 O 0.66828 0.76030 0.22547
 O1284 O 0.65972 0.74162 0.27434
 O1285 O 0.68631 0.80723 0.25654
 O1286 O 0.67360 0.77492 0.29779
 O1287 O 0.69468 0.74255 0.18690
 O1288 O 0.72285 0.70386 0.17659
 O1289 O 0.75779 0.81188 0.19675
 O1290 O 0.80129 0.81349 0.22837
 O1291 O 0.76997 0.66480 0.26639
 O1292 O 0.72207 0.66163 0.24349
 O1293 O 0.75482 0.72342 0.33695
 O1294 O 0.73265 0.77286 0.33892
 O1295 O 0.82865 0.73206 0.28219
 O1296 O 0.83436 0.75935 0.23561
 Zr1297 Zr 0.79840 0.73231 0.24734
 O1298 O 0.77512 0.75991 0.21825
 Zr1299 Zr 0.75975 0.75630 0.30476
 O1300 O 0.73505 0.78470 0.27777
 Zr1301 Zr 0.73751 0.69784 0.26781
 O1302 O 0.71199 0.72378 0.23921
 Zr1303 Zr 0.75952 0.79709 0.24067
 O1304 O 0.78567 0.77115 0.26945
 Zr1305 Zr 0.73745 0.73848 0.20360
 O1306 O 0.76219 0.70932 0.23041
 Zr1307 Zr 0.69865 0.76259 0.26049
 O1308 O 0.72148 0.73483 0.29060
 O1309 O 0.77428 0.71877 0.28361
 O1310 O 0.72212 0.77691 0.22368
 C1311 C 0.79759 0.66522 0.26059
 C1312 C 0.82637 0.74041 0.30910
 C1313 C 0.74808 0.69614 0.33548
 C1314 C 0.70068 0.83063 0.25020
 C1315 C 0.75205 0.79830 0.17272
 C1316 C 0.67046 0.75083 0.19887
 H1317 H 0.78840 0.76536 0.20192
 H1318 H 0.69520 0.71194 0.23254
 H1319 H 0.78591 0.70584 0.29674
 H1320 H 0.72918 0.80197 0.28960
 H1321 H 0.78803 0.82800 0.27839
 H1322 H 0.76777 0.81027 0.32030
 H1323 H 0.71356 0.68934 0.18980
 H1324 H 0.73450 0.66025 0.22564
 H1325 H 0.79868 0.83401 0.22143
 H1326 H 0.85288 0.74828 0.23910
 H1327 H 0.65961 0.72185 0.26539
 H1328 H 0.68875 0.69032 0.29558
 H1329 H 0.83845 0.70894 0.21302
 H1330 H 0.77961 0.73202 0.16557
 H1331 H 0.71498 0.76037 0.33964
 H1332 H 0.68479 0.78999 0.30852
 O1333 O 0.69649 0.24470 0.82281
 O1334 O 0.72645 0.20048 0.82460
 O1335 O 0.75425 0.31497 0.81063
 O1336 O 0.79445 0.32391 0.78180
 O1337 O 0.68327 0.30682 0.75199
 O1338 O 0.67321 0.27525 0.71087
 O1339 O 0.83021 0.24024 0.72556
 O1340 O 0.83688 0.26352 0.76948
 O1341 O 0.77468 0.16846 0.74320
 O1342 O 0.72320 0.16667 0.76930
 O1343 O 0.75565 0.22497 0.67187
 O1344 O 0.73387 0.27432 0.66744
 O1345 O 0.80267 0.25634 0.68693
 O1346 O 0.76873 0.29696 0.67836
 O1347 O 0.74079 0.18511 0.69789
 O1348 O 0.70490 0.17314 0.72905
 O1349 O 0.81532 0.19415 0.75564
 O1350 O 0.82072 0.22372 0.79977
 O1351 O 0.66886 0.26066 0.78400
 O1352 O 0.66119 0.23817 0.73605
 O1353 O 0.72435 0.33202 0.76411
 O1354 O 0.77146 0.33601 0.74030
 O1355 O 0.74224 0.27399 0.83685
 O1356 O 0.76962 0.22756 0.83762
 Zr1357 Zr 0.73896 0.24089 0.80492
 O1358 O 0.76484 0.21352 0.77801
 Zr1359 Zr 0.75770 0.30024 0.76669
 O1360 O 0.78433 0.27513 0.73838
 Zr1361 Zr 0.69826 0.26298 0.74811
 O1362 O 0.72243 0.23617 0.71907
 Zr1363 Zr 0.79979 0.23743 0.76024
 O1364 O 0.77579 0.26437 0.78981
 Zr1365 Zr 0.74034 0.19992 0.74166
 O1366 O 0.71307 0.22496 0.77010
 Zr1367 Zr 0.75931 0.25884 0.70331
 O1368 O 0.73309 0.28711 0.72983
 O1369 O 0.72215 0.27786 0.78359
 O1370 O 0.77662 0.22153 0.72399
 C1371 C 0.67221 0.25325 0.81117
 C1372 C 0.74805 0.30150 0.83482
 C1373 C 0.69688 0.33064 0.75823
 C1374 C 0.82736 0.24925 0.69883
 C1375 C 0.80205 0.17009 0.74995
 C1376 C 0.74707 0.19816 0.67362
 H1377 H 0.77196 0.19681 0.79008
 H1378 H 0.70927 0.22993 0.70305
 H1379 H 0.71004 0.29054 0.79651
 H1380 H 0.80071 0.28748 0.73150
 H1381 H 0.83231 0.27448 0.78773
 H1382 H 0.81180 0.31675 0.77077
 H1383 H 0.68924 0.18653 0.72189
 H1384 H 0.66153 0.22021 0.74841
 H1385 H 0.84100 0.21720 0.79496
 H1386 H 0.76041 0.22969 0.85729
 H1387 H 0.71573 0.26256 0.66673
 H1388 H 0.68519 0.28948 0.69968
 H1389 H 0.72027 0.20414 0.84520
 H1390 H 0.73903 0.16024 0.78280
 H1391 H 0.75873 0.33634 0.72267
 H1392 H 0.78455 0.30758 0.68858
 C1393 C 0.10276 1.03724 1.13149
 C1394 C 0.09332 1.02412 1.15791
 C1395 C 0.06790 1.00653 1.15650
 C1396 C 0.05436 1.00059 1.12961
 C1397 C 0.06608 1.01130 1.10310
 C1398 C 0.08969 1.03060 1.10465
 C1399 C 0.11843 1.02950 1.08893
 C1400 C 0.13273 1.03717 1.11805
 H1401 H 0.05777 0.99777 1.17618
 H1402 H 0.03473 0.98733 1.12951
 H1403 H 0.12041 1.04708 1.07207
 H1404 H 0.12414 1.00706 1.08107
 H1405 H 0.14265 1.05940 1.11807
 H1406 H 0.14708 1.01936 1.12691
 C1407 C 0.60606 0.52695 0.63358
 C1408 C 0.59456 0.51985 0.66117
 C1409 C 0.56741 0.50489 0.66108
 C1410 C 0.55275 0.49868 0.63447
 C1411 C 0.56503 0.50668 0.60702
 C1412 C 0.59238 0.52006 0.60789
 C1413 C 0.61344 0.53688 0.58946
 C1414 C 0.62922 0.54435 0.61844
 H1415 H 0.55692 0.49886 0.68161
 H1416 H 0.53152 0.48819 0.63543
 H1417 H 0.60299 0.55628 0.57873
 H1418 H 0.62653 0.52243 0.57468
 H1419 H 0.62800 0.56811 0.62388
 H1420 H 0.65132 0.53403 0.62052
 C1421 C 0.38996 -0.01935 0.62971
 C1422 C 0.40420 -0.01610 0.65689
 C1423 C 0.43101 -0.00085 0.65695
 C1424 C 0.44486 0.00684 0.63047
 C1425 C 0.43196 0.00001 0.60323
 C1426 C 0.40336 -0.01096 0.60351
 C1427 C 0.39035 -0.03571 0.58674
 C1428 C 0.37596 -0.04526 0.61538
 H1429 H 0.44227 0.00340 0.67746
 H1430 H 0.46654 0.01636 0.63131
 H1431 H 0.40722 -0.05147 0.57854
 H1432 H 0.37435 -0.02795 0.56993
 H1433 H 0.38471 -0.06674 0.62320
 H1434 H 0.35163 -0.04336 0.61492
 C1435 C -0.11143 0.47924 1.12928
 C1436 C -0.09758 0.48468 1.15634
 C1437 C -0.07166 0.50145 1.15565
 C1438 C -0.05848 0.50924 1.12889
 C1439 C -0.07099 0.50081 1.10197
 C1440 C -0.09858 0.48758 1.10271
 C1441 C -0.10901 0.46097 1.08703
 C1442 C -0.12259 0.45139 1.11601
 H1443 H -0.06048 0.50705 1.17585
 H1444 H -0.03747 0.52020 1.12931
 H1445 H -0.09067 0.44649 1.07963
 H1446 H -0.12553 0.46640 1.06985
 H1447 H -0.11175 0.43129 1.12490
 H1448 H -0.14696 0.45077 1.11537
 C1449 C -0.07956 0.49258 0.34299
 C1450 C -0.10277 0.51298 0.34049
 C1451 C -0.11427 0.52440 0.36722
 C1452 C -0.10042 0.51844 0.39435
 C1453 C -0.07433 0.50173 0.39529
 C1454 C -0.06536 0.48769 0.36949
 C1455 C -0.03591 0.48527 0.35529
 C1456 C -0.05135 0.49047 0.32614
 H1457 H -0.13358 0.53838 0.36740
 H1458 H -0.10883 0.52875 0.41414
 H1459 H -0.02631 0.46284 0.35740
 H1460 H -0.02105 0.50353 0.36128
 H1461 H -0.05058 0.47096 0.31150
 H1462 H -0.04533 0.51156 0.31540
 C1463 C 0.41801 0.99361 -0.15670
 C1464 C 0.39651 1.01567 -0.16048
 C1465 C 0.38672 1.03014 -0.13456
 C1466 C 0.40049 1.02490 -0.10721
 C1467 C 0.42488 1.00583 -0.10529
 C1468 C 0.43216 0.98932 -0.13008
 C1469 C 0.46111 0.98345 -0.14429
 C1470 C 0.44576 0.98796 -0.17358
 H1471 H 0.36874 1.04580 -0.13519
 H1472 H 0.39342 1.03729 -0.08811
 H1473 H 0.46882 0.96049 -0.14070
 H1474 H 0.47753 1.00073 -0.13969
 H1475 H 0.44472 0.96752 -0.18683
 H1476 H 0.45340 1.00768 -0.18581
 C1477 C 0.57234 0.49666 -0.15589
 C1478 C 0.59900 0.48138 -0.15777
 C1479 C 0.61312 0.47366 -0.13116
 C1480 C 0.59897 0.47839 -0.10387
 C1481 C 0.57022 0.49013 -0.10295
 C1482 C 0.55813 0.50051 -0.12930
 C1483 C 0.52860 0.49617 -0.14277
 C1484 C 0.54429 0.49207 -0.17205
 H1485 H 0.63451 0.46311 -0.13152
 H1486 H 0.60961 0.47108 -0.08382
 H1487 H 0.51487 0.51646 -0.14196
 H1488 H 0.51764 0.47588 -0.13489
 H1489 H 0.53969 0.51005 -0.18804
 H1490 H 0.54243 0.46947 -0.18104
 C1491 C 0.07239 0.00048 0.34124
 C1492 C 0.09809 -0.01625 0.33857
 C1493 C 0.11267 -0.02462 0.36474
 C1494 C 0.09957 -0.01924 0.39243
 C1495 C 0.07147 -0.00610 0.39413
 C1496 C 0.05919 0.00502 0.36818
 C1497 C 0.02907 0.00251 0.35547
 C1498 C 0.04371 -0.00232 0.32577
 H1499 H 0.13350 -0.03622 0.36377
 H1500 H 0.11033 -0.02727 0.41215
 H1501 H 0.01657 0.02355 0.35673
 H1502 H 0.01712 -0.01716 0.36346
 H1503 H 0.03977 0.01600 0.31000
 H1504 H 0.04028 -0.02470 0.31673
 C1505 C 0.12634 1.11050 1.02935
 C1506 C 0.15306 1.09949 1.01768
 C1507 C 0.15040 1.07779 0.99541
 C1508 C 0.12316 1.06575 0.98809
 C1509 C 0.09738 1.07536 1.00205
 C1510 C 0.09925 1.09938 1.02092
 C1511 C 0.08582 1.10391 1.05041
 C1512 C 0.11536 1.11553 1.06013
 H1513 H 0.16944 1.06754 0.98545
 H1514 H 0.12255 1.04733 0.97306
 H1515 H 0.07972 1.08288 1.06114
 H1516 H 0.06826 1.12101 1.05002
 H1517 H 0.12604 1.10097 1.07671
 H1518 H 0.11460 1.13923 1.06595
 C1519 C 0.65351 0.57153 0.50340
 C1520 C 0.65514 0.59685 0.52058
 C1521 C 0.62842 0.61049 0.52891
 C1522 C 0.60131 0.59691 0.52286
 C1523 C 0.60067 0.56921 0.50907
 C1524 C 0.62713 0.55786 0.49816
 C1525 C 0.64076 0.52795 0.50036
 C1526 C 0.66979 0.54307 0.50605
 H1527 H 0.62850 0.63096 0.54098
 H1528 H 0.58120 0.60696 0.53087
 H1529 H 0.64028 0.51608 0.47904
 H1530 H 0.63283 0.51521 0.51966
 H1531 H 0.68597 0.53998 0.48797
 H1532 H 0.67849 0.53918 0.52860
 C1533 C 0.65760 0.41803 0.00924
 C1534 C 0.66169 0.39897 -0.01490
 C1535 C 0.63594 0.39135 -0.03059
 C1536 C 0.60876 0.40496 -0.02443
 C1537 C 0.60619 0.42611 -0.00214
 C1538 C 0.63073 0.43134 0.01522
 C1539 C 0.64427 0.45964 0.02403
 C1540 C 0.67376 0.44536 0.01748
 H1541 H 0.63635 0.37544 -0.04816
 H1542 H 0.59042 0.40066 -0.03868
 H1543 H 0.64088 0.46442 0.04777
 H1544 H 0.63887 0.47804 0.00878
 H1545 H 0.68737 0.44235 0.03756
 H1546 H 0.68535 0.45544 -0.00155
 C1547 C 0.16036 -0.07608 0.50034
 C1548 C 0.16227 -0.10181 0.48374
 C1549 C 0.13565 -0.11512 0.47538
 C1550 C 0.10842 -0.10089 0.48081
 C1551 C 0.10757 -0.07282 0.49390
 C1552 C 0.13390 -0.06174 0.50485
 C1553 C 0.14763 -0.03217 0.50208
 C1554 C 0.17675 -0.04801 0.49731
 H1555 H 0.13592 -0.13584 0.46377
 H1556 H 0.08842 -0.11079 0.47289
 H1557 H 0.14674 -0.01971 0.52306
 H1558 H 0.14013 -0.01984 0.48227
 H1559 H 0.19253 -0.04480 0.51562
 H1560 H 0.18598 -0.04483 0.47486
 C1561 C 0.37165 -0.10708 0.52784
 C1562 C 0.34470 -0.09842 0.51540
 C1563 C 0.34652 -0.07522 0.49433
 C1564 C 0.37345 -0.06118 0.48810
 C1565 C 0.39978 -0.07072 0.50146
 C1566 C 0.39778 -0.09480 0.52013
 C1567 C 0.41523 -0.11215 0.54172
 C1568 C 0.38602 -0.12655 0.55034
 H1569 H 0.32701 -0.06609 0.48418
 H1570 H 0.37349 -0.04229 0.47355
 H1571 H 0.42467 -0.09831 0.55936
 H1572 H 0.43096 -0.12746 0.53086
 H1573 H 0.37947 -0.12120 0.57328
 H1574 H 0.38482 -0.15017 0.54442
 C1575 C -0.12729 0.38618 1.01809
 C1576 C -0.15469 0.40021 1.01459
 C1577 C -0.15507 0.42751 0.99977
 C1578 C -0.12891 0.44171 0.99238
 C1579 C -0.10158 0.42885 0.99922
 C1580 C -0.10136 0.39999 1.00997
 C1581 C -0.08442 0.38657 1.03468
 C1582 C -0.11281 0.37194 1.04412
 H1583 H -0.17562 0.43891 0.99560
 H1584 H -0.13013 0.46361 0.98302
 H1585 H -0.07636 0.40308 1.05063
 H1586 H -0.06749 0.37072 1.02677
 H1587 H -0.12075 0.38050 1.06559
 H1588 H -0.11198 0.34761 1.04227
 C1589 C -0.15881 0.57754 0.50522
 C1590 C -0.16290 0.59878 0.48298
 C1591 C -0.13718 0.60807 0.46799
 C1592 C -0.10973 0.59425 0.47316
 C1593 C -0.10750 0.57029 0.49270
 C1594 C -0.13213 0.56343 0.50951
 C1595 C -0.14600 0.53461 0.51609
 C1596 C -0.17537 0.54990 0.51143
 H1597 H -0.13798 0.62577 0.45208
 H1598 H -0.09080 0.60098 0.46045
 H1599 H -0.14232 0.52755 0.53924
 H1600 H -0.14120 0.51765 0.49917
 H1601 H -0.18861 0.55137 0.53195
 H1602 H -0.18746 0.54182 0.49186
 C1603 C 0.34047 1.07941 0.00627
 C1604 C 0.33613 1.10017 -0.01636
 C1605 C 0.36174 1.10996 -0.03120
 C1606 C 0.38936 1.09669 -0.02585
 C1607 C 0.39187 1.07289 -0.00619
 C1608 C 0.36738 1.06581 0.01075
 C1609 C 0.35399 1.03686 0.01778
 C1610 C 0.32437 1.05160 0.01291
 H1611 H 0.36069 1.12749 -0.04728
 H1612 H 0.40819 1.10358 -0.03863
 H1613 H 0.35779 1.03021 0.04102
 H1614 H 0.35902 1.01972 0.00110
 H1615 H 0.31112 1.05319 0.03342
 H1616 H 0.31240 1.04302 -0.00651
 C1617 C 0.02531 1.13464 1.10604
 C1618 C 0.01637 1.16232 1.09562
 C1619 C -0.00168 1.16184 1.07006
 C1620 C -0.00868 1.13518 1.05587
 C1621 C 0.00085 1.10788 1.06738
 C1622 C 0.01679 1.10895 1.09340
 C1623 C 0.03327 1.09020 1.11460
 C1624 C 0.04267 1.11903 1.12928
 H1625 H -0.00893 1.18203 1.05963
 H1626 H -0.02102 1.13602 1.03553
 H1627 H 0.05165 1.07813 1.10403
 H1628 H 0.01851 1.07663 1.12847
 H1629 H 0.06666 1.12285 1.12739
 H1630 H 0.03322 1.12221 1.15161
 C1631 C 0.51970 0.63088 0.61425
 C1632 C 0.51528 0.65819 0.60025
 C1633 C 0.49930 0.65830 0.57368
 C1634 C 0.49156 0.63194 0.56000
 C1635 C 0.49914 0.60472 0.57274
 C1636 C 0.51125 0.60478 0.60099
 C1637 C 0.53687 0.58800 0.61282
 C1638 C 0.54662 0.61650 0.62691
 H1639 H 0.49443 0.67875 0.56239
 H1640 H 0.48127 0.63287 0.53854
 H1641 H 0.55195 0.58004 0.59523
 H1642 H 0.53020 0.57105 0.62911
 H1643 H 0.56744 0.62444 0.61709
 H1644 H 0.54613 0.61575 0.65136
 C1645 C 0.00225 0.65309 0.42188
 C1646 C -0.01670 0.65552 0.39783
 C1647 C -0.02663 0.62916 0.38502
 C1648 C -0.02080 0.60179 0.39868
 C1649 C -0.00562 0.60058 0.42567
 C1650 C 0.00721 0.62647 0.43574
 C1651 C 0.00794 0.64033 0.46550
 C1652 C 0.00261 0.66962 0.45018
 H1653 H -0.04013 0.62980 0.36544
 H1654 H -0.03031 0.58210 0.38957
 H1655 H 0.02998 0.63857 0.47584
 H1656 H -0.01071 0.63373 0.47981
 H1657 H 0.02163 0.68467 0.45159
 H1658 H -0.01903 0.67977 0.45556
 C1659 C 0.50370 1.15441 -0.08323
 C1660 C 0.48056 1.15883 -0.10331
 C1661 C 0.46494 1.13335 -0.11180
 C1662 C 0.47037 1.10591 -0.09812
 C1663 C 0.49092 1.10344 -0.07515
 C1664 C 0.50832 1.12772 -0.06925
 C1665 C 0.51639 1.14164 -0.04079
 C1666 C 0.51136 1.17103 -0.05592
 H1667 H 0.44827 1.13436 -0.12868
 H1668 H 0.45710 1.08722 -0.10407
 H1669 H 0.53974 1.13749 -0.03493
 H1670 H 0.50029 1.13732 -0.02293
 H1671 H 0.53189 1.18381 -0.05849
 H1672 H 0.49239 1.18361 -0.04684
 C1673 C 0.49800 0.35270 -0.09695
 C1674 C 0.52242 0.33480 -0.09098
 C1675 C 0.54107 0.34472 -0.06824
 C1676 C 0.53490 0.37102 -0.05301
 C1677 C 0.51130 0.38962 -0.06134
 C1678 C 0.49348 0.37930 -0.08380
 C1679 C 0.46772 0.38686 -0.10245
 C1680 C 0.47306 0.35707 -0.11774
 H1681 H 0.55970 0.33157 -0.06114
 H1682 H 0.54866 0.37670 -0.03461
 H1683 H 0.47192 0.40610 -0.11692
 H1684 H 0.44700 0.38785 -0.08953
 H1685 H 0.48059 0.35927 -0.14092
 H1686 H 0.45515 0.34107 -0.11402
 C1687 C -0.00072 -0.15949 0.42706
 C1688 C 0.01395 -0.16088 0.40006
 C1689 C 0.02109 -0.13406 0.38620
 C1690 C 0.01645 -0.10709 0.40088
 C1691 C 0.00541 -0.10669 0.42992
 C1692 C -0.00445 -0.13322 0.44180
 C1693 C 0.00074 -0.14730 0.47110
 C1694 C 0.00469 -0.17621 0.45485
 H1695 H 0.03119 -0.13402 0.36461
 H1696 H 0.02341 -0.08691 0.39040
 H1697 H -0.01919 -0.14670 0.48524
 H1698 H 0.02123 -0.13973 0.48183
 H1699 H -0.01303 -0.19220 0.45953
 H1700 H 0.02739 -0.18531 0.45618
 C1701 C 0.50633 -0.15638 0.57508
 C1702 C 0.49072 -0.15703 0.60158
 C1703 C 0.48397 -0.12987 0.61500
 C1704 C 0.48975 -0.10319 0.60022
 C1705 C 0.50169 -0.10336 0.57154
 C1706 C 0.51127 -0.13034 0.56024
 C1707 C 0.50679 -0.14432 0.53090
 C1708 C 0.50147 -0.17296 0.54726
 H1709 H 0.47310 -0.12926 0.63620
 H1710 H 0.48279 -0.08271 0.61023
 H1711 H 0.52723 -0.14467 0.51750
 H1712 H 0.48693 -0.13595 0.51930
 H1713 H 0.51890 -0.18976 0.54338
 H1714 H 0.47860 -0.18102 0.54519
 C1715 C 0.00798 0.34665 1.07908
 C1716 C -0.01325 0.34441 1.10151
 C1717 C -0.02630 0.37117 1.11108
 C1718 C -0.02035 0.39796 1.09654
 C1719 C -0.00200 0.39854 1.07156
 C1720 C 0.01291 0.37273 1.06419
 C1721 C 0.01665 0.35780 1.03526
 C1722 C 0.01148 0.32911 1.05144
 H1723 H -0.04138 0.37167 1.12949
 H1724 H -0.03173 0.41776 1.10350
 H1725 H 0.03934 0.35985 1.02651
 H1726 H -0.00119 0.36320 1.01944
 H1727 H 0.03128 0.31467 1.05196
 H1728 H -0.00913 0.31803 1.04483
 C1729 C 0.79840 0.33151 0.09846
 C1730 C 0.78045 0.35498 0.08952
 C1731 C 0.75690 0.36332 0.10809
 C1732 C 0.75119 0.34775 0.13429
 C1733 C 0.76747 0.32224 0.14119
 C1734 C 0.79127 0.31484 0.12307
 C1735 C 0.79720 0.28658 0.10728
 C1736 C 0.80619 0.30481 0.08092
 H1737 H 0.74287 0.38177 0.10228
 H1738 H 0.73311 0.35468 0.14821
 H1739 H 0.77687 0.27382 0.10343
 H1740 H 0.81557 0.27352 0.11669
 H1741 H 0.79173 0.30175 0.06149
 H1742 H 0.83011 0.30354 0.07612
 C1743 C 0.30253 0.83859 0.60427
 C1744 C 0.28075 0.85567 0.59078
 C1745 C 0.25442 0.86045 0.60666
 C1746 C 0.24906 0.84520 0.63322
 C1747 C 0.26966 0.82447 0.64382
 C1748 C 0.29704 0.82318 0.62990
 C1749 C 0.31566 0.79779 0.62038
 C1750 C 0.32163 0.81474 0.59214
 H1751 H 0.23751 0.87487 0.59795
 H1752 H 0.22821 0.84819 0.64432
 H1753 H 0.30293 0.77739 0.61684
 H1754 H 0.33548 0.79530 0.63430
 H1755 H 0.31213 0.80434 0.57225
 H1756 H 0.34486 0.82170 0.58992
 C1757 C 0.74568 0.63804 0.61134
 C1758 C 0.72216 0.64498 0.59293
 C1759 C 0.70445 0.66913 0.60147
 C1760 C 0.71152 0.68583 0.62664
 C1761 C 0.73625 0.67857 0.64421
 C1762 C 0.75209 0.65371 0.63591
 C1763 C 0.77927 0.63652 0.64223
 C1764 C 0.77203 0.61869 0.61441
 H1765 H 0.68586 0.67580 0.58812
 H1766 H 0.69763 0.70443 0.63227
 H1767 H 0.77759 0.62365 0.66298
 H1768 H 0.79936 0.65001 0.63991
 H1769 H 0.76610 0.59551 0.61908
 H1770 H 0.78809 0.62188 0.59627
 C1771 C 0.20143 0.16505 0.10318
 C1772 C 0.22028 0.14359 0.09175
 C1773 C 0.24547 0.13604 0.10834
 C1774 C 0.25303 0.15232 0.13354
 C1775 C 0.23602 0.17692 0.14185
 C1776 C 0.20926 0.18147 0.12739
 C1777 C 0.19542 0.20872 0.11516
 C1778 C 0.18678 0.19061 0.08854
 H1779 H 0.25994 0.11850 0.10110
 H1780 H 0.27288 0.14671 0.14545
 H1781 H 0.21168 0.22607 0.10998
 H1782 H 0.17628 0.21605 0.12847
 H1783 H 0.19805 0.19739 0.06791
 H1784 H 0.16267 0.18758 0.08660
 C1785 C 0.24879 0.17247 0.91247
 C1786 C 0.26499 0.14628 0.91358
 C1787 C 0.27231 0.13269 0.88666
 C1788 C 0.26631 0.14703 0.85970
 C1789 C 0.25362 0.17544 0.85944
 C1790 C 0.24372 0.18693 0.88619
 C1791 C 0.24754 0.21643 0.89993
 C1792 C 0.25296 0.20045 0.92887
 H1793 H 0.28347 0.11160 0.88650
 H1794 H 0.27351 0.13691 0.83936
 H1795 H 0.22686 0.22956 0.89983
 H1796 H 0.26726 0.22813 0.89169
 H1797 H 0.23532 0.20426 0.94539
 H1798 H 0.27571 0.20289 0.93729
 C1799 C 0.75152 0.67672 0.41615
 C1800 C 0.76532 0.64917 0.41599
 C1801 C 0.76830 0.63477 0.38874
 C1802 C 0.76055 0.64932 0.36234
 C1803 C 0.75036 0.67872 0.36277
 C1804 C 0.74482 0.69136 0.39027
 C1805 C 0.75305 0.72045 0.40280
 C1806 C 0.76024 0.70433 0.43128
 H1807 H 0.77731 0.61269 0.38781
 H1808 H 0.76449 0.63833 0.34161
 H1809 H 0.73384 0.73554 0.40479
 H1810 H 0.77272 0.73005 0.39206
 H1811 H 0.74508 0.71002 0.44963
 H1812 H 0.78397 0.70462 0.43696
 C1813 C 0.24897 0.82519 0.40962
 C1814 C 0.23226 0.85101 0.41152
 C1815 C 0.22354 0.86457 0.38492
 C1816 C 0.22886 0.85058 0.35767
 C1817 C 0.24226 0.82252 0.35675
 C1818 C 0.25335 0.81104 0.38309
 C1819 C 0.25058 0.78138 0.39694
 C1820 C 0.24602 0.79700 0.42613
 H1821 H 0.21184 0.88537 0.38526
 H1822 H 0.22063 0.86068 0.33767
 H1823 H 0.27146 0.76860 0.39595
 H1824 H 0.23074 0.76944 0.38956
 H1825 H 0.26438 0.79341 0.44185
 H1826 H 0.22369 0.79403 0.43553
 C1827 C 0.72723 0.36191 0.88786
 C1828 C 0.73067 0.34808 0.91527
 C1829 C 0.74495 0.32044 0.91576
 C1830 C 0.75219 0.30585 0.88950
 C1831 C 0.74603 0.31886 0.86203
 C1832 C 0.73503 0.34770 0.86185
 C1833 C 0.70945 0.36026 0.84556
 C1834 C 0.70063 0.37548 0.87394
 H1835 H 0.74937 0.30952 0.93652
 H1836 H 0.76146 0.28389 0.89069
 H1837 H 0.69372 0.34319 0.83842
 H1838 H 0.71626 0.37586 0.82810
 H1839 H 0.67967 0.36699 0.88300
 H1840 H 0.70208 0.39981 0.87259
 C1841 C 0.86611 0.38591 0.22257
 C1842 C 0.85139 0.41303 0.22420
 C1843 C 0.82308 0.41355 0.23670
 C1844 C 0.80877 0.38739 0.24394
 C1845 C 0.82262 0.36005 0.23931
 C1846 C 0.85198 0.35993 0.23011
 C1847 C 0.86610 0.34332 0.20559
 C1848 C 0.88145 0.37163 0.19719
 H1849 H 0.81158 0.43423 0.23990
 H1850 H 0.78642 0.38855 0.25206
 H1851 H 0.84991 0.33606 0.18892
 H1852 H 0.88136 0.32592 0.21368
 H1853 H 0.87424 0.38036 0.17548
 H1854 H 0.90562 0.37052 0.20036
 C1855 C 0.33825 0.89643 0.70228
 C1856 C 0.35910 0.90717 0.72185
 C1857 C 0.36616 0.88980 0.74669
 C1858 C 0.35009 0.86419 0.75311
 C1859 C 0.32606 0.85633 0.73539
 C1860 C 0.32188 0.87188 0.70907
 C1861 C 0.29473 0.88496 0.69583
 C1862 C 0.31284 0.91179 0.68821
 H1863 H 0.38303 0.89680 0.76183
 H1864 H 0.35517 0.85177 0.77285
 H1865 H 0.27730 0.88950 0.71240
 H1866 H 0.28745 0.87281 0.67609
 H1867 H 0.30591 0.93189 0.70030
 H1868 H 0.31613 0.91479 0.66414
 C1869 C 0.13920 0.88840 0.28253
 C1870 C 0.14609 0.91472 0.26810
 C1871 C 0.16867 0.91245 0.24638
 C1872 C 0.18316 0.88551 0.24063
 C1873 C 0.17486 0.85969 0.25543
 C1874 C 0.15212 0.86223 0.27563
 C1875 C 0.13590 0.84530 0.29830
 C1876 C 0.12064 0.87461 0.30593
 H1877 H 0.17673 0.93166 0.23498
 H1878 H 0.20119 0.88500 0.22507
 H1879 H 0.15058 0.83688 0.31600
 H1880 H 0.12098 0.82883 0.28848
 H1881 H 0.12613 0.88230 0.32842
 H1882 H 0.09691 0.87518 0.30031
 C1883 C 0.67996 0.41056 0.76945
 C1884 C 0.64978 0.41232 0.77293
 C1885 C 0.63397 0.38611 0.76852
 C1886 C 0.64898 0.35941 0.76186
 C1887 C 0.68007 0.35833 0.76038
 C1888 C 0.69430 0.38508 0.76356
 C1889 C 0.72376 0.39908 0.76470
 C1890 C 0.70731 0.42798 0.77154
 H1891 H 0.61026 0.38627 0.77014
 H1892 H 0.63632 0.33974 0.75857
 H1893 H 0.73482 0.39907 0.74288
 H1894 H 0.73742 0.39086 0.78324
 H1895 H 0.70894 0.44470 0.75375
 H1896 H 0.71116 0.43617 0.79421
 C1897 C 0.67657 0.59311 0.71463
 C1898 C 0.64929 0.58837 0.72771
 C1899 C 0.64061 0.60707 0.75092
 C1900 C 0.65734 0.63196 0.75804
 C1901 C 0.68356 0.63787 0.74272
 C1902 C 0.69327 0.61725 0.72198
 C1903 C 0.70308 0.62181 0.69095
 C1904 C 0.68463 0.59545 0.68283
 H1905 H 0.62057 0.60280 0.76299
 H1906 H 0.64949 0.64678 0.77496
 H1907 H 0.72702 0.61783 0.68825
 H1908 H 0.69475 0.64280 0.68140
 H1909 H 0.69796 0.57633 0.67528
 H1910 H 0.66566 0.60125 0.66853
 C1911 C 0.17765 0.09267 0.21206
 C1912 C 0.14995 0.08863 0.22442
 C1913 C 0.14106 0.10748 0.24742
 C1914 C 0.15811 0.13195 0.25499
 C1915 C 0.18477 0.13730 0.24029
 C1916 C 0.19463 0.11645 0.21983
 C1917 C 0.20524 0.12081 0.18904
 C1918 C 0.18654 0.09480 0.18047
 H1919 H 0.12058 0.10370 0.25891
 H1920 H 0.15010 0.14699 0.27165
 H1921 H 0.22919 0.11646 0.18685
 H1922 H 0.19742 0.14192 0.17936
 H1923 H 0.19970 0.07543 0.17329
 H1924 H 0.16807 0.10096 0.16567
 C1925 C 0.32344 0.08715 0.75262
 C1926 C 0.34948 0.08574 0.76878
 C1927 C 0.36321 0.11246 0.77583
 C1928 C 0.34914 0.13955 0.76961
 C1929 C 0.32087 0.14018 0.75696
 C1930 C 0.30924 0.11356 0.74735
 C1931 C 0.27963 0.10027 0.75145
 C1932 C 0.29532 0.07118 0.75707
 H1933 H 0.38422 0.11237 0.78691
 H1934 H 0.35938 0.15973 0.77662
 H1935 H 0.26663 0.10046 0.73078
 H1936 H 0.26789 0.10874 0.77119
 H1937 H 0.29150 0.05467 0.73955
 H1938 H 0.29267 0.06291 0.77997
 C1939 C 0.85909 0.60901 0.26100
 C1940 C 0.84681 0.58556 0.27653
 C1941 C 0.81919 0.58987 0.28973
 C1942 C 0.80299 0.61570 0.28425
 C1943 C 0.81437 0.63795 0.26587
 C1944 C 0.84332 0.63468 0.25601
 C1945 C 0.85625 0.63869 0.22612
 C1946 C 0.87357 0.61044 0.23153
 H1947 H 0.80958 0.57271 0.30311
 H1948 H 0.78136 0.61792 0.29391
 H1949 H 0.87033 0.65847 0.22487
 H1950 H 0.83966 0.63682 0.20832
 H1951 H 0.89760 0.61400 0.23330
 H1952 H 0.86705 0.59233 0.21665
 C1953 C 0.91324 0.25401 0.17213
 C1954 C 0.91557 0.27638 0.15096
 C1955 C 0.88930 0.29041 0.14201
 C1956 C 0.86248 0.28390 0.15604
 C1957 C 0.86124 0.26305 0.17897
 C1958 C 0.88691 0.24767 0.18590
 C1959 C 0.90141 0.24232 0.21488
 C1960 C 0.93034 0.24920 0.19976
 H1961 H 0.88948 0.30695 0.12485
 H1962 H 0.84323 0.29675 0.15055
 H1963 H 0.89972 0.21902 0.22202
 H1964 H 0.89508 0.25882 0.23178
 H1965 H 0.94529 0.22984 0.19818
 H1966 H 0.94072 0.26965 0.20787
 C1967 C 0.39678 0.75671 0.64284
 C1968 C 0.41560 0.77937 0.65058
 C1969 C 0.40665 0.79704 0.67455
 C1970 C 0.38054 0.79073 0.69026
 C1971 C 0.36251 0.76686 0.68212
 C1972 C 0.37147 0.75100 0.65757
 C1973 C 0.36464 0.72477 0.63950
 C1974 C 0.39335 0.73118 0.62275
 H1975 H 0.42028 0.81497 0.68182
 H1976 H 0.37458 0.80447 0.70879
 H1977 H 0.34455 0.72806 0.62600
 H1978 H 0.36550 0.70411 0.65258
 H1979 H 0.38986 0.73813 0.59954
 H1980 H 0.41061 0.71411 0.62616
 C1981 C 0.40966 0.24753 0.82489
 C1982 C 0.41119 0.23139 0.85105
 C1983 C 0.38454 0.22429 0.86512
 C1984 C 0.35744 0.23034 0.85122
 C1985 C 0.35675 0.24284 0.82276
 C1986 C 0.38325 0.25261 0.81083
 C1987 C 0.39673 0.24858 0.78109
 C1988 C 0.42580 0.24323 0.79663
 H1989 H 0.38469 0.21313 0.88621
 H1990 H 0.33732 0.22324 0.86169
 H1991 H 0.39633 0.26919 0.76791
 H1992 H 0.38863 0.22875 0.76953
 H1993 H 0.44205 0.26087 0.79259
 H1994 H 0.43441 0.22045 0.79403
 C1995 C 0.88999 0.70084 0.34402
 C1996 C 0.90475 0.72304 0.35896
 C1997 C 0.88978 0.75024 0.36232
 C1998 C 0.86313 0.75580 0.34731
 C1999 C 0.85154 0.73446 0.32833
 C2000 C 0.86427 0.70645 0.32900
 C2001 C 0.87185 0.68523 0.30518
 C2002 C 0.90037 0.67922 0.32156
 H2003 H 0.89927 0.76764 0.37527
 H2004 H 0.85288 0.77729 0.34886
 H2005 H 0.87517 0.69588 0.28339
 H2006 H 0.85686 0.66616 0.30538
 H2007 H 0.92018 0.68680 0.30948
 H2008 H 0.90186 0.65653 0.33057
 C2009 C 0.08571 0.75418 0.32323
 C2010 C 0.08430 0.76988 0.34956
 C2011 C 0.11102 0.77680 0.36347
 C2012 C 0.13808 0.77071 0.34941
 C2013 C 0.13868 0.75828 0.32100
 C2014 C 0.11207 0.74899 0.30908
 C2015 C 0.09874 0.75367 0.27938
 C2016 C 0.06971 0.75921 0.29503
 H2017 H 0.11095 0.78759 0.38467
 H2018 H 0.15826 0.77754 0.35982
 H2019 H 0.09889 0.73325 0.26604
 H2020 H 0.10720 0.77351 0.26795
 H2021 H 0.05320 0.74191 0.29082
 H2022 H 0.06148 0.78217 0.29268
 C2023 C 0.61133 0.29124 0.85172
 C2024 C 0.59456 0.26809 0.86280
 C2025 C 0.60706 0.23954 0.86149
 C2026 C 0.63346 0.23444 0.84584
 C2027 C 0.64718 0.25771 0.83089
 C2028 C 0.63684 0.28613 0.83603
 C2029 C 0.63060 0.31059 0.81505
 C2030 C 0.60264 0.31642 0.83237
 H2031 H 0.59582 0.22103 0.87121
 H2032 H 0.64190 0.21223 0.84372
 H2033 H 0.62639 0.30254 0.79241
 H2034 H 0.64683 0.32853 0.81690
 H2035 H 0.58231 0.31211 0.81963
 H2036 H 0.60286 0.33770 0.84429
 C2037 C 0.61221 0.73801 0.63839
 C2038 C 0.58973 0.72091 0.65036
 C2039 C 0.59505 0.70668 0.67733
 C2040 C 0.62044 0.71291 0.69355
 C2041 C 0.64121 0.73325 0.68289
 C2042 C 0.63759 0.74364 0.65411
 C2043 C 0.63992 0.77396 0.64185
 C2044 C 0.61207 0.76780 0.62454
 H2045 H 0.57878 0.69215 0.68667
 H2046 H 0.62329 0.70246 0.71481
 H2047 H 0.65962 0.77648 0.62762
 H2048 H 0.63702 0.79119 0.65893
 H2049 H 0.61579 0.76678 0.60039
 H2050 H 0.59323 0.78178 0.63153
 C2051 C 0.10817 0.24563 0.14220
 C2052 C 0.08897 0.22297 0.14918
 C2053 C 0.09705 0.20489 0.17323
 C2054 C 0.12280 0.21070 0.18963
 C2055 C 0.14133 0.23449 0.18212
 C2056 C 0.13311 0.25087 0.15759
 C2057 C 0.14081 0.27716 0.13975
 C2058 C 0.11251 0.27126 0.12226
 H2059 H 0.08308 0.18694 0.17994
 H2060 H 0.12815 0.19656 0.20810
 H2061 H 0.16124 0.27375 0.12675
 H2062 H 0.13984 0.29772 0.15286
 H2063 H 0.11658 0.26446 0.09914
 H2064 H 0.09536 0.28852 0.12527
 C2065 C -0.08527 0.99267 0.84058
 C2066 C -0.10510 1.01645 0.83740
 C2067 C -0.11292 1.03140 0.86360
 C2068 C -0.09920 1.02445 0.89062
 C2069 C -0.07665 1.00300 0.89218
 C2070 C -0.07121 0.98648 0.86694
 C2071 C -0.04310 0.97826 0.85215
 C2072 C -0.05834 0.98496 0.82318
 H2073 H -0.12948 1.04855 0.86357
 H2074 H -0.10503 1.03719 0.90988
 H2075 H -0.03756 0.95461 0.85508
 H2076 H -0.02503 0.99372 0.85701
 H2077 H -0.06137 0.96507 0.80944
 H2078 H -0.04906 1.00420 0.81137
 C2079 C 0.42308 0.50680 0.34040
 C2080 C 0.39675 0.52261 0.33908
 C2081 C 0.38460 0.53109 0.36650
 C2082 C 0.39899 0.52377 0.39334
 C2083 C 0.42609 0.50803 0.39346
 C2084 C 0.43699 0.50011 0.36599
 C2085 C 0.46264 0.48628 0.35093
 C2086 C 0.44687 0.49376 0.32189
 H2087 H 0.36396 0.54304 0.36727
 H2088 H 0.38915 0.53094 0.41382
 H2089 H 0.46434 0.46232 0.35548
 H2090 H 0.48315 0.49888 0.35414
 H2091 H 0.43966 0.47402 0.30965
 H2092 H 0.45836 0.51061 0.30850
 C2093 C 0.58613 0.00802 0.34084
 C2094 C 0.60694 -0.01491 0.33800
 C2095 C 0.61556 -0.02901 0.36454
 C2096 C 0.60170 -0.02220 0.39157
 C2097 C 0.57824 -0.00175 0.39287
 C2098 C 0.57195 0.01402 0.36722
 C2099 C 0.54341 0.02068 0.35254
 C2100 C 0.55877 0.01416 0.32357
 H2101 H 0.63285 -0.04543 0.36475
 H2102 H 0.60816 -0.03436 0.41107
 H2103 H 0.53684 0.04412 0.35495
 H2104 H 0.52608 0.00451 0.35803
 H2105 H 0.56080 0.03392 0.30930
 H2106 H 0.55032 -0.00571 0.31233
 C2107 C 0.08074 0.50332 0.83855
 C2108 C 0.10499 0.48418 0.83788
 C2109 C 0.11675 0.47526 0.86521
 C2110 C 0.10244 0.48288 0.89182
 C2111 C 0.07580 0.49916 0.89162
 C2112 C 0.06638 0.51032 0.86450
 C2113 C 0.03697 0.51014 0.85003
 C2114 C 0.05280 0.50259 0.82151
 H2115 H 0.13645 0.46182 0.86601
 H2116 H 0.11128 0.47445 0.91230
 H2117 H 0.02653 0.53230 0.84971
 H2118 H 0.02274 0.49213 0.85817
 H2119 H 0.05156 0.52046 0.80482
 H2120 H 0.04772 0.48028 0.81315
 C2121 C 0.10860 0.52805 0.63224
 C2122 C 0.09809 0.52267 0.66049
 C2123 C 0.07035 0.50877 0.66212
 C2124 C 0.05480 0.50089 0.63631
 C2125 C 0.06666 0.50626 0.60797
 C2126 C 0.09396 0.51994 0.60748
 C2127 C 0.11737 0.53095 0.58747
 C2128 C 0.13410 0.53973 0.61552
 H2129 H 0.06056 0.50408 0.68333
 H2130 H 0.03354 0.49069 0.63866
 H2131 H 0.10985 0.55003 0.57407
 H2132 H 0.12821 0.51292 0.57496
 H2133 H 0.13643 0.56386 0.61811
 H2134 H 0.15441 0.52656 0.61930
 C2135 C 0.60759 1.03081 0.13224
 C2136 C 0.59710 1.02483 0.16040
 C2137 C 0.56954 1.01051 0.16166
 C2138 C 0.55419 1.00281 0.13565
 C2139 C 0.56604 1.00879 0.10742
 C2140 C 0.59313 1.02288 0.10727
 C2141 C 0.61644 1.03454 0.08753
 C2142 C 0.63295 1.04312 0.11577
 H2143 H 0.55972 1.00536 0.18275
 H2144 H 0.53309 0.99226 0.13778
 H2145 H 0.60868 1.05372 0.07440
 H2146 H 0.62757 1.01686 0.07477
 H2147 H 0.63492 1.06724 0.11874
 H2148 H 0.65344 1.03019 0.11940
 C2149 C 0.39144 0.46994 0.13752
 C2150 C 0.40236 0.47613 0.16530
 C2151 C 0.42979 0.49066 0.16597
 C2152 C 0.44468 0.49834 0.13960
 C2153 C 0.43242 0.49211 0.11169
 C2154 C 0.40545 0.47774 0.11221
 C2155 C 0.38170 0.46576 0.09329
 C2156 C 0.36570 0.45758 0.12201
 H2157 H 0.43976 0.49608 0.18684
 H2158 H 0.46571 0.50911 0.14119
 H2159 H 0.38906 0.44620 0.08065
 H2160 H 0.37030 0.48317 0.08033
 H2161 H 0.36368 0.43351 0.12551
 H2162 H 0.34537 0.47067 0.12592
 C2163 C -0.10111 -0.03959 0.63585
 C2164 C -0.09439 -0.02631 0.66280
 C2165 C -0.06961 -0.00754 0.66293
 C2166 C -0.05501 0.00011 0.63671
 C2167 C -0.06490 -0.01026 0.60939
 C2168 C -0.08703 -0.03148 0.60990
 C2169 C -0.11453 -0.03348 0.59231
 C2170 C -0.12999 -0.04235 0.62060
 H2171 H -0.06124 0.00144 0.68322
 H2172 H -0.03655 0.01489 0.63784
 H2173 H -0.11344 -0.05145 0.57584
 H2174 H -0.12196 -0.01181 0.58358
 H2175 H -0.13782 -0.06540 0.62031
 H2176 H -0.14644 -0.02586 0.62827
 C2177 C -0.16161 0.91955 0.99728
 C2178 C -0.16339 0.89838 1.01991
 C2179 C -0.13644 0.88995 1.03317
 C2180 C -0.10997 0.90416 1.02576
 C2181 C -0.10967 0.92777 1.00551
 C2182 C -0.13577 0.93401 0.99064
 C2183 C -0.15113 0.96255 0.98513
 C2184 C -0.17952 0.94686 0.99236
 H2185 H -0.13545 0.87246 1.04930
 H2186 H -0.09008 0.89775 1.03719
 H2187 H -0.14957 0.96951 0.96171
 H2188 H -0.14543 0.97968 1.00149
 H2189 H -0.19432 0.94502 0.97304
 H2190 H -0.19025 0.95491 1.01284
 C2191 C 0.36107 0.39149 0.53054
 C2192 C 0.33336 0.40228 0.52321
 C2193 C 0.33287 0.42927 0.50747
 C2194 C 0.35921 0.44393 0.49989
 C2195 C 0.38699 0.43186 0.50741
 C2196 C 0.38638 0.40523 0.52270
 C2197 C 0.40537 0.38226 0.53651
 C2198 C 0.37673 0.36651 0.54496
 H2199 H 0.31212 0.43922 0.50117
 H2200 H 0.35770 0.46470 0.48829
 H2201 H 0.41766 0.39075 0.55575
 H2202 H 0.41879 0.37015 0.52000
 H2203 H 0.37271 0.36572 0.56908
 H2204 H 0.37350 0.34548 0.53310
 C2205 C 0.34110 0.57580 0.00195
 C2206 C 0.34071 0.60043 -0.01668
 C2207 C 0.36811 0.61199 -0.02502
 C2208 C 0.39449 0.59725 -0.01744
 C2209 C 0.39411 0.57035 -0.00166
 C2210 C 0.36690 0.56101 0.00895
 C2211 C 0.35238 0.53177 0.00754
 C2212 C 0.32404 0.54806 0.00022
 H2213 H 0.36920 0.63196 -0.03796
 H2214 H 0.41501 0.60617 -0.02533
 H2215 H 0.35183 0.52059 0.02931
 H2216 H 0.36055 0.51814 -0.01103
 H2217 H 0.30726 0.54655 0.01794
 H2218 H 0.31584 0.54361 -0.02235
 C2219 C -0.15690 0.08008 0.50467
 C2220 C -0.15877 0.10157 0.48230
 C2221 C -0.13188 0.10979 0.46905
 C2222 C -0.10535 0.09525 0.47631
 C2223 C -0.10484 0.07146 0.49637
 C2224 C -0.13092 0.06526 0.51117
 C2225 C -0.14604 0.03679 0.51624
 C2226 C -0.17455 0.05283 0.50916
 H2227 H -0.13097 0.12746 0.45314
 H2228 H -0.08549 0.10165 0.46492
 H2229 H -0.14456 0.02950 0.53957
 H2230 H -0.14003 0.01985 0.49966
 H2231 H -0.18950 0.05454 0.52846
 H2232 H -0.18507 0.04516 0.48854
 C2233 C 0.66244 0.07790 0.50000
 C2234 C 0.66261 0.10249 0.51847
 C2235 C 0.63514 0.11483 0.52608
 C2236 C 0.60879 0.10084 0.51785
 C2237 C 0.60936 0.07398 0.50218
 C2238 C 0.63673 0.06388 0.49235
 C2239 C 0.65090 0.03421 0.49400
 C2240 C 0.67916 0.04966 0.50224
 H2241 H 0.63399 0.13482 0.53888
 H2242 H 0.58815 0.11019 0.52527
 H2243 H 0.65200 0.02336 0.47214
 H2244 H 0.64196 0.02044 0.51211
 H2245 H 0.69648 0.04780 0.48507
 H2246 H 0.68658 0.04482 0.52506
 C2247 C 0.15836 0.58340 0.99182
 C2248 C 0.16003 0.60428 1.01460
 C2249 C 0.13297 0.61301 1.02744
 C2250 C 0.10647 0.59914 1.01970
 C2251 C 0.10626 0.57556 0.99959
 C2252 C 0.13248 0.56919 0.98492
 C2253 C 0.14768 0.54062 0.97931
 C2254 C 0.17612 0.55601 0.98680
 H2255 H 0.13194 0.63037 1.04360
 H2256 H 0.08650 0.60565 1.03099
 H2257 H 0.14629 0.53397 0.95584
 H2258 H 0.14175 0.52331 0.99554
 H2259 H 0.19110 0.55800 0.96758
 H2260 H 0.18660 0.54762 1.00728
 C2261 C 0.15669 0.42359 0.49217
 C2262 C 0.15812 0.39659 0.47778
 C2263 C 0.13070 0.38368 0.47124
 C2264 C 0.10380 0.39800 0.47903
 C2265 C 0.10360 0.42576 0.49332
 C2266 C 0.13108 0.43735 0.49932
 C2267 C 0.14598 0.46384 0.51100
 C2268 C 0.17503 0.44824 0.50303
 H2269 H 0.13000 0.36251 0.46049
 H2270 H 0.08333 0.38757 0.47335
 H2271 H 0.14254 0.46653 0.53507
 H2272 H 0.14153 0.48373 0.49743
 H2273 H 0.18836 0.44210 0.52259
 H2274 H 0.18723 0.45922 0.48494
 C2275 C 0.65608 0.92324 0.00058
 C2276 C 0.65725 0.89817 -0.01721
 C2277 C 0.63017 0.88588 -0.02552
 C2278 C 0.60337 0.90030 -0.01867
 C2279 C 0.60306 0.92755 -0.00371
 C2280 C 0.62994 0.93765 0.00687
 C2281 C 0.64391 0.96716 0.00501
 C2282 C 0.67264 0.95128 -0.00171
 H2283 H 0.62968 0.86557 -0.03782
 H2284 H 0.58310 0.89089 -0.02649
 H2285 H 0.64397 0.97859 0.02659
 H2286 H 0.63566 0.98048 -0.01383
 H2287 H 0.68918 0.95344 0.01609
 H2288 H 0.68100 0.95548 -0.02433
 C2289 C 0.03374 0.86596 0.89380
 C2290 C 0.02187 0.83866 0.90124
 C2291 C 0.00211 0.83931 0.92570
 C2292 C -0.00526 0.86586 0.94038
 C2293 C 0.00615 0.89307 0.93090
 C2294 C 0.02558 0.89161 0.90720
 C2295 C 0.04302 0.91024 0.88687
 C2296 C 0.05188 0.88151 0.87133
 H2297 H -0.00711 0.81931 0.93448
 H2298 H -0.02000 0.86499 0.95908
 H2299 H 0.06157 0.92111 0.89821
 H2300 H 0.02891 0.92487 0.87317
 H2301 H 0.07568 0.87635 0.87335
 H2302 H 0.04265 0.87955 0.84881
 C2303 C 0.50000 0.34127 0.42380
 C2304 C 0.51790 0.34149 0.39867
 C2305 C 0.52478 0.36914 0.38656
 C2306 C 0.51648 0.39528 0.40120
 C2307 C 0.50146 0.39439 0.42852
 C2308 C 0.49229 0.36685 0.43846
 C2309 C 0.49494 0.35242 0.46791
 C2310 C 0.50322 0.32432 0.45178
 H2311 H 0.53707 0.37058 0.36621
 H2312 H 0.52325 0.41606 0.39186
 H2313 H 0.47346 0.35110 0.47946
 H2314 H 0.51323 0.36136 0.48123
 H2315 H 0.48643 0.30688 0.45390
 H2316 H 0.52621 0.31699 0.45582
 C2317 C 0.00284 0.34082 0.58449
 C2318 C -0.02119 0.33777 0.60387
 C2319 C -0.03670 0.36402 0.61076
 C2320 C -0.02987 0.39089 0.59669
 C2321 C -0.00798 0.39225 0.57468
 C2322 C 0.00892 0.36698 0.57011
 C2323 C 0.01790 0.35191 0.54241
 C2324 C 0.01132 0.32316 0.55798
 H2325 H -0.05419 0.36413 0.62688
 H2326 H -0.04297 0.41018 0.60181
 H2327 H 0.04160 0.35483 0.53746
 H2328 H 0.00276 0.35650 0.52378
 H2329 H 0.03134 0.30954 0.56174
 H2330 H -0.00755 0.31122 0.54837
 C2331 C 0.49187 0.84083 0.07490
 C2332 C 0.47475 0.83919 0.10034
 C2333 C 0.46509 0.86651 0.11189
 C2334 C 0.47248 0.89349 0.09772
 C2335 C 0.48944 0.89385 0.07141
 C2336 C 0.49859 0.86649 0.06121
 C2337 C 0.51356 0.85162 0.03612
 C2338 C 0.50605 0.82253 0.05162
 H2339 H 0.45209 0.86712 0.13185
 H2340 H 0.46430 0.91387 0.10698
 H2341 H 0.53746 0.85629 0.03542
 H2342 H 0.50168 0.85479 0.01502
 H2343 H 0.52573 0.81039 0.05966
 H2344 H 0.48988 0.80914 0.03938
 C2345 C 0.50795 0.66124 0.07197
 C2346 C 0.52303 0.66282 0.09863
 C2347 C 0.53102 0.63548 0.11140
 C2348 C 0.52380 0.60852 0.09742
 C2349 C 0.50865 0.60809 0.07007
 C2350 C 0.50138 0.63549 0.05844
 C2351 C 0.48796 0.65027 0.03243
 C2352 C 0.49529 0.67945 0.04772
 H2353 H 0.54242 0.63487 0.13228
 H2354 H 0.53053 0.58814 0.10785
 H2355 H 0.46403 0.64606 0.03076
 H2356 H 0.50080 0.64640 0.01197
 H2357 H 0.47552 0.69209 0.05471
 H2358 H 0.51231 0.69238 0.03601
 C2359 C 0.03651 0.13481 0.60580
 C2360 C 0.02268 0.16153 0.59885
 C2361 C 0.00199 0.15992 0.57533
 C2362 C -0.00423 0.13310 0.56097
 C2363 C 0.00938 0.10651 0.56979
 C2364 C 0.02952 0.10880 0.59269
 C2365 C 0.04958 0.09112 0.61161
 C2366 C 0.05717 0.12022 0.62685
 H2367 H -0.00877 0.17944 0.56686
 H2368 H -0.01970 0.13330 0.54290
 H2369 H 0.06816 0.08145 0.59894
 H2370 H 0.03750 0.07558 0.62604
 H2371 H 0.08034 0.12679 0.62332
 H2372 H 0.04924 0.12149 0.64997
 C2373 C 0.50483 0.16049 0.42082
 C2374 C 0.48684 0.16107 0.39584
 C2375 C 0.47929 0.13374 0.38357
 C2376 C 0.48690 0.10719 0.39804
 C2377 C 0.50190 0.10742 0.42531
 C2378 C 0.51189 0.13457 0.43528
 C2379 C 0.50990 0.14878 0.46482
 C2380 C 0.50231 0.17726 0.44888
 H2381 H 0.46688 0.13284 0.36330
 H2382 H 0.47948 0.08670 0.38873
 H2383 H 0.53151 0.14936 0.47611
 H2384 H 0.49146 0.14027 0.47834
 H2385 H 0.51962 0.19418 0.45088
 H2386 H 0.47956 0.18521 0.45321
 C2387 C 0.00723 0.65866 0.91343
 C2388 C -0.01602 0.66170 0.89316
 C2389 C -0.03032 0.63536 0.88516
 C2390 C -0.02329 0.60835 0.89906
 C2391 C -0.00244 0.60691 0.92200
 C2392 C 0.01343 0.63234 0.92767
 C2393 C 0.02059 0.64706 0.95599
 C2394 C 0.01385 0.67597 0.94056
 H2395 H -0.04705 0.63531 0.86832
 H2396 H -0.03557 0.58900 0.89311
 H2397 H 0.04411 0.64438 0.96193
 H2398 H 0.00472 0.64191 0.97386
 H2399 H 0.03357 0.68993 0.93788
 H2400 H -0.00584 0.68751 0.94950
 C2401 C 0.25905 0.68215 0.90968
 C2402 C 0.27456 0.65562 0.91148
 C2403 C 0.28232 0.64271 0.88422
 C2404 C 0.27468 0.65657 0.85710
 C2405 C 0.25923 0.68388 0.85646
 C2406 C 0.25195 0.69549 0.88380
 C2407 C 0.23901 0.72183 0.89838
 C2408 C 0.24688 0.70671 0.92773
 H2409 H 0.29394 0.62187 0.88378
 H2410 H 0.28140 0.64614 0.83677
 H2411 H 0.21500 0.72389 0.89447
 H2412 H 0.25191 0.74199 0.89401
 H2413 H 0.22733 0.70018 0.94077
 H2414 H 0.26422 0.71827 0.94024
 C2415 C 0.78286 0.14737 0.38587
 C2416 C 0.77575 0.15896 0.41332
 C2417 C 0.76057 0.18635 0.41281
 C2418 C 0.75324 0.20052 0.38587
 C2419 C 0.76045 0.18761 0.35841
 C2420 C 0.77528 0.16068 0.36000
 C2421 C 0.78836 0.13680 0.34175
 C2422 C 0.79653 0.12157 0.37099
 H2423 H 0.75450 0.19699 0.43324
 H2424 H 0.74205 0.22158 0.38667
 H2425 H 0.80769 0.14436 0.32893
 H2426 H 0.77152 0.12487 0.32891
 H2427 H 0.82058 0.12011 0.37485
 H2428 H 0.78419 0.10101 0.37513
 C2429 C 0.22212 0.35096 0.38455
 C2430 C 0.22853 0.33937 0.41217
 C2431 C 0.24459 0.31247 0.41221
 C2432 C 0.25304 0.29851 0.38552
 C2433 C 0.24607 0.31122 0.35786
 C2434 C 0.23074 0.33791 0.35897
 C2435 C 0.21687 0.36113 0.34032
 C2436 C 0.20756 0.37610 0.36928
 H2437 H 0.25030 0.30193 0.43284
 H2438 H 0.26459 0.27766 0.38665
 H2439 H 0.19805 0.35270 0.32743
 H2440 H 0.23332 0.37376 0.32751
 H2441 H 0.18342 0.37649 0.37279
 H2442 H 0.21891 0.39720 0.37337
 C2443 C 0.71888 0.85261 0.88719
 C2444 C 0.72616 0.84151 0.91481
 C2445 C 0.74242 0.81472 0.91479
 C2446 C 0.75045 0.80056 0.88809
 C2447 C 0.74286 0.81290 0.86044
 C2448 C 0.72709 0.83934 0.86157
 C2449 C 0.71285 0.86239 0.84298
 C2450 C 0.70403 0.87759 0.87197
 H2451 H 0.74874 0.80451 0.93541
 H2452 H 0.76234 0.77989 0.88923
 H2453 H 0.69383 0.85381 0.83051
 H2454 H 0.72906 0.87495 0.82978
 H2455 H 0.67995 0.87798 0.87593
 H2456 H 0.71542 0.89874 0.87568
 C2457 C 0.77887 0.85408 0.11702
 C2458 C 0.77137 0.84281 0.08965
 C2459 C 0.75629 0.81566 0.09018
 C2460 C 0.74944 0.80136 0.11711
 C2461 C 0.75714 0.81389 0.14453
 C2462 C 0.77187 0.84062 0.14292
 C2463 C 0.78532 0.86416 0.16101
 C2464 C 0.79278 0.87955 0.13172
 H2465 H 0.74992 0.80530 0.06977
 H2466 H 0.73825 0.78050 0.11634
 H2467 H 0.80504 0.85624 0.17310
 H2468 H 0.76878 0.87622 0.17445
 H2469 H 0.81673 0.88071 0.12725
 H2470 H 0.78026 0.90031 0.12809
 C2471 C 0.24757 0.32150 0.59301
 C2472 C 0.26515 0.34657 0.59165
 C2473 C 0.27287 0.35960 0.61864
 C2474 C 0.26583 0.34581 0.64565
 C2475 C 0.25122 0.31848 0.64623
 C2476 C 0.24103 0.30772 0.61938
 C2477 C 0.24330 0.27787 0.60595
 C2478 C 0.25034 0.29306 0.57697
 H2479 H 0.28495 0.37997 0.61892
 H2480 H 0.27337 0.35570 0.66588
 H2481 H 0.22185 0.26643 0.60578
 H2482 H 0.26201 0.26473 0.61478
 H2483 H 0.23288 0.29045 0.56016
 H2484 H 0.27306 0.28871 0.56904
 C2485 C 0.74904 0.17816 0.59273
 C2486 C 0.73039 0.15391 0.59082
 C2487 C 0.72084 0.14144 0.61762
 C2488 C 0.72752 0.15490 0.64483
 C2489 C 0.74357 0.18139 0.64587
 C2490 C 0.75520 0.19164 0.61929
 C2491 C 0.75480 0.22155 0.60570
 C2492 C 0.74817 0.20672 0.57654
 H2493 H 0.70778 0.12169 0.61757
 H2494 H 0.71879 0.14537 0.66484
 H2495 H 0.77676 0.23198 0.60621
 H2496 H 0.73639 0.23550 0.61388
 H2497 H 0.76635 0.20855 0.56032
 H2498 H 0.72596 0.21211 0.56783
 C2499 C 0.24093 0.68148 0.08913
 C2500 C 0.22518 0.65543 0.08719
 C2501 C 0.21660 0.64279 0.11437
 C2502 C 0.22362 0.65655 0.14156
 C2503 C 0.23919 0.68348 0.14229
 C2504 C 0.24739 0.69474 0.11503
 C2505 C 0.26064 0.72082 0.10052
 C2506 C 0.25346 0.70577 0.07113
 H2507 H 0.20474 0.62229 0.11468
 H2508 H 0.21626 0.64643 0.16183
 H2509 H 0.28455 0.72248 0.10496
 H2510 H 0.24763 0.74122 0.10438
 H2511 H 0.27329 0.69886 0.05859
 H2512 H 0.23639 0.71759 0.05813
 C2513 C 0.18612 0.59141 0.73824
 C2514 C 0.15901 0.59003 0.72408
 C2515 C 0.14571 0.61747 0.71731
 C2516 C 0.15968 0.64433 0.72466
 C2517 C 0.18751 0.64456 0.73878
 C2518 C 0.19959 0.61707 0.74499
 C2519 C 0.22631 0.60215 0.75677
 C2520 C 0.21107 0.57306 0.74924
 H2521 H 0.12443 0.61825 0.70676
 H2522 H 0.14882 0.66479 0.71887
 H2523 H 0.22905 0.60578 0.78078
 H2524 H 0.24605 0.60644 0.74307
 H2525 H 0.20521 0.55991 0.76900
 H2526 H 0.22211 0.56065 0.73127
 C2527 C 0.68507 0.09277 0.23914
 C2528 C 0.65793 0.09171 0.22497
 C2529 C 0.64468 0.11930 0.21878
 C2530 C 0.65872 0.14598 0.22665
 C2531 C 0.68661 0.14590 0.24073
 C2532 C 0.69862 0.11826 0.24639
 C2533 C 0.72531 0.10305 0.25785
 C2534 C 0.70998 0.07416 0.24978
 H2535 H 0.62338 0.12032 0.20829
 H2536 H 0.64789 0.16656 0.22126
 H2537 H 0.72811 0.10621 0.28192
 H2538 H 0.74505 0.10754 0.24420
 H2539 H 0.70409 0.06065 0.26929
 H2540 H 0.72098 0.06205 0.23158
 C2541 C 0.82193 0.08930 0.74844
 C2542 C 0.84651 0.08749 0.76686
 C2543 C 0.85959 0.11414 0.77518
 C2544 C 0.84621 0.14133 0.76790
 C2545 C 0.81921 0.14242 0.75251
 C2546 C 0.80846 0.11587 0.74175
 C2547 C 0.77852 0.10281 0.74300
 C2548 C 0.79337 0.07361 0.75019
 H2549 H 0.87963 0.11399 0.78794
 H2550 H 0.85606 0.16129 0.77597
 H2551 H 0.76758 0.10302 0.72116
 H2552 H 0.76503 0.11155 0.76148
 H2553 H 0.79108 0.05707 0.73243
 H2554 H 0.78846 0.06547 0.77276
 C2555 C 0.35309 0.61651 0.27526
 C2556 C 0.34105 0.58927 0.26896
 C2557 C 0.31397 0.58995 0.25358
 C2558 C 0.30013 0.61691 0.24589
 C2559 C 0.31303 0.64417 0.25308
 C2560 C 0.34004 0.64244 0.26745
 C2561 C 0.36317 0.66035 0.28175
 C2562 C 0.37816 0.63103 0.29007
 H2563 H 0.30308 0.56967 0.24802
 H2564 H 0.27909 0.61628 0.23490
 H2565 H 0.35469 0.67255 0.30116
 H2566 H 0.37580 0.67358 0.26559
 H2567 H 0.37852 0.62684 0.31417
 H2568 H 0.39928 0.62706 0.27839
 C2569 C 0.31905 0.40764 0.25012
 C2570 C 0.34459 0.40909 0.23292
 C2571 C 0.35836 0.38225 0.22556
 C2572 C 0.34490 0.35526 0.23240
 C2573 C 0.31719 0.35445 0.24654
 C2574 C 0.30560 0.38117 0.25653
 C2575 C 0.27559 0.39425 0.25352
 C2576 C 0.29036 0.42330 0.24659
 H2577 H 0.37910 0.38206 0.21390
 H2578 H 0.35550 0.33517 0.22513
 H2579 H 0.26346 0.39442 0.27477
 H2580 H 0.26328 0.38517 0.23455
 H2581 H 0.28680 0.44016 0.26391
 H2582 H 0.28659 0.43106 0.22367
 C2583 C 0.85276 0.88312 0.72077
 C2584 C 0.84041 0.91073 0.72554
 C2585 C 0.81248 0.91094 0.73953
 C2586 C 0.79862 0.88441 0.74818
 C2587 C 0.81243 0.85679 0.74351
 C2588 C 0.83976 0.85774 0.72959
 C2589 C 0.86485 0.83911 0.71947
 C2590 C 0.87972 0.86791 0.70999
 H2591 H 0.80132 0.93158 0.74383
 H2592 H 0.77714 0.88563 0.75836
 H2593 H 0.85886 0.82485 0.70066
 H2594 H 0.87614 0.82780 0.73804
 H2595 H 0.88252 0.87005 0.68578
 H2596 H 0.89933 0.87335 0.72335
 C2597 C 0.64657 0.88799 0.27710
 C2598 C 0.65867 0.91493 0.26951
 C2599 C 0.68538 0.91353 0.25338
 C2600 C 0.69874 0.88617 0.24613
 C2601 C 0.68560 0.85926 0.25436
 C2602 C 0.65905 0.86174 0.26956
 C2603 C 0.63581 0.84439 0.28457
 C2604 C 0.62149 0.87408 0.29266
 H2605 H 0.69624 0.93356 0.24676
 H2606 H 0.71950 0.88622 0.23449
 H2607 H 0.64439 0.83209 0.30394
 H2608 H 0.62270 0.83128 0.26883
 H2609 H 0.62160 0.87860 0.31668
 H2610 H 0.60026 0.87829 0.28133
 C2611 C 0.17734 0.40831 0.74852
 C2612 C 0.15380 0.41094 0.76825
 C2613 C 0.14139 0.38457 0.77870
 C2614 C 0.15448 0.35707 0.77193
 C2615 C 0.18051 0.35538 0.75491
 C2616 C 0.19047 0.38152 0.74228
 C2617 C 0.22037 0.39466 0.74089
 C2618 C 0.20588 0.42410 0.74760
 H2619 H 0.12211 0.38517 0.79266
 H2620 H 0.14524 0.33740 0.78152
 H2621 H 0.22995 0.39353 0.71840
 H2622 H 0.23501 0.38677 0.75885
 H2623 H 0.20703 0.43987 0.72891
 H2624 H 0.21214 0.43320 0.76936
 C2625 C 0.11596 0.78206 0.85106
 C2626 C 0.08865 0.77580 0.83910
 C2627 C 0.08920 0.76138 0.81141
 C2628 C 0.11613 0.75369 0.79744
 C2629 C 0.14345 0.75978 0.81090
 C2630 C 0.14176 0.77415 0.83796
 C2631 C 0.15983 0.78549 0.86266
 C2632 C 0.13061 0.79401 0.87764
 H2633 H 0.06884 0.75600 0.80051
 H2634 H 0.11545 0.74300 0.77621
 H2635 H 0.17321 0.80470 0.85601
 H2636 H 0.17199 0.76765 0.87429
 H2637 H 0.12730 0.81812 0.87986
 H2638 H 0.12581 0.78086 0.89770
 C2639 C 0.59224 0.26098 0.31657
 C2640 C 0.59027 0.27640 0.34302
 C2641 C 0.61738 0.28449 0.35571
 C2642 C 0.64451 0.27703 0.34184
 C2643 C 0.64532 0.26147 0.31472
 C2644 C 0.61812 0.25413 0.30317
 C2645 C 0.60368 0.24045 0.27733
 C2646 C 0.57435 0.24806 0.29249
 H2647 H 0.61771 0.29612 0.37644
 H2648 H 0.66471 0.28383 0.35219
 H2649 H 0.60824 0.21646 0.27595
 H2650 H 0.60733 0.25306 0.25671
 H2651 H 0.56201 0.22834 0.29966
 H2652 H 0.56124 0.26497 0.28053
 C2653 C 0.59017 0.75250 0.17718
 C2654 C 0.58920 0.73396 0.15261
 C2655 C 0.61638 0.72547 0.14019
 C2656 C 0.64308 0.73262 0.15417
 C2657 C 0.64327 0.74818 0.18112
 C2658 C 0.61630 0.75917 0.19117
 C2659 C 0.60234 0.75820 0.22092
 C2660 C 0.57368 0.75104 0.20554
 H2661 H 0.61704 0.71262 0.12019
 H2662 H 0.66337 0.72439 0.14475
 H2663 H 0.60206 0.78008 0.23171
 H2664 H 0.61081 0.73981 0.23474
 H2665 H 0.55695 0.76886 0.20738
 H2666 H 0.56557 0.72859 0.21051
 C2667 C 0.08976 0.24715 0.68000
 C2668 C 0.08890 0.22926 0.65497
 C2669 C 0.11603 0.22184 0.64183
 C2670 C 0.14276 0.22954 0.65542
 C2671 C 0.14300 0.24457 0.68266
 C2672 C 0.11591 0.25433 0.69360
 C2673 C 0.10267 0.25198 0.72360
 C2674 C 0.07395 0.24426 0.70862
 H2675 H 0.11663 0.20960 0.62144
 H2676 H 0.16312 0.22225 0.64538
 H2677 H 0.10185 0.27351 0.73505
 H2678 H 0.11209 0.23351 0.73669
 H2679 H 0.05665 0.26141 0.71133
 H2680 H 0.06674 0.22139 0.71306
 C2681 C 0.90729 0.24724 0.67628
 C2682 C 0.90868 0.26717 0.65275
 C2683 C 0.88167 0.27720 0.64109
 C2684 C 0.85481 0.26987 0.65493
 C2685 C 0.85440 0.25264 0.68094
 C2686 C 0.88113 0.24042 0.69011
 C2687 C 0.89532 0.23904 0.71971
 C2688 C 0.92408 0.24637 0.70444
 H2689 H 0.88129 0.29128 0.62186
 H2690 H 0.83465 0.27917 0.64626
 H2691 H 0.89505 0.21651 0.72919
 H2692 H 0.88754 0.25673 0.73470
 H2693 H 0.94029 0.22799 0.70502
 H2694 H 0.93287 0.26821 0.71061
 C2695 C 0.40503 0.74776 0.17529
 C2696 C 0.40654 0.76696 0.15115
 C2697 C 0.37963 0.77620 0.13870
 C2698 C 0.35266 0.76906 0.15234
 C2699 C 0.35197 0.75283 0.17898
 C2700 C 0.37868 0.74116 0.18897
 C2701 C 0.39238 0.74094 0.21880
 C2702 C 0.42131 0.74804 0.20374
 H2703 H 0.37939 0.78964 0.11901
 H2704 H 0.33257 0.77784 0.14299
 H2705 H 0.39217 0.71873 0.22904
 H2706 H 0.38416 0.75904 0.23306
 H2707 H 0.43770 0.72986 0.20522
 H2708 H 0.42979 0.77017 0.20930
 C2709 C 0.38877 0.21990 0.35223
 C2710 C 0.41576 0.22769 0.34037
 C2711 C 0.41460 0.24343 0.31335
 C2712 C 0.38740 0.25040 0.29964
 C2713 C 0.36038 0.24223 0.31270
 C2714 C 0.36265 0.22703 0.33937
 C2715 C 0.34527 0.21257 0.36307
 C2716 C 0.37483 0.20508 0.37781
 H2717 H 0.43471 0.25014 0.30263
 H2718 H 0.38765 0.26196 0.27878
 H2719 H 0.33363 0.19282 0.35507
 H2720 H 0.33164 0.22851 0.37572
 H2721 H 0.37980 0.18115 0.37849
 H2722 H 0.37853 0.21709 0.39872
 C2723 C 0.91044 0.75076 0.82010
 C2724 C 0.91258 0.73191 0.84449
 C2725 C 0.88607 0.72330 0.85788
 C2726 C 0.85876 0.73080 0.84505
 C2727 C 0.85730 0.74679 0.81827
 C2728 C 0.88372 0.75771 0.80717
 C2729 C 0.89650 0.75698 0.77689
 C2730 C 0.92583 0.74949 0.79112
 H2731 H 0.88642 0.71022 0.87783
 H2732 H 0.83896 0.72256 0.85522
 H2733 H 0.89611 0.77898 0.76621
 H2734 H 0.88769 0.73881 0.76331
 H2735 H 0.94228 0.76723 0.78871
 H2736 H 0.93401 0.72704 0.78575
   
