data_POSCAR
  _audit_creation_date              2014-09-24
  _audit_creation_method            'ToBaCCo'
  _symmetry_space_group_name_H-M    'P1'
  _symmetry_Int_Tables_number       1
  _symmetry_cell_setting            triclinic
  loop_
  _symmetry_equiv_pos_as_xyz
 x,y,z
_cell_length_a 73.2607
_cell_length_b 73.7928
_cell_length_c 74.4764
_cell_angle_alpha 89.710100
_cell_angle_beta 89.866100
_cell_angle_gamma 89.684200
loop_
  _atom_site_label
  _atom_site_type_symbol
  _atom_site_fract_x
  _atom_site_fract_y
  _atom_site_fract_z
N1 N 0.37672 0.32942 0.33355
 N2 N 0.37707 0.34223 0.32126
 C3 C 0.39115 0.33906 0.31000
 C4 C 0.40013 0.32342 0.31561
 C5 C 0.39049 0.31773 0.33060
 H6 H 0.39456 0.34747 0.29856
 H7 H 0.39301 0.30575 0.33863
 Cu8 Cu 0.35882 0.36154 0.32110
 Cu9 Cu 0.35836 0.32834 0.35231
 Cu10 Cu 0.32483 0.36139 0.35184
 N11 N 0.33928 0.37953 0.32070
 N12 N 0.32617 0.37935 0.33276
 C13 C 0.31438 0.39291 0.32928
 C14 C 0.32032 0.40218 0.31417
 C15 C 0.33621 0.39326 0.30907
 H16 H 0.30216 0.39552 0.33701
 H17 H 0.34484 0.39643 0.29772
 N18 N 0.32583 0.34204 0.37008
 N19 N 0.33867 0.32946 0.37020
 C20 C 0.33559 0.31799 0.38394
 C21 C 0.32003 0.32357 0.39299
 C22 C 0.31421 0.33890 0.38378
 H23 H 0.34388 0.30621 0.38689
 H24 H 0.30236 0.34714 0.38677
 H25 H 0.33830 0.34149 0.33752
 H26 H 0.35239 0.35577 0.35279
 N27 N 0.37264 0.82874 -0.17272
 N28 N 0.37582 0.84439 -0.18054
 C29 C 0.39111 0.84322 -0.19045
 C30 C 0.39801 0.82572 -0.18900
 C31 C 0.38589 0.81696 -0.17743
 H32 H 0.39633 0.85426 -0.19850
 H33 H 0.38619 0.80295 -0.17319
 Cu34 Cu 0.35893 0.86439 -0.17870
 Cu35 Cu 0.35070 0.82478 -0.15822
 Cu36 Cu 0.32448 0.86318 -0.14935
 N37 N 0.33790 0.88008 -0.18136
 N38 N 0.32437 0.87993 -0.16979
 C39 C 0.31188 0.89243 -0.17482
 C40 C 0.31787 0.90073 -0.19062
 C41 C 0.33452 0.89243 -0.19422
 H42 H 0.29935 0.89496 -0.16755
 H43 H 0.34369 0.89503 -0.20531
 N44 N 0.32211 0.84038 -0.13564
 N45 N 0.33171 0.82566 -0.13929
 C46 C 0.32694 0.81248 -0.12765
 C47 C 0.31363 0.81917 -0.11611
 C48 C 0.31099 0.83698 -0.12163
 H49 H 0.33286 0.79906 -0.12757
 H50 H 0.30180 0.84687 -0.11583
 H51 H 0.33389 0.84562 -0.16775
 H52 H 0.35063 0.85099 -0.14977
 N53 N 0.87907 0.32680 -0.16517
 N54 N 0.87751 0.33933 -0.17764
 C55 C 0.89125 0.33733 -0.18956
 C56 C 0.90199 0.32271 -0.18422
 C57 C 0.89377 0.31645 -0.16863
 H58 H 0.89297 0.34556 -0.20148
 H59 H 0.89766 0.30477 -0.16071
 Cu60 Cu 0.85685 0.35598 -0.17741
 Cu61 Cu 0.86111 0.32359 -0.14628
 Cu62 Cu 0.82377 0.35278 -0.14601
 N63 N 0.83626 0.37266 -0.17706
 N64 N 0.82326 0.37139 -0.16493
 C65 C 0.81068 0.38443 -0.16810
 C66 C 0.81607 0.39446 -0.18309
 C67 C 0.83243 0.38644 -0.18830
 H68 H 0.79852 0.38633 -0.16007
 H69 H 0.84098 0.39021 -0.19952
 N70 N 0.82719 0.33301 -0.12811
 N71 N 0.84164 0.32225 -0.12824
 C72 C 0.84021 0.31009 -0.11487
 C73 C 0.82405 0.31308 -0.10575
 C74 C 0.81614 0.32785 -0.11448
 H75 H 0.85023 0.29968 -0.11206
 H76 H 0.80315 0.33412 -0.11138
 H77 H 0.83886 0.33423 -0.16026
 H78 H 0.85157 0.35022 -0.14561
 N79 N 0.87370 0.82188 0.33269
 N80 N 0.87289 0.83528 0.32104
 C81 C 0.88635 0.83314 0.30886
 C82 C 0.89618 0.81754 0.31310
 C83 C 0.88768 0.81081 0.32837
 H84 H 0.88863 0.84216 0.29762
 H85 H 0.89124 0.79869 0.33578
 Cu86 Cu 0.85404 0.85402 0.32267
 Cu87 Cu 0.85637 0.81945 0.35232
 Cu88 Cu 0.82166 0.85134 0.35482
 N89 N 0.83392 0.87144 0.32403
 N90 N 0.82126 0.87018 0.33648
 C91 C 0.80888 0.88351 0.33411
 C92 C 0.81397 0.89387 0.31931
 C93 C 0.83003 0.88570 0.31331
 H94 H 0.79708 0.88540 0.34261
 H95 H 0.83820 0.88958 0.30185
 N96 N 0.82434 0.83131 0.37220
 N97 N 0.83760 0.81919 0.37124
 C98 C 0.83566 0.80719 0.38477
 C99 C 0.82043 0.81193 0.39479
 C100 C 0.81362 0.82733 0.38638
 H101 H 0.84454 0.79567 0.38696
 H102 H 0.80172 0.83509 0.39025
 H103 H 0.83514 0.83249 0.33912
 H104 H 0.84945 0.84660 0.35433
 N105 N 0.62618 0.67487 0.33428
 N106 N 0.62742 0.66188 0.32234
 C107 C 0.61386 0.66394 0.31027
 C108 C 0.60354 0.67908 0.31487
 C109 C 0.61186 0.68561 0.33023
 H110 H 0.61176 0.65512 0.29894
 H111 H 0.60799 0.69743 0.33788
 Cu112 Cu 0.64687 0.64377 0.32365
 Cu113 Cu 0.64335 0.67717 0.35406
 Cu114 Cu 0.67740 0.64457 0.35734
 N115 N 0.66594 0.62535 0.32592
 N116 N 0.67772 0.62574 0.33918
 C117 C 0.68956 0.61186 0.33745
 C118 C 0.68504 0.60215 0.32223
 C119 C 0.66991 0.61115 0.31529
 H120 H 0.70073 0.60919 0.34654
 H121 H 0.66255 0.60786 0.30319
 N122 N 0.67488 0.66469 0.37441
 N123 N 0.66199 0.67717 0.37313
 C124 C 0.66420 0.68928 0.38640
 C125 C 0.67924 0.68423 0.39655
 C126 C 0.68563 0.66853 0.38851
 H127 H 0.65569 0.70112 0.38829
 H128 H 0.69731 0.66052 0.39255
 H129 H 0.66512 0.66436 0.34168
 H130 H 0.64972 0.64990 0.35564
 N131 N 0.62890 0.17929 -0.15931
 N132 N 0.62861 0.16659 -0.17159
 C133 C 0.61492 0.17022 -0.18318
 C134 C 0.60619 0.18607 -0.17782
 C135 C 0.61551 0.19133 -0.16258
 H136 H 0.61174 0.16207 -0.19476
 H137 H 0.61291 0.20314 -0.15444
 Cu138 Cu 0.64645 0.14685 -0.17117
 Cu139 Cu 0.64690 0.17998 -0.14030
 Cu140 Cu 0.67955 0.14601 -0.13970
 N141 N 0.66529 0.12807 -0.17088
 N142 N 0.67802 0.12782 -0.15849
 C143 C 0.68927 0.11367 -0.16137
 C144 C 0.68340 0.10439 -0.17648
 C145 C 0.66806 0.11405 -0.18212
 H146 H 0.70096 0.11061 -0.15307
 H147 H 0.65954 0.11122 -0.19358
 N148 N 0.67875 0.16567 -0.12183
 N149 N 0.66618 0.17852 -0.12208
 C150 C 0.66936 0.19015 -0.10862
 C151 C 0.68472 0.18444 -0.09936
 C152 C 0.69030 0.16883 -0.10815
 H153 H 0.66135 0.20219 -0.10605
 H154 H 0.70199 0.16044 -0.10492
 H155 H 0.66710 0.16627 -0.15444
 H156 H 0.65220 0.15237 -0.13939
 N157 N 0.12407 0.67243 -0.16984
 N158 N 0.12459 0.65945 -0.18183
 C159 C 0.11048 0.66164 -0.19320
 C160 C 0.10054 0.67682 -0.18808
 C161 C 0.10963 0.68328 -0.17314
 H162 H 0.10792 0.65304 -0.20460
 H163 H 0.10618 0.69510 -0.16529
 Cu164 Cu 0.14394 0.64128 -0.18191
 Cu165 Cu 0.14250 0.67476 -0.15129
 Cu166 Cu 0.17815 0.64376 -0.15181
 N167 N 0.16451 0.62448 -0.18231
 N168 N 0.17783 0.62552 -0.17059
 C169 C 0.19031 0.61257 -0.17414
 C170 C 0.18458 0.60281 -0.18895
 C171 C 0.16810 0.61083 -0.19373
 H172 H 0.20273 0.61058 -0.16656
 H173 H 0.15940 0.60716 -0.20480
 N174 N 0.17603 0.66318 -0.13386
 N175 N 0.16242 0.67495 -0.13362
 C176 C 0.16495 0.68659 -0.12000
 C177 C 0.18097 0.68199 -0.11119
 C178 C 0.18758 0.66704 -0.12040
 H179 H 0.15583 0.69767 -0.11682
 H180 H 0.20006 0.65966 -0.11772
 H181 H 0.16322 0.66279 -0.16616
 H182 H 0.15026 0.64776 -0.15042
 N183 N 0.13601 0.17231 0.33105
 N184 N 0.13648 0.15924 0.31915
 C185 C 0.12281 0.16183 0.30730
 C186 C 0.11323 0.17736 0.31208
 C187 C 0.12208 0.18361 0.32724
 H188 H 0.12007 0.15309 0.29604
 H189 H 0.11890 0.19568 0.33480
 Cu190 Cu 0.15515 0.14031 0.32015
 Cu191 Cu 0.15367 0.17421 0.35040
 Cu192 Cu 0.18745 0.14140 0.35222
 N193 N 0.17496 0.12254 0.32099
 N194 N 0.18728 0.12299 0.33375
 C195 C 0.19960 0.10973 0.33108
 C196 C 0.19492 0.10037 0.31571
 C197 C 0.17911 0.10890 0.30968
 H198 H 0.21129 0.10736 0.33959
 H199 H 0.17144 0.10574 0.29773
 N200 N 0.18551 0.16111 0.36972
 N201 N 0.17277 0.17377 0.36897
 C202 C 0.17574 0.18585 0.38212
 C203 C 0.19115 0.18057 0.39162
 C204 C 0.19690 0.16477 0.38336
 H205 H 0.16758 0.19789 0.38427
 H206 H 0.20872 0.15667 0.38678
 H207 H 0.17443 0.16109 0.33683
 H208 H 0.15971 0.14699 0.35188
 N209 N 0.62802 0.32159 0.66954
 N210 N 0.62711 0.33601 0.67979
 C211 C 0.61356 0.33388 0.69183
 C212 C 0.60544 0.31721 0.68898
 C213 C 0.61503 0.30981 0.67468
 H214 H 0.60992 0.34378 0.70188
 H215 H 0.61297 0.29671 0.66862
 Cu216 Cu 0.64375 0.35617 0.67667
 Cu217 Cu 0.64620 0.31908 0.65056
 Cu218 Cu 0.67988 0.35172 0.64899
 N219 N 0.66452 0.37234 0.67796
 N220 N 0.67859 0.37059 0.66714
 C221 C 0.69099 0.38334 0.67108
 C222 C 0.68439 0.39371 0.68521
 C223 C 0.66749 0.38624 0.68918
 H224 H 0.70392 0.38477 0.66424
 H225 H 0.65804 0.39042 0.69954
 N226 N 0.67867 0.33153 0.63183
 N227 N 0.66584 0.31908 0.63240
 C228 C 0.66885 0.30705 0.61918
 C229 C 0.68439 0.31211 0.60977
 C230 C 0.69019 0.32775 0.61823
 H231 H 0.66039 0.29539 0.61670
 H232 H 0.70205 0.33573 0.61492
 H233 H 0.66510 0.33392 0.66487
 H234 H 0.65235 0.34613 0.64667
 N235 N 0.62827 0.82383 1.17257
 N236 N 0.62647 0.83867 1.18212
 C237 C 0.61253 0.83670 1.19372
 C238 C 0.60500 0.81968 1.19144
 C239 C 0.61537 0.81191 1.17780
 H240 H 0.60830 0.84697 1.20317
 H241 H 0.61391 0.79846 1.17231
 Cu242 Cu 0.64269 0.85919 1.17919
 Cu243 Cu 0.64766 0.82118 1.15451
 Cu244 Cu 0.68028 0.85502 1.15394
 N245 N 0.66277 0.87615 1.18124
 N246 N 0.67748 0.87445 1.17129
 C247 C 0.68937 0.88755 1.17557
 C248 C 0.68176 0.89811 1.18903
 C249 C 0.66480 0.89040 1.19226
 H250 H 0.70274 0.88897 1.16959
 H251 H 0.65470 0.89465 1.20199
 N252 N 0.68083 0.83440 1.13739
 N253 N 0.66852 0.82141 1.13741
 C254 C 0.67294 0.80937 1.12447
 C255 C 0.68885 0.81509 1.11600
 C256 C 0.69331 0.83103 1.12458
 H257 H 0.66527 0.79726 1.12156
 H258 H 0.70475 0.83971 1.12161
 H259 H 0.66494 0.83691 1.16931
 H260 H 0.65293 0.84812 1.15005
 N261 N 0.12495 0.32557 1.16367
 N262 N 0.12523 0.33801 1.17621
 C263 C 0.11137 0.33494 1.18777
 C264 C 0.10192 0.31977 1.18209
 C265 C 0.11099 0.31426 1.16673
 H266 H 0.10862 0.34293 1.19961
 H267 H 0.10818 0.30241 1.15877
 Cu268 Cu 0.14429 0.35631 1.17656
 Cu269 Cu 0.14354 0.32372 1.14527
 Cu270 Cu 0.17891 0.35453 1.14640
 N271 N 0.16448 0.37332 1.17713
 N272 N 0.17791 0.37260 1.16542
 C273 C 0.18997 0.38576 1.16910
 C274 C 0.18381 0.39527 1.18398
 C275 C 0.16757 0.38693 1.18867
 H276 H 0.20240 0.38805 1.16162
 H277 H 0.15862 0.39050 1.19965
 N278 N 0.17727 0.33520 1.12821
 N279 N 0.16352 0.32376 1.12775
 C280 C 0.16625 0.31191 1.11437
 C281 C 0.18258 0.31587 1.10594
 C282 C 0.18918 0.33085 1.11503
 H283 H 0.15707 0.30099 1.11119
 H284 H 0.20193 0.33773 1.11257
 H285 H 0.16422 0.33542 1.16042
 H286 H 0.15127 0.35083 1.14499
 N287 N 0.12008 0.82417 0.66640
 N288 N 0.11776 0.83905 0.67576
 C289 C 0.10403 0.83673 0.68749
 C290 C 0.09721 0.81940 0.68553
 C291 C 0.10773 0.81182 0.67189
 H292 H 0.09956 0.84695 0.69689
 H293 H 0.10680 0.79821 0.66666
 Cu294 Cu 0.13338 0.85987 0.67286
 Cu295 Cu 0.13942 0.82213 0.64825
 Cu296 Cu 0.17139 0.85665 0.64809
 N297 N 0.15313 0.87688 0.67571
 N298 N 0.16807 0.87564 0.66601
 C299 C 0.17965 0.88879 0.67099
 C300 C 0.17153 0.89876 0.68465
 C301 C 0.15467 0.89074 0.68725
 H302 H 0.19314 0.89064 0.66539
 H303 H 0.14430 0.89457 0.69687
 N304 N 0.17219 0.83624 0.63108
 N305 N 0.16012 0.82303 0.63106
 C306 C 0.16439 0.81137 0.61777
 C307 C 0.17993 0.81754 0.60897
 C308 C 0.18439 0.83337 0.61786
 H309 H 0.15671 0.79931 0.61473
 H310 H 0.19561 0.84233 0.61488
 H311 H 0.15636 0.83826 0.66320
 H312 H 0.14433 0.84929 0.64385
 N313 N 0.37303 0.67809 0.66439
 N314 N 0.37426 0.66329 0.67418
 C315 C 0.38799 0.66508 0.68602
 C316 C 0.39586 0.68195 0.68347
 C317 C 0.38595 0.68979 0.66960
 H318 H 0.39188 0.65485 0.69574
 H319 H 0.38771 0.70317 0.66390
 Cu320 Cu 0.35761 0.64327 0.67078
 Cu321 Cu 0.35453 0.68130 0.64592
 Cu322 Cu 0.32111 0.64843 0.64376
 N323 N 0.33712 0.62681 0.67185
 N324 N 0.32290 0.62876 0.66129
 C325 C 0.31073 0.61568 0.66510
 C326 C 0.31768 0.60496 0.67888
 C327 C 0.33449 0.61249 0.68278
 H328 H 0.29766 0.61435 0.65857
 H329 H 0.34412 0.60802 0.69285
 N330 N 0.32193 0.66948 0.62730
 N331 N 0.33466 0.68200 0.62817
 C332 C 0.33152 0.69459 0.61539
 C333 C 0.31603 0.68982 0.60594
 C334 C 0.31034 0.67377 0.61391
 H335 H 0.33999 0.70632 0.61308
 H336 H 0.29850 0.66589 0.61038
 H337 H 0.33583 0.66563 0.65990
 H338 H 0.34852 0.65431 0.64118
 N339 N 0.37793 0.17741 1.16345
 N340 N 0.37896 0.16403 1.17511
 C341 C 0.39149 0.16794 1.18760
 C342 C 0.39890 0.18471 1.18362
 C343 C 0.38998 0.19030 1.16808
 H344 H 0.39504 0.15904 1.19864
 H345 H 0.39189 0.20285 1.16077
 Cu346 Cu 0.36422 0.14244 1.17291
 Cu347 Cu 0.36095 0.17656 1.14326
 Cu348 Cu 0.32420 0.14830 1.15197
 N349 N 0.34506 0.12457 1.17465
 N350 N 0.32932 0.12695 1.16656
 C351 C 0.31813 0.11324 1.17101
 C352 C 0.32737 0.10163 1.18258
 C353 C 0.34447 0.10930 1.18454
 H354 H 0.30411 0.11223 1.16664
 H355 H 0.35553 0.10444 1.19289
 N356 N 0.32407 0.16694 1.13292
 N357 N 0.33814 0.17742 1.12925
 C358 C 0.33403 0.18795 1.11498
 C359 C 0.31650 0.18382 1.10928
 C360 C 0.31068 0.17043 1.12106
 H361 H 0.34325 0.19771 1.10909
 H362 H 0.29775 0.16347 1.12094
 H363 H 0.34391 0.16611 1.16159
 H364 H 0.35083 0.14983 1.14369
 N365 N 0.87405 0.67029 1.17038
 N366 N 0.87202 0.65789 1.18293
 C367 C 0.88515 0.66010 1.19540
 C368 C 0.89594 0.67472 1.19035
 C369 C 0.88842 0.68074 1.17435
 H370 H 0.88652 0.65191 1.20739
 H371 H 0.89291 0.69200 1.16618
 Cu372 Cu 0.85213 0.64038 1.18168
 Cu373 Cu 0.85754 0.67288 1.15020
 Cu374 Cu 0.82136 0.64313 1.14820
 N375 N 0.83129 0.62399 1.18047
 N376 N 0.81949 0.62518 1.16726
 C377 C 0.80653 0.61255 1.16949
 C378 C 0.81025 0.60278 1.18499
 C379 C 0.82615 0.61047 1.19162
 H380 H 0.79524 0.61067 1.16040
 H381 H 0.83336 0.60664 1.20370
 N382 N 0.82551 0.66219 1.13014
 N383 N 0.83939 0.67346 1.13085
 C384 C 0.83801 0.68544 1.11723
 C385 C 0.82246 0.68162 1.10746
 C386 C 0.81493 0.66672 1.11605
 H387 H 0.84742 0.69643 1.11491
 H388 H 0.80229 0.66007 1.11273
 H389 H 0.83516 0.66205 1.16332
 H390 H 0.84930 0.64616 1.14952
 N391 N 0.87049 0.17575 0.67880
 N392 N 0.86805 0.16459 0.69239
 C393 C 0.88162 0.16668 0.70428
 C394 C 0.89332 0.17996 0.69796
 C395 C 0.88576 0.18543 0.68168
 H396 H 0.88268 0.15918 0.71673
 H397 H 0.89094 0.19563 0.67258
 Cu398 Cu 0.84737 0.14844 0.69376
 Cu399 Cu 0.85342 0.17670 0.65860
 Cu400 Cu 0.82031 0.14328 0.65797
 N401 N 0.83112 0.12793 0.69179
 N402 N 0.82055 0.12587 0.67776
 C403 C 0.81029 0.11097 0.68015
 C404 C 0.81466 0.10323 0.69663
 C405 C 0.82801 0.11442 0.70358
 H406 H 0.80023 0.10634 0.67066
 H407 H 0.83475 0.11314 0.71642
 N408 N 0.82226 0.16216 0.63929
 N409 N 0.83471 0.17502 0.63950
 C410 C 0.83185 0.18620 0.62538
 C411 C 0.81683 0.18011 0.61582
 C412 C 0.81121 0.16480 0.62511
 H413 H 0.83990 0.19810 0.62253
 H414 H 0.79969 0.15632 0.62201
 H415 H 0.83083 0.16579 0.67103
 H416 H 0.84775 0.14954 0.66120
 N417 N 0.32371 0.36959 0.66100
 N418 N 0.33530 0.36772 0.67433
 C419 C 0.33222 0.38097 0.68637
 C420 C 0.31789 0.39175 0.68029
 C421 C 0.31290 0.38403 0.66409
 H422 H 0.33974 0.38251 0.69872
 H423 H 0.30212 0.38842 0.65520
 Cu424 Cu 0.35304 0.34792 0.67475
 Cu425 Cu 0.32303 0.35302 0.64076
 Cu426 Cu 0.35522 0.31858 0.64043
 N427 N 0.37134 0.32861 0.67402
 N428 N 0.37208 0.31737 0.66043
 C429 C 0.38550 0.30521 0.66319
 C430 C 0.39373 0.30890 0.67945
 C431 C 0.38439 0.32394 0.68595
 H432 H 0.38891 0.29444 0.65399
 H433 H 0.38669 0.33075 0.69855
 N434 N 0.33705 0.32186 0.62135
 N435 N 0.32463 0.33486 0.62148
 C436 C 0.31371 0.33291 0.60708
 C437 C 0.31958 0.31794 0.59743
 C438 C 0.33441 0.31134 0.60692
 H439 H 0.30222 0.34160 0.60399
 H440 H 0.34233 0.29934 0.60388
 H441 H 0.33387 0.33096 0.65410
 H442 H 0.35026 0.34622 0.64221
 N443 N 0.32230 0.86594 0.15432
 N444 N 0.33378 0.86467 0.16779
 C445 C 0.33018 0.87812 0.17950
 C446 C 0.31561 0.88830 0.17300
 C447 C 0.31108 0.88013 0.15693
 H448 H 0.33731 0.88007 0.19203
 H449 H 0.30027 0.88404 0.14784
 Cu450 Cu 0.35175 0.84509 0.16872
 Cu451 Cu 0.32177 0.84858 0.13484
 Cu452 Cu 0.35362 0.81377 0.13591
 N453 N 0.37010 0.82585 0.16878
 N454 N 0.37070 0.81365 0.15599
 C455 C 0.38435 0.80185 0.15943
 C456 C 0.39284 0.80687 0.17526
 C457 C 0.38337 0.82221 0.18078
 H458 H 0.38780 0.79047 0.15098
 H459 H 0.38576 0.82998 0.19279
 N460 N 0.33516 0.81637 0.11673
 N461 N 0.32320 0.82978 0.11633
 C462 C 0.31221 0.82773 0.10205
 C463 C 0.31737 0.81223 0.09291
 C464 C 0.33205 0.80541 0.10265
 H465 H 0.30098 0.83669 0.09884
 H466 H 0.33973 0.79319 0.09990
 H467 H 0.33264 0.82686 0.14910
 H468 H 0.34911 0.84129 0.13635
 N469 N 0.82379 0.36821 0.17266
 N470 N 0.83687 0.36699 0.18465
 C471 C 0.83449 0.38007 0.19701
 C472 C 0.81909 0.39008 0.19252
 C473 C 0.81269 0.38212 0.17694
 H474 H 0.84329 0.38213 0.20843
 H475 H 0.80063 0.38587 0.16943
 Cu476 Cu 0.85534 0.34806 0.18315
 Cu477 Cu 0.82184 0.35141 0.15262
 Cu478 Cu 0.85498 0.31772 0.14977
 N479 N 0.87389 0.32920 0.18145
 N480 N 0.87367 0.31734 0.16836
 C481 C 0.88758 0.30555 0.17059
 C482 C 0.89708 0.31021 0.18598
 C483 C 0.88793 0.32534 0.19246
 H484 H 0.89035 0.29429 0.16176
 H485 H 0.89103 0.33285 0.20447
 N486 N 0.83494 0.32037 0.13228
 N487 N 0.82229 0.33311 0.13338
 C488 C 0.81038 0.33103 0.11979
 C489 C 0.81577 0.31627 0.10961
 C490 C 0.83142 0.30988 0.11798
 H491 H 0.79861 0.33962 0.11750
 H492 H 0.83946 0.29820 0.11418
 H493 H 0.83477 0.32984 0.16506
 H494 H 0.84928 0.34515 0.15112
 N495 N 0.81329 0.87124 0.66264
 N496 N 0.82514 0.87244 0.67578
 C497 C 0.81991 0.88588 0.68686
 C498 C 0.80389 0.89357 0.68033
 C499 C 0.80017 0.88386 0.66488
 H500 H 0.82710 0.88955 0.69893
 H501 H 0.78869 0.88568 0.65595
 Cu502 Cu 0.84604 0.85608 0.67753
 Cu503 Cu 0.81541 0.85305 0.64391
 Cu504 Cu 0.85158 0.82289 0.64707
 N505 N 0.86580 0.83838 0.67941
 N506 N 0.86790 0.82558 0.66737
 C507 C 0.88214 0.81501 0.67199
 C508 C 0.88945 0.82140 0.68788
 C509 C 0.87869 0.83632 0.69216
 H510 H 0.88665 0.80340 0.66438
 H511 H 0.87986 0.84480 0.70388
 N512 N 0.83367 0.82225 0.62748
 N513 N 0.81986 0.83371 0.62626
 C514 C 0.80971 0.82933 0.61188
 C515 C 0.81747 0.81433 0.60362
 C516 C 0.83269 0.81029 0.61393
 H517 H 0.79738 0.83638 0.60795
 H518 H 0.84215 0.79920 0.61202
 H519 H 0.82907 0.83429 0.65970
 H520 H 0.84332 0.84971 0.64552
 N521 N 0.67878 0.62649 0.66402
 N522 N 0.66528 0.62563 0.67563
 C523 C 0.66867 0.61227 0.68753
 C524 C 0.68520 0.60414 0.68318
 C525 C 0.69121 0.61361 0.66812
 H526 H 0.65971 0.60886 0.69856
 H527 H 0.70369 0.61139 0.66068
 Cu528 Cu 0.64439 0.64186 0.67428
 Cu529 Cu 0.67917 0.64437 0.64457
 Cu530 Cu 0.64487 0.67684 0.64535
 N531 N 0.62724 0.66191 0.67638
 N532 N 0.62744 0.67549 0.66494
 C533 C 0.61420 0.68737 0.66931
 C534 C 0.60512 0.68093 0.68437
 C535 C 0.61386 0.66469 0.68848
 H536 H 0.61151 0.69980 0.66204
 H537 H 0.61082 0.65554 0.69944
 N538 N 0.66370 0.67596 0.62660
 N539 N 0.67688 0.66372 0.62621
 C540 C 0.68773 0.66714 0.61194
 C541 C 0.68098 0.68226 0.60293
 C542 C 0.66575 0.68742 0.61267
 H543 H 0.69967 0.65924 0.60843
 H544 H 0.65699 0.69894 0.61008
 H545 H 0.66500 0.66302 0.65969
 H546 H 0.65162 0.64950 0.64317
 N547 N 0.68098 0.13038 0.16734
 N548 N 0.66781 0.13205 0.17924
 C549 C 0.67002 0.11934 0.19212
 C550 C 0.68539 0.10907 0.18809
 C551 C 0.69197 0.11656 0.17223
 H552 H 0.66103 0.11763 0.20351
 H553 H 0.70393 0.11240 0.16477
 Cu554 Cu 0.64902 0.15069 0.17681
 Cu555 Cu 0.68297 0.14608 0.14625
 Cu556 Cu 0.64989 0.17938 0.14175
 N557 N 0.63118 0.17027 0.17439
 N558 N 0.63159 0.18120 0.16044
 C559 C 0.61829 0.19367 0.16198
 C560 C 0.60893 0.19058 0.17784
 C561 C 0.61749 0.17552 0.18538
 H562 H 0.61579 0.20434 0.15230
 H563 H 0.61429 0.16912 0.19808
 N564 N 0.66942 0.17570 0.12414
 N565 N 0.68239 0.16336 0.12585
 C566 C 0.69417 0.16511 0.11196
 C567 C 0.68814 0.17917 0.10099
 C568 C 0.67247 0.18551 0.10922
 H569 H 0.70624 0.15685 0.11001
 H570 H 0.66421 0.19691 0.10498
 H571 H 0.67004 0.16780 0.15792
 H572 H 0.65566 0.15185 0.14471
 N573 N 0.18754 0.63689 0.15816
 N574 N 0.17363 0.63304 0.16861
 C575 C 0.17679 0.61704 0.17681
 C576 C 0.19370 0.61054 0.17125
 C577 C 0.20010 0.62360 0.15940
 H578 H 0.16762 0.61084 0.18640
 H579 H 0.21310 0.62379 0.15253
 Cu580 Cu 0.15375 0.65033 0.17157
 Cu581 Cu 0.18867 0.65941 0.14458
 Cu582 Cu 0.14676 0.68109 0.13896
 N583 N 0.13342 0.66725 0.17269
 N584 N 0.13067 0.67947 0.16006
 C585 C 0.11570 0.68930 0.16431
 C586 C 0.10876 0.68290 0.18054
 C587 C 0.12046 0.66891 0.18538
 H588 H 0.11030 0.70022 0.15615
 H589 H 0.11981 0.66071 0.19742
 N590 N 0.16791 0.68502 0.12267
 N591 N 0.18386 0.67707 0.12538
 C592 C 0.19539 0.68170 0.11213
 C593 C 0.18642 0.69315 0.10030
 C594 C 0.16900 0.69511 0.10751
 H595 H 0.20925 0.67673 0.11104
 H596 H 0.15781 0.70288 0.10190
 H597 H 0.16771 0.67571 0.15547
 H598 H 0.16137 0.65667 0.14038
 N599 N 0.18208 0.13595 0.65710
 N600 N 0.16886 0.13377 0.66885
 C601 C 0.17246 0.11908 0.67900
 C602 C 0.18893 0.11160 0.67343
 C603 C 0.19465 0.12277 0.65947
 H604 H 0.16388 0.11454 0.68993
 H605 H 0.20706 0.12159 0.65168
 Cu606 Cu 0.14887 0.15110 0.67064
 Cu607 Cu 0.18219 0.15635 0.64032
 Cu608 Cu 0.13909 0.17495 0.63366
 N609 N 0.12805 0.16748 0.66988
 N610 N 0.12427 0.17676 0.65525
 C611 C 0.10960 0.18733 0.65824
 C612 C 0.10393 0.18470 0.67579
 C613 C 0.11594 0.17191 0.68277
 H614 H 0.10377 0.19648 0.64839
 H615 H 0.11624 0.16668 0.69635
 N616 N 0.15951 0.17864 0.61696
 N617 N 0.17607 0.17210 0.61974
 C618 C 0.18729 0.17842 0.60686
 C619 C 0.17732 0.18964 0.59551
 C620 C 0.15975 0.18940 0.60234
 H621 H 0.20177 0.17559 0.60622
 H622 H 0.14807 0.19693 0.59743
 H623 H 0.16137 0.17343 0.64988
 H624 H 0.15532 0.15181 0.63848
 N625 N 0.31613 0.62897 0.33461
 N626 N 0.33097 0.62741 0.32482
 C627 C 0.32897 0.61347 0.31337
 C628 C 0.31191 0.60585 0.31624
 C629 C 0.30420 0.61612 0.32983
 H630 H 0.33917 0.60923 0.30374
 H631 H 0.29075 0.61461 0.33563
 Cu632 Cu 0.35122 0.64398 0.32801
 Cu633 Cu 0.31332 0.64758 0.35275
 Cu634 Cu 0.34609 0.68118 0.35409
 N635 N 0.36746 0.66456 0.32604
 N636 N 0.36561 0.67911 0.33602
 C637 C 0.37852 0.69120 0.33119
 C638 C 0.38894 0.68383 0.31735
 C639 C 0.38145 0.66688 0.31458
 H640 H 0.37992 0.70451 0.33702
 H641 H 0.38569 0.65691 0.30483
 N642 N 0.32501 0.68026 0.37101
 N643 N 0.31267 0.66734 0.37025
 C644 C 0.30018 0.66992 0.38320
 C645 C 0.30461 0.68528 0.39277
 C646 C 0.32054 0.69151 0.38464
 H647 H 0.28877 0.66103 0.38558
 H648 H 0.32829 0.70333 0.38834
 H649 H 0.32921 0.66625 0.33830
 H650 H 0.34078 0.65422 0.35736
 N651 N 0.31395 0.12949 0.83656
 N652 N 0.32614 0.12791 0.82368
 C653 C 0.32122 0.11430 0.81277
 C654 C 0.30509 0.10687 0.81913
 C655 C 0.30090 0.11693 0.83428
 H656 H 0.32871 0.11032 0.80090
 H657 H 0.28925 0.11525 0.84305
 Cu658 Cu 0.34716 0.14392 0.82204
 Cu659 Cu 0.31586 0.14782 0.85518
 Cu660 Cu 0.35246 0.17718 0.85224
 N661 N 0.36716 0.16117 0.82026
 N662 N 0.36913 0.17406 0.83218
 C663 C 0.38363 0.18423 0.82772
 C664 C 0.39129 0.17744 0.81209
 C665 C 0.38040 0.16275 0.80775
 H666 H 0.38799 0.19595 0.83517
 H667 H 0.38188 0.15394 0.79629
 N668 N 0.33423 0.17833 0.87161
 N669 N 0.32021 0.16725 0.87273
 C670 C 0.30999 0.17188 0.88708
 C671 C 0.31796 0.18663 0.89539
 C672 C 0.33332 0.19027 0.88517
 H673 H 0.29747 0.16525 0.89094
 H674 H 0.34310 0.20093 0.88735
 H675 H 0.32999 0.16613 0.83945
 H676 H 0.34379 0.15052 0.85395
 N677 N 0.81816 0.62494 0.83991
 N678 N 0.83302 0.62312 0.83019
 C679 C 0.83093 0.60918 0.81880
 C680 C 0.81379 0.60178 0.82156
 C681 C 0.80610 0.61218 0.83511
 H682 H 0.84113 0.60488 0.80919
 H683 H 0.79259 0.61087 0.84080
 Cu684 Cu 0.85337 0.63954 0.83295
 Cu685 Cu 0.81549 0.64396 0.85774
 Cu686 Cu 0.84853 0.67736 0.85791
 N687 N 0.86963 0.65996 0.83024
 N688 N 0.86780 0.67480 0.83976
 C689 C 0.88053 0.68682 0.83439
 C690 C 0.89083 0.67908 0.82068
 C691 C 0.88344 0.66198 0.81853
 H692 H 0.88186 0.70031 0.83979
 H693 H 0.88752 0.65176 0.80897
 N694 N 0.82775 0.67702 0.87503
 N695 N 0.81524 0.66422 0.87479
 C696 C 0.80298 0.66738 0.88785
 C697 C 0.80782 0.68298 0.89687
 C698 C 0.82369 0.68872 0.88836
 H699 H 0.79148 0.65874 0.89071
 H700 H 0.83165 0.70055 0.89156
 H701 H 0.83129 0.66197 0.84273
 H702 H 0.84290 0.65039 0.86204
 N703 N 0.82471 0.12968 0.33538
 N704 N 0.83790 0.13173 0.32356
 C705 C 0.83617 0.11920 0.31063
 C706 C 0.82106 0.10864 0.31441
 C707 C 0.81412 0.11574 0.33030
 H708 H 0.84532 0.11785 0.29932
 H709 H 0.80221 0.11124 0.33760
 Cu710 Cu 0.85612 0.15059 0.32599
 Cu711 Cu 0.82231 0.14534 0.35641
 Cu712 Cu 0.85534 0.17844 0.36134
 N713 N 0.87459 0.16913 0.32914
 N714 N 0.87422 0.17989 0.34311
 C715 C 0.88813 0.19163 0.34197
 C716 C 0.89784 0.18813 0.32638
 C717 C 0.88882 0.17368 0.31859
 H718 H 0.89082 0.20206 0.35173
 H719 H 0.89210 0.16721 0.30600
 N720 N 0.83524 0.17506 0.37845
 N721 N 0.82251 0.16263 0.37670
 C722 C 0.81049 0.16439 0.39037
 C723 C 0.81600 0.17861 0.40121
 C724 C 0.83173 0.18498 0.39312
 H725 H 0.79854 0.15605 0.39220
 H726 H 0.83982 0.19638 0.39731
 H727 H 0.83510 0.16740 0.34523
 H728 H 0.84964 0.15104 0.35809
 N729 N 0.68170 0.36549 0.34195
 N730 N 0.66864 0.36615 0.32991
 C731 C 0.67165 0.38027 0.31875
 C732 C 0.68745 0.38899 0.32409
 C733 C 0.69341 0.37914 0.33890
 H734 H 0.66299 0.38387 0.30755
 H735 H 0.70551 0.38151 0.34679
 Cu736 Cu 0.64919 0.34827 0.32969
 Cu737 Cu 0.68278 0.34683 0.36052
 Cu738 Cu 0.64915 0.31409 0.35992
 N739 N 0.63087 0.32926 0.32923
 N740 N 0.63092 0.31598 0.34104
 C741 C 0.61714 0.30461 0.33739
 C742 C 0.60788 0.31104 0.32241
 C743 C 0.61704 0.32676 0.31764
 H744 H 0.61433 0.29238 0.34491
 H745 H 0.61400 0.33567 0.30648
 N746 N 0.66874 0.31444 0.37800
 N747 N 0.68158 0.32689 0.37820
 C748 C 0.69304 0.32334 0.39191
 C749 C 0.68719 0.30787 0.40083
 C750 C 0.67170 0.30265 0.39156
 H751 H 0.70490 0.33137 0.39501
 H752 H 0.66320 0.29107 0.39441
 H753 H 0.66939 0.32738 0.34568
 H754 H 0.65516 0.34138 0.36124
 N755 N 0.67539 0.86788 0.84372
 N756 N 0.66366 0.86741 0.83041
 C757 C 0.66745 0.88095 0.81881
 C758 C 0.68235 0.89048 0.82519
 C759 C 0.68698 0.88172 0.84107
 H760 H 0.66003 0.88350 0.80653
 H761 H 0.69798 0.88509 0.85008
 Cu762 Cu 0.64469 0.84903 0.82936
 Cu763 Cu 0.67508 0.85037 0.86336
 Cu764 Cu 0.64223 0.81696 0.86145
 N765 N 0.62680 0.82960 0.82830
 N766 N 0.62596 0.81724 0.84101
 C767 C 0.61280 0.80531 0.83710
 C768 C 0.60488 0.81033 0.82098
 C769 C 0.61411 0.82588 0.81578
 H770 H 0.60931 0.79381 0.84543
 H771 H 0.61198 0.83373 0.80366
 N772 N 0.65983 0.81875 0.88110
 N773 N 0.67246 0.83138 0.88191
 C774 C 0.68282 0.82837 0.89656
 C775 C 0.67639 0.81307 0.90540
 C776 C 0.66179 0.80742 0.89515
 H777 H 0.69439 0.83653 0.90029
 H778 H 0.65347 0.79559 0.89739
 H779 H 0.66372 0.82988 0.84847
 H780 H 0.64775 0.84452 0.86168
 N781 N 0.18326 0.37327 0.83377
 N782 N 0.17079 0.37235 0.82119
 C783 C 0.17355 0.38581 0.80922
 C784 C 0.18860 0.39574 0.81458
 C785 C 0.19435 0.38732 0.83029
 H786 H 0.16541 0.38795 0.79731
 H787 H 0.20593 0.39087 0.83848
 Cu788 Cu 0.15272 0.35316 0.82145
 Cu789 Cu 0.18480 0.35559 0.85317
 Cu790 Cu 0.15276 0.32104 0.85375
 N791 N 0.13456 0.33410 0.82200
 N792 N 0.13453 0.32150 0.83454
 C793 C 0.12059 0.31006 0.83147
 C794 C 0.11137 0.31584 0.81617
 C795 C 0.12073 0.33112 0.81059
 H796 H 0.11741 0.29845 0.83980
 H797 H 0.11787 0.33937 0.79890
 N798 N 0.17235 0.32321 0.87193
 N799 N 0.18428 0.33654 0.87168
 C800 C 0.19601 0.33432 0.88536
 C801 C 0.19146 0.31878 0.89477
 C802 C 0.17628 0.31210 0.88588
 H803 H 0.20719 0.34334 0.88813
 H804 H 0.16887 0.29988 0.88910
 H805 H 0.17292 0.33414 0.83954
 H806 H 0.15740 0.34844 0.85351
 N807 N 0.18078 0.87073 0.32901
 N808 N 0.17055 0.86732 0.31499
 C809 C 0.17336 0.88004 0.30234
 C810 C 0.18616 0.89215 0.30869
 C811 C 0.19058 0.88578 0.32571
 H812 H 0.16681 0.88018 0.28936
 H813 H 0.20022 0.89157 0.33499
 Cu814 Cu 0.15478 0.84646 0.31425
 Cu815 Cu 0.18087 0.85494 0.35009
 Cu816 Cu 0.14789 0.82133 0.35140
 N817 N 0.13394 0.83074 0.31656
 N818 N 0.13119 0.82068 0.33090
 C819 C 0.11584 0.81098 0.32854
 C820 C 0.10856 0.81540 0.31186
 C821 C 0.12049 0.82798 0.30470
 H822 H 0.11031 0.80156 0.33827
 H823 H 0.11965 0.83449 0.29169
 N824 N 0.16625 0.82460 0.37058
 N825 N 0.17867 0.83749 0.37007
 C826 C 0.18958 0.83581 0.38450
 C827 C 0.18387 0.82112 0.39468
 C828 C 0.16897 0.81439 0.38539
 H829 H 0.20114 0.84442 0.38709
 H830 H 0.16096 0.80262 0.38884
 H831 H 0.17088 0.83133 0.33870
 H832 H 0.15362 0.84826 0.34671
 O833 O 0.23580 0.97694 0.24843
 O834 O 0.25801 1.01156 0.22034
 O835 O 0.26014 0.97632 0.22306
 O836 O 0.23312 1.01186 0.24516
 O837 O 0.25471 1.01478 0.26551
 O838 O 0.28180 0.97900 0.24336
 O839 O 0.27967 1.01426 0.24065
 O840 O 0.25744 0.97974 0.26876
 Cu841 Cu 0.24464 0.99386 0.23217
 Cu842 Cu 0.27060 0.99725 0.25660
 C843 C 0.24281 0.97240 0.26340
 C844 C 0.27259 1.01896 0.22578
 C845 C 0.27546 0.97142 0.22944
 C846 C 0.23928 1.01944 0.25913
 O847 O 0.24000 0.51681 0.75654
 O848 O 0.26523 0.48125 0.73210
 O849 O 0.26477 0.51670 0.73153
 O850 O 0.24037 0.48153 0.75703
 O851 O 0.21889 0.48113 0.73635
 O852 O 0.24325 0.51648 0.71089
 O853 O 0.24376 0.48110 0.71140
 O854 O 0.21847 0.51641 0.73590
 Cu855 Cu 0.25477 0.49911 0.74635
 Cu856 Cu 0.22896 0.49874 0.72155
 C857 C 0.22492 0.52272 0.75039
 C858 C 0.25873 0.47499 0.71761
 C859 C 0.25812 0.52275 0.71694
 C860 C 0.22548 0.47526 0.75105
 O861 O 0.75614 -0.01522 0.22582
 O862 O 0.77800 0.02036 0.25324
 O863 O 0.78071 -0.01492 0.25094
 O864 O 0.75591 0.02004 0.22593
 O865 O 0.73335 0.01923 0.24557
 O866 O 0.75809 -0.01713 0.27038
 O867 O 0.75556 0.01816 0.27289
 O868 O 0.73343 -0.01619 0.24528
 Cu869 Cu 0.76994 0.00273 0.23708
 Cu870 Cu 0.74288 0.00088 0.26048
 C871 C 0.74094 -0.02177 0.23097
 C872 C 0.77040 0.02533 0.26781
 C873 C 0.77370 -0.02227 0.26471
 C874 C 0.74052 0.02575 0.23135
 O875 O 0.73665 0.48120 0.73944
 O876 O 0.76102 0.51620 0.76507
 O877 O 0.76094 0.48085 0.76479
 O878 O 0.73706 0.51661 0.73934
 O879 O 0.71506 0.51669 0.75958
 O880 O 0.73890 0.48065 0.78500
 O881 O 0.73902 0.51601 0.78533
 O882 O 0.71460 0.48138 0.75965
 Cu883 Cu 0.75113 0.49872 0.75013
 Cu884 Cu 0.72469 0.49871 0.77441
 C885 C 0.72148 0.47522 0.74523
 C886 C 0.75413 0.52212 0.77960
 C887 C 0.75401 0.47451 0.77914
 C888 C 0.72199 0.52285 0.74514
 O889 O 0.23345 0.51906 0.23688
 O890 O 0.26195 0.48513 0.25951
 O891 O 0.26006 0.52019 0.25979
 O892 O 0.23617 0.48387 0.23579
 O893 O 0.25623 0.48577 0.21374
 O894 O 0.28042 0.52176 0.23798
 O895 O 0.28217 0.48642 0.23755
 O896 O 0.25368 0.52112 0.21499
 Cu897 Cu 0.24588 0.50190 0.25016
 Cu898 Cu 0.27013 0.50395 0.22383
 C899 C 0.23870 0.52607 0.22218
 C900 C 0.27685 0.47987 0.25248
 C901 C 0.27436 0.52717 0.25303
 C902 C 0.24218 0.47852 0.22068
 O903 O 0.76204 0.98025 0.75081
 O904 O 0.73506 1.01531 0.77350
 O905 O 0.73546 0.97989 0.77393
 O906 O 0.76073 1.01541 0.74944
 O907 O 0.74047 1.01437 0.72762
 O908 O 0.71500 0.97940 0.75227
 O909 O 0.71474 1.01490 0.75171
 O910 O 0.74170 0.97907 0.72907
 Cu911 Cu 0.75031 0.99779 0.76412
 Cu912 Cu 0.72591 0.99683 0.73801
 C913 C 0.75657 0.97360 0.73611
 C914 C 0.72047 1.02135 0.76646
 C915 C 0.72094 0.97348 0.76721
 C916 C 0.75488 1.02098 0.73431
 O917 O 0.74894 0.51482 0.22998
 O918 O 0.72198 0.47808 0.25115
 O919 O 0.72133 0.51343 0.25200
 O920 O 0.74764 0.47967 0.22700
 O921 O 0.76745 0.47744 0.24916
 O922 O 0.74145 0.51253 0.27397
 O923 O 0.74180 0.47712 0.27337
 O924 O 0.76902 0.51264 0.25190
 Cu925 Cu 0.73299 0.49667 0.23784
 Cu926 Cu 0.75690 0.49477 0.26431
 C927 C 0.76367 0.51996 0.23739
 C928 C 0.72740 0.47132 0.26598
 C929 C 0.72687 0.51897 0.26710
 C930 C 0.76190 0.47261 0.23373
 O931 O 0.22069 0.02105 0.74402
 O932 O 0.24359 -0.01471 0.76970
 O933 O 0.24594 0.02058 0.76869
 O934 O 0.22098 -0.01428 0.74279
 O935 O 0.24307 -0.01407 0.72263
 O936 O 0.26809 0.01938 0.74863
 O937 O 0.26563 -0.01574 0.74951
 O938 O 0.24294 0.02123 0.72403
 Cu939 Cu 0.23058 0.00324 0.75828
 Cu940 Cu 0.25712 0.00265 0.73421
 C941 C 0.22775 0.02736 0.72976
 C942 C 0.25843 -0.02150 0.76403
 C943 C 0.26147 0.02582 0.76299
 C944 C 0.22791 -0.02010 0.72819
 O945 O 0.25342 0.22658 0.98748
 O946 O 0.23189 0.25559 1.02151
 O947 O 0.22846 0.25168 0.98689
 O948 O 0.25668 0.23037 1.02212
 O949 O 0.27793 0.25103 1.01796
 O950 O 0.24974 0.27230 0.98276
 O951 O 0.25307 0.27633 1.01741
 O952 O 0.27468 0.24722 0.98323
 Cu953 Cu 0.24049 0.23899 1.00495
 Cu954 Cu 0.26600 0.26378 0.99991
 C955 C 0.26766 0.23201 0.97937
 C956 C 0.23879 0.27082 1.02540
 C957 C 0.23437 0.26559 0.97867
 C958 C 0.27205 0.23710 1.02618
 O959 O 0.23707 0.77207 0.48524
 O960 O 0.26312 0.74673 0.51982
 O961 O 0.26501 0.75018 0.48490
 O962 O 0.23682 0.77054 0.52043
 O963 O 0.21738 0.74790 0.51893
 O964 O 0.24534 0.72781 0.48256
 O965 O 0.24372 0.72413 0.51744
 O966 O 0.21743 0.74959 0.48389
 Cu967 Cu 0.25241 0.76215 0.50281
 Cu968 Cu 0.22905 0.73511 0.50053
 C969 C 0.22281 0.76501 0.47856
 C970 C 0.25777 0.73102 0.52454
 C971 C 0.25993 0.73563 0.47746
 C972 C 0.22246 0.76272 0.52597
 O973 O 0.25922 0.76464 -0.02949
 O974 O 0.23457 0.74109 0.00711
 O975 O 0.23434 0.73953 -0.02793
 O976 O 0.26087 0.76432 0.00545
 O977 O 0.24002 0.78598 0.00589
 O978 O 0.21341 0.76112 -0.02810
 O979 O 0.21361 0.76265 0.00701
 O980 O 0.23833 0.78626 -0.02909
 Cu981 Cu 0.24929 0.75022 -0.01128
 Cu982 Cu 0.22425 0.77615 -0.01111
 C983 C 0.25295 0.77959 -0.03550
 C984 C 0.21998 0.74799 0.01347
 C985 C 0.21944 0.74601 -0.03384
 C986 C 0.25498 0.77925 0.01158
 O987 O 0.26691 0.26538 0.47602
 O988 O 0.24579 0.23665 0.51015
 O989 O 0.24377 0.23887 0.47543
 O990 O 0.26716 0.26446 0.51083
 O991 O 0.24379 0.28338 0.51223
 O992 O 0.22044 0.25782 0.47697
 O993 O 0.22232 0.25542 0.51184
 O994 O 0.24367 0.28447 0.47710
 Cu995 Cu 0.25824 0.24947 0.49293
 Cu996 Cu 0.23021 0.27219 0.49467
 C997 C 0.25906 0.27975 0.47064
 C998 C 0.23053 0.24104 0.51693
 C999 C 0.22805 0.24397 0.47017
 C1000 C 0.25940 0.27826 0.51767
 O1001 O 0.74839 0.77406 0.99262
 O1002 O 0.77202 0.74445 1.02500
 O1003 O 0.77338 0.74908 0.99030
 O1004 O 0.74663 0.76907 1.02737
 O1005 O 0.72543 0.74828 1.02396
 O1006 O 0.75205 0.72842 0.98687
 O1007 O 0.75085 0.72363 1.02155
 O1008 O 0.72711 0.75331 0.98938
 Cu1009 Cu 0.76222 0.76126 1.00921
 Cu1010 Cu 0.73674 0.73632 1.00510
 C1011 C 0.73376 0.76867 0.98534
 C1012 C 0.76548 0.72901 1.02887
 C1013 C 0.76717 0.73535 0.98213
 C1014 C 0.73151 0.76208 1.03207
 O1015 O 0.76112 0.27609 0.48934
 O1016 O 0.78575 0.25216 0.52539
 O1017 O 0.78550 0.25036 0.49045
 O1018 O 0.76046 0.27692 0.52428
 O1019 O 0.73905 0.25604 0.52501
 O1020 O 0.76392 0.22964 0.49091
 O1021 O 0.76441 0.23121 0.52607
 O1022 O 0.73956 0.25536 0.48994
 Cu1023 Cu 0.77536 0.26595 0.50728
 Cu1024 Cu 0.74960 0.24096 0.50807
 C1025 C 0.74620 0.26986 0.48340
 C1026 C 0.77927 0.23767 0.53202
 C1027 C 0.77893 0.23556 0.48475
 C1028 C 0.74549 0.27095 0.53053
 O1029 O 0.76402 0.22081 0.01763
 O1030 O 0.78349 0.25057 -0.01754
 O1031 O 0.78649 0.24803 0.01737
 O1032 O 0.76246 0.22238 -0.01732
 O1033 O 0.73902 0.24116 -0.01538
 O1034 O 0.76282 0.26637 0.02026
 O1035 O 0.76016 0.26935 -0.01466
 O1036 O 0.74027 0.23923 0.01934
 Cu1037 Cu 0.77652 0.23364 -0.00019
 Cu1038 Cu 0.74824 0.25591 0.00266
 C1039 C 0.74859 0.22496 0.02435
 C1040 C 0.77508 0.26498 -0.02218
 C1041 C 0.77878 0.26142 0.02493
 C1042 C 0.74668 0.22738 -0.02239
 O1043 O 0.77342 0.75298 0.48181
 O1044 O 0.75277 0.72463 0.51701
 O1045 O 0.75199 0.72501 0.48195
 O1046 O 0.77307 0.75339 0.51683
 O1047 O 0.74876 0.77115 0.51668
 O1048 O 0.72774 0.74285 0.48213
 O1049 O 0.72845 0.74238 0.51704
 O1050 O 0.74912 0.77075 0.48170
 Cu1051 Cu 0.76526 0.73722 0.49939
 Cu1052 Cu 0.73609 0.75856 0.49941
 C1053 C 0.76481 0.76662 0.47563
 C1054 C 0.73710 0.72869 0.52312
 C1055 C 0.73624 0.72918 0.47601
 C1056 C 0.76444 0.76711 0.52277
 O1057 O 0.98670 0.25530 0.23637
 O1058 O 1.02371 0.23047 0.25956
 O1059 O 0.98817 0.22840 0.25890
 O1060 O 1.02207 0.25738 0.23677
 O1061 O 1.02099 0.27652 0.25941
 O1062 O 0.98625 0.24789 0.28119
 O1063 O 1.02176 0.24960 0.28214
 O1064 O 0.98555 0.27481 0.25869
 Cu1065 Cu 1.00537 0.24093 0.24566
 Cu1066 Cu 1.00351 0.26411 0.27264
 C1067 C 0.97980 0.26934 0.24359
 C1068 C 1.02903 0.23579 0.27488
 C1069 C 0.98120 0.23331 0.27373
 C1070 C 1.02735 0.27188 0.24422
 O1071 O 0.48017 0.24930 0.72914
 O1072 O 0.51574 0.22164 0.75123
 O1073 O 0.48022 0.22406 0.75361
 O1074 O 0.51565 0.24677 0.72658
 O1075 O 0.51833 0.26773 0.74739
 O1076 O 0.48305 0.24497 0.77445
 O1077 O 0.51844 0.24271 0.77194
 O1078 O 0.48293 0.27022 0.74999
 Cu1079 Cu 0.49766 0.23335 0.73803
 Cu1080 Cu 0.50096 0.25849 0.76304
 C1081 C 0.47538 0.26442 0.73582
 C1082 C 0.52328 0.22757 0.76536
 C1083 C 0.47550 0.23070 0.76864
 C1084 C 0.52315 0.26107 0.73240
 O1085 O 0.02255 0.24358 0.77973
 O1086 O -0.01501 0.22353 0.75358
 O1087 O 0.02048 0.22014 0.75392
 O1088 O -0.01286 0.24651 0.77991
 O1089 O -0.01148 0.26870 0.76001
 O1090 O 0.02240 0.24248 0.73423
 O1091 O -0.01304 0.24576 0.73378
 O1092 O 0.02394 0.26602 0.76010
 Cu1093 Cu 0.00358 0.23119 0.76874
 Cu1094 Cu 0.00567 0.25797 0.74504
 C1095 C 0.02964 0.25833 0.77435
 C1096 C -0.02049 0.23124 0.73924
 C1097 C 0.02727 0.22684 0.73969
 C1098 C -0.01796 0.26205 0.77442
 O1099 O 0.51990 0.26118 0.26626
 O1100 O 0.48366 0.23823 0.24088
 O1101 O 0.51887 0.23445 0.24378
 O1102 O 0.48456 0.26387 0.26462
 O1103 O 0.48708 0.28368 0.24249
 O1104 O 0.52225 0.25434 0.22184
 O1105 O 0.48693 0.25793 0.21875
 O1106 O 0.52261 0.28118 0.24433
 Cu1107 Cu 0.50141 0.24746 0.25609
 Cu1108 Cu 0.50504 0.27127 0.22963
 C1109 C 0.52749 0.27514 0.25958
 C1110 C 0.47909 0.24416 0.22546
 C1111 C 0.52659 0.23939 0.22933
 C1112 C 0.47982 0.27868 0.25721
 O1113 O 0.97546 0.74863 0.73014
 O1114 O 1.01117 0.72631 0.75698
 O1115 O 0.97560 0.72723 0.75801
 O1116 O 1.01101 0.74770 0.72922
 O1117 O 1.01178 0.77135 0.74718
 O1118 O 0.97640 0.75089 0.77595
 O1119 O 1.01204 0.74995 0.77496
 O1120 O 0.97617 0.77233 0.74804
 Cu1121 Cu 0.99319 0.73509 0.74181
 Cu1122 Cu 0.99417 0.76350 0.76333
 C1123 C 0.96965 0.76426 0.73447
 C1124 C 1.01785 0.73435 0.77047
 C1125 C 0.96989 0.73554 0.77186
 C1126 C 1.01755 0.76302 0.73337
 O1127 O 0.47904 0.75304 0.23222
 O1128 O 0.51380 0.72848 0.25894
 O1129 O 0.47803 0.73046 0.25920
 O1130 O 0.51471 0.75081 0.23182
 O1131 O 0.51614 0.77368 0.25068
 O1132 O 0.47921 0.75343 0.27796
 O1133 O 0.51482 0.75139 0.27780
 O1134 O 0.48053 0.77599 0.25099
 Cu1135 Cu 0.49624 0.73840 0.24368
 Cu1136 Cu 0.49780 0.76590 0.26622
 C1137 C 0.47380 0.76872 0.23710
 C1138 C 0.52035 0.73584 0.27289
 C1139 C 0.47223 0.73848 0.27318
 C1140 C 0.52183 0.76567 0.23664
 O1141 O 0.02032 0.74491 0.27285
 O1142 O -0.01514 0.72320 0.24586
 O1143 O 0.02050 0.72514 0.24388
 O1144 O -0.01539 0.74565 0.27268
 O1145 O -0.01606 0.76947 0.25469
 O1146 O 0.01929 0.74916 0.22619
 O1147 O -0.01626 0.74707 0.22795
 O1148 O 0.01950 0.76889 0.25507
 Cu1149 Cu 0.00269 0.73235 0.26058
 Cu1150 Cu 0.00155 0.76100 0.23920
 C1151 C 0.02605 0.76055 0.26862
 C1152 C -0.02195 0.73141 0.23243
 C1153 C 0.02608 0.73380 0.23009
 C1154 C -0.02193 0.76112 0.26844
 O1155 O 0.51739 0.75512 0.72137
 O1156 O 0.48178 0.77686 0.74924
 O1157 O 0.51704 0.77914 0.74670
 O1158 O 0.48180 0.75517 0.72168
 O1159 O 0.48289 0.73236 0.74091
 O1160 O 0.51862 0.75649 0.76609
 O1161 O 0.48322 0.75396 0.76836
 O1162 O 0.51844 0.73247 0.74078
 Cu1163 Cu 0.49931 0.76882 0.73280
 Cu1164 Cu 0.50094 0.74155 0.75596
 C1165 C 0.52408 0.74000 0.72649
 C1166 C 0.47642 0.76906 0.76358
 C1167 C 0.52395 0.77196 0.76062
 C1168 C 0.47625 0.73976 0.72688
 C1169 C 0.42490 0.29994 0.31647
 C1170 C 0.41610 0.31423 0.30731
 C1171 C 0.42244 0.31926 0.29013
 C1172 C 0.43703 0.30984 0.28210
 C1173 C 0.44539 0.29527 0.29138
 C1174 C 0.43935 0.29056 0.30859
 C1175 C 0.45952 0.28546 0.28325
 C1176 C 0.46555 0.28991 0.26587
 C1177 C 0.45745 0.30465 0.25682
 C1178 C 0.44328 0.31453 0.26487
 H1179 H 0.41587 0.33020 0.28283
 H1180 H 0.44572 0.27949 0.31592
 H1181 H 0.46571 0.27420 0.29045
 H1182 H 0.43709 0.32569 0.25754
 H1183 H 0.42067 0.29586 0.32980
 H1184 H 0.46185 0.30836 0.24341
 C1185 C 0.42281 0.82872 0.78897
 C1186 C 0.41318 0.81832 0.80180
 C1187 C 0.41883 0.80027 0.80486
 C1188 C 0.43342 0.79273 0.79514
 C1189 C 0.44252 0.80323 0.78201
 C1190 C 0.43720 0.82123 0.77915
 C1191 C 0.45668 0.79552 0.77185
 C1192 C 0.46199 0.77743 0.77473
 C1193 C 0.45319 0.76724 0.78818
 C1194 C 0.43897 0.77478 0.79822
 H1195 H 0.41195 0.79191 0.81472
 H1196 H 0.44409 0.82951 0.76918
 H1197 H 0.46351 0.80359 0.76169
 H1198 H 0.43224 0.76654 0.80831
 H1199 H 0.41915 0.84263 0.78606
 H1200 H 0.45709 0.75329 0.79075
 C1201 C -0.07666 0.32089 0.78928
 C1202 C -0.08225 0.31440 0.80621
 C1203 C -0.07306 0.29940 0.81374
 C1204 C -0.05902 0.29064 0.80434
 C1205 C -0.05373 0.29708 0.78723
 C1206 C -0.06250 0.31234 0.77991
 C1207 C -0.04000 0.28795 0.77763
 C1208 C -0.03170 0.27230 0.78485
 C1209 C -0.03696 0.26619 0.80199
 C1210 C -0.05043 0.27532 0.81168
 H1211 H -0.07690 0.29422 0.82681
 H1212 H -0.05860 0.31749 0.76681
 H1213 H -0.03610 0.29279 0.76441
 H1214 H -0.05431 0.27023 0.82481
 H1215 H -0.08334 0.33242 0.78308
 H1216 H -0.03072 0.25424 0.80791
 C1217 C -0.08046 0.81857 0.28832
 C1218 C -0.08801 0.80955 0.30325
 C1219 C -0.08042 0.79275 0.30857
 C1220 C -0.06575 0.78506 0.29904
 C1221 C -0.05847 0.79424 0.28400
 C1222 C -0.06586 0.81101 0.27881
 C1223 C -0.04402 0.78646 0.27429
 C1224 C -0.03670 0.76950 0.27931
 C1225 C -0.04393 0.76053 0.29441
 C1226 C -0.05831 0.76825 0.30419
 H1227 H -0.08595 0.78549 0.31998
 H1228 H -0.06041 0.81826 0.26732
 H1229 H -0.03861 0.79358 0.26269
 H1230 H -0.06371 0.76100 0.31571
 H1231 H -0.08579 0.83151 0.28386
 H1232 H -0.03858 0.74747 0.29858
 C1233 C 0.58126 0.67929 0.28911
 C1234 C 0.58750 0.68692 0.30525
 C1235 C 0.57844 0.70234 0.31200
 C1236 C 0.56372 0.71018 0.30269
 C1237 C 0.55775 0.70250 0.28641
 C1238 C 0.56654 0.68698 0.27981
 C1239 C 0.54328 0.71064 0.27690
 C1240 C 0.53482 0.72650 0.28339
 C1241 C 0.54079 0.73385 0.29973
 C1242 C 0.55504 0.72575 0.30931
 H1243 H 0.58284 0.70846 0.32441
 H1244 H 0.56214 0.68087 0.26736
 H1245 H 0.53888 0.70484 0.26430
 H1246 H 0.55942 0.73180 0.32180
 H1247 H 0.58779 0.66743 0.28349
 H1248 H 0.53452 0.74600 0.30509
 C1249 C 0.58503 0.21280 0.81991
 C1250 C 0.59067 0.19575 0.81349
 C1251 C 0.58144 0.18822 0.79874
 C1252 C 0.56690 0.19763 0.79057
 C1253 C 0.56148 0.21473 0.79723
 C1254 C 0.57060 0.22216 0.81190
 C1255 C 0.54712 0.22424 0.78907
 C1256 C 0.53802 0.21701 0.77417
 C1257 C 0.54341 0.19994 0.76764
 C1258 C 0.55770 0.19032 0.77579
 H1259 H 0.58548 0.17511 0.79359
 H1260 H 0.56664 0.23528 0.81714
 H1261 H 0.54317 0.23740 0.79425
 H1262 H 0.56163 0.17722 0.77047
 H1263 H 0.59176 0.21916 0.83110
 H1264 H 0.53663 0.19405 0.75617
 C1265 C 1.07574 0.67569 0.78871
 C1266 C 1.08427 0.68482 0.80292
 C1267 C 1.07730 0.70179 0.80825
 C1268 C 1.06231 0.70962 0.79937
 C1269 C 1.05406 0.70038 0.78498
 C1270 C 1.06080 0.68338 0.77984
 C1271 C 1.03934 0.70837 0.77583
 C1272 C 1.03276 0.72559 0.78079
 C1273 C 1.04093 0.73456 0.79529
 C1274 C 1.05556 0.72664 0.80451
 H1275 H 1.08362 0.70914 0.81911
 H1276 H 1.05459 0.67608 0.76886
 H1277 H 1.03320 0.70127 0.76468
 H1278 H 1.06170 0.73392 0.81553
 H1279 H 1.08056 0.66256 0.78433
 H1280 H 1.03615 0.74782 0.79941
 C1281 C 1.09216 0.18034 0.28555
 C1282 C 1.09735 0.18585 0.30285
 C1283 C 1.08740 0.19982 0.31124
 C1284 C 1.07279 0.20837 0.30243
 C1285 C 1.06783 0.20285 0.28498
 C1286 C 1.07754 0.18874 0.27671
 C1287 C 1.05337 0.21165 0.27607
 C1288 C 1.04388 0.22601 0.28437
 C1289 C 1.04889 0.23122 0.30180
 C1290 C 1.06317 0.22247 0.31075
 H1291 H 1.09095 0.20416 0.32464
 H1292 H 1.07395 0.18432 0.26333
 H1293 H 1.04967 0.20747 0.26264
 H1294 H 1.06677 0.22685 0.32415
 H1295 H 1.09954 0.16969 0.27867
 H1296 H 1.04181 0.24217 0.30856
 C1297 C 0.58450 0.31623 0.71572
 C1298 C 0.59007 0.30899 0.69914
 C1299 C 0.58087 0.29379 0.69237
 C1300 C 0.56644 0.28591 0.70202
 C1301 C 0.56106 0.29327 0.71869
 C1302 C 0.57015 0.30845 0.72540
 C1303 C 0.54677 0.28527 0.72844
 C1304 C 0.53778 0.26990 0.72178
 C1305 C 0.54317 0.26279 0.70509
 C1306 C 0.55735 0.27073 0.69530
 H1307 H 0.58480 0.28809 0.67955
 H1308 H 0.56623 0.31427 0.73818
 H1309 H 0.54279 0.29092 0.74128
 H1310 H 0.56127 0.26492 0.68252
 H1311 H 0.59134 0.32780 0.72141
 H1312 H 0.53649 0.25099 0.69962
 C1313 C 0.58302 0.82024 0.21739
 C1314 C 0.58954 0.81167 0.20176
 C1315 C 0.58112 0.79552 0.19618
 C1316 C 0.56643 0.78818 0.20599
 C1317 C 0.56006 0.79703 0.22160
 C1318 C 0.56847 0.81302 0.22717
 C1319 C 0.54543 0.78973 0.23144
 C1320 C 0.53701 0.77359 0.22596
 C1321 C 0.54344 0.76491 0.21037
 C1322 C 0.55798 0.77213 0.20049
 H1323 H 0.58583 0.78872 0.18417
 H1324 H 0.56382 0.81996 0.23914
 H1325 H 0.54070 0.79658 0.24343
 H1326 H 0.56265 0.76513 0.18857
 H1327 H 0.58920 0.83253 0.22227
 H1328 H 0.53727 0.75246 0.20582
 C1329 C 1.07690 0.29683 0.18177
 C1330 C 1.08651 0.31034 0.19101
 C1331 C 1.08170 0.31418 0.20891
 C1332 C 1.06791 0.30425 0.21759
 C1333 C 1.05878 0.29038 0.20824
 C1334 C 1.06322 0.28693 0.19030
 C1335 C 1.04548 0.28003 0.21700
 C1336 C 1.04103 0.28332 0.23505
 C1337 C 1.04988 0.29739 0.24417
 C1338 C 1.06326 0.30773 0.23553
 H1339 H 1.08893 0.32451 0.21627
 H1340 H 1.05623 0.27645 0.18289
 H1341 H 1.03864 0.26933 0.20974
 H1342 H 1.07006 0.31834 0.24292
 H1343 H 1.07995 0.29373 0.16791
 H1344 H 1.04667 0.30022 0.25808
 C1345 C 1.07590 0.81946 0.71193
 C1346 C 1.08237 0.81093 0.69626
 C1347 C 1.07452 0.79438 0.69108
 C1348 C 1.06041 0.78659 0.70133
 C1349 C 1.05407 0.79543 0.71696
 C1350 C 1.06192 0.81182 0.72213
 C1351 C 1.04002 0.78773 0.72723
 C1352 C 1.03214 0.77120 0.72219
 C1353 C 1.03852 0.76249 0.70661
 C1354 C 1.05251 0.77013 0.69626
 H1355 H 1.07923 0.78761 0.67905
 H1356 H 1.05728 0.81873 0.73412
 H1357 H 1.03531 0.79461 0.73922
 H1358 H 1.05717 0.76312 0.68434
 H1359 H 1.08170 0.83205 0.71652
 H1360 H 1.03273 0.74973 0.70242
 C1361 C 0.41734 0.68233 0.70977
 C1362 C 0.41120 0.69008 0.69356
 C1363 C 0.41969 0.70586 0.68709
 C1364 C 0.43385 0.71395 0.69674
 C1365 C 0.43981 0.70616 0.71308
 C1366 C 0.43151 0.69029 0.71944
 C1367 C 0.45384 0.71446 0.72284
 C1368 C 0.46187 0.73055 0.71649
 C1369 C 0.45586 0.73805 0.70012
 C1370 C 0.44203 0.72982 0.69033
 H1371 H 0.41537 0.71194 0.67454
 H1372 H 0.43588 0.68412 0.73196
 H1373 H 0.45832 0.70853 0.73543
 H1374 H 0.43764 0.73594 0.67780
 H1375 H 0.41106 0.67024 0.71519
 H1376 H 0.46183 0.75038 0.69486
 C1377 C 0.41800 0.18844 0.21123
 C1378 C 0.41330 0.19428 0.19381
 C1379 C 0.42260 0.20911 0.18624
 C1380 C 0.43648 0.21782 0.19584
 C1381 C 0.44112 0.21170 0.21326
 C1382 C 0.43176 0.19705 0.22084
 C1383 C 0.45505 0.22030 0.22283
 C1384 C 0.46447 0.23504 0.21526
 C1385 C 0.45971 0.24106 0.19792
 C1386 C 0.44586 0.23253 0.18830
 H1387 H 0.41926 0.21375 0.17282
 H1388 H 0.43507 0.19223 0.23421
 H1389 H 0.45852 0.21552 0.23619
 H1390 H 0.44250 0.23743 0.17497
 H1391 H 0.41100 0.17726 0.21759
 H1392 H 0.46671 0.25239 0.19176
 C1393 C -0.08057 0.67383 0.21496
 C1394 C -0.08830 0.68268 0.20001
 C1395 C -0.08089 0.69936 0.19436
 C1396 C -0.06614 0.70707 0.20346
 C1397 C -0.05856 0.69807 0.21848
 C1398 C -0.06584 0.68144 0.22409
 C1399 C -0.04393 0.70594 0.22771
 C1400 C -0.03684 0.72278 0.22218
 C1401 C -0.04444 0.73153 0.20713
 C1402 C -0.05894 0.72374 0.19784
 H1403 H -0.08665 0.70656 0.18301
 H1404 H -0.06017 0.67433 0.23558
 H1405 H -0.03826 0.69903 0.23932
 H1406 H -0.06460 0.73082 0.18634
 H1407 H -0.08581 0.66096 0.21962
 H1408 H -0.03927 0.74448 0.20258
 C1409 C -0.08318 0.17799 0.72239
 C1410 C -0.09007 0.18690 0.70705
 C1411 C -0.08119 0.20259 0.70081
 C1412 C -0.06593 0.20943 0.70993
 C1413 C -0.05938 0.20045 0.72546
 C1414 C -0.06803 0.18469 0.73148
 C1415 C -0.04441 0.20747 0.73482
 C1416 C -0.03584 0.22344 0.72893
 C1417 C -0.04232 0.23214 0.71332
 C1418 C -0.05721 0.22520 0.70391
 H1419 H -0.08625 0.20970 0.68907
 H1420 H -0.06316 0.17758 0.74332
 H1421 H -0.03958 0.20058 0.74681
 H1422 H -0.06199 0.23226 0.69201
 H1423 H -0.08943 0.16578 0.72750
 H1424 H -0.03598 0.24444 0.70843
 C1425 C 0.29651 0.42667 0.31374
 C1426 C 0.31117 0.41777 0.30522
 C1427 C 0.31665 0.42366 0.28802
 C1428 C 0.30738 0.43792 0.27936
 C1429 C 0.29247 0.44643 0.28800
 C1430 C 0.28726 0.44082 0.30522
 C1431 C 0.28284 0.46029 0.27923
 C1432 C 0.28781 0.46585 0.26183
 C1433 C 0.30286 0.45756 0.25342
 C1434 C 0.31256 0.44369 0.26211
 H1435 H 0.32787 0.41700 0.28119
 H1436 H 0.27592 0.44730 0.31207
 H1437 H 0.27132 0.46662 0.28594
 H1438 H 0.32398 0.43736 0.25527
 H1439 H 0.29207 0.42275 0.32705
 H1440 H 0.30698 0.46161 0.24002
 C1441 C 0.31699 -0.07923 0.78299
 C1442 C 0.30915 -0.08558 0.79917
 C1443 C 0.29244 -0.07790 0.80481
 C1444 C 0.28396 -0.06413 0.79472
 C1445 C 0.29213 -0.05790 0.77865
 C1446 C 0.30858 -0.06561 0.77288
 C1447 C 0.28376 -0.04403 0.76863
 C1448 C 0.26727 -0.03622 0.77448
 C1449 C 0.25921 -0.04258 0.79048
 C1450 C 0.26746 -0.05641 0.80048
 H1451 H 0.28595 -0.08242 0.81709
 H1452 H 0.31498 -0.06109 0.76053
 H1453 H 0.29011 -0.03929 0.75633
 H1454 H 0.26095 -0.06102 0.81275
 H1455 H 0.32965 -0.08473 0.77787
 H1456 H 0.24649 -0.03685 0.79531
 C1457 C 0.81473 0.41769 0.79325
 C1458 C 0.80709 0.40929 0.80858
 C1459 C 0.79031 0.41607 0.81521
 C1460 C 0.78141 0.43068 0.80665
 C1461 C 0.78932 0.43872 0.79127
 C1462 C 0.80597 0.43217 0.78474
 C1463 C 0.78041 0.45312 0.78254
 C1464 C 0.76357 0.45970 0.78890
 C1465 C 0.75585 0.45174 0.80433
 C1466 C 0.76469 0.43737 0.81312
 H1467 H 0.78400 0.41005 0.82695
 H1468 H 0.81223 0.43821 0.77296
 H1469 H 0.78658 0.45910 0.77068
 H1470 H 0.75838 0.43141 0.82491
 H1471 H 0.82753 0.41321 0.78755
 H1472 H 0.74289 0.45652 0.80953
 C1473 C 0.78785 -0.08499 0.31898
 C1474 C 0.80475 -0.09094 0.31191
 C1475 C 0.81214 -0.08139 0.29715
 C1476 C 0.80286 -0.06654 0.28957
 C1477 C 0.78586 -0.06095 0.29666
 C1478 C 0.77854 -0.07023 0.31142
 C1479 C 0.77642 -0.04629 0.28876
 C1480 C 0.78381 -0.03716 0.27381
 C1481 C 0.80091 -0.04273 0.26709
 C1482 C 0.81032 -0.05725 0.27487
 H1483 H 0.82512 -0.08537 0.29141
 H1484 H 0.76552 -0.06614 0.31709
 H1485 H 0.76327 -0.04217 0.29410
 H1486 H 0.82338 -0.06129 0.26928
 H1487 H 0.78154 -0.09176 0.33027
 H1488 H 0.80700 -0.03598 0.25563
 C1489 C 0.31604 0.58222 0.70401
 C1490 C 0.30889 0.58924 0.68787
 C1491 C 0.29324 0.58120 0.68050
 C1492 C 0.28479 0.56653 0.68918
 C1493 C 0.29207 0.55971 0.70543
 C1494 C 0.30772 0.56762 0.71269
 C1495 C 0.28349 0.54524 0.71426
 C1496 C 0.26760 0.53747 0.70713
 C1497 C 0.26056 0.54425 0.69086
 C1498 C 0.26909 0.55862 0.68195
 H1499 H 0.28759 0.58626 0.66802
 H1500 H 0.31347 0.56259 0.72516
 H1501 H 0.28907 0.54019 0.72680
 H1502 H 0.26332 0.56365 0.66950
 H1503 H 0.32796 0.58811 0.71015
 H1504 H 0.24835 0.53854 0.68506
 C1505 C 0.32884 1.07846 0.20728
 C1506 C 0.32005 1.08545 0.19195
 C1507 C 0.30394 1.07717 0.18594
 C1508 C 0.29653 1.06238 0.19531
 C1509 C 0.30534 1.05572 0.21087
 C1510 C 0.32156 1.06375 0.21665
 C1511 C 0.29764 1.04131 0.22056
 C1512 C 0.28119 1.03345 0.21494
 C1513 C 0.27272 1.03996 0.19924
 C1514 C 0.28033 1.05430 0.18951
 H1515 H 0.29710 1.08221 0.17403
 H1516 H 0.32849 1.05880 0.22855
 H1517 H 0.30436 1.03641 0.23261
 H1518 H 0.27341 1.05920 0.17758
 H1519 H 0.34118 1.08457 0.21234
 H1520 H 0.26004 1.03416 0.19461
 C1521 C 0.78247 0.58290 0.18515
 C1522 C 0.79942 0.58758 0.19267
 C1523 C 0.80588 0.57760 0.20752
 C1524 C 0.79560 0.56327 0.21473
 C1525 C 0.77863 0.55874 0.20702
 C1526 C 0.77221 0.56865 0.19224
 C1527 C 0.76831 0.54447 0.21429
 C1528 C 0.77469 0.53469 0.22928
 C1529 C 0.79164 0.53931 0.23679
 C1530 C 0.80200 0.55341 0.22958
 H1531 H 0.81889 0.58086 0.21350
 H1532 H 0.75920 0.56542 0.18616
 H1533 H 0.75525 0.54112 0.20838
 H1534 H 0.81499 0.55667 0.23567
 H1535 H 0.77693 0.59027 0.17382
 H1536 H 0.79694 0.53201 0.24833
 C1537 C 0.81298 1.08048 0.72183
 C1538 C 0.80617 1.08720 0.70542
 C1539 C 0.79091 1.07874 0.69772
 C1540 C 0.78239 1.06413 0.70641
 C1541 C 0.78920 1.05774 0.72302
 C1542 C 0.80458 1.06591 0.73053
 C1543 C 0.78037 1.04344 0.73194
 C1544 C 0.76473 1.03547 0.72452
 C1545 C 0.75825 1.04178 0.70785
 C1546 C 0.76700 1.05596 0.69888
 H1547 H 0.78539 1.08363 0.68512
 H1548 H 0.81004 1.06115 0.74322
 H1549 H 0.78555 1.03872 0.74477
 H1550 H 0.76161 1.06065 0.68612
 H1551 H 0.82477 1.08647 0.72810
 H1552 H 0.74627 1.03588 0.70177
 C1553 C 0.71170 0.58049 0.32164
 C1554 C 0.69474 0.58616 0.31466
 C1555 C 0.68729 0.57661 0.30013
 C1556 C 0.69673 0.56196 0.29249
 C1557 C 0.71384 0.55655 0.29948
 C1558 C 0.72112 0.56583 0.31415
 C1559 C 0.72349 0.54217 0.29150
 C1560 C 0.71631 0.53327 0.27644
 C1561 C 0.69913 0.53864 0.26980
 C1562 C 0.68942 0.55279 0.27778
 H1563 H 0.67420 0.58058 0.29462
 H1564 H 0.73422 0.56189 0.31971
 H1565 H 0.73672 0.53821 0.29673
 H1566 H 0.67629 0.55671 0.27227
 H1567 H 0.71791 0.58749 0.33276
 H1568 H 0.69322 0.53198 0.25828
 C1569 C 0.70714 1.08080 0.82331
 C1570 C 0.69148 1.08890 0.81561
 C1571 C 0.68430 1.08121 0.79980
 C1572 C 0.69272 1.06609 0.79178
 C1573 C 0.70847 1.05839 0.79966
 C1574 C 0.71548 1.06577 0.81545
 C1575 C 0.71716 1.04357 0.79153
 C1576 C 0.71044 1.03630 0.77543
 C1577 C 0.69460 1.04389 0.76778
 C1578 C 0.68580 1.05863 0.77590
 H1579 H 0.67230 1.08695 0.79348
 H1580 H 0.72755 1.05999 0.82168
 H1581 H 0.72935 1.03790 0.79763
 H1582 H 0.67371 1.06432 0.76964
 H1583 H 0.71320 1.08597 0.83544
 H1584 H 0.68913 1.03858 0.75539
 C1585 C 0.21080 0.58074 0.80882
 C1586 C 0.19416 0.58749 0.80205
 C1587 C 0.18684 0.57958 0.78649
 C1588 C 0.19602 0.56538 0.77777
 C1589 C 0.21277 0.55886 0.78465
 C1590 C 0.22000 0.56658 0.80021
 C1591 C 0.22207 0.54481 0.77578
 C1592 C 0.21487 0.53720 0.76004
 C1593 C 0.19812 0.54374 0.75340
 C1594 C 0.18878 0.55768 0.76219
 H1595 H 0.17407 0.58447 0.78098
 H1596 H 0.23282 0.56172 0.80571
 H1597 H 0.23498 0.53992 0.78107
 H1598 H 0.17593 0.56250 0.75673
 H1599 H 0.21685 0.58636 0.82076
 H1600 H 0.19223 0.53815 0.74133
 C1601 C 0.22246 1.08004 0.31394
 C1602 C 0.20521 1.08522 0.30727
 C1603 C 0.19808 1.07593 0.29242
 C1604 C 0.20805 1.06185 0.28431
 C1605 C 0.22536 1.05690 0.29113
 C1606 C 0.23240 1.06605 0.30597
 C1607 C 0.23542 1.04297 0.28296
 C1608 C 0.22846 1.03388 0.26795
 C1609 C 0.21116 1.03883 0.26131
 C1610 C 0.20104 1.05267 0.26942
 H1611 H 0.18481 1.07958 0.28710
 H1612 H 0.24567 1.06245 0.31137
 H1613 H 0.24873 1.03932 0.28824
 H1614 H 0.18779 1.05625 0.26400
 H1615 H 0.22850 1.08686 0.32525
 H1616 H 0.20544 1.03204 0.24978
 C1617 C 0.71073 0.41520 0.68834
 C1618 C 0.69353 0.40913 0.69424
 C1619 C 0.68520 0.41788 0.70892
 C1620 C 0.69391 0.43228 0.71760
 C1621 C 0.71120 0.43815 0.71157
 C1622 C 0.71946 0.42955 0.69690
 C1623 C 0.72003 0.45239 0.72041
 C1624 C 0.71185 0.46078 0.73535
 C1625 C 0.69455 0.45491 0.74111
 C1626 C 0.68566 0.44083 0.73232
 H1627 H 0.67200 0.41350 0.71377
 H1628 H 0.73271 0.43387 0.69208
 H1629 H 0.73336 0.45673 0.71582
 H1630 H 0.67239 0.43653 0.73711
 H1631 H 0.71758 0.40890 0.67711
 H1632 H 0.68790 0.46114 0.75254
 C1633 C 0.68205 -0.07899 0.21387
 C1634 C 0.69025 -0.08632 0.19841
 C1635 C 0.70678 -0.07884 0.19218
 C1636 C 0.71508 -0.06451 0.20138
 C1637 C 0.70675 -0.05746 0.21698
 C1638 C 0.69020 -0.06472 0.22305
 C1639 C 0.71516 -0.04337 0.22638
 C1640 C 0.73191 -0.03619 0.22048
 C1641 C 0.74001 -0.04318 0.20483
 C1642 C 0.73166 -0.05720 0.19536
 H1643 H 0.71328 -0.08411 0.18022
 H1644 H 0.68362 -0.05946 0.23500
 H1645 H 0.70870 -0.03815 0.23841
 H1646 H 0.73825 -0.06243 0.18340
 H1647 H 0.66942 -0.08439 0.21911
 H1648 H 0.75289 -0.03792 0.19998
 C1649 C 0.18659 0.41655 0.21003
 C1650 C 0.19270 0.41078 0.19306
 C1651 C 0.20737 0.41992 0.18488
 C1652 C 0.21582 0.43450 0.19353
 C1653 C 0.20954 0.44011 0.21058
 C1654 C 0.19492 0.43105 0.21869
 C1655 C 0.21806 0.45460 0.21929
 C1656 C 0.23287 0.46358 0.21122
 C1657 C 0.23895 0.45793 0.19420
 C1658 C 0.23049 0.44355 0.18543
 H1659 H 0.21222 0.41582 0.17177
 H1660 H 0.18995 0.43514 0.23179
 H1661 H 0.21322 0.45876 0.23241
 H1662 H 0.23549 0.43945 0.17236
 H1663 H 0.17546 0.40978 0.21681
 H1664 H 0.25032 0.46459 0.18767
 C1665 C 0.17177 -0.08030 0.71117
 C1666 C 0.17939 -0.08581 0.69470
 C1667 C 0.19472 -0.07660 0.68798
 C1668 C 0.20247 -0.06231 0.69764
 C1669 C 0.19484 -0.05702 0.71427
 C1670 C 0.17942 -0.06605 0.72085
 C1671 C 0.20290 -0.04296 0.72411
 C1672 C 0.21859 -0.03422 0.71756
 C1673 C 0.22584 -0.03946 0.70084
 C1674 C 0.21786 -0.05333 0.69098
 H1675 H 0.20066 -0.08048 0.67523
 H1676 H 0.17336 -0.06222 0.73358
 H1677 H 0.19715 -0.03907 0.73696
 H1678 H 0.22385 -0.05715 0.67822
 H1679 H 0.16005 -0.08715 0.71678
 H1680 H 0.23785 -0.03293 0.69539
 C1681 C 0.32058 0.30066 0.41790
 C1682 C 0.31129 0.31456 0.40864
 C1683 C 0.29355 0.31943 0.41423
 C1684 C 0.28510 0.31026 0.42856
 C1685 C 0.29453 0.29609 0.43743
 C1686 C 0.31229 0.29151 0.43212
 C1687 C 0.28601 0.28651 0.45132
 C1688 C 0.26806 0.29079 0.45659
 C1689 C 0.25886 0.30514 0.44797
 C1690 C 0.26731 0.31479 0.43405
 H1691 H 0.28612 0.33007 0.40729
 H1692 H 0.31973 0.28074 0.43887
 H1693 H 0.29335 0.27556 0.45792
 H1694 H 0.25987 0.32565 0.42745
 H1695 H 0.33431 0.29671 0.41421
 H1696 H 0.24504 0.30871 0.45179
 C1697 C 0.31072 0.79240 -0.09526
 C1698 C 0.30436 0.80946 -0.10112
 C1699 C 0.28900 0.81712 -0.09257
 C1700 C 0.28023 0.80797 -0.07843
 C1701 C 0.28681 0.79088 -0.07267
 C1702 C 0.30204 0.78321 -0.08121
 C1703 C 0.27800 0.78170 -0.05855
 C1704 C 0.26258 0.78935 -0.05014
 C1705 C 0.25623 0.80641 -0.05597
 C1706 C 0.26494 0.81562 -0.06997
 H1707 H 0.28368 0.83012 -0.09697
 H1708 H 0.30725 0.77009 -0.07704
 H1709 H 0.28308 0.76857 -0.05422
 H1710 H 0.25969 0.82871 -0.07420
 H1711 H 0.32250 0.78610 -0.10145
 H1712 H 0.24445 0.81269 -0.04971
 C1713 C 0.82502 0.28541 -0.08609
 C1714 C 0.81690 0.30222 -0.09043
 C1715 C 0.80207 0.30839 -0.08004
 C1716 C 0.79557 0.29796 -0.06552
 C1717 C 0.80398 0.28119 -0.06134
 C1718 C 0.81867 0.27506 -0.07171
 C1719 C 0.79748 0.27068 -0.04697
 C1720 C 0.78249 0.27658 -0.03673
 C1721 C 0.77424 0.29334 -0.04093
 C1722 C 0.78075 0.30396 -0.05515
 H1723 H 0.79566 0.32129 -0.08311
 H1724 H 0.82522 0.26218 -0.06876
 H1725 H 0.80393 0.25776 -0.04397
 H1726 H 0.77411 0.31678 -0.05811
 H1727 H 0.83625 0.28002 -0.09388
 H1728 H 0.76266 0.29824 -0.03326
 C1729 C 0.82272 0.78811 0.41889
 C1730 C 0.81283 0.80228 0.41065
 C1731 C 0.79552 0.80692 0.41755
 C1732 C 0.78811 0.79741 0.43219
 C1733 C 0.79812 0.78307 0.44014
 C1734 C 0.81544 0.77861 0.43346
 C1735 C 0.79056 0.77328 0.45449
 C1736 C 0.77305 0.77757 0.46104
 C1737 C 0.76331 0.79204 0.45320
 C1738 C 0.77078 0.80188 0.43891
 H1739 H 0.78760 0.81771 0.41142
 H1740 H 0.82333 0.76769 0.43945
 H1741 H 0.79826 0.76218 0.46041
 H1742 H 0.76292 0.81286 0.43301
 H1743 H 0.83614 0.78427 0.41413
 H1744 H 0.74981 0.79566 0.45799
 C1745 C 0.68632 0.28600 0.58823
 C1746 C 0.69325 0.30257 0.59447
 C1747 C 0.70892 0.30978 0.58616
 C1748 C 0.71768 0.30050 0.57215
 C1749 C 0.71067 0.28379 0.56618
 C1750 C 0.69493 0.27673 0.57423
 C1751 C 0.71963 0.27434 0.55240
 C1752 C 0.73562 0.28131 0.54454
 C1753 C 0.74236 0.29804 0.55048
 C1754 C 0.73346 0.30756 0.56413
 H1755 H 0.71450 0.32254 0.59059
 H1756 H 0.68935 0.26394 0.56981
 H1757 H 0.71426 0.26145 0.54798
 H1758 H 0.73902 0.32037 0.56852
 H1759 H 0.67432 0.28000 0.59421
 H1760 H 0.75462 0.30375 0.54466
 C1761 C 0.71699 0.81219 1.09699
 C1762 C 0.69916 0.80642 1.10107
 C1763 C 0.69136 0.79262 1.09062
 C1764 C 0.70115 0.78496 1.07621
 C1765 C 0.71894 0.79114 1.07220
 C1766 C 0.72674 0.80468 1.08273
 C1767 C 0.72869 0.78370 1.05776
 C1768 C 0.72100 0.77000 1.04719
 C1769 C 0.70333 0.76385 1.05132
 C1770 C 0.69348 0.77129 1.06565
 H1771 H 0.67766 0.78799 1.09350
 H1772 H 0.74041 0.80949 1.07993
 H1773 H 0.74233 0.78853 1.05483
 H1774 H 0.67987 0.76635 1.06848
 H1775 H 0.72361 0.82251 1.10486
 H1776 H 0.69706 0.75331 1.04341
 C1777 C 0.18471 0.28820 1.08673
 C1778 C 0.19126 0.30552 1.09113
 C1779 C 0.20607 0.31263 1.08134
 C1780 C 0.21413 0.30260 1.06737
 C1781 C 0.20729 0.28527 1.06316
 C1782 C 0.19261 0.27821 1.07291
 C1783 C 0.21528 0.27515 1.04934
 C1784 C 0.23019 0.28199 1.03959
 C1785 C 0.23692 0.29928 1.04380
 C1786 C 0.22893 0.30950 1.05755
 H1787 H 0.21127 0.32596 1.08446
 H1788 H 0.18727 0.26490 1.06990
 H1789 H 0.20996 0.26183 1.04632
 H1790 H 0.23438 0.32276 1.06056
 H1791 H 0.17356 0.28211 1.09408
 H1792 H 0.24840 0.30487 1.03651
 C1793 C 0.20612 0.81698 0.58714
 C1794 C 0.18975 0.80929 0.59344
 C1795 C 0.18300 0.79375 0.58477
 C1796 C 0.19245 0.78611 0.57013
 C1797 C 0.20882 0.79410 0.56403
 C1798 C 0.21551 0.80950 0.57262
 C1799 C 0.21835 0.78651 0.54952
 C1800 C 0.21186 0.77089 0.54093
 C1801 C 0.19552 0.76304 0.54705
 C1802 C 0.18588 0.77060 0.56149
 H1803 H 0.17044 0.78757 0.58932
 H1804 H 0.22809 0.81576 0.56814
 H1805 H 0.23094 0.79273 0.54503
 H1806 H 0.17336 0.76425 0.56595
 H1807 H 0.21189 0.82881 0.59340
 H1808 H 0.19020 0.75100 0.54072
 C1809 C 0.31253 0.71771 0.58669
 C1810 C 0.30733 0.69983 0.59082
 C1811 C 0.29363 0.69165 0.58049
 C1812 C 0.28515 0.70119 0.56642
 C1813 C 0.29043 0.71917 0.56248
 C1814 C 0.30418 0.72727 0.57266
 C1815 C 0.28173 0.72879 0.54856
 C1816 C 0.26768 0.72070 0.53862
 C1817 C 0.26268 0.70274 0.54259
 C1818 C 0.27136 0.69307 0.55631
 H1819 H 0.28951 0.67786 0.58329
 H1820 H 0.30839 0.74105 0.56987
 H1821 H 0.28569 0.74264 0.54570
 H1822 H 0.26715 0.67928 0.55912
 H1823 H 0.32292 0.72450 0.59440
 H1824 H 0.25195 0.69613 0.53514
 C1825 C 0.28940 0.18415 1.08866
 C1826 C 0.30625 0.19159 1.09379
 C1827 C 0.31313 0.20647 1.08403
 C1828 C 0.30328 0.21385 1.06953
 C1829 C 0.28635 0.20627 1.06465
 C1830 C 0.27958 0.19140 1.07426
 C1831 C 0.27637 0.21375 1.05035
 C1832 C 0.28302 0.22882 1.04080
 C1833 C 0.29996 0.23618 1.04566
 C1834 C 0.31001 0.22876 1.05988
 H1835 H 0.32601 0.21248 1.08774
 H1836 H 0.26663 0.18538 1.07067
 H1837 H 0.26332 0.20791 1.04680
 H1838 H 0.32298 0.23475 1.06339
 H1839 H 0.28369 0.17264 1.09567
 H1840 H 0.30542 0.24780 1.03856
 C1841 C 0.82191 0.70911 1.08746
 C1842 C 0.81469 0.69211 1.09221
 C1843 C 0.79961 0.68549 1.08265
 C1844 C 0.79156 0.69585 1.06893
 C1845 C 0.79877 0.71302 1.06452
 C1846 C 0.81404 0.71945 1.07374
 C1847 C 0.79042 0.72362 1.05117
 C1848 C 0.77482 0.71736 1.04223
 C1849 C 0.76792 0.70013 1.04653
 C1850 C 0.77624 0.68946 1.05974
 H1851 H 0.79394 0.67236 1.08590
 H1852 H 0.81975 0.73259 1.07052
 H1853 H 0.79592 0.73687 1.04799
 H1854 H 0.77055 0.67630 1.06293
 H1855 H 0.83344 0.71469 1.09451
 H1856 H 0.75595 0.69495 1.03982
 C1857 C 0.79182 0.18119 0.59273
 C1858 C 0.80804 0.18847 0.59973
 C1859 C 0.81556 0.20389 0.59135
 C1860 C 0.80692 0.21197 0.57646
 C1861 C 0.79057 0.20457 0.56974
 C1862 C 0.78320 0.18914 0.57793
 C1863 C 0.78175 0.21281 0.55507
 C1864 C 0.78900 0.22848 0.54700
 C1865 C 0.80539 0.23562 0.55369
 C1866 C 0.81427 0.22745 0.56826
 H1867 H 0.82805 0.20972 0.59639
 H1868 H 0.77068 0.18326 0.57296
 H1869 H 0.76912 0.20713 0.55010
 H1870 H 0.82680 0.23333 0.57319
 H1871 H 0.78554 0.16939 0.59870
 H1872 H 0.81132 0.24766 0.54777
 C1873 C 0.67753 0.70819 0.42033
 C1874 C 0.68715 0.69387 0.41216
 C1875 C 0.70448 0.68904 0.41887
 C1876 C 0.71216 0.69851 0.43328
 C1877 C 0.70242 0.71299 0.44117
 C1878 C 0.68508 0.71764 0.43468
 C1879 C 0.71024 0.72272 0.45530
 C1880 C 0.72778 0.71826 0.46166
 C1881 C 0.73727 0.70367 0.45386
 C1882 C 0.72953 0.69388 0.43980
 H1883 H 0.71220 0.67814 0.41277
 H1884 H 0.67738 0.72867 0.44064
 H1885 H 0.70272 0.73391 0.46118
 H1886 H 0.73720 0.68279 0.43392
 H1887 H 0.66410 0.71216 0.41570
 H1888 H 0.75078 0.69993 0.45849
 C1889 C 0.68445 0.20771 -0.07488
 C1890 C 0.69358 0.19366 -0.08400
 C1891 C 0.71133 0.18880 -0.07857
 C1892 C 0.71993 0.19802 -0.06451
 C1893 C 0.71068 0.21228 -0.05566
 C1894 C 0.69291 0.21692 -0.06087
 C1895 C 0.71940 0.22174 -0.04183
 C1896 C 0.73730 0.21715 -0.03669
 C1897 C 0.74629 0.20280 -0.04547
 C1898 C 0.73770 0.19335 -0.05925
 H1899 H 0.71866 0.17809 -0.08544
 H1900 H 0.68557 0.22775 -0.05418
 H1901 H 0.71226 0.23273 -0.03516
 H1902 H 0.74500 0.18244 -0.06586
 H1903 H 0.67070 0.21167 -0.07849
 H1904 H 0.76007 0.19895 -0.04179
 C1905 C 0.20494 0.68378 -0.08723
 C1906 C 0.18954 0.69136 -0.09574
 C1907 C 0.18265 0.70807 -0.08956
 C1908 C 0.19121 0.71721 -0.07541
 C1909 C 0.20684 0.70954 -0.06725
 C1910 C 0.21349 0.69277 -0.07314
 C1911 C 0.21573 0.71887 -0.05348
 C1912 C 0.20930 0.73589 -0.04773
 C1913 C 0.19354 0.74327 -0.05571
 C1914 C 0.18457 0.73400 -0.06943
 H1915 H 0.17084 0.71422 -0.09588
 H1916 H 0.22541 0.68665 -0.06696
 H1917 H 0.22781 0.71293 -0.04741
 H1918 H 0.17255 0.74007 -0.07548
 H1919 H 0.21053 0.67088 -0.09142
 H1920 H 0.18827 0.75632 -0.05153
 C1921 C 0.21767 0.18485 0.41245
 C1922 C 0.20021 0.19024 0.40658
 C1923 C 0.19165 0.20513 0.41489
 C1924 C 0.20046 0.21459 0.42865
 C1925 C 0.21804 0.20909 0.43430
 C1926 C 0.22648 0.19417 0.42617
 C1927 C 0.22695 0.21866 0.44791
 C1928 C 0.21854 0.23374 0.45597
 C1929 C 0.20099 0.23904 0.45030
 C1930 C 0.19203 0.22955 0.43678
 H1931 H 0.17816 0.20943 0.41072
 H1932 H 0.23997 0.18977 0.43033
 H1933 H 0.24046 0.21440 0.45214
 H1934 H 0.17854 0.23395 0.43264
 H1935 H 0.22476 0.17357 0.40635
 H1936 H 0.19417 0.25058 0.45629
 C1937 C 0.31617 0.41409 0.70571
 C1938 C 0.30937 0.40767 0.68928
 C1939 C 0.29415 0.41647 0.68159
 C1940 C 0.28575 0.43118 0.69021
 C1941 C 0.29263 0.43738 0.70676
 C1942 C 0.30790 0.42879 0.71435
 C1943 C 0.28398 0.45191 0.71553
 C1944 C 0.26843 0.46025 0.70801
 C1945 C 0.26185 0.45404 0.69143
 C1946 C 0.27044 0.43968 0.68261
 H1947 H 0.28861 0.41186 0.66897
 H1948 H 0.31338 0.43337 0.72704
 H1949 H 0.28921 0.45651 0.72832
 H1950 H 0.26500 0.43511 0.66990
 H1951 H 0.32787 0.40777 0.71203
 H1952 H 0.24994 0.46020 0.68530
 C1953 C 0.28914 0.90985 0.17500
 C1954 C 0.30616 0.90390 0.18156
 C1955 C 0.31388 0.91286 0.19634
 C1956 C 0.30469 0.92749 0.20443
 C1957 C 0.28760 0.93323 0.19766
 C1958 C 0.27997 0.92435 0.18295
 C1959 C 0.27831 0.94768 0.20576
 C1960 C 0.28577 0.95657 0.22067
 C1961 C 0.30284 0.95085 0.22728
 C1962 C 0.31223 0.93645 0.21922
 H1963 H 0.32701 0.90858 0.20153
 H1964 H 0.26685 0.92854 0.17764
 H1965 H 0.26514 0.95189 0.20052
 H1966 H 0.32532 0.93226 0.22461
 H1967 H 0.28264 0.90322 0.16382
 H1968 H 0.30890 0.95743 0.23876
 C1969 C 0.81641 0.40947 0.22011
 C1970 C 0.81090 0.40553 0.20246
 C1971 C 0.79727 0.41632 0.19445
 C1972 C 0.78903 0.43054 0.20396
 C1973 C 0.79451 0.43424 0.22174
 C1974 C 0.80830 0.42369 0.22964
 C1975 C 0.78592 0.44825 0.23137
 C1976 C 0.77179 0.45849 0.22346
 C1977 C 0.76666 0.45478 0.20566
 C1978 C 0.77521 0.44099 0.19600
 H1979 H 0.79297 0.41371 0.18081
 H1980 H 0.81270 0.42629 0.24326
 H1981 H 0.79000 0.45093 0.24508
 H1982 H 0.77088 0.43838 0.18236
 H1983 H 0.82679 0.40141 0.22673
 H1984 H 0.75588 0.46248 0.19919
 C1985 C 0.77598 0.91365 0.68097
 C1986 C 0.79294 0.90854 0.68834
 C1987 C 0.79928 0.91777 0.70358
 C1988 C 0.78886 0.93166 0.71139
 C1989 C 0.77183 0.93660 0.70391
 C1990 C 0.76555 0.92753 0.68866
 C1991 C 0.76135 0.95041 0.71187
 C1992 C 0.76766 0.95930 0.72731
 C1993 C 0.78468 0.95429 0.73455
 C1994 C 0.79519 0.94065 0.72666
 H1995 H 0.81231 0.91422 0.70947
 H1996 H 0.75252 0.93110 0.68272
 H1997 H 0.74825 0.95411 0.70614
 H1998 H 0.80822 0.93706 0.73258
 H1999 H 0.77059 0.90689 0.66930
 H2000 H 0.78993 0.96091 0.74640
 C2001 C 0.71148 0.58228 0.68678
 C2002 C 0.69438 0.58878 0.69263
 C2003 C 0.68613 0.58049 0.70765
 C2004 C 0.69479 0.56613 0.71672
 C2005 C 0.71197 0.55980 0.71073
 C2006 C 0.72017 0.56794 0.69572
 C2007 C 0.72071 0.54554 0.71992
 C2008 C 0.71254 0.53755 0.73513
 C2009 C 0.69539 0.54392 0.74088
 C2010 C 0.68659 0.55804 0.73175
 H2011 H 0.67297 0.58515 0.71244
 H2012 H 0.73334 0.56326 0.69092
 H2013 H 0.73394 0.54080 0.71531
 H2014 H 0.67339 0.56269 0.73651
 H2015 H 0.71827 0.58825 0.67531
 H2016 H 0.68875 0.53802 0.75251
 C2017 C 0.68652 0.08908 0.21563
 C2018 C 0.69317 0.09354 0.19842
 C2019 C 0.70747 0.08309 0.19116
 C2020 C 0.71517 0.06867 0.20092
 C2021 C 0.70846 0.06438 0.21823
 C2022 C 0.69406 0.07464 0.22542
 C2023 C 0.71644 0.05007 0.22808
 C2024 C 0.73120 0.04019 0.22088
 C2025 C 0.73758 0.04456 0.20357
 C2026 C 0.72961 0.05859 0.19367
 H2027 H 0.71274 0.08610 0.17789
 H2028 H 0.68873 0.07160 0.23867
 H2029 H 0.71142 0.04689 0.24143
 H2030 H 0.73490 0.06167 0.18041
 H2031 H 0.67558 0.09683 0.22170
 H2032 H 0.74885 0.03715 0.19763
 C2033 C 0.21977 0.58836 0.16926
 C2034 C 0.20348 0.59405 0.17762
 C2035 C 0.19694 0.58420 0.19250
 C2036 C 0.20677 0.56931 0.19925
 C2037 C 0.22332 0.56400 0.19099
 C2038 C 0.22958 0.57348 0.17587
 C2039 C 0.23350 0.54954 0.19820
 C2040 C 0.22741 0.54041 0.21370
 C2041 C 0.21071 0.54559 0.22156
 C2042 C 0.20047 0.55988 0.21439
 H2043 H 0.18448 0.58831 0.19919
 H2044 H 0.24218 0.56955 0.16929
 H2045 H 0.24633 0.54569 0.19199
 H2046 H 0.18778 0.56373 0.22086
 H2047 H 0.22508 0.59544 0.15764
 H2048 H 0.20563 0.53876 0.23345
 C2049 C 0.21654 0.09122 0.67616
 C2050 C 0.19859 0.09571 0.68136
 C2051 C 0.18998 0.08508 0.69459
 C2052 C 0.19920 0.07059 0.70280
 C2053 C 0.21728 0.06632 0.69765
 C2054 C 0.22578 0.07665 0.68420
 C2055 C 0.22658 0.05196 0.70621
 C2056 C 0.21801 0.04201 0.72000
 C2057 C 0.19995 0.04637 0.72484
 C2058 C 0.19062 0.06045 0.71629
 H2059 H 0.17612 0.08807 0.69870
 H2060 H 0.23963 0.07360 0.68004
 H2061 H 0.24051 0.04878 0.70239
 H2062 H 0.17675 0.06353 0.72037
 H2063 H 0.22361 0.09907 0.66604
 H2064 H 0.19297 0.03889 0.73533
 C2065 C 0.28803 0.58178 0.31427
 C2066 C 0.30340 0.59038 0.30681
 C2067 C 0.31027 0.58427 0.29023
 C2068 C 0.30171 0.57002 0.28112
 C2069 C 0.28616 0.56168 0.28872
 C2070 C 0.27952 0.56759 0.30534
 C2071 C 0.27741 0.54765 0.27954
 C2072 C 0.28392 0.54177 0.26278
 C2073 C 0.29948 0.55006 0.25537
 C2074 C 0.30830 0.56405 0.26446
 H2075 H 0.32203 0.59077 0.28424
 H2076 H 0.26767 0.56128 0.31140
 H2077 H 0.26544 0.54140 0.28545
 H2078 H 0.32021 0.57025 0.25842
 H2079 H 0.28254 0.58592 0.32712
 H2080 H 0.30482 0.54580 0.24249
 C2081 C 0.27658 0.08807 0.81678
 C2082 C 0.29457 0.09172 0.81120
 C2083 C 0.30244 0.08089 0.79774
 C2084 C 0.29247 0.06695 0.78972
 C2085 C 0.27434 0.06352 0.79524
 C2086 C 0.26657 0.07410 0.80889
 C2087 C 0.26426 0.04978 0.78684
 C2088 C 0.27208 0.03961 0.77282
 C2089 C 0.29024 0.04305 0.76769
 C2090 C 0.30034 0.05652 0.77607
 H2091 H 0.31633 0.08325 0.79338
 H2092 H 0.25270 0.07171 0.81333
 H2093 H 0.25029 0.04728 0.79093
 H2094 H 0.31424 0.05892 0.77171
 H2095 H 0.27007 0.09615 0.82706
 H2096 H 0.29669 0.03537 0.75704
 C2097 C 0.81280 0.58010 0.79566
 C2098 C 0.80524 0.58651 0.81182
 C2099 C 0.78927 0.57838 0.81852
 C2100 C 0.78084 0.56429 0.80914
 C2101 C 0.78846 0.55809 0.79283
 C2102 C 0.80449 0.56603 0.78625
 C2103 C 0.77984 0.54417 0.78331
 C2104 C 0.76362 0.53639 0.78987
 C2105 C 0.75629 0.54260 0.80620
 C2106 C 0.76482 0.55638 0.81575
 H2107 H 0.78334 0.58293 0.83104
 H2108 H 0.81053 0.56147 0.77376
 H2109 H 0.78566 0.53954 0.77074
 H2110 H 0.75881 0.56095 0.82826
 H2111 H 0.82500 0.58610 0.79006
 H2112 H 0.74385 0.53685 0.81160
 C2113 C 0.82146 0.08923 0.28672
 C2114 C 0.81392 0.09328 0.30366
 C2115 C 0.79950 0.08256 0.31017
 C2116 C 0.79265 0.06819 0.29992
 C2117 C 0.80032 0.06433 0.28292
 C2118 C 0.81475 0.07491 0.27648
 C2119 C 0.79330 0.05010 0.27258
 C2120 C 0.77856 0.03976 0.27896
 C2121 C 0.77115 0.04367 0.29597
 C2122 C 0.77816 0.05770 0.30636
 H2123 H 0.79352 0.08531 0.32318
 H2124 H 0.82080 0.07220 0.26347
 H2125 H 0.79911 0.04729 0.25948
 H2126 H 0.77211 0.06043 0.31936
 H2127 H 0.83248 0.09716 0.28116
 H2128 H 0.75983 0.03592 0.30126
 C2129 C 0.71135 0.41325 0.32403
 C2130 C 0.69634 0.40502 0.31566
 C2131 C 0.69010 0.41213 0.29916
 C2132 C 0.69886 0.42700 0.29107
 C2133 C 0.71403 0.43491 0.29959
 C2134 C 0.72009 0.42801 0.31608
 C2135 C 0.72304 0.44951 0.29143
 C2136 C 0.71718 0.45639 0.27474
 C2137 C 0.70192 0.44858 0.26645
 C2138 C 0.69284 0.43401 0.27454
 H2139 H 0.67860 0.40603 0.29242
 H2140 H 0.73168 0.43397 0.32282
 H2141 H 0.73475 0.45538 0.29804
 H2142 H 0.68121 0.42814 0.26781
 H2143 H 0.71645 0.40835 0.33677
 H2144 H 0.69712 0.45360 0.25361
 C2145 C 0.70812 0.91283 0.82365
 C2146 C 0.69154 0.90632 0.81675
 C2147 C 0.68390 0.91498 0.80163
 C2148 C 0.69274 0.92970 0.79343
 C2149 C 0.70943 0.93600 0.80044
 C2150 C 0.71695 0.92751 0.81559
 C2151 C 0.71842 0.95053 0.79206
 C2152 C 0.71101 0.95878 0.77662
 C2153 C 0.69430 0.95249 0.76987
 C2154 C 0.68523 0.93812 0.77822
 H2155 H 0.67109 0.91035 0.79614
 H2156 H 0.72976 0.93214 0.82115
 H2157 H 0.73131 0.95519 0.79740
 H2158 H 0.67243 0.93349 0.77267
 H2159 H 0.71448 0.90651 0.83519
 H2160 H 0.68826 0.95859 0.75803
 C2161 C 0.21334 0.41907 0.81186
 C2162 C 0.19723 0.41132 0.80516
 C2163 C 0.18966 0.41838 0.78920
 C2164 C 0.19818 0.43266 0.77998
 C2165 C 0.21445 0.44013 0.78678
 C2166 C 0.22184 0.43331 0.80278
 C2167 C 0.22317 0.45416 0.77740
 C2168 C 0.21589 0.46085 0.76120
 C2169 C 0.19957 0.45345 0.75464
 C2170 C 0.19079 0.43950 0.76395
 H2171 H 0.17723 0.41277 0.78380
 H2172 H 0.23430 0.43891 0.80822
 H2173 H 0.23572 0.45973 0.78265
 H2174 H 0.17830 0.43396 0.75854
 H2175 H 0.21958 0.41411 0.82408
 H2176 H 0.19364 0.45835 0.74221
 C2177 C 0.18544 0.91448 0.28324
 C2178 C 0.19391 0.90789 0.29892
 C2179 C 0.21007 0.91612 0.30486
 C2180 C 0.21789 0.93040 0.29504
 C2181 C 0.20940 0.93663 0.27913
 C2182 C 0.19310 0.92871 0.27345
 C2183 C 0.21745 0.95053 0.26902
 C2184 C 0.23398 0.95830 0.27454
 C2185 C 0.24217 0.95220 0.29054
 C2186 C 0.23420 0.93837 0.30070
 H2187 H 0.21685 0.91120 0.31684
 H2188 H 0.18635 0.93341 0.26135
 H2189 H 0.21094 0.95514 0.25675
 H2190 H 0.24088 0.93380 0.31288
 H2191 H 0.17286 0.90867 0.27843
 H2192 H 0.25489 0.95797 0.29512
 C2193 C 0.41408 0.28151 0.68125
 C2194 C 0.40884 0.29854 0.68803
 C2195 C 0.41811 0.30546 0.70302
 C2196 C 0.43236 0.29554 0.71106
 C2197 C 0.43744 0.27848 0.70404
 C2198 C 0.42822 0.27161 0.68914
 C2199 C 0.45158 0.26849 0.71207
 C2200 C 0.46077 0.27526 0.72714
 C2201 C 0.45566 0.29228 0.73401
 C2202 C 0.44160 0.30233 0.72602
 H2203 H 0.41438 0.31858 0.70840
 H2204 H 0.43190 0.25852 0.68363
 H2205 H 0.45533 0.25538 0.70664
 H2206 H 0.43792 0.31539 0.73160
 H2207 H 0.40717 0.27562 0.66989
 H2208 H 0.46249 0.29782 0.74561
 C2209 C 0.41396 0.78016 0.17922
 C2210 C 0.40826 0.79758 0.18454
 C2211 C 0.41725 0.80592 0.19897
 C2212 C 0.43147 0.79696 0.20807
 C2213 C 0.43692 0.77942 0.20269
 C2214 C 0.42814 0.77119 0.18819
 C2215 C 0.45094 0.77033 0.21201
 C2216 C 0.45954 0.77854 0.22674
 C2217 C 0.45409 0.79609 0.23183
 C2218 C 0.44022 0.80522 0.22258
 H2219 H 0.41326 0.81939 0.20320
 H2220 H 0.43213 0.75773 0.18387
 H2221 H 0.45496 0.75681 0.20792
 H2222 H 0.43625 0.81868 0.22688
 H2223 H 0.40735 0.77327 0.16826
 H2224 H 0.46046 0.80277 0.24308
 C2225 C 0.92018 0.28480 0.18643
 C2226 C 0.91303 0.30073 0.19414
 C2227 C 0.92109 0.30738 0.20991
 C2228 C 0.93576 0.29821 0.21799
 C2229 C 0.94269 0.28216 0.21020
 C2230 C 0.93486 0.27563 0.19437
 C2231 C 0.95722 0.27286 0.21847
 C2232 C 0.96485 0.27936 0.23451
 C2233 C 0.95788 0.29542 0.24203
 C2234 C 0.94351 0.30477 0.23384
 H2235 H 0.91597 0.31963 0.21609
 H2236 H 0.94000 0.26335 0.18819
 H2237 H 0.96242 0.26049 0.21251
 H2238 H 0.93838 0.31707 0.23998
 H2239 H 0.91442 0.27926 0.17431
 H2240 H 0.96350 0.30077 0.25434
 C2241 C 0.91208 0.82251 0.71325
 C2242 C 0.90487 0.81347 0.69829
 C2243 C 0.91239 0.79659 0.69342
 C2244 C 0.92669 0.78882 0.70334
 C2245 C 0.93372 0.79797 0.71841
 C2246 C 0.92636 0.81485 0.72321
 C2247 C 0.94789 0.79002 0.72846
 C2248 C 0.95507 0.77298 0.72367
 C2249 C 0.94800 0.76410 0.70855
 C2250 C 0.93397 0.77194 0.69849
 H2251 H 0.90707 0.78927 0.68205
 H2252 H 0.93160 0.82210 0.73469
 H2253 H 0.95319 0.79704 0.74008
 H2254 H 0.92874 0.76475 0.68696
 H2255 H 0.90675 0.83556 0.71733
 H2256 H 0.95326 0.75100 0.70452
 C2257 C 0.58328 0.28746 0.32072
 C2258 C 0.59209 0.30261 0.31318
 C2259 C 0.58584 0.30949 0.29662
 C2260 C 0.57123 0.30129 0.28768
 C2261 C 0.56264 0.28600 0.29533
 C2262 C 0.56872 0.27925 0.31190
 C2263 C 0.54822 0.27762 0.28624
 C2264 C 0.54228 0.28431 0.26950
 C2265 C 0.55085 0.29965 0.26210
 C2266 C 0.56517 0.30806 0.27110
 H2267 H 0.59239 0.32108 0.29048
 H2268 H 0.56226 0.26756 0.31800
 H2269 H 0.54175 0.26581 0.29212
 H2270 H 0.57159 0.31979 0.26504
 H2271 H 0.58757 0.28186 0.33348
 H2272 H 0.54657 0.30511 0.24925
 C2273 C 0.58505 0.78313 0.81661
 C2274 C 0.59003 0.80080 0.81144
 C2275 C 0.58068 0.80923 0.79718
 C2276 C 0.56658 0.80018 0.78826
 C2277 C 0.56171 0.78245 0.79365
 C2278 C 0.57104 0.77406 0.80782
 C2279 C 0.54766 0.77336 0.78473
 C2280 C 0.53844 0.78170 0.77036
 C2281 C 0.54335 0.79937 0.76514
 C2282 C 0.55727 0.80853 0.77403
 H2283 H 0.58421 0.82287 0.79306
 H2284 H 0.56754 0.76045 0.81208
 H2285 H 0.54405 0.75973 0.78887
 H2286 H 0.56079 0.82212 0.76971
 H2287 H 0.59206 0.77611 0.82737
 H2288 H 0.53645 0.80615 0.75413
 C2289 C 0.08623 0.31701 0.79340
 C2290 C 0.09526 0.30760 0.80730
 C2291 C 0.08893 0.29030 0.81232
 C2292 C 0.07408 0.28244 0.80334
 C2293 C 0.06544 0.29199 0.78921
 C2294 C 0.07153 0.30929 0.78445
 C2295 C 0.05091 0.28408 0.77995
 C2296 C 0.04472 0.26668 0.78459
 C2297 C 0.05320 0.25735 0.79885
 C2298 C 0.06778 0.26514 0.80812
 H2299 H 0.09565 0.28281 0.82298
 H2300 H 0.06497 0.31685 0.77372
 H2301 H 0.04445 0.29150 0.76906
 H2302 H 0.07419 0.25760 0.81894
 H2303 H 0.09042 0.33043 0.78931
 H2304 H 0.04871 0.24393 0.80272
 C2305 C 0.08399 0.81766 0.28867
 C2306 C 0.09204 0.80813 0.30304
 C2307 C 0.08460 0.79142 0.30838
 C2308 C 0.06971 0.78407 0.29909
 C2309 C 0.06201 0.79365 0.28443
 C2310 C 0.06912 0.81052 0.27948
 C2311 C 0.04754 0.78609 0.27476
 C2312 C 0.04068 0.76895 0.27942
 C2313 C 0.04825 0.75965 0.29421
 C2314 C 0.06261 0.76715 0.30396
 H2315 H 0.09068 0.78387 0.31937
 H2316 H 0.06332 0.81811 0.26836
 H2317 H 0.04184 0.79344 0.26343
 H2318 H 0.06830 0.75961 0.31516
 H2319 H 0.08917 0.83070 0.28442
 H2320 H 0.04321 0.74644 0.29815
 C2321 C 0.58224 0.68152 0.70953
 C2322 C 0.58958 0.68959 0.69398
 C2323 C 0.58198 0.70605 0.68773
 C2324 C 0.56747 0.71435 0.69695
 C2325 C 0.56037 0.70610 0.71259
 C2326 C 0.56779 0.68968 0.71873
 C2327 C 0.54607 0.71446 0.72196
 C2328 C 0.53872 0.73108 0.71600
 C2329 C 0.54575 0.73912 0.70032
 C2330 C 0.56000 0.73081 0.69086
 H2331 H 0.58729 0.71253 0.67577
 H2332 H 0.56246 0.68318 0.73071
 H2333 H 0.54079 0.70806 0.73402
 H2334 H 0.56526 0.73733 0.67886
 H2335 H 0.58764 0.66891 0.71475
 H2336 H 0.54033 0.75191 0.69544
 C2337 C 0.58927 0.21851 0.17753
 C2338 C 0.59367 0.20158 0.18523
 C2339 C 0.58345 0.19539 0.20003
 C2340 C 0.56917 0.20599 0.20706
 C2341 C 0.56499 0.22298 0.19920
 C2342 C 0.57509 0.22908 0.18442
 C2343 C 0.55089 0.23370 0.20632
 C2344 C 0.54094 0.22774 0.22135
 C2345 C 0.54511 0.21075 0.22901
 C2346 C 0.55907 0.19996 0.22191
 H2347 H 0.58651 0.18236 0.20609
 H2348 H 0.57210 0.24209 0.17825
 H2349 H 0.54786 0.24677 0.20030
 H2350 H 0.56205 0.18696 0.22811
 H2351 H 0.59690 0.22384 0.16626
 H2352 H 0.53764 0.20580 0.24058
 C2353 C 0.08573 0.67930 0.20535
 C2354 C 0.09269 0.68957 0.19090
 C2355 C 0.08440 0.70632 0.18676
 C2356 C 0.06970 0.71285 0.19710
 C2357 C 0.06309 0.70251 0.21175
 C2358 C 0.07112 0.68570 0.21565
 C2359 C 0.04868 0.70923 0.22236
 C2360 C 0.04078 0.72622 0.21855
 C2361 C 0.04733 0.73626 0.20378
 C2362 C 0.06163 0.72966 0.19318
 H2363 H 0.08955 0.71447 0.17575
 H2364 H 0.06618 0.67752 0.22675
 H2365 H 0.04378 0.70130 0.23366
 H2366 H 0.06647 0.73778 0.18200
 H2367 H 0.09152 0.66624 0.20879
 H2368 H 0.04152 0.74938 0.20048
 C2369 C 0.08231 0.21093 0.67858
 C2370 C 0.08907 0.19437 0.68532
 C2371 C 0.08178 0.18735 0.70137
 C2372 C 0.06809 0.19683 0.71066
 C2373 C 0.06159 0.21357 0.70385
 C2374 C 0.06872 0.22044 0.68776
 C2375 C 0.04817 0.22324 0.71330
 C2376 C 0.04108 0.21640 0.72950
 C2377 C 0.04749 0.19962 0.73605
 C2378 C 0.06087 0.18993 0.72672
 H2379 H 0.08668 0.17451 0.70664
 H2380 H 0.06390 0.23325 0.68235
 H2381 H 0.04335 0.23613 0.70807
 H2382 H 0.06564 0.17709 0.73212
 H2383 H 0.08776 0.21678 0.66636
 H2384 H 0.04227 0.19403 0.74850
 C2385 C 0.41046 0.68421 0.29107
 C2386 C 0.40434 0.69213 0.30718
 C2387 C 0.41311 0.70787 0.31336
 C2388 C 0.42776 0.71543 0.30364
 C2389 C 0.43372 0.70721 0.28755
 C2390 C 0.42495 0.69164 0.28139
 C2391 C 0.44829 0.71470 0.27779
 C2392 C 0.45709 0.73043 0.28380
 C2393 C 0.45107 0.73852 0.29986
 C2394 C 0.43659 0.73108 0.30969
 H2395 H 0.40870 0.71415 0.32575
 H2396 H 0.42928 0.68519 0.26904
 H2397 H 0.45269 0.70830 0.26543
 H2398 H 0.43226 0.73760 0.32200
 H2399 H 0.40397 0.67228 0.28573
 H2400 H 0.45756 0.75064 0.30483
 C2401 C 0.41178 0.17803 0.78490
 C2402 C 0.40716 0.18479 0.80196
 C2403 C 0.41767 0.19892 0.80918
 C2404 C 0.43223 0.20639 0.79943
 C2405 C 0.43658 0.19961 0.78224
 C2406 C 0.42635 0.18534 0.77515
 C2407 C 0.45094 0.20735 0.77235
 C2408 C 0.46093 0.22193 0.77937
 C2409 C 0.45655 0.22842 0.79658
 C2410 C 0.44239 0.22070 0.80653
 H2411 H 0.41456 0.20426 0.82234
 H2412 H 0.42948 0.17996 0.76199
 H2413 H 0.45412 0.20221 0.75909
 H2414 H 0.43926 0.22605 0.81971
 H2415 H 0.40404 0.16721 0.77889
 H2416 H 0.46403 0.23958 0.80236
 C2417 C 0.91296 0.67822 0.79490
 C2418 C 0.90590 0.68729 0.81001
 C2419 C 0.91330 0.70421 0.81466
 C2420 C 0.92739 0.71192 0.80434
 C2421 C 0.93423 0.70263 0.78919
 C2422 C 0.92695 0.68579 0.78462
 C2423 C 0.94816 0.71033 0.77876
 C2424 C 0.95544 0.72731 0.78319
 C2425 C 0.94863 0.73643 0.79836
 C2426 C 0.93474 0.72881 0.80884
 H2427 H 0.90818 0.71141 0.82627
 H2428 H 0.93201 0.67848 0.77304
 H2429 H 0.95326 0.70311 0.76712
 H2430 H 0.92971 0.73616 0.82041
 H2431 H 0.90764 0.66528 0.79076
 H2432 H 0.95397 0.74953 0.80211
 C2433 C 0.91936 0.21449 0.32726
 C2434 C 0.91381 0.19819 0.31925
 C2435 C 0.92344 0.19178 0.30418
 C2436 C 0.93809 0.20163 0.29702
 C2437 C 0.94335 0.21808 0.30508
 C2438 C 0.93399 0.22431 0.32026
 C2439 C 0.95771 0.22817 0.29766
 C2440 C 0.96681 0.22212 0.28216
 C2441 C 0.96162 0.20560 0.27439
 C2442 C 0.94742 0.19543 0.28178
 H2443 H 0.91956 0.17919 0.29788
 H2444 H 0.93784 0.23690 0.32662
 H2445 H 0.96154 0.24089 0.30379
 H2446 H 0.94360 0.18282 0.27544
 H2447 H 0.91229 0.21990 0.33882
 H2448 H 0.96842 0.20059 0.26246
 C2449 C 0.32083 0.29673 0.57127
 C2450 C 0.31124 0.30987 0.58122
 C2451 C 0.29346 0.31474 0.57587
 C2452 C 0.28524 0.30627 0.56115
 C2453 C 0.29491 0.29281 0.55155
 C2454 C 0.31276 0.28829 0.55660
 C2455 C 0.28651 0.28391 0.53720
 C2456 C 0.26850 0.28826 0.53227
 C2457 C 0.25910 0.30190 0.54170
 C2458 C 0.26738 0.31081 0.55602
 H2459 H 0.28580 0.32477 0.58337
 H2460 H 0.32043 0.27810 0.54931
 H2461 H 0.29396 0.27348 0.53001
 H2462 H 0.25975 0.32112 0.56320
 H2463 H 0.33463 0.29287 0.57481
 H2464 H 0.24521 0.30552 0.53819
 C2465 C 0.31447 0.78765 0.06981
 C2466 C 0.30840 0.80427 0.07689
 C2467 C 0.29334 0.81303 0.06879
 C2468 C 0.28429 0.80515 0.05422
 C2469 C 0.29041 0.78835 0.04745
 C2470 C 0.30559 0.77980 0.05522
 C2471 C 0.28105 0.78023 0.03321
 C2472 C 0.26546 0.78856 0.02575
 C2473 C 0.25966 0.80542 0.03243
 C2474 C 0.26902 0.81367 0.04650
 H2475 H 0.28841 0.82586 0.07386
 H2476 H 0.31047 0.76690 0.05017
 H2477 H 0.28572 0.76723 0.02822
 H2478 H 0.26416 0.82659 0.05151
 H2479 H 0.32598 0.78052 0.07559
 H2480 H 0.24775 0.81215 0.02690
 C2481 C 0.78860 0.31369 0.08918
 C2482 C 0.80655 0.30852 0.09366
 C2483 C 0.81555 0.29558 0.08296
 C2484 C 0.80670 0.28766 0.06830
 C2485 C 0.78859 0.29277 0.06408
 C2486 C 0.77972 0.30590 0.07454
 C2487 C 0.77960 0.28448 0.04966
 C2488 C 0.78846 0.27101 0.03949
 C2489 C 0.80658 0.26627 0.04370
 C2490 C 0.81562 0.27454 0.05792
 H2491 H 0.82944 0.29156 0.08598
 H2492 H 0.76583 0.31001 0.07151
 H2493 H 0.76563 0.28827 0.04660
 H2494 H 0.82953 0.27050 0.06093
 H2495 H 0.78124 0.32354 0.09714
 H2496 H 0.81379 0.25601 0.03607
 C2497 C 0.82009 0.78904 0.58120
 C2498 C 0.81048 0.80417 0.58788
 C2499 C 0.79394 0.80923 0.57965
 C2500 C 0.78693 0.79920 0.56529
 C2501 C 0.79660 0.78390 0.55891
 C2502 C 0.81322 0.77903 0.56687
 C2503 C 0.78937 0.77362 0.54483
 C2504 C 0.77251 0.77838 0.53707
 C2505 C 0.76314 0.79377 0.54341
 C2506 C 0.77029 0.80409 0.55736
 H2507 H 0.78628 0.82081 0.58446
 H2508 H 0.82085 0.76737 0.56213
 H2509 H 0.79676 0.76180 0.54010
 H2510 H 0.76271 0.81579 0.56205
 H2511 H 0.83290 0.78476 0.58704
 H2512 H 0.75015 0.79778 0.53767
 C2513 C 0.27724 0.68551 0.41316
 C2514 C 0.29428 0.69288 0.40832
 C2515 C 0.30120 0.70733 0.41850
 C2516 C 0.29128 0.71419 0.43323
 C2517 C 0.27427 0.70651 0.43789
 C2518 C 0.26741 0.69219 0.42777
 C2519 C 0.26428 0.71334 0.45249
 C2520 C 0.27092 0.72795 0.46253
 C2521 C 0.28790 0.73549 0.45784
 C2522 C 0.29800 0.72865 0.44338
 H2523 H 0.31426 0.71322 0.41507
 H2524 H 0.25436 0.68617 0.43110
 H2525 H 0.25119 0.70742 0.45587
 H2526 H 0.31101 0.73474 0.44007
 H2527 H 0.27125 0.67457 0.40567
 H2528 H 0.29338 0.74676 0.46532
 C2529 C 0.31876 0.21374 0.91561
 C2530 C 0.31116 0.19687 0.91120
 C2531 C 0.29683 0.19004 0.92184
 C2532 C 0.29003 0.20003 0.93643
 C2533 C 0.29769 0.21703 0.94055
 C2534 C 0.31212 0.22370 0.93013
 C2535 C 0.29062 0.22722 0.95484
 C2536 C 0.27585 0.22073 0.96504
 C2537 C 0.26849 0.20367 0.96098
 C2538 C 0.27554 0.19340 0.94683
 H2539 H 0.29087 0.17702 0.91882
 H2540 H 0.31815 0.23672 0.93309
 H2541 H 0.29643 0.24036 0.95779
 H2542 H 0.26952 0.18037 0.94390
 H2543 H 0.32970 0.21951 0.90772
 H2544 H 0.25713 0.19831 0.96862
 C2545 C 0.78043 0.68522 0.91701
 C2546 C 0.79798 0.69132 0.91229
 C2547 C 0.80594 0.70521 0.92251
 C2548 C 0.79656 0.71270 0.93726
 C2549 C 0.77903 0.70624 0.94186
 C2550 C 0.77109 0.69255 0.93162
 C2551 C 0.76965 0.71358 0.95658
 C2552 C 0.77744 0.72746 0.96684
 C2553 C 0.79488 0.73386 0.96216
 C2554 C 0.80437 0.72652 0.94754
 H2555 H 0.81944 0.71010 0.91916
 H2556 H 0.75762 0.68751 0.93490
 H2557 H 0.75618 0.70854 0.95993
 H2558 H 0.81779 0.73168 0.94425
 H2559 H 0.77369 0.67479 0.90939
 H2560 H 0.80121 0.74455 0.96982
 C2561 C 0.78905 0.18113 0.42221
 C2562 C 0.80687 0.18627 0.41736
 C2563 C 0.81582 0.19937 0.42778
 C2564 C 0.80699 0.20769 0.44228
 C2565 C 0.78900 0.20267 0.44684
 C2566 C 0.78022 0.18922 0.43684
 C2567 C 0.78001 0.21144 0.46108
 C2568 C 0.78872 0.22539 0.47059
 C2569 C 0.80671 0.23007 0.46600
 C2570 C 0.81580 0.22123 0.45206
 H2571 H 0.82964 0.20337 0.42458
 H2572 H 0.76641 0.18517 0.44014
 H2573 H 0.76611 0.20774 0.46442
 H2574 H 0.82962 0.22522 0.44874
 H2575 H 0.78176 0.17111 0.41452
 H2576 H 0.81377 0.24068 0.47314
 C2577 C 0.68902 0.28213 0.42312
 C2578 C 0.69583 0.29871 0.41656
 C2579 C 0.71109 0.30637 0.42506
 C2580 C 0.71949 0.29758 0.43965
 C2581 C 0.71256 0.28091 0.44601
 C2582 C 0.69728 0.27335 0.43768
 C2583 C 0.72113 0.27201 0.46047
 C2584 C 0.73666 0.27951 0.46859
 C2585 C 0.74333 0.29618 0.46220
 C2586 C 0.73481 0.30514 0.44791
 H2587 H 0.71657 0.31913 0.42038
 H2588 H 0.69177 0.26057 0.44236
 H2589 H 0.71584 0.25915 0.46521
 H2590 H 0.74030 0.31793 0.44323
 H2591 H 0.67736 0.27577 0.41697
 H2592 H 0.75523 0.30232 0.46820
 C2593 C 0.67544 0.78846 0.92875
 C2594 C 0.68411 0.80382 0.92146
 C2595 C 0.70045 0.80983 0.92930
 C2596 C 0.70827 0.80032 0.94375
 C2597 C 0.69963 0.78465 0.95055
 C2598 C 0.68312 0.77897 0.94311
 C2599 C 0.70778 0.77468 0.96445
 C2600 C 0.72458 0.78008 0.97168
 C2601 C 0.73287 0.79596 0.96516
 C2602 C 0.72478 0.80599 0.95131
 H2603 H 0.70735 0.82163 0.92400
 H2604 H 0.67626 0.76704 0.94824
 H2605 H 0.70118 0.76252 0.96940
 H2606 H 0.73159 0.81801 0.94632
 H2607 H 0.66276 0.78351 0.92332
 H2608 H 0.74580 0.80043 0.97051
 C2609 C 0.21847 0.31782 0.91539
 C2610 C 0.20136 0.31088 0.91040
 C2611 C 0.19401 0.29636 0.92037
 C2612 C 0.20364 0.28892 0.93500
 C2613 C 0.22080 0.29609 0.93975
 C2614 C 0.22805 0.31054 0.92990
 C2615 C 0.23056 0.28861 0.95418
 C2616 C 0.22352 0.27389 0.96398
 C2617 C 0.20636 0.26691 0.95926
 C2618 C 0.19650 0.27438 0.94492
 H2619 H 0.18085 0.29083 0.91682
 H2620 H 0.24122 0.31615 0.93333
 H2621 H 0.24377 0.29414 0.95762
 H2622 H 0.18336 0.26869 0.94151
 H2623 H 0.22473 0.32881 0.90802
 H2624 H 0.20059 0.25558 0.96658
 C2625 C 0.20866 0.82133 0.41805
 C2626 C 0.19262 0.81358 0.41115
 C2627 C 0.18531 0.79828 0.41989
 C2628 C 0.19408 0.79060 0.43487
 C2629 C 0.21034 0.79834 0.44142
 C2630 C 0.21741 0.81381 0.43301
 C2631 C 0.21943 0.79030 0.45605
 C2632 C 0.21257 0.77445 0.46411
 C2633 C 0.19618 0.76708 0.45764
 C2634 C 0.18702 0.77510 0.44321
 H2635 H 0.17294 0.79211 0.41497
 H2636 H 0.22984 0.81997 0.43785
 H2637 H 0.23206 0.79612 0.46084
 H2638 H 0.17454 0.76898 0.43840
 H2639 H 0.21471 0.83312 0.41183
 H2640 H 0.19053 0.75492 0.46360
 C2641 C 0.67826 0.70492 0.57789
 C2642 C 0.68862 0.69160 0.58691
 C2643 C 0.70640 0.68772 0.58079
 C2644 C 0.71385 0.69734 0.56622
 C2645 C 0.70340 0.71096 0.55759
 C2646 C 0.68557 0.71451 0.56342
 C2647 C 0.71097 0.72096 0.54339
 C2648 C 0.72893 0.71757 0.53762
 C2649 C 0.73914 0.70378 0.54608
 C2650 C 0.73167 0.69377 0.56027
 H2651 H 0.71462 0.67755 0.58755
 H2652 H 0.67732 0.72482 0.55687
 H2653 H 0.70291 0.73150 0.53696
 H2654 H 0.73990 0.68336 0.56668
 H2655 H 0.66444 0.70807 0.58197
 H2656 H 0.75301 0.70087 0.54190
 C2657 C 0.68629 0.19812 0.07320
 C2658 C 0.69673 0.18694 0.08464
 C2659 C 0.71537 0.18421 0.08079
 C2660 C 0.72360 0.19328 0.06622
 C2661 C 0.71300 0.20505 0.05537
 C2662 C 0.69433 0.20709 0.05876
 C2663 C 0.72125 0.21494 0.04152
 C2664 C 0.74005 0.21331 0.03819
 C2665 C 0.75046 0.20110 0.04855
 C2666 C 0.74230 0.19121 0.06251
 H2667 H 0.72360 0.17561 0.08943
 H2668 H 0.68598 0.21589 0.05043
 H2669 H 0.71303 0.22413 0.03347
 H2670 H 0.75067 0.18218 0.07059
 H2671 H 0.67184 0.20016 0.07547
 H2672 H 0.76497 0.19959 0.04618
 C2673 C 0.20971 0.69299 0.07563
 C2674 C 0.19398 0.70078 0.08336
 C2675 C 0.18594 0.71596 0.07496
 C2676 C 0.19382 0.72352 0.05939
 C2677 C 0.20981 0.71570 0.05203
 C2678 C 0.21752 0.70035 0.06015
 C2679 C 0.21802 0.72347 0.03681
 C2680 C 0.21058 0.73913 0.02882
 C2681 C 0.19452 0.74669 0.03609
 C2682 C 0.18621 0.73895 0.05120
 H2683 H 0.17384 0.72216 0.08072
 H2684 H 0.22971 0.69410 0.05463
 H2685 H 0.23041 0.71750 0.03141
 H2686 H 0.17395 0.74516 0.05661
 H2687 H 0.21608 0.68110 0.08147
 H2688 H 0.18848 0.75876 0.03023
 C2689 C 0.17434 0.21573 0.57396
 C2690 C 0.18425 0.20063 0.58030
 C2691 C 0.20109 0.19634 0.57229
 C2692 C 0.20810 0.20711 0.55838
 C2693 C 0.19818 0.22243 0.55230
 C2694 C 0.18124 0.22654 0.56009
 C2695 C 0.20543 0.23344 0.53865
 C2696 C 0.22250 0.22930 0.53098
 C2697 C 0.23210 0.21387 0.53701
 C2698 C 0.22497 0.20289 0.55057
 H2699 H 0.20878 0.18461 0.57683
 H2700 H 0.17342 0.23821 0.55560
 H2701 H 0.19787 0.24527 0.53411
 H2702 H 0.23273 0.19117 0.55504
 H2703 H 0.16139 0.21948 0.57992
 H2704 H 0.24526 0.21033 0.53135
   
