data_POSCAR
  _audit_creation_date              2014-09-24
  _audit_creation_method            'ToBaCCo'
  _symmetry_space_group_name_H-M    'P1'
  _symmetry_Int_Tables_number       1
  _symmetry_cell_setting            triclinic
  loop_
  _symmetry_equiv_pos_as_xyz
 x,y,z
_cell_length_a 48.6146
_cell_length_b 48.6834
_cell_length_c 48.7515
_cell_angle_alpha 89.927400
_cell_angle_beta 90.006000
_cell_angle_gamma 90.050400
loop_
  _atom_site_label
  _atom_site_type_symbol
  _atom_site_fract_x
  _atom_site_fract_y
  _atom_site_fract_z
C1 C 0.26294 1.07061 0.00153
 C2 C 0.25714 1.05712 0.02639
 C3 C 0.24951 1.02920 0.02529
 C4 C 0.25084 1.01413 0.00046
 C5 C 0.25798 1.02846 -0.02383
 C6 C 0.26340 1.05684 -0.02375
 C7 C 0.24644 0.98338 0.00007
 C8 C 0.24158 0.96919 -0.02490
 C9 C 0.24073 0.94039 -0.02575
 C10 C 0.24161 0.92567 -0.00115
 C11 C 0.24622 0.93884 0.02387
 C12 C 0.24900 0.96751 0.02438
 H13 H 0.26508 1.09272 0.00174
 H14 H 0.24385 1.01901 0.04407
 H15 H 0.26103 1.01752 -0.04278
 H16 H 0.23940 0.98006 -0.04406
 H17 H 0.23954 0.90350 -0.00160
 H18 H 0.25445 0.97682 0.04370
 C19 C 0.75026 0.57916 0.49525
 C20 C 0.75214 0.56608 0.52076
 C21 C 0.75043 0.53730 0.52192
 C22 C 0.74554 0.52148 0.49804
 C23 C 0.74316 0.53558 0.47267
 C24 C 0.74682 0.56412 0.47109
 C25 C 0.74426 0.49052 0.49950
 C26 C 0.74843 0.47426 0.47581
 C27 C 0.74737 0.44547 0.47700
 C28 C 0.74405 0.43268 0.50250
 C29 C 0.73963 0.44798 0.52638
 C30 C 0.73914 0.47679 0.52465
 H31 H 0.75161 0.60135 0.49405
 H32 H 0.75388 0.52755 0.54152
 H33 H 0.73920 0.52477 0.45379
 H34 H 0.75239 0.48359 0.45616
 H35 H 0.74527 0.41050 0.50381
 H36 H 0.73433 0.48814 0.54305
 C37 C 0.74590 1.00519 1.07273
 C38 C 0.74304 0.98013 1.05882
 C39 C 0.74633 0.98011 1.03017
 C40 C 0.75347 1.00426 1.01560
 C41 C 0.75641 1.02901 1.03061
 C42 C 0.75120 1.03010 1.05906
 C43 C 0.75660 1.00362 0.98477
 C44 C 0.75436 1.02784 0.96876
 C45 C 0.75691 1.02711 0.94005
 C46 C 0.75969 1.00165 0.92704
 C47 C 0.76219 0.97731 0.94213
 C48 C 0.76148 0.97856 0.97088
 H49 H 0.74603 1.00499 1.09491
 H50 H 0.74179 0.96141 1.01922
 H51 H 0.76173 1.04769 1.02008
 H52 H 0.75070 1.04748 0.97824
 H53 H 0.75942 1.00073 0.90485
 H54 H 0.76504 0.95976 0.98210
 C55 C 0.25080 0.49593 0.57446
 C56 C 0.24687 0.47135 0.56024
 C57 C 0.24658 0.47164 0.53149
 C58 C 0.25100 0.49629 0.51662
 C59 C 0.25481 0.52086 0.53182
 C60 C 0.25348 0.52097 0.56063
 C61 C 0.25065 0.49652 0.48562
 C62 C 0.24652 0.52130 0.47090
 C63 C 0.24642 0.52182 0.44213
 C64 C 0.24924 0.49713 0.42780
 C65 C 0.25142 0.47201 0.44158
 C66 C 0.25345 0.47191 0.47030
 H67 H 0.25151 0.49553 0.59668
 H68 H 0.24194 0.45259 0.52121
 H69 H 0.25825 0.54021 0.52164
 H70 H 0.24244 0.54037 0.48136
 H71 H 0.24943 0.49732 0.40557
 H72 H 0.25653 0.45238 0.48029
 C73 C 1.07839 0.23851 -0.00210
 C74 C 1.06549 0.24281 0.02338
 C75 C 1.03661 0.24587 0.02347
 C76 C 1.02068 0.24159 -0.00049
 C77 C 1.03453 0.23514 -0.02510
 C78 C 1.06331 0.23434 -0.02618
 C79 C 0.98977 0.24329 0.00040
 C80 C 0.97417 0.24889 -0.02356
 C81 C 0.94508 0.24931 -0.02298
 C82 C 0.93217 0.24714 0.00278
 C83 C 0.94696 0.24150 0.02669
 C84 C 0.97553 0.23881 0.02525
 H85 H 1.10056 0.23954 -0.00366
 H86 H 1.02637 0.25064 0.04243
 H87 H 1.02324 0.23029 -0.04355
 H88 H 0.98464 0.25192 -0.04278
 H89 H 0.91029 0.25077 0.00468
 H90 H 0.98628 0.23273 0.04367
 C91 C 0.57205 0.74457 0.49468
 C92 C 0.55827 0.75052 0.51923
 C93 C 0.52941 0.75163 0.51920
 C94 C 0.51405 0.74504 0.49551
 C95 C 0.52856 0.73831 0.47135
 C96 C 0.55743 0.73894 0.47051
 C97 C 0.48314 0.74531 0.49609
 C98 C 0.46762 0.74864 0.47172
 C99 C 0.43874 0.74827 0.47231
 C100 C 0.42533 0.74680 0.49764
 C101 C 0.43997 0.74308 0.52203
 C102 C 0.46876 0.74186 0.52110
 H103 H 0.59431 0.74441 0.49434
 H104 H 0.51918 0.75814 0.53776
 H105 H 0.51769 0.73213 0.45305
 H106 H 0.47768 0.75118 0.45214
 H107 H 0.40313 0.74854 0.49834
 H108 H 0.47965 0.73758 0.53995
 C109 C -0.00258 0.74584 -0.07588
 C110 C 0.02216 0.74920 -0.06166
 C111 C 0.02139 0.75297 -0.03320
 C112 C -0.00366 0.75139 -0.01853
 C113 C -0.02827 0.74716 -0.03346
 C114 C -0.02808 0.74453 -0.06227
 C115 C -0.00387 0.75326 0.01226
 C116 C -0.02777 0.76138 0.02673
 C117 C -0.02797 0.76321 0.05564
 C118 C -0.00337 0.75756 0.06981
 C119 C 0.02039 0.74915 0.05605
 C120 C 0.01994 0.74665 0.02751
 H121 H -0.00180 0.74547 -0.09806
 H122 H 0.04056 0.75673 -0.02267
 H123 H -0.04744 0.74427 -0.02264
 H124 H -0.04594 0.76754 0.01557
 H125 H -0.00274 0.75829 0.09199
 H126 H 0.03814 0.73872 0.01758
 C127 C 0.50228 0.25539 0.42732
 C128 C 0.52705 0.26239 0.44029
 C129 C 0.52758 0.26470 0.46900
 C130 C 0.50381 0.25935 0.48482
 C131 C 0.47920 0.25230 0.47111
 C132 C 0.47825 0.25066 0.44244
 C133 C 0.50475 0.26057 0.51547
 C134 C 0.48085 0.26677 0.53076
 C135 C 0.48124 0.26645 0.55953
 C136 C 0.50596 0.26079 0.57313
 C137 C 0.53007 0.25507 0.55852
 C138 C 0.52934 0.25476 0.52978
 H139 H 0.50162 0.25358 0.40519
 H140 H 0.54647 0.27115 0.47879
 H141 H 0.46080 0.24726 0.48254
 H142 H 0.46188 0.27216 0.52049
 H143 H 0.50642 0.26051 0.59535
 H144 H 0.54781 0.24904 0.51882
 C145 C 1.06975 -0.00486 0.25193
 C146 C 1.05704 0.02093 0.25450
 C147 C 1.02819 0.02219 0.25167
 C148 C 1.01234 -0.00151 0.24561
 C149 C 1.02620 -0.02688 0.24283
 C150 C 1.05461 -0.02880 0.24710
 C151 C 0.98146 0.00020 0.24331
 C152 C 0.96456 -0.02321 0.24744
 C153 C 0.93559 -0.02177 0.24516
 C154 C 0.92381 0.00434 0.24128
 C155 C 0.93989 0.02776 0.23697
 C156 C 0.96856 0.02544 0.23718
 H157 H 1.09194 -0.00653 0.25262
 H158 H 1.01806 0.04145 0.25586
 H159 H 1.01519 -0.04546 0.23781
 H160 H 0.97398 -0.04270 0.25178
 H161 H 0.90179 0.00701 0.24292
 H162 H 0.98054 0.04353 0.23240
 C163 C 0.57325 0.50186 0.74842
 C164 C 0.55954 0.52701 0.75077
 C165 C 0.53072 0.52738 0.75021
 C166 C 0.51541 0.50300 0.74626
 C167 C 0.52992 0.47788 0.74392
 C168 C 0.55873 0.47710 0.74612
 C169 C 0.48452 0.50384 0.74556
 C170 C 0.46875 0.48051 0.75268
 C171 C 0.43988 0.48120 0.75208
 C172 C 0.42660 0.50589 0.74556
 C173 C 0.44160 0.52960 0.73908
 C174 C 0.47043 0.52821 0.73834
 H175 H 0.59553 0.50149 0.74851
 H176 H 0.52048 0.54674 0.75376
 H177 H 0.51907 0.45875 0.74096
 H178 H 0.47861 0.46181 0.75942
 H179 H 0.40434 0.50669 0.74571
 H180 H 0.48161 0.54627 0.73183
 C181 C 1.01033 1.07654 0.75654
 C182 C 0.98346 1.06606 0.75358
 C183 C 0.98049 1.03717 0.75174
 C184 C 1.00315 1.01920 0.75565
 C185 C 1.02924 1.03093 0.76064
 C186 C 1.03302 1.05937 0.76037
 C187 C 0.99958 0.98840 0.75537
 C188 C 1.02230 0.97074 0.75054
 C189 C 1.01978 0.94188 0.75242
 C190 C 0.99320 0.93101 0.75587
 C191 C 0.97037 0.94776 0.76058
 C192 C 0.97371 0.97631 0.76088
 H193 H 1.01416 1.09838 0.75496
 H194 H 0.96042 1.02857 0.74824
 H195 H 1.04688 1.01835 0.76544
 H196 H 1.04218 0.97949 0.74636
 H197 H 0.98977 0.90912 0.75410
 H198 H 0.95604 0.98867 0.76610
 C199 C 0.49796 0.57162 0.24364
 C200 C 0.47359 0.55787 0.25059
 C201 C 0.47356 0.52908 0.25216
 C202 C 0.49734 0.51377 0.24564
 C203 C 0.52116 0.52827 0.23736
 C204 C 0.52198 0.55705 0.23742
 C205 C 0.49789 0.48304 0.24857
 C206 C 0.52315 0.46930 0.25264
 C207 C 0.52427 0.44074 0.25539
 C208 C 0.49982 0.42565 0.25545
 C209 C 0.47424 0.43866 0.25298
 C210 C 0.47343 0.46720 0.24849
 H211 H 0.49826 0.59385 0.24337
 H212 H 0.45509 0.51903 0.25933
 H213 H 0.53939 0.51745 0.23080
 H214 H 0.54220 0.48056 0.25461
 H215 H 0.50070 0.40349 0.25743
 H216 H 0.45364 0.47680 0.24553
 O217 O 0.25207 0.17171 0.21632
 O218 O 0.28353 0.16555 0.25502
 O219 O 0.18024 0.20477 0.25475
 O220 O 0.16948 0.24088 0.28068
 O221 O 0.21487 0.24176 0.18215
 O222 O 0.25190 0.27332 0.17468
 O223 O 0.25229 0.28254 0.32450
 O224 O 0.21974 0.24662 0.33193
 O225 O 0.32217 0.24251 0.29200
 O226 O 0.33177 0.21453 0.25603
 O227 O 0.28900 0.31494 0.25418
 O228 O 0.25017 0.32262 0.22259
 O229 O 0.25048 0.31468 0.29066
 O230 O 0.22057 0.32254 0.25090
 O231 O 0.32183 0.28190 0.25770
 O232 O 0.32999 0.24297 0.22315
 O233 O 0.28942 0.24543 0.32514
 O234 O 0.25133 0.21421 0.33377
 O235 O 0.25531 0.20496 0.18366
 O236 O 0.28311 0.24427 0.17524
 O237 O 0.18084 0.24283 0.21413
 O238 O 0.17382 0.27529 0.25224
 O239 O 0.21373 0.17211 0.25522
 O240 O 0.24991 0.16596 0.28659
 Zr241 Zr 0.25067 0.19421 0.25347
 O242 O 0.27599 0.21825 0.27890
 Zr243 Zr 0.20211 0.24222 0.25200
 O244 O 0.22540 0.26814 0.27795
 Zr245 Zr 0.25143 0.24211 0.20488
 O246 O 0.27657 0.26828 0.22823
 Zr247 Zr 0.25204 0.24499 0.30293
 O248 O 0.22620 0.21881 0.27940
 Zr249 Zr 0.30042 0.24453 0.25507
 O250 O 0.27765 0.21801 0.22934
 Zr251 Zr 0.25187 0.29248 0.25389
 O252 O 0.22642 0.26868 0.22785
 O253 O 0.22550 0.21658 0.22729
 O254 O 0.27769 0.27063 0.28022
 C255 C 0.25502 0.17974 0.19133
 C256 C 0.18843 0.17964 0.25622
 C257 C 0.18943 0.24245 0.18916
 C258 C 0.25092 0.30751 0.31599
 C259 C 0.31456 0.24335 0.31717
 C260 C 0.31412 0.30710 0.25657
 H261 H 0.28753 0.20578 0.29004
 H262 H 0.28807 0.27960 0.21590
 H263 H 0.21407 0.20444 0.21566
 H264 H 0.21283 0.27938 0.28923
 H265 H 0.20586 0.23292 0.32610
 H266 H 0.17540 0.25143 0.29697
 H267 H 0.32952 0.26063 0.21310
 H268 H 0.29843 0.23290 0.18228
 H269 H 0.26556 0.20042 0.32934
 H270 H 0.23691 0.17327 0.30040
 H271 H 0.26470 0.31835 0.20905
 H272 H 0.23867 0.28752 0.18076
 H273 H 0.27642 0.14706 0.25012
 H274 H 0.32339 0.19738 0.24910
 H275 H 0.17928 0.28791 0.23726
 H276 H 0.20658 0.31836 0.26504
 O277 O 0.74014 0.82260 0.20885
 O278 O 0.70789 0.82444 0.24799
 O279 O 0.81393 0.79233 0.24878
 O280 O 0.82579 0.75509 0.27352
 O281 O 0.78514 0.75650 0.17279
 O282 O 0.74915 0.72331 0.16337
 O283 O 0.74850 0.70881 0.31205
 O284 O 0.77642 0.74896 0.32126
 O285 O 0.67416 0.74332 0.28039
 O286 O 0.66807 0.77994 0.24068
 O287 O 0.71036 0.67767 0.23968
 O288 O 0.75084 0.67278 0.20903
 O289 O 0.74697 0.67708 0.27788
 O290 O 0.77926 0.67215 0.23908
 O291 O 0.67622 0.70955 0.23949
 O292 O 0.66401 0.74730 0.21471
 O293 O 0.70712 0.74069 0.31331
 O294 O 0.73846 0.77354 0.32585
 O295 O 0.74383 0.79193 0.17390
 O296 O 0.71657 0.75209 0.16360
 O297 O 0.81692 0.75733 0.20698
 O298 O 0.82481 0.72290 0.24284
 O299 O 0.77921 0.82364 0.24625
 O300 O 0.74349 0.82783 0.27791
 Zr301 Zr 0.74348 0.79935 0.24506
 O302 O 0.71908 0.77317 0.26938
 Zr303 Zr 0.79438 0.75397 0.24351
 O304 O 0.77198 0.72547 0.26723
 Zr305 Zr 0.74736 0.75378 0.19418
 O306 O 0.72241 0.72596 0.21610
 Zr307 Zr 0.74414 0.74665 0.29223
 O308 O 0.76867 0.77539 0.27083
 Zr309 Zr 0.69659 0.74720 0.24343
 O310 O 0.71897 0.77522 0.21883
 Zr311 Zr 0.74693 0.70113 0.24167
 O312 O 0.77237 0.72727 0.21749
 O313 O 0.77064 0.77942 0.21892
 O314 O 0.71984 0.72096 0.26812
 C315 C 0.74054 0.81641 0.18323
 C316 C 0.80479 0.81716 0.24837
 C317 C 0.81008 0.75807 0.18153
 C318 C 0.74859 0.68400 0.30329
 C319 C 0.68193 0.74042 0.30545
 C320 C 0.68487 0.68469 0.23845
 H321 H 0.70691 0.78412 0.28137
 H322 H 0.71167 0.71501 0.20281
 H323 H 0.78167 0.79261 0.20805
 H324 H 0.78499 0.71437 0.27818
 H325 H 0.78726 0.76567 0.31697
 H326 H 0.81928 0.74428 0.28942
 H327 H 0.67153 0.74003 0.19732
 H328 H 0.70143 0.76413 0.16989
 H329 H 0.73377 0.79175 0.31826
 H330 H 0.75742 0.82152 0.29133
 H331 H 0.73647 0.67712 0.19534
 H332 H 0.76331 0.70992 0.16923
 H333 H 0.71284 0.84357 0.24296
 H334 H 0.66581 0.78783 0.25924
 H335 H 0.81988 0.71018 0.22779
 H336 H 0.79285 0.67669 0.25348
 O337 O 0.75974 0.18364 0.78605
 O338 O 0.72927 0.17501 0.74738
 O339 O 0.82825 0.22317 0.74975
 O340 O 0.83401 0.26254 0.72099
 O341 O 0.79145 0.25568 0.82139
 O342 O 0.75172 0.28341 0.82998
 O343 O 0.74912 0.29529 0.68043
 O344 O 0.78500 0.25970 0.67094
 O345 O 0.68385 0.25067 0.71190
 O346 O 0.67673 0.22038 0.74702
 O347 O 0.71167 0.32354 0.75184
 O348 O 0.74983 0.33460 0.78187
 O349 O 0.74819 0.32760 0.71401
 O350 O 0.77965 0.33651 0.75370
 O351 O 0.68077 0.28866 0.74808
 O352 O 0.67632 0.24780 0.78085
 O353 O 0.71656 0.25490 0.67886
 O354 O 0.75856 0.22782 0.67004
 O355 O 0.75458 0.21533 0.81992
 O356 O 0.72265 0.25192 0.82828
 O357 O 0.82518 0.26035 0.78938
 O358 O 0.83059 0.29270 0.75177
 O359 O 0.79824 0.18724 0.74843
 O360 O 0.76255 0.17960 0.71542
 Zr361 Zr 0.75938 0.20655 0.74939
 O362 O 0.73184 0.22890 0.72462
 Zr363 Zr 0.80360 0.25863 0.75172
 O364 O 0.77841 0.28294 0.72614
 Zr365 Zr 0.75470 0.25321 0.79899
 O366 O 0.72771 0.27790 0.77604
 Zr367 Zr 0.75374 0.25773 0.70114
 O368 O 0.78178 0.23354 0.72408
 Zr369 Zr 0.70545 0.25290 0.74891
 O370 O 0.73050 0.22760 0.77397
 Zr371 Zr 0.75028 0.30451 0.75057
 O372 O 0.77737 0.28241 0.77643
 O373 O 0.78247 0.23059 0.77593
 O374 O 0.72615 0.28098 0.72409
 C375 C 0.75705 0.19048 0.81137
 C376 C 0.82275 0.19732 0.74871
 C377 C 0.81679 0.25844 0.81437
 C378 C 0.74734 0.32025 0.68872
 C379 C 0.69150 0.25177 0.68674
 C380 C 0.68701 0.31426 0.75022
 H381 H 0.72135 0.21579 0.71319
 H382 H 0.71553 0.28802 0.78871
 H383 H 0.79483 0.21936 0.78751
 H384 H 0.78998 0.29550 0.71515
 H385 H 0.79641 0.27610 0.67468
 H386 H 0.82773 0.25120 0.70535
 H387 H 0.67628 0.26470 0.79211
 H388 H 0.70900 0.23848 0.82145
 H389 H 0.74520 0.21292 0.67368
 H390 H 0.77634 0.18751 0.70271
 H391 H 0.73716 0.32812 0.79638
 H392 H 0.76376 0.29881 0.82428
 H393 H 0.73819 0.15715 0.75159
 H394 H 0.68671 0.20371 0.75297
 H395 H 0.82326 0.30584 0.76541
 H396 H 0.79252 0.33484 0.73808
 O397 O 0.24418 0.82379 0.78334
 O398 O 0.27498 0.83156 0.74451
 O399 O 0.17482 0.78589 0.74730
 O400 O 0.16536 0.74981 0.72073
 O401 O 0.21158 0.75164 0.81908
 O402 O 0.25064 0.72282 0.82624
 O403 O 0.24937 0.71253 0.67613
 O404 O 0.21544 0.74694 0.66856
 O405 O 0.31834 0.75349 0.70772
 O406 O 0.32562 0.78553 0.74188
 O407 O 0.28848 0.68285 0.74374
 O408 O 0.25209 0.67238 0.77770
 O409 O 0.24954 0.68040 0.71002
 O410 O 0.22052 0.67158 0.75115
 O411 O 0.32044 0.71697 0.74411
 O412 O 0.32623 0.75766 0.77662
 O413 O 0.28474 0.74939 0.67554
 O414 O 0.24566 0.78090 0.66688
 O415 O 0.24909 0.79122 0.81651
 O416 O 0.28050 0.75385 0.82448
 O417 O 0.17807 0.74750 0.78675
 O418 O 0.17182 0.71555 0.74830
 O419 O 0.20552 0.82122 0.74585
 O420 O 0.24124 0.82829 0.71271
 Zr421 Zr 0.24392 0.80096 0.74648
 O422 O 0.27059 0.77805 0.72113
 Zr423 Zr 0.19854 0.74995 0.74880
 O424 O 0.22258 0.72535 0.72267
 Zr425 Zr 0.24797 0.75355 0.79568
 O426 O 0.27415 0.72849 0.77213
 Zr427 Zr 0.24761 0.75004 0.69761
 O428 O 0.22056 0.77479 0.72106
 Zr429 Zr 0.29668 0.75327 0.74496
 O430 O 0.27252 0.77886 0.77057
 Zr431 Zr 0.25046 0.70288 0.74673
 O432 O 0.22430 0.72529 0.77310
 O433 O 0.22051 0.77712 0.77311
 O434 O 0.27472 0.72608 0.72027
 C435 C 0.24713 0.81630 0.80849
 C436 C 0.18083 0.81161 0.74639
 C437 C 0.18635 0.74862 0.81177
 C438 C 0.24958 0.68753 0.68466
 C439 C 0.31010 0.75093 0.68283
 C440 C 0.31340 0.69152 0.74284
 H441 H 0.28158 0.79074 0.70968
 H442 H 0.28635 0.71782 0.78435
 H443 H 0.20845 0.78840 0.78494
 H444 H 0.21043 0.71342 0.71160
 H445 H 0.20103 0.76011 0.67428
 H446 H 0.17185 0.74047 0.70393
 H447 H 0.32584 0.74083 0.78800
 H448 H 0.29416 0.76735 0.81775
 H449 H 0.26072 0.79418 0.67008
 H450 H 0.22784 0.82037 0.69963
 H451 H 0.26710 0.67726 0.79050
 H452 H 0.23944 0.70716 0.81966
 H453 H 0.26663 0.84964 0.74885
 H454 H 0.31678 0.80187 0.75005
 H455 H 0.17788 0.70308 0.76317
 H456 H 0.20691 0.67386 0.73623
 O457 O 0.25013 0.31821 0.71519
 O458 O 0.21708 0.32033 0.75340
 O459 O 0.32430 0.29238 0.75595
 O460 O 0.33771 0.25688 0.78226
 O461 O 0.29688 0.25220 0.68174
 O462 O 0.26233 0.21762 0.67350
 O463 O 0.26132 0.20901 0.82298
 O464 O 0.28737 0.24881 0.83161
 O465 O 0.18615 0.24134 0.78908
 O466 O 0.17865 0.27307 0.74660
 O467 O 0.22572 0.17324 0.75376
 O468 O 0.26553 0.16869 0.72152
 O469 O 0.26322 0.17604 0.79003
 O470 O 0.29504 0.17118 0.75071
 O471 O 0.19039 0.20381 0.75458
 O472 O 0.17698 0.23819 0.72333
 O473 O 0.21882 0.23891 0.82233
 O474 O 0.25218 0.27620 0.83261
 O475 O 0.25440 0.28612 0.68153
 O476 O 0.22834 0.24493 0.67314
 O477 O 0.32871 0.25624 0.71567
 O478 O 0.33788 0.22311 0.75261
 O479 O 0.28816 0.32215 0.75494
 O480 O 0.25155 0.32585 0.78422
 Zr481 Zr 0.25359 0.29642 0.75233
 O482 O 0.23005 0.27038 0.77749
 Zr483 Zr 0.30636 0.25311 0.75237
 O484 O 0.28503 0.22495 0.77743
 Zr485 Zr 0.25933 0.24899 0.70328
 O486 O 0.23558 0.22087 0.72627
 Zr487 Zr 0.25612 0.24591 0.80157
 O488 O 0.27973 0.27440 0.77887
 Zr489 Zr 0.20897 0.24243 0.75247
 O490 O 0.23017 0.27039 0.72697
 Zr491 Zr 0.26121 0.19843 0.75289
 O492 O 0.28545 0.22452 0.72753
 O493 O 0.28158 0.27665 0.72694
 O494 O 0.23327 0.21841 0.77830
 C495 C 0.25053 0.31088 0.68987
 C496 C 0.31400 0.31673 0.75664
 C497 C 0.32172 0.25542 0.69027
 C498 C 0.26356 0.18394 0.81520
 C499 C 0.19368 0.23863 0.81418
 C500 C 0.20002 0.17932 0.75536
 H501 H 0.21729 0.28150 0.78866
 H502 H 0.22527 0.20863 0.71381
 H503 H 0.29216 0.28998 0.71579
 H504 H 0.29843 0.21487 0.78888
 H505 H 0.30001 0.26362 0.82562
 H506 H 0.33244 0.24530 0.79808
 H507 H 0.18458 0.22828 0.70737
 H508 H 0.21253 0.25601 0.67954
 H509 H 0.23499 0.28656 0.82945
 H510 H 0.26169 0.31802 0.79999
 H511 H 0.25007 0.17100 0.70853
 H512 H 0.27609 0.20435 0.68045
 H513 H 0.22153 0.33948 0.74798
 H514 H 0.17748 0.28393 0.76369
 H515 H 0.33377 0.21010 0.73756
 H516 H 0.30838 0.17674 0.76498
 O517 O 0.74856 0.68698 0.70615
 O518 O 0.78108 0.67936 0.74359
 O519 O 0.67694 0.71601 0.74767
 O520 O 0.66535 0.75053 0.77506
 O521 O 0.70947 0.75932 0.67651
 O522 O 0.74648 0.79038 0.66994
 O523 O 0.74902 0.79079 0.82057
 O524 O 0.71648 0.75452 0.82633
 O525 O 0.81827 0.75480 0.78479
 O526 O 0.82810 0.72920 0.74682
 O527 O 0.78277 0.82855 0.75107
 O528 O 0.74279 0.83716 0.72159
 O529 O 0.74880 0.82501 0.78878
 O530 O 0.71380 0.83391 0.75130
 O531 O 0.81640 0.79625 0.75351
 O532 O 0.82533 0.76005 0.71602
 O533 O 0.78596 0.75412 0.81851
 O534 O 0.74813 0.72183 0.82538
 O535 O 0.75012 0.72180 0.67505
 O536 O 0.77803 0.76184 0.66903
 O537 O 0.67603 0.75600 0.70896
 O538 O 0.66921 0.78671 0.74896
 O539 O 0.71117 0.68414 0.74578
 O540 O 0.74820 0.67694 0.77573
 Zr541 Zr 0.74749 0.70720 0.74442
 O542 O 0.77265 0.73020 0.77084
 Zr543 Zr 0.69786 0.75406 0.74644
 O544 O 0.72089 0.77887 0.77376
 Zr545 Zr 0.74646 0.75773 0.69858
 O546 O 0.77124 0.78317 0.72317
 Zr547 Zr 0.74833 0.75470 0.79678
 O548 O 0.72276 0.72953 0.77206
 Zr549 Zr 0.79608 0.75846 0.74824
 O550 O 0.77355 0.73291 0.72131
 Zr551 Zr 0.74642 0.80510 0.75072
 O552 O 0.72128 0.78234 0.72351
 O553 O 0.72138 0.73044 0.71989
 O554 O 0.77301 0.78214 0.77519
 C555 C 0.75053 0.69620 0.68150
 C556 C 0.68578 0.69107 0.74782
 C557 C 0.68413 0.75857 0.68394
 C558 C 0.74999 0.81625 0.81360
 C559 C 0.81103 0.75340 0.81008
 C560 C 0.80801 0.82128 0.75362
 H561 H 0.78460 0.71730 0.78101
 H562 H 0.78223 0.79555 0.71141
 H563 H 0.70992 0.71883 0.70776
 H564 H 0.70848 0.78921 0.78603
 H565 H 0.70258 0.74110 0.81992
 H566 H 0.67131 0.75994 0.79202
 H567 H 0.82434 0.77841 0.70737
 H568 H 0.79336 0.74998 0.67522
 H569 H 0.76304 0.70897 0.82038
 H570 H 0.73518 0.68291 0.79015
 H571 H 0.75698 0.83417 0.70737
 H572 H 0.73368 0.80444 0.67715
 H573 H 0.77438 0.66102 0.73770
 H574 H 0.82012 0.71249 0.73849
 H575 H 0.67442 0.80032 0.73478
 H576 H 0.70267 0.83054 0.76795
 O577 O 0.24459 0.67545 0.28813
 O578 O 0.21628 0.66537 0.24871
 O579 O 0.31676 0.71002 0.25110
 O580 O 0.32399 0.74676 0.21877
 O581 O 0.28158 0.74804 0.31950
 O582 O 0.24279 0.77780 0.32627
 O583 O 0.24426 0.78089 0.17618
 O584 O 0.27512 0.74208 0.16890
 O585 O 0.17379 0.74113 0.21001
 O586 O 0.16596 0.71239 0.24660
 O587 O 0.20410 0.81458 0.24596
 O588 O 0.24201 0.82659 0.27455
 O589 O 0.24133 0.81507 0.20770
 O590 O 0.27287 0.82488 0.24758
 O591 O 0.17196 0.78064 0.24450
 O592 O 0.16579 0.74209 0.27870
 O593 O 0.20663 0.74309 0.17690
 O594 O 0.24673 0.71252 0.16979
 O595 O 0.24397 0.70915 0.32043
 O596 O 0.21239 0.74691 0.32621
 O597 O 0.31511 0.75040 0.28701
 O598 O 0.32218 0.77902 0.24728
 O599 O 0.28539 0.67521 0.25166
 O600 O 0.25038 0.66720 0.21785
 Zr601 Zr 0.24733 0.69604 0.25026
 O602 O 0.22082 0.71797 0.22409
 Zr603 Zr 0.29355 0.74638 0.24974
 O604 O 0.26945 0.77009 0.22278
 Zr605 Zr 0.24467 0.74568 0.29718
 O606 O 0.21864 0.76991 0.27266
 Zr607 Zr 0.24396 0.74445 0.19911
 O608 O 0.27091 0.72054 0.22355
 Zr609 Zr 0.19544 0.74429 0.24691
 O610 O 0.21944 0.71967 0.27355
 Zr611 Zr 0.24204 0.79419 0.24566
 O612 O 0.26830 0.77267 0.27290
 O613 O 0.27134 0.72064 0.27550
 O614 O 0.21713 0.77013 0.22039
 C615 C 0.24338 0.68380 0.31310
 C616 C 0.31024 0.68442 0.25192
 C617 C 0.30688 0.74996 0.31206
 C618 C 0.24319 0.80635 0.18290
 C619 C 0.18146 0.74116 0.18484
 C620 C 0.17914 0.80602 0.24528
 H621 H 0.20975 0.70474 0.21337
 H622 H 0.20688 0.78121 0.28470
 H623 H 0.28306 0.70969 0.28799
 H624 H 0.28179 0.78140 0.21127
 H625 H 0.28932 0.75587 0.17356
 H626 H 0.31842 0.73283 0.20506
 H627 H 0.16733 0.75894 0.28992
 H628 H 0.19862 0.73318 0.32023
 H629 H 0.23259 0.69862 0.17433
 H630 H 0.26461 0.67399 0.20499
 H631 H 0.23060 0.82065 0.29027
 H632 H 0.25564 0.79223 0.31986
 H633 H 0.22439 0.64747 0.25421
 H634 H 0.17514 0.69612 0.25461
 H635 H 0.31533 0.79363 0.25961
 H636 H 0.28537 0.82227 0.23179
 O637 O 0.75504 0.32624 0.28875
 O638 O 0.78700 0.33357 0.25059
 O639 O 0.68357 0.29572 0.24817
 O640 O 0.67384 0.26203 0.21763
 O641 O 0.71294 0.25509 0.31907
 O642 O 0.75022 0.22333 0.32688
 O643 O 0.75532 0.21954 0.17691
 O644 O 0.72472 0.25719 0.16951
 O645 O 0.82600 0.25356 0.21340
 O646 O 0.83319 0.28505 0.24895
 O647 O 0.78983 0.18487 0.24502
 O648 O 0.75052 0.17598 0.27732
 O649 O 0.75222 0.18630 0.20956
 O650 O 0.72125 0.17737 0.24832
 O651 O 0.82381 0.21672 0.24911
 O652 O 0.83102 0.25528 0.28255
 O653 O 0.79371 0.25332 0.17964
 O654 O 0.75811 0.28792 0.17000
 O655 O 0.75211 0.29222 0.32074
 O656 O 0.78179 0.25326 0.32853
 O657 O 0.68145 0.25696 0.28464
 O658 O 0.67495 0.22607 0.24569
 O659 O 0.71693 0.32865 0.25028
 O660 O 0.75389 0.33456 0.21836
 Zr661 Zr 0.75363 0.30543 0.25071
 O662 O 0.77959 0.28163 0.22553
 Zr663 Zr 0.70441 0.25804 0.24827
 O664 O 0.72792 0.23250 0.22268
 Zr665 Zr 0.75101 0.25571 0.29798
 O666 O 0.77688 0.23009 0.27468
 Zr667 Zr 0.75579 0.25626 0.19987
 O668 O 0.72969 0.28230 0.22296
 Zr669 Zr 0.80250 0.25428 0.24967
 O670 O 0.77886 0.28020 0.27539
 Zr671 Zr 0.75293 0.20720 0.24712
 O672 O 0.72672 0.23038 0.27283
 O673 O 0.72710 0.28228 0.27488
 O674 O 0.78000 0.22963 0.22285
 C675 C 0.75383 0.31760 0.31369
 C676 C 0.69162 0.32083 0.24971
 C677 C 0.68801 0.25613 0.31015
 C678 C 0.75346 0.19429 0.18448
 C679 C 0.81871 0.25234 0.18808
 C680 C 0.81528 0.19193 0.24615
 H681 H 0.79206 0.29383 0.21511
 H682 H 0.78762 0.21812 0.28705
 H683 H 0.71544 0.29395 0.28671
 H684 H 0.71551 0.22188 0.21062
 H685 H 0.71134 0.27143 0.17515
 H686 H 0.67955 0.25065 0.20184
 H687 H 0.82756 0.23912 0.29437
 H688 H 0.79649 0.26622 0.32303
 H689 H 0.77302 0.30068 0.17524
 H690 H 0.74082 0.32795 0.20425
 H691 H 0.76625 0.17824 0.28999
 H692 H 0.73787 0.20908 0.31925
 H693 H 0.78009 0.35196 0.25604
 H694 H 0.82562 0.30091 0.25910
 H695 H 0.67957 0.21256 0.26018
 H696 H 0.70769 0.18222 0.23399
 C697 C 0.26315 0.10495 0.09943
 C698 C 0.24505 0.08221 0.09867
 C699 C 0.24349 0.06568 0.07492
 C700 C 0.25957 0.07182 0.05151
 C701 C 0.27870 0.09352 0.05355
 C702 C 0.28052 0.10966 0.07692
 C703 C 0.26276 0.12344 0.12395
 C704 C 0.27818 0.14790 0.12512
 C705 C 0.27592 0.16546 0.14744
 C706 C 0.25854 0.15913 0.16945
 C707 C 0.24363 0.13441 0.16908
 C708 C 0.24521 0.11678 0.14617
 C709 C 0.22835 0.07649 0.12145
 C710 C 0.22865 0.09321 0.14479
 H711 H 0.21464 0.05893 0.12116
 H712 H 0.21515 0.08801 0.16171
 H713 H 0.22855 0.04920 0.07435
 H714 H 0.29308 0.09791 0.03716
 H715 H 0.28768 0.18439 0.14734
 H716 H 0.22985 0.12961 0.18591
 H717 H 0.29577 0.12574 0.07679
 H718 H 0.29155 0.15440 0.10873
 C719 C 0.75894 0.61926 0.59108
 C720 C 0.74328 0.59481 0.59285
 C721 C 0.74184 0.57691 0.57024
 C722 C 0.75619 0.58288 0.54592
 C723 C 0.77334 0.60607 0.54516
 C724 C 0.77471 0.62404 0.56733
 C725 C 0.75784 0.63916 0.61447
 C726 C 0.76972 0.66553 0.61307
 C727 C 0.76727 0.68380 0.63490
 C728 C 0.75327 0.67624 0.65888
 C729 C 0.74149 0.64995 0.66065
 C730 C 0.74311 0.63165 0.63838
 C731 C 0.72894 0.58860 0.61702
 C732 C 0.72931 0.60638 0.63949
 H733 H 0.71725 0.56971 0.61860
 H734 H 0.71790 0.60062 0.65772
 H735 H 0.72875 0.55890 0.57125
 H736 H 0.78552 0.61061 0.52711
 H737 H 0.77650 0.70399 0.63305
 H738 H 0.73019 0.64414 0.67894
 H739 H 0.78812 0.64158 0.56537
 H740 H 0.78045 0.67272 0.59508
 C741 C 0.73239 0.90906 0.10860
 C742 C 0.74536 0.90672 0.08274
 C743 C 0.74754 0.92986 0.06544
 C744 C 0.73745 0.95572 0.07386
 C745 C 0.72270 0.95699 0.09872
 C746 C 0.72012 0.93417 0.11569
 C747 C 0.73287 0.88490 0.12766
 C748 C 0.72286 0.88630 0.15472
 C749 C 0.72514 0.86391 0.17231
 C750 C 0.73725 0.83932 0.16351
 C751 C 0.74682 0.83741 0.13637
 C752 C 0.74511 0.86017 0.11856
 C753 C 0.75677 0.88153 0.07473
 C754 C 0.75639 0.85868 0.09213
 H755 H 0.76646 0.87952 0.05482
 H756 H 0.76576 0.83978 0.08506
 H757 H 0.75892 0.92795 0.04644
 H758 H 0.71272 0.97576 0.10522
 H759 H 0.71745 0.86596 0.19306
 H760 H 0.75648 0.81860 0.12942
 H761 H 0.70865 0.93684 0.13441
 H762 H 0.71375 0.90466 0.16303
 C763 C 0.23927 0.39998 0.61168
 C764 C 0.25547 0.39871 0.58758
 C765 C 0.25690 0.42157 0.56991
 C766 C 0.24235 0.44569 0.57604
 C767 C 0.22477 0.44602 0.59884
 C768 C 0.22314 0.42351 0.61638
 C769 C 0.24056 0.37653 0.63155
 C770 C 0.22783 0.37746 0.65748
 C771 C 0.23095 0.35593 0.67603
 C772 C 0.24650 0.33271 0.66921
 C773 C 0.25882 0.33120 0.64321
 C774 C 0.25645 0.35320 0.62459
 C775 C 0.27058 0.37493 0.58170
 C776 C 0.27073 0.35251 0.59962
 H777 H 0.28270 0.37374 0.56309
 H778 H 0.28294 0.33469 0.59423
 H779 H 0.27030 0.42105 0.55214
 H780 H 0.21267 0.46410 0.60347
 H781 H 0.22116 0.35753 0.69593
 H782 H 0.27121 0.31346 0.63794
 H783 H 0.20944 0.42520 0.63368
 H784 H 0.21596 0.39488 0.66421
 C785 C 0.75694 0.10020 0.88936
 C786 C 0.77401 0.07757 0.88301
 C787 C 0.77445 0.05449 0.90019
 C788 C 0.75716 0.05272 0.92322
 C789 C 0.74004 0.07508 0.92941
 C790 C 0.74000 0.09858 0.91281
 C791 C 0.75713 0.12445 0.87027
 C792 C 0.74242 0.14885 0.87547
 C793 C 0.74278 0.17052 0.85659
 C794 C 0.75746 0.16820 0.83194
 C795 C 0.77265 0.14429 0.82688
 C796 C 0.77297 0.12272 0.84594
 C797 C 0.79009 0.07770 0.85919
 C798 C 0.78922 0.09958 0.84082
 H799 H 0.80308 0.06029 0.85432
 H800 H 0.80160 0.09842 0.82237
 H801 H 0.78820 0.03766 0.89537
 H802 H 0.72616 0.07422 0.94675
 H803 H 0.73109 0.18892 0.86101
 H804 H 0.78458 0.14262 0.80815
 H805 H 0.72613 0.11496 0.91833
 H806 H 0.73061 0.15163 0.89399
 C807 C 0.24079 0.59575 0.39340
 C808 C 0.22640 0.57166 0.38570
 C809 C 0.22707 0.54835 0.40255
 C810 C 0.24291 0.54794 0.42662
 C811 C 0.25673 0.57196 0.43458
 C812 C 0.25561 0.59563 0.41828
 C813 C 0.24051 0.61978 0.37403
 C814 C 0.25339 0.64511 0.37986
 C815 C 0.25370 0.66627 0.36039
 C816 C 0.24150 0.66252 0.33460
 C817 C 0.22789 0.63778 0.32898
 C818 C 0.22702 0.61664 0.34847
 C819 C 0.21228 0.57050 0.36071
 C820 C 0.21288 0.59236 0.34234
 H821 H 0.20125 0.55204 0.35488
 H822 H 0.20226 0.59015 0.32292
 H823 H 0.21580 0.53013 0.39646
 H824 H 0.26924 0.57217 0.45296
 H825 H 0.26418 0.68531 0.36520
 H826 H 0.21791 0.63498 0.30927
 H827 H 0.26716 0.61328 0.42508
 H828 H 0.26346 0.64891 0.39921
 C829 C 0.24465 0.89349 0.89907
 C830 C 0.26085 0.88645 0.92215
 C831 C 0.25979 0.90241 0.94593
 C832 C 0.24209 0.92506 0.94791
 C833 C 0.22622 0.93240 0.92500
 C834 C 0.22746 0.91683 0.90082
 C835 C 0.24604 0.87519 0.87429
 C836 C 0.23152 0.88045 0.84975
 C837 C 0.23259 0.86185 0.82784
 C838 C 0.24788 0.83754 0.83006
 C839 C 0.26311 0.83267 0.85395
 C840 C 0.26253 0.85125 0.87580
 C841 C 0.27761 0.86311 0.92177
 C842 C 0.27820 0.84572 0.89922
 H843 H 0.29002 0.85782 0.93948
 H844 H 0.29103 0.82755 0.90020
 H845 H 0.27274 0.89696 0.96321
 H846 H 0.21240 0.94980 0.92598
 H847 H 0.22072 0.86604 0.80950
 H848 H 0.27539 0.81414 0.85560
 H849 H 0.21450 0.92305 0.88397
 H850 H 0.21907 0.89861 0.84722
 C851 C 0.75118 0.39472 0.40431
 C852 C 0.73378 0.38774 0.42652
 C853 C 0.73229 0.40478 0.44956
 C854 C 0.74876 0.42839 0.45170
 C855 C 0.76630 0.43517 0.42983
 C856 C 0.76744 0.41865 0.40637
 C857 C 0.75193 0.37585 0.37998
 C858 C 0.76696 0.38165 0.35588
 C859 C 0.76731 0.36298 0.33405
 C860 C 0.75309 0.33801 0.33599
 C861 C 0.73765 0.33235 0.35960
 C862 C 0.73659 0.35114 0.38127
 C863 C 0.71832 0.36348 0.42597
 C864 C 0.72005 0.34535 0.40403
 H865 H 0.70508 0.35813 0.44306
 H866 H 0.70807 0.32657 0.40482
 H867 H 0.71823 0.39951 0.46602
 H868 H 0.77957 0.45299 0.43102
 H869 H 0.77912 0.36783 0.31583
 H870 H 0.72601 0.31337 0.36092
 H871 H 0.78153 0.42465 0.39035
 H872 H 0.77841 0.40049 0.35345
 C873 C 0.11391 0.24295 0.09680
 C874 C 0.12302 0.22930 0.07292
 C875 C 0.10677 0.22918 0.04923
 C876 C 0.08140 0.24324 0.04798
 C877 C 0.07251 0.25686 0.07196
 C878 C 0.08845 0.25671 0.09591
 C879 C 0.13214 0.24242 0.12171
 C880 C 0.12476 0.25428 0.14709
 C881 C 0.14302 0.25379 0.16934
 C882 C 0.16908 0.24179 0.16666
 C883 C 0.17623 0.22932 0.14177
 C884 C 0.15803 0.22930 0.11955
 C885 C 0.14849 0.21592 0.07254
 C886 C 0.16576 0.21620 0.09524
 H887 H 0.15544 0.20544 0.05420
 H888 H 0.18548 0.20593 0.09374
 H889 H 0.11386 0.21705 0.03203
 H890 H 0.05373 0.26872 0.07228
 H891 H 0.13701 0.26339 0.18846
 H892 H 0.19611 0.21943 0.13970
 H893 H 0.08070 0.26790 0.11336
 H894 H 0.10509 0.26404 0.15012
 C895 C 0.60645 0.75856 0.59335
 C896 C 0.61565 0.77043 0.56843
 C897 C 0.59931 0.76884 0.54475
 C898 C 0.57407 0.75482 0.54505
 C899 C 0.56478 0.74346 0.56988
 C900 C 0.58063 0.74537 0.59372
 C901 C 0.62514 0.75971 0.61787
 C902 C 0.61797 0.74888 0.64379
 C903 C 0.63680 0.74918 0.66551
 C904 C 0.66324 0.76011 0.66189
 C905 C 0.67019 0.77178 0.63648
 C906 C 0.65143 0.77180 0.61464
 C907 C 0.64146 0.78310 0.56701
 C908 C 0.65906 0.78356 0.58954
 H909 H 0.64848 0.79224 0.54797
 H910 H 0.67909 0.79307 0.58719
 H911 H 0.60655 0.77815 0.52587
 H912 H 0.54555 0.73223 0.57070
 H913 H 0.63089 0.74014 0.68496
 H914 H 0.69042 0.78074 0.63358
 H915 H 0.57262 0.73576 0.61200
 H916 H 0.59807 0.73986 0.64764
 C917 C 0.09709 0.74712 0.89059
 C918 C 0.07501 0.72907 0.88483
 C919 C 0.05147 0.72916 0.90134
 C920 C 0.04861 0.74795 0.92298
 C921 C 0.07054 0.76577 0.92886
 C922 C 0.09455 0.76531 0.91297
 C923 C 0.12158 0.74675 0.87180
 C924 C 0.14538 0.76276 0.87626
 C925 C 0.16696 0.76265 0.85724
 C926 C 0.16508 0.74692 0.83325
 C927 C 0.14200 0.73022 0.82913
 C928 C 0.12055 0.72970 0.84830
 C929 C 0.07601 0.71164 0.86204
 C930 C 0.09808 0.71228 0.84391
 H931 H 0.05905 0.69785 0.85767
 H932 H 0.09751 0.69896 0.82612
 H933 H 0.03496 0.71485 0.89690
 H934 H 0.06885 0.78065 0.94526
 H935 H 0.18474 0.77559 0.86083
 H936 H 0.14073 0.71760 0.81085
 H937 H 0.11053 0.77983 0.91805
 H938 H 0.14763 0.77556 0.89417
 C939 C 0.59719 0.26736 0.38672
 C940 C 0.60035 0.25626 0.41334
 C941 C 0.57776 0.25568 0.43143
 C942 C 0.55219 0.26660 0.42341
 C943 C 0.55016 0.27994 0.39797
 C944 C 0.57227 0.28033 0.37985
 C945 C 0.62045 0.26466 0.36684
 C946 C 0.61741 0.27075 0.33883
 C947 C 0.63924 0.26731 0.32078
 C948 C 0.66501 0.25815 0.33005
 C949 C 0.66824 0.25160 0.35797
 C950 C 0.64588 0.25408 0.37625
 C951 C 0.62589 0.24559 0.42145
 C952 C 0.64837 0.24519 0.40351
 H953 H 0.62858 0.23751 0.44199
 H954 H 0.66771 0.23690 0.41082
 H955 H 0.57979 0.24574 0.45124
 H956 H 0.53110 0.28964 0.39176
 H957 H 0.63583 0.27210 0.29936
 H958 H 0.68784 0.24396 0.36531
 H959 H 0.56934 0.29072 0.36052
 H960 H 0.59814 0.27759 0.33026
 C961 C 0.90133 0.77230 0.10591
 C962 C 0.89858 0.76134 0.07921
 C963 C 0.92158 0.76023 0.06160
 C964 C 0.94771 0.76918 0.07063
 C965 C 0.94935 0.78229 0.09632
 C966 C 0.92663 0.78397 0.11355
 C967 C 0.87749 0.77018 0.12527
 C968 C 0.87944 0.77792 0.15300
 C969 C 0.85744 0.77400 0.17078
 C970 C 0.83267 0.76242 0.16159
 C971 C 0.83015 0.75519 0.13379
 C972 C 0.85256 0.75855 0.11570
 C973 C 0.87317 0.75062 0.07071
 C974 C 0.85059 0.74953 0.08847
 H975 H 0.87083 0.74250 0.05016
 H976 H 0.83155 0.74069 0.08100
 H977 H 0.91940 0.75019 0.04190
 H978 H 0.96839 0.79144 0.10336
 H979 H 0.85993 0.78013 0.19200
 H980 H 0.81114 0.74613 0.12647
 H981 H 0.92959 0.79410 0.13298
 H982 H 0.89794 0.78650 0.16164
 C983 C 0.41056 0.27123 0.61227
 C984 C 0.40871 0.25715 0.58696
 C985 C 0.43131 0.25693 0.56893
 C986 C 0.45580 0.27062 0.57584
 C987 C 0.45670 0.28625 0.59995
 C988 C 0.43442 0.28667 0.61791
 C989 C 0.38736 0.26843 0.63232
 C990 C 0.38881 0.27892 0.65917
 C991 C 0.36743 0.27456 0.67765
 C992 C 0.34383 0.25989 0.66992
 C993 C 0.34186 0.24973 0.64305
 C994 C 0.36370 0.25340 0.62441
 C995 C 0.38463 0.24282 0.58019
 C996 C 0.36245 0.24134 0.59835
 H997 H 0.38300 0.23235 0.56066
 H998 H 0.34438 0.22983 0.59222
 H999 H 0.43033 0.24493 0.55024
 H1000 H 0.47506 0.29767 0.60531
 H1001 H 0.36939 0.28286 0.69817
 H1002 H 0.32379 0.23817 0.63697
 H1003 H 0.43654 0.29881 0.63626
 H1004 H 0.40648 0.29005 0.66659
 C1005 C 0.89475 0.25434 0.90502
 C1006 C 0.88503 0.24182 0.92932
 C1007 C 0.90197 0.23994 0.95241
 C1008 C 0.92879 0.25108 0.95272
 C1009 C 0.93850 0.26327 0.92825
 C1010 C 0.92176 0.26492 0.90484
 C1011 C 0.87560 0.25581 0.88079
 C1012 C 0.88312 0.26703 0.85512
 C1013 C 0.86421 0.26790 0.83337
 C1014 C 0.83733 0.25791 0.83684
 C1015 C 0.82989 0.24653 0.86221
 C1016 C 0.84865 0.24520 0.88390
 C1017 C 0.85831 0.23121 0.93071
 C1018 C 0.84045 0.23306 0.90858
 H1019 H 0.85092 0.22157 0.94938
 H1020 H 0.81986 0.22478 0.91083
 H1021 H 0.89415 0.22872 0.96994
 H1022 H 0.95862 0.27267 0.92719
 H1023 H 0.87054 0.27661 0.81392
 H1024 H 0.80938 0.23820 0.86507
 H1025 H 0.93019 0.27490 0.88694
 H1026 H 0.90346 0.27511 0.85144
 C1027 C 0.38716 0.74914 0.40014
 C1028 C 0.38078 0.73232 0.42296
 C1029 C 0.39843 0.73143 0.44556
 C1030 C 0.42199 0.74807 0.44678
 C1031 C 0.42851 0.76468 0.42415
 C1032 C 0.41137 0.76517 0.40103
 C1033 C 0.36733 0.74963 0.37653
 C1034 C 0.37225 0.76424 0.35199
 C1035 C 0.35274 0.76427 0.33085
 C1036 C 0.32777 0.75019 0.33396
 C1037 C 0.32289 0.73531 0.35806
 C1038 C 0.34253 0.73452 0.37902
 C1039 C 0.35641 0.71700 0.42357
 C1040 C 0.33749 0.71841 0.40226
 H1041 H 0.35158 0.70419 0.44113
 H1042 H 0.31866 0.70659 0.40395
 H1043 H 0.39348 0.71798 0.46261
 H1044 H 0.44645 0.77786 0.42460
 H1045 H 0.35701 0.77563 0.31221
 H1046 H 0.30392 0.72376 0.36026
 H1047 H 0.41706 0.77866 0.38441
 H1048 H 0.39104 0.77556 0.34868
 C1049 C 0.11009 0.08989 0.26421
 C1050 C 0.08412 0.09332 0.25162
 C1051 C 0.06582 0.07089 0.24964
 C1052 C 0.07330 0.04467 0.25964
 C1053 C 0.09837 0.04236 0.27400
 C1054 C 0.11634 0.06446 0.27633
 C1055 C 0.13011 0.11329 0.26364
 C1056 C 0.15730 0.11072 0.27324
 C1057 C 0.17575 0.13244 0.27098
 C1058 C 0.16773 0.15752 0.25929
 C1059 C 0.14050 0.16062 0.25010
 C1060 C 0.12180 0.13851 0.25176
 C1061 C 0.07694 0.11891 0.24047
 C1062 C 0.09525 0.14109 0.24082
 H1063 H 0.05695 0.12177 0.23105
 H1064 H 0.08877 0.16034 0.23170
 H1065 H 0.04670 0.07362 0.23857
 H1066 H 0.10424 0.02338 0.28399
 H1067 H 0.19654 0.12950 0.27840
 H1068 H 0.13417 0.17983 0.24078
 H1069 H 0.13511 0.06100 0.28757
 H1070 H 0.16505 0.09193 0.28202
 C1071 C 0.61062 0.59908 0.75708
 C1072 C 0.58609 0.60006 0.74149
 C1073 C 0.56888 0.57683 0.74013
 C1074 C 0.57573 0.55266 0.75437
 C1075 C 0.59905 0.55258 0.77131
 C1076 C 0.61625 0.57540 0.77270
 C1077 C 0.62978 0.62314 0.75596
 C1078 C 0.65611 0.62255 0.76794
 C1079 C 0.67386 0.64481 0.76529
 C1080 C 0.66583 0.66845 0.75097
 C1081 C 0.63949 0.66958 0.73926
 C1082 C 0.62167 0.64681 0.74110
 C1083 C 0.57916 0.62406 0.72714
 C1084 C 0.59634 0.64710 0.72735
 H1085 H 0.56020 0.62503 0.71550
 H1086 H 0.59008 0.66512 0.71587
 H1087 H 0.55073 0.57725 0.72723
 H1088 H 0.60423 0.53460 0.78334
 H1089 H 0.69408 0.64350 0.77455
 H1090 H 0.63335 0.68767 0.72778
 H1091 H 0.63389 0.57394 0.78601
 H1092 H 0.66376 0.60487 0.77886
 C1093 C 0.91585 0.12250 0.75279
 C1094 C 0.91260 0.09602 0.74139
 C1095 C 0.93482 0.07735 0.74138
 C1096 C 0.96048 0.08440 0.75322
 C1097 C 0.96257 0.11048 0.76577
 C1098 C 0.94091 0.12911 0.76543
 C1099 C 0.89222 0.14223 0.75153
 C1100 C 0.89450 0.16975 0.76010
 C1101 C 0.87198 0.18735 0.75882
 C1102 C 0.84644 0.17815 0.74907
 C1103 C 0.84399 0.15082 0.74006
 C1104 C 0.86682 0.13298 0.74079
 C1105 C 0.88710 0.08830 0.73031
 C1106 C 0.86459 0.10619 0.73047
 H1107 H 0.88436 0.06796 0.72173
 H1108 H 0.84525 0.09907 0.72200
 H1109 H 0.93198 0.05780 0.73127
 H1110 H 0.98066 0.11658 0.77714
 H1111 H 0.87458 0.20829 0.76588
 H1112 H 0.82447 0.14357 0.73208
 H1113 H 0.94412 0.14839 0.77580
 H1114 H 0.91353 0.17826 0.76762
 C1115 C 0.40231 0.60921 0.26022
 C1116 C 0.40001 0.58372 0.24649
 C1117 C 0.42299 0.56631 0.24449
 C1118 C 0.44830 0.57398 0.25611
 C1119 C 0.44985 0.59831 0.27138
 C1120 C 0.42722 0.61568 0.27350
 C1121 C 0.37836 0.62851 0.25943
 C1122 C 0.37988 0.65547 0.26971
 C1123 C 0.35765 0.67327 0.26723
 C1124 C 0.33314 0.66470 0.25471
 C1125 C 0.33109 0.63771 0.24483
 C1126 C 0.35373 0.61977 0.24659
 C1127 C 0.37501 0.57612 0.23433
 C1128 C 0.35224 0.59359 0.23475
 H1129 H 0.37308 0.55645 0.22413
 H1130 H 0.33343 0.58683 0.22489
 H1131 H 0.42152 0.54741 0.23285
 H1132 H 0.46889 0.60422 0.28132
 H1133 H 0.35967 0.69392 0.27525
 H1134 H 0.31229 0.63103 0.23491
 H1135 H 0.42984 0.63419 0.28532
 H1136 H 0.39822 0.66351 0.27920
 C1137 C 0.08797 0.88638 0.75159
 C1138 C 0.09071 0.91260 0.73944
 C1139 C 0.06830 0.93103 0.73946
 C1140 C 0.04297 0.92389 0.75195
 C1141 C 0.04143 0.89811 0.76521
 C1142 C 0.06329 0.87979 0.76495
 C1143 C 0.11168 0.86683 0.75027
 C1144 C 0.10974 0.83953 0.75958
 C1145 C 0.13222 0.82199 0.75808
 C1146 C 0.15741 0.83102 0.74731
 C1147 C 0.15961 0.85816 0.73766
 C1148 C 0.13674 0.87596 0.73863
 C1149 C 0.11588 0.92027 0.72759
 C1150 C 0.13853 0.90253 0.72761
 H1151 H 0.11824 0.94043 0.71843
 H1152 H 0.15759 0.90958 0.71847
 H1153 H 0.07066 0.95041 0.72886
 H1154 H 0.02363 0.89210 0.77709
 H1155 H 0.12986 0.80120 0.76569
 H1156 H 0.17887 0.86524 0.72892
 H1157 H 0.06048 0.86076 0.77592
 H1158 H 0.09098 0.83107 0.76782
 C1159 C 0.59946 0.39463 0.26117
 C1160 C 0.59741 0.41670 0.24236
 C1161 C 0.57324 0.43250 0.24127
 C1162 C 0.55094 0.42639 0.25856
 C1163 C 0.55364 0.40546 0.27809
 C1164 C 0.57756 0.38985 0.27952
 C1165 C 0.62437 0.37665 0.26003
 C1166 C 0.62706 0.35297 0.27638
 C1167 C 0.64939 0.33555 0.27306
 C1168 C 0.66985 0.34129 0.25371
 C1169 C 0.66829 0.36543 0.23812
 C1170 C 0.64536 0.38291 0.24079
 C1171 C 0.61916 0.42232 0.22432
 C1172 C 0.64271 0.40591 0.22369
 H1173 H 0.61776 0.43941 0.21012
 H1174 H 0.65874 0.41085 0.20904
 H1175 H 0.57131 0.44876 0.22618
 H1176 H 0.53698 0.40090 0.29213
 H1177 H 0.65065 0.31725 0.28562
 H1178 H 0.68415 0.36984 0.22310
 H1179 H 0.57818 0.37392 0.29486
 H1180 H 0.61189 0.34702 0.29136
 C1181 C 0.88308 0.90754 0.24864
 C1182 C 0.87459 0.93185 0.23528
 C1183 C 0.89223 0.95454 0.23384
 C1184 C 0.91841 0.95444 0.24647
 C1185 C 0.92662 0.93006 0.25989
 C1186 C 0.90931 0.90705 0.26093
 C1187 C 0.86354 0.88360 0.24921
 C1188 C 0.87038 0.85778 0.26047
 C1189 C 0.85135 0.83617 0.26025
 C1190 C 0.82497 0.83989 0.24920
 C1191 C 0.81805 0.86546 0.23791
 C1192 C 0.83712 0.88705 0.23746
 C1193 C 0.84839 0.93362 0.22347
 C1194 C 0.82993 0.91185 0.22486
 H1195 H 0.84188 0.95232 0.21329
 H1196 H 0.80979 0.91438 0.21567
 H1197 H 0.88549 0.97200 0.22184
 H1198 H 0.94595 0.92871 0.27073
 H1199 H 0.85725 0.81654 0.26893
 H1200 H 0.79793 0.86841 0.22876
 H1201 H 0.91667 0.88925 0.27188
 H1202 H 0.89034 0.85378 0.26925
 C1203 C 0.38783 0.41026 0.76235
 C1204 C 0.41350 0.40775 0.74891
 C1205 C 0.43095 0.43067 0.74655
 C1206 C 0.42330 0.45615 0.75766
 C1207 C 0.39870 0.45798 0.77260
 C1208 C 0.38119 0.43542 0.77494
 C1209 C 0.36865 0.38615 0.76218
 C1210 C 0.34150 0.38763 0.77216
 C1211 C 0.32397 0.36502 0.77045
 C1212 C 0.33310 0.34022 0.75908
 C1213 C 0.36020 0.33836 0.74935
 C1214 C 0.37781 0.36126 0.75029
 C1215 C 0.42137 0.38254 0.73751
 C1216 C 0.40407 0.35967 0.73858
 H1217 H 0.44116 0.38048 0.72751
 H1218 H 0.41108 0.34066 0.72939
 H1219 H 0.44998 0.42893 0.73509
 H1220 H 0.39274 0.47712 0.78220
 H1221 H 0.30314 0.36696 0.77809
 H1222 H 0.36728 0.31939 0.74011
 H1223 H 0.36249 0.43821 0.78649
 H1224 H 0.33314 0.40621 0.78082
 C1225 C 0.11173 0.22906 0.90005
 C1226 C 0.11962 0.21454 0.92396
 C1227 C 0.10256 0.21458 0.94711
 C1228 C 0.07821 0.23006 0.94755
 C1229 C 0.06990 0.24365 0.92356
 C1230 C 0.08633 0.24305 0.90003
 C1231 C 0.13158 0.23020 0.87651
 C1232 C 0.12567 0.24362 0.85156
 C1233 C 0.14566 0.24581 0.83108
 C1234 C 0.17205 0.23493 0.83509
 C1235 C 0.17778 0.22054 0.85933
 C1236 C 0.15775 0.21785 0.87986
 C1237 C 0.14513 0.20127 0.92522
 C1238 C 0.16393 0.20319 0.90378
 H1239 H 0.15108 0.19007 0.94351
 H1240 H 0.18379 0.19334 0.90612
 H1241 H 0.10892 0.20353 0.96537
 H1242 H 0.05130 0.25588 0.92337
 H1243 H 0.14067 0.25669 0.81234
 H1244 H 0.19792 0.21143 0.86226
 H1245 H 0.07931 0.25460 0.88249
 H1246 H 0.10587 0.25275 0.84753
 C1247 C 0.60405 0.73296 0.39534
 C1248 C 0.61351 0.72000 0.41960
 C1249 C 0.59751 0.72069 0.44356
 C1250 C 0.57242 0.73491 0.44419
 C1251 C 0.56274 0.74713 0.41994
 C1252 C 0.57823 0.74609 0.39581
 C1253 C 0.62261 0.73325 0.37071
 C1254 C 0.61527 0.74547 0.34546
 C1255 C 0.63419 0.74699 0.32387
 C1256 C 0.66085 0.73653 0.32698
 C1257 C 0.66788 0.72318 0.35153
 C1258 C 0.64905 0.72137 0.37324
 C1259 C 0.63934 0.70734 0.42019
 C1260 C 0.65683 0.70821 0.39758
 H1261 H 0.64652 0.69730 0.43870
 H1262 H 0.67694 0.69879 0.39935
 H1263 H 0.60501 0.71073 0.46199
 H1264 H 0.54360 0.75849 0.41985
 H1265 H 0.62822 0.75717 0.30502
 H1266 H 0.68827 0.71447 0.35392
 H1267 H 0.57000 0.75644 0.37805
 H1268 H 0.59523 0.75432 0.34211
 C1269 C 0.90134 0.73965 0.88657
 C1270 C 0.89921 0.75217 0.91262
 C1271 C 0.92210 0.75251 0.93041
 C1272 C 0.94743 0.74085 0.92228
 C1273 C 0.94820 0.72633 0.89731
 C1274 C 0.92565 0.72563 0.87987
 C1275 C 0.87783 0.74219 0.86695
 C1276 C 0.87969 0.73335 0.83957
 C1277 C 0.85787 0.73709 0.82158
 C1278 C 0.83342 0.74959 0.83024
 C1279 C 0.83111 0.75838 0.85760
 C1280 C 0.85341 0.75527 0.87585
 C1281 C 0.87445 0.76479 0.92036
 C1282 C 0.85191 0.76591 0.90253
 H1283 H 0.87253 0.77412 0.94044
 H1284 H 0.83331 0.77601 0.90946
 H1285 H 0.92054 0.76361 0.94959
 H1286 H 0.96634 0.71505 0.89109
 H1287 H 0.86021 0.73001 0.80064
 H1288 H 0.81240 0.76840 0.86437
 H1289 H 0.92786 0.71410 0.86114
 H1290 H 0.89800 0.72402 0.83132
 C1291 C 0.40552 0.23817 0.39385
 C1292 C 0.40457 0.25571 0.41696
 C1293 C 0.42791 0.25862 0.43382
 C1294 C 0.45228 0.24437 0.42777
 C1295 C 0.45245 0.22566 0.40596
 C1296 C 0.42941 0.22246 0.38930
 C1297 C 0.38143 0.23779 0.37470
 C1298 C 0.38180 0.22332 0.34974
 C1299 C 0.35980 0.22502 0.33161
 C1300 C 0.33658 0.24086 0.33787
 C1301 C 0.33547 0.25479 0.36303
 C1302 C 0.35800 0.25382 0.38123
 C1303 C 0.38064 0.27075 0.42258
 C1304 C 0.35774 0.26957 0.40528
 H1305 H 0.37972 0.28393 0.44045
 H1306 H 0.33988 0.28186 0.41037
 H1307 H 0.42757 0.27301 0.45078
 H1308 H 0.47079 0.21389 0.40138
 H1309 H 0.36104 0.21393 0.31239
 H1310 H 0.31769 0.26732 0.36784
 H1311 H 0.43102 0.20793 0.37271
 H1312 H 0.39914 0.21111 0.34339
 C1313 C 0.09110 0.73606 0.10739
 C1314 C 0.09379 0.75118 0.08271
 C1315 C 0.07100 0.75427 0.06516
 C1316 C 0.04548 0.74265 0.07206
 C1317 C 0.04342 0.72632 0.09565
 C1318 C 0.06589 0.72292 0.11303
 C1319 C 0.11491 0.73547 0.12690
 C1320 C 0.11320 0.72315 0.15298
 C1321 C 0.13509 0.72475 0.17126
 C1322 C 0.15949 0.73835 0.16409
 C1323 C 0.16189 0.74996 0.13783
 C1324 C 0.13958 0.74905 0.11939
 C1325 C 0.11891 0.76373 0.07617
 C1326 C 0.14139 0.76246 0.09399
 H1327 H 0.12113 0.77506 0.05715
 H1328 H 0.16024 0.77283 0.08813
 H1329 H 0.07275 0.76678 0.04682
 H1330 H 0.02410 0.71657 0.10097
 H1331 H 0.13281 0.71539 0.19131
 H1332 H 0.18060 0.76072 0.13222
 H1333 H 0.06282 0.71034 0.13097
 H1334 H 0.09495 0.71275 0.16003
 C1335 C 0.60178 0.24405 0.60880
 C1336 C 0.60336 0.26055 0.58492
 C1337 C 0.58035 0.26296 0.56754
 C1338 C 0.55573 0.24922 0.57384
 C1339 C 0.55497 0.23145 0.59644
 C1340 C 0.57766 0.22875 0.61364
 C1341 C 0.62550 0.24430 0.62841
 C1342 C 0.62447 0.23099 0.65403
 C1343 C 0.64617 0.23328 0.67247
 C1344 C 0.66970 0.24857 0.66588
 C1345 C 0.67142 0.26132 0.64009
 C1346 C 0.64923 0.25977 0.62156
 C1347 C 0.62757 0.27508 0.57904
 C1348 C 0.65014 0.27441 0.59680
 H1349 H 0.62898 0.28745 0.56060
 H1350 H 0.66826 0.28625 0.59145
 H1351 H 0.58114 0.27656 0.54993
 H1352 H 0.53641 0.22007 0.60122
 H1353 H 0.64443 0.22307 0.69216
 H1354 H 0.68945 0.27339 0.63495
 H1355 H 0.57560 0.21496 0.63082
 H1356 H 0.60686 0.21928 0.66064
 C1357 C 0.89910 0.24021 0.10100
 C1358 C 0.89007 0.22602 0.07730
 C1359 C 0.90673 0.22497 0.05392
 C1360 C 0.93202 0.23880 0.05311
 C1361 C 0.94150 0.25203 0.07684
 C1362 C 0.92532 0.25267 0.10058
 C1363 C 0.87969 0.24247 0.12484
 C1364 C 0.88647 0.25587 0.14962
 C1365 C 0.86691 0.25873 0.17051
 C1366 C 0.84014 0.24863 0.16698
 C1367 C 0.83355 0.23451 0.14283
 C1368 C 0.85302 0.23113 0.12200
 C1369 C 0.86394 0.21397 0.07652
 C1370 C 0.84570 0.21670 0.09829
 H1371 H 0.85714 0.20299 0.05841
 H1372 H 0.82540 0.20766 0.09639
 H1373 H 0.89947 0.21426 0.03581
 H1374 H 0.96093 0.26293 0.07668
 H1375 H 0.87252 0.26941 0.18917
 H1376 H 0.81309 0.22608 0.14023
 H1377 H 0.93327 0.26380 0.11797
 H1378 H 0.90663 0.26441 0.15317
 C1379 C 0.39073 0.74220 0.59546
 C1380 C 0.38257 0.72716 0.57199
 C1381 C 0.39975 0.72597 0.54900
 C1382 C 0.42461 0.74063 0.54824
 C1383 C 0.43315 0.75484 0.57175
 C1384 C 0.41651 0.75554 0.59516
 C1385 C 0.37093 0.74418 0.61899
 C1386 C 0.37711 0.75796 0.64368
 C1387 C 0.35745 0.76004 0.66452
 C1388 C 0.33110 0.74882 0.66107
 C1389 C 0.32496 0.73470 0.63681
 C1390 C 0.34466 0.73194 0.61605
 C1391 C 0.35679 0.71437 0.57102
 C1392 C 0.33811 0.71699 0.59245
 H1393 H 0.35063 0.70282 0.55304
 H1394 H 0.31814 0.70727 0.59043
 H1395 H 0.39322 0.71443 0.53113
 H1396 H 0.45218 0.76643 0.57164
 H1397 H 0.36275 0.77081 0.68322
 H1398 H 0.30483 0.72551 0.63418
 H1399 H 0.42376 0.76742 0.61237
 H1400 H 0.39695 0.76719 0.64732
 C1401 C 0.27351 0.10673 0.90525
 C1402 C 0.25886 0.08171 0.90333
 C1403 C 0.25680 0.06428 0.92637
 C1404 C 0.26880 0.07173 0.95171
 C1405 C 0.28531 0.09554 0.95237
 C1406 C 0.28771 0.11263 0.92963
 C1407 C 0.27272 0.12625 0.88150
 C1408 C 0.28391 0.15288 0.88296
 C1409 C 0.28115 0.17108 0.86114
 C1410 C 0.26745 0.16330 0.83709
 C1411 C 0.25675 0.13658 0.83499
 C1412 C 0.25877 0.11821 0.85730
 C1413 C 0.24573 0.07471 0.87868
 C1414 C 0.24601 0.09240 0.85604
 H1415 H 0.23477 0.05540 0.87695
 H1416 H 0.23530 0.08614 0.83758
 H1417 H 0.24408 0.04606 0.92489
 H1418 H 0.29681 0.10110 0.97056
 H1419 H 0.28969 0.19155 0.86320
 H1420 H 0.24579 0.13056 0.81658
 H1421 H 0.30062 0.13051 0.93179
 H1422 H 0.29423 0.16044 0.90100
 C1423 C 0.75421 0.60959 0.39547
 C1424 C 0.73279 0.59008 0.39847
 C1425 C 0.73063 0.57454 0.42283
 C1426 C 0.74949 0.57848 0.44432
 C1427 C 0.77131 0.59694 0.44061
 C1428 C 0.77375 0.61219 0.41661
 C1429 C 0.75472 0.62728 0.37029
 C1430 C 0.77393 0.64866 0.36673
 C1431 C 0.77225 0.66616 0.34424
 C1432 C 0.75182 0.66260 0.32437
 C1433 C 0.73324 0.64067 0.32683
 C1434 C 0.73425 0.62327 0.34999
 C1435 C 0.71346 0.58667 0.37738
 C1436 C 0.71429 0.60276 0.35360
 H1437 H 0.69719 0.57158 0.37946
 H1438 H 0.69861 0.59959 0.33812
 H1439 H 0.71383 0.56011 0.42544
 H1440 H 0.78659 0.59973 0.45656
 H1441 H 0.78671 0.68304 0.34263
 H1442 H 0.71712 0.63818 0.31165
 H1443 H 0.79099 0.62605 0.41529
 H1444 H 0.78989 0.65293 0.38145
 C1445 C 0.75104 0.10402 0.10663
 C1446 C 0.73541 0.08087 0.11459
 C1447 C 0.73493 0.05734 0.09822
 C1448 C 0.75085 0.05524 0.07410
 C1449 C 0.76599 0.07864 0.06595
 C1450 C 0.76610 0.10260 0.08195
 C1451 C 0.75124 0.12859 0.12532
 C1452 C 0.76512 0.15334 0.11916
 C1453 C 0.76528 0.17516 0.13793
 C1454 C 0.75203 0.17257 0.16336
 C1455 C 0.73757 0.14838 0.16924
 C1456 C 0.73679 0.12670 0.15048
 C1457 C 0.72063 0.08091 0.13923
 C1458 C 0.72161 0.10318 0.15696
 H1459 H 0.70862 0.06313 0.14526
 H1460 H 0.71031 0.10192 0.17609
 H1461 H 0.72143 0.04073 0.10437
 H1462 H 0.77896 0.07833 0.04795
 H1463 H 0.77631 0.19378 0.13283
 H1464 H 0.72673 0.14644 0.18860
 H1465 H 0.77862 0.11955 0.07500
 H1466 H 0.77597 0.15618 0.10006
 C1467 C 0.25204 0.59558 0.60894
 C1468 C 0.23588 0.57253 0.61626
 C1469 C 0.23596 0.54900 0.59984
 C1470 C 0.25301 0.54705 0.57666
 C1471 C 0.26927 0.56981 0.56946
 C1472 C 0.26873 0.59384 0.58530
 C1473 C 0.25113 0.62039 0.62725
 C1474 C 0.26468 0.64529 0.62107
 C1475 C 0.26360 0.66749 0.63931
 C1476 C 0.24946 0.66514 0.66427
 C1477 C 0.23543 0.64073 0.67026
 C1478 C 0.23573 0.61868 0.65186
 C1479 C 0.22016 0.57270 0.64031
 C1480 C 0.22050 0.59507 0.65798
 H1481 H 0.20790 0.55495 0.64591
 H1482 H 0.20846 0.59394 0.67666
 H1483 H 0.22270 0.53194 0.60535
 H1484 H 0.28285 0.56890 0.55189
 H1485 H 0.27439 0.68626 0.63422
 H1486 H 0.22396 0.63901 0.68927
 H1487 H 0.28190 0.61057 0.57908
 H1488 H 0.27610 0.64802 0.60228
 C1489 C 0.76240 0.90276 0.89443
 C1490 C 0.77861 0.92560 0.88645
 C1491 C 0.78000 0.94895 0.90318
 C1492 C 0.76449 0.95068 0.92739
 C1493 C 0.74914 0.92773 0.93578
 C1494 C 0.74818 0.90400 0.91962
 C1495 C 0.76002 0.87899 0.87494
 C1496 C 0.74488 0.85493 0.88088
 C1497 C 0.74201 0.83415 0.86122
 C1498 C 0.75381 0.83712 0.83517
 C1499 C 0.76971 0.86046 0.82946
 C1500 C 0.77314 0.88115 0.84910
 C1501 C 0.79234 0.92564 0.86122
 C1502 C 0.78941 0.90403 0.84281
 H1503 H 0.80484 0.94308 0.85520
 H1504 H 0.79981 0.90540 0.82318
 H1505 H 0.79237 0.96635 0.89673
 H1506 H 0.73683 0.92855 0.95428
 H1507 H 0.72998 0.81607 0.86614
 H1508 H 0.77955 0.86250 0.80958
 H1509 H 0.73541 0.88732 0.92670
 H1510 H 0.73500 0.85185 0.90045
 C1511 C 0.24578 0.39942 0.39121
 C1512 C 0.26462 0.39996 0.41335
 C1513 C 0.26632 0.42339 0.43030
 C1514 C 0.24920 0.44616 0.42549
 C1515 C 0.22942 0.44458 0.40458
 C1516 C 0.22768 0.42167 0.38772
 C1517 C 0.24596 0.37526 0.37224
 C1518 C 0.23028 0.37460 0.34796
 C1519 C 0.23189 0.35233 0.33024
 C1520 C 0.24884 0.32988 0.33625
 C1521 C 0.26434 0.32996 0.36056
 C1522 C 0.26350 0.35284 0.37828
 C1523 C 0.28162 0.37719 0.41821
 C1524 C 0.28074 0.35397 0.40133
 H1525 H 0.29584 0.37733 0.43533
 H1526 H 0.29431 0.33694 0.40598
 H1527 H 0.28136 0.42416 0.44669
 H1528 H 0.21518 0.46134 0.40114
 H1529 H 0.21980 0.35269 0.31156
 H1530 H 0.27788 0.31284 0.36503
 H1531 H 0.21198 0.42189 0.37211
 H1532 H 0.21716 0.39135 0.34182
 C1533 C 0.25167 0.88466 0.09344
 C1534 C 0.23717 0.90974 0.09586
 C1535 C 0.23627 0.92815 0.07354
 C1536 C 0.24986 0.92185 0.04891
 C1537 C 0.26591 0.89797 0.04752
 C1538 C 0.26688 0.87965 0.06940
 C1539 C 0.25005 0.86435 0.11645
 C1540 C 0.26085 0.83763 0.11434
 C1541 C 0.25831 0.81910 0.13592
 C1542 C 0.24515 0.82662 0.16036
 C1543 C 0.23420 0.85321 0.16278
 C1544 C 0.23604 0.87191 0.14076
 C1545 C 0.22345 0.91599 0.12036
 C1546 C 0.22334 0.89770 0.14251
 H1547 H 0.21262 0.93532 0.12246
 H1548 H 0.21248 0.90353 0.16102
 H1549 H 0.22417 0.94680 0.07494
 H1550 H 0.27742 0.89317 0.02911
 H1551 H 0.26697 0.79875 0.13349
 H1552 H 0.22361 0.85907 0.18145
 H1553 H 0.27949 0.86162 0.06693
 H1554 H 0.27092 0.83038 0.09603
 C1555 C 0.73670 0.40053 0.60114
 C1556 C 0.72216 0.39189 0.57751
 C1557 C 0.72152 0.40854 0.55405
 C1558 C 0.73626 0.43333 0.55300
 C1559 C 0.74991 0.44237 0.57669
 C1560 C 0.75005 0.42628 0.60053
 C1561 C 0.73839 0.38115 0.62512
 C1562 C 0.75185 0.38770 0.64992
 C1563 C 0.75422 0.36818 0.67092
 C1564 C 0.74358 0.34164 0.66752
 C1565 C 0.72933 0.33527 0.64335
 C1566 C 0.72639 0.35477 0.62240
 C1567 C 0.70940 0.36611 0.57685
 C1568 C 0.71175 0.34782 0.59868
 H1569 H 0.69819 0.35957 0.55878
 H1570 H 0.70222 0.32778 0.59682
 H1571 H 0.71042 0.40158 0.53605
 H1572 H 0.76157 0.46134 0.57642
 H1573 H 0.76506 0.37362 0.68956
 H1574 H 0.72047 0.31497 0.64085
 H1575 H 0.76156 0.43388 0.61785
 H1576 H 0.76082 0.40767 0.65342
 C1577 C 0.11107 0.10092 0.76500
 C1578 C 0.08868 0.10922 0.78166
 C1579 C 0.06397 0.09443 0.78126
 C1580 C 0.06068 0.07172 0.76396
 C1581 C 0.08318 0.06260 0.74846
 C1582 C 0.10814 0.07698 0.74896
 C1583 C 0.13614 0.11897 0.76406
 C1584 C 0.15944 0.11326 0.74767
 C1585 C 0.18105 0.13227 0.74558
 C1586 C 0.17966 0.15731 0.75959
 C1587 C 0.15742 0.16239 0.77712
 C1588 C 0.13582 0.14358 0.77948
 C1589 C 0.09052 0.13296 0.79768
 C1590 C 0.11354 0.14985 0.79652
 H1591 H 0.07347 0.13910 0.81062
 H1592 H 0.11359 0.16852 0.80863
 H1593 H 0.04677 0.10129 0.79365
 H1594 H 0.08107 0.04507 0.73496
 H1595 H 0.19825 0.12790 0.73217
 H1596 H 0.15663 0.18151 0.78853
 H1597 H 0.12450 0.06959 0.73599
 H1598 H 0.16107 0.09460 0.73588
 C1599 C 0.59659 0.60470 0.23122
 C1600 C 0.57218 0.61358 0.21806
 C1601 C 0.54851 0.59710 0.21859
 C1602 C 0.54825 0.57209 0.23290
 C1603 C 0.57270 0.56286 0.24517
 C1604 C 0.59660 0.57884 0.24426
 C1605 C 0.62082 0.62388 0.23182
 C1606 C 0.64617 0.61724 0.24434
 C1607 C 0.66740 0.63666 0.24587
 C1608 C 0.66372 0.66313 0.23517
 C1609 C 0.63901 0.66952 0.22176
 C1610 C 0.61773 0.65021 0.21988
 C1611 C 0.57108 0.63938 0.20543
 C1612 C 0.59329 0.65738 0.20651
 H1613 H 0.55244 0.64611 0.19524
 H1614 H 0.59112 0.67744 0.19707
 H1615 H 0.52990 0.60423 0.20860
 H1616 H 0.57306 0.54377 0.25659
 H1617 H 0.68639 0.63124 0.25615
 H1618 H 0.63621 0.68978 0.21291
 H1619 H 0.61452 0.57100 0.25468
 H1620 H 0.64990 0.59735 0.25335
 C1621 C 0.10060 0.89534 0.24746
 C1622 C 0.10558 0.91608 0.26718
 C1623 C 0.08945 0.93981 0.26757
 C1624 C 0.06903 0.94428 0.24774
 C1625 C 0.06370 0.92364 0.22838
 C1626 C 0.07922 0.89938 0.22827
 C1627 C 0.11922 0.87073 0.24728
 C1628 C 0.11559 0.84813 0.22949
 C1629 C 0.13455 0.82644 0.22932
 C1630 C 0.15762 0.82718 0.24651
 C1631 C 0.16087 0.84899 0.26485
 C1632 C 0.14176 0.87042 0.26569
 C1633 C 0.12733 0.91365 0.28581
 C1634 C 0.14531 0.89153 0.28479
 H1635 H 0.13107 0.92958 0.30089
 H1636 H 0.16236 0.89100 0.29912
 H1637 H 0.09335 0.95534 0.28303
 H1638 H 0.04813 0.92662 0.21277
 H1639 H 0.13167 0.80954 0.21517
 H1640 H 0.17843 0.84924 0.27859
 H1641 H 0.07473 0.88443 0.21257
 H1642 H 0.09840 0.84692 0.21555
 C1643 C 0.60661 0.40230 0.74958
 C1644 C 0.61221 0.42463 0.76730
 C1645 C 0.59574 0.44818 0.76658
 C1646 C 0.57409 0.45070 0.74773
 C1647 C 0.56812 0.42845 0.73042
 C1648 C 0.58413 0.40449 0.73134
 C1649 C 0.62560 0.37792 0.75046
 C1650 C 0.62181 0.35409 0.73437
 C1651 C 0.64116 0.33271 0.73497
 C1652 C 0.66478 0.33485 0.75133
 C1653 C 0.66813 0.35792 0.76813
 C1654 C 0.64877 0.37917 0.76805
 C1655 C 0.63473 0.42386 0.78514
 C1656 C 0.65280 0.40177 0.78527
 H1657 H 0.63891 0.44097 0.79873
 H1658 H 0.67036 0.40250 0.79896
 H1659 H 0.60016 0.46494 0.78054
 H1660 H 0.55155 0.42986 0.71564
 H1661 H 0.63817 0.31497 0.72192
 H1662 H 0.68612 0.35942 0.78122
 H1663 H 0.57903 0.38822 0.71722
 H1664 H 0.60426 0.35175 0.72104
 C1665 C 0.89405 0.10324 0.23497
 C1666 C 0.88546 0.08031 0.21931
 C1667 C 0.90176 0.05664 0.21828
 C1668 C 0.92610 0.05475 0.23363
 C1669 C 0.93524 0.07783 0.24821
 C1670 C 0.91952 0.10186 0.24879
 C1671 C 0.87491 0.12729 0.23724
 C1672 C 0.88138 0.15128 0.25213
 C1673 C 0.86215 0.17244 0.25482
 C1674 C 0.83596 0.17002 0.24303
 C1675 C 0.82961 0.14663 0.22756
 C1676 C 0.84886 0.12548 0.22437
 C1677 C 0.86003 0.08051 0.20586
 C1678 C 0.84200 0.10251 0.20855
 H1679 H 0.85356 0.06298 0.19378
 H1680 H 0.82221 0.10136 0.19836
 H1681 H 0.89479 0.03904 0.20654
 H1682 H 0.95389 0.07685 0.26033
 H1683 H 0.86758 0.19051 0.26658
 H1684 H 0.80964 0.14494 0.21777
 H1685 H 0.92713 0.11865 0.26104
 H1686 H 0.90108 0.15407 0.26192
 C1687 C 0.39407 0.60413 0.73366
 C1688 C 0.38526 0.57995 0.72010
 C1689 C 0.40183 0.55639 0.72025
 C1690 C 0.42685 0.55598 0.73460
 C1691 C 0.43612 0.58024 0.74709
 C1692 C 0.42004 0.60406 0.74656
 C1693 C 0.37468 0.62812 0.73484
 C1694 C 0.38119 0.65323 0.74782
 C1695 C 0.36159 0.67419 0.74991
 C1696 C 0.33502 0.67048 0.73937
 C1697 C 0.32874 0.64606 0.72549
 C1698 C 0.34826 0.62506 0.72301
 C1699 C 0.35940 0.57892 0.70753
 C1700 C 0.34121 0.60090 0.70914
 H1701 H 0.35274 0.56046 0.69701
 H1702 H 0.32111 0.59878 0.69974
 H1703 H 0.39470 0.53792 0.71007
 H1704 H 0.45526 0.58045 0.75845
 H1705 H 0.36696 0.69303 0.76044
 H1706 H 0.30845 0.64329 0.71665
 H1707 H 0.42786 0.62183 0.75721
 H1708 H 0.40115 0.65695 0.75674
 C1709 C 0.89457 0.90250 0.76508
 C1710 C 0.91765 0.89453 0.78089
 C1711 C 0.94134 0.91089 0.78121
 C1712 C 0.94316 0.93458 0.76491
 C1713 C 0.91992 0.94329 0.75029
 C1714 C 0.89581 0.92752 0.75044
 C1715 C 0.87067 0.88301 0.76329
 C1716 C 0.84654 0.88876 0.74826
 C1717 C 0.82584 0.86895 0.74558
 C1718 C 0.82890 0.84292 0.75751
 C1719 C 0.85224 0.83742 0.77343
 C1720 C 0.87291 0.85723 0.77662
 C1721 C 0.91770 0.86950 0.79505
 C1722 C 0.89593 0.85111 0.79271
 H1723 H 0.93534 0.86355 0.80728
 H1724 H 0.89737 0.83157 0.80330
 H1725 H 0.95911 0.90430 0.79295
 H1726 H 0.92088 0.96150 0.73754
 H1727 H 0.80774 0.87372 0.73353
 H1728 H 0.85436 0.81757 0.78335
 H1729 H 0.87887 0.93464 0.73805
 H1730 H 0.84339 0.90826 0.73823
 C1731 C 0.40318 0.38616 0.26104
 C1732 C 0.40284 0.40792 0.24175
 C1733 C 0.42569 0.42562 0.23943
 C1734 C 0.44877 0.42205 0.25643
 C1735 C 0.44798 0.40167 0.27681
 C1736 C 0.42562 0.38398 0.27911
 C1737 C 0.37976 0.36615 0.26124
 C1738 C 0.38011 0.34197 0.27714
 C1739 C 0.35856 0.32319 0.27566
 C1740 C 0.33586 0.32813 0.25868
 C1741 C 0.33493 0.35236 0.24307
 C1742 C 0.35707 0.37105 0.24370
 C1743 C 0.37981 0.41163 0.22483
 C1744 C 0.35721 0.39390 0.22616
 H1745 H 0.37926 0.42849 0.21031
 H1746 H 0.33993 0.39765 0.21261
 H1747 H 0.42584 0.44155 0.22388
 H1748 H 0.46496 0.39919 0.29099
 H1749 H 0.35967 0.30460 0.28787
 H1750 H 0.31761 0.35601 0.22953
 H1751 H 0.42641 0.36873 0.29515
 H1752 H 0.39716 0.33672 0.29027
   
