data_POSCAR
  _audit_creation_date              2014-09-24
  _audit_creation_method            'ToBaCCo'
  _symmetry_space_group_name_H-M    'P1'
  _symmetry_Int_Tables_number       1
  _symmetry_cell_setting            triclinic
  loop_
  _symmetry_equiv_pos_as_xyz
 x,y,z
_cell_length_a 43.2497
_cell_length_b 43.7247
_cell_length_c 52.8667
_cell_angle_alpha 87.923600
_cell_angle_beta 88.433600
_cell_angle_gamma 90.432200
loop_
  _atom_site_label
  _atom_site_type_symbol
  _atom_site_fract_x
  _atom_site_fract_y
  _atom_site_fract_z
C1 C 1.18330 0.26612 0.28154
 H2 H 1.17893 0.24171 0.28200
 C3 C 1.16460 0.28512 0.29606
 H4 H 1.14552 0.27515 0.30727
 C5 C 1.21385 0.30858 0.26673
 H6 H 1.23365 0.31762 0.25598
 C7 C 1.19585 0.32836 0.28099
 H8 H 1.20209 0.35239 0.28088
 N9 N 1.20730 0.27807 0.26714
 C10 C 1.23024 0.20956 0.21131
 H11 H 1.25502 0.20916 0.21357
 C12 C 1.21671 0.19124 0.19353
 H13 H 1.23135 0.17702 0.18198
 C14 C 1.18136 0.22934 0.22328
 H15 H 1.16770 0.24440 0.23477
 C16 C 1.16683 0.21136 0.20566
 H17 H 1.14195 0.21244 0.20409
 Zn18 Zn 1.23389 0.25107 0.24965
 N19 N 1.21250 0.22779 0.22601
 C20 C 1.24903 0.19387 0.27336
 N21 N 1.25209 0.22473 0.27416
 C22 C 1.26820 0.23774 0.29266
 C23 C 1.28326 0.21960 0.31068
 C24 C 1.26359 0.17476 0.29101
 C25 C 1.25585 0.29390 0.21282
 C26 C 1.27761 0.31160 0.19876
 C27 C 1.31817 0.28636 0.22189
 C28 C 1.29559 0.26934 0.23570
 N29 N 1.26507 0.27370 0.23120
 H30 H 1.23565 0.18388 0.25877
 H31 H 1.26956 0.26243 0.29329
 H32 H 1.29475 0.23152 0.32534
 H33 H 1.26166 0.15048 0.28827
 H34 H 1.23146 0.29645 0.20929
 H35 H 1.26984 0.32765 0.18425
 H36 H 1.34234 0.28292 0.22591
 H37 H 1.30255 0.25261 0.24990
 C38 C 1.18455 0.19179 0.19062
 C39 C 1.17091 0.31673 0.29606
 C40 C 1.30922 0.30802 0.20332
 C41 C 1.28176 0.18719 0.31016
 C42 C 0.67991 -0.23766 0.28558
 H43 H 0.67594 -0.26213 0.28712
 C44 C 0.66195 -0.21814 0.30021
 H45 H 0.64378 -0.22783 0.31258
 C46 C 0.70870 -0.19553 0.26777
 H47 H 0.72751 -0.18678 0.25570
 C48 C 0.69145 -0.17523 0.28215
 H49 H 0.69731 -0.15110 0.28083
 N50 N 0.70263 -0.22613 0.26960
 C51 C 0.72156 -0.29722 0.21507
 H52 H 0.74654 -0.29702 0.21570
 C53 C 0.70667 -0.31691 0.19906
 H54 H 0.72046 -0.33152 0.18719
 C55 C 0.67350 -0.27772 0.22942
 H56 H 0.66066 -0.26226 0.24114
 C57 C 0.65762 -0.29706 0.21361
 H58 H 0.63259 -0.29658 0.21365
 Zn59 Zn 0.72810 -0.25375 0.25166
 N60 N 0.70491 -0.27851 0.23016
 C61 C 0.74609 -0.30982 0.27585
 N62 N 0.74853 -0.27878 0.27591
 C63 C 0.76555 -0.26471 0.29343
 C64 C 0.78183 -0.28200 0.31128
 C65 C 0.76205 -0.32798 0.29331
 C66 C 0.74679 -0.21274 0.21221
 C67 C 0.76733 -0.19571 0.19637
 C68 C 0.80985 -0.21899 0.21843
 C69 C 0.78848 -0.23539 0.23399
 N70 N 0.75759 -0.23171 0.23085
 H71 H 0.73195 -0.32064 0.26218
 H72 H 0.76670 -0.23998 0.29332
 H73 H 0.79520 -0.27033 0.32507
 H74 H 0.76043 -0.35264 0.29246
 H75 H 0.72212 -0.21068 0.20981
 H76 H 0.75830 -0.18069 0.18165
 H77 H 0.83434 -0.22187 0.22142
 H78 H 0.79666 -0.25111 0.24849
 C79 C 0.67424 -0.31724 0.19832
 C80 C 0.66774 -0.18642 0.29875
 C81 C 0.79933 -0.19865 0.19945
 C82 C 0.78045 -0.31412 0.31124
 C83 C 0.68724 0.25566 -0.21641
 H84 H 0.68296 0.23127 -0.21454
 C85 C 0.67046 0.27560 -0.20124
 H86 H 0.65287 0.26628 -0.18813
 C87 C 0.71561 0.29723 -0.23561
 H88 H 0.73380 0.30562 -0.24848
 C89 C 0.69956 0.31792 -0.22073
 H90 H 0.70575 0.34196 -0.22246
 N91 N 0.70919 0.26672 -0.23332
 C92 C 0.72372 0.19530 -0.28867
 H93 H 0.74873 0.19473 -0.28896
 C94 C 0.70729 0.17642 -0.30440
 H95 H 0.71993 0.16162 -0.31691
 C96 C 0.67713 0.21609 -0.27251
 H97 H 0.66544 0.23177 -0.26024
 C98 C 0.65975 0.19761 -0.28799
 H99 H 0.63476 0.19897 -0.28710
 Zn100 Zn 0.73338 0.23872 -0.25210
 N101 N 0.70854 0.21431 -0.27285
 C102 C 0.75357 0.18253 -0.22900
 N103 N 0.75495 0.21360 -0.22852
 C104 C 0.77190 0.22785 -0.21106
 C105 C 0.78911 0.21080 -0.19367
 C106 C 0.77051 0.16459 -0.21201
 C107 C 0.75071 0.27906 -0.29244
 C108 C 0.77056 0.29685 -0.30831
 C109 C 0.81384 0.27562 -0.28604
 C110 C 0.79304 0.25833 -0.27060
 N111 N 0.76210 0.26076 -0.27371
 H112 H 0.73956 0.17153 -0.24267
 H113 H 0.77225 0.25259 -0.21083
 H114 H 0.80231 0.22267 -0.17988
 H115 H 0.76969 0.13993 -0.21318
 H116 H 0.72598 0.28000 -0.29493
 H117 H 0.75991 0.30999 -0.32334
 H118 H 0.83794 0.27383 -0.28148
 H119 H 0.80178 0.24331 -0.25585
 C120 C 0.67481 0.17725 -0.30412
 C121 C 0.67666 0.30725 -0.20314
 C122 C 0.80307 0.29596 -0.30533
 C123 C 0.78881 0.17868 -0.19412
 C124 C 1.19113 -0.25035 -0.21073
 H125 H 1.18670 -0.27475 -0.21032
 C126 C 1.17636 -0.23209 -0.19300
 H127 H 1.16043 -0.24259 -0.17905
 C128 C 1.21884 -0.20736 -0.22834
 H129 H 1.23610 -0.19786 -0.24156
 C130 C 1.20476 -0.18833 -0.21091
 H131 H 1.21075 -0.16422 -0.21142
 N132 N 1.21193 -0.23779 -0.22794
 C133 C 1.22452 -0.30462 -0.28690
 H134 H 1.24954 -0.30479 -0.28776
 C135 C 1.20786 -0.32293 -0.30284
 H136 H 1.22028 -0.33690 -0.31614
 C137 C 1.17813 -0.28554 -0.26880
 H138 H 1.16667 -0.27082 -0.25558
 C139 C 1.16049 -0.30348 -0.28450
 H140 H 1.13550 -0.30267 -0.28296
 Zn141 Zn 1.23499 -0.26410 -0.24885
 N142 N 1.20955 -0.28683 -0.27001
 C143 C 1.25493 -0.32170 -0.22845
 N144 N 1.25691 -0.29075 -0.22703
 C145 C 1.27433 -0.27753 -0.20935
 C146 C 1.29136 -0.29556 -0.19259
 C147 C 1.27172 -0.34063 -0.21212
 C148 C 1.25132 -0.22039 -0.28693
 C149 C 1.27102 -0.20165 -0.30212
 C150 C 1.31474 -0.22654 -0.28297
 C151 C 1.29420 -0.24465 -0.26800
 N152 N 1.26314 -0.24088 -0.26990
 H153 H 1.24044 -0.33182 -0.24225
 H154 H 1.27504 -0.25286 -0.20837
 H155 H 1.30488 -0.28454 -0.17853
 H156 H 1.27041 -0.36518 -0.21392
 H157 H 1.22652 -0.21825 -0.28832
 H158 H 1.26123 -0.18525 -0.31543
 H159 H 1.33939 -0.22936 -0.28083
 H160 H 1.30316 -0.26153 -0.25477
 C161 C 1.17540 -0.32275 -0.30161
 C162 C 1.18348 -0.20070 -0.19275
 C163 C 1.30318 -0.20444 -0.30006
 C164 C 1.29041 -0.32758 -0.19397
 C165 C 0.26877 0.22445 0.70928
 H166 H 0.24402 0.22661 0.70812
 C167 C 0.28508 0.20923 0.69049
 H168 H 0.27250 0.19932 0.67532
 C169 C 0.31542 0.23719 0.72900
 H170 H 0.32736 0.24888 0.74350
 C171 C 0.33267 0.22219 0.71056
 H172 H 0.35763 0.22175 0.71161
 N173 N 0.28398 0.23782 0.72821
 C174 C 0.23406 0.23563 0.79706
 H175 H 0.25006 0.25075 0.80577
 C176 C 0.21466 0.21698 0.81254
 H177 H 0.21635 0.21879 0.83281
 C178 C 0.21104 0.21752 0.76040
 H179 H 0.20940 0.21795 0.74008
 C180 C 0.19065 0.19892 0.77520
 H181 H 0.17459 0.18458 0.76558
 Zn182 Zn 0.26009 0.26102 0.75119
 N183 N 0.23245 0.23527 0.77142
 C184 C 0.20618 0.29142 0.73400
 N185 N 0.23740 0.28901 0.73111
 C186 C 0.25325 0.30460 0.71212
 C187 C 0.23754 0.32268 0.69447
 C188 C 0.18954 0.30934 0.71679
 C189 C 0.30556 0.26606 0.78814
 C190 C 0.32355 0.28083 0.80559
 C191 C 0.30273 0.32909 0.79062
 C192 C 0.28509 0.31339 0.77349
 N193 N 0.28654 0.28238 0.77273
 H194 H 0.19406 0.27885 0.74925
 H195 H 0.27807 0.30216 0.71025
 H196 H 0.25053 0.33456 0.67926
 H197 H 0.16459 0.31012 0.71885
 H198 H 0.30603 0.24138 0.78739
 H199 H 0.33772 0.26730 0.81824
 H200 H 0.30115 0.35377 0.79100
 H201 H 0.26975 0.32595 0.76119
 C202 C 0.19240 0.19799 0.80184
 C203 C 0.31748 0.20799 0.69096
 C204 C 0.32194 0.31275 0.80723
 C205 C 0.20519 0.32477 0.69640
 C206 C 0.77593 0.71815 0.71192
 H207 H 0.75119 0.71437 0.71344
 C208 C 0.79360 0.70270 0.69408
 H209 H 0.78227 0.68691 0.68195
 C210 C 0.82034 0.74489 0.72484
 H211 H 0.83053 0.76200 0.73635
 C212 C 0.83889 0.73003 0.70718
 H213 H 0.86340 0.73525 0.70574
 N214 N 0.78946 0.73876 0.72685
 C215 C 0.72225 0.75198 0.78844
 H216 H 0.72057 0.77665 0.78692
 C217 C 0.70577 0.73568 0.80762
 H218 H 0.69226 0.74873 0.82085
 C219 C 0.74429 0.70638 0.77373
 H220 H 0.75959 0.69510 0.76061
 C221 C 0.72830 0.68908 0.79272
 H222 H 0.73096 0.66452 0.79287
 Zn223 Zn 0.76315 0.76207 0.74753
 N224 N 0.74078 0.73721 0.77182
 C225 C 0.70499 0.77987 0.72765
 N226 N 0.73627 0.78299 0.72547
 C227 C 0.74992 0.79996 0.70615
 C228 C 0.73197 0.81485 0.68808
 C229 C 0.68611 0.79450 0.71001
 C230 C 0.80655 0.77823 0.78255
 C231 C 0.82381 0.79750 0.79726
 C232 C 0.79903 0.84096 0.77707
 C233 C 0.78231 0.82082 0.76264
 N234 N 0.78647 0.79011 0.76556
 H235 H 0.69464 0.76565 0.74277
 H236 H 0.77487 0.80170 0.70473
 H237 H 0.74327 0.82846 0.67294
 H238 H 0.66127 0.79146 0.71177
 H239 H 0.80893 0.75367 0.78476
 H240 H 0.83935 0.78760 0.81096
 H241 H 0.79555 0.86536 0.77451
 H242 H 0.76576 0.82976 0.74941
 C243 C 0.70835 0.70352 0.81017
 C244 C 0.82548 0.70880 0.69138
 C245 C 0.82006 0.82931 0.79466
 C246 C 0.69962 0.81214 0.68982
 C247 C 0.77519 0.21212 0.21495
 H248 H 0.75031 0.21335 0.21360
 C249 C 0.79227 0.19446 0.19824
 H250 H 0.78031 0.18228 0.18391
 C251 C 0.82102 0.22809 0.23441
 H252 H 0.83225 0.24174 0.24813
 C253 C 0.83898 0.21059 0.21821
 H254 H 0.86383 0.21042 0.22012
 N255 N 0.78973 0.22847 0.23256
 C256 C 0.72215 0.24666 0.29231
 H257 H 0.72386 0.27136 0.29225
 C258 C 0.70359 0.23106 0.31057
 H259 H 0.69108 0.24397 0.32457
 C260 C 0.73775 0.19989 0.27479
 H261 H 0.75154 0.18785 0.26108
 C262 C 0.71942 0.18334 0.29271
 H263 H 0.71874 0.15861 0.29224
 Zn264 Zn 0.76538 0.25414 0.25273
 N265 N 0.73867 0.23098 0.27488
 C266 C 0.71130 0.27994 0.23182
 N267 N 0.74274 0.27966 0.23052
 C268 C 0.75886 0.29585 0.21201
 C269 C 0.74330 0.31324 0.19379
 C270 C 0.69483 0.29711 0.21404
 C271 C 0.80618 0.26134 0.29152
 C272 C 0.82493 0.27659 0.30805
 C273 C 0.81156 0.32445 0.28691
 C274 C 0.79307 0.30822 0.27071
 N275 N 0.79092 0.27722 0.27322
 H276 H 0.69890 0.26631 0.24627
 H277 H 0.78385 0.29482 0.21121
 H278 H 0.75651 0.32599 0.17920
 H279 H 0.66979 0.29654 0.21506
 H280 H 0.80371 0.23670 0.29322
 H281 H 0.83719 0.26347 0.32230
 H282 H 0.81262 0.34917 0.28497
 H283 H 0.78017 0.32043 0.25640
 C284 C 0.70213 0.19895 0.31099
 C285 C 0.82465 0.19370 0.19965
 C286 C 0.82773 0.30858 0.30592
 C287 C 0.71084 0.31387 0.19459
 C288 C 0.27393 0.71741 0.20685
 H289 H 0.24896 0.71569 0.20810
 C290 C 0.29033 0.70230 0.18796
 H291 H 0.27776 0.68891 0.17474
 C292 C 0.32043 0.73827 0.22180
 H293 H 0.33207 0.75287 0.23462
 C294 C 0.33771 0.72365 0.20318
 H295 H 0.36261 0.72654 0.20235
 N296 N 0.28913 0.73487 0.22335
 C297 C 0.22527 0.74648 0.28767
 H298 H 0.22650 0.77116 0.28830
 C299 C 0.20748 0.72984 0.30583
 H300 H 0.19518 0.74195 0.32045
 C301 C 0.24086 0.70087 0.26827
 H302 H 0.25424 0.68971 0.25377
 C303 C 0.22335 0.68325 0.28617
 H304 H 0.22293 0.65859 0.28496
 Zn305 Zn 0.26547 0.75756 0.24670
 N306 N 0.24123 0.73193 0.26923
 C307 C 0.20841 0.78221 0.23012
 N308 N 0.23976 0.78404 0.22754
 C309 C 0.25365 0.80366 0.21012
 C310 C 0.23589 0.82275 0.19464
 C311 C 0.18976 0.80082 0.21497
 C312 C 0.31036 0.76363 0.28283
 C313 C 0.32954 0.77832 0.29944
 C314 C 0.31036 0.82678 0.28351
 C315 C 0.29154 0.81102 0.26724
 N316 N 0.29197 0.78003 0.26711
 H317 H 0.19774 0.76601 0.24364
 H318 H 0.27861 0.80422 0.20811
 H319 H 0.24740 0.83786 0.18064
 H320 H 0.16486 0.79914 0.21740
 H321 H 0.31015 0.73890 0.28238
 H322 H 0.34460 0.76386 0.31049
 H323 H 0.30760 0.85130 0.28355
 H324 H 0.27599 0.82365 0.25518
 C325 C 0.20623 0.69778 0.30521
 C326 C 0.32267 0.70548 0.18586
 C327 C 0.32998 0.81069 0.30041
 C328 C 0.20346 0.82139 0.19688
 O329 O 1.05742 0.03406 0.01479
 O330 O 0.93742 -0.03743 0.01723
 O331 O 0.96302 0.05587 0.01587
 O332 O 1.03119 -0.05953 0.02103
 O333 O 0.94458 0.01354 0.03077
 O334 O 1.05009 -0.01724 0.03229
 O335 O 0.97862 -0.05281 0.03356
 O336 O 1.01457 0.05124 0.02801
 C337 C 1.04253 0.04843 0.03099
 C338 C 0.95039 -0.04984 0.03559
 C339 C 0.94930 0.04106 0.03355
 C340 C 1.04510 -0.04472 0.03709
 O341 O 1.05728 -0.03898 -0.01510
 O342 O 0.93944 0.03419 -0.01780
 O343 O 1.03422 0.05498 -0.02170
 O344 O 0.96246 -0.05935 -0.01634
 O345 O 0.94650 -0.01691 -0.03152
 O346 O 1.05311 0.01227 -0.03229
 O347 O 1.01477 -0.05509 -0.02856
 O348 O 0.98213 0.04917 -0.03410
 Co349 Co 1.04888 -0.00245 -0.00005
 Co350 Co 0.94755 -0.00171 -0.00034
 Co351 Co 0.99838 0.04763 -0.00279
 Co352 Co 0.99681 -0.05157 0.00226
 O353 O 0.99799 -0.00201 -0.00023
 C354 C 1.04296 -0.05243 -0.03167
 C355 C 0.95390 0.04690 -0.03599
 C356 C 1.04930 0.03975 -0.03731
 C357 C 0.95098 -0.04443 -0.03433
 O358 O 1.04253 0.51344 0.53180
 O359 O 0.93803 0.46724 0.52367
 O360 O 0.96850 0.56222 0.51240
 O361 O 1.03504 0.45827 0.52931
 O362 O 0.93943 0.52423 0.52838
 O363 O 1.07504 0.47639 0.50781
 O364 O 0.98133 0.45668 0.54003
 O365 O 1.02474 0.55684 0.51724
 C366 C 1.03745 0.54131 0.53473
 C367 C 0.95280 0.45775 0.54223
 C368 C 0.94892 0.55143 0.52891
 C369 C 1.06383 0.45622 0.52425
 O370 O 1.04406 0.48573 0.46770
 O371 O 0.93477 0.53227 0.48056
 O372 O 1.02899 0.54281 0.46611
 O373 O 0.96778 0.43902 0.49216
 O374 O 0.94080 0.47574 0.47468
 O375 O 1.06543 0.53175 0.48941
 O376 O 1.02234 0.44380 0.48072
 O377 O 0.97674 0.54783 0.46236
 Co378 Co 1.04139 0.49865 0.49996
 Co379 Co 0.94365 0.49988 0.50156
 Co380 Co 0.99961 0.54852 0.49044
 Co381 Co 1.00110 0.45388 0.50950
 O382 O 0.99456 0.50166 0.49958
 C383 C 1.03722 0.45872 0.46375
 C384 C 0.94830 0.54578 0.46237
 C385 C 1.05681 0.54591 0.47025
 C386 C 0.95012 0.44873 0.47494
 O387 O 0.53528 0.01061 0.53300
 O388 O 0.43124 -0.03540 0.52215
 O389 O 0.46127 0.06000 0.51300
 O390 O 0.52789 -0.04402 0.52939
 O391 O 0.43110 0.02156 0.52674
 O392 O 0.56829 -0.02595 0.50863
 O393 O 0.47415 -0.04493 0.53944
 O394 O 0.51776 0.05438 0.51905
 C395 C 0.53060 0.03850 0.53626
 C396 C 0.44559 -0.04398 0.54120
 C397 C 0.44009 0.04891 0.52795
 C398 C 0.55660 -0.04663 0.52435
 O399 O 0.53807 -0.01572 0.46834
 O400 O 0.42878 0.02936 0.47867
 O401 O 0.52328 0.04199 0.46772
 O402 O 0.46152 -0.06324 0.49154
 O403 O 0.43624 -0.02658 0.47285
 O404 O 0.55914 0.02961 0.49123
 O405 O 0.51605 -0.05786 0.48061
 O406 O 0.47118 0.04805 0.46309
 Co407 Co 0.53473 -0.00352 0.50080
 Co408 Co 0.43718 -0.00278 0.50004
 Co409 Co 0.49326 0.04704 0.49160
 Co410 Co 0.49434 -0.04811 0.50924
 O411 O 0.48791 -0.00029 0.49959
 C412 C 0.53128 -0.04267 0.46399
 C413 C 0.44289 0.04498 0.46193
 C414 C 0.55095 0.04468 0.47242
 C415 C 0.44558 -0.05349 0.47331
 O416 O 0.55044 0.50926 0.03227
 O417 O 0.44686 0.46128 0.02170
 O418 O 0.47548 0.55704 0.01205
 O419 O 0.54338 0.45407 0.02928
 O420 O 0.44677 0.51825 0.02714
 O421 O 0.58373 0.47253 0.00848
 O422 O 0.48954 0.45217 0.03925
 O423 O 0.53195 0.55246 0.01781
 C424 C 0.54487 0.53706 0.03527
 C425 C 0.46100 0.45337 0.04100
 C426 C 0.45522 0.54580 0.02784
 C427 C 0.57223 0.45202 0.02447
 O428 O 0.55367 0.48180 -0.03207
 O429 O 0.44354 0.52688 -0.02071
 O430 O 0.53774 0.53915 -0.03327
 O431 O 0.47734 0.43402 -0.00917
 O432 O 0.45110 0.47083 -0.02715
 O433 O 0.57393 0.52797 -0.00973
 O434 O 0.53199 0.43963 -0.01946
 O435 O 0.48560 0.54361 -0.03801
 Co436 Co 0.55009 0.49455 0.00028
 Co437 Co 0.45237 0.49435 0.00012
 Co438 Co 0.50761 0.54412 -0.00945
 Co439 Co 0.50996 0.44932 0.00899
 O440 O 0.50317 0.49702 -0.00083
 C441 C 0.54708 0.45473 -0.03619
 C442 C 0.45733 0.54029 -0.03881
 C443 C 0.56537 0.54260 -0.02867
 C444 C 0.46081 0.44400 -0.02707
 C445 C 1.18015 0.14212 0.16843
 C446 C 1.16666 0.12378 0.15055
 C447 C 1.14226 0.13480 0.13593
 C448 C 1.13195 0.16491 0.13930
 C449 C 1.14546 0.18326 0.15717
 C450 C 1.16974 0.17211 0.17194
 C451 C 1.12898 0.11470 0.11686
 C452 C 1.10019 0.11788 0.10837
 C453 C 1.08640 0.09827 0.08919
 C454 C 1.05413 0.09806 0.08715
 C455 C 1.03997 0.08135 0.06861
 C456 C 1.05779 0.06454 0.05146
 C457 C 1.09009 0.06432 0.05360
 C458 C 1.10432 0.08111 0.07221
 H459 H 1.19860 0.13271 0.17967
 H460 H 1.17518 0.10078 0.14827
 H461 H 1.11398 0.17471 0.12779
 H462 H 1.13737 0.20647 0.15902
 H463 H 1.14306 0.09592 0.11063
 H464 H 1.08530 0.13499 0.11645
 H465 H 1.03976 0.11112 0.09986
 H466 H 1.01500 0.08198 0.06750
 H467 H 1.10441 0.05167 0.04057
 H468 H 1.12929 0.08120 0.07267
 C469 C 1.16717 0.62753 0.67723
 C470 C 1.15126 0.60935 0.66064
 C471 C 1.12513 0.62051 0.64825
 C472 C 1.11509 0.65040 0.65304
 C473 C 1.13101 0.66858 0.66971
 C474 C 1.15742 0.65747 0.68177
 C475 C 1.11053 0.60092 0.62945
 C476 C 1.08233 0.60564 0.62015
 C477 C 1.06973 0.58763 0.59948
 C478 C 1.04850 0.60164 0.58325
 C479 C 1.03761 0.58635 0.56250
 C480 C 1.04740 0.55648 0.55772
 C481 C 1.06748 0.54183 0.57462
 C482 C 1.07857 0.55724 0.59532
 H483 H 1.18719 0.61815 0.68651
 H484 H 1.15959 0.58650 0.65730
 H485 H 1.09567 0.66040 0.64343
 H486 H 1.12324 0.69173 0.67252
 H487 H 1.12428 0.58224 0.62255
 H488 H 1.06844 0.62440 0.62666
 H489 H 1.04100 0.62485 0.58622
 H490 H 1.02179 0.59808 0.55000
 H491 H 1.07513 0.51869 0.57157
 H492 H 1.09399 0.54525 0.60795
 C493 C 0.66639 0.12699 0.67526
 C494 C 0.65028 0.10845 0.65900
 C495 C 0.62418 0.11942 0.64644
 C496 C 0.61456 0.14962 0.65055
 C497 C 0.63069 0.16817 0.66685
 C498 C 0.65693 0.15717 0.67928
 C499 C 0.60902 0.09930 0.62822
 C500 C 0.58038 0.10368 0.61962
 C501 C 0.56665 0.08524 0.59960
 C502 C 0.54383 0.09870 0.58457
 C503 C 0.53157 0.08315 0.56446
 C504 C 0.54151 0.05349 0.55911
 C505 C 0.56323 0.03932 0.57487
 C506 C 0.57574 0.05503 0.59491
 H507 H 0.68626 0.11763 0.68477
 H508 H 0.65836 0.08540 0.65615
 H509 H 0.59526 0.15950 0.64072
 H510 H 0.62313 0.19148 0.66914
 H511 H 0.62256 0.08048 0.62133
 H512 H 0.56675 0.12249 0.62637
 H513 H 0.53609 0.12175 0.58793
 H514 H 0.51462 0.09458 0.55283
 H515 H 0.57117 0.01639 0.57130
 H516 H 0.59247 0.04343 0.60659
 C517 C 0.66884 0.63167 0.17852
 C518 C 0.65449 0.61216 0.16198
 C519 C 0.62887 0.62192 0.14820
 C520 C 0.61789 0.65184 0.15136
 C521 C 0.63226 0.67137 0.16793
 C522 C 0.65806 0.66161 0.18156
 C523 C 0.61574 0.60096 0.12965
 C524 C 0.58730 0.60383 0.12034
 C525 C 0.57560 0.58494 0.09981
 C526 C 0.55287 0.59740 0.08417
 C527 C 0.54249 0.58149 0.06357
 C528 C 0.55429 0.55247 0.05833
 C529 C 0.57596 0.53924 0.07464
 C530 C 0.58660 0.55534 0.09519
 H531 H 0.68842 0.62328 0.18898
 H532 H 0.66357 0.58934 0.15984
 H533 H 0.59892 0.66078 0.14053
 H534 H 0.62375 0.69447 0.16948
 H535 H 0.63062 0.58294 0.12312
 H536 H 0.57235 0.62181 0.12683
 H537 H 0.54371 0.61995 0.08746
 H538 H 0.52544 0.59212 0.05153
 H539 H 0.58524 0.51679 0.07117
 H540 H 0.60334 0.54450 0.10733
 C541 C 0.84812 -0.19447 0.17268
 C542 C 0.86846 -0.17774 0.15638
 C543 C 0.86267 -0.14695 0.14982
 C544 C 0.83654 -0.13290 0.16069
 C545 C 0.81611 -0.14970 0.17685
 C546 C 0.82152 -0.18072 0.18283
 C547 C 0.88425 -0.13051 0.13159
 C548 C 0.87631 -0.10554 0.11781
 C549 C 0.89649 -0.09064 0.09774
 C550 C 0.88253 -0.07226 0.07905
 C551 C 0.90016 -0.05870 0.05913
 C552 C 0.93227 -0.06302 0.05751
 C553 C 0.94655 -0.08050 0.07665
 C554 C 0.92886 -0.09415 0.09663
 H555 H 0.85283 -0.21838 0.17689
 H556 H 0.88850 -0.18908 0.14848
 H557 H 0.83179 -0.10893 0.15704
 H558 H 0.79618 -0.13832 0.18489
 H559 H 0.90653 -0.14087 0.12813
 H560 H 0.85307 -0.09679 0.11973
 H561 H 0.85774 -0.06885 0.07957
 H562 H 0.88854 -0.04508 0.04481
 H563 H 0.97134 -0.08389 0.07603
 H564 H 0.94069 -0.10724 0.11110
 C565 C 0.85509 0.30740 0.67744
 C566 C 0.87521 0.32576 0.66218
 C567 C 0.86446 0.35155 0.64881
 C568 C 0.83285 0.35838 0.65068
 C569 C 0.81261 0.34011 0.66584
 C570 C 0.82304 0.31396 0.67973
 C571 C 0.88645 0.36955 0.63197
 C572 C 0.88154 0.39860 0.62412
 C573 C 0.90144 0.41515 0.60480
 C574 C 0.88783 0.43751 0.58912
 C575 C 0.90487 0.45198 0.56927
 C576 C 0.93612 0.44480 0.56495
 C577 C 0.95034 0.42371 0.58151
 C578 C 0.93313 0.40889 0.60123
 H579 H 0.86506 0.28722 0.68617
 H580 H 0.89938 0.31954 0.66065
 H581 H 0.82328 0.37758 0.64017
 H582 H 0.78900 0.34785 0.66714
 H583 H 0.90702 0.35795 0.62541
 H584 H 0.86106 0.41031 0.63067
 H585 H 0.86359 0.44303 0.59167
 H586 H 0.89341 0.46841 0.55698
 H587 H 0.97447 0.41791 0.57869
 H588 H 0.94464 0.39251 0.61349
 C589 C 0.35108 -0.19615 0.67268
 C590 C 0.37073 -0.17716 0.65760
 C591 C 0.36423 -0.14593 0.65390
 C592 C 0.33813 -0.13382 0.66638
 C593 C 0.31840 -0.15286 0.68134
 C594 C 0.32450 -0.18425 0.68444
 C595 C 0.38491 -0.12707 0.63667
 C596 C 0.37593 -0.10105 0.62491
 C597 C 0.39496 -0.08456 0.60501
 C598 C 0.37981 -0.06692 0.58654
 C599 C 0.39643 -0.05300 0.56621
 C600 C 0.42868 -0.05618 0.56407
 C601 C 0.44414 -0.07243 0.58326
 C602 C 0.42745 -0.08650 0.60359
 H603 H 0.35630 -0.22028 0.67470
 H604 H 0.39076 -0.18705 0.64836
 H605 H 0.33290 -0.10970 0.66489
 H606 H 0.29848 -0.14296 0.69072
 H607 H 0.40726 -0.13654 0.63183
 H608 H 0.35258 -0.09301 0.62793
 H609 H 0.35487 -0.06471 0.58737
 H610 H 0.38393 -0.04028 0.55187
 H611 H 0.46903 -0.07494 0.58224
 H612 H 0.44005 -0.09896 0.61798
 C613 C 0.35940 0.31299 0.17855
 C614 C 0.38058 0.33027 0.16344
 C615 C 0.37545 0.36145 0.15796
 C616 C 0.34933 0.37536 0.16895
 C617 C 0.32805 0.35803 0.18388
 C618 C 0.33264 0.32659 0.18853
 C619 C 0.39732 0.37829 0.14025
 C620 C 0.38944 0.40349 0.12676
 C621 C 0.40917 0.41780 0.10617
 C622 C 0.39471 0.43511 0.08711
 C623 C 0.41176 0.44723 0.06629
 C624 C 0.44380 0.44259 0.06418
 C625 C 0.45867 0.42658 0.08384
 C626 C 0.44152 0.41426 0.10468
 H627 H 0.36349 0.28878 0.18181
 H628 H 0.40062 0.31902 0.15542
 H629 H 0.34512 0.39957 0.16616
 H630 H 0.30799 0.36923 0.19189
 H631 H 0.41946 0.36776 0.13649
 H632 H 0.36630 0.41242 0.12892
 H633 H 0.36992 0.43853 0.08792
 H634 H 0.39972 0.45984 0.05161
 H635 H 0.48342 0.42297 0.08282
 H636 H 0.45367 0.40197 0.11944
 C637 C 0.79574 0.13224 -0.16541
 C638 C 0.81309 0.11488 -0.14829
 C639 C 0.84257 0.12474 -0.14138
 C640 C 0.85426 0.15266 -0.15199
 C641 C 0.83693 0.16996 -0.16919
 C642 C 0.80741 0.16004 -0.17606
 C643 C 0.85932 0.10595 -0.12222
 C644 C 0.88941 0.10947 -0.11716
 C645 C 0.90533 0.09173 -0.09685
 C646 C 0.93785 0.09168 -0.09699
 C647 C 0.95378 0.07669 -0.07752
 C648 C 0.93747 0.06148 -0.05739
 C649 C 0.90499 0.06119 -0.05735
 C650 C 0.88909 0.07629 -0.07669
 H651 H 0.77290 0.12413 -0.16991
 H652 H 0.80329 0.09370 -0.14026
 H653 H 0.87645 0.16168 -0.14685
 H654 H 0.84676 0.19112 -0.17722
 H655 H 0.84602 0.08805 -0.11227
 H656 H 0.90346 0.12561 -0.12847
 H657 H 0.95100 0.10354 -0.11213
 H658 H 0.97883 0.07734 -0.07805
 H659 H 0.89177 0.04983 -0.04200
 H660 H 0.86413 0.07642 -0.07518
 C661 C 0.78556 0.63969 0.34051
 C662 C 0.80244 0.62173 0.35753
 C663 C 0.83245 0.63040 0.36399
 C664 C 0.84503 0.65790 0.35332
 C665 C 0.82817 0.67582 0.33623
 C666 C 0.79825 0.66692 0.32958
 C667 C 0.84909 0.61083 0.38262
 C668 C 0.87983 0.61196 0.38559
 C669 C 0.89645 0.59328 0.40488
 C670 C 0.92884 0.59160 0.40275
 C671 C 0.94570 0.57569 0.42111
 C672 C 0.93050 0.56106 0.44208
 C673 C 0.89809 0.56234 0.44410
 C674 C 0.88124 0.57841 0.42585
 H675 H 0.76237 0.63243 0.33617
 H676 H 0.79197 0.60092 0.36569
 H677 H 0.86763 0.66606 0.35831
 H678 H 0.83871 0.69656 0.32805
 H679 H 0.83524 0.59427 0.39366
 H680 H 0.89390 0.62674 0.37304
 H681 H 0.94122 0.60294 0.38693
 H682 H 0.97068 0.57517 0.41904
 H683 H 0.88573 0.55153 0.46017
 H684 H 0.85649 0.57969 0.42882
 C685 C 0.28941 0.13747 0.33155
 C686 C 0.30566 0.11880 0.34849
 C687 C 0.33063 0.13038 0.36152
 C688 C 0.33854 0.16141 0.35783
 C689 C 0.32233 0.18024 0.34099
 C690 C 0.29733 0.16883 0.32713
 C691 C 0.34700 0.10981 0.37952
 C692 C 0.37638 0.11448 0.38608
 C693 C 0.39276 0.09477 0.40472
 C694 C 0.42519 0.09624 0.40493
 C695 C 0.44155 0.07951 0.42310
 C696 C 0.42578 0.06103 0.44161
 C697 C 0.39335 0.05921 0.44126
 C698 C 0.37697 0.07598 0.42311
 H699 H 0.26970 0.12704 0.32306
 H700 H 0.29860 0.09508 0.35145
 H701 H 0.35715 0.17149 0.36806
 H702 H 0.33094 0.20339 0.33829
 H703 H 0.33463 0.08958 0.38670
 H704 H 0.38955 0.13312 0.37694
 H705 H 0.43793 0.11067 0.39112
 H706 H 0.46654 0.08147 0.42290
 H707 H 0.38051 0.04535 0.45539
 H708 H 0.35200 0.07481 0.42416
 C709 C 0.29652 0.62516 -0.16616
 C710 C 0.31361 0.60720 -0.14930
 C711 C 0.34332 0.61640 -0.14248
 C712 C 0.35555 0.64419 -0.15286
 C713 C 0.33853 0.66205 -0.16981
 C714 C 0.30876 0.65287 -0.17654
 C715 C 0.35985 0.59736 -0.12348
 C716 C 0.39036 0.59959 -0.11978
 C717 C 0.40665 0.58244 -0.09946
 C718 C 0.43913 0.58194 -0.10056
 C719 C 0.45564 0.56784 -0.08108
 C720 C 0.43998 0.55390 -0.06003
 C721 C 0.40751 0.55396 -0.05904
 C722 C 0.39099 0.56825 -0.07841
 H723 H 0.27345 0.61767 -0.17063
 H724 H 0.30344 0.58613 -0.14136
 H725 H 0.37789 0.65276 -0.14762
 H726 H 0.34874 0.68313 -0.17764
 H727 H 0.34611 0.58063 -0.11253
 H728 H 0.40446 0.61441 -0.13226
 H729 H 0.45182 0.59285 -0.11642
 H730 H 0.48068 0.56815 -0.08238
 H731 H 0.39481 0.54359 -0.04296
 H732 H 0.36610 0.56876 -0.07625
 C733 C 1.18831 -0.15989 -0.16095
 C734 C 1.17563 -0.14176 -0.14214
 C735 C 1.14414 -0.14414 -0.13529
 C736 C 1.12563 -0.16565 -0.14725
 C737 C 1.13836 -0.18394 -0.16595
 C738 C 1.16979 -0.18116 -0.17308
 C739 C 1.13169 -0.12492 -0.11492
 C740 C 1.10208 -0.11609 -0.11369
 C741 C 1.08819 -0.09845 -0.09283
 C742 C 1.05583 -0.09811 -0.09026
 C743 C 1.04131 -0.08287 -0.07058
 C744 C 1.05881 -0.06739 -0.05297
 C745 C 1.09118 -0.06686 -0.05584
 C746 C 1.10579 -0.08221 -0.07560
 H747 H 1.21275 -0.15766 -0.16571
 H748 H 1.19046 -0.12570 -0.13297
 H749 H 1.10148 -0.16891 -0.14188
 H750 H 1.12357 -0.20017 -0.17494
 H751 H 1.14769 -0.11793 -0.10084
 H752 H 1.08671 -0.12283 -0.12836
 H753 H 1.04166 -0.11014 -0.10333
 H754 H 1.01628 -0.08349 -0.06903
 H755 H 1.10520 -0.05477 -0.04272
 H756 H 1.13072 -0.08102 -0.07727
 C757 C 1.14583 0.36738 0.30428
 C758 C 1.13004 0.38710 0.32032
 C759 C 1.12032 0.37709 0.34478
 C760 C 1.12706 0.34695 0.35302
 C761 C 1.14293 0.32729 0.33704
 C762 C 1.15262 0.33726 0.31250
 C763 C 1.10481 0.39894 0.36174
 C764 C 1.08502 0.38977 0.38053
 C765 C 1.07095 0.41016 0.39948
 C766 C 1.04654 0.39833 0.41498
 C767 C 1.03478 0.41481 0.43512
 C768 C 1.04714 0.44363 0.44033
 C769 C 1.07063 0.45626 0.42421
 C770 C 1.08259 0.43963 0.40402
 H771 H 1.15272 0.37573 0.28542
 H772 H 1.12536 0.41026 0.31358
 H773 H 1.12103 0.33871 0.37207
 H774 H 1.14847 0.30455 0.34425
 H775 H 1.10949 0.42306 0.35815
 H776 H 1.07856 0.36580 0.38230
 H777 H 1.03707 0.37578 0.41196
 H778 H 1.01655 0.40451 0.44712
 H779 H 1.08069 0.47837 0.42789
 H780 H 1.10173 0.44946 0.39287
 C781 C 0.64245 -0.13559 0.30617
 C782 C 0.62678 -0.11544 0.32193
 C783 C 0.61794 -0.12458 0.34680
 C784 C 0.62563 -0.15417 0.35579
 C785 C 0.64144 -0.17422 0.34013
 C786 C 0.65005 -0.16525 0.31510
 C787 C 0.60202 -0.10252 0.36332
 C788 C 0.58204 -0.11164 0.38199
 C789 C 0.56715 -0.09111 0.40041
 C790 C 0.54213 -0.10284 0.41525
 C791 C 0.52961 -0.08631 0.43507
 C792 C 0.54182 -0.05753 0.44062
 C793 C 0.56590 -0.04495 0.42507
 C794 C 0.57860 -0.06164 0.40519
 H795 H 0.64845 -0.12798 0.28694
 H796 H 0.62135 -0.09271 0.31460
 H797 H 0.62025 -0.16165 0.37516
 H798 H 0.64764 -0.19652 0.34790
 H799 H 0.60631 -0.07838 0.35941
 H800 H 0.57597 -0.13571 0.38398
 H801 H 0.53279 -0.12539 0.41203
 H802 H 0.51097 -0.09658 0.44662
 H803 H 0.57587 -0.02289 0.42903
 H804 H 0.59818 -0.05192 0.39449
 C805 C 0.65283 0.35865 -0.19516
 C806 C 0.63839 0.37925 -0.17905
 C807 C 0.63057 0.37047 -0.15389
 C808 C 0.63807 0.34078 -0.14500
 C809 C 0.65269 0.32029 -0.16102
 C810 C 0.66025 0.32890 -0.18634
 C811 C 0.61574 0.39291 -0.13706
 C812 C 0.59616 0.38425 -0.11799
 C813 C 0.58190 0.40520 -0.09958
 C814 C 0.55652 0.39420 -0.08478
 C815 C 0.54440 0.41114 -0.06506
 C816 C 0.55740 0.43959 -0.05951
 C817 C 0.58188 0.45147 -0.07500
 C818 C 0.59416 0.43437 -0.09483
 H819 H 0.65800 0.36602 -0.21459
 H820 H 0.63306 0.40202 -0.18632
 H821 H 0.63344 0.33354 -0.12546
 H822 H 0.65879 0.29792 -0.15334
 H823 H 0.62031 0.41697 -0.14117
 H824 H 0.58973 0.36029 -0.11576
 H825 H 0.54654 0.37192 -0.08800
 H826 H 0.52535 0.40145 -0.05361
 H827 H 0.59245 0.47325 -0.07104
 H828 H 0.61403 0.44348 -0.10552
 C829 C 1.14257 0.17068 -0.19035
 C830 C 1.12263 0.15292 -0.17441
 C831 C 1.13221 0.14210 -0.15066
 C832 C 1.16193 0.14979 -0.14286
 C833 C 1.18165 0.16800 -0.15847
 C834 C 1.17241 0.17896 -0.18256
 C835 C 1.11046 0.12423 -0.13372
 C836 C 1.12008 0.10177 -0.11798
 C837 C 1.09949 0.08529 -0.09920
 C838 C 1.10695 0.05532 -0.09139
 C839 C 1.08985 0.04007 -0.07194
 C840 C 1.06537 0.05482 -0.05947
 C841 C 1.05750 0.08465 -0.06756
 C842 C 1.07432 0.09973 -0.08732
 H843 H 1.13374 0.17909 -0.20821
 H844 H 1.09961 0.14762 -0.18065
 H845 H 1.16981 0.14225 -0.12442
 H846 H 1.20456 0.17255 -0.15173
 H847 H 1.08604 0.12930 -0.13467
 H848 H 1.14405 0.09478 -0.11903
 H849 H 1.12637 0.04383 -0.10014
 H850 H 1.09648 0.01710 -0.06608
 H851 H 1.03871 0.09652 -0.05829
 H852 H 1.06840 0.12309 -0.09251
 C853 C 1.15776 0.69059 0.33191
 C854 C 1.13978 0.67435 0.35024
 C855 C 1.15056 0.64712 0.36162
 C856 C 1.17969 0.63609 0.35384
 C857 C 1.19771 0.65236 0.33539
 C858 C 1.18701 0.67990 0.32434
 C859 C 1.13002 0.63063 0.38061
 C860 C 1.13949 0.60924 0.39751
 C861 C 1.11798 0.59323 0.41610
 C862 C 1.12959 0.58036 0.43864
 C863 C 1.10984 0.56509 0.45647
 C864 C 1.07811 0.56227 0.45197
 C865 C 1.06660 0.57476 0.42930
 C866 C 1.08626 0.58984 0.41150
 H867 H 1.14858 0.71141 0.32344
 H868 H 1.11729 0.68320 0.35558
 H869 H 1.18854 0.61479 0.36160
 H870 H 1.22020 0.64358 0.33001
 H871 H 1.10607 0.63762 0.38124
 H872 H 1.16385 0.60408 0.39866
 H873 H 1.15397 0.58232 0.44253
 H874 H 1.11936 0.55548 0.47372
 H875 H 1.04231 0.57259 0.42513
 H876 H 1.07649 0.59824 0.39400
 C877 C 0.65378 0.19297 0.33800
 C878 C 0.63575 0.17715 0.35652
 C879 C 0.64642 0.15002 0.36816
 C880 C 0.67554 0.13879 0.36062
 C881 C 0.69362 0.15467 0.34209
 C882 C 0.68294 0.18194 0.33058
 C883 C 0.62571 0.13359 0.38697
 C884 C 0.63494 0.11169 0.40348
 C885 C 0.61310 0.09490 0.42120
 C886 C 0.62417 0.08114 0.44358
 C887 C 0.60408 0.06486 0.46048
 C888 C 0.57260 0.06196 0.45514
 C889 C 0.56164 0.07536 0.43262
 C890 C 0.58163 0.09142 0.41575
 H891 H 0.64467 0.21363 0.32921
 H892 H 0.61326 0.18612 0.36171
 H893 H 0.68432 0.11755 0.36855
 H894 H 0.71609 0.14571 0.33689
 H895 H 0.60179 0.14068 0.38755
 H896 H 0.65923 0.10638 0.40482
 H897 H 0.64838 0.08315 0.44806
 H898 H 0.61313 0.05456 0.47765
 H899 H 0.53754 0.07315 0.42785
 H900 H 0.57235 0.10048 0.39826
 C901 C 0.66378 0.69795 -0.15972
 C902 C 0.64696 0.68121 -0.14098
 C903 C 0.65712 0.65257 -0.13206
 C904 C 0.68456 0.64078 -0.14252
 C905 C 0.70145 0.65745 -0.16141
 C906 C 0.69145 0.68648 -0.17047
 C907 C 0.63734 0.63523 -0.11308
 C908 C 0.64707 0.61182 -0.09827
 C909 C 0.62591 0.59441 -0.08034
 C910 C 0.63784 0.57954 -0.05875
 C911 C 0.61830 0.56279 -0.04168
 C912 C 0.58651 0.56041 -0.04610
 C913 C 0.57471 0.57490 -0.06788
 C914 C 0.59414 0.59153 -0.08486
 H915 H 0.65393 0.71928 -0.16642
 H916 H 0.62559 0.69063 -0.13359
 H917 H 0.69290 0.61848 -0.13657
 H918 H 0.72285 0.64763 -0.16818
 H919 H 0.61372 0.64290 -0.11082
 H920 H 0.67128 0.60577 -0.09850
 H921 H 0.66229 0.58107 -0.05499
 H922 H 0.62802 0.55165 -0.02511
 H923 H 0.55036 0.57317 -0.07197
 H924 H 0.58419 0.60156 -0.10175
 C925 C 0.82216 -0.12543 -0.17770
 C926 C 0.83772 -0.10730 -0.16086
 C927 C 0.86852 -0.11345 -0.15489
 C928 C 0.88403 -0.13719 -0.16712
 C929 C 0.86844 -0.15537 -0.18391
 C930 C 0.83721 -0.15000 -0.18903
 C931 C 0.88333 -0.09505 -0.13554
 C932 C 0.90657 -0.10552 -0.12143
 C933 C 0.91894 -0.08886 -0.09995
 C934 C 0.93369 -0.10566 -0.08072
 C935 C 0.94433 -0.09120 -0.05947
 C936 C 0.94058 -0.05956 -0.05713
 C937 C 0.92682 -0.04250 -0.07677
 C938 C 0.91620 -0.05696 -0.09804
 H939 H 0.79805 -0.12086 -0.18119
 H940 H 0.82535 -0.08898 -0.15187
 H941 H 0.90814 -0.14186 -0.16384
 H942 H 0.88079 -0.17371 -0.19287
 H943 H 0.87271 -0.07344 -0.13131
 H944 H 0.91519 -0.12838 -0.12410
 H945 H 0.93643 -0.13018 -0.08187
 H946 H 0.95523 -0.10485 -0.04477
 H947 H 0.92414 -0.01797 -0.07566
 H948 H 0.90606 -0.04301 -0.11289
 C949 C 0.86484 0.35066 0.31561
 C950 C 0.88172 0.36703 0.33283
 C951 C 0.88098 0.35828 0.35864
 C952 C 0.86296 0.33275 0.36695
 C953 C 0.84606 0.31643 0.34975
 C954 C 0.84665 0.32531 0.32393
 C955 C 0.89701 0.37779 0.37652
 C956 C 0.90503 0.36817 0.39978
 C957 C 0.91739 0.38919 0.41840
 C958 C 0.93618 0.37765 0.43770
 C959 C 0.94704 0.39691 0.45613
 C960 C 0.93893 0.42798 0.45570
 C961 C 0.91993 0.43939 0.43647
 C962 C 0.90917 0.42024 0.41811
 H963 H 0.86599 0.35785 0.29579
 H964 H 0.89520 0.38677 0.32600
 H965 H 0.86086 0.32593 0.38680
 H966 H 0.83173 0.29740 0.35681
 H967 H 0.90234 0.40108 0.37010
 H968 H 0.90277 0.34421 0.40547
 H969 H 0.94249 0.35371 0.43848
 H970 H 0.96164 0.38748 0.47074
 H971 H 0.91312 0.46319 0.43566
 H972 H 0.89379 0.42973 0.40413
 C973 C 0.35505 -0.14269 0.31377
 C974 C 0.37201 -0.12717 0.33145
 C975 C 0.38259 -0.14229 0.35329
 C976 C 0.37686 -0.17383 0.35660
 C977 C 0.35993 -0.18953 0.33893
 C978 C 0.34794 -0.17431 0.31717
 C979 C 0.39852 -0.12384 0.37214
 C980 C 0.40410 -0.13338 0.39601
 C981 C 0.41590 -0.11253 0.41510
 C982 C 0.43257 -0.12452 0.43557
 C983 C 0.44259 -0.10544 0.45449
 C984 C 0.43572 -0.07406 0.45339
 C985 C 0.41894 -0.06217 0.43294
 C986 C 0.40902 -0.08113 0.41411
 H987 H 0.34875 -0.12951 0.29706
 H988 H 0.37658 -0.10293 0.32809
 H989 H 0.38497 -0.18671 0.37289
 H990 H 0.35502 -0.21332 0.34368
 H991 H 0.40466 -0.10056 0.36622
 H992 H 0.39936 -0.15676 0.40231
 H993 H 0.43782 -0.14870 0.43692
 H994 H 0.45546 -0.11525 0.47003
 H995 H 0.41312 -0.03812 0.43156
 H996 H 0.39521 -0.07118 0.39923
 C997 C 0.32512 0.35271 -0.16019
 C998 C 0.34096 0.36778 -0.14162
 C999 C 0.37106 0.35917 -0.13534
 C1000 C 0.38520 0.33514 -0.14823
 C1001 C 0.36930 0.32004 -0.16691
 C1002 C 0.33912 0.32875 -0.17314
 C1003 C 0.38707 0.37700 -0.11625
 C1004 C 0.41206 0.36762 -0.10369
 C1005 C 0.42673 0.38712 -0.08494
 C1006 C 0.44113 0.37366 -0.06383
 C1007 C 0.45304 0.39196 -0.04507
 C1008 C 0.45075 0.42398 -0.04727
 C1009 C 0.43787 0.43733 -0.06910
 C1010 C 0.42623 0.41919 -0.08776
 H1011 H 0.30172 0.35962 -0.16419
 H1012 H 0.32956 0.38626 -0.13205
 H1013 H 0.40866 0.32838 -0.14444
 H1014 H 0.38085 0.30193 -0.17681
 H1015 H 0.37680 0.39871 -0.11170
 H1016 H 0.42096 0.34481 -0.10599
 H1017 H 0.44230 0.34899 -0.06149
 H1018 H 0.46325 0.38111 -0.02860
 H1019 H 0.43654 0.46197 -0.07171
 H1020 H 0.41674 0.43042 -0.10436
 C1021 C 1.19251 -0.12886 0.17363
 C1022 C 1.17480 -0.11113 0.15701
 C1023 C 1.14821 -0.12333 0.14635
 C1024 C 1.13974 -0.15389 0.15273
 C1025 C 1.15741 -0.17158 0.16940
 C1026 C 1.18408 -0.15934 0.17994
 C1027 C 1.13121 -0.10399 0.12774
 C1028 C 1.10244 -0.11009 0.12028
 C1029 C 1.08697 -0.09205 0.10003
 C1030 C 1.06468 -0.10665 0.08578
 C1031 C 1.05069 -0.09110 0.06563
 C1032 C 1.05839 -0.06040 0.05950
 C1033 C 1.07968 -0.04530 0.07444
 C1034 C 1.09387 -0.06095 0.09450
 H1035 H 1.21277 -0.11867 0.18161
 H1036 H 1.18201 -0.08776 0.15237
 H1037 H 1.12012 -0.16472 0.14443
 H1038 H 1.15067 -0.19518 0.17347
 H1039 H 1.14346 -0.08421 0.11951
 H1040 H 1.09002 -0.12990 0.12818
 H1041 H 1.05866 -0.13045 0.08984
 H1042 H 1.03410 -0.10324 0.05465
 H1043 H 1.08580 -0.02153 0.07034
 H1044 H 1.11008 -0.04858 0.10562
 C1045 C 1.16197 0.35937 0.68312
 C1046 C 1.14487 0.37416 0.66432
 C1047 C 1.15319 0.37176 0.63861
 C1048 C 1.17907 0.35408 0.63207
 C1049 C 1.19620 0.33934 0.65088
 C1050 C 1.18777 0.34170 0.67660
 C1051 C 1.13340 0.38670 0.61937
 C1052 C 1.14248 0.39294 0.59522
 C1053 C 1.12199 0.40779 0.57648
 C1054 C 1.13519 0.42526 0.55608
 C1055 C 1.11640 0.44046 0.53860
 C1056 C 1.08405 0.43821 0.54113
 C1057 C 1.07089 0.41967 0.56090
 C1058 C 1.08962 0.40454 0.57834
 H1059 H 1.15503 0.36181 0.70278
 H1060 H 1.12496 0.38748 0.66991
 H1061 H 1.18574 0.35075 0.61252
 H1062 H 1.21554 0.32531 0.64523
 H1063 H 1.11068 0.39382 0.62580
 H1064 H 1.16609 0.38867 0.58914
 H1065 H 1.16008 0.42774 0.55400
 H1066 H 1.12719 0.45443 0.52345
 H1067 H 1.04602 0.41718 0.56315
 H1068 H 1.07861 0.39026 0.59316
 C1069 C 0.65282 -0.15783 0.67762
 C1070 C 0.63479 -0.14320 0.65937
 C1071 C 0.64375 -0.14297 0.63363
 C1072 C 0.67089 -0.15835 0.62643
 C1073 C 0.68897 -0.17289 0.64470
 C1074 C 0.68021 -0.17267 0.67048
 C1075 C 0.62375 -0.12714 0.61505
 C1076 C 0.63334 -0.11782 0.59163
 C1077 C 0.61322 -0.10097 0.57375
 C1078 C 0.62693 -0.08179 0.55466
 C1079 C 0.60863 -0.06456 0.53813
 C1080 C 0.57625 -0.06634 0.54035
 C1081 C 0.56253 -0.08642 0.55880
 C1082 C 0.58078 -0.10369 0.57523
 H1083 H 0.64558 -0.15713 0.69736
 H1084 H 0.61388 -0.13175 0.66544
 H1085 H 0.67808 -0.15974 0.60677
 H1086 H 0.70961 -0.18475 0.63860
 H1087 H 0.60064 -0.12152 0.62162
 H1088 H 0.65725 -0.12074 0.58574
 H1089 H 0.65187 -0.07961 0.55289
 H1090 H 0.61983 -0.04943 0.52396
 H1091 H 0.53761 -0.08855 0.56075
 H1092 H 0.56930 -0.11916 0.58894
 C1093 C 0.66721 0.34778 0.18137
 C1094 C 0.65042 0.36309 0.16268
 C1095 C 0.65972 0.36220 0.13706
 C1096 C 0.68630 0.34552 0.13050
 C1097 C 0.70315 0.33028 0.14924
 C1098 C 0.69369 0.33112 0.17485
 C1099 C 0.64025 0.37779 0.11794
 C1100 C 0.64974 0.38514 0.09408
 C1101 C 0.62953 0.40090 0.07562
 C1102 C 0.64303 0.41929 0.05591
 C1103 C 0.62452 0.43544 0.03881
 C1104 C 0.59214 0.43327 0.04104
 C1105 C 0.57867 0.41388 0.06010
 C1106 C 0.59713 0.39776 0.07714
 H1107 H 0.65950 0.34907 0.20096
 H1108 H 0.62999 0.37563 0.16827
 H1109 H 0.69379 0.34341 0.11098
 H1110 H 0.72312 0.31711 0.14360
 H1111 H 0.61737 0.38452 0.12430
 H1112 H 0.67345 0.38121 0.08812
 H1113 H 0.66795 0.42172 0.05411
 H1114 H 0.63554 0.45004 0.02418
 H1115 H 0.55378 0.41144 0.06208
 H1116 H 0.58587 0.38281 0.09137
 C1117 C 0.87160 0.18833 0.17132
 C1118 C 0.88877 0.17250 0.15339
 C1119 C 0.87827 0.14427 0.14501
 C1120 C 0.85004 0.13217 0.15502
 C1121 C 0.83297 0.14793 0.17308
 C1122 C 0.84344 0.17628 0.18131
 C1123 C 0.89650 0.12933 0.12484
 C1124 C 0.89276 0.09998 0.11893
 C1125 C 0.90921 0.08565 0.09748
 C1126 C 0.90833 0.05364 0.09630
 C1127 C 0.92175 0.03910 0.07571
 C1128 C 0.93632 0.05633 0.05581
 C1129 C 0.93769 0.08830 0.05708
 C1130 C 0.92408 0.10288 0.07758
 H1131 H 0.88003 0.21041 0.17688
 H1132 H 0.91019 0.18255 0.14579
 H1133 H 0.84048 0.11098 0.14864
 H1134 H 0.81147 0.13794 0.18054
 H1135 H 0.91396 0.14327 0.11486
 H1136 H 0.87722 0.08536 0.13035
 H1137 H 0.89690 0.03981 0.11125
 H1138 H 0.92042 0.01437 0.07526
 H1139 H 0.94870 0.10213 0.04193
 H1140 H 0.92462 0.12759 0.07718
 C1141 C 0.86652 0.71029 0.65678
 C1142 C 0.88335 0.69614 0.63756
 C1143 C 0.87869 0.66503 0.63315
 C1144 C 0.85642 0.64843 0.64808
 C1145 C 0.83959 0.66256 0.66719
 C1146 C 0.84436 0.69364 0.67172
 C1147 C 0.89596 0.65081 0.61208
 C1148 C 0.90227 0.62085 0.61248
 C1149 C 0.91518 0.60446 0.59066
 C1150 C 0.90896 0.57304 0.58991
 C1151 C 0.91968 0.55621 0.56971
 C1152 C 0.93734 0.57028 0.54976
 C1153 C 0.94422 0.60169 0.55061
 C1154 C 0.93312 0.61874 0.57088
 H1155 H 0.87031 0.73443 0.65957
 H1156 H 0.90002 0.70951 0.62608
 H1157 H 0.85126 0.62471 0.64467
 H1158 H 0.82271 0.64914 0.67841
 H1159 H 0.90278 0.66531 0.59584
 H1160 H 0.89589 0.60693 0.62919
 H1161 H 0.89535 0.56146 0.60493
 H1162 H 0.91423 0.53198 0.56989
 H1163 H 0.95812 0.61304 0.53566
 H1164 H 0.93900 0.64280 0.57113
 C1165 C 0.36275 0.20531 0.66028
 C1166 C 0.37896 0.19080 0.64090
 C1167 C 0.36817 0.16299 0.63192
 C1168 C 0.34039 0.15033 0.64227
 C1169 C 0.32422 0.16480 0.66156
 C1170 C 0.33520 0.19243 0.67081
 C1171 C 0.38562 0.14821 0.61123
 C1172 C 0.38507 0.11782 0.60869
 C1173 C 0.39984 0.10163 0.58745
 C1174 C 0.39016 0.07150 0.58380
 C1175 C 0.40299 0.05477 0.56430
 C1176 C 0.42611 0.06767 0.54793
 C1177 C 0.43606 0.09784 0.55153
 C1178 C 0.42306 0.11473 0.57114
 H1179 H 0.37148 0.22688 0.66671
 H1180 H 0.40004 0.20123 0.63299
 H1181 H 0.33065 0.12953 0.63522
 H1182 H 0.30311 0.15428 0.66932
 H1183 H 0.39901 0.16285 0.59808
 H1184 H 0.37226 0.10369 0.62264
 H1185 H 0.37242 0.06079 0.59607
 H1186 H 0.39483 0.03154 0.56220
 H1187 H 0.45406 0.10826 0.53938
 H1188 H 0.43169 0.13765 0.57361
 C1189 C 0.36525 0.70549 0.15247
 C1190 C 0.38209 0.69103 0.13342
 C1191 C 0.37496 0.66089 0.12730
 C1192 C 0.34992 0.64579 0.14012
 C1193 C 0.33304 0.66026 0.15908
 C1194 C 0.34059 0.69021 0.16558
 C1195 C 0.39324 0.64613 0.10700
 C1196 C 0.39714 0.61574 0.10680
 C1197 C 0.41305 0.59923 0.08621
 C1198 C 0.40742 0.56772 0.08516
 C1199 C 0.42111 0.55070 0.06621
 C1200 C 0.44116 0.56467 0.04777
 C1201 C 0.44742 0.59618 0.04895
 C1202 C 0.43345 0.61338 0.06799
 H1203 H 0.37126 0.72880 0.15672
 H1204 H 0.40093 0.70332 0.12357
 H1205 H 0.34291 0.62296 0.13533
 H1206 H 0.31420 0.64787 0.16883
 H1207 H 0.40362 0.66082 0.09217
 H1208 H 0.38725 0.60169 0.12230
 H1209 H 0.39201 0.55615 0.09896
 H1210 H 0.41592 0.52643 0.06608
 H1211 H 0.46301 0.60751 0.03518
 H1212 H 0.43902 0.63748 0.06846
   
