data_POSCAR
  _audit_creation_date              2014-09-24
  _audit_creation_method            'ToBaCCo'
  _symmetry_space_group_name_H-M    'P1'
  _symmetry_Int_Tables_number       1
  _symmetry_cell_setting            triclinic
  loop_
  _symmetry_equiv_pos_as_xyz
 x,y,z
_cell_length_a 74.1424
_cell_length_b 74.1549
_cell_length_c 74.6681
_cell_angle_alpha 89.735900
_cell_angle_beta 90.004900
_cell_angle_gamma 90.124700
loop_
  _atom_site_label
  _atom_site_type_symbol
  _atom_site_fract_x
  _atom_site_fract_y
  _atom_site_fract_z
N1 N 0.17780 0.22190 0.22310
 N2 N 0.18204 0.20777 0.23290
 C3 C 0.16991 0.20599 0.24622
 C4 C 0.15734 0.21974 0.24470
 C5 C 0.16285 0.22957 0.22983
 H6 H 0.17006 0.19531 0.25611
 H7 H 0.15649 0.24142 0.22425
 Cu8 Cu 0.20278 0.19291 0.22696
 Cu9 Cu 0.19170 0.22911 0.20211
 Cu10 Cu 0.22900 0.20306 0.19160
 N11 N 0.22387 0.17853 0.22109
 N12 N 0.23404 0.18257 0.20723
 C13 C 0.24742 0.17041 0.20598
 C14 C 0.24559 0.15800 0.21981
 C15 C 0.23046 0.16365 0.22914
 H16 H 0.25769 0.17062 0.19571
 H17 H 0.22450 0.15723 0.24073
 N18 N 0.22166 0.22432 0.17744
 N19 N 0.20746 0.23421 0.18143
 C20 C 0.20580 0.24743 0.16912
 C21 C 0.21961 0.24583 0.15674
 C22 C 0.22941 0.23101 0.16251
 H23 H 0.19526 0.25747 0.16916
 H24 H 0.24113 0.22528 0.15611
 H25 H 0.20151 0.20378 0.19611
 H26 H 0.21589 0.21829 0.21068
 N27 N 0.67687 0.72222 0.72212
 N28 N 0.67879 0.70638 0.72983
 C29 C 0.66673 0.70476 0.74321
 C30 C 0.65658 0.72044 0.74392
 C31 C 0.66347 0.73121 0.73030
 H32 H 0.66526 0.69289 0.75153
 H33 H 0.65895 0.74449 0.72638
 Cu34 Cu 0.69656 0.68918 0.72150
 Cu35 Cu 0.69097 0.72947 0.70128
 Cu36 Cu 0.72268 0.69882 0.68606
 N37 N 0.71865 0.67597 0.71684
 N38 N 0.72886 0.67978 0.70295
 C39 C 0.74275 0.66816 0.70243
 C40 C 0.74124 0.65637 0.71685
 C41 C 0.72574 0.66182 0.72571
 H42 H 0.75291 0.66810 0.69206
 H43 H 0.71989 0.65588 0.73761
 N44 N 0.71826 0.72221 0.67430
 N45 N 0.70645 0.73403 0.68026
 C46 C 0.70641 0.74845 0.66923
 C47 C 0.71884 0.74562 0.65567
 C48 C 0.72612 0.72883 0.65941
 H49 H 0.69780 0.76006 0.67086
 H50 H 0.73615 0.72173 0.65168
 H51 H 0.69568 0.70408 0.69202
 H52 H 0.71324 0.71354 0.70721
 N53 N 0.32181 0.77508 0.72573
 N54 N 0.31730 0.78877 0.73587
 C55 C 0.32943 0.79037 0.74919
 C56 C 0.34226 0.77692 0.74735
 C57 C 0.33692 0.76748 0.73227
 H58 H 0.32896 0.80059 0.75944
 H59 H 0.34366 0.75610 0.72627
 Cu60 Cu 0.29625 0.80351 0.73053
 Cu61 Cu 0.30806 0.76838 0.70458
 Cu62 Cu 0.27123 0.79496 0.69386
 N63 N 0.27590 0.81864 0.72380
 N64 N 0.26620 0.81524 0.70950
 C65 C 0.25328 0.82785 0.70786
 C66 C 0.25490 0.83997 0.72192
 C67 C 0.26950 0.83357 0.73175
 H68 H 0.24356 0.82813 0.69709
 H69 H 0.27521 0.83936 0.74373
 N70 N 0.27845 0.77385 0.67966
 N71 N 0.29250 0.76374 0.68372
 C72 C 0.29406 0.75061 0.67141
 C73 C 0.28033 0.75251 0.65896
 C74 C 0.27070 0.76741 0.66468
 H75 H 0.30443 0.74040 0.67155
 H76 H 0.25906 0.77332 0.65825
 H77 H 0.29859 0.79410 0.69937
 H78 H 0.28368 0.77888 0.71285
 N79 N 0.82315 0.27836 0.22245
 N80 N 0.81868 0.29227 0.23229
 C81 C 0.83090 0.29424 0.24548
 C82 C 0.84384 0.28079 0.24389
 C83 C 0.83834 0.27097 0.22903
 H84 H 0.83041 0.30480 0.25537
 H85 H 0.84488 0.25938 0.22324
 Cu86 Cu 0.79753 0.30678 0.22679
 Cu87 Cu 0.80917 0.27104 0.20164
 Cu88 Cu 0.77207 0.29716 0.19068
 N89 N 0.77704 0.32165 0.21993
 N90 N 0.76714 0.31782 0.20586
 C91 C 0.75412 0.33032 0.20409
 C92 C 0.75594 0.34276 0.21777
 C93 C 0.77067 0.33677 0.22756
 H94 H 0.74426 0.33047 0.19343
 H95 H 0.77635 0.34295 0.23936
 N96 N 0.77922 0.27572 0.17695
 N97 N 0.79337 0.26579 0.18109
 C98 C 0.79486 0.25236 0.16910
 C99 C 0.78096 0.25387 0.15678
 C100 C 0.77132 0.26886 0.16224
 H101 H 0.80529 0.24222 0.16935
 H102 H 0.75958 0.27455 0.15580
 H103 H 0.79949 0.29657 0.19586
 H104 H 0.78484 0.28165 0.20993
 N105 N 0.82222 0.72328 0.27739
 N106 N 0.81817 0.70890 0.26798
 C107 C 0.83033 0.70710 0.25470
 C108 C 0.84271 0.72109 0.25585
 C109 C 0.83707 0.73109 0.27045
 H110 H 0.83033 0.69623 0.24512
 H111 H 0.84328 0.74314 0.27572
 Cu112 Cu 0.79766 0.69376 0.27432
 Cu113 Cu 0.80823 0.73059 0.29820
 Cu114 Cu 0.77131 0.70405 0.30942
 N115 N 0.77676 0.67911 0.28058
 N116 N 0.76654 0.68321 0.29434
 C117 C 0.75330 0.67086 0.29590
 C118 C 0.75528 0.65827 0.28237
 C119 C 0.77034 0.66400 0.27290
 H120 H 0.74302 0.67108 0.30615
 H121 H 0.77636 0.65751 0.26145
 N122 N 0.77836 0.72567 0.32301
 N123 N 0.79242 0.73575 0.31876
 C124 C 0.79389 0.74921 0.33073
 C125 C 0.78010 0.74756 0.34315
 C126 C 0.77052 0.73247 0.33777
 H127 H 0.80428 0.75945 0.33042
 H128 H 0.75889 0.72663 0.34432
 H129 H 0.79879 0.70519 0.30487
 H130 H 0.78420 0.71919 0.28994
 N131 N 0.32212 0.22214 -0.22404
 N132 N 0.31806 0.20790 -0.23362
 C133 C 0.33022 0.20622 -0.24690
 C134 C 0.34270 0.22019 -0.24561
 C135 C 0.33698 0.23002 -0.23086
 H136 H 0.33002 0.19551 -0.25663
 H137 H 0.34316 0.24194 -0.22528
 Cu138 Cu 0.29749 0.19274 -0.22751
 Cu139 Cu 0.30811 0.22922 -0.20315
 Cu140 Cu 0.27113 0.20258 -0.19231
 N141 N 0.27659 0.17801 -0.22146
 N142 N 0.26636 0.18194 -0.20766
 C143 C 0.25316 0.16954 -0.20621
 C144 C 0.25516 0.15709 -0.21986
 C145 C 0.27020 0.16296 -0.22928
 H146 H 0.24290 0.16961 -0.19594
 H147 H 0.27626 0.15658 -0.24078
 N148 N 0.27818 0.22402 -0.17845
 N149 N 0.29226 0.23414 -0.18254
 C150 C 0.29371 0.24745 -0.17040
 C151 C 0.27988 0.24567 -0.15804
 C152 C 0.27030 0.23065 -0.16363
 H153 H 0.30410 0.25768 -0.17057
 H154 H 0.25864 0.22475 -0.15719
 H155 H 0.29862 0.20376 -0.19681
 H156 H 0.28407 0.21798 -0.21157
 N157 N 0.67788 0.27599 -0.22386
 N158 N 0.68246 0.28965 -0.23415
 C159 C 0.67031 0.29129 -0.24745
 C160 C 0.65730 0.27788 -0.24547
 C161 C 0.66269 0.26843 -0.23026
 H162 H 0.67089 0.30161 -0.25768
 H163 H 0.65607 0.25700 -0.22410
 Cu164 Cu 0.70363 0.30432 -0.22901
 Cu165 Cu 0.69168 0.26922 -0.20273
 Cu166 Cu 0.72873 0.29566 -0.19232
 N167 N 0.72407 0.31942 -0.22242
 N168 N 0.73382 0.31596 -0.20813
 C169 C 0.74680 0.32858 -0.20662
 C170 C 0.74511 0.34070 -0.22071
 C171 C 0.73049 0.33440 -0.23046
 H172 H 0.75652 0.32904 -0.19585
 H173 H 0.72490 0.34029 -0.24249
 N174 N 0.72143 0.27454 -0.17796
 N175 N 0.70729 0.26449 -0.18190
 C176 C 0.70566 0.25135 -0.16949
 C177 C 0.71944 0.25317 -0.15710
 C178 C 0.72917 0.26804 -0.16295
 H179 H 0.69521 0.24118 -0.16952
 H180 H 0.74088 0.27390 -0.15660
 H181 H 0.70137 0.29492 -0.19775
 H182 H 0.71612 0.27967 -0.21116
 N183 N 0.17843 0.77705 0.27696
 N184 N 0.18247 0.79125 0.26716
 C185 C 0.17036 0.79276 0.25379
 C186 C 0.15801 0.77876 0.25530
 C187 C 0.16364 0.76906 0.27019
 H188 H 0.17036 0.80343 0.24390
 H189 H 0.15745 0.75709 0.27577
 Cu190 Cu 0.20295 0.80656 0.27315
 Cu191 Cu 0.19236 0.77015 0.29801
 Cu192 Cu 0.22923 0.79691 0.30857
 N193 N 0.22385 0.82131 0.27905
 N194 N 0.23405 0.81744 0.29291
 C195 C 0.24731 0.82979 0.29416
 C196 C 0.24539 0.84222 0.28030
 C197 C 0.23028 0.83628 0.27098
 H198 H 0.25746 0.82968 0.30453
 H199 H 0.22426 0.84239 0.25928
 N200 N 0.22214 0.77556 0.32277
 N201 N 0.20810 0.76540 0.31876
 C202 C 0.20657 0.75218 0.33110
 C203 C 0.22032 0.75407 0.34352
 C204 C 0.22992 0.76905 0.33776
 H205 H 0.19619 0.74194 0.33103
 H206 H 0.24154 0.77501 0.34418
 H207 H 0.20177 0.79568 0.30400
 H208 H 0.21639 0.78143 0.28947
 N209 N 0.47346 0.42914 0.47421
 N210 N 0.45917 0.43313 0.48379
 C211 C 0.45742 0.42091 0.49709
 C212 C 0.47137 0.40855 0.49577
 C213 C 0.48128 0.41428 0.48105
 H214 H 0.44663 0.42085 0.50681
 H215 H 0.49328 0.40812 0.47564
 Cu216 Cu 0.44406 0.45367 0.47762
 Cu217 Cu 0.48068 0.44322 0.45332
 Cu218 Cu 0.45423 0.48018 0.44240
 N219 N 0.42948 0.47462 0.47154
 N220 N 0.43354 0.48490 0.45774
 C221 C 0.42123 0.49814 0.45630
 C222 C 0.40871 0.49610 0.46995
 C223 C 0.41444 0.48100 0.47937
 H224 H 0.42143 0.50845 0.44604
 H225 H 0.40798 0.47491 0.49088
 N226 N 0.47572 0.47318 0.42854
 N227 N 0.48576 0.45911 0.43268
 C228 C 0.49910 0.45764 0.42054
 C229 C 0.49740 0.47145 0.40810
 C230 C 0.48241 0.48104 0.41366
 H231 H 0.50926 0.44722 0.42072
 H232 H 0.47657 0.49268 0.40715
 H233 H 0.46944 0.46721 0.46171
 H234 H 0.45527 0.45269 0.44693
 N235 N -0.02803 -0.07259 0.97375
 N236 N -0.04172 -0.06786 0.98384
 C237 C -0.04352 -0.07989 0.99729
 C238 C -0.03021 -0.09288 0.99558
 C239 C -0.02063 -0.08774 0.98045
 H240 H -0.05377 -0.07923 1.00754
 H241 H -0.00932 -0.09465 0.97451
 Cu242 Cu -0.05616 -0.04667 0.97828
 Cu243 Cu -0.02108 -0.05907 0.95245
 Cu244 Cu -0.04723 -0.02206 0.94126
 N245 N -0.07101 -0.02619 0.97134
 N246 N -0.06750 -0.01667 0.95688
 C247 C -0.07999 -0.00364 0.95510
 C248 C -0.09207 -0.00504 0.96922
 C249 C -0.08589 -0.01954 0.97925
 H250 H -0.08024 0.00609 0.94429
 H251 H -0.09195 -0.02508 0.99124
 N252 N -0.02616 -0.02964 0.92713
 N253 N -0.01618 -0.04371 0.93142
 C254 C -0.00298 -0.04550 0.91916
 C255 C -0.00472 -0.03191 0.90649
 C256 C -0.01959 -0.02212 0.91203
 H257 H 0.00699 -0.05609 0.91932
 H258 H -0.02521 -0.01034 0.90557
 H259 H -0.03137 -0.03449 0.96041
 H260 H -0.04669 -0.04936 0.94714
 N261 N 1.02759 0.57271 0.97314
 N262 N 1.04130 0.56785 0.98319
 C263 C 1.04319 0.57976 0.99662
 C264 C 1.02992 0.59281 0.99495
 C265 C 1.02027 0.58783 0.97985
 H266 H 1.05347 0.57898 1.00685
 H267 H 1.00894 0.59482 0.97396
 Cu268 Cu 1.05562 0.54663 0.97763
 Cu269 Cu 1.02046 0.55935 0.95192
 Cu270 Cu 1.04637 0.52228 0.94074
 N271 N 1.07034 0.52612 0.97068
 N272 N 1.06669 0.51670 0.95627
 C273 C 1.07909 0.50362 0.95446
 C274 C 1.09127 0.50486 0.96849
 C275 C 1.08524 0.51934 0.97851
 H276 H 1.07921 0.49395 0.94368
 H277 H 1.09140 0.52477 0.99044
 N278 N 1.02527 0.53004 0.92669
 N279 N 1.01539 0.54415 0.93095
 C280 C 1.00215 0.54607 0.91873
 C281 C 1.00377 0.53253 0.90611
 C282 C 1.01860 0.52263 0.91165
 H283 H 0.99224 0.55671 0.91888
 H284 H 1.02414 0.51085 0.90523
 H285 H 1.03066 0.53469 0.95992
 H286 H 1.04600 0.54956 0.94653
 N287 N 0.52704 0.07242 0.47435
 N288 N 0.54086 0.06793 0.48442
 C289 C 0.54255 0.08002 0.49772
 C290 C 0.52904 0.09280 0.49594
 C291 C 0.51945 0.08747 0.48092
 H292 H 0.55289 0.07956 0.50791
 H293 H 0.50799 0.09419 0.47497
 Cu294 Cu 0.55564 0.04699 0.47903
 Cu295 Cu 0.52019 0.05872 0.45325
 Cu296 Cu 0.54682 0.02204 0.44244
 N297 N 0.57080 0.02674 0.47224
 N298 N 0.56728 0.01705 0.45798
 C299 C 0.57994 0.00420 0.45630
 C300 C 0.59216 0.00591 0.47024
 C301 C 0.58587 0.02040 0.48009
 H302 H 0.58036 -0.00546 0.44551
 H303 H 0.59183 0.02597 0.49206
 N304 N 0.52554 0.02921 0.42834
 N305 N 0.51541 0.04320 0.43243
 C306 C 0.50216 0.04475 0.42018
 C307 C 0.50401 0.03106 0.40774
 C308 C 0.51900 0.02149 0.41340
 H309 H 0.49191 0.05507 0.42033
 H310 H 0.52491 0.00990 0.40697
 H311 H 0.53088 0.03436 0.46151
 H312 H 0.54590 0.04938 0.44792
 N313 N -0.02451 0.07224 0.52567
 N314 N -0.03824 0.06765 0.51555
 C315 C -0.03992 0.07976 0.50216
 C316 C -0.02649 0.09266 0.50394
 C317 C -0.01696 0.08739 0.51905
 H318 H -0.05021 0.07923 0.49193
 H319 H -0.00558 0.09421 0.52503
 Cu320 Cu -0.05299 0.04659 0.52100
 Cu321 Cu -0.01774 0.05856 0.54691
 Cu322 Cu -0.04438 0.02172 0.55791
 N323 N -0.06817 0.02629 0.52793
 N324 N -0.06476 0.01663 0.54231
 C325 C -0.07745 0.00374 0.54405
 C326 C -0.08958 0.00540 0.53001
 C327 C -0.08320 0.01989 0.52005
 H328 H -0.07795 -0.00591 0.55493
 H329 H -0.08907 0.02543 0.50798
 N330 N -0.02317 0.02900 0.57204
 N331 N -0.01305 0.04305 0.56787
 C332 C 0.00015 0.04467 0.58016
 C333 C -0.00172 0.03097 0.59271
 C334 C -0.01667 0.02130 0.58707
 H335 H 0.01039 0.05505 0.57995
 H336 H -0.02259 0.00967 0.59358
 H337 H -0.02835 0.03412 0.53882
 H338 H -0.04349 0.04905 0.55215
 N339 N 0.47159 0.57228 0.02787
 N340 N 0.45735 0.56836 0.01816
 C341 C 0.45566 0.58076 0.00503
 C342 C 0.46958 0.59317 0.00660
 C343 C 0.47942 0.58728 0.02129
 H344 H 0.44495 0.58087 -0.00477
 H345 H 0.49142 0.59341 0.02681
 Cu346 Cu 0.44229 0.54758 0.02387
 Cu347 Cu 0.47881 0.55784 0.04850
 Cu348 Cu 0.45250 0.52044 0.05858
 N349 N 0.42783 0.52636 0.02946
 N350 N 0.43190 0.51583 0.04306
 C351 C 0.41970 0.50241 0.04415
 C352 C 0.40724 0.50458 0.03047
 C353 C 0.41289 0.51996 0.02141
 H354 H 0.41994 0.49187 0.05418
 H355 H 0.40645 0.52620 0.00999
 N356 N 0.47388 0.52737 0.07267
 N357 N 0.48390 0.54158 0.06883
 C358 C 0.49724 0.54286 0.08100
 C359 C 0.49556 0.52879 0.09316
 C360 C 0.48057 0.51925 0.08740
 H361 H 0.50725 0.55347 0.08118
 H362 H 0.47491 0.50726 0.09349
 H363 H 0.46769 0.53395 0.03956
 H364 H 0.45342 0.54803 0.05460
 N365 N 0.52598 -0.06994 0.02536
 N366 N 0.53765 -0.06365 0.01365
 C367 C 0.53958 -0.07565 0.00033
 C368 C 0.52845 -0.09031 0.00382
 C369 C 0.52003 -0.08614 0.01986
 H370 H 0.54841 -0.07376 -0.01104
 H371 H 0.51033 -0.09427 0.02709
 Cu372 Cu 0.54950 -0.04057 0.01706
 Cu373 Cu 0.51902 -0.05645 0.04659
 Cu374 Cu 0.54007 -0.01510 0.05281
 N375 N 0.56572 -0.02157 0.02487
 N376 N 0.56199 -0.01162 0.03888
 C377 C 0.57522 0.00061 0.04116
 C378 C 0.58806 -0.00185 0.02787
 C379 C 0.58151 -0.01611 0.01778
 H380 H 0.57533 0.01058 0.05167
 H381 H 0.58774 -0.02218 0.00621
 N382 N 0.52156 -0.02470 0.06919
 N383 N 0.51378 -0.04056 0.06704
 C384 C 0.50205 -0.04334 0.08055
 C385 C 0.50247 -0.02854 0.09181
 C386 C 0.51505 -0.01701 0.08414
 H387 H 0.49387 -0.05532 0.08209
 H388 H 0.51920 -0.00394 0.08902
 H389 H 0.52422 -0.03143 0.03633
 H390 H 0.54306 -0.04222 0.04892
 N391 N 1.02628 0.42833 0.52676
 N392 N 1.04036 0.43267 0.51696
 C393 C 1.04183 0.42086 0.50339
 C394 C 1.02790 0.40842 0.50472
 C395 C 1.01830 0.41365 0.51975
 H396 H 1.05228 0.42130 0.49331
 H397 H 1.00656 0.40712 0.52541
 Cu398 Cu 1.05559 0.45312 0.52316
 Cu399 Cu 1.01955 0.44172 0.54811
 Cu400 Cu 1.04656 0.47816 0.55946
 N401 N 1.07060 0.47363 0.52964
 N402 N 1.06700 0.48334 0.54386
 C403 C 1.07951 0.49641 0.54545
 C404 C 1.09168 0.49487 0.53146
 C405 C 1.08554 0.48022 0.52169
 H406 H 1.07967 0.50629 0.55604
 H407 H 1.09165 0.47460 0.50983
 N408 N 1.02528 0.47078 0.57353
 N409 N 1.01498 0.45694 0.56920
 C410 C 1.00173 0.45527 0.58144
 C411 C 1.00377 0.46868 0.59414
 C412 C 1.01886 0.47825 0.58863
 H413 H 0.99151 0.44487 0.58126
 H414 H 1.02474 0.48985 0.59512
 H415 H 1.03073 0.46602 0.54017
 H416 H 1.04520 0.45086 0.55407
 C417 C 0.35553 -0.01637 0.25282
 C418 C 0.36504 -0.00021 0.25040
 C419 C 0.35566 0.01597 0.24790
 C420 C 0.33671 0.01614 0.24778
 C421 C 0.32730 -0.00017 0.25024
 C422 C 0.33658 -0.01650 0.25277
 C423 C 0.38486 -0.00024 0.25047
 C424 C 0.39434 -0.00343 0.23459
 C425 C 0.41329 -0.00357 0.23452
 C426 C 0.42260 -0.00049 0.25063
 C427 C 0.41321 0.00268 0.26667
 C428 C 0.39426 0.00282 0.26644
 H429 H 0.36293 -0.02885 0.25454
 H430 H 0.36316 0.02842 0.24623
 H431 H 0.38691 -0.00600 0.22236
 H432 H 0.38677 0.00503 0.27869
 H433 H 0.31269 -0.00015 0.25017
 H434 H 0.43720 -0.00009 0.25060
 C435 C 0.14593 -0.01822 0.74832
 C436 C 0.13656 -0.00202 0.75064
 C437 C 0.14608 0.01407 0.75331
 C438 C 0.16503 0.01411 0.75372
 C439 C 0.17429 -0.00223 0.75131
 C440 C 0.16487 -0.01847 0.74860
 C441 C 0.11674 -0.00192 0.75043
 C442 C 0.10710 -0.00544 0.76619
 C443 C 0.08816 -0.00527 0.76616
 C444 C 0.07901 -0.00156 0.75007
 C445 C 0.08855 0.00198 0.73416
 C446 C 0.10749 0.00178 0.73449
 H447 H 0.13841 -0.03062 0.74649
 H448 H 0.13868 0.02647 0.75535
 H449 H 0.11440 -0.00846 0.77841
 H450 H 0.11510 0.00470 0.72242
 H451 H 0.18890 -0.00222 0.75107
 H452 H 0.06440 -0.00141 0.74993
 C453 C 0.64559 0.48419 0.24610
 C454 C 0.63608 0.50001 0.24990
 C455 C 0.64546 0.51595 0.25368
 C456 C 0.66440 0.51623 0.25366
 C457 C 0.67382 0.50026 0.24987
 C458 C 0.66454 0.48416 0.24610
 C459 C 0.61626 0.49987 0.24990
 C460 C 0.60683 0.49743 0.26598
 C461 C 0.58788 0.49703 0.26609
 C462 C 0.57853 0.49929 0.24986
 C463 C 0.58786 0.50179 0.23364
 C464 C 0.60680 0.50201 0.23381
 H465 H 0.63819 0.47198 0.24301
 H466 H 0.63795 0.52807 0.25679
 H467 H 0.61430 0.49551 0.27832
 H468 H 0.61425 0.50367 0.22142
 H469 H 0.68843 0.50036 0.24986
 H470 H 0.56392 0.49956 0.24992
 C471 C 0.85397 0.48434 0.75232
 C472 C 0.86323 0.50065 0.74989
 C473 C 0.85360 0.51665 0.74716
 C474 C 0.83466 0.51647 0.74675
 C475 C 0.82550 0.50003 0.74931
 C476 C 0.83503 0.48389 0.75209
 C477 C 0.88305 0.50091 0.74995
 C478 C 0.89257 0.49709 0.73423
 C479 C 0.91152 0.49725 0.73414
 C480 C 0.92079 0.50125 0.75007
 C481 C 0.91136 0.50507 0.76595
 C482 C 0.89241 0.50490 0.76573
 H483 H 0.86157 0.47201 0.75418
 H484 H 0.86092 0.52914 0.74500
 H485 H 0.88518 0.49382 0.72215
 H486 H 0.88490 0.50799 0.77778
 H487 H 0.81089 0.49988 0.74956
 H488 H 0.93539 0.50136 0.75012
 C489 C 0.25192 0.35566 -0.01738
 C490 C 0.24909 0.36511 -0.00144
 C491 C 0.24606 0.35567 0.01456
 C492 C 0.24581 0.33672 0.01477
 C493 C 0.24868 0.32738 -0.00132
 C494 C 0.25173 0.33672 -0.01747
 C495 C 0.24919 0.38492 -0.00154
 C496 C 0.23317 0.39441 -0.00460
 C497 C 0.23316 0.41336 -0.00491
 C498 C 0.24945 0.42265 -0.00207
 C499 C 0.26562 0.41326 0.00100
 C500 C 0.26534 0.39432 0.00125
 H501 H 0.25402 0.36312 -0.02973
 H502 H 0.24365 0.36313 0.02678
 H503 H 0.22080 0.38699 -0.00699
 H504 H 0.27770 0.38683 0.00337
 H505 H 0.24902 0.31277 -0.00118
 H506 H 0.24946 0.43725 -0.00178
 C507 C 0.74676 0.14320 -0.01536
 C508 C 0.74979 0.13366 0.00057
 C509 C 0.75266 0.14300 0.01658
 C510 C 0.75251 0.16194 0.01679
 C511 C 0.74948 0.17138 0.00070
 C512 C 0.74655 0.16214 -0.01545
 C513 C 0.74974 0.11384 0.00053
 C514 C 0.76575 0.10440 -0.00264
 C515 C 0.76578 0.08546 -0.00298
 C516 C 0.74951 0.07611 -0.00006
 C517 C 0.73335 0.08546 0.00310
 C518 C 0.73362 0.10440 0.00338
 H519 H 0.74429 0.13581 -0.02762
 H520 H 0.75474 0.13547 0.02888
 H521 H 0.77809 0.11186 -0.00510
 H522 H 0.72126 0.11186 0.00554
 H523 H 0.74984 0.18599 0.00066
 H524 H 0.74951 0.06151 0.00018
 C525 C 0.24726 0.64400 0.48519
 C526 C 0.25017 0.63439 0.50111
 C527 C 0.25291 0.64366 0.51718
 C528 C 0.25278 0.66260 0.51747
 C529 C 0.24987 0.67212 0.50139
 C530 C 0.24707 0.66294 0.48519
 C531 C 0.25016 0.61457 0.50098
 C532 C 0.26621 0.60519 0.49785
 C533 C 0.26631 0.58625 0.49750
 C534 C 0.25007 0.57685 0.50037
 C535 C 0.23386 0.58613 0.50350
 C536 C 0.23406 0.60507 0.50380
 H537 H 0.24490 0.63667 0.47289
 H538 H 0.25490 0.63608 0.52946
 H539 H 0.27854 0.61270 0.49544
 H540 H 0.22167 0.61249 0.50596
 H541 H 0.25024 0.68672 0.50142
 H542 H 0.25012 0.56225 0.50062
 C543 C 0.75343 0.85808 0.48378
 C544 C 0.75080 0.86742 0.49981
 C545 C 0.74782 0.85789 0.51577
 C546 C 0.74742 0.83895 0.51584
 C547 C 0.75012 0.82970 0.49966
 C548 C 0.75310 0.83914 0.48355
 C549 C 0.75094 0.88724 0.49985
 C550 C 0.73494 0.89677 0.49687
 C551 C 0.73494 0.91572 0.49672
 C552 C 0.75125 0.92497 0.49962
 C553 C 0.76741 0.91553 0.50260
 C554 C 0.76711 0.89658 0.50271
 H555 H 0.75548 0.86561 0.47147
 H556 H 0.74553 0.86527 0.52805
 H557 H 0.72256 0.88939 0.49442
 H558 H 0.77945 0.88906 0.50476
 H559 H 0.75034 0.81510 0.49968
 H560 H 0.75128 0.93957 0.50002
 C561 C -0.01586 0.25496 0.35489
 C562 C -0.00002 0.25131 0.36443
 C563 C 0.01595 0.24746 0.35521
 C564 C 0.01623 0.24729 0.33640
 C565 C 0.00023 0.25094 0.32696
 C566 C -0.01590 0.25477 0.33608
 C567 C -0.00017 0.25143 0.38411
 C568 C -0.00246 0.23527 0.39363
 C569 C -0.00288 0.23526 0.41244
 C570 C -0.00078 0.25167 0.42157
 C571 C 0.00158 0.26797 0.41216
 C572 C 0.00181 0.26770 0.39335
 H573 H -0.02810 0.25809 0.36217
 H574 H 0.02809 0.24446 0.36273
 H575 H -0.00426 0.22280 0.38634
 H576 H 0.00338 0.28015 0.38584
 H577 H 0.00032 0.25080 0.31246
 H578 H -0.00052 0.25169 0.43608
 C579 C -0.01573 0.74632 0.14479
 C580 C 0.00036 0.74908 0.13533
 C581 C 0.01657 0.75155 0.14462
 C582 C 0.01685 0.75131 0.16343
 C583 C 0.00062 0.74850 0.17279
 C584 C -0.01573 0.74594 0.16360
 C585 C 0.00025 0.74922 0.11565
 C586 C -0.00337 0.76524 0.10633
 C587 C -0.00348 0.76552 0.08751
 C588 C 0.00007 0.74949 0.07818
 C589 C 0.00371 0.73333 0.08740
 C590 C 0.00378 0.73334 0.10621
 H591 H -0.02815 0.74417 0.13745
 H592 H 0.02897 0.75345 0.13715
 H593 H -0.00628 0.77740 0.11377
 H594 H 0.00676 0.72108 0.11357
 H595 H 0.00064 0.74878 0.18730
 H596 H 0.00000 0.74959 0.06367
 C597 C 0.48392 0.24682 0.64459
 C598 C 0.50003 0.24986 0.63526
 C599 C 0.51615 0.25247 0.64468
 C600 C 0.51630 0.25206 0.66349
 C601 C 0.50004 0.24904 0.67272
 C602 C 0.48378 0.24636 0.66340
 C603 C 0.50007 0.25008 0.61558
 C604 C 0.49740 0.26630 0.60629
 C605 C 0.49765 0.26669 0.58748
 C606 C 0.50057 0.25055 0.57811
 C607 C 0.50330 0.23419 0.58730
 C608 C 0.50300 0.23410 0.60611
 H609 H 0.47157 0.24456 0.63715
 H610 H 0.52857 0.25455 0.63731
 H611 H 0.49540 0.27863 0.61376
 H612 H 0.50531 0.22167 0.61345
 H613 H 0.49996 0.24921 0.68722
 H614 H 0.50027 0.25065 0.56361
 C615 C 0.48486 0.75239 0.85713
 C616 C 0.50115 0.75035 0.86642
 C617 C 0.51729 0.74820 0.85694
 C618 C 0.51729 0.74803 0.83813
 C619 C 0.50087 0.75012 0.82895
 C620 C 0.48458 0.75231 0.83832
 C621 C 0.50130 0.75047 0.88610
 C622 C 0.49804 0.73451 0.89567
 C623 C 0.49837 0.73444 0.91448
 C624 C 0.50187 0.75064 0.92356
 C625 C 0.50513 0.76675 0.91408
 C626 C 0.50486 0.76651 0.89528
 H627 H 0.47243 0.75385 0.86461
 H628 H 0.52983 0.74682 0.86427
 H629 H 0.49556 0.72213 0.88841
 H630 H 0.50757 0.77873 0.88772
 H631 H 0.50076 0.75002 0.81444
 H632 H 0.50159 0.75081 0.93806
 C633 C 0.11057 0.22871 0.27758
 C634 C 0.11278 0.23829 0.26155
 C635 C 0.12801 0.23545 0.25091
 C636 C 0.14129 0.22295 0.25615
 C637 C 0.13897 0.21345 0.27237
 C638 C 0.12371 0.21632 0.28299
 C639 C 0.09471 0.23148 0.28833
 C640 C 0.08129 0.23386 0.29711
 C641 C 0.06511 0.23680 0.30732
 C642 C 0.04882 0.22909 0.30174
 C643 C 0.03296 0.23234 0.31130
 C644 C 0.03318 0.24338 0.32657
 C645 C 0.04966 0.25091 0.33219
 C646 C 0.06552 0.24765 0.32260
 H647 H 0.10266 0.24789 0.25722
 H648 H 0.12919 0.24294 0.23851
 H649 H 0.14891 0.20384 0.27695
 H650 H 0.12215 0.20884 0.29540
 H651 H 0.04836 0.22063 0.28995
 H652 H 0.02054 0.22614 0.30679
 H653 H 0.05022 0.25963 0.34378
 H654 H 0.07805 0.25374 0.32700
 C655 C 0.61127 0.73137 0.77818
 C656 C 0.62229 0.71646 0.78157
 C657 C 0.63714 0.71300 0.77057
 C658 C 0.64116 0.72442 0.75598
 C659 C 0.63007 0.73950 0.75283
 C660 C 0.61523 0.74291 0.76385
 C661 C 0.59562 0.73458 0.78910
 C662 C 0.58235 0.73722 0.79803
 C663 C 0.56631 0.74029 0.80842
 C664 C 0.56305 0.73018 0.82397
 C665 C 0.54720 0.73282 0.83375
 C666 C 0.53438 0.74559 0.82806
 C667 C 0.53787 0.75580 0.81251
 C668 C 0.55373 0.75315 0.80276
 H669 H 0.61935 0.70743 0.79265
 H670 H 0.64540 0.70137 0.77355
 H671 H 0.63260 0.74856 0.74173
 H672 H 0.60675 0.75447 0.76107
 H673 H 0.57267 0.72014 0.82843
 H674 H 0.54479 0.72461 0.84554
 H675 H 0.52838 0.76590 0.80794
 H676 H 0.55614 0.76107 0.79077
 C677 C 0.38927 0.76762 0.77989
 C678 C 0.37922 0.78341 0.78200
 C679 C 0.36388 0.78640 0.77152
 C680 C 0.35837 0.77363 0.75873
 C681 C 0.36854 0.75774 0.75680
 C682 C 0.38388 0.75479 0.76730
 C683 C 0.40528 0.76473 0.79040
 C684 C 0.41880 0.76234 0.79906
 C685 C 0.43507 0.75952 0.80919
 C686 C 0.43856 0.76986 0.82445
 C687 C 0.45458 0.76741 0.83403
 C688 C 0.46734 0.75460 0.82844
 C689 C 0.46364 0.74418 0.81317
 C690 C 0.44761 0.74664 0.80362
 H691 H 0.38331 0.79347 0.79168
 H692 H 0.35652 0.79883 0.77335
 H693 H 0.36470 0.74752 0.74724
 H694 H 0.39156 0.74250 0.76556
 H695 H 0.42897 0.77992 0.82884
 H696 H 0.45714 0.77578 0.84561
 H697 H 0.47308 0.73404 0.80868
 H698 H 0.44502 0.73853 0.79186
 C699 C -0.10988 0.27238 0.27618
 C700 C -0.12166 0.28655 0.27995
 C701 C -0.13697 0.28931 0.26937
 C702 C -0.14080 0.27792 0.25473
 C703 C -0.12878 0.26362 0.25119
 C704 C -0.11350 0.26092 0.26182
 C705 C -0.09399 0.26969 0.28692
 C706 C -0.08058 0.26740 0.29578
 C707 C -0.06447 0.26459 0.30616
 C708 C -0.06502 0.25404 0.32174
 C709 C -0.04927 0.25098 0.33159
 C710 C -0.03273 0.25843 0.32594
 C711 C -0.03236 0.26915 0.31034
 C712 C -0.04813 0.27220 0.30053
 H713 H -0.11898 0.29552 0.29106
 H714 H -0.14566 0.30046 0.27278
 H715 H -0.13099 0.25443 0.24022
 H716 H -0.10445 0.24989 0.25878
 H717 H -0.07760 0.24804 0.32619
 H718 H -0.04994 0.24250 0.34341
 H719 H -0.01990 0.27527 0.30579
 H720 H -0.04756 0.28043 0.28851
 C721 C -0.11049 0.73005 0.22287
 C722 C -0.12351 0.71740 0.21777
 C723 C -0.13878 0.71455 0.22841
 C724 C -0.14125 0.72433 0.24434
 C725 C -0.12810 0.73712 0.24926
 C726 C -0.11285 0.73993 0.23860
 C727 C -0.09455 0.73269 0.21217
 C728 C -0.08106 0.73488 0.20340
 C729 C -0.06479 0.73745 0.19319
 C730 C -0.06480 0.74852 0.17796
 C731 C -0.04888 0.75122 0.16825
 C732 C -0.03273 0.74289 0.17369
 C733 C -0.03291 0.73169 0.18896
 C734 C -0.04883 0.72901 0.19863
 H735 H -0.12182 0.70967 0.20561
 H736 H -0.14862 0.70471 0.22407
 H737 H -0.12940 0.74484 0.26144
 H738 H -0.10282 0.74973 0.24270
 H739 H -0.07707 0.75517 0.17367
 H740 H -0.04913 0.76007 0.15668
 H741 H -0.02076 0.72489 0.19333
 H742 H -0.04869 0.72037 0.21037
 C743 C 0.38878 0.22952 0.72202
 C744 C 0.37739 0.21494 0.71847
 C745 C 0.36211 0.21190 0.72903
 C746 C 0.35793 0.22343 0.74345
 C747 C 0.36951 0.23820 0.74673
 C748 C 0.38477 0.24117 0.73612
 C749 C 0.40477 0.23235 0.71144
 C750 C 0.41830 0.23467 0.70277
 C751 C 0.43461 0.23738 0.69266
 C752 C 0.45059 0.22903 0.69816
 C753 C 0.46655 0.23186 0.68858
 C754 C 0.46673 0.24311 0.67335
 C755 C 0.45056 0.25135 0.66785
 C756 C 0.43461 0.24851 0.67746
 H757 H 0.38038 0.20582 0.70757
 H758 H 0.35375 0.20041 0.72582
 H759 H 0.36702 0.24753 0.75752
 H760 H 0.39352 0.25252 0.73900
 H761 H 0.45073 0.22036 0.70987
 H762 H 0.47872 0.22513 0.69301
 H763 H 0.45032 0.26024 0.65630
 H764 H 0.42231 0.25508 0.67312
 C765 C 0.61103 0.26873 0.72247
 C766 C 0.62289 0.28279 0.71824
 C767 C 0.63821 0.28579 0.72874
 C768 C 0.64196 0.27475 0.74375
 C769 C 0.62987 0.26054 0.74774
 C770 C 0.61457 0.25761 0.73720
 C771 C 0.59509 0.26583 0.71185
 C772 C 0.58163 0.26335 0.70314
 C773 C 0.56542 0.26035 0.69297
 C774 C 0.56176 0.27082 0.67776
 C775 C 0.54585 0.26807 0.66808
 C776 C 0.53337 0.25481 0.67353
 C777 C 0.53724 0.24429 0.68878
 C778 C 0.55316 0.24705 0.69842
 H779 H 0.62026 0.29150 0.70685
 H780 H 0.64696 0.29684 0.72498
 H781 H 0.63201 0.25161 0.75901
 H782 H 0.60546 0.24667 0.74060
 H783 H 0.57114 0.28119 0.67346
 H784 H 0.54315 0.27653 0.65653
 H785 H 0.52803 0.23381 0.69316
 H786 H 0.55588 0.23884 0.71014
 C787 C 0.11145 0.76876 0.22235
 C788 C 0.12435 0.78147 0.21697
 C789 C 0.13954 0.78467 0.22762
 C790 C 0.14204 0.77520 0.24382
 C791 C 0.12899 0.76237 0.24902
 C792 C 0.11383 0.75920 0.23836
 C793 C 0.09564 0.76566 0.21161
 C794 C 0.08224 0.76302 0.20284
 C795 C 0.06608 0.75982 0.19265
 C796 C 0.06241 0.77011 0.17733
 C797 C 0.04647 0.76726 0.16771
 C798 C 0.03399 0.75407 0.17334
 C799 C 0.03790 0.74370 0.18868
 C800 C 0.05383 0.74658 0.19826
 H801 H 0.12265 0.78894 0.20459
 H802 H 0.14930 0.79453 0.22307
 H803 H 0.13030 0.75489 0.26140
 H804 H 0.10389 0.74936 0.24267
 H805 H 0.07177 0.78045 0.17291
 H806 H 0.04375 0.77559 0.15608
 H807 H 0.02868 0.73330 0.19321
 H808 H 0.05657 0.73851 0.21009
 C809 C 0.27813 0.11114 0.23029
 C810 C 0.28023 0.12075 0.21426
 C811 C 0.26976 0.13606 0.21089
 C812 C 0.25698 0.14196 0.22352
 C813 C 0.25509 0.13224 0.23966
 C814 C 0.26559 0.11694 0.24300
 C815 C 0.28863 0.09516 0.23357
 C816 C 0.29728 0.08167 0.23626
 C817 C 0.30742 0.06544 0.23941
 C818 C 0.32291 0.06187 0.22933
 C819 C 0.33253 0.04590 0.23214
 C820 C 0.32674 0.03328 0.24506
 C821 C 0.31122 0.03707 0.25520
 C822 C 0.30164 0.05304 0.25238
 H823 H 0.28988 0.11635 0.20431
 H824 H 0.27156 0.14306 0.19828
 H825 H 0.24556 0.13640 0.24978
 H826 H 0.26386 0.10961 0.25546
 H827 H 0.32747 0.07135 0.21921
 H828 H 0.34430 0.04327 0.22398
 H829 H 0.30657 0.02774 0.26541
 H830 H 0.28968 0.05569 0.26028
 C831 C 0.77488 0.61063 0.72872
 C832 C 0.75865 0.61306 0.73794
 C833 C 0.74782 0.62803 0.73426
 C834 C 0.75305 0.64081 0.72124
 C835 C 0.76953 0.63834 0.71221
 C836 C 0.78034 0.62335 0.71592
 C837 C 0.78564 0.59484 0.73204
 C838 C 0.79445 0.58144 0.73467
 C839 C 0.80469 0.56524 0.73763
 C840 C 0.81987 0.56544 0.74877
 C841 C 0.82969 0.54961 0.75171
 C842 C 0.82440 0.53336 0.74356
 C843 C 0.80915 0.53333 0.73234
 C844 C 0.79938 0.54916 0.72941
 H845 H 0.75427 0.60326 0.74784
 H846 H 0.73523 0.62935 0.74144
 H847 H 0.77413 0.64791 0.70223
 H848 H 0.79289 0.62161 0.70870
 H849 H 0.82407 0.57780 0.75524
 H850 H 0.84124 0.55001 0.76057
 H851 H 0.80489 0.52111 0.72567
 H852 H 0.78767 0.54887 0.72072
 C853 C 0.77699 0.38824 0.76920
 C854 C 0.76108 0.38528 0.75958
 C855 C 0.75076 0.36979 0.76277
 C856 C 0.75620 0.35703 0.77569
 C857 C 0.77229 0.36012 0.78524
 C858 C 0.78259 0.37562 0.78201
 C859 C 0.78741 0.40434 0.76609
 C860 C 0.79599 0.41793 0.76349
 C861 C 0.80603 0.43428 0.76040
 C862 C 0.80029 0.44655 0.74731
 C863 C 0.80978 0.46262 0.74452
 C864 C 0.82517 0.46664 0.75481
 C865 C 0.83092 0.45415 0.76785
 C866 C 0.82139 0.43808 0.77062
 H867 H 0.75659 0.39499 0.74966
 H868 H 0.73844 0.36801 0.75523
 H869 H 0.77703 0.35059 0.79517
 H870 H 0.79490 0.37777 0.78953
 H871 H 0.78844 0.44373 0.73930
 H872 H 0.80517 0.47185 0.73423
 H873 H 0.84258 0.45695 0.77612
 H874 H 0.82591 0.42869 0.78083
 C875 C 0.27735 -0.11143 0.26986
 C876 C 0.28150 -0.12275 0.28429
 C877 C 0.27105 -0.13810 0.28770
 C878 C 0.25616 -0.14243 0.27671
 C879 C 0.25226 -0.13090 0.26211
 C880 C 0.26275 -0.11556 0.25876
 C881 C 0.28790 -0.09544 0.26661
 C882 C 0.29662 -0.08195 0.26396
 C883 C 0.30688 -0.06573 0.26089
 C884 C 0.32233 -0.06220 0.27108
 C885 C 0.33208 -0.04626 0.26836
 C886 C 0.32647 -0.03362 0.25541
 C887 C 0.31099 -0.03736 0.24515
 C888 C 0.30128 -0.05331 0.24789
 H889 H 0.29278 -0.11967 0.29298
 H890 H 0.27474 -0.14641 0.29904
 H891 H 0.24108 -0.13350 0.25319
 H892 H 0.25942 -0.10687 0.24754
 H893 H 0.32675 -0.07170 0.28123
 H894 H 0.34381 -0.04367 0.27661
 H895 H 0.30648 -0.02801 0.23491
 H896 H 0.28936 -0.05592 0.23990
 C897 C 0.22340 -0.11347 0.73177
 C898 C 0.21963 -0.12439 0.71703
 C899 C 0.22994 -0.13979 0.71379
 C900 C 0.24431 -0.14459 0.72528
 C901 C 0.24785 -0.13345 0.74018
 C902 C 0.23749 -0.11806 0.74334
 C903 C 0.21297 -0.09745 0.73490
 C904 C 0.20435 -0.08394 0.73748
 C905 C 0.19421 -0.06771 0.74050
 C906 C 0.17885 -0.06401 0.73024
 C907 C 0.16921 -0.04807 0.73295
 C908 C 0.17485 -0.03559 0.74596
 C909 C 0.19025 -0.03951 0.75629
 C910 C 0.19985 -0.05546 0.75356
 H911 H 0.20874 -0.12095 0.70796
 H912 H 0.22655 -0.14778 0.70220
 H913 H 0.25862 -0.13641 0.74947
 H914 H 0.24054 -0.10968 0.75481
 H915 H 0.17440 -0.07338 0.72005
 H916 H 0.15755 -0.04534 0.72465
 H917 H 0.19478 -0.03029 0.76656
 H918 H 0.21170 -0.05821 0.76161
 C919 C 0.72384 0.39010 0.22700
 C920 C 0.71814 0.37716 0.21465
 C921 C 0.72853 0.36175 0.21167
 C922 C 0.74480 0.35905 0.22103
 C923 C 0.75036 0.37215 0.23347
 C924 C 0.73995 0.38754 0.23642
 C925 C 0.71326 0.40605 0.22997
 C926 C 0.70452 0.41949 0.23250
 C927 C 0.69425 0.43562 0.23560
 C928 C 0.67875 0.43501 0.24628
 C929 C 0.66899 0.45076 0.24959
 C930 C 0.67465 0.46735 0.24226
 C931 C 0.69018 0.46779 0.23143
 C932 C 0.69990 0.45203 0.22814
 H933 H 0.70567 0.37900 0.20730
 H934 H 0.72371 0.35196 0.20210
 H935 H 0.76282 0.37067 0.24085
 H936 H 0.74451 0.39750 0.24599
 H937 H 0.67429 0.42238 0.25217
 H938 H 0.65722 0.45003 0.25814
 H939 H 0.69473 0.48031 0.22540
 H940 H 0.71186 0.45265 0.21981
 C941 C 0.72301 0.61098 0.27283
 C942 C 0.72091 0.62069 0.28870
 C943 C 0.73132 0.63611 0.29178
 C944 C 0.74401 0.64205 0.27901
 C945 C 0.74592 0.63220 0.26304
 C946 C 0.73550 0.61679 0.25999
 C947 C 0.71252 0.59493 0.26979
 C948 C 0.70387 0.58140 0.26723
 C949 C 0.69373 0.56514 0.26412
 C950 C 0.67822 0.56556 0.25345
 C951 C 0.66858 0.54969 0.25016
 C952 C 0.67437 0.53317 0.25749
 C953 C 0.68991 0.53292 0.26831
 C954 C 0.69951 0.54881 0.27159
 H955 H 0.71131 0.61628 0.29875
 H956 H 0.72951 0.64321 0.30427
 H957 H 0.75540 0.63638 0.25281
 H958 H 0.73721 0.60938 0.24764
 H959 H 0.67366 0.57813 0.24755
 H960 H 0.65680 0.55027 0.24161
 H961 H 0.69456 0.52047 0.27435
 H962 H 0.71148 0.54834 0.27992
 C963 C 0.22329 0.10957 0.77043
 C964 C 0.23571 0.11553 0.75760
 C965 C 0.24599 0.13104 0.76068
 C966 C 0.24400 0.14081 0.77669
 C967 C 0.23135 0.13474 0.78944
 C968 C 0.22110 0.11922 0.78632
 C969 C 0.21300 0.09338 0.76742
 C970 C 0.20451 0.07973 0.76500
 C971 C 0.19451 0.06333 0.76221
 C972 C 0.20003 0.04735 0.77059
 C973 C 0.19043 0.03136 0.76786
 C974 C 0.17515 0.03114 0.75668
 C975 C 0.16967 0.04728 0.74835
 C976 C 0.17931 0.06327 0.75110
 H977 H 0.23751 0.10816 0.74523
 H978 H 0.25544 0.13533 0.75048
 H979 H 0.22948 0.14177 0.80195
 H980 H 0.21155 0.11469 0.79637
 H981 H 0.21175 0.04726 0.77927
 H982 H 0.19484 0.01921 0.77466
 H983 H 0.15810 0.04749 0.73951
 H984 H 0.17495 0.07555 0.74451
 C985 C 0.22888 0.27818 0.10962
 C986 C 0.21271 0.27980 0.11912
 C987 C 0.20973 0.26939 0.13450
 C988 C 0.22290 0.25716 0.14060
 C989 C 0.23917 0.25574 0.13099
 C990 C 0.24212 0.26617 0.11561
 C991 C 0.23177 0.28861 0.09357
 C992 C 0.23413 0.29720 0.08002
 C993 C 0.23690 0.30729 0.06374
 C994 C 0.22873 0.30162 0.04784
 C995 C 0.23155 0.31123 0.03194
 C996 C 0.24262 0.32667 0.03173
 C997 C 0.25070 0.33233 0.04781
 C998 C 0.24786 0.32268 0.06371
 H999 H 0.20235 0.28902 0.11456
 H1000 H 0.19700 0.27081 0.14141
 H1001 H 0.24970 0.24663 0.13531
 H1002 H 0.25470 0.26482 0.10837
 H1003 H 0.22018 0.28975 0.04772
 H1004 H 0.22495 0.30668 0.01983
 H1005 H 0.25945 0.34403 0.04804
 H1006 H 0.25430 0.32716 0.07594
 C1007 C 0.72980 0.77941 0.60993
 C1008 C 0.74113 0.76489 0.61394
 C1009 C 0.73770 0.75403 0.62891
 C1010 C 0.72285 0.75753 0.64011
 C1011 C 0.71167 0.77233 0.63606
 C1012 C 0.71512 0.78316 0.62106
 C1013 C 0.73295 0.79015 0.59413
 C1014 C 0.73546 0.79894 0.58074
 C1015 C 0.73833 0.80917 0.56456
 C1016 C 0.74946 0.82444 0.56465
 C1017 C 0.75236 0.83421 0.54883
 C1018 C 0.74418 0.82878 0.53272
 C1019 C 0.73294 0.81347 0.53281
 C1020 C 0.73005 0.80374 0.54863
 H1021 H 0.75254 0.76187 0.60540
 H1022 H 0.74672 0.74291 0.63164
 H1023 H 0.70006 0.77542 0.64423
 H1024 H 0.70622 0.79434 0.61805
 H1025 H 0.75596 0.82873 0.57690
 H1026 H 0.76124 0.84582 0.54914
 H1027 H 0.72626 0.80910 0.52068
 H1028 H 0.72137 0.79197 0.54842
 C1029 C 0.77030 0.78046 0.38945
 C1030 C 0.78647 0.78223 0.37994
 C1031 C 0.78962 0.77165 0.36481
 C1032 C 0.77663 0.75909 0.35899
 C1033 C 0.76036 0.75753 0.36861
 C1034 C 0.75724 0.76813 0.38372
 C1035 C 0.76723 0.79104 0.40526
 C1036 C 0.76464 0.79973 0.41862
 C1037 C 0.76154 0.80987 0.43471
 C1038 C 0.77196 0.82515 0.43843
 C1039 C 0.76915 0.83477 0.45425
 C1040 C 0.75589 0.82918 0.46657
 C1041 C 0.74541 0.81386 0.46264
 C1042 C 0.74823 0.80428 0.44681
 H1043 H 0.79670 0.79170 0.38429
 H1044 H 0.80234 0.77318 0.35789
 H1045 H 0.74996 0.74817 0.36449
 H1046 H 0.74467 0.76666 0.39098
 H1047 H 0.78235 0.82956 0.42918
 H1048 H 0.77757 0.84639 0.45700
 H1049 H 0.73493 0.80937 0.47173
 H1050 H 0.74006 0.79248 0.44404
 C1051 C 0.26988 0.27811 -0.11146
 C1052 C 0.25684 0.26584 -0.11737
 C1053 C 0.26003 0.25537 -0.13257
 C1054 C 0.27635 0.25703 -0.14209
 C1055 C 0.28932 0.26952 -0.13608
 C1056 C 0.28609 0.27996 -0.12087
 C1057 C 0.26670 0.28858 -0.09560
 C1058 C 0.26401 0.29720 -0.08222
 C1059 C 0.26078 0.30730 -0.06613
 C1060 C 0.24746 0.30161 -0.05407
 C1061 C 0.24446 0.31122 -0.03829
 C1062 C 0.25476 0.32667 -0.03436
 C1063 C 0.26805 0.33234 -0.04662
 C1064 C 0.27104 0.32269 -0.06240
 H1065 H 0.24423 0.26431 -0.11019
 H1066 H 0.24965 0.24607 -0.13682
 H1067 H 0.30207 0.27112 -0.14293
 H1068 H 0.29630 0.28939 -0.11639
 H1069 H 0.23942 0.28974 -0.05685
 H1070 H 0.23398 0.30666 -0.02924
 H1071 H 0.27634 0.34404 -0.04387
 H1072 H 0.28142 0.32718 -0.07162
 C1073 C 0.72899 0.22100 -0.10995
 C1074 C 0.71281 0.21920 -0.11941
 C1075 C 0.70973 0.22957 -0.13479
 C1076 C 0.72281 0.24194 -0.14092
 C1077 C 0.73909 0.24355 -0.13133
 C1078 C 0.74213 0.23315 -0.11596
 C1079 C 0.73200 0.21056 -0.09393
 C1080 C 0.73448 0.20194 -0.08043
 C1081 C 0.73738 0.19181 -0.06420
 C1082 C 0.72931 0.19737 -0.04822
 C1083 C 0.73223 0.18769 -0.03238
 C1084 C 0.74330 0.17229 -0.03232
 C1085 C 0.75129 0.16676 -0.04848
 C1086 C 0.74835 0.17648 -0.06431
 H1087 H 0.70252 0.20986 -0.11483
 H1088 H 0.69700 0.22801 -0.14167
 H1089 H 0.74955 0.25276 -0.13568
 H1090 H 0.75472 0.23464 -0.10874
 H1091 H 0.72075 0.20919 -0.04799
 H1092 H 0.72570 0.19214 -0.02022
 H1093 H 0.76004 0.15510 -0.04882
 H1094 H 0.75471 0.17209 -0.07660
 C1095 C 0.22991 0.72192 0.39068
 C1096 C 0.21379 0.72001 0.38115
 C1097 C 0.21070 0.73036 0.36576
 C1098 C 0.22371 0.74283 0.35969
 C1099 C 0.23994 0.74456 0.36935
 C1100 C 0.24299 0.73417 0.38473
 C1101 C 0.23292 0.71151 0.40671
 C1102 C 0.23537 0.70289 0.42023
 C1103 C 0.23822 0.69276 0.43646
 C1104 C 0.23004 0.69827 0.45240
 C1105 C 0.23288 0.68855 0.46823
 C1106 C 0.24395 0.67316 0.46832
 C1107 C 0.25206 0.66769 0.45221
 C1108 C 0.24921 0.67744 0.43638
 H1109 H 0.20355 0.71059 0.38567
 H1110 H 0.19801 0.72871 0.35882
 H1111 H 0.25034 0.75385 0.36505
 H1112 H 0.25554 0.73575 0.39200
 H1113 H 0.22146 0.71008 0.45260
 H1114 H 0.22625 0.69296 0.48037
 H1115 H 0.26082 0.65603 0.45189
 H1116 H 0.25565 0.67308 0.42412
 C1117 C 0.27056 0.72047 0.61203
 C1118 C 0.25752 0.73267 0.61795
 C1119 C 0.26064 0.74301 0.63325
 C1120 C 0.27689 0.74131 0.64287
 C1121 C 0.28987 0.72890 0.63684
 C1122 C 0.28671 0.71857 0.62153
 C1123 C 0.26744 0.71009 0.59608
 C1124 C 0.26480 0.70156 0.58263
 C1125 C 0.26161 0.69158 0.56645
 C1126 C 0.24837 0.69734 0.55437
 C1127 C 0.24543 0.68787 0.53849
 C1128 C 0.25572 0.67248 0.53448
 C1129 C 0.26893 0.66673 0.54676
 C1130 C 0.27186 0.67624 0.56264
 H1131 H 0.24495 0.73423 0.61071
 H1132 H 0.25025 0.75226 0.63752
 H1133 H 0.30258 0.72727 0.64376
 H1134 H 0.29692 0.70919 0.61703
 H1135 H 0.24034 0.70917 0.55721
 H1136 H 0.23500 0.69248 0.52943
 H1137 H 0.27721 0.65507 0.54395
 H1138 H 0.28218 0.67170 0.57187
 C1139 C 0.77087 0.22076 0.11065
 C1140 C 0.78715 0.21919 0.11999
 C1141 C 0.79040 0.22984 0.13506
 C1142 C 0.77740 0.24228 0.14099
 C1143 C 0.76102 0.24364 0.13155
 C1144 C 0.75780 0.23297 0.11650
 C1145 C 0.76767 0.21012 0.09490
 C1146 C 0.76495 0.20140 0.08158
 C1147 C 0.76163 0.19124 0.06553
 C1148 C 0.77187 0.17589 0.06175
 C1149 C 0.76884 0.16626 0.04597
 C1150 C 0.75553 0.17191 0.03374
 C1151 C 0.74523 0.18729 0.03773
 C1152 C 0.74828 0.19688 0.05352
 H1153 H 0.79739 0.20981 0.11555
 H1154 H 0.80321 0.22846 0.14185
 H1155 H 0.75060 0.25289 0.13575
 H1156 H 0.74513 0.23429 0.10937
 H1157 H 0.78228 0.17144 0.07094
 H1158 H 0.77712 0.15460 0.04317
 H1159 H 0.73473 0.19183 0.02871
 H1160 H 0.74024 0.20872 0.05633
 C1161 C 0.48069 0.36169 0.52869
 C1162 C 0.49047 0.36420 0.51286
 C1163 C 0.48752 0.37946 0.50221
 C1164 C 0.47469 0.39247 0.50724
 C1165 C 0.46499 0.38984 0.52326
 C1166 C 0.46797 0.37456 0.53389
 C1167 C 0.48359 0.34580 0.53943
 C1168 C 0.48610 0.33233 0.54817
 C1169 C 0.48921 0.31608 0.55832
 C1170 C 0.50247 0.30393 0.55278
 C1171 C 0.50530 0.28794 0.56233
 C1172 C 0.49487 0.28387 0.57757
 C1173 C 0.48165 0.29624 0.58312
 C1174 C 0.47884 0.31224 0.57353
 H1175 H 0.50032 0.35430 0.50869
 H1176 H 0.49518 0.38087 0.48997
 H1177 H 0.45511 0.39956 0.52768
 H1178 H 0.46033 0.37275 0.54614
 H1179 H 0.51060 0.30679 0.54105
 H1180 H 0.51574 0.27881 0.55788
 H1181 H 0.47328 0.29339 0.59468
 H1182 H 0.46849 0.32153 0.57790
 C1183 C -0.02153 0.86022 0.02858
 C1184 C -0.03728 0.87037 0.03053
 C1185 C -0.04008 0.88568 0.01989
 C1186 C -0.02714 0.89105 0.00712
 C1187 C -0.01129 0.88078 0.00537
 C1188 C -0.00853 0.86548 0.01603
 C1189 C -0.01879 0.84425 0.03926
 C1190 C -0.01645 0.83076 0.04801
 C1191 C -0.01357 0.81452 0.05823
 C1192 C -0.02137 0.79829 0.05264
 C1193 C -0.01823 0.78239 0.06224
 C1194 C -0.00721 0.78250 0.07759
 C1195 C 0.00043 0.79892 0.08321
 C1196 C -0.00272 0.81481 0.07356
 H1197 H -0.04746 0.86638 0.04018
 H1198 H -0.05249 0.89312 0.02158
 H1199 H -0.00094 0.88452 -0.00416
 H1200 H 0.00373 0.85773 0.01442
 H1201 H -0.02982 0.79792 0.04080
 H1202 H -0.02450 0.77002 0.05773
 H1203 H 0.00913 0.79939 0.09484
 H1204 H 0.00343 0.82729 0.07797
 C1205 C 0.02142 0.63940 0.02802
 C1206 C 0.03717 0.62921 0.02990
 C1207 C 0.03991 0.61400 0.01923
 C1208 C 0.02692 0.60878 0.00650
 C1209 C 0.01108 0.61909 0.00481
 C1210 C 0.00838 0.63428 0.01550
 C1211 C 0.01874 0.65524 0.03874
 C1212 C 0.01643 0.66863 0.04754
 C1213 C 0.01359 0.68474 0.05782
 C1214 C 0.02131 0.70105 0.05222
 C1215 C 0.01823 0.71682 0.06192
 C1216 C 0.00736 0.71649 0.07736
 C1217 C -0.00021 0.69999 0.08298
 C1218 C 0.00288 0.68422 0.07325
 H1219 H 0.04739 0.63308 0.03952
 H1220 H 0.05231 0.60653 0.02087
 H1221 H 0.00069 0.61546 -0.00468
 H1222 H -0.00388 0.64206 0.01395
 H1223 H 0.02966 0.70159 0.04032
 H1224 H 0.02445 0.72926 0.05740
 H1225 H -0.00880 0.69934 0.09469
 H1226 H -0.00321 0.67168 0.07767
 C1227 C 0.51996 0.13968 0.52845
 C1228 C 0.50698 0.13426 0.51598
 C1229 C 0.50986 0.11898 0.50548
 C1230 C 0.52582 0.10887 0.50730
 C1231 C 0.53874 0.11439 0.51999
 C1232 C 0.53581 0.12969 0.53046
 C1233 C 0.51713 0.15564 0.53897
 C1234 C 0.51481 0.16912 0.54762
 C1235 C 0.51208 0.18535 0.55776
 C1236 C 0.50106 0.18515 0.57297
 C1237 C 0.49826 0.20100 0.58266
 C1238 C 0.50644 0.21727 0.57721
 C1239 C 0.51757 0.21729 0.56195
 C1240 C 0.52036 0.20143 0.55230
 H1241 H 0.49464 0.14190 0.51432
 H1242 H 0.49954 0.11512 0.49601
 H1243 H 0.55123 0.10709 0.52173
 H1244 H 0.54598 0.13380 0.54005
 H1245 H 0.49455 0.17278 0.57729
 H1246 H 0.48946 0.20060 0.59423
 H1247 H 0.52425 0.22953 0.55756
 H1248 H 0.52896 0.20173 0.54057
 C1249 C -0.01767 0.13987 0.47134
 C1250 C -0.03341 0.12967 0.46927
 C1251 C -0.03624 0.11426 0.47976
 C1252 C -0.02334 0.10883 0.49253
 C1253 C -0.00749 0.11914 0.49440
 C1254 C -0.00469 0.13454 0.48388
 C1255 C -0.01499 0.15598 0.46085
 C1256 C -0.01286 0.16959 0.45220
 C1257 C -0.01044 0.18597 0.44209
 C1258 C 0.00075 0.18625 0.42699
 C1259 C 0.00318 0.20225 0.41728
 C1260 C -0.00555 0.21819 0.42259
 C1261 C -0.01682 0.21774 0.43775
 C1262 C -0.01923 0.20174 0.44742
 H1263 H -0.04358 0.13370 0.45963
 H1264 H -0.04865 0.10680 0.47798
 H1265 H 0.00283 0.11536 0.50393
 H1266 H 0.00756 0.14234 0.48559
 H1267 H 0.00766 0.17413 0.42277
 H1268 H 0.01209 0.20222 0.40579
 H1269 H -0.02392 0.22972 0.44202
 H1270 H -0.02797 0.20166 0.45905
 C1271 C 0.47936 0.64022 0.97404
 C1272 C 0.46668 0.62735 0.96862
 C1273 C 0.46353 0.61202 0.97916
 C1274 C 0.47302 0.60935 0.99529
 C1275 C 0.48578 0.62238 1.00055
 C1276 C 0.48890 0.63769 0.99000
 C1277 C 0.48251 0.65610 0.96333
 C1278 C 0.48525 0.66951 0.95455
 C1279 C 0.48864 0.68565 0.94431
 C1280 C 0.47828 0.68957 0.92912
 C1281 C 0.48148 0.70540 0.91934
 C1282 C 0.49507 0.71751 0.92467
 C1283 C 0.50546 0.71338 0.93992
 C1284 C 0.50225 0.69756 0.94966
 H1285 H 0.45923 0.62916 0.95626
 H1286 H 0.45372 0.60227 0.97456
 H1287 H 0.49327 0.62093 1.01290
 H1288 H 0.49872 0.64759 0.99434
 H1289 H 0.46767 0.68047 0.92490
 H1290 H 0.47312 0.70830 0.90780
 H1291 H 0.51618 0.72231 0.94421
 H1292 H 0.51038 0.69463 0.96137
 C1293 C 0.52151 0.86184 0.97214
 C1294 C 0.50986 0.86532 0.98643
 C1295 C 0.51209 0.88087 0.99671
 C1296 C 0.52605 0.89319 0.99285
 C1297 C 0.53768 0.88955 0.97840
 C1298 C 0.53542 0.87398 0.96814
 C1299 C 0.51920 0.84575 0.96167
 C1300 C 0.51715 0.83219 0.95306
 C1301 C 0.51454 0.81590 0.94297
 C1302 C 0.50372 0.81602 0.92762
 C1303 C 0.50079 0.80008 0.91810
 C1304 C 0.50863 0.78379 0.92387
 C1305 C 0.51962 0.78386 0.93924
 C1306 C 0.52254 0.79981 0.94872
 H1307 H 0.49903 0.85602 0.98963
 H1308 H 0.50277 0.88321 1.00758
 H1309 H 0.54864 0.89860 0.97505
 H1310 H 0.54454 0.87139 0.95712
 H1311 H 0.49741 0.82839 0.92309
 H1312 H 0.49209 0.80042 0.90646
 H1313 H 0.52603 0.77159 0.94387
 H1314 H 0.53096 0.79957 0.96057
 C1315 C 0.01783 0.36244 0.47118
 C1316 C 0.03400 0.37207 0.46954
 C1317 C 0.03723 0.38710 0.48033
 C1318 C 0.02433 0.39270 0.49297
 C1319 C 0.00805 0.38298 0.49439
 C1320 C 0.00485 0.36796 0.48358
 C1321 C 0.01472 0.34668 0.46044
 C1322 C 0.01216 0.33334 0.45163
 C1323 C 0.00914 0.31723 0.44137
 C1324 C 0.01945 0.31384 0.42605
 C1325 C 0.01687 0.29792 0.41641
 C1326 C 0.00395 0.28515 0.42202
 C1327 C -0.00646 0.28878 0.43733
 C1328 C -0.00387 0.30471 0.44693
 H1329 H 0.04417 0.36788 0.46002
 H1330 H 0.04995 0.39411 0.47888
 H1331 H -0.00228 0.38692 0.50381
 H1332 H -0.00772 0.36060 0.48496
 H1333 H 0.02961 0.32341 0.42167
 H1334 H 0.02523 0.29541 0.40480
 H1335 H -0.01667 0.27933 0.44184
 H1336 H -0.01194 0.30722 0.45875
 C1337 C 0.36143 0.52811 0.47975
 C1338 C 0.36724 0.51559 0.49256
 C1339 C 0.38267 0.50526 0.48944
 C1340 C 0.39251 0.50730 0.47343
 C1341 C 0.38658 0.52003 0.46069
 C1342 C 0.37115 0.53034 0.46384
 C1343 C 0.34533 0.53846 0.48281
 C1344 C 0.33174 0.54699 0.48530
 C1345 C 0.31541 0.55700 0.48822
 C1346 C 0.29932 0.55142 0.48015
 C1347 C 0.28338 0.56097 0.48310
 C1348 C 0.28331 0.57626 0.49419
 C1349 C 0.29958 0.58183 0.50218
 C1350 C 0.31552 0.57224 0.49922
 H1351 H 0.35982 0.51377 0.50494
 H1352 H 0.38685 0.49574 0.49964
 H1353 H 0.39367 0.52194 0.44817
 H1354 H 0.36673 0.53997 0.45381
 H1355 H 0.29910 0.53968 0.47157
 H1356 H 0.27113 0.55650 0.47657
 H1357 H 0.29992 0.59341 0.51095
 H1358 H 0.32789 0.57665 0.50557
 C1359 C 0.86069 0.02709 -0.02115
 C1360 C 0.86983 0.02851 -0.03748
 C1361 C 0.88525 0.01816 -0.04059
 C1362 C 0.89173 0.00619 -0.02739
 C1363 C 0.88247 0.00498 -0.01097
 C1364 C 0.86706 0.01535 -0.00789
 C1365 C 0.84462 0.03748 -0.01809
 C1366 C 0.83106 0.04605 -0.01555
 C1367 C 0.81476 0.05610 -0.01255
 C1368 C 0.79862 0.05055 -0.02053
 C1369 C 0.78271 0.06013 -0.01747
 C1370 C 0.78274 0.07541 -0.00637
 C1371 C 0.79907 0.08094 0.00152
 C1372 C 0.81497 0.07132 -0.00154
 H1373 H 0.86498 0.03753 -0.04786
 H1374 H 0.89189 0.01941 -0.05343
 H1375 H 0.88709 -0.00392 -0.00042
 H1376 H 0.86009 0.01416 0.00481
 H1377 H 0.79832 0.03881 -0.02910
 H1378 H 0.77041 0.05569 -0.02393
 H1379 H 0.79948 0.09252 0.01030
 H1380 H 0.82739 0.07571 0.00474
 C1381 C 0.63714 0.02815 0.01966
 C1382 C 0.62715 0.03047 0.03536
 C1383 C 0.61120 0.02074 0.03805
 C1384 C 0.60500 0.00851 0.02504
 C1385 C 0.61519 0.00629 0.00929
 C1386 C 0.63113 0.01605 0.00664
 C1387 C 0.65358 0.03814 0.01691
 C1388 C 0.66738 0.04645 0.01455
 C1389 C 0.68388 0.05629 0.01166
 C1390 C 0.68786 0.07146 0.02203
 C1391 C 0.70393 0.08098 0.01925
 C1392 C 0.71624 0.07542 0.00604
 C1393 C 0.71209 0.06017 -0.00433
 C1394 C 0.69601 0.05068 -0.00153
 H1395 H 0.63171 0.03979 0.04556
 H1396 H 0.60385 0.02276 0.05039
 H1397 H 0.61085 -0.00286 -0.00109
 H1398 H 0.63876 0.01416 -0.00558
 H1399 H 0.67858 0.07589 0.03231
 H1400 H 0.70684 0.09253 0.02759
 H1401 H 0.72117 0.05570 -0.01476
 H1402 H 0.69304 0.03899 -0.00967
 C1403 C 0.13893 0.52717 0.52142
 C1404 C 0.12966 0.52876 0.53764
 C1405 C 0.11425 0.51835 0.54088
 C1406 C 0.10790 0.50614 0.52793
 C1407 C 0.11730 0.50472 0.51161
 C1408 C 0.13270 0.51516 0.50840
 C1409 C 0.15497 0.53766 0.51822
 C1410 C 0.16849 0.54633 0.51555
 C1411 C 0.18473 0.55651 0.51236
 C1412 C 0.18859 0.57176 0.52265
 C1413 C 0.20451 0.58148 0.51972
 C1414 C 0.21680 0.57602 0.50646
 C1415 C 0.21274 0.56071 0.49613
 C1416 C 0.19681 0.55103 0.49907
 H1417 H 0.13439 0.53799 0.54783
 H1418 H 0.10750 0.51976 0.55364
 H1419 H 0.11280 0.49563 0.50125
 H1420 H 0.13978 0.51383 0.49578
 H1421 H 0.17934 0.57608 0.53301
 H1422 H 0.20736 0.59307 0.52803
 H1423 H 0.22182 0.55632 0.48566
 H1424 H 0.19394 0.53927 0.49100
 C1425 C 0.13836 0.47234 -0.02214
 C1426 C 0.12906 0.47107 -0.03838
 C1427 C 0.11370 0.48155 -0.04141
 C1428 C 0.10742 0.49351 -0.02821
 C1429 C 0.11685 0.49459 -0.01187
 C1430 C 0.13220 0.48408 -0.00888
 C1431 C 0.15439 0.46183 -0.01919
 C1432 C 0.16792 0.45315 -0.01678
 C1433 C 0.18419 0.44299 -0.01397
 C1434 C 0.20028 0.44857 -0.02208
 C1435 C 0.21618 0.43889 -0.01921
 C1436 C 0.21619 0.42347 -0.00816
 C1437 C 0.19992 0.41789 -0.00014
 C1438 C 0.18403 0.42762 -0.00303
 H1439 H 0.13375 0.46206 -0.04876
 H1440 H 0.10694 0.48040 -0.05418
 H1441 H 0.11239 0.50348 -0.00133
 H1442 H 0.13930 0.48516 0.00375
 H1443 H 0.20055 0.46043 -0.03062
 H1444 H 0.22843 0.44337 -0.02576
 H1445 H 0.19954 0.40621 0.00859
 H1446 H 0.17165 0.42320 0.00336
 C1447 C 0.63987 0.97432 0.47970
 C1448 C 0.63699 0.99019 0.48933
 C1449 C 0.62145 1.00042 0.48633
 C1450 C 0.60855 0.99492 0.47362
 C1451 C 0.61157 0.97887 0.46408
 C1452 C 0.62712 0.96866 0.46711
 C1453 C 0.65601 0.96397 0.48261
 C1454 C 0.66961 0.95541 0.48501
 C1455 C 0.68593 0.94532 0.48783
 C1456 C 0.70202 0.95102 0.47980
 C1457 C 0.71795 0.94137 0.48264
 C1458 C 0.71798 0.92586 0.49357
 C1459 C 0.70171 0.92019 0.50153
 C1460 C 0.68580 0.92988 0.49868
 H1461 H 0.64680 0.99472 0.49908
 H1462 H 0.61972 1.01272 0.49386
 H1463 H 0.60193 0.97409 0.45431
 H1464 H 0.62921 0.95638 0.45959
 H1465 H 0.70227 0.96293 0.47134
 H1466 H 0.73020 0.94593 0.47613
 H1467 H 0.70135 0.90844 0.51018
 H1468 H 0.67342 0.92538 0.50500
 C1469 C 0.86277 0.97366 0.52039
 C1470 C 0.87534 0.96808 0.53323
 C1471 C 0.89086 0.97835 0.53633
 C1472 C 0.89403 0.99437 0.52661
 C1473 C 0.88130 0.99979 0.51368
 C1474 C 0.86580 0.98950 0.51062
 C1475 C 0.84667 0.96324 0.51733
 C1476 C 0.83309 0.95468 0.51472
 C1477 C 0.81677 0.94467 0.51154
 C1478 C 0.81285 0.92925 0.52172
 C1479 C 0.79685 0.91970 0.51877
 C1480 C 0.78454 0.92548 0.50560
 C1481 C 0.78866 0.94094 0.49539
 C1482 C 0.80466 0.95046 0.49835
 H1483 H 0.87313 0.95581 0.54086
 H1484 H 0.90037 0.97363 0.54628
 H1485 H 0.88314 1.01206 0.50601
 H1486 H 0.85612 0.99397 0.50067
 H1487 H 0.82211 0.92469 0.53200
 H1488 H 0.79395 0.90798 0.52699
 H1489 H 0.77957 0.94559 0.48500
 H1490 H 0.80758 0.96235 0.49037
 C1491 C 0.36038 0.47208 0.01963
 C1492 C 0.37003 0.46963 0.03554
 C1493 C 0.38532 0.48010 0.03904
 C1494 C 0.39118 0.49323 0.02664
 C1495 C 0.38141 0.49550 0.01062
 C1496 C 0.36613 0.48500 0.00716
 C1497 C 0.34443 0.46155 0.01621
 C1498 C 0.33097 0.45287 0.01339
 C1499 C 0.31478 0.44269 0.01006
 C1500 C 0.31089 0.42729 0.02028
 C1501 C 0.29497 0.41763 0.01726
 C1502 C 0.28271 0.42327 0.00399
 C1503 C 0.28682 0.43870 -0.00628
 C1504 C 0.30275 0.44833 -0.00326
 H1505 H 0.36566 0.45969 0.04532
 H1506 H 0.39235 0.47801 0.05156
 H1507 H 0.38553 0.50532 0.00067
 H1508 H 0.35876 0.48700 -0.00522
 H1509 H 0.32009 0.42285 0.03066
 H1510 H 0.29209 0.40594 0.02553
 H1511 H 0.27778 0.44324 -0.01675
 H1512 H 0.30565 0.46021 -0.01127
 C1513 C 0.52974 0.48103 0.36114
 C1514 C 0.53155 0.46491 0.37077
 C1515 C 0.52116 0.46184 0.38611
 C1516 C 0.50875 0.47487 0.39204
 C1517 C 0.50715 0.49110 0.38231
 C1518 C 0.51757 0.49413 0.36698
 C1519 C 0.54009 0.48395 0.34508
 C1520 C 0.54861 0.48628 0.33151
 C1521 C 0.55858 0.48893 0.31518
 C1522 C 0.55300 0.48033 0.29948
 C1523 C 0.56255 0.48293 0.28354
 C1524 C 0.57784 0.49420 0.28309
 C1525 C 0.58339 0.50274 0.29896
 C1526 C 0.57380 0.50012 0.31489
 H1527 H 0.54090 0.45464 0.36634
 H1528 H 0.52272 0.44915 0.39311
 H1529 H 0.49791 0.50152 0.38650
 H1530 H 0.51607 0.50667 0.35962
 H1531 H 0.54127 0.47159 0.29957
 H1532 H 0.55809 0.47597 0.27161
 H1533 H 0.59498 0.51165 0.29898
 H1534 H 0.57822 0.50688 0.32696
 C1535 C 0.02797 -0.02303 0.85963
 C1536 C 0.03365 -0.03511 0.87291
 C1537 C 0.02308 -0.03796 0.88818
 C1538 C 0.00663 -0.02875 0.89038
 C1539 C 0.00110 -0.01657 0.87694
 C1540 C 0.01170 -0.01376 0.86169
 C1541 C 0.03872 -0.02025 0.84381
 C1542 C 0.04760 -0.01789 0.83047
 C1543 C 0.05801 -0.01503 0.81444
 C1544 C 0.05239 -0.02268 0.79828
 C1545 C 0.06225 -0.01963 0.78260
 C1546 C 0.07790 -0.00886 0.78289
 C1547 C 0.08353 -0.00134 0.79924
 C1548 C 0.07363 -0.00440 0.81491
 H1549 H 0.04624 -0.04234 0.87146
 H1550 H 0.02789 -0.04731 0.89824
 H1551 H -0.01149 -0.00933 0.87803
 H1552 H 0.00715 -0.00440 0.85146
 H1553 H 0.04034 -0.03096 0.79777
 H1554 H 0.05772 -0.02580 0.77027
 H1555 H 0.09540 0.00717 0.79985
 H1556 H 0.07807 0.00163 0.82734
 C1557 C 0.03054 0.02138 0.63970
 C1558 C 0.01831 0.00828 0.63384
 C1559 C 0.00789 0.01134 0.61852
 C1560 C 0.00955 0.02759 0.60882
 C1561 C 0.02199 0.04063 0.61479
 C1562 C 0.03239 0.03753 0.63012
 C1563 C 0.04098 0.01832 0.65567
 C1564 C 0.04956 0.01573 0.66915
 C1565 C 0.05960 0.01258 0.68535
 C1566 C 0.07494 0.00162 0.68514
 C1567 C 0.08446 -0.00172 0.70098
 C1568 C 0.07871 0.00584 0.71725
 C1569 C 0.06335 0.01695 0.71729
 C1570 C 0.05387 0.02028 0.70144
 H1571 H 0.01678 -0.00428 0.64115
 H1572 H -0.00138 0.00092 0.61431
 H1573 H 0.02359 0.05333 0.60780
 H1574 H 0.04179 0.04778 0.63456
 H1575 H 0.07946 -0.00446 0.67276
 H1576 H 0.09610 -0.01050 0.70056
 H1577 H 0.05874 0.02317 0.72955
 H1578 H 0.04203 0.02883 0.70175
 C1579 C 0.52836 0.51839 0.13960
 C1580 C 0.51208 0.50914 0.13726
 C1581 C 0.50146 0.51242 0.12213
 C1582 C 0.50698 0.52505 0.10908
 C1583 C 0.52346 0.53420 0.11153
 C1584 C 0.53405 0.53088 0.12669
 C1585 C 0.53906 0.51525 0.15538
 C1586 C 0.54787 0.51267 0.16871
 C1587 C 0.55818 0.50964 0.18477
 C1588 C 0.57364 0.51993 0.18817
 C1589 C 0.58341 0.51728 0.20398
 C1590 C 0.57779 0.50431 0.21663
 C1591 C 0.56230 0.49394 0.21301
 C1592 C 0.55257 0.49660 0.19719
 H1593 H 0.50751 0.49947 0.14721
 H1594 H 0.48885 0.50520 0.12084
 H1595 H 0.52827 0.54388 0.10176
 H1596 H 0.54665 0.53811 0.12836
 H1597 H 0.57806 0.53011 0.17867
 H1598 H 0.59514 0.52562 0.20648
 H1599 H 0.55778 0.48369 0.22237
 H1600 H 0.54064 0.48854 0.19468
 C1601 C 0.47167 -0.02032 0.13993
 C1602 C 0.48604 -0.00880 0.13573
 C1603 C 0.49605 -0.01144 0.12010
 C1604 C 0.49183 -0.02569 0.10841
 C1605 C 0.47734 -0.03720 0.11278
 C1606 C 0.46734 -0.03452 0.12842
 C1607 C 0.46143 -0.01761 0.15606
 C1608 C 0.45291 -0.01532 0.16960
 C1609 C 0.44282 -0.01255 0.18582
 C1610 C 0.44851 -0.02058 0.20184
 C1611 C 0.43887 -0.01774 0.21766
 C1612 C 0.42338 -0.00680 0.21766
 C1613 C 0.41771 0.00114 0.20146
 C1614 C 0.42739 -0.00172 0.18566
 H1615 H 0.48953 0.00222 0.14457
 H1616 H 0.50715 -0.00238 0.11732
 H1617 H 0.47356 -0.04822 0.10412
 H1618 H 0.45623 -0.04351 0.13153
 H1619 H 0.46042 -0.02903 0.20211
 H1620 H 0.44343 -0.02422 0.22986
 H1621 H 0.40598 0.00980 0.20107
 H1622 H 0.42289 0.00460 0.17334
 C1623 C 0.97121 0.47786 0.64092
 C1624 C 0.98774 0.48676 0.63890
 C1625 C 0.99830 0.48383 0.62369
 C1626 C 0.99248 0.47191 0.61024
 C1627 C 0.97579 0.46305 0.61240
 C1628 C 0.96525 0.46602 0.62763
 C1629 C 0.96047 0.48082 0.65668
 C1630 C 0.95164 0.48336 0.66998
 C1631 C 0.94131 0.48650 0.68598
 C1632 C 0.94698 0.47916 0.70232
 C1633 C 0.93723 0.48253 0.71796
 C1634 C 0.92164 0.49332 0.71746
 C1635 C 0.91595 0.50051 0.70093
 C1636 C 0.92574 0.49713 0.68530
 H1637 H 0.99251 0.49593 0.64913
 H1638 H 1.01109 0.49079 0.62264
 H1639 H 0.97076 0.45391 0.60232
 H1640 H 0.95245 0.45907 0.62905
 H1641 H 0.95899 0.47088 0.70299
 H1642 H 0.94180 0.47659 0.73043
 H1643 H 0.90413 0.50903 0.70015
 H1644 H 0.92126 0.50293 0.67272
 C1645 C 0.97091 0.52392 0.85941
 C1646 C 0.98716 0.51460 0.86147
 C1647 C 0.99781 0.51734 0.87667
 C1648 C 0.99236 0.52949 0.89005
 C1649 C 0.97595 0.53876 0.88784
 C1650 C 0.96532 0.53599 0.87262
 C1651 C 0.96010 0.52117 0.84365
 C1652 C 0.95123 0.51877 0.83033
 C1653 C 0.94088 0.51578 0.81431
 C1654 C 0.92539 0.50497 0.81484
 C1655 C 0.91566 0.50164 0.79915
 C1656 C 0.92134 0.50906 0.78271
 C1657 C 0.93682 0.52006 0.78236
 C1658 C 0.94652 0.52338 0.79806
 H1659 H 0.99164 0.50525 0.85130
 H1660 H 1.01038 0.51005 0.87776
 H1661 H 0.97121 0.54810 0.89786
 H1662 H 0.95274 0.54327 0.87116
 H1663 H 0.92095 0.49896 0.82734
 H1664 H 0.90392 0.49295 0.79981
 H1665 H 0.94139 0.52617 0.76996
 H1666 H 0.95847 0.53180 0.79751
 C1667 C 0.47164 0.02126 0.36093
 C1668 C 0.46978 0.03741 0.37036
 C1669 C 0.48021 0.04057 0.38564
 C1670 C 0.49269 0.02762 0.39169
 C1671 C 0.49436 0.01138 0.38214
 C1672 C 0.48392 0.00825 0.36687
 C1673 C 0.46117 0.01812 0.34502
 C1674 C 0.45257 0.01541 0.33159
 C1675 C 0.44251 0.01209 0.31545
 C1676 C 0.42717 0.02233 0.31147
 C1677 C 0.41757 0.01923 0.29566
 C1678 C 0.42322 0.00585 0.28360
 C1679 C 0.43862 -0.00441 0.28777
 C1680 C 0.44818 -0.00130 0.30359
 H1681 H 0.46034 0.04760 0.36585
 H1682 H 0.47860 0.05327 0.39252
 H1683 H 0.50366 0.00101 0.38642
 H1684 H 0.48545 -0.00431 0.35968
 H1685 H 0.42270 0.03277 0.32054
 H1686 H 0.40590 0.02749 0.29272
 H1687 H 0.44316 -0.01496 0.27888
 H1688 H 0.46001 -0.00933 0.30655
   
