data_POSCAR
  _audit_creation_date              2014-09-24
  _audit_creation_method            'ToBaCCo'
  _symmetry_space_group_name_H-M    'P1'
  _symmetry_Int_Tables_number       1
  _symmetry_cell_setting            triclinic
  loop_
  _symmetry_equiv_pos_as_xyz
 x,y,z
_cell_length_a 54.4761
_cell_length_b 54.4698
_cell_length_c 54.4810
_cell_angle_alpha 87.157500
_cell_angle_beta 87.281800
_cell_angle_gamma 87.306400
loop_
  _atom_site_label
  _atom_site_type_symbol
  _atom_site_fract_x
  _atom_site_fract_y
  _atom_site_fract_z
C1 C 0.79265 0.63965 1.00586
 C2 C 0.79898 0.62162 0.98559
 C3 C 0.77981 0.60788 0.98029
 C4 C 0.75612 0.61316 0.99597
 C5 C 0.77009 0.65502 0.99695
 C6 C 0.75100 0.64098 0.99181
 C7 C 0.78298 0.62389 1.02792
 C8 C 0.76383 0.61010 1.02278
 H9 H 0.81605 0.62186 0.97442
 H10 H 0.74061 0.60170 0.99185
 H11 H 0.76963 0.67491 0.99406
 H12 H 0.78926 0.62517 1.04644
 C13 C 0.79079 0.36382 0.47585
 C14 C 0.79597 0.37994 0.49707
 C15 C 0.77606 0.39406 0.50480
 C16 C 0.75275 0.39091 0.49064
 C17 C 0.76878 0.34882 0.48515
 C18 C 0.74889 0.36309 0.49285
 C19 C 0.78075 0.38165 0.45573
 C20 C 0.76082 0.39576 0.46347
 H21 H 0.81358 0.37968 0.50567
 H22 H 0.73658 0.40254 0.49696
 H23 H 0.76884 0.32886 0.48541
 H24 H 0.78762 0.38181 0.43667
 C25 C 0.29074 -0.13516 -0.02439
 C26 C 0.29603 -0.12027 -0.00396
 C27 C 0.27525 -0.10526 0.00427
 C28 C 0.25317 -0.10794 -0.00943
 C29 C 0.26972 -0.14945 -0.01585
 C30 C 0.24896 -0.13430 -0.00760
 C31 C 0.28161 -0.11788 -0.04350
 C32 C 0.26083 -0.10285 -0.03521
 H33 H 0.31356 -0.12103 0.00489
 H34 H 0.23711 -0.09615 -0.00298
 H35 H 0.26954 -0.16941 -0.01584
 H36 H 0.28806 -0.11801 -0.06271
 C37 C 0.29213 0.13601 0.50706
 C38 C 0.29821 0.11791 0.48680
 C39 C 0.27883 0.10441 0.48153
 C40 C 0.25523 0.11000 0.49725
 C41 C 0.26975 0.15165 0.49816
 C42 C 0.25046 0.13787 0.49305
 C43 C 0.28231 0.12039 0.52915
 C44 C 0.26297 0.10685 0.52404
 H45 H 0.31525 0.11797 0.47558
 H46 H 0.23955 0.09875 0.49317
 H47 H 0.26959 0.17152 0.49511
 H48 H 0.28869 0.12155 0.54765
 C49 C 0.13660 0.50834 0.29179
 C50 C 0.11833 0.48818 0.29794
 C51 C 0.10488 0.48287 0.27856
 C52 C 0.11065 0.49848 0.25488
 C53 C 0.15226 0.49927 0.26952
 C54 C 0.13850 0.49413 0.25022
 C55 C 0.12117 0.53045 0.28178
 C56 C 0.10767 0.52533 0.26243
 H57 H 0.11830 0.47699 0.31503
 H58 H 0.09942 0.49438 0.23920
 H59 H 0.17210 0.49612 0.26945
 H60 H 0.12246 0.54898 0.28802
 C61 C -0.13491 -0.02576 0.29098
 C62 C -0.11966 -0.00378 0.29613
 C63 C -0.10553 0.00422 0.27626
 C64 C -0.10789 -0.01050 0.25313
 C65 C -0.14998 -0.01703 0.26877
 C66 C -0.13570 -0.00903 0.24892
 C67 C -0.11737 -0.04443 0.28190
 C68 C -0.10255 -0.03604 0.26109
 H69 H -0.12036 0.00496 0.31367
 H70 H -0.09627 -0.00389 0.23702
 H71 H -0.16991 -0.01716 0.26873
 H72 H -0.11719 -0.06360 0.28854
 C73 C 0.36357 0.47456 0.79076
 C74 C 0.37962 0.49585 0.79594
 C75 C 0.39371 0.50373 0.77604
 C76 C 0.39061 0.48961 0.75271
 C77 C 0.34855 0.48385 0.76876
 C78 C 0.36280 0.49169 0.74887
 C79 C 0.38145 0.45456 0.78069
 C80 C 0.39554 0.46243 0.76076
 H81 H 0.37927 0.50447 0.81354
 H82 H 0.40222 0.49604 0.73654
 H83 H 0.32860 0.48405 0.76884
 H84 H 0.38165 0.43547 0.78754
 C85 C 0.63727 1.00733 0.79212
 C86 C 0.61974 0.98645 0.79830
 C87 C 0.60601 0.98118 0.77908
 C88 C 0.61091 0.99749 0.75561
 C89 C 0.65280 0.99892 0.76944
 C90 C 0.63880 0.99374 0.75030
 C91 C 0.62193 1.02809 0.78335
 C92 C 0.60750 1.02271 0.76327
 H93 H 0.62022 0.97507 0.81525
 H94 H 0.59948 0.99329 0.74008
 H95 H 0.67268 0.99607 0.76904
 H96 H 0.62332 1.04667 0.78946
 C97 C -0.02397 0.29073 -0.13791
 C98 C -0.00274 0.29584 -0.12175
 C99 C 0.00492 0.27592 -0.10755
 C100 C -0.00932 0.25265 -0.11067
 C101 C -0.01474 0.26868 -0.15282
 C102 C -0.00711 0.24877 -0.13846
 C103 C -0.04414 0.28075 -0.12011
 C104 C -0.03646 0.26080 -0.10591
 H105 H 0.00592 0.31344 -0.12202
 H106 H -0.00306 0.23646 -0.09898
 H107 H -0.01447 0.26873 -0.17277
 H108 H -0.06318 0.28770 -0.11999
 C109 C 0.50692 0.29133 0.13803
 C110 C 0.48669 0.29755 0.11987
 C111 C 0.48137 0.27826 0.10633
 C112 C 0.49701 0.25459 0.11192
 C113 C 0.49793 0.26891 0.15361
 C114 C 0.49276 0.24970 0.13976
 C115 C 0.52899 0.28151 0.12246
 C116 C 0.52383 0.26225 0.10887
 H117 H 0.47551 0.31462 0.11995
 H118 H 0.49288 0.23898 0.10062
 H119 H 0.49487 0.26867 0.17346
 H120 H 0.54751 0.28781 0.12371
 C121 C 1.00684 0.79298 0.63649
 C122 C 0.98735 0.79918 0.61954
 C123 C 0.98186 0.77908 0.60498
 C124 C 0.99710 0.75673 0.61005
 C125 C 0.99873 0.77147 0.65126
 C126 C 0.99339 0.75140 0.63649
 C127 C 1.02790 0.78426 0.62135
 C128 C 1.02253 0.76420 0.60676
 H129 H 0.97564 0.81590 0.62034
 H130 H 0.99302 0.74124 0.59848
 H131 H 0.99557 0.77104 0.67114
 H132 H 1.04652 0.79023 0.62300
 C133 C 0.47574 0.78993 0.36453
 C134 C 0.49702 0.79509 0.38059
 C135 C 0.50480 0.77516 0.39474
 C136 C 0.49060 0.75185 0.39166
 C137 C 0.48497 0.76792 0.34956
 C138 C 0.49271 0.74801 0.36385
 C139 C 0.45567 0.77987 0.38240
 C140 C 0.46345 0.75993 0.39654
 H141 H 0.50567 0.81269 0.38025
 H142 H 0.49695 0.73567 0.40331
 H143 H 0.48520 0.76801 0.32961
 H144 H 0.43662 0.78676 0.38258
 C145 C 0.38834 -0.00624 0.26289
 H146 H 0.38712 0.01146 0.27114
 C147 C 0.40148 -0.02601 0.27415
 H148 H 0.41054 -0.02352 0.29107
 C149 C 0.37697 -0.03154 0.23145
 H150 H 0.36687 -0.03384 0.21521
 C151 C 0.38990 -0.05176 0.24212
 H152 H 0.38987 -0.06948 0.23392
 N153 N 0.37637 -0.00934 0.24196
 C154 C 0.36357 0.06344 0.20650
 H155 H 0.34402 0.06303 0.20398
 C156 C 0.37639 0.08410 0.19832
 H157 H 0.36671 0.09969 0.18945
 C158 C 0.40010 0.04368 0.22125
 H159 H 0.40929 0.02786 0.23007
 C160 C 0.41363 0.06401 0.21333
 H161 H 0.43318 0.06385 0.21621
 Zn162 Zn 0.35623 0.01727 0.22958
 N163 N 0.37544 0.04395 0.21809
 C164 C 0.33483 0.05039 0.26362
 N165 N 0.33473 0.02696 0.25605
 C166 C 0.32215 0.00934 0.26927
 C167 C 0.30977 0.01484 0.29156
 C168 C 0.32259 0.05667 0.28563
 C169 C 0.35294 0.00302 0.18189
 C170 C 0.34234 -0.00573 0.16145
 C171 C 0.30303 -0.00518 0.18401
 C172 C 0.31440 0.00367 0.20412
 N173 N 0.33903 0.00716 0.20279
 H174 H 0.34540 0.06399 0.25332
 H175 H 0.32286 -0.00928 0.26315
 H176 H 0.30076 0.00048 0.30255
 H177 H 0.32365 0.07512 0.29198
 H178 H 0.37245 0.00606 0.18136
 H179 H 0.35372 -0.00949 0.14509
 H180 H 0.28355 -0.00850 0.18529
 H181 H 0.30369 0.00728 0.22086
 C182 C 0.40160 0.08447 0.20196
 C183 C 0.40208 -0.04900 0.26376
 C184 C 0.31724 -0.01012 0.16258
 C185 C 0.31041 0.03864 0.29999
 C186 C 0.07608 1.03680 0.78445
 H187 H 0.07456 1.01866 0.79324
 C188 C 0.06304 1.05697 0.79444
 H189 H 0.05130 1.05436 0.81088
 C190 C 0.09420 1.06271 0.75303
 H191 H 0.10691 1.06506 0.73737
 C192 C 0.08150 1.08330 0.76238
 H193 H 0.08427 1.10135 0.75369
 N194 N 0.09137 1.04002 0.76416
 C195 C 0.10576 0.96840 0.73289
 H196 H 0.12563 0.96862 0.73171
 C197 C 0.09399 0.94871 0.72405
 H198 H 0.10481 0.93368 0.71602
 C199 C 0.06740 0.98795 0.74447
 H200 H 0.05719 1.00344 0.75218
 C201 C 0.05483 0.96852 0.73576
 H202 H 0.03491 0.96899 0.73686
 Zn203 Zn 0.11131 1.01287 0.75341
 N204 N 0.09245 0.98739 0.74301
 C205 C 0.12776 0.97756 0.78953
 N206 N 0.13021 1.00101 0.78018
 C207 C 0.14510 1.01662 0.79053
 C208 C 0.15874 1.00859 0.81075
 C209 C 0.14103 0.96882 0.80968
 C210 C 0.12006 1.02959 0.70491
 C211 C 0.13359 1.03659 0.68352
 C212 C 0.17094 1.02864 0.70540
 C213 C 0.15668 1.02177 0.72643
 N214 N 0.13170 1.02264 0.72587
 H215 H 0.11534 0.96562 0.78159
 H216 H 0.14633 1.03532 0.78305
 H217 H 0.17068 1.02104 0.81879
 H218 H 0.13903 0.95009 0.81692
 H219 H 0.10020 1.02973 0.70489
 H220 H 0.12414 1.04229 0.66699
 H221 H 0.19080 1.02808 0.70598
 H222 H 0.16561 1.01565 0.74308
 C223 C 0.06833 0.94873 0.72549
 C224 C 0.06598 1.08046 0.78339
 C225 C 0.15924 1.03617 0.68379
 C226 C 0.15668 0.98443 0.82035
 C227 C 0.57699 0.53792 0.28316
 H228 H 0.57579 0.51967 0.29179
 C229 C 0.56391 0.55785 0.29355
 H230 H 0.55244 0.55494 0.31014
 C231 C 0.59441 0.56434 0.25176
 H232 H 0.60687 0.56698 0.23594
 C233 C 0.58165 0.58471 0.26152
 H234 H 0.58412 0.60287 0.25299
 N235 N 0.59195 0.54151 0.26269
 C236 C 0.60661 0.47034 0.23055
 H237 H 0.62645 0.47081 0.22900
 C238 C 0.59489 0.45052 0.22191
 H239 H 0.60573 0.43563 0.21366
 C240 C 0.56824 0.48936 0.24299
 H241 H 0.55799 0.50468 0.25100
 C242 C 0.55573 0.46978 0.23451
 H243 H 0.53582 0.46996 0.23609
 Zn244 Zn 0.61202 0.51465 0.25150
 N245 N 0.59327 0.48912 0.24103
 C246 C 0.62898 0.47912 0.28714
 N247 N 0.63115 0.50269 0.27805
 C248 C 0.64587 0.51835 0.28855
 C249 C 0.65959 0.51026 0.30870
 C250 C 0.64233 0.47033 0.30721
 C251 C 0.62051 0.53195 0.20309
 C252 C 0.63398 0.53917 0.18173
 C253 C 0.67139 0.53110 0.20348
 C254 C 0.65720 0.52401 0.22447
 N255 N 0.63221 0.52482 0.22396
 H256 H 0.61668 0.46714 0.27909
 H257 H 0.64688 0.53714 0.28128
 H258 H 0.67137 0.52276 0.31689
 H259 H 0.64053 0.45151 0.31426
 H260 H 0.60065 0.53204 0.20310
 H261 H 0.62449 0.54500 0.16526
 H262 H 0.69126 0.53056 0.20401
 H263 H 0.66617 0.51774 0.24104
 C264 C 0.56926 0.45018 0.22394
 C265 C 0.56647 0.58147 0.28273
 C266 C 0.65964 0.53878 0.18195
 C267 C 0.65779 0.48600 0.31805
 C268 C 0.89136 0.49627 0.76142
 H269 H 0.89042 0.51395 0.76972
 C270 C 0.90439 0.47634 0.77254
 H271 H 0.91366 0.47867 0.78937
 C272 C 0.87933 0.47117 0.73011
 H273 H 0.86900 0.46900 0.71400
 C274 C 0.89215 0.45080 0.74062
 H275 H 0.89180 0.43311 0.73243
 N276 N 0.87908 0.49334 0.74065
 C277 C 0.86586 0.56615 0.70534
 H278 H 0.84626 0.56567 0.70310
 C279 C 0.87853 0.58681 0.69685
 H280 H 0.86870 0.60232 0.68803
 C281 C 0.90265 0.54657 0.71968
 H282 H 0.91198 0.53081 0.72846
 C283 C 0.91604 0.56690 0.71144
 H284 H 0.93564 0.56680 0.71402
 Zn285 Zn 0.85886 0.52005 0.72856
 N286 N 0.87794 0.54674 0.71685
 C287 C 0.83783 0.55314 0.76282
 N288 N 0.83764 0.52971 0.75525
 C289 C 0.82507 0.51212 0.76851
 C290 C 0.81270 0.51766 0.79080
 C291 C 0.82562 0.55945 0.78484
 C292 C 0.85501 0.50598 0.68091
 C293 C 0.84420 0.49719 0.66061
 C294 C 0.80514 0.49754 0.68363
 C295 C 0.81672 0.50644 0.70360
 N296 N 0.84133 0.51002 0.70197
 H297 H 0.84840 0.56672 0.75249
 H298 H 0.82570 0.49350 0.76238
 H299 H 0.80364 0.50333 0.80179
 H300 H 0.82670 0.57790 0.79117
 H301 H 0.87451 0.50908 0.68015
 H302 H 0.85540 0.49347 0.64413
 H303 H 0.78569 0.49410 0.68516
 H304 H 0.80619 0.50998 0.72046
 C305 C 0.90380 0.58726 0.70010
 C306 C 0.90458 0.45336 0.76214
 C307 C 0.81913 0.49266 0.66205
 C308 C 0.81338 0.54146 0.79920
 C309 C 0.26256 0.38859 -0.00449
 H310 H 0.27089 0.38748 0.01319
 C311 C 0.27379 0.40158 -0.02439
 H312 H 0.29075 0.41064 -0.02203
 C313 C 0.23100 0.37709 -0.02960
 H314 H 0.21472 0.36699 -0.03178
 C315 C 0.24162 0.38988 -0.04995
 H316 H 0.23336 0.38973 -0.06764
 N317 N 0.24160 0.37662 -0.00743
 C318 C 0.20635 0.36408 0.06542
 H319 H 0.20385 0.34451 0.06515
 C320 C 0.19814 0.37699 0.08597
 H321 H 0.18928 0.36736 0.10160
 C322 C 0.22104 0.40057 0.04544
 H323 H 0.22983 0.40971 0.02956
 C324 C 0.21309 0.41419 0.06564
 H325 H 0.21592 0.43375 0.06533
 Zn326 Zn 0.22929 0.35659 0.01932
 N327 N 0.21791 0.37589 0.04587
 C328 C 0.26341 0.33521 0.05249
 N329 N 0.25576 0.33509 0.02908
 C330 C 0.26889 0.32246 0.01151
 C331 C 0.29115 0.31001 0.01703
 C332 C 0.28541 0.32292 0.05879
 C333 C 0.18153 0.35328 0.00522
 C334 C 0.16111 0.34270 -0.00362
 C335 C 0.18371 0.30342 -0.00314
 C336 C 0.20380 0.31476 0.00580
 N337 N 0.20245 0.33937 0.00934
 H338 H 0.25319 0.34583 0.06605
 H339 H 0.26270 0.32314 -0.00710
 H340 H 0.30206 0.30094 0.00270
 H341 H 0.29183 0.32398 0.07722
 H342 H 0.18099 0.37277 0.00828
 H343 H 0.14475 0.35408 -0.00741
 H344 H 0.18503 0.28397 -0.00656
 H345 H 0.22057 0.30405 0.00938
 C346 C 0.20173 0.40222 0.08615
 C347 C 0.26332 0.40203 -0.04736
 C348 C 0.16228 0.31763 -0.00811
 C349 C 0.29966 0.31066 0.04080
 C350 C 0.78467 0.07584 1.03816
 H351 H 0.79326 0.07460 1.01992
 C352 C 0.79499 0.06266 1.05811
 H353 H 0.81150 0.05109 1.05525
 C354 C 0.75339 0.09339 1.06450
 H355 H 0.73765 0.10593 1.06710
 C356 C 0.76308 0.08054 1.08489
 H357 H 0.75458 0.08303 1.10303
 N358 N 0.76428 0.09090 1.04169
 C359 C 0.73195 0.10574 0.97055
 H360 H 0.73048 0.12559 0.97101
 C361 C 0.72315 0.09410 0.95077
 H362 H 0.71483 0.10501 0.93592
 C363 C 0.74434 0.06728 0.98954
 H364 H 0.75240 0.05697 1.00484
 C365 C 0.73570 0.05485 0.97000
 H366 H 0.73718 0.03494 0.97020
 Zn367 Zn 0.75306 0.11102 1.01479
 N368 N 0.74248 0.09231 0.98930
 C369 C 0.78857 0.12801 0.97919
 N370 N 0.77956 0.13020 1.00275
 C371 C 0.79005 0.14504 1.01829
 C372 C 0.81007 0.15890 1.01007
 C373 C 0.80850 0.14149 0.97026
 C374 C 0.70469 0.11940 1.03204
 C375 C 0.68330 0.13281 1.03917
 C376 C 0.70493 0.17030 1.03103
 C377 C 0.72597 0.15617 1.02403
 N378 N 0.72553 0.13117 1.02492
 H379 H 0.78053 0.11562 0.96730
 H380 H 0.78285 0.14607 1.03708
 H381 H 0.81824 0.17080 1.02246
 H382 H 0.81547 0.13968 0.95144
 H383 H 0.70475 0.09953 1.03218
 H384 H 0.66685 0.12326 1.04498
 H385 H 0.70541 0.19018 1.03042
 H386 H 0.74251 0.16520 1.01777
 C387 C 0.72505 0.06846 0.95045
 C388 C 0.78419 0.06523 1.08171
 C389 C 0.68344 0.15848 1.03870
 C390 C 0.81931 0.15710 0.98579
 C391 C 0.28228 0.57692 0.53869
 H392 H 0.29089 0.57576 0.52045
 C393 C 0.29263 0.56371 0.55861
 H394 H 0.30917 0.55220 0.55573
 C395 C 0.25095 0.59433 0.56507
 H396 H 0.23519 0.60684 0.56770
 C397 C 0.26067 0.58145 0.58543
 H398 H 0.25217 0.58388 0.60359
 N399 N 0.26186 0.59193 0.54226
 C400 C 0.22970 0.60700 0.47108
 H401 H 0.22824 0.62685 0.47157
 C402 C 0.22096 0.59541 0.45124
 H403 H 0.21272 0.60634 0.43637
 C404 C 0.24199 0.56851 0.49006
 H405 H 0.24998 0.55817 0.50537
 C406 C 0.23341 0.55612 0.47046
 H407 H 0.23489 0.53621 0.47062
 Zn408 Zn 0.25072 0.61215 0.51541
 N409 N 0.24015 0.59354 0.48985
 C410 C 0.28642 0.62907 0.47996
 N411 N 0.27733 0.63125 0.50350
 C412 C 0.28790 0.64590 0.51917
 C413 C 0.30814 0.65953 0.51111
 C414 C 0.30656 0.64234 0.47120
 C415 C 0.20234 0.62064 0.53262
 C416 C 0.18099 0.63409 0.53977
 C417 C 0.20277 0.67152 0.53182
 C418 C 0.22377 0.65734 0.52481
 N419 N 0.22323 0.63235 0.52558
 H420 H 0.27830 0.61683 0.46797
 H421 H 0.28064 0.64691 0.53794
 H422 H 0.31640 0.67124 0.52362
 H423 H 0.31361 0.64052 0.45241
 H424 H 0.20234 0.60077 0.53267
 H425 H 0.16449 0.62459 0.54550
 H426 H 0.20332 0.69139 0.53129
 H427 H 0.24036 0.66633 0.51862
 C428 C 0.22286 0.56977 0.45088
 C429 C 0.28182 0.56621 0.58222
 C430 C 0.18122 0.65975 0.53940
 C431 C 0.31749 0.65771 0.48688
 C432 C 0.76378 0.88819 0.49572
 H433 H 0.77197 0.88723 0.51347
 C434 C 0.77511 0.90107 0.47581
 H435 H 0.79202 0.91019 0.47822
 C436 C 0.73242 0.87645 0.47049
 H437 H 0.71618 0.86631 0.46828
 C438 C 0.74315 0.88912 0.45013
 H439 H 0.73500 0.88885 0.43239
 N440 N 0.74286 0.87617 0.49274
 C441 C 0.70705 0.86419 0.56543
 H442 H 0.70453 0.84462 0.56524
 C443 C 0.69870 0.87723 0.58584
 H444 H 0.68970 0.86769 0.60145
 C445 C 0.72195 0.90055 0.54537
 H446 H 0.73089 0.90959 0.52952
 C447 C 0.71386 0.91430 0.56544
 H448 H 0.71671 0.93386 0.56506
 Zn449 Zn 0.73032 0.85635 0.51957
 N450 N 0.71878 0.87588 0.54591
 C451 C 0.76417 0.83519 0.55314
 N452 N 0.75665 0.83484 0.52970
 C453 C 0.76982 0.82195 0.51235
 C454 C 0.79198 0.80945 0.51815
 C455 C 0.78607 0.82286 0.55971
 C456 C 0.68267 0.85309 0.50516
 C457 C 0.66221 0.84250 0.49642
 C458 C 0.68457 0.80308 0.49754
 C459 C 0.70471 0.81446 0.50638
 N460 N 0.70349 0.83913 0.50956
 H461 H 0.75392 0.84601 0.56652
 H462 H 0.76375 0.82245 0.49371
 H463 H 0.80294 0.80017 0.50399
 H464 H 0.79238 0.82411 0.57816
 H465 H 0.68222 0.87264 0.50796
 H466 H 0.64592 0.85391 0.49243
 H467 H 0.68578 0.78357 0.49444
 H468 H 0.72139 0.80370 0.51019
 C469 C 0.70231 0.90246 0.58592
 C470 C 0.76479 0.90135 0.45277
 C471 C 0.66323 0.81735 0.49232
 C472 C 0.80036 0.81033 0.54195
 C473 C -0.00486 0.26328 0.38926
 H474 H 0.01282 0.27162 0.38811
 C475 C -0.02466 0.27440 0.40241
 H476 H -0.02224 0.29129 0.41153
 C477 C -0.03006 0.23181 0.37773
 H478 H -0.03232 0.21562 0.36756
 C479 C -0.05032 0.24232 0.39067
 H480 H -0.06802 0.23406 0.39057
 N481 N -0.00789 0.24242 0.37721
 C482 C 0.06491 0.20734 0.36418
 H483 H 0.06451 0.20502 0.34460
 C484 C 0.08553 0.19899 0.37696
 H485 H 0.10109 0.19021 0.36723
 C486 C 0.04515 0.22169 0.40083
 H487 H 0.02933 0.23039 0.41008
 C488 C 0.06543 0.21359 0.41433
 H489 H 0.06524 0.21622 0.43392
 Zn490 Zn 0.01873 0.23026 0.35700
 N491 N 0.04543 0.21879 0.37614
 C492 C 0.05171 0.26458 0.33560
 N493 N 0.02832 0.25687 0.33553
 C494 C 0.01066 0.26999 0.32295
 C495 C 0.01608 0.29232 0.31051
 C496 C 0.05791 0.28665 0.32331
 C497 C 0.00462 0.18252 0.35368
 C498 C -0.00416 0.16209 0.34310
 C499 C -0.00382 0.18480 0.30382
 C500 C 0.00507 0.20490 0.31517
 N501 N 0.00865 0.20350 0.33978
 H502 H 0.06534 0.25436 0.34617
 H503 H -0.00794 0.26375 0.32368
 H504 H 0.00168 0.30323 0.30149
 H505 H 0.07633 0.29311 0.32433
 H506 H 0.00773 0.18193 0.37317
 H507 H -0.00786 0.14567 0.35447
 H508 H -0.00725 0.18614 0.28436
 H509 H 0.00860 0.22171 0.30446
 C510 C 0.08586 0.20232 0.40222
 C511 C -0.04764 0.26391 0.40292
 C512 C -0.00868 0.16330 0.31803
 C513 C 0.03984 0.30089 0.31111
 C514 C 1.03876 0.78684 0.07518
 H515 H 1.02055 0.79547 0.07384
 C516 C 1.05879 0.79721 0.06216
 H517 H 1.05600 0.81377 0.05060
 C518 C 1.06498 0.75546 0.09285
 H519 H 1.06751 0.73966 0.10538
 C520 C 1.08544 0.76519 0.08016
 H521 H 1.10356 0.75665 0.08276
 N522 N 1.04220 0.76639 0.09023
 C523 C 0.97093 0.73421 0.10475
 H524 H 0.97134 0.73271 0.12460
 C525 C 0.95115 0.72547 0.09305
 H526 H 0.93625 0.71719 0.10390
 C527 C 0.99003 0.74660 0.06636
 H528 H 1.00537 0.75463 0.05611
 C529 C 0.97049 0.73802 0.05386
 H530 H 0.97073 0.73951 0.03395
 Zn531 Zn 1.01522 0.75516 0.11021
 N532 N 0.98974 0.74471 0.09140
 C533 C 0.97969 0.79073 0.12709
 N534 N 1.00322 0.78163 0.12936
 C535 C 1.01879 0.79201 0.14427
 C536 C 1.01061 0.81198 0.15814
 C537 C 0.97081 0.81062 0.14058
 C538 C 1.03235 0.70671 0.11868
 C539 C 1.03937 0.68526 0.13212
 C540 C 1.03113 0.70681 0.16957
 C541 C 1.02425 0.72790 0.15540
 N542 N 1.02523 0.72753 0.13040
 H543 H 0.96779 0.78278 0.11464
 H544 H 1.03755 0.78473 0.14537
 H545 H 1.02302 0.82004 0.17011
 H546 H 0.95202 0.81765 0.13873
 H547 H 1.03257 0.70683 0.09880
 H548 H 1.04517 0.66883 0.12261
 H549 H 1.03043 0.70723 0.18945
 H550 H 1.01798 0.74443 0.16440
 C551 C 0.95088 0.72740 0.06740
 C552 C 1.08236 0.78638 0.06488
 C553 C 1.03879 0.68533 0.15779
 C554 C 0.98637 0.82130 0.15628
 C555 C 0.53814 0.28289 0.57677
 H556 H 0.51991 0.29150 0.57548
 C557 C 0.55811 0.29328 0.56369
 H558 H 0.55527 0.30984 0.55214
 C559 C 0.56445 0.25155 0.59438
 H560 H 0.56703 0.23576 0.60691
 C561 C 0.58485 0.26130 0.58162
 H562 H 0.60299 0.25279 0.58417
 N563 N 0.54165 0.26245 0.59182
 C564 C 0.47045 0.23017 0.60643
 H565 H 0.47084 0.22871 0.62629
 C566 C 0.45071 0.22137 0.59471
 H567 H 0.43581 0.21308 0.60555
 C568 C 0.48959 0.24252 0.56805
 H569 H 0.50494 0.25056 0.55781
 C570 C 0.47010 0.23388 0.55553
 H571 H 0.47037 0.23534 0.53562
 Zn572 Zn 0.51474 0.25121 0.61186
 N573 N 0.48926 0.24068 0.59309
 C574 C 0.47920 0.28677 0.62873
 N575 N 0.50275 0.27771 0.63097
 C576 C 0.51836 0.28819 0.64575
 C577 C 0.51024 0.30829 0.65947
 C578 C 0.47038 0.30679 0.64208
 C579 C 0.53195 0.20281 0.62032
 C580 C 0.53914 0.18141 0.63374
 C581 C 0.53112 0.20300 0.67119
 C582 C 0.52406 0.22405 0.65704
 N583 N 0.52486 0.22363 0.63205
 H584 H 0.46726 0.27873 0.61638
 H585 H 0.53713 0.28094 0.64682
 H586 H 0.52270 0.31647 0.67131
 H587 H 0.45158 0.31382 0.64022
 H588 H 0.53202 0.20290 0.60045
 H589 H 0.54492 0.16498 0.62422
 H590 H 0.53059 0.20346 0.69107
 H591 H 0.51783 0.24059 0.66605
 C592 C 0.45049 0.22325 0.56906
 C593 C 0.58171 0.28247 0.56634
 C594 C 0.53877 0.18152 0.65940
 C595 C 0.48600 0.31761 0.65760
 C596 C 0.49337 0.76322 0.89007
 H597 H 0.51110 0.77146 0.88894
 C598 C 0.47356 0.77453 0.90304
 H599 H 0.47604 0.79146 0.91208
 C600 C 0.46804 0.73183 0.87860
 H601 H 0.46574 0.71559 0.86851
 C602 C 0.44777 0.74253 0.89137
 H603 H 0.43003 0.73437 0.89124
 N604 N 0.49027 0.74230 0.87812
 C605 C 0.56288 0.70667 0.86542
 H606 H 0.56234 0.70405 0.84590
 C607 C 0.58360 0.69852 0.87815
 H608 H 0.59908 0.68958 0.86844
 C609 C 0.54345 0.72170 0.90193
 H610 H 0.52774 0.73064 0.91114
 C611 C 0.56384 0.71382 0.91537
 H612 H 0.56384 0.71683 0.93488
 Zn613 Zn 0.51691 0.72990 0.85808
 N614 N 0.54354 0.71839 0.87732
 C615 C 0.55025 0.76381 0.83661
 N616 N 0.52677 0.75633 0.83651
 C617 C 0.50928 0.76956 0.82381
 C618 C 0.51496 0.79175 0.81125
 C619 C 0.55672 0.78572 0.82420
 C620 C 0.50250 0.68222 0.85482
 C621 C 0.49385 0.66175 0.84418
 C622 C 0.49485 0.68429 0.80480
 C623 C 0.50359 0.70443 0.81622
 N624 N 0.50681 0.70312 0.84089
 H625 H 0.56376 0.75351 0.84727
 H626 H 0.49061 0.76351 0.82451
 H627 H 0.50071 0.80276 0.80212
 H628 H 0.57521 0.79200 0.82523
 H629 H 0.50535 0.68169 0.87436
 H630 H 0.48997 0.64538 0.85555
 H631 H 0.49174 0.68556 0.78528
 H632 H 0.50734 0.72116 0.80549
 C633 C 0.58416 0.70233 0.90329
 C634 C 0.45052 0.76419 0.90350
 C635 C 0.48975 0.66286 0.81902
 C636 C 0.53882 0.80008 0.81186
 C637 C 0.45023 -0.14870 0.32401
 C638 C 0.42203 -0.14673 0.32427
 C639 C 0.41292 -0.12634 0.31171
 C640 C 0.43288 -0.10989 0.30010
 C641 C 0.44943 -0.12689 0.28409
 C642 C 0.45857 -0.14731 0.29667
 C643 C 0.45778 -0.12445 0.33406
 C644 C 0.44865 -0.10405 0.32149
 C645 C 0.45981 -0.17062 0.33775
 C646 C 0.46722 -0.18852 0.34955
 C647 C 0.42275 -0.08797 0.28674
 C648 C 0.41372 -0.07009 0.27610
 H649 H 0.41025 -0.16018 0.33350
 H650 H 0.39332 -0.12234 0.31018
 H651 H 0.45362 -0.12320 0.26461
 H652 H 0.47058 -0.16113 0.28798
 H653 H 0.46931 -0.12341 0.34966
 H654 H 0.45236 -0.08552 0.32632
 C655 C 0.95124 0.35254 0.82175
 C656 C 0.92432 0.35962 0.82877
 C657 C 0.91554 0.38025 0.81636
 C658 C 0.93453 0.39182 0.79813
 C659 C 0.94330 0.37105 0.78130
 C660 C 0.95209 0.35038 0.79374
 C661 C 0.96545 0.37555 0.82593
 C662 C 0.95666 0.39621 0.81351
 C663 C 0.96048 0.33038 0.83536
 C664 C 0.96767 0.31234 0.84710
 C665 C 0.92475 0.41400 0.78493
 C666 C 0.91598 0.43208 0.77439
 H667 H 0.91312 0.34932 0.84231
 H668 H 0.89682 0.38762 0.81927
 H669 H 0.94268 0.37246 0.76139
 H670 H 0.95900 0.33409 0.78449
 H671 H 0.98106 0.37561 0.83760
 H672 H 0.96473 0.41396 0.81452
 C673 C 0.01877 1.18376 0.83244
 C674 C 0.01999 1.18475 0.80420
 C675 C 0.02887 1.16338 0.79442
 C676 C 0.03566 1.14311 0.81381
 C677 C 0.01223 1.14013 0.83028
 C678 C 0.00334 1.16152 0.84008
 C679 C 0.04497 1.17608 0.83979
 C680 C 0.05385 1.15472 0.83001
 C681 C 0.00936 1.20685 0.84291
 C682 C 0.00182 1.22593 0.85142
 C683 C 0.04553 1.12025 0.80318
 C684 C 0.05440 1.10186 0.79426
 H685 H 0.01436 1.20081 0.79289
 H686 H 0.03084 1.16115 0.77472
 H687 H 0.00341 1.12278 0.83392
 H688 H -0.01310 1.16249 0.85212
 H689 H 0.05562 1.18649 0.85166
 H690 H 0.07210 1.14684 0.83351
 C691 C 0.51891 0.68352 0.33394
 C692 C 0.51546 0.68320 0.30615
 C693 C 0.52444 0.66210 0.29592
 C694 C 0.53598 0.64336 0.31447
 C695 C 0.51579 0.63916 0.33467
 C696 C 0.50680 0.66029 0.34491
 C697 C 0.54658 0.67848 0.33691
 C698 C 0.55555 0.65738 0.32668
 C699 C 0.50939 0.70635 0.34485
 C700 C 0.50175 0.72527 0.35361
 C701 C 0.54594 0.62079 0.30335
 C702 C 0.55486 0.60262 0.29403
 H703 H 0.50671 0.69823 0.29546
 H704 H 0.52337 0.65904 0.27646
 H705 H 0.50914 0.62120 0.34041
 H706 H 0.49245 0.66043 0.35943
 H707 H 0.55812 0.69042 0.34625
 H708 H 0.57478 0.65126 0.32726
 C709 C 0.52583 0.35176 0.17483
 C710 C 0.52510 0.34933 0.20305
 C711 C 0.53261 0.36967 0.21373
 C712 C 0.54008 0.39039 0.19510
 C713 C 0.51766 0.39556 0.17930
 C714 C 0.51017 0.37523 0.16863
 C715 C 0.55232 0.35819 0.16726
 C716 C 0.55980 0.37846 0.17790
 C717 C 0.51821 0.32997 0.16293
 C718 C 0.51275 0.31231 0.15222
 C719 C 0.54877 0.41218 0.20623
 C720 C 0.55732 0.42977 0.21467
 H721 H 0.51918 0.33312 0.21369
 H722 H 0.53311 0.37089 0.23352
 H723 H 0.50846 0.41356 0.17677
 H724 H 0.49453 0.37582 0.15695
 H725 H 0.56420 0.34771 0.15463
 H726 H 0.57809 0.38533 0.17437
 C727 C 0.02514 0.85160 0.67389
 C728 C 0.05306 0.85178 0.67632
 C729 C 0.06045 0.87179 0.68750
 C730 C 0.03921 0.88972 0.69519
 C731 C 0.02153 0.87405 0.71141
 C732 C 0.01411 0.85397 0.70019
 C733 C 0.01821 0.87616 0.66034
 C734 C 0.02561 0.89619 0.67154
 C735 C 0.01764 0.83010 0.66143
 C736 C 0.01229 0.81268 0.65029
 C737 C 0.04782 0.91122 0.70688
 C738 C 0.05635 0.92859 0.71575
 H739 H 0.06592 0.83742 0.66986
 H740 H 0.07965 0.87455 0.69061
 H741 H 0.01536 0.87835 0.73001
 H742 H 0.00159 0.84106 0.70917
 H743 H 0.00830 0.87767 0.64347
 H744 H 0.02204 0.91487 0.66426
 C745 C 0.96132 0.68941 0.66223
 C746 C 0.97567 0.66576 0.65487
 C747 C 0.96438 0.64479 0.66267
 C748 C 0.93984 0.64952 0.67706
 C749 C 0.92442 0.66653 0.65988
 C750 C 0.93571 0.68749 0.65209
 C751 C 0.95732 0.68660 0.69028
 C752 C 0.94602 0.66562 0.69809
 C753 C 0.97333 0.71199 0.65361
 C754 C 0.98289 0.73053 0.64593
 C755 C 0.92750 0.62702 0.68536
 C756 C 0.91694 0.60874 0.69209
 H757 H 0.99318 0.66552 0.64446
 H758 H 0.97220 0.62657 0.65895
 H759 H 0.90623 0.66248 0.65432
 H760 H 0.92718 0.70138 0.63985
 H761 H 0.96287 0.69990 0.70290
 H762 H 0.94190 0.66093 0.71740
 C763 C 0.46000 0.18658 0.16584
 C764 C 0.47437 0.16293 0.15851
 C765 C 0.46288 0.14196 0.16598
 C766 C 0.43816 0.14671 0.18004
 C767 C 0.42308 0.16391 0.16273
 C768 C 0.43455 0.18485 0.15527
 C769 C 0.45556 0.18359 0.19384
 C770 C 0.44407 0.16262 0.20131
 C771 C 0.47218 0.20915 0.15752
 C772 C 0.48179 0.22768 0.14992
 C773 C 0.42561 0.12422 0.18795
 C774 C 0.41489 0.10596 0.19434
 H775 H 0.49202 0.16268 0.14838
 H776 H 0.47069 0.12375 0.16225
 H777 H 0.40496 0.15998 0.15685
 H778 H 0.42625 0.19886 0.14300
 H779 H 0.46098 0.19676 0.20666
 H780 H 0.43965 0.15782 0.22054
 C781 C 0.32326 0.44923 -0.14768
 C782 C 0.33072 0.42247 -0.14031
 C783 C 0.31824 0.41354 -0.11980
 C784 C 0.29949 0.43224 -0.10863
 C785 C 0.28280 0.44054 -0.12970
 C786 C 0.29530 0.44949 -0.15025
 C787 C 0.32683 0.46368 -0.12472
 C788 C 0.31433 0.45474 -0.10417
 C789 C 0.33692 0.45864 -0.16973
 C790 C 0.34866 0.46599 -0.18768
 C791 C 0.28622 0.42232 -0.08657
 C792 C 0.27562 0.41347 -0.06858
 H793 H 0.34461 0.41148 -0.15034
 H794 H 0.32143 0.39490 -0.11226
 H795 H 0.26292 0.43952 -0.12857
 H796 H 0.28615 0.45612 -0.16673
 H797 H 0.33815 0.47955 -0.12461
 H798 H 0.31494 0.46294 -0.08647
 C799 C 0.82478 0.94866 0.35248
 C800 C 0.83298 0.92222 0.36039
 C801 C 0.82051 0.91324 0.38089
 C802 C 0.80104 0.93156 0.39152
 C803 C 0.78444 0.93895 0.37012
 C804 C 0.79693 0.94794 0.34958
 C805 C 0.82753 0.96366 0.37525
 C806 C 0.81504 0.95467 0.39578
 C807 C 0.83843 0.95812 0.33045
 C808 C 0.85016 0.96555 0.31252
 C809 C 0.78777 0.92160 0.41357
 C810 C 0.77715 0.91275 0.43156
 H811 H 0.84733 0.91149 0.35072
 H812 H 0.82419 0.89481 0.38878
 H813 H 0.76464 0.93729 0.37102
 H814 H 0.78783 0.95398 0.33289
 H815 H 0.83831 0.97993 0.37523
 H816 H 0.81512 0.96323 0.41335
 C817 C 0.83468 0.01718 1.18415
 C818 C 0.85216 0.03274 1.16762
 C819 C 0.84210 0.04179 1.14641
 C820 C 0.81553 0.03440 1.14380
 C821 C 0.80150 0.04294 1.16719
 C822 C 0.81156 0.03389 1.18838
 C823 C 0.82671 -0.00288 1.16774
 C824 C 0.81663 0.00618 1.14652
 C825 C 0.84543 0.00760 1.20709
 C826 C 0.85409 -0.00004 1.22610
 C827 C 0.80459 0.04446 1.12113
 C828 C 0.79539 0.05348 1.10290
 H829 H 0.87082 0.03631 1.17216
 H830 H 0.85214 0.05311 1.13277
 H831 H 0.78507 0.05503 1.16710
 H832 H 0.80375 0.03824 1.20644
 H833 H 0.82881 -0.02246 1.17238
 H834 H 0.81010 -0.00562 1.13297
 C835 C 0.33286 0.51814 0.68436
 C836 C 0.30465 0.51828 0.68543
 C837 C 0.29445 0.52735 0.66430
 C838 C 0.31346 0.53539 0.64415
 C839 C 0.33076 0.51266 0.64055
 C840 C 0.34097 0.50358 0.66170
 C841 C 0.33917 0.54481 0.67732
 C842 C 0.32898 0.55387 0.65620
 C843 C 0.34375 0.50852 0.70721
 C844 C 0.35251 0.50081 0.72614
 C845 C 0.30238 0.54546 0.62156
 C846 C 0.29309 0.55447 0.60338
 H847 H 0.29364 0.51180 0.70138
 H848 H 0.27471 0.52864 0.66215
 H849 H 0.33464 0.50443 0.62296
 H850 H 0.35360 0.48757 0.66224
 H851 H 0.35066 0.55561 0.68798
 H852 H 0.33174 0.57245 0.64877
 C853 C 0.17337 0.52699 0.35236
 C854 C 0.20156 0.52684 0.34970
 C855 C 0.21230 0.53421 0.37006
 C856 C 0.19376 0.54099 0.39104
 C857 C 0.17844 0.51818 0.39601
 C858 C 0.16771 0.51082 0.37566
 C859 C 0.16537 0.55323 0.35923
 C860 C 0.17607 0.56058 0.37952
 C861 C 0.16143 0.51950 0.33054
 C862 C 0.15072 0.51411 0.31285
 C863 C 0.20496 0.54953 0.41285
 C864 C 0.21348 0.55797 0.43045
 H865 H 0.21214 0.52138 0.33332
 H866 H 0.23209 0.53507 0.37113
 H867 H 0.17627 0.50864 0.41389
 H868 H 0.15634 0.49494 0.37611
 H869 H 0.15242 0.56503 0.34903
 H870 H 0.17228 0.57868 0.38670
 C871 C 0.67472 0.02582 0.85234
 C872 C 0.70294 0.02464 0.84983
 C873 C 0.71387 0.03195 0.87011
 C874 C 0.69549 0.03971 0.89085
 C875 C 0.67932 0.01756 0.89613
 C876 C 0.66839 0.01025 0.87587
 C877 C 0.66763 0.05241 0.85870
 C878 C 0.67852 0.05970 0.87890
 C879 C 0.66255 0.01840 0.83062
 C880 C 0.65165 0.01307 0.81303
 C881 C 0.70688 0.04820 0.91257
 C882 C 0.71554 0.05663 0.93011
 H883 H 0.71339 0.01855 0.83361
 H884 H 0.73370 0.03213 0.87126
 H885 H 0.67674 0.00839 0.91416
 H886 H 0.65644 -0.00518 0.87654
 H887 H 0.65513 0.06449 0.84823
 H888 H 0.67535 0.07803 0.88573
 C889 C 0.66504 0.96125 0.68722
 C890 C 0.65778 0.97551 0.66344
 C891 C 0.66548 0.96401 0.64259
 C892 C 0.67967 0.93939 0.64758
 C893 C 0.66236 0.92422 0.66470
 C894 C 0.65467 0.93570 0.68552
 C895 C 0.69307 0.95701 0.68450
 C896 C 0.70077 0.94551 0.66365
 C897 C 0.65651 0.97341 0.70969
 C898 C 0.64886 0.98294 0.72821
 C899 C 0.68785 0.92679 0.62525
 C900 C 0.69445 0.91596 0.60716
 H901 H 0.64753 0.99310 0.66301
 H902 H 0.66182 0.97174 0.62431
 H903 H 0.65664 0.90604 0.66081
 H904 H 0.64237 0.92735 0.69946
 H905 H 0.70575 0.96256 0.69776
 H906 H 0.72005 0.94121 0.65904
 C907 C 0.16493 0.46110 0.18752
 C908 C 0.16017 0.47653 0.16373
 C909 C 0.16779 0.46495 0.14291
 C910 C 0.17942 0.43908 0.14794
 C911 C 0.15996 0.42530 0.16376
 C912 C 0.15235 0.43686 0.18455
 C913 C 0.19260 0.45426 0.18613
 C914 C 0.20023 0.44267 0.16531
 C915 C 0.15645 0.47338 0.20994
 C916 C 0.14875 0.48307 0.22834
 C917 C 0.18750 0.42643 0.12562
 C918 C 0.19400 0.41562 0.10748
 H919 H 0.15160 0.49494 0.16327
 H920 H 0.16575 0.47343 0.12462
 H921 H 0.15278 0.40796 0.15905
 H922 H 0.13865 0.42943 0.19765
 H923 H 0.20510 0.45818 0.20023
 H924 H 0.21926 0.43667 0.16157
 C925 C -0.14771 0.32355 0.45060
 C926 C -0.13589 0.30544 0.46958
 C927 C -0.11538 0.29298 0.46056
 C928 C -0.10873 0.29987 0.43347
 C929 C -0.10656 0.32789 0.43235
 C930 C -0.12704 0.34033 0.44135
 C931 C -0.15248 0.30801 0.42872
 C932 C -0.13199 0.29557 0.41972
 C933 C -0.16971 0.33717 0.46006
 C934 C -0.18765 0.34889 0.46739
 C935 C -0.08672 0.28665 0.42346
 C936 C -0.06878 0.27612 0.41450
 H937 H -0.14301 0.30265 0.48842
 H938 H -0.10491 0.27951 0.47167
 H939 H -0.09034 0.33716 0.42514
 H940 H -0.12836 0.36026 0.44184
 H941 H -0.17037 0.30686 0.42100
 H942 H -0.13234 0.28375 0.40428
 C943 C 0.35076 0.82475 0.95074
 C944 C 0.35804 0.83214 0.92393
 C945 C 0.37842 0.81952 0.91499
 C946 C 0.38956 0.80071 0.93372
 C947 C 0.36840 0.78417 0.94216
 C948 C 0.34798 0.79682 0.95111
 C949 C 0.37385 0.82818 0.96509
 C950 C 0.39426 0.81553 0.95614
 C951 C 0.32886 0.83859 0.96014
 C952 C 0.31104 0.85051 0.96749
 C953 C 0.41150 0.78728 0.92379
 C954 C 0.42940 0.77659 0.91494
 H955 H 0.34805 0.84608 0.91292
 H956 H 0.38589 0.82264 0.89633
 H957 H 0.36938 0.76428 0.94121
 H958 H 0.33147 0.78778 0.95783
 H959 H 0.37413 0.83951 0.98091
 H960 H 0.41202 0.81603 0.96429
 C961 C 1.18513 0.83691 0.01772
 C962 C 1.17567 0.84659 0.04257
 C963 C 1.15440 0.83654 0.05144
 C964 C 1.14465 0.81779 0.03460
 C965 C 1.16604 0.79879 0.03080
 C966 C 1.18731 0.80883 0.02193
 C967 C 1.16360 0.84171 0.00065
 C968 C 1.14230 0.83165 0.00953
 C969 C 1.20815 0.84761 0.00833
 C970 C 1.22724 0.85619 0.00082
 C971 C 1.12190 0.80684 0.04446
 C972 C 1.10362 0.79762 0.05332
 H973 H 1.18486 0.86017 0.05232
 H974 H 1.14537 0.84152 0.06879
 H975 H 1.16460 0.77916 0.03471
 H976 H 1.20408 0.79781 0.01825
 H977 H 1.16497 0.85210 -0.01685
 H978 H 1.12542 0.83341 -0.00036
 C979 C 0.68419 0.33331 0.51892
 C980 C 0.68533 0.30507 0.51960
 C981 C 0.66412 0.29494 0.52853
 C982 C 0.64383 0.31402 0.53591
 C983 C 0.64050 0.33096 0.51282
 C984 C 0.66174 0.34110 0.50388
 C985 C 0.67677 0.34004 0.54535
 C986 C 0.65556 0.32991 0.55428
 C987 C 0.70712 0.34412 0.50945
 C988 C 0.72611 0.35284 0.50186
 C989 C 0.62115 0.30301 0.54583
 C990 C 0.60291 0.29374 0.55473
 H991 H 0.70139 0.29401 0.51357
 H992 H 0.66201 0.27520 0.53015
 H993 H 0.62303 0.33465 0.50426
 H994 H 0.66246 0.35349 0.48765
 H995 H 0.68724 0.35176 0.55611
 H996 H 0.64787 0.33296 0.57268
 C997 C 0.35253 0.17307 0.52580
 C998 C 0.34940 0.18246 0.55189
 C999 C 0.36961 0.19331 0.55932
 C1000 C 0.39101 0.19373 0.53995
 C1001 C 0.38012 0.20644 0.51687
 C1002 C 0.35984 0.19555 0.50941
 C1003 C 0.37570 0.15592 0.52611
 C1004 C 0.39592 0.16677 0.53355
 C1005 C 0.33080 0.16098 0.51824
 C1006 C 0.31317 0.15019 0.51283
 C1007 C 0.41270 0.20509 0.54859
 C1008 C 0.43020 0.21373 0.55712
 H1009 H 0.33275 0.18078 0.56350
 H1010 H 0.37025 0.20093 0.57731
 H1011 H 0.38766 0.22252 0.50724
 H1012 H 0.35000 0.20230 0.49339
 H1013 H 0.37620 0.13692 0.52089
 H1014 H 0.41373 0.15708 0.53470
 C1015 C 0.85279 0.67715 0.02449
 C1016 C 0.84968 0.68674 0.05050
 C1017 C 0.86989 0.69764 0.05784
 C1018 C 0.89129 0.69791 0.03847
 C1019 C 0.88042 0.71046 0.01530
 C1020 C 0.86013 0.69952 0.00793
 C1021 C 0.87595 0.65999 0.02493
 C1022 C 0.89618 0.67089 0.03227
 C1023 C 0.83108 0.66498 0.01702
 C1024 C 0.81351 0.65407 0.01164
 C1025 C 0.91301 0.70929 0.04702
 C1026 C 0.93055 0.71793 0.05550
 H1027 H 0.83302 0.68516 0.06212
 H1028 H 0.87054 0.70540 0.07577
 H1029 H 0.88797 0.72646 0.00556
 H1030 H 0.85029 0.70615 -0.00813
 H1031 H 0.87644 0.64094 0.01984
 H1032 H 0.91399 0.66119 0.03348
 C1033 C 0.68720 0.66669 0.96018
 C1034 C 0.66385 0.65816 0.97438
 C1035 C 0.64266 0.66553 0.96328
 C1036 C 0.64690 0.68070 0.93908
 C1037 C 0.66442 0.66450 0.92321
 C1038 C 0.68559 0.65714 0.93430
 C1039 C 0.68348 0.69474 0.95687
 C1040 C 0.66228 0.70212 0.94577
 C1041 C 0.71002 0.65847 0.97194
 C1042 C 0.72875 0.65098 0.98121
 C1043 C 0.62418 0.68852 0.92691
 C1044 C 0.60577 0.69482 0.91642
 H1045 H 0.66396 0.64731 0.99164
 H1046 H 0.62461 0.66100 0.97103
 H1047 H 0.66054 0.65927 0.90487
 H1048 H 0.69984 0.64560 0.92544
 H1049 H 0.69634 0.70767 0.96275
 H1050 H 0.65698 0.72137 0.94213
 C1051 C 0.18751 0.16460 0.46047
 C1052 C 0.18117 0.14836 0.43963
 C1053 C 0.16032 0.15616 0.42820
 C1054 C 0.14782 0.17944 0.43871
 C1055 C 0.16782 0.19848 0.43710
 C1056 C 0.18870 0.19067 0.44855
 C1057 C 0.16443 0.16534 0.47776
 C1058 C 0.14354 0.17315 0.46632
 C1059 C 0.21000 0.15594 0.47259
 C1060 C 0.22847 0.14815 0.48215
 C1061 C 0.12543 0.18773 0.42620
 C1062 C 0.10725 0.19440 0.41550
 H1063 H 0.19211 0.13214 0.43432
 H1064 H 0.15340 0.14662 0.41310
 H1065 H 0.16576 0.21651 0.42782
 H1066 H 0.20452 0.20200 0.44907
 H1067 H 0.16448 0.16021 0.49727
 H1068 H 0.12571 0.17471 0.47602
 C1069 C 0.57836 0.08020 0.72331
 C1070 C 0.58237 0.10428 0.73575
 C1071 C 0.57388 0.12476 0.72290
 C1072 C 0.56220 0.11919 0.69883
 C1073 C 0.54213 0.10106 0.70642
 C1074 C 0.55064 0.08053 0.71931
 C1075 C 0.59055 0.08351 0.69745
 C1076 C 0.58205 0.10400 0.68458
 C1077 C 0.58790 0.05841 0.73732
 C1078 C 0.59663 0.04123 0.74927
 C1079 C 0.55332 0.14137 0.68498
 C1080 C 0.54648 0.15969 0.67346
 H1081 H 0.59109 0.10517 0.75318
 H1082 H 0.57533 0.14318 0.72930
 H1083 H 0.52295 0.10406 0.70204
 H1084 H 0.53876 0.06595 0.72597
 H1085 H 0.60458 0.07084 0.68989
 H1086 H 0.58881 0.10888 0.66600
 C1087 C 1.07762 0.58379 0.22185
 C1088 C 1.08611 0.60788 0.23146
 C1089 C 1.07775 0.62839 0.21858
 C1090 C 1.06169 0.62286 0.19732
 C1091 C 1.04106 0.60736 0.20920
 C1092 C 1.04945 0.58680 0.22211
 C1093 C 1.08595 0.58447 0.19452
 C1094 C 1.07757 0.60501 0.18163
 C1095 C 1.08708 0.56196 0.23587
 C1096 C 1.09587 0.54477 0.24776
 C1097 C 1.05297 0.64508 0.18343
 C1098 C 1.04630 0.66344 0.17188
 H1099 H 1.09768 0.60874 0.24706
 H1100 H 1.08214 0.64681 0.22315
 H1101 H 1.02161 0.61211 0.20760
 H1102 H 1.03719 0.57393 0.23157
 H1103 H 1.09736 0.57007 0.18603
 H1104 H 1.08182 0.60820 0.16209
 C1105 C 0.93505 0.91324 0.22099
 C1106 C 0.92732 0.91329 0.19426
 C1107 C 0.93868 0.89496 0.18121
 C1108 C 0.95666 0.87838 0.19615
 C1109 C 0.94137 0.86901 0.21878
 C1110 C 0.93003 0.88732 0.23182
 C1111 C 0.96320 0.91435 0.21921
 C1112 C 0.97458 0.89599 0.20613
 C1113 C 0.92238 0.93263 0.23516
 C1114 C 0.91108 0.94776 0.24715
 C1115 C 0.96843 0.85841 0.18209
 C1116 C 0.97714 0.84163 0.17043
 H1117 H 0.91414 0.92658 0.18628
 H1118 H 0.93522 0.89255 0.16203
 H1119 H 0.93964 0.84968 0.22412
 H1120 H 0.91857 0.88366 0.24833
 H1121 H 0.97328 0.92831 0.22747
 H1122 H 0.99442 0.89420 0.20318
 C1123 C 0.43468 0.41054 0.72091
 C1124 C 0.42607 0.40934 0.69460
 C1125 C 0.43748 0.39082 0.68187
 C1126 C 0.45638 0.37528 0.69668
 C1127 C 0.44212 0.36631 0.72013
 C1128 C 0.43072 0.38482 0.73285
 C1129 C 0.46273 0.41240 0.71805
 C1130 C 0.47416 0.39383 0.70529
 C1131 C 0.42191 0.43013 0.73473
 C1132 C 0.41041 0.44537 0.74641
 C1133 C 0.46818 0.35510 0.68295
 C1134 C 0.47685 0.33814 0.67152
 H1135 H 0.41228 0.42198 0.68665
 H1136 H 0.43344 0.38758 0.66301
 H1137 H 0.44110 0.34709 0.72623
 H1138 H 0.41994 0.38145 0.74985
 H1139 H 0.47270 0.42699 0.72537
 H1140 H 0.49393 0.39250 0.70167
 C1141 C 0.43380 0.56441 0.78444
 C1142 C 0.46175 0.56189 0.77928
 C1143 C 0.47384 0.58219 0.78470
 C1144 C 0.45676 0.60298 0.79473
 C1145 C 0.44262 0.59111 0.81691
 C1146 C 0.43058 0.57090 0.81151
 C1147 C 0.42544 0.58789 0.76979
 C1148 C 0.43753 0.60819 0.77520
 C1149 C 0.42043 0.54258 0.77943
 C1150 C 0.40866 0.52475 0.77700
 C1151 C 0.46941 0.62473 0.80137
 C1152 C 0.47908 0.64233 0.80853
 H1153 H 0.47118 0.54565 0.77196
 H1154 H 0.49363 0.58335 0.78201
 H1155 H 0.44210 0.59800 0.83530
 H1156 H 0.41977 0.56049 0.82530
 H1157 H 0.41136 0.58850 0.75630
 H1158 H 0.43380 0.62619 0.76635
 C1159 C -0.06550 0.06504 0.28434
 C1160 C -0.06715 0.07072 0.31168
 C1161 C -0.05497 0.09091 0.31687
 C1162 C -0.04226 0.10355 0.29424
 C1163 C -0.06273 0.10906 0.27606
 C1164 C -0.07495 0.08879 0.27085
 C1165 C -0.03783 0.06300 0.27748
 C1166 C -0.02559 0.08329 0.28269
 C1167 C -0.07898 0.04322 0.27953
 C1168 C -0.09074 0.02536 0.27720
 C1169 C -0.02943 0.12526 0.30067
 C1170 C -0.01958 0.14283 0.30767
 H1171 H -0.07704 0.05980 0.32578
 H1172 H -0.05444 0.09726 0.33541
 H1173 H -0.06716 0.12724 0.26794
 H1174 H -0.08986 0.08960 0.25826
 H1175 H -0.02868 0.04710 0.26921
 H1176 H -0.00596 0.08476 0.27889
 C1177 C 0.07404 0.41550 0.28379
 C1178 C 0.08408 0.39773 0.26430
 C1179 C 0.07609 0.37443 0.26816
 C1180 C 0.05887 0.37122 0.29111
 C1181 C 0.03795 0.39082 0.28761
 C1182 C 0.04595 0.41415 0.28375
 C1183 C 0.08127 0.40313 0.30846
 C1184 C 0.07332 0.37993 0.31230
 C1185 C 0.08328 0.44035 0.28034
 C1186 C 0.09232 0.46017 0.27888
 C1187 C 0.05083 0.34607 0.29608
 C1188 C 0.04527 0.32536 0.30196
 H1189 H 0.09629 0.40301 0.24880
 H1190 H 0.08146 0.35975 0.25597
 H1191 H 0.01862 0.38673 0.28804
 H1192 H 0.03347 0.43006 0.28088
 H1193 H 0.09173 0.41187 0.32181
 H1194 H 0.07699 0.36882 0.32894
 C1195 C 0.57466 0.91405 0.78428
 C1196 C 0.54651 0.91338 0.78685
 C1197 C 0.53817 0.89019 0.79073
 C1198 C 0.55884 0.87003 0.79164
 C1199 C 0.57561 0.87754 0.81156
 C1200 C 0.58390 0.90060 0.80770
 C1201 C 0.58229 0.89686 0.76346
 C1202 C 0.57396 0.87368 0.76733
 C1203 C 0.58423 0.93875 0.78082
 C1204 C 0.59343 0.95849 0.77937
 C1205 C 0.55041 0.84502 0.79665
 C1206 C 0.54457 0.82442 0.80259
 H1207 H 0.53423 0.92963 0.78565
 H1208 H 0.51874 0.88658 0.79285
 H1209 H 0.58056 0.86573 0.82737
 H1210 H 0.59594 0.90853 0.82021
 H1211 H 0.59319 0.90242 0.74709
 H1212 H 0.57771 0.85939 0.75430
 C1213 C 0.72364 0.57911 0.08101
 C1214 C 0.69973 0.59416 0.08684
 C1215 C 0.68687 0.58547 0.10724
 C1216 C 0.69917 0.56257 0.11984
 C1217 C 0.72515 0.57009 0.12501
 C1218 C 0.73800 0.57878 0.10461
 C1219 C 0.71577 0.55259 0.07919
 C1220 C 0.70289 0.54388 0.09963
 C1221 C 0.73760 0.58892 0.05931
 C1222 C 0.74938 0.59799 0.04219
 C1223 C 0.68530 0.55351 0.14193
 C1224 C 0.67374 0.54658 0.16018
 H1225 H 0.69342 0.61021 0.07588
 H1226 H 0.66956 0.59408 0.11375
 H1227 H 0.73279 0.56868 0.14310
 H1228 H 0.75667 0.58482 0.10524
 H1229 H 0.71994 0.54164 0.06328
 H1230 H 0.69602 0.52546 0.10123
 C1231 C 0.22292 1.07604 0.58247
 C1232 C 0.22095 1.04797 0.58385
 C1233 C 0.20818 1.03933 0.60439
 C1234 C 0.19866 1.05962 0.62148
 C1235 C 0.18353 1.07782 0.60517
 C1236 C 0.19628 1.08645 0.58467
 C1237 C 0.23427 1.08198 0.60662
 C1238 C 0.22153 1.07336 0.62711
 C1239 C 0.23677 1.08578 0.56066
 C1240 C 0.24850 1.09480 0.54348
 C1241 C 0.18490 1.05064 0.64367
 C1242 C 0.17338 1.04380 0.66199
 H1243 H 0.22885 1.03597 0.56994
 H1244 H 0.20515 1.01991 0.60808
 H1245 H 0.16445 1.08340 0.60934
 H1246 H 0.18812 1.09941 0.57127
 H1247 H 0.25090 1.09206 0.60755
 H1248 H 0.22724 1.07605 0.64557
 C1249 C 0.22065 0.93412 0.91356
 C1250 C 0.21673 0.96206 0.91564
 C1251 C 0.20376 0.97321 0.89702
 C1252 C 0.19602 0.95529 0.87821
 C1253 C 0.18181 0.93567 0.89342
 C1254 C 0.19475 0.92455 0.91200
 C1255 C 0.23294 0.93085 0.88792
 C1256 C 0.22001 0.94197 0.86936
 C1257 C 0.23475 0.92170 0.93320
 C1258 C 0.24676 0.91059 0.94848
 C1259 C 0.18211 0.96683 0.85797
 C1260 C 0.17060 0.97536 0.84095
 H1261 H 0.22351 0.97217 0.93041
 H1262 H 0.19942 0.99288 0.89583
 H1263 H 0.16318 0.93097 0.88994
 H1264 H 0.18721 0.91033 0.92443
 H1265 H 0.25033 0.92071 0.88463
 H1266 H 0.22632 0.94135 0.85019
 C1267 C 0.72105 0.43482 0.41131
 C1268 C 0.73122 0.42834 0.38557
 C1269 C 0.71851 0.43971 0.36699
 C1270 C 0.69684 0.45648 0.37592
 C1271 C 0.70810 0.47444 0.39262
 C1272 C 0.72085 0.46303 0.41126
 C1273 C 0.69385 0.42855 0.41194
 C1274 C 0.68113 0.43993 0.39334
 C1275 C 0.73485 0.42208 0.43098
 C1276 C 0.74650 0.41060 0.44630
 C1277 C 0.68312 0.46824 0.35566
 C1278 C 0.67170 0.47689 0.33864
 H1279 H 0.74707 0.41591 0.38222
 H1280 H 0.72348 0.43703 0.34774
 H1281 H 0.70622 0.49432 0.39005
 H1282 H 0.72989 0.47313 0.42467
 H1283 H 0.68532 0.41629 0.42582
 H1284 H 0.66169 0.43742 0.39128
 C1285 C 0.78448 0.43504 0.56477
 C1286 C 0.76409 0.43467 0.58524
 C1287 C 0.76949 0.44712 0.60532
 C1288 C 0.79473 0.45867 0.60288
 C1289 C 0.79423 0.47482 0.57898
 C1290 C 0.78884 0.46239 0.55894
 C1291 C 0.80774 0.42488 0.57726
 C1292 C 0.81311 0.43727 0.59723
 C1293 C 0.77949 0.42130 0.54321
 C1294 C 0.77706 0.40926 0.52558
 C1295 C 0.80137 0.47170 0.62437
 C1296 C 0.80856 0.48167 0.64176
 H1297 H 0.74694 0.42552 0.58405
 H1298 H 0.75697 0.44864 0.62133
 H1299 H 0.79772 0.49432 0.57791
 H1300 H 0.78770 0.47124 0.54070
 H1301 H 0.81902 0.40926 0.57096
 H1302 H 0.82899 0.43224 0.60803
 C1303 C 0.28328 -0.06638 0.06414
 C1304 C 0.28015 -0.03827 0.06074
 C1305 C 0.28541 -0.02616 0.08106
 C1306 C 0.29328 -0.04338 0.10274
 C1307 C 0.31499 -0.05923 0.09236
 C1308 C 0.30975 -0.07128 0.07213
 C1309 C 0.26699 -0.07321 0.08702
 C1310 C 0.27225 -0.06110 0.10734
 C1311 C 0.27843 -0.07973 0.04228
 C1312 C 0.27615 -0.09140 0.02436
 C1313 C 0.29977 -0.03068 0.12449
 C1314 C 0.30684 -0.02093 0.14208
 H1315 H 0.27424 -0.02873 0.04392
 H1316 H 0.28402 -0.00625 0.08164
 H1317 H 0.33297 -0.06085 0.10023
 H1318 H 0.32324 -0.08321 0.06270
 H1319 H 0.25256 -0.08631 0.08722
 H1320 H 0.26234 -0.06383 0.12495
 C1321 C 0.28374 0.07338 0.41434
 C1322 C 0.29218 0.04612 0.41369
 C1323 C 0.29589 0.03801 0.39045
 C1324 C 0.29079 0.05798 0.37019
 C1325 C 0.30706 0.07909 0.37565
 C1326 C 0.30337 0.08716 0.39879
 C1327 C 0.26062 0.07587 0.39915
 C1328 C 0.26433 0.06776 0.37590
 C1329 C 0.28045 0.08273 0.43912
 C1330 C 0.27908 0.09184 0.45888
 C1331 C 0.29560 0.04980 0.34510
 C1332 C 0.30137 0.04416 0.32443
 H1333 H 0.29490 0.03423 0.43001
 H1334 H 0.30179 0.01916 0.38685
 H1335 H 0.32036 0.08706 0.36245
 H1336 H 0.31352 0.10202 0.40538
 H1337 H 0.24292 0.08327 0.40607
 H1338 H 0.24982 0.06820 0.36288
 C1339 C 0.78554 0.57657 0.91325
 C1340 C 0.78436 0.54854 0.91204
 C1341 C 0.78836 0.54035 0.88884
 C1342 C 0.79314 0.56102 0.86921
 C1343 C 0.81475 0.57456 0.87837
 C1344 C 0.81077 0.58271 0.90145
 C1345 C 0.76685 0.58735 0.89494
 C1346 C 0.77085 0.57917 0.87177
 C1347 C 0.78194 0.58602 0.93796
 C1348 C 0.78032 0.59520 0.95768
 C1349 C 0.79825 0.55276 0.84419
 C1350 C 0.80420 0.54706 0.82358
 H1351 H 0.78064 0.53625 0.92795
 H1352 H 0.78808 0.52103 0.88485
 H1353 H 0.83177 0.57748 0.86765
 H1354 H 0.82438 0.59259 0.91047
 H1355 H 0.75175 0.60020 0.89977
 H1356 H 0.75918 0.58500 0.85675
 C1357 C 0.07998 0.72396 0.57820
 C1358 C 0.08175 0.72212 0.55014
 C1359 C 0.10226 0.70915 0.54182
 C1360 C 0.11895 0.69934 0.56239
 C1361 C 0.10220 0.68432 0.58028
 C1362 C 0.08172 0.69726 0.58859
 C1363 C 0.10417 0.73499 0.58460
 C1364 C 0.12463 0.72206 0.57630
 C1365 C 0.05820 0.73807 0.58753
 C1366 C 0.04104 0.75010 0.59609
 C1367 C 0.14111 0.68541 0.55370
 C1368 C 0.15941 0.67384 0.54700
 H1369 H 0.06812 0.73023 0.53790
 H1370 H 0.10620 0.70617 0.52245
 H1371 H 0.10608 0.66517 0.58589
 H1372 H 0.06805 0.68922 0.60131
 H1373 H 0.10514 0.75155 0.59475
 H1374 H 0.14311 0.72753 0.57934
 C1375 C 0.58216 0.22209 1.07832
 C1376 C 0.58356 0.22016 1.05026
 C1377 C 0.60408 0.20736 1.04170
 C1378 C 0.62114 0.19778 1.06206
 C1379 C 0.60477 0.18265 1.08022
 C1380 C 0.58429 0.19543 1.08877
 C1381 C 0.60634 0.23338 1.08433
 C1382 C 0.62680 0.22061 1.07579
 C1383 C 0.56038 0.23598 1.08796
 C1384 C 0.54323 0.24774 1.09690
 C1385 C 0.64330 0.18400 1.05316
 C1386 C 0.66162 0.17251 1.04635
 H1387 H 0.56969 0.22811 1.03821
 H1388 H 0.60779 0.20435 1.02231
 H1389 H 0.60889 0.16355 1.08584
 H1390 H 0.57086 0.18728 1.10170
 H1391 H 0.60729 0.25000 1.09439
 H1392 H 0.64528 0.22629 1.07854
 C1393 C 0.91164 0.22102 0.93361
 C1394 C 0.89752 0.23506 0.95400
 C1395 C 0.87909 0.22222 0.96561
 C1396 C 0.87661 0.19661 0.95568
 C1397 C 0.90218 0.18375 0.95780
 C1398 C 0.92062 0.19660 0.94618
 C1399 C 0.89189 0.21401 0.91639
 C1400 C 0.87350 0.20121 0.92797
 C1401 C 0.93113 0.23491 0.92065
 C1402 C 0.94637 0.24656 0.90903
 C1403 C 0.85656 0.18275 0.96768
 C1404 C 0.83971 0.17119 0.97651
 H1405 H 0.90168 0.25344 0.95891
 H1406 H 0.86745 0.22959 0.98047
 H1407 H 0.90552 0.16616 0.96759
 H1408 H 0.93975 0.19002 0.94601
 H1409 H 0.89230 0.21870 0.89677
 H1410 H 0.85818 0.19493 0.91827
 C1411 C 0.41120 0.72035 0.43573
 C1412 C 0.40934 0.69430 0.42669
 C1413 C 0.39066 0.68171 0.43808
 C1414 C 0.37565 0.69639 0.45741
 C1415 C 0.36700 0.72025 0.44364
 C1416 C 0.38567 0.73283 0.43225
 C1417 C 0.41334 0.71688 0.46371
 C1418 C 0.39461 0.70425 0.47513
 C1419 C 0.43095 0.73404 0.42296
 C1420 C 0.44630 0.74563 0.41144
 C1421 C 0.35529 0.68281 0.46918
 C1422 C 0.33819 0.67149 0.47781
 H1423 H 0.42165 0.68641 0.41262
 H1424 H 0.38697 0.66302 0.43376
 H1425 H 0.34788 0.72673 0.44293
 H1426 H 0.38253 0.75009 0.42179
 H1427 H 0.42822 0.72370 0.47365
 H1428 H 0.39344 0.70026 0.49486
 C1429 C 0.56517 0.78335 0.43535
 C1430 C 0.58785 0.76645 0.42950
 C1431 C 0.60806 0.77173 0.44181
 C1432 C 0.60356 0.79339 0.45872
 C1433 C 0.58144 0.78642 0.47576
 C1434 C 0.56123 0.78114 0.46345
 C1435 C 0.57375 0.80954 0.42973
 C1436 C 0.59386 0.81480 0.44198
 C1437 C 0.54345 0.77847 0.42175
 C1438 C 0.52571 0.77611 0.40982
 C1439 C 0.62521 0.79988 0.47160
 C1440 C 0.64276 0.80695 0.48146
 H1441 H 0.58799 0.75162 0.41690
 H1442 H 0.62552 0.76143 0.43975
 H1443 H 0.58165 0.78563 0.49569
 H1444 H 0.54414 0.77583 0.47285
 H1445 H 0.56478 0.82284 0.41720
 H1446 H 0.60211 0.83260 0.43993
 C1447 C 0.06483 0.28399 -0.06627
 C1448 C 0.08746 0.26688 -0.07168
 C1449 C 0.10752 0.27209 -0.05912
 C1450 C 0.10294 0.29389 -0.04242
 C1451 C 0.08055 0.28721 -0.02564
 C1452 C 0.06048 0.28200 -0.03820
 C1453 C 0.07367 0.31007 -0.07193
 C1454 C 0.09365 0.31526 -0.05943
 C1455 C 0.04327 0.27917 -0.08013
 C1456 C 0.02567 0.27684 -0.09226
 C1457 C 0.12445 0.30031 -0.02926
 C1458 C 0.14189 0.30731 -0.01920
 H1459 H 0.08767 0.25196 -0.08419
 H1460 H 0.12493 0.26164 -0.06087
 H1461 H 0.08048 0.28655 -0.00569
 H1462 H 0.04323 0.27688 -0.02901
 H1463 H 0.06498 0.32335 -0.08468
 H1464 H 0.10204 0.33298 -0.06148
 C1465 C 0.41408 0.28349 0.07538
 C1466 C 0.39841 0.26075 0.07899
 C1467 C 0.37513 0.26457 0.07093
 C1468 C 0.36987 0.29074 0.06008
 C1469 C 0.39006 0.29468 0.03979
 C1470 C 0.41333 0.29086 0.04785
 C1471 C 0.39905 0.30396 0.08838
 C1472 C 0.37589 0.30775 0.08036
 C1473 C 0.43889 0.28008 0.08468
 C1474 C 0.45868 0.27862 0.09376
 C1475 C 0.34476 0.29568 0.05195
 C1476 C 0.32409 0.30153 0.04633
 H1477 H 0.40504 0.24320 0.08708
 H1478 H 0.36180 0.25030 0.07210
 H1479 H 0.38639 0.29991 0.02078
 H1480 H 0.42961 0.29282 0.03575
 H1481 H 0.40602 0.31457 0.10269
 H1482 H 0.36303 0.32162 0.08782
 C1483 C 0.91492 0.78349 0.57637
 C1484 C 0.89754 0.76329 0.58567
 C1485 C 0.87419 0.76699 0.57779
 C1486 C 0.87056 0.79052 0.56140
 C1487 C 0.89021 0.78822 0.54036
 C1488 C 0.91357 0.78451 0.54825
 C1489 C 0.90210 0.80760 0.58452
 C1490 C 0.87886 0.81128 0.57667
 C1491 C 0.93986 0.78026 0.58539
 C1492 C 0.95988 0.77907 0.59399
 C1493 C 0.84539 0.79536 0.55337
 C1494 C 0.82473 0.80119 0.54769
 H1495 H 0.90311 0.74746 0.59734
 H1496 H 0.85974 0.75434 0.58269
 H1497 H 0.88613 0.78931 0.52102
 H1498 H 0.92950 0.78243 0.53567
 H1499 H 0.91056 0.82068 0.59552
 H1500 H 0.86743 0.82752 0.58097
   
