data_POSCAR
  _audit_creation_date              2014-09-24
  _audit_creation_method            'ToBaCCo'
  _symmetry_space_group_name_H-M    'P1'
  _symmetry_Int_Tables_number       1
  _symmetry_cell_setting            triclinic
  loop_
  _symmetry_equiv_pos_as_xyz
 x,y,z
_cell_length_a 52.6027
_cell_length_b 53.2624
_cell_length_c 45.8047
_cell_angle_alpha 90.116500
_cell_angle_beta 90.137700
_cell_angle_gamma 90.060400
loop_
  _atom_site_label
  _atom_site_type_symbol
  _atom_site_fract_x
  _atom_site_fract_y
  _atom_site_fract_z
C1 C 1.27039 0.22371 0.26418
 C2 C 1.25178 0.23689 0.24871
 C3 C 1.23272 0.22386 0.23371
 C4 C 1.23205 0.19750 0.23410
 C5 C 1.25048 0.18445 0.25050
 C6 C 1.27000 0.19724 0.26582
 C7 C 1.25224 0.26451 0.24889
 C8 C 1.27202 0.27747 0.23508
 C9 C 1.27416 0.30382 0.23742
 C10 C 1.25584 0.31669 0.25427
 C11 C 1.23580 0.30386 0.26796
 C12 C 1.23407 0.27772 0.26497
 H13 H 1.28543 0.23453 0.27432
 H14 H 1.21887 0.23436 0.22119
 H15 H 1.28631 0.26661 0.22371
 H16 H 1.21884 0.26751 0.27556
 H17 H 1.24859 0.16432 0.25233
 H18 H 1.25660 0.33691 0.25631
 C19 C 0.76637 -0.27840 0.26783
 C20 C 0.74798 -0.26563 0.25142
 C21 C 0.72830 -0.27896 0.23785
 C22 C 0.72683 -0.30513 0.24045
 C23 C 0.74491 -0.31770 0.25765
 C24 C 0.76492 -0.30467 0.27171
 C25 C 0.74849 -0.23804 0.24975
 C26 C 0.76691 -0.22573 0.23303
 C27 C 0.76723 -0.19935 0.23127
 C28 C 0.74887 -0.18558 0.24690
 C29 C 0.73030 -0.19777 0.26383
 C30 C 0.73031 -0.22411 0.26500
 H31 H 0.78074 -0.26738 0.27895
 H32 H 0.71446 -0.26889 0.22481
 H33 H 0.78051 -0.23682 0.22086
 H34 H 0.71654 -0.23393 0.27833
 H35 H 0.74363 -0.33791 0.25922
 H36 H 0.74900 -0.16528 0.24589
 C37 C 0.76725 0.22678 -0.23366
 C38 C 0.74872 0.23881 -0.25058
 C39 C 0.73066 0.22460 -0.26582
 C40 C 0.73084 0.19828 -0.26442
 C41 C 0.74949 0.18637 -0.24729
 C42 C 0.76775 0.20042 -0.23167
 C43 C 0.74799 0.26637 -0.25257
 C44 C 0.76601 0.27915 -0.26942
 C45 C 0.76410 0.30531 -0.27393
 C46 C 0.74405 0.31827 -0.26004
 C47 C 0.72638 0.30572 -0.24231
 C48 C 0.72828 0.27962 -0.23910
 H49 H 0.78080 0.23806 -0.22154
 H50 H 0.71682 0.23421 -0.27932
 H51 H 0.78042 0.26819 -0.28045
 H52 H 0.71472 0.26955 -0.22573
 H53 H 0.74978 0.16609 -0.24609
 H54 H 0.74244 0.33842 -0.26216
 C55 C 1.27359 -0.27947 -0.23488
 C56 C 1.25239 -0.26640 -0.24550
 C57 C 1.23223 -0.27955 -0.25839
 C58 C 1.23365 -0.30565 -0.26244
 C59 C 1.25525 -0.31844 -0.25208
 C60 C 1.27512 -0.30586 -0.23723
 C61 C 1.25205 -0.23872 -0.24498
 C62 C 1.27078 -0.22545 -0.26017
 C63 C 1.26993 -0.19916 -0.26207
 C64 C 1.25037 -0.18623 -0.24753
 C65 C 1.23190 -0.19923 -0.23121
 C66 C 1.23272 -0.22563 -0.23050
 H67 H 1.28816 -0.26875 -0.22378
 H68 H 1.21580 -0.26917 -0.26594
 H69 H 1.28584 -0.23579 -0.27090
 H70 H 1.21876 -0.23611 -0.21816
 H71 H 1.25715 -0.33816 -0.25714
 H72 H 1.24915 -0.16602 -0.24951
 C73 C 0.22305 0.26874 0.73607
 C74 C 0.23632 0.25067 0.75207
 C75 C 0.22299 0.23295 0.76867
 C76 C 0.19612 0.23324 0.76987
 C77 C 0.18321 0.25188 0.75360
 C78 C 0.19642 0.26947 0.73651
 C79 C 0.26433 0.25048 0.75124
 C80 C 0.27799 0.27019 0.76419
 C81 C 0.30483 0.27093 0.76320
 C82 C 0.31739 0.25139 0.74806
 C83 C 0.30384 0.23161 0.73483
 C84 C 0.27724 0.23118 0.73683
 H85 H 0.23364 0.28187 0.72275
 H86 H 0.23386 0.21867 0.77988
 H87 H 0.26731 0.28420 0.77608
 H88 H 0.26650 0.21603 0.72688
 H89 H 0.16281 0.25376 0.75528
 H90 H 0.33773 0.25209 0.74487
 C91 C 0.72094 0.76541 0.73363
 C92 C 0.73453 0.74763 0.74979
 C93 C 0.72172 0.72786 0.76339
 C94 C 0.69517 0.72526 0.76085
 C95 C 0.68185 0.74307 0.74390
 C96 C 0.69437 0.76328 0.72999
 C97 C 0.76253 0.74804 0.74985
 C98 C 0.77601 0.76643 0.76540
 C99 C 0.80275 0.76623 0.76573
 C100 C 0.81574 0.74793 0.74935
 C101 C 0.80238 0.72953 0.73343
 C102 C 0.77571 0.72957 0.73429
 H103 H 0.73163 0.77974 0.72228
 H104 H 0.73293 0.71388 0.77473
 H105 H 0.76564 0.78031 0.77792
 H106 H 0.76500 0.71520 0.72283
 H107 H 0.66133 0.74234 0.74347
 H108 H 0.83630 0.74840 0.74852
 C109 C 0.71994 0.27022 0.23660
 C110 C 0.73389 0.25097 0.24988
 C111 C 0.72123 0.23212 0.26545
 C112 C 0.69462 0.23264 0.26827
 C113 C 0.68088 0.25210 0.25481
 C114 C 0.69331 0.27088 0.23870
 C115 C 0.76186 0.25126 0.24829
 C116 C 0.77541 0.27037 0.26250
 C117 C 0.80206 0.27136 0.26105
 C118 C 0.81494 0.25305 0.24459
 C119 C 0.80161 0.23366 0.23032
 C120 C 0.77496 0.23283 0.23246
 H121 H 0.72993 0.28442 0.22418
 H122 H 0.73216 0.21725 0.27558
 H123 H 0.76507 0.28408 0.27531
 H124 H 0.76435 0.21795 0.22180
 H125 H 0.66046 0.25302 0.25760
 H126 H 0.83539 0.25419 0.24235
 C127 C 0.22249 0.76597 0.23009
 C128 C 0.23598 0.74813 0.24623
 C129 C 0.22301 0.72922 0.26115
 C130 C 0.19627 0.72766 0.26043
 C131 C 0.18301 0.74545 0.24328
 C132 C 0.19574 0.76471 0.22782
 C133 C 0.26398 0.74851 0.24707
 C134 C 0.27694 0.76673 0.26347
 C135 C 0.30354 0.76570 0.26635
 C136 C 0.31698 0.74654 0.25193
 C137 C 0.30423 0.72837 0.23505
 C138 C 0.27761 0.72947 0.23294
 H139 H 0.23325 0.77978 0.21798
 H140 H 0.23418 0.71661 0.27447
 H141 H 0.26620 0.78102 0.27493
 H142 H 0.26736 0.71568 0.22008
 H143 H 0.16258 0.74439 0.24200
 H144 H 0.33747 0.74567 0.25407
 N145 N 1.04395 0.02609 0.03151
 N146 N 1.06169 0.04285 0.03755
 N147 N 1.02624 -0.02685 0.05123
 N148 N 1.03120 -0.04413 0.07106
 N149 N 1.04384 -0.02675 0.03095
 N150 N 1.06118 -0.04404 0.03640
 N151 N 1.02654 0.02582 0.05202
 N152 N 1.03216 0.04224 0.07271
 C153 C 1.05397 0.05298 0.06315
 C154 C 1.05294 -0.05490 0.06138
 N155 N 0.95401 -0.02676 0.03018
 N156 N 0.93631 -0.04370 0.03552
 N157 N 0.97155 0.02598 0.05158
 N158 N 0.96657 0.04310 0.07166
 N159 N 0.95397 0.02606 0.03118
 N160 N 0.93661 0.04327 0.03681
 N161 N 0.97127 -0.02673 0.05095
 N162 N 0.96560 -0.04350 0.07112
 Mn163 Mn 0.99890 -0.00044 0.05173
 C164 C 0.94391 -0.05420 0.06097
 C165 C 0.94481 0.05391 0.06201
 N166 N 1.04395 -0.02621 -0.03196
 N167 N 1.06154 -0.04313 -0.03771
 N168 N 1.02658 0.02696 -0.05173
 N169 N 1.03161 0.04442 -0.07131
 N170 N 1.04420 0.02660 -0.03139
 N171 N 1.06170 0.04379 -0.03662
 N172 N 1.02671 -0.02577 -0.05273
 N173 N 1.03229 -0.04227 -0.07332
 Mn174 Mn 1.04421 -0.00008 -0.00022
 C175 C 1.05391 -0.05320 -0.06343
 C176 C 1.05349 0.05493 -0.06146
 N177 N 0.95421 0.02677 -0.03167
 N178 N 0.93671 0.04388 -0.03698
 N179 N 0.97177 -0.02584 -0.05299
 N180 N 0.96685 -0.04282 -0.07328
 N181 N 0.95412 -0.02607 -0.03278
 N182 N 0.93674 -0.04324 -0.03877
 N183 N 0.97160 0.02685 -0.05219
 N184 N 0.96619 0.04387 -0.07221
 Mn185 Mn 0.95385 -0.00001 -0.00078
 Mn186 Mn 0.99917 0.00056 -0.05270
 Cl187 Cl 0.99903 0.00001 -0.00049
 C188 C 0.94453 0.05459 -0.06218
 C189 C 0.94504 -0.05370 -0.06399
 N190 N 0.97178 0.47298 0.54871
 N191 N 0.95415 0.46810 0.56835
 N192 N 1.02523 0.45406 0.53019
 N193 N 1.04168 0.43614 0.53632
 N194 N 1.02500 0.47108 0.55098
 N195 N 1.04117 0.46506 0.57191
 N196 N 0.97180 0.45573 0.52820
 N197 N 0.95403 0.43877 0.53321
 C198 C 0.94300 0.44687 0.55819
 C199 C 1.05168 0.44337 0.56227
 N200 N 1.02788 0.47186 0.44713
 N201 N 1.04587 0.46682 0.42800
 N202 N 0.97344 0.45616 0.46552
 N203 N 0.95605 0.43920 0.45899
 N204 N 0.97460 0.47345 0.44517
 N205 N 0.95819 0.46848 0.42404
 N206 N 1.02686 0.45438 0.46725
 N207 N 1.04415 0.43693 0.46232
 Mn208 Mn 0.99935 0.45485 0.49779
 C209 C 1.05601 0.44507 0.43787
 C210 C 0.94648 0.44725 0.43322
 N211 N 1.02693 0.52527 0.55169
 N212 N 1.04292 0.53011 0.57321
 N213 N 0.97539 0.54475 0.52926
 N214 N 0.95967 0.56335 0.53511
 N215 N 0.97375 0.52721 0.54928
 N216 N 0.95683 0.53346 0.56927
 N217 N 1.02875 0.54240 0.53120
 N218 N 1.04631 0.55914 0.53806
 Mn219 Mn 0.99932 0.49913 0.55042
 C220 C 1.05515 0.55105 0.56416
 C221 C 0.94795 0.55593 0.55991
 N222 N 0.97659 0.52772 0.44596
 N223 N 0.95945 0.53313 0.42586
 N224 N 1.03029 0.54291 0.46830
 N225 N 1.04731 0.56040 0.46250
 N226 N 1.02985 0.52589 0.44752
 N227 N 1.04650 0.53147 0.42699
 N228 N 0.97690 0.54500 0.46645
 N229 N 0.95989 0.56255 0.46092
 Mn230 Mn 1.00220 0.49973 0.44617
 Mn231 Mn 1.00288 0.54397 0.49880
 Cl232 Cl 1.00094 0.49943 0.49830
 C233 C 0.94903 0.55483 0.43561
 C234 C 1.05756 0.55284 0.43687
 N235 N 0.54460 0.02458 0.53254
 N236 N 0.56254 0.04109 0.53870
 N237 N 0.52664 -0.02836 0.55202
 N238 N 0.53149 -0.04579 0.57169
 N239 N 0.54422 -0.02825 0.53171
 N240 N 0.56145 -0.04568 0.53700
 N241 N 0.52728 0.02428 0.55313
 N242 N 0.53314 0.04044 0.57400
 C243 C 0.55501 0.05106 0.56447
 C244 C 0.55314 -0.05662 0.56190
 N245 N 0.45415 -0.02748 0.53175
 N246 N 0.43578 -0.04346 0.53785
 N247 N 0.47234 0.02480 0.55310
 N248 N 0.46752 0.04168 0.57349
 N249 N 0.45467 0.02520 0.53280
 N250 N 0.43737 0.04236 0.53886
 N251 N 0.47176 -0.02796 0.55211
 N252 N 0.46580 -0.04439 0.57257
 Mn253 Mn 0.49951 -0.00182 0.55286
 C254 C 0.44343 -0.05416 0.56315
 C255 C 0.44576 0.05267 0.56418
 N256 N 0.54402 -0.02746 0.46883
 N257 N 0.56180 -0.04401 0.46246
 N258 N 0.52677 0.02575 0.44941
 N259 N 0.53179 0.04309 0.42971
 N260 N 0.54451 0.02534 0.46962
 N261 N 0.56207 0.04244 0.46418
 N262 N 0.52659 -0.02692 0.44826
 N263 N 0.53224 -0.04295 0.42721
 Mn264 Mn 0.54457 -0.00145 0.50068
 C265 C 0.55407 -0.05376 0.43662
 C266 C 0.55376 0.05354 0.43934
 N267 N 0.45445 0.02587 0.46987
 N268 N 0.43637 0.04221 0.46389
 N269 N 0.47164 -0.02670 0.44849
 N270 N 0.46655 -0.04366 0.42825
 N271 N 0.45406 -0.02682 0.46879
 N272 N 0.43655 -0.04387 0.46289
 N273 N 0.47191 0.02604 0.44943
 N274 N 0.46610 0.04255 0.42899
 Mn275 Mn 0.45413 -0.00080 0.50080
 Mn276 Mn 0.49922 -0.00045 0.44863
 Cl277 Cl 0.49936 -0.00113 0.50074
 C278 C 0.44403 0.05274 0.43853
 C279 C 0.44470 -0.05440 0.43764
 N280 N 0.54602 0.52653 -0.03028
 N281 N 0.56350 0.53161 -0.05011
 N282 N 0.52780 0.54341 0.03115
 N283 N 0.53272 0.56038 0.05144
 N284 N 0.54532 0.52587 0.03109
 N285 N 0.56261 0.53043 0.05132
 N286 N 0.52845 0.54402 -0.03010
 N287 N 0.53348 0.56142 -0.04965
 C288 C 0.55526 0.55337 -0.06219
 C289 C 0.55438 0.55189 0.06406
 N290 N 0.45505 0.52683 0.02941
 N291 N 0.43736 0.53209 0.04893
 N292 N 0.47379 0.54447 -0.03128
 N293 N 0.46965 0.56157 -0.05155
 N294 N 0.45602 0.52716 -0.03198
 N295 N 0.43933 0.53199 -0.05274
 N296 N 0.47307 0.54389 0.03000
 N297 N 0.46817 0.56115 0.04984
 Mn298 Mn 0.50078 0.54417 -0.00004
 C299 C 0.44598 0.55346 0.06173
 C300 C 0.44818 0.55342 -0.06494
 N301 N 0.54482 0.47173 0.03040
 N302 N 0.56190 0.46632 0.05063
 N303 N 0.52770 0.45505 -0.03150
 N304 N 0.53260 0.43816 -0.05186
 N305 N 0.54548 0.47237 -0.03094
 N306 N 0.56293 0.46773 -0.05084
 N307 N 0.52686 0.45459 0.02981
 N308 N 0.53123 0.43712 0.04953
 Mn309 Mn 0.54568 0.49912 0.00006
 C310 C 0.55302 0.44477 0.06258
 C311 C 0.55455 0.44645 -0.06393
 N312 N 0.45535 0.47297 -0.03271
 N313 N 0.43801 0.46796 -0.05282
 N314 N 0.47208 0.45512 0.02886
 N315 N 0.46678 0.43799 0.04874
 N316 N 0.45455 0.47265 0.02855
 N317 N 0.43682 0.46788 0.04807
 N318 N 0.47297 0.45553 -0.03250
 N319 N 0.46816 0.43830 -0.05247
 Mn320 Mn 0.45497 0.49991 -0.00170
 Mn321 Mn 0.49990 0.45484 -0.00132
 Cl322 Cl 0.50033 0.49950 -0.00074
 C323 C 0.44644 0.44639 -0.06521
 C324 C 0.44481 0.44633 0.06072
 C325 C 1.17548 0.15746 0.18351
 C326 C 1.20020 0.14783 0.18686
 C327 C 1.21841 0.16077 0.20326
 C328 C 1.21233 0.18353 0.21718
 C329 C 1.18748 0.19297 0.21428
 C330 C 1.16933 0.18017 0.19754
 C331 C 1.15638 0.14395 0.16522
 C332 C 1.13050 0.14359 0.17295
 C333 C 1.11275 0.13056 0.15587
 C334 C 1.12044 0.11734 0.13078
 C335 C 1.14630 0.11781 0.12304
 C336 C 1.16395 0.13107 0.13987
 C337 C 1.10187 0.10254 0.11311
 C338 C 1.10481 0.10031 0.08268
 C339 C 1.08882 0.08466 0.06640
 C340 C 1.06923 0.07123 0.08004
 C341 C 1.06545 0.07425 0.11016
 C342 C 1.08171 0.08960 0.12657
 H343 H 1.20554 0.13018 0.17687
 H344 H 1.23741 0.15307 0.20463
 H345 H 1.18197 0.21024 0.22502
 H346 H 1.15059 0.18831 0.19524
 H347 H 1.12398 0.15305 0.19247
 H348 H 1.09298 0.13090 0.16234
 H349 H 1.15309 0.10754 0.10420
 H350 H 1.18359 0.13127 0.13287
 H351 H 1.11964 0.11047 0.07139
 H352 H 1.09197 0.08287 0.04312
 H353 H 1.05054 0.06400 0.12123
 H354 H 1.07901 0.09057 0.14996
 C355 C 1.17696 0.65284 0.68851
 C356 C 1.18140 0.67844 0.68282
 C357 C 1.19957 0.69192 0.69874
 C358 C 1.21330 0.68044 0.72147
 C359 C 1.20806 0.65516 0.72798
 C360 C 1.19054 0.64146 0.71144
 C361 C 1.15874 0.63795 0.67031
 C362 C 1.14590 0.61708 0.68200
 C363 C 1.12974 0.60251 0.66465
 C364 C 1.12512 0.60884 0.63529
 C365 C 1.13751 0.63005 0.62378
 C366 C 1.15435 0.64412 0.64086
 C367 C 1.10743 0.59351 0.61689
 C368 C 1.11062 0.59190 0.58637
 C369 C 1.09355 0.57818 0.56917
 C370 C 1.07350 0.56504 0.58216
 C371 C 1.07051 0.56600 0.61251
 C372 C 1.08698 0.58041 0.62964
 H373 H 1.17097 0.68821 0.66594
 H374 H 1.20315 0.71121 0.69266
 H375 H 1.21765 0.64571 0.74576
 H376 H 1.18817 0.62176 0.71642
 H377 H 1.14817 0.61188 0.70466
 H378 H 1.12111 0.58612 0.67439
 H379 H 1.13418 0.63603 0.60155
 H380 H 1.16413 0.65965 0.63066
 H381 H 1.12640 0.60104 0.57564
 H382 H 1.09623 0.57752 0.54573
 H383 H 1.05489 0.55625 0.62291
 H384 H 1.08325 0.58160 0.65281
 C385 C 0.67578 0.15575 0.68566
 C386 C 0.66897 0.17852 0.69910
 C387 C 0.68666 0.19204 0.71565
 C388 C 0.71175 0.18334 0.71889
 C389 C 0.71853 0.16050 0.70560
 C390 C 0.70074 0.14681 0.68939
 C391 C 0.65709 0.14155 0.66756
 C392 C 0.66502 0.12850 0.64248
 C393 C 0.64761 0.11499 0.62557
 C394 C 0.62168 0.11446 0.63298
 C395 C 0.61367 0.12773 0.65789
 C396 C 0.63117 0.14098 0.67505
 C397 C 0.60328 0.09967 0.61509
 C398 C 0.58294 0.08685 0.62833
 C399 C 0.56661 0.07178 0.61169
 C400 C 0.57050 0.06892 0.58158
 C401 C 0.59035 0.08216 0.56817
 C402 C 0.60642 0.09754 0.58468
 H403 H 0.65005 0.18618 0.69647
 H404 H 0.68061 0.20934 0.72595
 H405 H 0.73773 0.15335 0.70728
 H406 H 0.70659 0.12914 0.67983
 H407 H 0.68471 0.12883 0.63570
 H408 H 0.65461 0.10467 0.60688
 H409 H 0.59384 0.12802 0.66411
 H410 H 0.62438 0.15052 0.69439
 H411 H 0.58010 0.08773 0.65170
 H412 H 0.55151 0.06165 0.62258
 H413 H 0.59360 0.08046 0.54491
 H414 H 0.62143 0.10762 0.57359
 C415 C 0.66872 0.65253 0.19562
 C416 C 0.66286 0.67575 0.20856
 C417 C 0.68167 0.68954 0.22315
 C418 C 0.70672 0.68045 0.22488
 C419 C 0.71255 0.65736 0.21158
 C420 C 0.69375 0.64352 0.19726
 C421 C 0.64906 0.63782 0.17991
 C422 C 0.64743 0.61172 0.18377
 C423 C 0.63028 0.59749 0.16733
 C424 C 0.61451 0.60901 0.14649
 C425 C 0.61558 0.63526 0.14333
 C426 C 0.63263 0.64953 0.15996
 C427 C 0.59813 0.59359 0.12697
 C428 C 0.57393 0.60203 0.11837
 C429 C 0.55938 0.58819 0.09842
 C430 C 0.56874 0.56563 0.08675
 C431 C 0.59259 0.55684 0.09593
 C432 C 0.60715 0.57069 0.11574
 H433 H 0.64366 0.68303 0.20773
 H434 H 0.67651 0.70712 0.23344
 H435 H 0.73177 0.65011 0.21186
 H436 H 0.69890 0.62593 0.18696
 H437 H 0.65960 0.60229 0.19938
 H438 H 0.62956 0.57739 0.17073
 H439 H 0.60394 0.64470 0.12722
 H440 H 0.63367 0.66960 0.15639
 H441 H 0.56628 0.61941 0.12694
 H442 H 0.54098 0.59534 0.09182
 H443 H 0.60032 0.53954 0.08723
 H444 H 0.62586 0.56383 0.12151
 C445 C 0.82288 -0.16100 0.17806
 C446 C 0.79794 -0.15175 0.18061
 C447 C 0.77994 -0.16428 0.19757
 C448 C 0.78644 -0.18620 0.21292
 C449 C 0.81142 -0.19540 0.21053
 C450 C 0.82935 -0.18305 0.19320
 C451 C 0.84197 -0.14755 0.15981
 C452 C 0.86772 -0.14654 0.16814
 C453 C 0.88541 -0.13327 0.15141
 C454 C 0.87778 -0.12037 0.12608
 C455 C 0.85208 -0.12161 0.11764
 C456 C 0.83450 -0.13517 0.13411
 C457 C 0.89623 -0.10502 0.10901
 C458 C 0.89365 -0.10258 0.07854
 C459 C 0.90953 -0.08647 0.06288
 C460 C 0.92868 -0.07281 0.07718
 C461 C 0.93211 -0.07599 0.10733
 C462 C 0.91593 -0.09176 0.12313
 H463 H 0.79229 -0.13461 0.16973
 H464 H 0.76081 -0.15684 0.19841
 H465 H 0.81724 -0.21204 0.22230
 H466 H 0.84824 -0.19095 0.19150
 H467 H 0.87419 -0.15559 0.18794
 H468 H 0.90508 -0.13310 0.15840
 H469 H 0.84531 -0.11164 0.09859
 H470 H 0.81498 -0.13588 0.12662
 H471 H 0.87920 -0.11295 0.06674
 H472 H 0.90667 -0.08454 0.03956
 H473 H 0.94666 -0.06555 0.11891
 H474 H 0.91834 -0.09281 0.14656
 C475 C 0.81675 0.34486 0.67269
 C476 C 0.79160 0.35316 0.67529
 C477 C 0.77434 0.34020 0.69277
 C478 C 0.78162 0.31826 0.70796
 C479 C 0.80690 0.30977 0.70462
 C480 C 0.82425 0.32305 0.68746
 C481 C 0.83519 0.35931 0.65506
 C482 C 0.85916 0.36543 0.66658
 C483 C 0.87617 0.38001 0.65048
 C484 C 0.86964 0.38844 0.62241
 C485 C 0.84583 0.38195 0.61068
 C486 C 0.82868 0.36767 0.62695
 C487 C 0.88764 0.40403 0.60551
 C488 C 0.89289 0.39835 0.57619
 C489 C 0.91067 0.41251 0.56063
 C490 C 0.92321 0.43279 0.57402
 C491 C 0.91745 0.43886 0.60311
 C492 C 0.89996 0.42450 0.61877
 H493 H 0.78536 0.36995 0.66408
 H494 H 0.75501 0.34709 0.69335
 H495 H 0.81386 0.29351 0.71627
 H496 H 0.84359 0.31627 0.68573
 H497 H 0.86453 0.35936 0.68829
 H498 H 0.89452 0.38459 0.65988
 H499 H 0.84034 0.38832 0.58913
 H500 H 0.81034 0.36305 0.61756
 H501 H 0.88371 0.38258 0.56555
 H502 H 0.91475 0.40746 0.53822
 H503 H 0.92686 0.45440 0.61396
 H504 H 0.89600 0.42941 0.64127
 C505 C 0.32543 -0.15938 0.68618
 C506 C 0.31625 -0.18300 0.67731
 C507 C 0.29821 -0.19574 0.69398
 C508 C 0.28911 -0.18541 0.72023
 C509 C 0.29846 -0.16191 0.72929
 C510 C 0.31630 -0.14900 0.71241
 C511 C 0.34406 -0.14549 0.66786
 C512 C 0.36323 -0.13071 0.68072
 C513 C 0.38022 -0.11713 0.66340
 C514 C 0.37861 -0.11817 0.63277
 C515 C 0.35977 -0.13338 0.61993
 C516 C 0.34263 -0.14670 0.63722
 C517 C 0.39583 -0.10278 0.61426
 C518 C 0.38665 -0.09160 0.58853
 C519 C 0.40239 -0.07642 0.57158
 C520 C 0.42760 -0.07176 0.58011
 C521 C 0.43700 -0.08311 0.60557
 C522 C 0.42131 -0.09857 0.62241
 H523 H 0.32309 -0.19177 0.65750
 H524 H 0.29117 -0.21360 0.68603
 H525 H 0.29212 -0.15352 0.74955
 H526 H 0.32266 -0.13070 0.71974
 H527 H 0.36517 -0.12962 0.70422
 H528 H 0.39428 -0.10540 0.67406
 H529 H 0.35819 -0.13497 0.59643
 H530 H 0.32794 -0.15760 0.62649
 H531 H 0.36705 -0.09400 0.58182
 H532 H 0.39457 -0.06778 0.55215
 H533 H 0.45642 -0.07991 0.61256
 H534 H 0.42914 -0.10721 0.64182
 C535 C 0.33226 0.34468 0.19347
 C536 C 0.32247 0.35329 0.22016
 C537 C 0.30358 0.33983 0.23471
 C538 C 0.29408 0.31702 0.22328
 C539 C 0.30472 0.30802 0.19699
 C540 C 0.32330 0.32175 0.18223
 C541 C 0.35094 0.36002 0.17687
 C542 C 0.37002 0.34854 0.16004
 C543 C 0.38641 0.36298 0.14293
 C544 C 0.38431 0.38930 0.14245
 C545 C 0.36581 0.40081 0.16006
 C546 C 0.34923 0.38637 0.17686
 C547 C 0.40048 0.40461 0.12268
 C548 C 0.39031 0.42578 0.10855
 C549 C 0.40498 0.43964 0.08902
 C550 C 0.43006 0.43249 0.08283
 C551 C 0.44044 0.41157 0.09710
 C552 C 0.42584 0.39783 0.11695
 H553 H 0.32948 0.37046 0.22998
 H554 H 0.29715 0.34709 0.25549
 H555 H 0.29774 0.29107 0.18665
 H556 H 0.32999 0.31476 0.16141
 H557 H 0.37220 0.32833 0.15989
 H558 H 0.40024 0.35343 0.12944
 H559 H 0.36393 0.42104 0.16068
 H560 H 0.33462 0.39591 0.18922
 H561 H 0.37073 0.43129 0.11192
 H562 H 0.39643 0.45561 0.07819
 H563 H 0.45981 0.40576 0.09282
 H564 H 0.43443 0.38190 0.12779
 C565 C 0.82371 0.16255 -0.17824
 C566 C 0.79876 0.15324 -0.18066
 C567 C 0.78065 0.16565 -0.19765
 C568 C 0.78705 0.18752 -0.21314
 C569 C 0.81202 0.19683 -0.21083
 C570 C 0.83008 0.18458 -0.19348
 C571 C 0.84293 0.14915 -0.16006
 C572 C 0.86860 0.14806 -0.16856
 C573 C 0.88636 0.13469 -0.15196
 C574 C 0.87888 0.12179 -0.12660
 C575 C 0.85326 0.12315 -0.11798
 C576 C 0.83562 0.13680 -0.13430
 C577 C 0.89734 0.10627 -0.10971
 C578 C 0.89497 0.10374 -0.07925
 C579 C 0.91072 0.08737 -0.06376
 C580 C 0.92956 0.07353 -0.07823
 C581 C 0.93285 0.07684 -0.10836
 C582 C 0.91677 0.09287 -0.12400
 H583 H 0.79319 0.13612 -0.16971
 H584 H 0.76154 0.15814 -0.19842
 H585 H 0.81775 0.21344 -0.22269
 H586 H 0.84898 0.19252 -0.19188
 H587 H 0.87493 0.15709 -0.18840
 H588 H 0.90596 0.13442 -0.15909
 H589 H 0.84659 0.11319 -0.09890
 H590 H 0.81618 0.13758 -0.12669
 H591 H 0.88075 0.11422 -0.06732
 H592 H 0.90799 0.08535 -0.04045
 H593 H 0.94716 0.06626 -0.12006
 H594 H 0.91902 0.09400 -0.14743
 C595 C 0.81901 0.65520 0.32299
 C596 C 0.79397 0.64648 0.32009
 C597 C 0.77624 0.65970 0.30348
 C598 C 0.78288 0.68229 0.28926
 C599 C 0.80797 0.69129 0.29296
 C600 C 0.82576 0.67786 0.30943
 C601 C 0.83801 0.64047 0.33982
 C602 C 0.85622 0.65255 0.35744
 C603 C 0.87403 0.63857 0.37322
 C604 C 0.87398 0.61219 0.37181
 C605 C 0.85573 0.60014 0.35424
 C606 C 0.83804 0.61410 0.33837
 C607 C 0.89297 0.59727 0.38842
 C608 C 0.90382 0.57559 0.37610
 C609 C 0.92177 0.56161 0.39161
 C610 C 0.92940 0.56911 0.41968
 C611 C 0.91855 0.59069 0.43211
 C612 C 0.90047 0.60459 0.41668
 H613 H 0.78791 0.62950 0.33102
 H614 H 0.75703 0.65246 0.30290
 H615 H 0.81450 0.70805 0.28198
 H616 H 0.84503 0.68491 0.31085
 H617 H 0.85656 0.67282 0.35928
 H618 H 0.88803 0.64845 0.38626
 H619 H 0.85495 0.57986 0.35293
 H620 H 0.82451 0.60420 0.32470
 H621 H 0.89877 0.56963 0.35423
 H622 H 0.92993 0.54513 0.38143
 H623 H 0.92402 0.59683 0.45379
 H624 H 0.89219 0.62095 0.42699
 C625 C 0.32542 0.15777 0.31624
 C626 C 0.31282 0.14587 0.29297
 C627 C 0.29472 0.15874 0.27637
 C628 C 0.28852 0.18403 0.28255
 C629 C 0.30139 0.19575 0.30608
 C630 C 0.31954 0.18288 0.32248
 C631 C 0.34428 0.14396 0.33430
 C632 C 0.34538 0.14773 0.36467
 C633 C 0.36273 0.13445 0.38180
 C634 C 0.37929 0.11690 0.36905
 C635 C 0.37842 0.11333 0.33864
 C636 C 0.36115 0.12674 0.32146
 C637 C 0.39666 0.10170 0.38754
 C638 C 0.42126 0.09551 0.37794
 C639 C 0.43698 0.08007 0.39480
 C640 C 0.42842 0.07060 0.42162
 C641 C 0.40413 0.07728 0.43157
 C642 C 0.38840 0.09257 0.41469
 H643 H 0.31677 0.12644 0.28769
 H644 H 0.28639 0.14882 0.25809
 H645 H 0.29695 0.21466 0.31296
 H646 H 0.32901 0.19269 0.34015
 H647 H 0.33249 0.16063 0.37534
 H648 H 0.36312 0.13790 0.40510
 H649 H 0.39070 0.09976 0.32815
 H650 H 0.36104 0.12364 0.29810
 H651 H 0.42834 0.10255 0.35734
 H652 H 0.45567 0.07528 0.38667
 H653 H 0.39699 0.07018 0.45212
 H654 H 0.36945 0.09663 0.42257
 C655 C 0.33606 0.65323 -0.19828
 C656 C 0.31253 0.64174 -0.20366
 C657 C 0.29274 0.65506 -0.21666
 C658 C 0.29577 0.68047 -0.22489
 C659 C 0.31971 0.69178 -0.21967
 C660 C 0.33949 0.67835 -0.20653
 C661 C 0.35638 0.63920 -0.18287
 C662 C 0.37029 0.65062 -0.16023
 C663 C 0.38742 0.63660 -0.14355
 C664 C 0.39100 0.61090 -0.14920
 C665 C 0.37792 0.59978 -0.17269
 C666 C 0.36079 0.61378 -0.18933
 C667 C 0.40690 0.59540 -0.12943
 C668 C 0.39838 0.57159 -0.12054
 C669 C 0.41216 0.55770 -0.10013
 C670 C 0.43476 0.56731 -0.08818
 C671 C 0.44373 0.59076 -0.09765
 C672 C 0.42990 0.60470 -0.11805
 H673 H 0.30908 0.62258 -0.19683
 H674 H 0.27467 0.64551 -0.21866
 H675 H 0.32374 0.71080 -0.22644
 H676 H 0.35760 0.68758 -0.20301
 H677 H 0.36709 0.67010 -0.15454
 H678 H 0.39700 0.64563 -0.12539
 H679 H 0.38065 0.58013 -0.17790
 H680 H 0.35067 0.60461 -0.20700
 H681 H 0.38056 0.56405 -0.12859
 H682 H 0.40480 0.53968 -0.09322
 H683 H 0.46117 0.59856 -0.08886
 H684 H 0.43707 0.62286 -0.12475
 C685 C 1.17516 -0.15894 -0.18159
 C686 C 1.16907 -0.18180 -0.19538
 C687 C 1.18728 -0.19470 -0.21180
 C688 C 1.21212 -0.18519 -0.21463
 C689 C 1.21813 -0.16227 -0.20097
 C690 C 1.19987 -0.14925 -0.18488
 C691 C 1.15603 -0.14531 -0.16360
 C692 C 1.16358 -0.13227 -0.13830
 C693 C 1.14592 -0.11885 -0.12179
 C694 C 1.12010 -0.11838 -0.12980
 C695 C 1.11243 -0.13177 -0.15483
 C696 C 1.13019 -0.14498 -0.17159
 C697 C 1.10155 -0.10339 -0.11246
 C698 C 1.08156 -0.09040 -0.12626
 C699 C 1.06537 -0.07484 -0.11015
 C700 C 1.06905 -0.07166 -0.08001
 C701 C 1.08845 -0.08516 -0.06604
 C702 C 1.10436 -0.10101 -0.08201
 H703 H 1.15033 -0.18997 -0.19312
 H704 H 1.18183 -0.21210 -0.22235
 H705 H 1.23711 -0.15450 -0.20229
 H706 H 1.20517 -0.13149 -0.17507
 H707 H 1.18320 -0.13244 -0.13113
 H708 H 1.15269 -0.10846 -0.10298
 H709 H 1.09268 -0.13210 -0.16149
 H710 H 1.12370 -0.15459 -0.19108
 H711 H 1.07896 -0.09150 -0.14967
 H712 H 1.05061 -0.06454 -0.12147
 H713 H 1.09151 -0.08326 -0.04275
 H714 H 1.11906 -0.11120 -0.07048
 C715 C 1.18293 0.34524 0.32114
 C716 C 1.19231 0.32191 0.33049
 C717 C 1.20923 0.30834 0.31309
 C718 C 1.21708 0.31780 0.28594
 C719 C 1.20740 0.34096 0.27641
 C720 C 1.19055 0.35455 0.29384
 C721 C 1.16538 0.35994 0.33981
 C722 C 1.16833 0.38605 0.34259
 C723 C 1.15153 0.40003 0.35967
 C724 C 1.13136 0.38820 0.37430
 C725 C 1.12861 0.36203 0.37182
 C726 C 1.14547 0.34804 0.35478
 C727 C 1.11283 0.40322 0.39137
 C728 C 1.10322 0.39427 0.41802
 C729 C 1.08505 0.40807 0.43345
 C730 C 1.07614 0.43105 0.42250
 C731 C 1.08603 0.44019 0.39614
 C732 C 1.10415 0.42642 0.38073
 H733 H 1.18699 0.31441 0.35157
 H734 H 1.21664 0.29071 0.32119
 H735 H 1.21275 0.34852 0.25537
 H736 H 1.18326 0.37226 0.28583
 H737 H 1.18378 0.39567 0.33172
 H738 H 1.15441 0.42010 0.36156
 H739 H 1.11304 0.35242 0.38247
 H740 H 1.14256 0.32798 0.35277
 H741 H 1.10979 0.37663 0.42698
 H742 H 1.07780 0.40063 0.45378
 H743 H 1.07946 0.45783 0.38715
 H744 H 1.11091 0.43366 0.36008
 C745 C 0.67496 -0.15616 0.31395
 C746 C 0.66829 -0.17885 0.30018
 C747 C 0.68607 -0.19207 0.28356
 C748 C 0.71110 -0.18313 0.28055
 C749 C 0.71772 -0.16034 0.29414
 C750 C 0.69985 -0.14696 0.31044
 C751 C 0.65620 -0.14233 0.33222
 C752 C 0.66409 -0.12953 0.35754
 C753 C 0.64662 -0.11640 0.37463
 C754 C 0.62067 -0.11600 0.36716
 C755 C 0.61271 -0.12901 0.34199
 C756 C 0.63026 -0.14189 0.32466
 C757 C 0.60222 -0.10161 0.38526
 C758 C 0.58180 -0.08873 0.37221
 C759 C 0.56547 -0.07394 0.38908
 C760 C 0.56945 -0.07145 0.41925
 C761 C 0.58935 -0.08480 0.43246
 C762 C 0.60541 -0.09988 0.41572
 H763 H 0.64943 -0.18670 0.30264
 H764 H 0.68014 -0.20933 0.27302
 H765 H 0.73687 -0.15301 0.29264
 H766 H 0.70558 -0.12933 0.32026
 H767 H 0.68380 -0.12977 0.36437
 H768 H 0.65359 -0.10626 0.39353
 H769 H 0.59286 -0.12938 0.33571
 H770 H 0.62350 -0.15125 0.30513
 H771 H 0.57891 -0.08932 0.34882
 H772 H 0.55034 -0.06372 0.37833
 H773 H 0.59266 -0.08337 0.45576
 H774 H 0.62048 -0.11003 0.42666
 C775 C 0.66837 0.34756 -0.19717
 C776 C 0.66264 0.32416 -0.20978
 C777 C 0.68140 0.31056 -0.22455
 C778 C 0.70628 0.32005 -0.22681
 C779 C 0.71196 0.34339 -0.21396
 C780 C 0.69321 0.35702 -0.19943
 C781 C 0.64879 0.36197 -0.18108
 C782 C 0.64680 0.38807 -0.18476
 C783 C 0.62975 0.40201 -0.16798
 C784 C 0.61440 0.39019 -0.14700
 C785 C 0.61581 0.36395 -0.14401
 C786 C 0.63279 0.34998 -0.16094
 C787 C 0.59813 0.40532 -0.12720
 C788 C 0.57405 0.39662 -0.11853
 C789 C 0.55956 0.41025 -0.09843
 C790 C 0.56888 0.43282 -0.08664
 C791 C 0.59263 0.44182 -0.09582
 C792 C 0.60712 0.42820 -0.11581
 H793 H 0.64359 0.31653 -0.20851
 H794 H 0.67635 0.29279 -0.23450
 H795 H 0.73105 0.35096 -0.21470
 H796 H 0.69828 0.37477 -0.18941
 H797 H 0.65860 0.39773 -0.20051
 H798 H 0.62874 0.42212 -0.17125
 H799 H 0.60451 0.35431 -0.12780
 H800 H 0.63411 0.32991 -0.15748
 H801 H 0.56645 0.37923 -0.12720
 H802 H 0.54125 0.40294 -0.09182
 H803 H 0.60032 0.45914 -0.08705
 H804 H 0.62573 0.43525 -0.12165
 C805 C 1.15441 0.18108 -0.17807
 C806 C 1.17958 0.18739 -0.17088
 C807 C 1.19340 0.20424 -0.18806
 C808 C 1.18240 0.21555 -0.21297
 C809 C 1.15713 0.20882 -0.22013
 C810 C 1.14345 0.19187 -0.20302
 C811 C 1.13957 0.16332 -0.15971
 C812 C 1.11352 0.16733 -0.15465
 C813 C 1.09941 0.15038 -0.13796
 C814 C 1.11102 0.12909 -0.12579
 C815 C 1.13712 0.12520 -0.13052
 C816 C 1.15122 0.14209 -0.14733
 C817 C 1.09589 0.11075 -0.10866
 C818 C 1.10577 0.10019 -0.08293
 C819 C 1.09179 0.08240 -0.06729
 C820 C 1.06770 0.07469 -0.07716
 C821 C 1.05768 0.08544 -0.10267
 C822 C 1.07160 0.10332 -0.11822
 H823 H 1.18846 0.17975 -0.15150
 H824 H 1.21230 0.20917 -0.18071
 H825 H 1.14794 0.21575 -0.23966
 H826 H 1.12434 0.18688 -0.20968
 H827 H 1.10405 0.18373 -0.16337
 H828 H 1.07942 0.15408 -0.13432
 H829 H 1.14652 0.10877 -0.12176
 H830 H 1.17114 0.13823 -0.15114
 H831 H 1.12430 0.10577 -0.07484
 H832 H 1.09997 0.07447 -0.04765
 H833 H 1.03917 0.07983 -0.11081
 H834 H 1.06359 0.11093 -0.13812
 C835 C 1.15773 0.67262 0.31173
 C836 C 1.14550 0.69495 0.30363
 C837 C 1.15795 0.71286 0.28660
 C838 C 1.18316 0.70901 0.27689
 C839 C 1.19505 0.68616 0.28469
 C840 C 1.18257 0.66836 0.30186
 C841 C 1.14473 0.65405 0.33080
 C842 C 1.14774 0.62811 0.32621
 C843 C 1.13539 0.61076 0.34416
 C844 C 1.11964 0.61894 0.36704
 C845 C 1.11673 0.64489 0.37165
 C846 C 1.12919 0.66220 0.35386
 C847 C 1.10569 0.60065 0.38557
 C848 C 1.10198 0.60543 0.41547
 C849 C 1.08699 0.58942 0.43235
 C850 C 1.07558 0.56816 0.41979
 C851 C 1.08014 0.56270 0.39027
 C852 C 1.09496 0.57884 0.37329
 H853 H 1.12622 0.69872 0.31058
 H854 H 1.14790 0.73018 0.28248
 H855 H 1.21384 0.68137 0.27698
 H856 H 1.19260 0.65136 0.30774
 H857 H 1.15938 0.62118 0.30848
 H858 H 1.13825 0.59092 0.34016
 H859 H 1.10445 0.65189 0.38876
 H860 H 1.12674 0.68202 0.35831
 H861 H 1.11044 0.62174 0.42579
 H862 H 1.08396 0.59396 0.45514
 H863 H 1.07150 0.54645 0.38000
 H864 H 1.09719 0.57470 0.35029
 C865 C 0.65397 0.17867 0.32055
 C866 C 0.67762 0.18807 0.32989
 C867 C 0.69103 0.20525 0.31273
 C868 C 0.68110 0.21338 0.28584
 C869 C 0.65769 0.20359 0.27627
 C870 C 0.64428 0.18646 0.29342
 C871 C 0.63925 0.16105 0.33913
 C872 C 0.61276 0.16358 0.34177
 C873 C 0.59879 0.14687 0.35889
 C874 C 0.61096 0.12719 0.37378
 C875 C 0.63750 0.12481 0.37140
 C876 C 0.65149 0.14157 0.35429
 C877 C 0.59594 0.10892 0.39120
 C878 C 0.60517 0.09986 0.41803
 C879 C 0.59128 0.08215 0.43394
 C880 C 0.56792 0.07313 0.42333
 C881 C 0.55852 0.08242 0.39675
 C882 C 0.57238 0.10010 0.38085
 H883 H 0.68545 0.18265 0.35083
 H884 H 0.70884 0.21271 0.32089
 H885 H 0.64975 0.20913 0.25542
 H886 H 0.62636 0.17918 0.28536
 H887 H 0.60284 0.17869 0.33081
 H888 H 0.57844 0.14949 0.36068
 H889 H 0.64740 0.10964 0.38224
 H890 H 0.67183 0.13895 0.35242
 H891 H 0.62308 0.10654 0.42679
 H892 H 0.59895 0.07538 0.45442
 H893 H 0.54060 0.07575 0.38798
 H894 H 0.56489 0.10643 0.36010
 C895 C 0.65527 0.66652 -0.19566
 C896 C 0.67814 0.67604 -0.18421
 C897 C 0.69149 0.69493 -0.19873
 C898 C 0.68217 0.70532 -0.22500
 C899 C 0.65935 0.69540 -0.23655
 C900 C 0.64628 0.67619 -0.22225
 C901 C 0.64036 0.64738 -0.17929
 C902 C 0.61363 0.64808 -0.17945
 C903 C 0.59957 0.63123 -0.16265
 C904 C 0.61181 0.61348 -0.14483
 C905 C 0.63851 0.61227 -0.14528
 C906 C 0.65260 0.62892 -0.16242
 C907 C 0.59682 0.59733 -0.12471
 C908 C 0.60435 0.57255 -0.11843
 C909 C 0.59075 0.55803 -0.09833
 C910 C 0.56925 0.56794 -0.08436
 C911 C 0.56145 0.59246 -0.09103
 C912 C 0.57515 0.60702 -0.11077
 H913 H 0.68538 0.66951 -0.16343
 H914 H 0.70840 0.70225 -0.18825
 H915 H 0.65184 0.70174 -0.25728
 H916 H 0.62913 0.66884 -0.23220
 H917 H 0.60348 0.66215 -0.19186
 H918 H 0.57903 0.63239 -0.16334
 H919 H 0.64862 0.59899 -0.13169
 H920 H 0.67312 0.62748 -0.16217
 H921 H 0.62074 0.56435 -0.12904
 H922 H 0.59708 0.53911 -0.09367
 H923 H 0.54504 0.60067 -0.08045
 H924 H 0.56906 0.62616 -0.11449
 C925 C 0.84507 -0.18031 -0.18247
 C926 C 0.85230 -0.20569 -0.18348
 C927 C 0.83856 -0.22294 -0.20028
 C928 C 0.81721 -0.21526 -0.21646
 C929 C 0.80984 -0.18993 -0.21533
 C930 C 0.82363 -0.17263 -0.19856
 C931 C 0.85990 -0.16197 -0.16475
 C932 C 0.84755 -0.14307 -0.14871
 C933 C 0.86154 -0.12594 -0.13196
 C934 C 0.88823 -0.12728 -0.13086
 C935 C 0.90057 -0.14619 -0.14690
 C936 C 0.88658 -0.16330 -0.16365
 C937 C 0.90314 -0.10890 -0.11330
 C938 C 0.92611 -0.09906 -0.12401
 C939 C 0.93990 -0.08141 -0.10778
 C940 C 0.93101 -0.07318 -0.08052
 C941 C 0.90822 -0.08318 -0.06961
 C942 C 0.89444 -0.10086 -0.08582
 H943 H 0.86840 -0.21233 -0.17092
 H944 H 0.84444 -0.24242 -0.20026
 H945 H 0.79364 -0.18340 -0.22782
 H946 H 0.81777 -0.15315 -0.19858
 H947 H 0.82702 -0.14169 -0.14883
 H948 H 0.85146 -0.11142 -0.12015
 H949 H 0.92107 -0.14792 -0.14630
 H950 H 0.89672 -0.17744 -0.17601
 H951 H 0.93319 -0.10460 -0.14524
 H952 H 0.95736 -0.07397 -0.11679
 H953 H 0.90096 -0.07724 -0.04860
 H954 H 0.87704 -0.10836 -0.07673
 C955 C 0.84284 0.32783 0.31026
 C956 C 0.85282 0.30352 0.30687
 C957 C 0.83972 0.28535 0.29075
 C958 C 0.81642 0.29108 0.27724
 C959 C 0.80671 0.31557 0.28002
 C960 C 0.81970 0.33369 0.29643
 C961 C 0.85630 0.34675 0.32863
 C962 C 0.85658 0.37230 0.32091
 C963 C 0.86941 0.38991 0.33825
 C964 C 0.88240 0.38236 0.36363
 C965 C 0.88205 0.35681 0.37131
 C966 C 0.86904 0.33930 0.35419
 C967 C 0.89686 0.40075 0.38174
 C968 C 0.89825 0.39789 0.41223
 C969 C 0.91381 0.41353 0.42900
 C970 C 0.92801 0.43267 0.41578
 C971 C 0.92571 0.43647 0.38558
 C972 C 0.91041 0.42056 0.36867
 H973 H 0.87082 0.29844 0.31672
 H974 H 0.84765 0.26664 0.28941
 H975 H 0.78903 0.32078 0.26954
 H976 H 0.81132 0.35213 0.29876
 H977 H 0.84719 0.37868 0.30123
 H978 H 0.86905 0.40945 0.33181
 H979 H 0.89219 0.35018 0.39038
 H980 H 0.86888 0.31989 0.36113
 H981 H 0.88756 0.38331 0.42316
 H982 H 0.91503 0.41040 0.45232
 H983 H 0.93656 0.45105 0.37484
 H984 H 0.91002 0.42319 0.34525
 C985 C 0.34451 -0.18101 0.31971
 C986 C 0.35062 -0.20668 0.32046
 C987 C 0.33718 -0.22391 0.30334
 C988 C 0.31732 -0.21591 0.28501
 C989 C 0.31094 -0.19030 0.28454
 C990 C 0.32441 -0.17303 0.30169
 C991 C 0.35928 -0.16269 0.33745
 C992 C 0.34704 -0.14285 0.35199
 C993 C 0.36102 -0.12568 0.36871
 C994 C 0.38757 -0.12792 0.37118
 C995 C 0.39980 -0.14776 0.35663
 C996 C 0.38583 -0.16493 0.33998
 C997 C 0.40250 -0.10951 0.38863
 C998 C 0.42598 -0.10052 0.37837
 C999 C 0.43983 -0.08287 0.39449
 C1000 C 0.43052 -0.07382 0.42121
 C1001 C 0.40721 -0.08296 0.43167
 C1002 C 0.39333 -0.10061 0.41553
 H1003 H 0.36565 -0.21350 0.33454
 H1004 H 0.34220 -0.24359 0.30467
 H1005 H 0.29589 -0.18355 0.27043
 H1006 H 0.31944 -0.15334 0.30038
 H1007 H 0.32660 -0.14075 0.35070
 H1008 H 0.35107 -0.11045 0.37939
 H1009 H 0.42019 -0.15014 0.35833
 H1010 H 0.39586 -0.17983 0.32878
 H1011 H 0.43342 -0.10677 0.35757
 H1012 H 0.45771 -0.07610 0.38584
 H1013 H 0.39960 -0.07636 0.45224
 H1014 H 0.37549 -0.10743 0.42422
 C1015 C 0.34651 0.32961 -0.19465
 C1016 C 0.35777 0.30620 -0.19994
 C1017 C 0.34420 0.28705 -0.21385
 C1018 C 0.31878 0.29065 -0.22306
 C1019 C 0.30773 0.31445 -0.21780
 C1020 C 0.32138 0.33355 -0.20379
 C1021 C 0.36082 0.34954 -0.17891
 C1022 C 0.34900 0.36390 -0.15705
 C1023 C 0.36295 0.38140 -0.14079
 C1024 C 0.38902 0.38497 -0.14609
 C1025 C 0.40062 0.37120 -0.16863
 C1026 C 0.38669 0.35367 -0.18482
 C1027 C 0.40436 0.40182 -0.12707
 C1028 C 0.42867 0.39440 -0.11769
 C1029 C 0.44254 0.40926 -0.09821
 C1030 C 0.43243 0.43189 -0.08761
 C1031 C 0.40844 0.43973 -0.09752
 C1032 C 0.39451 0.42482 -0.11704
 H1033 H 0.37695 0.30239 -0.19252
 H1034 H 0.35355 0.26907 -0.21594
 H1035 H 0.28880 0.31896 -0.22535
 H1036 H 0.31234 0.35158 -0.20047
 H1037 H 0.32916 0.36094 -0.15177
 H1038 H 0.35353 0.39145 -0.12333
 H1039 H 0.42055 0.37384 -0.17360
 H1040 H 0.39620 0.34322 -0.20190
 H1041 H 0.43666 0.37665 -0.12465
 H1042 H 0.46098 0.40271 -0.09095
 H1043 H 0.40023 0.45714 -0.08977
 H1044 H 0.37597 0.43119 -0.12414
 C1045 C 1.15394 -0.18288 0.17609
 C1046 C 1.14488 -0.20739 0.18035
 C1047 C 1.15856 -0.22455 0.19721
 C1048 C 1.18198 -0.21788 0.21031
 C1049 C 1.19118 -0.19330 0.20542
 C1050 C 1.17731 -0.17609 0.18874
 C1051 C 1.13892 -0.16449 0.15869
 C1052 C 1.15108 -0.14710 0.14034
 C1053 C 1.13692 -0.12978 0.12417
 C1054 C 1.11022 -0.12947 0.12582
 C1055 C 1.09807 -0.14694 0.14405
 C1056 C 1.11223 -0.16415 0.16034
 C1057 C 1.09512 -0.11082 0.10889
 C1058 C 1.07330 -0.09974 0.12104
 C1059 C 1.05935 -0.08191 0.10539
 C1060 C 1.06702 -0.07461 0.07733
 C1061 C 1.08866 -0.08578 0.06501
 C1062 C 1.10252 -0.10374 0.08057
 H1063 H 1.12733 -0.21353 0.17021
 H1064 H 1.15104 -0.24340 0.19872
 H1065 H 1.20854 -0.18671 0.21557
 H1066 H 1.18465 -0.15721 0.18638
 H1067 H 1.17158 -0.14700 0.13825
 H1068 H 1.14694 -0.11640 0.11065
 H1069 H 1.07754 -0.14747 0.14560
 H1070 H 1.10222 -0.17702 0.17453
 H1071 H 1.06725 -0.10443 0.14294
 H1072 H 1.04282 -0.07353 0.11550
 H1073 H 1.09493 -0.08059 0.04334
 H1074 H 1.11895 -0.11220 0.07033
 C1075 C 1.15612 0.32408 0.68430
 C1076 C 1.14624 0.29979 0.68834
 C1077 C 1.15927 0.28218 0.70524
 C1078 C 1.18237 0.28847 0.71894
 C1079 C 1.19206 0.31288 0.71529
 C1080 C 1.17919 0.33041 0.69806
 C1081 C 1.14246 0.34261 0.66569
 C1082 C 1.14236 0.36830 0.67287
 C1083 C 1.12925 0.38557 0.65550
 C1084 C 1.11565 0.37756 0.63068
 C1085 C 1.11586 0.35188 0.62348
 C1086 C 1.12922 0.33469 0.64060
 C1087 C 1.10075 0.39568 0.61278
 C1088 C 1.09835 0.39234 0.58240
 C1089 C 1.08280 0.40818 0.56592
 C1090 C 1.06964 0.42796 0.57933
 C1091 C 1.07275 0.43201 0.60941
 C1092 C 1.08799 0.41593 0.62600
 H1093 H 1.12831 0.29434 0.67856
 H1094 H 1.15137 0.26348 0.70720
 H1095 H 1.20960 0.31854 0.72585
 H1096 H 1.18755 0.34882 0.69521
 H1097 H 1.15208 0.37509 0.69219
 H1098 H 1.12983 0.40522 0.66154
 H1099 H 1.10530 0.34489 0.60484
 H1100 H 1.12922 0.31516 0.63404
 H1101 H 1.10836 0.37737 0.57132
 H1102 H 1.08091 0.40481 0.54269
 H1103 H 1.06269 0.44707 0.62030
 H1104 H 1.08905 0.41891 0.64935
 C1105 C 0.65276 -0.18457 0.67780
 C1106 C 0.64414 -0.20931 0.68135
 C1107 C 0.65771 -0.22635 0.69847
 C1108 C 0.68058 -0.21929 0.71256
 C1109 C 0.68927 -0.19442 0.70854
 C1110 C 0.67551 -0.17735 0.69157
 C1111 C 0.63795 -0.16637 0.65998
 C1112 C 0.65035 -0.14868 0.64224
 C1113 C 0.63637 -0.13146 0.62573
 C1114 C 0.60964 -0.13156 0.62645
 C1115 C 0.59725 -0.14939 0.64401
 C1116 C 0.61122 -0.16651 0.66062
 C1117 C 0.59474 -0.11290 0.60940
 C1118 C 0.57264 -0.10209 0.62120
 C1119 C 0.55891 -0.08415 0.60552
 C1120 C 0.56705 -0.07648 0.57777
 C1121 C 0.58896 -0.08739 0.56577
 C1122 C 0.60263 -0.10546 0.58138
 H1123 H 0.62705 -0.21572 0.67041
 H1124 H 0.65060 -0.24539 0.69945
 H1125 H 0.70613 -0.18752 0.71950
 H1126 H 0.68244 -0.15827 0.68980
 H1127 H 0.67089 -0.14824 0.64094
 H1128 H 0.64653 -0.11780 0.61274
 H1129 H 0.57670 -0.15022 0.64481
 H1130 H 0.60104 -0.17965 0.67430
 H1131 H 0.56623 -0.10707 0.64287
 H1132 H 0.54215 -0.07598 0.61538
 H1133 H 0.59559 -0.08190 0.54434
 H1134 H 0.61931 -0.11369 0.57144
 C1135 C 0.65065 0.32883 0.19480
 C1136 C 0.64125 0.30418 0.19630
 C1137 C 0.65504 0.28547 0.21060
 C1138 C 0.67848 0.29100 0.22396
 C1139 C 0.68775 0.31577 0.22272
 C1140 C 0.67403 0.33445 0.20818
 C1141 C 0.63633 0.34836 0.17864
 C1142 C 0.64889 0.36452 0.15922
 C1143 C 0.63512 0.38168 0.14240
 C1144 C 0.60851 0.38317 0.14478
 C1145 C 0.59610 0.36757 0.16500
 C1146 C 0.60985 0.35030 0.18164
 C1147 C 0.59363 0.39987 0.12515
 C1148 C 0.57039 0.39160 0.11331
 C1149 C 0.55697 0.40652 0.09358
 C1150 C 0.56653 0.42999 0.08504
 C1151 C 0.58947 0.43857 0.09722
 C1152 C 0.60289 0.42367 0.11712
 H1153 H 0.62348 0.29922 0.18577
 H1154 H 0.64756 0.26652 0.21064
 H1155 H 0.70551 0.32079 0.23320
 H1156 H 0.68159 0.35337 0.20761
 H1157 H 0.66927 0.36325 0.15627
 H1158 H 0.64525 0.39314 0.12676
 H1159 H 0.57570 0.36858 0.16783
 H1160 H 0.59974 0.33835 0.19681
 H1161 H 0.56290 0.37323 0.11860
 H1162 H 0.53937 0.39937 0.08450
 H1163 H 0.59721 0.45666 0.09111
 H1164 H 0.62054 0.43074 0.12614
 C1165 C 0.84357 0.17971 0.17919
 C1166 C 0.82023 0.18918 0.16904
 C1167 C 0.80643 0.20642 0.18576
 C1168 C 0.81566 0.21456 0.21301
 C1169 C 0.83880 0.20478 0.22334
 C1170 C 0.85259 0.18758 0.20663
 C1171 C 0.85860 0.16185 0.16119
 C1172 C 0.88520 0.16400 0.15961
 C1173 C 0.89941 0.14710 0.14294
 C1174 C 0.88737 0.12761 0.12745
 C1175 C 0.86074 0.12554 0.12888
 C1176 C 0.84652 0.14247 0.14554
 C1177 C 0.90253 0.10932 0.11018
 C1178 C 0.89377 0.10068 0.08292
 C1179 C 0.90771 0.08298 0.06707
 C1180 C 0.93069 0.07350 0.07815
 C1181 C 0.93966 0.08235 0.10517
 C1182 C 0.92573 0.10006 0.12102
 H1183 H 0.81292 0.18371 0.14784
 H1184 H 0.78884 0.21385 0.17704
 H1185 H 0.84619 0.21033 0.24448
 H1186 H 0.87024 0.18026 0.21533
 H1187 H 0.89503 0.17899 0.17099
 H1188 H 0.91984 0.14946 0.14191
 H1189 H 0.85092 0.11051 0.11758
 H1190 H 0.82610 0.14009 0.14663
 H1191 H 0.87618 0.10772 0.07376
 H1192 H 0.90038 0.07656 0.04624
 H1193 H 0.95728 0.07533 0.11428
 H1194 H 0.93286 0.10610 0.14210
 C1195 C 0.84211 0.67427 0.68162
 C1196 C 0.85215 0.68243 0.70851
 C1197 C 0.83926 0.70020 0.72540
 C1198 C 0.81612 0.71045 0.71569
 C1199 C 0.80614 0.70232 0.68877
 C1200 C 0.81885 0.68435 0.67208
 C1201 C 0.85599 0.65567 0.66335
 C1202 C 0.85576 0.65761 0.63273
 C1203 C 0.86913 0.64048 0.61552
 C1204 C 0.88341 0.62115 0.62845
 C1205 C 0.88346 0.61904 0.65905
 C1206 C 0.86982 0.63601 0.67627
 C1207 C 0.89890 0.60388 0.61013
 C1208 C 0.90198 0.57848 0.61781
 C1209 C 0.91758 0.56270 0.60123
 C1210 C 0.93020 0.57193 0.57650
 C1211 C 0.92665 0.59708 0.56840
 C1212 C 0.91133 0.61291 0.58510
 H1213 H 0.87019 0.67536 0.71639
 H1214 H 0.84736 0.70576 0.74619
 H1215 H 0.78858 0.71006 0.68034
 H1216 H 0.81032 0.67828 0.65173
 H1217 H 0.84562 0.67266 0.62198
 H1218 H 0.86831 0.64247 0.59203
 H1219 H 0.89447 0.60458 0.66980
 H1220 H 0.87012 0.63368 0.69974
 H1221 H 0.89236 0.57078 0.63663
 H1222 H 0.91991 0.54333 0.60787
 H1223 H 0.93627 0.60477 0.54954
 H1224 H 0.90982 0.63242 0.57879
 C1225 C 0.34524 0.17682 0.68439
 C1226 C 0.35437 0.18484 0.71173
 C1227 C 0.34072 0.20224 0.72831
 C1228 C 0.31761 0.21205 0.71794
 C1229 C 0.30824 0.20370 0.69084
 C1230 C 0.32190 0.18628 0.67425
 C1231 C 0.36020 0.15896 0.66634
 C1232 C 0.34806 0.13962 0.65070
 C1233 C 0.36218 0.12290 0.63366
 C1234 C 0.38877 0.12515 0.63184
 C1235 C 0.40089 0.14454 0.64742
 C1236 C 0.38678 0.16124 0.66446
 C1237 C 0.40380 0.10719 0.61400
 C1238 C 0.42717 0.09791 0.62430
 C1239 C 0.44099 0.08050 0.60790
 C1240 C 0.43175 0.07199 0.58084
 C1241 C 0.40860 0.08150 0.57030
 C1242 C 0.39476 0.09891 0.58671
 H1243 H 0.37205 0.17755 0.72038
 H1244 H 0.34823 0.20800 0.74931
 H1245 H 0.29069 0.21119 0.68206
 H1246 H 0.31451 0.18073 0.65312
 H1247 H 0.32766 0.13716 0.65202
 H1248 H 0.35231 0.10792 0.62231
 H1249 H 0.42129 0.14702 0.64611
 H1250 H 0.39665 0.17621 0.67583
 H1251 H 0.43452 0.10369 0.64538
 H1252 H 0.45876 0.07345 0.61660
 H1253 H 0.40105 0.07534 0.54947
 H1254 H 0.37703 0.10598 0.57797
 C1255 C 0.34620 0.67011 0.19082
 C1256 C 0.32256 0.66480 0.20358
 C1257 C 0.30901 0.68362 0.21809
 C1258 C 0.31868 0.70822 0.21986
 C1259 C 0.34231 0.71348 0.20692
 C1260 C 0.35595 0.69461 0.19270
 C1261 C 0.36057 0.65035 0.17512
 C1262 C 0.38690 0.64789 0.17932
 C1263 C 0.40079 0.63039 0.16318
 C1264 C 0.38872 0.61512 0.14223
 C1265 C 0.36222 0.61709 0.13868
 C1266 C 0.34829 0.63446 0.15504
 C1267 C 0.40391 0.59834 0.12302
 C1268 C 0.39457 0.57476 0.11411
 C1269 C 0.40842 0.55982 0.09463
 C1270 C 0.43188 0.56817 0.08376
 C1271 C 0.44148 0.59143 0.09317
 C1272 C 0.42764 0.60636 0.11246
 H1273 H 0.31474 0.64599 0.20267
 H1274 H 0.29109 0.67880 0.22824
 H1275 H 0.35010 0.73230 0.20734
 H1276 H 0.37394 0.69931 0.18262
 H1277 H 0.39676 0.65961 0.19504
 H1278 H 0.42106 0.62899 0.16695
 H1279 H 0.35236 0.60587 0.12248
 H1280 H 0.32803 0.63612 0.15122
 H1281 H 0.37652 0.56788 0.12213
 H1282 H 0.40063 0.54192 0.08780
 H1283 H 0.45948 0.59841 0.08510
 H1284 H 0.43523 0.62458 0.11840
   
