data_POSCAR
  _audit_creation_date              2014-09-24
  _audit_creation_method            'ToBaCCo'
  _symmetry_space_group_name_H-M    'P1'
  _symmetry_Int_Tables_number       1
  _symmetry_cell_setting            triclinic
  loop_
  _symmetry_equiv_pos_as_xyz
 x,y,z
_cell_length_a 64.4708
_cell_length_b 64.2468
_cell_length_c 64.2987
_cell_angle_alpha 89.938800
_cell_angle_beta 89.986300
_cell_angle_gamma 90.002300
loop_
  _atom_site_label
  _atom_site_type_symbol
  _atom_site_fract_x
  _atom_site_fract_y
  _atom_site_fract_z
N1 N 0.34923 1.34998 0.34953
 N2 N 0.34830 0.84965 0.84859
 N3 N 0.84910 1.34996 0.84983
 N4 N 0.84890 0.84984 0.34908
 N5 N 0.65198 0.65104 0.34852
 N6 N 0.65149 0.15199 0.84887
 N7 N 1.15083 0.65145 0.84947
 N8 N 1.15196 0.15151 0.34844
 N9 N 0.65163 1.34947 0.65061
 N10 N 0.65164 0.84921 1.15089
 N11 N 1.15251 1.34776 1.15173
 N12 N 1.15117 0.84991 0.65050
 N13 N 0.34967 0.64968 0.65001
 N14 N 0.34797 0.15150 1.15225
 N15 N 0.84970 0.64999 1.15083
 N16 N 0.84897 0.14987 0.65080
 N17 N 1.34883 0.34953 0.65089
 N18 N 1.34822 0.84921 1.15112
 N19 N 0.84730 0.34841 1.15169
 N20 N 0.84852 0.84946 0.65144
 N21 N 0.65194 0.65161 0.65105
 N22 N 0.65174 1.15102 1.15197
 N23 N 0.15111 0.64965 1.15033
 N24 N 0.15207 1.15119 0.65224
 N25 N 1.34928 0.65048 0.34904
 N26 N 1.34890 1.15081 0.84940
 N27 N 0.84994 0.65022 0.84913
 N28 N 0.84894 1.15081 0.34926
 N29 N 0.65228 0.34899 0.34862
 N30 N 0.65173 0.84994 0.85011
 N31 N 0.15126 0.34934 0.84990
 N32 N 0.15100 0.85019 0.35014
 O33 O 1.07393 1.02034 1.10416
 O34 O 1.09782 1.02031 1.12869
 C35 C 1.08110 1.02753 1.12108
 C36 C 1.07016 1.04484 1.13165
 C37 C 1.07717 1.05236 1.15092
 H38 H 1.09044 1.04515 1.15833
 O39 O 0.92468 0.98049 1.10357
 O40 O 0.90036 0.98066 1.12770
 C41 C 0.91728 0.97351 1.12052
 C42 C 0.92811 0.95645 1.13157
 C43 C 0.92094 0.94934 1.15096
 H44 H 0.90789 0.95691 1.15842
 O45 O 1.01999 1.10435 1.07450
 O46 O 1.01995 1.12879 1.09856
 C47 C 1.02711 1.12129 1.08175
 C48 C 1.04436 1.13194 1.07086
 C49 C 1.05190 1.15117 1.07800
 H50 H 1.04454 1.15881 1.09107
 O51 O 0.97876 0.89627 1.07562
 O52 O 0.97847 0.87199 1.09989
 C53 C 0.97158 0.87935 1.08289
 C54 C 0.95480 0.86840 1.07158
 C55 C 0.94773 0.84882 1.07826
 H56 H 0.95469 0.84171 1.09184
 O57 O 1.10354 1.07429 1.02098
 O58 O 1.12791 1.09838 1.02095
 C59 C 1.12040 1.08155 1.02814
 C60 C 1.13103 1.07065 1.04542
 C61 C 1.15010 1.07794 1.05302
 H62 H 1.15760 1.09103 1.04549
 O63 O 0.89679 0.92500 1.01986
 O64 O 0.87244 0.90091 1.01987
 C65 C 0.87986 0.91780 1.02696
 C66 C 0.86903 0.92893 1.04399
 C67 C 0.84979 0.92182 1.05143
 H68 H 0.84257 0.90835 1.04436
 O69 O 0.97930 1.07602 1.10284
 O70 O 0.97921 1.10032 1.12703
 C71 C 0.97214 1.08338 1.11969
 C72 C 0.95508 1.07240 1.13055
 C73 C 0.94778 1.07956 1.14984
 H74 H 0.95531 1.09266 1.15726
 O75 O 1.01897 0.92489 1.10426
 O76 O 1.01868 0.90080 1.12872
 C77 C 1.02586 0.91768 1.12130
 C78 C 1.04278 0.92874 1.13228
 C79 C 1.04989 0.92165 1.15167
 H80 H 1.04228 0.90857 1.15910
 O81 O 1.10227 0.97938 1.07617
 O82 O 1.12634 0.97925 1.10053
 C83 C 1.11905 0.97217 1.08358
 C84 C 1.12988 0.95505 1.07259
 C85 C 1.14912 0.94765 1.07971
 H86 H 1.15633 0.95478 1.09315
 O87 O 0.89647 1.02085 1.07441
 O88 O 0.87205 1.02094 1.09843
 C89 C 0.87950 1.02795 1.08153
 C90 C 0.86864 1.04493 1.07034
 C91 C 0.84937 1.05222 1.07741
 H92 H 0.84194 1.04466 1.09050
 O93 O 0.92494 1.10387 1.01941
 O94 O 0.90085 1.12824 1.01914
 C95 C 0.91767 1.12087 1.02636
 C96 C 0.92864 1.13189 1.04334
 C97 C 0.92151 1.15127 1.05043
 H98 H 0.90845 1.15863 1.04280
 O99 O 1.07396 0.89582 1.02143
 O100 O 1.09806 0.87146 1.02166
 C101 C 1.08120 0.87891 1.02869
 C102 C 1.07020 0.86816 1.04584
 C103 C 1.07741 0.84898 1.05345
 H104 H 1.09086 0.84175 1.04640
 O105 O 0.92474 1.02111 1.10304
 O106 O 0.90042 1.02128 1.12717
 C107 C 0.91733 1.02834 1.11986
 C108 C 0.92827 1.04548 1.13067
 C109 C 0.92116 1.05289 1.14996
 H110 H 0.90777 1.04573 1.15721
 O111 O 1.07379 0.97969 1.10460
 O112 O 1.09771 0.97959 1.12911
 C113 C 1.08087 0.97257 1.12162
 C114 C 1.06966 0.95560 1.13248
 C115 C 1.07656 0.94825 1.15187
 H116 H 1.08993 0.95536 1.15918
 O117 O 1.01922 0.89616 1.07606
 O118 O 1.01900 0.87194 1.10040
 C119 C 1.02625 0.87926 1.08353
 C120 C 1.04339 0.86835 1.07272
 C121 C 1.05084 0.84918 1.08014
 H122 H 1.04340 0.84184 1.09336
 O123 O 0.97951 1.10445 1.07427
 O124 O 0.97941 1.12889 1.09833
 C125 C 0.97240 1.12144 1.08143
 C126 C 0.95543 1.13225 1.07025
 C127 C 0.94805 1.15165 1.07714
 H128 H 0.95515 1.15903 1.09050
 O129 O 0.89639 1.07549 1.01932
 O130 O 0.87218 1.09973 1.01912
 C131 C 0.87948 1.08282 1.02633
 C132 C 0.86858 1.07180 1.04339
 C133 C 0.84931 1.07894 1.05075
 H134 H 0.84211 1.09239 1.04359
 O135 O 1.10223 0.92445 1.02135
 O136 O 1.12642 0.90019 1.02157
 C137 C 1.11906 0.91715 1.02857
 C138 C 1.12985 0.92819 1.04566
 C139 C 1.14909 0.92105 1.05299
 H140 H 1.15654 0.90798 1.04543
 O141 O 0.97852 0.92485 1.10394
 O142 O 0.97815 0.90071 1.12835
 C143 C 0.97122 0.91762 1.12082
 C144 C 0.95421 0.92882 1.13151
 C145 C 0.94650 0.92165 1.15065
 H146 H 0.95330 0.90808 1.15800
 O147 O 1.01976 1.07585 1.10303
 O148 O 1.01972 1.10016 1.12721
 C149 C 1.02677 1.08317 1.11997
 C150 C 1.04364 1.07207 1.13105
 C151 C 1.05086 1.07932 1.15033
 H152 H 1.04343 1.09258 1.15757
 O153 O 0.89677 0.98021 1.07456
 O154 O 0.87236 0.98029 1.09859
 C155 C 0.87986 0.97309 1.08178
 C156 C 0.86910 0.95593 1.07080
 C157 C 0.84986 0.94860 1.07796
 H158 H 0.84243 0.95618 1.09103
 O159 O 1.10281 1.01997 1.07619
 O160 O 1.12684 1.01992 1.10060
 C161 C 1.11968 1.02701 1.08360
 C162 C 1.13070 1.04399 1.07257
 C163 C 1.14978 1.05154 1.07999
 H164 H 1.15674 1.04457 1.09365
 O165 O 0.92500 0.89626 1.02009
 O166 O 0.90076 0.87204 1.02004
 C167 C 0.91766 0.87932 1.02714
 C168 C 0.92861 0.86830 1.04414
 C169 C 0.92206 0.84852 1.05072
 H170 H 0.90965 0.84081 1.04241
 O171 O 1.07550 1.10314 1.02070
 O172 O 1.09981 1.12730 1.02068
 C173 C 1.08288 1.12005 1.02776
 C174 C 1.07190 1.13112 1.04470
 C175 C 1.07947 1.15014 1.05235
 H176 H 1.09315 1.15714 1.04549
 Cu177 Cu 1.08580 0.99984 1.08785
 Cu178 Cu 1.11457 0.99975 1.11720
 Cu179 Cu 0.91311 1.00066 1.08650
 Cu180 Cu 0.88384 1.00080 1.11537
 Cu181 Cu 0.99965 1.08775 1.08623
 Cu182 Cu 0.99957 1.11699 1.11521
 Cu183 Cu 0.99889 0.91295 1.08753
 Cu184 Cu 0.99855 0.88393 1.11679
 C185 C 1.05326 1.05470 1.12194
 H186 H 1.04796 1.04920 1.10694
 C187 C 1.06764 1.06961 1.16037
 C188 C 0.94497 0.94629 1.12214
 H189 H 0.95050 0.95160 1.10714
 C190 C 0.92999 0.93191 1.16047
 C191 C 1.05428 1.12221 1.05400
 H192 H 1.04865 1.10732 1.04850
 C193 C 1.06949 1.16025 1.06889
 C194 C 0.94519 0.87796 1.05447
 H195 H 0.95025 0.89326 1.04952
 C196 C 0.93143 0.83862 1.06786
 C197 C 1.12157 1.05353 1.05517
 H198 H 1.10671 1.04802 1.04957
 C199 C 1.15957 1.06855 1.07034
 C200 C 0.87846 0.94611 1.05368
 H201 H 0.89344 0.95150 1.04825
 C202 C 0.84012 0.93153 1.06844
 C203 C 0.94535 1.05524 1.12120
 H204 H 0.95073 1.04981 1.10620
 C205 C 0.93081 1.06993 1.15965
 C206 C 1.05264 0.94586 1.12291
 H207 H 1.04744 0.95122 1.10781
 C208 C 1.06679 0.93126 1.16157
 C209 C 1.12047 0.94532 1.05544
 H210 H 1.10549 0.95072 1.05005
 C211 C 1.15883 0.93064 1.07002
 C212 C 0.87801 1.05468 1.05319
 H213 H 0.89302 1.04931 1.04785
 C214 C 0.83961 1.06926 1.06780
 C215 C 0.94573 1.12261 1.05322
 H216 H 0.95111 1.10752 1.04801
 C217 C 0.93106 1.16124 1.06735
 C218 C 1.05306 0.87761 1.05545
 H219 H 1.04760 0.89254 1.04984
 C220 C 1.06784 0.83938 1.07060
 O221 O 1.07527 0.97925 0.89678
 O222 O 1.09955 0.97904 0.87262
 C223 C 1.08256 0.97210 0.87987
 C224 C 1.07141 0.95519 0.86890
 C225 C 1.07847 0.94788 0.84956
 H226 H 1.09192 0.95497 0.84236
 O227 O 0.92574 1.02026 0.89564
 O228 O 0.90174 1.02029 0.87121
 C229 C 0.91860 1.02734 0.87864
 C230 C 0.92973 1.04438 0.86781
 C231 C 0.92285 1.05174 0.84842
 H232 H 0.90972 1.04444 0.84084
 O233 O 0.98050 1.10345 0.92466
 O234 O 0.98084 1.12783 0.90048
 C235 C 0.97358 1.12046 0.91733
 C236 C 0.95654 1.13144 0.92822
 C237 C 0.94949 1.15085 0.92108
 H238 H 0.95724 1.15831 0.90811
 O239 O 1.02020 0.89618 0.92502
 O240 O 1.02043 0.87184 0.90086
 C241 C 1.02740 0.87927 0.91778
 C242 C 1.04432 0.86840 0.92897
 C243 C 1.05196 0.84927 0.92169
 H244 H 1.04518 0.84208 0.90805
 O245 O 1.10254 0.92410 0.98073
 O246 O 1.12671 0.89980 0.98095
 C247 C 1.11943 0.91670 0.97371
 C248 C 1.13039 0.92758 0.95660
 C249 C 1.14963 0.92029 0.94940
 H250 H 1.15695 0.90717 0.95704
 O251 O 0.89672 1.07536 0.97872
 O252 O 0.87253 1.09962 0.97844
 C253 C 0.87992 1.08268 0.97144
 C254 C 0.86922 1.07165 0.95430
 C255 C 0.85004 1.07881 0.94676
 H256 H 0.84281 1.09228 0.95382
 O257 O 1.02082 1.07463 0.89629
 O258 O 1.02116 1.09885 0.87197
 C259 C 1.02804 1.08186 0.87938
 C260 C 1.04507 1.07071 0.86863
 C261 C 1.05248 1.07770 0.84929
 H262 H 1.04519 1.09085 0.84165
 O263 O 0.97971 0.92444 0.89631
 O264 O 0.97980 0.90015 0.87210
 C265 C 0.97264 0.91705 0.87942
 C266 C 0.95564 0.92804 0.86848
 C267 C 0.94815 0.92069 0.84934
 H268 H 0.95513 0.90714 0.84215
 O269 O 1.10395 1.01946 0.92550
 O270 O 1.12838 1.01928 0.90149
 C271 C 1.12095 1.02643 0.91834
 C272 C 1.13184 1.04342 0.92945
 C273 C 1.15110 1.05083 0.92235
 H274 H 1.15833 1.04373 0.90891
 O275 O 0.89713 0.97987 0.92426
 O276 O 0.87296 0.97982 0.90000
 C277 C 0.88024 0.97279 0.91698
 C278 C 0.86933 0.95579 0.92811
 C279 C 0.84995 0.94860 0.92115
 H280 H 0.84248 0.95598 0.90797
 O281 O 1.07541 1.10269 0.98010
 O282 O 1.09967 1.12689 0.98007
 C283 C 1.08280 1.11957 0.97294
 C284 C 1.07194 1.13048 0.95580
 C285 C 1.07914 1.14981 0.94860
 H286 H 1.09215 1.15721 0.95627
 O287 O 0.92529 0.89615 0.97961
 O288 O 0.90106 0.87192 0.97956
 C289 C 0.91804 0.87916 0.97261
 C290 C 0.92922 0.86808 0.95581
 C291 C 0.92268 0.84832 0.94917
 H292 H 0.91012 0.84067 0.95733
 O293 O 0.92552 0.97969 0.89570
 O294 O 0.90149 0.97967 0.87130
 C295 C 0.91831 0.97257 0.87875
 C296 C 0.92931 0.95545 0.86798
 C297 C 0.92236 0.94816 0.84860
 H298 H 0.90932 0.95559 0.84098
 O299 O 1.07561 1.01986 0.89700
 O300 O 1.09991 1.01973 0.87287
 C301 C 1.08308 1.02698 0.88016
 C302 C 1.07226 1.04414 0.86922
 C303 C 1.07972 1.05167 0.85011
 H304 H 1.09323 1.04463 0.84297
 O305 O 0.97973 0.89601 0.92483
 O306 O 0.97989 0.87159 0.90075
 C307 C 0.97272 0.87902 0.91760
 C308 C 0.95579 0.86809 0.92873
 C309 C 0.94873 0.84854 0.92198
 H310 H 0.95583 0.84142 0.90849
 O311 O 1.02099 1.10310 0.92481
 O312 O 1.02136 1.12746 0.90062
 C313 C 1.02828 1.11999 0.91757
 C314 C 1.04530 1.13073 0.92873
 C315 C 1.05276 1.15006 0.92174
 H316 H 1.04574 1.15740 0.90830
 O317 O 0.89704 0.92482 0.97918
 O318 O 0.87269 0.90072 0.97914
 C319 C 0.88019 0.91756 0.97197
 C320 C 0.86948 0.92858 0.95479
 C321 C 0.85031 0.92139 0.94731
 H322 H 0.84296 0.90800 0.95446
 O323 O 1.10386 1.07420 0.98038
 O324 O 1.12821 1.09831 0.98035
 C325 C 1.12082 1.08140 0.97331
 C326 C 1.13171 1.07030 0.95633
 C327 C 1.15096 1.07745 0.94904
 H328 H 1.15836 1.09057 0.95658
 O329 O 1.02020 0.92470 0.89653
 O330 O 1.02034 0.90047 0.87225
 C331 C 1.02736 0.91741 0.87963
 C332 C 1.04441 0.92846 0.86881
 C333 C 1.05167 0.92140 0.84948
 H334 H 1.04407 0.90839 0.84197
 O335 O 0.98035 1.07504 0.89616
 O336 O 0.98063 1.09931 0.87188
 C337 C 0.97336 1.08245 0.87923
 C338 C 0.95631 1.07156 0.86828
 C339 C 0.94894 1.07893 0.84909
 H340 H 0.95609 1.09238 0.84187
 O341 O 0.89715 1.02048 0.92393
 O342 O 0.87301 1.02048 0.89964
 C343 C 0.88032 1.02762 0.91654
 C344 C 0.86944 1.04475 0.92744
 C345 C 0.85026 1.05210 0.92016
 H346 H 0.84291 1.04455 0.90703
 O347 O 1.10332 0.97886 0.92561
 O348 O 1.12773 0.97861 0.90159
 C349 C 1.12017 0.97156 0.91844
 C350 C 1.13077 0.95439 0.92958
 C351 C 1.14998 0.94684 0.92259
 H352 H 1.15730 0.95388 0.90914
 O353 O 1.07396 0.89574 0.98083
 O354 O 1.09802 0.87135 0.98105
 C355 C 1.08121 0.87875 0.97383
 C356 C 1.07035 0.86792 0.95666
 C357 C 1.07744 0.84856 0.94942
 H358 H 1.09044 0.84096 0.95696
 O359 O 0.92521 1.10376 0.97888
 O360 O 0.90116 1.12816 0.97856
 C361 C 0.91808 1.12072 0.97166
 C362 C 0.92937 1.13157 0.95475
 C363 C 0.92252 1.15098 0.94737
 H364 H 0.90909 1.15829 0.95437
 Cu365 Cu 1.08710 0.99938 0.91363
 Cu366 Cu 1.11634 0.99913 0.88472
 Cu367 Cu 0.91379 1.00007 0.91231
 Cu368 Cu 0.88487 1.00006 0.88310
 Cu369 Cu 1.08714 1.08616 1.00054
 Cu370 Cu 1.11635 1.11514 1.00048
 Cu371 Cu 1.08575 0.91246 1.00106
 Cu372 Cu 1.11473 0.88326 1.00133
 Cu373 Cu 0.91321 1.08717 0.99911
 Cu374 Cu 0.88425 1.11637 0.99879
 Cu375 Cu 0.91344 0.91300 0.99969
 Cu376 Cu 0.88426 0.88401 0.99965
 Cu377 Cu 1.00064 1.08663 0.91290
 Cu378 Cu 1.00104 1.11580 0.88380
 Cu379 Cu 0.99994 0.91276 0.91309
 Cu380 Cu 1.00014 0.88358 0.88405
 C381 C 1.05425 0.94550 0.87829
 H382 H 1.04893 0.95083 0.89335
 C383 C 1.06871 0.93096 0.83975
 C384 C 0.94667 1.05421 0.87746
 H385 H 0.95197 1.04872 0.89247
 C386 C 0.93231 1.06905 0.83906
 C387 C 0.94650 1.12203 0.94519
 H388 H 0.95167 1.10692 0.95059
 C389 C 0.93248 1.16073 0.93053
 C390 C 1.05357 0.87755 0.94652
 H391 H 1.04809 0.89253 0.95193
 C392 C 1.06839 0.83927 0.93191
 C393 C 1.12119 0.94477 0.94671
 H394 H 1.10622 0.95031 0.95201
 C395 C 1.15954 0.92979 0.93239
 C396 C 0.87869 1.05450 0.94465
 H397 H 0.89362 1.04908 0.95017
 C398 C 0.84045 1.06914 0.92968
 C399 C 1.05487 1.05372 0.87830
 H400 H 1.04933 1.04832 0.89327
 C401 C 1.06983 1.06832 0.84006
 C402 C 0.94617 0.94548 0.87763
 H403 H 0.95154 0.95094 0.89262
 C404 C 0.93164 0.93076 0.83930
 C405 C 1.12238 1.05315 0.94657
 H406 H 1.10738 1.04775 0.95192
 C407 C 1.16075 1.06788 0.93203
 C408 C 0.87881 0.94585 0.94514
 H409 H 0.89381 0.95121 0.95052
 C410 C 0.84045 0.93137 0.93061
 C411 C 1.05489 1.12116 0.94589
 H412 H 1.04944 1.10611 0.95118
 C413 C 1.06969 1.15970 0.93156
 C414 C 0.94598 0.87767 0.94569
 H415 H 0.95103 0.89295 0.95068
 C416 C 0.93223 0.83841 0.93216
 O417 O 0.97991 0.42475 0.39642
 O418 O 0.97987 0.40045 0.37223
 C419 C 0.97278 0.41738 0.37955
 C420 C 0.95580 0.42845 0.36864
 C421 C 0.94809 0.42104 0.34958
 H422 H 0.95475 0.40713 0.34284
 O423 O 1.02147 0.57491 0.39651
 O424 O 1.02188 0.59908 0.37214
 C425 C 1.02863 0.58202 0.37953
 C426 C 1.04538 0.57063 0.36860
 C427 C 1.05211 0.57706 0.34884
 H428 H 1.04405 0.58964 0.34108
 O429 O 0.89761 0.48063 0.42433
 O430 O 0.87348 0.48079 0.40002
 C431 C 0.88069 0.47365 0.41698
 C432 C 0.86963 0.45670 0.42801
 C433 C 0.85036 0.44954 0.42078
 H434 H 0.84309 0.45712 0.40761
 O435 O 1.10425 0.51966 0.42532
 O436 O 1.12861 0.51953 0.40124
 C437 C 1.12122 0.52666 0.41812
 C438 C 1.13213 0.54362 0.42925
 C439 C 1.15140 0.55100 0.42216
 H440 H 1.15858 0.54395 0.40866
 O441 O 0.92487 0.39715 0.47944
 O442 O 0.90051 0.37306 0.47934
 C443 C 0.91748 0.38027 0.47233
 C444 C 0.92851 0.36922 0.45542
 C445 C 0.92131 0.34991 0.44820
 H446 H 0.90813 0.34261 0.45570
 O447 O 1.07620 0.60285 0.48014
 O448 O 1.10055 0.62696 0.48025
 C449 C 1.08368 0.61972 0.47305
 C450 C 1.07289 0.63070 0.45591
 C451 C 1.08009 0.65007 0.44881
 H452 H 1.09308 0.65746 0.45653
 O453 O 0.92646 0.52093 0.39580
 O454 O 0.90245 0.52111 0.37138
 C455 C 0.91934 0.52806 0.37881
 C456 C 0.93051 0.54505 0.36798
 C457 C 0.92371 0.55231 0.34852
 H458 H 0.91063 0.54496 0.34091
 O459 O 1.07574 0.47912 0.39689
 O460 O 1.10001 0.47887 0.37272
 C461 C 1.08309 0.47186 0.38006
 C462 C 1.07202 0.45482 0.36919
 C463 C 1.07931 0.44721 0.35006
 H464 H 1.09311 0.45396 0.34325
 O465 O 1.02030 0.39635 0.42510
 O466 O 1.02040 0.37195 0.40100
 C467 C 1.02742 0.37938 0.41790
 C468 C 1.04437 0.36853 0.42908
 C469 C 1.05189 0.34928 0.42198
 H470 H 1.04495 0.34207 0.40844
 O471 O 0.98139 0.60412 0.42486
 O472 O 0.98186 0.62847 0.40065
 C473 C 0.97458 0.62117 0.41753
 C474 C 0.95762 0.63227 0.42843
 C475 C 0.95071 0.65175 0.42134
 H476 H 0.95853 0.65918 0.40839
 O477 O 0.89770 0.57636 0.47899
 O478 O 0.87354 0.60065 0.47872
 C479 C 0.88090 0.58369 0.47173
 C480 C 0.87015 0.57260 0.45464
 C481 C 0.85090 0.57965 0.44718
 H482 H 0.84362 0.59309 0.45427
 O483 O 1.10315 0.42464 0.48069
 O484 O 1.12726 0.40029 0.48093
 C485 C 1.12006 0.41724 0.47374
 C486 C 1.13113 0.42817 0.45675
 C487 C 1.15049 0.42099 0.44974
 H488 H 1.15782 0.40794 0.45747
 O489 O 0.98104 0.57572 0.39635
 O490 O 0.98142 0.59996 0.37203
 C491 C 0.97409 0.58314 0.37941
 C492 C 0.95705 0.57226 0.36845
 C493 C 0.94975 0.57955 0.34919
 H494 H 0.95693 0.59297 0.34194
 O495 O 1.02039 0.42487 0.39658
 O496 O 1.02042 0.40062 0.37234
 C497 C 1.02750 0.41755 0.37968
 C498 C 1.04465 0.42849 0.36887
 C499 C 1.05186 0.42144 0.34951
 H500 H 1.04385 0.40875 0.34187
 O501 O 1.10395 0.47912 0.42552
 O502 O 1.12836 0.47890 0.40149
 C503 C 1.12086 0.47192 0.41840
 C504 C 1.13155 0.45490 0.42967
 C505 C 1.15089 0.44748 0.42286
 H506 H 1.15827 0.45455 0.40946
 O507 O 0.89800 0.52126 0.42426
 O508 O 0.87388 0.52143 0.39995
 C509 C 0.88120 0.52850 0.41688
 C510 C 0.87036 0.54563 0.42782
 C511 C 0.85111 0.55289 0.42063
 H512 H 0.84372 0.54529 0.40756
 O513 O 0.92623 0.60474 0.47909
 O514 O 0.90224 0.62919 0.47880
 C515 C 0.91914 0.62172 0.47188
 C516 C 0.93045 0.63254 0.45497
 C517 C 0.92372 0.65200 0.44761
 H518 H 0.91032 0.65936 0.45461
 O519 O 1.07446 0.39639 0.48048
 O520 O 1.09849 0.37197 0.48070
 C521 C 1.08173 0.37943 0.47344
 C522 C 1.07091 0.36859 0.45625
 C523 C 1.07817 0.34934 0.44894
 H524 H 1.09119 0.34191 0.45658
 O525 O 1.07594 0.51978 0.39677
 O526 O 1.10015 0.51962 0.37254
 C527 C 1.08330 0.52683 0.37984
 C528 C 1.07231 0.54386 0.36884
 C529 C 1.07915 0.55084 0.34928
 H530 H 1.09259 0.54363 0.34224
 O531 O 0.92614 0.48033 0.39594
 O532 O 0.90210 0.48051 0.37155
 C533 C 0.91887 0.47326 0.37900
 C534 C 0.92966 0.45598 0.36825
 C535 C 0.92250 0.44867 0.34897
 H536 H 0.90985 0.45670 0.34134
 O537 O 1.02188 0.60354 0.42491
 O538 O 1.02238 0.62785 0.40068
 C539 C 1.02926 0.62037 0.41763
 C540 C 1.04630 0.63105 0.42880
 C541 C 1.05375 0.65042 0.42191
 H542 H 1.04672 0.65781 0.40850
 O543 O 0.97983 0.39640 0.42500
 O544 O 0.97985 0.37197 0.40094
 C545 C 0.97271 0.37945 0.41777
 C546 C 0.95556 0.36873 0.42877
 C547 C 0.94811 0.34943 0.42175
 H548 H 0.95528 0.34204 0.40843
 O549 O 1.10438 0.57415 0.48042
 O550 O 1.12883 0.59816 0.48053
 C551 C 1.12136 0.58132 0.47339
 C552 C 1.13218 0.57029 0.45633
 C553 C 1.15144 0.57742 0.44905
 H554 H 1.15891 0.59045 0.45667
 O555 O 0.89669 0.42587 0.47932
 O556 O 0.87221 0.40189 0.47926
 C557 C 0.87977 0.41873 0.47214
 C558 C 0.86913 0.42986 0.45500
 C559 C 0.84986 0.42291 0.44751
 H560 H 0.84248 0.40954 0.45465
 Cu561 Cu 1.00011 0.41302 0.41319
 Cu562 Cu 1.00016 0.38380 0.38419
 Cu563 Cu 1.00141 0.58716 0.41309
 Cu564 Cu 1.00195 0.61629 0.38394
 Cu565 Cu 0.91446 0.50077 0.41252
 Cu566 Cu 0.88555 0.50098 0.38328
 Cu567 Cu 1.08753 0.49945 0.41352
 Cu568 Cu 1.11671 0.49921 0.38456
 C569 C 0.94651 0.44596 0.37779
 H570 H 0.95203 0.45146 0.39272
 C571 C 0.93146 0.43107 0.33953
 C572 C 1.05537 0.55382 0.37831
 H573 H 1.05031 0.54884 0.39360
 C574 C 1.06909 0.56738 0.33904
 C575 C 0.87878 0.44689 0.44525
 H576 H 0.89378 0.45214 0.45072
 C577 C 0.84037 0.43263 0.43039
 C578 C 1.12275 0.55326 0.44646
 H579 H 1.10774 0.54787 0.45181
 C580 C 1.16115 0.56793 0.43194
 C581 C 0.94577 0.37839 0.44574
 H582 H 0.95122 0.39343 0.45104
 C583 C 0.93096 0.33991 0.43135
 C584 C 1.05587 0.62142 0.44593
 H585 H 1.05041 0.60635 0.45115
 C586 C 1.07065 0.66004 0.43181
 C587 C 0.94738 0.55494 0.37766
 H588 H 0.95262 0.54951 0.39272
 C589 C 0.93320 0.56959 0.33913
 C590 C 1.05464 0.44539 0.37842
 H591 H 1.04923 0.45085 0.39341
 C592 C 1.06930 0.43056 0.33998
 C593 C 1.05388 0.37796 0.44634
 H594 H 1.04839 0.39295 0.45171
 C595 C 1.06882 0.33959 0.43178
 C596 C 0.94753 0.62291 0.44539
 H597 H 0.95260 0.60776 0.45077
 C598 C 0.93375 0.66172 0.43078
 C599 C 0.87965 0.55546 0.44496
 H600 H 0.89464 0.55012 0.45041
 C601 C 0.84128 0.56991 0.43017
 C602 C 1.12190 0.44525 0.44674
 H603 H 1.10684 0.45068 0.45188
 C604 C 1.16048 0.43053 0.43279
 O605 O 1.01924 0.42480 0.60415
 O606 O 1.01885 0.40058 0.62847
 C607 C 1.02610 0.41747 0.62116
 C608 C 1.04303 0.42843 0.63221
 C609 C 1.05011 0.42125 0.65158
 H610 H 1.04249 0.40814 0.65894
 O611 O 0.97981 0.57615 0.60322
 O612 O 0.97981 0.60044 0.62743
 C613 C 0.97264 0.58357 0.62006
 C614 C 0.95554 0.57262 0.63089
 C615 C 0.94811 0.57984 0.65011
 H616 H 0.95523 0.59325 0.65742
 O617 O 0.89718 0.52157 0.57456
 O618 O 0.87280 0.52178 0.59863
 C619 C 0.88032 0.52884 0.58177
 C620 C 0.86966 0.54605 0.57073
 C621 C 0.85056 0.55362 0.57798
 H622 H 0.84312 0.54617 0.59113
 O623 O 1.10256 0.47925 0.57649
 O624 O 1.12665 0.47906 0.60083
 C625 C 1.11936 0.47203 0.58386
 C626 C 1.13020 0.45498 0.57280
 C627 C 1.14946 0.44757 0.57988
 H628 H 1.15667 0.45465 0.59335
 O629 O 1.07421 0.39629 0.52110
 O630 O 1.09826 0.37189 0.52132
 C631 C 1.08139 0.37934 0.52831
 C632 C 1.07035 0.36852 0.54540
 C633 C 1.07766 0.34940 0.55302
 H634 H 1.09085 0.34201 0.54563
 O635 O 0.92592 0.60490 0.51962
 O636 O 0.90193 0.62936 0.51942
 C637 C 0.91872 0.62191 0.52662
 C638 C 0.92975 0.63276 0.54368
 C639 C 0.92275 0.65212 0.55103
 H640 H 0.90938 0.65942 0.54389
 O641 O 0.92495 0.48062 0.60329
 O642 O 0.90064 0.48083 0.62742
 C643 C 0.91748 0.47357 0.62017
 C644 C 0.92820 0.45638 0.63115
 C645 C 0.92097 0.44930 0.65050
 H646 H 0.90803 0.45709 0.65789
 O647 O 1.07429 0.52010 0.60466
 O648 O 1.09822 0.52002 0.62915
 C649 C 1.08148 0.52724 0.62160
 C650 C 1.07050 0.54446 0.63226
 C651 C 1.07738 0.55183 0.65165
 H652 H 1.09061 0.54457 0.65909
 O653 O 0.97885 0.39660 0.57534
 O654 O 0.97847 0.37220 0.59948
 C655 C 0.97160 0.37967 0.58252
 C656 C 0.95475 0.36886 0.57118
 C657 C 0.94769 0.34923 0.57774
 H658 H 0.95472 0.34197 0.59120
 O659 O 1.02083 0.60410 0.57502
 O660 O 1.02092 0.62852 0.59910
 C661 C 1.02805 0.62099 0.58229
 C662 C 1.04526 0.63161 0.57131
 C663 C 1.05270 0.65095 0.57826
 H664 H 1.04552 0.65839 0.59155
 O665 O 0.89656 0.42585 0.51993
 O666 O 0.87213 0.40184 0.51993
 C667 C 0.87960 0.41870 0.52702
 C668 C 0.86880 0.42986 0.54403
 C669 C 0.84952 0.42283 0.55144
 H670 H 0.84227 0.40937 0.54438
 O671 O 1.10406 0.57424 0.52104
 O672 O 1.12855 0.59821 0.52116
 C673 C 1.12096 0.58139 0.52827
 C674 C 1.13153 0.57029 0.54547
 C675 C 1.15089 0.57711 0.55283
 H676 H 1.15838 0.59035 0.54558
 O677 O 1.02026 0.57560 0.60355
 O678 O 1.02029 0.59990 0.62775
 C679 C 1.02724 0.58286 0.62053
 C680 C 1.04396 0.57165 0.63169
 C681 C 1.05101 0.57873 0.65109
 H682 H 1.04347 0.59190 0.65838
 O683 O 0.97883 0.42504 0.60382
 O684 O 0.97837 0.40080 0.62812
 C685 C 0.97153 0.41781 0.62069
 C686 C 0.95461 0.42909 0.63143
 C687 C 0.94714 0.42220 0.65078
 H688 H 0.95408 0.40872 0.65813
 O689 O 1.10285 0.51979 0.57634
 O690 O 1.12692 0.51967 0.60070
 C691 C 1.11976 0.52676 0.58369
 C692 C 1.13089 0.54361 0.57260
 C693 C 1.15025 0.55062 0.57971
 H694 H 1.15751 0.54303 0.59288
 O695 O 0.89680 0.48092 0.57458
 O696 O 0.87239 0.48112 0.59862
 C697 C 0.87981 0.47394 0.58178
 C698 C 0.86892 0.45689 0.57077
 C699 C 0.84964 0.44966 0.57792
 H700 H 0.84223 0.45728 0.59098
 O701 O 1.07594 0.60304 0.52071
 O702 O 1.10033 0.62712 0.52081
 C703 C 1.08333 0.61994 0.52779
 C704 C 1.07229 0.63106 0.54465
 C705 C 1.07948 0.65040 0.55179
 H706 H 1.09265 0.65768 0.54426
 O707 O 0.92476 0.39709 0.51996
 O708 O 0.90046 0.37293 0.51988
 C709 C 0.91740 0.38013 0.52696
 C710 C 0.92841 0.36901 0.54388
 C711 C 0.92182 0.34921 0.55038
 H712 H 0.90933 0.34158 0.54212
 O713 O 1.07399 0.47947 0.60479
 O714 O 1.09794 0.47930 0.62927
 C715 C 1.08109 0.47230 0.62178
 C716 C 1.06990 0.45528 0.63256
 C717 C 1.07678 0.44785 0.65192
 H718 H 1.09014 0.45494 0.65928
 O719 O 0.92531 0.52123 0.60336
 O720 O 0.90103 0.52143 0.62752
 C721 C 0.91800 0.52837 0.62026
 C722 C 0.92906 0.54536 0.63118
 C723 C 0.92212 0.55255 0.65060
 H724 H 0.90901 0.54514 0.65813
 O725 O 0.98036 0.60449 0.57456
 O726 O 0.98041 0.62889 0.59866
 C727 C 0.97339 0.62152 0.58173
 C728 C 0.95654 0.63254 0.57058
 C729 C 0.94938 0.65192 0.57765
 H730 H 0.95695 0.65933 0.59073
 O731 O 1.01933 0.39631 0.57571
 O732 O 1.01903 0.37196 0.59991
 C733 C 1.02631 0.37935 0.58308
 C734 C 1.04345 0.36849 0.57221
 C735 C 1.05104 0.34937 0.57965
 H736 H 1.04399 0.34225 0.59320
 O737 O 1.10266 0.42475 0.52131
 O738 O 1.12679 0.40042 0.52151
 C739 C 1.11944 0.41736 0.52856
 C740 C 1.13021 0.42829 0.54572
 C741 C 1.14946 0.42113 0.55300
 H742 H 1.15693 0.40812 0.54536
 O743 O 0.89748 0.57647 0.51960
 O744 O 0.87334 0.60078 0.51943
 C745 C 0.88062 0.58387 0.52665
 C746 C 0.86975 0.57295 0.54379
 C747 C 0.85065 0.58033 0.55132
 H748 H 0.84356 0.59388 0.54423
 Cu749 Cu 0.99909 0.41311 0.58732
 Cu750 Cu 0.99863 0.38393 0.61643
 Cu751 Cu 1.00031 0.58765 0.58667
 Cu752 Cu 1.00037 0.61689 0.61566
 Cu753 Cu 0.91314 0.41391 0.49968
 Cu754 Cu 0.88386 0.38503 0.49961
 Cu755 Cu 1.08621 0.41296 0.50087
 Cu756 Cu 1.11511 0.38369 0.50114
 Cu757 Cu 0.91423 0.58818 0.49934
 Cu758 Cu 0.88532 0.61743 0.49905
 Cu759 Cu 1.08771 0.58615 0.50058
 Cu760 Cu 1.11702 0.61502 0.50070
 Cu761 Cu 0.91350 0.50108 0.58654
 Cu762 Cu 0.88426 0.50131 0.61545
 Cu763 Cu 1.08600 0.49967 0.58815
 Cu764 Cu 1.11484 0.49950 0.61745
 C765 C 1.05290 0.44558 0.62294
 H766 H 1.04770 0.45102 0.60786
 C767 C 1.06700 0.43082 0.66154
 C768 C 0.94598 0.55531 0.62161
 H769 H 0.95133 0.54994 0.60658
 C770 C 0.93151 0.56981 0.66007
 C771 C 0.87903 0.55569 0.55351
 H772 H 0.89391 0.55010 0.54802
 C773 C 0.84096 0.57079 0.56844
 C774 C 1.12081 0.44534 0.55560
 H775 H 1.10582 0.45075 0.55024
 C776 C 1.15920 0.43064 0.57009
 C777 C 1.05311 0.37783 0.55497
 H778 H 1.04757 0.39273 0.54935
 C779 C 1.06818 0.33974 0.57018
 C780 C 0.94676 0.62321 0.55345
 H781 H 0.95203 0.60812 0.54810
 C782 C 0.93245 0.66181 0.56805
 C783 C 0.94515 0.44631 0.62185
 H784 H 0.95062 0.45152 0.60679
 C785 C 0.93031 0.43221 0.66043
 C786 C 1.05367 0.55437 0.62251
 H787 H 1.04849 0.54901 0.60742
 C788 C 1.06774 0.56898 0.66117
 C789 C 0.94506 0.37856 0.55419
 H790 H 0.95014 0.39388 0.54932
 C791 C 0.93129 0.33917 0.56738
 C792 C 1.05505 0.62190 0.55438
 H793 H 1.04960 0.60685 0.54913
 C794 C 1.06983 0.66045 0.56861
 C795 C 0.87827 0.44702 0.55369
 H796 H 0.89328 0.45232 0.54828
 C797 C 0.83984 0.43261 0.56841
 C798 C 1.12176 0.55341 0.55534
 H799 H 1.10670 0.54827 0.54995
 C800 C 1.16036 0.56738 0.56996
 O801 O 0.57436 1.01958 0.60457
 O802 O 0.59837 1.01938 0.62898
 C803 C 0.58161 1.02665 0.62151
 C804 C 0.57071 1.04387 0.63225
 C805 C 0.57773 1.05128 0.65157
 H806 H 0.59101 1.04403 0.65894
 O807 O 0.42499 0.98025 0.60355
 O808 O 0.40074 0.98039 0.62774
 C809 C 0.41760 0.97321 0.62047
 C810 C 0.42840 0.95604 0.63141
 C811 C 0.42125 0.94885 0.65077
 H812 H 0.40823 0.95642 0.65829
 O813 O 0.52077 1.10366 0.57533
 O814 O 0.52088 1.12803 0.59945
 C815 C 0.52797 1.12056 0.58260
 C816 C 0.54512 1.13127 0.57157
 C817 C 0.55258 1.15058 0.57860
 H818 H 0.54546 1.15793 0.59196
 O819 O 0.47894 0.89610 0.57507
 O820 O 0.47857 0.87164 0.59916
 C821 C 0.47170 0.87915 0.58221
 C822 C 0.45477 0.86841 0.57092
 C823 C 0.44738 0.84899 0.57774
 H824 H 0.45442 0.84157 0.59113
 O825 O 0.60373 1.07413 0.52105
 O826 O 0.62817 1.09815 0.52122
 C827 C 0.62058 1.08132 0.52832
 C828 C 0.63111 1.07032 0.54562
 C829 C 0.65014 1.07759 0.55337
 H830 H 0.65765 1.09076 0.54601
 O831 O 0.39641 0.92546 0.51985
 O832 O 0.37195 0.90147 0.51979
 C833 C 0.37946 0.91829 0.52694
 C834 C 0.36873 0.92938 0.54404
 C835 C 0.34944 0.92237 0.55145
 H836 H 0.34212 0.90899 0.54432
 O837 O 0.47996 1.07554 0.60368
 O838 O 0.47997 1.09976 0.62795
 C839 C 0.47282 1.08289 0.62056
 C840 C 0.45569 1.07192 0.63134
 C841 C 0.44822 1.07905 0.65060
 H842 H 0.45534 1.09247 0.65788
 O843 O 0.51924 0.92428 0.60406
 O844 O 0.51889 0.89999 0.62832
 C845 C 0.52615 0.91688 0.62102
 C846 C 0.54321 0.92775 0.63199
 C847 C 0.55060 0.92035 0.65118
 H848 H 0.54315 0.90713 0.65851
 O849 O 0.60247 0.97879 0.57610
 O850 O 0.62665 0.97854 0.60036
 C851 C 0.61928 0.97152 0.58342
 C852 C 0.63002 0.95440 0.57236
 C853 C 0.64921 0.94689 0.57951
 H854 H 0.65641 0.95394 0.59300
 O855 O 0.39690 1.02094 0.57473
 O856 O 0.37253 1.02101 0.59881
 C857 C 0.37998 1.02809 0.58193
 C858 C 0.36918 1.04518 0.57086
 C859 C 0.34992 1.05247 0.57795
 H860 H 0.34245 1.04485 0.59098
 O861 O 0.42559 1.10426 0.52017
 O862 O 0.40160 1.12873 0.52011
 C863 C 0.41840 1.12123 0.52726
 C864 C 0.42945 1.13202 0.54434
 C865 C 0.42243 1.15134 0.55176
 H866 H 0.40904 1.15864 0.54466
 O867 O 0.57393 0.89560 0.52059
 O868 O 0.59795 0.87116 0.52070
 C869 C 0.58106 0.87858 0.52767
 C870 C 0.56992 0.86769 0.54465
 C871 C 0.57686 0.84829 0.55195
 H872 H 0.58997 0.84072 0.54462
 O873 O 0.42521 1.02088 0.60332
 O874 O 0.40093 1.02100 0.62749
 C875 C 0.41785 1.02804 0.62019
 C876 C 0.42882 1.04508 0.63111
 C877 C 0.42160 1.05240 0.65036
 H878 H 0.40848 1.04486 0.65773
 O879 O 0.57401 0.97894 0.60451
 O880 O 0.59806 0.97869 0.62889
 C881 C 0.58118 0.97171 0.62144
 C882 C 0.57008 0.95461 0.63221
 C883 C 0.57722 0.94701 0.65140
 H884 H 0.59067 0.95405 0.65864
 O885 O 0.51940 0.89595 0.57550
 O886 O 0.51910 0.87153 0.59964
 C887 C 0.52638 0.87897 0.58283
 C888 C 0.54343 0.86807 0.57190
 C889 C 0.55092 0.84891 0.57927
 H890 H 0.54391 0.84167 0.59278
 O891 O 0.48028 1.10385 0.57500
 O892 O 0.48034 1.12819 0.59915
 C893 C 0.47326 1.12083 0.58224
 C894 C 0.45631 1.13180 0.57119
 C895 C 0.44909 1.15113 0.57835
 H896 H 0.45665 1.15852 0.59144
 O897 O 0.39700 1.07595 0.51998
 O898 O 0.37286 1.10026 0.51993
 C899 C 0.38012 1.08329 0.52704
 C900 C 0.36919 1.07221 0.54405
 C901 C 0.34993 1.07933 0.55143
 H902 H 0.34275 1.09283 0.54433
 O903 O 0.60236 0.92413 0.52095
 O904 O 0.62648 0.89979 0.52109
 C905 C 0.61914 0.91672 0.52819
 C906 C 0.62993 0.92762 0.54537
 C907 C 0.64913 0.92036 0.55272
 H908 H 0.65654 0.90728 0.54514
 O909 O 0.47877 0.92451 0.60360
 O910 O 0.47833 0.90019 0.62783
 C911 C 0.47144 0.91718 0.62042
 C912 C 0.45445 0.92835 0.63118
 C913 C 0.44675 0.92111 0.65029
 H914 H 0.45353 0.90749 0.65758
 O915 O 0.52039 1.07505 0.60376
 O916 O 0.52046 1.09930 0.62801
 C917 C 0.52741 1.08229 0.62073
 C918 C 0.54420 1.07109 0.63180
 C919 C 0.55139 1.07821 0.65113
 H920 H 0.54392 1.09141 0.65844
 O921 O 0.39686 0.98031 0.57475
 O922 O 0.37252 0.98039 0.59885
 C923 C 0.37992 0.97326 0.58198
 C924 C 0.36901 0.95624 0.57095
 C925 C 0.34973 0.94903 0.57810
 H926 H 0.34236 0.95661 0.59120
 O927 O 0.60282 1.01941 0.57615
 O928 O 0.62695 1.01921 0.60045
 C929 C 0.61971 1.02640 0.58353
 C930 C 0.63070 1.04346 0.57259
 C931 C 0.64975 1.05097 0.58011
 H932 H 0.65669 1.04391 0.59374
 O933 O 0.42465 0.89681 0.51982
 O934 O 0.40031 0.87268 0.51972
 C935 C 0.41723 0.87989 0.52685
 C936 C 0.42812 0.86882 0.54387
 C937 C 0.42098 0.84940 0.55089
 H938 H 0.40798 0.84204 0.54317
 O939 O 0.57568 1.10296 0.52072
 O940 O 0.60002 1.12708 0.52085
 C941 C 0.58304 1.11986 0.52784
 C942 C 0.57203 1.13089 0.54478
 C943 C 0.57924 1.15019 0.55200
 H944 H 0.59238 1.15752 0.54446
 Cu945 Cu 0.58600 0.99920 0.58791
 Cu946 Cu 0.61493 0.99892 0.61712
 Cu947 Cu 0.41343 1.00058 0.58668
 Cu948 Cu 0.38423 1.00071 0.61564
 Cu949 Cu 0.50035 1.08710 0.58701
 Cu950 Cu 0.50043 1.11627 0.61606
 Cu951 Cu 0.49912 0.91265 0.58715
 Cu952 Cu 0.49867 0.88339 0.61617
 C953 C 0.55382 1.05378 0.62260
 H954 H 0.54853 1.04838 0.60755
 C955 C 0.56819 1.06847 0.66111
 C956 C 0.44522 0.94588 0.62191
 H957 H 0.45075 0.95125 0.60693
 C958 C 0.43028 0.93136 0.66019
 C959 C 0.55484 1.12166 0.55454
 H960 H 0.54938 1.10663 0.54923
 C961 C 0.56966 1.16014 0.56893
 C962 C 0.44515 0.87809 0.55385
 H963 H 0.45055 0.89321 0.54870
 C964 C 0.43047 0.83938 0.56783
 C965 C 0.62162 1.05312 0.55522
 H966 H 0.60678 1.04763 0.54953
 C967 C 0.65955 1.06805 0.57063
 C968 C 0.37829 0.94644 0.55379
 H969 H 0.39330 0.95174 0.54837
 C970 C 0.33984 0.93208 0.56850
 C971 C 0.44599 1.05482 0.62183
 H972 H 0.45145 1.04943 0.60684
 C973 C 0.43115 1.06940 0.66020
 C974 C 0.55294 0.94501 0.62275
 H975 H 0.54754 0.95060 0.60780
 C976 C 0.56760 0.92988 0.66100
 C977 C 0.62061 0.94477 0.55517
 H978 H 0.60567 0.95027 0.54976
 C979 C 0.65888 0.92987 0.56980
 C980 C 0.37859 1.05501 0.55377
 H981 H 0.39358 1.04964 0.54840
 C982 C 0.34019 1.06958 0.56841
 C983 C 0.44652 1.12248 0.55405
 H984 H 0.45182 1.10743 0.54864
 C985 C 0.43213 1.16099 0.56878
 C986 C 0.55298 0.87729 0.55453
 H987 H 0.54762 0.89231 0.54906
 C988 C 0.56751 0.83893 0.56929
 O989 O 0.57526 0.97941 0.39664
 O990 O 0.59951 0.97928 0.37244
 C991 C 0.58255 0.97230 0.37972
 C992 C 0.57144 0.95536 0.36876
 C993 C 0.57855 0.94798 0.34946
 H994 H 0.59201 0.95506 0.34227
 O995 O 0.42609 1.02099 0.39598
 O996 O 0.40206 1.02116 0.37158
 C997 C 0.41895 1.02813 0.37900
 C998 C 0.43007 1.04517 0.36819
 C999 C 0.42314 1.05255 0.34883
 H1000 H 0.41004 1.04522 0.34122
 O1001 O 0.48096 1.10405 0.42521
 O1002 O 0.48128 1.12847 0.40109
 C1003 C 0.47406 1.12109 0.41795
 C1004 C 0.45707 1.13207 0.42891
 C1005 C 0.44997 1.15146 0.42176
 H1006 H 0.45765 1.15890 0.40874
 O1007 O 0.52006 0.89617 0.42475
 O1008 O 0.52007 0.87188 0.40054
 C1009 C 0.52711 0.87921 0.41747
 C1010 C 0.54405 0.86826 0.42858
 C1011 C 0.55155 0.84903 0.42138
 H1012 H 0.54459 0.84188 0.40782
 O1013 O 0.60278 0.92419 0.48032
 O1014 O 0.62692 0.89986 0.48046
 C1015 C 0.61968 0.91681 0.47331
 C1016 C 0.63066 0.92777 0.45626
 C1017 C 0.64990 0.92051 0.44905
 H1018 H 0.65724 0.90740 0.45668
 O1019 O 0.39727 1.07604 0.47939
 O1020 O 0.37313 1.10036 0.47925
 C1021 C 0.38047 1.08343 0.47216
 C1022 C 0.36974 1.07246 0.45499
 C1023 C 0.35053 1.07960 0.44751
 H1024 H 0.34326 1.09302 0.45464
 O1025 O 0.52109 1.07516 0.39664
 O1026 O 0.52142 1.09943 0.37236
 C1027 C 0.52827 1.08239 0.37971
 C1028 C 0.54520 1.07118 0.36887
 C1029 C 0.55255 1.07817 0.34950
 H1030 H 0.54529 1.09137 0.34193
 O1031 O 0.47987 0.92495 0.39618
 O1032 O 0.47976 0.90078 0.37185
 C1033 C 0.47277 0.91773 0.37923
 C1034 C 0.45585 0.92892 0.36835
 C1035 C 0.44836 0.92181 0.34910
 H1036 H 0.45531 0.90827 0.34189
 O1037 O 0.60387 1.01956 0.42552
 O1038 O 0.62824 1.01944 0.40144
 C1039 C 0.62087 1.02652 0.41834
 C1040 C 0.63184 1.04344 0.42946
 C1041 C 0.65111 1.05068 0.42232
 H1042 H 0.65847 1.04315 0.40918
 O1043 O 0.39728 0.98068 0.42453
 O1044 O 0.37312 0.98086 0.40026
 C1045 C 0.38035 0.97371 0.41720
 C1046 C 0.36930 0.95676 0.42823
 C1047 C 0.34994 0.94973 0.42111
 H1048 H 0.34260 0.95742 0.40804
 O1049 O 0.57594 1.10284 0.48014
 O1050 O 0.60030 1.12694 0.48026
 C1051 C 0.58341 1.11972 0.47306
 C1052 C 0.57262 1.13074 0.45595
 C1053 C 0.57993 1.15003 0.44874
 H1054 H 0.59302 1.15734 0.45637
 O1055 O 0.42461 0.89682 0.47926
 O1056 O 0.40027 0.87270 0.47911
 C1057 C 0.41723 0.87995 0.47209
 C1058 C 0.42826 0.86901 0.45509
 C1059 C 0.42112 0.84972 0.44770
 H1060 H 0.40764 0.84255 0.45476
 O1061 O 0.42579 0.98037 0.39615
 O1062 O 0.40172 0.98055 0.37179
 C1063 C 0.41849 0.97330 0.37922
 C1064 C 0.42932 0.95610 0.36840
 C1065 C 0.42207 0.94880 0.34916
 H1066 H 0.40906 0.95645 0.34172
 O1067 O 0.57560 1.02006 0.39695
 O1068 O 0.59986 1.01998 0.37276
 C1069 C 0.58305 1.02723 0.38011
 C1070 C 0.57225 1.04446 0.36926
 C1071 C 0.57965 1.05200 0.35014
 H1072 H 0.59309 1.04490 0.34291
 O1073 O 0.47959 0.89658 0.42480
 O1074 O 0.47953 0.87229 0.40059
 C1075 C 0.47243 0.87970 0.41747
 C1076 C 0.45528 0.86892 0.42841
 C1077 C 0.44795 0.84964 0.42126
 H1078 H 0.45554 0.84214 0.40824
 O1079 O 0.52146 1.10369 0.42510
 O1080 O 0.52183 1.12809 0.40096
 C1081 C 0.52879 1.12056 0.41786
 C1082 C 0.54591 1.13119 0.42897
 C1083 C 0.55346 1.15048 0.42197
 H1084 H 0.54644 1.15787 0.40855
 O1085 O 0.39653 0.92565 0.47926
 O1086 O 0.37205 0.90167 0.47914
 C1087 C 0.37959 0.91855 0.47210
 C1088 C 0.36889 0.92979 0.45507
 C1089 C 0.34953 0.92296 0.44771
 H1090 H 0.34214 0.90960 0.45484
 O1091 O 0.60424 1.07422 0.48043
 O1092 O 0.62870 1.09821 0.48056
 C1093 C 0.62124 1.08136 0.47342
 C1094 C 0.63207 1.07025 0.45641
 C1095 C 0.65135 1.07731 0.44901
 H1096 H 0.65862 1.09072 0.45614
 O1097 O 0.52031 0.92490 0.39647
 O1098 O 0.52027 0.90074 0.37213
 C1099 C 0.52741 0.91761 0.37955
 C1100 C 0.54449 0.92859 0.36873
 C1101 C 0.55179 0.92146 0.34944
 H1102 H 0.54422 0.90841 0.34196
 O1103 O 0.48064 1.07583 0.39653
 O1104 O 0.48091 1.10015 0.37229
 C1105 C 0.47362 1.08329 0.37963
 C1106 C 0.45655 1.07244 0.36870
 C1107 C 0.44907 1.07989 0.34957
 H1108 H 0.45609 1.09344 0.34239
 O1109 O 0.39763 1.02130 0.42446
 O1110 O 0.37350 1.02147 0.40016
 C1111 C 0.38082 1.02852 0.41709
 C1112 C 0.36998 1.04563 0.42805
 C1113 C 0.35077 1.05297 0.42083
 H1114 H 0.34341 1.04544 0.40770
 O1115 O 0.60343 0.97898 0.42535
 O1116 O 0.62780 0.97882 0.40128
 C1117 C 0.62029 0.97173 0.41814
 C1118 C 0.63095 0.95458 0.42925
 C1119 C 0.65018 0.94706 0.42223
 H1120 H 0.65747 0.95412 0.40878
 O1121 O 0.57418 0.89590 0.48002
 O1122 O 0.59823 0.87149 0.48013
 C1123 C 0.58146 0.87897 0.47291
 C1124 C 0.57062 0.86820 0.45570
 C1125 C 0.57787 0.84898 0.44831
 H1126 H 0.59090 0.84152 0.45590
 O1127 O 0.42584 1.10436 0.47962
 O1128 O 0.40186 1.12883 0.47947
 C1129 C 0.41873 1.12137 0.47249
 C1130 C 0.42999 1.13222 0.45555
 C1131 C 0.42309 1.15161 0.44814
 H1132 H 0.40966 1.15891 0.45516
 Cu1133 Cu 0.58710 0.99950 0.41351
 Cu1134 Cu 0.61629 0.99936 0.38455
 Cu1135 Cu 0.41412 1.00082 0.41271
 Cu1136 Cu 0.38518 1.00103 0.38350
 Cu1137 Cu 0.58747 1.08612 0.50056
 Cu1138 Cu 0.61676 1.11500 0.50074
 Cu1139 Cu 0.58591 0.91240 0.50047
 Cu1140 Cu 0.61482 0.88314 0.50062
 Cu1141 Cu 0.41381 1.08771 0.49980
 Cu1142 Cu 0.38494 1.11700 0.49968
 Cu1143 Cu 0.41298 0.91359 0.49955
 Cu1144 Cu 0.38369 0.88472 0.49943
 Cu1145 Cu 0.50102 1.08725 0.41329
 Cu1146 Cu 0.50141 1.11649 0.38425
 Cu1147 Cu 0.49997 0.91307 0.41298
 Cu1148 Cu 0.49991 0.88398 0.38384
 C1149 C 0.55429 0.94568 0.37815
 H1150 H 0.54893 0.95106 0.39318
 C1151 C 0.56884 0.93101 0.33970
 C1152 C 0.44699 1.05502 0.37783
 H1153 H 0.45235 1.04948 0.39281
 C1154 C 0.43250 1.06994 0.33954
 C1155 C 0.44711 1.12269 0.44595
 H1156 H 0.45231 1.10759 0.45135
 C1157 C 0.43296 1.16133 0.43123
 C1158 C 0.55358 0.87761 0.44587
 H1159 H 0.54810 0.89258 0.45131
 C1160 C 0.56850 0.83931 0.43112
 C1161 C 0.62142 0.94493 0.44639
 H1162 H 0.60644 0.95044 0.45169
 C1163 C 0.65978 0.93002 0.43202
 C1164 C 0.37923 1.05535 0.44526
 H1165 H 0.39418 1.04995 0.45074
 C1166 C 0.34094 1.06996 0.43041
 C1167 C 0.55496 1.05411 0.37845
 H1168 H 0.54946 1.04871 0.39343
 C1169 C 0.56980 1.06871 0.34016
 C1170 C 0.44634 0.94619 0.37777
 H1171 H 0.45181 0.95156 0.39276
 C1172 C 0.43144 0.93163 0.33941
 C1173 C 0.62255 1.05319 0.44664
 H1174 H 0.60754 1.04787 0.45203
 C1175 C 0.66096 1.06765 0.43193
 C1176 C 0.37854 0.94682 0.44534
 H1177 H 0.39361 0.95198 0.45072
 C1178 C 0.33995 0.93282 0.43072
 C1179 C 0.55548 1.12155 0.44608
 H1180 H 0.54994 1.10653 0.45138
 C1181 C 0.57048 1.16002 0.43175
 C1182 C 0.44546 0.87838 0.44546
 H1183 H 0.45086 0.89339 0.45086
 C1184 C 0.43086 0.83994 0.43076
 O1185 O 0.48023 0.42544 0.89606
 O1186 O 0.48021 0.40130 0.87171
 C1187 C 0.47314 0.41819 0.87912
 C1188 C 0.45613 0.42929 0.86828
 C1189 C 0.44869 0.42218 0.84901
 H1190 H 0.45574 0.40870 0.84177
 O1191 O 0.52109 0.57572 0.89699
 O1192 O 0.52126 0.59999 0.87271
 C1193 C 0.52827 0.58303 0.88009
 C1194 C 0.54527 0.57197 0.86920
 C1195 C 0.55246 0.57906 0.84984
 H1196 H 0.54489 0.59214 0.84240
 O1197 O 0.39712 0.48043 0.92460
 O1198 O 0.37304 0.48049 0.90025
 C1199 C 0.38029 0.47333 0.91719
 C1200 C 0.36939 0.45619 0.92809
 C1201 C 0.35010 0.44903 0.92094
 H1202 H 0.34269 0.45673 0.90792
 O1203 O 0.60418 0.52048 0.92503
 O1204 O 0.62850 0.52044 0.90090
 C1205 C 0.62111 0.52756 0.91778
 C1206 C 0.63193 0.54464 0.92880
 C1207 C 0.65105 0.55222 0.92151
 H1208 H 0.65820 0.54516 0.90800
 O1209 O 0.42531 0.39661 0.97920
 O1210 O 0.40118 0.37228 0.97899
 C1211 C 0.41809 0.37968 0.97202
 C1212 C 0.42924 0.36885 0.95503
 C1213 C 0.42227 0.34950 0.94764
 H1214 H 0.40886 0.34220 0.95473
 O1215 O 0.57588 0.60373 0.97979
 O1216 O 0.59997 0.62810 0.97993
 C1217 C 0.58314 0.62073 0.97277
 C1218 C 0.57203 0.63178 0.95588
 C1219 C 0.57885 0.65134 0.94886
 H1220 H 0.59239 0.65834 0.95593
 O1221 O 0.42575 0.52103 0.89631
 O1222 O 0.40181 0.52113 0.87182
 C1223 C 0.41864 0.52818 0.87932
 C1224 C 0.42981 0.54520 0.86853
 C1225 C 0.42297 0.55253 0.84911
 H1226 H 0.40963 0.54540 0.84176
 O1227 O 0.57568 0.48009 0.89636
 O1228 O 0.59989 0.48001 0.87213
 C1229 C 0.58296 0.47299 0.87943
 C1230 C 0.57186 0.45605 0.86847
 C1231 C 0.57897 0.44866 0.84917
 H1232 H 0.59245 0.45572 0.84199
 O1233 O 0.52072 0.39691 0.92450
 O1234 O 0.52080 0.37268 0.90023
 C1235 C 0.52786 0.38002 0.91715
 C1236 C 0.54482 0.36909 0.92821
 C1237 C 0.55241 0.34997 0.92085
 H1238 H 0.54554 0.34281 0.90723
 O1239 O 0.48039 0.60426 0.92520
 O1240 O 0.48057 0.62859 0.90098
 C1241 C 0.47338 0.62122 0.91785
 C1242 C 0.45633 0.63217 0.92875
 C1243 C 0.44929 0.65160 0.92163
 H1244 H 0.45705 0.65906 0.90867
 O1245 O 0.39668 0.57601 0.97902
 O1246 O 0.37251 0.60030 0.97887
 C1247 C 0.37988 0.58339 0.97179
 C1248 C 0.36915 0.57237 0.95466
 C1249 C 0.34997 0.57951 0.94713
 H1250 H 0.34274 0.59299 0.95418
 O1251 O 0.60301 0.42487 0.98014
 O1252 O 0.62717 0.40057 0.98017
 C1253 C 0.61990 0.41754 0.97307
 C1254 C 0.63087 0.42857 0.95606
 C1255 C 0.65018 0.42142 0.94894
 H1256 H 0.65752 0.40831 0.95657
 O1257 O 0.48060 0.57573 0.89676
 O1258 O 0.48077 0.59997 0.87245
 C1259 C 0.47363 0.58304 0.87978
 C1260 C 0.45670 0.57203 0.86878
 C1261 C 0.44966 0.57912 0.84937
 H1262 H 0.45730 0.59217 0.84195
 O1263 O 0.52070 0.42557 0.89617
 O1264 O 0.52071 0.40144 0.87180
 C1265 C 0.52780 0.41832 0.87923
 C1266 C 0.54486 0.42933 0.86841
 C1267 C 0.55217 0.42220 0.84912
 H1268 H 0.54458 0.40916 0.84163
 O1269 O 0.60371 0.47986 0.92521
 O1270 O 0.62807 0.47974 0.90113
 C1271 C 0.62058 0.47264 0.91801
 C1272 C 0.63125 0.45550 0.92914
 C1273 C 0.65055 0.44808 0.92222
 H1274 H 0.65792 0.45522 0.90886
 O1275 O 0.39703 0.52108 0.92448
 O1276 O 0.37298 0.52115 0.90010
 C1277 C 0.38023 0.52824 0.91704
 C1278 C 0.36933 0.54537 0.92791
 C1279 C 0.35014 0.55269 0.92063
 H1280 H 0.34277 0.54509 0.90755
 O1281 O 0.42511 0.60444 0.97936
 O1282 O 0.40110 0.62889 0.97925
 C1283 C 0.41798 0.62145 0.97226
 C1284 C 0.42923 0.63234 0.95534
 C1285 C 0.42237 0.65175 0.94796
 H1286 H 0.40894 0.65905 0.95498
 O1287 O 0.57466 0.39625 0.98004
 O1288 O 0.59871 0.37184 0.98008
 C1289 C 0.58190 0.37929 0.97295
 C1290 C 0.57098 0.36853 0.95577
 C1291 C 0.57802 0.34917 0.94846
 H1292 H 0.59103 0.34154 0.95592
 O1293 O 0.57567 0.52068 0.89671
 O1294 O 0.59984 0.52068 0.87244
 C1295 C 0.58299 0.52784 0.87982
 C1296 C 0.57203 0.54499 0.86901
 C1297 C 0.57904 0.55236 0.84966
 H1298 H 0.59239 0.54518 0.84237
 O1299 O 0.42562 0.48042 0.89623
 O1300 O 0.40164 0.48052 0.87178
 C1301 C 0.41843 0.47336 0.87925
 C1302 C 0.42941 0.45628 0.86839
 C1303 C 0.42223 0.44897 0.84912
 H1304 H 0.40917 0.45655 0.84170
 O1305 O 0.52085 0.60425 0.92549
 O1306 O 0.52101 0.62863 0.90131
 C1307 C 0.52794 0.62124 0.91828
 C1308 C 0.54482 0.63215 0.92946
 C1309 C 0.55153 0.65191 0.92297
 H1310 H 0.54335 0.65971 0.91050
 O1311 O 0.48023 0.39693 0.92458
 O1312 O 0.48028 0.37267 0.90034
 C1313 C 0.47318 0.37999 0.91726
 C1314 C 0.45617 0.36904 0.92825
 C1315 C 0.44899 0.34969 0.92111
 H1316 H 0.45660 0.34227 0.90805
 O1317 O 0.60414 0.57510 0.97988
 O1318 O 0.62835 0.59936 0.97997
 C1319 C 0.62102 0.58246 0.97281
 C1320 C 0.63186 0.57153 0.95568
 C1321 C 0.65096 0.57890 0.94815
 H1322 H 0.65831 0.59211 0.95557
 O1323 O 0.39687 0.42508 0.97901
 O1324 O 0.37260 0.40089 0.97880
 C1325 C 0.38001 0.41784 0.97179
 C1326 C 0.36924 0.42904 0.95477
 C1327 C 0.34995 0.42208 0.94736
 H1328 H 0.34267 0.40861 0.95442
 Cu1329 Cu 0.50046 0.41363 0.91276
 Cu1330 Cu 0.50050 0.38459 0.88358
 Cu1331 Cu 0.50073 0.58756 0.91354
 Cu1332 Cu 0.50093 0.61672 0.88442
 Cu1333 Cu 0.41378 0.50074 0.91286
 Cu1334 Cu 0.38495 0.50083 0.88354
 Cu1335 Cu 0.58739 0.50027 0.91324
 Cu1336 Cu 0.61652 0.50020 0.88423
 C1337 C 0.44649 0.44646 0.87774
 H1338 H 0.45192 0.45184 0.89275
 C1339 C 0.43171 0.43190 0.83934
 C1340 C 0.55502 0.55481 0.87856
 H1341 H 0.54972 0.54943 0.89362
 C1342 C 0.56937 0.56941 0.83996
 C1343 C 0.37873 0.44622 0.94514
 H1344 H 0.39375 0.45149 0.95056
 C1345 C 0.34027 0.43197 0.93044
 C1346 C 0.62259 0.55428 0.94602
 H1347 H 0.60770 0.54873 0.95153
 C1348 C 0.66066 0.56936 0.93106
 C1349 C 0.44633 0.37838 0.94535
 H1350 H 0.45159 0.39345 0.95074
 C1351 C 0.43203 0.33981 0.93067
 C1352 C 0.55497 0.62237 0.94612
 H1353 H 0.54992 0.60709 0.95114
 C1354 C 0.56864 0.66166 0.93247
 C1355 C 0.44681 0.55493 0.87813
 H1356 H 0.45198 0.54957 0.89324
 C1357 C 0.43278 0.56950 0.83943
 C1358 C 0.55468 0.44639 0.87785
 H1359 H 0.54931 0.45178 0.89288
 C1360 C 0.56924 0.43171 0.83940
 C1361 C 0.55417 0.37819 0.94573
 H1362 H 0.54873 0.39317 0.95121
 C1363 C 0.56887 0.33992 0.93097
 C1364 C 0.44634 0.62278 0.94574
 H1365 H 0.45152 0.60767 0.95112
 C1366 C 0.43229 0.66149 0.93109
 C1367 C 0.37860 0.55518 0.94506
 H1368 H 0.39354 0.54979 0.95057
 C1369 C 0.34034 0.56977 0.93011
 C1370 C 0.62163 0.44575 0.94619
 H1371 H 0.60660 0.45117 0.95142
 C1372 C 0.66012 0.43103 0.93201
 O1373 O 0.51971 0.42518 1.10345
 O1374 O 0.51950 0.40103 1.12785
 C1375 C 0.52670 0.41790 1.12043
 C1376 C 0.54378 0.42883 1.13131
 C1377 C 0.55099 0.42162 1.15062
 H1378 H 0.54336 0.40857 1.15807
 O1379 O 0.47959 0.57520 1.10308
 O1380 O 0.47952 0.59934 1.12744
 C1381 C 0.47243 0.58246 1.11999
 C1382 C 0.45532 0.57142 1.13075
 C1383 C 0.44792 0.57845 1.15006
 H1384 H 0.45507 0.59182 1.15739
 O1385 O 0.39612 0.52081 1.07418
 O1386 O 0.37184 0.52081 1.09834
 C1387 C 0.37927 0.52798 1.08149
 C1388 C 0.36850 0.54515 1.07052
 C1389 C 0.34935 0.55263 1.07776
 H1390 H 0.34202 0.54545 1.09113
 O1391 O 0.60344 0.47974 1.07520
 O1392 O 0.62755 0.47960 1.09953
 C1393 C 0.62027 0.47257 1.08256
 C1394 C 0.63106 0.45543 1.07158
 C1395 C 0.65026 0.44798 1.07874
 H1396 H 0.65775 0.45530 1.09193
 O1397 O 0.57444 0.39631 1.02063
 O1398 O 0.59851 0.37192 1.02068
 C1399 C 0.58167 0.37936 1.02777
 C1400 C 0.57070 0.36855 1.04490
 C1401 C 0.57801 0.34942 1.05250
 H1402 H 0.59116 0.34201 1.04507
 O1403 O 0.42488 0.60412 1.01991
 O1404 O 0.40086 0.62856 1.01991
 C1405 C 0.41765 0.62106 1.02705
 C1406 C 0.42870 0.63181 1.04416
 C1407 C 0.42164 0.65110 1.05165
 H1408 H 0.40822 0.65838 1.04459
 O1409 O 0.42438 0.47998 1.10260
 O1410 O 0.40018 0.48000 1.12684
 C1411 C 0.41706 0.47288 1.11952
 C1412 C 0.42801 0.45586 1.13052
 C1413 C 0.42085 0.44870 1.14987
 H1414 H 0.40776 0.45630 1.15721
 O1415 O 0.57490 0.52028 1.10357
 O1416 O 0.59885 0.52021 1.12805
 C1417 C 0.58205 0.52735 1.12056
 C1418 C 0.57095 0.54441 1.13135
 C1419 C 0.57797 0.55184 1.15066
 H1420 H 0.59137 0.54474 1.15794
 O1421 O 0.47932 0.39668 1.07483
 O1422 O 0.47911 0.37242 1.09912
 C1423 C 0.47217 0.37977 1.08213
 C1424 C 0.45522 0.36885 1.07104
 C1425 C 0.44793 0.34953 1.07818
 H1426 H 0.45543 0.34211 1.09131
 O1427 O 0.52026 0.60369 1.07481
 O1428 O 0.52025 0.62796 1.09903
 C1429 C 0.52739 0.62059 1.08215
 C1430 C 0.54453 0.63141 1.07121
 C1431 C 0.55196 0.65067 1.07840
 H1432 H 0.54481 0.65793 1.09179
 O1433 O 0.39665 0.42513 1.01955
 O1434 O 0.37239 0.40093 1.01940
 C1435 C 0.37969 0.41786 1.02652
 C1436 C 0.36867 0.42895 1.04343
 C1437 C 0.34936 0.42183 1.05057
 H1438 H 0.34203 0.40868 1.04302
 O1439 O 0.60402 0.57514 1.02051
 O1440 O 0.62825 0.59937 1.02066
 C1441 C 0.62083 0.58246 1.02775
 C1442 C 0.63149 0.57150 1.04499
 C1443 C 0.65053 0.57884 1.05267
 H1444 H 0.65796 0.59205 1.04529
 O1445 O 0.52009 0.57507 1.10321
 O1446 O 0.52003 0.59923 1.12754
 C1447 C 0.52712 0.58232 1.12017
 C1448 C 0.54409 0.57128 1.13113
 C1449 C 0.55131 0.57845 1.15044
 H1450 H 0.54375 0.59156 1.15782
 O1451 O 0.47920 0.42512 1.10336
 O1452 O 0.47896 0.40099 1.12777
 C1453 C 0.47196 0.41789 1.12027
 C1454 C 0.45487 0.42900 1.13095
 C1455 C 0.44745 0.42204 1.15030
 H1456 H 0.45457 0.40867 1.15770
 O1457 O 0.60357 0.52035 1.07537
 O1458 O 0.62765 0.52027 1.09973
 C1459 C 0.62040 0.52745 1.08280
 C1460 C 0.63131 0.54458 1.07189
 C1461 C 0.65036 0.55214 1.07934
 H1462 H 0.65740 0.54505 1.09291
 O1463 O 0.39600 0.48014 1.07406
 O1464 O 0.37169 0.48011 1.09818
 C1465 C 0.37909 0.47303 1.08129
 C1466 C 0.36830 0.45596 1.07020
 C1467 C 0.34896 0.44859 1.07714
 H1468 H 0.34160 0.45577 1.09047
 O1469 O 0.57543 0.60343 1.02034
 O1470 O 0.59955 0.62777 1.02051
 C1471 C 0.58264 0.62036 1.02750
 C1472 C 0.57154 0.63124 1.04450
 C1473 C 0.57870 0.65049 1.05188
 H1474 H 0.59186 0.65789 1.04443
 O1475 O 0.42492 0.39649 1.01979
 O1476 O 0.40080 0.37216 1.01966
 C1477 C 0.41760 0.37955 1.02688
 C1478 C 0.42852 0.36870 1.04404
 C1479 C 0.42139 0.34939 1.05146
 H1480 H 0.40802 0.34214 1.04430
 O1481 O 0.57490 0.47968 1.10358
 O1482 O 0.59886 0.47954 1.12804
 C1483 C 0.58202 0.47251 1.12055
 C1484 C 0.57085 0.45549 1.13138
 C1485 C 0.57785 0.44802 1.15069
 H1486 H 0.59131 0.45504 1.15793
 O1487 O 0.42459 0.52057 1.10257
 O1488 O 0.40040 0.52060 1.12683
 C1489 C 0.41732 0.52765 1.11950
 C1490 C 0.42837 0.54463 1.13046
 C1491 C 0.42123 0.55186 1.14977
 H1492 H 0.40812 0.54432 1.15714
 O1493 O 0.47974 0.60374 1.07460
 O1494 O 0.47971 0.62798 1.09885
 C1495 C 0.47265 0.62066 1.08192
 C1496 C 0.45562 0.63160 1.07095
 C1497 C 0.44836 0.65089 1.07817
 H1498 H 0.45594 0.65828 1.09126
 O1499 O 0.51978 0.39642 1.07528
 O1500 O 0.51962 0.37216 1.09957
 C1501 C 0.52681 0.37949 1.08269
 C1502 C 0.54390 0.36859 1.07179
 C1503 C 0.55147 0.34946 1.07922
 H1504 H 0.54445 0.34236 1.09279
 O1505 O 0.60303 0.42458 1.02077
 O1506 O 0.62719 0.40027 1.02083
 C1507 C 0.61985 0.41717 1.02796
 C1508 C 0.63066 0.42810 1.04510
 C1509 C 0.64965 0.42062 1.05279
 H1510 H 0.65682 0.40705 1.04582
 O1511 O 0.39627 0.57581 1.01953
 O1512 O 0.37209 0.60008 1.01949
 C1513 C 0.37933 0.58307 1.02652
 C1514 C 0.36836 0.57191 1.04343
 C1515 C 0.34900 0.57890 1.05064
 H1516 H 0.34155 0.59214 1.04332
 Cu1517 Cu 0.49952 0.41328 1.08680
 Cu1518 Cu 0.49927 0.38423 1.11603
 Cu1519 Cu 0.49993 0.58701 1.08649
 Cu1520 Cu 0.49987 0.61606 1.11565
 Cu1521 Cu 0.41336 0.41324 0.99940
 Cu1522 Cu 0.38432 0.38412 0.99919
 Cu1523 Cu 0.58638 0.41294 1.00038
 Cu1524 Cu 0.61532 0.38372 1.00042
 Cu1525 Cu 0.41314 0.58767 0.99947
 Cu1526 Cu 0.38422 0.61692 0.99938
 Cu1527 Cu 0.58747 0.58691 1.00010
 Cu1528 Cu 0.61647 0.61607 1.00029
 Cu1529 Cu 0.41268 0.50036 1.08591
 Cu1530 Cu 0.38359 0.50038 1.11497
 Cu1531 Cu 0.58681 0.50002 1.08699
 Cu1532 Cu 0.61564 0.49989 1.11629
 C1533 C 0.55369 0.44590 1.12192
 H1534 H 0.54839 0.45136 1.10688
 C1535 C 0.56805 0.43107 1.16041
 C1536 C 0.44555 0.55438 1.12117
 H1537 H 0.45095 0.54906 1.10614
 C1538 C 0.43086 0.56879 1.15967
 C1539 C 0.37782 0.55483 1.05328
 H1540 H 0.39281 0.54944 1.04791
 C1541 C 0.33950 0.56939 1.06784
 C1542 C 0.62155 0.44558 1.05455
 H1543 H 0.60668 0.45114 1.04902
 C1544 C 0.65954 0.43054 1.06949
 C1545 C 0.55351 0.37790 1.05452
 H1546 H 0.54798 0.39280 1.04892
 C1547 C 0.56856 0.33978 1.06969
 C1548 C 0.44581 0.62229 1.05381
 H1549 H 0.45114 0.60727 1.04834
 C1550 C 0.43136 0.66073 1.06867
 C1551 C 0.44516 0.44604 1.12129
 H1552 H 0.45059 0.45130 1.10623
 C1553 C 0.43042 0.43177 1.15986
 C1554 C 0.55388 0.55412 1.12182
 H1555 H 0.54858 0.54870 1.10679
 C1556 C 0.56827 0.56888 1.16030
 C1557 C 0.44555 0.37819 1.05383
 H1558 H 0.45092 0.39323 1.04842
 C1559 C 0.43098 0.33970 1.06856
 C1560 C 0.55432 0.62192 1.05414
 H1561 H 0.54890 0.60692 1.04871
 C1562 C 0.56908 0.66030 1.06885
 C1563 C 0.37791 0.44615 1.05321
 H1564 H 0.39295 0.45153 1.04797
 C1565 C 0.33940 0.43149 1.06745
 C1566 C 0.62211 0.55425 1.05459
 H1567 H 0.60728 0.54871 1.04895
 C1568 C 0.66007 0.56928 1.06985
 C1569 C 1.12506 1.12663 1.29310
 C1570 C 1.13181 1.11333 1.30913
 C1571 C 1.14051 1.12149 1.32729
 C1572 C 1.14263 1.14309 1.32983
 C1573 C 1.13583 1.15638 1.31389
 C1574 C 1.12713 1.14826 1.29574
 C1575 C 1.11611 1.11805 1.27366
 N1576 N 1.10980 1.13092 1.25814
 N1577 N 1.10196 1.12327 1.24058
 C1578 C 1.10006 1.10240 1.23777
 N1579 N 1.10633 1.08952 1.25332
 N1580 N 1.11418 1.09717 1.27089
 C1581 C 1.09152 1.09394 1.21810
 C1582 C 1.08954 1.07234 1.21513
 C1583 C 1.08171 1.06444 1.19645
 C1584 C 1.07567 1.07794 1.18034
 C1585 C 1.07759 1.09951 1.18334
 C1586 C 1.08541 1.10742 1.20198
 H1587 H 1.13043 1.09660 1.30765
 H1588 H 1.14555 1.11096 1.33944
 H1589 H 1.13750 1.17308 1.31541
 H1590 H 1.12215 1.15897 1.28373
 H1591 H 1.09404 1.06151 1.22722
 H1592 H 1.08021 1.04775 1.19468
 H1593 H 1.07338 1.11031 1.17111
 H1594 H 1.08678 1.12413 1.20368
 C1595 C 1.12290 0.62599 0.79489
 C1596 C 1.13093 0.61282 0.81042
 C1597 C 1.13983 0.62114 0.82842
 C1598 C 1.14092 0.64279 0.83127
 C1599 C 1.13256 0.65593 0.81595
 C1600 C 1.12369 0.64764 0.79797
 C1601 C 1.11413 0.61730 0.77542
 N1602 N 1.10719 0.63014 0.76013
 N1603 N 1.09969 0.62244 0.74245
 C1604 C 1.09879 0.60157 0.73925
 N1605 N 1.10565 0.58871 0.75457
 N1606 N 1.11317 0.59641 0.77227
 C1607 C 1.09070 0.59311 0.71938
 C1608 C 1.08913 0.57151 0.71618
 C1609 C 1.08166 0.56365 0.69733
 C1610 C 1.07558 0.57721 0.68128
 C1611 C 1.07717 0.59878 0.68449
 C1612 C 1.08460 0.60663 0.70330
 H1613 H 1.13052 0.59607 0.80861
 H1614 H 1.14595 0.61069 0.84012
 H1615 H 1.13328 0.67267 0.81770
 H1616 H 1.11763 0.65827 0.78638
 H1617 H 1.09364 0.56065 0.72824
 H1618 H 1.08041 0.54696 0.69540
 H1619 H 1.07295 0.60964 0.67231
 H1620 H 1.08569 0.62335 0.70515
 C1621 C 0.62359 1.12621 0.79443
 C1622 C 0.63161 1.11314 0.81004
 C1623 C 0.64049 1.12157 0.82800
 C1624 C 0.64157 1.14323 0.83073
 C1625 C 0.63321 1.15628 0.81533
 C1626 C 0.62435 1.14789 0.79739
 C1627 C 0.61485 1.11741 0.77499
 N1628 N 0.60791 1.13015 0.75963
 N1629 N 0.60043 1.12235 0.74199
 C1630 C 0.59956 1.10146 0.73890
 N1631 N 0.60642 1.08869 0.75429
 N1632 N 0.61392 1.09650 0.77195
 C1633 C 0.59145 1.09289 0.71909
 C1634 C 0.58989 1.07127 0.71599
 C1635 C 0.58234 1.06332 0.69721
 C1636 C 0.57619 1.07679 0.68112
 C1637 C 0.57781 1.09838 0.68421
 C1638 C 0.58531 1.10633 0.70295
 H1639 H 0.63121 1.09638 0.80833
 H1640 H 0.64661 1.11119 0.83977
 H1641 H 0.63392 1.17303 0.81699
 H1642 H 0.61830 1.15844 0.78574
 H1643 H 0.59444 1.06047 0.72809
 H1644 H 0.58109 1.04661 0.69536
 H1645 H 0.57354 1.10917 0.67199
 H1646 H 0.58640 1.12305 0.70472
 C1647 C 0.62526 0.62602 1.29316
 C1648 C 0.63202 0.61276 1.30921
 C1649 C 0.64064 0.62096 1.32739
 C1650 C 0.64269 0.64257 1.32992
 C1651 C 0.63586 0.65583 1.31395
 C1652 C 0.62723 0.64766 1.29579
 C1653 C 0.61640 0.61739 1.27370
 N1654 N 0.60999 0.63024 1.25820
 N1655 N 0.60223 0.62256 1.24062
 C1656 C 0.60054 0.60169 1.23776
 N1657 N 0.60691 0.58882 1.25328
 N1658 N 0.61467 0.59651 1.27087
 C1659 C 0.59208 0.59320 1.21806
 C1660 C 0.59037 0.57160 1.21498
 C1661 C 0.58259 0.56368 1.19629
 C1662 C 0.57631 0.57719 1.18028
 C1663 C 0.57798 0.59877 1.18337
 C1664 C 0.58576 0.60668 1.20203
 H1665 H 0.63072 0.59602 1.30774
 H1666 H 0.64571 0.61046 1.33955
 H1667 H 0.63746 0.67253 1.31546
 H1668 H 0.62223 0.65834 1.28376
 H1669 H 0.59505 0.56076 1.22700
 H1670 H 0.58129 0.54698 1.19442
 H1671 H 0.57358 0.60958 1.17121
 H1672 H 0.58692 0.62340 1.20380
 C1673 C 0.87261 0.87628 1.29326
 C1674 C 0.88462 0.87630 1.31150
 C1675 C 0.87685 0.86754 1.32984
 C1676 C 0.85681 0.85911 1.33031
 C1677 C 0.84464 0.85941 1.31226
 C1678 C 0.85255 0.86771 1.29380
 C1679 C 0.88103 0.88483 1.27366
 N1680 N 0.87441 0.87745 1.25503
 N1681 N 0.88218 0.88490 1.23733
 C1682 C 0.89672 0.90019 1.23755
 N1683 N 0.90325 0.90768 1.25618
 N1684 N 0.89564 0.90007 1.27390
 C1685 C 0.90534 0.90837 1.21789
 C1686 C 0.91282 0.92888 1.21666
 C1687 C 0.92066 0.93665 1.19790
 C1688 C 0.92162 0.92385 1.18026
 C1689 C 0.91441 0.90329 1.18153
 C1690 C 0.90612 0.89568 1.20011
 H1691 H 0.90016 0.88270 1.31148
 H1692 H 0.88637 0.86737 1.34371
 H1693 H 0.82916 0.85286 1.31244
 H1694 H 0.84294 0.86758 1.27999
 H1695 H 0.91230 0.93901 1.23010
 H1696 H 0.92618 0.95256 1.19720
 H1697 H 0.91495 0.89323 1.16803
 H1698 H 0.90055 0.87979 1.20066
 C1699 C 0.87371 0.37692 0.79434
 C1700 C 0.85216 0.37481 0.79705
 C1701 C 0.84411 0.36616 0.81529
 C1702 C 0.85741 0.35946 0.83123
 C1703 C 0.87892 0.36172 0.82865
 C1704 C 0.88700 0.37036 0.81041
 C1705 C 0.88222 0.38564 0.77475
 N1706 N 0.90303 0.38728 0.77178
 N1707 N 0.91063 0.39483 0.75404
 C1708 C 0.89776 0.40105 0.73851
 N1709 N 0.87697 0.39946 0.74151
 N1710 N 0.86937 0.39191 0.75923
 C1711 C 0.90617 0.40923 0.71864
 C1712 C 0.89270 0.41552 0.70263
 C1713 C 0.90055 0.42302 0.68381
 C1714 C 0.92205 0.42442 0.68054
 C1715 C 0.93555 0.41816 0.69653
 C1716 C 0.92770 0.41067 0.71538
 H1717 H 0.84146 0.37966 0.78501
 H1718 H 0.82749 0.36440 0.81684
 H1719 H 0.88945 0.35676 0.84081
 H1720 H 0.90366 0.37178 0.80887
 H1721 H 0.87604 0.41456 0.70454
 H1722 H 0.88976 0.42742 0.67167
 H1723 H 0.95219 0.41927 0.69453
 H1724 H 0.93852 0.40600 0.72738
 C1725 C 0.37237 0.87592 0.79285
 C1726 C 0.35227 0.86746 0.79332
 C1727 C 0.34423 0.85922 0.81175
 C1728 C 0.35632 0.85889 0.82986
 C1729 C 0.37641 0.86722 0.82946
 C1730 C 0.38430 0.87591 0.81114
 C1731 C 0.38093 0.88439 0.77327
 N1732 N 0.39560 0.89957 0.77355
 N1733 N 0.40332 0.90712 0.75586
 C1734 C 0.39685 0.89964 0.73721
 N1735 N 0.38224 0.88441 0.73695
 N1736 N 0.37436 0.87701 0.75462
 C1737 C 0.40556 0.90778 0.71757
 C1738 C 0.40635 0.89511 0.69980
 C1739 C 0.41469 0.90272 0.68123
 C1740 C 0.42193 0.92327 0.67999
 C1741 C 0.42098 0.93604 0.69764
 C1742 C 0.41309 0.92828 0.71638
 H1743 H 0.34271 0.86735 0.77947
 H1744 H 0.32873 0.85275 0.81188
 H1745 H 0.38587 0.86702 0.84336
 H1746 H 0.39987 0.88223 0.81118
 H1747 H 0.40074 0.87923 0.70032
 H1748 H 0.41522 0.89267 0.66772
 H1749 H 0.42653 0.95194 0.69695
 H1750 H 0.41258 0.93840 0.72983
 C1751 C 0.37383 0.37671 1.29391
 C1752 C 0.35228 0.37460 1.29664
 C1753 C 0.34423 0.36604 1.31492
 C1754 C 0.35753 0.35943 1.33090
 C1755 C 0.37904 0.36171 1.32832
 C1756 C 0.38711 0.37026 1.31003
 C1757 C 0.38235 0.38532 1.27427
 N1758 N 0.40315 0.38706 1.27134
 N1759 N 0.41076 0.39452 1.25357
 C1760 C 0.39790 0.40055 1.23795
 N1761 N 0.37710 0.39885 1.24091
 N1762 N 0.36950 0.39140 1.25867
 C1763 C 0.40630 0.40867 1.21805
 C1764 C 0.39284 0.41470 1.20194
 C1765 C 0.40068 0.42220 1.18313
 C1766 C 0.42218 0.42388 1.17995
 C1767 C 0.43567 0.41786 1.19602
 C1768 C 0.42783 0.41035 1.21488
 H1769 H 0.34158 0.37937 1.28457
 H1770 H 0.32761 0.36426 1.31647
 H1771 H 0.38957 0.35683 1.34050
 H1772 H 0.40378 0.37169 1.30849
 H1773 H 0.37618 0.41355 1.20379
 H1774 H 0.38989 0.42641 1.17092
 H1775 H 0.45231 0.41917 1.19410
 H1776 H 0.43865 0.40588 1.22695
 C1777 C 0.87481 1.12542 0.70654
 C1778 C 0.88485 1.12228 0.68738
 C1779 C 0.87648 1.13050 0.66906
 C1780 C 0.85777 1.14157 0.66960
 C1781 C 0.84758 1.14451 0.68860
 C1782 C 0.85613 1.13670 0.70697
 C1783 C 0.88372 1.11707 0.72602
 N1784 N 0.87917 1.12603 0.74458
 N1785 N 0.88712 1.11855 0.76218
 C1786 C 0.89979 1.10167 0.76195
 N1787 N 0.90429 1.09264 0.74339
 N1788 N 0.89649 1.10026 0.72576
 C1789 C 0.90842 1.09331 0.78155
 C1790 C 0.91430 1.07229 0.78310
 C1791 C 0.92195 1.06433 0.80185
 C1792 C 0.92428 1.07736 0.81920
 C1793 C 0.91869 1.09841 0.81759
 C1794 C 0.91064 1.10627 0.79900
 H1795 H 0.89931 1.11373 0.68661
 H1796 H 0.88444 1.12813 0.65442
 H1797 H 0.83311 1.15306 0.68916
 H1798 H 0.84799 1.13926 0.72148
 H1799 H 0.91267 1.06193 0.76993
 H1800 H 0.92623 1.04806 0.80278
 H1801 H 0.92025 1.10869 0.83084
 H1802 H 0.90631 1.12253 0.79824
 C1803 C 0.87483 0.62453 0.20641
 C1804 C 0.88492 0.62141 0.18727
 C1805 C 0.87667 0.62980 0.16897
 C1806 C 0.85804 0.64101 0.16951
 C1807 C 0.84774 0.64382 0.18848
 C1808 C 0.85617 0.63584 0.20683
 C1809 C 0.88381 0.61631 0.22591
 N1810 N 0.87930 0.62540 0.24443
 N1811 N 0.88744 0.61813 0.26203
 C1812 C 0.90026 0.60137 0.26186
 N1813 N 0.90470 0.59221 0.24336
 N1814 N 0.89672 0.59960 0.22571
 C1815 C 0.90910 0.59326 0.28147
 C1816 C 0.91514 0.57230 0.28317
 C1817 C 0.92292 0.56456 0.30195
 C1818 C 0.92522 0.57775 0.31918
 C1819 C 0.91953 0.59875 0.31741
 C1820 C 0.91134 0.60639 0.29879
 H1821 H 0.89936 0.61284 0.18651
 H1822 H 0.88473 0.62758 0.15436
 H1823 H 0.83337 0.65252 0.18903
 H1824 H 0.84801 0.63838 0.22133
 H1825 H 0.91350 0.56182 0.27010
 H1826 H 0.92728 0.54831 0.30301
 H1827 H 0.92107 0.60915 0.33057
 H1828 H 0.90690 0.62263 0.29790
 C1829 C 0.37335 1.12575 0.20763
 C1830 C 0.35321 1.13411 0.20755
 C1831 C 0.34474 1.14217 0.18924
 C1832 C 0.35644 1.14244 0.17087
 C1833 C 0.37657 1.13423 0.17089
 C1834 C 0.38490 1.12570 0.18908
 C1835 C 0.38233 1.11739 0.22705
 N1836 N 0.39697 1.10219 0.22653
 N1837 N 0.40501 1.09466 0.24409
 C1838 C 0.39890 1.10221 0.26284
 N1839 N 0.38435 1.11748 0.26335
 N1840 N 0.37615 1.12485 0.24581
 C1841 C 0.40785 1.09400 0.28234
 C1842 C 0.40896 1.10664 0.30013
 C1843 C 0.41735 1.09890 0.31861
 C1844 C 0.42433 1.07825 0.31976
 C1845 C 0.42313 1.06554 0.30208
 C1846 C 0.41519 1.07343 0.28343
 H1847 H 0.34394 1.13425 0.22160
 H1848 H 0.32920 1.14856 0.18940
 H1849 H 0.38574 1.13439 0.15678
 H1850 H 0.40049 1.11945 0.18875
 H1851 H 0.40350 1.12258 0.29968
 H1852 H 0.41806 1.10890 0.33215
 H1853 H 0.42847 1.04956 0.30270
 H1854 H 0.41443 1.06334 0.26997
 C1855 C 0.37671 0.62534 0.70556
 C1856 C 0.37454 0.64694 0.70272
 C1857 C 0.36584 0.65489 0.68448
 C1858 C 0.35913 0.64145 0.66865
 C1859 C 0.36141 0.61988 0.67136
 C1860 C 0.37010 0.61190 0.68962
 C1861 C 0.38555 0.61693 0.72513
 N1862 N 0.38737 0.59608 0.72818
 N1863 N 0.39506 0.58858 0.74590
 C1864 C 0.40126 0.60161 0.76132
 N1865 N 0.39949 0.62245 0.75824
 N1866 N 0.39181 0.62994 0.74053
 C1867 C 0.40958 0.59332 0.78118
 C1868 C 0.41574 0.60694 0.79712
 C1869 C 0.42333 0.59920 0.81594
 C1870 C 0.42497 0.57765 0.81928
 C1871 C 0.41889 0.56400 0.80335
 C1872 C 0.41129 0.57174 0.78450
 H1873 H 0.37941 0.65776 0.71465
 H1874 H 0.36405 0.67157 0.68282
 H1875 H 0.35644 0.60924 0.65930
 H1876 H 0.37156 0.59519 0.69125
 H1877 H 0.41458 0.62364 0.79515
 H1878 H 0.42760 0.61011 0.82803
 H1879 H 0.42018 0.54732 0.80540
 H1880 H 0.40674 0.56079 0.77255
 C1881 C 1.12464 0.87459 0.70611
 C1882 C 1.13119 0.88794 0.69004
 C1883 C 1.13971 0.87984 0.67176
 C1884 C 1.14186 0.85825 0.66915
 C1885 C 1.13520 0.84490 0.68511
 C1886 C 1.12668 0.85297 0.70337
 C1887 C 1.11597 0.88311 0.72570
 N1888 N 1.10971 0.87018 0.74119
 N1889 N 1.10214 0.87776 0.75890
 C1890 C 1.10052 0.89862 0.76190
 N1891 N 1.10674 0.91157 0.74640
 N1892 N 1.11431 0.90398 0.72867
 C1893 C 1.09226 0.90700 0.78174
 C1894 C 1.09068 0.92859 0.78500
 C1895 C 1.08303 0.93639 0.80380
 C1896 C 1.07674 0.92278 0.81972
 C1897 C 1.07831 0.90122 0.81645
 C1898 C 1.08596 0.89342 0.79770
 H1899 H 1.12983 0.90466 0.69159
 H1900 H 1.14465 0.89041 0.65960
 H1901 H 1.13689 0.82821 0.68355
 H1902 H 1.12184 0.84222 0.71541
 H1903 H 1.09535 0.93949 0.77304
 H1904 H 1.08181 0.95308 0.80579
 H1905 H 1.07390 0.89034 0.82855
 H1906 H 1.08703 0.87671 0.79579
 C1907 C 1.12691 0.37374 0.20738
 C1908 C 1.14760 0.37773 0.20188
 C1909 C 1.15605 0.36912 0.18380
 C1910 C 1.14384 0.35677 0.17049
 C1911 C 1.12303 0.35299 0.17602
 C1912 C 1.11474 0.36121 0.19433
 C1913 C 1.11810 0.38240 0.22675
 N1914 N 1.10217 0.37265 0.23657
 N1915 N 1.09438 0.38029 0.25417
 C1916 C 1.10205 0.39809 0.26253
 N1917 N 1.11789 0.40792 0.25264
 N1918 N 1.12583 0.40017 0.23515
 C1919 C 1.09348 0.40646 0.28214
 C1920 C 1.09472 0.42780 0.28660
 C1921 C 1.08660 0.43567 0.30516
 C1922 C 1.07743 0.42230 0.31990
 C1923 C 1.07637 0.40088 0.31538
 C1924 C 1.08410 0.39311 0.29664
 H1925 H 1.15740 0.38714 0.21180
 H1926 H 1.17224 0.37198 0.18040
 H1927 H 1.11310 0.34368 0.16615
 H1928 H 1.09870 0.35797 0.19814
 H1929 H 1.10171 0.43848 0.27560
 H1930 H 1.08734 0.45228 0.30784
 H1931 H 1.06992 0.38999 0.32649
 H1932 H 1.08313 0.37654 0.29369
 C1933 C 0.62521 0.87414 0.20644
 C1934 C 0.63181 0.88742 0.19033
 C1935 C 0.64031 0.87925 0.17208
 C1936 C 0.64240 0.85765 0.16954
 C1937 C 0.63571 0.84436 0.18554
 C1938 C 0.62720 0.85250 0.20378
 C1939 C 0.61650 0.88274 0.22598
 N1940 N 0.61018 0.86986 0.24150
 N1941 N 0.60256 0.87752 0.25916
 C1942 C 0.60093 0.89839 0.26208
 N1943 N 0.60721 0.91128 0.24654
 N1944 N 0.61484 0.90362 0.22887
 C1945 C 0.59259 0.90683 0.28185
 C1946 C 0.59099 0.92843 0.28502
 C1947 C 0.58326 0.93630 0.30376
 C1948 C 0.57693 0.92275 0.31972
 C1949 C 0.57853 0.90118 0.31654
 C1950 C 0.58625 0.89332 0.29785
 H1951 H 0.63048 0.90415 0.19183
 H1952 H 0.64527 0.88977 0.15989
 H1953 H 0.63736 0.82766 0.18402
 H1954 H 0.62232 0.84180 0.21584
 H1955 H 0.59569 0.93930 0.27303
 H1956 H 0.58203 0.95300 0.30569
 H1957 H 0.57409 0.89035 0.32866
 H1958 H 0.58734 0.87660 0.29600
 C1959 C 0.62517 0.37451 0.70609
 C1960 C 0.63172 0.38775 0.68994
 C1961 C 0.64020 0.37954 0.67170
 C1962 C 0.64233 0.35793 0.66921
 C1963 C 0.63567 0.34469 0.68526
 C1964 C 0.62717 0.35287 0.70348
 C1965 C 0.61654 0.38316 0.72565
 N1966 N 0.61027 0.37033 0.74122
 N1967 N 0.60274 0.37803 0.75889
 C1968 C 0.60115 0.39891 0.76178
 N1969 N 0.60738 0.41176 0.74619
 N1970 N 0.61492 0.40405 0.72850
 C1971 C 0.59290 0.40741 0.78157
 C1972 C 0.59136 0.42902 0.78472
 C1973 C 0.58369 0.43693 0.80346
 C1974 C 0.57734 0.42342 0.81944
 C1975 C 0.57889 0.40184 0.81629
 C1976 C 0.58657 0.39393 0.79760
 H1977 H 0.63037 0.40449 0.69139
 H1978 H 0.64513 0.39003 0.65947
 H1979 H 0.63734 0.32798 0.68379
 H1980 H 0.62234 0.34219 0.71559
 H1981 H 0.59607 0.43985 0.77270
 H1982 H 0.58249 0.45363 0.80537
 H1983 H 0.57445 0.39103 0.82843
 H1984 H 0.58760 0.37721 0.79577
 C1985 C 1.29185 1.12647 1.12736
 C1986 C 1.30753 1.11323 1.13488
 C1987 C 1.32590 1.12145 1.14297
 C1988 C 1.32906 1.14307 1.14365
 C1989 C 1.31340 1.15632 1.13621
 C1990 C 1.29502 1.14813 1.12813
 C1991 C 1.27231 1.11778 1.11885
 N1992 N 1.25701 1.13056 1.11192
 N1993 N 1.23943 1.12278 1.10432
 C1994 C 1.23637 1.10188 1.10331
 N1995 N 1.25168 1.08910 1.11023
 N1996 N 1.26926 1.09688 1.11783
 C1997 C 1.21676 1.09327 1.09486
 C1998 C 1.21368 1.07164 1.09347
 C1999 C 1.19516 1.06360 1.08551
 C2000 C 1.17930 1.07700 1.07875
 C2001 C 1.18236 1.09861 1.08018
 C2002 C 1.20085 1.10665 1.08812
 H2003 H 1.30564 1.09649 1.13454
 H2004 H 1.33776 1.11093 1.14858
 H2005 H 1.31532 1.17305 1.13686
 H2006 H 1.28326 1.15879 1.12256
 H2007 H 1.22561 1.06088 1.09848
 H2008 H 1.19333 1.04688 1.08441
 H2009 H 1.17030 1.10934 1.07542
 H2010 H 1.20262 1.12338 1.08905
 C2011 C 1.29419 0.62274 0.62575
 C2012 C 1.31015 0.62924 0.61231
 C2013 C 1.32839 0.63788 0.62027
 C2014 C 1.33107 0.64020 0.64181
 C2015 C 1.31523 0.63357 0.65526
 C2016 C 1.29700 0.62492 0.64733
 C2017 C 1.27462 0.61400 0.61736
 N2018 N 1.25915 0.60793 0.63036
 N2019 N 1.24144 0.60036 0.62287
 C2020 C 1.23841 0.59852 0.60205
 N2021 N 1.25390 0.60454 0.58903
 N2022 N 1.27163 0.61211 0.59653
 C2023 C 1.21856 0.59033 0.59376
 C2024 C 1.21534 0.58847 0.57221
 C2025 C 1.19650 0.58097 0.56447
 C2026 C 1.18048 0.57513 0.57811
 C2027 C 1.18372 0.57694 0.59964
 C2028 C 1.20252 0.58444 0.60737
 H2029 H 1.30854 0.62776 0.59562
 H2030 H 1.34046 0.64279 0.60963
 H2031 H 1.31686 0.63539 0.67192
 H2032 H 1.28505 0.62012 0.65815
 H2033 H 1.22736 0.59281 0.56128
 H2034 H 1.19453 0.57954 0.54781
 H2035 H 1.17156 0.57287 0.61053
 H2036 H 1.20441 0.58572 0.62405
 C2037 C 0.79150 1.12507 0.62919
 C2038 C 0.79420 1.14670 0.63133
 C2039 C 0.81294 1.15481 0.63861
 C2040 C 0.82942 1.14150 0.64378
 C2041 C 0.82664 1.11991 0.64210
 C2042 C 0.80789 1.11176 0.63483
 C2043 C 0.77182 1.11651 0.62086
 N2044 N 0.76909 1.09565 0.61877
 N2045 N 0.75152 1.08800 0.61099
 C2046 C 0.73594 1.10089 0.60493
 N2047 N 0.73867 1.12175 0.60706
 N2048 N 0.75622 1.12939 0.61485
 C2049 C 0.71644 1.09243 0.59610
 C2050 C 0.70056 1.10591 0.58950
 C2051 C 0.68218 1.09799 0.58116
 C2052 C 0.67923 1.07641 0.57923
 C2053 C 0.69507 1.06291 0.58583
 C2054 C 0.71348 1.07083 0.59414
 H2055 H 0.78188 1.15741 0.62729
 H2056 H 0.81465 1.17150 0.64019
 H2057 H 0.83914 1.10939 0.64609
 H2058 H 0.80634 1.09504 0.63345
 H2059 H 0.70226 1.12262 0.59081
 H2060 H 0.67013 1.10877 0.57651
 H2061 H 0.69330 1.04622 0.58435
 H2062 H 0.72539 1.06000 0.59902
 C2063 C 0.79250 0.62581 1.12786
 C2064 C 0.79500 0.64733 1.13105
 C2065 C 0.81369 0.65526 1.13869
 C2066 C 0.83031 0.64188 1.14313
 C2067 C 0.82777 0.62039 1.14029
 C2068 C 0.80909 0.61242 1.13269
 C2069 C 0.77280 0.61739 1.11942
 N2070 N 0.77015 0.59657 1.11684
 N2071 N 0.75254 0.58902 1.10909
 C2072 C 0.73681 0.60196 1.10356
 N2073 N 0.73946 0.62277 1.10615
 N2074 N 0.75707 0.63032 1.11391
 C2075 C 0.71722 0.59356 1.09485
 C2076 C 0.70126 0.60707 1.08849
 C2077 C 0.68280 0.59918 1.08030
 C2078 C 0.67982 0.57761 1.07830
 C2079 C 0.69574 0.56409 1.08465
 C2080 C 0.71424 0.57197 1.09280
 H2081 H 0.78252 0.65809 1.12764
 H2082 H 0.81523 0.67186 1.14115
 H2083 H 0.84039 0.60981 1.14372
 H2084 H 0.80771 0.59577 1.13049
 H2085 H 0.70299 0.62377 1.08988
 H2086 H 0.67069 0.60998 1.07583
 H2087 H 0.69396 0.54740 1.08311
 H2088 H 0.72620 0.56111 1.09750
 C2089 C 1.29230 0.87367 0.87469
 C2090 C 1.29571 0.85207 0.87363
 C2091 C 1.31405 0.84420 0.86513
 C2092 C 1.32941 0.85773 0.85755
 C2093 C 1.32599 0.87930 0.85851
 C2094 C 1.30767 0.88719 0.86702
 C2095 C 1.27280 0.88203 0.88363
 N2096 N 1.26957 0.90288 0.88499
 N2097 N 1.25200 0.91038 0.89292
 C2098 C 1.23690 0.89735 0.89984
 N2099 N 1.24015 0.87650 0.89851
 N2100 N 1.25771 0.86900 0.89059
 C2101 C 1.21725 0.90567 0.90848
 C2102 C 1.20140 0.89211 0.91499
 C2103 C 1.18277 0.89993 0.92285
 C2104 C 1.17953 0.92151 0.92443
 C2105 C 1.19540 0.93508 0.91804
 C2106 C 1.21404 0.92726 0.91016
 H2107 H 1.28420 0.84120 0.87931
 H2108 H 1.31619 0.82751 0.86429
 H2109 H 1.33762 0.89003 0.85279
 H2110 H 1.30557 0.90390 0.86755
 H2111 H 1.20329 0.87540 0.91387
 H2112 H 1.17073 0.88908 0.92736
 H2113 H 1.19345 0.95177 0.91929
 H2114 H 1.22593 0.93817 0.90537
 C2115 C 1.29384 0.37441 0.37654
 C2116 C 1.30974 0.38783 0.36983
 C2117 C 1.32793 0.37981 0.36112
 C2118 C 1.33063 0.35824 0.35895
 C2119 C 1.31483 0.34482 0.36575
 C2120 C 1.29665 0.35280 0.37446
 C2121 C 1.27434 0.38284 0.38543
 N2122 N 1.25897 0.36986 0.39179
 N2123 N 1.24134 0.37738 0.39953
 C2124 C 1.23830 0.39823 0.40124
 N2125 N 1.25369 0.41123 0.39492
 N2126 N 1.27133 0.40370 0.38718
 C2127 C 1.21853 0.40656 0.40961
 C2128 C 1.21527 0.42814 0.41123
 C2129 C 1.19649 0.43593 0.41884
 C2130 C 1.18057 0.42232 0.42502
 C2131 C 1.18387 0.40076 0.42348
 C2132 C 1.20261 0.39297 0.41588
 H2133 H 1.30812 0.40454 0.37122
 H2134 H 1.33997 0.39044 0.35608
 H2135 H 1.31647 0.32813 0.36405
 H2136 H 1.28474 0.34199 0.37942
 H2137 H 1.22720 0.43907 0.40660
 H2138 H 1.19448 0.45262 0.42006
 H2139 H 1.17179 0.38987 0.42783
 H2140 H 1.20454 0.37627 0.41479
 C2141 C 0.79289 0.87387 0.37517
 C2142 C 0.80828 0.88738 0.36753
 C2143 C 0.82662 0.87949 0.35907
 C2144 C 0.83004 0.85792 0.35812
 C2145 C 0.81469 0.84439 0.36572
 C2146 C 0.79633 0.85227 0.37417
 C2147 C 0.77333 0.88224 0.38397
 N2148 N 0.75820 0.86922 0.39086
 N2149 N 0.74057 0.87673 0.39862
 C2150 C 0.73730 0.89758 0.39984
 N2151 N 0.75244 0.91060 0.39299
 N2152 N 0.77007 0.90309 0.38522
 C2153 C 0.71758 0.90592 0.40832
 C2154 C 0.71433 0.92751 0.40991
 C2155 C 0.69564 0.93533 0.41769
 C2156 C 0.67977 0.92175 0.42406
 C2157 C 0.68303 0.90018 0.42254
 C2158 C 0.70171 0.89236 0.41477
 H2159 H 0.80617 0.90409 0.36803
 H2160 H 0.83825 0.89022 0.35334
 H2161 H 0.81683 0.82770 0.36488
 H2162 H 0.78480 0.84140 0.37983
 H2163 H 0.72623 0.93841 0.40515
 H2164 H 0.69368 0.95202 0.41889
 H2165 H 0.67099 0.88932 0.42702
 H2166 H 0.70362 0.87565 0.41371
 C2167 C 0.79369 0.37455 0.87664
 C2168 C 0.80970 0.38791 0.87009
 C2169 C 0.82792 0.37984 0.86150
 C2170 C 0.83053 0.35827 0.85927
 C2171 C 0.81464 0.34489 0.86595
 C2172 C 0.79644 0.35293 0.87455
 C2173 C 0.77414 0.38305 0.88532
 N2174 N 0.75864 0.37012 0.89149
 N2175 N 0.74096 0.37771 0.89902
 C2176 C 0.73797 0.39857 0.90071
 N2177 N 0.75349 0.41152 0.89459
 N2178 N 0.77119 0.40392 0.88706
 C2179 C 0.71816 0.40696 0.90889
 C2180 C 0.71495 0.42855 0.91056
 C2181 C 0.69616 0.43638 0.91809
 C2182 C 0.68017 0.42280 0.92415
 C2183 C 0.68338 0.40123 0.92251
 C2184 C 0.70214 0.39341 0.91498
 H2185 H 0.80815 0.40463 0.87150
 H2186 H 0.84003 0.39043 0.85656
 H2187 H 0.81622 0.32821 0.86421
 H2188 H 0.78444 0.34217 0.87939
 H2189 H 0.72696 0.43944 0.90605
 H2190 H 0.69421 0.45307 0.91938
 H2191 H 0.67124 0.39038 0.92675
 H2192 H 0.70401 0.37670 0.91384
 C2193 C 0.70706 0.87562 1.12579
 C2194 C 0.69095 0.86905 1.11258
 C2195 C 0.67274 0.86058 1.12081
 C2196 C 0.67022 0.85850 1.14241
 C2197 C 0.68622 0.86518 1.15562
 C2198 C 0.70442 0.87366 1.14742
 C2199 C 0.72658 0.88425 1.11712
 N2200 N 0.74213 0.89049 1.12993
 N2201 N 0.75977 0.89802 1.12220
 C2202 C 0.76265 0.89962 1.10134
 N2203 N 0.74709 0.89342 1.08852
 N2204 N 0.72943 0.88588 1.09625
 C2205 C 0.78240 0.90787 1.09282
 C2206 C 0.78552 0.90948 1.07122
 C2207 C 0.80422 0.91716 1.06328
 C2208 C 0.82019 0.92343 1.07676
 C2209 C 0.81708 0.92179 1.09833
 C2210 C 0.79842 0.91412 1.10626
 H2211 H 0.69242 0.87037 1.09585
 H2212 H 0.66055 0.85563 1.11034
 H2213 H 0.68473 0.86353 1.17232
 H2214 H 0.71648 0.87852 1.15807
 H2215 H 0.77351 0.90484 1.06041
 H2216 H 0.80610 0.91842 1.04659
 H2217 H 0.82922 0.92618 1.10911
 H2218 H 0.79662 0.91302 1.12297
 C2219 C 0.70695 0.37616 0.62559
 C2220 C 0.70431 0.37414 0.64721
 C2221 C 0.68615 0.36554 0.65538
 C2222 C 0.67020 0.35881 0.64215
 C2223 C 0.67272 0.36093 0.62056
 C2224 C 0.69090 0.36951 0.61235
 C2225 C 0.72642 0.38492 0.61695
 N2226 N 0.72928 0.38662 0.59608
 N2227 N 0.74690 0.39428 0.58838
 C2228 C 0.76240 0.40057 0.60123
 N2229 N 0.75951 0.39891 0.62209
 N2230 N 0.74192 0.39126 0.62978
 C2231 C 0.78212 0.40893 0.59273
 C2232 C 0.79810 0.41524 0.60619
 C2233 C 0.81675 0.42296 0.59828
 C2234 C 0.81989 0.42457 0.57672
 C2235 C 0.80394 0.41828 0.56322
 C2236 C 0.78525 0.41056 0.57114
 H2237 H 0.71634 0.37905 0.65788
 H2238 H 0.68465 0.36388 0.67208
 H2239 H 0.66057 0.35593 0.61007
 H2240 H 0.69237 0.37086 0.59563
 H2241 H 0.79628 0.41414 0.62290
 H2242 H 0.82887 0.42737 0.60908
 H2243 H 0.80585 0.41953 0.54654
 H2244 H 0.77327 0.40588 0.56032
 C2245 C 0.20654 0.87655 0.62557
 C2246 C 0.19046 0.87001 0.61231
 C2247 C 0.17225 0.86148 0.62049
 C2248 C 0.16973 0.85930 0.64208
 C2249 C 0.18569 0.86596 0.65534
 C2250 C 0.20388 0.87451 0.64719
 C2251 C 0.22607 0.88518 0.61695
 N2252 N 0.24163 0.89134 0.62979
 N2253 N 0.25929 0.89885 0.62211
 C2254 C 0.26219 0.90052 0.60125
 N2255 N 0.24662 0.89441 0.58840
 N2256 N 0.22894 0.88690 0.59608
 C2257 C 0.28198 0.90871 0.59277
 C2258 C 0.28510 0.91042 0.57118
 C2259 C 0.30385 0.91801 0.56328
 C2260 C 0.31987 0.92410 0.57679
 C2261 C 0.31675 0.92238 0.59835
 C2262 C 0.29804 0.91480 0.60624
 H2263 H 0.19194 0.87138 0.59559
 H2264 H 0.16009 0.85654 0.60999
 H2265 H 0.18418 0.86425 0.67202
 H2266 H 0.21593 0.87934 0.65787
 H2267 H 0.27306 0.90590 0.56035
 H2268 H 0.30574 0.91934 0.54660
 H2269 H 0.32891 0.92664 0.60915
 H2270 H 0.29623 0.91363 0.62295
 C2271 C 0.20661 0.37347 1.12333
 C2272 C 0.20498 0.35194 1.12695
 C2273 C 0.18716 0.34356 1.13602
 C2274 C 0.17057 0.35649 1.14172
 C2275 C 0.17190 0.37793 1.13769
 C2276 C 0.18978 0.38637 1.12866
 C2277 C 0.22592 0.38233 1.11441
 N2278 N 0.22830 0.40321 1.11200
 N2279 N 0.24588 0.41107 1.10440
 C2280 C 0.26182 0.39838 1.09890
 N2281 N 0.25939 0.37752 1.10125
 N2282 N 0.24184 0.36967 1.10884
 C2283 C 0.28155 0.40700 1.09070
 C2284 C 0.29775 0.39360 1.08479
 C2285 C 0.31644 0.40158 1.07724
 C2286 C 0.31943 0.42316 1.07541
 C2287 C 0.30329 0.43661 1.08134
 C2288 C 0.28453 0.42862 1.08887
 H2289 H 0.21758 0.34152 1.12304
 H2290 H 0.18648 0.32699 1.13899
 H2291 H 0.15914 0.38812 1.14170
 H2292 H 0.19045 0.40299 1.12597
 H2293 H 0.29607 0.37688 1.08605
 H2294 H 0.32869 0.39082 1.07312
 H2295 H 0.30509 0.45331 1.07992
 H2296 H 0.27240 0.43940 1.09327
 C2297 C 0.70766 1.12647 0.87317
 C2298 C 0.69218 1.13405 0.88659
 C2299 C 0.67380 1.14237 0.87861
 C2300 C 0.67043 1.14322 0.85705
 C2301 C 0.68589 1.13573 0.84361
 C2302 C 0.70429 1.12743 0.85157
 C2303 C 0.72721 1.11772 0.88161
 N2304 N 0.74238 1.11085 0.86866
 N2305 N 0.75998 1.10306 0.87622
 C2306 C 0.76318 1.10180 0.89707
 N2307 N 0.74800 1.10864 0.91002
 N2308 N 0.73040 1.11643 0.90246
 C2309 C 0.78285 1.09325 0.90546
 C2310 C 0.78602 1.09156 0.92704
 C2311 C 0.80464 1.08367 0.93490
 C2312 C 0.82053 1.07727 0.92137
 C2313 C 0.81735 1.07890 0.89981
 C2314 C 0.79874 1.08678 0.89195
 H2315 H 0.69424 1.13358 0.90330
 H2316 H 0.66209 1.14802 0.88928
 H2317 H 0.68380 1.13651 0.82693
 H2318 H 0.71588 1.12181 0.84076
 H2319 H 0.77410 1.09633 0.93790
 H2320 H 0.80655 1.08238 0.95158
 H2321 H 0.82941 1.07440 0.88899
 H2322 H 0.79689 1.08791 0.87525
 C2323 C 0.70765 0.62492 0.37333
 C2324 C 0.70490 0.62687 0.35171
 C2325 C 0.68662 0.63525 0.34360
 C2326 C 0.67065 0.64184 0.35690
 C2327 C 0.67326 0.63976 0.37848
 C2328 C 0.69156 0.63138 0.38662
 C2329 C 0.72726 0.61642 0.38190
 N2330 N 0.73021 0.61480 0.40276
 N2331 N 0.74794 0.60738 0.41041
 C2332 C 0.76350 0.60129 0.39753
 N2333 N 0.76053 0.60288 0.37667
 N2334 N 0.74281 0.61029 0.36903
 C2335 C 0.78333 0.59318 0.40597
 C2336 C 0.79936 0.58704 0.39247
 C2337 C 0.81810 0.57950 0.40034
 C2338 C 0.82129 0.57789 0.42190
 C2339 C 0.80531 0.58404 0.43543
 C2340 C 0.78653 0.59158 0.42756
 H2341 H 0.71695 0.62209 0.34100
 H2342 H 0.68504 0.63689 0.32692
 H2343 H 0.66110 0.64463 0.38902
 H2344 H 0.69312 0.63007 0.40334
 H2345 H 0.79750 0.58813 0.37577
 H2346 H 0.83023 0.57519 0.38952
 H2347 H 0.80724 0.58278 0.45211
 H2348 H 0.77452 0.59614 0.43841
 C2349 C 0.20751 1.12520 0.37332
 C2350 C 0.20481 1.12718 0.35169
 C2351 C 0.18655 1.13560 0.34356
 C2352 C 0.17058 1.14222 0.35684
 C2353 C 0.17315 1.14010 0.37843
 C2354 C 0.19141 1.13168 0.38659
 C2355 C 0.22710 1.11667 0.38192
 N2356 N 0.22999 1.11501 0.40279
 N2357 N 0.24770 1.10758 0.41048
 C2358 C 0.26329 1.10151 0.39762
 N2359 N 0.26038 1.10315 0.37676
 N2360 N 0.24268 1.11057 0.36908
 C2361 C 0.28311 1.09339 0.40610
 C2362 C 0.29918 1.08729 0.39264
 C2363 C 0.31788 1.07971 0.40054
 C2364 C 0.32100 1.07802 0.42211
 C2365 C 0.30498 1.08414 0.43560
 C2366 C 0.28623 1.09172 0.42769
 H2367 H 0.21686 1.12238 0.34100
 H2368 H 0.18501 1.13727 0.32688
 H2369 H 0.16098 1.14499 0.38895
 H2370 H 0.19293 1.13035 0.40331
 H2371 H 0.29737 1.08843 0.37594
 H2372 H 0.33005 1.07543 0.38975
 H2373 H 0.30685 1.08282 0.45229
 H2374 H 0.27419 1.09624 0.43852
 C2375 C 0.20707 0.62603 0.87370
 C2376 C 0.19155 0.63350 0.88715
 C2377 C 0.17314 0.64174 0.87918
 C2378 C 0.16976 0.64263 0.85763
 C2379 C 0.18524 0.63521 0.84417
 C2380 C 0.20368 0.62698 0.85211
 C2381 C 0.22670 0.61743 0.88213
 N2382 N 0.24190 0.61065 0.86917
 N2383 N 0.25958 0.60304 0.87672
 C2384 C 0.26283 0.60187 0.89757
 N2385 N 0.24762 0.60862 0.91053
 N2386 N 0.22994 0.61624 0.90298
 C2387 C 0.28258 0.59351 0.90594
 C2388 C 0.28582 0.59195 0.92752
 C2389 C 0.30451 0.58420 0.93537
 C2390 C 0.32039 0.57781 0.92183
 C2391 C 0.31715 0.57934 0.90027
 C2392 C 0.29847 0.58708 0.89242
 H2393 H 0.19362 0.63303 0.90385
 H2394 H 0.16141 0.64734 0.88986
 H2395 H 0.18315 0.63602 0.82748
 H2396 H 0.21530 0.62145 0.84129
 H2397 H 0.27390 0.59670 0.93840
 H2398 H 0.30647 0.58300 0.95205
 H2399 H 0.32920 0.57485 0.88943
 H2400 H 0.29657 0.58812 0.87572
 C2401 C 1.12720 1.29191 1.12697
 C2402 C 1.13726 1.29182 1.14637
 C2403 C 1.14534 1.31024 1.15462
 C2404 C 1.14390 1.32888 1.14340
 C2405 C 1.13410 1.32902 1.12396
 C2406 C 1.12559 1.31072 1.11589
 C2407 C 1.11855 1.27246 1.11831
 N2408 N 1.10249 1.27298 1.10464
 N2409 N 1.09467 1.25543 1.09689
 C2410 C 1.10274 1.23667 1.10233
 N2411 N 1.11885 1.23616 1.11593
 N2412 N 1.12653 1.25369 1.12384
 C2413 C 1.09421 1.21718 1.09362
 C2414 C 1.10673 1.19935 1.09202
 C2415 C 1.09874 1.18094 1.08369
 C2416 C 1.07798 1.17990 1.07724
 C2417 C 1.06537 1.19761 1.07900
 C2418 C 1.07349 1.21618 1.08690
 H2419 H 1.13864 1.27758 1.15528
 H2420 H 1.15294 1.30999 1.16963
 H2421 H 1.13292 1.34337 1.11519
 H2422 H 1.11803 1.31121 1.10086
 H2423 H 1.12277 1.19970 1.09700
 H2424 H 1.10868 1.16739 1.08257
 H2425 H 1.04932 1.19711 1.07406
 H2426 H 1.06347 1.22966 1.08805
 C2427 C 1.12646 0.79430 0.62393
 C2428 C 1.11320 0.81041 0.63045
 C2429 C 1.12131 0.82869 0.63897
 C2430 C 1.14282 0.83127 0.64115
 C2431 C 1.15609 0.81527 0.63451
 C2432 C 1.14802 0.79701 0.62598
 C2433 C 1.11793 0.77470 0.61529
 N2434 N 1.13077 0.75909 0.60921
 N2435 N 1.12316 0.74136 0.60170
 C2436 C 1.10236 0.73845 0.59995
 N2437 N 1.08951 0.75407 0.60599
 N2438 N 1.09713 0.77181 0.61350
 C2439 C 1.09395 0.71858 0.59178
 C2440 C 1.07243 0.71548 0.58996
 C2441 C 1.06459 0.69665 0.58241
 C2442 C 1.07808 0.68053 0.57649
 C2443 C 1.09957 0.68364 0.57830
 C2444 C 1.10742 0.70243 0.58584
 H2445 H 1.09653 0.80889 0.62907
 H2446 H 1.11080 0.84088 0.64390
 H2447 H 1.17273 0.81682 0.63622
 H2448 H 1.15870 0.78494 0.62116
 H2449 H 1.06161 0.72759 0.59435
 H2450 H 1.04795 0.69478 0.58100
 H2451 H 1.11035 0.67140 0.57418
 H2452 H 1.12407 0.70422 0.58711
 C2453 C 0.62673 1.29384 0.62424
 C2454 C 0.61352 1.31000 0.63076
 C2455 C 0.62169 1.32828 0.63921
 C2456 C 0.64322 1.33082 0.64132
 C2457 C 0.65644 1.31478 0.63468
 C2458 C 0.64830 1.29651 0.62622
 C2459 C 0.61813 1.27423 0.61566
 N2460 N 0.63092 1.25860 0.60953
 N2461 N 0.62324 1.24088 0.60207
 C2462 C 0.60244 1.23800 0.60040
 N2463 N 0.58963 1.25364 0.60650
 N2464 N 0.59731 1.27138 0.61397
 C2465 C 0.59396 1.21815 0.59225
 C2466 C 0.57243 1.21507 0.59054
 C2467 C 0.56452 1.19627 0.58296
 C2468 C 0.57797 1.18017 0.57690
 C2469 C 0.59947 1.18325 0.57861
 C2470 C 0.60738 1.20201 0.58618
 H2471 H 0.59685 1.30850 0.62943
 H2472 H 0.61122 1.34050 0.64413
 H2473 H 0.67308 1.31630 0.63634
 H2474 H 0.65895 1.28441 0.62140
 H2475 H 0.56164 1.22717 0.59503
 H2476 H 0.54788 1.19442 0.58163
 H2477 H 0.61023 1.17102 0.57438
 H2478 H 0.62403 1.20378 0.58735
 C2479 C 0.62651 0.79369 1.12454
 C2480 C 0.64809 0.79627 1.12651
 C2481 C 0.65630 0.81451 1.13495
 C2482 C 0.64315 0.83060 1.14159
 C2483 C 0.62161 0.82816 1.13949
 C2484 C 0.61336 0.80990 1.13105
 C2485 C 0.61783 0.77410 1.11599
 N2486 N 0.59700 0.77132 1.11430
 N2487 N 0.58926 0.75361 1.10683
 C2488 C 0.60201 0.73792 1.10074
 N2489 N 0.62282 0.74073 1.10241
 N2490 N 0.63056 0.75842 1.10987
 C2491 C 0.59347 0.71811 1.09256
 C2492 C 0.60685 0.70194 1.08648
 C2493 C 0.59891 0.68325 1.07881
 C2494 C 0.57740 0.68024 1.07701
 C2495 C 0.56399 0.69635 1.08313
 C2496 C 0.57193 0.71509 1.09080
 H2497 H 0.65868 0.78412 1.12169
 H2498 H 0.67295 0.81596 1.13661
 H2499 H 0.61119 0.84042 1.14441
 H2500 H 0.59668 0.80847 1.12973
 H2501 H 0.62351 0.70366 1.08769
 H2502 H 0.60964 0.67100 1.07455
 H2503 H 0.54734 0.69455 1.08175
 H2504 H 0.56117 0.72722 1.09532
 C2505 C 0.87613 1.29444 0.87433
 C2506 C 0.86948 1.31041 0.88771
 C2507 C 0.86077 1.32865 0.87967
 C2508 C 0.85853 1.33132 0.85811
 C2509 C 0.86527 1.31544 0.84473
 C2510 C 0.87398 1.29722 0.85273
 C2511 C 0.88502 1.27489 0.88279
 N2512 N 0.89140 1.25949 0.86983
 N2513 N 0.89914 1.24181 0.87738
 C2514 C 0.90083 1.23875 0.89821
 N2515 N 0.89449 1.25418 0.91118
 N2516 N 0.88675 1.27187 0.90363
 C2517 C 0.90921 1.21893 0.90656
 C2518 C 0.91075 1.21561 0.92812
 C2519 C 0.91838 1.19678 0.93592
 C2520 C 0.92467 1.18087 0.92232
 C2521 C 0.92320 1.18422 0.90078
 C2522 C 0.91557 1.20302 0.89299
 H2523 H 0.87092 1.30883 0.90441
 H2524 H 0.85578 1.34075 0.89027
 H2525 H 0.86351 1.31705 0.82806
 H2526 H 0.87889 1.28525 0.84196
 H2527 H 0.90603 1.22753 0.93903
 H2528 H 0.91953 1.19472 0.95260
 H2529 H 0.92763 1.17215 0.88991
 H2530 H 0.91455 1.20499 0.87629
 C2531 C 0.87758 0.79541 0.37423
 C2532 C 0.87658 0.79854 0.35260
 C2533 C 0.86743 0.81646 0.34441
 C2534 C 0.85902 0.83168 0.35763
 C2535 C 0.86032 0.82877 0.37924
 C2536 C 0.86948 0.81082 0.38747
 C2537 C 0.88667 0.77600 0.38282
 N2538 N 0.88762 0.77272 0.40368
 N2539 N 0.89539 0.75507 0.41130
 C2540 C 0.90252 0.73994 0.39839
 N2541 N 0.90163 0.74327 0.37755
 N2542 N 0.89387 0.76091 0.36994
 C2543 C 0.91082 0.72010 0.40678
 C2544 C 0.91735 0.70423 0.39323
 C2545 C 0.92485 0.68538 0.40103
 C2546 C 0.92605 0.68193 0.42258
 C2547 C 0.91961 0.69780 0.43616
 C2548 C 0.91209 0.71667 0.42835
 H2549 H 0.88267 0.78704 0.34193
 H2550 H 0.86655 0.81825 0.32769
 H2551 H 0.85417 0.84039 0.38975
 H2552 H 0.87006 0.80898 0.40419
 H2553 H 0.91652 0.70626 0.37653
 H2554 H 0.92937 0.67335 0.39016
 H2555 H 0.92056 0.69568 0.45284
 H2556 H 0.90725 0.72856 0.43925
 C2557 C 0.37639 1.29466 0.37434
 C2558 C 0.36975 1.31071 0.38763
 C2559 C 0.36101 1.32889 0.37949
 C2560 C 0.35874 1.33142 0.35791
 C2561 C 0.36549 1.31547 0.34462
 C2562 C 0.37423 1.29731 0.35273
 C2563 C 0.38529 1.27516 0.38291
 N2564 N 0.39166 1.25968 0.37005
 N2565 N 0.39940 1.24205 0.37769
 C2566 C 0.40111 1.23912 0.39855
 N2567 N 0.39478 1.25462 0.41143
 N2568 N 0.38704 1.27227 0.40378
 C2569 C 0.40950 1.21934 0.40700
 C2570 C 0.41109 1.21614 0.42858
 C2571 C 0.41876 1.19736 0.43646
 C2572 C 0.42505 1.18140 0.42295
 C2573 C 0.42352 1.18462 0.40139
 C2574 C 0.41585 1.20336 0.39350
 H2575 H 0.37121 1.30923 0.40434
 H2576 H 0.35601 1.34104 0.39001
 H2577 H 0.36370 1.31698 0.32795
 H2578 H 0.37914 1.28527 0.34203
 H2579 H 0.40638 1.22813 0.43943
 H2580 H 0.41995 1.19540 0.45315
 H2581 H 0.42795 1.17249 0.39057
 H2582 H 0.41479 1.20523 0.37680
 C2583 C 0.37669 0.79519 0.87401
 C2584 C 0.36865 0.81070 0.88717
 C2585 C 0.35961 0.82866 0.87886
 C2586 C 0.35837 0.83150 0.85723
 C2587 C 0.36675 0.81620 0.84409
 C2588 C 0.37578 0.79826 0.85237
 C2589 C 0.38560 0.77575 0.88269
 N2590 N 0.39273 0.76056 0.86988
 N2591 N 0.40033 0.74289 0.87758
 C2592 C 0.40114 0.73962 0.89843
 N2593 N 0.39408 0.75484 0.91127
 N2594 N 0.38646 0.77253 0.90357
 C2595 C 0.40931 0.71976 0.90690
 C2596 C 0.41055 0.71640 0.92849
 C2597 C 0.41805 0.69754 0.93636
 C2598 C 0.42448 0.68163 0.92284
 C2599 C 0.42325 0.68500 0.90128
 C2600 C 0.41579 0.70383 0.89341
 H2601 H 0.36916 0.80890 0.90391
 H2602 H 0.35348 0.84034 0.88931
 H2603 H 0.36592 0.81794 0.82736
 H2604 H 0.38183 0.78669 0.84175
 H2605 H 0.40574 0.72834 0.93934
 H2606 H 0.41901 0.69548 0.95305
 H2607 H 0.42776 0.67293 0.89044
 H2608 H 0.41497 0.70580 0.87670
 C2609 C 1.12642 0.70702 0.87572
 C2610 C 1.14652 0.70670 0.86726
 C2611 C 1.15466 0.68833 0.85901
 C2612 C 1.14267 0.67014 0.85865
 C2613 C 1.12257 0.67040 0.86696
 C2614 C 1.11458 0.68865 0.87568
 C2615 C 1.11779 0.72652 0.88427
 N2616 N 1.10314 0.72609 0.89946
 N2617 N 1.09538 0.74372 0.90711
 C2618 C 1.10181 0.76245 0.89972
 N2619 N 1.11638 0.76287 0.88448
 N2620 N 1.12430 0.74526 0.87698
 C2621 C 1.09307 0.78203 0.90799
 C2622 C 1.09227 0.79992 0.89543
 C2623 C 1.08395 0.81844 0.90315
 C2624 C 1.07673 0.81951 0.92370
 C2625 C 1.07769 0.80174 0.93636
 C2626 C 1.08557 0.78306 0.92848
 H2627 H 1.15601 0.72061 0.86719
 H2628 H 1.17017 0.68831 0.85255
 H2629 H 1.11319 0.65642 0.86674
 H2630 H 1.09901 0.68850 0.88199
 H2631 H 1.09786 0.79953 0.87955
 H2632 H 1.08341 0.83204 0.89319
 H2633 H 1.07216 0.80230 0.95226
 H2634 H 1.08610 0.76952 0.93851
 C2635 C 1.12671 0.20675 0.37528
 C2636 C 1.11360 0.19055 0.36869
 C2637 C 1.12189 0.17239 0.36007
 C2638 C 1.14343 0.17004 0.35786
 C2639 C 1.15654 0.18613 0.36457
 C2640 C 1.14829 0.20427 0.37320
 C2641 C 1.11798 0.22622 0.38405
 N2642 N 1.13067 0.24184 0.39039
 N2643 N 1.12289 0.25944 0.39804
 C2644 C 1.10206 0.26220 0.39967
 N2645 N 1.08935 0.24656 0.39336
 N2646 N 1.09715 0.22895 0.38571
 C2647 C 1.09346 0.28191 0.40801
 C2648 C 1.07190 0.28494 0.40954
 C2649 C 1.06388 0.30362 0.41727
 C2650 C 1.07723 0.31966 0.42369
 C2651 C 1.09876 0.31663 0.42217
 C2652 C 1.10678 0.29799 0.41444
 H2653 H 1.09692 0.19189 0.37009
 H2654 H 1.11150 0.16012 0.35511
 H2655 H 1.17319 0.18476 0.36284
 H2656 H 1.15886 0.21642 0.37807
 H2657 H 1.06119 0.27288 0.40477
 H2658 H 1.04723 0.30544 0.41844
 H2659 H 1.10945 0.32883 0.42668
 H2660 H 1.12345 0.29626 0.41342
 C2661 C 0.62660 0.70635 0.37510
 C2662 C 0.61353 0.69008 0.36858
 C2663 C 0.62186 0.67190 0.36007
 C2664 C 0.64341 0.66957 0.35789
 C2665 C 0.65649 0.68572 0.36454
 C2666 C 0.64819 0.70390 0.37306
 C2667 C 0.61782 0.72586 0.38372
 N2668 N 0.63048 0.74154 0.38999
 N2669 N 0.62266 0.75918 0.39751
 C2670 C 0.60183 0.76192 0.39908
 N2671 N 0.58915 0.74623 0.39285
 N2672 N 0.59698 0.72858 0.38532
 C2673 C 0.59319 0.78166 0.40732
 C2674 C 0.57163 0.78467 0.40882
 C2675 C 0.56359 0.80336 0.41653
 C2676 C 0.57692 0.81942 0.42294
 C2677 C 0.59846 0.81642 0.42141
 C2678 C 0.60649 0.79778 0.41370
 H2679 H 0.59685 0.69141 0.36995
 H2680 H 0.61150 0.65959 0.35515
 H2681 H 0.67314 0.68438 0.36283
 H2682 H 0.65873 0.71609 0.37788
 H2683 H 0.56093 0.77259 0.40408
 H2684 H 0.54693 0.80516 0.41770
 H2685 H 0.60913 0.82863 0.42591
 H2686 H 0.62317 0.79606 0.41269
 C2687 C 0.62694 0.20761 0.87492
 C2688 C 0.61514 0.18921 0.87493
 C2689 C 0.62319 0.17094 0.86629
 C2690 C 0.64329 0.17070 0.85800
 C2691 C 0.65523 0.18892 0.85829
 C2692 C 0.64704 0.20731 0.86648
 C2693 C 0.61825 0.22712 0.88341
 N2694 N 0.62470 0.24585 0.87605
 N2695 N 0.61674 0.26346 0.88350
 C2696 C 0.60218 0.26306 0.89876
 N2697 N 0.59582 0.24433 0.90621
 N2698 N 0.60362 0.22670 0.89860
 C2699 C 0.59343 0.28264 0.90700
 C2700 C 0.58599 0.28369 0.92752
 C2701 C 0.57814 0.30239 0.93541
 C2702 C 0.57712 0.32014 0.92273
 C2703 C 0.58426 0.31904 0.90215
 C2704 C 0.59257 0.30051 0.89442
 H2705 H 0.59957 0.18905 0.88124
 H2706 H 0.61383 0.15694 0.86612
 H2707 H 0.67075 0.18892 0.85185
 H2708 H 0.65650 0.22124 0.86635
 H2709 H 0.58658 0.27017 0.93758
 H2710 H 0.57268 0.30297 0.95133
 H2711 H 0.58368 0.33262 0.89217
 H2712 H 0.59811 0.30010 0.87852
 C2713 C 0.87802 0.70340 1.12287
 C2714 C 0.88257 0.69794 1.14351
 C2715 C 0.87344 0.68044 1.15260
 C2716 C 0.85976 0.66774 1.14117
 C2717 C 0.85591 0.67284 1.12021
 C2718 C 0.86470 0.69061 1.11127
 C2719 C 0.88662 0.72267 1.11372
 N2720 N 0.87648 0.73267 1.09812
 N2721 N 0.88376 0.75049 1.09044
 C2722 C 0.90157 0.75895 1.09792
 N2723 N 0.91183 0.74884 1.11336
 N2724 N 0.90445 0.73111 1.12118
 C2725 C 0.90931 0.77903 1.08980
 C2726 C 0.93044 0.78412 1.09113
 C2727 C 0.93767 0.80326 1.08372
 C2728 C 0.92386 0.81794 1.07520
 C2729 C 0.90267 0.81277 1.07398
 C2730 C 0.89553 0.79347 1.08099
 H2731 H 0.89274 0.70756 1.15285
 H2732 H 0.87683 0.67712 1.16875
 H2733 H 0.84596 0.66317 1.11072
 H2734 H 0.86113 0.69430 1.09523
 H2735 H 0.94144 0.77319 1.09769
 H2736 H 0.95414 0.80645 1.08454
 H2737 H 0.89146 0.82378 1.06798
 H2738 H 0.87911 0.79005 1.07998
 C2739 C 0.87794 0.20297 0.62017
 C2740 C 0.86416 0.18941 0.60784
 C2741 C 0.85411 0.17001 0.61872
 C2742 C 0.85896 0.16682 0.63976
 C2743 C 0.87288 0.18016 0.65021
 C2744 C 0.88209 0.19747 0.64079
 C2745 C 0.88656 0.22245 0.61142
 N2746 N 0.90499 0.23011 0.61821
 N2747 N 0.91233 0.24805 0.61084
 C2748 C 0.90141 0.25916 0.59656
 N2749 N 0.88297 0.25150 0.58982
 N2750 N 0.87572 0.23349 0.59707
 C2751 C 0.90916 0.27942 0.58884
 C2752 C 0.89533 0.29415 0.58060
 C2753 C 0.90248 0.31350 0.57376
 C2754 C 0.92372 0.31847 0.57462
 C2755 C 0.93758 0.30356 0.58265
 C2756 C 0.93036 0.28434 0.58985
 H2757 H 0.86358 0.19702 0.59010
 H2758 H 0.85761 0.17913 0.60953
 H2759 H 0.87639 0.17748 0.66644
 H2760 H 0.89217 0.20716 0.65016
 H2761 H 0.87886 0.29089 0.57984
 H2762 H 0.89125 0.32469 0.56814
 H2763 H 0.95408 0.30665 0.58321
 H2764 H 0.94141 0.27321 0.59597
 C2765 C 0.37416 0.70520 0.62295
 C2766 C 0.35262 0.70245 0.62508
 C2767 C 0.34461 0.68420 0.63375
 C2768 C 0.35794 0.66827 0.64045
 C2769 C 0.37944 0.67087 0.63816
 C2770 C 0.38748 0.68913 0.62950
 C2771 C 0.38264 0.72481 0.61424
 N2772 N 0.40344 0.72780 0.61253
 N2773 N 0.41101 0.74557 0.60500
 C2774 C 0.39811 0.76113 0.59886
 N2775 N 0.37732 0.75811 0.60052
 N2776 N 0.36976 0.74035 0.60805
 C2777 C 0.40647 0.78104 0.59072
 C2778 C 0.39297 0.79710 0.58460
 C2779 C 0.40077 0.81595 0.57714
 C2780 C 0.42227 0.81922 0.57559
 C2781 C 0.43580 0.80319 0.58168
 C2782 C 0.42799 0.78429 0.58914
 H2783 H 0.34190 0.71448 0.62024
 H2784 H 0.32799 0.68263 0.63555
 H2785 H 0.38999 0.65873 0.64312
 H2786 H 0.40414 0.69069 0.62806
 H2787 H 0.37632 0.79519 0.58567
 H2788 H 0.38996 0.82813 0.57288
 H2789 H 0.45243 0.80518 0.58046
 H2790 H 0.43884 0.77226 0.59368
 C2791 C 0.37527 0.20630 1.12636
 C2792 C 0.37461 0.20329 1.14801
 C2793 C 0.36591 0.18525 1.15644
 C2794 C 0.35760 0.16980 1.14344
 C2795 C 0.35853 0.17261 1.12179
 C2796 C 0.36725 0.19067 1.11333
 C2797 C 0.38396 0.22579 1.11753
 N2798 N 0.38481 0.22889 1.09664
 N2799 N 0.39232 0.24658 1.08882
 C2800 C 0.39928 0.26192 1.10157
 N2801 N 0.39847 0.25878 1.12244
 N2802 N 0.39098 0.24111 1.13025
 C2803 C 0.40745 0.28174 1.09299
 C2804 C 0.41377 0.29780 1.10641
 C2805 C 0.42137 0.31654 1.09846
 C2806 C 0.42289 0.31970 1.07688
 C2807 C 0.41654 0.30370 1.06343
 C2808 C 0.40891 0.28492 1.07139
 H2809 H 0.38066 0.21495 1.15853
 H2810 H 0.36532 0.18355 1.17318
 H2811 H 0.35244 0.16082 1.11145
 H2812 H 0.36756 0.19243 1.09658
 H2813 H 0.41277 0.29597 1.12312
 H2814 H 0.42579 0.32869 1.10924
 H2815 H 0.41772 0.30560 1.04673
 H2816 H 0.40421 0.27288 1.06060
 C2817 C 1.12644 1.12621 0.70788
 C2818 C 1.12639 1.11445 0.68945
 C2819 C 1.13494 1.12261 0.67119
 C2820 C 1.14318 1.14280 0.67098
 C2821 C 1.14296 1.15469 0.68924
 C2822 C 1.13488 1.14638 0.70761
 C2823 C 1.11796 1.11745 0.72736
 N2824 N 1.12531 1.12383 0.74608
 N2825 N 1.11780 1.11587 0.76367
 C2826 C 1.10247 1.10138 0.76325
 N2827 N 1.09503 1.09507 0.74453
 N2828 N 1.10270 1.10287 0.72692
 C2829 C 1.09412 1.09267 0.78281
 C2830 C 1.07358 1.08541 0.78385
 C2831 C 1.06559 1.07763 0.80253
 C2832 C 1.07818 1.07650 0.82029
 C2833 C 1.09878 1.08344 0.81920
 C2834 C 1.10661 1.09168 0.80068
 H2835 H 1.12009 1.09883 0.68926
 H2836 H 1.13505 1.11331 0.65716
 H2837 H 1.14937 1.17027 0.68925
 H2838 H 1.13503 1.15580 0.72157
 H2839 H 1.06359 1.08609 0.77032
 H2840 H 1.04965 1.07231 0.80311
 H2841 H 1.10868 1.08277 0.83279
 H2842 H 1.12252 1.09707 0.80028
 C2843 C 1.12376 0.62069 0.20368
 C2844 C 1.11197 0.63389 0.19090
 C2845 C 1.12071 0.64283 0.17313
 C2846 C 1.14165 0.63928 0.16801
 C2847 C 1.15327 0.62567 0.18065
 C2848 C 1.14438 0.61637 0.19817
 C2849 C 1.11481 0.61205 0.22302
 N2850 N 1.12240 0.59424 0.23151
 N2851 N 1.11473 0.58686 0.24929
 C2852 C 1.09932 0.59712 0.25941
 N2853 N 1.09174 0.61492 0.25092
 N2854 N 1.09926 0.62219 0.23304
 C2855 C 1.09133 0.58940 0.27954
 C2856 C 1.08272 0.60330 0.29398
 C2857 C 1.07567 0.59620 0.31326
 C2858 C 1.07663 0.57491 0.31842
 C2859 C 1.08502 0.56098 0.30377
 C2860 C 1.09249 0.56818 0.28464
 H2861 H 1.09593 0.63726 0.19463
 H2862 H 1.11108 0.65271 0.16350
 H2863 H 1.16941 0.62250 0.17729
 H2864 H 1.15385 0.60629 0.20777
 H2865 H 1.08186 0.61979 0.29056
 H2866 H 1.06982 0.60751 0.32425
 H2867 H 1.08567 0.54445 0.30696
 H2868 H 1.09891 0.55709 0.27372
 C2869 C 0.62616 1.12626 0.20773
 C2870 C 0.63468 1.14640 0.20740
 C2871 C 0.64275 1.15463 0.18898
 C2872 C 0.64286 1.14271 0.17075
 C2873 C 0.63454 1.12256 0.17102
 C2874 C 0.62600 1.11447 0.18933
 C2875 C 0.61769 1.11758 0.22725
 N2876 N 0.60237 1.10307 0.22689
 N2877 N 0.59473 1.09533 0.24453
 C2878 C 0.60226 1.10163 0.26322
 N2879 N 0.61765 1.11606 0.26357
 N2880 N 0.62514 1.12395 0.24594
 C2881 C 0.59395 1.09298 0.28282
 C2882 C 0.60651 1.09194 0.30064
 C2883 C 0.59872 1.08373 0.31919
 C2884 C 0.57809 1.07688 0.32037
 C2885 C 0.56543 1.07807 0.30267
 C2886 C 0.57338 1.08582 0.28395
 H2887 H 0.63491 1.15585 0.22133
 H2888 H 0.64921 1.17019 0.18895
 H2889 H 0.63457 1.11322 0.15701
 H2890 H 0.61963 1.09887 0.18919
 H2891 H 0.62245 1.09726 0.30017
 H2892 H 0.60868 1.08302 0.33274
 H2893 H 0.54948 1.07283 0.30331
 H2894 H 0.56334 1.08654 0.27047
 C2895 C 0.62471 0.62617 0.70606
 C2896 C 0.63274 0.61299 0.69056
 C2897 C 0.64145 0.62131 0.67244
 C2898 C 0.64235 0.64295 0.66943
 C2899 C 0.63404 0.65609 0.68476
 C2900 C 0.62535 0.64782 0.70286
 C2901 C 0.61603 0.61751 0.72561
 N2902 N 0.60901 0.63037 0.74082
 N2903 N 0.60153 0.62271 0.75854
 C2904 C 0.60072 0.60185 0.76186
 N2905 N 0.60767 0.58896 0.74663
 N2906 N 0.61518 0.59663 0.72889
 C2907 C 0.59259 0.59343 0.78175
 C2908 C 0.59115 0.57183 0.78509
 C2909 C 0.58359 0.56401 0.80394
 C2910 C 0.57731 0.57760 0.81986
 C2911 C 0.57878 0.59917 0.81652
 C2912 C 0.58630 0.60698 0.79770
 H2913 H 0.63243 0.59625 0.69247
 H2914 H 0.64754 0.61085 0.66074
 H2915 H 0.63462 0.67283 0.68291
 H2916 H 0.61931 0.65845 0.71442
 H2917 H 0.59581 0.56094 0.77313
 H2918 H 0.58244 0.54732 0.80598
 H2919 H 0.57440 0.61005 0.82860
 H2920 H 0.58728 0.62369 0.79574
 C2921 C 0.87327 0.87537 0.70699
 C2922 C 0.85318 0.86688 0.70675
 C2923 C 0.84491 0.85878 0.68838
 C2924 C 0.85676 0.85860 0.67011
 C2925 C 0.87684 0.86695 0.67028
 C2926 C 0.88496 0.87552 0.68853
 C2927 C 0.88205 0.88373 0.72648
 N2928 N 0.89665 0.89897 0.72608
 N2929 N 0.90455 0.90647 0.74370
 C2930 C 0.89832 0.89884 0.76240
 N2931 N 0.88380 0.88354 0.76279
 N2932 N 0.87575 0.87620 0.74518
 C2933 C 0.90715 0.90699 0.78197
 C2934 C 0.90815 0.89428 0.79973
 C2935 C 0.91647 0.90193 0.81827
 C2936 C 0.92348 0.92256 0.81949
 C2937 C 0.92236 0.93535 0.80183
 C2938 C 0.91450 0.92755 0.78313
 H2939 H 0.84380 0.86666 0.72073
 H2940 H 0.82941 0.85227 0.68843
 H2941 H 0.88612 0.86686 0.65624
 H2942 H 0.90052 0.88186 0.68832
 H2943 H 0.90268 0.87834 0.79924
 H2944 H 0.91712 0.89187 0.83179
 H2945 H 0.92773 0.95131 0.80250
 H2946 H 0.91382 0.93770 0.76969
 C2947 C 0.87355 0.37369 0.20733
 C2948 C 0.86098 0.38599 0.19443
 C2949 C 0.85264 0.37780 0.17613
 C2950 C 0.85636 0.35696 0.17047
 C2951 C 0.86874 0.34460 0.18365
 C2952 C 0.87745 0.35295 0.20171
 C2953 C 0.88237 0.38240 0.22667
 N2954 N 0.90012 0.37453 0.23492
 N2955 N 0.90802 0.38238 0.25238
 C2956 C 0.89837 0.39828 0.26239
 N2957 N 0.88059 0.40609 0.25417
 N2958 N 0.87281 0.39838 0.23661
 C2959 C 0.90690 0.40677 0.28195
 C2960 C 0.89375 0.41624 0.29653
 C2961 C 0.90168 0.42396 0.31521
 C2962 C 0.92305 0.42282 0.31957
 C2963 C 0.93622 0.41353 0.30478
 C2964 C 0.92819 0.40540 0.28628
 H2965 H 0.85780 0.40207 0.19834
 H2966 H 0.84331 0.38783 0.16637
 H2967 H 0.87154 0.32838 0.18014
 H2968 H 0.88689 0.34304 0.21151
 H2969 H 0.87722 0.41730 0.29369
 H2970 H 0.89093 0.43050 0.32637
 H2971 H 0.95279 0.41270 0.30735
 H2972 H 0.93871 0.39834 0.27522
 C2973 C 0.37352 0.87578 0.20642
 C2974 C 0.35194 0.87373 0.20396
 C2975 C 0.34367 0.86520 0.18579
 C2976 C 0.35677 0.85857 0.16966
 C2977 C 0.37831 0.86076 0.17199
 C2978 C 0.38661 0.86928 0.19017
 C2979 C 0.38227 0.88442 0.22592
 N2980 N 0.40311 0.88604 0.22865
 N2981 N 0.41091 0.89357 0.24630
 C2982 C 0.39821 0.89979 0.26197
 N2983 N 0.37739 0.89821 0.25920
 N2984 N 0.36959 0.89069 0.24158
 C2985 C 0.40682 0.90802 0.28171
 C2986 C 0.39349 0.91439 0.29781
 C2987 C 0.40151 0.92204 0.31646
 C2988 C 0.42304 0.92355 0.31949
 C2989 C 0.43639 0.91717 0.30345
 C2990 C 0.42837 0.90951 0.28475
 H2991 H 0.34139 0.87853 0.21614
 H2992 H 0.32702 0.86347 0.18443
 H2993 H 0.38869 0.85586 0.15969
 H2994 H 0.40330 0.87067 0.19151
 H2995 H 0.37682 0.91339 0.29607
 H2996 H 0.39082 0.92652 0.32866
 H2997 H 0.45305 0.91833 0.30527
 H2998 H 0.43909 0.90478 0.27268
 C2999 C 0.37404 0.37611 0.70623
 C3000 C 0.38716 0.36966 0.68998
 C3001 C 0.37888 0.36115 0.67178
 C3002 C 0.35734 0.35891 0.66943
 C3003 C 0.34422 0.36549 0.68556
 C3004 C 0.35246 0.37401 0.70374
 C3005 C 0.38276 0.38473 0.72575
 N3006 N 0.37005 0.39090 0.74142
 N3007 N 0.37782 0.39841 0.75907
 C3008 C 0.39863 0.40006 0.76184
 N3009 N 0.41136 0.39393 0.74615
 N3010 N 0.40359 0.38642 0.72848
 C3011 C 0.40720 0.40828 0.78160
 C3012 C 0.42875 0.40989 0.78463
 C3013 C 0.43673 0.41755 0.80335
 C3014 C 0.42335 0.42380 0.81942
 C3015 C 0.40183 0.42216 0.81640
 C3016 C 0.39385 0.41450 0.79772
 H3017 H 0.40383 0.37108 0.69133
 H3018 H 0.38927 0.35627 0.65948
 H3019 H 0.32758 0.36373 0.68419
 H3020 H 0.34189 0.37878 0.71592
 H3021 H 0.43949 0.40527 0.77254
 H3022 H 0.45339 0.41881 0.80516
 H3023 H 0.39112 0.42653 0.82861
 H3024 H 0.37718 0.41340 0.79600
 C3025 C 1.12374 0.87482 1.29483
 C3026 C 1.13035 0.88817 1.31083
 C3027 C 1.13913 0.88009 1.32901
 C3028 C 1.14148 0.85851 1.33157
 C3029 C 1.13477 0.84516 1.31567
 C3030 C 1.12598 0.85320 1.29751
 C3031 C 1.11477 0.88332 1.27535
 N3032 N 1.10846 0.87039 1.25991
 N3033 N 1.10066 0.87797 1.24229
 C3034 C 1.09883 0.89883 1.23933
 N3035 N 1.10510 0.91178 1.25480
 N3036 N 1.11290 0.90419 1.27243
 C3037 C 1.09037 0.90721 1.21957
 C3038 C 1.08863 0.92880 1.21636
 C3039 C 1.08090 0.93662 1.19759
 C3040 C 1.07472 0.92303 1.18164
 C3041 C 1.07640 0.90147 1.18488
 C3042 C 1.08412 0.89365 1.20361
 H3043 H 1.12883 0.90489 1.30932
 H3044 H 1.14410 0.89067 1.34112
 H3045 H 1.13661 0.82848 1.31721
 H3046 H 1.12110 0.84245 1.28552
 H3047 H 1.09325 0.93969 1.22833
 H3048 H 1.07959 0.95331 1.19562
 H3049 H 1.07207 0.89061 1.17276
 H3050 H 1.08531 0.87694 1.20549
 C3051 C 1.12403 0.37409 0.79463
 C3052 C 1.12624 0.35247 0.79729
 C3053 C 1.13503 0.34439 0.81543
 C3054 C 1.14178 0.35771 0.83134
 C3055 C 1.13949 0.37930 0.82879
 C3056 C 1.13071 0.38742 0.81064
 C3057 C 1.11504 0.38264 0.77519
 N3058 N 1.11317 0.40351 0.77230
 N3059 N 1.10533 0.41113 0.75470
 C3060 C 1.09903 0.39821 0.73923
 N3061 N 1.10085 0.37735 0.74214
 N3062 N 1.10869 0.36973 0.75973
 C3063 C 1.09054 0.40663 0.71950
 C3064 C 1.08429 0.39311 0.70351
 C3065 C 1.07657 0.40097 0.68479
 C3066 C 1.07489 0.42254 0.68161
 C3067 C 1.08106 0.43609 0.69759
 C3068 C 1.08879 0.42823 0.71634
 H3069 H 1.12131 0.34174 0.78530
 H3070 H 1.13682 0.32770 0.81696
 H3071 H 1.14450 0.38985 0.84092
 H3072 H 1.12923 0.40414 0.80914
 H3073 H 1.08548 0.37640 0.70535
 H3074 H 1.07224 0.39014 0.67265
 H3075 H 1.07975 0.45278 0.69566
 H3076 H 1.09341 0.43909 0.72833
 C3077 C 0.62750 0.87382 0.79315
 C3078 C 0.63083 0.85232 0.79569
 C3079 C 0.63894 0.84450 0.81428
 C3080 C 0.64372 0.85797 0.83076
 C3081 C 0.64078 0.87945 0.82815
 C3082 C 0.63272 0.88731 0.80957
 C3083 C 0.61851 0.88213 0.77359
 N3084 N 0.61569 0.90291 0.77094
 N3085 N 0.60748 0.91037 0.75344
 C3086 C 0.60169 0.89736 0.73785
 N3087 N 0.60451 0.87657 0.74050
 N3088 N 0.61274 0.86911 0.75799
 C3089 C 0.59260 0.90567 0.71834
 C3090 C 0.58621 0.89213 0.70241
 C3091 C 0.57791 0.89997 0.68392
 C3092 C 0.57582 0.92154 0.68091
 C3093 C 0.58207 0.93508 0.69686
 C3094 C 0.59034 0.92724 0.71537
 H3095 H 0.62715 0.84150 0.78334
 H3096 H 0.64145 0.82791 0.81588
 H3097 H 0.64447 0.89009 0.84067
 H3098 H 0.63043 0.90394 0.80815
 H3099 H 0.58774 0.87543 0.70413
 H3100 H 0.57349 0.88916 0.67179
 H3101 H 0.58044 0.95176 0.69507
 H3102 H 0.59503 0.93813 0.72732
 C3103 C 0.62520 0.37390 1.29333
 C3104 C 0.62732 0.35227 1.29597
 C3105 C 0.63606 0.34413 1.31412
 C3106 C 0.64284 0.35742 1.33005
 C3107 C 0.64062 0.37901 1.32752
 C3108 C 0.63190 0.38718 1.30936
 C3109 C 0.61626 0.38251 1.27387
 N3110 N 0.61451 0.40339 1.27100
 N3111 N 0.60671 0.41108 1.25341
 C3112 C 0.60031 0.39821 1.23793
 N3113 N 0.60202 0.37733 1.24083
 N3114 N 0.60983 0.36965 1.25841
 C3115 C 0.59183 0.40670 1.21822
 C3116 C 0.58538 0.39322 1.20226
 C3117 C 0.57760 0.40115 1.18359
 C3118 C 0.57606 0.42273 1.18041
 C3119 C 0.58246 0.43623 1.19636
 C3120 C 0.59023 0.42831 1.21506
 H3121 H 0.62238 0.34157 1.28396
 H3122 H 0.63779 0.32744 1.31563
 H3123 H 0.64564 0.38954 1.33966
 H3124 H 0.63047 0.40391 1.30788
 H3125 H 0.58644 0.37651 1.20410
 H3126 H 0.57311 0.39035 1.17149
 H3127 H 0.58126 0.45293 1.19443
 H3128 H 0.59501 0.43914 1.22703
 C3129 C 0.87520 1.12622 1.29348
 C3130 C 0.86875 1.11285 1.30956
 C3131 C 0.86031 1.12092 1.32789
 C3132 C 0.85815 1.14250 1.33054
 C3133 C 0.86471 1.15587 1.31456
 C3134 C 0.87315 1.14784 1.29624
 C3135 C 0.88380 1.11773 1.27384
 N3136 N 0.88994 1.13068 1.25831
 N3137 N 0.89745 1.12311 1.24057
 C3138 C 0.89914 1.10226 1.23756
 N3139 N 0.89304 1.08929 1.25311
 N3140 N 0.88552 1.09687 1.27087
 C3141 C 0.90735 1.09390 1.21770
 C3142 C 0.90903 1.07231 1.21448
 C3143 C 0.91665 1.06452 1.19567
 C3144 C 0.92280 1.07813 1.17969
 C3145 C 0.92112 1.09969 1.18291
 C3146 C 0.91349 1.10748 1.20168
 H3147 H 0.87012 1.09613 1.30799
 H3148 H 0.85545 1.11033 1.34007
 H3149 H 0.86301 1.17256 1.31615
 H3150 H 0.87792 1.15861 1.28419
 H3151 H 0.90448 1.06140 1.22648
 H3152 H 0.91796 1.04783 1.19370
 H3153 H 0.92542 1.11056 1.17078
 H3154 H 0.91235 1.12418 1.20357
 C3155 C 0.87432 0.62479 0.79322
 C3156 C 0.88456 0.62150 0.81226
 C3157 C 0.87659 0.62992 0.83066
 C3158 C 0.85807 0.64132 0.83032
 C3159 C 0.84762 0.64431 0.81147
 C3160 C 0.85577 0.63630 0.79302
 C3161 C 0.88299 0.61650 0.77362
 N3162 N 0.87835 0.62564 0.75515
 N3163 N 0.88622 0.61832 0.73746
 C3164 C 0.89890 0.60145 0.73749
 N3165 N 0.90348 0.59224 0.75596
 N3166 N 0.89575 0.59968 0.77369
 C3167 C 0.90752 0.59334 0.71780
 C3168 C 0.91348 0.57236 0.71605
 C3169 C 0.92116 0.56465 0.69723
 C3170 C 0.92345 0.57789 0.68001
 C3171 C 0.91779 0.59890 0.68181
 C3172 C 0.90970 0.60651 0.70047
 H3173 H 0.89892 0.61278 0.81286
 H3174 H 0.88476 0.62755 0.84518
 H3175 H 0.83332 0.65315 0.81108
 H3176 H 0.84749 0.63897 0.77861
 H3177 H 0.91188 0.56185 0.72913
 H3178 H 0.92550 0.54840 0.69615
 H3179 H 0.91932 0.60933 0.66866
 H3180 H 0.90531 0.62275 0.70139
 C3181 C 0.37389 1.12450 0.79382
 C3182 C 0.38707 1.13101 0.80999
 C3183 C 0.37887 1.13942 0.82827
 C3184 C 0.35734 1.14151 0.83079
 C3185 C 0.34414 1.13486 0.81475
 C3186 C 0.35231 1.12644 0.79648
 C3187 C 0.38253 1.11600 0.77421
 N3188 N 0.36977 1.10989 0.75857
 N3189 N 0.37748 1.10249 0.74084
 C3190 C 0.39829 1.10089 0.73796
 N3191 N 0.41107 1.10697 0.75362
 N3192 N 0.40335 1.11437 0.77136
 C3193 C 0.40680 1.09280 0.71812
 C3194 C 0.42834 1.09114 0.71504
 C3195 C 0.43627 1.08357 0.69626
 C3196 C 0.42284 1.07745 0.68018
 C3197 C 0.40133 1.07915 0.68325
 C3198 C 0.39340 1.08671 0.70198
 H3199 H 0.40375 1.12971 0.80851
 H3200 H 0.38932 1.14435 0.84049
 H3201 H 0.32750 1.13650 0.81625
 H3202 H 0.34169 1.12162 0.78437
 H3203 H 0.43911 1.09565 0.72714
 H3204 H 0.45291 1.08225 0.69441
 H3205 H 0.39059 1.07488 0.67103
 H3206 H 0.37674 1.08785 0.70375
 C3207 C 0.37410 0.62416 1.29339
 C3208 C 0.38734 0.63070 1.30950
 C3209 C 0.37920 0.63914 1.32780
 C3210 C 0.35767 0.64122 1.33038
 C3211 C 0.34443 0.63456 1.31439
 C3212 C 0.35254 0.62611 1.29611
 C3213 C 0.38267 0.61559 1.27378
 N3214 N 0.36985 0.60945 1.25819
 N3215 N 0.37749 0.60199 1.24047
 C3216 C 0.39829 0.60033 1.23753
 N3217 N 0.41113 0.60642 1.25314
 N3218 N 0.40348 0.61389 1.27088
 C3219 C 0.40672 0.59217 1.21769
 C3220 C 0.42824 0.59043 1.21455
 C3221 C 0.43610 0.58284 1.19576
 C3222 C 0.42261 0.57679 1.17970
 C3223 C 0.40112 0.57854 1.18282
 C3224 C 0.39326 0.58612 1.20158
 H3225 H 0.40402 0.62939 1.30797
 H3226 H 0.38968 0.64408 1.33998
 H3227 H 0.32779 0.63620 1.31594
 H3228 H 0.34187 0.62127 1.28404
 H3229 H 0.43906 0.59490 1.22663
 H3230 H 0.45274 0.58147 1.19386
 H3231 H 0.39033 0.57432 1.17063
 H3232 H 0.37661 0.58732 1.20339
 C3233 C 1.12655 1.29374 0.87661
 C3234 C 1.14810 1.29641 0.87449
 C3235 C 1.15619 1.31469 0.86595
 C3236 C 1.14292 1.33072 0.85936
 C3237 C 1.12141 1.32820 0.86165
 C3238 C 1.11330 1.30990 0.87018
 C3239 C 1.11799 1.27410 0.88519
 N3240 N 1.09718 1.27119 0.88686
 N3241 N 1.08953 1.25341 0.89429
 C3242 C 1.10236 1.23777 0.90037
 N3243 N 1.12316 1.24071 0.89874
 N3244 N 1.13080 1.25848 0.89131
 C3245 C 1.09391 1.21787 0.90845
 C3246 C 1.10735 1.20177 0.91461
 C3247 C 1.09947 1.18296 0.92211
 C3248 C 1.07797 1.17978 0.92365
 C3249 C 1.06450 1.19583 0.91749
 C3250 C 1.07238 1.21468 0.91000
 H3251 H 1.15878 1.28430 0.87924
 H3252 H 1.17282 1.31620 0.86415
 H3253 H 1.11091 1.34041 0.85678
 H3254 H 1.09663 1.30841 0.87162
 H3255 H 1.12401 1.20362 0.91357
 H3256 H 1.11024 1.17076 0.92642
 H3257 H 1.04786 1.19390 0.91870
 H3258 H 1.06158 1.22675 0.90543
 C3259 C 1.12669 0.79445 0.37692
 C3260 C 1.11332 0.81051 0.37046
 C3261 C 1.12130 0.82884 0.36189
 C3262 C 1.14279 0.83151 0.35959
 C3263 C 1.15617 0.81558 0.36619
 C3264 C 1.14822 0.79726 0.37477
 C3265 C 1.11826 0.77477 0.38555
 N3266 N 1.13119 0.75924 0.39169
 N3267 N 1.12367 0.74144 0.39917
 C3268 C 1.10289 0.73837 0.40083
 N3269 N 1.08995 0.75392 0.39474
 N3270 N 1.09748 0.77173 0.38726
 C3271 C 1.09457 0.71843 0.40894
 C3272 C 1.07306 0.71512 0.41049
 C3273 C 1.06528 0.69621 0.41794
 C3274 C 1.07883 0.68021 0.42404
 C3275 C 1.10032 0.68352 0.42252
 C3276 C 1.10810 0.70239 0.41507
 H3277 H 1.09666 0.80890 0.37192
 H3278 H 1.11071 0.84098 0.35701
 H3279 H 1.17279 0.81720 0.36438
 H3280 H 1.15898 0.78523 0.37954
 H3281 H 1.06218 0.72714 0.40595
 H3282 H 1.04865 0.69419 0.41913
 H3283 H 1.11116 0.67137 0.42681
 H3284 H 1.12475 0.70434 0.41402
 C3285 C 0.62753 1.29351 0.37557
 C3286 C 0.61428 1.30961 0.36897
 C3287 C 0.62240 1.32784 0.36031
 C3288 C 0.64392 1.33038 0.35807
 C3289 C 0.65718 1.31439 0.36479
 C3290 C 0.64909 1.29617 0.37345
 C3291 C 0.61896 1.27396 0.38437
 N3292 N 0.63177 1.25839 0.39063
 N3293 N 0.62412 1.24072 0.39829
 C3294 C 0.60332 1.23783 0.40001
 N3295 N 0.59049 1.25342 0.39379
 N3296 N 0.59815 1.27110 0.38613
 C3297 C 0.59484 1.21803 0.40833
 C3298 C 0.57331 1.21492 0.40998
 C3299 C 0.56539 1.19614 0.41762
 C3300 C 0.57882 1.18006 0.42382
 C3301 C 0.60034 1.18318 0.42221
 C3302 C 0.60825 1.20193 0.41457
 H3303 H 0.59762 1.30812 0.37040
 H3304 H 0.61190 1.34003 0.35535
 H3305 H 0.67381 1.31591 0.36304
 H3306 H 0.65976 1.28411 0.37833
 H3307 H 0.56252 1.22699 0.40537
 H3308 H 0.54875 1.19427 0.41889
 H3309 H 0.61108 1.17097 0.42655
 H3310 H 0.62491 1.20372 0.41345
 C3311 C 0.62402 0.79676 0.87907
 C3312 C 0.64471 0.80206 0.88328
 C3313 C 0.65373 0.81953 0.87399
 C3314 C 0.64215 0.83233 0.86049
 C3315 C 0.62114 0.82742 0.85704
 C3316 C 0.61228 0.80969 0.86598
 C3317 C 0.61493 0.77747 0.88771
 N3318 N 0.59922 0.76764 0.87766
 N3319 N 0.59155 0.74981 0.88494
 C3320 C 0.59915 0.74119 0.90266
 N3321 N 0.61472 0.75114 0.91284
 N3322 N 0.62253 0.76887 0.90545
 C3323 C 0.59100 0.72112 0.91040
 C3324 C 0.59230 0.71597 0.93158
 C3325 C 0.58476 0.69687 0.93880
 C3326 C 0.57615 0.68229 0.92492
 C3327 C 0.57502 0.68752 0.90368
 C3328 C 0.58214 0.70678 0.89656
 H3329 H 0.65415 0.79233 0.89327
 H3330 H 0.66992 0.82272 0.87707
 H3331 H 0.61156 0.83718 0.84725
 H3332 H 0.59619 0.80613 0.86269
 H3333 H 0.59890 0.72682 0.94262
 H3334 H 0.58553 0.69364 0.95530
 H3335 H 0.56898 0.67658 0.89241
 H3336 H 0.58117 0.71025 0.88010
 C3337 C 0.87296 1.29437 1.12296
 C3338 C 0.88578 1.31126 1.12831
 C3339 C 0.87735 1.32913 1.13742
 C3340 C 0.85599 1.33039 1.14151
 C3341 C 0.84313 1.31374 1.13577
 C3342 C 0.85150 1.29594 1.12661
 C3343 C 0.88182 1.27503 1.11402
 N3344 N 0.86923 1.25905 1.10841
 N3345 N 0.87709 1.24146 1.10083
 C3346 C 0.89789 1.23905 1.09856
 N3347 N 0.91051 1.25506 1.10410
 N3348 N 0.90264 1.27268 1.11167
 C3349 C 0.90653 1.21926 1.09042
 C3350 C 0.92808 1.21629 1.08869
 C3351 C 0.93608 1.19748 1.08122
 C3352 C 0.92271 1.18128 1.07525
 C3353 C 0.90120 1.18426 1.07697
 C3354 C 0.89321 1.20301 1.08445
 H3355 H 0.90234 1.31065 1.12559
 H3356 H 0.88748 1.34194 1.14147
 H3357 H 0.82662 1.31436 1.13877
 H3358 H 0.84114 1.28328 1.12267
 H3359 H 0.93880 1.22848 1.09314
 H3360 H 0.95273 1.19568 1.07990
 H3361 H 0.89050 1.17195 1.07281
 H3362 H 0.87654 1.20468 1.08563
 C3363 C 0.87654 0.79505 0.62564
 C3364 C 0.87583 0.79804 0.64730
 C3365 C 0.86692 0.81596 0.65570
 C3366 C 0.85844 0.83132 0.64267
 C3367 C 0.85946 0.82856 0.62102
 C3368 C 0.86839 0.81062 0.61259
 C3369 C 0.88538 0.77564 0.61685
 N3370 N 0.88621 0.77255 0.59596
 N3371 N 0.89381 0.75491 0.58817
 C3372 C 0.90087 0.73960 0.60093
 N3373 N 0.90008 0.74274 0.62180
 N3374 N 0.89251 0.76036 0.62958
 C3375 C 0.90906 0.71980 0.59239
 C3376 C 0.91543 0.70376 0.60583
 C3377 C 0.92300 0.68501 0.59791
 C3378 C 0.92444 0.68183 0.57634
 C3379 C 0.91808 0.69784 0.56286
 C3380 C 0.91047 0.71662 0.57079
 H3381 H 0.88198 0.78642 0.65784
 H3382 H 0.86626 0.81763 0.67244
 H3383 H 0.85324 0.84030 0.61066
 H3384 H 0.86875 0.80888 0.59584
 H3385 H 0.91447 0.70559 0.62254
 H3386 H 0.92743 0.67286 0.60871
 H3387 H 0.91920 0.69592 0.54616
 H3388 H 0.90574 0.72865 0.55998
 C3389 C 0.37555 1.29413 0.62587
 C3390 C 0.37361 1.29677 0.64750
 C3391 C 0.36500 1.31496 0.65567
 C3392 C 0.35816 1.33093 0.64242
 C3393 C 0.36020 1.32841 0.62083
 C3394 C 0.36881 1.31021 0.61263
 C3395 C 0.38435 1.27464 0.61725
 N3396 N 0.38604 1.27179 0.59638
 N3397 N 0.39373 1.25415 0.58869
 C3398 C 0.40006 1.23860 0.60155
 N3399 N 0.39841 1.24148 0.62240
 N3400 N 0.39072 1.25910 0.63008
 C3401 C 0.40844 1.21886 0.59307
 C3402 C 0.41472 1.20280 0.60654
 C3403 C 0.42244 1.18410 0.59864
 C3404 C 0.42410 1.18100 0.57708
 C3405 C 0.41786 1.19703 0.56358
 C3406 C 0.41013 1.21576 0.57148
 H3407 H 0.37859 1.28473 0.65817
 H3408 H 0.36339 1.31646 0.67236
 H3409 H 0.35513 1.34058 0.61034
 H3410 H 0.37010 1.30873 0.59591
 H3411 H 0.41357 1.20458 0.62324
 H3412 H 0.42681 1.17192 0.60944
 H3413 H 0.41915 1.19516 0.54689
 H3414 H 0.40549 1.22780 0.56065
 C3415 C 0.37485 0.79380 1.12602
 C3416 C 0.37294 0.79643 1.14765
 C3417 C 0.36435 0.81461 1.15585
 C3418 C 0.35752 0.83061 1.14263
 C3419 C 0.35953 0.82810 1.12103
 C3420 C 0.36811 0.80990 1.11280
 C3421 C 0.38363 0.77431 1.11736
 N3422 N 0.38528 0.77149 1.09649
 N3423 N 0.39296 0.75385 1.08877
 C3424 C 0.39930 0.73829 1.10159
 N3425 N 0.39769 0.74114 1.12246
 N3426 N 0.39002 0.75876 1.13017
 C3427 C 0.40767 0.71855 1.09308
 C3428 C 0.41399 0.70248 1.10652
 C3429 C 0.42171 0.68380 1.09858
 C3430 C 0.42332 0.68072 1.07701
 C3431 C 0.41703 0.69676 1.06354
 C3432 C 0.40931 0.71548 1.07148
 H3433 H 0.37792 0.78437 1.15831
 H3434 H 0.36277 0.81610 1.17255
 H3435 H 0.35446 0.84029 1.11056
 H3436 H 0.36938 0.80844 1.09608
 H3437 H 0.41289 0.70425 1.12322
 H3438 H 0.42612 0.67161 1.10935
 H3439 H 0.41828 0.69491 1.04685
 H3440 H 0.40462 0.72752 1.06067
 C3441 C 0.87856 0.70347 0.87697
 C3442 C 0.88303 0.69804 0.85631
 C3443 C 0.87381 0.68058 0.84725
 C3444 C 0.86013 0.66790 0.85874
 C3445 C 0.85639 0.67296 0.87972
 C3446 C 0.86526 0.69068 0.88863
 C3447 C 0.88721 0.72271 0.88609
 N3448 N 0.87708 0.73272 0.90166
 N3449 N 0.88439 0.75052 0.90933
 C3450 C 0.90223 0.75893 0.90186
 N3451 N 0.91249 0.74881 0.88644
 N3452 N 0.90507 0.73111 0.87863
 C3453 C 0.91001 0.77898 0.90999
 C3454 C 0.93118 0.78396 0.90883
 C3455 C 0.93844 0.80305 0.91631
 C3456 C 0.92462 0.81779 0.92472
 C3457 C 0.90340 0.81274 0.92572
 C3458 C 0.89623 0.79348 0.91866
 H3459 H 0.89319 0.70765 0.84694
 H3460 H 0.87713 0.67728 0.83109
 H3461 H 0.84645 0.66330 0.88926
 H3462 H 0.86176 0.69435 0.90469
 H3463 H 0.94218 0.77299 0.90238
 H3464 H 0.95493 0.80615 0.91565
 H3465 H 0.89218 0.82379 0.93160
 H3466 H 0.87978 0.79015 0.91952
 C3467 C 0.87388 0.20632 0.37581
 C3468 C 0.85231 0.20365 0.37388
 C3469 C 0.84416 0.18541 0.36537
 C3470 C 0.85737 0.16942 0.35861
 C3471 C 0.87890 0.17196 0.36066
 C3472 C 0.88708 0.19021 0.36918
 C3473 C 0.88249 0.22590 0.38444
 N3474 N 0.90331 0.22874 0.38615
 N3475 N 0.91099 0.24646 0.39367
 C3476 C 0.89819 0.26209 0.39979
 N3477 N 0.87738 0.25922 0.39811
 N3478 N 0.86971 0.24152 0.39060
 C3479 C 0.90667 0.28192 0.40798
 C3480 C 0.89326 0.29809 0.41397
 C3481 C 0.90116 0.31684 0.42156
 C3482 C 0.92266 0.31989 0.42337
 C3483 C 0.93611 0.30376 0.41738
 C3484 C 0.92820 0.28497 0.40978
 H3485 H 0.84166 0.21572 0.37880
 H3486 H 0.82751 0.18389 0.36375
 H3487 H 0.88936 0.15977 0.35564
 H3488 H 0.90376 0.19171 0.37046
 H3489 H 0.87660 0.29635 0.41273
 H3490 H 0.89041 0.32910 0.42574
 H3491 H 0.95274 0.30558 0.41878
 H3492 H 0.93898 0.27284 0.40534
 C3493 C 0.37552 0.70617 0.37391
 C3494 C 0.36906 0.69000 0.38719
 C3495 C 0.36066 0.67169 0.37903
 C3496 C 0.35853 0.66915 0.35744
 C3497 C 0.36510 0.68521 0.34417
 C3498 C 0.37352 0.70351 0.35230
 C3499 C 0.38404 0.72581 0.38251
 N3500 N 0.39023 0.74140 0.36965
 N3501 N 0.39767 0.75914 0.37730
 C3502 C 0.39924 0.76209 0.39815
 N3503 N 0.39308 0.74648 0.41103
 N3504 N 0.38564 0.72872 0.40337
 C3505 C 0.40738 0.78195 0.40660
 C3506 C 0.40889 0.78515 0.42818
 C3507 C 0.41650 0.80396 0.43605
 C3508 C 0.42279 0.81994 0.42251
 C3509 C 0.42126 0.81674 0.40096
 C3510 C 0.41366 0.79798 0.39309
 H3511 H 0.37041 0.69149 0.40390
 H3512 H 0.35579 0.65945 0.38954
 H3513 H 0.36342 0.68370 0.32748
 H3514 H 0.37828 0.71562 0.34160
 H3515 H 0.40423 0.77314 0.43904
 H3516 H 0.41768 0.80591 0.45273
 H3517 H 0.42568 0.82888 0.39013
 H3518 H 0.41264 0.79611 0.37639
 C3519 C 0.37546 0.20641 0.87414
 C3520 C 0.37334 0.20374 0.85254
 C3521 C 0.36476 0.18550 0.84446
 C3522 C 0.35814 0.16949 0.85778
 C3523 C 0.36034 0.17205 0.87935
 C3524 C 0.36891 0.19031 0.88746
 C3525 C 0.38427 0.22595 0.88267
 N3526 N 0.38606 0.22885 0.90352
 N3527 N 0.39377 0.24651 0.91113
 C3528 C 0.40003 0.26204 0.89820
 N3529 N 0.39827 0.25911 0.87736
 N3530 N 0.39056 0.24146 0.86977
 C3531 C 0.40842 0.28182 0.90660
 C3532 C 0.41472 0.29782 0.89306
 C3533 C 0.42243 0.31655 0.90089
 C3534 C 0.42406 0.31976 0.92244
 C3535 C 0.41781 0.30377 0.93600
 C3536 C 0.41010 0.28500 0.92817
 H3537 H 0.37818 0.21580 0.84181
 H3538 H 0.36303 0.18397 0.82778
 H3539 H 0.35543 0.15986 0.88989
 H3540 H 0.37034 0.19181 0.90417
 H3541 H 0.41359 0.29597 0.87636
 H3542 H 0.42681 0.32869 0.89004
 H3543 H 0.41908 0.30571 0.95268
 H3544 H 0.40544 0.27301 0.93905
 C3545 C 1.12702 0.70675 1.12655
 C3546 C 1.13044 0.70421 1.14801
 C3547 C 1.13847 0.68556 1.15581
 C3548 C 1.14308 0.66902 1.14234
 C3549 C 1.14003 0.67162 1.12090
 C3550 C 1.13204 0.69026 1.11307
 C3551 C 1.11817 0.72640 1.11826
 N3552 N 1.11535 0.72908 1.09750
 N3553 N 1.10728 0.74665 1.09006
 C3554 C 1.10164 0.76231 1.10306
 N3555 N 1.10446 0.75964 1.12383
 N3556 N 1.11254 0.74206 1.13127
 C3557 C 1.09269 0.78191 1.09476
 C3558 C 1.08637 0.79788 1.10830
 C3559 C 1.07815 0.81642 1.10047
 C3560 C 1.07607 0.81945 1.07892
 C3561 C 1.08227 0.80347 1.06539
 C3562 C 1.09046 0.78490 1.07321
 H3563 H 1.12690 0.71662 1.15883
 H3564 H 1.14108 0.68398 1.17237
 H3565 H 1.14360 0.65907 1.11027
 H3566 H 1.12968 0.69168 1.09646
 H3567 H 1.08788 0.79613 1.12498
 H3568 H 1.07376 0.82856 1.11128
 H3569 H 1.08065 0.80528 1.04872
 H3570 H 1.09510 0.77293 1.06232
 C3571 C 1.12674 0.20729 0.62722
 C3572 C 1.14834 0.20429 0.62805
 C3573 C 1.15664 0.18590 0.63615
 C3574 C 1.14355 0.17008 0.64356
 C3575 C 1.12198 0.17307 0.64281
 C3576 C 1.11366 0.19144 0.63470
 C3577 C 1.11794 0.22686 0.61872
 N3578 N 1.09709 0.22973 0.61759
 N3579 N 1.08921 0.24734 0.61000
 C3580 C 1.10185 0.26285 0.60322
 N3581 N 1.12270 0.25997 0.60435
 N3582 N 1.13057 0.24236 0.61193
 C3583 C 1.09315 0.28249 0.59479
 C3584 C 1.10638 0.29863 0.58828
 C3585 C 1.09826 0.31715 0.58032
 C3586 C 1.07671 0.31999 0.57864
 C3587 C 1.06345 0.30391 0.58520
 C3588 C 1.07157 0.28536 0.59317
 H3589 H 1.15889 0.21618 0.62250
 H3590 H 1.17332 0.18410 0.63685
 H3591 H 1.11158 0.16107 0.64841
 H3592 H 1.09696 0.19321 0.63432
 H3593 H 1.12306 0.29703 0.58938
 H3594 H 1.10887 0.32938 0.57574
 H3595 H 1.04678 0.30558 0.58391
 H3596 H 1.06093 0.27325 0.59800
 C3597 C 0.62666 0.70696 0.62509
 C3598 C 0.64680 0.70688 0.63345
 C3599 C 0.65524 0.68857 0.64158
 C3600 C 0.64351 0.67021 0.64191
 C3601 C 0.62338 0.67023 0.63370
 C3602 C 0.61509 0.68842 0.62511
 C3603 C 0.61771 0.72639 0.61670
 N3604 N 0.60307 0.72586 0.60151
 N3605 N 0.59504 0.74343 0.59397
 C3606 C 0.60117 0.76220 0.60149
 N3607 N 0.61573 0.76271 0.61674
 N3608 N 0.62391 0.74516 0.62412
 C3609 C 0.59222 0.78170 0.59328
 C3610 C 0.59112 0.79950 0.60592
 C3611 C 0.58271 0.81800 0.59819
 C3612 C 0.57572 0.81915 0.57757
 C3613 C 0.57692 0.80145 0.56486
 C3614 C 0.58487 0.78279 0.57273
 H3615 H 0.65609 0.72093 0.63354
 H3616 H 0.67078 0.68874 0.64797
 H3617 H 0.61419 0.65612 0.63391
 H3618 H 0.59949 0.68809 0.61886
 H3619 H 0.59658 0.79906 0.62184
 H3620 H 0.58199 0.83154 0.60819
 H3621 H 0.57157 0.80208 0.54890
 H3622 H 0.58563 0.76932 0.56264
 C3623 C 0.62663 0.20720 1.12689
 C3624 C 0.64822 0.20409 1.12769
 C3625 C 0.65644 0.18569 1.13582
 C3626 C 0.64328 0.16994 1.14329
 C3627 C 0.62173 0.17303 1.14257
 C3628 C 0.61349 0.19143 1.13443
 C3629 C 0.61792 0.22678 1.11834
 N3630 N 0.59708 0.22974 1.11723
 N3631 N 0.58927 0.24736 1.10959
 C3632 C 0.60198 0.26279 1.10274
 N3633 N 0.62281 0.25982 1.10385
 N3634 N 0.63061 0.24220 1.11148
 C3635 C 0.59334 0.28245 1.09428
 C3636 C 0.60663 0.29852 1.08770
 C3637 C 0.59857 0.31706 1.07974
 C3638 C 0.57703 0.32000 1.07812
 C3639 C 0.56372 0.30398 1.08472
 C3640 C 0.57178 0.28541 1.09270
 H3641 H 0.65882 0.21592 1.12210
 H3642 H 0.67312 0.18381 1.13650
 H3643 H 0.61128 0.16110 1.14822
 H3644 H 0.59680 0.19328 1.13408
 H3645 H 0.62331 0.29684 1.08877
 H3646 H 0.60923 0.32924 1.07511
 H3647 H 0.54706 0.30571 1.08347
 H3648 H 0.56109 0.27335 1.09757
 C3649 C 1.29363 1.12556 0.87600
 C3650 C 1.29622 1.14721 0.87405
 C3651 C 1.31438 1.15547 0.86552
 C3652 C 1.33037 1.14228 0.85877
 C3653 C 1.32791 1.12066 0.86084
 C3654 C 1.30974 1.11237 0.86937
 C3655 C 1.27414 1.11684 0.88465
 N3656 N 1.27134 1.09593 0.88629
 N3657 N 1.25371 1.08816 0.89383
 C3658 C 1.23813 1.10095 0.90006
 N3659 N 1.24096 1.12184 0.89846
 N3660 N 1.25857 1.12961 0.89092
 C3661 C 1.21841 1.09238 0.90832
 C3662 C 1.20235 1.10580 0.91455
 C3663 C 1.18371 1.09783 0.92224
 C3664 C 1.18066 1.07624 0.92391
 C3665 C 1.19666 1.06278 0.91765
 C3666 C 1.21534 1.07076 0.90996
 H3667 H 1.28415 1.15785 0.87896
 H3668 H 1.31583 1.17218 0.86389
 H3669 H 1.34010 1.11020 0.85584
 H3670 H 1.30831 1.09563 0.87066
 H3671 H 1.20410 1.12253 0.91343
 H3672 H 1.17155 1.10860 0.92661
 H3673 H 1.19482 1.04608 0.91894
 H3674 H 1.22738 1.05997 0.90533
 C3675 C 1.29402 0.62532 0.37568
 C3676 C 1.29661 0.64697 0.37368
 C3677 C 1.31476 0.65519 0.36511
 C3678 C 1.33075 0.64198 0.35839
 C3679 C 1.32828 0.62036 0.36051
 C3680 C 1.31011 0.61211 0.36906
 C3681 C 1.27454 0.61664 0.38439
 N3682 N 1.27170 0.59574 0.38602
 N3683 N 1.25408 0.58800 0.39362
 C3684 C 1.23855 0.60083 0.39991
 N3685 N 1.24142 0.62171 0.39831
 N3686 N 1.25902 0.62945 0.39072
 C3687 C 1.21883 0.59230 0.40821
 C3688 C 1.20285 0.60576 0.41457
 C3689 C 1.18421 0.59783 0.42228
 C3690 C 1.18107 0.57624 0.42384
 C3691 C 1.19700 0.56275 0.41748
 C3692 C 1.21569 0.57069 0.40977
 H3693 H 1.28455 0.65762 0.37857
 H3694 H 1.31622 0.67190 0.36344
 H3695 H 1.34046 0.60990 0.35552
 H3696 H 1.30867 0.59537 0.37040
 H3697 H 1.20467 0.62248 0.41352
 H3698 H 1.17210 0.60862 0.42674
 H3699 H 1.19509 0.54605 0.41869
 H3700 H 1.22767 0.55987 0.40505
 C3701 C 0.79374 1.12402 0.37442
 C3702 C 0.79628 1.12612 0.35279
 C3703 C 0.81441 1.13473 0.34457
 C3704 C 0.83043 1.14140 0.35776
 C3705 C 0.82801 1.13919 0.37935
 C3706 C 0.80987 1.13059 0.38761
 C3707 C 0.77428 1.11528 0.38311
 N3708 N 0.77151 1.11351 0.40399
 N3709 N 0.75391 1.10588 0.41174
 C3710 C 0.73832 1.09971 0.39895
 N3711 N 0.74112 1.10144 0.37808
 N3712 N 0.75871 1.10906 0.37034
 C3713 C 0.71861 1.09139 0.40749
 C3714 C 0.70254 1.08521 0.39407
 C3715 C 0.68391 1.07750 0.40202
 C3716 C 0.68087 1.07574 0.42359
 C3717 C 0.69690 1.08192 0.43705
 C3718 C 0.71558 1.08963 0.42909
 H3719 H 0.78420 1.12127 0.34216
 H3720 H 0.81583 1.13647 0.32788
 H3721 H 0.84022 1.14413 0.38980
 H3722 H 0.80847 1.12918 0.40433
 H3723 H 0.70428 1.08641 0.37736
 H3724 H 0.67173 1.07319 0.39126
 H3725 H 0.69507 1.08056 0.45374
 H3726 H 0.72763 1.09421 0.43988
 C3727 C 0.79294 0.62602 0.87263
 C3728 C 0.79539 0.64755 0.86936
 C3729 C 0.81402 0.65548 0.86154
 C3730 C 0.83062 0.64210 0.85700
 C3731 C 0.82811 0.62061 0.85992
 C3732 C 0.80949 0.61264 0.86770
 C3733 C 0.77331 0.61760 0.88125
 N3734 N 0.77070 0.59678 0.88392
 N3735 N 0.75313 0.58922 0.89180
 C3736 C 0.73742 0.60214 0.89738
 N3737 N 0.74002 0.62296 0.89470
 N3738 N 0.75758 0.63052 0.88680
 C3739 C 0.71786 0.59373 0.90618
 C3740 C 0.70188 0.60721 0.91250
 C3741 C 0.68341 0.59930 0.92068
 C3742 C 0.68046 0.57773 0.92272
 C3743 C 0.69642 0.56423 0.91646
 C3744 C 0.71492 0.57214 0.90831
 H3745 H 0.78294 0.65830 0.87284
 H3746 H 0.81554 0.67208 0.85902
 H3747 H 0.84071 0.61005 0.85641
 H3748 H 0.80815 0.59599 0.86996
 H3749 H 0.70357 0.62392 0.91106
 H3750 H 0.67128 0.61009 0.92510
 H3751 H 0.69466 0.54754 0.91804
 H3752 H 0.72690 0.56129 0.90365
 C3753 C 1.29250 0.87398 1.12509
 C3754 C 1.30858 0.88731 1.13153
 C3755 C 1.32689 0.87918 1.13987
 C3756 C 1.32954 0.85758 1.14196
 C3757 C 1.31357 0.84426 1.13540
 C3758 C 1.29527 0.85235 1.12705
 C3759 C 1.27287 0.88254 1.11663
 N3760 N 1.25734 0.86964 1.11051
 N3761 N 1.23961 0.87726 1.10312
 C3762 C 1.23660 0.89813 1.10153
 N3763 N 1.25214 0.91105 1.10760
 N3764 N 1.26989 0.90342 1.11500
 C3765 C 1.21676 0.90655 1.09342
 C3766 C 1.21353 0.92814 1.09181
 C3767 C 1.19475 0.93598 1.08424
 C3768 C 1.17881 0.92241 1.07807
 C3769 C 1.18203 0.90084 1.07970
 C3770 C 1.20077 0.89300 1.08728
 H3771 H 1.30701 0.90403 1.13021
 H3772 H 1.33906 0.88973 1.14472
 H3773 H 1.31516 0.82756 1.13704
 H3774 H 1.28323 0.84162 1.12229
 H3775 H 1.22551 0.93903 1.09637
 H3776 H 1.19278 0.95268 1.08297
 H3777 H 1.16993 0.88999 1.07539
 H3778 H 1.20265 0.87629 1.08837
 C3779 C 1.29306 0.37419 0.62486
 C3780 C 1.30911 0.38754 0.63130
 C3781 C 1.32744 0.37945 0.63964
 C3782 C 1.33013 0.35786 0.64171
 C3783 C 1.31420 0.34450 0.63514
 C3784 C 1.29588 0.35256 0.62680
 C3785 C 1.27341 0.38270 0.61641
 N3786 N 1.25792 0.36977 0.61026
 N3787 N 1.24016 0.37737 0.60290
 C3788 C 1.23710 0.39823 0.60136
 N3789 N 1.25260 0.41117 0.60746
 N3790 N 1.27037 0.40358 0.61483
 C3791 C 1.21722 0.40661 0.59330
 C3792 C 1.21392 0.42821 0.59179
 C3793 C 1.19511 0.43602 0.58428
 C3794 C 1.17921 0.42243 0.57806
 C3795 C 1.18250 0.40086 0.57958
 C3796 C 1.20127 0.39305 0.58710
 H3797 H 1.30750 0.40427 0.63000
 H3798 H 1.33958 0.39003 0.64450
 H3799 H 1.31583 0.32781 0.63678
 H3800 H 1.28386 0.34180 0.62203
 H3801 H 1.22587 0.43911 0.59640
 H3802 H 1.19309 0.45272 0.58309
 H3803 H 1.17043 0.39000 0.57522
 H3804 H 1.20321 0.37634 0.58811
 C3805 C 0.79214 0.87364 0.62628
 C3806 C 0.79559 0.85204 0.62717
 C3807 C 0.81406 0.84412 0.63534
 C3808 C 0.82951 0.85760 0.64277
 C3809 C 0.82607 0.87917 0.64197
 C3810 C 0.80762 0.88711 0.63378
 C3811 C 0.77250 0.88204 0.61768
 N3812 N 0.76922 0.90290 0.61650
 N3813 N 0.75154 0.91043 0.60885
 C3814 C 0.73637 0.89743 0.60206
 N3815 N 0.73967 0.87657 0.60323
 N3816 N 0.75734 0.86905 0.61087
 C3817 C 0.71663 0.90578 0.59366
 C3818 C 0.70077 0.89221 0.58720
 C3819 C 0.68211 0.90004 0.57942
 C3820 C 0.67883 0.92161 0.57787
 C3821 C 0.69467 0.93519 0.58428
 C3822 C 0.71336 0.92737 0.59208
 H3823 H 0.78400 0.84119 0.62161
 H3824 H 0.81621 0.82742 0.63607
 H3825 H 0.83777 0.88987 0.64758
 H3826 H 0.80549 0.90383 0.63337
 H3827 H 0.70270 0.87550 0.58826
 H3828 H 0.67008 0.88917 0.57491
 H3829 H 0.69269 0.95188 0.58307
 H3830 H 0.72524 0.93827 0.59685
 C3831 C 0.79138 0.37365 1.12729
 C3832 C 0.81006 0.37546 1.11615
 C3833 C 0.82840 0.36699 1.12411
 C3834 C 0.82841 0.35705 1.14351
 C3835 C 0.80989 0.35544 1.15480
 C3836 C 0.79145 0.36348 1.14666
 C3837 C 0.77190 0.38221 1.11871
 N3838 N 0.75329 0.37397 1.12421
 N3839 N 0.73572 0.38154 1.11635
 C3840 C 0.73604 0.39779 1.10282
 N3841 N 0.75465 0.40612 1.09741
 N3842 N 0.77223 0.39840 1.10511
 C3843 C 0.71653 0.40620 1.09415
 C3844 C 0.71530 0.42703 1.08758
 C3845 C 0.69671 0.43502 1.07971
 C3846 C 0.67921 0.42218 1.07782
 C3847 C 0.68048 0.40130 1.08412
 C3848 C 0.69891 0.39344 1.09243
 H3849 H 0.81043 0.38311 1.10114
 H3850 H 0.84264 0.36829 1.11528
 H3851 H 0.80976 0.34773 1.16978
 H3852 H 0.77731 0.36194 1.15561
 H3853 H 0.72861 0.43723 1.08882
 H3854 H 0.69602 0.45117 1.07488
 H3855 H 0.66710 0.39118 1.08289
 H3856 H 0.69945 0.37730 1.09729
 C3857 C 0.70634 1.12385 1.12590
 C3858 C 0.70339 1.12441 1.14757
 C3859 C 0.68540 1.13301 1.15606
 C3860 C 0.66993 1.14133 1.14311
 C3861 C 0.67265 1.14044 1.12145
 C3862 C 0.69066 1.13181 1.11293
 C3863 C 0.72582 1.11537 1.11702
 N3864 N 0.72888 1.11468 1.09611
 N3865 N 0.74658 1.10739 1.08824
 C3866 C 0.76197 1.10050 1.10094
 N3867 N 0.75886 1.10115 1.12182
 N3868 N 0.74119 1.10842 1.12968
 C3869 C 0.78179 1.09256 1.09230
 C3870 C 0.79785 1.08627 1.10570
 C3871 C 0.81656 1.07880 1.09771
 C3872 C 0.81969 1.07737 1.07613
 C3873 C 0.80370 1.08373 1.06270
 C3874 C 0.78495 1.09124 1.07069
 H3875 H 0.71509 1.11839 1.15805
 H3876 H 0.68377 1.13358 1.17281
 H3877 H 0.66083 1.14652 1.11114
 H3878 H 0.69236 1.13156 1.09618
 H3879 H 0.79605 1.08717 1.12241
 H3880 H 0.82870 1.07438 1.10848
 H3881 H 0.80559 1.08264 1.04600
 H3882 H 0.77291 1.09593 1.05993
 C3883 C 0.70814 0.62679 0.62612
 C3884 C 0.70498 0.62765 0.64776
 C3885 C 0.68656 0.63566 0.65593
 C3886 C 0.67085 0.64295 0.64266
 C3887 C 0.67398 0.64214 0.62106
 C3888 C 0.69239 0.63412 0.61287
 C3889 C 0.72776 0.61843 0.61746
 N3890 N 0.73080 0.61733 0.59658
 N3891 N 0.74847 0.60989 0.58882
 C3892 C 0.76387 0.60324 0.60162
 N3893 N 0.76082 0.60433 0.62250
 N3894 N 0.74316 0.61176 0.63025
 C3895 C 0.78358 0.59498 0.59305
 C3896 C 0.79959 0.58855 0.60643
 C3897 C 0.81816 0.58075 0.59843
 C3898 C 0.82118 0.57914 0.57685
 C3899 C 0.80523 0.58561 0.56343
 C3900 C 0.78663 0.59344 0.57144
 H3901 H 0.71679 0.62222 0.65844
 H3902 H 0.68465 0.63641 0.67264
 H3903 H 0.66207 0.64764 0.61053
 H3904 H 0.69427 0.63371 0.59615
 H3905 H 0.79784 0.58960 0.62315
 H3906 H 0.83029 0.57622 0.60917
 H3907 H 0.80704 0.58437 0.54673
 H3908 H 0.77463 0.59820 0.56067
 C3909 C 0.20682 1.12419 0.62629
 C3910 C 0.19118 1.13215 0.61328
 C3911 C 0.17312 1.14074 0.62177
 C3912 C 0.17033 1.14158 0.64342
 C3913 C 0.18579 1.13329 0.65640
 C3914 C 0.20382 1.12472 0.64795
 C3915 C 0.22633 1.11571 0.61745
 N3916 N 0.24165 1.10871 0.63014
 N3917 N 0.25933 1.10142 0.62232
 C3918 C 0.26250 1.10081 0.60144
 N3919 N 0.24715 1.10775 0.58872
 N3920 N 0.22945 1.11506 0.59655
 C3921 C 0.28233 1.09285 0.59285
 C3922 C 0.28555 1.09161 0.57124
 C3923 C 0.30432 1.08411 0.56327
 C3924 C 0.32025 1.07765 0.57673
 C3925 C 0.31705 1.07898 0.59830
 C3926 C 0.29833 1.08645 0.60626
 H3927 H 0.19292 1.13192 0.59654
 H3928 H 0.16133 1.14681 0.61143
 H3929 H 0.18410 1.13382 0.67314
 H3930 H 0.21549 1.11870 0.65846
 H3931 H 0.27356 1.09638 0.56046
 H3932 H 0.30626 1.08309 0.54658
 H3933 H 0.32915 1.07448 0.60909
 H3934 H 0.29647 1.08728 0.62298
 C3935 C 0.20685 0.62579 1.12426
 C3936 C 0.20699 0.64436 1.13581
 C3937 C 0.18860 0.65233 1.14406
 C3938 C 0.16987 0.64166 1.14127
 C3939 C 0.16960 0.62310 1.12986
 C3940 C 0.18794 0.61532 1.12120
 C3941 C 0.22639 0.61734 1.11570
 N3942 N 0.22627 0.60463 1.09882
 N3943 N 0.24395 0.59710 1.09114
 C3944 C 0.26241 0.60182 1.10015
 N3945 N 0.26250 0.61445 1.11707
 N3946 N 0.24487 0.62213 1.12462
 C3947 C 0.28205 0.59336 1.09182
 C3948 C 0.29942 0.59116 1.10483
 C3949 C 0.31800 0.58313 1.09706
 C3950 C 0.31968 0.57753 1.07604
 C3951 C 0.30242 0.57988 1.06294
 C3952 C 0.28368 0.58751 1.07082
 H3953 H 0.22130 0.65282 1.13832
 H3954 H 0.18893 0.66666 1.15290
 H3955 H 0.15517 0.61476 1.12764
 H3956 H 0.18739 0.60093 1.11246
 H3957 H 0.29859 0.59546 1.12109
 H3958 H 0.33118 0.58155 1.10739
 H3959 H 0.30341 0.57560 1.04668
 H3960 H 0.27056 0.58912 1.06043
 C3961 C 0.70756 0.87571 0.87407
 C3962 C 0.70765 0.86434 0.85539
 C3963 C 0.68922 0.85621 0.84739
 C3964 C 0.67051 0.85892 0.85813
 C3965 C 0.67031 0.87016 0.87678
 C3966 C 0.68868 0.87871 0.88460
 C3967 C 0.72714 0.88414 0.88256
 N3968 N 0.72708 0.90092 0.89541
 N3969 N 0.74478 0.90849 0.90298
 C3970 C 0.76322 0.89945 0.89817
 N3971 N 0.76325 0.88263 0.88541
 N3972 N 0.74558 0.87519 0.87768
 C3973 C 0.78289 0.90767 0.90667
 C3974 C 0.80022 0.89458 0.90876
 C3975 C 0.81884 0.90226 0.91680
 C3976 C 0.82059 0.92326 0.92250
 C3977 C 0.80336 0.93643 0.92026
 C3978 C 0.78458 0.92864 0.91263
 H3979 H 0.72194 0.86188 0.84689
 H3980 H 0.68951 0.84750 0.83298
 H3981 H 0.65590 0.87233 0.88517
 H3982 H 0.68818 0.88731 0.89907
 H3983 H 0.79934 0.87833 0.90437
 H3984 H 0.83199 0.89187 0.91830
 H3985 H 0.80440 0.95267 0.92463
 H3986 H 0.77149 0.93909 0.91110
 C3987 C 0.70752 0.37601 0.37340
 C3988 C 0.70486 0.37392 0.35179
 C3989 C 0.68672 0.36522 0.34369
 C3990 C 0.67082 0.35844 0.35700
 C3991 C 0.67337 0.36063 0.37857
 C3992 C 0.69151 0.36933 0.38670
 C3993 C 0.72697 0.38488 0.38197
 N3994 N 0.72980 0.38669 0.40283
 N3995 N 0.74739 0.39442 0.41049
 C3996 C 0.76290 0.40067 0.39761
 N3997 N 0.76004 0.39890 0.37676
 N3998 N 0.74246 0.39117 0.36911
 C3999 C 0.78260 0.40907 0.40607
 C4000 C 0.79865 0.41526 0.39260
 C4001 C 0.81731 0.42295 0.40051
 C4002 C 0.82039 0.42468 0.42207
 C4003 C 0.80436 0.41855 0.43556
 C4004 C 0.78567 0.41085 0.42766
 H4005 H 0.71685 0.37886 0.34108
 H4006 H 0.68520 0.36350 0.32702
 H4007 H 0.66125 0.35561 0.38911
 H4008 H 0.69300 0.37073 0.40341
 H4009 H 0.79689 0.41405 0.37590
 H4010 H 0.82948 0.42724 0.38971
 H4011 H 0.80620 0.41990 0.45225
 H4012 H 0.77364 0.40628 0.43849
 C4013 C 0.20637 0.87720 0.37459
 C4014 C 0.19044 0.87052 0.38798
 C4015 C 0.17224 0.86185 0.37996
 C4016 C 0.16956 0.85968 0.35840
 C4017 C 0.18537 0.86649 0.34500
 C4018 C 0.20356 0.87516 0.35299
 C4019 C 0.22590 0.88597 0.38304
 N4020 N 0.24133 0.89224 0.37008
 N4021 N 0.25900 0.89985 0.37762
 C4022 C 0.26204 0.90152 0.39845
 N4023 N 0.24659 0.89530 0.41143
 N4024 N 0.22890 0.88768 0.40388
 C4025 C 0.28185 0.90975 0.40679
 C4026 C 0.28510 0.91141 0.42836
 C4027 C 0.30391 0.91895 0.43614
 C4028 C 0.31986 0.92503 0.42254
 C4029 C 0.31660 0.92342 0.40099
 C4030 C 0.29783 0.91588 0.39321
 H4031 H 0.19205 0.87188 0.40468
 H4032 H 0.16020 0.85681 0.39057
 H4033 H 0.18374 0.86479 0.32833
 H4034 H 0.21549 0.88010 0.34220
 H4035 H 0.27312 0.90688 0.43927
 H4036 H 0.30590 0.92022 0.45281
 H4037 H 0.32871 0.92767 0.39012
 H4038 H 0.29592 0.91475 0.37652
 C4039 C 0.20675 0.37613 0.87434
 C4040 C 0.19082 0.36946 0.88774
 C4041 C 0.17258 0.36086 0.87972
 C4042 C 0.16987 0.35873 0.85816
 C4043 C 0.18569 0.36551 0.84476
 C4044 C 0.20391 0.37412 0.85274
 C4045 C 0.22630 0.38487 0.88278
 N4046 N 0.24169 0.39120 0.86982
 N4047 N 0.25937 0.39881 0.87735
 C4048 C 0.26244 0.40042 0.89818
 N4049 N 0.24703 0.39414 0.91116
 N4050 N 0.22934 0.38653 0.90363
 C4051 C 0.28224 0.40869 0.90651
 C4052 C 0.28554 0.41024 0.92808
 C4053 C 0.30433 0.41783 0.93586
 C4054 C 0.32022 0.42408 0.92226
 C4055 C 0.31691 0.42258 0.90071
 C4056 C 0.29816 0.41498 0.89293
 H4057 H 0.19245 0.37080 0.90444
 H4058 H 0.16054 0.35584 0.89034
 H4059 H 0.18404 0.36385 0.82809
 H4060 H 0.21584 0.37905 0.84195
 H4061 H 0.27362 0.40557 0.93899
 H4062 H 0.30635 0.41901 0.95254
 H4063 H 0.32897 0.42697 0.88983
 H4064 H 0.29621 0.41395 0.87624
   
