data_POSCAR
  _audit_creation_date              2014-09-24
  _audit_creation_method            'ToBaCCo'
  _symmetry_space_group_name_H-M    'P1'
  _symmetry_Int_Tables_number       1
  _symmetry_cell_setting            triclinic
  loop_
  _symmetry_equiv_pos_as_xyz
 x,y,z
_cell_length_a 89.7897
_cell_length_b 95.4933
_cell_length_c 89.7420
_cell_angle_alpha 89.965300
_cell_angle_beta 89.762900
_cell_angle_gamma 90.569300
loop_
  _atom_site_label
  _atom_site_type_symbol
  _atom_site_fract_x
  _atom_site_fract_y
  _atom_site_fract_z
N1 N 0.36986 0.33411 0.32973
 N2 N 0.37292 0.34651 0.32405
 C3 C 0.38685 0.34662 0.31858
 C4 C 0.39294 0.33357 0.32084
 C5 C 0.38182 0.32582 0.32790
 H6 H 0.39199 0.35543 0.31291
 H7 H 0.38243 0.31503 0.33151
 Cu8 Cu 0.35836 0.36124 0.32321
 Cu9 Cu 0.35067 0.33016 0.33937
 Cu10 Cu 0.32302 0.35459 0.33323
 N11 N 0.34224 0.37294 0.31654
 N12 N 0.32838 0.37046 0.32054
 C13 C 0.31958 0.38017 0.31429
 C14 C 0.32844 0.38910 0.30579
 C15 C 0.34277 0.38417 0.30751
 H16 H 0.30761 0.38052 0.31557
 H17 H 0.35286 0.38843 0.30261
 N18 N 0.32000 0.33782 0.34574
 N19 N 0.33047 0.32849 0.34816
 C20 C 0.32523 0.31887 0.35791
 C21 C 0.31074 0.32229 0.36178
 C22 C 0.30785 0.33437 0.35379
 H23 H 0.33162 0.31020 0.36214
 H24 H 0.29787 0.34056 0.35430
 H25 H 0.33996 0.34258 0.32413
 H26 H 0.34363 0.35041 0.34292
 N27 N 0.34325 0.81613 -0.19138
 N28 N 0.34209 0.82344 -0.20370
 C29 C 0.35325 0.82027 -0.21299
 C30 C 0.36217 0.81032 -0.20630
 C31 C 0.35539 0.80792 -0.19247
 H32 H 0.35484 0.82534 -0.22364
 H33 H 0.35896 0.80079 -0.18386
 Cu34 Cu 0.32700 0.83739 -0.20652
 Cu35 Cu 0.32825 0.81809 -0.17549
 Cu36 Cu 0.30759 0.84876 -0.17724
 N37 N 0.31763 0.85546 -0.20677
 N38 N 0.30997 0.86004 -0.19533
 C39 C 0.30513 0.87305 -0.19840
 C40 C 0.31032 0.87691 -0.21249
 C41 C 0.31820 0.86535 -0.21739
 H42 H 0.29877 0.87935 -0.19071
 H43 H 0.32407 0.86411 -0.22784
 N44 N 0.30677 0.83574 -0.16011
 N45 N 0.31448 0.82405 -0.15936
 C46 C 0.31045 0.81707 -0.14687
 C47 C 0.29961 0.82469 -0.13945
 C48 C 0.29770 0.83649 -0.14819
 H49 H 0.31465 0.80691 -0.14376
 H50 H 0.28993 0.84487 -0.14631
 H51 H 0.31134 0.82905 -0.18595
 H52 H 0.32807 0.83907 -0.17963
 N53 N 0.85664 0.31868 -0.17101
 N54 N 0.85567 0.32697 -0.18266
 C55 C 0.86847 0.32664 -0.19041
 C56 C 0.87798 0.31750 -0.18340
 C57 C 0.87010 0.31249 -0.17116
 H58 H 0.87078 0.33278 -0.20030
 H59 H 0.87413 0.30551 -0.16261
 Cu60 Cu 0.83806 0.33795 -0.18657
 Cu61 Cu 0.84066 0.31806 -0.15605
 Cu62 Cu 0.82161 0.34962 -0.15572
 N63 N 0.82374 0.35292 -0.18736
 N64 N 0.81797 0.35813 -0.17513
 C65 C 0.80984 0.36944 -0.17865
 C66 C 0.81030 0.37123 -0.19403
 C67 C 0.81923 0.36042 -0.19914
 H68 H 0.80390 0.37569 -0.17058
 H69 H 0.82289 0.35854 -0.21044
 N70 N 0.82127 0.33618 -0.13894
 N71 N 0.82804 0.32397 -0.13920
 C72 C 0.82434 0.31675 -0.12680
 C73 C 0.81462 0.32475 -0.11836
 C74 C 0.81303 0.33702 -0.12645
 H75 H 0.82804 0.30625 -0.12441
 H76 H 0.80597 0.34577 -0.12379
 H77 H 0.82328 0.33021 -0.16526
 H78 H 0.84116 0.33873 -0.15958
 N79 N 0.84305 0.81213 0.31054
 N80 N 0.84016 0.82306 0.30219
 C81 C 0.85048 0.82411 0.29134
 C82 C 0.86042 0.81321 0.29293
 C83 C 0.85534 0.80581 0.30527
 H84 H 0.85076 0.83230 0.28301
 H85 H 0.86005 0.79642 0.30997
 Cu86 Cu 0.82314 0.83484 0.30619
 Cu87 Cu 0.83016 0.80674 0.32712
 Cu88 Cu 0.80708 0.83311 0.34009
 N89 N 0.81074 0.84978 0.31361
 N90 N 0.80466 0.84927 0.32694
 C91 C 0.79695 0.86110 0.32925
 C92 C 0.79831 0.86958 0.31667
 C93 C 0.80720 0.86193 0.30700
 H94 H 0.79087 0.86329 0.33938
 H95 H 0.81101 0.86490 0.29600
 N96 N 0.81093 0.81573 0.35144
 N97 N 0.81943 0.80561 0.34626
 C98 C 0.81922 0.79487 0.35596
 C99 C 0.81012 0.79830 0.36787
 C100 C 0.80510 0.81165 0.36465
 H101 H 0.82522 0.78522 0.35443
 H102 H 0.79736 0.81771 0.37119
 H103 H 0.81101 0.81865 0.32385
 H104 H 0.82775 0.82761 0.33170
 N105 N 0.64095 0.67511 0.32584
 N106 N 0.63901 0.66351 0.31819
 C107 C 0.62930 0.66575 0.30716
 C108 C 0.62473 0.67950 0.30786
 C109 C 0.63224 0.68516 0.31999
 H110 H 0.62583 0.65789 0.29919
 H111 H 0.63179 0.69586 0.32393
 Cu112 Cu 0.64928 0.64638 0.32294
 Cu113 Cu 0.65540 0.67580 0.34222
 Cu114 Cu 0.68314 0.65093 0.33731
 N115 N 0.66344 0.63129 0.32327
 N116 N 0.67692 0.63310 0.32856
 C117 C 0.68483 0.62140 0.32612
 C118 C 0.67573 0.61170 0.31895
 C119 C 0.66221 0.61842 0.31737
 H120 H 0.69640 0.62018 0.32912
 H121 H 0.65240 0.61456 0.31170
 N122 N 0.68528 0.66737 0.35051
 N123 N 0.67461 0.67654 0.35290
 C124 C 0.67918 0.68568 0.36344
 C125 C 0.69344 0.68209 0.36783
 C126 C 0.69688 0.67045 0.35938
 H127 H 0.67258 0.69424 0.36765
 H128 H 0.70686 0.66424 0.36011
 H129 H 0.66773 0.66459 0.32808
 H130 H 0.66206 0.65480 0.34520
 N131 N 0.65106 0.17910 -0.18668
 N132 N 0.65309 0.16699 -0.19329
 C133 C 0.64224 0.16501 -0.20344
 C134 C 0.63288 0.17651 -0.20315
 C135 C 0.63893 0.18522 -0.19237
 H136 H 0.64111 0.15579 -0.21033
 H137 H 0.63477 0.19522 -0.18871
 Cu138 Cu 0.66949 0.15490 -0.18752
 Cu139 Cu 0.66377 0.18594 -0.17071
 Cu140 Cu 0.69324 0.16495 -0.16063
 N141 N 0.68645 0.14340 -0.18196
 N142 N 0.69558 0.14746 -0.17138
 C143 C 0.70604 0.13769 -0.16939
 C144 C 0.70346 0.12676 -0.17927
 C145 C 0.69088 0.13084 -0.18712
 H146 H 0.71483 0.13858 -0.16126
 H147 H 0.68522 0.12508 -0.19581
 N148 N 0.68910 0.18299 -0.15101
 N149 N 0.67787 0.19101 -0.15480
 C150 C 0.67757 0.20221 -0.14569
 C151 C 0.68919 0.20120 -0.13565
 C152 C 0.69626 0.18887 -0.13942
 H153 H 0.66930 0.21034 -0.14614
 H154 H 0.70559 0.18422 -0.13379
 H155 H 0.68246 0.17537 -0.17761
 H156 H 0.67042 0.16653 -0.16333
 N157 N 0.13499 0.66836 -0.17898
 N158 N 0.13154 0.65691 -0.18637
 C159 C 0.12142 0.65987 -0.19683
 C160 C 0.11818 0.67396 -0.19602
 C161 C 0.12689 0.67905 -0.18441
 H162 H 0.11684 0.65229 -0.20454
 H163 H 0.12761 0.68976 -0.18053
 Cu164 Cu 0.14095 0.63922 -0.18244
 Cu165 Cu 0.15012 0.66791 -0.16326
 Cu166 Cu 0.17401 0.63934 -0.16559
 N167 N 0.15440 0.62375 -0.18466
 N168 N 0.16770 0.62391 -0.17866
 C169 C 0.17514 0.61249 -0.18333
 C170 C 0.16596 0.60485 -0.19288
 C171 C 0.15286 0.61238 -0.19330
 H172 H 0.18650 0.61016 -0.18034
 H173 H 0.14303 0.61016 -0.19982
 N174 N 0.17800 0.65594 -0.15285
 N175 N 0.16886 0.66666 -0.15177
 C176 C 0.17433 0.67580 -0.14169
 C177 C 0.18755 0.67061 -0.13609
 C178 C 0.18948 0.65800 -0.14347
 H179 H 0.16901 0.68549 -0.13859
 H180 H 0.19835 0.65062 -0.14181
 H181 H 0.16174 0.65453 -0.17645
 H182 H 0.15334 0.64657 -0.15940
 N183 N 0.12903 0.16196 0.32607
 N184 N 0.13123 0.15258 0.31564
 C185 C 0.12081 0.15397 0.30503
 C186 C 0.11150 0.16486 0.30905
 C187 C 0.11707 0.16965 0.32253
 H188 H 0.12023 0.14766 0.29505
 H189 H 0.11279 0.17806 0.32932
 Cu190 Cu 0.14760 0.13957 0.31705
 Cu191 Cu 0.14196 0.16324 0.34335
 Cu192 Cu 0.17685 0.14795 0.33883
 N193 N 0.16664 0.13064 0.31462
 N194 N 0.17817 0.13365 0.32307
 C195 C 0.18992 0.12606 0.31832
 C196 C 0.18542 0.11818 0.30610
 C197 C 0.17061 0.12137 0.30416
 H198 H 0.20100 0.12665 0.32298
 H199 H 0.16331 0.11740 0.29555
 N200 N 0.17260 0.16253 0.35413
 N201 N 0.15916 0.16780 0.35592
 C202 C 0.15953 0.17753 0.36667
 C203 C 0.17391 0.17870 0.37202
 C204 C 0.18192 0.16891 0.36387
 H205 H 0.14998 0.18354 0.37007
 H206 H 0.19370 0.16686 0.36469
 H207 H 0.15963 0.15916 0.32939
 H208 H 0.15485 0.14498 0.34286
 N209 N 0.65746 0.31184 0.67993
 N210 N 0.65342 0.32159 0.68951
 C211 C 0.64143 0.31684 0.69724
 C212 C 0.63787 0.30344 0.69222
 C213 C 0.64826 0.30076 0.68124
 H214 H 0.63577 0.32265 0.70587
 H215 H 0.64885 0.29153 0.67433
 Cu216 Cu 0.66437 0.33973 0.69123
 Cu217 Cu 0.67381 0.31403 0.66551
 Cu218 Cu 0.69193 0.34457 0.66612
 N219 N 0.68003 0.35398 0.69402
 N220 N 0.69099 0.35534 0.68433
 C221 C 0.70076 0.36498 0.68920
 C222 C 0.69561 0.37021 0.70255
 C223 C 0.68232 0.36312 0.70529
 H224 H 0.71090 0.36801 0.68344
 H225 H 0.67518 0.36416 0.71496
 N226 N 0.69718 0.33027 0.65186
 N227 N 0.69022 0.31812 0.65199
 C228 C 0.69594 0.30995 0.64128
 C229 C 0.70713 0.31735 0.63397
 C230 C 0.70763 0.33026 0.64105
 H231 H 0.69213 0.29941 0.63898
 H232 H 0.71489 0.33904 0.63848
 H233 H 0.68052 0.32740 0.68261
 H234 H 0.66684 0.33424 0.66895
 N235 N 0.63781 0.83675 1.16418
 N236 N 0.63481 0.84902 1.17004
 C237 C 0.62443 0.84748 1.18071
 C238 C 0.62063 0.83348 1.18172
 C239 C 0.62919 0.82692 1.17089
 H240 H 0.62037 0.85593 1.18759
 H241 H 0.62966 0.81582 1.16860
 Cu242 Cu 0.64600 0.86568 1.16494
 Cu243 Cu 0.65348 0.83499 1.14904
 Cu244 Cu 0.68017 0.86168 1.15089
 N245 N 0.66087 0.88023 1.16679
 N246 N 0.67460 0.87839 1.16216
 C247 C 0.68321 0.88890 1.16742
 C248 C 0.67436 0.89764 1.17599
 C249 C 0.66021 0.89186 1.17513
 H250 H 0.69517 0.88956 1.16603
 H251 H 0.65035 0.89520 1.18103
 N252 N 0.68320 0.84406 1.13977
 N253 N 0.67292 0.83411 1.13866
 C254 C 0.67791 0.82408 1.12939
 C255 C 0.69203 0.82788 1.12448
 C256 C 0.69500 0.84057 1.13133
 H257 H 0.67167 0.81478 1.12633
 H258 H 0.70479 0.84709 1.12974
 H259 H 0.66535 0.84849 1.16182
 H260 H 0.65925 0.85571 1.14356
 N261 N 0.15309 0.31596 1.17911
 N262 N 0.14773 0.32619 1.18722
 C263 C 0.13546 0.32156 1.19445
 C264 C 0.13300 0.30765 1.19060
 C265 C 0.14448 0.30450 1.18087
 H266 H 0.12871 0.32795 1.20170
 H267 H 0.14641 0.29466 1.17529
 Cu268 Cu 0.15700 0.34466 1.18718
 Cu269 Cu 0.17030 0.31837 1.16625
 Cu270 Cu 0.18980 0.34958 1.16907
 N271 N 0.16954 0.36101 1.19062
 N272 N 0.18223 0.36293 1.18353
 C273 C 0.18858 0.37494 1.18822
 C274 C 0.17941 0.38090 1.19889
 C275 C 0.16741 0.37172 1.20011
 H276 H 0.19924 0.37886 1.18435
 H277 H 0.15785 0.37267 1.20738
 N278 N 0.19548 0.33459 1.15514
 N279 N 0.18793 0.32272 1.15411
 C280 C 0.19417 0.31470 1.14354
 C281 C 0.20628 0.32181 1.13760
 C282 C 0.20684 0.33439 1.14526
 H283 H 0.19021 0.30440 1.14043
 H284 H 0.21473 0.34287 1.14356
 H285 H 0.18001 0.33313 1.18035
 H286 H 0.16987 0.34005 1.16372
 N287 N 0.13919 0.83710 0.67386
 N288 N 0.14101 0.84765 0.68322
 C289 C 0.13218 0.84557 0.69517
 C290 C 0.12438 0.83311 0.69333
 C291 C 0.12914 0.82802 0.67966
 H292 H 0.13112 0.85286 0.70429
 H293 H 0.12548 0.81848 0.67426
 Cu294 Cu 0.15390 0.86409 0.67899
 Cu295 Cu 0.14974 0.83602 0.65451
 Cu296 Cu 0.16902 0.86480 0.64500
 N297 N 0.16696 0.87944 0.67245
 N298 N 0.17227 0.87995 0.65881
 C299 C 0.18135 0.89112 0.65735
 C300 C 0.18191 0.89806 0.67088
 C301 C 0.17250 0.89039 0.68020
 H302 H 0.18756 0.89357 0.64733
 H303 H 0.17037 0.89224 0.69189
 N304 N 0.17221 0.84717 0.63505
 N305 N 0.16489 0.83569 0.63873
 C306 C 0.17034 0.82490 0.63071
 C307 C 0.18189 0.83001 0.62186
 C308 C 0.18264 0.84416 0.62485
 H309 H 0.16676 0.81411 0.63185
 H310 H 0.19056 0.85167 0.62036
 H311 H 0.16376 0.84912 0.66558
 H312 H 0.14647 0.85736 0.65844
 N313 N 0.34684 0.67991 0.66977
 N314 N 0.34923 0.67081 0.68046
 C315 C 0.36162 0.67462 0.68791
 C316 C 0.36737 0.68673 0.68149
 C317 C 0.35766 0.68977 0.67000
 H318 H 0.36631 0.66884 0.69709
 H319 H 0.35835 0.69852 0.66238
 Cu320 Cu 0.33616 0.65465 0.68322
 Cu321 Cu 0.32998 0.67823 0.65620
 Cu322 Cu 0.30647 0.64953 0.66124
 N323 N 0.32292 0.63860 0.68599
 N324 N 0.31134 0.63667 0.67731
 C325 C 0.30420 0.62480 0.68134
 C326 C 0.31169 0.61889 0.69324
 C327 C 0.32353 0.62800 0.69587
 H328 H 0.29432 0.62079 0.67593
 H329 H 0.33204 0.62697 0.70426
 N330 N 0.30341 0.66370 0.64562
 N331 N 0.31232 0.67462 0.64368
 C332 C 0.30737 0.68217 0.63205
 C333 C 0.29472 0.67569 0.62636
 C334 C 0.29259 0.66401 0.63530
 H335 H 0.31265 0.69165 0.62801
 H336 H 0.28390 0.65617 0.63428
 H337 H 0.31631 0.66713 0.67056
 H338 H 0.32797 0.65672 0.65743
 N339 N 0.36870 0.17424 1.17286
 N340 N 0.36555 0.17192 1.18696
 C341 C 0.37366 0.18078 1.19543
 C342 C 0.38224 0.18917 1.18602
 C343 C 0.37888 0.18458 1.17181
 H344 H 0.37321 0.18120 1.20746
 H345 H 0.38348 0.18840 1.16140
 Cu346 Cu 0.35117 0.15740 1.19248
 Cu347 Cu 0.35930 0.16380 1.15688
 Cu348 Cu 0.32639 0.14713 1.16661
 N349 N 0.33933 0.14037 1.19495
 N350 N 0.32945 0.13642 1.18498
 C351 C 0.32332 0.12413 1.18926
 C352 C 0.32981 0.12006 1.20260
 C353 C 0.33987 0.13074 1.20585
 H354 H 0.31515 0.11840 1.18282
 H355 H 0.34735 0.13139 1.21524
 N356 N 0.33065 0.15361 1.14617
 N357 N 0.34385 0.15869 1.14239
 C358 C 0.34367 0.16245 1.12800
 C359 C 0.32961 0.15988 1.12240
 C360 C 0.32157 0.15425 1.13425
 H361 H 0.35267 0.16799 1.12244
 H362 H 0.30990 0.15133 1.13435
 H363 H 0.34029 0.16501 1.16901
 H364 H 0.34864 0.14727 1.16752
 N365 N 0.84594 0.68250 1.17637
 N366 N 0.84547 0.67202 1.18589
 C367 C 0.85680 0.67335 1.19553
 C368 C 0.86490 0.68530 1.19189
 C369 C 0.85774 0.69079 1.17955
 H370 H 0.85889 0.66617 1.20459
 H371 H 0.86054 0.70037 1.17370
 Cu372 Cu 0.82998 0.65766 1.18512
 Cu373 Cu 0.83040 0.68484 1.16133
 Cu374 Cu 0.79735 0.66954 1.17335
 N375 N 0.81207 0.64608 1.18643
 N376 N 0.79923 0.65098 1.18193
 C377 C 0.78859 0.64118 1.18398
 C378 C 0.79509 0.62934 1.18992
 C379 C 0.81005 0.63289 1.19144
 H380 H 0.77702 0.64261 1.18114
 H381 H 0.81886 0.62630 1.19555
 N382 N 0.79829 0.68454 1.15836
 N383 N 0.81086 0.68976 1.15296
 C384 C 0.80771 0.69815 1.14131
 C385 C 0.79238 0.69817 1.13935
 C386 C 0.78684 0.68946 1.15041
 H387 H 0.81598 0.70352 1.13457
 H388 H 0.77541 0.68607 1.15191
 H389 H 0.81746 0.67942 1.17855
 H390 H 0.81730 0.66642 1.16305
 N391 N 0.86528 0.17826 0.66284
 N392 N 0.86576 0.17163 0.67575
 C393 C 0.87611 0.17795 0.68440
 C394 C 0.88241 0.18903 0.67648
 C395 C 0.87512 0.18892 0.66294
 H396 H 0.87927 0.17439 0.69536
 H397 H 0.87700 0.19593 0.65365
 Cu398 Cu 0.85356 0.15457 0.67990
 Cu399 Cu 0.85279 0.17236 0.64603
 Cu400 Cu 0.83494 0.14204 0.65023
 N401 N 0.84072 0.13782 0.68116
 N402 N 0.83417 0.13270 0.66924
 C403 C 0.82490 0.12225 0.67319
 C404 C 0.82554 0.12064 0.68842
 C405 C 0.83578 0.13061 0.69322
 H406 H 0.81718 0.11709 0.66572
 H407 H 0.83842 0.13322 0.70464
 N408 N 0.82965 0.15479 0.63445
 N409 N 0.83643 0.16694 0.63300
 C410 C 0.82993 0.17419 0.62197
 C411 C 0.81828 0.16615 0.61635
 C412 C 0.81852 0.15386 0.62453
 H413 H 0.83308 0.18472 0.61875
 H414 H 0.81094 0.14503 0.62370
 H415 H 0.84106 0.16348 0.66326
 H416 H 0.85811 0.15386 0.65753
 N417 N 0.31117 0.34704 0.67272
 N418 N 0.31848 0.34482 0.68515
 C419 C 0.31749 0.35608 0.69397
 C420 C 0.30922 0.36613 0.68678
 C421 C 0.30516 0.35998 0.67332
 H422 H 0.32290 0.35700 0.70467
 H423 H 0.29900 0.36478 0.66436
 Cu424 Cu 0.33041 0.32835 0.68851
 Cu425 Cu 0.31145 0.33287 0.65676
 Cu426 Cu 0.34487 0.31484 0.65760
 N427 N 0.34752 0.31622 0.68931
 N428 N 0.35348 0.31120 0.67708
 C429 C 0.36626 0.30470 0.68051
 C430 C 0.36845 0.30577 0.69576
 C431 C 0.35623 0.31310 0.70097
 H432 H 0.37373 0.30020 0.67238
 H433 H 0.35414 0.31655 0.71225
 N434 N 0.33135 0.31470 0.64032
 N435 N 0.31834 0.32102 0.64000
 C436 C 0.31101 0.31697 0.62758
 C437 C 0.31983 0.30753 0.61984
 C438 C 0.33266 0.30653 0.62824
 H439 H 0.29979 0.32005 0.62485
 H440 H 0.34204 0.29980 0.62619
 H441 H 0.32336 0.31590 0.66598
 H442 H 0.33291 0.33296 0.66191
 N443 N 0.31747 0.85481 0.16435
 N444 N 0.32931 0.85852 0.17219
 C445 C 0.32545 0.86856 0.18197
 C446 C 0.31043 0.87130 0.18029
 C447 C 0.30575 0.86235 0.16905
 H448 H 0.33304 0.87362 0.18963
 H449 H 0.29476 0.86185 0.16418
 Cu450 Cu 0.34928 0.85065 0.16862
 Cu451 Cu 0.31830 0.84156 0.14729
 Cu452 Cu 0.35281 0.83315 0.13675
 N453 N 0.36598 0.83788 0.16531
 N454 N 0.36729 0.83135 0.15250
 C455 C 0.37949 0.82339 0.15265
 C456 C 0.38644 0.82495 0.16628
 C457 C 0.37751 0.83426 0.17412
 H458 H 0.38277 0.81666 0.14356
 H459 H 0.37925 0.83813 0.18531
 N460 N 0.33590 0.82917 0.12420
 N461 N 0.32217 0.83181 0.12839
 C462 C 0.31272 0.82593 0.11843
 C463 C 0.32110 0.81917 0.10756
 C464 C 0.33574 0.82168 0.11158
 H465 H 0.30071 0.82590 0.11947
 H466 H 0.34563 0.81775 0.10620
 H467 H 0.33730 0.83544 0.15880
 H468 H 0.33856 0.85202 0.14777
 N469 N 0.80974 0.34917 0.18324
 N470 N 0.82233 0.35488 0.18771
 C471 C 0.81971 0.36804 0.19240
 C472 C 0.80465 0.37071 0.19064
 C473 C 0.79869 0.35842 0.18496
 H474 H 0.82823 0.37534 0.19604
 H475 H 0.78728 0.35649 0.18169
 Cu476 Cu 0.84108 0.34494 0.18557
 Cu477 Cu 0.80896 0.33095 0.17346
 Cu478 Cu 0.84209 0.32427 0.15539
 N479 N 0.85898 0.33465 0.18027
 N480 N 0.85945 0.32718 0.16799
 C481 C 0.87294 0.32138 0.16664
 C482 C 0.88140 0.32519 0.17887
 C483 C 0.87215 0.33364 0.18734
 H484 H 0.87604 0.31429 0.15778
 H485 H 0.87474 0.33857 0.19787
 N486 N 0.82289 0.31618 0.14909
 N487 N 0.81045 0.31785 0.15673
 C488 C 0.79948 0.31034 0.15028
 C489 C 0.80530 0.30370 0.13787
 C490 C 0.82018 0.30764 0.13747
 H491 H 0.78801 0.31022 0.15400
 H492 H 0.82849 0.30436 0.12949
 H493 H 0.83088 0.32340 0.17486
 H494 H 0.82699 0.33905 0.16310
 N495 N 0.80683 0.85864 0.67386
 N496 N 0.81940 0.86357 0.67926
 C497 C 0.81726 0.87667 0.68433
 C498 C 0.80249 0.88015 0.68194
 C499 C 0.79623 0.86840 0.67531
 H500 H 0.82580 0.88313 0.68938
 H501 H 0.78476 0.86690 0.67197
 Cu502 Cu 0.83707 0.85203 0.67964
 Cu503 Cu 0.80509 0.83974 0.66594
 Cu504 Cu 0.83849 0.82311 0.65847
 N505 N 0.85179 0.83763 0.68310
 N506 N 0.85270 0.82638 0.67472
 C507 C 0.86386 0.81833 0.67982
 C508 C 0.87008 0.82483 0.69220
 C509 C 0.86212 0.83709 0.69385
 H510 H 0.86686 0.80828 0.67518
 H511 H 0.86365 0.84505 0.70228
 N512 N 0.81959 0.81790 0.64856
 N513 N 0.80681 0.82367 0.65234
 C514 C 0.79581 0.81780 0.64431
 C515 C 0.80189 0.80794 0.63489
 C516 C 0.81705 0.80830 0.63781
 H517 H 0.78428 0.82092 0.64479
 H518 H 0.82554 0.80198 0.63260
 H519 H 0.82420 0.83007 0.67379
 H520 H 0.82605 0.84177 0.65724
 N521 N 0.68241 0.63803 0.67084
 N522 N 0.67654 0.63724 0.68424
 C523 C 0.68220 0.62615 0.69142
 C524 C 0.69218 0.61952 0.68200
 C525 C 0.69200 0.62742 0.66900
 H526 H 0.67906 0.62306 0.70259
 H527 H 0.69818 0.62556 0.65885
 Cu528 Cu 0.66140 0.65023 0.69080
 Cu529 Cu 0.67668 0.65243 0.65664
 Cu530 Cu 0.65542 0.67942 0.67112
 N531 N 0.64397 0.66167 0.69430
 N532 N 0.64167 0.67321 0.68673
 C533 C 0.62922 0.67933 0.69187
 C534 C 0.62331 0.67112 0.70328
 C535 C 0.63304 0.65998 0.70445
 H536 H 0.62492 0.68909 0.68765
 H537 H 0.63234 0.65128 0.71213
 N538 N 0.66594 0.68075 0.65187
 N539 N 0.67376 0.67040 0.64620
 C540 C 0.67946 0.67449 0.63296
 C541 C 0.67493 0.68808 0.63010
 C542 C 0.66635 0.69166 0.64238
 H543 H 0.68641 0.66804 0.62597
 H544 H 0.66085 0.70150 0.64436
 H545 H 0.67405 0.66634 0.67357
 H546 H 0.65642 0.65896 0.66577
 N547 N 0.69352 0.14478 0.18220
 N548 N 0.68346 0.14656 0.19267
 C549 C 0.68569 0.13737 0.20371
 C550 C 0.69796 0.12935 0.20018
 C551 C 0.70266 0.13434 0.18635
 H552 H 0.67865 0.13649 0.21346
 H553 H 0.71199 0.13070 0.17981
 Cu554 Cu 0.66811 0.16049 0.19111
 Cu555 Cu 0.69358 0.15650 0.16424
 Cu556 Cu 0.66005 0.17362 0.15769
 N557 N 0.64934 0.16955 0.18753
 N558 N 0.64631 0.17514 0.17452
 C559 C 0.63261 0.18077 0.17509
 C560 C 0.62675 0.17827 0.18912
 C561 C 0.63760 0.17108 0.19671
 H562 H 0.62710 0.18581 0.16586
 H563 H 0.63695 0.16716 0.20801
 N564 N 0.67553 0.17107 0.14229
 N565 N 0.68858 0.16527 0.14489
 C566 C 0.69684 0.16582 0.13229
 C567 C 0.68842 0.17200 0.12127
 C568 C 0.67502 0.17514 0.12796
 H569 H 0.70795 0.16170 0.13110
 H570 H 0.66569 0.18025 0.12275
 H571 H 0.67939 0.17283 0.16973
 H572 H 0.67088 0.15562 0.16477
 N573 N 0.17402 0.63611 0.16372
 N574 N 0.16040 0.63462 0.16891
 C575 C 0.15995 0.62410 0.17883
 C576 C 0.17409 0.61865 0.18006
 C577 C 0.18275 0.62641 0.17015
 H578 H 0.15021 0.62123 0.18532
 H579 H 0.19466 0.62567 0.16850
 Cu580 Cu 0.14525 0.64823 0.16488
 Cu581 Cu 0.17924 0.65146 0.15011
 Cu582 Cu 0.15263 0.67748 0.14572
 N583 N 0.13354 0.66485 0.16762
 N584 N 0.13662 0.67667 0.16071
 C585 C 0.12769 0.68676 0.16625
 C586 C 0.11883 0.68084 0.17739
 C587 C 0.12279 0.66692 0.17775
 H588 H 0.12814 0.69766 0.16296
 H589 H 0.11863 0.65892 0.18526
 N590 N 0.17187 0.67753 0.13478
 N591 N 0.18201 0.66776 0.13671
 C592 C 0.19353 0.67029 0.12744
 C593 C 0.19058 0.68219 0.11919
 C594 C 0.17672 0.68651 0.12416
 H595 H 0.20309 0.66359 0.12632
 H596 H 0.17051 0.69540 0.12019
 H597 H 0.16458 0.66539 0.15980
 H598 H 0.15820 0.65648 0.14245
 N599 N 0.18641 0.15038 0.67705
 N600 N 0.17780 0.15520 0.68770
 C601 C 0.17942 0.14724 0.69995
 C602 C 0.18959 0.13677 0.69682
 C603 C 0.19377 0.13915 0.68212
 H604 H 0.17334 0.14880 0.71022
 H605 H 0.20132 0.13304 0.67542
 Cu606 Cu 0.16441 0.17072 0.68424
 Cu607 Cu 0.18671 0.15849 0.65715
 Cu608 Cu 0.16910 0.19045 0.65366
 N609 N 0.14930 0.18387 0.67786
 N610 N 0.15121 0.19169 0.66594
 C611 C 0.13949 0.20024 0.66448
 C612 C 0.12959 0.19761 0.67611
 C613 C 0.13626 0.18712 0.68437
 H614 H 0.13845 0.20793 0.65571
 H615 H 0.13205 0.18225 0.69443
 N616 N 0.18365 0.18358 0.63902
 N617 N 0.19001 0.17124 0.64014
 C618 C 0.19925 0.16948 0.62847
 C619 C 0.19869 0.18128 0.61947
 C620 C 0.18861 0.18999 0.62656
 H621 H 0.20601 0.16031 0.62682
 H622 H 0.18514 0.20026 0.62302
 H623 H 0.18355 0.17773 0.66617
 H624 H 0.16682 0.16969 0.65716
 N625 N 0.31322 0.64947 0.33180
 N626 N 0.32079 0.64797 0.31937
 C627 C 0.31689 0.63573 0.31298
 C628 C 0.30629 0.62917 0.32193
 C629 C 0.30425 0.63826 0.33377
 H630 H 0.32161 0.63182 0.30271
 H631 H 0.29678 0.63690 0.34314
 Cu632 Cu 0.33513 0.66204 0.31273
 Cu633 Cu 0.31568 0.66564 0.34469
 Cu634 Cu 0.34426 0.68865 0.33579
 N635 N 0.35249 0.67390 0.30919
 N636 N 0.35600 0.68422 0.31822
 C637 C 0.36839 0.69068 0.31315
 C638 C 0.37297 0.68405 0.30022
 C639 C 0.36257 0.67342 0.29806
 H640 H 0.37356 0.69962 0.31847
 H641 H 0.36237 0.66581 0.28915
 N642 N 0.33104 0.69130 0.35308
 N643 N 0.32000 0.68260 0.35633
 C644 C 0.31309 0.68710 0.36874
 C645 C 0.32016 0.69919 0.37360
 C646 C 0.33150 0.70154 0.36338
 H647 H 0.30383 0.68177 0.37407
 H648 H 0.33949 0.71008 0.36344
 H649 H 0.32438 0.67963 0.32918
 H650 H 0.33793 0.66800 0.33889
 N651 N 0.33715 0.12794 0.84922
 N652 N 0.34437 0.13056 0.83674
 C653 C 0.34292 0.11936 0.82766
 C654 C 0.33442 0.10925 0.83501
 C655 C 0.33103 0.11510 0.84864
 H656 H 0.34747 0.11872 0.81650
 H657 H 0.32375 0.11076 0.85713
 Cu658 Cu 0.35501 0.14837 0.83372
 Cu659 Cu 0.33392 0.14205 0.86416
 Cu660 Cu 0.34802 0.17415 0.86013
 N661 N 0.36482 0.16708 0.83338
 N662 N 0.36210 0.17675 0.84353
 C663 C 0.37113 0.18782 0.84116
 C664 C 0.38020 0.18504 0.82904
 C665 C 0.37581 0.17180 0.82432
 H666 H 0.37132 0.19708 0.84806
 H667 H 0.38076 0.16576 0.81544
 N668 N 0.33053 0.17056 0.87250
 N669 N 0.32504 0.15786 0.87408
 C670 C 0.31323 0.15818 0.88331
 C671 C 0.31124 0.17186 0.88790
 C672 C 0.32250 0.17945 0.88087
 H673 H 0.30681 0.14906 0.88668
 H674 H 0.32471 0.19057 0.88176
 H675 H 0.33947 0.15975 0.84553
 H676 H 0.35654 0.15416 0.85563
 N677 N 0.81997 0.64063 0.82664
 N678 N 0.82891 0.64502 0.81586
 C679 C 0.82872 0.63554 0.80477
 C680 C 0.81914 0.62465 0.80869
 C681 C 0.81380 0.62830 0.82267
 H682 H 0.83517 0.63654 0.79463
 H683 H 0.80600 0.62245 0.82951
 Cu684 Cu 0.84088 0.66241 0.81708
 Cu685 Cu 0.81639 0.65144 0.84494
 Cu686 Cu 0.83682 0.68069 0.84862
 N687 N 0.85549 0.67650 0.82322
 N688 N 0.85394 0.68357 0.83568
 C689 C 0.86535 0.69268 0.83704
 C690 C 0.87461 0.69133 0.82474
 C691 C 0.86793 0.68096 0.81616
 H692 H 0.86660 0.69996 0.84618
 H693 H 0.87180 0.67689 0.80561
 N694 N 0.81808 0.67823 0.85919
 N695 N 0.81019 0.66661 0.85802
 C696 C 0.79808 0.66747 0.86689
 C697 C 0.79844 0.68039 0.87379
 C698 C 0.81121 0.68697 0.86868
 H699 H 0.78960 0.65942 0.86806
 H700 H 0.81518 0.69732 0.87167
 H701 H 0.82257 0.66685 0.83075
 H702 H 0.83841 0.65688 0.83877
 N703 N 0.82568 0.13620 0.32761
 N704 N 0.83923 0.13805 0.32233
 C705 C 0.84290 0.12701 0.31384
 C706 C 0.83099 0.11768 0.31371
 C707 C 0.82025 0.12390 0.32262
 H708 H 0.85336 0.12607 0.30795
 H709 H 0.80914 0.12001 0.32500
 Cu710 Cu 0.85051 0.15510 0.32588
 Cu711 Cu 0.81589 0.15028 0.33985
 Cu712 Cu 0.83809 0.17827 0.35074
 N713 N 0.85815 0.17417 0.32646
 N714 N 0.85296 0.18338 0.33596
 C715 C 0.86017 0.19566 0.33403
 C716 C 0.87050 0.19400 0.32273
 C717 C 0.86896 0.18022 0.31820
 H718 H 0.85831 0.20497 0.34063
 H719 H 0.87518 0.17501 0.30951
 N720 N 0.81884 0.17396 0.35995
 N721 N 0.81012 0.16352 0.35573
 C722 C 0.79771 0.16353 0.36425
 C723 C 0.79873 0.17456 0.37428
 C724 C 0.81229 0.18092 0.37113
 H725 H 0.78876 0.15593 0.36338
 H726 H 0.81708 0.19006 0.37644
 H727 H 0.82837 0.16780 0.33360
 H728 H 0.83563 0.15627 0.34870
 N729 N 0.68973 0.36352 0.34401
 N730 N 0.68243 0.36240 0.33130
 C731 C 0.68975 0.36994 0.32081
 C732 C 0.70231 0.37592 0.32726
 C733 C 0.70192 0.37155 0.34192
 H734 H 0.68602 0.37129 0.30947
 H735 H 0.70949 0.37470 0.35066
 Cu736 Cu 0.66335 0.35182 0.32964
 Cu737 Cu 0.68225 0.35604 0.36301
 Cu738 Cu 0.64771 0.34323 0.36260
 N739 N 0.64470 0.34095 0.33100
 N740 N 0.63825 0.33861 0.34396
 C741 C 0.62655 0.32998 0.34213
 C742 C 0.62565 0.32637 0.32728
 C743 C 0.63721 0.33372 0.32041
 H744 H 0.61999 0.32569 0.35121
 H745 H 0.64064 0.33295 0.30887
 N746 N 0.66038 0.34073 0.37973
 N747 N 0.67429 0.34505 0.37955
 C748 C 0.68123 0.34013 0.39171
 C749 C 0.67108 0.33217 0.39990
 C750 C 0.65792 0.33292 0.39197
 H751 H 0.69293 0.34176 0.39403
 H752 H 0.64765 0.32728 0.39419
 H753 H 0.67089 0.34289 0.34892
 H754 H 0.66325 0.36098 0.35040
 N755 N 0.67318 0.86626 0.82825
 N756 N 0.65976 0.86741 0.82266
 C757 C 0.65908 0.87915 0.81444
 C758 C 0.67287 0.88582 0.81486
 C759 C 0.68152 0.87729 0.82381
 H760 H 0.64932 0.88233 0.80834
 H761 H 0.69306 0.87888 0.82680
 Cu762 Cu 0.64486 0.85295 0.82568
 Cu763 Cu 0.67861 0.85050 0.84087
 Cu764 Cu 0.65206 0.82398 0.84534
 N765 N 0.63347 0.83586 0.82290
 N766 N 0.63615 0.82439 0.83049
 C767 C 0.62678 0.81416 0.82584
 C768 C 0.61799 0.81954 0.81453
 C769 C 0.62255 0.83335 0.81308
 H770 H 0.62673 0.80352 0.82998
 H771 H 0.61836 0.84103 0.80534
 N772 N 0.67162 0.82391 0.85545
 N773 N 0.68179 0.83381 0.85335
 C774 C 0.69372 0.83103 0.86180
 C775 C 0.69102 0.81881 0.86968
 C776 C 0.67686 0.81457 0.86537
 H777 H 0.70342 0.83776 0.86265
 H778 H 0.67077 0.80545 0.86927
 H779 H 0.66414 0.83612 0.83105
 H780 H 0.65761 0.84506 0.84829
 N781 N 0.18087 0.35876 0.84365
 N782 N 0.17491 0.35505 0.83088
 C783 C 0.17950 0.36420 0.82028
 C784 C 0.18899 0.37399 0.82685
 C785 C 0.18938 0.37022 0.84171
 H786 H 0.17679 0.36338 0.80858
 H787 H 0.19592 0.37504 0.85043
 Cu788 Cu 0.16260 0.33797 0.82933
 Cu789 Cu 0.17957 0.34720 0.86119
 Cu790 Cu 0.16216 0.31639 0.86071
 N791 N 0.15081 0.32025 0.83057
 N792 N 0.15089 0.31215 0.84252
 C793 C 0.14189 0.30107 0.84027
 C794 C 0.13564 0.30216 0.82629
 C795 C 0.14150 0.31451 0.82044
 H796 H 0.13968 0.29299 0.84844
 H797 H 0.13907 0.31900 0.80967
 N798 N 0.17777 0.32049 0.87510
 N799 N 0.18450 0.33275 0.87535
 C800 C 0.19507 0.33274 0.88590
 C801 C 0.19494 0.31974 0.89274
 C802 C 0.18370 0.31225 0.88566
 H803 H 0.20240 0.34151 0.88823
 H804 H 0.18042 0.30149 0.88767
 H805 H 0.17450 0.32727 0.84528
 H806 H 0.15701 0.33594 0.85137
 N807 N 0.17966 0.86110 0.31905
 N808 N 0.16753 0.85976 0.31102
 C809 C 0.16631 0.87098 0.30203
 C810 C 0.17843 0.87973 0.30446
 C811 C 0.18671 0.87311 0.31529
 H812 H 0.15733 0.87269 0.29427
 H813 H 0.19678 0.87702 0.32045
 Cu814 Cu 0.15470 0.84332 0.31296
 Cu815 Cu 0.18471 0.84787 0.33472
 Cu816 Cu 0.16131 0.81904 0.33918
 N817 N 0.14181 0.82699 0.31532
 N818 N 0.14454 0.81748 0.32551
 C819 C 0.13419 0.80723 0.32462
 C820 C 0.12438 0.81046 0.31323
 C821 C 0.12963 0.82311 0.30760
 H822 H 0.13391 0.79812 0.33175
 H823 H 0.12495 0.82906 0.29855
 N824 N 0.17886 0.82251 0.35187
 N825 N 0.18785 0.83339 0.35002
 C826 C 0.19849 0.83307 0.36054
 C827 C 0.19612 0.82144 0.36951
 C828 C 0.18355 0.81500 0.36365
 H829 H 0.20706 0.84098 0.36186
 H830 H 0.17813 0.80559 0.36773
 H831 H 0.17478 0.83054 0.32493
 H832 H 0.16325 0.84061 0.33848
 C833 C 0.25278 0.99826 0.25380
 C834 C 0.26584 0.99559 0.24656
 C835 C 0.27720 1.00677 0.24411
 C836 C 0.26871 0.98156 0.24001
 C837 C 0.24264 0.98663 0.25817
 C838 C 0.24777 1.01274 0.25739
 C839 C 0.28213 1.00992 0.22962
 C840 C 0.29120 1.02166 0.22700
 C841 C 0.29565 1.03035 0.23886
 C842 C 0.29139 1.02669 0.25345
 C843 C 0.28230 1.01498 0.25605
 C844 C 0.25885 0.97592 0.22947
 C845 C 0.26123 0.96265 0.22344
 C846 C 0.27359 0.95469 0.22777
 C847 C 0.28369 0.96052 0.23807
 C848 C 0.28130 0.97387 0.24409
 C849 C 0.24688 0.97712 0.26921
 C850 C 0.23716 0.96638 0.27365
 C851 C 0.22310 0.96476 0.26690
 C852 C 0.21904 0.97430 0.25566
 C853 C 0.22863 0.98525 0.25151
 C854 C 0.24159 1.01572 0.27143
 C855 C 0.23588 1.02899 0.27456
 C856 C 0.23624 1.03962 0.26370
 C857 C 0.24274 1.03669 0.24976
 C858 C 0.24818 1.02337 0.24656
 H859 H 0.27840 1.00367 0.22026
 H860 H 0.29453 1.02408 0.21567
 H861 H 0.29455 1.03321 0.26281
 H862 H 0.27876 1.01262 0.26734
 H863 H 0.24928 0.98183 0.22587
 H864 H 0.25344 0.95868 0.21526
 H865 H 0.28909 0.97809 0.25213
 H866 H 0.25763 0.97818 0.27455
 H867 H 0.24061 0.95952 0.28256
 H868 H 0.20851 0.97327 0.24993
 H869 H 0.22525 0.99251 0.24292
 H870 H 0.24097 1.00768 0.27994
 H871 H 0.23074 1.03074 0.28532
 H872 H 0.24344 1.04464 0.24117
 H873 H 0.25247 1.02131 0.23550
 H874 H 0.29328 0.95466 0.24170
 C875 C 0.23639 0.48958 0.74492
 C876 C 0.24764 0.49155 0.73480
 C877 C 0.25382 0.50588 0.73211
 C878 C 0.25577 0.47958 0.72786
 C879 C 0.23371 0.47586 0.75245
 C880 C 0.22721 0.50158 0.75007
 C881 C 0.25638 0.51078 0.71757
 C882 C 0.26385 0.52353 0.71518
 C883 C 0.26900 0.53153 0.72731
 C884 C 0.26606 0.52675 0.74185
 C885 C 0.25867 0.51403 0.74421
 C886 C 0.24824 0.46749 0.72280
 C887 C 0.25622 0.45581 0.71787
 C888 C 0.27189 0.45612 0.71750
 C889 C 0.27929 0.46864 0.72142
 C890 C 0.27137 0.48012 0.72668
 C891 C 0.24563 0.46840 0.75856
 C892 C 0.24304 0.45620 0.76675
 C893 C 0.22842 0.45141 0.76956
 C894 C 0.21649 0.45876 0.76326
 C895 C 0.21912 0.47085 0.75478
 C896 C 0.22563 0.50439 0.76536
 C897 C 0.21710 0.51568 0.77023
 C898 C 0.20983 0.52428 0.75990
 C899 C 0.21143 0.52144 0.74461
 C900 C 0.22004 0.51021 0.73974
 H901 H 0.25292 0.50455 0.70809
 H902 H 0.26610 0.52686 0.70385
 H903 H 0.26969 0.53275 0.75142
 H904 H 0.25715 0.51033 0.75553
 H905 H 0.23620 0.46690 0.72315
 H906 H 0.25012 0.44639 0.71493
 H907 H 0.27756 0.48929 0.73028
 H908 H 0.25697 0.47220 0.75731
 H909 H 0.25253 0.45069 0.77116
 H910 H 0.20509 0.45552 0.76536
 H911 H 0.20973 0.47651 0.75034
 H912 H 0.23111 0.49788 0.77353
 H913 H 0.21595 0.51754 0.78208
 H914 H 0.20606 0.52797 0.73639
 H915 H 0.22105 0.50820 0.72791
 H916 H 0.29130 0.46949 0.72078
 C917 C 0.75635 0.00230 0.24604
 C918 C 0.76787 -0.00117 0.25517
 C919 C 0.76883 -0.01525 0.26223
 C920 C 0.77914 0.00945 0.25980
 C921 C 0.75251 0.01721 0.24294
 C922 C 0.74613 -0.00859 0.23989
 C923 C 0.75662 -0.02090 0.27011
 C924 C 0.75790 -0.03357 0.27777
 C925 C 0.77148 -0.04077 0.27793
 C926 C 0.78366 -0.03515 0.26993
 C927 C 0.78235 -0.02249 0.26221
 C928 C 0.78184 0.01172 0.27501
 C929 C 0.79115 0.02268 0.27956
 C930 C 0.79807 0.03146 0.26899
 C931 C 0.79595 0.02874 0.25375
 C932 C 0.78656 0.01781 0.24919
 C933 C 0.74843 0.02141 0.22852
 C934 C 0.74295 0.03488 0.22596
 C935 C 0.74157 0.04449 0.23776
 C936 C 0.74630 0.04042 0.25204
 C937 C 0.75134 0.02689 0.25465
 C938 C 0.75169 -0.02062 0.23288
 C939 C 0.74194 -0.03090 0.22746
 C940 C 0.72644 -0.02924 0.22877
 C941 C 0.72094 -0.01700 0.23542
 C942 C 0.73067 -0.00683 0.24097
 H943 H 0.74617 -0.01535 0.27060
 H944 H 0.74826 -0.03767 0.28368
 H945 H 0.79433 -0.04032 0.27000
 H946 H 0.79196 -0.01822 0.25639
 H947 H 0.77626 0.00537 0.28337
 H948 H 0.79276 0.02443 0.29137
 H949 H 0.78473 0.01614 0.23741
 H950 H 0.74903 0.01410 0.21933
 H951 H 0.73925 0.03752 0.21485
 H952 H 0.74577 0.04758 0.26136
 H953 H 0.75391 0.02387 0.26597
 H954 H 0.76358 -0.02209 0.23170
 H955 H 0.74653 -0.04025 0.22250
 H956 H 0.70908 -0.01524 0.23630
 H957 H 0.72610 0.00238 0.24626
 H958 H 0.80109 0.03539 0.24538
 C959 C 0.74546 0.49943 0.74959
 C960 C 0.75699 0.49908 0.75941
 C961 C 0.76333 0.48536 0.76364
 C962 C 0.76494 0.51200 0.76439
 C963 C 0.74157 0.51228 0.74122
 C964 C 0.73829 0.48618 0.74470
 C965 C 0.75839 0.47826 0.77644
 C966 C 0.76289 0.46448 0.77911
 C967 C 0.77249 0.45766 0.76906
 C968 C 0.77781 0.46511 0.75656
 C969 C 0.77315 0.47874 0.75381
 C970 C 0.75704 0.52364 0.76968
 C971 C 0.76452 0.53616 0.77308
 C972 C 0.78005 0.53724 0.77128
 C973 C 0.78798 0.52541 0.76662
 C974 C 0.78052 0.51293 0.76327
 C975 C 0.75252 0.51961 0.73307
 C976 C 0.74874 0.53127 0.72456
 C977 C 0.73390 0.53574 0.72385
 C978 C 0.72294 0.52837 0.73201
 C979 C 0.72674 0.51668 0.74054
 C980 C 0.74294 0.48001 0.73133
 C981 C 0.73887 0.46622 0.72807
 C982 C 0.72987 0.45850 0.73800
 C983 C 0.72435 0.46500 0.75088
 C984 C 0.72865 0.47876 0.75428
 H985 H 0.75061 0.48318 0.78400
 H986 H 0.75847 0.45903 0.78876
 H987 H 0.78550 0.46037 0.74878
 H988 H 0.77693 0.48405 0.74380
 H989 H 0.74503 0.52313 0.77086
 H990 H 0.75813 0.54511 0.77666
 H991 H 0.78697 0.50416 0.75933
 H992 H 0.76398 0.51619 0.73315
 H993 H 0.75746 0.53680 0.71853
 H994 H 0.71137 0.53144 0.73151
 H995 H 0.71810 0.51102 0.74657
 H996 H 0.75050 0.48556 0.72392
 H997 H 0.74320 0.46136 0.71807
 H998 H 0.71748 0.45917 0.75870
 H999 H 0.72509 0.48339 0.76470
 H1000 H 0.79998 0.52585 0.76542
 C1001 C 0.24123 0.50580 0.24868
 C1002 C 0.25361 0.50655 0.25735
 C1003 C 0.26287 0.49401 0.26018
 C1004 C 0.25778 0.51965 0.26530
 C1005 C 0.23337 0.51859 0.24365
 C1006 C 0.23420 0.49209 0.24502
 C1007 C 0.26649 0.49019 0.27482
 C1008 C 0.27523 0.47845 0.27752
 C1009 C 0.28066 0.47039 0.26561
 C1010 C 0.27709 0.47428 0.25095
 C1011 C 0.26828 0.48598 0.24826
 C1012 C 0.24731 0.52640 0.27439
 C1013 C 0.25143 0.53813 0.28271
 C1014 C 0.26614 0.54329 0.28221
 C1015 C 0.27657 0.53660 0.27298
 C1016 C 0.27245 0.52482 0.26467
 C1017 C 0.24116 0.52968 0.23674
 C1018 C 0.23362 0.54163 0.23202
 C1019 C 0.21814 0.54267 0.23408
 C1020 C 0.21037 0.53146 0.24079
 C1021 C 0.21789 0.51956 0.24549
 C1022 C 0.23023 0.48891 0.23029
 C1023 C 0.22248 0.47653 0.22706
 C1024 C 0.21840 0.46721 0.23854
 C1025 C 0.22250 0.47037 0.25325
 C1026 C 0.23028 0.48271 0.25647
 H1027 H 0.26246 0.49626 0.28416
 H1028 H 0.27796 0.47580 0.28891
 H1029 H 0.28104 0.46820 0.24158
 H1030 H 0.26574 0.48883 0.23688
 H1031 H 0.23601 0.52241 0.27527
 H1032 H 0.24312 0.54315 0.28960
 H1033 H 0.28071 0.51965 0.25785
 H1034 H 0.25308 0.52907 0.23499
 H1035 H 0.23991 0.55012 0.22694
 H1036 H 0.19840 0.53183 0.24227
 H1037 H 0.21163 0.51112 0.25070
 H1038 H 0.23299 0.49612 0.22135
 H1039 H 0.21930 0.47442 0.21564
 H1040 H 0.21963 0.46332 0.26230
 H1041 H 0.23294 0.48511 0.26795
 H1042 H 0.28802 0.54026 0.27252
 C1043 C 0.75255 1.00196 0.76462
 C1044 C 0.76126 1.00344 0.75219
 C1045 C 0.76600 1.01752 0.74661
 C1046 C 0.76526 0.99113 0.74286
 C1047 C 0.74404 0.98881 0.76764
 C1048 C 0.74952 1.01397 0.77474
 C1049 C 0.75561 1.02835 0.74530
 C1050 C 0.75998 1.04152 0.74012
 C1051 C 0.77469 1.04405 0.73528
 C1052 C 0.78503 1.03309 0.73626
 C1053 C 0.78073 1.01999 0.74194
 C1054 C 0.76252 0.99132 0.72748
 C1055 C 0.76527 0.97950 0.71878
 C1056 C 0.77091 0.96725 0.72527
 C1057 C 0.77419 0.96725 0.74057
 C1058 C 0.77142 0.97909 0.74928
 C1059 C 0.74415 0.98280 0.78190
 C1060 C 0.73479 0.97144 0.78528
 C1061 C 0.72505 0.96597 0.77447
 C1062 C 0.72523 0.97181 0.76009
 C1063 C 0.73454 0.98317 0.75674
 C1064 C 0.76116 1.02235 0.78033
 C1065 C 0.75804 1.03451 0.78839
 C1066 C 0.74322 1.03841 0.79118
 C1067 C 0.73163 1.02960 0.78623
 C1068 C 0.73475 1.01751 0.77812
 H1069 H 0.74405 1.02662 0.74830
 H1070 H 0.75172 1.04968 0.73987
 H1071 H 0.79636 1.03448 0.73235
 H1072 H 0.78888 1.01173 0.74258
 H1073 H 0.75785 1.00051 0.72226
 H1074 H 0.76288 0.97990 0.70697
 H1075 H 0.77383 0.97878 0.76109
 H1076 H 0.75124 0.98713 0.79052
 H1077 H 0.73477 0.96729 0.79651
 H1078 H 0.71798 0.96773 0.75148
 H1079 H 0.73399 0.98785 0.74577
 H1080 H 0.77265 1.01973 0.77802
 H1081 H 0.76722 1.04110 0.79199
 H1082 H 0.72011 1.03215 0.78847
 H1083 H 0.72557 1.01118 0.77401
 H1084 H 0.77848 0.95796 0.74590
 C1085 C 0.75121 0.49784 0.26037
 C1086 C 0.75871 0.49816 0.24713
 C1087 C 0.76200 0.51158 0.23932
 C1088 C 0.76231 0.48499 0.23913
 C1089 C 0.74924 0.48457 0.26893
 C1090 C 0.74287 0.51022 0.26575
 C1091 C 0.75813 0.51319 0.22428
 C1092 C 0.76026 0.52604 0.21713
 C1093 C 0.76637 0.53754 0.22484
 C1094 C 0.77076 0.53576 0.23973
 C1095 C 0.76863 0.52289 0.24689
 C1096 C 0.75093 0.47534 0.23578
 C1097 C 0.75414 0.46299 0.22821
 C1098 C 0.76878 0.46010 0.22363
 C1099 C 0.78017 0.46983 0.22688
 C1100 C 0.77693 0.48224 0.23449
 C1101 C 0.76141 0.47586 0.27184
 C1102 C 0.75928 0.46296 0.27892
 C1103 C 0.74497 0.45860 0.28350
 C1104 C 0.73289 0.46757 0.28105
 C1105 C 0.73500 0.48039 0.27383
 C1106 C 0.74490 0.51527 0.28029
 C1107 C 0.73589 0.52598 0.28580
 C1108 C 0.72453 0.53156 0.27694
 C1109 C 0.72272 0.52666 0.26230
 C1110 C 0.73181 0.51610 0.25676
 H1111 H 0.75309 0.50460 0.21818
 H1112 H 0.75702 0.52702 0.20557
 H1113 H 0.77544 0.54444 0.24597
 H1114 H 0.77192 0.52181 0.25843
 H1115 H 0.73953 0.47738 0.23905
 H1116 H 0.74516 0.45563 0.22604
 H1117 H 0.78582 0.48965 0.23686
 H1118 H 0.77253 0.47896 0.26838
 H1119 H 0.76882 0.45629 0.28054
 H1120 H 0.72179 0.46471 0.28476
 H1121 H 0.72543 0.48692 0.27179
 H1122 H 0.75326 0.51073 0.28743
 H1123 H 0.73740 0.52952 0.29716
 H1124 H 0.71409 0.53085 0.25524
 H1125 H 0.72988 0.51216 0.24561
 H1126 H 0.79152 0.46795 0.22335
 C1127 C 0.24919 0.01110 0.74199
 C1128 C 0.26138 0.00885 0.75059
 C1129 C 0.26846 -0.00511 0.75197
 C1130 C 0.26790 0.02015 0.75983
 C1131 C 0.24249 0.02518 0.74063
 C1132 C 0.24213 -0.00027 0.73318
 C1133 C 0.27107 -0.01069 0.76619
 C1134 C 0.27766 -0.02376 0.76782
 C1135 C 0.28168 -0.03168 0.75525
 C1136 C 0.27921 -0.02599 0.74099
 C1137 C 0.27288 -0.01276 0.73938
 C1138 C 0.26017 0.02521 0.77227
 C1139 C 0.26719 0.03445 0.78212
 C1140 C 0.28196 0.03886 0.77953
 C1141 C 0.28942 0.03428 0.76668
 C1142 C 0.28248 0.02485 0.75698
 C1143 C 0.25082 0.03660 0.73514
 C1144 C 0.24416 0.04966 0.73336
 C1145 C 0.22907 0.05152 0.73700
 C1146 C 0.22078 0.04004 0.74249
 C1147 C 0.22742 0.02699 0.74420
 C1148 C 0.24099 0.00124 0.71769
 C1149 C 0.23540 -0.00969 0.70901
 C1150 C 0.23077 -0.02234 0.71566
 C1151 C 0.23129 -0.02361 0.73126
 C1152 C 0.23687 -0.01263 0.73997
 H1153 H 0.26792 -0.00493 0.77608
 H1154 H 0.27972 -0.02758 0.77897
 H1155 H 0.28200 -0.03181 0.73104
 H1156 H 0.27134 -0.00855 0.72830
 H1157 H 0.24896 0.02156 0.77467
 H1158 H 0.26122 0.03792 0.79193
 H1159 H 0.28858 0.02096 0.74743
 H1160 H 0.26240 0.03533 0.73206
 H1161 H 0.25083 0.05833 0.72917
 H1162 H 0.20907 0.04109 0.74516
 H1163 H 0.22079 0.01825 0.74830
 H1164 H 0.24483 0.01076 0.71228
 H1165 H 0.23483 -0.00830 0.69705
 H1166 H 0.22782 -0.03325 0.73669
 H1167 H 0.23744 -0.01388 0.75195
 H1168 H 0.30083 0.03748 0.76453
 C1169 C 0.25903 0.23648 1.01334
 C1170 C 0.25364 0.24972 1.01377
 C1171 C 0.25237 0.25772 1.02788
 C1172 C 0.24955 0.25723 0.99994
 C1173 C 0.26074 0.22880 0.99910
 C1174 C 0.26553 0.22967 1.02659
 C1175 C 0.24481 0.25214 1.04028
 C1176 C 0.24316 0.26010 1.05323
 C1177 C 0.24887 0.27386 1.05394
 C1178 C 0.25651 0.27937 1.04153
 C1179 C 0.25824 0.27138 1.02865
 C1180 C 0.23506 0.26228 0.99821
 C1181 C 0.23132 0.27005 0.98560
 C1182 C 0.24208 0.27303 0.97460
 C1183 C 0.25658 0.26788 0.97634
 C1184 C 0.26030 0.26009 0.98893
 C1185 C 0.27495 0.22444 0.99470
 C1186 C 0.27697 0.21745 0.98125
 C1187 C 0.26479 0.21463 0.97191
 C1188 C 0.25048 0.21879 0.97642
 C1189 C 0.24847 0.22585 0.98993
 C1190 C 0.27855 0.23517 1.03300
 C1191 C 0.28651 0.22726 1.04328
 C1192 C 0.28145 0.21385 1.04743
 C1193 C 0.26792 0.20875 1.04176
 C1194 C 0.26010 0.21655 1.03125
 H1195 H 0.23999 0.24171 1.03986
 H1196 H 0.23733 0.25552 1.06265
 H1197 H 0.26082 0.29000 1.04161
 H1198 H 0.26407 0.27591 1.01919
 H1199 H 0.22668 0.26029 1.00669
 H1200 H 0.22012 0.27405 0.98464
 H1201 H 0.27161 0.25647 0.99021
 H1202 H 0.28456 0.22660 1.00161
 H1203 H 0.28806 0.21412 0.97821
 H1204 H 0.24092 0.21675 0.96941
 H1205 H 0.23740 0.22903 0.99323
 H1206 H 0.28302 0.24518 1.02933
 H1207 H 0.29695 0.23135 1.04755
 H1208 H 0.26392 0.19837 1.04474
 H1209 H 0.25016 0.21211 1.02625
 H1210 H 0.26506 0.26993 0.96798
 C1211 C 0.24902 0.74706 0.50061
 C1212 C 0.24040 0.75871 0.50162
 C1213 C 0.23598 0.76462 0.51633
 C1214 C 0.23642 0.76687 0.48808
 C1215 C 0.25764 0.74395 0.48684
 C1216 C 0.25128 0.73757 0.51358
 C1217 C 0.22145 0.76947 0.51872
 C1218 C 0.21768 0.77610 0.53209
 C1219 C 0.22840 0.77802 0.54332
 C1220 C 0.24282 0.77283 0.54102
 C1221 C 0.24662 0.76643 0.52760
 C1222 C 0.23011 0.76020 0.47563
 C1223 C 0.22745 0.76772 0.46255
 C1224 C 0.23098 0.78207 0.46171
 C1225 C 0.23681 0.78882 0.47436
 C1226 C 0.23945 0.78130 0.48742
 C1227 C 0.26697 0.75423 0.48047
 C1228 C 0.27572 0.75114 0.46805
 C1229 C 0.27560 0.73760 0.46193
 C1230 C 0.26628 0.72729 0.46836
 C1231 C 0.25740 0.73045 0.48072
 C1232 C 0.26572 0.73343 0.51745
 C1233 C 0.26802 0.72480 0.52977
 C1234 C 0.25593 0.72009 0.53849
 C1235 C 0.24145 0.72405 0.53446
 C1236 C 0.23914 0.73265 0.52208
 H1237 H 0.21311 0.76835 0.51010
 H1238 H 0.20654 0.78017 0.53340
 H1239 H 0.25129 0.77393 0.54949
 H1240 H 0.25802 0.76317 0.52592
 H1241 H 0.22754 0.74909 0.47595
 H1242 H 0.22302 0.76222 0.45297
 H1243 H 0.24426 0.78668 0.49690
 H1244 H 0.26765 0.76462 0.48526
 H1245 H 0.28262 0.75936 0.46328
 H1246 H 0.26611 0.71669 0.46409
 H1247 H 0.25045 0.72231 0.48561
 H1248 H 0.27526 0.73704 0.51105
 H1249 H 0.27929 0.72173 0.53240
 H1250 H 0.23191 0.72070 0.54100
 H1251 H 0.22789 0.73554 0.51918
 H1252 H 0.23941 0.79991 0.47412
 C1253 C 0.23973 0.74426 -0.01267
 C1254 C 0.24826 0.75619 -0.01220
 C1255 C 0.25163 0.76446 -0.02590
 C1256 C 0.25555 0.76097 0.00185
 C1257 C 0.23503 0.73697 0.00128
 C1258 C 0.23605 0.73715 -0.02701
 C1259 C 0.26641 0.76816 -0.02941
 C1260 C 0.26969 0.77611 -0.04211
 C1261 C 0.25822 0.78065 -0.05151
 C1262 C 0.24342 0.77691 -0.04800
 C1263 C 0.24016 0.76892 -0.03531
 C1264 C 0.26426 0.75171 0.01017
 C1265 C 0.27213 0.75641 0.02260
 C1266 C 0.27188 0.77060 0.02679
 C1267 C 0.26291 0.77984 0.01864
 C1268 C 0.25486 0.77507 0.00627
 C1269 C 0.22744 0.74412 0.01265
 C1270 C 0.22415 0.73743 0.02617
 C1271 C 0.22846 0.72350 0.02856
 C1272 C 0.23557 0.71624 0.01696
 C1273 C 0.23872 0.72287 0.00343
 C1274 C 0.22153 0.73218 -0.02970
 C1275 C 0.21833 0.72438 -0.04253
 C1276 C 0.22963 0.72130 -0.05291
 C1277 C 0.24409 0.72652 -0.05030
 C1278 C 0.24729 0.73421 -0.03745
 H1279 H 0.27545 0.76485 -0.02231
 H1280 H 0.28117 0.77896 -0.04441
 H1281 H 0.23435 0.78013 -0.05510
 H1282 H 0.22866 0.76631 -0.03276
 H1283 H 0.26531 0.74087 0.00682
 H1284 H 0.27869 0.74893 0.02875
 H1285 H 0.24833 0.78244 -0.00007
 H1286 H 0.22437 0.75497 0.01115
 H1287 H 0.21870 0.74327 0.03494
 H1288 H 0.23884 0.70544 0.01845
 H1289 H 0.24454 0.71714 -0.00519
 H1290 H 0.21272 0.73414 -0.02171
 H1291 H 0.20712 0.72037 -0.04406
 H1292 H 0.25303 0.72452 -0.05812
 H1293 H 0.25867 0.73757 -0.03548
 H1294 H 0.26257 0.79085 0.02146
 C1295 C 0.24972 0.24304 0.48876
 C1296 C 0.25947 0.25408 0.48860
 C1297 C 0.26342 0.26149 0.47458
 C1298 C 0.26680 0.25926 0.50239
 C1299 C 0.24648 0.23506 0.50266
 C1300 C 0.24153 0.23844 0.47517
 C1301 C 0.27019 0.25441 0.46267
 C1302 C 0.27335 0.26147 0.44933
 C1303 C 0.26962 0.27563 0.44770
 C1304 C 0.26312 0.28273 0.45974
 C1305 C 0.26020 0.27575 0.47313
 C1306 C 0.28238 0.25982 0.50305
 C1307 C 0.28952 0.26399 0.51612
 C1308 C 0.28123 0.26783 0.52877
 C1309 C 0.26560 0.26785 0.52791
 C1310 C 0.25843 0.26359 0.51481
 C1311 C 0.23172 0.23356 0.50762
 C1312 C 0.22842 0.22585 0.52047
 C1313 C 0.23983 0.21939 0.52856
 C1314 C 0.25463 0.22088 0.52353
 C1315 C 0.25792 0.22859 0.51067
 C1316 C 0.23331 0.24797 0.46669
 C1317 C 0.22505 0.24339 0.45444
 C1318 C 0.22439 0.22909 0.45064
 C1319 C 0.23271 0.21957 0.45912
 C1320 C 0.24119 0.22421 0.47122
 H1321 H 0.27289 0.24342 0.46368
 H1322 H 0.27835 0.25579 0.44018
 H1323 H 0.26029 0.29370 0.45878
 H1324 H 0.25506 0.28138 0.48224
 H1325 H 0.28903 0.25667 0.49355
 H1326 H 0.30158 0.26411 0.51639
 H1327 H 0.24638 0.26348 0.51441
 H1328 H 0.22273 0.23839 0.50152
 H1329 H 0.21690 0.22473 0.52391
 H1330 H 0.26368 0.21613 0.52959
 H1331 H 0.26936 0.22945 0.50690
 H1332 H 0.23305 0.25894 0.46970
 H1333 H 0.21902 0.25108 0.44805
 H1334 H 0.23231 0.20847 0.45672
 H1335 H 0.24733 0.21663 0.47768
 H1336 H 0.25894 0.27074 0.53749
 C1337 C 0.74446 0.74198 1.00043
 C1338 C 0.73888 0.75517 0.99941
 C1339 C 0.73553 0.76348 1.01300
 C1340 C 0.73644 0.76210 0.98478
 C1341 C 0.74653 0.73306 0.98708
 C1342 C 0.74909 0.73617 1.01498
 C1343 C 0.72574 0.75828 1.02397
 C1344 C 0.72332 0.76582 1.03709
 C1345 C 0.73058 0.77874 1.03943
 C1346 C 0.74001 0.78410 1.02819
 C1347 C 0.74242 0.77656 1.01509
 C1348 C 0.72275 0.76843 0.98173
 C1349 C 0.72036 0.77500 0.96803
 C1350 C 0.73165 0.77539 0.95710
 C1351 C 0.74540 0.76914 0.96027
 C1352 C 0.74783 0.76274 0.97403
 C1353 C 0.76074 0.72814 0.98343
 C1354 C 0.76321 0.72137 0.96986
 C1355 C 0.75145 0.71925 0.95976
 C1356 C 0.73704 0.72345 0.96389
 C1357 C 0.73460 0.73027 0.97743
 C1358 C 0.76041 0.74276 1.02324
 C1359 C 0.76355 0.73828 1.03770
 C1360 C 0.75536 0.72720 1.04411
 C1361 C 0.74448 0.72025 1.03558
 C1362 C 0.74146 0.72463 1.02105
 H1363 H 0.72013 0.74830 1.02245
 H1364 H 0.71604 0.76139 1.04555
 H1365 H 0.74553 0.79415 1.02954
 H1366 H 0.74992 0.78079 1.00670
 H1367 H 0.71388 0.76823 0.98995
 H1368 H 0.70976 0.77996 0.96610
 H1369 H 0.75862 0.75826 0.97627
 H1370 H 0.77008 0.73019 0.99074
 H1371 H 0.77447 0.71841 0.96700
 H1372 H 0.72769 0.72171 0.95651
 H1373 H 0.72349 0.73379 0.98019
 H1374 H 0.76645 0.75164 1.01864
 H1375 H 0.77193 0.74383 1.04409
 H1376 H 0.73814 0.71158 1.04025
 H1377 H 0.73273 0.71942 1.01479
 H1378 H 0.75430 0.76913 0.95210
 C1379 C 0.74687 0.23581 0.50232
 C1380 C 0.74066 0.24862 0.50406
 C1381 C 0.74074 0.25602 0.51858
 C1382 C 0.73254 0.25560 0.49182
 C1383 C 0.74805 0.22901 0.48751
 C1384 C 0.75251 0.22779 0.51522
 C1385 C 0.72725 0.26062 0.52467
 C1386 C 0.72709 0.26822 0.53790
 C1387 C 0.74044 0.27143 0.54532
 C1388 C 0.75399 0.26686 0.53922
 C1389 C 0.75413 0.25920 0.52593
 C1390 C 0.72030 0.24897 0.48505
 C1391 C 0.71145 0.25631 0.47502
 C1392 C 0.71468 0.27039 0.47163
 C1393 C 0.72721 0.27685 0.47808
 C1394 C 0.73601 0.26953 0.48815
 C1395 C 0.75503 0.23595 0.47555
 C1396 C 0.75691 0.22915 0.46192
 C1397 C 0.75193 0.21526 0.46002
 C1398 C 0.74474 0.20842 0.47194
 C1399 C 0.74288 0.21522 0.48558
 C1400 C 0.76718 0.22290 0.51514
 C1401 C 0.77236 0.21470 0.52687
 C1402 C 0.76287 0.21113 0.53880
 C1403 C 0.74818 0.21608 0.53888
 C1404 C 0.74304 0.22432 0.52717
 H1405 H 0.71681 0.25837 0.51910
 H1406 H 0.71650 0.27183 0.54217
 H1407 H 0.76442 0.26916 0.54474
 H1408 H 0.76468 0.25591 0.52127
 H1409 H 0.71729 0.23830 0.48795
 H1410 H 0.70192 0.25106 0.47010
 H1411 H 0.74532 0.27484 0.49341
 H1412 H 0.75928 0.24653 0.47688
 H1413 H 0.76241 0.23471 0.45289
 H1414 H 0.74099 0.19766 0.47088
 H1415 H 0.73754 0.20967 0.49471
 H1416 H 0.77459 0.22538 0.50593
 H1417 H 0.78366 0.21087 0.52645
 H1418 H 0.74069 0.21356 0.54800
 H1419 H 0.73160 0.22782 0.52729
 H1420 H 0.72986 0.28773 0.47581
 C1421 C 0.74668 0.24169 -0.00038
 C1422 C 0.75721 0.25145 0.00333
 C1423 C 0.76440 0.26071 -0.00805
 C1424 C 0.76070 0.25437 0.01919
 C1425 C 0.73983 0.23222 0.01097
 C1426 C 0.74049 0.24065 -0.01566
 C1427 C 0.77049 0.25526 -0.02126
 C1428 C 0.77561 0.26424 -0.03254
 C1429 C 0.77497 0.27886 -0.03072
 C1430 C 0.76979 0.28423 -0.01708
 C1431 C 0.76454 0.27527 -0.00591
 C1432 C 0.77539 0.25357 0.02431
 C1433 C 0.77870 0.25659 0.03919
 C1434 C 0.76736 0.26058 0.04914
 C1435 C 0.75268 0.26150 0.04388
 C1436 C 0.74940 0.25849 0.02905
 C1437 C 0.72429 0.23171 0.01251
 C1438 C 0.71758 0.22283 0.02294
 C1439 C 0.72625 0.21411 0.03200
 C1440 C 0.74185 0.21464 0.03050
 C1441 C 0.74858 0.22358 0.02003
 C1442 C 0.73424 0.25236 -0.02266
 C1443 C 0.72760 0.25105 -0.03665
 C1444 C 0.72685 0.23796 -0.04379
 C1445 C 0.73309 0.22627 -0.03671
 C1446 C 0.73982 0.22761 -0.02279
 H1447 H 0.77082 0.24405 -0.02304
 H1448 H 0.77952 0.25974 -0.04289
 H1449 H 0.76951 0.29541 -0.01514
 H1450 H 0.76006 0.27976 0.00423
 H1451 H 0.78426 0.25053 0.01680
 H1452 H 0.79010 0.25572 0.04292
 H1453 H 0.73805 0.25951 0.02519
 H1454 H 0.71733 0.23834 0.00571
 H1455 H 0.70557 0.22290 0.02402
 H1456 H 0.74881 0.20797 0.03724
 H1457 H 0.76059 0.22368 0.01888
 H1458 H 0.73430 0.26246 -0.01719
 H1459 H 0.72300 0.26028 -0.04185
 H1460 H 0.73241 0.21598 -0.04173
 H1461 H 0.74437 0.21842 -0.01747
 H1462 H 0.74376 0.26489 0.05115
 C1463 C 0.74079 0.74054 0.50107
 C1464 C 0.75214 0.75004 0.50203
 C1465 C 0.76071 0.75409 0.48858
 C1466 C 0.75617 0.75683 0.51633
 C1467 C 0.73213 0.73589 0.51432
 C1468 C 0.73697 0.73404 0.48660
 C1469 C 0.77254 0.74584 0.48362
 C1470 C 0.77955 0.74880 0.47003
 C1471 C 0.77470 0.75996 0.46105
 C1472 C 0.76302 0.76838 0.46630
 C1473 C 0.75614 0.76550 0.47998
 C1474 C 0.77030 0.75480 0.52252
 C1475 C 0.77362 0.75997 0.53673
 C1476 C 0.76288 0.76736 0.54493
 C1477 C 0.74897 0.76992 0.53835
 C1478 C 0.74565 0.76471 0.52420
 C1479 C 0.71667 0.73776 0.51476
 C1480 C 0.70849 0.73409 0.52748
 C1481 C 0.71562 0.72838 0.53999
 C1482 C 0.73107 0.72615 0.53935
 C1483 C 0.73924 0.72983 0.52662
 C1484 C 0.72826 0.74118 0.47618
 C1485 C 0.72557 0.73533 0.46214
 C1486 C 0.73172 0.72234 0.45829
 C1487 C 0.74024 0.71515 0.46888
 C1488 C 0.74277 0.72092 0.48295
 H1489 H 0.77610 0.73692 0.49012
 H1490 H 0.78868 0.74225 0.46649
 H1491 H 0.75882 0.77689 0.45961
 H1492 H 0.74687 0.77184 0.48361
 H1493 H 0.77857 0.74873 0.51662
 H1494 H 0.78440 0.75773 0.54150
 H1495 H 0.73475 0.76654 0.51950
 H1496 H 0.71097 0.74236 0.50536
 H1497 H 0.69658 0.73571 0.52752
 H1498 H 0.73689 0.72187 0.54883
 H1499 H 0.75114 0.72813 0.52642
 H1500 H 0.72378 0.75137 0.47886
 H1501 H 0.71905 0.74113 0.45415
 H1502 H 0.74497 0.70505 0.46626
 H1503 H 0.74955 0.71532 0.49090
 H1504 H 0.74057 0.77587 0.54420
 C1505 C 0.99914 0.26045 0.24927
 C1506 C 0.99754 0.24994 0.25936
 C1507 C 1.00979 0.24010 0.26278
 C1508 C 0.98293 0.24693 0.26634
 C1509 C 0.98605 0.26755 0.24282
 C1510 C 1.01381 0.26392 0.24256
 C1511 C 1.01683 0.23265 0.25130
 C1512 C 1.02769 0.22277 0.25458
 C1513 C 1.03159 0.21995 0.26943
 C1514 C 1.02454 0.22744 0.28092
 C1515 C 1.01368 0.23736 0.27761
 C1516 C 0.97567 0.23420 0.26341
 C1517 C 0.96185 0.23126 0.26985
 C1518 C 0.95516 0.24088 0.27962
 C1519 C 0.96253 0.25366 0.28254
 C1520 C 0.97628 0.25669 0.27587
 C1521 C 0.98486 0.28218 0.24346
 C1522 C 0.97376 0.28901 0.23540
 C1523 C 0.96397 0.28127 0.22637
 C1524 C 0.96488 0.26662 0.22611
 C1525 C 0.97578 0.25980 0.23433
 C1526 C 1.02597 0.26777 0.25150
 C1527 C 1.03992 0.27034 0.24503
 C1528 C 1.04189 0.26894 0.22957
 C1529 C 1.02965 0.26531 0.22065
 C1530 C 1.01570 0.26294 0.22708
 H1531 H 1.01372 0.23430 0.23979
 H1532 H 1.03301 0.21729 0.24547
 H1533 H 1.02714 0.22537 0.29247
 H1534 H 1.00820 0.24283 0.28664
 H1535 H 0.98061 0.22665 0.25591
 H1536 H 0.95636 0.22147 0.26705
 H1537 H 0.98183 0.26655 0.27827
 H1538 H 0.99282 0.28831 0.24981
 H1539 H 0.97328 0.30034 0.23560
 H1540 H 0.95745 0.26051 0.21914
 H1541 H 0.97671 0.24853 0.23347
 H1542 H 1.02467 0.26864 0.26347
 H1543 H 1.04924 0.27312 0.25210
 H1544 H 1.03088 0.26434 0.20869
 H1545 H 1.00646 0.25997 0.22000
 H1546 H 0.95782 0.26120 0.29017
 C1547 C 0.50235 0.24705 0.73904
 C1548 C 0.50188 0.23610 0.74878
 C1549 C 0.51533 0.22758 0.75172
 C1550 C 0.48827 0.23267 0.75765
 C1551 C 0.48872 0.25466 0.73464
 C1552 C 0.51675 0.25242 0.73315
 C1553 C 0.52302 0.22109 0.73999
 C1554 C 0.53575 0.21324 0.74282
 C1555 C 0.54096 0.21160 0.75747
 C1556 C 0.53305 0.21789 0.76922
 C1557 C 0.52036 0.22578 0.76636
 C1558 C 0.48327 0.21873 0.75893
 C1559 C 0.47109 0.21534 0.76805
 C1560 C 0.46366 0.22582 0.77610
 C1561 C 0.46856 0.23979 0.77458
 C1562 C 0.48085 0.24314 0.76566
 C1563 C 0.48797 0.26920 0.73665
 C1564 C 0.47473 0.27627 0.73390
 C1565 C 0.46206 0.26896 0.72886
 C1566 C 0.46303 0.25450 0.72616
 C1567 C 0.47626 0.24740 0.72904
 C1568 C 0.52734 0.25828 0.74284
 C1569 C 0.54119 0.26277 0.73740
 C1570 C 0.54469 0.26125 0.72224
 C1571 C 0.53396 0.25565 0.71251
 C1572 C 0.51999 0.25144 0.71791
 H1573 H 0.51917 0.22213 0.72863
 H1574 H 0.54164 0.20861 0.73353
 H1575 H 0.53661 0.21663 0.78065
 H1576 H 0.51452 0.23060 0.77558
 H1577 H 0.48894 0.21046 0.75300
 H1578 H 0.46779 0.20445 0.76913
 H1579 H 0.48471 0.25390 0.76523
 H1580 H 0.49748 0.27500 0.74089
 H1581 H 0.47433 0.28745 0.73587
 H1582 H 0.45342 0.24862 0.72232
 H1583 H 0.47668 0.23620 0.72725
 H1584 H 0.52492 0.25919 0.75463
 H1585 H 0.54936 0.26696 0.74509
 H1586 H 0.53646 0.25443 0.70077
 H1587 H 0.51190 0.24699 0.71030
 H1588 H 0.46298 0.24818 0.78040
 C1589 C 0.00404 0.24777 0.74811
 C1590 C 0.00513 0.25540 0.76084
 C1591 C -0.00799 0.26277 0.76696
 C1592 C 0.01968 0.25773 0.76840
 C1593 C 0.01733 0.24345 0.73950
 C1594 C -0.01046 0.24477 0.74103
 C1595 C -0.01387 0.27416 0.75917
 C1596 C -0.02535 0.28200 0.76534
 C1597 C -0.03109 0.27874 0.77953
 C1598 C -0.02537 0.26716 0.78724
 C1599 C -0.01379 0.25930 0.78104
 C1600 C 0.02394 0.27123 0.77302
 C1601 C 0.03768 0.27353 0.77991
 C1602 C 0.04754 0.26239 0.78225
 C1603 C 0.04318 0.24886 0.77772
 C1604 C 0.02934 0.24653 0.77109
 C1605 C 0.02006 0.22923 0.73683
 C1606 C 0.03207 0.22524 0.72786
 C1607 C 0.04128 0.23544 0.72115
 C1608 C 0.03855 0.24966 0.72393
 C1609 C 0.02670 0.25364 0.73307
 C1610 C -0.01855 0.23265 0.74478
 C1611 C -0.03101 0.22866 0.73641
 C1612 C -0.03569 0.23688 0.72428
 C1613 C -0.02797 0.24948 0.72122
 C1614 C -0.01532 0.25321 0.72930
 H1615 H -0.00926 0.27724 0.74849
 H1616 H -0.02965 0.29075 0.75905
 H1617 H -0.02952 0.26448 0.79824
 H1618 H -0.00921 0.25065 0.78727
 H1619 H 0.01668 0.28005 0.77120
 H1620 H 0.04047 0.28403 0.78356
 H1621 H 0.02618 0.23596 0.76800
 H1622 H 0.01288 0.22125 0.74166
 H1623 H 0.03391 0.21421 0.72582
 H1624 H 0.04558 0.25770 0.71898
 H1625 H 0.02464 0.26466 0.73488
 H1626 H -0.01479 0.22594 0.75371
 H1627 H -0.03649 0.21882 0.73901
 H1628 H -0.03144 0.25631 0.71229
 H1629 H -0.00908 0.26253 0.72617
 H1630 H 0.05050 0.24003 0.77917
 C1631 C 0.50676 0.25132 0.24533
 C1632 C 0.50958 0.26224 0.25463
 C1633 C 0.49733 0.27067 0.26094
 C1634 C 0.52470 0.26534 0.26048
 C1635 C 0.51880 0.24215 0.23988
 C1636 C 0.49158 0.24826 0.23961
 C1637 C 0.49456 0.28415 0.25551
 C1638 C 0.48402 0.29260 0.26246
 C1639 C 0.47608 0.28774 0.27500
 C1640 C 0.47846 0.27401 0.28007
 C1641 C 0.48906 0.26556 0.27311
 C1642 C 0.53126 0.27859 0.25831
 C1643 C 0.54434 0.28234 0.26578
 C1644 C 0.55137 0.27278 0.27535
 C1645 C 0.54522 0.25920 0.27669
 C1646 C 0.53183 0.25570 0.26973
 C1647 C 0.52216 0.22982 0.24756
 C1648 C 0.53283 0.22068 0.24198
 C1649 C 0.54005 0.22345 0.22832
 C1650 C 0.53660 0.23586 0.22064
 C1651 C 0.52608 0.24515 0.22641
 C1652 C 0.48534 0.23483 0.24130
 C1653 C 0.47169 0.23146 0.23477
 C1654 C 0.46389 0.24150 0.22648
 C1655 C 0.46998 0.25509 0.22518
 C1656 C 0.48378 0.25836 0.23150
 H1657 H 0.50063 0.28818 0.24595
 H1658 H 0.48218 0.30302 0.25811
 H1659 H 0.47255 0.27002 0.28975
 H1660 H 0.49112 0.25518 0.27745
 H1661 H 0.52601 0.28626 0.25125
 H1662 H 0.54847 0.29295 0.26453
 H1663 H 0.52676 0.24564 0.27212
 H1664 H 0.51645 0.22722 0.25786
 H1665 H 0.53540 0.21144 0.24842
 H1666 H 0.54175 0.23826 0.21000
 H1667 H 0.52339 0.25453 0.22023
 H1668 H 0.49113 0.22682 0.24746
 H1669 H 0.46756 0.22082 0.23578
 H1670 H 0.46423 0.26315 0.21906
 H1671 H 0.48854 0.26868 0.22968
 H1672 H 0.55043 0.25134 0.28353
 C1673 C 0.99862 0.76394 0.74760
 C1674 C 0.99834 0.75181 0.75566
 C1675 C 1.01206 0.74343 0.75813
 C1676 C 0.98453 0.74697 0.76340
 C1677 C 0.98462 0.77107 0.74321
 C1678 C 1.01291 0.77124 0.74391
 C1679 C 1.02163 0.74018 0.74623
 C1680 C 1.03451 0.73243 0.74867
 C1681 C 1.03797 0.72746 0.76300
 C1682 C 1.02830 0.73062 0.77487
 C1683 C 1.01551 0.73853 0.77246
 C1684 C 0.97970 0.73299 0.76219
 C1685 C 0.96758 0.72810 0.77063
 C1686 C 0.96018 0.73708 0.78056
 C1687 C 0.96486 0.75114 0.78150
 C1688 C 0.97696 0.75600 0.77310
 C1689 C 0.98271 0.78531 0.74648
 C1690 C 0.96947 0.79201 0.74282
 C1691 C 0.95787 0.78466 0.73570
 C1692 C 0.95994 0.77050 0.73203
 C1693 C 0.97320 0.76376 0.73577
 C1694 C 1.02354 0.77380 0.75504
 C1695 C 1.03669 0.78107 0.75175
 C1696 C 1.03939 0.78630 0.73732
 C1697 C 1.02870 0.78378 0.72619
 C1698 C 1.01558 0.77634 0.72947
 H1699 H 1.01913 0.74364 0.73504
 H1700 H 1.04178 0.73036 0.73929
 H1701 H 1.03044 0.72676 0.78599
 H1702 H 1.00831 0.74084 0.78183
 H1703 H 0.98550 0.72581 0.75491
 H1704 H 0.96435 0.71717 0.76980
 H1705 H 0.98069 0.76674 0.77448
 H1706 H 0.99138 0.79118 0.75214
 H1707 H 0.96829 0.80298 0.74558
 H1708 H 0.95118 0.76456 0.72660
 H1709 H 0.97452 0.75282 0.73295
 H1710 H 1.02159 0.77027 0.76636
 H1711 H 1.04474 0.78264 0.76056
 H1712 H 1.03029 0.78785 0.71503
 H1713 H 1.00746 0.77464 0.72075
 H1714 H 0.95929 0.75835 0.78892
 C1715 C 0.50195 0.76029 0.24187
 C1716 C 0.50261 0.74793 0.24944
 C1717 C 0.51706 0.74147 0.25353
 C1718 C 0.48890 0.73973 0.25302
 C1719 C 0.48795 0.76518 0.23482
 C1720 C 0.51554 0.76883 0.23871
 C1721 C 0.52812 0.73928 0.24270
 C1722 C 0.54141 0.73271 0.24644
 C1723 C 0.54380 0.72777 0.26101
 C1724 C 0.53270 0.72997 0.27185
 C1725 C 0.51946 0.73673 0.26813
 C1726 C 0.48788 0.72560 0.24886
 C1727 C 0.47493 0.71786 0.25176
 C1728 C 0.46275 0.72409 0.25897
 C1729 C 0.46390 0.73819 0.26338
 C1730 C 0.47688 0.74592 0.26048
 C1731 C 0.48303 0.77891 0.23723
 C1732 C 0.47134 0.78435 0.22880
 C1733 C 0.46457 0.77619 0.21766
 C1734 C 0.46906 0.76224 0.21575
 C1735 C 0.48067 0.75680 0.22422
 C1736 C 0.52533 0.77282 0.25014
 C1737 C 0.53831 0.78043 0.24683
 C1738 C 0.54162 0.78436 0.23205
 C1739 C 0.53163 0.78056 0.22070
 C1740 C 0.51876 0.77287 0.22399
 H1741 H 0.52640 0.74251 0.23128
 H1742 H 0.54977 0.73138 0.23785
 H1743 H 0.53403 0.72610 0.28310
 H1744 H 0.51099 0.73815 0.27662
 H1745 H 0.49706 0.72060 0.24315
 H1746 H 0.47447 0.70696 0.24847
 H1747 H 0.47753 0.75677 0.26397
 H1748 H 0.48862 0.78558 0.24525
 H1749 H 0.46819 0.79516 0.23039
 H1750 H 0.46395 0.75570 0.20731
 H1751 H 0.48446 0.74627 0.22197
 H1752 H 0.52297 0.76995 0.26159
 H1753 H 0.54581 0.78312 0.25581
 H1754 H 0.53366 0.78368 0.20927
 H1755 H 0.51136 0.76994 0.21499
 H1756 H 0.45467 0.74331 0.26886
 C1757 C -0.00296 0.75164 0.23338
 C1758 C -0.00409 0.76322 0.24222
 C1759 C -0.01872 0.76949 0.24581
 C1760 C 0.00891 0.76916 0.25031
 C1761 C 0.01156 0.74490 0.23013
 C1762 C -0.01642 0.74384 0.22826
 C1763 C -0.02158 0.78327 0.24140
 C1764 C -0.03540 0.78927 0.24435
 C1765 C -0.04660 0.78162 0.25186
 C1766 C -0.04354 0.76791 0.25663
 C1767 C -0.02968 0.76193 0.25371
 C1768 C 0.02193 0.77365 0.24290
 C1769 C 0.03470 0.77722 0.25105
 C1770 C 0.03457 0.77637 0.26671
 C1771 C 0.02125 0.77273 0.27404
 C1772 C 0.00856 0.76923 0.26594
 C1773 C 0.02086 0.74033 0.24165
 C1774 C 0.03416 0.73351 0.23838
 C1775 C 0.03816 0.73051 0.22353
 C1776 C 0.02871 0.73498 0.21203
 C1777 C 0.01558 0.74212 0.21532
 C1778 C -0.01837 0.72992 0.23290
 C1779 C -0.03169 0.72280 0.23016
 C1780 C -0.04341 0.72944 0.22273
 C1781 C -0.04115 0.74310 0.21723
 C1782 C -0.02770 0.75024 0.21992
 H1783 H -0.01315 0.78932 0.23550
 H1784 H -0.03729 0.79995 0.24083
 H1785 H -0.05194 0.76172 0.26237
 H1786 H -0.02755 0.75136 0.25745
 H1787 H 0.02237 0.77381 0.23084
 H1788 H 0.04484 0.78002 0.24514
 H1789 H -0.00138 0.76589 0.27190
 H1790 H 0.01778 0.74193 0.25319
 H1791 H 0.04120 0.73046 0.24755
 H1792 H 0.03119 0.73262 0.20050
 H1793 H 0.00840 0.74531 0.20628
 H1794 H -0.00980 0.72473 0.23925
 H1795 H -0.03298 0.71217 0.23422
 H1796 H -0.04998 0.74846 0.21144
 H1797 H -0.02633 0.76092 0.21605
 H1798 H 0.02076 0.77225 0.28610
 C1799 C 0.49419 0.73144 0.75661
 C1800 C 0.49546 0.74285 0.76573
 C1801 C 0.48210 0.75105 0.77010
 C1802 C 0.51029 0.74905 0.76946
 C1803 C 0.50722 0.72241 0.75323
 C1804 C 0.48026 0.72857 0.74811
 C1805 C 0.48175 0.76548 0.76716
 C1806 C 0.46864 0.77295 0.76920
 C1807 C 0.45563 0.76619 0.77432
 C1808 C 0.45622 0.75197 0.77825
 C1809 C 0.46937 0.74445 0.77616
 C1810 C 0.52076 0.75172 0.75812
 C1811 C 0.53388 0.75909 0.76113
 C1812 C 0.53668 0.76437 0.77547
 C1813 C 0.52639 0.76142 0.78695
 C1814 C 0.51329 0.75385 0.78395
 C1815 C 0.51626 0.71725 0.76468
 C1816 C 0.52890 0.70940 0.76131
 C1817 C 0.53270 0.70649 0.74641
 C1818 C 0.52343 0.71138 0.73500
 C1819 C 0.51081 0.71921 0.73837
 C1820 C 0.47406 0.71503 0.74771
 C1821 C 0.46171 0.71211 0.73872
 C1822 C 0.45539 0.72267 0.72987
 C1823 C 0.46153 0.73625 0.73049
 C1824 C 0.47392 0.73912 0.73934
 H1825 H 0.49141 0.77083 0.76255
 H1826 H 0.46852 0.78396 0.76629
 H1827 H 0.44632 0.74653 0.78220
 H1828 H 0.46947 0.73336 0.77870
 H1829 H 0.51855 0.74858 0.74675
 H1830 H 0.54165 0.76102 0.75209
 H1831 H 0.50527 0.75213 0.79282
 H1832 H 0.51362 0.71945 0.77623
 H1833 H 0.53587 0.70585 0.77034
 H1834 H 0.52591 0.70911 0.72344
 H1835 H 0.50401 0.72304 0.72933
 H1836 H 0.47893 0.70668 0.75418
 H1837 H 0.45740 0.70149 0.73835
 H1838 H 0.45684 0.74469 0.72401
 H1839 H 0.47877 0.74955 0.73909
 H1840 H 0.52813 0.76549 0.79807
 C1841 C 0.42468 0.31183 0.30596
 C1842 C 0.43557 0.32200 0.30461
 C1843 C 0.43346 0.33580 0.30893
 C1844 C 0.41948 0.33934 0.31469
 C1845 C 0.40794 0.32914 0.31603
 C1846 C 0.41069 0.31510 0.31184
 O1847 O 0.42882 0.29952 0.30053
 C1848 C 0.44259 0.30200 0.29563
 C1849 C 0.44721 0.31560 0.29788
 C1850 C 0.46099 0.32067 0.29314
 C1851 C 0.47041 0.31135 0.28571
 C1852 C 0.46593 0.29725 0.28313
 C1853 C 0.45182 0.29251 0.28831
 H1854 H 0.44218 0.34362 0.30765
 H1855 H 0.41761 0.35010 0.31795
 H1856 H 0.40204 0.30715 0.31250
 H1857 H 0.46432 0.33145 0.29498
 H1858 H 0.48123 0.31510 0.28203
 H1859 H 0.44801 0.28187 0.28635
 C1860 C 0.39756 0.79033 0.78949
 C1861 C 0.40151 0.79429 0.77529
 C1862 C 0.39297 0.80307 0.76663
 C1863 C 0.37980 0.80815 0.77284
 C1864 C 0.37529 0.80452 0.78764
 C1865 C 0.38439 0.79526 0.79599
 O1866 O 0.40756 0.78201 0.79579
 C1867 C 0.41799 0.78079 0.78529
 C1868 C 0.41475 0.78815 0.77256
 C1869 C 0.42415 0.78870 0.76025
 C1870 C 0.43754 0.78139 0.76106
 C1871 C 0.44129 0.77370 0.77403
 C1872 C 0.43127 0.77328 0.78630
 H1873 H 0.39636 0.80598 0.75545
 H1874 H 0.37328 0.81493 0.76587
 H1875 H 0.38155 0.79217 0.80725
 H1876 H 0.42131 0.79462 0.75039
 H1877 H 0.44496 0.78162 0.75152
 H1878 H 0.43389 0.76755 0.79635
 C1879 C -0.08592 0.29945 0.80719
 C1880 C -0.07761 0.31072 0.80224
 C1881 C -0.08295 0.32432 0.80216
 C1882 C -0.09753 0.32640 0.80724
 C1883 C -0.10637 0.31499 0.81242
 C1884 C -0.10040 0.30133 0.81263
 O1885 O -0.07906 0.28729 0.80529
 C1886 C -0.06617 0.29101 0.79901
 C1887 C -0.06475 0.30524 0.79699
 C1888 C -0.05250 0.31143 0.79005
 C1889 C -0.04131 0.30259 0.78476
 C1890 C -0.04259 0.28782 0.78633
 C1891 C -0.05513 0.28198 0.79383
 H1892 H -0.07627 0.33297 0.79798
 H1893 H -0.10199 0.33689 0.80704
 H1894 H -0.10704 0.29242 0.81622
 H1895 H -0.05169 0.32266 0.78855
 H1896 H -0.03170 0.30725 0.77930
 H1897 H -0.05653 0.27076 0.79502
 C1898 C -0.10289 0.79874 0.27933
 C1899 C -0.10206 0.80458 0.26534
 C1900 C -0.11303 0.81325 0.25971
 C1901 C -0.12536 0.81603 0.26888
 C1902 C -0.12652 0.81011 0.28337
 C1903 C -0.11508 0.80129 0.28860
 O1904 O -0.09119 0.79096 0.28264
 C1905 C -0.08280 0.79190 0.27045
 C1906 C -0.08896 0.80010 0.25953
 C1907 C -0.08200 0.80255 0.24590
 C1908 C -0.06811 0.79634 0.24344
 C1909 C -0.06142 0.78791 0.25458
 C1910 C -0.06898 0.78565 0.26827
 H1911 H -0.11212 0.81774 0.24866
 H1912 H -0.13401 0.82268 0.26457
 H1913 H -0.11548 0.79669 0.29962
 H1914 H -0.08709 0.80901 0.23746
 H1915 H -0.06263 0.79799 0.23281
 H1916 H -0.06416 0.77943 0.27707
 C1917 C 0.59460 0.70247 0.29177
 C1918 C 0.59381 0.69708 0.27758
 C1919 C 0.60307 0.68655 0.27250
 C1920 C 0.61346 0.68116 0.28252
 C1921 C 0.61444 0.68632 0.29733
 C1922 C 0.60501 0.69733 0.30194
 O1923 O 0.58430 0.71207 0.29444
 C1924 C 0.57686 0.71269 0.28166
 C1925 C 0.58228 0.70373 0.27102
 C1926 C 0.57589 0.70222 0.25704
 C1927 C 0.56333 0.71028 0.25387
 C1928 C 0.55743 0.71970 0.26459
 C1929 C 0.56440 0.72090 0.27871
 H1930 H 0.60216 0.68245 0.26129
 H1931 H 0.62068 0.67287 0.27872
 H1932 H 0.60535 0.70135 0.31321
 H1933 H 0.58025 0.69492 0.24895
 H1934 H 0.55801 0.70887 0.24317
 H1935 H 0.56025 0.72796 0.28717
 C1936 C 0.59738 0.19272 0.78260
 C1937 C 0.59307 0.18312 0.77202
 C1938 C 0.60131 0.17121 0.76888
 C1939 C 0.61446 0.16911 0.77701
 C1940 C 0.61912 0.17887 0.78807
 C1941 C 0.61035 0.19087 0.79078
 O1942 O 0.58800 0.20328 0.78403
 C1943 C 0.57752 0.20030 0.77415
 C1944 C 0.58006 0.18808 0.76647
 C1945 C 0.57034 0.18301 0.75567
 C1946 C 0.55750 0.19083 0.75270
 C1947 C 0.55462 0.20346 0.76053
 C1948 C 0.56489 0.20822 0.77137
 H1949 H 0.59771 0.16377 0.76052
 H1950 H 0.62092 0.15988 0.77466
 H1951 H 0.61333 0.19857 0.79908
 H1952 H 0.57251 0.17334 0.74980
 H1953 H 0.54969 0.18692 0.74450
 H1954 H 0.56318 0.21788 0.77742
 C1955 C 1.08920 0.69913 0.78968
 C1956 C 1.08683 0.69366 0.77570
 C1957 C 1.09472 0.68238 0.77014
 C1958 C 1.10534 0.67630 0.77946
 C1959 C 1.10788 0.68152 0.79406
 C1960 C 1.09986 0.69331 0.79913
 O1961 O 1.07996 0.70948 0.79299
 C1962 C 1.07158 0.71049 0.78085
 C1963 C 1.07537 0.70105 0.76997
 C1964 C 1.06766 0.69981 0.75664
 C1965 C 1.05550 0.70865 0.75441
 C1966 C 1.05128 0.71856 0.76542
 C1967 C 1.05958 0.71949 0.77883
 H1968 H 1.09259 0.67822 0.75913
 H1969 H 1.11147 0.66741 0.77529
 H1970 H 1.10139 0.69740 0.81027
 H1971 H 1.07072 0.69211 0.74836
 H1972 H 1.04914 0.70747 0.74426
 H1973 H 1.05674 0.72690 0.78748
 C1974 C 1.08067 0.18851 0.29584
 C1975 C 1.07452 0.18045 0.28471
 C1976 C 1.07986 0.16728 0.28101
 C1977 C 1.09204 0.16222 0.28909
 C1978 C 1.09860 0.17031 0.30066
 C1979 C 1.09273 0.18366 0.30404
 O1980 O 1.07404 0.20077 0.29753
 C1981 C 1.06344 0.20044 0.28726
 C1982 C 1.06325 0.18825 0.27912
 C1983 C 1.05307 0.18573 0.26778
 C1984 C 1.04268 0.19622 0.26470
 C1985 C 1.04266 0.20896 0.27289
 C1986 C 1.05323 0.21102 0.28438
 H1987 H 1.07483 0.16112 0.27221
 H1988 H 1.09622 0.15194 0.28637
 H1989 H 1.09749 0.19022 0.31266
 H1990 H 1.05309 0.17602 0.26156
 H1991 H 1.03453 0.19433 0.25606
 H1992 H 1.05365 0.22063 0.29076
 C1993 C 0.60110 0.28955 0.70759
 C1994 C 0.60173 0.27590 0.70275
 C1995 C 0.61391 0.27050 0.69527
 C1996 C 0.62590 0.27959 0.69238
 C1997 C 0.62548 0.29390 0.69676
 C1998 C 0.61293 0.29886 0.70474
 O1999 O 0.58833 0.29250 0.71439
 C2000 C 0.58076 0.28046 0.71373
 C2001 C 0.58847 0.27002 0.70662
 C2002 C 0.58252 0.25674 0.70413
 C2003 C 0.56800 0.25406 0.70922
 C2004 C 0.55984 0.26455 0.71676
 C2005 C 0.56635 0.27794 0.71912
 H2006 H 0.61415 0.25969 0.69168
 H2007 H 0.63543 0.27536 0.68661
 H2008 H 0.61216 0.30968 0.70820
 H2009 H 0.58880 0.24876 0.69838
 H2010 H 0.56313 0.24377 0.70745
 H2011 H 0.56028 0.28615 0.72474
 C2012 C 0.59226 0.80979 0.20049
 C2013 C 0.59037 0.81677 0.21376
 C2014 C 0.59829 0.82883 0.21740
 C2015 C 0.60847 0.83402 0.20685
 C2016 C 0.61055 0.82715 0.19296
 C2017 C 0.60248 0.81470 0.18986
 O2018 O 0.58300 0.79897 0.19894
 C2019 C 0.57509 0.79919 0.21149
 C2020 C 0.57920 0.80985 0.22094
 C2021 C 0.57192 0.81243 0.23434
 C2022 C 0.55978 0.80376 0.23810
 C2023 C 0.55516 0.79276 0.22847
 C2024 C 0.56313 0.79038 0.21505
 H2025 H 0.59651 0.83420 0.22786
 H2026 H 0.61467 0.84346 0.20952
 H2027 H 0.60364 0.80935 0.17929
 H2028 H 0.57524 0.82103 0.24149
 H2029 H 0.55369 0.80593 0.24826
 H2030 H 0.55997 0.78207 0.20745
 C2031 C 1.09829 0.29382 0.20985
 C2032 C 1.09647 0.28119 0.20273
 C2033 C 1.10622 0.27648 0.19184
 C2034 C 1.11834 0.28517 0.18808
 C2035 C 1.12046 0.29836 0.19516
 C2036 C 1.11025 0.30264 0.20631
 O2037 O 1.08748 0.29652 0.21953
 C2038 C 1.07863 0.28537 0.21843
 C2039 C 1.08363 0.27568 0.20829
 C2040 C 1.07577 0.26348 0.20491
 C2041 C 1.06211 0.26125 0.21219
 C2042 C 1.05667 0.27112 0.22265
 C2043 C 1.06516 0.28328 0.22593
 H2044 H 1.10447 0.26654 0.18629
 H2045 H 1.12583 0.28164 0.17945
 H2046 H 1.11141 0.31258 0.21197
 H2047 H 1.07989 0.25607 0.19680
 H2048 H 1.05572 0.25187 0.20967
 H2049 H 1.06114 0.29108 0.23367
 C2050 C 1.09170 0.81184 0.70822
 C2051 C 1.09049 0.81729 0.72234
 C2052 C 1.10016 0.82748 0.72780
 C2053 C 1.11146 0.83239 0.71825
 C2054 C 1.11287 0.82715 0.70349
 C2055 C 1.10287 0.81657 0.69851
 O2056 O 1.08120 0.80238 0.70518
 C2057 C 1.07318 0.80190 0.71765
 C2058 C 1.07840 0.81083 0.72848
 C2059 C 1.07150 0.81229 0.74226
 C2060 C 1.05868 0.80417 0.74503
 C2061 C 1.05305 0.79474 0.73412
 C2062 C 1.06050 0.79364 0.72020
 H2063 H 1.09899 0.83158 0.73898
 H2064 H 1.11905 0.84030 0.72243
 H2065 H 1.10347 0.81237 0.68734
 H2066 H 1.07573 0.81953 0.75053
 H2067 H 1.05301 0.80546 0.75560
 H2068 H 1.05661 0.78653 0.71164
 C2069 C 0.40088 0.69945 0.70327
 C2070 C 0.40721 0.70863 0.69322
 C2071 C 0.40107 0.71124 0.67931
 C2072 C 0.38786 0.70408 0.67559
 C2073 C 0.38113 0.69445 0.68571
 C2074 C 0.38780 0.69218 0.69978
 O2075 O 0.40848 0.69846 0.71588
 C2076 C 0.41990 0.70717 0.71373
 C2077 C 0.41965 0.71364 0.70004
 C2078 C 0.43063 0.72306 0.69543
 C2079 C 0.44233 0.72593 0.70532
 C2080 C 0.44284 0.71948 0.71959
 C2081 C 0.43138 0.70992 0.72378
 H2082 H 0.40628 0.71850 0.67158
 H2083 H 0.38308 0.70591 0.66473
 H2084 H 0.38296 0.68503 0.70786
 H2085 H 0.43027 0.72795 0.68455
 H2086 H 0.45111 0.73303 0.70173
 H2087 H 0.43130 0.70487 0.73459
 C2088 C 0.41056 0.21112 0.20680
 C2089 C 0.41438 0.22072 0.19597
 C2090 C 0.40771 0.22095 0.18205
 C2091 C 0.39681 0.21074 0.17907
 C2092 C 0.39284 0.20051 0.18994
 C2093 C 0.39966 0.20091 0.20412
 O2094 O 0.41893 0.21218 0.21892
 C2095 C 0.42826 0.22261 0.21561
 C2096 C 0.42593 0.22819 0.20170
 C2097 C 0.43507 0.23852 0.19556
 C2098 C 0.44726 0.24315 0.20400
 C2099 C 0.45007 0.23749 0.21837
 C2100 C 0.44017 0.22722 0.22430
 H2101 H 0.41100 0.22853 0.17366
 H2102 H 0.39159 0.21076 0.16823
 H2103 H 0.39709 0.19315 0.21256
 H2104 H 0.43318 0.24253 0.18445
 H2105 H 0.45483 0.25072 0.19902
 H2106 H 0.44188 0.22263 0.23518
 C2107 C -0.09974 0.70543 0.20107
 C2108 C -0.09791 0.70160 0.21571
 C2109 C -0.10774 0.69271 0.22317
 C2110 C -0.11997 0.68748 0.21520
 C2111 C -0.12219 0.69120 0.20005
 C2112 C -0.11193 0.70042 0.19294
 O2113 O -0.08882 0.71369 0.19602
 C2114 C -0.07993 0.71508 0.20775
 C2115 C -0.08505 0.70790 0.22006
 C2116 C -0.07741 0.70763 0.23348
 C2117 C -0.06385 0.71496 0.23422
 C2118 C -0.05812 0.72231 0.22164
 C2119 C -0.06643 0.72250 0.20825
 H2120 H -0.10601 0.68983 0.23470
 H2121 H -0.12775 0.68061 0.22094
 H2122 H -0.11320 0.70337 0.18137
 H2123 H -0.08170 0.70191 0.24302
 H2124 H -0.05780 0.71492 0.24464
 H2125 H -0.06232 0.72792 0.19844
 C2126 C -0.08790 0.20801 0.69892
 C2127 C -0.08048 0.21500 0.68769
 C2128 C -0.08465 0.21415 0.67286
 C2129 C -0.09698 0.20571 0.66939
 C2130 C -0.10488 0.19823 0.68068
 C2131 C -0.10022 0.19946 0.69572
 O2132 O -0.08181 0.21010 0.71224
 C2133 C -0.07028 0.21851 0.70926
 C2134 C -0.06900 0.22176 0.69440
 C2135 C -0.05746 0.22989 0.68864
 C2136 C -0.04669 0.23487 0.69860
 C2137 C -0.04770 0.23187 0.71412
 C2138 C -0.05981 0.22357 0.71947
 H2139 H -0.07853 0.21969 0.66423
 H2140 H -0.10008 0.20485 0.65781
 H2141 H -0.10592 0.19392 0.70462
 H2142 H -0.05658 0.23208 0.67683
 H2143 H -0.03735 0.24073 0.69407
 H2144 H -0.06102 0.22102 0.73116
 C2145 C 0.30653 0.41983 0.29136
 C2146 C 0.31557 0.42425 0.27984
 C2147 C 0.32878 0.41761 0.27614
 C2148 C 0.33288 0.40598 0.28472
 C2149 C 0.32375 0.40119 0.29668
 C2150 C 0.31031 0.40821 0.29994
 O2151 O 0.29466 0.42782 0.29327
 C2152 C 0.29625 0.43747 0.28271
 C2153 C 0.30883 0.43573 0.27415
 C2154 C 0.31271 0.44474 0.26256
 C2155 C 0.30325 0.45604 0.25971
 C2156 C 0.29026 0.45816 0.26847
 C2157 C 0.28674 0.44866 0.28012
 H2158 H 0.33575 0.42130 0.26705
 H2159 H 0.34312 0.40069 0.28194
 H2160 H 0.30317 0.40496 0.30908
 H2161 H 0.32271 0.44318 0.25601
 H2162 H 0.30621 0.46330 0.25088
 H2163 H 0.27687 0.44993 0.28694
 C2164 C 0.29715 -0.08740 0.77771
 C2165 C 0.30526 -0.08493 0.76495
 C2166 C 0.31505 -0.09462 0.75904
 C2167 C 0.31656 -0.10739 0.76657
 C2168 C 0.30848 -0.11025 0.77997
 C2169 C 0.29864 -0.09993 0.78556
 O2170 O 0.28825 -0.07689 0.78128
 C2171 C 0.29088 -0.06759 0.77057
 C2172 C 0.30126 -0.07196 0.76034
 C2173 C 0.30580 -0.06378 0.74831
 C2174 C 0.29938 -0.05052 0.74676
 C2175 C 0.28846 -0.04576 0.75705
 C2176 C 0.28418 -0.05455 0.76912
 H2177 H 0.32129 -0.09245 0.74894
 H2178 H 0.32428 -0.11484 0.76194
 H2179 H 0.29210 -0.10157 0.79557
 H2180 H 0.31410 -0.06741 0.74047
 H2181 H 0.30311 -0.04392 0.73765
 H2182 H 0.27576 -0.05147 0.77709
 C2183 C 0.79239 0.40475 0.79528
 C2184 C 0.79186 0.40319 0.78008
 C2185 C 0.79704 0.39135 0.77283
 C2186 C 0.80311 0.38069 0.78159
 C2187 C 0.80374 0.38188 0.79740
 C2188 C 0.79803 0.39412 0.80428
 O2189 O 0.78775 0.41721 0.79984
 C2190 C 0.78419 0.42361 0.78723
 C2191 C 0.78639 0.41543 0.77483
 C2192 C 0.78371 0.42012 0.76046
 C2193 C 0.77875 0.43389 0.75875
 C2194 C 0.77679 0.44279 0.77129
 C2195 C 0.77938 0.43742 0.78578
 H2196 H 0.79666 0.39045 0.76081
 H2197 H 0.80715 0.37148 0.77592
 H2198 H 0.79851 0.39571 0.81620
 H2199 H 0.78548 0.41345 0.75088
 H2200 H 0.77652 0.43761 0.74759
 H2201 H 0.77822 0.44390 0.79560
 C2202 C 0.78894 -0.09648 0.29867
 C2203 C 0.78029 -0.09052 0.30956
 C2204 C 0.77715 -0.09719 0.32299
 C2205 C 0.78318 -0.11053 0.32530
 C2206 C 0.79221 -0.11703 0.31423
 C2207 C 0.79501 -0.10972 0.30068
 O2208 O 0.79074 -0.08837 0.28676
 C2209 C 0.78307 -0.07702 0.29022
 C2210 C 0.77644 -0.07779 0.30403
 C2211 C 0.76798 -0.06698 0.30990
 C2212 C 0.76632 -0.05488 0.30117
 C2213 C 0.77308 -0.05379 0.28685
 C2214 C 0.78157 -0.06511 0.28135
 H2215 H 0.77032 -0.09227 0.33142
 H2216 H 0.78073 -0.11567 0.33577
 H2217 H 0.80177 -0.11401 0.29185
 H2218 H 0.76294 -0.06777 0.32084
 H2219 H 0.76000 -0.04627 0.30571
 H2220 H 0.78680 -0.06470 0.27047
 C2221 C 0.29250 0.58491 0.70438
 C2222 C 0.30134 0.58075 0.71600
 C2223 C 0.31359 0.58849 0.72078
 C2224 C 0.31690 0.60105 0.71327
 C2225 C 0.30798 0.60563 0.70119
 C2226 C 0.29557 0.59734 0.69675
 O2227 O 0.28139 0.57602 0.70158
 C2228 C 0.28327 0.56603 0.71167
 C2229 C 0.29532 0.56843 0.72076
 C2230 C 0.29935 0.55930 0.73206
 C2231 C 0.29061 0.54720 0.73410
 C2232 C 0.27805 0.54445 0.72492
 C2233 C 0.27440 0.55405 0.71349
 H2234 H 0.32039 0.58499 0.72997
 H2235 H 0.32643 0.60710 0.71695
 H2236 H 0.28847 0.60035 0.68763
 H2237 H 0.30894 0.56139 0.73902
 H2238 H 0.29376 0.53988 0.74272
 H2239 H 0.26486 0.55234 0.70636
 C2240 C 0.31459 1.08453 0.21428
 C2241 C 0.32327 1.08179 0.22649
 C2242 C 0.33407 1.09111 0.23160
 C2243 C 0.33606 1.10372 0.22375
 C2244 C 0.32731 1.10681 0.21101
 C2245 C 0.31636 1.09699 0.20630
 O2246 O 0.30488 1.07435 0.21131
 C2247 C 0.30751 1.06498 0.22188
 C2248 C 0.31866 1.06901 0.23146
 C2249 C 0.32309 1.06078 0.24342
 C2250 C 0.31564 1.04794 0.24565
 C2251 C 0.30401 1.04358 0.23597
 C2252 C 0.29999 1.05226 0.22386
 H2253 H 0.34076 1.08875 0.24128
 H2254 H 0.34452 1.11095 0.22764
 H2255 H 0.30940 1.09887 0.19673
 H2256 H 0.33192 1.06416 0.25081
 H2257 H 0.31895 1.04138 0.25488
 H2258 H 0.29101 1.04940 0.21641
 C2259 C 0.78704 0.59300 0.20512
 C2260 C 0.77322 0.59048 0.19911
 C2261 C 0.76601 0.60006 0.19010
 C2262 C 0.77332 0.61281 0.18716
 C2263 C 0.78762 0.61576 0.19322
 C2264 C 0.79457 0.60561 0.20231
 O2265 O 0.79186 0.58250 0.21346
 C2266 C 0.78082 0.57316 0.21267
 C2267 C 0.76917 0.57754 0.20400
 C2268 C 0.75646 0.56945 0.20164
 C2269 C 0.75571 0.55627 0.20850
 C2270 C 0.76756 0.55144 0.21752
 C2271 C 0.78030 0.56008 0.21963
 H2272 H 0.75513 0.59781 0.18546
 H2273 H 0.76783 0.62026 0.18003
 H2274 H 0.80541 0.60748 0.20719
 H2275 H 0.74740 0.57318 0.19482
 H2276 H 0.74577 0.54992 0.20697
 H2277 H 0.78957 0.55669 0.22637
 C2278 C 0.80818 1.09318 0.71336
 C2279 C 0.79351 1.09444 0.70920
 C2280 C 0.78859 1.10472 0.69951
 C2281 C 0.79929 1.11387 0.69349
 C2282 C 0.81455 1.11258 0.69720
 C2283 C 0.81905 1.10233 0.70759
 O2284 O 0.81054 1.08199 0.72182
 C2285 C 0.79711 1.07606 0.72289
 C2286 C 0.78636 1.08328 0.71533
 C2287 C 0.77183 1.07842 0.71385
 C2288 C 0.76817 1.06556 0.72047
 C2289 C 0.77891 1.05786 0.72863
 C2290 C 0.79363 1.06334 0.72986
 H2291 H 0.77702 1.10535 0.69626
 H2292 H 0.79578 1.12165 0.68549
 H2293 H 0.83069 1.10090 0.71023
 H2294 H 0.76370 1.08412 0.70743
 H2295 H 0.75703 1.06147 0.71879
 H2296 H 0.80220 1.05784 0.73588
 C2297 C 0.69798 0.58059 0.30550
 C2298 C 0.68671 0.57209 0.30029
 C2299 C 0.67178 0.57561 0.30132
 C2300 C 0.66830 0.58851 0.30783
 C2301 C 0.67969 0.59769 0.31306
 C2302 C 0.69477 0.59350 0.31201
 O2303 O 0.71144 0.57535 0.30313
 C2304 C 0.70858 0.56332 0.29624
 C2305 C 0.69360 0.56088 0.29420
 C2306 C 0.68807 0.54917 0.28679
 C2307 C 0.69840 0.53959 0.28120
 C2308 C 0.71393 0.54181 0.28315
 C2309 C 0.71907 0.55382 0.29091
 H2310 H 0.66311 0.56872 0.29713
 H2311 H 0.65668 0.59130 0.30866
 H2312 H 0.70379 0.60020 0.31575
 H2313 H 0.67623 0.54754 0.28525
 H2314 H 0.69433 0.53038 0.27541
 H2315 H 0.73085 0.55584 0.29242
 C2316 C 0.71639 1.09206 0.80715
 C2317 C 0.72813 1.08981 0.81658
 C2318 C 0.73230 1.09932 0.82751
 C2319 C 0.72403 1.11165 0.82879
 C2320 C 0.71172 1.11432 0.81924
 C2321 C 0.70794 1.10421 0.80823
 O2322 O 0.71434 1.08175 0.79743
 C2323 C 0.72502 1.07281 0.80084
 C2324 C 0.73377 1.07722 0.81249
 C2325 C 0.74564 1.06945 0.81783
 C2326 C 0.74863 1.05662 0.81084
 C2327 C 0.73980 1.05184 0.79874
 C2328 C 0.72781 1.06013 0.79373
 H2329 H 0.74163 1.09733 0.83479
 H2330 H 0.72735 1.11897 0.83735
 H2331 H 0.69879 1.10563 0.80062
 H2332 H 0.75235 1.07314 0.82705
 H2333 H 0.75773 1.05037 0.81495
 H2334 H 0.72099 1.05695 0.78438
 C2335 C 0.18591 0.57316 0.79127
 C2336 C 0.17562 0.56867 0.78099
 C2337 C 0.16211 0.57526 0.77884
 C2338 C 0.15905 0.58702 0.78759
 C2339 C 0.16945 0.59208 0.79830
 C2340 C 0.18311 0.58492 0.80014
 O2341 O 0.19809 0.56536 0.79144
 C2342 C 0.19539 0.55578 0.78101
 C2343 C 0.18180 0.55740 0.77428
 C2344 C 0.17675 0.54869 0.76292
 C2345 C 0.18610 0.53785 0.75829
 C2346 C 0.20020 0.53587 0.76503
 C2347 C 0.20486 0.54499 0.77663
 H2348 H 0.15421 0.57151 0.77064
 H2349 H 0.14856 0.59218 0.78578
 H2350 H 0.19134 0.58837 0.80814
 H2351 H 0.16599 0.55021 0.75780
 H2352 H 0.18228 0.53088 0.74956
 H2353 H 0.21560 0.54383 0.78190
 C2354 C 0.21077 1.08949 0.29224
 C2355 C 0.20727 1.08967 0.27733
 C2356 C 0.19764 1.09932 0.27113
 C2357 C 0.19105 1.10903 0.28074
 C2358 C 0.19419 1.10899 0.29623
 C2359 C 0.20448 1.09926 0.30203
 O2360 O 0.21944 1.07882 0.29591
 C2361 C 0.22137 1.07214 0.28303
 C2362 C 0.21415 1.07840 0.27136
 C2363 C 0.21388 1.07278 0.25710
 C2364 C 0.22135 1.06016 0.25471
 C2365 C 0.22901 1.05339 0.26649
 C2366 C 0.22903 1.05960 0.28088
 H2367 H 0.19494 1.09913 0.25939
 H2368 H 0.18324 1.11643 0.27614
 H2369 H 0.20681 1.09880 0.31384
 H2370 H 0.20782 1.07777 0.24818
 H2371 H 0.22071 1.05547 0.24375
 H2372 H 0.23466 1.05476 0.29017
 C2373 C 0.70447 0.40367 0.72309
 C2374 C 0.71967 0.40244 0.72438
 C2375 C 0.72733 0.39061 0.71983
 C2376 C 0.71905 0.37972 0.71336
 C2377 C 0.70341 0.38078 0.71167
 C2378 C 0.69594 0.39278 0.71695
 O2379 O 0.69963 0.41633 0.72677
 C2380 C 0.71205 0.42321 0.73038
 C2381 C 0.72460 0.41513 0.72910
 C2382 C 0.73892 0.42046 0.73108
 C2383 C 0.74040 0.43474 0.73434
 C2384 C 0.72769 0.44334 0.73559
 C2385 C 0.71327 0.43746 0.73386
 H2386 H 0.73934 0.39003 0.72066
 H2387 H 0.72488 0.37062 0.70922
 H2388 H 0.68408 0.39402 0.71530
 H2389 H 0.74863 0.41394 0.72974
 H2390 H 0.75145 0.43920 0.73565
 H2391 H 0.70343 0.44390 0.73448
 C2392 C 0.69722 -0.07351 0.19392
 C2393 C 0.68840 -0.07051 0.20604
 C2394 C 0.67490 -0.07722 0.20879
 C2395 C 0.67030 -0.08752 0.19867
 C2396 C 0.67923 -0.09099 0.18611
 C2397 C 0.69292 -0.08382 0.18373
 O2398 O 0.70963 -0.06583 0.19340
 C2399 C 0.70859 -0.05787 0.20549
 C2400 C 0.69583 -0.06038 0.21361
 C2401 C 0.69254 -0.05339 0.22676
 C2402 C 0.70278 -0.04329 0.23172
 C2403 C 0.71597 -0.04026 0.22346
 C2404 C 0.71891 -0.04778 0.21016
 H2405 H 0.66818 -0.07467 0.21844
 H2406 H 0.65992 -0.09298 0.20091
 H2407 H 0.69997 -0.08616 0.17427
 H2408 H 0.68247 -0.05568 0.23302
 H2409 H 0.70049 -0.03792 0.24209
 H2410 H 0.72877 -0.04570 0.20352
 C2411 C 0.19622 0.41530 0.21160
 C2412 C 0.18754 0.41812 0.22386
 C2413 C 0.17594 0.40936 0.22846
 C2414 C 0.17324 0.39717 0.22011
 C2415 C 0.18212 0.39396 0.20743
 C2416 C 0.19374 0.40328 0.20315
 O2417 O 0.20676 0.42488 0.20918
 C2418 C 0.20470 0.43394 0.22017
 C2419 C 0.19309 0.43029 0.22948
 C2420 C 0.18914 0.43822 0.24184
 C2421 C 0.19754 0.45039 0.24472
 C2422 C 0.20960 0.45438 0.23528
 C2423 C 0.21314 0.44600 0.22278
 H2424 H 0.16927 0.41177 0.23818
 H2425 H 0.16436 0.39021 0.22370
 H2426 H 0.20071 0.40132 0.19354
 H2427 H 0.17996 0.43515 0.24901
 H2428 H 0.19455 0.45679 0.25421
 H2429 H 0.22237 0.44866 0.21546
 C2430 C 0.19882 -0.07096 0.69126
 C2431 C 0.21035 -0.06754 0.68177
 C2432 C 0.21315 -0.07478 0.66867
 C2433 C 0.20368 -0.08604 0.66518
 C2434 C 0.19164 -0.08986 0.67475
 C2435 C 0.18925 -0.08215 0.68803
 O2436 O 0.19811 -0.06264 0.70310
 C2437 C 0.20946 -0.05381 0.70101
 C2438 C 0.21729 -0.05638 0.68812
 C2439 C 0.22955 -0.04842 0.68369
 C2440 C 0.23391 -0.03728 0.69289
 C2441 C 0.22598 -0.03429 0.70623
 C2442 C 0.21360 -0.04278 0.71036
 H2443 H 0.22234 -0.07189 0.66141
 H2444 H 0.20593 -0.09182 0.65509
 H2445 H 0.18018 -0.08469 0.69557
 H2446 H 0.23557 -0.05071 0.67351
 H2447 H 0.24356 -0.03107 0.68970
 H2448 H 0.20726 -0.04073 0.72039
 C2449 C 0.29699 0.30038 0.39438
 C2450 C 0.28228 0.30421 0.39486
 C2451 C 0.27609 0.31337 0.38463
 C2452 C 0.28548 0.31895 0.37355
 C2453 C 0.30082 0.31542 0.37293
 C2454 C 0.30656 0.30581 0.38345
 O2455 O 0.30073 0.29186 0.40543
 C2456 C 0.28811 0.29034 0.41307
 C2457 C 0.27650 0.29772 0.40707
 C2458 C 0.26245 0.29813 0.41361
 C2459 C 0.26029 0.29070 0.42694
 C2460 C 0.27207 0.28298 0.43337
 C2461 C 0.28615 0.28270 0.42622
 H2462 H 0.26447 0.31624 0.38526
 H2463 H 0.28073 0.32610 0.36557
 H2464 H 0.31819 0.30297 0.38348
 H2465 H 0.25353 0.30413 0.40875
 H2466 H 0.24946 0.29093 0.43229
 H2467 H 0.29538 0.27706 0.43101
 C2468 C 0.28617 0.80538 -0.10479
 C2469 C 0.27392 0.81318 -0.10110
 C2470 C 0.26960 0.82482 -0.10921
 C2471 C 0.27821 0.82857 -0.12169
 C2472 C 0.29092 0.82069 -0.12590
 C2473 C 0.29493 0.80891 -0.11720
 O2474 O 0.28829 0.79468 -0.09559
 C2475 C 0.27711 0.79578 -0.08591
 C2476 C 0.26799 0.80691 -0.08882
 C2477 C 0.25555 0.80996 -0.08018
 C2478 C 0.25240 0.80119 -0.06799
 C2479 C 0.26164 0.78963 -0.06465
 C2480 C 0.27420 0.78693 -0.07381
 H2481 H 0.25989 0.83079 -0.10609
 H2482 H 0.27473 0.83754 -0.12809
 H2483 H 0.30452 0.80264 -0.11994
 H2484 H 0.24855 0.81881 -0.08270
 H2485 H 0.24289 0.80356 -0.06101
 H2486 H 0.28141 0.77813 -0.07168
 C2487 C 0.80228 0.30489 -0.08371
 C2488 C 0.79074 0.31314 -0.07897
 C2489 C 0.78660 0.32527 -0.08632
 C2490 C 0.79464 0.32906 -0.09915
 C2491 C 0.80659 0.32072 -0.10445
 C2492 C 0.81045 0.30845 -0.09648
 O2493 O 0.80426 0.29370 -0.07514
 C2494 C 0.79370 0.29493 -0.06481
 C2495 C 0.78514 0.30665 -0.06669
 C2496 C 0.77329 0.30989 -0.05735
 C2497 C 0.77013 0.30069 -0.04556
 C2498 C 0.77882 0.28852 -0.04321
 C2499 C 0.79080 0.28564 -0.05308
 H2500 H 0.77743 0.33156 -0.08239
 H2501 H 0.79130 0.33840 -0.10500
 H2502 H 0.81948 0.30182 -0.10008
 H2503 H 0.76661 0.31910 -0.05918
 H2504 H 0.76070 0.30293 -0.03844
 H2505 H 0.79769 0.27650 -0.05164
 C2506 C 0.79649 0.78628 0.40583
 C2507 C 0.79796 0.77202 0.40444
 C2508 C 0.80343 0.76574 0.39160
 C2509 C 0.80753 0.77451 0.37968
 C2510 C 0.80602 0.78928 0.38073
 C2511 C 0.80040 0.79520 0.39407
 O2512 O 0.79102 0.79010 0.41897
 C2513 C 0.78896 0.77799 0.42600
 C2514 C 0.79300 0.76661 0.41758
 C2515 C 0.79150 0.75291 0.42267
 C2516 C 0.78555 0.75085 0.43700
 C2517 C 0.78135 0.76241 0.44602
 C2518 C 0.78315 0.77619 0.44034
 H2519 H 0.80445 0.75449 0.39076
 H2520 H 0.81163 0.76972 0.36957
 H2521 H 0.79917 0.80640 0.39532
 H2522 H 0.79461 0.74411 0.41577
 H2523 H 0.78395 0.74021 0.44091
 H2524 H 0.78018 0.78527 0.44688
 C2525 C 0.72010 0.29605 0.60111
 C2526 C 0.73242 0.30358 0.59653
 C2527 C 0.73720 0.31568 0.60380
 C2528 C 0.72892 0.32015 0.61624
 C2529 C 0.71612 0.31252 0.62111
 C2530 C 0.71178 0.30025 0.61336
 O2531 O 0.71698 0.28520 0.59245
 C2532 C 0.72754 0.28587 0.58214
 C2533 C 0.73733 0.29688 0.58408
 C2534 C 0.74892 0.29971 0.57413
 C2535 C 0.75025 0.29097 0.56158
 C2536 C 0.74002 0.27975 0.55924
 C2537 C 0.72870 0.27708 0.56987
 H2538 H 0.74686 0.32154 0.59996
 H2539 H 0.73250 0.32953 0.62200
 H2540 H 0.70199 0.29423 0.61645
 H2541 H 0.75643 0.30849 0.57578
 H2542 H 0.75889 0.29325 0.55345
 H2543 H 0.72076 0.26857 0.56847
 C2544 C 0.70444 0.80561 1.09197
 C2545 C 0.71947 0.80852 1.09183
 C2546 C 0.72624 0.81727 1.10221
 C2547 C 0.71713 0.82337 1.11311
 C2548 C 0.70155 0.82064 1.11346
 C2549 C 0.69518 0.81147 1.10280
 O2550 O 0.70015 0.79745 1.08078
 C2551 C 0.71275 0.79516 1.07342
 C2552 C 0.72490 0.80169 1.07973
 C2553 C 0.73912 0.80099 1.07362
 C2554 C 0.74089 0.79330 1.06042
 C2555 C 0.72852 0.78654 1.05358
 C2556 C 0.71425 0.78744 1.06030
 H2557 H 0.73809 0.81946 1.10182
 H2558 H 0.72224 0.83025 1.12123
 H2559 H 0.68333 0.80932 1.10258
 H2560 H 0.74851 0.80624 1.07878
 H2561 H 0.75192 0.79254 1.05558
 H2562 H 0.70455 0.78259 1.05529
 C2563 C 0.22074 0.30151 1.10471
 C2564 C 0.23483 0.30711 1.10316
 C2565 C 0.24020 0.31776 1.11233
 C2566 C 0.23068 0.32271 1.12361
 C2567 C 0.21617 0.31692 1.12551
 C2568 C 0.21119 0.30620 1.11581
 O2569 O 0.21763 0.29162 1.09482
 C2570 C 0.23004 0.29090 1.08685
 C2571 C 0.24095 0.30012 1.09147
 C2572 C 0.25482 0.30105 1.08457
 C2573 C 0.25748 0.29219 1.07237
 C2574 C 0.24630 0.28270 1.06729
 C2575 C 0.23241 0.28208 1.07476
 H2576 H 0.25130 0.32207 1.11088
 H2577 H 0.23472 0.33088 1.13096
 H2578 H 0.20014 0.30166 1.11672
 H2579 H 0.26327 0.30833 1.08842
 H2580 H 0.26825 0.29270 1.06692
 H2581 H 0.22353 0.27517 1.07108
 C2582 C 0.19788 0.80500 0.59350
 C2583 C 0.21229 0.80999 0.59278
 C2584 C 0.21754 0.82085 0.60165
 C2585 C 0.20745 0.82701 0.61152
 C2586 C 0.19244 0.82227 0.61237
 C2587 C 0.18765 0.81088 0.60345
 O2588 O 0.19504 0.79515 0.58341
 C2589 C 0.20793 0.79398 0.57618
 C2590 C 0.21881 0.80283 0.58154
 C2591 C 0.23289 0.80394 0.57520
 C2592 C 0.23593 0.79559 0.56276
 C2593 C 0.22497 0.78627 0.55693
 C2594 C 0.21074 0.78546 0.56385
 H2595 H 0.22890 0.82466 0.60076
 H2596 H 0.21131 0.83562 0.61838
 H2597 H 0.17620 0.80722 0.60370
 H2598 H 0.24115 0.81121 0.57947
 H2599 H 0.24672 0.79671 0.55744
 H2600 H 0.20210 0.77854 0.55969
 C2601 C 0.28144 0.69544 0.59235
 C2602 C 0.26882 0.68791 0.58881
 C2603 C 0.26397 0.67642 0.59708
 C2604 C 0.27249 0.67253 0.60948
 C2605 C 0.28566 0.68008 0.61336
 C2606 C 0.29009 0.69176 0.60458
 O2607 O 0.28418 0.70595 0.58303
 C2608 C 0.27306 0.70502 0.57338
 C2609 C 0.26334 0.69416 0.57640
 C2610 C 0.25098 0.69124 0.56759
 C2611 C 0.24859 0.69984 0.55514
 C2612 C 0.25847 0.71114 0.55177
 C2613 C 0.27086 0.71372 0.56113
 H2614 H 0.25400 0.67063 0.59409
 H2615 H 0.26874 0.66363 0.61596
 H2616 H 0.30003 0.69779 0.60702
 H2617 H 0.24352 0.68259 0.57014
 H2618 H 0.23918 0.69756 0.54801
 H2619 H 0.27853 0.72233 0.55904
 C2620 C 0.30586 0.17679 1.09299
 C2621 C 0.31632 0.17859 1.08188
 C2622 C 0.33066 0.17338 1.08280
 C2623 C 0.33458 0.16641 1.09591
 C2624 C 0.32423 0.16486 1.10782
 C2625 C 0.30951 0.16978 1.10614
 O2626 O 0.29315 0.18327 1.09018
 C2627 C 0.29570 0.18934 1.07707
 C2628 C 0.30975 0.18684 1.07159
 C2629 C 0.31522 0.19295 1.05858
 C2630 C 0.30576 0.20196 1.05084
 C2631 C 0.29116 0.20458 1.05613
 C2632 C 0.28600 0.19810 1.06939
 H2633 H 0.33870 0.17503 1.07393
 H2634 H 0.34585 0.16263 1.09698
 H2635 H 0.30148 0.16905 1.11515
 H2636 H 0.32642 0.19101 1.05466
 H2637 H 0.30975 0.20682 1.04065
 H2638 H 0.27495 0.20009 1.07372
 C2639 C 0.78156 0.71237 1.10158
 C2640 C 0.76638 0.71326 1.10337
 C2641 C 0.75920 0.71022 1.11673
 C2642 C 0.76799 0.70581 1.12869
 C2643 C 0.78366 0.70439 1.12708
 C2644 C 0.79054 0.70801 1.11335
 O2645 O 0.78607 0.71535 1.08782
 C2646 C 0.77345 0.71812 1.08078
 C2647 C 0.76108 0.71692 1.08980
 C2648 C 0.74667 0.71879 1.08460
 C2649 C 0.74493 0.72206 1.06948
 C2650 C 0.75751 0.72347 1.05994
 C2651 C 0.77199 0.72152 1.06573
 H2652 H 0.74723 0.71101 1.11785
 H2653 H 0.76250 0.70331 1.13912
 H2654 H 0.80241 0.70690 1.11164
 H2655 H 0.73711 0.71767 1.09190
 H2656 H 0.73381 0.72366 1.06521
 H2657 H 0.78176 0.72240 1.05867
 C2658 C 0.79925 0.18546 0.58511
 C2659 C 0.78600 0.17817 0.58434
 C2660 C 0.78268 0.16682 0.59349
 C2661 C 0.79345 0.16284 0.60389
 C2662 C 0.80722 0.17024 0.60500
 C2663 C 0.81011 0.18172 0.59539
 O2664 O 0.80018 0.19595 0.57544
 C2665 C 0.78721 0.19527 0.56844
 C2666 C 0.77811 0.18460 0.57348
 C2667 C 0.76396 0.18209 0.56779
 C2668 C 0.75899 0.19094 0.55640
 C2669 C 0.76819 0.20201 0.55096
 C2670 C 0.78253 0.20415 0.55710
 H2671 H 0.77213 0.16128 0.59271
 H2672 H 0.79089 0.15414 0.61121
 H2673 H 0.82047 0.18757 0.59583
 H2674 H 0.75701 0.17360 0.57193
 H2675 H 0.74807 0.18906 0.55168
 H2676 H 0.78975 0.21258 0.55328
 C2677 C 0.70560 0.70131 0.40274
 C2678 C 0.72065 0.69877 0.40244
 C2679 C 0.72749 0.69139 0.39102
 C2680 C 0.71844 0.68626 0.37951
 C2681 C 0.70282 0.68852 0.37959
 C2682 C 0.69637 0.69636 0.39133
 O2683 O 0.70128 0.70812 0.41490
 C2684 C 0.71389 0.70989 0.42242
 C2685 C 0.72605 0.70435 0.41526
 C2686 C 0.74026 0.70458 0.42135
 C2687 C 0.74201 0.71068 0.43545
 C2688 C 0.72964 0.71641 0.44316
 C2689 C 0.71539 0.71612 0.43643
 H2690 H 0.73935 0.68948 0.39106
 H2691 H 0.72365 0.68046 0.37058
 H2692 H 0.68450 0.69813 0.39187
 H2693 H 0.74964 0.70009 0.41552
 H2694 H 0.75300 0.71098 0.44038
 H2695 H 0.70573 0.72025 0.44211
 C2696 C 0.70826 0.21672 -0.10195
 C2697 C 0.69802 0.22649 -0.09751
 C2698 C 0.68496 0.22892 -0.10534
 C2699 C 0.68230 0.22083 -0.11816
 C2700 C 0.69259 0.21048 -0.12282
 C2701 C 0.70587 0.20863 -0.11462
 O2702 O 0.71961 0.21553 -0.09266
 C2703 C 0.71645 0.22470 -0.08206
 C2704 C 0.70338 0.23171 -0.08447
 C2705 C 0.69766 0.24130 -0.07433
 C2706 C 0.70566 0.24359 -0.06111
 C2707 C 0.71910 0.23632 -0.05829
 C2708 C 0.72462 0.22690 -0.06911
 H2709 H 0.67697 0.23657 -0.10157
 H2710 H 0.67203 0.22243 -0.12414
 H2711 H 0.71405 0.20092 -0.11773
 H2712 H 0.68724 0.24656 -0.07635
 H2713 H 0.70110 0.25065 -0.05289
 H2714 H 0.73484 0.22121 -0.06740
 C2715 C 0.20155 0.69302 -0.10398
 C2716 C 0.21541 0.68740 -0.10187
 C2717 C 0.22092 0.67660 -0.11061
 C2718 C 0.21173 0.67130 -0.12193
 C2719 C 0.19726 0.67677 -0.12434
 C2720 C 0.19220 0.68790 -0.11521
 O2721 O 0.19841 0.70313 -0.09432
 C2722 C 0.21057 0.70388 -0.08593
 C2723 C 0.22129 0.69447 -0.09011
 C2724 C 0.23479 0.69328 -0.08274
 C2725 C 0.23739 0.70218 -0.07057
 C2726 C 0.22659 0.71211 -0.06600
 C2727 C 0.21294 0.71289 -0.07387
 H2728 H 0.23189 0.67237 -0.10874
 H2729 H 0.21599 0.66293 -0.12880
 H2730 H 0.18124 0.69232 -0.11657
 H2731 H 0.24299 0.68568 -0.08615
 H2732 H 0.24774 0.70112 -0.06454
 H2733 H 0.20446 0.72034 -0.07077
 C2734 C 0.19741 0.19702 0.40148
 C2735 C 0.18799 0.20766 0.40543
 C2736 C 0.17423 0.20959 0.39883
 C2737 C 0.16990 0.20012 0.38774
 C2738 C 0.17922 0.18882 0.38348
 C2739 C 0.19330 0.18738 0.39042
 O2740 O 0.20993 0.19706 0.40936
 C2741 C 0.20828 0.20793 0.41848
 C2742 C 0.19502 0.21472 0.41649
 C2743 C 0.19073 0.22612 0.42504
 C2744 C 0.20052 0.23074 0.43616
 C2745 C 0.21441 0.22409 0.43847
 C2746 C 0.21830 0.21247 0.42940
 H2747 H 0.16705 0.21810 0.40212
 H2748 H 0.15924 0.20174 0.38252
 H2749 H 0.20069 0.17891 0.38755
 H2750 H 0.18012 0.23114 0.42337
 H2751 H 0.19704 0.23934 0.44317
 H2752 H 0.22878 0.20713 0.43075
 C2753 C 0.29252 0.40188 0.69433
 C2754 C 0.30270 0.40696 0.70442
 C2755 C 0.31526 0.39966 0.70865
 C2756 C 0.31736 0.38643 0.70240
 C2757 C 0.30694 0.38064 0.69217
 C2758 C 0.29442 0.38863 0.68787
 O2759 O 0.28118 0.41054 0.69223
 C2760 C 0.28432 0.42124 0.70124
 C2761 C 0.29737 0.41948 0.70893
 C2762 C 0.30262 0.42900 0.71937
 C2763 C 0.29411 0.44094 0.72201
 C2764 C 0.28065 0.44331 0.71414
 C2765 C 0.27569 0.43320 0.70359
 H2766 H 0.32311 0.40395 0.71659
 H2767 H 0.32718 0.38071 0.70562
 H2768 H 0.28624 0.38449 0.68018
 H2769 H 0.31279 0.42719 0.72547
 H2770 H 0.29792 0.44818 0.73049
 H2771 H 0.26549 0.43457 0.69740
 C2772 C 0.29944 0.90428 0.20091
 C2773 C 0.28428 0.90233 0.20195
 C2774 C 0.27705 0.89054 0.19632
 C2775 C 0.28578 0.88034 0.18929
 C2776 C 0.30147 0.88203 0.18811
 C2777 C 0.30837 0.89418 0.19412
 O2778 O 0.30404 0.91645 0.20650
 C2779 C 0.29150 0.92231 0.21121
 C2780 C 0.27911 0.91406 0.20874
 C2781 C 0.26482 0.91822 0.21259
 C2782 C 0.26320 0.93148 0.21913
 C2783 C 0.27574 0.94038 0.22156
 C2784 C 0.29014 0.93557 0.21765
 H2785 H 0.26508 0.88930 0.19717
 H2786 H 0.28031 0.87111 0.18484
 H2787 H 0.32027 0.89592 0.19321
 H2788 H 0.25524 0.91153 0.21059
 H2789 H 0.25213 0.93478 0.22230
 H2790 H 0.29994 0.94210 0.21917
 C2791 C 0.79447 0.40686 0.20435
 C2792 C 0.78166 0.40908 0.19639
 C2793 C 0.77586 0.39935 0.18643
 C2794 C 0.78357 0.38677 0.18462
 C2795 C 0.79683 0.38415 0.19270
 C2796 C 0.80241 0.39445 0.20262
 O2797 O 0.79778 0.41731 0.21357
 C2798 C 0.78680 0.42630 0.21135
 C2799 C 0.77669 0.42176 0.20090
 C2800 C 0.76418 0.42937 0.19703
 C2801 C 0.76188 0.44213 0.20436
 C2802 C 0.77198 0.44699 0.21540
 C2803 C 0.78474 0.43898 0.21879
 H2804 H 0.76571 0.40133 0.18036
 H2805 H 0.77921 0.37916 0.17680
 H2806 H 0.81243 0.39275 0.20902
 H2807 H 0.75641 0.42557 0.18875
 H2808 H 0.75221 0.44821 0.20145
 H2809 H 0.79255 0.44230 0.22727
 C2810 C 0.79339 0.91482 0.70010
 C2811 C 0.78010 0.91782 0.69332
 C2812 C 0.77363 0.90910 0.68271
 C2813 C 0.78114 0.89676 0.67899
 C2814 C 0.79489 0.89337 0.68583
 C2815 C 0.80110 0.90265 0.69650
 O2816 O 0.79749 0.92438 0.71006
 C2817 C 0.78654 0.93361 0.70953
 C2818 C 0.77564 0.93009 0.69944
 C2819 C 0.76310 0.93823 0.69716
 C2820 C 0.76173 0.95049 0.70565
 C2821 C 0.77279 0.95438 0.71619
 C2822 C 0.78538 0.94575 0.71811
 H2823 H 0.76314 0.91168 0.67754
 H2824 H 0.77625 0.88993 0.67070
 H2825 H 0.81147 0.90037 0.70207
 H2826 H 0.75463 0.93520 0.68922
 H2827 H 0.75190 0.95682 0.70420
 H2828 H 0.79406 0.94842 0.72598
 C2829 C 0.70695 0.58712 0.70109
 C2830 C 0.71669 0.58228 0.69047
 C2831 C 0.71902 0.58909 0.67695
 C2832 C 0.71096 0.60137 0.67427
 C2833 C 0.70077 0.60660 0.68503
 C2834 C 0.69883 0.59927 0.69867
 O2835 O 0.70632 0.57912 0.71318
 C2836 C 0.71587 0.56899 0.71012
 C2837 C 0.72253 0.57044 0.69637
 C2838 C 0.73288 0.56097 0.69093
 C2839 C 0.73653 0.54957 0.70005
 C2840 C 0.72986 0.54785 0.71434
 C2841 C 0.71934 0.55775 0.71938
 H2842 H 0.72675 0.58509 0.66875
 H2843 H 0.71274 0.60672 0.66379
 H2844 H 0.69120 0.60278 0.70719
 H2845 H 0.73792 0.56229 0.68004
 H2846 H 0.74441 0.54200 0.69590
 H2847 H 0.71414 0.55685 0.73024
 C2848 C 0.71878 0.09682 0.21217
 C2849 C 0.71381 0.09562 0.22662
 C2850 C 0.70430 0.10519 0.23318
 C2851 C 0.69953 0.11640 0.22445
 C2852 C 0.70413 0.11783 0.20933
 C2853 C 0.71411 0.10793 0.20319
 O2854 O 0.72758 0.08634 0.20811
 C2855 C 0.72807 0.07839 0.22028
 C2856 C 0.71978 0.08363 0.23186
 C2857 C 0.71815 0.07680 0.24542
 C2858 C 0.72538 0.06399 0.24718
 C2859 C 0.73428 0.05830 0.23555
 C2860 C 0.73559 0.06572 0.22186
 H2861 H 0.70060 0.10401 0.24461
 H2862 H 0.69217 0.12390 0.22957
 H2863 H 0.71779 0.10860 0.19171
 H2864 H 0.71130 0.08104 0.25425
 H2865 H 0.72368 0.05838 0.25753
 H2866 H 0.74223 0.06178 0.21271
 C2867 C 0.19523 0.58980 0.19940
 C2868 C 0.18730 0.58885 0.21251
 C2869 C 0.17520 0.59728 0.21571
 C2870 C 0.17104 0.60708 0.20493
 C2871 C 0.17899 0.60834 0.19127
 C2872 C 0.19139 0.59963 0.18854
 O2873 O 0.20601 0.58040 0.19841
 C2874 C 0.20482 0.57341 0.21118
 C2875 C 0.19357 0.57822 0.22020
 C2876 C 0.19010 0.57226 0.23392
 C2877 C 0.19849 0.56074 0.23850
 C2878 C 0.21002 0.55536 0.22934
 C2879 C 0.21332 0.56194 0.21552
 H2880 H 0.16910 0.59627 0.22609
 H2881 H 0.16168 0.61377 0.20734
 H2882 H 0.19758 0.60025 0.17818
 H2883 H 0.18118 0.57626 0.24080
 H2884 H 0.19596 0.55600 0.24919
 H2885 H 0.22190 0.55799 0.20818
 C2886 C 0.20854 0.10410 0.71097
 C2887 C 0.20177 0.10250 0.72463
 C2888 C 0.19125 0.11182 0.73002
 C2889 C 0.18748 0.12320 0.72091
 C2890 C 0.19418 0.12505 0.70664
 C2891 C 0.20499 0.11533 0.70174
 O2892 O 0.21796 0.09391 0.70776
 C2893 C 0.21709 0.08567 0.71965
 C2894 C 0.20733 0.09045 0.73030
 C2895 C 0.20439 0.08319 0.74345
 C2896 C 0.21176 0.07046 0.74566
 C2897 C 0.22184 0.06526 0.73480
 C2898 C 0.22459 0.07309 0.72165
 H2899 H 0.18600 0.11031 0.74079
 H2900 H 0.17919 0.13039 0.72498
 H2901 H 0.21040 0.11628 0.69100
 H2902 H 0.19661 0.08712 0.75164
 H2903 H 0.20962 0.06466 0.75583
 H2904 H 0.23200 0.06931 0.71304
 C2905 C 0.29254 0.59580 0.30365
 C2906 C 0.28441 0.58993 0.31511
 C2907 C 0.28306 0.59621 0.32900
 C2908 C 0.29036 0.60909 0.33116
 C2909 C 0.29880 0.61546 0.31950
 C2910 C 0.29989 0.60860 0.30555
 O2911 O 0.29231 0.58817 0.29130
 C2912 C 0.28385 0.57724 0.29505
 C2913 C 0.27872 0.57782 0.30949
 C2914 C 0.26956 0.56753 0.31569
 C2915 C 0.26550 0.55618 0.30660
 C2916 C 0.27061 0.55533 0.29163
 C2917 C 0.27999 0.56604 0.28583
 H2918 H 0.27661 0.59136 0.33785
 H2919 H 0.28945 0.61400 0.34198
 H2920 H 0.30609 0.61311 0.29634
 H2921 H 0.26569 0.56820 0.32710
 H2922 H 0.25850 0.54798 0.31128
 H2923 H 0.28396 0.56578 0.27443
 C2924 C 0.31789 0.08174 0.80959
 C2925 C 0.31335 0.07196 0.81996
 C2926 C 0.31633 0.07325 0.83506
 C2927 C 0.32396 0.08531 0.83974
 C2928 C 0.32839 0.09582 0.82937
 C2929 C 0.32561 0.09382 0.81400
 O2930 O 0.31336 0.07872 0.79587
 C2931 C 0.30576 0.06682 0.79769
 C2932 C 0.30538 0.06230 0.81224
 C2933 C 0.29745 0.05048 0.81682
 C2934 C 0.28963 0.04294 0.80592
 C2935 C 0.28994 0.04728 0.79080
 C2936 C 0.29819 0.05938 0.78662
 H2937 H 0.31260 0.06542 0.84300
 H2938 H 0.32612 0.08658 0.85153
 H2939 H 0.32860 0.10173 0.80585
 H2940 H 0.29719 0.04724 0.82837
 H2941 H 0.28348 0.03362 0.80921
 H2942 H 0.29847 0.06299 0.77518
 C2943 C 0.80116 0.59056 0.79624
 C2944 C 0.80905 0.58798 0.78340
 C2945 C 0.82027 0.59686 0.77820
 C2946 C 0.82349 0.60891 0.78657
 C2947 C 0.81553 0.61188 0.79992
 C2948 C 0.80416 0.60247 0.80474
 O2949 O 0.79104 0.58072 0.79929
 C2950 C 0.79260 0.57172 0.78813
 C2951 C 0.80348 0.57569 0.77811
 C2952 C 0.80709 0.56775 0.76567
 C2953 C 0.79923 0.55515 0.76351
 C2954 C 0.78800 0.55073 0.77372
 C2955 C 0.78459 0.55925 0.78617
 H2956 H 0.82638 0.59456 0.76808
 H2957 H 0.83228 0.61580 0.78263
 H2958 H 0.79778 0.60430 0.81478
 H2959 H 0.81568 0.57111 0.75791
 H2960 H 0.80182 0.54888 0.75380
 H2961 H 0.77618 0.55614 0.79423
 C2962 C 0.81638 0.08307 0.29904
 C2963 C 0.82717 0.07986 0.28872
 C2964 C 0.83955 0.08838 0.28617
 C2965 C 0.84080 0.10075 0.29454
 C2966 C 0.82975 0.10438 0.30523
 C2967 C 0.81740 0.09527 0.30750
 O2968 O 0.80538 0.07370 0.29961
 C2969 C 0.80931 0.06439 0.28940
 C2970 C 0.82254 0.06766 0.28238
 C2971 C 0.82851 0.05946 0.27106
 C2972 C 0.82047 0.04743 0.26678
 C2973 C 0.80679 0.04386 0.27387
 C2974 C 0.80120 0.05249 0.28538
 H2975 H 0.84789 0.08566 0.27796
 H2976 H 0.85031 0.10751 0.29247
 H2977 H 0.80877 0.09756 0.31555
 H2978 H 0.83890 0.06229 0.26564
 H2979 H 0.82491 0.04089 0.25801
 H2980 H 0.79065 0.05022 0.29079
 C2981 C 0.71823 0.40603 0.30481
 C2982 C 0.73190 0.40764 0.31151
 C2983 C 0.73687 0.39875 0.32265
 C2984 C 0.72724 0.38794 0.32729
 C2985 C 0.71293 0.38623 0.32082
 C2986 C 0.70852 0.39526 0.30917
 O2987 O 0.71531 0.41609 0.29507
 C2988 C 0.72736 0.42424 0.29570
 C2989 C 0.73785 0.41954 0.30557
 C2990 C 0.75093 0.42689 0.30857
 C2991 C 0.75329 0.43966 0.30113
 C2992 C 0.74262 0.44481 0.29088
 C2993 C 0.72953 0.43683 0.28808
 H2994 H 0.74762 0.40030 0.32785
 H2995 H 0.73085 0.38107 0.33614
 H2996 H 0.69757 0.39444 0.30422
 H2997 H 0.75890 0.42309 0.31660
 H2998 H 0.76322 0.44569 0.30367
 H2999 H 0.72117 0.44035 0.28031
 C3000 C 0.69618 0.91623 0.80034
 C3001 C 0.68581 0.92322 0.79201
 C3002 C 0.67113 0.91869 0.79075
 C3003 C 0.66695 0.90642 0.79837
 C3004 C 0.67743 0.89890 0.80703
 C3005 C 0.69229 0.90400 0.80799
 O3006 O 0.70952 0.92234 0.80013
 C3007 C 0.70752 0.93344 0.79147
 C3008 C 0.69321 0.93444 0.78620
 C3009 C 0.68866 0.94526 0.77698
 C3010 C 0.69928 0.95551 0.77307
 C3011 C 0.71414 0.95477 0.77839
 C3012 C 0.71826 0.94351 0.78773
 H3013 H 0.66315 0.92439 0.78415
 H3014 H 0.65553 0.90287 0.79744
 H3015 H 0.70066 0.89867 0.81442
 H3016 H 0.67731 0.94586 0.77302
 H3017 H 0.69583 0.96416 0.76613
 H3018 H 0.72950 0.94257 0.79192
 C3019 C 0.20284 0.40237 0.80043
 C3020 C 0.21522 0.40692 0.80806
 C3021 C 0.21982 0.40101 0.82135
 C3022 C 0.21121 0.39001 0.82718
 C3023 C 0.19817 0.38516 0.81979
 C3024 C 0.19405 0.39134 0.80605
 O3025 O 0.20033 0.40978 0.78815
 C3026 C 0.21135 0.41920 0.78813
 C3027 C 0.22072 0.41786 0.80009
 C3028 C 0.23265 0.42686 0.80268
 C3029 C 0.23507 0.43777 0.79251
 C3030 C 0.22572 0.43944 0.77989
 C3031 C 0.21365 0.42993 0.77772
 H3032 H 0.22963 0.40480 0.82710
 H3033 H 0.21483 0.38530 0.83749
 H3034 H 0.18414 0.38797 0.80017
 H3035 H 0.23970 0.42570 0.81235
 H3036 H 0.24405 0.44512 0.79473
 H3037 H 0.20627 0.43085 0.76828
 C3038 C 0.19874 0.91151 0.28943
 C3039 C 0.18696 0.91986 0.28559
 C3040 C 0.17219 0.91557 0.28727
 C3041 C 0.16948 0.90218 0.29323
 C3042 C 0.18146 0.89352 0.29759
 C3043 C 0.19630 0.89829 0.29562
 O3044 O 0.21190 0.91747 0.28679
 C3045 C 0.20835 0.92989 0.28128
 C3046 C 0.19325 0.93192 0.28040
 C3047 C 0.18715 0.94437 0.27537
 C3048 C 0.19702 0.95515 0.27107
 C3049 C 0.21272 0.95326 0.27159
 C3050 C 0.21836 0.94032 0.27676
 H3051 H 0.16310 0.92229 0.28412
 H3052 H 0.15807 0.89870 0.29476
 H3053 H 0.20567 0.89188 0.29873
 H3054 H 0.17522 0.94581 0.27499
 H3055 H 0.19236 0.96502 0.26759
 H3056 H 0.23018 0.93829 0.27717
 C3057 C 0.40487 0.28885 0.70633
 C3058 C 0.40741 0.29498 0.71995
 C3059 C 0.39760 0.30436 0.72643
 C3060 C 0.38466 0.30764 0.71850
 C3061 C 0.38181 0.30162 0.70430
 C3062 C 0.39210 0.29201 0.69821
 O3063 O 0.41566 0.28027 0.70214
 C3064 C 0.42523 0.28104 0.71336
 C3065 C 0.42072 0.28994 0.72451
 C3066 C 0.42917 0.29252 0.73717
 C3067 C 0.44282 0.28561 0.73842
 C3068 C 0.44772 0.27630 0.72713
 C3069 C 0.43872 0.27397 0.71443
 H3070 H 0.39987 0.30907 0.73716
 H3071 H 0.37708 0.31511 0.72336
 H3072 H 0.39031 0.28715 0.68747
 H3073 H 0.42539 0.29960 0.74578
 H3074 H 0.44949 0.28737 0.74828
 H3075 H 0.44221 0.26701 0.70558
 C3076 C 0.41647 0.80828 0.18997
 C3077 C 0.42494 0.80222 0.17897
 C3078 C 0.42193 0.80372 0.16392
 C3079 C 0.40950 0.81160 0.15998
 C3080 C 0.40020 0.81771 0.17101
 C3081 C 0.40394 0.81620 0.18628
 O3082 O 0.42134 0.80539 0.20361
 C3083 C 0.43308 0.79730 0.20109
 C3084 C 0.43566 0.79503 0.18618
 C3085 C 0.44709 0.78665 0.18093
 C3086 C 0.45635 0.78038 0.19147
 C3087 C 0.45410 0.78259 0.20695
 C3088 C 0.44229 0.79125 0.21182
 H3089 H 0.42886 0.79891 0.15550
 H3090 H 0.40717 0.81282 0.14824
 H3091 H 0.39711 0.82066 0.19500
 H3092 H 0.44883 0.78500 0.16912
 H3093 H 0.46546 0.77398 0.18755
 H3094 H 0.44027 0.79308 0.22356
 C3095 C 0.91479 0.31268 0.20054
 C3096 C 0.92319 0.30717 0.18916
 C3097 C 0.91906 0.30798 0.17429
 C3098 C 0.90556 0.31451 0.17100
 C3099 C 0.89641 0.31995 0.18253
 C3100 C 0.90130 0.31927 0.19751
 O3101 O 0.92041 0.31017 0.21394
 C3102 C 0.93257 0.30285 0.21093
 C3103 C 0.93472 0.30071 0.19591
 C3104 C 0.94618 0.29259 0.19024
 C3105 C 0.95581 0.28635 0.20048
 C3106 C 0.95389 0.28841 0.21600
 C3107 C 0.94222 0.29692 0.22132
 H3108 H 0.92584 0.30347 0.16556
 H3109 H 0.90216 0.31508 0.15947
 H3110 H 0.89449 0.32308 0.20660
 H3111 H 0.94749 0.29091 0.17838
 H3112 H 0.96473 0.27983 0.19636
 H3113 H 0.94043 0.29846 0.23315
 C3114 C 0.90403 0.80587 0.70675
 C3115 C 0.90489 0.81143 0.72085
 C3116 C 0.89475 0.82106 0.72630
 C3117 C 0.88327 0.82523 0.71679
 C3118 C 0.88210 0.81979 0.70210
 C3119 C 0.89260 0.80983 0.69708
 O3120 O 0.91507 0.79713 0.70371
 C3121 C 0.92303 0.79720 0.71618
 C3122 C 0.91725 0.80579 0.72699
 C3123 C 0.92393 0.80773 0.74078
 C3124 C 0.93720 0.80059 0.74354
 C3125 C 0.94356 0.79172 0.73257
 C3126 C 0.93623 0.78992 0.71872
 H3127 H 0.89569 0.82529 0.73744
 H3128 H 0.87529 0.83268 0.72099
 H3129 H 0.89213 0.80556 0.68592
 H3130 H 0.91914 0.81456 0.74910
 H3131 H 0.94251 0.80193 0.75426
 H3132 H 0.94086 0.78335 0.71007
 C3133 C 0.60085 0.30481 0.30185
 C3134 C 0.59656 0.29437 0.31158
 C3135 C 0.60184 0.29344 0.32603
 C3136 C 0.61178 0.30384 0.33081
 C3137 C 0.61617 0.31500 0.32121
 C3138 C 0.61087 0.31531 0.30637
 O3139 O 0.59373 0.30410 0.28890
 C3140 C 0.58472 0.29306 0.29061
 C3141 C 0.58607 0.28680 0.30431
 C3142 C 0.57698 0.27583 0.30902
 C3143 C 0.56587 0.27116 0.29929
 C3144 C 0.56413 0.27728 0.28493
 C3145 C 0.57396 0.28832 0.28053
 H3146 H 0.59822 0.28515 0.33347
 H3147 H 0.61593 0.30321 0.34208
 H3148 H 0.61388 0.32377 0.29886
 H3149 H 0.57802 0.27137 0.32006
 H3150 H 0.55827 0.26316 0.30334
 H3151 H 0.57309 0.29335 0.26978
 C3152 C 0.58754 0.79463 0.80167
 C3153 C 0.58472 0.80011 0.78780
 C3154 C 0.59250 0.81148 0.78195
 C3155 C 0.60359 0.81759 0.79081
 C3156 C 0.60671 0.81230 0.80525
 C3157 C 0.59866 0.80050 0.81067
 O3158 O 0.57848 0.78401 0.80519
 C3159 C 0.56979 0.78282 0.79328
 C3160 C 0.57320 0.79243 0.78235
 C3161 C 0.56536 0.79336 0.76910
 C3162 C 0.55347 0.78399 0.76698
 C3163 C 0.54963 0.77388 0.77801
 C3164 C 0.55796 0.77334 0.79140
 H3165 H 0.59003 0.81560 0.77101
 H3166 H 0.60974 0.82645 0.78634
 H3167 H 0.60067 0.79629 0.82168
 H3168 H 0.56818 0.80115 0.76075
 H3169 H 0.54705 0.78485 0.75684
 H3170 H 0.55535 0.76579 0.80005
 C3171 C 0.10289 0.28809 0.80427
 C3172 C 0.10161 0.27487 0.81025
 C3173 C 0.11148 0.26971 0.82072
 C3174 C 0.12299 0.27865 0.82547
 C3175 C 0.12438 0.29251 0.81982
 C3176 C 0.11431 0.29717 0.80881
 O3177 O 0.09197 0.29110 0.79490
 C3178 C 0.08359 0.27954 0.79506
 C3179 C 0.08900 0.26932 0.80430
 C3180 C 0.08159 0.25669 0.80676
 C3181 C 0.06801 0.25448 0.79941
 C3182 C 0.06215 0.26480 0.78968
 C3183 C 0.07021 0.27750 0.78747
 H3184 H 0.11022 0.25927 0.82528
 H3185 H 0.13069 0.27477 0.83371
 H3186 H 0.11490 0.30772 0.80441
 H3187 H 0.08594 0.24892 0.81432
 H3188 H 0.06193 0.24486 0.80162
 H3189 H 0.06620 0.28561 0.78012
 C3190 C 0.09003 0.79891 0.29185
 C3191 C 0.08622 0.78691 0.29947
 C3192 C 0.09434 0.78197 0.31148
 C3193 C 0.10693 0.78973 0.31585
 C3194 C 0.11116 0.80223 0.30826
 C3195 C 0.10251 0.80679 0.29600
 O3196 O 0.08066 0.80188 0.28090
 C3197 C 0.07070 0.79152 0.28164
 C3198 C 0.07362 0.78210 0.29283
 C3199 C 0.06449 0.77061 0.29585
 C3200 C 0.05177 0.76880 0.28704
 C3201 C 0.04838 0.77841 0.27547
 C3202 C 0.05812 0.78987 0.27265
 H3203 H 0.09106 0.77251 0.31733
 H3204 H 0.11323 0.78596 0.32525
 H3205 H 0.10526 0.81623 0.28988
 H3206 H 0.06703 0.76335 0.30473
 H3207 H 0.04455 0.75987 0.28920
 H3208 H 0.05578 0.79743 0.26400
 C3209 C 0.58768 0.68716 0.71796
 C3210 C 0.58454 0.67842 0.72977
 C3211 C 0.59351 0.66720 0.73352
 C3212 C 0.60622 0.66487 0.72474
 C3213 C 0.60977 0.67373 0.71244
 C3214 C 0.60025 0.68505 0.70908
 O3215 O 0.57773 0.69723 0.71630
 C3216 C 0.56812 0.69479 0.72730
 C3217 C 0.57177 0.68341 0.73589
 C3218 C 0.56323 0.67904 0.74802
 C3219 C 0.55039 0.68671 0.75144
 C3220 C 0.54634 0.69850 0.74274
 C3221 C 0.55542 0.70254 0.73048
 H3222 H 0.59083 0.66047 0.74288
 H3223 H 0.61326 0.65620 0.72767
 H3224 H 0.60245 0.69203 0.69983
 H3225 H 0.56631 0.67002 0.75460
 H3226 H 0.54351 0.68336 0.76074
 H3227 H 0.55279 0.71157 0.72372
 C3228 C 0.59265 0.19835 0.20039
 C3229 C 0.58417 0.18779 0.20665
 C3230 C 0.58888 0.17397 0.20732
 C3231 C 0.60296 0.17094 0.20137
 C3232 C 0.61178 0.18161 0.19467
 C3233 C 0.60649 0.19549 0.19401
 O3234 O 0.58655 0.21090 0.20182
 C3235 C 0.57393 0.20817 0.20907
 C3236 C 0.57189 0.19418 0.21216
 C3237 C 0.55956 0.18902 0.21985
 C3238 C 0.54895 0.19869 0.22472
 C3239 C 0.55097 0.21330 0.22216
 C3240 C 0.56364 0.21802 0.21402
 H3241 H 0.58212 0.16589 0.21253
 H3242 H 0.60702 0.16032 0.20198
 H3243 H 0.61321 0.20384 0.18922
 H3244 H 0.55816 0.17794 0.22205
 H3245 H 0.53918 0.19474 0.23049
 H3246 H 0.56573 0.22904 0.21201
 C3247 C 0.08959 0.70477 0.19384
 C3248 C 0.08735 0.69832 0.20739
 C3249 C 0.09538 0.68679 0.21200
 C3250 C 0.10602 0.68148 0.20215
 C3251 C 0.10840 0.68764 0.18790
 C3252 C 0.10024 0.69967 0.18381
 O3253 O 0.08027 0.71527 0.19152
 C3254 C 0.07196 0.71535 0.20384
 C3255 C 0.07588 0.70517 0.21385
 C3256 C 0.06823 0.70281 0.22711
 C3257 C 0.05596 0.71129 0.23020
 C3258 C 0.05163 0.72204 0.22018
 C3259 C 0.05991 0.72410 0.20680
 H3260 H 0.09338 0.68191 0.22272
 H3261 H 0.11233 0.67248 0.20566
 H3262 H 0.10168 0.70450 0.17298
 H3263 H 0.07137 0.69450 0.23464
 H3264 H 0.04962 0.70913 0.24022
 H3265 H 0.05702 0.73214 0.19886
 C3266 C 0.09451 0.20964 0.69573
 C3267 C 0.08902 0.21889 0.68543
 C3268 C 0.09598 0.22144 0.67182
 C3269 C 0.10922 0.21425 0.66875
 C3270 C 0.11531 0.20479 0.67929
 C3271 C 0.10769 0.20245 0.69296
 O3272 O 0.08627 0.20877 0.70802
 C3273 C 0.07536 0.21773 0.70546
 C3274 C 0.07656 0.22425 0.69182
 C3275 C 0.06660 0.23437 0.68710
 C3276 C 0.05498 0.23796 0.69685
 C3277 C 0.05347 0.23133 0.71095
 C3278 C 0.06376 0.22097 0.71522
 H3279 H 0.09141 0.22871 0.66384
 H3280 H 0.11464 0.21612 0.65815
 H3281 H 0.11195 0.19546 0.70137
 H3282 H 0.06783 0.23945 0.67637
 H3283 H 0.04711 0.24582 0.69341
 H3284 H 0.06294 0.21583 0.72596
 C3285 C 0.40884 0.70087 0.28673
 C3286 C 0.41030 0.69486 0.27290
 C3287 C 0.40008 0.68516 0.26736
 C3288 C 0.38784 0.68157 0.27645
 C3289 C 0.38604 0.68769 0.29077
 C3290 C 0.39682 0.69746 0.29592
 O3291 O 0.41969 0.70989 0.28991
 C3292 C 0.42819 0.70960 0.27781
 C3293 C 0.42296 0.70057 0.26705
 C3294 C 0.43017 0.69874 0.25346
 C3295 C 0.44328 0.70652 0.25087
 C3296 C 0.44891 0.71591 0.26183
 C3297 C 0.44117 0.71741 0.27550
 H3298 H 0.40144 0.68057 0.25642
 H3299 H 0.37975 0.67414 0.27220
 H3300 H 0.39599 0.70232 0.30676
 H3301 H 0.42582 0.69163 0.24512
 H3302 H 0.44893 0.70539 0.24027
 H3303 H 0.44521 0.72434 0.28416
 C3304 C 0.41173 0.19940 0.80508
 C3305 C 0.41696 0.20996 0.81411
 C3306 C 0.41066 0.21303 0.82785
 C3307 C 0.39848 0.20487 0.83254
 C3308 C 0.39283 0.19379 0.82353
 C3309 C 0.39961 0.19107 0.80954
 O3310 O 0.41946 0.19820 0.79249
 C3311 C 0.42980 0.20819 0.79367
 C3312 C 0.42874 0.21565 0.80672
 C3313 C 0.43857 0.22639 0.81044
 C3314 C 0.44999 0.22962 0.80028
 C3315 C 0.45134 0.22222 0.78660
 C3316 C 0.44102 0.21130 0.78332
 H3317 H 0.41504 0.22137 0.83478
 H3318 H 0.39370 0.20710 0.84334
 H3319 H 0.39563 0.18277 0.80235
 H3320 H 0.43758 0.23200 0.82087
 H3321 H 0.45793 0.23773 0.80325
 H3322 H 0.44162 0.20546 0.77301
 C3323 C 0.90779 0.70735 0.80450
 C3324 C 0.91403 0.71518 0.81575
 C3325 C 0.90814 0.71555 0.83008
 C3326 C 0.89524 0.70757 0.83293
 C3327 C 0.88845 0.69943 0.82151
 C3328 C 0.89496 0.69931 0.80708
 O3329 O 0.91511 0.70855 0.79166
 C3330 C 0.92620 0.71734 0.79490
 C3331 C 0.92601 0.72170 0.80950
 C3332 C 0.93651 0.73097 0.81529
 C3333 C 0.94767 0.73598 0.80563
 C3334 C 0.94815 0.73169 0.79048
 C3335 C 0.93723 0.72217 0.78509
 H3336 H 0.91328 0.72178 0.83876
 H3337 H 0.89066 0.70774 0.84408
 H3338 H 0.89011 0.69333 0.79806
 H3339 H 0.93614 0.73421 0.82684
 H3340 H 0.95606 0.74304 0.81003
 H3341 H 0.93721 0.71876 0.77359
 C3342 C 0.90524 0.21016 0.30650
 C3343 C 0.90137 0.22406 0.30595
 C3344 C 0.88765 0.22884 0.31097
 C3345 C 0.87753 0.21887 0.31670
 C3346 C 0.88124 0.20446 0.31707
 C3347 C 0.89532 0.20010 0.31191
 O3348 O 0.91881 0.20773 0.30132
 C3349 C 0.92360 0.22035 0.29732
 C3350 C 0.91337 0.23072 0.29983
 C3351 C 0.91609 0.24465 0.29606
 C3352 C 0.92989 0.24798 0.28943
 C3353 C 0.94066 0.23743 0.28683
 C3354 C 0.93739 0.22343 0.29099
 H3355 H 0.88484 0.23983 0.31050
 H3356 H 0.86673 0.22231 0.32057
 H3357 H 0.89854 0.18921 0.31224
 H3358 H 0.90781 0.25262 0.29794
 H3359 H 0.93204 0.25870 0.28610
 H3360 H 0.94534 0.21511 0.28943
 C3361 C 0.30124 0.29408 0.58454
 C3362 C 0.30977 0.28249 0.58177
 C3363 C 0.32143 0.27849 0.59085
 C3364 C 0.32452 0.28680 0.60332
 C3365 C 0.31604 0.29894 0.60653
 C3366 C 0.30411 0.30255 0.59698
 O3367 O 0.29079 0.29603 0.57429
 C3368 C 0.29283 0.28543 0.56489
 C3369 C 0.30432 0.27687 0.56902
 C3370 C 0.30863 0.26529 0.56077
 C3371 C 0.30083 0.26241 0.54762
 C3372 C 0.28897 0.27108 0.54295
 C3373 C 0.28483 0.28271 0.55184
 H3374 H 0.32794 0.26929 0.58842
 H3375 H 0.33350 0.28356 0.61048
 H3376 H 0.29743 0.31173 0.59901
 H3377 H 0.31772 0.25872 0.56430
 H3378 H 0.30399 0.25337 0.54110
 H3379 H 0.27590 0.28956 0.54852
 C3380 C 0.29793 0.80152 0.07736
 C3381 C 0.30807 0.79197 0.07219
 C3382 C 0.32219 0.79059 0.07814
 C3383 C 0.32616 0.79951 0.08985
 C3384 C 0.31609 0.80967 0.09542
 C3385 C 0.30164 0.81056 0.08914
 O3386 O 0.28515 0.80111 0.06987
 C3387 C 0.28738 0.79109 0.05979
 C3388 C 0.30124 0.78522 0.06081
 C3389 C 0.30615 0.77477 0.05129
 C3390 C 0.29636 0.77011 0.04022
 C3391 C 0.28186 0.77580 0.03887
 C3392 C 0.27736 0.78654 0.04883
 H3393 H 0.32992 0.78292 0.07389
 H3394 H 0.33712 0.79832 0.09460
 H3395 H 0.29369 0.81818 0.09308
 H3396 H 0.31721 0.77046 0.05225
 H3397 H 0.30025 0.76221 0.03252
 H3398 H 0.26642 0.79115 0.04815
 C3399 C 0.79433 0.28571 0.10211
 C3400 C 0.78149 0.27888 0.10649
 C3401 C 0.77592 0.27960 0.12096
 C3402 C 0.78389 0.28774 0.13129
 C3403 C 0.79721 0.29485 0.12703
 C3404 C 0.80252 0.29369 0.11222
 O3405 O 0.79736 0.28422 0.08773
 C3406 C 0.78619 0.27626 0.08291
 C3407 C 0.77619 0.27265 0.09395
 C3408 C 0.76343 0.26472 0.09121
 C3409 C 0.76080 0.26045 0.07648
 C3410 C 0.77082 0.26426 0.06482
 C3411 C 0.78380 0.27216 0.06821
 H3412 H 0.76571 0.27423 0.12412
 H3413 H 0.77970 0.28848 0.14258
 H3414 H 0.81246 0.29919 0.10852
 H3415 H 0.75569 0.26204 0.10007
 H3416 H 0.75092 0.25426 0.07415
 H3417 H 0.79152 0.27549 0.05959
 C3418 C 0.79094 0.78988 0.59902
 C3419 C 0.77650 0.78605 0.60239
 C3420 C 0.77003 0.78850 0.61622
 C3421 C 0.77871 0.79537 0.62696
 C3422 C 0.79361 0.79954 0.62379
 C3423 C 0.79989 0.79653 0.60966
 O3424 O 0.79464 0.78718 0.58496
 C3425 C 0.78227 0.78153 0.57938
 C3426 C 0.77088 0.78058 0.58961
 C3427 C 0.75683 0.77534 0.58609
 C3428 C 0.75440 0.77092 0.57140
 C3429 C 0.76588 0.77192 0.56049
 C3430 C 0.78008 0.77723 0.56465
 H3431 H 0.75860 0.78550 0.61855
 H3432 H 0.77378 0.79757 0.63773
 H3433 H 0.81112 0.79983 0.60683
 H3434 H 0.74804 0.77471 0.59436
 H3435 H 0.74357 0.76662 0.56856
 H3436 H 0.78905 0.77829 0.55661
 C3437 C 0.29973 0.71354 0.40700
 C3438 C 0.31042 0.72227 0.41293
 C3439 C 0.32439 0.72414 0.40644
 C3440 C 0.32747 0.71663 0.39335
 C3441 C 0.31665 0.70743 0.38710
 C3442 C 0.30255 0.70596 0.39407
 O3443 O 0.28722 0.71315 0.41491
 C3444 C 0.29009 0.72179 0.42612
 C3445 C 0.30414 0.72763 0.42546
 C3446 C 0.30953 0.73678 0.43625
 C3447 C 0.30005 0.74001 0.44821
 C3448 C 0.28544 0.73417 0.44913
 C3449 C 0.28045 0.72493 0.43783
 H3450 H 0.33266 0.73104 0.41134
 H3451 H 0.33837 0.71783 0.38830
 H3452 H 0.29398 0.69915 0.38960
 H3453 H 0.32068 0.74115 0.43557
 H3454 H 0.30421 0.74688 0.45687
 H3455 H 0.26937 0.72037 0.43806
 C3456 C 0.29282 0.19315 0.91799
 C3457 C 0.28011 0.18533 0.92056
 C3458 C 0.27668 0.17330 0.91250
 C3459 C 0.28685 0.16911 0.90148
 C3460 C 0.30011 0.17695 0.89874
 C3461 C 0.30297 0.18927 0.90701
 O3462 O 0.29450 0.20369 0.92745
 C3463 C 0.28263 0.20249 0.93620
 C3464 C 0.27341 0.19147 0.93246
 C3465 C 0.26076 0.18793 0.94069
 C3466 C 0.25762 0.19596 0.95342
 C3467 C 0.26718 0.20718 0.95767
 C3468 C 0.27971 0.21059 0.94872
 H3469 H 0.26671 0.16721 0.91483
 H3470 H 0.28442 0.15969 0.89520
 H3471 H 0.31311 0.19533 0.90546
 H3472 H 0.25378 0.17908 0.93766
 H3473 H 0.24811 0.19311 0.96027
 H3474 H 0.28723 0.21908 0.95166
 C3475 C 0.77899 0.69059 0.90917
 C3476 C 0.76836 0.69949 0.90369
 C3477 C 0.76667 0.70212 0.88853
 C3478 C 0.77643 0.69538 0.87866
 C3479 C 0.78747 0.68625 0.88411
 C3480 C 0.78870 0.68371 0.89954
 O3481 O 0.77934 0.69019 0.92395
 C3482 C 0.76875 0.69907 0.92789
 C3483 C 0.76167 0.70502 0.91593
 C3484 C 0.75080 0.71517 0.91753
 C3485 C 0.74718 0.71947 0.93204
 C3486 C 0.75443 0.71361 0.94462
 C3487 C 0.76526 0.70310 0.94241
 H3488 H 0.75839 0.70933 0.88449
 H3489 H 0.77565 0.69749 0.86683
 H3490 H 0.79732 0.67702 0.90391
 H3491 H 0.74558 0.71990 0.90794
 H3492 H 0.73915 0.72775 0.93342
 H3493 H 0.77105 0.69842 0.95169
 C3494 C 0.78224 0.19233 0.40795
 C3495 C 0.76812 0.18664 0.40826
 C3496 C 0.76327 0.17686 0.39781
 C3497 C 0.77337 0.17288 0.38658
 C3498 C 0.78801 0.17867 0.38607
 C3499 C 0.79240 0.18852 0.39702
 O3500 O 0.78484 0.20131 0.41890
 C3501 C 0.77207 0.20134 0.42632
 C3502 C 0.76144 0.19256 0.42033
 C3503 C 0.74732 0.19094 0.42660
 C3504 C 0.74414 0.19859 0.43960
 C3505 C 0.75501 0.20766 0.44598
 C3506 C 0.76915 0.20905 0.43911
 H3507 H 0.75213 0.17245 0.39829
 H3508 H 0.76972 0.16539 0.37831
 H3509 H 0.80346 0.19308 0.39724
 H3510 H 0.73909 0.18398 0.42172
 H3511 H 0.73323 0.19749 0.44467
 H3512 H 0.77779 0.21567 0.44380
 C3513 C 0.69118 0.30989 0.42803
 C3514 C 0.67933 0.30390 0.43550
 C3515 C 0.66462 0.30719 0.43240
 C3516 C 0.66203 0.31688 0.42096
 C3517 C 0.67407 0.32299 0.41284
 C3518 C 0.68887 0.31954 0.41665
 O3519 O 0.70426 0.30520 0.43254
 C3520 C 0.70059 0.29603 0.44307
 C3521 C 0.68546 0.29481 0.44528
 C3522 C 0.67918 0.28560 0.45560
 C3523 C 0.68890 0.27742 0.46407
 C3524 C 0.70457 0.27859 0.46209
 C3525 C 0.71044 0.28803 0.45137
 H3526 H 0.65547 0.30237 0.43846
 H3527 H 0.65063 0.31946 0.41840
 H3528 H 0.69835 0.32383 0.41066
 H3529 H 0.66724 0.28480 0.45712
 H3530 H 0.68424 0.27039 0.47237
 H3531 H 0.72232 0.28908 0.44951
 C3532 C 0.70454 0.79833 0.90305
 C3533 C 0.71923 0.80252 0.90339
 C3534 C 0.72549 0.81142 0.89280
 C3535 C 0.71618 0.81640 0.88151
 C3536 C 0.70087 0.81249 0.88102
 C3537 C 0.69507 0.80312 0.89188
 O3538 O 0.70073 0.79013 0.91443
 C3539 C 0.71328 0.78918 0.92213
 C3540 C 0.72492 0.79658 0.91585
 C3541 C 0.73893 0.79744 0.92233
 C3542 C 0.74104 0.79038 0.93586
 C3543 C 0.72925 0.78259 0.94262
 C3544 C 0.71516 0.78199 0.93553
 H3545 H 0.73709 0.81458 0.89332
 H3546 H 0.72095 0.82337 0.87323
 H3547 H 0.68344 0.80002 0.89198
 H3548 H 0.74786 0.80350 0.91726
 H3549 H 0.75179 0.79126 0.94120
 H3550 H 0.70592 0.77611 0.94026
 C3551 C 0.21113 0.29899 0.92455
 C3552 C 0.22454 0.30582 0.92640
 C3553 C 0.22894 0.31718 0.91770
 C3554 C 0.21908 0.32170 0.90665
 C3555 C 0.20516 0.31481 0.90446
 C3556 C 0.20120 0.30323 0.91356
 O3557 O 0.20900 0.28858 0.93415
 C3558 C 0.22135 0.28885 0.94222
 C3559 C 0.23124 0.29918 0.93790
 C3560 C 0.24485 0.30138 0.94488
 C3561 C 0.24840 0.29259 0.95687
 C3562 C 0.23834 0.28190 0.96163
 C3563 C 0.22462 0.28003 0.95413
 H3564 H 0.23955 0.32240 0.91938
 H3565 H 0.22243 0.33046 0.89972
 H3566 H 0.19063 0.29782 0.91230
 H3567 H 0.25242 0.30962 0.94131
 H3568 H 0.25883 0.29430 0.96262
 H3569 H 0.21675 0.27193 0.95743
 C3570 C 0.20738 0.80371 0.40547
 C3571 C 0.22093 0.81007 0.40801
 C3572 C 0.22708 0.81999 0.39840
 C3573 C 0.21890 0.82356 0.38569
 C3574 C 0.20479 0.81724 0.38281
 C3575 C 0.19905 0.80708 0.39289
 O3576 O 0.20348 0.79464 0.41605
 C3577 C 0.21483 0.79530 0.42547
 C3578 C 0.22579 0.80460 0.42108
 C3579 C 0.23859 0.80704 0.42937
 C3580 C 0.24017 0.79958 0.44275
 C3581 C 0.22902 0.78991 0.44757
 C3582 C 0.21618 0.78776 0.43871
 H3583 H 0.23779 0.82483 0.40062
 H3584 H 0.22364 0.83122 0.37812
 H3585 H 0.18834 0.80208 0.39121
 H3586 H 0.24707 0.81440 0.42568
 H3587 H 0.25017 0.80121 0.44925
 H3588 H 0.20740 0.78057 0.44212
 C3589 C 0.69282 0.70142 0.59438
 C3590 C 0.68507 0.71359 0.59224
 C3591 C 0.67395 0.71800 0.60192
 C3592 C 0.67070 0.70954 0.61434
 C3593 C 0.67851 0.69689 0.61686
 C3594 C 0.68974 0.69282 0.60663
 O3595 O 0.70300 0.69914 0.58390
 C3596 C 0.70164 0.71013 0.57494
 C3597 C 0.69082 0.71928 0.57954
 C3598 C 0.68756 0.73148 0.57180
 C3599 C 0.69576 0.73436 0.55878
 C3600 C 0.70699 0.72508 0.55375
 C3601 C 0.70995 0.71279 0.56205
 H3602 H 0.66798 0.72762 0.59998
 H3603 H 0.66200 0.71287 0.62187
 H3604 H 0.69605 0.68334 0.60815
 H3605 H 0.67905 0.73857 0.57568
 H3606 H 0.69351 0.74392 0.55275
 H3607 H 0.71834 0.70544 0.55849
 C3608 C 0.70862 0.18527 0.08708
 C3609 C 0.69817 0.18231 0.07632
 C3610 C 0.68474 0.17555 0.07945
 C3611 C 0.68186 0.17185 0.09431
 C3612 C 0.69244 0.17474 0.10561
 C3613 C 0.70614 0.18132 0.10190
 O3614 O 0.72005 0.19281 0.08195
 C3615 C 0.71674 0.19464 0.06767
 C3616 C 0.70352 0.18834 0.06367
 C3617 C 0.69753 0.18948 0.04948
 C3618 C 0.70539 0.19760 0.03901
 C3619 C 0.71888 0.20456 0.04290
 C3620 C 0.72474 0.20282 0.05742
 H3621 H 0.67657 0.17360 0.07085
 H3622 H 0.67129 0.16691 0.09709
 H3623 H 0.71420 0.18400 0.11041
 H3624 H 0.68705 0.18448 0.04663
 H3625 H 0.70085 0.19859 0.02790
 H3626 H 0.73483 0.20819 0.06086
 C3627 C 0.20285 0.70176 0.08435
 C3628 C 0.21748 0.69772 0.08346
 C3629 C 0.22407 0.68917 0.09401
 C3630 C 0.21518 0.68442 0.10590
 C3631 C 0.19994 0.68819 0.10703
 C3632 C 0.19378 0.69717 0.09613
 O3633 O 0.19870 0.70964 0.07290
 C3634 C 0.21099 0.71056 0.06462
 C3635 C 0.22277 0.70341 0.07060
 C3636 C 0.23655 0.70254 0.06358
 C3637 C 0.23827 0.70927 0.04978
 C3638 C 0.22632 0.71672 0.04329
 C3639 C 0.21250 0.71746 0.05093
 H3640 H 0.23561 0.68612 0.09305
 H3641 H 0.22023 0.67774 0.11416
 H3642 H 0.18219 0.70016 0.09651
 H3643 H 0.24562 0.69679 0.06848
 H3644 H 0.24894 0.70874 0.04415
 H3645 H 0.20313 0.72294 0.04619
 C3646 C 0.21303 0.19869 0.58415
 C3647 C 0.22339 0.18912 0.57949
 C3648 C 0.22618 0.17684 0.58726
 C3649 C 0.21799 0.17433 0.60037
 C3650 C 0.20721 0.18405 0.60550
 C3651 C 0.20475 0.19642 0.59714
 O3652 O 0.21204 0.20968 0.57515
 C3653 C 0.22200 0.20698 0.56459
 C3654 C 0.22926 0.19454 0.56672
 C3655 C 0.24012 0.18969 0.55697
 C3656 C 0.24361 0.19799 0.54449
 C3657 C 0.23625 0.21088 0.54199
 C3658 C 0.22528 0.21539 0.55227
 H3659 H 0.23440 0.16945 0.58338
 H3660 H 0.22018 0.16482 0.60647
 H3661 H 0.19665 0.20409 0.60053
 H3662 H 0.24566 0.17983 0.55885
 H3663 H 0.25185 0.19426 0.53664
 H3664 H 0.21954 0.22521 0.55080
   
