data_POSCAR
  _audit_creation_date              2014-09-24
  _audit_creation_method            'ToBaCCo'
  _symmetry_space_group_name_H-M    'P1'
  _symmetry_Int_Tables_number       1
  _symmetry_cell_setting            triclinic
  loop_
  _symmetry_equiv_pos_as_xyz
 x,y,z
_cell_length_a 87.6079
_cell_length_b 87.3489
_cell_length_c 87.4834
_cell_angle_alpha 90.024000
_cell_angle_beta 90.092600
_cell_angle_gamma 90.058600
loop_
  _atom_site_label
  _atom_site_type_symbol
  _atom_site_fract_x
  _atom_site_fract_y
  _atom_site_fract_z
C1 C 0.32215 0.44833 0.92865
 C2 C 0.31548 0.45475 0.91555
 C3 C 0.30223 0.44831 0.90927
 C4 C 0.29546 0.43550 0.91610
 C5 C 0.30197 0.42894 0.92921
 C6 C 0.31539 0.43535 0.93552
 C7 C 0.33563 0.45446 0.93483
 C8 C 0.34240 0.44773 0.94771
 C9 C 0.33566 0.43490 0.95458
 C10 C 0.32219 0.42863 0.94855
 C11 C 0.31555 0.41558 0.95512
 C12 C 0.30230 0.40919 0.94878
 C13 C 0.29549 0.41588 0.93592
 H14 H 0.32070 0.46460 0.91011
 H15 H 0.28526 0.43055 0.91109
 H16 H 0.34094 0.46433 0.92951
 H17 H 0.34100 0.42969 0.96450
 H18 H 0.32079 0.41024 0.96502
 H19 H 0.28529 0.41079 0.93104
 C20 C 0.44606 0.82396 0.42666
 C21 C 0.45241 0.83713 0.43331
 C22 C 0.44577 0.84362 0.44636
 C23 C 0.43280 0.83691 0.45292
 C24 C 0.42631 0.82374 0.44642
 C25 C 0.43294 0.81722 0.43322
 C26 C 0.45243 0.81755 0.41342
 C27 C 0.44582 0.80457 0.40671
 C28 C 0.43285 0.79784 0.41323
 C29 C 0.42633 0.80409 0.42646
 C30 C 0.41317 0.79762 0.43291
 C31 C 0.40658 0.80415 0.44595
 C32 C 0.41315 0.81712 0.45272
 H33 H 0.46241 0.84242 0.42823
 H34 H 0.42767 0.84204 0.46298
 H35 H 0.46242 0.82273 0.40824
 H36 H 0.42777 0.78784 0.40789
 H37 H 0.40795 0.78763 0.42771
 H38 H 0.40790 0.82213 0.46276
 C39 C 0.94761 0.92704 0.82308
 C40 C 0.95372 0.91371 0.81657
 C41 C 0.94708 0.90732 0.80343
 C42 C 0.93435 0.91429 0.79666
 C43 C 0.92810 0.92763 0.80303
 C44 C 0.93474 0.93404 0.81631
 C45 C 0.95398 0.93334 0.83641
 C46 C 0.94760 0.94649 0.84301
 C47 C 0.93487 0.95349 0.83625
 C48 C 0.92836 0.94733 0.82294
 C49 C 0.91542 0.95406 0.81628
 C50 C 0.90882 0.94764 0.80317
 C51 C 0.91517 0.93451 0.79653
 H52 H 0.96352 0.90821 0.82180
 H53 H 0.92921 0.90925 0.78654
 H54 H 0.96378 0.92793 0.84173
 H55 H 0.92992 0.96361 0.84146
 H56 H 0.91037 0.96417 0.82139
 H57 H 0.90991 0.92957 0.78643
 C58 C 0.44755 -0.07209 0.32221
 C59 C 0.45379 -0.08536 0.31572
 C60 C 0.44731 -0.09173 0.30252
 C61 C 0.43463 -0.08482 0.29562
 C62 C 0.42825 -0.07154 0.30196
 C63 C 0.43471 -0.06513 0.31533
 C64 C 0.45372 -0.06582 0.33563
 C65 C 0.44718 -0.05276 0.34221
 C66 C 0.43450 -0.04580 0.33537
 C67 C 0.42818 -0.05192 0.32195
 C68 C 0.41526 -0.04525 0.31520
 C69 C 0.40882 -0.05168 0.30201
 C70 C 0.41533 -0.06472 0.29537
 H71 H 0.46355 -0.09087 0.32103
 H72 H 0.42964 -0.08990 0.28546
 H73 H 0.46348 -0.07118 0.34107
 H74 H 0.42946 -0.03575 0.34061
 H75 H 0.41007 -0.03521 0.32031
 H76 H 0.41019 -0.06967 0.28521
 C77 C 0.82388 0.30399 0.32396
 C78 C 0.81733 0.29770 0.33717
 C79 C 0.80434 0.30439 0.34366
 C80 C 0.79772 0.31734 0.33694
 C81 C 0.80412 0.32378 0.32373
 C82 C 0.81727 0.31710 0.31720
 C83 C 0.83707 0.29757 0.31754
 C84 C 0.84368 0.30413 0.30452
 C85 C 0.83711 0.31708 0.29776
 C86 C 0.82393 0.32365 0.30403
 C87 C 0.81742 0.33680 0.29753
 C88 C 0.80443 0.34344 0.30406
 C89 C 0.79777 0.33693 0.31708
 H90 H 0.82242 0.28773 0.34251
 H91 H 0.78771 0.32248 0.34210
 H92 H 0.84229 0.28759 0.32274
 H93 H 0.84237 0.32211 0.28773
 H94 H 0.82255 0.34197 0.28750
 H95 H 0.78776 0.34221 0.32210
 C96 C -0.19840 0.82142 0.82055
 C97 C -0.20480 0.83453 0.81389
 C98 C -0.19794 0.84128 0.80108
 C99 C -0.18472 0.83487 0.79476
 C100 C -0.17817 0.82176 0.80129
 C101 C -0.18501 0.81499 0.81426
 C102 C -0.20495 0.81480 0.83360
 C103 C -0.19825 0.80194 0.84040
 C104 C -0.18503 0.79549 0.83413
 C105 C -0.17832 0.80196 0.82109
 C106 C -0.16488 0.79582 0.81493
 C107 C -0.15807 0.80259 0.80212
 C108 C -0.16472 0.81547 0.79529
 H109 H -0.21498 0.83961 0.81879
 H110 H -0.17940 0.84020 0.78491
 H111 H -0.21513 0.81977 0.83861
 H112 H -0.17987 0.78559 0.83954
 H113 H -0.15958 0.78591 0.82020
 H114 H -0.15931 0.82068 0.78543
 C115 C 0.92611 0.32362 0.44618
 C116 C 0.93250 0.33688 0.45262
 C117 C 0.94548 0.34360 0.44608
 C118 C 0.95222 0.33703 0.43312
 C119 C 0.94598 0.32378 0.42654
 C120 C 0.93286 0.31703 0.43308
 C121 C 0.91295 0.31697 0.45246
 C122 C 0.90650 0.30390 0.44577
 C123 C 0.91320 0.29731 0.43282
 C124 C 0.92636 0.30380 0.42639
 C125 C 0.93299 0.29746 0.41325
 C126 C 0.94596 0.30421 0.40675
 C127 C 0.95246 0.31728 0.41340
 H128 H 0.92728 0.34205 0.46261
 H129 H 0.96222 0.34233 0.42806
 H130 H 0.90763 0.32204 0.46244
 H131 H 0.90807 0.28724 0.42768
 H132 H 0.92800 0.28740 0.40798
 H133 H 0.96246 0.32247 0.40823
 C134 C 0.42862 0.44791 0.82155
 C135 C 0.43503 0.45413 0.83489
 C136 C 0.44775 0.44722 0.84170
 C137 C 0.45426 0.43412 0.83517
 C138 C 0.44800 0.42775 0.82184
 C139 C 0.43511 0.43465 0.81499
 C140 C 0.41565 0.45452 0.81484
 C141 C 0.40913 0.44799 0.80174
 C142 C 0.41559 0.43490 0.79516
 C143 C 0.42856 0.42814 0.80171
 C144 C 0.43491 0.41481 0.79543
 C145 C 0.44764 0.40795 0.80230
 C146 C 0.45420 0.41443 0.81541
 H147 H 0.43001 0.46421 0.84009
 H148 H 0.46405 0.42880 0.84059
 H149 H 0.41050 0.46459 0.81992
 H150 H 0.41038 0.42987 0.78507
 H151 H 0.42985 0.40965 0.78534
 H152 H 0.46400 0.40897 0.82069
 C153 C 0.82276 0.92843 0.94845
 C154 C 0.81620 0.91532 0.95499
 C155 C 0.80291 0.90893 0.94870
 C156 C 0.79601 0.91569 0.93591
 C157 C 0.80243 0.92880 0.92923
 C158 C 0.81587 0.93520 0.93550
 C159 C 0.83626 0.93470 0.95444
 C160 C 0.84292 0.94758 0.94760
 C161 C 0.83606 0.95436 0.93480
 C162 C 0.82256 0.94824 0.92867
 C163 C 0.81580 0.95472 0.91565
 C164 C 0.80253 0.94829 0.90941
 C165 C 0.79582 0.93543 0.91621
 H166 H 0.82154 0.90998 0.96484
 H167 H 0.78578 0.91064 0.93103
 H168 H 0.84167 0.92945 0.96430
 H169 H 0.84132 0.96428 0.92950
 H170 H 0.82096 0.96462 0.91023
 H171 H 0.78560 0.93048 0.91122
 C172 C 0.32287 0.82251 0.30272
 C173 C 0.31622 0.83547 0.29598
 C174 C 0.30316 0.84212 0.30243
 C175 C 0.29660 0.83577 0.31559
 C176 C 0.30311 0.82281 0.32247
 C177 C 0.31631 0.81615 0.31603
 C178 C 0.33612 0.81597 0.29655
 C179 C 0.34285 0.80323 0.30356
 C180 C 0.33634 0.79686 0.31672
 C181 C 0.32309 0.80325 0.32304
 C182 C 0.31664 0.79716 0.33639
 C183 C 0.30359 0.80383 0.34278
 C184 C 0.29681 0.81657 0.33582
 H185 H 0.32130 0.84049 0.28585
 H186 H 0.28655 0.84102 0.32058
 H187 H 0.34131 0.82087 0.28642
 H188 H 0.34169 0.78705 0.32210
 H189 H 0.32186 0.78735 0.34191
 H190 H 0.28676 0.82170 0.34091
 C191 C 0.82375 0.42665 0.44637
 C192 C 0.81725 0.41349 0.45284
 C193 C 0.80418 0.40690 0.44635
 C194 C 0.79743 0.41347 0.43339
 C195 C 0.80378 0.42664 0.42677
 C196 C 0.81701 0.43327 0.43326
 C197 C 0.83702 0.43317 0.45260
 C198 C 0.84360 0.44614 0.44585
 C199 C 0.83688 0.45277 0.43289
 C200 C 0.82362 0.44639 0.42651
 C201 C 0.81698 0.45274 0.41336
 C202 C 0.80391 0.44611 0.40691
 C203 C 0.79730 0.43314 0.41361
 H204 H 0.82244 0.40825 0.46282
 H205 H 0.78737 0.40823 0.42840
 H206 H 0.84231 0.42804 0.46258
 H207 H 0.84208 0.46276 0.42767
 H208 H 0.82206 0.46273 0.40803
 H209 H 0.78723 0.42804 0.40848
 C210 C 0.94790 0.82199 -0.07272
 C211 C 0.95407 0.83531 -0.06620
 C212 C 0.94748 0.84168 -0.05307
 C213 C 0.93478 0.83472 -0.04629
 C214 C 0.92847 0.82140 -0.05267
 C215 C 0.93503 0.81499 -0.06595
 C216 C 0.95419 0.81572 -0.08606
 C217 C 0.94773 0.80260 -0.09269
 C218 C 0.93501 0.79559 -0.08594
 C219 C 0.92858 0.80173 -0.07260
 C220 C 0.91564 0.79502 -0.06596
 C221 C 0.90910 0.80145 -0.05284
 C222 C 0.91553 0.81454 -0.04617
 H223 H 0.96385 0.84085 -0.07141
 H224 H 0.92971 0.83980 -0.03619
 H225 H 0.96399 0.82114 -0.09139
 H226 H 0.93001 0.78550 -0.09117
 H227 H 0.91051 0.78494 -0.07108
 H228 H 0.91032 0.81949 -0.03608
 C229 C 0.32212 0.32085 0.80146
 C230 C 0.31558 0.33393 0.79486
 C231 C 0.30237 0.34039 0.80116
 C232 C 0.29553 0.33374 0.81401
 C233 C 0.30192 0.32066 0.82075
 C234 C 0.31529 0.31417 0.81447
 C235 C 0.33554 0.31449 0.79546
 C236 C 0.34218 0.30164 0.80235
 C237 C 0.33539 0.29496 0.81521
 C238 C 0.32196 0.30116 0.82136
 C239 C 0.31526 0.29478 0.83445
 C240 C 0.30206 0.30128 0.84070
 C241 C 0.29537 0.31412 0.83385
 H242 H 0.32085 0.33923 0.78497
 H243 H 0.28537 0.33888 0.81886
 H244 H 0.34094 0.31964 0.78556
 H245 H 0.34066 0.28506 0.82052
 H246 H 0.32041 0.28489 0.83990
 H247 H 0.28521 0.31913 0.83883
 C248 C 0.17873 0.55115 0.57110
 C249 C 0.16564 0.54477 0.56438
 C250 C 0.15935 0.55130 0.55118
 C251 C 0.16617 0.56416 0.54450
 C252 C 0.17927 0.57070 0.55106
 C253 C 0.18558 0.56419 0.56444
 C254 C 0.18490 0.54494 0.58454
 C255 C 0.19775 0.55164 0.59137
 C256 C 0.20461 0.56451 0.58474
 C257 C 0.19860 0.57088 0.57131
 C258 C 0.20515 0.58399 0.56478
 C259 C 0.19882 0.59047 0.55157
 C260 C 0.18597 0.58381 0.54470
 H261 H 0.16020 0.53487 0.56953
 H262 H 0.16115 0.56920 0.53434
 H263 H 0.17961 0.53503 0.58981
 H264 H 0.21450 0.56967 0.59017
 H265 H 0.21503 0.58930 0.57008
 H266 H 0.18109 0.58898 0.53453
 C267 C 0.57189 0.69891 0.07105
 C268 C 0.58534 0.70493 0.06478
 C269 C 0.59202 0.69805 0.05197
 C270 C 0.58523 0.68517 0.04523
 C271 C 0.57177 0.67900 0.05134
 C272 C 0.56506 0.68587 0.06432
 C273 C 0.56530 0.70548 0.08410
 C274 C 0.55207 0.69914 0.09047
 C275 C 0.54523 0.68628 0.08377
 C276 C 0.55165 0.67956 0.07072
 C277 C 0.54511 0.66645 0.06415
 C278 C 0.55184 0.65960 0.05134
 C279 C 0.56508 0.66589 0.04492
 H280 H 0.59074 0.71484 0.06997
 H281 H 0.59054 0.67988 0.03537
 H282 H 0.57057 0.71537 0.08944
 H283 H 0.53504 0.68140 0.08886
 H284 H 0.53493 0.66143 0.06910
 H285 H 0.57026 0.66044 0.03507
 C286 C 0.69878 0.17816 0.67914
 C287 C 0.70513 0.18490 0.66606
 C288 C 0.69859 0.19811 0.65976
 C289 C 0.68575 0.20476 0.66657
 C290 C 0.67925 0.19818 0.67966
 C291 C 0.68576 0.18480 0.68598
 C292 C 0.70501 0.16473 0.68532
 C293 C 0.69836 0.15788 0.69818
 C294 C 0.68549 0.16449 0.70503
 C295 C 0.67912 0.17792 0.69899
 C296 C 0.66603 0.18444 0.70554
 C297 C 0.65955 0.19764 0.69920
 C298 C 0.66616 0.20453 0.68635
 H299 H 0.71501 0.17978 0.66064
 H300 H 0.68071 0.21493 0.66155
 H301 H 0.71491 0.15951 0.68002
 H302 H 0.68034 0.15909 0.71493
 H303 H 0.66076 0.17913 0.71542
 H304 H 0.66099 0.21469 0.68147
 C305 C 1.07144 0.05076 0.17849
 C306 C 1.08485 0.04470 0.18484
 C307 C 1.09148 0.05152 0.19774
 C308 C 1.08470 0.06438 0.20447
 C309 C 1.07130 0.07060 0.19826
 C310 C 1.06462 0.06378 0.18521
 C311 C 1.06490 0.04424 0.16536
 C312 C 1.05171 0.05062 0.15889
 C313 C 1.04488 0.06348 0.16559
 C314 C 1.05127 0.07014 0.17872
 C315 C 1.04475 0.08324 0.18530
 C316 C 1.05144 0.09002 0.19819
 C317 C 1.06462 0.08369 0.20469
 H318 H 1.09024 0.03481 0.17966
 H319 H 1.08998 0.06964 0.21439
 H320 H 1.07020 0.03435 0.16006
 H321 H 1.03473 0.06842 0.16047
 H322 H 1.03460 0.08829 0.18029
 H323 H 1.06977 0.08909 0.21461
 C324 C 0.05161 0.17860 1.07106
 C325 C 0.04506 0.16549 1.06449
 C326 C 0.05179 0.15863 1.05167
 C327 C 0.06502 0.16493 1.04524
 C328 C 0.07171 0.17805 1.05167
 C329 C 0.06500 0.18492 1.06464
 C330 C 0.04518 0.18534 1.08411
 C331 C 0.05202 0.19821 1.09079
 C332 C 0.06525 0.20455 1.08441
 C333 C 0.07183 0.19796 1.07136
 C334 C 0.08528 0.20400 1.06508
 C335 C 0.09195 0.19712 1.05226
 C336 C 0.08516 0.18423 1.04554
 H337 H 0.03488 0.16050 1.06948
 H338 H 0.07023 0.15952 1.03538
 H339 H 0.03500 0.18045 1.08920
 H340 H 0.07052 0.21445 1.08973
 H341 H 0.09067 0.21391 1.07026
 H342 H 0.09047 0.17894 1.03567
 C343 C 0.17891 0.67878 0.69894
 C344 C 0.16584 0.68534 0.70548
 C345 C 0.15940 0.69856 0.69911
 C346 C 0.16604 0.70540 0.68625
 C347 C 0.17910 0.69899 0.67957
 C348 C 0.18557 0.68560 0.68592
 C349 C 0.18524 0.66533 0.70500
 C350 C 0.19807 0.65867 0.69816
 C351 C 0.20474 0.66546 0.68529
 C352 C 0.19856 0.67890 0.67908
 C353 C 0.20493 0.68559 0.66598
 C354 C 0.19843 0.69881 0.65966
 C355 C 0.18561 0.70552 0.66647
 H356 H 0.16055 0.68007 0.71537
 H357 H 0.16090 0.71557 0.68134
 H358 H 0.18010 0.65994 0.71490
 H359 H 0.21461 0.66016 0.68003
 H360 H 0.21479 0.68042 0.66057
 H361 H 0.18061 0.71569 0.66142
 C362 C 1.19712 0.17684 0.17706
 C363 C 1.20336 0.16342 0.18328
 C364 C 1.19690 0.15679 0.19635
 C365 C 1.18423 0.16360 0.20336
 C366 C 1.17785 0.17701 0.19729
 C367 C 1.18430 0.18367 0.18407
 C368 C 1.20329 0.18338 0.16379
 C369 C 1.19677 0.19659 0.15748
 C370 C 1.18411 0.20343 0.16445
 C371 C 1.17779 0.19704 0.17772
 C372 C 1.16490 0.20360 0.18460
 C373 C 1.15848 0.19692 0.19765
 C374 C 1.16496 0.18372 0.20401
 H375 H 1.21311 0.15805 0.17785
 H376 H 1.17922 0.15837 0.21343
 H377 H 1.21304 0.17813 0.15825
 H378 H 1.17908 0.21360 0.15943
 H379 H 1.15973 0.21375 0.17970
 H380 H 1.15984 0.17858 0.21406
 C381 C 0.67926 1.07106 0.55139
 C382 C 0.66616 1.06447 0.54490
 C383 C 0.65936 1.05164 0.55167
 C384 C 0.66569 1.04520 0.56490
 C385 C 0.67879 1.05164 0.57155
 C386 C 0.68562 1.06465 0.56479
 C387 C 0.68594 1.08414 0.54492
 C388 C 0.69881 1.09087 0.55172
 C389 C 0.70518 1.08446 0.56496
 C390 C 0.69865 1.07138 0.57157
 C391 C 0.70471 1.06510 0.58503
 C392 C 0.69787 1.05227 0.59175
 C393 C 0.68501 1.04552 0.58501
 H394 H 0.66110 1.06943 0.53472
 H395 H 0.66028 1.03533 0.57012
 H396 H 0.68099 1.08922 0.53473
 H397 H 0.71508 1.08977 0.57022
 H398 H 0.71461 1.07030 0.59040
 H399 H 0.67974 1.03564 0.59036
 C400 C 0.54987 0.56957 0.18024
 C401 C 0.54360 0.56296 0.16703
 C402 C 0.55036 0.55000 0.16047
 C403 C 0.56335 0.54346 0.16715
 C404 C 0.56977 0.54992 0.18036
 C405 C 0.56303 0.56305 0.18694
 C406 C 0.54345 0.58279 0.18665
 C407 C 0.55005 0.58955 0.19960
 C408 C 0.56304 0.58305 0.20633
 C409 C 0.56962 0.56983 0.20006
 C410 C 0.58287 0.56347 0.20646
 C411 C 0.58958 0.55051 0.19986
 C412 C 0.58302 0.54371 0.18691
 H413 H 0.53361 0.56801 0.16170
 H414 H 0.56856 0.53349 0.16192
 H415 H 0.53346 0.58798 0.18146
 H416 H 0.56814 0.58843 0.21628
 H417 H 0.58810 0.56871 0.21641
 H418 H 0.58837 0.53375 0.18181
 C419 C 0.67868 0.69924 0.17846
 C420 C 0.66560 0.70562 0.18515
 C421 C 0.65935 0.69913 0.19837
 C422 C 0.66619 0.68631 0.20511
 C423 C 0.67926 0.67977 0.19857
 C424 C 0.68555 0.68624 0.18518
 C425 C 0.68482 0.70541 0.16500
 C426 C 0.69766 0.69871 0.15822
 C427 C 0.70454 0.68587 0.16490
 C428 C 0.69854 0.67955 0.17835
 C429 C 0.70511 0.66647 0.18493
 C430 C 0.69880 0.66003 0.19816
 C431 C 0.68598 0.66669 0.20500
 H432 H 0.66016 0.71549 0.17996
 H433 H 0.66119 0.68130 0.21528
 H434 H 0.67952 0.71529 0.15969
 H435 H 0.71441 0.68071 0.15950
 H436 H 0.71498 0.66116 0.17966
 H437 H 0.68112 0.66155 0.21517
 C438 C 0.17770 0.05183 1.07232
 C439 C 0.16470 0.04534 1.06551
 C440 C 0.15829 0.05198 1.05240
 C441 C 0.16491 0.06507 1.04593
 C442 C 0.17791 0.07170 1.05260
 C443 C 0.18434 0.06508 1.06586
 C444 C 0.18401 0.04547 1.08563
 C445 C 0.19679 0.05224 1.09254
 C446 C 0.20344 0.06534 1.08611
 C447 C 0.19728 0.07184 1.07280
 C448 C 0.20364 0.08514 1.06646
 C449 C 0.19720 0.09173 1.05335
 C450 C 0.18442 0.08500 1.04641
 H451 H 0.15947 0.03527 1.07052
 H452 H 0.15984 0.07022 1.03584
 H453 H 0.17886 0.03538 1.09071
 H454 H 0.21329 0.07058 1.09156
 H455 H 0.21348 0.09049 1.07179
 H456 H 0.17947 0.09024 1.03632
 C457 C 0.56966 0.18041 0.55004
 C458 C 0.58289 0.18680 0.54366
 C459 C 0.58965 0.19974 0.55031
 C460 C 0.58314 0.20649 0.56329
 C461 C 0.56991 0.20025 0.56982
 C462 C 0.56313 0.18713 0.56319
 C463 C 0.56305 0.16719 0.54374
 C464 C 0.55009 0.16066 0.55046
 C465 C 0.54353 0.16736 0.56343
 C466 C 0.55000 0.18057 0.56989
 C467 C 0.54378 0.18712 0.58312
 C468 C 0.55058 0.20006 0.58973
 C469 C 0.56355 0.20665 0.58306
 H470 H 0.58809 0.18159 0.53369
 H471 H 0.58853 0.21644 0.56841
 H472 H 0.56811 0.16185 0.53377
 H473 H 0.53357 0.16214 0.56862
 H474 H 0.53382 0.18204 0.58844
 H475 H 0.56879 0.21659 0.58833
 C476 C 0.07168 0.55152 0.67880
 C477 C 0.08513 0.54551 0.68510
 C478 C 0.09184 0.55241 0.69791
 C479 C 0.08509 0.56529 0.70462
 C480 C 0.07164 0.57146 0.69847
 C481 C 0.06489 0.56457 0.68550
 C482 C 0.06507 0.54493 0.66575
 C483 C 0.05184 0.55125 0.65934
 C484 C 0.04503 0.56413 0.66601
 C485 C 0.05149 0.57087 0.67906
 C486 C 0.04499 0.58399 0.68560
 C487 C 0.05175 0.59086 0.69841
 C488 C 0.06498 0.58458 0.70487
 H489 H 0.09050 0.53559 0.67994
 H490 H 0.09043 0.57061 0.71448
 H491 H 0.07031 0.53502 0.66044
 H492 H 0.03485 0.56900 0.66089
 H493 H 0.03480 0.58901 0.68063
 H494 H 0.07019 0.59004 0.71472
 C495 C 0.67896 0.57147 0.05100
 C496 C 0.66586 0.56489 0.04448
 C497 C 0.65946 0.55165 0.05085
 C498 C 0.66617 0.54480 0.06368
 C499 C 0.67927 0.55123 0.07034
 C500 C 0.68570 0.56464 0.06400
 C501 C 0.68525 0.58495 0.04495
 C502 C 0.69810 0.59164 0.05178
 C503 C 0.70485 0.58484 0.06462
 C504 C 0.69871 0.57137 0.07082
 C505 C 0.70515 0.56468 0.08390
 C506 C 0.69870 0.55144 0.09021
 C507 C 0.68585 0.54470 0.08342
 H508 H 0.66051 0.57016 0.03461
 H509 H 0.66106 0.53462 0.06858
 H510 H 0.68005 0.59035 0.03507
 H511 H 0.71474 0.59017 0.06988
 H512 H 0.71503 0.56988 0.08931
 H513 H 0.68087 0.53451 0.08847
 C514 C 0.05032 0.68033 0.57025
 C515 C 0.04406 0.68694 0.58344
 C516 C 0.05079 0.69996 0.58997
 C517 C 0.06374 0.70655 0.58328
 C518 C 0.07015 0.70009 0.57009
 C519 C 0.06344 0.68691 0.56353
 C520 C 0.04391 0.66707 0.56385
 C521 C 0.05049 0.66033 0.55090
 C522 C 0.06344 0.66689 0.54417
 C523 C 0.07000 0.68014 0.55042
 C524 C 0.08320 0.68657 0.54401
 C525 C 0.08989 0.69959 0.55058
 C526 C 0.08335 0.70637 0.56352
 H527 H 0.03410 0.68186 0.58877
 H528 H 0.06893 0.71656 0.58848
 H529 H 0.03395 0.66185 0.56904
 H530 H 0.06851 0.66152 0.53422
 H531 H 0.08842 0.68134 0.53406
 H532 H 0.08868 0.71637 0.56859
 C533 C 0.55164 1.07016 0.67907
 C534 C 0.54524 1.06351 0.66594
 C535 C 0.55209 1.05068 0.65919
 C536 C 0.56532 1.04433 0.66562
 C537 C 0.57186 1.05084 0.67876
 C538 C 0.56502 1.06383 0.68552
 C539 C 0.54508 1.08322 0.68568
 C540 C 0.55178 1.09000 0.69857
 C541 C 0.56499 1.08369 0.70504
 C542 C 0.57169 1.07063 0.69858
 C543 C 0.58513 1.06444 0.70474
 C544 C 0.59193 1.05162 0.69798
 C545 C 0.58530 1.04480 0.68508
 H546 H 0.53507 1.06843 0.66085
 H547 H 0.57063 1.03446 0.66030
 H548 H 0.53492 1.08826 0.68070
 H549 H 0.57014 1.08909 0.71496
 H550 H 0.59041 1.06969 0.71467
 H551 H 0.59071 1.03493 0.67987
 C552 C 0.42786 0.32233 0.94772
 C553 C 0.43415 0.33567 0.95407
 C554 C 0.44685 0.34266 0.94726
 C555 C 0.45343 0.33628 0.93413
 C556 C 0.44728 0.32293 0.92763
 C557 C 0.43443 0.31591 0.93444
 C558 C 0.41495 0.31544 0.95424
 C559 C 0.40856 0.30231 0.94761
 C560 C 0.41510 0.29588 0.93449
 C561 C 0.42801 0.30262 0.92782
 C562 C 0.43445 0.29647 0.91449
 C563 C 0.44713 0.30349 0.90773
 C564 C 0.45357 0.31663 0.91430
 H565 H 0.42906 0.34072 0.96418
 H566 H 0.46320 0.34179 0.92886
 H567 H 0.40974 0.32038 0.96433
 H568 H 0.41000 0.28577 0.92939
 H569 H 0.42950 0.28635 0.90926
 H570 H 0.46334 0.32203 0.90893
 C571 C 0.92640 0.44614 0.32397
 C572 C 0.93300 0.45250 0.33714
 C573 C 0.94604 0.44585 0.34366
 C574 C 0.95263 0.43285 0.33697
 C575 C 0.94617 0.42635 0.32379
 C576 C 0.93299 0.43300 0.31725
 C577 C 0.91318 0.45253 0.31754
 C578 C 0.90651 0.44591 0.30456
 C579 C 0.91305 0.43293 0.29783
 C580 C 0.92627 0.42639 0.30411
 C581 C 0.93275 0.41321 0.29765
 C582 C 0.94577 0.40660 0.30419
 C583 C 0.95249 0.41318 0.31718
 H584 H 0.92791 0.46251 0.34242
 H585 H 0.96267 0.42771 0.34211
 H586 H 0.90798 0.46253 0.32270
 H587 H 0.90775 0.42784 0.28783
 H588 H 0.92758 0.40799 0.28765
 H589 H 0.96253 0.40792 0.32221
 C590 C 0.32293 0.94789 0.42777
 C591 C 0.31616 0.95440 0.41477
 C592 C 0.30304 0.94782 0.40835
 C593 C 0.29651 0.93477 0.41496
 C594 C 0.30313 0.92810 0.42796
 C595 C 0.31641 0.93467 0.43441
 C596 C 0.33626 0.95419 0.43409
 C597 C 0.34312 0.94740 0.44689
 C598 C 0.33663 0.93432 0.45353
 C599 C 0.32330 0.92788 0.44735
 C600 C 0.31689 0.91460 0.45371
 C601 C 0.30376 0.90808 0.44725
 C602 C 0.29687 0.91483 0.43446
 H603 H 0.32118 0.96446 0.40951
 H604 H 0.28640 0.92970 0.40985
 H605 H 0.34139 0.96426 0.42896
 H606 H 0.34203 0.92906 0.46339
 H607 H 0.32219 0.90924 0.46355
 H608 H 0.28676 0.90964 0.42949
 O609 O 0.25124 0.47988 0.79063
 O610 O 0.22517 0.48185 0.78579
 O611 O 0.26950 0.45896 0.75046
 O612 O 0.26993 0.46354 0.72530
 O613 O 0.29096 0.49905 0.76945
 O614 O 0.28533 0.52571 0.76844
 O615 O 0.22993 0.50054 0.71011
 O616 O 0.23291 0.47450 0.71434
 O617 O 0.21029 0.51950 0.74890
 O618 O 0.21562 0.51845 0.77642
 O619 O 0.24890 0.53978 0.73031
 O620 O 0.27616 0.53464 0.73093
 O621 O 0.24825 0.51901 0.71005
 O622 O 0.27663 0.51750 0.71554
 O623 O 0.23074 0.53988 0.74879
 O624 O 0.23256 0.53407 0.77695
 O625 O 0.21029 0.50142 0.73024
 O626 O 0.21516 0.47369 0.73529
 O627 O 0.26933 0.49863 0.79075
 O628 O 0.26810 0.52581 0.78508
 O629 O 0.29098 0.48070 0.75104
 O630 O 0.28463 0.48314 0.72342
 O631 O 0.25159 0.45895 0.76923
 O632 O 0.22404 0.46494 0.76589
 Zr633 Zr 0.24201 0.48106 0.76846
 O634 O 0.22728 0.49478 0.75525
 Zr635 Zr 0.26884 0.48134 0.74162
 O636 O 0.25501 0.49460 0.72706
 Zr637 Zr 0.26874 0.50813 0.76859
 O638 O 0.25533 0.52283 0.75503
 Zr639 Zr 0.23185 0.49101 0.73203
 O640 O 0.24564 0.47607 0.74517
 Zr641 Zr 0.23214 0.51804 0.75880
 O642 O 0.24557 0.50439 0.77356
 Zr643 Zr 0.25872 0.51788 0.73175
 O644 O 0.27380 0.50463 0.74533
 O645 O 0.26510 0.48498 0.76473
 O646 O 0.23558 0.51430 0.73558
 C647 C 0.26179 0.48776 0.79724
 C648 C 0.26206 0.45239 0.76129
 C649 C 0.29753 0.48842 0.76172
 C650 C 0.23727 0.51154 0.70369
 C651 C 0.20391 0.51230 0.73778
 C652 C 0.23805 0.54625 0.73777
 H653 H 0.21655 0.49226 0.75769
 H654 H 0.25788 0.53358 0.75747
 H655 H 0.27167 0.47844 0.77122
 H656 H 0.25723 0.49201 0.71629
 H657 H 0.23618 0.46479 0.71917
 H658 H 0.26204 0.46574 0.71753
 H659 H 0.24114 0.54121 0.77513
 H660 H 0.25813 0.52496 0.79031
 H661 H 0.20789 0.47418 0.72660
 H662 H 0.22504 0.45703 0.77397
 H663 H 0.27583 0.54044 0.74063
 H664 H 0.29004 0.52554 0.75816
 H665 H 0.22536 0.49235 0.79006
 H666 H 0.20944 0.50901 0.77556
 H667 H 0.29070 0.49253 0.72524
 H668 H 0.27459 0.50904 0.70830
 O669 O 0.29072 -0.00086 0.26937
 O670 O 0.28568 0.02524 0.26729
 O671 O 0.25090 -0.01951 0.29049
 O672 O 0.22573 -0.02020 0.28602
 O673 O 0.26981 -0.04099 0.25053
 O674 O 0.26857 -0.03551 0.22388
 O675 O 0.21007 0.01960 0.24891
 O676 O 0.21443 0.01676 0.27491
 O677 O 0.24855 0.03959 0.22976
 O678 O 0.27609 0.03451 0.23075
 O679 O 0.23013 0.00063 0.20977
 O680 O 0.23102 -0.02671 0.21502
 O681 O 0.21004 0.00114 0.23056
 O682 O 0.21573 -0.02726 0.23220
 O683 O 0.24846 0.01902 0.20953
 O684 O 0.27662 0.01748 0.21521
 O685 O 0.23000 0.03949 0.24786
 O686 O 0.23523 0.03477 0.27557
 O687 O 0.29089 -0.01908 0.25075
 O688 O 0.28506 -0.01804 0.22361
 O689 O 0.25152 -0.04113 0.26892
 O690 O 0.22387 -0.03508 0.26653
 O691 O 0.26950 -0.00134 0.29033
 O692 O 0.26589 0.02623 0.28425
 Zr693 Zr 0.26851 0.00817 0.26822
 O694 O 0.25513 0.02273 0.25450
 Zr695 Zr 0.24193 -0.01903 0.26818
 O696 O 0.22720 -0.00537 0.25492
 Zr697 Zr 0.26870 -0.01877 0.24134
 O698 O 0.25498 -0.00552 0.22663
 Zr699 Zr 0.23201 0.01792 0.25837
 O700 O 0.24532 0.00430 0.27331
 Zr701 Zr 0.25860 0.01778 0.23130
 O702 O 0.27351 0.00453 0.24494
 Zr703 Zr 0.23179 -0.00914 0.23167
 O704 O 0.24553 -0.02407 0.24493
 O705 O 0.26494 -0.01505 0.26444
 O706 O 0.23546 0.01412 0.23513
 C707 C 0.29736 -0.01140 0.26155
 C708 C 0.26171 -0.01190 0.29697
 C709 C 0.26222 -0.04761 0.26122
 C710 C 0.20365 0.01214 0.23797
 C711 C 0.23743 0.04590 0.23694
 C712 C 0.23746 0.01157 0.20325
 H713 H 0.25751 0.03353 0.25695
 H714 H 0.25737 -0.00811 0.21590
 H715 H 0.27151 -0.02153 0.27098
 H716 H 0.21647 -0.00769 0.25755
 H717 H 0.21933 0.01356 0.28461
 H718 H 0.21788 -0.01239 0.28379
 H719 H 0.27482 0.00883 0.20813
 H720 H 0.29021 -0.00798 0.22439
 H721 H 0.22650 0.04198 0.27507
 H722 H 0.27402 0.02534 0.29212
 H723 H 0.24066 -0.02628 0.20918
 H724 H 0.25834 -0.04032 0.22411
 H725 H 0.28990 0.02502 0.25680
 H726 H 0.27521 0.04077 0.24013
 H727 H 0.22569 -0.04118 0.25717
 H728 H 0.20853 -0.02525 0.24067
 O729 O 0.54073 0.73025 0.24900
 O730 O 0.53585 0.73226 0.27506
 O731 O 0.50068 0.70918 0.23052
 O732 O 0.47557 0.71373 0.22980
 O733 O 0.51967 0.74934 0.20912
 O734 O 0.51859 0.77598 0.21475
 O735 O 0.46024 0.75073 0.26988
 O736 O 0.46452 0.72467 0.26688
 O737 O 0.49881 0.76985 0.28974
 O738 O 0.52633 0.76883 0.28462
 O739 O 0.48036 0.78998 0.25097
 O740 O 0.48106 0.78479 0.22367
 O741 O 0.46019 0.76920 0.25157
 O742 O 0.46570 0.76759 0.22315
 O743 O 0.49877 0.79016 0.26927
 O744 O 0.52690 0.78442 0.26764
 O745 O 0.48023 0.75169 0.28963
 O746 O 0.48539 0.72395 0.28479
 O747 O 0.54086 0.74899 0.23090
 O748 O 0.53514 0.77616 0.23211
 O749 O 0.50135 0.73091 0.20895
 O750 O 0.47372 0.73330 0.21514
 O751 O 0.51937 0.70926 0.24857
 O752 O 0.51601 0.71531 0.27612
 Zr753 Zr 0.51857 0.73139 0.25812
 O754 O 0.50529 0.74508 0.27278
 Zr755 Zr 0.49185 0.73156 0.23106
 O756 O 0.47723 0.74478 0.24484
 Zr757 Zr 0.51871 0.75842 0.23136
 O758 O 0.50509 0.77310 0.24470
 Zr759 Zr 0.48214 0.74123 0.26805
 O760 O 0.49534 0.72632 0.25433
 Zr761 Zr 0.50880 0.76834 0.26794
 O762 O 0.52362 0.75472 0.25458
 Zr763 Zr 0.48187 0.76807 0.24116
 O764 O 0.49551 0.75485 0.22614
 O765 O 0.51491 0.73527 0.23496
 O766 O 0.48564 0.76452 0.26435
 C767 C 0.54734 0.73814 0.23849
 C768 C 0.51146 0.70264 0.23807
 C769 C 0.51201 0.73868 0.20247
 C770 C 0.45384 0.76174 0.26254
 C771 C 0.48768 0.76264 0.29604
 C772 C 0.48777 0.79648 0.26188
 H773 H 0.50771 0.74259 0.28355
 H774 H 0.50751 0.78385 0.24215
 H775 H 0.52141 0.72872 0.22844
 H776 H 0.46648 0.74215 0.24255
 H777 H 0.46937 0.71496 0.26364
 H778 H 0.46785 0.71584 0.23774
 H779 H 0.52509 0.79154 0.25903
 H780 H 0.54035 0.77532 0.24213
 H781 H 0.47669 0.72443 0.29202
 H782 H 0.52409 0.70741 0.27517
 H783 H 0.49072 0.79063 0.22408
 H784 H 0.50834 0.77580 0.20998
 H785 H 0.54005 0.74278 0.27492
 H786 H 0.52545 0.75940 0.29082
 H787 H 0.47555 0.74269 0.20907
 H788 H 0.45845 0.75915 0.22519
 O789 O 0.00110 0.70970 0.73002
 O790 O -0.02495 0.71459 0.73199
 O791 O 0.01954 0.74991 0.70921
 O792 O 0.02016 0.77510 0.71384
 O793 O 0.04089 0.73079 0.74927
 O794 O 0.03525 0.73180 0.77587
 O795 O -0.01989 0.79035 0.75081
 O796 O -0.01683 0.78619 0.72478
 O797 O -0.03969 0.75156 0.76958
 O798 O -0.03448 0.72398 0.76851
 O799 O -0.00099 0.77008 0.78993
 O800 O 0.02630 0.76938 0.78480
 O801 O -0.00157 0.79036 0.76927
 O802 O 0.02680 0.78486 0.76773
 O803 O -0.01926 0.75163 0.78996
 O804 O -0.01757 0.72342 0.78414
 O805 O -0.03959 0.77024 0.75153
 O806 O -0.03467 0.76523 0.72385
 O807 O 0.01916 0.70952 0.74877
 O808 O 0.01793 0.71518 0.77592
 O809 O 0.04104 0.74923 0.73095
 O810 O 0.03483 0.77692 0.73344
 O811 O 0.00152 0.73117 0.70916
 O812 O -0.02600 0.73453 0.71513
 Zr813 Zr -0.00804 0.73192 0.73124
 O814 O -0.02270 0.74519 0.74493
 Zr815 Zr 0.01895 0.75873 0.73158
 O816 O 0.00517 0.77335 0.74482
 Zr817 Zr 0.01867 0.73171 0.75829
 O818 O 0.00532 0.74532 0.77298
 Zr819 Zr -0.01800 0.76844 0.74120
 O820 O -0.00428 0.75524 0.72629
 Zr821 Zr -0.01788 0.74160 0.76814
 O822 O -0.00451 0.72679 0.75452
 Zr823 Zr 0.00884 0.76862 0.76807
 O824 O 0.02386 0.75500 0.75484
 O825 O 0.01508 0.73560 0.73518
 O826 O -0.01432 0.76484 0.76445
 C827 C 0.01160 0.70305 0.73789
 C828 C 0.01202 0.73911 0.70262
 C829 C 0.04752 0.73852 0.73867
 C830 C -0.01255 0.79674 0.76185
 C831 C -0.04601 0.76270 0.76238
 C832 C -0.01190 0.76264 0.79634
 H833 H -0.03344 0.74277 0.74239
 H834 H 0.00785 0.74286 0.78371
 H835 H 0.02161 0.72909 0.72864
 H836 H 0.00744 0.78414 0.74226
 H837 H -0.01356 0.78137 0.71507
 H838 H 0.01229 0.78290 0.71603
 H839 H -0.00899 0.72523 0.79128
 H840 H 0.00793 0.70998 0.77505
 H841 H -0.04190 0.77395 0.72433
 H842 H -0.02503 0.72644 0.70722
 H843 H 0.02586 0.75969 0.79062
 H844 H 0.04000 0.74209 0.77573
 H845 H -0.02476 0.71030 0.74246
 H846 H -0.04064 0.72486 0.75907
 H847 H 0.04087 0.77507 0.74283
 H848 H 0.02477 0.79213 0.75931
 O849 O 0.00128 0.04061 0.01991
 O850 O -0.02476 0.03567 0.01782
 O851 O 0.01967 0.00047 0.04088
 O852 O 0.02029 -0.02472 0.03631
 O853 O 0.04111 0.01957 0.00094
 O854 O 0.03553 0.01848 -0.02571
 O855 O -0.01965 -0.04012 -0.00080
 O856 O -0.01669 -0.03587 0.02522
 O857 O -0.03944 -0.00139 -0.01979
 O858 O -0.03421 0.02620 -0.01876
 O859 O -0.00072 -0.01992 -0.03987
 O860 O 0.02654 -0.01914 -0.03466
 O861 O -0.00129 -0.04014 -0.01916
 O862 O 0.02709 -0.03452 -0.01749
 O863 O -0.01898 -0.00151 -0.04005
 O864 O -0.01726 0.02674 -0.03431
 O865 O -0.03937 -0.02005 -0.00172
 O866 O -0.03454 -0.01495 0.02598
 O867 O 0.01939 0.04080 0.00126
 O868 O 0.01822 0.03508 -0.02588
 O869 O 0.04120 0.00115 0.01928
 O870 O 0.03499 -0.02656 0.01680
 O871 O 0.00168 0.01920 0.04081
 O872 O -0.02584 0.01575 0.03471
 Zr873 Zr -0.00786 0.01838 0.01869
 O874 O -0.02250 0.00506 0.00494
 Zr875 Zr 0.01911 -0.00839 0.01853
 O876 O 0.00537 -0.02306 0.00525
 Zr877 Zr 0.01891 0.01858 -0.00822
 O878 O 0.00559 0.00492 -0.02296
 Zr879 Zr -0.01782 -0.01817 0.00874
 O880 O -0.00412 -0.00493 0.02371
 Zr881 Zr -0.01762 0.00860 -0.01826
 O882 O -0.00428 0.02347 -0.00458
 Zr883 Zr 0.00909 -0.01836 -0.01798
 O884 O 0.02408 -0.00469 -0.00470
 O885 O 0.01526 0.01473 0.01487
 O886 O -0.01407 -0.01462 -0.01449
 C887 C 0.01181 0.04726 0.01209
 C888 C 0.01216 0.01129 0.04741
 C889 C 0.04770 0.01187 0.01160
 C890 C -0.01227 -0.04653 -0.01176
 C891 C -0.04577 -0.01254 -0.01261
 C892 C -0.01162 -0.01254 -0.04636
 H893 H -0.03324 0.00747 0.00741
 H894 H 0.00814 0.00736 -0.03368
 H895 H 0.02178 0.02126 0.02144
 H896 H 0.00763 -0.03384 0.00785
 H897 H -0.01346 -0.03102 0.03494
 H898 H 0.01240 -0.03252 0.03411
 H899 H -0.00868 0.02490 -0.04142
 H900 H 0.00820 0.04026 -0.02509
 H901 H -0.04177 -0.02368 0.02547
 H902 H -0.02489 0.02385 0.04261
 H903 H 0.02617 -0.00943 -0.04045
 H904 H 0.04029 0.00821 -0.02551
 H905 H -0.02456 0.03994 0.00735
 H906 H -0.04039 0.02534 -0.00935
 H907 H 0.04108 -0.02469 0.00746
 H908 H 0.02503 -0.04180 -0.00909
 O909 O 0.00074 0.54077 0.51985
 O910 O -0.02530 0.53585 0.51784
 O911 O 0.01916 0.50060 0.54077
 O912 O 0.01972 0.47541 0.53620
 O913 O 0.04054 0.51966 0.50077
 O914 O 0.03489 0.51864 0.47416
 O915 O -0.02034 0.46009 0.49913
 O916 O -0.01729 0.46431 0.52518
 O917 O -0.04005 0.49881 0.48018
 O918 O -0.03482 0.52642 0.48127
 O919 O -0.00142 0.48027 0.46006
 O920 O 0.02587 0.48101 0.46525
 O921 O -0.00204 0.46006 0.48072
 O922 O 0.02637 0.46558 0.48238
 O923 O -0.01966 0.49871 0.45992
 O924 O -0.01789 0.52695 0.46568
 O925 O -0.03998 0.48014 0.49825
 O926 O -0.03512 0.48525 0.52596
 O927 O 0.01882 0.54095 0.50118
 O928 O 0.01759 0.53524 0.47403
 O929 O 0.04064 0.50123 0.51910
 O930 O 0.03437 0.47354 0.51665
 O931 O 0.00118 0.51935 0.54074
 O932 O -0.02636 0.51593 0.53470
 Zr933 Zr -0.00840 0.51854 0.51865
 O934 O -0.02309 0.50525 0.50492
 Zr935 Zr 0.01853 0.49174 0.51842
 O936 O 0.00474 0.47709 0.50517
 Zr937 Zr 0.01831 0.51873 0.49168
 O938 O 0.00495 0.50509 0.47697
 Zr939 Zr -0.01843 0.48202 0.50870
 O940 O -0.00468 0.49524 0.52365
 Zr941 Zr -0.01824 0.50880 0.48171
 O942 O -0.00487 0.52365 0.49537
 Zr943 Zr 0.00842 0.48180 0.48193
 O944 O 0.02346 0.49545 0.49518
 O945 O 0.01471 0.51487 0.51478
 O946 O -0.01472 0.48558 0.48547
 C947 C 0.01125 0.54743 0.51201
 C948 C 0.01167 0.51143 0.54732
 C949 C 0.04715 0.51193 0.51139
 C950 C -0.01304 0.45369 0.48811
 C951 C -0.04637 0.48764 0.48735
 C952 C -0.01233 0.48766 0.45360
 H953 H -0.03383 0.50767 0.50741
 H954 H 0.00749 0.50752 0.46624
 H955 H 0.02125 0.52139 0.52133
 H956 H 0.00699 0.46631 0.50775
 H957 H -0.01405 0.46916 0.53489
 H958 H 0.01181 0.46763 0.53403
 H959 H -0.00933 0.52510 0.45854
 H960 H 0.00759 0.54043 0.47486
 H961 H -0.04236 0.47653 0.52546
 H962 H -0.02538 0.52401 0.54261
 H963 H 0.02546 0.49069 0.45941
 H964 H 0.03960 0.50835 0.47430
 H965 H -0.02515 0.54009 0.50735
 H966 H -0.04104 0.52551 0.49065
 H967 H 0.04043 0.47538 0.50729
 H968 H 0.02429 0.45828 0.49076
 O969 O 0.54061 0.01986 0.50138
 O970 O 0.53567 0.01785 0.47531
 O971 O 0.50062 0.04086 0.51983
 O972 O 0.47552 0.03626 0.52059
 O973 O 0.51967 0.00071 0.54123
 O974 O 0.51854 -0.02594 0.53557
 O975 O 0.46007 -0.00071 0.48040
 O976 O 0.46433 0.02534 0.48346
 O977 O 0.49862 -0.01969 0.46054
 O978 O 0.52614 -0.01872 0.46576
 O979 O 0.48014 -0.03994 0.49926
 O980 O 0.48094 -0.03482 0.52657
 O981 O 0.46003 -0.01918 0.49873
 O982 O 0.46566 -0.01759 0.52717
 O983 O 0.49848 -0.04006 0.48095
 O984 O 0.52664 -0.03437 0.48269
 O985 O 0.48005 -0.00157 0.46066
 O986 O 0.48519 0.02616 0.46559
 O987 O 0.54080 0.00110 0.51945
 O988 O 0.53503 -0.02609 0.51820
 O989 O 0.50137 0.01912 0.54139
 O990 O 0.47370 0.01666 0.53520
 O991 O 0.51926 0.04081 0.50178
 O992 O 0.51584 0.03477 0.47424
 Zr993 Zr 0.51843 0.01868 0.49223
 O994 O 0.50511 0.00499 0.47755
 Zr995 Zr 0.49179 0.01846 0.51928
 O996 O 0.47711 0.00524 0.50548
 Zr997 Zr 0.51863 -0.00837 0.51897
 O998 O 0.50495 -0.02305 0.50561
 Zr999 Zr 0.48196 0.00882 0.48227
 O1000 O 0.49521 0.02372 0.49603
 Zr1001 Zr 0.50860 -0.01826 0.48238
 O1002 O 0.52347 -0.00464 0.49575
 Zr1003 Zr 0.48174 -0.01805 0.50914
 O1004 O 0.49544 -0.00484 0.52418
 O1005 O 0.51483 0.01479 0.51539
 O1006 O 0.48546 -0.01447 0.48595
 C1007 C 0.54725 0.01197 0.51188
 C1008 C 0.51137 0.04742 0.51227
 C1009 C 0.51204 0.01137 0.54787
 C1010 C 0.45366 -0.01173 0.48773
 C1011 C 0.48751 -0.01246 0.45422
 C1012 C 0.48747 -0.04639 0.48831
 H1013 H 0.50750 0.00751 0.46680
 H1014 H 0.50735 -0.03381 0.50814
 H1015 H 0.52136 0.02134 0.52192
 H1016 H 0.46637 0.00785 0.50776
 H1017 H 0.46919 0.03504 0.48673
 H1018 H 0.46778 0.03416 0.51262
 H1019 H 0.52481 -0.04152 0.49126
 H1020 H 0.54019 -0.02524 0.50818
 H1021 H 0.47648 0.02569 0.45835
 H1022 H 0.52394 0.04267 0.47520
 H1023 H 0.49062 -0.04063 0.52618
 H1024 H 0.50829 -0.02578 0.54032
 H1025 H 0.53989 0.00734 0.47548
 H1026 H 0.52528 -0.00928 0.45958
 H1027 H 0.47557 0.00729 0.54128
 H1028 H 0.45839 -0.00918 0.52511
 O1029 O 0.50089 0.54069 0.01997
 O1030 O 0.47483 0.53580 0.01793
 O1031 O 0.51923 0.50050 0.04093
 O1032 O 0.51986 0.47533 0.03636
 O1033 O 0.54063 0.51955 0.00089
 O1034 O 0.53497 0.51850 -0.02573
 O1035 O 0.47977 0.45998 -0.00066
 O1036 O 0.48280 0.46423 0.02536
 O1037 O 0.46002 0.49871 -0.01963
 O1038 O 0.46525 0.52629 -0.01861
 O1039 O 0.49870 0.48018 -0.03980
 O1040 O 0.52596 0.48087 -0.03458
 O1041 O 0.49808 0.45994 -0.01907
 O1042 O 0.52645 0.46546 -0.01746
 O1043 O 0.48046 0.49862 -0.03994
 O1044 O 0.48219 0.52684 -0.03416
 O1045 O 0.46009 0.48007 -0.00154
 O1046 O 0.46500 0.48518 0.02615
 O1047 O 0.51894 0.54083 0.00127
 O1048 O 0.51770 0.53511 -0.02586
 O1049 O 0.54075 0.50117 0.01925
 O1050 O 0.53448 0.47346 0.01681
 O1051 O 0.50125 0.51926 0.04089
 O1052 O 0.47373 0.51590 0.03482
 Zr1053 Zr 0.49170 0.51847 0.01878
 O1054 O 0.47701 0.50516 0.00507
 Zr1055 Zr 0.51864 0.49166 0.01858
 O1056 O 0.50484 0.47701 0.00534
 Zr1057 Zr 0.51841 0.51862 -0.00819
 O1058 O 0.50503 0.50497 -0.02288
 Zr1059 Zr 0.48167 0.48193 0.00887
 O1060 O 0.49542 0.49516 0.02379
 Zr1061 Zr 0.48184 0.50869 -0.01814
 O1062 O 0.49523 0.52354 -0.00450
 Zr1063 Zr 0.50851 0.48168 -0.01790
 O1064 O 0.52356 0.49534 -0.00467
 O1065 O 0.51481 0.51479 0.01492
 O1066 O 0.48536 0.48546 -0.01438
 C1067 C 0.51140 0.54732 0.01211
 C1068 C 0.51172 0.51132 0.04748
 C1069 C 0.54725 0.51185 0.01152
 C1070 C 0.48710 0.45356 -0.01165
 C1071 C 0.45368 0.48758 -0.01243
 C1072 C 0.48783 0.48761 -0.04628
 H1073 H 0.46628 0.50759 0.00757
 H1074 H 0.50758 0.50740 -0.03361
 H1075 H 0.52136 0.52131 0.02147
 H1076 H 0.50709 0.46623 0.00794
 H1077 H 0.48607 0.46908 0.03506
 H1078 H 0.51192 0.46757 0.03421
 H1079 H 0.49077 0.52503 -0.04127
 H1080 H 0.50770 0.54032 -0.02503
 H1081 H 0.45775 0.47647 0.02566
 H1082 H 0.47471 0.52400 0.04272
 H1083 H 0.52558 0.49056 -0.04040
 H1084 H 0.53972 0.50822 -0.02555
 H1085 H 0.47501 0.54005 0.00745
 H1086 H 0.45910 0.52545 -0.00918
 H1087 H 0.54054 0.47531 0.00745
 H1088 H 0.52441 0.45820 -0.00903
 O1089 O 0.70921 0.22988 0.50117
 O1090 O 0.71412 0.23185 0.47512
 O1091 O 0.74922 0.20879 0.51966
 O1092 O 0.77436 0.21330 0.52027
 O1093 O 0.73036 0.24888 0.54111
 O1094 O 0.73150 0.27554 0.53553
 O1095 O 0.78972 0.25039 0.48026
 O1096 O 0.78543 0.22431 0.48326
 O1097 O 0.75117 0.26947 0.46049
 O1098 O 0.72362 0.26842 0.46568
 O1099 O 0.76972 0.28959 0.49923
 O1100 O 0.76899 0.28439 0.52656
 O1101 O 0.78982 0.26884 0.49862
 O1102 O 0.78435 0.26721 0.52704
 O1103 O 0.75131 0.28975 0.48095
 O1104 O 0.72316 0.28406 0.48264
 O1105 O 0.76972 0.25132 0.46056
 O1106 O 0.76453 0.22358 0.46536
 O1107 O 0.70913 0.24859 0.51931
 O1108 O 0.71493 0.27575 0.51820
 O1109 O 0.74868 0.23049 0.54122
 O1110 O 0.77629 0.23287 0.53500
 O1111 O 0.73051 0.20887 0.50163
 O1112 O 0.73393 0.21490 0.47407
 Zr1113 Zr 0.73138 0.23100 0.49207
 O1114 O 0.74467 0.24470 0.47741
 Zr1115 Zr 0.75813 0.23115 0.51910
 O1116 O 0.77276 0.24439 0.50534
 Zr1117 Zr 0.73131 0.25801 0.51888
 O1118 O 0.74494 0.27271 0.50554
 Zr1119 Zr 0.76782 0.24086 0.48212
 O1120 O 0.75461 0.22593 0.49583
 Zr1121 Zr 0.74120 0.26795 0.48230
 O1122 O 0.72638 0.25432 0.49566
 Zr1123 Zr 0.76815 0.26768 0.50905
 O1124 O 0.75452 0.25444 0.52407
 O1125 O 0.73508 0.23486 0.51523
 O1126 O 0.76435 0.26414 0.48587
 C1127 C 0.70262 0.23778 0.51168
 C1128 C 0.73840 0.20226 0.51213
 C1129 C 0.73803 0.23822 0.54773
 C1130 C 0.79613 0.26141 0.48760
 C1131 C 0.76228 0.26227 0.45417
 C1132 C 0.76235 0.29607 0.48831
 H1133 H 0.74224 0.24221 0.46665
 H1134 H 0.74255 0.28346 0.50810
 H1135 H 0.72855 0.22832 0.52175
 H1136 H 0.78351 0.24178 0.50760
 H1137 H 0.78057 0.21460 0.48648
 H1138 H 0.78213 0.21548 0.51239
 H1139 H 0.72501 0.29118 0.49124
 H1140 H 0.70975 0.27496 0.50816
 H1141 H 0.77323 0.22406 0.45813
 H1142 H 0.72583 0.20700 0.47503
 H1143 H 0.75936 0.29026 0.52613
 H1144 H 0.74176 0.27535 0.54028
 H1145 H 0.70995 0.24237 0.47525
 H1146 H 0.72454 0.25905 0.45939
 H1147 H 0.77450 0.24227 0.54107
 H1148 H 0.79158 0.25877 0.52497
 O1149 O 0.77053 0.79100 -0.00118
 O1150 O 0.76857 0.78611 0.02493
 O1151 O 0.79100 0.75069 -0.01964
 O1152 O 0.78623 0.72554 -0.02024
 O1153 O 0.75117 0.77008 -0.04101
 O1154 O 0.72461 0.76929 -0.03541
 O1155 O 0.74915 0.71051 0.01980
 O1156 O 0.77513 0.71451 0.01701
 O1157 O 0.73046 0.74977 0.03971
 O1158 O 0.73211 0.77687 0.03457
 O1159 O 0.71029 0.73084 0.00075
 O1160 O 0.71540 0.73176 -0.02649
 O1161 O 0.73082 0.71055 0.00135
 O1162 O 0.73249 0.71618 -0.02708
 O1163 O 0.71058 0.74877 0.01954
 O1164 O 0.71583 0.77712 0.01494
 O1165 O 0.74825 0.73083 0.03953
 O1166 O 0.77610 0.73543 0.03478
 O1167 O 0.75182 0.79133 -0.01927
 O1168 O 0.72454 0.78576 -0.01809
 O1169 O 0.76932 0.75151 -0.04115
 O1170 O 0.76667 0.72380 -0.03489
 O1171 O 0.79118 0.76943 -0.00160
 O1172 O 0.78514 0.76600 0.02600
 Zr1173 Zr 0.76913 0.76880 0.00798
 O1174 O 0.75529 0.75563 0.02257
 Zr1175 Zr 0.76862 0.74201 -0.01902
 O1176 O 0.75529 0.72746 -0.00525
 Zr1177 Zr 0.74213 0.76921 -0.01877
 O1178 O 0.72735 0.75563 -0.00544
 Zr1179 Zr 0.75885 0.73238 0.01798
 O1180 O 0.77390 0.74544 0.00425
 Zr1181 Zr 0.73210 0.75937 0.01776
 O1182 O 0.74592 0.77411 0.00447
 Zr1183 Zr 0.73213 0.73232 -0.00901
 O1184 O 0.74544 0.74591 -0.02400
 O1185 O 0.76518 0.76516 -0.01516
 O1186 O 0.73572 0.73612 0.01415
 C1187 C 0.76274 0.79772 -0.01170
 C1188 C 0.79765 0.76147 -0.01212
 C1189 C 0.76170 0.76228 -0.04764
 C1190 C 0.73818 0.70414 0.01237
 C1191 C 0.73753 0.73852 0.04600
 C1192 C 0.70406 0.73798 0.01196
 H1193 H 0.75784 0.75801 0.03333
 H1194 H 0.71663 0.75823 -0.00784
 H1195 H 0.77176 0.77162 -0.02170
 H1196 H 0.75781 0.71666 -0.00751
 H1197 H 0.78485 0.71924 0.01369
 H1198 H 0.78411 0.71788 -0.01220
 H1199 H 0.70737 0.77548 0.02228
 H1200 H 0.72572 0.79137 -0.00832
 H1201 H 0.77536 0.72682 0.04212
 H1202 H 0.79317 0.77396 0.02502
 H1203 H 0.70970 0.74151 -0.02603
 H1204 H 0.72466 0.75901 -0.04017
 H1205 H 0.75822 0.79064 0.02463
 H1206 H 0.74176 0.77615 0.04040
 H1207 H 0.75739 0.72576 -0.04105
 H1208 H 0.74077 0.70878 -0.02497
 O1209 O 1.00098 0.20882 0.23011
 O1210 O 0.97494 0.21375 0.23208
 O1211 O 1.01945 0.24898 0.20922
 O1212 O 1.02008 0.27418 0.21380
 O1213 O 1.04083 0.22989 0.24923
 O1214 O 1.03525 0.23095 0.27585
 O1215 O 0.98013 0.28951 0.25080
 O1216 O 0.98312 0.28529 0.22475
 O1217 O 0.96034 0.25080 0.26971
 O1218 O 0.96550 0.22319 0.26863
 O1219 O 0.99903 0.26933 0.28990
 O1220 O 1.02632 0.26856 0.28478
 O1221 O 0.99846 0.28953 0.26924
 O1222 O 1.02685 0.28398 0.26764
 O1223 O 0.98074 0.25090 0.29000
 O1224 O 0.98245 0.22265 0.28425
 O1225 O 0.96043 0.26948 0.25165
 O1226 O 0.96523 0.26436 0.22394
 O1227 O 1.01908 0.20864 0.24882
 O1228 O 1.01790 0.21435 0.27596
 O1229 O 1.04096 0.24833 0.23091
 O1230 O 1.03478 0.27602 0.23337
 O1231 O 1.00143 0.23024 0.20922
 O1232 O 0.97390 0.23368 0.21521
 Zr1233 Zr 0.99188 0.23105 0.23130
 O1234 O 0.97725 0.24435 0.24500
 Zr1235 Zr 1.01888 0.25784 0.23157
 O1236 O 1.00515 0.27250 0.24481
 Zr1237 Zr 1.01863 0.23085 0.25831
 O1238 O 1.00532 0.24450 0.27300
 Zr1239 Zr 0.98196 0.26758 0.24123
 O1240 O 0.99565 0.25436 0.22631
 Zr1241 Zr 0.98212 0.24079 0.26822
 O1242 O 0.99544 0.22595 0.25458
 Zr1243 Zr 1.00885 0.26779 0.26805
 O1244 O 1.02384 0.25413 0.25482
 O1245 O 1.01500 0.23472 0.23520
 O1246 O 0.98570 0.26402 0.26447
 C1247 C 1.01149 0.20217 0.23796
 C1248 C 1.01193 0.23816 0.20266
 C1249 C 1.04744 0.23760 0.23861
 C1250 C 0.98747 0.29591 0.26182
 C1251 C 0.95404 0.26199 0.26255
 C1252 C 0.98810 0.26195 0.29634
 H1253 H 0.96650 0.24194 0.24249
 H1254 H 1.00787 0.24206 0.28374
 H1255 H 1.02151 0.22819 0.22866
 H1256 H 1.00742 0.28328 0.24223
 H1257 H 0.98634 0.28044 0.21505
 H1258 H 1.01221 0.28197 0.21598
 H1259 H 0.99101 0.22450 0.29141
 H1260 H 1.00789 0.20916 0.27512
 H1261 H 0.95801 0.27309 0.22444
 H1262 H 0.97485 0.22559 0.20730
 H1263 H 1.02588 0.25887 0.29061
 H1264 H 1.03999 0.24124 0.27571
 H1265 H 0.97510 0.20951 0.24257
 H1266 H 0.95927 0.22410 0.25923
 H1267 H 1.04085 0.27417 0.24274
 H1268 H 1.02479 0.29128 0.25924
 O1269 O 0.77043 0.95943 0.75110
 O1270 O 0.76843 0.96438 0.72501
 O1271 O 0.79125 0.99960 0.76968
 O1272 O 0.78668 1.02482 0.77016
 O1273 O 0.75137 0.98045 0.79099
 O1274 O 0.72478 0.98142 0.78534
 O1275 O 0.74964 1.04008 0.73018
 O1276 O 0.77562 1.03593 0.73320
 O1277 O 0.73081 1.00125 0.71030
 O1278 O 0.73192 0.97366 0.71550
 O1279 O 0.71060 1.01969 0.74903
 O1280 O 0.71579 1.01898 0.77636
 O1281 O 0.73125 1.04003 0.74851
 O1282 O 0.73283 1.03447 0.77690
 O1283 O 0.71052 1.00124 0.73075
 O1284 O 0.71635 0.97307 0.73242
 O1285 O 0.74881 1.01998 0.71041
 O1286 O 0.77647 1.01500 0.71531
 O1287 O 0.75178 0.95919 0.76920
 O1288 O 0.72467 0.96481 0.76800
 O1289 O 0.76962 0.99895 0.79114
 O1290 O 0.76715 1.02661 0.78493
 O1291 O 0.79126 0.98088 0.75162
 O1292 O 0.78527 0.98435 0.72404
 Zr1293 Zr 0.76921 0.98166 0.74199
 O1294 O 0.75549 0.99492 0.72730
 Zr1295 Zr 0.76893 1.00844 0.76901
 O1296 O 0.75566 1.02305 0.75523
 Zr1297 Zr 0.74227 0.98137 0.76873
 O1298 O 0.72756 0.99496 0.75536
 Zr1299 Zr 0.75921 1.01816 0.73202
 O1300 O 0.77416 1.00498 0.74576
 Zr1301 Zr 0.73232 0.99128 0.73213
 O1302 O 0.74597 0.97648 0.74551
 Zr1303 Zr 0.73246 1.01827 0.75889
 O1304 O 0.74572 1.00466 0.77393
 O1305 O 0.76533 0.98531 0.76513
 O1306 O 0.73600 1.01453 0.73570
 C1307 C 0.76262 0.95275 0.76161
 C1308 C 0.79780 0.98878 0.76217
 C1309 C 0.76196 0.98820 0.79762
 C1310 C 0.73866 1.04646 0.73755
 C1311 C 0.73797 1.01243 0.70397
 C1312 C 0.70415 1.01224 0.73812
 H1313 H 0.75799 0.99251 0.71655
 H1314 H 0.71685 0.99248 0.75790
 H1315 H 0.77187 0.97880 0.77168
 H1316 H 0.75822 1.03384 0.75751
 H1317 H 0.78532 1.03112 0.73646
 H1318 H 0.78440 1.03267 0.76236
 H1319 H 0.70926 0.97483 0.74103
 H1320 H 0.72550 0.95962 0.75797
 H1321 H 0.77596 1.02373 0.70808
 H1322 H 0.79317 0.97627 0.72500
 H1323 H 0.71000 1.00926 0.77594
 H1324 H 0.72493 0.99170 0.79010
 H1325 H 0.75798 0.96007 0.72518
 H1326 H 0.74130 0.97459 0.70930
 H1327 H 0.75777 1.02477 0.79095
 H1328 H 0.74125 1.04174 0.77490
 O1329 O 0.74905 0.54114 0.23002
 O1330 O 0.77508 0.53623 0.23206
 O1331 O 0.73057 0.50100 0.20903
 O1332 O 0.72994 0.47581 0.21357
 O1333 O 0.70919 0.52002 0.24906
 O1334 O 0.71483 0.51902 0.27567
 O1335 O 0.76992 0.46045 0.25065
 O1336 O 0.76691 0.46469 0.22461
 O1337 O 0.78972 0.49915 0.26968
 O1338 O 0.78456 0.52677 0.26860
 O1339 O 0.75104 0.48063 0.28975
 O1340 O 0.72373 0.48140 0.28452
 O1341 O 0.75160 0.46043 0.26905
 O1342 O 0.72323 0.46595 0.26741
 O1343 O 0.76931 0.49908 0.28992
 O1344 O 0.76763 0.52731 0.28419
 O1345 O 0.78961 0.48049 0.25159
 O1346 O 0.78480 0.48562 0.22388
 O1347 O 0.73095 0.54131 0.24867
 O1348 O 0.73216 0.53562 0.27581
 O1349 O 0.70905 0.50161 0.23071
 O1350 O 0.71527 0.47393 0.23309
 O1351 O 0.74861 0.51973 0.20910
 O1352 O 0.77612 0.51631 0.21517
 Zr1353 Zr 0.75815 0.51892 0.23121
 O1354 O 0.77280 0.50562 0.24493
 Zr1355 Zr 0.73115 0.49213 0.23137
 O1356 O 0.74489 0.47747 0.24463
 Zr1357 Zr 0.73141 0.51911 0.25815
 O1358 O 0.74474 0.50546 0.27286
 Zr1359 Zr 0.76808 0.48239 0.24111
 O1360 O 0.75438 0.49561 0.22618
 Zr1361 Zr 0.76794 0.50917 0.26813
 O1362 O 0.75461 0.52401 0.25449
 Zr1363 Zr 0.74121 0.48217 0.26787
 O1364 O 0.72622 0.49583 0.25462
 O1365 O 0.73502 0.51525 0.23504
 O1366 O 0.76436 0.48594 0.26435
 C1367 C 0.73854 0.54779 0.23785
 C1368 C 0.73811 0.51181 0.20250
 C1369 C 0.70256 0.51229 0.23844
 C1370 C 0.76259 0.45405 0.26165
 C1371 C 0.79601 0.48797 0.26251
 C1372 C 0.76196 0.48803 0.29622
 H1373 H 0.78354 0.50803 0.24245
 H1374 H 0.74220 0.50789 0.28359
 H1375 H 0.72850 0.52177 0.22849
 H1376 H 0.74262 0.46669 0.24202
 H1377 H 0.76369 0.46955 0.21490
 H1378 H 0.73783 0.46802 0.21575
 H1379 H 0.75904 0.52549 0.29129
 H1380 H 0.74217 0.54081 0.27500
 H1381 H 0.79201 0.47690 0.22438
 H1382 H 0.77517 0.52440 0.20727
 H1383 H 0.72421 0.49105 0.29042
 H1384 H 0.71011 0.50872 0.27554
 H1385 H 0.77493 0.54046 0.24256
 H1386 H 0.79080 0.52585 0.25923
 H1387 H 0.70923 0.47574 0.24248
 H1388 H 0.72528 0.45867 0.25899
 O1389 O 0.54103 0.22961 0.74952
 O1390 O 0.53609 0.23166 0.77559
 O1391 O 0.50104 0.20862 0.73093
 O1392 O 0.47592 0.21313 0.73030
 O1393 O 0.52002 0.24874 0.70955
 O1394 O 0.51908 0.27536 0.71520
 O1395 O 0.46054 0.25025 0.77023
 O1396 O 0.46478 0.22419 0.76730
 O1397 O 0.49915 0.26933 0.79014
 O1398 O 0.52664 0.26830 0.78505
 O1399 O 0.48074 0.28945 0.75131
 O1400 O 0.48150 0.28421 0.72401
 O1401 O 0.46054 0.26868 0.75187
 O1402 O 0.46612 0.26706 0.72349
 O1403 O 0.49912 0.28963 0.76964
 O1404 O 0.52727 0.28384 0.76803
 O1405 O 0.48053 0.25122 0.79003
 O1406 O 0.48563 0.22347 0.78524
 O1407 O 0.54123 0.24829 0.73137
 O1408 O 0.53557 0.27549 0.73260
 O1409 O 0.50166 0.23035 0.70939
 O1410 O 0.47406 0.23270 0.71557
 O1411 O 0.51968 0.20867 0.74904
 O1412 O 0.51621 0.21473 0.77660
 Zr1413 Zr 0.51886 0.23081 0.75860
 O1414 O 0.50559 0.24455 0.77322
 Zr1415 Zr 0.49219 0.23098 0.73151
 O1416 O 0.47756 0.24424 0.74523
 Zr1417 Zr 0.51910 0.25780 0.73181
 O1418 O 0.50547 0.27252 0.74510
 Zr1419 Zr 0.48243 0.24073 0.76847
 O1420 O 0.49562 0.22577 0.75478
 Zr1421 Zr 0.50914 0.26779 0.76835
 O1422 O 0.52396 0.25412 0.75505
 Zr1423 Zr 0.48225 0.26752 0.74153
 O1424 O 0.49590 0.25426 0.72656
 O1425 O 0.51524 0.23466 0.73543
 O1426 O 0.48598 0.26401 0.76473
 C1427 C 0.54767 0.23744 0.73899
 C1428 C 0.51182 0.20207 0.73850
 C1429 C 0.51231 0.23812 0.70290
 C1430 C 0.45415 0.26124 0.76284
 C1431 C 0.48801 0.26214 0.79645
 C1432 C 0.48814 0.29596 0.76222
 H1433 H 0.50798 0.24207 0.78399
 H1434 H 0.50791 0.28327 0.74254
 H1435 H 0.52174 0.22811 0.72890
 H1436 H 0.46682 0.24163 0.74294
 H1437 H 0.46962 0.21448 0.76408
 H1438 H 0.46815 0.21531 0.73818
 H1439 H 0.52547 0.29096 0.75943
 H1440 H 0.54078 0.27462 0.74261
 H1441 H 0.47693 0.22397 0.79246
 H1442 H 0.52429 0.20682 0.77567
 H1443 H 0.49114 0.29009 0.72446
 H1444 H 0.50881 0.27525 0.71045
 H1445 H 0.54034 0.24216 0.77542
 H1446 H 0.52579 0.25885 0.79122
 H1447 H 0.47587 0.24210 0.70952
 H1448 H 0.45886 0.25862 0.72551
 O1449 O 0.20909 0.73047 0.50102
 O1450 O 0.21400 0.73246 0.47496
 O1451 O 0.24911 0.70942 0.51951
 O1452 O 0.27423 0.71397 0.52019
 O1453 O 0.23017 0.74951 0.54096
 O1454 O 0.23129 0.77617 0.53537
 O1455 O 0.28959 0.75103 0.48017
 O1456 O 0.28531 0.72496 0.48316
 O1457 O 0.25105 0.77010 0.46034
 O1458 O 0.22352 0.76907 0.46551
 O1459 O 0.26956 0.79023 0.49914
 O1460 O 0.26884 0.78505 0.52643
 O1461 O 0.28967 0.76948 0.49853
 O1462 O 0.28414 0.76783 0.52697
 O1463 O 0.25119 0.79041 0.48082
 O1464 O 0.22302 0.78469 0.48248
 O1465 O 0.26960 0.75195 0.46043
 O1466 O 0.26443 0.72422 0.46524
 O1467 O 0.20897 0.74918 0.51915
 O1468 O 0.21474 0.77635 0.51801
 O1469 O 0.24851 0.73112 0.54108
 O1470 O 0.27613 0.73354 0.53489
 O1471 O 0.23041 0.70949 0.50147
 O1472 O 0.23382 0.71554 0.47391
 Zr1473 Zr 0.23126 0.73162 0.49192
 O1474 O 0.24455 0.74534 0.47727
 Zr1475 Zr 0.25798 0.73180 0.51897
 O1476 O 0.27262 0.74504 0.50522
 Zr1477 Zr 0.23114 0.75863 0.51872
 O1478 O 0.24478 0.77334 0.50540
 Zr1479 Zr 0.26770 0.74150 0.48200
 O1480 O 0.25449 0.72657 0.49570
 Zr1481 Zr 0.24107 0.76859 0.48215
 O1482 O 0.22624 0.75495 0.49549
 Zr1483 Zr 0.26800 0.76832 0.50894
 O1484 O 0.25434 0.75508 0.52394
 O1485 O 0.23493 0.73548 0.51508
 O1486 O 0.26422 0.76478 0.48574
 C1487 C 0.20248 0.73834 0.51153
 C1488 C 0.23830 0.70288 0.51197
 C1489 C 0.23784 0.73885 0.54758
 C1490 C 0.29601 0.76205 0.48753
 C1491 C 0.26216 0.76288 0.45403
 C1492 C 0.26220 0.79672 0.48821
 H1493 H 0.24213 0.74285 0.46651
 H1494 H 0.24238 0.78409 0.50796
 H1495 H 0.22841 0.72893 0.52160
 H1496 H 0.28336 0.74243 0.50750
 H1497 H 0.28045 0.71525 0.48637
 H1498 H 0.28198 0.71612 0.51228
 H1499 H 0.22486 0.79181 0.49108
 H1500 H 0.20956 0.77554 0.50797
 H1501 H 0.27313 0.72469 0.45802
 H1502 H 0.22574 0.70763 0.47486
 H1503 H 0.25917 0.79086 0.52605
 H1504 H 0.24154 0.77598 0.54014
 H1505 H 0.20982 0.74299 0.47510
 H1506 H 0.22440 0.75967 0.45926
 H1507 H 0.27430 0.74292 0.54098
 H1508 H 0.29141 0.75943 0.52488
 O1509 O 0.25103 0.26958 0.95917
 O1510 O 0.22498 0.26755 0.96402
 O1511 O 0.26943 0.29060 0.99930
 O1512 O 0.27004 0.28606 1.02446
 O1513 O 0.29080 0.25051 0.98033
 O1514 O 0.28517 0.22383 0.98142
 O1515 O 0.23000 0.24902 1.03973
 O1516 O 0.23303 0.27507 1.03548
 O1517 O 0.21022 0.22997 1.00103
 O1518 O 0.21544 0.23095 0.97350
 O1519 O 0.24891 0.20980 1.01965
 O1520 O 0.27615 0.21497 1.01899
 O1521 O 0.24832 0.23058 1.03982
 O1522 O 0.27672 0.23219 1.03431
 O1523 O 0.23064 0.20963 1.00121
 O1524 O 0.23238 0.21534 0.97302
 O1525 O 0.21030 0.24811 1.01964
 O1526 O 0.21519 0.27584 1.01453
 O1527 O 0.26910 0.25085 0.95907
 O1528 O 0.26786 0.22367 0.96479
 O1529 O 0.29092 0.26890 0.99870
 O1530 O 0.28469 0.26648 1.02636
 O1531 O 0.25145 0.29054 0.98054
 O1532 O 0.22391 0.28450 0.98389
 Zr1533 Zr 0.24187 0.26841 0.98135
 O1534 O 0.22720 0.25470 0.99461
 Zr1535 Zr 0.26883 0.26823 1.00816
 O1536 O 0.25505 0.25499 1.02278
 Zr1537 Zr 0.26859 0.24139 0.98125
 O1538 O 0.25523 0.22669 0.99487
 Zr1539 Zr 0.23187 0.25854 1.01781
 O1540 O 0.24561 0.27346 1.00462
 Zr1541 Zr 0.23203 0.23144 0.99112
 O1542 O 0.24540 0.24508 0.97630
 Zr1543 Zr 0.25873 0.23171 1.01812
 O1544 O 0.27376 0.24494 1.00450
 O1545 O 0.26498 0.26453 0.98507
 O1546 O 0.23558 0.23525 1.01431
 C1547 C 0.26155 0.26171 0.95257
 C1548 C 0.26194 0.29714 0.98847
 C1549 C 0.29741 0.26117 0.98802
 C1550 C 0.23735 0.23802 1.04616
 C1551 C 0.20389 0.23720 1.01214
 C1552 C 0.23801 0.20331 1.01224
 H1553 H 0.21646 0.25720 0.99217
 H1554 H 0.25777 0.21594 0.99245
 H1555 H 0.27152 0.27108 0.97856
 H1556 H 0.25731 0.25761 1.03354
 H1557 H 0.23628 0.28478 1.03063
 H1558 H 0.26214 0.28390 1.03221
 H1559 H 0.24094 0.20821 0.97487
 H1560 H 0.25786 0.22449 0.95958
 H1561 H 0.20796 0.27537 1.02323
 H1562 H 0.22489 0.29240 0.97580
 H1563 H 0.27581 0.20917 1.00928
 H1564 H 0.28993 0.22404 0.99168
 H1565 H 0.22516 0.25704 0.95978
 H1566 H 0.20928 0.24039 0.97433
 H1567 H 0.29077 0.25711 1.02452
 H1568 H 0.27466 0.24061 1.04159
 C1569 C 0.26342 0.41413 0.78181
 C1570 C 0.27544 0.40686 0.77422
 C1571 C 0.28268 0.41420 0.76200
 C1572 C 0.27811 0.42887 0.75755
 C1573 C 0.29617 0.35425 0.79480
 C1574 C 0.25882 0.42880 0.77739
 C1575 C 0.28078 0.39216 0.77940
 C1576 C 0.28545 0.38004 0.78401
 C1577 C 0.29114 0.36604 0.78970
 C1578 C 0.26622 0.43643 0.76530
 H1579 H 0.25777 0.40857 0.79131
 H1580 H 0.29204 0.40868 0.75607
 H1581 H 0.28408 0.43438 0.74822
 H1582 H 0.24965 0.43426 0.78363
 C1583 C 0.26368 -0.08571 0.28202
 C1584 C 0.27596 -0.09286 0.27474
 C1585 C 0.28334 -0.08551 0.26261
 C1586 C 0.27865 -0.07094 0.25795
 C1587 C 0.29717 -0.14490 0.29622
 C1588 C 0.25896 -0.07114 0.27739
 C1589 C 0.28143 -0.10741 0.28017
 C1590 C 0.28621 -0.11941 0.28499
 C1591 C 0.29203 -0.13325 0.29093
 C1592 C 0.26650 -0.06350 0.26540
 H1593 H 0.25792 -0.09128 0.29145
 H1594 H 0.29289 -0.09093 0.25692
 H1595 H 0.28473 -0.06541 0.24870
 H1596 H 0.24959 -0.06578 0.28340
 C1597 C 0.76352 0.91437 0.78191
 C1598 C 0.77578 0.90718 0.77462
 C1599 C 0.78337 0.91464 0.76270
 C1600 C 0.77889 0.92933 0.75823
 C1601 C 0.79620 0.85445 0.79514
 C1602 C 0.75901 0.92906 0.77747
 C1603 C 0.78099 0.89246 0.77983
 C1604 C 0.78558 0.88030 0.78443
 C1605 C 0.79120 0.86626 0.79008
 C1606 C 0.76674 0.93679 0.76567
 H1607 H 0.75759 0.90871 0.79119
 H1608 H 0.79291 0.90920 0.75701
 H1609 H 0.78512 0.93493 0.74912
 H1610 H 0.74963 0.93443 0.78346
 C1611 C 0.46622 0.83412 0.26373
 C1612 C 0.47362 0.84145 0.27588
 C1613 C 0.48589 0.83428 0.28320
 C1614 C 0.49065 0.81975 0.27851
 C1615 C 0.45334 0.89425 0.29635
 C1616 C 0.47096 0.81959 0.25901
 C1617 C 0.46834 0.85612 0.28115
 C1618 C 0.46376 0.86828 0.28576
 C1619 C 0.45823 0.88236 0.29138
 C1620 C 0.48318 0.81218 0.26641
 H1621 H 0.45668 0.83955 0.25801
 H1622 H 0.49166 0.83984 0.29266
 H1623 H 0.50006 0.81440 0.28450
 H1624 H 0.46492 0.81410 0.24968
 C1625 C -0.03442 0.83418 0.76426
 C1626 C -0.02695 0.84148 0.77640
 C1627 C -0.01454 0.83435 0.78351
 C1628 C -0.00969 0.81991 0.77863
 C1629 C -0.04728 0.89405 0.79751
 C1630 C -0.02960 0.81974 0.75935
 C1631 C -0.03230 0.85607 0.78186
 C1632 C -0.03689 0.86817 0.78663
 C1633 C -0.04242 0.88219 0.79241
 C1634 C -0.01722 0.81237 0.76654
 H1635 H -0.04407 0.83958 0.75870
 H1636 H -0.00870 0.83988 0.79295
 H1637 H -0.00016 0.81460 0.78446
 H1638 H -0.03570 0.81427 0.75005
 C1639 C -0.03395 -0.08413 -0.01400
 C1640 C -0.02644 -0.09145 -0.02606
 C1641 C -0.01406 -0.08429 -0.03318
 C1642 C -0.00930 -0.06978 -0.02840
 C1643 C -0.04655 -0.14427 -0.04686
 C1644 C -0.02922 -0.06961 -0.00918
 C1645 C -0.03170 -0.10612 -0.03142
 C1646 C -0.03624 -0.11828 -0.03611
 C1647 C -0.04171 -0.13237 -0.04182
 C1648 C -0.01688 -0.06221 -0.01638
 H1649 H -0.04358 -0.08956 -0.00844
 H1650 H -0.00819 -0.08984 -0.04256
 H1651 H 0.00020 -0.06443 -0.03423
 H1652 H -0.03535 -0.06413 0.00006
 C1653 C -0.01531 0.41615 0.46634
 C1654 C -0.02775 0.40906 0.47343
 C1655 C -0.03512 0.41635 0.48560
 C1656 C -0.03019 0.43075 0.49056
 C1657 C -0.04871 0.35678 0.45207
 C1658 C -0.01034 0.43055 0.47128
 C1659 C -0.03325 0.39455 0.46789
 C1660 C -0.03799 0.38251 0.46307
 C1661 C -0.04370 0.36857 0.45722
 C1662 C -0.01779 0.43808 0.48339
 H1663 H -0.00955 0.41063 0.45688
 H1664 H -0.04480 0.41099 0.49113
 H1665 H -0.03623 0.43621 0.49987
 H1666 H -0.00080 0.43584 0.46546
 C1667 C 0.46550 -0.08380 0.48600
 C1668 C 0.47279 -0.09107 0.47377
 C1669 C 0.48516 -0.08395 0.46659
 C1670 C 0.49012 -0.06954 0.47148
 C1671 C 0.45166 -0.14325 0.45239
 C1672 C 0.47043 -0.06939 0.49092
 C1673 C 0.46726 -0.10558 0.46826
 C1674 C 0.46249 -0.11759 0.46344
 C1675 C 0.45673 -0.13150 0.45757
 C1676 C 0.48274 -0.06202 0.48365
 H1677 H 0.45588 -0.08919 0.49161
 H1678 H 0.49086 -0.08945 0.45708
 H1679 H 0.49960 -0.06421 0.46559
 H1680 H 0.46445 -0.06394 0.50029
 C1681 C 0.48517 0.41583 -0.03310
 C1682 C 0.47277 0.40870 -0.02599
 C1683 C 0.46528 0.41605 -0.01393
 C1684 C 0.47007 0.43054 -0.00909
 C1685 C 0.45250 0.35596 -0.04686
 C1686 C 0.48999 0.43031 -0.02830
 C1687 C 0.46745 0.39406 -0.03137
 C1688 C 0.46287 0.38192 -0.03608
 C1689 C 0.45736 0.36785 -0.04180
 C1690 C 0.48244 0.43790 -0.01628
 H1691 H 0.49102 0.41026 -0.04248
 H1692 H 0.45563 0.41065 -0.00837
 H1693 H 0.46396 0.43604 0.00015
 H1694 H 0.49951 0.43563 -0.03412
 C1695 C 0.76457 0.33367 0.46670
 C1696 C 0.77696 0.34078 0.47391
 C1697 C 0.78430 0.33349 0.48611
 C1698 C 0.77939 0.31907 0.49099
 C1699 C 0.79797 0.39303 0.45269
 C1700 C 0.75963 0.31925 0.47155
 C1701 C 0.78245 0.35531 0.46843
 C1702 C 0.78720 0.36734 0.46365
 C1703 C 0.79293 0.38127 0.45783
 C1704 C 0.76706 0.31171 0.48369
 H1705 H 0.75883 0.33919 0.45721
 H1706 H 0.79393 0.33888 0.49174
 H1707 H 0.78540 0.31360 0.50033
 H1708 H 0.75014 0.31393 0.46564
 C1709 C 0.78382 0.83568 -0.01284
 C1710 C 0.77627 0.84317 -0.02478
 C1711 C 0.76393 0.83605 -0.03207
 C1712 C 0.75931 0.82140 -0.02761
 C1713 C 0.79702 0.89578 -0.04534
 C1714 C 0.77922 0.82103 -0.00834
 C1715 C 0.78159 0.85786 -0.03000
 C1716 C 0.78627 0.86999 -0.03461
 C1717 C 0.79197 0.88399 -0.04027
 C1718 C 0.76700 0.81364 -0.01578
 H1719 H 0.79342 0.84107 -0.00714
 H1720 H 0.75804 0.84173 -0.04137
 H1721 H 0.74987 0.81608 -0.03361
 H1722 H 0.78542 0.81541 0.00078
 C1723 C 0.76456 0.28427 0.41683
 C1724 C 0.77696 0.27715 0.40973
 C1725 C 0.78433 0.26492 0.41695
 C1726 C 0.77941 0.25992 0.43130
 C1727 C 0.79806 0.29822 0.35755
 C1728 C 0.75961 0.27929 0.43118
 C1729 C 0.78244 0.28269 0.39524
 C1730 C 0.78719 0.28745 0.38323
 C1731 C 0.79296 0.29319 0.36931
 C1732 C 0.76704 0.26710 0.43864
 H1733 H 0.75881 0.29378 0.41136
 H1734 H 0.79397 0.25936 0.41157
 H1735 H 0.78543 0.25054 0.43670
 H1736 H 0.75009 0.28512 0.43650
 C1737 C 0.78200 0.76308 -0.08593
 C1738 C 0.77473 0.77536 -0.09315
 C1739 C 0.76280 0.78299 -0.08576
 C1740 C 0.75832 0.77854 -0.07109
 C1741 C 0.79541 0.79573 -0.14576
 C1742 C 0.77754 0.75859 -0.07126
 C1743 C 0.77996 0.78056 -0.10785
 C1744 C 0.78460 0.78514 -0.11998
 C1745 C 0.79032 0.79074 -0.13398
 C1746 C 0.76575 0.76637 -0.06359
 H1747 H 0.79127 0.75712 -0.09153
 H1748 H 0.75713 0.79255 -0.09123
 H1749 H 0.74922 0.78480 -0.06554
 H1750 H 0.78353 0.74920 -0.06585
 C1751 C 0.28229 0.48704 0.83549
 C1752 C 0.27510 0.47471 0.84271
 C1753 C 0.26318 0.46700 0.83533
 C1754 C 0.25861 0.47144 0.82066
 C1755 C 0.29591 0.45449 0.89538
 C1756 C 0.27775 0.49151 0.82083
 C1757 C 0.28040 0.46954 0.85741
 C1758 C 0.28508 0.46501 0.86955
 C1759 C 0.29081 0.45945 0.88358
 C1760 C 0.26595 0.48366 0.81316
 H1761 H 0.29156 0.49305 0.84108
 H1762 H 0.25757 0.45740 0.84080
 H1763 H 0.24951 0.46513 0.81513
 H1764 H 0.28366 0.50095 0.81542
 C1765 C 0.26304 -0.03256 0.33512
 C1766 C 0.27523 -0.02512 0.34234
 C1767 C 0.28257 -0.01294 0.33501
 C1768 C 0.27794 -0.00839 0.32040
 C1769 C 0.29658 -0.04586 0.39459
 C1770 C 0.25838 -0.02804 0.32051
 C1771 C 0.28066 -0.03042 0.35694
 C1772 C 0.28547 -0.03508 0.36899
 C1773 C 0.29136 -0.04078 0.38289
 C1774 C 0.26589 -0.01599 0.31289
 H1775 H 0.25730 -0.04204 0.34067
 H1776 H 0.29205 -0.00713 0.34047
 H1777 H 0.28400 0.00091 0.31490
 H1778 H 0.24908 -0.03417 0.31508
 C1779 C -0.03311 -0.01475 -0.08402
 C1780 C -0.02582 -0.02707 -0.09115
 C1781 C -0.01363 -0.03439 -0.08384
 C1782 C -0.00883 -0.02951 -0.06938
 C1783 C -0.04653 -0.04780 -0.14373
 C1784 C -0.02834 -0.00985 -0.06957
 C1785 C -0.03117 -0.03251 -0.10575
 C1786 C -0.03583 -0.03721 -0.11785
 C1787 C -0.04150 -0.04285 -0.13188
 C1788 C -0.01620 -0.01723 -0.06201
 H1789 H -0.04259 -0.00903 -0.08956
 H1790 H -0.00794 -0.04397 -0.08924
 H1791 H 0.00052 -0.03549 -0.06392
 H1792 H -0.03430 -0.00040 -0.06424
 C1793 C -0.03403 0.48534 0.41608
 C1794 C -0.02679 0.47299 0.40895
 C1795 C -0.01454 0.46572 0.41620
 C1796 C -0.00964 0.47065 0.43060
 C1797 C -0.04798 0.45175 0.35679
 C1798 C -0.02917 0.49031 0.43048
 C1799 C -0.03227 0.46744 0.39445
 C1800 C -0.03704 0.46264 0.38244
 C1801 C -0.04284 0.45684 0.36853
 C1802 C -0.01697 0.48295 0.43797
 H1803 H -0.04356 0.49102 0.41058
 H1804 H -0.00888 0.45611 0.41080
 H1805 H -0.00026 0.46469 0.43603
 H1806 H -0.03510 0.49977 0.43581
 C1807 C 0.46577 -0.01466 0.41672
 C1808 C 0.47326 -0.02673 0.40938
 C1809 C 0.48560 -0.03395 0.41655
 C1810 C 0.49036 -0.02920 0.43105
 C1811 C 0.45317 -0.04681 0.35635
 C1812 C 0.47051 -0.00988 0.43122
 C1813 C 0.46803 -0.03198 0.39468
 C1814 C 0.46350 -0.03651 0.38248
 C1815 C 0.45801 -0.04199 0.36832
 C1816 C 0.48283 -0.01714 0.43860
 H1817 H 0.45618 -0.00902 0.41129
 H1818 H 0.49144 -0.04334 0.41098
 H1819 H 0.49985 -0.03507 0.43639
 H1820 H 0.46442 -0.00060 0.43669
 C1821 C 0.48605 0.46610 -0.08395
 C1822 C 0.47393 0.47350 -0.09128
 C1823 C 0.46659 0.48575 -0.08408
 C1824 C 0.47124 0.49050 -0.06954
 C1825 C 0.45380 0.45326 -0.14423
 C1826 C 0.49073 0.47081 -0.06940
 C1827 C 0.46873 0.46824 -0.10598
 C1828 C 0.46420 0.46367 -0.11817
 C1829 C 0.45869 0.45814 -0.13230
 C1830 C 0.48332 0.48302 -0.06197
 H1831 H 0.49178 0.45657 -0.08940
 H1832 H 0.45716 0.49154 -0.08965
 H1833 H 0.46525 0.49990 -0.06417
 H1834 H 0.50003 0.46477 -0.06392
 C1835 C 0.46563 0.76526 0.33326
 C1836 C 0.47303 0.77746 0.34052
 C1837 C 0.48546 0.78458 0.33343
 C1838 C 0.49039 0.77962 0.31907
 C1839 C 0.45206 0.79843 0.39279
 C1840 C 0.47052 0.76027 0.31889
 C1841 C 0.46759 0.78297 0.35503
 C1842 C 0.46286 0.78771 0.36706
 C1843 C 0.45712 0.79342 0.38100
 C1844 C 0.48292 0.76745 0.31157
 H1845 H 0.45596 0.75970 0.33862
 H1846 H 0.49125 0.79407 0.33894
 H1847 H 0.49993 0.78544 0.31378
 H1848 H 0.46447 0.75091 0.31346
 C1849 C -0.01386 0.78421 0.83397
 C1850 C -0.02600 0.77676 0.84124
 C1851 C -0.03327 0.76446 0.83401
 C1852 C -0.02855 0.75971 0.81951
 C1853 C -0.04648 0.79695 0.89401
 C1854 C -0.00911 0.77948 0.81947
 C1855 C -0.03129 0.78203 0.85589
 C1856 C -0.03591 0.78659 0.86803
 C1857 C -0.04152 0.79209 0.88211
 C1858 C -0.01646 0.76722 0.81201
 H1859 H -0.00818 0.79378 0.83945
 H1860 H -0.04271 0.75864 0.83951
 H1861 H -0.03449 0.75026 0.81412
 H1862 H 0.00020 0.78556 0.81405
 C1863 C 0.41627 0.78326 0.26456
 C1864 C 0.40920 0.77609 0.27698
 C1865 C 0.41652 0.76397 0.28442
 C1866 C 0.43093 0.75912 0.27959
 C1867 C 0.35680 0.79699 0.29752
 C1868 C 0.43068 0.77844 0.25970
 C1869 C 0.39465 0.78149 0.28236
 C1870 C 0.38259 0.78620 0.28700
 C1871 C 0.36861 0.79193 0.29260
 C1872 C 0.43824 0.76636 0.26722
 H1873 H 0.41073 0.79269 0.25874
 H1874 H 0.41116 0.75837 0.29408
 H1875 H 0.43641 0.74983 0.28568
 H1876 H 0.43596 0.78431 0.25017
 C1877 C -0.08366 0.76440 0.78373
 C1878 C -0.09083 0.77677 0.77654
 C1879 C -0.08349 0.78435 0.76453
 C1880 C -0.06900 0.77967 0.75979
 C1881 C -0.14391 0.79664 0.79630
 C1882 C -0.06916 0.75970 0.77902
 C1883 C -0.10553 0.78192 0.78173
 C1884 C -0.11775 0.78640 0.78619
 C1885 C -0.13192 0.79183 0.79157
 C1886 C -0.06161 0.76732 0.76703
 H1887 H -0.08922 0.75848 0.79307
 H1888 H -0.08892 0.79397 0.75891
 H1889 H -0.06353 0.78584 0.75056
 H1890 H -0.06382 0.75018 0.78488
 C1891 C 0.83332 0.26389 0.46550
 C1892 C 0.84062 0.27606 0.47292
 C1893 C 0.83361 0.28315 0.48541
 C1894 C 0.81926 0.27822 0.49036
 C1895 C 0.89266 0.29752 0.45194
 C1896 C 0.81897 0.25893 0.47043
 C1897 C 0.85508 0.28161 0.46742
 C1898 C 0.86706 0.28645 0.46267
 C1899 C 0.88094 0.29233 0.45696
 C1900 C 0.81170 0.26611 0.48287
 H1901 H 0.83863 0.25835 0.45579
 H1902 H 0.83914 0.29262 0.49121
 H1903 H 0.81402 0.28404 0.49994
 H1904 H 0.81348 0.24962 0.46435
 C1905 C 0.83592 0.78181 -0.01345
 C1906 C 0.84309 0.77422 -0.02555
 C1907 C 0.83568 0.76204 -0.03285
 C1908 C 0.82104 0.75763 -0.02825
 C1909 C 0.89536 0.79497 -0.04655
 C1910 C 0.82129 0.77743 -0.00882
 C1911 C 0.85771 0.77941 -0.03095
 C1912 C 0.86977 0.78405 -0.03568
 C1913 C 0.88367 0.78980 -0.04145
 C1914 C 0.81359 0.76539 -0.01628
 H1915 H 0.84153 0.79129 -0.00775
 H1916 H 0.84110 0.75612 -0.04227
 H1917 H 0.81547 0.74833 -0.03427
 H1918 H 0.81591 0.78367 0.00041
 C1919 C -0.08336 -0.01440 -0.03419
 C1920 C -0.09055 -0.02675 -0.02699
 C1921 C -0.08325 -0.03426 -0.01490
 C1922 C -0.06877 -0.02954 -0.01010
 C1923 C -0.14365 -0.04678 -0.04688
 C1924 C -0.06887 -0.00965 -0.02942
 C1925 C -0.10525 -0.03195 -0.03223
 C1926 C -0.11747 -0.03647 -0.03673
 C1927 C -0.13165 -0.04194 -0.04214
 C1928 C -0.06136 -0.01721 -0.01734
 H1929 H -0.08889 -0.00853 -0.04359
 H1930 H -0.08870 -0.04386 -0.00927
 H1931 H -0.06333 -0.03565 -0.00080
 H1932 H -0.06351 -0.00015 -0.03528
 C1933 C -0.08364 0.46559 0.48471
 C1934 C -0.09087 0.47302 0.47253
 C1935 C -0.08375 0.48546 0.46543
 C1936 C -0.06938 0.49038 0.47039
 C1937 C -0.14320 0.45205 0.45163
 C1938 C -0.06927 0.47047 0.48969
 C1939 C -0.10539 0.46758 0.46704
 C1940 C -0.11743 0.46285 0.46231
 C1941 C -0.13139 0.45712 0.45662
 C1942 C -0.06191 0.48289 0.48253
 H1943 H -0.08903 0.45591 0.49026
 H1944 H -0.08923 0.49127 0.45596
 H1945 H -0.06406 0.49994 0.46458
 H1946 H -0.06386 0.46440 0.49903
 C1947 C 0.41625 -0.01387 0.46587
 C1948 C 0.40895 -0.02605 0.47324
 C1949 C 0.41608 -0.03330 0.48559
 C1950 C 0.43051 -0.02850 0.49048
 C1951 C 0.35639 -0.04677 0.45261
 C1952 C 0.43068 -0.00903 0.47073
 C1953 C 0.39436 -0.03142 0.46784
 C1954 C 0.38227 -0.03610 0.46317
 C1955 C 0.36825 -0.04176 0.45755
 C1956 C 0.43804 -0.01635 0.48304
 H1957 H 0.41085 -0.00821 0.45626
 H1958 H 0.41055 -0.04278 0.49135
 H1959 H 0.43583 -0.03442 0.49996
 H1960 H 0.43614 0.00031 0.46470
 C1961 C 0.41619 0.46586 -0.01470
 C1962 C 0.40888 0.47339 -0.02677
 C1963 C 0.41606 0.48575 -0.03396
 C1964 C 0.43055 0.49050 -0.02919
 C1965 C 0.35581 0.45337 -0.04674
 C1966 C 0.43068 0.47057 -0.00990
 C1967 C 0.39418 0.46818 -0.03201
 C1968 C 0.38197 0.46367 -0.03653
 C1969 C 0.36780 0.45820 -0.04196
 C1970 C 0.43808 0.48292 -0.01714
 H1971 H 0.41075 0.45624 -0.00908
 H1972 H 0.41051 0.49163 -0.04334
 H1973 H 0.43590 0.50001 -0.03505
 H1974 H 0.43613 0.46445 -0.00063
 C1975 C 0.33565 0.48735 0.78237
 C1976 C 0.34297 0.47530 0.77481
 C1977 C 0.33571 0.46796 0.76259
 C1978 C 0.32107 0.47245 0.75809
 C1979 C 0.39536 0.45438 0.79542
 C1980 C 0.32100 0.49187 0.77789
 C1981 C 0.35762 0.47001 0.78006
 C1982 C 0.36971 0.46531 0.78468
 C1983 C 0.38364 0.45953 0.79035
 C1984 C 0.31346 0.48436 0.76580
 H1985 H 0.34115 0.49308 0.79188
 H1986 H 0.34126 0.45858 0.75669
 H1987 H 0.31562 0.46640 0.74875
 H1988 H 0.31550 0.50106 0.78410
 C1989 C 0.33541 -0.01239 0.28231
 C1990 C 0.34280 -0.02440 0.27476
 C1991 C 0.33561 -0.03174 0.26249
 C1992 C 0.32097 -0.02728 0.25794
 C1993 C 0.39510 -0.04526 0.29564
 C1994 C 0.32077 -0.00791 0.27779
 C1995 C 0.35743 -0.02967 0.28007
 C1996 C 0.36950 -0.03434 0.28475
 C1997 C 0.38341 -0.04010 0.29051
 C1998 C 0.31329 -0.01542 0.26565
 H1999 H 0.34086 -0.00666 0.29186
 H2000 H 0.34121 -0.04108 0.25660
 H2001 H 0.31557 -0.03333 0.24857
 H2002 H 0.31522 0.00125 0.28400
 C2003 C 0.16635 0.51454 0.71621
 C2004 C 0.15908 0.52662 0.72376
 C2005 C 0.16632 0.53382 0.73609
 C2006 C 0.18082 0.52906 0.74078
 C2007 C 0.10601 0.54655 0.70388
 C2008 C 0.18085 0.50975 0.72087
 C2009 C 0.14438 0.53186 0.71861
 C2010 C 0.13217 0.53637 0.71413
 C2011 C 0.11800 0.54179 0.70869
 C2012 C 0.18830 0.51700 0.73318
 H2013 H 0.16087 0.50890 0.70662
 H2014 H 0.16081 0.54322 0.74199
 H2015 H 0.18621 0.53493 0.75027
 H2016 H 0.18626 0.50046 0.71473
 C2017 C 0.16585 0.01363 0.21675
 C2018 C 0.15867 0.02597 0.22396
 C2019 C 0.16602 0.03357 0.23598
 C2020 C 0.18056 0.02895 0.24070
 C2021 C 0.10561 0.04565 0.20376
 C2022 C 0.18039 0.00899 0.22144
 C2023 C 0.14395 0.03110 0.21873
 C2024 C 0.13174 0.03554 0.21417
 C2025 C 0.11758 0.04091 0.20864
 C2026 C 0.18796 0.01664 0.23343
 H2027 H 0.16028 0.00770 0.20740
 H2028 H 0.16058 0.04317 0.24161
 H2029 H 0.18605 0.03514 0.24993
 H2030 H 0.18574 -0.00050 0.21555
 C2031 C 0.58543 0.71749 0.23726
 C2032 C 0.59282 0.72525 0.22540
 C2033 C 0.58560 0.73759 0.21821
 C2034 C 0.57094 0.74200 0.22268
 C2035 C 0.64548 0.70526 0.20469
 C2036 C 0.57076 0.72188 0.24176
 C2037 C 0.60753 0.72015 0.22016
 C2038 C 0.61967 0.71566 0.21551
 C2039 C 0.63368 0.71016 0.20979
 C2040 C 0.56327 0.73410 0.23441
 H2041 H 0.59090 0.70789 0.24287
 H2042 H 0.59121 0.74364 0.20898
 H2043 H 0.56554 0.75144 0.21676
 H2044 H 0.56521 0.71552 0.25081
 C2045 C 0.08558 0.71781 0.73783
 C2046 C 0.09297 0.72530 0.72580
 C2047 C 0.08576 0.73749 0.71836
 C2048 C 0.07111 0.74202 0.72275
 C2049 C 0.14555 0.70476 0.70540
 C2050 C 0.07093 0.72232 0.74226
 C2051 C 0.10765 0.72004 0.72064
 C2052 C 0.11977 0.71542 0.71607
 C2053 C 0.13377 0.70977 0.71044
 C2054 C 0.06344 0.73439 0.73466
 H2055 H 0.09104 0.70832 0.74364
 H2056 H 0.09136 0.74334 0.70899
 H2057 H 0.06571 0.75134 0.71664
 H2058 H 0.06539 0.71616 0.75145
 C2059 C 0.66421 0.23737 0.53171
 C2060 C 0.65691 0.22516 0.52436
 C2061 C 0.66433 0.21740 0.51252
 C2062 C 0.67908 0.22168 0.50818
 C2063 C 0.60369 0.20571 0.54420
 C2064 C 0.67897 0.24168 0.52740
 C2065 C 0.64208 0.22020 0.52938
 C2066 C 0.62981 0.21584 0.53383
 C2067 C 0.61563 0.21049 0.53931
 C2068 C 0.68665 0.23379 0.51567
 H2069 H 0.65859 0.24343 0.54093
 H2070 H 0.65880 0.20790 0.50678
 H2071 H 0.68463 0.21534 0.49912
 H2072 H 0.68442 0.25104 0.53343
 C2073 C 0.66668 0.73573 0.03374
 C2074 C 0.65926 0.72376 0.02613
 C2075 C 0.66634 0.71662 0.01370
 C2076 C 0.68083 0.72135 0.00896
 C2077 C 0.60618 0.70391 0.04603
 C2078 C 0.68117 0.74049 0.02904
 C2079 C 0.64456 0.71855 0.03131
 C2080 C 0.63235 0.71407 0.03580
 C2081 C 0.61818 0.70866 0.04123
 C2082 C 0.68846 0.73331 0.01662
 H2083 H 0.66133 0.74131 0.04341
 H2084 H 0.66071 0.70731 0.00775
 H2085 H 0.68609 0.71553 -0.00060
 H2086 H 0.68671 0.74970 0.03523
 C2087 C 0.08567 0.03281 0.01295
 C2088 C 0.09302 0.02527 0.02499
 C2089 C 0.08582 0.01295 0.03224
 C2090 C 0.07123 0.00835 0.02766
 C2091 C 0.14525 0.04604 0.04628
 C2092 C 0.07107 0.02824 0.00833
 C2093 C 0.10761 0.03060 0.03038
 C2094 C 0.11966 0.03527 0.03516
 C2095 C 0.13356 0.04097 0.04104
 C2096 C 0.06359 0.01605 0.01575
 H2097 H 0.09112 0.04240 0.00729
 H2098 H 0.09139 0.00706 0.04161
 H2099 H 0.06583 -0.00106 0.03363
 H2100 H 0.06555 0.03444 -0.00085
 C2101 C 0.08545 0.51277 0.53170
 C2102 C 0.09270 0.52497 0.52432
 C2103 C 0.08531 0.53254 0.51232
 C2104 C 0.07062 0.52811 0.50788
 C2105 C 0.14545 0.54517 0.54484
 C2106 C 0.07077 0.50831 0.52729
 C2107 C 0.10743 0.53014 0.52949
 C2108 C 0.11960 0.53468 0.53409
 C2109 C 0.13364 0.54023 0.53976
 C2110 C 0.06309 0.51602 0.51542
 H2111 H 0.09106 0.50686 0.54104
 H2112 H 0.09080 0.54204 0.50656
 H2113 H 0.06507 0.53432 0.49872
 H2114 H 0.06534 0.49897 0.53336
 C2115 C 0.58535 0.03268 0.51297
 C2116 C 0.59276 0.02506 0.52492
 C2117 C 0.58554 0.01279 0.53223
 C2118 C 0.57087 0.00831 0.52778
 C2119 C 0.64547 0.04544 0.54540
 C2120 C 0.57068 0.02822 0.50849
 C2121 C 0.60747 0.03025 0.53013
 C2122 C 0.61963 0.03483 0.53472
 C2123 C 0.63366 0.04044 0.54036
 C2124 C 0.56319 0.01607 0.51595
 H2125 H 0.59082 0.04222 0.50726
 H2126 H 0.59116 0.00685 0.54154
 H2127 H 0.56547 -0.00108 0.53379
 H2128 H 0.56513 0.03447 0.49935
 C2129 C 0.58555 0.51285 0.03184
 C2130 C 0.59280 0.52498 0.02435
 C2131 C 0.58541 0.53246 0.01229
 C2132 C 0.57072 0.52798 0.00788
 C2133 C 0.64556 0.54544 0.04460
 C2134 C 0.57086 0.50835 0.02746
 C2135 C 0.60753 0.53020 0.02947
 C2136 C 0.61970 0.53480 0.03401
 C2137 C 0.63374 0.54043 0.03959
 C2138 C 0.56319 0.51597 0.01553
 H2139 H 0.59115 0.50702 0.04122
 H2140 H 0.59090 0.54190 0.00644
 H2141 H 0.56518 0.53412 -0.00133
 H2142 H 0.56543 0.49907 0.03361
 C2143 C 0.03263 0.01199 0.08569
 C2144 C 0.02533 0.02421 0.09299
 C2145 C 0.01333 0.03182 0.08565
 C2146 C 0.00881 0.02740 0.07096
 C2147 C 0.04586 0.04467 0.14571
 C2148 C 0.02813 0.00755 0.07100
 C2149 C 0.03059 0.02939 0.10771
 C2150 C 0.03520 0.03397 0.11987
 C2151 C 0.04085 0.03962 0.13390
 C2152 C 0.01626 0.01531 0.06338
 H2153 H 0.04196 0.00606 0.09125
 H2154 H 0.00764 0.04132 0.09118
 H2155 H -0.00035 0.03364 0.06546
 H2156 H 0.03414 -0.00179 0.06553
 C2157 C 0.01290 0.53193 0.58556
 C2158 C 0.02492 0.52434 0.59287
 C2159 C 0.03222 0.51213 0.58555
 C2160 C 0.02769 0.50769 0.57087
 C2161 C 0.04559 0.54490 0.64549
 C2162 C 0.00835 0.52751 0.57088
 C2163 C 0.03021 0.52953 0.60757
 C2164 C 0.03486 0.53413 0.61971
 C2165 C 0.04054 0.53982 0.63371
 C2166 C 0.01580 0.51544 0.56328
 H2167 H 0.00720 0.54143 0.59111
 H2168 H 0.04157 0.50621 0.59109
 H2169 H 0.03370 0.49836 0.56538
 H2170 H -0.00083 0.53375 0.56541
 C2171 C 0.53286 0.01222 0.58595
 C2172 C 0.52549 0.02432 0.59336
 C2173 C 0.51333 0.03180 0.58615
 C2174 C 0.50873 0.02738 0.57149
 C2175 C 0.54622 0.04474 0.64602
 C2176 C 0.52828 0.00777 0.57129
 C2177 C 0.53081 0.02949 0.60806
 C2178 C 0.53548 0.03407 0.62020
 C2179 C 0.54118 0.03970 0.63422
 C2180 C 0.51625 0.01540 0.56381
 H2181 H 0.54232 0.00638 0.59141
 H2182 H 0.50757 0.04122 0.59177
 H2183 H 0.49944 0.03353 0.56610
 H2184 H 0.53435 -0.00148 0.56573
 C2185 C 0.53194 0.51177 0.08589
 C2186 C 0.52455 0.52389 0.09325
 C2187 C 0.51260 0.53154 0.08588
 C2188 C 0.50821 0.52726 0.07111
 C2189 C 0.54435 0.54381 0.14645
 C2190 C 0.52758 0.50746 0.07112
 C2191 C 0.52962 0.52890 0.10809
 C2192 C 0.53407 0.53336 0.12035
 C2193 C 0.53951 0.53887 0.13452
 C2194 C 0.51575 0.51525 0.06349
 H2195 H 0.54124 0.50580 0.09148
 H2196 H 0.50683 0.54098 0.09146
 H2197 H 0.49908 0.53353 0.06560
 H2198 H 0.53365 0.49818 0.06561
 C2199 C 0.21567 0.51347 0.66608
 C2200 C 0.22321 0.52550 0.65870
 C2201 C 0.23554 0.53275 0.66587
 C2202 C 0.24025 0.52809 0.68041
 C2203 C 0.20357 0.54561 0.60553
 C2204 C 0.22035 0.50878 0.68063
 C2205 C 0.21805 0.53069 0.64396
 C2206 C 0.21362 0.53522 0.63172
 C2207 C 0.20828 0.54073 0.61753
 C2208 C 0.23266 0.51609 0.68802
 H2209 H 0.20607 0.50781 0.66065
 H2210 H 0.24144 0.54210 0.66027
 H2211 H 0.24974 0.53400 0.68574
 H2212 H 0.21421 0.49955 0.68614
 C2213 C 0.23531 0.03293 0.16553
 C2214 C 0.22296 0.02564 0.15843
 C2215 C 0.21559 0.01349 0.16579
 C2216 C 0.22045 0.00873 0.18026
 C2217 C 0.20247 0.04636 0.10581
 C2218 C 0.24019 0.02820 0.18000
 C2219 C 0.21756 0.03096 0.14382
 C2220 C 0.21293 0.03563 0.13171
 C2221 C 0.20736 0.04132 0.11767
 C2222 C 0.23275 0.01610 0.18759
 H2223 H 0.24106 0.04238 0.15996
 H2224 H 0.20599 0.00780 0.16041
 H2225 H 0.21443 -0.00059 0.18577
 H2226 H 0.24966 0.03416 0.18529
 C2227 C 0.71741 0.23722 0.58585
 C2228 C 0.72493 0.22518 0.59323
 C2229 C 0.73710 0.21780 0.58599
 C2230 C 0.74159 0.22225 0.57133
 C2231 C 0.70471 0.20448 0.64589
 C2232 C 0.72187 0.24171 0.57118
 C2233 C 0.71974 0.21996 0.60793
 C2234 C 0.71519 0.21531 0.62008
 C2235 C 0.70964 0.20959 0.63409
 C2236 C 0.73393 0.23416 0.56366
 H2237 H 0.70794 0.24299 0.59133
 H2238 H 0.74297 0.20843 0.59159
 H2239 H 0.75089 0.21618 0.56591
 H2240 H 0.71570 0.25090 0.56564
 C2241 C 0.71617 0.73693 0.08369
 C2242 C 0.72330 0.72455 0.09090
 C2243 C 0.73527 0.71692 0.08357
 C2244 C 0.74003 0.72156 0.06905
 C2245 C 0.70348 0.70469 0.14405
 C2246 C 0.72090 0.74161 0.06917
 C2247 C 0.71808 0.71941 0.10562
 C2248 C 0.71360 0.71494 0.11785
 C2249 C 0.70821 0.70951 0.13204
 C2250 C 0.73285 0.73393 0.06163
 H2251 H 0.70686 0.74289 0.08925
 H2252 H 0.74084 0.70729 0.08903
 H2253 H 0.74923 0.71537 0.06360
 H2254 H 0.71509 0.75114 0.06381
 C2255 C 0.51313 0.71828 0.16417
 C2256 C 0.52524 0.72582 0.15696
 C2257 C 0.53263 0.73794 0.16436
 C2258 C 0.52812 0.74235 0.17903
 C2259 C 0.54585 0.70545 0.10433
 C2260 C 0.50859 0.72267 0.17885
 C2261 C 0.53050 0.72067 0.14226
 C2262 C 0.53514 0.71611 0.13012
 C2263 C 0.54082 0.71049 0.11611
 C2264 C 0.51614 0.73467 0.18653
 H2265 H 0.50736 0.70885 0.15856
 H2266 H 0.54205 0.74382 0.15889
 H2267 H 0.53420 0.75162 0.18459
 H2268 H 0.49935 0.71648 0.18426
 C2269 C 0.01289 0.71884 0.66425
 C2270 C 0.02494 0.72639 0.65696
 C2271 C 0.03240 0.73848 0.66436
 C2272 C 0.02801 0.74285 0.67909
 C2273 C 0.04478 0.70619 0.60395
 C2274 C 0.00847 0.72318 0.67897
 C2275 C 0.03004 0.72131 0.64218
 C2276 C 0.03450 0.71678 0.62996
 C2277 C 0.03994 0.71119 0.61584
 C2278 C 0.01607 0.73515 0.68664
 H2279 H 0.00706 0.70944 0.65864
 H2280 H 0.04178 0.74438 0.65884
 H2281 H 0.03413 0.75209 0.68463
 H2282 H -0.00075 0.71698 0.68442
 C2283 C 0.51194 0.66418 0.21785
 C2284 C 0.52402 0.65683 0.22531
 C2285 C 0.53164 0.66422 0.23729
 C2286 C 0.52736 0.67900 0.24166
 C2287 C 0.54389 0.60358 0.20560
 C2288 C 0.50763 0.67897 0.22219
 C2289 C 0.52902 0.64198 0.22026
 C2290 C 0.53347 0.62970 0.21583
 C2291 C 0.53897 0.61552 0.21042
 C2292 C 0.51539 0.68662 0.23406
 H2293 H 0.50600 0.65858 0.20853
 H2294 H 0.54104 0.65865 0.24311
 H2295 H 0.53360 0.68453 0.25083
 H2296 H 0.49839 0.68447 0.21608
 C2297 C 0.01288 0.66494 0.71707
 C2298 C 0.02475 0.65751 0.72478
 C2299 C 0.03193 0.66471 0.73714
 C2300 C 0.02745 0.67939 0.74163
 C2301 C 0.04544 0.60476 0.70457
 C2302 C 0.00836 0.67962 0.72153
 C2303 C 0.03000 0.64278 0.71961
 C2304 C 0.03465 0.63062 0.71507
 C2305 C 0.04036 0.61658 0.70951
 C2306 C 0.01570 0.68710 0.73377
 H2307 H 0.00727 0.65948 0.70745
 H2308 H 0.04117 0.65908 0.74316
 H2309 H 0.03336 0.68478 0.75108
 H2310 H -0.00070 0.68520 0.71521
 C2311 C 0.01305 0.08538 0.03292
 C2312 C 0.02499 0.09281 0.02532
 C2313 C 0.03222 0.08560 0.01302
 C2314 C 0.02772 0.07093 0.00849
 C2315 C 0.04579 0.14547 0.04581
 C2316 C 0.00852 0.07071 0.02841
 C2317 C 0.03027 0.10751 0.03056
 C2318 C 0.03493 0.11966 0.03517
 C2319 C 0.04067 0.13367 0.04080
 C2320 C 0.01591 0.06322 0.01623
 H2321 H 0.00741 0.09084 0.04248
 H2322 H 0.04151 0.09123 0.00709
 H2323 H 0.03368 0.06553 -0.00092
 H2324 H -0.00059 0.06514 0.03465
 C2325 C 0.01230 0.58567 0.53263
 C2326 C 0.02419 0.59312 0.52498
 C2327 C 0.03150 0.58587 0.51276
 C2328 C 0.02710 0.57113 0.50832
 C2329 C 0.04432 0.64629 0.54488
 C2330 C 0.00787 0.57093 0.52822
 C2331 C 0.02931 0.60794 0.53008
 C2332 C 0.03382 0.62019 0.53456
 C2333 C 0.03936 0.63435 0.54002
 C2334 C 0.01531 0.56341 0.51610
 H2335 H 0.00660 0.59116 0.54214
 H2336 H 0.04075 0.59152 0.50679
 H2337 H 0.03309 0.56571 0.49896
 H2338 H -0.00122 0.56535 0.53448
 C2339 C 0.51193 0.08591 0.53243
 C2340 C 0.52394 0.09329 0.52491
 C2341 C 0.53149 0.08591 0.51291
 C2342 C 0.52721 0.07111 0.50859
 C2343 C 0.54391 0.14661 0.54446
 C2344 C 0.50762 0.07110 0.52814
 C2345 C 0.52896 0.10817 0.52990
 C2346 C 0.53343 0.12047 0.53429
 C2347 C 0.53895 0.13466 0.53966
 C2348 C 0.51531 0.06345 0.51625
 H2349 H 0.50604 0.09150 0.54177
 H2350 H 0.54083 0.09151 0.50704
 H2351 H 0.53339 0.06559 0.49941
 H2352 H 0.49843 0.06557 0.53430
 C2353 C 0.51278 0.58550 0.03282
 C2354 C 0.52464 0.59292 0.02508
 C2355 C 0.53177 0.58568 0.01274
 C2356 C 0.52725 0.57099 0.00830
 C2357 C 0.54550 0.64570 0.04518
 C2358 C 0.50823 0.57080 0.02841
 C2359 C 0.52993 0.60765 0.03021
 C2360 C 0.53462 0.61982 0.03472
 C2361 C 0.54038 0.63387 0.04024
 C2362 C 0.51552 0.56329 0.01618
 H2363 H 0.50722 0.59098 0.04242
 H2364 H 0.54099 0.59131 0.00670
 H2365 H 0.53312 0.56558 -0.00114
 H2366 H 0.49919 0.56523 0.03475
 C2367 C 0.73756 0.16397 0.53262
 C2368 C 0.72538 0.15667 0.52525
 C2369 C 0.71784 0.16401 0.51321
 C2370 C 0.72229 0.17870 0.50870
 C2371 C 0.70476 0.10400 0.54580
 C2372 C 0.74204 0.17867 0.52814
 C2373 C 0.72016 0.14195 0.53050
 C2374 C 0.71554 0.12981 0.53511
 C2375 C 0.70984 0.11579 0.54076
 C2376 C 0.73435 0.18629 0.51622
 H2377 H 0.74345 0.15841 0.54200
 H2378 H 0.70836 0.15848 0.50745
 H2379 H 0.71610 0.18420 0.49950
 H2380 H 0.75135 0.18414 0.53420
 C2381 C 0.71675 0.66637 0.01404
 C2382 C 0.72403 0.65911 0.02629
 C2383 C 0.73613 0.66641 0.03380
 C2384 C 0.74087 0.68097 0.02917
 C2385 C 0.70405 0.60583 0.04593
 C2386 C 0.72146 0.68094 0.00938
 C2387 C 0.71883 0.64434 0.03141
 C2388 C 0.71432 0.63208 0.03584
 C2389 C 0.70887 0.61786 0.04120
 C2390 C 0.73354 0.68845 0.01694
 H2391 H 0.70735 0.66084 0.00817
 H2392 H 0.74181 0.66090 0.04333
 H2393 H 0.75016 0.68641 0.03528
 H2394 H 0.71553 0.68635 -0.00005
 C2395 C 0.23620 0.58401 0.71638
 C2396 C 0.22412 0.59133 0.72384
 C2397 C 0.21683 0.58408 0.73608
 C2398 C 0.22148 0.56951 0.74076
 C2399 C 0.20407 0.64451 0.70404
 C2400 C 0.24089 0.56944 0.72103
 C2401 C 0.21893 0.60608 0.71867
 C2402 C 0.21441 0.61832 0.71420
 C2403 C 0.20893 0.63251 0.70880
 C2404 C 0.23353 0.56197 0.73323
 H2405 H 0.24190 0.58951 0.70686
 H2406 H 0.20744 0.58963 0.74191
 H2407 H 0.21553 0.56411 0.75016
 H2408 H 0.25016 0.56398 0.71495
 C2409 C 0.23535 0.08345 0.21520
 C2410 C 0.22299 0.09060 0.22235
 C2411 C 0.21554 0.08331 0.23447
 C2412 C 0.22035 0.06886 0.23936
 C2413 C 0.20264 0.14344 0.20198
 C2414 C 0.24018 0.06900 0.22006
 C2415 C 0.21769 0.10524 0.21700
 C2416 C 0.21311 0.11740 0.21238
 C2417 C 0.20755 0.13151 0.20684
 C2418 C 0.23269 0.06148 0.23216
 H2419 H 0.24117 0.08898 0.20578
 H2420 H 0.20593 0.08873 0.24006
 H2421 H 0.21428 0.06341 0.24867
 H2422 H 0.24969 0.06366 0.21423
 C2423 C 0.71731 1.08421 0.73583
 C2424 C 0.72449 1.09143 0.72351
 C2425 C 0.73653 1.08411 0.71598
 C2426 C 0.74130 1.06958 0.72066
 C2427 C 0.70410 1.14448 0.70373
 C2428 C 0.72204 1.06968 0.74054
 C2429 C 0.71921 1.10614 0.71832
 C2430 C 0.71461 1.11835 0.71386
 C2431 C 0.70903 1.13251 0.70847
 C2432 C 0.73405 1.06214 0.73296
 H2433 H 0.70794 1.08975 0.74171
 H2434 H 0.74214 1.08958 0.70640
 H2435 H 0.75054 1.06411 0.71453
 H2436 H 0.71618 1.06430 0.75001
 C2437 C 0.73751 0.58597 0.21716
 C2438 C 0.72558 0.59339 0.22476
 C2439 C 0.71828 0.58617 0.23700
 C2440 C 0.72270 0.57146 0.24149
 C2441 C 0.70511 0.64615 0.20436
 C2442 C 0.74196 0.57126 0.22162
 C2443 C 0.72040 0.60813 0.21956
 C2444 C 0.71581 0.62029 0.21497
 C2445 C 0.71016 0.63433 0.20935
 C2446 C 0.73450 0.56376 0.23375
 H2447 H 0.74321 0.59144 0.20764
 H2448 H 0.70899 0.59180 0.24293
 H2449 H 0.71669 0.56605 0.25085
 H2450 H 0.75107 0.56569 0.21539
 C2451 C 0.53230 0.16382 0.73742
 C2452 C 0.52479 0.15649 0.72534
 C2453 C 0.51264 0.16380 0.71795
 C2454 C 0.50817 0.17848 0.72245
 C2455 C 0.54543 0.10385 0.70480
 C2456 C 0.52787 0.17851 0.74194
 C2457 C 0.53000 0.14179 0.72008
 C2458 C 0.53463 0.12965 0.71546
 C2459 C 0.54034 0.11564 0.70982
 C2460 C 0.51584 0.18610 0.73440
 H2461 H 0.54176 0.15829 0.74319
 H2462 H 0.50677 0.15824 0.70855
 H2463 H 0.49889 0.18396 0.71637
 H2464 H 0.53404 0.18401 0.75117
 C2465 C 1.01261 0.16404 0.21717
 C2466 C 1.02454 0.15661 0.22479
 C2467 C 1.03182 0.16383 0.23709
 C2468 C 1.02736 0.17851 0.24161
 C2469 C 1.04513 0.10391 0.20438
 C2470 C 1.00812 0.17872 0.22165
 C2471 C 1.02976 0.14190 0.21958
 C2472 C 1.03438 0.12974 0.21499
 C2473 C 1.04006 0.11571 0.20937
 C2474 C 1.01555 0.18621 0.23384
 H2475 H 1.00693 0.15857 0.20760
 H2476 H 1.04110 0.15820 0.24305
 H2477 H 1.03335 0.18391 0.25101
 H2478 H 0.99901 0.18429 0.21540
 C2479 C 0.23765 0.66454 0.53237
 C2480 C 0.22546 0.65722 0.52504
 C2481 C 0.21784 0.66458 0.51304
 C2482 C 0.22223 0.67930 0.50856
 C2483 C 0.20511 0.60439 0.54542
 C2484 C 0.24206 0.67926 0.52791
 C2485 C 0.22032 0.64247 0.53025
 C2486 C 0.21577 0.63029 0.53484
 C2487 C 0.21015 0.61622 0.54044
 C2488 C 0.23430 0.68689 0.51604
 H2489 H 0.24359 0.65897 0.54171
 H2490 H 0.20836 0.65903 0.50732
 H2491 H 0.21598 0.68480 0.49940
 H2492 H 0.25138 0.68475 0.53395
 C2493 C 0.23609 0.16575 1.03398
 C2494 C 0.22389 0.15843 1.02666
 C2495 C 0.21656 0.16559 1.01437
 C2496 C 0.22129 0.18008 1.00951
 C2497 C 0.20338 0.10574 1.04730
 C2498 C 0.24085 0.18024 1.02915
 C2499 C 0.21859 0.14380 1.03205
 C2500 C 0.21398 0.13167 1.03672
 C2501 C 0.20836 0.11761 1.04236
 C2502 C 0.23345 0.18763 1.01691
 H2503 H 0.24182 0.16033 1.04353
 H2504 H 0.20707 0.16004 1.00865
 H2505 H 0.21530 0.18542 1.00009
 H2506 H 0.25021 0.18571 1.03513
 C2507 C 0.21720 0.73781 0.58569
 C2508 C 0.22475 0.72580 0.59308
 C2509 C 0.23694 0.71844 0.58586
 C2510 C 0.24143 0.72290 0.57119
 C2511 C 0.20456 0.70514 0.64577
 C2512 C 0.22166 0.74230 0.57101
 C2513 C 0.21957 0.72058 0.60779
 C2514 C 0.21503 0.71594 0.61994
 C2515 C 0.20949 0.71023 0.63396
 C2516 C 0.23374 0.73479 0.56351
 H2517 H 0.20771 0.74356 0.59116
 H2518 H 0.24283 0.70909 0.59146
 H2519 H 0.25075 0.71685 0.56578
 H2520 H 0.21547 0.75148 0.56546
 C2521 C 0.21556 0.23581 1.08358
 C2522 C 0.22304 0.22372 1.09093
 C2523 C 0.23543 0.21657 1.08383
 C2524 C 0.24024 0.22137 1.06938
 C2525 C 0.20276 0.20284 1.14350
 C2526 C 0.22035 0.24064 1.06912
 C2527 C 0.21772 0.21834 1.10553
 C2528 C 0.21314 0.21363 1.11763
 C2529 C 0.20762 0.20791 1.13165
 C2530 C 0.23270 0.23341 1.06179
 H2531 H 0.20592 0.24139 1.08895
 H2532 H 0.24128 0.20717 1.08940
 H2533 H 0.24976 0.21551 1.06409
 H2534 H 0.21424 0.24990 1.06362
 C2535 C 0.71771 0.51251 0.16419
 C2536 C 0.72512 0.52466 0.15688
 C2537 C 0.73715 0.53222 0.16423
 C2538 C 0.74161 0.52783 0.17893
 C2539 C 0.70487 0.54514 0.10410
 C2540 C 0.72214 0.50809 0.17890
 C2541 C 0.71994 0.52982 0.14214
 C2542 C 0.71540 0.53441 0.12997
 C2543 C 0.70983 0.54007 0.11592
 C2544 C 0.73405 0.51581 0.18653
 H2545 H 0.70834 0.50661 0.15862
 H2546 H 0.74294 0.54168 0.15869
 H2547 H 0.75081 0.53404 0.18444
 H2548 H 0.71605 0.49881 0.18439
 C2549 C 0.73570 1.03409 0.66643
 C2550 C 0.72369 1.02649 0.65909
 C2551 C 0.71653 1.01411 0.66627
 C2552 C 0.72128 1.00940 0.68079
 C2553 C 0.70376 1.04633 0.60593
 C2554 C 0.74048 1.02941 0.68095
 C2555 C 0.71846 1.03164 0.64436
 C2556 C 0.71396 1.03611 0.63213
 C2557 C 0.70853 1.04153 0.61793
 C2558 C 0.73327 1.01705 0.68835
 H2559 H 0.74129 1.04371 0.66100
 H2560 H 0.70719 1.00817 0.66070
 H2561 H 0.71544 0.99987 0.68613
 H2562 H 0.74971 1.03559 0.68643
 C2563 C 0.51301 0.21809 0.66440
 C2564 C 0.52504 0.22569 0.65712
 C2565 C 0.53257 0.23769 0.66459
 C2566 C 0.52826 0.24193 0.67937
 C2567 C 0.54464 0.20616 0.60379
 C2568 C 0.50867 0.22231 0.67918
 C2569 C 0.53005 0.22077 0.64225
 C2570 C 0.53446 0.21641 0.62996
 C2571 C 0.53984 0.21101 0.61575
 C2572 C 0.51633 0.23420 0.68691
 H2573 H 0.50713 0.20875 0.65873
 H2574 H 0.54193 0.24362 0.65907
 H2575 H 0.53442 0.25112 0.68495
 H2576 H 0.49946 0.21609 0.68461
 C2577 C 1.01312 0.21760 0.16445
 C2578 C 1.02516 0.22518 0.15717
 C2579 C 1.03248 0.23740 0.16450
 C2580 C 1.02796 0.24187 0.17915
 C2581 C 1.04579 0.20456 0.10463
 C2582 C 1.00858 0.22204 0.17910
 C2583 C 1.03045 0.21997 0.14249
 C2584 C 1.03509 0.21534 0.13038
 C2585 C 1.04076 0.20965 0.11640
 C2586 C 1.01605 0.23413 0.18671
 H2587 H 1.00741 0.20809 0.15890
 H2588 H 1.04185 0.24331 0.15898
 H2589 H 1.03399 0.25120 0.18465
 H2590 H 0.99938 0.21581 0.18456
 C2591 C 0.58592 0.23652 0.71869
 C2592 C 0.59309 0.22423 0.72600
 C2593 C 0.58567 0.21663 0.73794
 C2594 C 0.57103 0.22113 0.74241
 C2595 C 0.64568 0.20380 0.70550
 C2596 C 0.57128 0.24105 0.72312
 C2597 C 0.60777 0.21899 0.72080
 C2598 C 0.61989 0.21440 0.71621
 C2599 C 0.63389 0.20878 0.71056
 C2600 C 0.56358 0.23330 0.73494
 H2601 H 0.59155 0.24246 0.70939
 H2602 H 0.59110 0.20706 0.74365
 H2603 H 0.56547 0.21489 0.75153
 H2604 H 0.56591 0.25045 0.71711
 C2605 C 1.08556 0.23651 0.21810
 C2606 C 1.09273 0.22420 0.22539
 C2607 C 1.08537 0.21668 0.23743
 C2608 C 1.07079 0.22126 0.24199
 C2609 C 1.14480 0.20327 0.20417
 C2610 C 1.07097 0.24111 0.22263
 C2611 C 1.10730 0.21884 0.22003
 C2612 C 1.11931 0.21414 0.21527
 C2613 C 1.13316 0.20838 0.20941
 C2614 C 1.06333 0.23343 0.23453
 H2615 H 1.09113 0.24238 0.20873
 H2616 H 1.09081 0.20711 0.24312
 H2617 H 1.06526 0.21508 0.25117
 H2618 H 1.06559 0.25051 0.21661
 C2619 C 0.16415 0.73771 0.53169
 C2620 C 0.15688 0.72547 0.52435
 C2621 C 0.16429 0.71778 0.51245
 C2622 C 0.17900 0.72216 0.50806
 C2623 C 0.10388 0.70562 0.54442
 C2624 C 0.17885 0.74211 0.52733
 C2625 C 0.14211 0.72040 0.52944
 C2626 C 0.12989 0.71593 0.53394
 C2627 C 0.11577 0.71048 0.53947
 C2628 C 0.18653 0.73429 0.51554
 H2629 H 0.15853 0.74371 0.54095
 H2630 H 0.15879 0.70826 0.50672
 H2631 H 0.18455 0.71586 0.49897
 H2632 H 0.18428 0.75149 0.53335
 C2633 C 0.16643 0.23500 1.03378
 C2634 C 0.15912 0.22289 1.02629
 C2635 C 0.16629 0.21564 1.01398
 C2636 C 0.18077 0.22040 1.00924
 C2637 C 0.10610 0.20298 1.04630
 C2638 C 0.18091 0.23979 1.02907
 C2639 C 0.14443 0.21765 1.03148
 C2640 C 0.13223 0.21315 1.03600
 C2641 C 0.11807 0.20774 1.04147
 C2642 C 0.18830 0.23250 1.01678
 H2643 H 0.16100 0.24067 1.04335
 H2644 H 0.16074 0.20621 1.00812
 H2645 H 0.18611 0.21450 0.99977
 H2646 H 0.18636 0.24911 1.03517
 C2647 C 0.66414 0.51291 0.21834
 C2648 C 0.65686 0.52504 0.22581
 C2649 C 0.66431 0.53267 0.23775
 C2650 C 0.67906 0.52835 0.24208
 C2651 C 0.60364 0.54457 0.20598
 C2652 C 0.67888 0.50856 0.22263
 C2653 C 0.64203 0.53004 0.22080
 C2654 C 0.62976 0.53443 0.21636
 C2655 C 0.61558 0.53979 0.21089
 C2656 C 0.68659 0.51632 0.23447
 H2657 H 0.65849 0.50696 0.20905
 H2658 H 0.65880 0.54211 0.24358
 H2659 H 0.68463 0.53458 0.25122
 H2660 H 0.68431 0.49927 0.21651
 C2661 C 0.66640 1.01385 0.71682
 C2662 C 0.65917 1.02610 0.72413
 C2663 C 0.66647 1.03359 0.73625
 C2664 C 0.68101 1.02897 0.74096
 C2665 C 0.60608 1.04576 0.70398
 C2666 C 0.68094 1.00919 0.72150
 C2667 C 0.64445 1.03123 0.71891
 C2668 C 0.63223 1.03567 0.71436
 C2669 C 0.61806 1.04103 0.70885
 C2670 C 0.68847 1.01675 0.73358
 H2671 H 0.66087 1.00799 0.70740
 H2672 H 0.66098 1.04312 0.74196
 H2673 H 0.68646 1.03507 0.75026
 H2674 H 0.68633 0.99978 0.71553
 C2675 C 0.83319 0.46585 0.26518
 C2676 C 0.84043 0.47326 0.27739
 C2677 C 0.83334 0.48571 0.28449
 C2678 C 0.81900 0.49067 0.27951
 C2679 C 0.89261 0.45217 0.29839
 C2680 C 0.81885 0.47077 0.26018
 C2681 C 0.85491 0.46778 0.28290
 C2682 C 0.86692 0.46303 0.28766
 C2683 C 0.88085 0.45726 0.29338
 C2684 C 0.81153 0.48320 0.26734
 H2685 H 0.83856 0.45617 0.25963
 H2686 H 0.83883 0.49150 0.29398
 H2687 H 0.81370 0.50023 0.28533
 H2688 H 0.81344 0.46472 0.25082
 C2689 C 0.83577 0.98771 0.78312
 C2690 C 0.84307 0.97552 0.77576
 C2691 C 0.83586 0.96812 0.76354
 C2692 C 0.82129 0.97267 0.75886
 C2693 C 0.89512 0.95418 0.79684
 C2694 C 0.82120 0.99229 0.77847
 C2695 C 0.85762 0.97015 0.78120
 C2696 C 0.86963 0.96536 0.78595
 C2697 C 0.88347 0.95946 0.79173
 C2698 C 0.81370 0.98471 0.76639
 H2699 H 0.84123 0.99349 0.79263
 H2700 H 0.84139 0.95864 0.75779
 H2701 H 0.81588 0.96656 0.74954
 H2702 H 0.81570 1.00158 0.78454
 C2703 C 0.41660 0.26328 0.78436
 C2704 C 0.40928 0.27534 0.77682
 C2705 C 0.41645 0.28256 0.76449
 C2706 C 0.43095 0.27785 0.75980
 C2707 C 0.35631 0.29560 0.79652
 C2708 C 0.43111 0.25853 0.77969
 C2709 C 0.39459 0.28059 0.78198
 C2710 C 0.38240 0.28516 0.78643
 C2711 C 0.36826 0.29070 0.79180
 C2712 C 0.43850 0.26582 0.76740
 H2713 H 0.41117 0.25764 0.79395
 H2714 H 0.41090 0.29194 0.75860
 H2715 H 0.43629 0.28374 0.75032
 H2716 H 0.43658 0.24928 0.78584
 C2717 C 0.91688 0.28412 0.26519
 C2718 C 0.90966 0.27670 0.27737
 C2719 C 0.91674 0.26423 0.28445
 C2720 C 0.93108 0.25928 0.27949
 C2721 C 0.85755 0.29783 0.29837
 C2722 C 0.93121 0.27919 0.26020
 C2723 C 0.89519 0.28218 0.28288
 C2724 C 0.88320 0.28695 0.28763
 C2725 C 0.86930 0.29273 0.29335
 C2726 C 0.93853 0.26676 0.26735
 H2727 H 0.91151 0.29381 0.25965
 H2728 H 0.91127 0.25844 0.29393
 H2729 H 0.93638 0.24971 0.28530
 H2730 H 0.93661 0.28525 0.25086
 C2731 C 0.33328 0.76439 0.46557
 C2732 C 0.34058 0.77656 0.47299
 C2733 C 0.33352 0.78371 0.48543
 C2734 C 0.31914 0.77882 0.49034
 C2735 C 0.39272 0.79781 0.45211
 C2736 C 0.31889 0.75948 0.47045
 C2737 C 0.35507 0.78206 0.46754
 C2738 C 0.36708 0.78685 0.46282
 C2739 C 0.38098 0.79267 0.45713
 C2740 C 0.31160 0.76671 0.48284
 H2741 H 0.33862 0.75882 0.45590
 H2742 H 0.33906 0.79317 0.49123
 H2743 H 0.31387 0.78468 0.49988
 H2744 H 0.31342 0.75017 0.46438
 C2745 C 0.33555 0.28178 0.98699
 C2746 C 0.34273 0.27447 0.97472
 C2747 C 0.33537 0.26239 0.96720
 C2748 C 0.32077 0.25780 0.97175
 C2749 C 0.39486 0.29577 0.95391
 C2750 C 0.32096 0.27722 0.99156
 C2751 C 0.35731 0.27985 0.96939
 C2752 C 0.36934 0.28463 0.96472
 C2753 C 0.38320 0.29052 0.95900
 C2754 C 0.31331 0.26528 0.98388
 H2755 H 0.34113 0.29118 0.99285
 H2756 H 0.34081 0.25669 0.95766
 H2757 H 0.31524 0.24859 0.96557
 H2758 H 0.31557 0.28325 1.00093
 C2759 C 0.76414 0.46609 0.33361
 C2760 C 0.77637 0.47342 0.34088
 C2761 C 0.78359 0.48580 0.33378
 C2762 C 0.77874 0.49074 0.31937
 C2763 C 0.79756 0.45232 0.39306
 C2764 C 0.75926 0.47100 0.31920
 C2765 C 0.78184 0.46791 0.35539
 C2766 C 0.78661 0.46314 0.36741
 C2767 C 0.79242 0.45738 0.38132
 C2768 C 0.76658 0.48333 0.31185
 H2769 H 0.75850 0.45646 0.33899
 H2770 H 0.79310 0.49152 0.33929
 H2771 H 0.78467 0.50023 0.31406
 H2772 H 0.74990 0.46500 0.31375
 C2773 C 0.78240 0.98732 0.83589
 C2774 C 0.77514 0.97502 0.84310
 C2775 C 0.76316 0.96741 0.83570
 C2776 C 0.75862 0.97191 0.82105
 C2777 C 0.79612 0.95453 0.89559
 C2778 C 0.77789 0.99184 0.82124
 C2779 C 0.78045 0.96977 0.85776
 C2780 C 0.78516 0.96517 0.86987
 C2781 C 0.79095 0.95954 0.88384
 C2782 C 0.76605 0.98408 0.81356
 H2783 H 0.79172 0.99326 0.84150
 H2784 H 0.75750 0.95783 0.84116
 H2785 H 0.74948 0.96566 0.81549
 H2786 H 0.78388 1.00125 0.81585
 C2787 C 0.26435 0.78470 0.41656
 C2788 C 0.27670 0.77750 0.40943
 C2789 C 0.28407 0.76530 0.41670
 C2790 C 0.27922 0.76040 0.43111
 C2791 C 0.29742 0.79787 0.35682
 C2792 C 0.25947 0.77983 0.43097
 C2793 C 0.28207 0.78287 0.39485
 C2794 C 0.28675 0.78749 0.38274
 C2795 C 0.29242 0.79302 0.36870
 C2796 C 0.26690 0.76766 0.43847
 H2797 H 0.25859 0.79418 0.41105
 H2798 H 0.29367 0.75967 0.41130
 H2799 H 0.28524 0.75104 0.43654
 H2800 H 0.24999 0.78571 0.43630
 C2801 C 0.26291 0.28251 0.91451
 C2802 C 0.27482 0.27483 0.90714
 C2803 C 0.28200 0.26249 0.91436
 C2804 C 0.27746 0.25799 0.92900
 C2805 C 0.29570 0.29512 0.85457
 C2806 C 0.25835 0.27804 0.92915
 C2807 C 0.28013 0.28003 0.89246
 C2808 C 0.28482 0.28459 0.88034
 C2809 C 0.29058 0.29016 0.86635
 C2810 C 0.26568 0.26581 0.93665
 H2811 H 0.25731 0.29211 0.90903
 H2812 H 0.29126 0.25649 0.90878
 H2813 H 0.28338 0.24855 0.93441
 H2814 H 0.24926 0.28434 0.93468
 C2815 C 0.48605 0.28394 0.83394
 C2816 C 0.47364 0.27683 0.84107
 C2817 C 0.46614 0.26471 0.83378
 C2818 C 0.47092 0.25978 0.81936
 C2819 C 0.45325 0.29747 0.89370
 C2820 C 0.49087 0.27904 0.81952
 C2821 C 0.46835 0.28226 0.85566
 C2822 C 0.46375 0.28693 0.86777
 C2823 C 0.45818 0.29255 0.88182
 C2824 C 0.48331 0.26694 0.81201
 H2825 H 0.49192 0.29337 0.83946
 H2826 H 0.45649 0.25915 0.83918
 H2827 H 0.46481 0.25047 0.81392
 H2828 H 0.50041 0.28485 0.81420
 C2829 C 0.98587 0.28398 0.33368
 C2830 C 0.97360 0.27671 0.34089
 C2831 C 0.96638 0.26432 0.33377
 C2832 C 0.97126 0.25932 0.31940
 C2833 C 0.95233 0.29798 0.39293
 C2834 C 0.99078 0.27902 0.31931
 C2835 C 0.96810 0.28227 0.35536
 C2836 C 0.96331 0.28709 0.36734
 C2837 C 0.95748 0.29289 0.38121
 C2838 C 0.98346 0.26669 0.31194
 H2839 H 0.99152 0.29361 0.33908
 H2840 H 0.95684 0.25863 0.33923
 H2841 H 0.96532 0.24984 0.31407
 H2842 H 1.00017 0.28498 0.31390
 C2843 C 0.48618 0.33379 0.78348
 C2844 C 0.47398 0.34098 0.77606
 C2845 C 0.46665 0.33363 0.76387
 C2846 C 0.47139 0.31908 0.75921
 C2847 C 0.45366 0.39389 0.79620
 C2848 C 0.49095 0.31925 0.77885
 C2849 C 0.46868 0.35567 0.78125
 C2850 C 0.46409 0.36786 0.78579
 C2851 C 0.45854 0.38197 0.79130
 C2852 C 0.48355 0.31166 0.76670
 H2853 H 0.49191 0.33936 0.79296
 H2854 H 0.45716 0.33907 0.75808
 H2855 H 0.46540 0.31359 0.74985
 H2856 H 0.50031 0.31388 0.78490
 C2857 C 0.98534 0.33345 0.28358
 C2858 C 0.97290 0.34054 0.27647
 C2859 C 0.96550 0.33326 0.26429
 C2860 C 0.97039 0.31886 0.25933
 C2861 C 0.95197 0.39273 0.29785
 C2862 C 0.99026 0.31905 0.27865
 C2863 C 0.96744 0.35505 0.28201
 C2864 C 0.96271 0.36707 0.28684
 C2865 C 0.95700 0.38098 0.29269
 C2866 C 0.98278 0.31153 0.26652
 H2867 H 0.99113 0.33896 0.29305
 H2868 H 0.95582 0.33864 0.25874
 H2869 H 0.96432 0.31341 0.25000
 H2870 H 0.99980 0.31375 0.28448
 C2871 C 0.28403 0.83424 0.48629
 C2872 C 0.27676 0.84154 0.47406
 C2873 C 0.26447 0.83440 0.46672
 C2874 C 0.25955 0.81994 0.47147
 C2875 C 0.29763 0.89410 0.45344
 C2876 C 0.27915 0.81977 0.49107
 C2877 C 0.28222 0.85614 0.46873
 C2878 C 0.28694 0.86824 0.46408
 C2879 C 0.29263 0.88226 0.45844
 C2880 C 0.26691 0.81239 0.48365
 H2881 H 0.29360 0.83965 0.49202
 H2882 H 0.25878 0.83994 0.45721
 H2883 H 0.25013 0.81460 0.46547
 H2884 H 0.28511 0.81430 0.50045
 C2885 C 0.26324 0.33538 0.96794
 C2886 C 0.27523 0.34272 0.97558
 C2887 C 0.28248 0.33541 0.98782
 C2888 C 0.27794 0.32073 0.99226
 C2889 C 0.29602 0.39534 0.95511
 C2890 C 0.25867 0.32070 0.97234
 C2891 C 0.28055 0.35742 0.97040
 C2892 C 0.28523 0.36956 0.96582
 C2893 C 0.29095 0.38356 0.96017
 C2894 C 0.26607 0.31311 0.98446
 H2895 H 0.25758 0.34091 0.95841
 H2896 H 0.29181 0.34097 0.99379
 H2897 H 0.28391 0.31525 1.00162
 H2898 H 0.24951 0.31520 0.96607
 C2899 C 0.76475 0.41651 0.28336
 C2900 C 0.77718 0.40942 0.27627
 C2901 C 0.78457 0.41671 0.26411
 C2902 C 0.77967 0.43111 0.25916
 C2903 C 0.79821 0.35728 0.29769
 C2904 C 0.75982 0.43090 0.27844
 C2905 C 0.78267 0.39492 0.28181
 C2906 C 0.78742 0.38292 0.28664
 C2907 C 0.79316 0.36902 0.29251
 C2908 C 0.76729 0.43844 0.26634
 H2909 H 0.75898 0.41099 0.29282
 H2910 H 0.79424 0.41134 0.25857
 H2911 H 0.78572 0.43657 0.24985
 H2912 H 0.75029 0.43620 0.28427
   
