data_POSCAR
  _audit_creation_date              2014-09-24
  _audit_creation_method            'ToBaCCo'
  _symmetry_space_group_name_H-M    'P1'
  _symmetry_Int_Tables_number       1
  _symmetry_cell_setting            triclinic
  loop_
  _symmetry_equiv_pos_as_xyz
 x,y,z
_cell_length_a 74.9704
_cell_length_b 75.1817
_cell_length_c 74.8680
_cell_angle_alpha 89.496400
_cell_angle_beta 89.473100
_cell_angle_gamma 89.659400
loop_
  _atom_site_label
  _atom_site_type_symbol
  _atom_site_fract_x
  _atom_site_fract_y
  _atom_site_fract_z
C1 C 0.11735 -0.00005 0.23249
 C2 C 0.12923 0.01637 0.23338
 C3 C 0.13983 0.01664 0.24804
 C4 C 0.13767 0.00044 0.26055
 C5 C 0.13014 -0.01596 0.23369
 C6 C 0.14073 -0.01570 0.24838
 C7 C 0.10688 -0.00026 0.25019
 C8 C 0.11757 -0.00002 0.26485
 H9 H 0.12886 0.02714 0.22361
 H10 H 0.14638 0.00067 0.27248
 H11 H 0.13026 -0.02683 0.22422
 H12 H 0.09241 -0.00072 0.25105
 C13 C 0.38463 0.00065 0.73610
 C14 C 0.37190 -0.01520 0.73675
 C15 C 0.36117 -0.01549 0.75155
 C16 C 0.36415 0.00017 0.76435
 C17 C 0.37255 0.01710 0.73763
 C18 C 0.36184 0.01688 0.75247
 C19 C 0.39448 -0.00018 0.75273
 C20 C 0.38316 -0.00043 0.76824
 H21 H 0.37190 -0.02566 0.72682
 H22 H 0.35530 -0.00008 0.77635
 H23 H 0.37326 0.02840 0.72850
 H24 H 0.40894 0.00028 0.75342
 C25 C 0.88248 0.49907 0.23397
 C26 C 0.87018 0.48297 0.23527
 C27 C 0.85973 0.48276 0.25023
 C28 C 0.86246 0.49874 0.26263
 C29 C 0.87015 0.51530 0.23550
 C30 C 0.85973 0.51516 0.25051
 C31 C 0.89315 0.49878 0.25136
 C32 C 0.88261 0.49863 0.26635
 H33 H 0.87021 0.47231 0.22555
 H34 H 0.85386 0.49855 0.27480
 H35 H 0.87058 0.52651 0.22623
 H36 H 0.90761 0.49930 0.25180
 C37 C 0.61830 0.50006 0.73261
 C38 C 0.63051 0.51624 0.73350
 C39 C 0.64108 0.51632 0.74818
 C40 C 0.63859 0.50017 0.76070
 C41 C 0.63076 0.48390 0.73384
 C42 C 0.64134 0.48396 0.74855
 C43 C 0.60780 0.50008 0.75029
 C44 C 0.61848 0.50013 0.76497
 H45 H 0.63024 0.52708 0.72380
 H46 H 0.64729 0.50022 0.77264
 H47 H 0.63067 0.47302 0.72437
 H48 H 0.59333 0.50000 0.75114
 C49 C 0.23258 0.11772 0.99760
 C50 C 0.23362 0.12962 1.01402
 C51 C 0.24860 0.13974 1.01442
 C52 C 0.26125 0.13713 0.99836
 C53 C 0.23443 0.13035 0.98155
 C54 C 0.24945 0.14047 0.98195
 C55 C 0.24988 0.10676 0.99773
 C56 C 0.26487 0.11697 0.99812
 H57 H 0.22370 0.12958 1.02470
 H58 H 0.27345 0.14544 0.99869
 H59 H 0.22508 0.13078 0.97054
 H60 H 0.25027 0.09231 0.99748
 C61 C 0.73568 0.38173 0.99988
 C62 C 0.73656 0.36958 0.98486
 C63 C 0.75234 0.35876 0.98476
 C64 C 0.76429 0.36211 0.99972
 C65 C 0.73734 0.37062 1.01582
 C66 C 0.75316 0.35981 1.01575
 C67 C 0.75204 0.39213 0.99888
 C68 C 0.76786 0.38123 0.99879
 H69 H 0.72684 0.36938 0.97416
 H70 H 0.77650 0.35361 0.99962
 H71 H 0.72838 0.37143 1.02730
 H72 H 0.75239 0.40659 0.99893
 C73 C 0.23526 0.88575 0.49958
 C74 C 0.23676 0.87286 0.48396
 C75 C 0.25187 0.86274 0.48416
 C76 C 0.26420 0.86636 0.50005
 C77 C 0.23699 0.87416 0.51638
 C78 C 0.25215 0.86406 0.51667
 C79 C 0.25245 0.89673 0.49878
 C80 C 0.26759 0.88652 0.49905
 H81 H 0.22706 0.87228 0.47327
 H82 H 0.27650 0.85803 0.50022
 H83 H 0.22765 0.87472 0.52756
 H84 H 0.25264 0.91118 0.49858
 C85 C 0.73209 0.61753 0.49994
 C86 C 0.73332 0.62919 0.51652
 C87 C 0.74828 0.63934 0.51685
 C88 C 0.76071 0.63701 0.50058
 C89 C 0.73368 0.63041 0.48406
 C90 C 0.74867 0.64057 0.48441
 C91 C 0.74943 0.60662 0.49966
 C92 C 0.76439 0.61688 0.49999
 H93 H 0.72351 0.62903 0.52729
 H94 H 0.77289 0.64536 0.50087
 H95 H 0.72418 0.63097 0.47319
 H96 H 0.74986 0.59219 0.49914
 C97 C -0.00071 0.23195 0.11662
 C98 C 0.01567 0.23288 0.12860
 C99 C 0.01600 0.24762 0.13901
 C100 C -0.00011 0.26015 0.13661
 C101 C -0.01676 0.23342 0.12932
 C102 C -0.01645 0.24820 0.13974
 C103 C -0.00065 0.24944 0.10591
 C104 C -0.00035 0.26417 0.11643
 H105 H 0.02644 0.22314 0.12831
 H106 H 0.00016 0.27215 0.14518
 H107 H -0.02778 0.22409 0.12948
 H108 H -0.00100 0.25011 0.09142
 C109 C -0.00326 0.73456 0.38366
 C110 C -0.01805 0.73593 0.37140
 C111 C -0.01764 0.75161 0.36054
 C112 C -0.00250 0.76317 0.36384
 C113 C 0.01364 0.73605 0.37204
 C114 C 0.01406 0.75108 0.36169
 C115 C -0.00373 0.75181 0.39452
 C116 C -0.00329 0.76682 0.38406
 H117 H -0.02894 0.72644 0.37107
 H118 H -0.00218 0.77535 0.35531
 H119 H 0.02471 0.72668 0.37276
 H120 H -0.00367 0.75214 0.40903
 C121 C 0.49658 0.23260 0.88510
 C122 C 0.48089 0.23395 0.87226
 C123 C 0.48115 0.24887 0.86183
 C124 C 0.49712 0.26115 0.86511
 C125 C 0.51329 0.23408 0.87330
 C126 C 0.51360 0.24904 0.86289
 C127 C 0.49600 0.24990 0.89581
 C128 C 0.49631 0.26483 0.88529
 H129 H 0.47019 0.22428 0.87187
 H130 H 0.49732 0.27329 0.85653
 H131 H 0.52438 0.22472 0.87394
 H132 H 0.49596 0.25031 0.91031
 C133 C 0.49969 0.73468 0.61694
 C134 C 0.51593 0.73534 0.62912
 C135 C 0.51644 0.75014 0.63944
 C136 C 0.50063 0.76300 0.63673
 C137 C 0.48351 0.73658 0.62941
 C138 C 0.48400 0.75142 0.63973
 C139 C 0.50026 0.75208 0.60611
 C140 C 0.50074 0.76688 0.61652
 H141 H 0.52648 0.72537 0.62905
 H142 H 0.50105 0.77504 0.64523
 H143 H 0.47230 0.72748 0.62948
 H144 H 0.50005 0.75266 0.59160
 C145 C 0.88321 1.00235 0.76741
 C146 C 0.87107 1.01738 0.76604
 C147 C 0.85983 1.01670 0.75076
 C148 C 0.86270 1.00113 0.73960
 C149 C 0.87142 0.98578 0.76703
 C150 C 0.86070 0.98512 0.75245
 C151 C 0.89361 1.00202 0.74964
 C152 C 0.88280 1.00137 0.73506
 H153 H 0.87116 1.02859 0.77512
 H154 H 0.85390 1.00056 0.72774
 H155 H 0.87199 0.97520 0.77701
 H156 H 0.90808 1.00222 0.74868
 C157 C 0.38374 0.50205 0.26759
 C158 C 0.37082 0.51779 0.26581
 C159 C 0.36035 0.51698 0.25104
 C160 C 0.36367 0.50050 0.23940
 C161 C 0.37202 0.48548 0.26712
 C162 C 0.36156 0.48466 0.25239
 C163 C 0.39435 0.50182 0.24999
 C164 C 0.38380 0.50102 0.23526
 H165 H 0.37052 0.52894 0.27494
 H166 H 0.35507 0.49982 0.22742
 H167 H 0.37244 0.47500 0.27720
 H168 H 0.40882 0.50240 0.24923
 C169 C 0.61761 1.00076 0.26522
 C170 C 0.62883 0.98374 0.26329
 C171 C 0.63899 0.98346 0.24806
 C172 C 0.63709 1.00028 0.23626
 C173 C 0.63016 1.01530 0.26398
 C174 C 0.64083 1.01506 0.24812
 C175 C 0.60660 1.00182 0.24802
 C176 C 0.61687 1.00153 0.23283
 H177 H 0.62798 0.97252 0.27250
 H178 H 0.64547 1.00007 0.22393
 H179 H 0.63067 1.02605 0.27359
 H180 H 0.59211 1.00202 0.24786
 C181 C 0.11766 0.50087 0.76413
 C182 C 0.12939 0.48424 0.76229
 C183 C 0.13960 0.48416 0.74713
 C184 C 0.13727 0.50077 0.73519
 C185 C 0.13051 0.51654 0.76279
 C186 C 0.14074 0.51652 0.74767
 C187 C 0.10676 0.50170 0.74690
 C188 C 0.11707 0.50162 0.73177
 H189 H 0.12884 0.47304 0.77156
 H190 H 0.14568 0.50076 0.72289
 H191 H 0.13101 0.52709 0.77260
 H192 H 0.09227 0.50176 0.74667
 C193 C 0.76686 0.88511 0.00213
 C194 C 0.76478 0.87253 0.01820
 C195 C 0.75013 0.86194 0.01727
 C196 C 0.73890 0.86480 0.00039
 C197 C 0.76686 0.87308 -0.01423
 C198 C 0.75224 0.86249 -0.01515
 C199 C 0.74924 0.89552 0.00124
 C200 C 0.73463 0.88483 0.00035
 H201 H 0.77364 0.87253 0.02961
 H202 H 0.72701 0.85609 -0.00037
 H203 H 0.77716 0.87339 -0.02454
 H204 H 0.74837 0.90995 0.00156
 C205 C 0.26636 0.38495 0.50019
 C206 C 0.26456 0.37194 0.51594
 C207 C 0.24993 0.36132 0.51495
 C208 C 0.23843 0.36459 0.49832
 C209 C 0.26616 0.37336 0.48351
 C210 C 0.25157 0.36274 0.48254
 C211 C 0.24870 0.39531 0.49985
 C212 C 0.23411 0.38461 0.49888
 H213 H 0.27364 0.37161 0.52718
 H214 H 0.22655 0.35588 0.49749
 H215 H 0.27642 0.37384 0.47317
 H216 H 0.24779 0.40972 0.50060
 C217 C 0.26636 0.61347 0.00136
 C218 C 0.26487 0.62580 -0.01496
 C219 C 0.24984 0.63609 -0.01490
 C220 C 0.23767 0.63325 0.00155
 C221 C 0.26494 0.62571 0.01751
 C222 C 0.24996 0.63603 0.01765
 C223 C 0.24902 0.60272 0.00159
 C224 C 0.23402 0.61312 0.00166
 H225 H 0.27425 0.62557 -0.02611
 H226 H 0.22548 0.64174 0.00167
 H227 H 0.27467 0.62583 0.02818
 H228 H 0.24865 0.58829 0.00113
 C229 C 0.76595 0.11718 0.50023
 C230 C 0.76447 0.12896 0.48475
 C231 C 0.74872 0.13986 0.48515
 C232 C 0.73746 0.13695 0.50100
 C233 C 0.76503 0.12868 0.51575
 C234 C 0.74932 0.13959 0.51619
 C235 C 0.74952 0.10686 0.50066
 C236 C 0.73377 0.11784 0.50108
 H237 H 0.77343 0.12846 0.47324
 H238 H 0.72530 0.14552 0.50138
 H239 H 0.77472 0.12843 0.52649
 H240 H 0.74909 0.09243 0.49995
 C241 C 1.00160 0.76656 0.88655
 C242 C 1.01728 0.76535 0.87336
 C243 C 1.01648 0.75098 0.86241
 C244 C 1.00007 0.73913 0.86557
 C245 C 0.98489 0.76628 0.87500
 C246 C 0.98408 0.75195 0.86406
 C247 C 1.00161 0.74871 0.89662
 C248 C 1.00082 0.73437 0.88558
 H249 H 1.02839 0.77457 0.87320
 H250 H 0.99939 0.72746 0.85659
 H251 H 0.97437 0.77626 0.87577
 H252 H 1.00240 0.74750 0.91106
 C253 C 0.50108 0.26930 0.38605
 C254 C 0.51672 0.26799 0.37282
 C255 C 0.51593 0.25348 0.36206
 C256 C 0.49959 0.24160 0.36543
 C257 C 0.48432 0.26880 0.37457
 C258 C 0.48354 0.25434 0.36382
 C259 C 0.50120 0.25157 0.39634
 C260 C 0.50043 0.23710 0.38549
 H261 H 0.52779 0.27726 0.37250
 H262 H 0.49892 0.22982 0.35660
 H263 H 0.47379 0.27879 0.37521
 H264 H 0.50208 0.25054 0.41079
 C265 C 0.99874 0.26473 0.61461
 C266 C 0.98207 0.26290 0.62642
 C267 C 0.98205 0.24788 0.63676
 C268 C 0.99873 0.23608 0.63447
 C269 C 1.01446 0.26360 0.62744
 C270 C 1.01448 0.24863 0.63780
 C271 C 0.99963 0.24749 0.60382
 C272 C 0.99959 0.23251 0.61428
 H273 H 0.97080 0.27204 0.62583
 H274 H 0.99876 0.22390 0.64300
 H275 H 1.02503 0.27342 0.62781
 H276 H 0.99963 0.24713 0.58932
 C277 C 0.49980 0.76266 0.11534
 C278 C 0.48333 0.76098 0.12746
 C279 C 0.48348 0.74613 0.13803
 C280 C 0.50016 0.73432 0.13565
 C281 C 0.51573 0.76175 0.12792
 C282 C 0.51595 0.74695 0.13851
 C283 C 0.50053 0.74525 0.10482
 C284 C 0.50068 0.73043 0.11551
 H285 H 0.47201 0.77007 0.12685
 H286 H 0.50035 0.72228 0.14437
 H287 H 0.52625 0.77164 0.12800
 H288 H 0.50023 0.74467 0.09033
 O289 O -0.00821 0.98853 0.94945
 O290 O 0.02112 0.99749 0.94870
 O291 O -0.00983 0.94955 0.99210
 O292 O -0.00443 0.94834 1.02118
 O293 O -0.05014 0.99144 0.98932
 O294 O -0.05033 1.02191 0.99682
 O295 O 0.03506 0.99721 1.03892
 O296 O 0.03730 0.96940 1.02676
 O297 O 0.03969 1.03410 0.99679
 O298 O 0.02527 1.03836 0.96808
 O299 O -0.00233 1.03951 1.03370
 O300 O -0.03059 1.02516 1.03874
 O301 O 0.01030 1.01147 1.04959
 O302 O -0.02208 1.00259 1.05015
 O303 O 0.01159 1.05008 1.00869
 O304 O 0.00265 1.04984 0.97652
 O305 O 0.05032 1.00970 1.01152
 O306 O 0.05007 0.97923 0.99888
 O307 O -0.03281 1.00329 0.95985
 O308 O -0.03680 1.03161 0.97446
 O309 O -0.03968 0.96679 1.00376
 O310 O -0.02439 0.96454 1.03297
 O311 O 0.00376 0.95994 0.96679
 O312 O 0.03313 0.97481 0.96498
 Zr313 Zr 0.00842 0.98702 0.97186
 O314 O 0.02519 1.00343 0.98683
 Zr315 Zr -0.01256 0.97212 1.00829
 O316 O 0.00387 0.98737 1.02478
 Zr317 Zr -0.02774 1.00799 0.98705
 O318 O -0.01250 1.02491 1.00309
 Zr319 Zr 0.02859 0.99212 1.01229
 O320 O 0.01308 0.97471 0.99680
 Zr321 Zr 0.01290 1.02812 0.99150
 O322 O -0.00298 1.01257 0.97452
 Zr323 Zr -0.00754 1.01273 1.02797
 O324 O -0.02499 0.99686 1.01279
 O325 O -0.01676 0.98290 0.98305
 O326 O 0.01756 1.01727 1.01674
 C327 C -0.02360 0.99581 0.94742
 C328 C -0.00304 0.94749 0.97646
 C329 C -0.05215 0.97605 0.99655
 C330 C 0.02603 1.00484 1.05134
 C331 C 0.05207 1.02528 1.00466
 C332 C 0.00507 1.05191 1.02446
 H333 H 0.03676 1.00471 0.98052
 H334 H -0.01888 1.03637 1.00439
 H335 H -0.02432 0.97524 0.97558
 H336 H 0.00546 0.98108 1.03631
 H337 H 0.03456 0.95896 1.01932
 H338 H 0.00662 0.95109 1.02766
 H339 H -0.00818 1.05426 0.98274
 H340 H -0.02735 1.03523 0.96588
 H341 H 0.06072 0.97981 1.00661
 H342 H 0.03157 0.96776 0.95396
 H343 H -0.03506 1.03370 1.02969
 H344 H -0.05212 1.01790 1.00934
 H345 H 0.01715 1.01002 0.94750
 H346 H 0.03446 1.02968 0.96421
 H347 H -0.03403 0.97324 1.03550
 H348 H -0.01563 0.99202 1.05476
 O349 O 0.49039 0.49098 0.45073
 O350 O 0.51968 0.50019 0.45011
 O351 O 0.48902 0.45154 0.49293
 O352 O 0.49438 0.45003 0.52201
 O353 O 0.44843 0.49319 0.49057
 O354 O 0.44806 0.52359 0.49848
 O355 O 0.53354 0.49895 0.54036
 O356 O 0.53593 0.47128 0.52789
 O357 O 0.53801 0.53629 0.49860
 O358 O 0.52353 0.54079 0.46993
 O359 O 0.49591 0.54106 0.53557
 O360 O 0.46769 0.52648 0.54038
 O361 O 0.50867 0.51294 0.55114
 O362 O 0.47636 0.50387 0.55159
 O363 O 0.50983 0.55198 0.51071
 O364 O 0.50090 0.55211 0.47856
 O365 O 0.54875 0.51178 0.51309
 O366 O 0.54869 0.48147 0.50013
 O367 O 0.46569 0.50548 0.46128
 O368 O 0.46152 0.53360 0.47619
 O369 O 0.45907 0.46844 0.50472
 O370 O 0.47429 0.46597 0.53395
 O371 O 0.50255 0.46231 0.46774
 O372 O 0.53181 0.47737 0.46611
 Zr373 Zr 0.50703 0.48935 0.47313
 O374 O 0.52369 0.50568 0.48832
 Zr375 Zr 0.48612 0.47390 0.50938
 O376 O 0.50242 0.48907 0.52606
 Zr377 Zr 0.47073 0.50992 0.48854
 O378 O 0.48585 0.52675 0.50477
 Zr379 Zr 0.52712 0.49410 0.51366
 O380 O 0.51175 0.47678 0.49793
 Zr381 Zr 0.51125 0.53024 0.49325
 O382 O 0.49546 0.51480 0.47608
 Zr383 Zr 0.49085 0.51432 0.52952
 O384 O 0.47352 0.49851 0.51415
 O385 O 0.48188 0.48494 0.48426
 O386 O 0.51594 0.51914 0.51838
 C387 C 0.47494 0.49817 0.44878
 C388 C 0.49583 0.44971 0.47726
 C389 C 0.44653 0.47768 0.49758
 C390 C 0.52444 0.50640 0.55285
 C391 C 0.55044 0.52744 0.50638
 C392 C 0.50329 0.55360 0.52649
 H393 H 0.53526 0.50709 0.48204
 H394 H 0.47940 0.53816 0.50620
 H395 H 0.47438 0.47732 0.47669
 H396 H 0.50403 0.48266 0.53753
 H397 H 0.53328 0.46090 0.52033
 H398 H 0.50539 0.45278 0.52856
 H399 H 0.49002 0.55636 0.48480
 H400 H 0.47098 0.53741 0.46770
 H401 H 0.55932 0.48201 0.50789
 H402 H 0.53030 0.47047 0.45500
 H403 H 0.46322 0.53513 0.53143
 H404 H 0.44625 0.51938 0.51093
 H405 H 0.51557 0.51268 0.44902
 H406 H 0.53279 0.53223 0.46598
 H407 H 0.46460 0.47459 0.53656
 H408 H 0.48285 0.49326 0.55606
 O409 O 0.46408 -0.03446 0.49915
 O410 O 0.47826 -0.03794 0.47183
 O411 O 0.50705 -0.03569 0.53698
 O412 O 0.53207 -0.02072 0.54184
 O413 O 0.46659 0.00551 0.54017
 O414 O 0.46127 0.03217 0.52394
 O415 O 0.55149 0.01306 0.48844
 O416 O 0.55381 -0.01514 0.50024
 O417 O 0.51096 0.01186 0.45003
 O418 O 0.48008 0.00191 0.44977
 O419 O 0.51061 0.05206 0.48853
 O420 O 0.50193 0.05394 0.51968
 O421 O 0.53923 0.03774 0.50121
 O422 O 0.52322 0.04213 0.53058
 O423 O 0.49739 0.03973 0.46441
 O424 O 0.46878 0.02290 0.46177
 O425 O 0.53652 0.00013 0.46148
 O426 O 0.53806 -0.02940 0.47660
 O427 O 0.45158 -0.00960 0.51140
 O428 O 0.44985 0.02103 0.50142
 O429 O 0.49193 -0.00659 0.55174
 O430 O 0.52283 0.00477 0.55051
 O431 O 0.49343 -0.04816 0.51312
 O432 O 0.50503 -0.04812 0.48195
 Zr433 Zr 0.49076 -0.02713 0.49452
 O434 O 0.50591 -0.01149 0.47659
 Zr435 Zr 0.50957 -0.00870 0.52981
 O436 O 0.52596 0.00720 0.51329
 Zr437 Zr 0.47261 0.00890 0.51285
 O438 O 0.48739 0.02604 0.49600
 Zr439 Zr 0.53022 -0.00500 0.48848
 O440 O 0.51582 -0.02212 0.50594
 Zr441 Zr 0.49322 0.01304 0.47192
 O442 O 0.47689 -0.00347 0.48811
 Zr443 Zr 0.51251 0.03102 0.50714
 O444 O 0.49669 0.01584 0.52520
 O445 O 0.48511 -0.01509 0.51886
 O446 O 0.51796 0.01931 0.48257
 C447 C 0.45080 -0.02559 0.50549
 C448 C 0.50040 -0.04895 0.52870
 C449 C 0.47597 -0.00049 0.55317
 C450 C 0.55230 0.02909 0.49413
 C451 C 0.52715 0.00643 0.44862
 C452 C 0.50428 0.05284 0.47268
 H453 H 0.50788 -0.01820 0.46542
 H454 H 0.48051 0.03713 0.49405
 H455 H 0.47782 -0.02271 0.52689
 H456 H 0.53739 0.00930 0.51937
 H457 H 0.55048 -0.02633 0.50647
 H458 H 0.54250 -0.01765 0.53429
 H459 H 0.46530 0.03344 0.46884
 H460 H 0.44820 0.01544 0.48963
 H461 H 0.54982 -0.02761 0.47068
 H462 H 0.49857 -0.05943 0.48411
 H463 H 0.48986 0.05607 0.51485
 H464 H 0.47062 0.03755 0.53137
 H465 H 0.47047 -0.02849 0.46685
 H466 H 0.48595 -0.00958 0.44706
 H467 H 0.51592 0.01576 0.55293
 H468 H 0.53406 0.03525 0.53372
 O469 O 0.00455 0.46093 1.03580
 O470 O 0.03136 0.47587 1.03819
 O471 O -0.03519 0.50227 1.03794
 O472 O -0.04247 0.52672 1.02273
 O473 O -0.03726 0.46192 0.99665
 O474 O -0.02138 0.45768 0.96944
 O475 O 0.00930 0.54882 0.98755
 O476 O -0.00209 0.55038 1.01612
 O477 O 0.04984 0.51035 0.98774
 O478 O 0.05228 0.47952 0.99768
 O479 O 0.01012 0.50844 0.94844
 O480 O -0.02041 0.49876 0.94751
 O481 O -0.00338 0.53636 0.96313
 O482 O -0.03214 0.51936 0.95978
 O483 O 0.03538 0.49631 0.96012
 O484 O 0.04036 0.46788 0.97709
 O485 O 0.03723 0.53506 0.99999
 O486 O 0.02270 0.53551 1.02999
 O487 O -0.00755 0.44822 1.01118
 O488 O 0.00205 0.44719 0.98021
 O489 O -0.05001 0.48641 1.00921
 O490 O -0.05089 0.51748 0.99750
 O491 O -0.01021 0.48965 1.04980
 O492 O 0.02024 0.50207 1.04878
 Zr493 Zr 0.00775 0.48769 1.02811
 O494 O 0.02430 0.50376 1.01193
 Zr495 Zr -0.02915 0.50505 1.01058
 O496 O -0.01405 0.52233 0.99421
 Zr497 Zr -0.01048 0.46922 0.99253
 O498 O 0.00496 0.48491 0.97487
 Zr499 Zr 0.01079 0.52750 1.00575
 O500 O -0.00532 0.51218 1.02336
 Zr501 Zr 0.02903 0.49166 0.98719
 O502 O 0.01430 0.47445 1.00422
 Zr503 Zr -0.00780 0.50948 0.97015
 O504 O -0.02446 0.49270 0.98585
 O505 O -0.01657 0.48116 1.01675
 O506 O 0.01673 0.51586 0.98119
 C507 C -0.00139 0.44756 1.02714
 C508 C -0.02607 0.49605 1.05104
 C509 C -0.05064 0.47052 1.00310
 C510 C 0.00327 0.54953 0.97156
 C511 C 0.05045 0.52645 0.99325
 C512 C 0.02625 0.50280 0.94718
 H513 H 0.03550 0.50615 1.01835
 H514 H 0.00697 0.47826 0.96369
 H515 H -0.02397 0.47355 1.02469
 H516 H -0.02082 0.53350 0.99226
 H517 H -0.00784 0.54670 1.02751
 H518 H -0.03535 0.53742 1.01994
 H519 H 0.03309 0.46407 0.96686
 H520 H 0.01397 0.44594 0.98568
 H521 H 0.02787 0.54750 1.02807
 H522 H 0.01887 0.49536 1.06018
 H523 H -0.01517 0.48684 0.94542
 H524 H -0.02969 0.46662 0.96434
 H525 H 0.03635 0.46831 1.02858
 H526 H 0.05477 0.48515 1.00928
 H527 H -0.05331 0.51046 0.98667
 H528 H -0.03551 0.53011 0.96659
 O529 O 0.00817 0.44892 0.50818
 O530 O -0.00274 0.44886 0.47940
 O531 O 0.04938 0.48845 0.50660
 O532 O 0.05181 0.51726 0.49971
 O533 O 0.01024 0.48873 0.54944
 O534 O -0.01991 0.49830 0.55152
 O535 O 0.00108 0.53848 0.46363
 O536 O 0.02820 0.52461 0.45976
 O537 O -0.03808 0.49885 0.46242
 O538 O -0.04271 0.47054 0.47802
 O539 O -0.03877 0.53613 0.50380
 O540 O -0.02234 0.53989 0.53125
 O541 O -0.01088 0.54996 0.48919
 O542 O 0.00013 0.54998 0.52082
 O543 O -0.05149 0.51201 0.49105
 O544 O -0.05255 0.48011 0.50096
 O545 O -0.01368 0.51198 0.44983
 O546 O 0.01621 0.49752 0.44826
 O547 O -0.00432 0.46020 0.53361
 O548 O -0.03159 0.47655 0.53926
 O549 O 0.03486 0.50152 0.53692
 O550 O 0.03767 0.53028 0.52082
 O551 O 0.03679 0.46403 0.49421
 O552 O 0.02020 0.46354 0.46570
 Zr553 Zr 0.00977 0.47109 0.49100
 O554 O -0.00698 0.48708 0.47504
 Zr555 Zr 0.02794 0.50628 0.51010
 O556 O 0.01241 0.52371 0.49442
 Zr557 Zr -0.00800 0.48758 0.52826
 O558 O -0.02514 0.50461 0.51383
 Zr559 Zr 0.00538 0.51165 0.47031
 O560 O 0.02305 0.49506 0.48492
 Zr561 Zr -0.03060 0.49332 0.48892
 O562 O -0.01486 0.47543 0.50412
 Zr563 Zr -0.01201 0.52853 0.50752
 O564 O 0.00428 0.51241 0.52415
 O565 O 0.01610 0.48195 0.51561
 O566 O -0.01877 0.51769 0.48300
 C567 C 0.00193 0.44736 0.52414
 C568 C 0.05015 0.47267 0.50020
 C569 C 0.02614 0.49490 0.55020
 C570 C -0.00533 0.55130 0.47295
 C571 C -0.02970 0.50612 0.44926
 C572 C -0.05207 0.52787 0.49722
 H573 H -0.00932 0.48088 0.46372
 H574 H -0.03612 0.50669 0.52092
 H575 H 0.02382 0.47401 0.52285
 H576 H 0.01915 0.53478 0.49215
 H577 H 0.03847 0.51657 0.46194
 H578 H 0.04850 0.52446 0.48913
 H579 H -0.05591 0.48664 0.51192
 H580 H -0.03640 0.46847 0.53014
 H581 H 0.01529 0.50525 0.43751
 H582 H 0.02667 0.45206 0.46703
 H583 H -0.03137 0.53164 0.53622
 H584 H -0.01510 0.51046 0.55274
 H585 H -0.01499 0.44836 0.48441
 H586 H -0.03501 0.46629 0.46813
 H587 H 0.02964 0.53349 0.53088
 H588 H 0.01059 0.55377 0.51362
 O589 O 0.50794 0.94702 0.00926
 O590 O 0.49698 0.94703 -0.01949
 O591 O 0.54897 0.98675 0.00778
 O592 O 0.55128 1.01560 0.00116
 O593 O 0.50979 0.98670 0.05071
 O594 O 0.47961 0.99606 0.05283
 O595 O 0.50050 1.03674 -0.03489
 O596 O 0.52764 1.02297 -0.03885
 O597 O 0.46145 0.99699 -0.03628
 O598 O 0.45689 0.96862 -0.02082
 O599 O 0.46066 1.03411 0.00523
 O600 O 0.47703 1.03779 0.03272
 O601 O 0.48851 1.04807 -0.00928
 O602 O 0.49951 1.04796 0.02238
 O603 O 0.44801 1.01000 -0.00761
 O604 O 0.44708 0.97801 0.00222
 O605 O 0.48578 1.01030 -0.04880
 O606 O 0.51571 0.99589 -0.05045
 O607 O 0.49540 0.95813 0.03474
 O608 O 0.46804 0.97435 0.04043
 O609 O 0.53438 0.99960 0.03824
 O610 O 0.53708 1.02845 0.02224
 O611 O 0.53648 0.96234 -0.00471
 O612 O 0.51983 0.96186 -0.03318
 Zr613 Zr 0.50941 0.96927 -0.00783
 O614 O 0.49260 0.98526 -0.02371
 Zr615 Zr 0.52745 1.00445 0.01143
 O616 O 0.51186 1.02188 -0.00417
 Zr617 Zr 0.49159 0.98552 0.02951
 O618 O 0.47438 1.00257 0.01516
 Zr619 Zr 0.50487 1.00989 -0.02833
 O620 O 0.52260 0.99332 -0.01379
 Zr621 Zr 0.46896 0.99137 -0.00980
 O622 O 0.48477 0.97347 0.00531
 Zr623 Zr 0.48743 1.02656 0.00895
 O624 O 0.50377 1.01042 0.02551
 O625 O 0.51571 0.98004 0.01684
 O626 O 0.48070 1.01580 -0.01561
 C627 C 0.50170 0.94537 0.02521
 C628 C 0.54981 0.97103 0.00128
 C629 C 0.52566 0.99294 0.05150
 C630 C 0.49406 1.04950 -0.02551
 C631 C 0.46978 1.00439 -0.04939
 C632 C 0.44740 1.02584 -0.00141
 H633 H 0.49027 0.97911 -0.03506
 H634 H 0.46339 1.00458 0.02226
 H635 H 0.52348 0.97211 0.02404
 H636 H 0.51857 1.03298 -0.00639
 H637 H 0.53793 1.01493 -0.03673
 H638 H 0.54798 1.02267 -0.00951
 H639 H 0.44365 0.98454 0.01315
 H640 H 0.46327 0.96628 0.03128
 H641 H 0.51476 1.00366 -0.06118
 H642 H 0.52636 0.95040 -0.03191
 H643 H 0.46801 1.02950 0.03764
 H644 H 0.48430 1.00827 0.05406
 H645 H 0.48473 0.94647 -0.01448
 H646 H 0.46465 0.96439 -0.03068
 H647 H 0.52907 1.03157 0.03234
 H648 H 0.50993 1.05185 0.01518
 O649 O 0.49993 0.46066 -0.03644
 O650 O 0.47281 0.47489 -0.04012
 O651 O 0.53799 0.50342 -0.03725
 O652 O 0.54300 0.52818 -0.02202
 O653 O 0.54061 0.46271 0.00396
 O654 O 0.52417 0.45736 0.03066
 O655 O 0.48945 0.54751 0.01146
 O656 O 0.50145 0.54997 -0.01677
 O657 O 0.45083 0.50728 0.00990
 O658 O 0.45047 0.47652 -0.00024
 O659 O 0.48898 0.50659 0.05049
 O660 O 0.51997 0.49776 0.05263
 O661 O 0.50194 0.53509 0.03630
 O662 O 0.53115 0.51899 0.04086
 O663 O 0.46488 0.49357 0.03792
 O664 O 0.46219 0.46511 0.02092
 O665 O 0.46254 0.53279 -0.00170
 O666 O 0.47785 0.53442 -0.03129
 O667 O 0.51186 0.44799 -0.01141
 O668 O 0.50170 0.44609 0.01925
 O669 O 0.55243 0.48801 -0.00802
 O670 O 0.55131 0.51878 0.00356
 O671 O 0.51419 0.48998 -0.05001
 O672 O 0.48314 0.50163 -0.05015
 Zr673 Zr 0.49544 0.48722 -0.02903
 O674 O 0.47749 0.50228 -0.01341
 Zr675 Zr 0.53067 0.50572 -0.01019
 O676 O 0.51415 0.52202 0.00568
 Zr677 Zr 0.51335 0.46882 0.00723
 O678 O 0.49648 0.48351 0.02436
 Zr679 Zr 0.48949 0.52643 -0.00673
 O680 O 0.50699 0.51212 -0.02383
 Zr681 Zr 0.47256 0.48950 0.01115
 O682 O 0.48877 0.47327 -0.00536
 Zr683 Zr 0.50774 0.50848 0.02952
 O684 O 0.52580 0.49273 0.01438
 O685 O 0.51962 0.48142 -0.01678
 O686 O 0.48334 0.51407 0.01759
 C687 C 0.50608 0.44734 -0.02751
 C688 C 0.52979 0.49692 -0.05065
 C689 C 0.55371 0.47204 -0.00196
 C690 C 0.49501 0.54818 0.02761
 C691 C 0.44958 0.52349 0.00453
 C692 C 0.47309 0.50037 0.05114
 H693 H 0.46641 0.50432 -0.02022
 H694 H 0.49439 0.47660 0.03547
 H695 H 0.52763 0.47417 -0.02441
 H696 H 0.52028 0.53339 0.00787
 H697 H 0.50773 0.54670 -0.02798
 H698 H 0.53540 0.53856 -0.01913
 H699 H 0.46911 0.46158 0.03157
 H700 H 0.48993 0.44456 0.01360
 H701 H 0.47199 0.54614 -0.02950
 H702 H 0.48535 0.49527 -0.06152
 H703 H 0.51508 0.48572 0.05466
 H704 H 0.53165 0.46662 0.03611
 H705 H 0.46765 0.46715 -0.03067
 H706 H 0.44783 0.48251 -0.01174
 H707 H 0.55366 0.51175 0.01454
 H708 H 0.53439 0.52985 0.03405
 O709 O -0.05201 0.00838 0.50824
 O710 O -0.05208 -0.02033 0.49731
 O711 O -0.01291 0.00673 0.54988
 O712 O 0.01591 -0.00010 0.55263
 O713 O -0.01184 0.04929 0.51048
 O714 O -0.00184 0.05120 0.48040
 O715 O 0.03769 -0.03634 0.50227
 O716 O 0.02333 -0.04005 0.52924
 O717 O -0.00155 -0.03761 0.46258
 O718 O -0.02968 -0.02206 0.45749
 O719 O 0.03611 0.00350 0.46213
 O720 O 0.03983 0.03086 0.47850
 O721 O 0.04951 -0.01097 0.49032
 O722 O 0.04951 0.02060 0.50119
 O723 O 0.01204 -0.00915 0.44916
 O724 O -0.01994 0.00083 0.44778
 O725 O 0.01122 -0.05007 0.48719
 O726 O -0.00372 -0.05146 0.51695
 O727 O -0.04034 0.03359 0.49574
 O728 O -0.02355 0.03897 0.46852
 O729 O 0.00052 0.03689 0.53535
 O730 O 0.02924 0.02080 0.53853
 O731 O -0.03730 -0.00557 0.53708
 O732 O -0.03780 -0.03397 0.52048
 Zr733 Zr -0.02990 -0.00884 0.51007
 O734 O -0.01370 -0.02484 0.49354
 Zr735 Zr 0.00526 0.01013 0.52857
 O736 O 0.02287 -0.00559 0.51328
 Zr737 Zr -0.01288 0.02812 0.49231
 O738 O 0.00437 0.01363 0.47540
 Zr739 Zr 0.01074 -0.02959 0.50619
 O740 O -0.00608 -0.01492 0.52364
 Zr741 Zr -0.00701 -0.01116 0.46989
 O742 O -0.02511 0.00409 0.48540
 Zr743 Zr 0.02813 0.00733 0.48883
 O744 O 0.01182 0.02401 0.50490
 O745 O -0.01894 0.01565 0.51644
 O746 O 0.01722 -0.01708 0.48202
 C747 C -0.05337 0.02427 0.50194
 C748 C -0.02876 0.00039 0.55052
 C749 C -0.00590 0.05009 0.52648
 C750 C 0.05070 -0.02711 0.49598
 C751 C 0.00554 -0.05069 0.47109
 C752 C 0.02798 -0.00306 0.44874
 H753 H -0.01995 -0.03611 0.49116
 H754 H 0.00665 0.02064 0.46440
 H755 H -0.02695 0.02291 0.52408
 H756 H 0.03385 -0.00785 0.52017
 H757 H 0.01511 -0.03782 0.53942
 H758 H 0.02304 -0.01072 0.54946
 H759 H -0.01324 0.01166 0.44441
 H760 H -0.03172 0.02993 0.46371
 H761 H 0.00398 -0.06220 0.51617
 H762 H -0.04940 -0.03258 0.52683
 H763 H 0.03169 0.03583 0.46939
 H764 H 0.01030 0.05239 0.48532
 H765 H -0.05241 -0.01532 0.48504
 H766 H -0.03426 -0.03170 0.46532
 H767 H 0.03261 0.03079 0.53051
 H768 H 0.05313 0.01347 0.51173
 O769 O 0.74171 0.19750 0.25936
 O770 O 0.77196 0.19864 0.25406
 O771 O 0.73294 0.23848 0.29891
 O772 O 0.73668 0.26768 0.30110
 O773 O 0.69850 0.23489 0.25270
 O774 O 0.70172 0.24409 0.22243
 O775 O 0.78108 0.28918 0.25755
 O776 O 0.78042 0.27582 0.28520
 O777 O 0.79256 0.24909 0.22029
 O778 O 0.78036 0.21969 0.21418
 O779 O 0.74988 0.28363 0.21062
 O780 O 0.72002 0.28690 0.22158
 O781 O 0.75794 0.29909 0.24052
 O782 O 0.72452 0.29746 0.24555
 O783 O 0.76617 0.25977 0.20135
 O784 O 0.75903 0.22736 0.20017
 O785 O 0.79921 0.26342 0.24602
 O786 O 0.79590 0.24933 0.27609
 O787 O 0.71875 0.20724 0.24196
 O788 O 0.71747 0.22290 0.21369
 O789 O 0.70506 0.24892 0.27862
 O790 O 0.71825 0.27887 0.28285
 O791 O 0.74884 0.21427 0.28975
 O792 O 0.78004 0.21459 0.27831
 Zr793 Zr 0.75681 0.22062 0.26335
 O794 O 0.77481 0.23702 0.24915
 Zr795 Zr 0.73231 0.25526 0.27632
 O796 O 0.74971 0.27308 0.26326
 Zr797 Zr 0.72289 0.23479 0.23854
 O798 O 0.73940 0.25213 0.22367
 Zr799 Zr 0.77546 0.26209 0.26119
 O800 O 0.75861 0.24521 0.27651
 Zr801 Zr 0.76557 0.24200 0.22321
 O802 O 0.74865 0.22374 0.23662
 Zr803 Zr 0.74154 0.27669 0.23670
 O804 O 0.72294 0.26012 0.25031
 O805 O 0.73080 0.23035 0.26472
 O806 O 0.76754 0.26695 0.23492
 C807 C 0.72754 0.19500 0.25022
 C808 C 0.74004 0.22312 0.30154
 C809 C 0.69424 0.24124 0.26802
 C810 C 0.77251 0.30140 0.24911
 C811 C 0.80326 0.25740 0.23052
 C812 C 0.75921 0.27521 0.19895
 H813 H 0.78678 0.23142 0.24909
 H814 H 0.73450 0.25353 0.21153
 H815 H 0.72276 0.22218 0.27135
 H816 H 0.74987 0.28438 0.26991
 H817 H 0.77677 0.26777 0.29511
 H818 H 0.74766 0.27479 0.29970
 H819 H 0.74852 0.23311 0.19464
 H820 H 0.72774 0.21502 0.21092
 H821 H 0.80609 0.25763 0.27686
 H822 H 0.77811 0.20330 0.28501
 H823 H 0.71660 0.27762 0.21300
 H824 H 0.69863 0.25614 0.22675
 H825 H 0.76994 0.19791 0.24105
 H826 H 0.78884 0.21627 0.22367
 H827 H 0.70957 0.28108 0.27318
 H828 H 0.72937 0.30205 0.25685
 O829 O 0.75448 0.71668 0.71132
 O830 O 0.78182 0.71366 0.72463
 O831 O 0.71713 0.71100 0.75534
 O832 O 0.71064 0.72464 0.78070
 O833 O 0.71108 0.75461 0.71683
 O834 O 0.72577 0.78205 0.71263
 O835 O 0.76211 0.75908 0.80132
 O836 O 0.75233 0.73045 0.80214
 O837 O 0.80070 0.76227 0.76009
 O838 O 0.80165 0.75442 0.72876
 O839 O 0.75955 0.80074 0.76226
 O840 O 0.72859 0.80158 0.75482
 O841 O 0.74796 0.78387 0.79071
 O842 O 0.71842 0.78788 0.77535
 O843 O 0.78435 0.79041 0.74790
 O844 O 0.78829 0.77507 0.71863
 O845 O 0.79000 0.74837 0.78507
 O846 O 0.77663 0.71825 0.78507
 O847 O 0.74080 0.74165 0.70045
 O848 O 0.74877 0.77267 0.70029
 O849 O 0.70027 0.74040 0.74158
 O850 O 0.70093 0.74991 0.77319
 O851 O 0.74162 0.70050 0.74055
 O852 O 0.77276 0.70153 0.75106
 Zr853 Zr 0.75865 0.72261 0.73832
 O854 O 0.77560 0.73812 0.75405
 Zr855 Zr 0.72231 0.73820 0.75873
 O856 O 0.73786 0.75378 0.77577
 Zr857 Zr 0.73815 0.75869 0.72256
 O858 O 0.75389 0.77565 0.73806
 Zr859 Zr 0.76335 0.74255 0.77893
 O860 O 0.74695 0.72560 0.76384
 Zr861 Zr 0.77875 0.76356 0.74277
 O862 O 0.76359 0.74731 0.72576
 Zr863 Zr 0.74253 0.77863 0.76365
 O864 O 0.72542 0.76364 0.74722
 O865 O 0.73357 0.73372 0.73373
 O866 O 0.76780 0.76785 0.76807
 C867 C 0.74775 0.72609 0.69865
 C868 C 0.72633 0.69851 0.74810
 C869 C 0.69844 0.74760 0.72610
 C870 C 0.75534 0.77467 0.80319
 C871 C 0.80248 0.75573 0.77586
 C872 C 0.77514 0.80275 0.75538
 H873 H 0.78714 0.73184 0.75544
 H874 H 0.75509 0.78718 0.73173
 H875 H 0.72602 0.72612 0.72618
 H876 H 0.73164 0.75485 0.78742
 H877 H 0.74677 0.71922 0.79827
 H878 H 0.71852 0.72657 0.79101
 H879 H 0.78046 0.78529 0.71566
 H880 H 0.76085 0.76772 0.69808
 H881 H 0.78246 0.71953 0.79683
 H882 H 0.77130 0.69050 0.74404
 H883 H 0.73278 0.80432 0.74254
 H884 H 0.71794 0.78652 0.72235
 H885 H 0.78631 0.72386 0.71749
 H886 H 0.80487 0.74259 0.73368
 H887 H 0.69773 0.76109 0.76688
 H888 H 0.71575 0.78027 0.78587
 O889 O 0.23836 0.29784 0.72981
 O890 O 0.26826 0.29967 0.73665
 O891 O 0.23503 0.25118 0.69709
 O892 O 0.24184 0.22239 0.69940
 O893 O 0.19756 0.25858 0.74086
 O894 O 0.19947 0.25494 0.77223
 O895 O 0.28437 0.21065 0.74819
 O896 O 0.28463 0.21915 0.71868
 O897 O 0.29019 0.25714 0.77835
 O898 O 0.27487 0.28586 0.77955
 O899 O 0.24971 0.22080 0.79157
 O900 O 0.22034 0.21429 0.77993
 O901 O 0.26062 0.20181 0.76523
 O902 O 0.22788 0.20008 0.75870
 O903 O 0.26375 0.24675 0.79773
 O904 O 0.25357 0.27835 0.79399
 O905 O 0.29972 0.23951 0.75556
 O906 O 0.29720 0.24799 0.72353
 O907 O 0.21486 0.28934 0.74742
 O908 O 0.21292 0.27837 0.77781
 O909 O 0.20698 0.24129 0.71777
 O910 O 0.22295 0.21238 0.71841
 O911 O 0.24869 0.27740 0.70309
 O912 O 0.27906 0.28082 0.71545
 Zr913 Zr 0.25539 0.27556 0.73031
 O914 O 0.27351 0.26283 0.74759
 Zr915 Zr 0.23452 0.23773 0.72186
 O916 O 0.25224 0.22336 0.73827
 Zr917 Zr 0.22090 0.26303 0.75556
 O918 O 0.23758 0.24933 0.77363
 Zr919 Zr 0.27692 0.23632 0.73969
 O920 O 0.25999 0.24945 0.72122
 Zr921 Zr 0.26286 0.26124 0.77357
 O922 O 0.24559 0.27602 0.75679
 Zr923 Zr 0.24243 0.22331 0.76463
 O924 O 0.22369 0.23627 0.74786
 O925 O 0.23029 0.26393 0.72940
 O926 O 0.26749 0.23501 0.76597
 C927 C 0.22334 0.30072 0.73768
 C928 C 0.24115 0.26648 0.69252
 C929 C 0.19484 0.24950 0.72671
 C930 C 0.27603 0.19929 0.75803
 C931 C 0.30226 0.24837 0.76988
 C932 C 0.25790 0.23129 0.80208
 H933 H 0.28496 0.26930 0.74720
 H934 H 0.23199 0.24939 0.78563
 H935 H 0.22203 0.27035 0.72132
 H936 H 0.25374 0.21120 0.73354
 H937 H 0.28107 0.22513 0.70741
 H938 H 0.25289 0.21592 0.70258
 H939 H 0.24323 0.27261 0.79993
 H940 H 0.22251 0.28711 0.77978
 H941 H 0.30808 0.24048 0.72450
 H942 H 0.27678 0.29087 0.70708
 H943 H 0.21659 0.22408 0.78790
 H944 H 0.19789 0.24206 0.77019
 H945 H 0.26484 0.30253 0.74910
 H946 H 0.28359 0.28857 0.76993
 H947 H 0.21401 0.21081 0.72811
 H948 H 0.23367 0.19434 0.74830
 O949 O 0.21022 0.74983 0.28618
 O950 O 0.22022 0.72088 0.28791
 O951 O 0.25839 0.78067 0.29194
 O952 O 0.28423 0.78426 0.27760
 O953 O 0.22038 0.79336 0.25001
 O954 O 0.21477 0.78085 0.22159
 O955 O 0.29823 0.73213 0.24085
 O956 O 0.30023 0.74056 0.27010
 O957 O 0.25305 0.69966 0.23683
 O958 O 0.22192 0.70227 0.24619
 O959 O 0.25968 0.74133 0.20015
 O960 O 0.25586 0.77291 0.20048
 O961 O 0.28924 0.74836 0.21666
 O962 O 0.27745 0.77994 0.21422
 O963 O 0.24248 0.71840 0.21008
 O964 O 0.21305 0.71783 0.22630
 O965 O 0.27914 0.70646 0.25042
 O966 O 0.28066 0.71796 0.28151
 O967 O 0.20096 0.76573 0.26184
 O968 O 0.19974 0.75919 0.23037
 O969 O 0.24626 0.80026 0.26396
 O970 O 0.27740 0.79606 0.25282
 O971 O 0.24080 0.75807 0.30208
 O972 O 0.24760 0.72584 0.29961
 Zr973 Zr 0.23648 0.74232 0.27935
 O974 O 0.24997 0.72411 0.26270
 Zr975 Zr 0.26089 0.77622 0.26435
 O976 O 0.27583 0.75924 0.24766
 Zr977 Zr 0.22308 0.76615 0.24426
 O978 O 0.23644 0.74922 0.22621
 Zr979 Zr 0.27600 0.73318 0.25797
 O980 O 0.26310 0.75068 0.27601
 Zr981 Zr 0.23824 0.72354 0.23737
 O982 O 0.22329 0.74011 0.25471
 Zr983 Zr 0.26312 0.75721 0.22288
 O984 O 0.24896 0.77571 0.23902
 O985 O 0.23486 0.76811 0.26916
 O986 O 0.26454 0.73128 0.23276
 C987 C 0.19843 0.75859 0.27731
 C988 C 0.25008 0.77216 0.30438
 C989 C 0.23091 0.80431 0.25759
 C990 C 0.30077 0.73902 0.22531
 C991 C 0.26869 0.69570 0.24249
 C992 C 0.25106 0.72685 0.19782
 H993 H 0.25010 0.71222 0.26847
 H994 H 0.22996 0.74931 0.21478
 H995 H 0.22831 0.77618 0.27733
 H996 H 0.28810 0.76388 0.24646
 H997 H 0.29701 0.74602 0.28169
 H998 H 0.29350 0.77526 0.27491
 H999 H 0.21105 0.72621 0.21625
 H1000 H 0.19608 0.74738 0.23498
 H1001 H 0.29159 0.71072 0.27957
 H1002 H 0.24095 0.72782 0.31095
 H1003 H 0.24308 0.77079 0.19823
 H1004 H 0.22525 0.78774 0.21743
 H1005 H 0.21277 0.71762 0.27762
 H1006 H 0.22677 0.69775 0.25762
 H1007 H 0.27123 0.80060 0.24206
 H1008 H 0.28830 0.78079 0.22157
 O1009 O 0.23350 0.73946 0.79993
 O1010 O 0.24048 0.76930 0.80184
 O1011 O 0.19975 0.73657 0.75389
 O1012 O 0.20135 0.74383 0.72501
 O1013 O 0.24360 0.69925 0.75983
 O1014 O 0.27484 0.70132 0.75555
 O1015 O 0.24975 0.78635 0.71228
 O1016 O 0.22056 0.78649 0.72164
 O1017 O 0.28111 0.79175 0.75829
 O1018 O 0.28294 0.77621 0.78698
 O1019 O 0.29344 0.75175 0.72125
 O1020 O 0.28159 0.72260 0.71469
 O1021 O 0.26659 0.76284 0.70283
 O1022 O 0.26006 0.73019 0.70103
 O1023 O 0.30022 0.76540 0.74729
 O1024 O 0.29712 0.75506 0.77901
 O1025 O 0.25795 0.80138 0.74122
 O1026 O 0.22619 0.79873 0.75053
 O1027 O 0.25081 0.71614 0.79076
 O1028 O 0.28092 0.71446 0.77906
 O1029 O 0.22013 0.70880 0.74313
 O1030 O 0.22004 0.72507 0.71431
 O1031 O 0.20637 0.74994 0.78017
 O1032 O 0.21881 0.78021 0.78354
 Zr1033 Zr 0.23351 0.75671 0.77770
 O1034 O 0.25049 0.77497 0.76465
 Zr1035 Zr 0.22414 0.73633 0.73976
 O1036 O 0.24022 0.75419 0.72509
 Zr1037 Zr 0.25838 0.72252 0.76422
 O1038 O 0.27611 0.73936 0.75018
 Zr1039 Zr 0.24198 0.77866 0.73824
 O1040 O 0.22383 0.76159 0.75175
 Zr1041 Zr 0.27637 0.76444 0.76233
 O1042 O 0.25995 0.74701 0.77743
 Zr1043 Zr 0.26654 0.74448 0.72431
 O1044 O 0.25006 0.72561 0.73756
 O1045 O 0.23229 0.73181 0.76583
 O1046 O 0.26820 0.76935 0.73621
 C1047 C 0.24136 0.72444 0.80250
 C1048 C 0.19554 0.74249 0.76941
 C1049 C 0.22927 0.69662 0.75101
 C1050 C 0.25926 0.77817 0.70056
 C1051 C 0.27246 0.80387 0.74978
 C1052 C 0.30422 0.75971 0.73165
 H1053 H 0.25027 0.78632 0.77123
 H1054 H 0.28808 0.73380 0.74992
 H1055 H 0.22436 0.72348 0.77238
 H1056 H 0.23521 0.75579 0.71301
 H1057 H 0.20946 0.78283 0.72791
 H1058 H 0.20445 0.75485 0.71842
 H1059 H 0.30282 0.74473 0.77312
 H1060 H 0.28305 0.72391 0.78791
 H1061 H 0.22698 0.80966 0.74305
 H1062 H 0.21072 0.77781 0.79384
 H1063 H 0.28969 0.71870 0.72432
 H1064 H 0.27250 0.69985 0.74266
 H1065 H 0.25296 0.76584 0.80439
 H1066 H 0.27339 0.78483 0.79000
 H1067 H 0.22972 0.71626 0.71237
 H1068 H 0.24952 0.73598 0.69558
 O1069 O 0.25468 0.21653 0.20912
 O1070 O 0.28199 0.21335 0.22245
 O1071 O 0.21728 0.21080 0.25314
 O1072 O 0.21080 0.22438 0.27852
 O1073 O 0.21140 0.25455 0.21475
 O1074 O 0.22617 0.28198 0.21069
 O1075 O 0.26235 0.25854 0.29932
 O1076 O 0.25248 0.22992 0.30000
 O1077 O 0.30100 0.26174 0.25813
 O1078 O 0.30194 0.25402 0.22675
 O1079 O 0.26002 0.30034 0.26047
 O1080 O 0.22907 0.30136 0.25293
 O1081 O 0.24828 0.28342 0.28878
 O1082 O 0.21878 0.28759 0.27337
 O1083 O 0.28479 0.28998 0.24610
 O1084 O 0.28868 0.27479 0.21673
 O1085 O 0.29022 0.24782 0.28306
 O1086 O 0.27677 0.21774 0.28293
 O1087 O 0.24111 0.24160 0.19835
 O1088 O 0.24915 0.27258 0.19832
 O1089 O 0.20054 0.24027 0.23944
 O1090 O 0.20118 0.24971 0.27107
 O1091 O 0.24173 0.20026 0.23831
 O1092 O 0.27288 0.20115 0.24882
 Zr1093 Zr 0.25884 0.22232 0.23616
 O1094 O 0.27582 0.23772 0.25198
 Zr1095 Zr 0.22254 0.23797 0.25661
 O1096 O 0.23812 0.25343 0.27372
 Zr1097 Zr 0.23847 0.25854 0.22052
 O1098 O 0.25427 0.27539 0.23610
 Zr1099 Zr 0.26357 0.24210 0.27686
 O1100 O 0.24713 0.22526 0.26168
 Zr1101 Zr 0.27908 0.26318 0.24080
 O1102 O 0.26388 0.24706 0.22370
 Zr1103 Zr 0.24289 0.27830 0.26170
 O1104 O 0.22574 0.26344 0.24519
 O1105 O 0.23381 0.23354 0.23159
 O1106 O 0.26811 0.26742 0.26610
 C1107 C 0.24801 0.22603 0.19648
 C1108 C 0.22643 0.19830 0.24586
 C1109 C 0.19874 0.24753 0.22398
 C1110 C 0.25562 0.27415 0.30124
 C1111 C 0.30274 0.25517 0.27389
 C1112 C 0.27564 0.30231 0.25365
 H1113 H 0.28734 0.23139 0.25335
 H1114 H 0.25552 0.28694 0.22983
 H1115 H 0.22624 0.22600 0.22401
 H1116 H 0.23189 0.25448 0.28537
 H1117 H 0.24689 0.21874 0.29607
 H1118 H 0.21866 0.22627 0.28885
 H1119 H 0.28091 0.28508 0.21382
 H1120 H 0.26123 0.26764 0.19613
 H1121 H 0.28260 0.21896 0.29469
 H1122 H 0.27138 0.19015 0.24177
 H1123 H 0.23329 0.30413 0.24067
 H1124 H 0.21835 0.28643 0.22043
 H1125 H 0.28653 0.22357 0.21537
 H1126 H 0.30513 0.24217 0.23165
 H1127 H 0.19801 0.26091 0.26478
 H1128 H 0.21608 0.27997 0.28387
 O1129 O 0.78489 0.71031 0.24972
 O1130 O 0.78601 0.71992 0.22040
 O1131 O 0.79146 0.75871 0.27975
 O1132 O 0.77731 0.78450 0.28336
 O1133 O 0.74965 0.72099 0.29390
 O1134 O 0.72099 0.71528 0.28200
 O1135 O 0.73967 0.79796 0.23155
 O1136 O 0.76903 0.80001 0.23939
 O1137 O 0.73492 0.75248 0.19964
 O1138 O 0.74407 0.72147 0.20257
 O1139 O 0.69903 0.75966 0.24214
 O1140 O 0.69994 0.75622 0.27386
 O1141 O 0.71580 0.78921 0.24848
 O1142 O 0.71393 0.77776 0.28037
 O1143 O 0.70844 0.74227 0.21915
 O1144 O 0.72442 0.71289 0.21868
 O1145 O 0.74871 0.77857 0.20584
 O1146 O 0.77994 0.78021 0.21680
 O1147 O 0.76084 0.70130 0.26628
 O1148 O 0.72927 0.70004 0.26029
 O1149 O 0.76386 0.74683 0.30017
 O1150 O 0.75278 0.77786 0.29576
 O1151 O 0.80104 0.74088 0.25713
 O1152 O 0.79800 0.74724 0.22476
 Zr1153 Zr 0.77801 0.73640 0.24186
 O1154 O 0.76111 0.74971 0.22374
 Zr1155 Zr 0.76382 0.76116 0.27584
 O1156 O 0.74690 0.77591 0.25893
 Zr1157 Zr 0.74338 0.72338 0.26667
 O1158 O 0.72510 0.73654 0.24986
 Zr1159 Zr 0.75669 0.77577 0.23258
 O1160 O 0.77498 0.76306 0.24995
 Zr1161 Zr 0.73576 0.73803 0.22384
 O1162 O 0.75331 0.72326 0.24033
 Zr1163 Zr 0.72206 0.76324 0.25757
 O1164 O 0.73847 0.74929 0.27601
 O1165 O 0.76834 0.73511 0.26798
 O1166 O 0.73142 0.76435 0.23132
 C1167 C 0.77616 0.69868 0.25888
 C1168 C 0.80366 0.75031 0.27106
 C1169 C 0.75750 0.73159 0.30457
 C1170 C 0.72430 0.80060 0.23877
 C1171 C 0.74062 0.76801 0.19533
 C1172 C 0.69640 0.75091 0.22777
 H1173 H 0.76665 0.74968 0.21171
 H1174 H 0.71365 0.73010 0.25027
 H1175 H 0.77664 0.72867 0.27601
 H1176 H 0.74586 0.78819 0.26345
 H1177 H 0.78070 0.79685 0.24467
 H1178 H 0.77458 0.79363 0.27419
 H1179 H 0.71457 0.71100 0.22735
 H1180 H 0.73366 0.69624 0.24841
 H1181 H 0.77792 0.79104 0.20941
 H1182 H 0.80931 0.74056 0.22659
 H1183 H 0.69763 0.74344 0.27199
 H1184 H 0.71703 0.72581 0.28886
 H1185 H 0.77568 0.71235 0.21757
 H1186 H 0.75547 0.72616 0.19782
 H1187 H 0.74211 0.77175 0.30065
 H1188 H 0.72133 0.78858 0.28093
 O1189 O 0.70959 0.24817 0.78651
 O1190 O 0.71985 0.21929 0.78810
 O1191 O 0.75753 0.27940 0.79204
 O1192 O 0.78325 0.28321 0.77755
 O1193 O 0.71916 0.29189 0.75039
 O1194 O 0.71344 0.27939 0.72198
 O1195 O 0.79743 0.23133 0.74052
 O1196 O 0.79957 0.23971 0.76977
 O1197 O 0.75252 0.19848 0.73673
 O1198 O 0.72144 0.20077 0.74629
 O1199 O 0.75851 0.24033 0.70011
 O1200 O 0.75441 0.27192 0.70061
 O1201 O 0.78813 0.24755 0.71643
 O1202 O 0.77609 0.27900 0.71414
 O1203 O 0.74157 0.21721 0.71008
 O1204 O 0.71227 0.21635 0.72655
 O1205 O 0.77864 0.20547 0.75017
 O1206 O 0.78027 0.21690 0.78126
 O1207 O 0.70004 0.26406 0.76229
 O1208 O 0.69864 0.25760 0.73082
 O1209 O 0.74507 0.29895 0.76417
 O1210 O 0.77617 0.29505 0.75286
 O1211 O 0.74021 0.25662 0.80224
 O1212 O 0.74727 0.22444 0.79962
 Zr1213 Zr 0.73587 0.24089 0.77948
 O1214 O 0.74940 0.22284 0.76268
 Zr1215 Zr 0.75989 0.27503 0.76442
 O1216 O 0.77485 0.25823 0.74757
 Zr1217 Zr 0.72203 0.26470 0.74456
 O1218 O 0.73540 0.24793 0.72637
 Zr1219 Zr 0.77531 0.23215 0.75780
 O1220 O 0.76240 0.24948 0.77599
 Zr1221 Zr 0.73750 0.22223 0.73743
 O1222 O 0.72254 0.23863 0.75493
 Zr1223 Zr 0.76198 0.25617 0.72288
 O1224 O 0.74779 0.27449 0.73918
 O1225 O 0.73396 0.26670 0.76939
 O1226 O 0.76370 0.23022 0.73266
 C1227 C 0.69767 0.25686 0.77775
 C1228 C 0.74939 0.27078 0.80451
 C1229 C 0.72966 0.30290 0.75790
 C1230 C 0.79979 0.23828 0.72497
 C1231 C 0.76823 0.19463 0.74229
 C1232 C 0.74999 0.22579 0.69778
 H1233 H 0.74967 0.21094 0.76842
 H1234 H 0.72883 0.24800 0.71498
 H1235 H 0.72740 0.27469 0.77762
 H1236 H 0.78707 0.26298 0.74630
 H1237 H 0.79639 0.24508 0.78141
 H1238 H 0.79259 0.27431 0.77474
 H1239 H 0.71013 0.22474 0.71653
 H1240 H 0.69511 0.24573 0.73542
 H1241 H 0.79127 0.20978 0.77923
 H1242 H 0.74068 0.22634 0.81101
 H1243 H 0.74166 0.26961 0.69838
 H1244 H 0.72384 0.28637 0.71777
 H1245 H 0.71235 0.21600 0.77785
 H1246 H 0.72637 0.19631 0.75770
 H1247 H 0.76991 0.29954 0.74212
 H1248 H 0.78695 0.27996 0.72147
 C1249 C 0.10622 0.99988 1.21651
 C1250 C 0.09762 1.00016 1.20300
 C1251 C 0.08798 1.00079 1.18651
 C1252 C 0.08208 1.01714 1.17963
 C1253 C 0.07380 1.01796 1.16299
 C1254 C 0.07139 1.00241 1.15300
 C1255 C 0.07710 0.98600 1.16017
 C1256 C 0.08537 0.98522 1.17682
 C1257 C 0.06338 1.00336 1.13496
 C1258 C 0.07051 0.99313 1.12094
 C1259 C 0.06307 0.99404 1.10392
 C1260 C 0.04842 1.00518 1.10069
 C1261 C 0.04125 1.01546 1.11452
 C1262 C 0.04869 1.01459 1.13156
 C1263 C 0.04054 1.00565 1.08326
 C1264 C 0.03394 1.00558 1.06866
 H1265 H 0.08417 1.02929 1.18697
 H1266 H 0.06974 1.03080 1.15773
 H1267 H 0.07521 0.97378 1.15290
 H1268 H 0.08993 0.97250 1.18201
 H1269 H 0.08198 0.98457 1.12307
 H1270 H 0.06871 0.98602 1.09330
 H1271 H 0.02984 1.02405 1.11216
 H1272 H 0.04281 1.02248 1.14214
 C1273 C 0.60713 0.50023 0.71666
 C1274 C 0.59841 0.50075 0.70324
 C1275 C 0.58849 0.50173 0.68692
 C1276 C 0.58345 0.51831 0.67993
 C1277 C 0.57470 0.51941 0.66356
 C1278 C 0.57089 0.50390 0.65397
 C1279 C 0.57580 0.48727 0.66124
 C1280 C 0.58457 0.48621 0.67760
 C1281 C 0.56221 0.50507 0.63627
 C1282 C 0.54904 0.49278 0.63153
 C1283 C 0.54124 0.49359 0.61467
 C1284 C 0.54649 0.50669 0.60234
 C1285 C 0.55947 0.51908 0.60697
 C1286 C 0.56728 0.51830 0.62384
 C1287 C 0.53880 0.50710 0.58483
 C1288 C 0.53231 0.50704 0.57018
 H1289 H 0.58646 0.53041 0.68704
 H1290 H 0.57088 0.53238 0.65842
 H1291 H 0.57326 0.47512 0.65405
 H1292 H 0.58854 0.47332 0.68285
 H1293 H 0.54472 0.48259 0.64090
 H1294 H 0.53119 0.48395 0.61121
 H1295 H 0.56367 0.52922 0.59748
 H1296 H 0.57755 0.52780 0.62701
 C1297 C 0.39588 0.00084 0.71997
 C1298 C 0.40452 0.00089 0.70633
 C1299 C 0.41419 0.00084 0.68966
 C1300 C 0.41781 0.01689 0.68079
 C1301 C 0.42612 0.01680 0.66400
 C1302 C 0.43088 0.00063 0.65586
 C1303 C 0.42744 -0.01542 0.66503
 C1304 C 0.41912 -0.01530 0.68181
 C1305 C 0.43897 0.00048 0.63770
 C1306 C 0.45290 -0.01144 0.63350
 C1307 C 0.46029 -0.01173 0.61629
 C1308 C 0.45385 -0.00015 0.60308
 C1309 C 0.44002 0.01176 0.60713
 C1310 C 0.43262 0.01209 0.62432
 C1311 C 0.46150 -0.00040 0.58540
 C1312 C 0.46802 -0.00050 0.57064
 H1313 H 0.41400 0.02946 0.68673
 H1314 H 0.42881 0.02938 0.65737
 H1315 H 0.43074 -0.02808 0.65902
 H1316 H 0.41624 -0.02780 0.68852
 H1317 H 0.45820 -0.02039 0.64356
 H1318 H 0.47105 -0.02095 0.61330
 H1319 H 0.43492 0.02077 0.59698
 H1320 H 0.42174 0.02123 0.62706
 C1321 C -0.10656 0.49918 1.21767
 C1322 C -0.09810 0.49914 1.20392
 C1323 C -0.08858 0.49896 1.18717
 C1324 C -0.08270 0.48282 1.17998
 C1325 C -0.07441 0.48249 1.16319
 C1326 C -0.07196 0.49833 1.15335
 C1327 C -0.07769 0.51452 1.16081
 C1328 C -0.08596 0.51482 1.17761
 C1329 C -0.06381 0.49792 1.13522
 C1330 C -0.07079 0.50856 1.12137
 C1331 C -0.06327 0.50803 1.10423
 C1332 C -0.04869 0.49686 1.10072
 C1333 C -0.04163 0.48623 1.11439
 C1334 C -0.04914 0.48674 1.13154
 C1335 C -0.04088 0.49644 1.08312
 C1336 C -0.03422 0.49619 1.06842
 H1337 H -0.08479 0.47045 1.18722
 H1338 H -0.07035 0.46980 1.15771
 H1339 H -0.07577 0.52696 1.15366
 H1340 H -0.09050 0.52738 1.18305
 H1341 H -0.08224 0.51710 1.12372
 H1342 H -0.06885 0.51629 1.09373
 H1343 H -0.03029 0.47760 1.11182
 H1344 H -0.04335 0.47854 1.14197
 C1345 C -0.11009 0.49974 0.28404
 C1346 C -0.10371 0.50082 0.29871
 C1347 C -0.09576 0.50223 0.31607
 C1348 C -0.07736 0.49979 0.31796
 C1349 C -0.06952 0.50127 0.33475
 C1350 C -0.08000 0.50521 0.34991
 C1351 C -0.09851 0.50763 0.34787
 C1352 C -0.10632 0.50616 0.33105
 C1353 C -0.07165 0.50657 0.36777
 C1354 C -0.08008 0.49927 0.38300
 C1355 C -0.07189 0.49999 0.39968
 C1356 C -0.05521 0.50803 0.40139
 C1357 C -0.04683 0.51555 0.38637
 C1358 C -0.05499 0.51484 0.36967
 C1359 C -0.04637 0.50791 0.41838
 C1360 C -0.03882 0.50737 0.43253
 H1361 H -0.06906 0.49671 0.30646
 H1362 H -0.05529 0.49906 0.33590
 H1363 H -0.10691 0.51087 0.35924
 H1364 H -0.12058 0.50815 0.32973
 H1365 H -0.09279 0.49263 0.38194
 H1366 H -0.07844 0.49403 0.41120
 H1367 H -0.03391 0.52180 0.38753
 H1368 H -0.04828 0.52080 0.35826
 C1369 C 0.38978 1.00059 -0.21489
 C1370 C 0.39581 1.00161 -0.20006
 C1371 C 0.40326 1.00289 -0.18246
 C1372 C 0.41192 1.01845 -0.17733
 C1373 C 0.41959 1.01956 -0.16042
 C1374 C 0.41869 1.00509 -0.14840
 C1375 C 0.40982 0.98955 -0.15364
 C1376 C 0.40218 0.98847 -0.17056
 C1377 C 0.42727 1.00604 -0.13061
 C1378 C 0.41888 0.99870 -0.11538
 C1379 C 0.42724 0.99910 -0.09877
 C1380 C 0.44407 1.00685 -0.09714
 C1381 C 0.45244 1.01436 -0.11216
 C1382 C 0.44410 1.01399 -0.12879
 C1383 C 0.45302 1.00648 -0.08020
 C1384 C 0.46062 1.00577 -0.06609
 H1385 H 0.41281 1.02970 -0.18643
 H1386 H 0.42612 1.03177 -0.15671
 H1387 H 0.40912 0.97810 -0.14479
 H1388 H 0.39557 0.97633 -0.17442
 H1389 H 0.40583 0.99269 -0.11630
 H1390 H 0.42064 0.99323 -0.08723
 H1391 H 0.46551 1.02029 -0.11108
 H1392 H 0.45101 1.01954 -0.14029
 C1393 C 0.61134 0.50005 -0.21711
 C1394 C 0.60509 0.49998 -0.20222
 C1395 C 0.59731 0.49991 -0.18458
 C1396 C 0.60172 0.48644 -0.17235
 C1397 C 0.59377 0.48612 -0.15538
 C1398 C 0.58130 0.49929 -0.15042
 C1399 C 0.57706 0.51284 -0.16279
 C1400 C 0.58501 0.51312 -0.17975
 C1401 C 0.57257 0.49880 -0.13254
 C1402 C 0.56961 0.51458 -0.12296
 C1403 C 0.56110 0.51414 -0.10628
 C1404 C 0.55542 0.49793 -0.09893
 C1405 C 0.55837 0.48214 -0.10830
 C1406 C 0.56689 0.48255 -0.12499
 C1407 C 0.54643 0.49753 -0.08187
 C1408 C 0.53884 0.49723 -0.06761
 H1409 H 0.61124 0.47615 -0.17595
 H1410 H 0.59748 0.47565 -0.14608
 H1411 H 0.56734 0.52302 -0.15948
 H1412 H 0.58144 0.52356 -0.18915
 H1413 H 0.57403 0.52726 -0.12831
 H1414 H 0.55892 0.52643 -0.09911
 H1415 H 0.55398 0.46953 -0.10276
 H1416 H 0.56875 0.47021 -0.13212
 C1417 C 0.11047 -0.00045 0.28279
 C1418 C 0.10429 -0.00084 0.29770
 C1419 C 0.09662 -0.00129 0.31539
 C1420 C 0.09013 0.01436 0.32313
 C1421 C 0.08220 0.01387 0.34010
 C1422 C 0.08063 -0.00232 0.34956
 C1423 C 0.08732 -0.01797 0.34171
 C1424 C 0.09526 -0.01744 0.32473
 C1425 C 0.07181 -0.00288 0.36740
 C1426 C 0.06014 -0.01682 0.37200
 C1427 C 0.05150 -0.01712 0.38864
 C1428 C 0.05442 -0.00352 0.40089
 C1429 C 0.06611 0.01032 0.39651
 C1430 C 0.07476 0.01065 0.37988
 C1431 C 0.04519 -0.00357 0.41783
 C1432 C 0.03737 -0.00344 0.43197
 H1433 H 0.09104 0.02692 0.31598
 H1434 H 0.07697 0.02610 0.34567
 H1435 H 0.08651 -0.03059 0.34873
 H1436 H 0.10025 -0.02964 0.31887
 H1437 H 0.05742 -0.02731 0.36261
 H1438 H 0.04243 -0.02786 0.39187
 H1439 H 0.06849 0.02090 0.40591
 H1440 H 0.08383 0.02143 0.37683
 C1441 C 0.21630 1.10706 0.99740
 C1442 C 0.20261 1.09877 0.99762
 C1443 C 0.18596 1.08942 0.99824
 C1444 C 0.17223 1.09438 0.98666
 C1445 C 0.15565 1.08607 0.98792
 C1446 C 0.15259 1.07269 1.00083
 C1447 C 0.16657 1.06760 1.01224
 C1448 C 0.18314 1.07596 1.01096
 C1449 C 0.13481 1.06427 1.00251
 C1450 C 0.13328 1.04583 1.00542
 C1451 C 0.11649 1.03792 1.00668
 C1452 C 0.10105 1.04834 1.00511
 C1453 C 0.10243 1.06672 1.00241
 C1454 C 0.11920 1.07464 1.00113
 C1455 C 0.08378 1.04015 1.00555
 C1456 C 0.06929 1.03334 1.00544
 H1457 H 0.17428 1.10481 0.97679
 H1458 H 0.14523 1.09007 0.97879
 H1459 H 0.16455 1.05748 1.02242
 H1460 H 0.19366 1.07212 1.02007
 H1461 H 0.14507 1.03748 1.00636
 H1462 H 0.11554 1.02366 1.00866
 H1463 H 0.09055 1.07490 1.00116
 H1464 H 0.11995 1.08891 0.99916
 C1465 C 0.71581 0.60688 0.49979
 C1466 C 0.70207 0.59867 0.50000
 C1467 C 0.68532 0.58950 0.50057
 C1468 C 0.67229 0.59348 0.48788
 C1469 C 0.65555 0.58547 0.48905
 C1470 C 0.65164 0.57339 0.50298
 C1471 C 0.66493 0.56927 0.51553
 C1472 C 0.68166 0.57731 0.51433
 C1473 C 0.63367 0.56537 0.50455
 C1474 C 0.63170 0.54729 0.50912
 C1475 C 0.61475 0.53972 0.51029
 C1476 C 0.59958 0.55013 0.50697
 C1477 C 0.60139 0.56815 0.50260
 C1478 C 0.61832 0.57574 0.50141
 C1479 C 0.58220 0.54219 0.50736
 C1480 C 0.56765 0.53550 0.50720
 H1481 H 0.67499 0.60293 0.47720
 H1482 H 0.64568 0.58871 0.47905
 H1483 H 0.66224 0.56017 0.52650
 H1484 H 0.69163 0.57426 0.52430
 H1485 H 0.64328 0.53894 0.51143
 H1486 H 0.61348 0.52571 0.51357
 H1487 H 0.58972 0.57631 0.50000
 H1488 H 0.61940 0.58975 0.49813
 C1489 C 0.72018 0.39200 -0.00009
 C1490 C 0.70642 0.40040 -0.00015
 C1491 C 0.68969 0.40986 -0.00031
 C1492 C 0.68258 0.41592 -0.01649
 C1493 C 0.66583 0.42419 -0.01679
 C1494 C 0.65595 0.42647 -0.00090
 C1495 C 0.66333 0.42054 0.01533
 C1496 C 0.68007 0.41226 0.01560
 C1497 C 0.63788 0.43467 -0.00127
 C1498 C 0.63241 0.44660 0.01212
 C1499 C 0.61530 0.45408 0.01189
 C1500 C 0.60343 0.44975 -0.00170
 C1501 C 0.60875 0.43795 -0.01510
 C1502 C 0.62586 0.43045 -0.01490
 C1503 C 0.58581 0.45744 -0.00188
 C1504 C 0.57110 0.46401 -0.00196
 H1505 H 0.68990 0.41409 -0.02889
 H1506 H 0.66062 0.42882 -0.02946
 H1507 H 0.65596 0.42189 0.02776
 H1508 H 0.68539 0.40749 0.02818
 H1509 H 0.64143 0.45027 0.02266
 H1510 H 0.61134 0.46326 0.02229
 H1511 H 0.59965 0.43447 -0.02566
 H1512 H 0.62957 0.42113 -0.02525
 C1513 C 0.21874 -0.10370 0.49922
 C1514 C 0.20479 -0.09566 0.49878
 C1515 C 0.18780 -0.08669 0.49816
 C1516 C 0.17952 -0.08364 0.48173
 C1517 C 0.16253 -0.07589 0.48115
 C1518 C 0.15359 -0.07111 0.49702
 C1519 C 0.16213 -0.07405 0.51346
 C1520 C 0.17911 -0.08181 0.51401
 C1521 C 0.13533 -0.06337 0.49646
 C1522 C 0.13044 -0.04940 0.50792
 C1523 C 0.11318 -0.04229 0.50756
 C1524 C 0.10056 -0.04905 0.49578
 C1525 C 0.10529 -0.06291 0.48429
 C1526 C 0.12256 -0.07003 0.48462
 C1527 C 0.08281 -0.04169 0.49554
 C1528 C 0.06805 -0.03523 0.49559
 H1529 H 0.18611 -0.08741 0.46939
 H1530 H 0.15641 -0.07359 0.46828
 H1531 H 0.15551 -0.07074 0.52591
 H1532 H 0.18534 -0.08426 0.52681
 H1533 H 0.14001 -0.04384 0.51702
 H1534 H 0.10967 -0.03151 0.51646
 H1535 H 0.09562 -0.06826 0.47515
 H1536 H 0.12584 -0.08095 0.47581
 C1537 C 0.28517 -0.10583 0.49960
 C1538 C 0.29979 -0.09925 0.50020
 C1539 C 0.31714 -0.09117 0.50102
 C1540 C 0.33039 -0.09860 0.51188
 C1541 C 0.34713 -0.09056 0.51290
 C1542 C 0.35084 -0.07494 0.50307
 C1543 C 0.33744 -0.06763 0.49215
 C1544 C 0.32072 -0.07569 0.49114
 C1545 C 0.36858 -0.06629 0.50421
 C1546 C 0.36994 -0.04764 0.50473
 C1547 C 0.38663 -0.03949 0.50552
 C1548 C 0.40221 -0.04984 0.50580
 C1549 C 0.40101 -0.06840 0.50541
 C1550 C 0.38432 -0.07659 0.50464
 C1551 C 0.41940 -0.04137 0.50606
 C1552 C 0.43376 -0.03420 0.50599
 H1553 H 0.32774 -0.11054 0.51965
 H1554 H 0.35708 -0.09640 0.52159
 H1555 H 0.33994 -0.05577 0.48422
 H1556 H 0.31058 -0.06984 0.48267
 H1557 H 0.35809 -0.03934 0.50467
 H1558 H 0.38739 -0.02510 0.50583
 H1559 H 0.41298 -0.07655 0.50554
 H1560 H 0.38375 -0.09096 0.50404
 C1561 C -0.21543 0.38832 0.99932
 C1562 C -0.20081 0.39493 0.99986
 C1563 C -0.18355 0.40322 1.00056
 C1564 C -0.18218 0.42171 0.99890
 C1565 C -0.16550 0.42989 0.99968
 C1566 C -0.14992 0.41966 1.00214
 C1567 C -0.15143 0.40106 1.00378
 C1568 C -0.16815 0.39290 1.00301
 C1569 C -0.13218 0.42839 1.00290
 C1570 C -0.11721 0.42072 0.99442
 C1571 C -0.10062 0.42914 0.99483
 C1572 C -0.09875 0.44531 1.00374
 C1573 C -0.11352 0.45297 1.01233
 C1574 C -0.13012 0.44459 1.01193
 C1575 C -0.08176 0.45418 1.00377
 C1576 C -0.06755 0.46164 1.00360
 H1577 H -0.19401 0.42983 0.99697
 H1578 H -0.16478 0.44420 0.99812
 H1579 H -0.13973 0.39283 1.00589
 H1580 H -0.16905 0.37858 1.00437
 H1581 H -0.11839 0.40839 0.98718
 H1582 H -0.08930 0.42311 0.98807
 H1583 H -0.11223 0.46547 1.01929
 H1584 H -0.14131 0.45071 1.01879
 C1585 C -0.21792 0.60933 0.49959
 C1586 C -0.20322 0.60276 0.49924
 C1587 C -0.18582 0.59462 0.49882
 C1588 C -0.18375 0.57684 0.50413
 C1589 C -0.16692 0.56878 0.50359
 C1590 C -0.15190 0.57840 0.49772
 C1591 C -0.15410 0.59630 0.49245
 C1592 C -0.17097 0.60434 0.49299
 C1593 C -0.13404 0.56978 0.49711
 C1594 C -0.11879 0.57902 0.50257
 C1595 C -0.10204 0.57073 0.50231
 C1596 C -0.10032 0.55314 0.49654
 C1597 C -0.11538 0.54389 0.49095
 C1598 C -0.13213 0.55214 0.49121
 C1599 C -0.08317 0.54444 0.49665
 C1600 C -0.06891 0.53697 0.49685
 H1601 H -0.19516 0.56922 0.50871
 H1602 H -0.16562 0.55507 0.50798
 H1603 H -0.14284 0.60399 0.48768
 H1604 H -0.17244 0.61809 0.48880
 H1605 H -0.11986 0.59253 0.50737
 H1606 H -0.09047 0.57799 0.50673
 H1607 H -0.11418 0.53028 0.48643
 H1608 H -0.14357 0.54477 0.48668
 C1609 C 0.28252 1.10933 -0.00180
 C1610 C 0.29716 1.10264 -0.00174
 C1611 C 0.31447 1.09429 -0.00166
 C1612 C 0.31664 1.07751 0.00628
 C1613 C 0.33334 1.06917 0.00614
 C1614 C 0.34813 1.07751 -0.00196
 C1615 C 0.34584 1.09444 -0.00983
 C1616 C 0.32910 1.10275 -0.00969
 C1617 C 0.36583 1.06855 -0.00224
 C1618 C 0.38150 1.07823 0.00080
 C1619 C 0.39812 1.06969 0.00076
 C1620 C 0.39929 1.05139 -0.00235
 C1621 C 0.38380 1.04166 -0.00549
 C1622 C 0.36718 1.05017 -0.00544
 C1623 C 0.41634 1.04251 -0.00212
 C1624 C 0.43056 1.03495 -0.00184
 H1625 H 0.30541 1.07085 0.01256
 H1626 H 0.33473 1.05627 0.01254
 H1627 H 0.35692 1.10110 -0.01635
 H1628 H 0.32754 1.11572 -0.01593
 H1629 H 0.38088 1.09234 0.00351
 H1630 H 0.41003 1.07733 0.00327
 H1631 H 0.38457 1.02750 -0.00796
 H1632 H 0.35539 1.04240 -0.00808
 C1633 C -0.00079 1.21593 1.10563
 C1634 C -0.00044 1.20247 1.09704
 C1635 C 0.00038 1.18610 1.08728
 C1636 C 0.01682 1.17968 1.08104
 C1637 C 0.01784 1.16328 1.07244
 C1638 C 0.00239 1.15308 1.07000
 C1639 C -0.01412 1.15978 1.07612
 C1640 C -0.01510 1.17618 1.08472
 C1641 C 0.00353 1.13537 1.06148
 C1642 C -0.00958 1.12998 1.04939
 C1643 C -0.00874 1.11310 1.04174
 C1644 C 0.00518 1.10141 1.04609
 C1645 C 0.01836 1.10669 1.05799
 C1646 C 0.01757 1.12357 1.06564
 C1647 C 0.00567 1.08390 1.03854
 C1648 C 0.00566 1.06925 1.03217
 H1649 H 0.02888 1.18726 1.08299
 H1650 H 0.03069 1.15858 1.06769
 H1651 H -0.02620 1.15213 1.07464
 H1652 H -0.02787 1.18098 1.08963
 H1653 H -0.02041 1.13884 1.04576
 H1654 H -0.01900 1.10915 1.03251
 H1655 H 0.02916 1.09770 1.06149
 H1656 H 0.02772 1.12725 1.07509
 C1657 C 0.49938 0.71856 0.60609
 C1658 C 0.49949 0.70497 0.59768
 C1659 C 0.49995 0.68842 0.58823
 C1660 C 0.51629 0.68129 0.58253
 C1661 C 0.51693 0.66467 0.57433
 C1662 C 0.50120 0.65494 0.57180
 C1663 C 0.48480 0.66235 0.57733
 C1664 C 0.48419 0.67898 0.58552
 C1665 C 0.50195 0.63696 0.56379
 C1666 C 0.49134 0.62315 0.57080
 C1667 C 0.49210 0.60618 0.56338
 C1668 C 0.50347 0.60277 0.54888
 C1669 C 0.51411 0.61640 0.54181
 C1670 C 0.51338 0.63340 0.54923
 C1671 C 0.50389 0.58539 0.54105
 C1672 C 0.50386 0.57083 0.53445
 H1673 H 0.52858 0.68844 0.58469
 H1674 H 0.52977 0.65923 0.57042
 H1675 H 0.47245 0.65528 0.57534
 H1676 H 0.47148 0.68437 0.58992
 H1677 H 0.48261 0.62540 0.58217
 H1678 H 0.48381 0.59571 0.56894
 H1679 H 0.52289 0.61392 0.53052
 H1680 H 0.52156 0.64380 0.54343
 C1681 C -0.00373 0.71823 0.39450
 C1682 C -0.00417 0.70444 0.40280
 C1683 C -0.00474 0.68762 0.41207
 C1684 C -0.02089 0.67850 0.41380
 C1685 C -0.02129 0.66162 0.42177
 C1686 C -0.00550 0.65364 0.42806
 C1687 C 0.01062 0.66305 0.42651
 C1688 C 0.01098 0.67993 0.41854
 C1689 C -0.00578 0.63542 0.43585
 C1690 C 0.00786 0.62317 0.43168
 C1691 C 0.00758 0.60598 0.43891
 C1692 C -0.00632 0.60080 0.45038
 C1693 C -0.01997 0.61286 0.45459
 C1694 C -0.01973 0.63007 0.44736
 C1695 C -0.00631 0.58323 0.45812
 C1696 C -0.00603 0.56858 0.46476
 H1697 H -0.03311 0.68429 0.40870
 H1698 H -0.03386 0.65463 0.42258
 H1699 H 0.02294 0.65736 0.43145
 H1700 H 0.02356 0.68687 0.41723
 H1701 H 0.01863 0.62680 0.42265
 H1702 H 0.01821 0.59673 0.43557
 H1703 H -0.03074 0.60901 0.46354
 H1704 H -0.03031 0.63927 0.45096
 C1705 C 0.49619 1.21633 -0.10398
 C1706 C 0.49577 1.20259 -0.09561
 C1707 C 0.49521 1.18582 -0.08627
 C1708 C 0.47889 1.17722 -0.08355
 C1709 C 0.47842 1.16037 -0.07554
 C1710 C 0.49431 1.15187 -0.07023
 C1711 C 0.51061 1.16076 -0.07277
 C1712 C 0.51105 1.17762 -0.08076
 C1713 C 0.49391 1.13366 -0.06245
 C1714 C 0.50686 1.12099 -0.06747
 C1715 C 0.50648 1.10380 -0.06024
 C1716 C 0.49316 1.09905 -0.04793
 C1717 C 0.48018 1.11152 -0.04287
 C1718 C 0.48053 1.12873 -0.05010
 C1719 C 0.49309 1.08147 -0.04021
 C1720 C 0.49334 1.06681 -0.03361
 H1721 H 0.46657 1.18341 -0.08790
 H1722 H 0.46569 1.15378 -0.07396
 H1723 H 0.52303 1.15466 -0.06859
 H1724 H 0.52375 1.18415 -0.08285
 H1725 H 0.51716 1.12430 -0.07715
 H1726 H 0.51658 1.09424 -0.06424
 H1727 H 0.46987 1.10799 -0.03327
 H1728 H 0.47050 1.13824 -0.04584
 C1729 C 0.49716 0.28244 -0.10735
 C1730 C 0.49803 0.29706 -0.10096
 C1731 C 0.49917 0.31439 -0.09304
 C1732 C 0.48827 0.31870 -0.07842
 C1733 C 0.48964 0.33535 -0.07041
 C1734 C 0.50196 0.34794 -0.07691
 C1735 C 0.51280 0.34352 -0.09168
 C1736 C 0.51142 0.32684 -0.09967
 C1737 C 0.50352 0.36556 -0.06825
 C1738 C 0.50572 0.38113 -0.07860
 C1739 C 0.50684 0.39773 -0.07041
 C1740 C 0.50582 0.39899 -0.05179
 C1741 C 0.50380 0.38358 -0.04138
 C1742 C 0.50266 0.36698 -0.04953
 C1743 C 0.50635 0.41611 -0.04336
 C1744 C 0.50644 0.43040 -0.03617
 H1745 H 0.47873 0.30916 -0.07319
 H1746 H 0.48093 0.33843 -0.05923
 H1747 H 0.52255 0.35284 -0.09687
 H1748 H 0.51998 0.32361 -0.11093
 H1749 H 0.50622 0.38050 -0.09304
 H1750 H 0.50831 0.40959 -0.07861
 H1751 H 0.50300 0.38441 -0.02695
 H1752 H 0.50123 0.35523 -0.04118
 C1753 C -0.00206 -0.21562 0.39147
 C1754 C -0.00084 -0.20102 0.39787
 C1755 C 0.00073 -0.18371 0.40576
 C1756 C -0.00183 -0.18169 0.42417
 C1757 C -0.00020 -0.16495 0.43193
 C1758 C 0.00402 -0.14995 0.42136
 C1759 C 0.00657 -0.15211 0.40286
 C1760 C 0.00495 -0.16889 0.39512
 C1761 C 0.00553 -0.13213 0.42962
 C1762 C -0.00154 -0.11695 0.42105
 C1763 C -0.00069 -0.10029 0.42914
 C1764 C 0.00727 -0.09854 0.44587
 C1765 C 0.01456 -0.11350 0.45439
 C1766 C 0.01371 -0.13018 0.44634
 C1767 C 0.00725 -0.08156 0.45461
 C1768 C 0.00676 -0.06741 0.46207
 H1769 H -0.00513 -0.19307 0.43252
 H1770 H -0.00251 -0.16369 0.44616
 H1771 H 0.01003 -0.14087 0.39440
 H1772 H 0.00703 -0.17031 0.38086
 H1773 H -0.00812 -0.11803 0.40829
 H1774 H -0.00648 -0.08881 0.42247
 H1775 H 0.02073 -0.11231 0.46735
 H1776 H 0.01949 -0.14156 0.45316
 C1777 C 0.50082 -0.21539 0.60907
 C1778 C 0.50080 -0.20066 0.60258
 C1779 C 0.50069 -0.18320 0.59455
 C1780 C 0.49502 -0.18096 0.57692
 C1781 C 0.49489 -0.16405 0.56902
 C1782 C 0.50045 -0.14912 0.57866
 C1783 C 0.50614 -0.15151 0.59639
 C1784 C 0.50624 -0.16845 0.60427
 C1785 C 0.50034 -0.13116 0.57021
 C1786 C 0.51444 -0.11926 0.57303
 C1787 C 0.51445 -0.10248 0.56482
 C1788 C 0.50037 -0.09736 0.55372
 C1789 C 0.48624 -0.10905 0.55092
 C1790 C 0.48621 -0.12583 0.55910
 C1791 C 0.50048 -0.08020 0.54504
 C1792 C 0.50049 -0.06589 0.53764
 H1793 H 0.49074 -0.19230 0.56925
 H1794 H 0.49067 -0.16269 0.55527
 H1795 H 0.51030 -0.14026 0.60423
 H1796 H 0.51062 -0.17003 0.61795
 H1797 H 0.52561 -0.12305 0.58133
 H1798 H 0.52549 -0.09355 0.56704
 H1799 H 0.47525 -0.10520 0.54239
 H1800 H 0.47504 -0.13458 0.55686
 C1801 C -0.00060 0.28194 1.10910
 C1802 C -0.00086 0.29671 1.10272
 C1803 C -0.00122 0.31422 1.09481
 C1804 C 0.01346 0.32549 1.09641
 C1805 C 0.01327 0.34232 1.08831
 C1806 C -0.00162 0.34809 1.07847
 C1807 C -0.01637 0.33670 1.07706
 C1808 C -0.01615 0.31989 1.08518
 C1809 C -0.00170 0.36580 1.06952
 C1810 C -0.00875 0.36787 1.05227
 C1811 C -0.00870 0.38450 1.04377
 C1812 C -0.00162 0.39928 1.05239
 C1813 C 0.00540 0.39737 1.06956
 C1814 C 0.00537 0.38074 1.07808
 C1815 C -0.00151 0.41636 1.04357
 C1816 C -0.00144 0.43063 1.03610
 H1817 H 0.02511 0.32120 1.10377
 H1818 H 0.02490 0.35068 1.08946
 H1819 H -0.02812 0.34085 1.06979
 H1820 H -0.02760 0.31128 1.08388
 H1821 H -0.01405 0.35658 1.04522
 H1822 H -0.01411 0.38582 1.03045
 H1823 H 0.01087 0.40874 1.07637
 H1824 H 0.01070 0.37962 1.09144
 C1825 C 0.75831 0.35072 0.03073
 C1826 C 0.76193 0.34320 0.04455
 C1827 C 0.76512 0.33478 0.06159
 C1828 C 0.76280 0.31642 0.06373
 C1829 C 0.76385 0.30860 0.08072
 C1830 C 0.76716 0.31906 0.09584
 C1831 C 0.77000 0.33742 0.09345
 C1832 C 0.76895 0.34520 0.07646
 C1833 C 0.76669 0.31107 0.11409
 C1834 C 0.77872 0.31651 0.12728
 C1835 C 0.77768 0.30946 0.14463
 C1836 C 0.76460 0.29691 0.14904
 C1837 C 0.75268 0.29132 0.13598
 C1838 C 0.75370 0.29833 0.11865
 C1839 C 0.76321 0.28974 0.16691
 C1840 C 0.76161 0.28337 0.18169
 H1841 H 0.75973 0.30822 0.05235
 H1842 H 0.76184 0.29440 0.08207
 H1843 H 0.77234 0.34588 0.10481
 H1844 H 0.77058 0.35945 0.07500
 H1845 H 0.78897 0.32616 0.12415
 H1846 H 0.78702 0.31384 0.15461
 H1847 H 0.74248 0.28165 0.13924
 H1848 H 0.74404 0.29407 0.10894
 C1849 C 0.25717 0.85423 0.53248
 C1850 C 0.26053 0.84659 0.54629
 C1851 C 0.26358 0.83807 0.56331
 C1852 C 0.26034 0.81987 0.56556
 C1853 C 0.26145 0.81203 0.58254
 C1854 C 0.26574 0.82231 0.59751
 C1855 C 0.26946 0.84049 0.59501
 C1856 C 0.26835 0.84830 0.57803
 C1857 C 0.26545 0.81434 0.61577
 C1858 C 0.27821 0.81911 0.62853
 C1859 C 0.27742 0.81205 0.64589
 C1860 C 0.26386 0.80016 0.65072
 C1861 C 0.25120 0.79526 0.63809
 C1862 C 0.25197 0.80228 0.62076
 C1863 C 0.26279 0.79292 0.66858
 C1864 C 0.26141 0.78646 0.68333
 H1865 H 0.25656 0.81183 0.55429
 H1866 H 0.25876 0.79795 0.58398
 H1867 H 0.27257 0.84882 0.60627
 H1868 H 0.27070 0.86244 0.57648
 H1869 H 0.28885 0.82822 0.62506
 H1870 H 0.28734 0.81588 0.65554
 H1871 H 0.24063 0.78610 0.64168
 H1872 H 0.24177 0.79857 0.61137
 C1873 C 0.75220 0.65024 0.53200
 C1874 C 0.75445 0.65880 0.54530
 C1875 C 0.75602 0.66834 0.56177
 C1876 C 0.74503 0.68309 0.56502
 C1877 C 0.74481 0.69102 0.58183
 C1878 C 0.75554 0.68421 0.59565
 C1879 C 0.76694 0.66971 0.59208
 C1880 C 0.76714 0.66181 0.57525
 C1881 C 0.75421 0.69167 0.61390
 C1882 C 0.75405 0.68030 0.62893
 C1883 C 0.75230 0.68724 0.64611
 C1884 C 0.75069 0.70561 0.64851
 C1885 C 0.75089 0.71705 0.63366
 C1886 C 0.75262 0.71014 0.61645
 C1887 C 0.74918 0.71273 0.66622
 C1888 C 0.74826 0.71876 0.68106
 H1889 H 0.73620 0.68811 0.55474
 H1890 H 0.73575 0.70202 0.58422
 H1891 H 0.77553 0.66433 0.60237
 H1892 H 0.77560 0.65031 0.57291
 H1893 H 0.75495 0.66602 0.62739
 H1894 H 0.75217 0.67827 0.65753
 H1895 H 0.74976 0.73130 0.63538
 H1896 H 0.75288 0.71923 0.60515
 C1897 C 0.25246 0.15064 0.02958
 C1898 C 0.25467 0.15920 0.04290
 C1899 C 0.25620 0.16873 0.05937
 C1900 C 0.26620 0.16149 0.07338
 C1901 C 0.26590 0.16953 0.09014
 C1902 C 0.25550 0.18488 0.09313
 C1903 C 0.24589 0.19234 0.07881
 C1904 C 0.24623 0.18428 0.06206
 C1905 C 0.25406 0.19258 0.11127
 C1906 C 0.23746 0.19851 0.11793
 C1907 C 0.23595 0.20521 0.13524
 C1908 C 0.25099 0.20607 0.14611
 C1909 C 0.26757 0.20032 0.13958
 C1910 C 0.26911 0.19360 0.12228
 C1911 C 0.24947 0.21294 0.16393
 C1912 C 0.24854 0.21880 0.17883
 H1913 H 0.27378 0.14932 0.07151
 H1914 H 0.27325 0.16334 0.10094
 H1915 H 0.23796 0.20428 0.08064
 H1916 H 0.23833 0.18992 0.05134
 H1917 H 0.22557 0.19764 0.10989
 H1918 H 0.22304 0.20962 0.14017
 H1919 H 0.27932 0.20101 0.14787
 H1920 H 0.28210 0.18932 0.11747
 C1921 C 0.25422 0.15212 0.96733
 C1922 C 0.25753 0.16144 0.95456
 C1923 C 0.26066 0.17202 0.93876
 C1924 C 0.24820 0.18500 0.93371
 C1925 C 0.25005 0.19393 0.91736
 C1926 C 0.26439 0.18995 0.90579
 C1927 C 0.27717 0.17727 0.91123
 C1928 C 0.27528 0.16835 0.92761
 C1929 C 0.26532 0.19815 0.88768
 C1930 C 0.27000 0.18776 0.87279
 C1931 C 0.26949 0.19503 0.85556
 C1932 C 0.26435 0.21278 0.85296
 C1933 C 0.26008 0.22336 0.86770
 C1934 C 0.26057 0.21611 0.88496
 C1935 C 0.26253 0.21976 0.83511
 C1936 C 0.26061 0.22523 0.82006
 H1937 H 0.23673 0.18782 0.94216
 H1938 H 0.23985 0.20342 0.91346
 H1939 H 0.28846 0.17407 0.90272
 H1940 H 0.28497 0.15826 0.93135
 H1941 H 0.27344 0.17384 0.87439
 H1942 H 0.27271 0.18669 0.84424
 H1943 H 0.25606 0.23711 0.86583
 H1944 H 0.25709 0.22450 0.89616
 C1945 C 0.75321 0.65244 0.46990
 C1946 C 0.75632 0.66192 0.45721
 C1947 C 0.75922 0.67268 0.44149
 C1948 C 0.77434 0.66991 0.43074
 C1949 C 0.77610 0.67893 0.41441
 C1950 C 0.76271 0.69078 0.40860
 C1951 C 0.74785 0.69388 0.41977
 C1952 C 0.74612 0.68486 0.43609
 C1953 C 0.76362 0.69899 0.39050
 C1954 C 0.75786 0.71663 0.38760
 C1955 C 0.75743 0.72381 0.37031
 C1956 C 0.76277 0.71348 0.35573
 C1957 C 0.76889 0.69607 0.35852
 C1958 C 0.76933 0.68887 0.37577
 C1959 C 0.76120 0.72036 0.33782
 C1960 C 0.75962 0.72570 0.32269
 H1961 H 0.78452 0.66045 0.43477
 H1962 H 0.78780 0.67643 0.40620
 H1963 H 0.73719 0.70271 0.41558
 H1964 H 0.73427 0.68697 0.44422
 H1965 H 0.75356 0.72481 0.39869
 H1966 H 0.75267 0.73731 0.36830
 H1967 H 0.77295 0.68793 0.34731
 H1968 H 0.77356 0.67517 0.37750
 C1969 C 0.25610 0.85103 0.46955
 C1970 C 0.25844 0.84184 0.45660
 C1971 C 0.26001 0.83160 0.44048
 C1972 C 0.27198 0.83680 0.42699
 C1973 C 0.27182 0.82837 0.41040
 C1974 C 0.25961 0.81466 0.40705
 C1975 C 0.24803 0.80916 0.42090
 C1976 C 0.24821 0.81760 0.43747
 C1977 C 0.25833 0.80678 0.38896
 C1978 C 0.25530 0.78846 0.38684
 C1979 C 0.25347 0.78125 0.36978
 C1980 C 0.25461 0.79224 0.35462
 C1981 C 0.25771 0.81045 0.35659
 C1982 C 0.25955 0.81768 0.37361
 C1983 C 0.25270 0.78491 0.33702
 C1984 C 0.25132 0.77899 0.32217
 H1985 H 0.28108 0.84770 0.42911
 H1986 H 0.28108 0.83275 0.40011
 H1987 H 0.23832 0.79881 0.41870
 H1988 H 0.23872 0.81362 0.44773
 H1989 H 0.25446 0.77969 0.39836
 H1990 H 0.25116 0.76712 0.36841
 H1991 H 0.25859 0.81910 0.34497
 H1992 H 0.26156 0.83187 0.37477
 C1993 C 0.75630 0.34812 0.97055
 C1994 C 0.75866 0.33926 0.95737
 C1995 C 0.76019 0.32935 0.94102
 C1996 C 0.77131 0.33543 0.92717
 C1997 C 0.77102 0.32722 0.91047
 C1998 C 0.75953 0.31285 0.90736
 C1999 C 0.74881 0.30650 0.92154
 C2000 C 0.74911 0.31473 0.93822
 C2001 C 0.75807 0.30510 0.88921
 C2002 C 0.75606 0.28665 0.88695
 C2003 C 0.75411 0.27952 0.86986
 C2004 C 0.75411 0.29072 0.85482
 C2005 C 0.75618 0.30907 0.85693
 C2006 C 0.75814 0.31622 0.87398
 C2007 C 0.75214 0.28346 0.83719
 C2008 C 0.75069 0.27758 0.82233
 H2009 H 0.77984 0.34682 0.92912
 H2010 H 0.77962 0.33227 0.89992
 H2011 H 0.73965 0.29563 0.91955
 H2012 H 0.74027 0.31005 0.94876
 H2013 H 0.75612 0.27772 0.89837
 H2014 H 0.75261 0.26529 0.86839
 H2015 H 0.75618 0.31788 0.84540
 H2016 H 0.75935 0.33049 0.87525
 C2017 C 0.84847 0.46776 0.25428
 C2018 C 0.83969 0.45452 0.25650
 C2019 C 0.82998 0.43810 0.25796
 C2020 C 0.81563 0.43496 0.24660
 C2021 C 0.80764 0.41821 0.24628
 C2022 C 0.81397 0.40431 0.25727
 C2023 C 0.82805 0.40776 0.26904
 C2024 C 0.83601 0.42453 0.26934
 C2025 C 0.80647 0.38611 0.25587
 C2026 C 0.81781 0.37112 0.25626
 C2027 C 0.81088 0.35401 0.25448
 C2028 C 0.79254 0.35162 0.25227
 C2029 C 0.78113 0.36642 0.25191
 C2030 C 0.78804 0.38357 0.25367
 C2031 C 0.78544 0.33394 0.25071
 C2032 C 0.77955 0.31909 0.24972
 H2033 H 0.81100 0.44530 0.23756
 H2034 H 0.79698 0.41594 0.23692
 H2035 H 0.83305 0.39741 0.27785
 H2036 H 0.84719 0.42675 0.27810
 H2037 H 0.83208 0.37264 0.25763
 H2038 H 0.81984 0.34265 0.25478
 H2039 H 0.76690 0.36472 0.25031
 H2040 H 0.77895 0.39481 0.25349
 C2041 C 0.34961 0.96964 0.75519
 C2042 C 0.34059 0.95653 0.75714
 C2043 C 0.33058 0.94027 0.75835
 C2044 C 0.33650 0.92634 0.76936
 C2045 C 0.32814 0.90978 0.76889
 C2046 C 0.31377 0.90688 0.75731
 C2047 C 0.30761 0.92111 0.74665
 C2048 C 0.31599 0.93767 0.74716
 C2049 C 0.30579 0.88891 0.75581
 C2050 C 0.30124 0.88212 0.73899
 C2051 C 0.29436 0.86495 0.73749
 C2052 C 0.29190 0.85433 0.75274
 C2053 C 0.29623 0.86101 0.76954
 C2054 C 0.30313 0.87817 0.77108
 C2055 C 0.28506 0.83655 0.75122
 C2056 C 0.27934 0.82163 0.75030
 H2057 H 0.34793 0.92812 0.77790
 H2058 H 0.33335 0.89905 0.77709
 H2059 H 0.29644 0.91938 0.73778
 H2060 H 0.31137 0.94831 0.73847
 H2061 H 0.30338 0.88993 0.72696
 H2062 H 0.29109 0.85991 0.72441
 H2063 H 0.29433 0.85294 0.78146
 H2064 H 0.30631 0.88307 0.78423
 C2065 C 0.15242 0.96962 0.25267
 C2066 C 0.16170 0.95680 0.25560
 C2067 C 0.17220 0.94094 0.25832
 C2068 C 0.18432 0.93547 0.24512
 C2069 C 0.19314 0.91911 0.24675
 C2070 C 0.18990 0.90795 0.26160
 C2071 C 0.17807 0.91381 0.27506
 C2072 C 0.16926 0.93018 0.27340
 C2073 C 0.19802 0.88989 0.26248
 C2074 C 0.18780 0.87526 0.26829
 C2075 C 0.19499 0.85807 0.26799
 C2076 C 0.21247 0.85524 0.26191
 C2077 C 0.22287 0.86972 0.25642
 C2078 C 0.21571 0.88695 0.25671
 C2079 C 0.21940 0.83740 0.26065
 C2080 C 0.22484 0.82234 0.25935
 H2081 H 0.18656 0.94361 0.23331
 H2082 H 0.20195 0.91490 0.23604
 H2083 H 0.17547 0.90562 0.28675
 H2084 H 0.15985 0.93425 0.28367
 H2085 H 0.17407 0.87702 0.27254
 H2086 H 0.18679 0.84694 0.27219
 H2087 H 0.23642 0.86768 0.25169
 H2088 H 0.22396 0.89795 0.25233
 C2089 C 0.65271 0.46905 0.75288
 C2090 C 0.66174 0.45606 0.75584
 C2091 C 0.67192 0.44000 0.75862
 C2092 C 0.68448 0.43464 0.74579
 C2093 C 0.69304 0.41815 0.74742
 C2094 C 0.68911 0.40675 0.76191
 C2095 C 0.67683 0.41248 0.77502
 C2096 C 0.66828 0.42899 0.77336
 C2097 C 0.69702 0.38859 0.76277
 C2098 C 0.68646 0.37396 0.76790
 C2099 C 0.69351 0.35672 0.76761
 C2100 C 0.71120 0.35384 0.76221
 C2101 C 0.72193 0.36831 0.75740
 C2102 C 0.71490 0.38559 0.75768
 C2103 C 0.71807 0.33596 0.76097
 C2104 C 0.72351 0.32090 0.75967
 H2105 H 0.68727 0.44298 0.73423
 H2106 H 0.70222 0.41404 0.73698
 H2107 H 0.67368 0.40410 0.78645
 H2108 H 0.65852 0.43297 0.78334
 H2109 H 0.67259 0.37578 0.77162
 H2110 H 0.68507 0.34560 0.77127
 H2111 H 0.73565 0.36623 0.75321
 H2112 H 0.72342 0.39658 0.75385
 C2113 C 0.65208 0.53140 0.75205
 C2114 C 0.66064 0.54470 0.75429
 C2115 C 0.67009 0.56120 0.75586
 C2116 C 0.68436 0.56496 0.74428
 C2117 C 0.69210 0.58182 0.74415
 C2118 C 0.68560 0.59519 0.75557
 C2119 C 0.67160 0.59111 0.76754
 C2120 C 0.66388 0.57423 0.76765
 C2121 C 0.69284 0.61352 0.75440
 C2122 C 0.68129 0.62833 0.75523
 C2123 C 0.68799 0.64558 0.75361
 C2124 C 0.70629 0.64827 0.75113
 C2125 C 0.71791 0.63365 0.75036
 C2126 C 0.71123 0.61637 0.75197
 C2127 C 0.71319 0.66605 0.74967
 C2128 C 0.71907 0.68091 0.74872
 H2129 H 0.68912 0.55504 0.73494
 H2130 H 0.70271 0.58461 0.73464
 H2131 H 0.66647 0.60104 0.77666
 H2132 H 0.65276 0.57150 0.77658
 H2133 H 0.66704 0.62657 0.75681
 H2134 H 0.67889 0.65681 0.75424
 H2135 H 0.73212 0.63560 0.74855
 H2136 H 0.72047 0.60526 0.75145
 C2137 C 0.15085 0.03177 0.25170
 C2138 C 0.15946 0.04507 0.25373
 C2139 C 0.16900 0.06154 0.25503
 C2140 C 0.16277 0.07487 0.26646
 C2141 C 0.17062 0.09169 0.26608
 C2142 C 0.18479 0.09541 0.25419
 C2143 C 0.19131 0.08175 0.24313
 C2144 C 0.18343 0.06494 0.24353
 C2145 C 0.19221 0.11364 0.25274
 C2146 C 0.21067 0.11628 0.25048
 C2147 C 0.21752 0.13347 0.24868
 C2148 C 0.20604 0.14822 0.24906
 C2149 C 0.18768 0.14573 0.25133
 C2150 C 0.18080 0.12857 0.25316
 C2151 C 0.21312 0.16591 0.24747
 C2152 C 0.21911 0.18073 0.24647
 H2153 H 0.15152 0.07242 0.27532
 H2154 H 0.16548 0.10185 0.27493
 H2155 H 0.20205 0.08424 0.23369
 H2156 H 0.18821 0.05479 0.23446
 H2157 H 0.21980 0.10508 0.25029
 H2158 H 0.23177 0.13526 0.24704
 H2159 H 0.17868 0.15705 0.25166
 H2160 H 0.16651 0.12696 0.25458
 C2161 C 0.35156 0.03233 0.75751
 C2162 C 0.34362 0.04589 0.76093
 C2163 C 0.33482 0.06265 0.76410
 C2164 C 0.31832 0.06632 0.75626
 C2165 C 0.31072 0.08329 0.75761
 C2166 C 0.31959 0.09687 0.76677
 C2167 C 0.33594 0.09290 0.77502
 C2168 C 0.34351 0.07591 0.77366
 C2169 C 0.31223 0.11527 0.76690
 C2170 C 0.32356 0.12996 0.76434
 C2171 C 0.31655 0.14722 0.76336
 C2172 C 0.29814 0.15004 0.76497
 C2173 C 0.28680 0.13555 0.76786
 C2174 C 0.29378 0.11828 0.76882
 C2175 C 0.29078 0.16766 0.76292
 C2176 C 0.28428 0.18224 0.76085
 H2177 H 0.31157 0.05622 0.74865
 H2178 H 0.29824 0.08597 0.75091
 H2179 H 0.34298 0.10299 0.78234
 H2180 H 0.35634 0.07325 0.77970
 H2181 H 0.33779 0.12807 0.76254
 H2182 H 0.32545 0.15832 0.76102
 H2183 H 0.27252 0.13758 0.76913
 H2184 H 0.28474 0.10728 0.77101
 C2185 C 0.84950 0.53063 0.25557
 C2186 C 0.84160 0.54420 0.25902
 C2187 C 0.83288 0.56099 0.26224
 C2188 C 0.81684 0.56512 0.25369
 C2189 C 0.80940 0.58215 0.25516
 C2190 C 0.81797 0.59533 0.26514
 C2191 C 0.83384 0.59090 0.27408
 C2192 C 0.84124 0.57385 0.27261
 C2193 C 0.81082 0.61380 0.26550
 C2194 C 0.82242 0.62841 0.26397
 C2195 C 0.81566 0.64578 0.26329
 C2196 C 0.79725 0.64879 0.26416
 C2197 C 0.78561 0.63438 0.26597
 C2198 C 0.79234 0.61700 0.26663
 C2199 C 0.79020 0.66659 0.26260
 C2200 C 0.78401 0.68135 0.26102
 H2201 H 0.81036 0.55534 0.24546
 H2202 H 0.79730 0.58520 0.24793
 H2203 H 0.84063 0.60067 0.28205
 H2204 H 0.85372 0.57084 0.27920
 H2205 H 0.83669 0.62639 0.26280
 H2206 H 0.82479 0.65682 0.26181
 H2207 H 0.77132 0.63656 0.26667
 H2208 H 0.78308 0.60606 0.26801
 C2209 C 0.96874 0.25280 0.15123
 C2210 C 0.95583 0.25603 0.16037
 C2211 C 0.93987 0.25914 0.17073
 C2212 C 0.92864 0.27350 0.16656
 C2213 C 0.91221 0.27542 0.17535
 C2214 C 0.90676 0.26294 0.18840
 C2215 C 0.91839 0.24884 0.19285
 C2216 C 0.93480 0.24696 0.18404
 C2217 C 0.88866 0.26396 0.19658
 C2218 C 0.88592 0.25971 0.21475
 C2219 C 0.86868 0.25939 0.22205
 C2220 C 0.85397 0.26334 0.21132
 C2221 C 0.85658 0.26797 0.19334
 C2222 C 0.87379 0.26830 0.18602
 C2223 C 0.83615 0.26175 0.21844
 C2224 C 0.82115 0.25998 0.22410
 H2225 H 0.93240 0.28297 0.15623
 H2226 H 0.90366 0.28652 0.17179
 H2227 H 0.91450 0.23887 0.20263
 H2228 H 0.94331 0.23569 0.18725
 H2229 H 0.89710 0.25650 0.22327
 H2230 H 0.86681 0.25578 0.23598
 H2231 H 0.84528 0.27094 0.18489
 H2232 H 0.87540 0.27135 0.17194
 C2233 C 0.46912 0.75639 0.65097
 C2234 C 0.45612 0.75988 0.65989
 C2235 C 0.44003 0.76325 0.66997
 C2236 C 0.42509 0.77044 0.66140
 C2237 C 0.40884 0.77197 0.67057
 C2238 C 0.40728 0.76625 0.68846
 C2239 C 0.42252 0.75952 0.69713
 C2240 C 0.43877 0.75800 0.68792
 C2241 C 0.38961 0.76632 0.69763
 C2242 C 0.38441 0.75178 0.70840
 C2243 C 0.36732 0.75117 0.71600
 C2244 C 0.35520 0.76506 0.71298
 C2245 C 0.36034 0.77977 0.70260
 C2246 C 0.37744 0.78041 0.69498
 C2247 C 0.33725 0.76375 0.71984
 C2248 C 0.32217 0.76215 0.72535
 H2249 H 0.42587 0.77438 0.64746
 H2250 H 0.39733 0.77696 0.66343
 H2251 H 0.42180 0.75522 0.71095
 H2252 H 0.45023 0.75235 0.69467
 H2253 H 0.39333 0.74059 0.71048
 H2254 H 0.36345 0.73967 0.72392
 H2255 H 0.35106 0.79060 0.70017
 H2256 H 0.38111 0.79187 0.68692
 C2257 C 0.46666 0.25289 0.84993
 C2258 C 0.45383 0.25513 0.84056
 C2259 C 0.43787 0.25663 0.83010
 C2260 C 0.43572 0.24587 0.81512
 C2261 C 0.41936 0.24551 0.80631
 C2262 C 0.40490 0.25589 0.81242
 C2263 C 0.40737 0.26708 0.82716
 C2264 C 0.42374 0.26739 0.83596
 C2265 C 0.38709 0.25444 0.80402
 C2266 C 0.37629 0.26961 0.80151
 C2267 C 0.35922 0.26807 0.79433
 C2268 C 0.35270 0.25138 0.78958
 C2269 C 0.36339 0.23623 0.79186
 C2270 C 0.38047 0.23773 0.79902
 C2271 C 0.33495 0.24984 0.78258
 C2272 C 0.32004 0.24889 0.77678
 H2273 H 0.44652 0.23737 0.81055
 H2274 H 0.41795 0.23695 0.79486
 H2275 H 0.39645 0.27505 0.83233
 H2276 H 0.42518 0.27560 0.84768
 H2277 H 0.38107 0.28267 0.80504
 H2278 H 0.35108 0.27990 0.79256
 H2279 H 0.35845 0.22323 0.78827
 H2280 H 0.38833 0.22577 0.80105
 C2281 C 0.96851 0.75579 0.34956
 C2282 C 0.95563 0.75841 0.34035
 C2283 C 0.93962 0.76030 0.33002
 C2284 C 0.92506 0.76982 0.33691
 C2285 C 0.90868 0.76966 0.32813
 C2286 C 0.90663 0.75987 0.31235
 C2287 C 0.92151 0.75080 0.30522
 C2288 C 0.93788 0.75099 0.31403
 C2289 C 0.88882 0.75835 0.30394
 C2290 C 0.88299 0.74189 0.29741
 C2291 C 0.86589 0.74019 0.29035
 C2292 C 0.85438 0.75490 0.28970
 C2293 C 0.86013 0.77138 0.29594
 C2294 C 0.87723 0.77311 0.30302
 C2295 C 0.83657 0.75302 0.28297
 C2296 C 0.82157 0.75162 0.27748
 H2297 H 0.92618 0.77688 0.34941
 H2298 H 0.89744 0.77659 0.33408
 H2299 H 0.92042 0.74334 0.29298
 H2300 H 0.94902 0.74345 0.30864
 H2301 H 0.89148 0.73021 0.29818
 H2302 H 0.86156 0.72736 0.28561
 H2303 H 0.85135 0.78287 0.29546
 H2304 H 0.88138 0.78599 0.30776
 C2305 C 0.02984 0.75595 0.35173
 C2306 C 0.04361 0.75924 0.34398
 C2307 C 0.06056 0.76225 0.33533
 C2308 C 0.06317 0.75748 0.31747
 C2309 C 0.08016 0.75856 0.30968
 C2310 C 0.09479 0.76437 0.31969
 C2311 C 0.09191 0.76963 0.33748
 C2312 C 0.07492 0.76854 0.34524
 C2313 C 0.11310 0.76408 0.31193
 C2314 C 0.12527 0.77775 0.31555
 C2315 C 0.14271 0.77701 0.30873
 C2316 C 0.14819 0.76262 0.29826
 C2317 C 0.13615 0.74903 0.29451
 C2318 C 0.11874 0.74974 0.30128
 C2319 C 0.16613 0.76165 0.29129
 C2320 C 0.18100 0.76044 0.28513
 H2321 H 0.05217 0.75252 0.30970
 H2322 H 0.08189 0.75466 0.29588
 H2323 H 0.10292 0.77394 0.34561
 H2324 H 0.07309 0.77209 0.35913
 H2325 H 0.12128 0.78904 0.32356
 H2326 H 0.15190 0.78764 0.31166
 H2327 H 0.14027 0.73781 0.28644
 H2328 H 0.10981 0.73886 0.29850
 C2329 C 0.52931 0.25386 0.85278
 C2330 C 0.54302 0.25711 0.84492
 C2331 C 0.55993 0.26007 0.83616
 C2332 C 0.56264 0.25460 0.81853
 C2333 C 0.57961 0.25566 0.81070
 C2334 C 0.59413 0.26214 0.82045
 C2335 C 0.59114 0.26809 0.83800
 C2336 C 0.57416 0.26702 0.84580
 C2337 C 0.61244 0.26186 0.81271
 C2338 C 0.62435 0.27590 0.81571
 C2339 C 0.64178 0.27523 0.80888
 C2340 C 0.64752 0.26051 0.79900
 C2341 C 0.63575 0.24654 0.79587
 C2342 C 0.61835 0.24719 0.80266
 C2343 C 0.66543 0.25965 0.79194
 C2344 C 0.68028 0.25855 0.78570
 H2345 H 0.55174 0.24913 0.81097
 H2346 H 0.58143 0.25121 0.79708
 H2347 H 0.60206 0.27294 0.84594
 H2348 H 0.57225 0.27113 0.85952
 H2349 H 0.62016 0.28745 0.82324
 H2350 H 0.65077 0.28616 0.81131
 H2351 H 0.64006 0.23507 0.78826
 H2352 H 0.60962 0.23603 0.80037
 C2353 C 0.53163 0.75372 0.65045
 C2354 C 0.54498 0.75565 0.65903
 C2355 C 0.56151 0.75685 0.66855
 C2356 C 0.56480 0.74540 0.68300
 C2357 C 0.58164 0.74490 0.69086
 C2358 C 0.59545 0.75581 0.68429
 C2359 C 0.59185 0.76765 0.67009
 C2360 C 0.57500 0.76813 0.66226
 C2361 C 0.61371 0.75429 0.69171
 C2362 C 0.62872 0.75462 0.68028
 C2363 C 0.64590 0.75278 0.68717
 C2364 C 0.64833 0.75057 0.70556
 C2365 C 0.63350 0.75026 0.71706
 C2366 C 0.61629 0.75208 0.71019
 C2367 C 0.66604 0.74903 0.71267
 C2368 C 0.68087 0.74810 0.71870
 H2369 H 0.55453 0.73644 0.68782
 H2370 H 0.58404 0.73550 0.70162
 H2371 H 0.60213 0.77639 0.66491
 H2372 H 0.57263 0.77695 0.65099
 H2373 H 0.62716 0.75600 0.66597
 H2374 H 0.65728 0.75305 0.67815
 H2375 H 0.63524 0.74867 0.73134
 H2376 H 0.60503 0.75195 0.71935
 C2377 C 0.03126 0.25148 0.14982
 C2378 C 0.04468 0.25369 0.15822
 C2379 C 0.06130 0.25523 0.16751
 C2380 C 0.06483 0.24415 0.18219
 C2381 C 0.08176 0.24396 0.18986
 C2382 C 0.09541 0.25481 0.18288
 C2383 C 0.09157 0.26628 0.16844
 C2384 C 0.07463 0.26645 0.16080
 C2385 C 0.11376 0.25360 0.19012
 C2386 C 0.12864 0.25373 0.17852
 C2387 C 0.14590 0.25211 0.18526
 C2388 C 0.14854 0.25033 0.20366
 C2389 C 0.13384 0.25025 0.21532
 C2390 C 0.11655 0.25185 0.20861
 C2391 C 0.16632 0.24892 0.21061
 C2392 C 0.18117 0.24804 0.21658
 H2393 H 0.05467 0.23524 0.18735
 H2394 H 0.08434 0.23483 0.20081
 H2395 H 0.10174 0.27497 0.16293
 H2396 H 0.07208 0.27499 0.14936
 H2397 H 0.12692 0.25477 0.16420
 H2398 H 0.15719 0.25220 0.17611
 H2399 H 0.13574 0.24899 0.22961
 H2400 H 0.10539 0.25189 0.21789
 C2401 C -0.10547 1.00274 0.78326
 C2402 C -0.09661 1.00255 0.79659
 C2403 C -0.08654 1.00182 0.81283
 C2404 C -0.08464 1.01708 0.82318
 C2405 C -0.07584 1.01607 0.83954
 C2406 C -0.06890 0.99975 0.84576
 C2407 C -0.07064 0.98455 0.83511
 C2408 C -0.07942 0.98559 0.81875
 C2409 C -0.06032 0.99849 0.86351
 C2410 C -0.06380 0.98395 0.87495
 C2411 C -0.05614 0.98301 0.89188
 C2412 C -0.04489 0.99657 0.89757
 C2413 C -0.04122 1.01102 0.88624
 C2414 C -0.04888 1.01199 0.86931
 C2415 C -0.03738 0.99589 0.91515
 C2416 C -0.03111 0.99564 0.92990
 H2417 H -0.09023 1.02967 0.81876
 H2418 H -0.07491 1.02795 0.84754
 H2419 H -0.06523 0.97186 0.83944
 H2420 H -0.08086 0.97370 0.81084
 H2421 H -0.07275 0.97348 0.87095
 H2422 H -0.05912 0.97181 0.90059
 H2423 H -0.03251 1.02157 0.89052
 H2424 H -0.04579 1.02324 0.86072
 C2425 C 0.39477 0.50270 0.28362
 C2426 C 0.40337 0.50288 0.29712
 C2427 C 0.41308 0.50275 0.31357
 C2428 C 0.41328 0.51793 0.32424
 C2429 C 0.42168 0.51743 0.34082
 C2430 C 0.42996 0.50171 0.34695
 C2431 C 0.42996 0.48661 0.33598
 C2432 C 0.42154 0.48714 0.31941
 C2433 C 0.43812 0.50090 0.36492
 C2434 C 0.45437 0.49187 0.36764
 C2435 C 0.46188 0.49097 0.38465
 C2436 C 0.45322 0.49904 0.39913
 C2437 C 0.43705 0.50804 0.39655
 C2438 C 0.42954 0.50898 0.37957
 C2439 C 0.46097 0.49833 0.41660
 C2440 C 0.46738 0.49805 0.43129
 H2441 H 0.40673 0.53007 0.31986
 H2442 H 0.42167 0.52933 0.34887
 H2443 H 0.43603 0.47426 0.34042
 H2444 H 0.42134 0.47528 0.31129
 H2445 H 0.46137 0.48569 0.35659
 H2446 H 0.47445 0.48404 0.38651
 H2447 H 0.43024 0.51432 0.40768
 H2448 H 0.41688 0.51578 0.37795
 C2449 C 0.60692 0.00117 0.28171
 C2450 C 0.59864 0.00177 0.29556
 C2451 C 0.58929 0.00272 0.31238
 C2452 C 0.58586 0.01926 0.32015
 C2453 C 0.57762 0.02021 0.33694
 C2454 C 0.57272 0.00459 0.34618
 C2455 C 0.57604 -0.01198 0.33816
 C2456 C 0.58430 -0.01289 0.32137
 C2457 C 0.56447 0.00554 0.36424
 C2458 C 0.55039 -0.00587 0.36909
 C2459 C 0.54289 -0.00522 0.38622
 C2460 C 0.54933 0.00681 0.39874
 C2461 C 0.56325 0.01829 0.39403
 C2462 C 0.57077 0.01768 0.37689
 C2463 C 0.54176 0.00714 0.41645
 C2464 C 0.53523 0.00704 0.43121
 H2465 H 0.58971 0.03143 0.31331
 H2466 H 0.57503 0.03316 0.34267
 H2467 H 0.57264 -0.02424 0.34504
 H2468 H 0.58703 -0.02577 0.31553
 H2469 H 0.54510 -0.01519 0.35958
 H2470 H 0.53208 -0.01415 0.38972
 H2471 H 0.56838 0.02761 0.40365
 H2472 H 0.58175 0.02647 0.37364
 C2473 C 0.10692 0.50103 0.78058
 C2474 C 0.09861 0.50132 0.79442
 C2475 C 0.08924 0.50180 0.81124
 C2476 C 0.08655 0.51803 0.81990
 C2477 C 0.07833 0.51844 0.83673
 C2478 C 0.07275 0.50259 0.84513
 C2479 C 0.07530 0.48636 0.83620
 C2480 C 0.08351 0.48598 0.81937
 C2481 C 0.06462 0.50294 0.86327
 C2482 C 0.06922 0.48991 0.87606
 C2483 C 0.06166 0.49027 0.89318
 C2484 C 0.04942 0.50362 0.89775
 C2485 C 0.04476 0.51666 0.88515
 C2486 C 0.05233 0.51634 0.86801
 C2487 C 0.04140 0.50370 0.91526
 C2488 C 0.03457 0.50347 0.92989
 H2489 H 0.09105 0.53033 0.81377
 H2490 H 0.07675 0.53110 0.84335
 H2491 H 0.07092 0.47397 0.84222
 H2492 H 0.08555 0.47335 0.81278
 H2493 H 0.07884 0.47959 0.87290
 H2494 H 0.06535 0.48012 0.90284
 H2495 H 0.03522 0.52700 0.88853
 H2496 H 0.04838 0.52643 0.85840
 C2497 C 0.10945 0.50109 0.71418
 C2498 C 0.10278 0.50051 0.69961
 C2499 C 0.09448 0.49971 0.68237
 C2500 C 0.08056 0.51144 0.67815
 C2501 C 0.07211 0.51039 0.66162
 C2502 C 0.07748 0.49755 0.64907
 C2503 C 0.09157 0.48588 0.65340
 C2504 C 0.09999 0.48695 0.66995
 C2505 C 0.06835 0.49632 0.63159
 C2506 C 0.07819 0.49322 0.61580
 C2507 C 0.06958 0.49237 0.59933
 C2508 C 0.05106 0.49457 0.59842
 C2509 C 0.04115 0.49752 0.61405
 C2510 C 0.04972 0.49838 0.63053
 C2511 C 0.04226 0.49428 0.58141
 C2512 C 0.03488 0.49436 0.56716
 H2513 H 0.07619 0.52137 0.68766
 H2514 H 0.06149 0.51973 0.65860
 H2515 H 0.09588 0.47572 0.64411
 H2516 H 0.11070 0.47774 0.67311
 H2517 H 0.09256 0.49179 0.61615
 H2518 H 0.07740 0.49018 0.58730
 H2519 H 0.02681 0.49923 0.61350
 H2520 H 0.04175 0.50053 0.64246
 C2521 C 0.60921 1.00082 0.21527
 C2522 C 0.60255 1.00005 0.20070
 C2523 C 0.59429 0.99900 0.18346
 C2524 C 0.59545 0.98329 0.17362
 C2525 C 0.58698 0.98208 0.15710
 C2526 C 0.57719 0.99660 0.15023
 C2527 C 0.57622 1.01237 0.16019
 C2528 C 0.58470 1.01355 0.17668
 C2529 C 0.56792 0.99526 0.13284
 C2530 C 0.55080 1.00270 0.13062
 C2531 C 0.54215 1.00163 0.11421
 C2532 C 0.55045 0.99312 0.09979
 C2533 C 0.56743 0.98559 0.10187
 C2534 C 0.57611 0.98662 0.11828
 C2535 C 0.54170 0.99257 0.08276
 C2536 C 0.53437 0.99250 0.06849
 H2537 H 0.60276 0.97191 0.17878
 H2538 H 0.58781 0.96969 0.14987
 H2539 H 0.56901 1.02386 0.15516
 H2540 H 0.58373 1.02578 0.18418
 H2541 H 0.54403 1.00920 0.14163
 H2542 H 0.52900 1.00751 0.11276
 H2543 H 0.57402 0.97905 0.09076
 H2544 H 0.58935 0.98095 0.11950
 C2545 C 0.39110 0.50101 0.21740
 C2546 C 0.39757 0.50106 0.20261
 C2547 C 0.40572 0.50117 0.18513
 C2548 C 0.42421 0.49905 0.18342
 C2549 C 0.43228 0.49928 0.16652
 C2550 C 0.42195 0.50165 0.15108
 C2551 C 0.40336 0.50372 0.15293
 C2552 C 0.39530 0.50350 0.16986
 C2553 C 0.43059 0.50191 0.13314
 C2554 C 0.42269 0.49324 0.11865
 C2555 C 0.43107 0.49318 0.10188
 C2556 C 0.44741 0.50181 0.09937
 C2557 C 0.45528 0.51060 0.11365
 C2558 C 0.44695 0.51066 0.13042
 C2559 C 0.45626 0.50140 0.08224
 C2560 C 0.46387 0.50097 0.06799
 H2561 H 0.43239 0.49719 0.19515
 H2562 H 0.44658 0.49739 0.16553
 H2563 H 0.39507 0.50576 0.14131
 H2564 H 0.38098 0.50521 0.17105
 H2565 H 0.41022 0.48621 0.12038
 H2566 H 0.42489 0.48628 0.09093
 H2567 H 0.46791 0.51735 0.11183
 H2568 H 0.45324 0.51767 0.14123
 C2569 C -0.11018 0.00086 0.71710
 C2570 C -0.10391 0.00043 0.70223
 C2571 C -0.09596 -0.00010 0.68467
 C2572 C -0.10340 0.00973 0.67060
 C2573 C -0.09532 0.00957 0.65368
 C2574 C -0.07964 -0.00040 0.65065
 C2575 C -0.07237 -0.01034 0.66486
 C2576 C -0.08048 -0.01018 0.68174
 C2577 C -0.07077 -0.00027 0.63283
 C2578 C -0.05206 0.00048 0.63140
 C2579 C -0.04367 0.00061 0.61465
 C2580 C -0.05385 -0.00002 0.59910
 C2581 C -0.07247 -0.00076 0.60036
 C2582 C -0.08089 -0.00087 0.61711
 C2583 C -0.04514 0.00010 0.58189
 C2584 C -0.03771 0.00022 0.56754
 H2585 H -0.11535 0.01764 0.67274
 H2586 H -0.10112 0.01753 0.64308
 H2587 H -0.06047 -0.01835 0.66290
 H2588 H -0.07462 -0.01785 0.69253
 H2589 H -0.04391 0.00122 0.64323
 H2590 H -0.02925 0.00124 0.61383
 H2591 H -0.08047 -0.00129 0.58840
 H2592 H -0.09530 -0.00166 0.61777
 C2593 C -0.21724 0.89629 1.00286
 C2594 C -0.20382 0.90501 1.00300
 C2595 C -0.18747 0.91487 1.00271
 C2596 C -0.17594 0.91391 1.01727
 C2597 C -0.15945 0.92247 1.01647
 C2598 C -0.15429 0.93203 1.00105
 C2599 C -0.16612 0.93315 0.98660
 C2600 C -0.18260 0.92460 0.98744
 C2601 C -0.13643 0.94035 0.99986
 C2602 C -0.12626 0.93926 0.98401
 C2603 C -0.10921 0.94663 0.98304
 C2604 C -0.10214 0.95519 0.99788
 C2605 C -0.11220 0.95647 1.01365
 C2606 C -0.12924 0.94910 1.01465
 C2607 C -0.08448 0.96249 0.99704
 C2608 C -0.06969 0.96863 0.99662
 H2609 H -0.17953 0.90628 1.02909
 H2610 H -0.15053 0.92117 1.02771
 H2611 H -0.16261 0.94060 0.97465
 H2612 H -0.19144 0.92537 0.97608
 H2613 H -0.13133 0.93238 0.97248
 H2614 H -0.10149 0.94553 0.97079
 H2615 H -0.10684 0.96312 1.02519
 H2616 H -0.13684 0.95032 1.02696
 C2617 C 0.28222 0.39617 0.50104
 C2618 C 0.29559 0.40494 0.50135
 C2619 C 0.31189 0.41487 0.50136
 C2620 C 0.32209 0.41572 0.51688
 C2621 C 0.33855 0.42433 0.51654
 C2622 C 0.34503 0.43215 0.50064
 C2623 C 0.33452 0.43151 0.48519
 C2624 C 0.31807 0.42289 0.48556
 C2625 C 0.36292 0.44046 0.50001
 C2626 C 0.36576 0.45640 0.49044
 C2627 C 0.38272 0.46400 0.48964
 C2628 C 0.39701 0.45576 0.49837
 C2629 C 0.39432 0.43993 0.50794
 C2630 C 0.37738 0.43232 0.50876
 C2631 C 0.41444 0.46359 0.49771
 C2632 C 0.42909 0.47005 0.49745
 H2633 H 0.31743 0.40952 0.52916
 H2634 H 0.34624 0.42482 0.52869
 H2635 H 0.33926 0.43721 0.47270
 H2636 H 0.31032 0.42218 0.47344
 H2637 H 0.35483 0.46306 0.48372
 H2638 H 0.38467 0.47631 0.48227
 H2639 H 0.40531 0.43345 0.51472
 H2640 H 0.37567 0.41991 0.51601
 C2641 C 0.28275 0.60272 0.00133
 C2642 C 0.29662 0.59453 0.00143
 C2643 C 0.31357 0.58545 0.00162
 C2644 C 0.31793 0.57400 0.01578
 C2645 C 0.33482 0.56603 0.01645
 C2646 C 0.34759 0.56948 0.00298
 C2647 C 0.34297 0.58084 -0.01130
 C2648 C 0.32609 0.58877 -0.01196
 C2649 C 0.36572 0.56148 0.00392
 C2650 C 0.38083 0.57160 -0.00077
 C2651 C 0.39789 0.56405 -0.00008
 C2652 C 0.40011 0.54632 0.00531
 C2653 C 0.38519 0.53617 0.01012
 C2654 C 0.36811 0.54370 0.00945
 C2655 C 0.41763 0.53841 0.00543
 C2656 C 0.43227 0.53169 0.00522
 H2657 H 0.30838 0.57145 0.02644
 H2658 H 0.33803 0.55750 0.02772
 H2659 H 0.35241 0.58355 -0.02201
 H2660 H 0.32286 0.59765 -0.02296
 H2661 H 0.37946 0.58539 -0.00482
 H2662 H 0.40934 0.57202 -0.00382
 H2663 H 0.38676 0.52240 0.01422
 H2664 H 0.35674 0.53552 0.01296
 C2665 C -0.21861 0.10682 0.49986
 C2666 C -0.20491 0.09834 0.49960
 C2667 C -0.18821 0.08882 0.49934
 C2668 C -0.18420 0.07651 0.51287
 C2669 C -0.16756 0.06800 0.51310
 C2670 C -0.15469 0.07177 0.49981
 C2671 C -0.15896 0.08399 0.48614
 C2672 C -0.17560 0.09245 0.48593
 C2673 C -0.13678 0.06326 0.50037
 C2674 C -0.12140 0.07322 0.49631
 C2675 C -0.10452 0.06526 0.49685
 C2676 C -0.10276 0.04727 0.50145
 C2677 C -0.11795 0.03724 0.50555
 C2678 C -0.13486 0.04518 0.50504
 C2679 C -0.08536 0.03910 0.50180
 C2680 C -0.07075 0.03232 0.50195
 H2681 H -0.19383 0.07369 0.52339
 H2682 H -0.16460 0.05882 0.52391
 H2683 H -0.14944 0.08697 0.47559
 H2684 H -0.17856 0.10197 0.47540
 H2685 H -0.12241 0.08722 0.49294
 H2686 H -0.09285 0.07316 0.49369
 H2687 H -0.11673 0.02328 0.50907
 H2688 H -0.14645 0.03713 0.50804
 C2689 C 0.71703 0.11089 0.50004
 C2690 C 0.70240 0.10438 0.49906
 C2691 C 0.68513 0.09618 0.49786
 C2692 C 0.68252 0.07906 0.50486
 C2693 C 0.66589 0.07088 0.50352
 C2694 C 0.65159 0.07972 0.49514
 C2695 C 0.65433 0.09696 0.48818
 C2696 C 0.67100 0.10511 0.48953
 C2697 C 0.63390 0.07099 0.49379
 C2698 C 0.61806 0.08075 0.49658
 C2699 C 0.60146 0.07238 0.49586
 C2700 C 0.60045 0.05417 0.49230
 C2701 C 0.61612 0.04439 0.48928
 C2702 C 0.63272 0.05272 0.49000
 C2703 C 0.58342 0.04538 0.49241
 C2704 C 0.56919 0.03796 0.49293
 H2705 H 0.69335 0.07202 0.51136
 H2706 H 0.66417 0.05772 0.50925
 H2707 H 0.64366 0.10404 0.48148
 H2708 H 0.67288 0.11834 0.48399
 H2709 H 0.61851 0.09477 0.49973
 H2710 H 0.58943 0.08007 0.49833
 H2711 H 0.61551 0.03028 0.48652
 H2712 H 0.64464 0.04489 0.48754
 C2713 C 0.21635 0.60573 1.00058
 C2714 C 0.20168 0.59934 0.99953
 C2715 C 0.18428 0.59143 0.99816
 C2716 C 0.18188 0.57352 1.00274
 C2717 C 0.16508 0.56572 1.00127
 C2718 C 0.15039 0.57574 0.99517
 C2719 C 0.15293 0.59377 0.99062
 C2720 C 0.16977 0.60154 0.99209
 C2721 C 0.13251 0.56743 0.99371
 C2722 C 0.11701 0.57680 0.99887
 C2723 C 0.10026 0.56876 0.99801
 C2724 C 0.09874 0.55128 0.99193
 C2725 C 0.11404 0.54194 0.98655
 C2726 C 0.13080 0.54994 0.98742
 C2727 C 0.08160 0.54271 0.99186
 C2728 C 0.06733 0.53537 0.99223
 H2729 H 0.19300 0.56557 1.00748
 H2730 H 0.16352 0.55190 1.00514
 H2731 H 0.14196 0.60179 0.98569
 H2732 H 0.17148 0.61540 0.98844
 H2733 H 0.11788 0.59019 1.00398
 H2734 H 0.08852 0.57609 1.00231
 H2735 H 0.11304 0.52840 0.98183
 H2736 H 0.14243 0.54246 0.98310
 C2737 C 0.21621 0.39164 0.49901
 C2738 C 0.20137 0.39788 0.49923
 C2739 C 0.18382 0.40572 0.49962
 C2740 C 0.17084 0.40022 0.48758
 C2741 C 0.15394 0.40819 0.48773
 C2742 C 0.14982 0.42177 0.49994
 C2743 C 0.16295 0.42712 0.51205
 C2744 C 0.17983 0.41915 0.51187
 C2745 C 0.13199 0.43049 0.49995
 C2746 C 0.12341 0.43483 0.51615
 C2747 C 0.10678 0.44332 0.51614
 C2748 C 0.09850 0.44757 0.49997
 C2749 C 0.10687 0.44323 0.48379
 C2750 C 0.12351 0.43474 0.48377
 C2751 C 0.08144 0.45645 0.49999
 C2752 C 0.06716 0.46388 0.50006
 H2753 H 0.17379 0.38982 0.47805
 H2754 H 0.14404 0.40364 0.47840
 H2755 H 0.16028 0.43770 0.52144
 H2756 H 0.18982 0.42356 0.52118
 H2757 H 0.12950 0.43153 0.52882
 H2758 H 0.10038 0.44657 0.52874
 H2759 H 0.10059 0.44651 0.47120
 H2760 H 0.12987 0.43178 0.47109
 C2761 C 0.71674 0.89186 -0.00005
 C2762 C 0.70185 0.89796 -0.00030
 C2763 C 0.68418 0.90552 -0.00049
 C2764 C 0.67814 0.91463 -0.01567
 C2765 C 0.66118 0.92246 -0.01569
 C2766 C 0.65005 0.92128 -0.00050
 C2767 C 0.65619 0.91196 0.01464
 C2768 C 0.67316 0.90415 0.01463
 C2769 C 0.63220 0.92995 -0.00036
 C2770 C 0.61745 0.92140 0.00759
 C2771 C 0.60070 0.92967 0.00786
 C2772 C 0.59848 0.94659 0.00022
 C2773 C 0.61306 0.95519 -0.00774
 C2774 C 0.62981 0.94694 -0.00804
 C2775 C 0.58128 0.95516 0.00061
 C2776 C 0.56690 0.96240 0.00092
 H2777 H 0.68656 0.91575 -0.02746
 H2778 H 0.65674 0.92934 -0.02763
 H2779 H 0.64803 0.91102 0.02661
 H2780 H 0.67775 0.89720 0.02648
 H2781 H 0.61882 0.90823 0.01342
 H2782 H 0.58948 0.92288 0.01402
 H2783 H 0.61150 0.96831 -0.01364
 H2784 H 0.64095 0.95396 -0.01403
 C2785 C 0.00224 0.78221 0.89804
 C2786 C 0.00237 0.79551 0.90689
 C2787 C 0.00216 0.81180 0.91678
 C2788 C -0.01395 0.81838 0.92371
 C2789 C -0.01449 0.83493 0.93206
 C2790 C 0.00108 0.84514 0.93352
 C2791 C 0.01728 0.83823 0.92683
 C2792 C 0.01779 0.82168 0.91849
 C2793 C 0.00031 0.86316 0.94141
 C2794 C 0.00991 0.87725 0.93352
 C2795 C 0.00892 0.89433 0.94067
 C2796 C -0.00167 0.89756 0.95579
 C2797 C -0.01124 0.88364 0.96379
 C2798 C -0.01027 0.86653 0.95664
 C2799 C -0.00254 0.91515 0.96314
 C2800 C -0.00297 0.92992 0.96922
 H2801 H -0.02616 0.81090 0.92232
 H2802 H -0.02719 0.83997 0.93688
 H2803 H 0.02953 0.84568 0.92797
 H2804 H 0.03032 0.81672 0.91311
 H2805 H 0.01795 0.87514 0.92163
 H2806 H 0.01636 0.90502 0.93437
 H2807 H -0.01941 0.88599 0.97555
 H2808 H -0.01767 0.85592 0.96311
 C2809 C 0.50170 0.28507 0.39737
 C2810 C 0.50181 0.29842 0.40615
 C2811 C 0.50158 0.31473 0.41602
 C2812 C 0.51703 0.32498 0.41713
 C2813 C 0.51646 0.34148 0.42558
 C2814 C 0.50039 0.34795 0.43298
 C2815 C 0.48501 0.33738 0.43208
 C2816 C 0.48561 0.32089 0.42362
 C2817 C 0.49954 0.36588 0.44108
 C2818 C 0.48952 0.36885 0.45677
 C2819 C 0.48849 0.38585 0.46415
 C2820 C 0.49742 0.40006 0.45593
 C2821 C 0.50743 0.39723 0.44034
 C2822 C 0.50849 0.38026 0.43295
 C2823 C 0.49649 0.41754 0.46352
 C2824 C 0.49600 0.43223 0.46981
 H2825 H 0.52945 0.32034 0.41124
 H2826 H 0.52858 0.34921 0.42627
 H2827 H 0.47240 0.34209 0.43745
 H2828 H 0.47353 0.31311 0.42270
 H2829 H 0.48264 0.35800 0.46342
 H2830 H 0.48077 0.38790 0.47627
 H2831 H 0.51437 0.40816 0.43387
 H2832 H 0.51607 0.37845 0.42072
 C2833 C -0.00116 0.28102 0.60373
 C2834 C -0.00093 0.29474 0.59529
 C2835 C -0.00051 0.31142 0.58579
 C2836 C 0.01583 0.31877 0.58054
 C2837 C 0.01635 0.33549 0.57225
 C2838 C 0.00049 0.34507 0.56913
 C2839 C -0.01590 0.33745 0.57423
 C2840 C -0.01638 0.32073 0.58253
 C2841 C 0.00105 0.36311 0.56095
 C2842 C -0.01169 0.36836 0.54824
 C2843 C -0.01134 0.38548 0.54082
 C2844 C 0.00173 0.39756 0.54601
 C2845 C 0.01450 0.39245 0.55858
 C2846 C 0.01418 0.37533 0.56601
 C2847 C 0.00196 0.41520 0.53845
 C2848 C 0.00203 0.42993 0.53201
 H2849 H 0.02819 0.31167 0.58304
 H2850 H 0.02914 0.34091 0.56826
 H2851 H -0.02831 0.34460 0.57222
 H2852 H -0.02909 0.31521 0.58667
 H2853 H -0.02183 0.35919 0.54393
 H2854 H -0.02126 0.38929 0.53105
 H2855 H 0.02464 0.40172 0.56271
 H2856 H 0.02402 0.37177 0.57594
 C2857 C 0.49969 0.77880 0.10424
 C2858 C 0.49975 0.79244 0.09569
 C2859 C 0.49996 0.80909 0.08610
 C2860 C 0.51614 0.81612 0.07994
 C2861 C 0.51653 0.83286 0.07168
 C2862 C 0.50071 0.84278 0.06951
 C2863 C 0.48447 0.83546 0.07550
 C2864 C 0.48412 0.81872 0.08377
 C2865 C 0.50119 0.86087 0.06143
 C2866 C 0.48784 0.86648 0.04953
 C2867 C 0.48811 0.88366 0.04224
 C2868 C 0.50170 0.89543 0.04676
 C2869 C 0.51508 0.88995 0.05852
 C2870 C 0.51485 0.87278 0.06582
 C2871 C 0.50186 0.91312 0.03933
 C2872 C 0.50187 0.92790 0.03299
 H2873 H 0.52848 0.80878 0.08174
 H2874 H 0.52920 0.83805 0.06700
 H2875 H 0.47211 0.84286 0.07422
 H2876 H 0.47154 0.81345 0.08862
 H2877 H 0.47728 0.85755 0.04574
 H2878 H 0.47772 0.88775 0.03309
 H2879 H 0.52564 0.89898 0.06213
 H2880 H 0.52516 0.86893 0.07514
 C2881 C 0.49981 0.71273 0.10836
 C2882 C 0.49889 0.69802 0.10216
 C2883 C 0.49766 0.68057 0.09451
 C2884 C 0.48159 0.67496 0.08711
 C2885 C 0.48046 0.65819 0.07927
 C2886 C 0.49542 0.64680 0.07873
 C2887 C 0.51148 0.65254 0.08632
 C2888 C 0.51258 0.66931 0.09414
 C2889 C 0.49437 0.62914 0.07007
 C2890 C 0.50288 0.61420 0.07767
 C2891 C 0.50231 0.59770 0.06924
 C2892 C 0.49321 0.59588 0.05312
 C2893 C 0.48455 0.61061 0.04553
 C2894 C 0.48509 0.62713 0.05395
 C2895 C 0.49330 0.57904 0.04411
 C2896 C 0.49381 0.56494 0.03656
 H2897 H 0.46994 0.68356 0.08734
 H2898 H 0.46785 0.65408 0.07374
 H2899 H 0.52329 0.64419 0.08591
 H2900 H 0.52511 0.67356 0.09976
 H2901 H 0.50993 0.61526 0.09017
 H2902 H 0.50906 0.58638 0.07523
 H2903 H 0.47756 0.60938 0.03301
 H2904 H 0.47860 0.63842 0.04764
 C2905 C -0.00101 0.21491 0.60686
 C2906 C -0.00169 0.20027 0.60049
 C2907 C -0.00263 0.18288 0.59268
 C2908 C -0.01894 0.17651 0.58651
 C2909 C -0.01984 0.15977 0.57860
 C2910 C -0.00442 0.14916 0.57676
 C2911 C 0.01190 0.15565 0.58310
 C2912 C 0.01277 0.17241 0.59100
 C2913 C -0.00529 0.13148 0.56811
 C2914 C 0.00448 0.11695 0.57494
 C2915 C 0.00390 0.10041 0.56660
 C2916 C -0.00645 0.09814 0.55134
 C2917 C -0.01632 0.11247 0.54449
 C2918 C -0.01576 0.12904 0.55282
 C2919 C -0.00664 0.08121 0.54253
 C2920 C -0.00649 0.06701 0.53517
 H2921 H -0.03095 0.18450 0.58778
 H2922 H -0.03263 0.15506 0.57406
 H2923 H 0.02404 0.14792 0.58166
 H2924 H 0.02547 0.17724 0.59566
 H2925 H 0.01248 0.11835 0.58681
 H2926 H 0.01157 0.08939 0.57203
 H2927 H -0.02431 0.11089 0.53263
 H2928 H -0.02325 0.14001 0.54710
 C2929 C 0.50096 0.21915 0.39238
 C2930 C 0.50147 0.20423 0.39838
 C2931 C 0.50212 0.18653 0.40582
 C2932 C 0.51857 0.17816 0.40874
 C2933 C 0.51923 0.16117 0.41648
 C2934 C 0.50342 0.15233 0.42141
 C2935 C 0.48694 0.16082 0.41828
 C2936 C 0.48631 0.17780 0.41056
 C2937 C 0.50409 0.13447 0.43002
 C2938 C 0.49168 0.12131 0.42552
 C2939 C 0.49207 0.10465 0.43395
 C2940 C 0.50485 0.10090 0.44698
 C2941 C 0.51734 0.11383 0.45146
 C2942 C 0.51699 0.13051 0.44304
 C2943 C 0.50491 0.08390 0.45597
 C2944 C 0.50475 0.06970 0.46358
 H2945 H 0.53089 0.18479 0.40511
 H2946 H 0.53211 0.15491 0.41850
 H2947 H 0.47455 0.15447 0.42215
 H2948 H 0.47350 0.18420 0.40844
 H2949 H 0.48175 0.12387 0.41540
 H2950 H 0.48236 0.09471 0.43035
 H2951 H 0.52725 0.11110 0.46158
 H2952 H 0.52657 0.14042 0.44698
 C2953 C 0.00115 0.71635 0.89227
 C2954 C 0.00147 0.70136 0.89811
 C2955 C 0.00189 0.68358 0.90540
 C2956 C -0.01377 0.67586 0.91210
 C2957 C -0.01330 0.65881 0.91969
 C2958 C 0.00286 0.64925 0.92070
 C2959 C 0.01850 0.65708 0.91381
 C2960 C 0.01800 0.67413 0.90621
 C2961 C 0.00341 0.63130 0.92917
 C2962 C 0.01757 0.62638 0.94044
 C2963 C 0.01784 0.60966 0.94877
 C2964 C 0.00400 0.59764 0.94594
 C2965 C -0.01006 0.60234 0.93464
 C2966 C -0.01037 0.61905 0.92630
 C2967 C 0.00401 0.58061 0.95489
 C2968 C 0.00380 0.56640 0.96247
 H2969 H -0.02630 0.68309 0.91163
 H2970 H -0.02552 0.65326 0.92510
 H2971 H 0.03110 0.64998 0.91419
 H2972 H 0.03020 0.67998 0.90105
 H2973 H 0.02825 0.63560 0.94310
 H2974 H 0.02875 0.60619 0.95755
 H2975 H -0.02083 0.59312 0.93233
 H2976 H -0.02132 0.62235 0.91753
 C2977 C 0.24500 0.64663 0.96969
 C2978 C 0.24175 0.65484 0.95618
 C2979 C 0.23873 0.66402 0.93950
 C2980 C 0.24763 0.67994 0.93571
 C2981 C 0.24624 0.68789 0.91881
 C2982 C 0.23597 0.67996 0.90542
 C2983 C 0.22672 0.66418 0.90952
 C2984 C 0.22812 0.65627 0.92643
 C2985 C 0.23559 0.68769 0.88707
 C2986 C 0.23661 0.67657 0.87205
 C2987 C 0.23717 0.68385 0.85480
 C2988 C 0.23669 0.70231 0.85230
 C2989 C 0.23542 0.71347 0.86713
 C2990 C 0.23487 0.70623 0.88440
 C2991 C 0.23805 0.70984 0.83457
 C2992 C 0.23945 0.71635 0.81984
 H2993 H 0.25604 0.68596 0.94564
 H2994 H 0.25371 0.69989 0.91603
 H2995 H 0.21853 0.65787 0.89959
 H2996 H 0.22125 0.64389 0.92918
 H2997 H 0.23745 0.66227 0.87365
 H2998 H 0.23824 0.67508 0.84342
 H2999 H 0.23502 0.72779 0.86536
 H3000 H 0.23389 0.71513 0.89566
 C3001 C 0.74356 0.14927 0.47038
 C3002 C 0.73989 0.15706 0.45673
 C3003 C 0.73658 0.16574 0.43984
 C3004 C 0.74435 0.18223 0.43597
 C3005 C 0.74292 0.18971 0.41886
 C3006 C 0.73376 0.18075 0.40533
 C3007 C 0.72557 0.16441 0.40950
 C3008 C 0.72700 0.15696 0.42662
 C3009 C 0.73350 0.18801 0.38679
 C3010 C 0.73587 0.17665 0.37209
 C3011 C 0.73659 0.18354 0.35469
 C3012 C 0.73493 0.20187 0.35170
 C3013 C 0.73230 0.21326 0.36619
 C3014 C 0.73159 0.20640 0.38362
 C3015 C 0.73647 0.20907 0.33385
 C3016 C 0.73800 0.21532 0.31901
 H3017 H 0.75198 0.18905 0.44602
 H3018 H 0.74958 0.20218 0.41605
 H3019 H 0.71823 0.15730 0.39946
 H3020 H 0.72102 0.14414 0.42942
 H3021 H 0.73766 0.16247 0.37408
 H3022 H 0.73872 0.17460 0.34358
 H3023 H 0.73097 0.22748 0.36405
 H3024 H 0.72955 0.21548 0.39461
 C3025 C 0.24869 0.35167 0.46727
 C3026 C 0.24727 0.34295 0.45394
 C3027 C 0.24660 0.33321 0.43753
 C3028 C 0.23546 0.33902 0.42374
 C3029 C 0.23627 0.33080 0.40707
 C3030 C 0.24830 0.31671 0.40397
 C3031 C 0.25914 0.31068 0.41805
 C3032 C 0.25830 0.31891 0.43471
 C3033 C 0.24999 0.30877 0.38594
 C3034 C 0.26690 0.30458 0.37875
 C3035 C 0.26853 0.29761 0.36156
 C3036 C 0.25330 0.29473 0.35135
 C3037 C 0.23642 0.29874 0.35843
 C3038 C 0.23476 0.30573 0.37560
 C3039 C 0.25485 0.28761 0.33364
 C3040 C 0.25560 0.28156 0.31880
 H3041 H 0.22652 0.35022 0.42571
 H3042 H 0.22792 0.33589 0.39644
 H3043 H 0.26836 0.29971 0.41614
 H3044 H 0.26707 0.31439 0.44526
 H3045 H 0.27889 0.30702 0.38628
 H3046 H 0.28166 0.29456 0.35619
 H3047 H 0.22453 0.29648 0.35066
 H3048 H 0.22156 0.30862 0.38084
 C3049 C 0.74931 0.85141 0.96960
 C3050 C 0.74781 0.84273 0.95626
 C3051 C 0.74702 0.83307 0.93980
 C3052 C 0.73573 0.83893 0.92616
 C3053 C 0.73643 0.83084 0.90942
 C3054 C 0.74852 0.81683 0.90611
 C3055 C 0.75950 0.81076 0.92005
 C3056 C 0.75877 0.81886 0.93678
 C3057 C 0.75010 0.80905 0.88801
 C3058 C 0.76697 0.80501 0.88065
 C3059 C 0.76850 0.79815 0.86340
 C3060 C 0.75320 0.79524 0.85331
 C3061 C 0.73636 0.79913 0.86054
 C3062 C 0.73480 0.80599 0.87777
 C3063 C 0.75466 0.78818 0.83556
 C3064 C 0.75535 0.78213 0.82073
 H3065 H 0.72675 0.85007 0.92829
 H3066 H 0.72796 0.83596 0.89890
 H3067 H 0.76877 0.79985 0.91798
 H3068 H 0.76766 0.81431 0.94722
 H3069 H 0.77901 0.80746 0.88810
 H3070 H 0.78160 0.79520 0.85792
 H3071 H 0.72442 0.79684 0.85286
 H3072 H 0.72163 0.80878 0.88314
 C3073 C 0.74501 0.85039 0.03185
 C3074 C 0.74130 0.84117 0.04458
 C3075 C 0.73762 0.83071 0.06035
 C3076 C 0.73023 0.83886 0.07544
 C3077 C 0.72840 0.82930 0.09144
 C3078 C 0.73400 0.81144 0.09256
 C3079 C 0.74090 0.80319 0.07715
 C3080 C 0.74273 0.81279 0.06115
 C3081 C 0.73375 0.80190 0.11002
 C3082 C 0.74830 0.79113 0.11508
 C3083 C 0.74886 0.78336 0.13208
 C3084 C 0.73488 0.78619 0.14426
 C3085 C 0.72012 0.79650 0.13922
 C3086 C 0.71954 0.80429 0.12220
 C3087 C 0.73627 0.77938 0.16221
 C3088 C 0.73797 0.77402 0.17732
 H3089 H 0.72638 0.85277 0.07501
 H3090 H 0.72328 0.83612 0.10311
 H3091 H 0.74514 0.78940 0.07753
 H3092 H 0.74853 0.80636 0.04956
 H3093 H 0.75958 0.78926 0.10614
 H3094 H 0.76040 0.77551 0.13589
 H3095 H 0.70924 0.79879 0.14856
 H3096 H 0.70807 0.81234 0.11863
 C3097 C 0.24519 0.34923 0.52921
 C3098 C 0.24185 0.33956 0.54170
 C3099 C 0.23862 0.32857 0.55721
 C3100 C 0.22905 0.33546 0.57174
 C3101 C 0.22759 0.32566 0.58763
 C3102 C 0.23576 0.30882 0.58921
 C3103 C 0.24487 0.30176 0.57432
 C3104 C 0.24631 0.31160 0.55844
 C3105 C 0.23576 0.29926 0.60666
 C3106 C 0.25138 0.29080 0.61275
 C3107 C 0.25192 0.28309 0.62979
 C3108 C 0.23687 0.28369 0.64096
 C3109 C 0.22112 0.29168 0.63487
 C3110 C 0.22055 0.29940 0.61782
 C3111 C 0.23798 0.27707 0.65900
 C3112 C 0.23926 0.27199 0.67425
 H3113 H 0.22319 0.34866 0.57099
 H3114 H 0.22072 0.33158 0.59890
 H3115 H 0.25111 0.28876 0.57506
 H3116 H 0.25381 0.30617 0.54730
 H3117 H 0.26339 0.29070 0.60462
 H3118 H 0.26421 0.27705 0.63442
 H3119 H 0.20940 0.29223 0.64342
 H3120 H 0.20828 0.30565 0.61343
 C3121 C 0.74541 0.14981 0.53072
 C3122 C 0.74309 0.15830 0.54415
 C3123 C 0.74157 0.16778 0.56076
 C3124 C 0.75194 0.18291 0.56356
 C3125 C 0.75224 0.19085 0.58039
 C3126 C 0.74224 0.18370 0.59471
 C3127 C 0.73147 0.16877 0.59162
 C3128 C 0.73118 0.16086 0.57478
 C3129 C 0.74361 0.19131 0.61293
 C3130 C 0.74442 0.18004 0.62803
 C3131 C 0.74611 0.18712 0.64514
 C3132 C 0.74704 0.20554 0.64745
 C3133 C 0.74621 0.21687 0.63253
 C3134 C 0.74453 0.20982 0.61539
 C3135 C 0.74851 0.21277 0.66515
 C3136 C 0.74944 0.21874 0.68002
 H3137 H 0.76022 0.18825 0.55289
 H3138 H 0.76083 0.20218 0.58235
 H3139 H 0.72342 0.16310 0.60229
 H3140 H 0.72321 0.14907 0.57283
 H3141 H 0.74405 0.16573 0.62659
 H3142 H 0.74674 0.17821 0.65657
 H3143 H 0.74681 0.23116 0.63416
 H3144 H 0.74376 0.21886 0.60408
 C3145 C 0.24600 0.64750 0.03253
 C3146 C 0.24387 0.65648 0.04566
 C3147 C 0.24252 0.66651 0.06193
 C3148 C 0.23121 0.66077 0.07577
 C3149 C 0.23156 0.66912 0.09239
 C3150 C 0.24330 0.68330 0.09543
 C3151 C 0.25424 0.68931 0.08127
 C3152 C 0.25387 0.68094 0.06466
 C3153 C 0.24471 0.69126 0.11348
 C3154 C 0.24691 0.70971 0.11552
 C3155 C 0.24862 0.71705 0.13254
 C3156 C 0.24822 0.70606 0.14773
 C3157 C 0.24602 0.68770 0.14584
 C3158 C 0.24429 0.68034 0.12886
 C3159 C 0.24969 0.71357 0.16530
 C3160 C 0.25058 0.71970 0.18010
 H3161 H 0.22246 0.64954 0.07386
 H3162 H 0.22279 0.66434 0.10293
 H3163 H 0.26358 0.70004 0.08322
 H3164 H 0.26286 0.68535 0.05413
 H3165 H 0.24712 0.71848 0.10398
 H3166 H 0.25021 0.73129 0.13385
 H3167 H 0.24568 0.67906 0.15749
 H3168 H 0.24292 0.66607 0.12775
 C3169 C 0.15251 0.53112 0.74361
 C3170 C 0.16173 0.54405 0.74139
 C3171 C 0.17197 0.56015 0.73998
 C3172 C 0.18557 0.56337 0.75221
 C3173 C 0.19389 0.57995 0.75255
 C3174 C 0.18865 0.59361 0.74071
 C3175 C 0.17540 0.59004 0.72805
 C3176 C 0.16709 0.57344 0.72773
 C3177 C 0.19627 0.61174 0.74221
 C3178 C 0.18518 0.62683 0.74064
 C3179 C 0.19212 0.64390 0.74269
 C3180 C 0.21023 0.64616 0.74635
 C3181 C 0.22142 0.63125 0.74785
 C3182 C 0.21449 0.61415 0.74581
 C3183 C 0.21725 0.66381 0.74839
 C3184 C 0.22286 0.67872 0.74982
 H3185 H 0.18930 0.55326 0.76191
 H3186 H 0.20388 0.58233 0.76259
 H3187 H 0.17125 0.60019 0.71859
 H3188 H 0.15650 0.57115 0.71829
 H3189 H 0.17105 0.62544 0.73818
 H3190 H 0.18333 0.65533 0.74151
 H3191 H 0.23548 0.63285 0.75059
 H3192 H 0.22340 0.60281 0.74694
 C3193 C 0.65160 0.02906 0.24386
 C3194 C 0.66057 0.04210 0.24126
 C3195 C 0.67054 0.05835 0.23949
 C3196 C 0.66448 0.07197 0.22818
 C3197 C 0.67259 0.08867 0.22838
 C3198 C 0.68684 0.09200 0.23999
 C3199 C 0.69323 0.07803 0.25085
 C3200 C 0.68509 0.06134 0.25063
 C3201 C 0.69435 0.11018 0.24148
 C3202 C 0.71280 0.11272 0.24361
 C3203 C 0.71968 0.12984 0.24564
 C3204 C 0.70823 0.14463 0.24562
 C3205 C 0.68989 0.14223 0.24344
 C3206 C 0.68299 0.12515 0.24139
 C3207 C 0.71525 0.16229 0.24763
 C3208 C 0.72093 0.17718 0.24904
 H3209 H 0.65313 0.06986 0.21961
 H3210 H 0.66754 0.09907 0.21968
 H3211 H 0.70402 0.08020 0.26008
 H3212 H 0.68974 0.05097 0.25962
 H3213 H 0.72191 0.10149 0.24357
 H3214 H 0.73392 0.13155 0.24722
 H3215 H 0.68090 0.15357 0.24341
 H3216 H 0.66871 0.12364 0.24010
 C3217 C 0.84897 0.03062 0.74625
 C3218 C 0.83976 0.04340 0.74292
 C3219 C 0.82926 0.05920 0.73978
 C3220 C 0.81567 0.06384 0.75182
 C3221 C 0.80671 0.08011 0.74998
 C3222 C 0.81128 0.09200 0.73607
 C3223 C 0.82462 0.08697 0.72372
 C3224 C 0.83356 0.07068 0.72560
 C3225 C 0.80292 0.10995 0.73516
 C3226 C 0.81337 0.12499 0.73119
 C3227 C 0.80586 0.14205 0.73165
 C3228 C 0.78782 0.14433 0.73602
 C3229 C 0.77720 0.12944 0.73960
 C3230 C 0.78468 0.11236 0.73916
 C3231 C 0.78050 0.16198 0.73775
 C3232 C 0.77471 0.17686 0.73962
 H3233 H 0.81235 0.05513 0.76296
 H3234 H 0.79671 0.08367 0.75986
 H3235 H 0.82829 0.09573 0.71276
 H3236 H 0.84412 0.06725 0.71624
 H3237 H 0.82750 0.12364 0.72834
 H3238 H 0.81423 0.15348 0.72897
 H3239 H 0.76321 0.13105 0.74301
 H3240 H 0.77625 0.10104 0.74207
 C3241 C 0.34858 0.53142 0.24623
 C3242 C 0.33922 0.54409 0.24291
 C3243 C 0.32863 0.55982 0.23978
 C3244 C 0.31537 0.56468 0.25211
 C3245 C 0.30645 0.58096 0.25030
 C3246 C 0.31073 0.59266 0.23615
 C3247 C 0.32368 0.58741 0.22350
 C3248 C 0.33259 0.57110 0.22533
 C3249 C 0.30250 0.61068 0.23528
 C3250 C 0.31299 0.62559 0.23089
 C3251 C 0.30566 0.64271 0.23140
 C3252 C 0.28776 0.64520 0.23626
 C3253 C 0.27710 0.63045 0.24026
 C3254 C 0.28441 0.61329 0.23976
 C3255 C 0.28065 0.66293 0.23801
 C3256 C 0.27503 0.67786 0.23987
 H3257 H 0.31232 0.55613 0.26345
 H3258 H 0.29674 0.58470 0.26041
 H3259 H 0.32711 0.59602 0.21234
 H3260 H 0.34289 0.56752 0.21575
 H3261 H 0.32702 0.62408 0.22766
 H3262 H 0.31406 0.65405 0.22838
 H3263 H 0.26322 0.63222 0.24404
 H3264 H 0.27594 0.60208 0.24301
 C3265 C 0.35080 0.46926 0.24905
 C3266 C 0.34242 0.45578 0.24729
 C3267 C 0.33313 0.43913 0.24627
 C3268 C 0.31866 0.43575 0.25772
 C3269 C 0.31094 0.41887 0.25831
 C3270 C 0.31767 0.40512 0.24750
 C3271 C 0.33192 0.40879 0.23570
 C3272 C 0.33962 0.42568 0.23513
 C3273 C 0.31028 0.38688 0.24900
 C3274 C 0.32171 0.37196 0.24877
 C3275 C 0.31482 0.35478 0.25041
 C3276 C 0.29642 0.35228 0.25233
 C3277 C 0.28493 0.36701 0.25260
 C3278 C 0.29180 0.38421 0.25098
 C3279 C 0.28929 0.33457 0.25342
 C3280 C 0.28317 0.31978 0.25387
 H3281 H 0.31368 0.44601 0.26657
 H3282 H 0.30012 0.41642 0.26768
 H3283 H 0.33723 0.39855 0.22703
 H3284 H 0.35090 0.42811 0.22631
 H3285 H 0.33601 0.37358 0.24756
 H3286 H 0.32383 0.34347 0.25015
 H3287 H 0.27065 0.36521 0.25395
 H3288 H 0.28265 0.39540 0.25102
 C3289 C 0.84981 0.96981 0.74916
 C3290 C 0.84133 0.95637 0.74745
 C3291 C 0.83195 0.93978 0.74652
 C3292 C 0.81713 0.93674 0.75760
 C3293 C 0.80930 0.91991 0.75835
 C3294 C 0.81625 0.90588 0.74805
 C3295 C 0.83087 0.90920 0.73659
 C3296 C 0.83869 0.92604 0.73588
 C3297 C 0.80874 0.88770 0.74971
 C3298 C 0.80678 0.87701 0.73454
 C3299 C 0.80014 0.85973 0.73620
 C3300 C 0.79540 0.85290 0.75302
 C3301 C 0.79723 0.86344 0.76819
 C3302 C 0.80385 0.88073 0.76656
 C3303 C 0.78848 0.83514 0.75457
 C3304 C 0.78253 0.82029 0.75533
 H3305 H 0.81189 0.94725 0.76600
 H3306 H 0.79791 0.91783 0.76710
 H3307 H 0.83668 0.89863 0.72867
 H3308 H 0.85030 0.92818 0.72744
 H3309 H 0.81023 0.88205 0.72137
 H3310 H 0.79869 0.85171 0.72435
 H3311 H 0.79360 0.85828 0.78128
 H3312 H 0.80546 0.88854 0.77852
 C3313 C 0.64861 0.96768 0.24278
 C3314 C 0.65610 0.95393 0.23913
 C3315 C 0.66449 0.93702 0.23566
 C3316 C 0.65393 0.92209 0.23252
 C3317 C 0.66181 0.90527 0.23095
 C3318 C 0.68038 0.90313 0.23256
 C3319 C 0.69093 0.91830 0.23521
 C3320 C 0.68302 0.93512 0.23679
 C3321 C 0.68856 0.88506 0.23244
 C3322 C 0.70212 0.88063 0.24460
 C3323 C 0.70923 0.86342 0.24519
 C3324 C 0.70294 0.85038 0.23367
 C3325 C 0.68960 0.85467 0.22137
 C3326 C 0.68245 0.87190 0.22075
 C3327 C 0.71004 0.83257 0.23482
 C3328 C 0.71632 0.81783 0.23634
 H3329 H 0.63955 0.92338 0.23179
 H3330 H 0.65328 0.89386 0.22916
 H3331 H 0.70529 0.91713 0.23626
 H3332 H 0.69132 0.94657 0.23927
 H3333 H 0.70691 0.89034 0.25398
 H3334 H 0.71951 0.86024 0.25481
 H3335 H 0.68465 0.84468 0.21236
 H3336 H 0.67215 0.87494 0.21113
 C3337 C 0.14961 0.46858 0.74198
 C3338 C 0.15740 0.45497 0.73844
 C3339 C 0.16607 0.43817 0.73510
 C3340 C 0.18235 0.43414 0.74322
 C3341 C 0.18984 0.41714 0.74158
 C3342 C 0.18108 0.40391 0.73185
 C3343 C 0.16494 0.40824 0.72334
 C3344 C 0.15749 0.42525 0.72498
 C3345 C 0.18831 0.38547 0.73132
 C3346 C 0.17683 0.37080 0.73316
 C3347 C 0.18370 0.35348 0.73371
 C3348 C 0.20211 0.35056 0.73238
 C3349 C 0.21362 0.36503 0.73025
 C3350 C 0.20678 0.38237 0.72971
 C3351 C 0.20927 0.33280 0.73389
 C3352 C 0.21551 0.31805 0.73548
 H3353 H 0.18901 0.44397 0.75124
 H3354 H 0.20214 0.41417 0.74849
 H3355 H 0.15800 0.39842 0.71557
 H3356 H 0.14483 0.42820 0.71871
 H3357 H 0.16258 0.37275 0.73470
 H3358 H 0.17467 0.34238 0.73546
 H3359 H 0.22790 0.36292 0.72920
 H3360 H 0.21594 0.39336 0.72808
 C3361 C 0.03085 0.74672 0.85026
 C3362 C 0.04346 0.74381 0.84059
 C3363 C 0.05911 0.74110 0.82965
 C3364 C 0.06473 0.75454 0.81787
 C3365 C 0.08096 0.75288 0.80868
 C3366 C 0.09184 0.73777 0.81120
 C3367 C 0.08581 0.72409 0.82266
 C3368 C 0.06957 0.72577 0.83185
 C3369 C 0.10984 0.73684 0.80276
 C3370 C 0.12450 0.73043 0.81256
 C3371 C 0.14168 0.73077 0.80517
 C3372 C 0.14447 0.73747 0.78789
 C3373 C 0.12994 0.74353 0.77787
 C3374 C 0.11273 0.74321 0.78524
 C3375 C 0.16234 0.73892 0.78085
 C3376 C 0.17744 0.74042 0.77540
 H3377 H 0.05683 0.76654 0.81620
 H3378 H 0.08531 0.76376 0.80016
 H3379 H 0.09378 0.71220 0.82472
 H3380 H 0.06538 0.71532 0.84100
 H3381 H 0.12279 0.72571 0.82617
 H3382 H 0.15284 0.72615 0.81309
 H3383 H 0.13195 0.74876 0.76447
 H3384 H 0.10170 0.74805 0.77729
 C3385 C 0.53026 0.24909 0.34990
 C3386 C 0.54278 0.24599 0.34018
 C3387 C 0.55830 0.24297 0.32915
 C3388 C 0.56435 0.25644 0.31763
 C3389 C 0.58044 0.25437 0.30827
 C3390 C 0.59074 0.23880 0.31036
 C3391 C 0.58428 0.22511 0.32159
 C3392 C 0.56818 0.22722 0.33094
 C3393 C 0.60862 0.23736 0.30174
 C3394 C 0.62311 0.23018 0.31126
 C3395 C 0.64024 0.23007 0.30373
 C3396 C 0.64313 0.23708 0.28658
 C3397 C 0.62875 0.24387 0.27682
 C3398 C 0.61159 0.24400 0.28433
 C3399 C 0.66100 0.23816 0.27948
 C3400 C 0.67611 0.23940 0.27400
 H3401 H 0.55690 0.26876 0.31627
 H3402 H 0.58514 0.26526 0.29995
 H3403 H 0.59180 0.21288 0.32331
 H3404 H 0.56366 0.21673 0.33988
 H3405 H 0.62134 0.22523 0.32478
 H3406 H 0.65129 0.22489 0.31145
 H3407 H 0.63084 0.24934 0.26354
 H3408 H 0.60068 0.24943 0.27659
 C3409 C 0.53075 0.74334 0.15017
 C3410 C 0.54382 0.74147 0.15927
 C3411 C 0.56005 0.74042 0.16938
 C3412 C 0.56303 0.75252 0.18312
 C3413 C 0.57966 0.75316 0.19140
 C3414 C 0.59358 0.74175 0.18595
 C3415 C 0.59027 0.72925 0.17250
 C3416 C 0.57363 0.72863 0.16425
 C3417 C 0.61169 0.74345 0.19365
 C3418 C 0.62692 0.74231 0.18257
 C3419 C 0.64396 0.74434 0.18964
 C3420 C 0.64607 0.74756 0.20788
 C3421 C 0.63102 0.74869 0.21904
 C3422 C 0.61394 0.74668 0.21198
 C3423 C 0.66370 0.74929 0.21511
 C3424 C 0.67858 0.75034 0.22097
 H3425 H 0.55269 0.76188 0.18704
 H3426 H 0.58183 0.76307 0.20155
 H3427 H 0.60063 0.72011 0.16819
 H3428 H 0.57152 0.71930 0.15354
 H3429 H 0.62564 0.74015 0.16836
 H3430 H 0.65551 0.74343 0.18088
 H3431 H 0.63250 0.75106 0.23320
 H3432 H 0.60250 0.74746 0.22088
 C3433 C 0.02913 0.24469 0.64954
 C3434 C 0.04206 0.24245 0.65876
 C3435 C 0.05814 0.24091 0.66903
 C3436 C 0.07100 0.22808 0.66463
 C3437 C 0.08760 0.22808 0.67301
 C3438 C 0.09158 0.24101 0.68585
 C3439 C 0.07834 0.25349 0.69059
 C3440 C 0.06176 0.25345 0.68220
 C3441 C 0.10974 0.24208 0.69354
 C3442 C 0.11213 0.24620 0.71166
 C3443 C 0.12930 0.24787 0.71863
 C3444 C 0.14427 0.24547 0.70758
 C3445 C 0.14202 0.24127 0.68958
 C3446 C 0.12490 0.23959 0.68260
 C3447 C 0.16197 0.24722 0.71463
 C3448 C 0.17692 0.24846 0.72027
 H3449 H 0.06839 0.21838 0.65437
 H3450 H 0.09741 0.21815 0.66925
 H3451 H 0.08105 0.26374 0.70025
 H3452 H 0.05198 0.26359 0.68555
 H3453 H 0.10074 0.24804 0.72046
 H3454 H 0.13088 0.25105 0.73261
 H3455 H 0.15351 0.23940 0.68090
 H3456 H 0.12353 0.23671 0.66853
 C3457 C 0.96644 0.24269 0.64685
 C3458 C 0.95283 0.23905 0.65471
 C3459 C 0.93605 0.23557 0.66352
 C3460 C 0.92113 0.23124 0.65337
 C3461 C 0.90437 0.22967 0.66153
 C3462 C 0.90229 0.23249 0.67999
 C3463 C 0.91747 0.23632 0.69017
 C3464 C 0.93423 0.23789 0.68197
 C3465 C 0.88425 0.23241 0.68837
 C3466 C 0.87954 0.24534 0.70107
 C3467 C 0.86233 0.24590 0.70834
 C3468 C 0.84955 0.23358 0.70305
 C3469 C 0.85412 0.22052 0.69058
 C3470 C 0.87136 0.21993 0.68327
 C3471 C 0.83175 0.23462 0.71035
 C3472 C 0.81702 0.23602 0.71680
 H3473 H 0.92236 0.22958 0.63905
 H3474 H 0.89294 0.22694 0.65329
 H3475 H 0.91635 0.23832 0.70444
 H3476 H 0.94568 0.24131 0.68994
 H3477 H 0.88904 0.25531 0.70505
 H3478 H 0.85892 0.25610 0.71795
 H3479 H 0.84434 0.21088 0.68644
 H3480 H 0.87462 0.20971 0.67366
 C3481 C 0.46797 0.74102 0.14830
 C3482 C 0.45438 0.73752 0.15627
 C3483 C 0.43758 0.73426 0.16514
 C3484 C 0.43551 0.73783 0.18335
 C3485 C 0.41868 0.73658 0.19146
 C3486 C 0.40368 0.73181 0.18143
 C3487 C 0.40602 0.72773 0.16325
 C3488 C 0.42286 0.72898 0.15517
 C3489 C 0.38553 0.73208 0.18959
 C3490 C 0.37286 0.71909 0.18526
 C3491 C 0.35554 0.71994 0.19236
 C3492 C 0.35067 0.73378 0.20384
 C3493 C 0.36323 0.74664 0.20834
 C3494 C 0.38052 0.74582 0.20128
 C3495 C 0.33282 0.73502 0.21096
 C3496 C 0.31804 0.73658 0.21727
 H3497 H 0.44680 0.74200 0.19117
 H3498 H 0.41735 0.73957 0.20554
 H3499 H 0.39473 0.72425 0.15510
 H3500 H 0.42428 0.72636 0.14102
 H3501 H 0.37636 0.70826 0.17643
 H3502 H 0.34594 0.70988 0.18883
 H3503 H 0.35960 0.75744 0.21718
 H3504 H 0.38984 0.75619 0.20464
 C3505 C 0.46825 0.25123 0.35281
 C3506 C 0.45490 0.24960 0.34414
 C3507 C 0.43846 0.24866 0.33444
 C3508 C 0.42467 0.23774 0.34069
 C3509 C 0.40802 0.23824 0.33243
 C3510 C 0.40494 0.24976 0.31785
 C3511 C 0.41902 0.26040 0.31142
 C3512 C 0.43566 0.25986 0.31969
 C3513 C 0.38695 0.25109 0.30978
 C3514 C 0.37979 0.26776 0.30485
 C3515 C 0.36267 0.26906 0.29767
 C3516 C 0.35250 0.25373 0.29532
 C3517 C 0.35953 0.23709 0.30010
 C3518 C 0.37663 0.23576 0.30729
 C3519 C 0.33489 0.25495 0.28792
 C3520 C 0.32016 0.25543 0.28161
 H3521 H 0.42662 0.22918 0.35224
 H3522 H 0.39739 0.23006 0.33784
 H3523 H 0.41713 0.26922 0.30008
 H3524 H 0.44622 0.26846 0.31482
 H3525 H 0.38730 0.27983 0.30685
 H3526 H 0.35735 0.28201 0.29403
 H3527 H 0.35180 0.22513 0.29825
 H3528 H 0.38184 0.22273 0.31075
 C3529 C 0.96873 0.74901 0.85308
 C3530 C 0.95529 0.74760 0.84450
 C3531 C 0.93873 0.74698 0.83499
 C3532 C 0.92500 0.73587 0.84104
 C3533 C 0.90820 0.73678 0.83314
 C3534 C 0.90488 0.74890 0.81910
 C3535 C 0.91891 0.75969 0.81280
 C3536 C 0.93570 0.75875 0.82074
 C3537 C 0.88673 0.75071 0.81148
 C3538 C 0.88439 0.75310 0.79299
 C3539 C 0.86728 0.75493 0.78590
 C3540 C 0.85230 0.75445 0.79719
 C3541 C 0.85449 0.75217 0.81560
 C3542 C 0.87158 0.75032 0.82272
 C3543 C 0.83467 0.75562 0.78982
 C3544 C 0.81992 0.75605 0.78354
 H3545 H 0.92716 0.72679 0.85215
 H3546 H 0.89775 0.72812 0.83810
 H3547 H 0.91673 0.76929 0.80217
 H3548 H 0.94617 0.76758 0.81609
 H3549 H 0.89577 0.75328 0.78398
 H3550 H 0.86572 0.75655 0.77160
 H3551 H 0.84298 0.75174 0.82446
 H3552 H 0.87295 0.74880 0.83703
   
