data_POSCAR
  _audit_creation_date              2014-09-24
  _audit_creation_method            'ToBaCCo'
  _symmetry_space_group_name_H-M    'P1'
  _symmetry_Int_Tables_number       1
  _symmetry_cell_setting            triclinic
  loop_
  _symmetry_equiv_pos_as_xyz
 x,y,z
_cell_length_a 51.6137
_cell_length_b 51.5934
_cell_length_c 51.5857
_cell_angle_alpha 90.036600
_cell_angle_beta 90.000300
_cell_angle_gamma 89.957100
loop_
  _atom_site_label
  _atom_site_type_symbol
  _atom_site_fract_x
  _atom_site_fract_y
  _atom_site_fract_z
C1 C 0.37006 1.35218 0.33218
 C2 C 0.36950 1.33220 0.35065
 C3 C 0.34909 1.33061 0.36795
 C4 C 0.32920 1.34910 0.36731
 C5 C 0.32997 1.36897 0.34946
 C6 C 0.35026 1.37019 0.33142
 C7 C 0.38637 1.35750 0.31173
 N8 N 0.37660 1.37792 0.29806
 C9 C 0.35452 1.38580 0.31028
 C10 C 0.30825 1.38395 0.35333
 N11 N 0.29398 1.37347 0.37295
 C12 C 0.30675 1.35193 0.38139
 C13 C 0.35281 1.30875 0.38268
 N14 N 0.37499 1.29694 0.37480
 C15 C 0.38536 1.31120 0.35522
 H16 H 0.40311 1.34607 0.30636
 H17 H 0.34221 1.40171 0.30439
 H18 H 0.30294 1.40074 0.34194
 H19 H 0.30077 1.33952 0.39719
 H20 H 0.34020 1.30190 0.39798
 H21 H 0.40273 1.30626 0.34454
 C22 C 0.36915 0.85111 0.83257
 C23 C 0.36991 0.83276 0.85260
 C24 C 0.35114 0.83307 0.87174
 C25 C 0.33145 0.85182 0.87121
 C26 C 0.33051 0.86964 0.85128
 C27 C 0.34965 0.86951 0.83199
 C28 C 0.38420 0.85482 0.81086
 N29 N 0.37445 0.87518 0.79731
 C30 C 0.35331 0.88429 0.81010
 C31 C 0.30839 0.88411 0.85462
 N32 N 0.29588 0.87582 0.87638
 C33 C 0.31015 0.85610 0.88668
 C34 C 0.35560 0.81206 0.88753
 N35 N 0.37666 0.79907 0.87849
 C36 C 0.38563 0.81169 0.85720
 H37 H 0.40103 0.84355 0.80536
 H38 H 0.34115 0.90011 0.80362
 H39 H 0.30222 0.89979 0.84213
 H40 H 0.30489 0.84464 0.90342
 H41 H 0.34405 0.80635 0.90408
 H42 H 0.40168 0.80535 0.84526
 C43 C 0.86865 1.35112 0.83113
 C44 C 0.86843 1.33139 0.84982
 C45 C 0.84875 1.33037 0.86800
 C46 C 0.82895 1.34901 0.86764
 C47 C 0.82930 1.36855 0.84936
 C48 C 0.84906 1.36934 0.83069
 C49 C 0.88467 1.35615 0.81043
 N50 N 0.87498 1.37668 0.79690
 C51 C 0.85313 1.38480 0.80937
 C52 C 0.80779 1.38374 0.85356
 N53 N 0.79398 1.37370 0.87373
 C54 C 0.80689 1.35227 0.88227
 C55 C 0.85303 1.30878 0.88308
 N56 N 0.87466 1.29658 0.87430
 C57 C 0.88417 1.31026 0.85392
 H58 H 0.90128 1.34459 0.80491
 H59 H 0.84099 1.40091 0.80365
 H60 H 0.80222 1.40029 0.84195
 H61 H 0.80122 1.34015 0.89840
 H62 H 0.84088 1.30201 0.89878
 H63 H 0.90122 1.30513 0.84282
 C64 C 0.86836 0.85065 0.33096
 C65 C 0.86779 0.83084 0.34952
 C66 C 0.84879 0.83074 0.36838
 C67 C 0.83026 0.85060 0.36908
 C68 C 0.83113 0.87047 0.35110
 C69 C 0.85045 0.87054 0.33191
 C70 C 0.88339 0.85444 0.30935
 N71 N 0.87536 0.87639 0.29704
 C72 C 0.85530 0.88646 0.31103
 C73 C 0.81001 0.88617 0.35571
 N74 N 0.79633 0.87615 0.37588
 C75 C 0.80869 0.85445 0.38421
 C76 C 0.85234 0.80880 0.38310
 N77 N 0.87324 0.79575 0.37377
 C78 C 0.88276 0.80908 0.35318
 H79 H 0.89920 0.84204 0.30334
 H80 H 0.84393 0.90329 0.30576
 H81 H 0.80442 0.90301 0.34450
 H82 H 0.80224 0.84208 0.39987
 H83 H 0.84074 0.80290 0.39955
 H84 H 0.89913 0.80316 0.34146
 C85 C 0.63043 0.64845 0.33259
 C86 C 0.62971 0.66696 0.35252
 C87 C 0.64935 0.66772 0.37078
 C88 C 0.66980 0.64985 0.36953
 C89 C 0.67065 0.63188 0.34966
 C90 C 0.65094 0.63133 0.33098
 C91 C 0.61462 0.64378 0.31161
 N92 N 0.62522 0.62447 0.29697
 C93 C 0.64754 0.61686 0.30888
 C94 C 0.69300 0.61767 0.35271
 N95 N 0.70565 0.62643 0.37408
 C96 C 0.69161 0.64619 0.38445
 C97 C 0.64477 0.68879 0.38647
 N98 N 0.62290 0.70090 0.37816
 C99 C 0.61345 0.68753 0.35752
 H100 H 0.59734 0.65468 0.30689
 H101 H 0.66038 0.60160 0.30239
 H102 H 0.69942 0.60191 0.34043
 H103 H 0.69705 0.65733 0.40138
 H104 H 0.65690 0.69524 0.40233
 H105 H 0.59677 0.69315 0.34611
 C106 C 0.63040 0.14841 0.83209
 C107 C 0.63087 0.16847 0.85049
 C108 C 0.65112 0.17006 0.86800
 C109 C 0.67091 0.15144 0.86766
 C110 C 0.67020 0.13149 0.84986
 C111 C 0.65012 0.13030 0.83160
 C112 C 0.61426 0.14304 0.81151
 N113 N 0.62407 0.12250 0.79803
 C114 C 0.64600 0.11460 0.81048
 C115 C 0.69173 0.11634 0.85404
 N116 N 0.70584 0.12675 0.87382
 C117 C 0.69316 0.14846 0.88203
 C118 C 0.64733 0.19203 0.88261
 N119 N 0.62526 0.20387 0.87445
 C120 C 0.61504 0.18955 0.85482
 H121 H 0.59761 0.15449 0.80593
 H122 H 0.65829 0.09859 0.80476
 H123 H 0.69702 0.09946 0.84276
 H124 H 0.69906 0.16087 0.89787
 H125 H 0.65980 0.19892 0.89801
 H126 H 0.59779 0.19450 0.84397
 C127 C 1.13031 0.64843 0.83178
 C128 C 1.12910 0.66659 0.85201
 C129 C 1.14803 0.66671 0.87100
 C130 C 1.16832 0.64863 0.87013
 C131 C 1.16980 0.63118 0.84992
 C132 C 1.15063 0.63096 0.83068
 C133 C 1.11512 0.64420 0.81025
 N134 N 1.12575 0.62462 0.79615
 C135 C 1.14753 0.61648 0.80852
 C136 C 1.19226 0.61720 0.85311
 N137 N 1.20442 0.62540 0.87510
 C138 C 1.18966 0.64466 0.88562
 C139 C 1.14323 0.68758 0.88687
 N140 N 1.12188 0.70018 0.87798
 C141 C 1.11297 0.68733 0.85678
 H142 H 1.09791 0.65497 0.80495
 H143 H 1.16016 0.60106 0.80195
 H144 H 1.19877 0.60178 0.84047
 H145 H 1.19449 0.65590 0.90266
 H146 H 1.15491 0.69362 0.90323
 H147 H 1.09682 0.69344 0.84486
 C148 C 1.13097 0.14876 0.33168
 C149 C 1.12937 0.16641 0.35227
 C150 C 1.14816 0.16651 0.37140
 C151 C 1.16894 0.14898 0.37003
 C152 C 1.17092 0.13220 0.34924
 C153 C 1.15178 0.13207 0.32995
 C154 C 1.11557 0.14448 0.31035
 N155 N 1.12659 0.12565 0.29541
 C156 C 1.14895 0.11817 0.30736
 C157 C 1.19358 0.11852 0.35217
 N158 N 1.20545 0.12619 0.37451
 C159 C 1.19029 0.14489 0.38551
 C160 C 1.14271 0.18696 0.38771
 N161 N 1.12133 0.19944 0.37866
 C162 C 1.11294 0.18681 0.35713
 H163 H 1.09808 0.15511 0.30580
 H164 H 1.16201 0.10317 0.30072
 H165 H 1.20036 0.10355 0.33913
 H166 H 1.19474 0.15559 0.40299
 H167 H 1.15438 0.19329 0.40396
 H168 H 1.09666 0.19264 0.34525
 C169 C 0.62986 1.35185 0.66761
 C170 C 0.62999 1.33270 0.64827
 C171 C 0.65004 1.33178 0.63048
 C172 C 0.67001 1.35013 0.63155
 C173 C 0.66986 1.36900 0.65058
 C174 C 0.64984 1.36960 0.66894
 C175 C 0.61374 1.35656 0.68836
 N176 N 0.62373 1.37641 0.70269
 C177 C 0.64586 1.38444 0.69070
 C178 C 0.69179 1.38379 0.64724
 N179 N 0.70525 1.37427 0.62669
 C180 C 0.69212 1.35357 0.61708
 C181 C 0.64620 1.31031 0.61519
 N182 N 0.62433 1.29808 0.62324
 C183 C 0.61421 1.31173 0.64340
 H184 H 0.59683 1.34521 0.69332
 H185 H 0.65828 1.40009 0.69704
 H186 H 0.69772 1.40003 0.65913
 H187 H 0.69807 1.34203 0.60059
 H188 H 0.65869 1.30382 0.59962
 H189 H 0.59726 1.30620 0.65444
 C190 C 0.62965 0.85189 1.16727
 C191 C 0.62973 0.83278 1.14788
 C192 C 0.64971 0.83192 1.13003
 C193 C 0.66967 0.85028 1.13106
 C194 C 0.66956 0.86912 1.15012
 C195 C 0.64962 0.86966 1.16857
 C196 C 0.61360 0.85655 1.18809
 N197 N 0.62363 0.87638 1.20243
 C198 C 0.64571 0.88445 1.19037
 C199 C 0.69147 0.88394 1.14673
 N200 N 0.70486 0.87446 1.12612
 C201 C 0.69172 0.85377 1.11652
 C202 C 0.64584 0.81049 1.11468
 N203 N 0.62401 0.79823 1.12276
 C204 C 0.61394 0.81182 1.14299
 H205 H 0.59672 0.84517 1.19309
 H206 H 0.65813 0.90010 1.19670
 H207 H 0.69743 0.90017 1.15862
 H208 H 0.69764 0.84225 1.09999
 H209 H 0.65829 0.80406 1.09906
 H210 H 0.59702 0.80624 1.15406
 C211 C 1.12996 1.35178 1.16717
 C212 C 1.13113 1.33160 1.14898
 C213 C 1.15142 1.33047 1.13151
 C214 C 1.17063 1.34968 1.13175
 C215 C 1.16918 1.36986 1.14926
 C216 C 1.14891 1.37073 1.16735
 C217 C 1.11380 1.35651 1.18787
 N218 N 1.12270 1.37767 1.20080
 C219 C 1.14408 1.38656 1.18826
 C220 C 1.19049 1.38537 1.14524
 N221 N 1.20518 1.37493 1.12589
 C222 C 1.19302 1.35294 1.11769
 C223 C 1.14824 1.30832 1.11701
 N224 N 1.12643 1.29603 1.12516
 C225 C 1.11587 1.31015 1.14475
 H226 H 1.09764 1.34460 1.19392
 H227 H 1.15575 1.40289 1.19436
 H228 H 1.19531 1.40240 1.15648
 H229 H 1.19946 1.34035 1.10219
 H230 H 1.16083 1.30169 1.10158
 H231 H 1.09867 1.30490 1.15554
 C232 C 1.12928 0.85238 0.66654
 C233 C 1.12973 0.83283 0.64762
 C234 C 1.14948 0.83217 0.62950
 C235 C 1.16887 0.85118 0.62984
 C236 C 1.16832 0.87056 0.64835
 C237 C 1.14853 0.87103 0.66695
 C238 C 1.11358 0.85676 0.68768
 N239 N 1.12301 0.87744 0.70100
 C240 C 1.14434 0.88631 0.68839
 C241 C 1.18993 0.88572 0.64461
 N242 N 1.20361 0.87594 0.62434
 C243 C 1.19088 0.85475 0.61525
 C244 C 1.14592 0.81035 0.61461
 N245 N 1.12444 0.79777 0.62317
 C246 C 1.11439 0.81143 0.64334
 H247 H 1.09722 0.84505 0.69358
 H248 H 1.15626 0.90240 0.69464
 H249 H 1.19562 0.90225 0.65622
 H250 H 1.19718 0.84278 0.59919
 H251 H 1.15820 0.80400 0.59882
 H252 H 1.09766 0.80576 0.65464
 C253 C 0.36842 0.65004 0.66867
 C254 C 0.36900 0.66836 0.64863
 C255 C 0.35030 0.66782 0.62942
 C256 C 0.33088 0.64879 0.62989
 C257 C 0.33014 0.63098 0.64984
 C258 C 0.34919 0.63140 0.66922
 C259 C 0.38352 0.64652 0.69037
 N260 N 0.37407 0.62602 0.70391
 C261 C 0.35306 0.61666 0.69110
 C262 C 0.30836 0.61606 0.64634
 N263 N 0.29588 0.62404 0.62444
 C264 C 0.30982 0.64404 0.61424
 C265 C 0.35463 0.68884 0.61358
 N266 N 0.37554 0.70201 0.62267
 C267 C 0.38452 0.68953 0.64403
 H268 H 0.40022 0.65796 0.69585
 H269 H 0.34114 0.60065 0.69754
 H270 H 0.30245 0.60025 0.65877
 H271 H 0.30450 0.65532 0.59738
 H272 H 0.34311 0.69440 0.59695
 H273 H 0.40049 0.69601 0.65600
 C274 C 0.36934 0.14876 1.16806
 C275 C 0.36797 0.16893 1.14994
 C276 C 0.34797 0.16960 1.13217
 C277 C 0.32926 0.14994 1.13206
 C278 C 0.33094 0.12965 1.14943
 C279 C 0.35105 0.12915 1.16779
 C280 C 0.38528 0.14454 1.18896
 N281 N 0.37713 0.12290 1.20153
 C282 C 0.35632 0.11322 1.18858
 C283 C 0.30992 0.11380 1.14502
 N284 N 0.29521 0.12421 1.12565
 C285 C 0.30712 0.14642 1.11775
 C286 C 0.35097 0.19176 1.11766
 N287 N 0.37244 0.20444 1.12610
 C288 C 0.38291 0.19062 1.14592
 H289 H 0.40124 0.15675 1.19498
 H290 H 0.34501 0.09662 1.19461
 H291 H 0.30523 0.09661 1.15607
 H292 H 0.30061 0.15905 1.10233
 H293 H 0.33857 0.19806 1.10195
 H294 H 0.39992 0.19614 1.15688
 C295 C 0.86982 0.64874 1.16741
 C296 C 0.86927 0.66831 1.14856
 C297 C 0.84943 0.66901 1.13054
 C298 C 0.83003 0.64999 1.13093
 C299 C 0.83068 0.63059 1.14939
 C300 C 0.85058 0.63009 1.16787
 C301 C 0.88570 0.64424 1.18839
 N302 N 0.87639 0.62349 1.20165
 C303 C 0.85496 0.61468 1.18916
 C304 C 0.80913 0.61535 1.14567
 N305 N 0.79536 0.62509 1.12545
 C306 C 0.80799 0.64634 1.11637
 C307 C 0.85302 0.69080 1.11561
 N308 N 0.87460 0.70330 1.12405
 C309 C 0.88468 0.68963 1.14419
 H310 H 0.90213 0.65591 1.19421
 H311 H 0.84311 0.59853 1.19538
 H312 H 0.80356 0.59876 1.15723
 H313 H 0.80163 0.65827 1.10033
 H314 H 0.84072 0.69715 1.09984
 H315 H 0.90152 0.69522 1.15538
 C316 C 0.86902 0.14963 0.66878
 C317 C 0.86850 0.16884 0.64960
 C318 C 0.84976 0.16821 0.63045
 C319 C 0.83140 0.14818 0.63011
 C320 C 0.83206 0.12909 0.64895
 C321 C 0.85120 0.12970 0.66828
 C322 C 0.88410 0.14632 0.69047
 N323 N 0.87623 0.12454 0.70317
 C324 C 0.85613 0.11421 0.68945
 C325 C 0.81106 0.11319 0.64480
 N326 N 0.79778 0.12209 0.62385
 C327 C 0.81019 0.14341 0.61468
 C328 C 0.85329 0.18982 0.61521
 N329 N 0.87389 0.20333 0.62452
 C330 C 0.88328 0.19063 0.64557
 H331 H 0.89995 0.15880 0.69616
 H332 H 0.84493 0.09739 0.69498
 H333 H 0.80560 0.09661 0.65643
 H334 H 0.80364 0.15521 0.59861
 H335 H 0.84179 0.19526 0.59853
 H336 H 0.89935 0.19708 0.65742
 C337 C 1.35116 0.37031 0.66762
 C338 C 1.33290 0.37070 0.64749
 C339 C 1.33358 0.35183 0.62843
 C340 C 1.35262 0.33242 0.62915
 C341 C 1.37034 0.33184 0.64918
 C342 C 1.36982 0.35107 0.66839
 C343 C 1.35457 0.38556 0.68926
 N344 N 1.37502 0.37618 0.70295
 C345 C 1.38445 0.35508 0.69032
 C346 C 1.38521 0.30995 0.64598
 N347 N 1.37728 0.29727 0.62418
 C348 C 1.35737 0.31117 0.61374
 C349 C 1.31260 0.35591 0.61250
 N350 N 1.29927 0.37684 0.62137
 C351 C 1.31165 0.38609 0.64269
 H352 H 1.34307 0.40229 0.69460
 H353 H 1.40041 0.34316 0.69692
 H354 H 1.40092 0.30408 0.65856
 H355 H 1.34611 0.30568 0.59692
 H356 H 1.30713 0.34419 0.59597
 H357 H 1.30503 0.40213 0.65451
 C358 C 1.34889 0.86930 1.16902
 C359 C 1.33006 0.86927 1.14940
 C360 C 1.33096 0.85077 1.12997
 C361 C 1.35078 0.83214 1.12984
 C362 C 1.36917 0.83213 1.14928
 C363 C 1.36849 0.85110 1.16871
 C364 C 1.35227 0.88421 1.19089
 N365 N 1.37385 0.87587 1.20370
 C366 C 1.38384 0.85558 1.19002
 C367 C 1.38470 0.81081 1.14553
 N368 N 1.37649 0.79786 1.12400
 C369 C 1.35583 0.81112 1.11418
 C370 C 1.30961 0.85457 1.11444
 N371 N 1.29593 0.87504 1.12383
 C372 C 1.30835 0.88419 1.14518
 H373 H 1.34012 0.90034 1.19655
 H374 H 1.40043 0.84402 1.19559
 H375 H 1.40093 0.80541 1.15765
 H376 H 1.34421 0.80520 1.09775
 H377 H 1.30432 0.84317 1.09763
 H378 H 1.30164 0.90003 1.15721
 C379 C 0.84948 0.36869 1.16935
 C380 C 0.82904 0.36738 1.15151
 C381 C 0.82866 0.34802 1.13302
 C382 C 0.84887 0.32988 1.13195
 C383 C 0.86947 0.33168 1.14895
 C384 C 0.86974 0.35125 1.16791
 C385 C 0.85360 0.38399 1.19074
 N386 N 0.87602 0.37646 1.20252
 C387 C 0.88614 0.35657 1.18830
 C388 C 0.88573 0.31114 1.14379
 N389 N 0.87528 0.29654 1.12435
 C390 C 0.85268 0.30814 1.11706
 C391 C 0.80633 0.35109 1.11878
 N392 N 0.79331 0.37206 1.12801
 C393 C 0.80703 0.38205 1.14815
 H394 H 0.84097 0.39949 1.19706
 H395 H 0.90327 0.34551 1.19319
 H396 H 0.90315 0.30655 1.15453
 H397 H 0.83984 0.30159 1.10184
 H398 H 0.80026 0.33924 1.10255
 H399 H 0.80134 0.39869 1.15961
 C400 C 0.85115 0.87085 0.66698
 C401 C 0.83141 0.87000 0.64833
 C402 C 0.83108 0.85037 0.63008
 C403 C 0.85061 0.83149 0.63006
 C404 C 0.87030 0.83250 0.64822
 C405 C 0.87054 0.85231 0.66687
 C406 C 0.85526 0.88653 0.68816
 N407 N 0.87667 0.87799 0.70091
 C408 C 0.88622 0.85714 0.68792
 C409 C 0.88586 0.81118 0.64421
 N410 N 0.87598 0.79723 0.62416
 C411 C 0.85442 0.80955 0.61540
 C412 C 0.80914 0.85364 0.61529
 N413 N 0.79624 0.87489 0.62400
 C414 C 0.80974 0.88502 0.64423
 H415 H 0.84325 0.90267 0.69412
 H416 H 0.90268 0.84563 0.69398
 H417 H 0.90263 0.80577 0.65559
 H418 H 0.84226 0.80296 0.59963
 H419 H 0.80305 0.84145 0.59933
 H420 H 0.80389 0.90170 0.65556
 C421 C 0.65007 0.63094 0.66865
 C422 C 0.66960 0.63120 0.64976
 C423 C 0.66917 0.64963 0.63031
 C424 C 0.64934 0.66822 0.62966
 C425 C 0.62997 0.66786 0.64820
 C426 C 0.63031 0.64904 0.66781
 C427 C 0.64629 0.61606 0.69043
 N428 N 0.62467 0.62463 0.70281
 C429 C 0.61475 0.64478 0.68906
 C430 C 0.61418 0.68887 0.64359
 N431 N 0.62363 0.70208 0.62288
 C432 C 0.64511 0.68952 0.61420
 C433 C 0.69083 0.64571 0.61522
 N434 N 0.70441 0.62542 0.62512
 C435 C 0.69157 0.61649 0.64631
 H436 H 0.65849 0.60026 0.69687
 H437 H 0.59793 0.65606 0.69455
 H438 H 0.59768 0.69474 0.65517
 H439 H 0.65706 0.69568 0.59811
 H440 H 0.69660 0.65716 0.59863
 H441 H 0.69773 0.60043 0.65832
 C442 C 0.65179 1.13319 1.17035
 C443 C 0.67054 1.13288 1.15070
 C444 C 0.66905 1.15034 1.13040
 C445 C 0.64891 1.16865 1.12973
 C446 C 0.63067 1.16911 1.14932
 C447 C 0.63180 1.15091 1.16946
 C448 C 0.64872 1.11888 1.19262
 N449 N 0.62693 1.12707 1.20514
 C450 C 0.61655 1.14677 1.19091
 C451 C 0.61489 1.19012 1.14506
 N452 N 0.62286 1.20256 1.12317
 C453 C 0.64353 1.18917 1.11350
 C454 C 0.69028 1.14605 1.11477
 N455 N 0.70458 1.12650 1.12517
 C456 C 0.69258 1.11835 1.14714
 H457 H 0.66115 1.10310 1.19863
 H458 H 0.59962 1.15803 1.19605
 H459 H 0.59878 1.19576 1.15723
 H460 H 0.65503 1.19478 1.09690
 H461 H 0.69534 1.15688 1.09754
 H462 H 0.69941 1.10301 1.15972
 C463 C 0.14965 0.63042 1.16893
 C464 C 0.16998 0.63173 1.15101
 C465 C 0.17036 0.65119 1.13264
 C466 C 0.15024 0.66942 1.13179
 C467 C 0.12971 0.66763 1.14888
 C468 C 0.12945 0.64796 1.16772
 C469 C 0.14564 0.61507 1.19027
 N470 N 0.12334 0.62264 1.20226
 C471 C 0.11318 0.64262 1.18820
 C472 C 0.11356 0.68833 1.14396
 N473 N 0.12402 0.70298 1.12459
 C474 C 0.14651 0.69128 1.11711
 C475 C 0.19266 0.64814 1.11833
 N476 N 0.20564 0.62710 1.12741
 C477 C 0.19195 0.61702 1.14750
 H478 H 0.15827 0.59951 1.19644
 H479 H 0.09614 0.65374 1.19331
 H480 H 0.09623 0.69297 1.15482
 H481 H 0.15933 0.69785 1.10188
 H482 H 0.19875 0.66008 1.10220
 H483 H 0.19764 0.60033 1.15887
 C484 C 0.15065 1.13123 0.66915
 C485 C 0.16927 1.13097 0.64935
 C486 C 0.16832 1.14933 0.62983
 C487 C 0.14864 1.16811 0.62978
 C488 C 0.13043 1.16842 0.64939
 C489 C 0.13117 1.14957 0.66896
 C490 C 0.14745 1.11648 0.69110
 N491 N 0.12609 1.12500 0.70412
 C492 C 0.11604 1.14529 0.69048
 C493 C 0.11504 1.18984 0.64559
 N494 N 0.12317 1.20254 0.62389
 C495 C 0.14364 1.18903 0.61401
 C496 C 0.18952 1.14528 0.61415
 N497 N 0.20314 1.12479 0.62357
 C498 C 0.19084 1.11588 0.64507
 H499 H 0.15956 1.10028 0.69666
 H500 H 0.09956 1.15693 0.69619
 H501 H 0.09897 1.19549 0.65782
 H502 H 0.15518 1.19470 0.59745
 H503 H 0.19477 1.15654 0.59725
 H504 H 0.19756 1.10013 0.65718
 C505 C 1.35080 0.62996 0.33188
 C506 C 1.33099 0.62996 0.35054
 C507 C 1.32996 0.64940 0.36902
 C508 C 1.34864 0.66915 0.36903
 C509 C 1.36822 0.66896 0.35081
 C510 C 1.36903 0.64952 0.33185
 C511 C 1.35598 0.61429 0.31090
 N512 N 1.37657 0.62423 0.29765
 C513 C 1.38460 0.64583 0.31056
 C514 C 1.38346 0.69033 0.35530
 N515 N 1.37341 0.70395 0.37560
 C516 C 1.35191 0.69104 0.38394
 C517 C 1.30835 0.64499 0.38401
 N518 N 1.29612 0.62351 0.37492
 C519 C 1.30981 0.61424 0.35441
 H520 H 1.34450 0.59776 0.30501
 H521 H 1.40074 0.65806 0.30516
 H522 H 1.40001 0.69598 0.34375
 H523 H 1.33976 0.69664 0.40009
 H524 H 1.30160 0.65695 0.39988
 H525 H 1.30467 0.59735 0.34306
 C526 C 1.35189 1.12978 0.83249
 C527 C 1.33179 1.13019 0.85078
 C528 C 1.33105 1.14943 0.86946
 C529 C 1.35025 1.16863 0.86997
 C530 C 1.37025 1.16802 0.85222
 C531 C 1.37095 1.14862 0.83316
 C532 C 1.35671 1.11434 0.81127
 N533 N 1.37803 1.12353 0.79888
 C534 C 1.38689 1.14447 0.81218
 C535 C 1.38569 1.18922 0.85697
 N536 N 1.37530 1.20313 0.87693
 C537 C 1.35350 1.19049 0.88487
 C538 C 1.30918 1.14539 0.88417
 N539 N 1.29657 1.12428 0.87476
 C540 C 1.31021 1.11493 0.85426
 H541 H 1.34491 1.09830 0.80467
 H542 H 1.40344 1.15614 0.80673
 H543 H 1.40250 1.19467 0.84570
 H544 H 1.34096 1.19638 0.90062
 H545 H 1.30262 1.15727 0.90019
 H546 H 1.30487 1.09820 0.84278
 C547 C 0.85079 0.62934 0.83218
 C548 C 0.83093 0.62983 0.85072
 C549 C 0.83036 0.64919 0.86925
 C550 C 0.84978 0.66818 0.86967
 C551 C 0.86958 0.66749 0.85161
 C552 C 0.87006 0.64796 0.83269
 C553 C 0.85511 0.61403 0.81079
 N554 N 0.87654 0.62286 0.79831
 C555 C 0.88590 0.64354 0.81166
 C556 C 0.88499 0.68882 0.85598
 N557 N 0.87494 0.70248 0.87616
 C558 C 0.85339 0.68995 0.88463
 C559 C 0.80836 0.64557 0.88386
 N560 N 0.79565 0.62437 0.87476
 C561 C 0.80934 0.61463 0.85447
 H562 H 0.84322 0.59793 0.80449
 H563 H 0.90233 0.65521 0.80587
 H564 H 0.90178 0.69444 0.84474
 H565 H 0.84110 0.69631 0.90041
 H566 H 0.80209 0.65748 0.89997
 H567 H 0.80369 0.59807 0.84288
 C568 C 0.85031 1.12966 0.33170
 C569 C 0.83078 1.12966 0.35057
 C570 C 0.83104 1.14793 0.37018
 C571 C 0.85072 1.16665 0.37101
 C572 C 0.87011 1.16655 0.35249
 C573 C 0.86994 1.14787 0.33271
 C574 C 0.85417 1.11501 0.30977
 N575 N 0.87570 1.12381 0.29745
 C576 C 0.88551 1.14389 0.31140
 C577 C 0.88571 1.18765 0.35727
 N578 N 0.87609 1.20067 0.37807
 C579 C 0.85473 1.18789 0.38662
 C580 C 0.80940 1.14378 0.38520
 N581 N 0.79598 1.12350 0.37510
 C582 C 0.80890 1.11480 0.35385
 H583 H 0.84206 1.09921 0.30316
 H584 H 0.90224 1.15532 0.30600
 H585 H 0.90215 1.19373 0.34575
 H586 H 0.84268 1.19389 0.40273
 H587 H 0.80352 1.15509 0.40188
 H588 H 0.80285 1.09881 0.34169
 C589 C 0.65025 0.36880 0.33052
 C590 C 0.67024 0.36831 0.34891
 C591 C 0.67036 0.34958 0.36804
 C592 C 0.65035 0.33128 0.36921
 C593 C 0.63032 0.33210 0.35140
 C594 C 0.63024 0.35111 0.33193
 C595 C 0.64633 0.38352 0.30870
 N596 N 0.62421 0.37545 0.29671
 C597 C 0.61416 0.35571 0.31113
 C598 C 0.61445 0.31124 0.35644
 N599 N 0.62450 0.29775 0.37672
 C600 C 0.64642 0.30996 0.38468
 C601 C 0.69247 0.35312 0.38251
 N602 N 0.70562 0.37374 0.37277
 C603 C 0.69218 0.38311 0.35216
 H604 H 0.65878 0.39912 0.30231
 H605 H 0.59723 0.34437 0.30621
 H606 H 0.59747 0.30569 0.34545
 H607 H 0.65886 0.30357 0.40031
 H608 H 0.69841 0.34170 0.39907
 H609 H 0.69813 0.39926 0.34017
 C610 C 0.64885 0.87062 0.83283
 C611 C 0.66867 0.87034 0.85144
 C612 C 0.66964 0.85069 0.86966
 C613 C 0.65069 0.83124 0.86973
 C614 C 0.63105 0.83164 0.85152
 C615 C 0.63025 0.85132 0.83282
 C616 C 0.64404 0.88622 0.81171
 N617 N 0.62316 0.87667 0.79881
 C618 C 0.61458 0.85537 0.81166
 C619 C 0.61593 0.81009 0.85567
 N620 N 0.62597 0.79657 0.87591
 C621 C 0.64731 0.80935 0.88457
 C622 C 0.69160 0.85448 0.88428
 N623 N 0.70395 0.87598 0.87546
 C624 C 0.69002 0.88584 0.85539
 H625 H 0.65558 0.90260 0.80554
 H626 H 0.59840 0.84339 0.80578
 H627 H 0.59921 0.80433 0.84437
 H628 H 0.65947 0.80318 0.90052
 H629 H 0.69816 0.84236 0.90010
 H630 H 0.69544 0.90258 0.84398
 C631 C 0.14938 0.36987 0.83095
 C632 C 0.16767 0.37113 0.85103
 C633 C 0.16800 0.35229 0.87011
 C634 C 0.15015 0.33181 0.86923
 C635 C 0.13250 0.33033 0.84912
 C636 C 0.13221 0.34943 0.82981
 C637 C 0.14486 0.38520 0.80960
 N638 N 0.12551 0.37439 0.79518
 C639 C 0.11784 0.35234 0.80755
 C640 C 0.11837 0.30802 0.85257
 N641 N 0.12692 0.29593 0.87435
 C642 C 0.14639 0.31036 0.88466
 C643 C 0.18874 0.35750 0.88606
 N644 N 0.20117 0.37883 0.87692
 C645 C 0.18831 0.38735 0.85557
 H646 H 0.15575 0.40238 0.80456
 H647 H 0.10250 0.33949 0.80134
 H648 H 0.10291 0.30116 0.84016
 H649 H 0.15740 0.30536 0.90181
 H650 H 0.19512 0.34583 0.90228
 H651 H 0.19399 0.40373 0.84376
 C652 C 0.14981 0.86995 0.33181
 C653 C 0.16977 0.86928 0.35022
 C654 C 0.16985 0.85040 0.36920
 C655 C 0.14982 0.83210 0.37019
 C656 C 0.12981 0.83309 0.35236
 C657 C 0.12978 0.85226 0.33305
 C658 C 0.14599 0.88479 0.31006
 N659 N 0.12390 0.87682 0.29796
 C660 C 0.11377 0.85702 0.31224
 C661 C 0.11396 0.81217 0.35714
 N662 N 0.12400 0.79845 0.37728
 C663 C 0.14588 0.81061 0.38541
 C664 C 0.19197 0.85378 0.38369
 N665 N 0.20515 0.87445 0.37412
 C666 C 0.19173 0.88401 0.35358
 H667 H 0.15849 0.90039 0.30378
 H668 H 0.09686 0.84571 0.30717
 H669 H 0.09702 0.80669 0.34604
 H670 H 0.15832 0.80405 0.40098
 H671 H 0.19791 0.84220 0.40015
 H672 H 0.19772 0.90023 0.34171
 O673 O 0.97441 0.90621 0.87008
 O674 O 0.97416 0.87616 0.83967
 C675 C 0.96554 0.89732 0.84891
 C676 C 0.94465 0.91156 0.83528
 C677 C 0.93573 0.90324 0.81092
 H678 H 0.94440 0.88636 0.80194
 O679 O 1.02669 1.09420 0.87098
 O680 O 1.02696 1.12442 0.84076
 C681 C 1.03577 1.10336 0.85001
 C682 C 1.05701 1.08950 0.83653
 C683 C 1.06663 1.09856 0.81273
 H684 H 1.05854 1.11608 0.80454
 O685 O 0.87199 0.97564 0.90582
 O686 O 0.84166 0.97574 0.87571
 C687 C 0.85089 0.96680 0.89673
 C688 C 0.83735 0.94553 0.91048
 C689 C 0.81328 0.93638 0.90161
 H690 H 0.80445 0.94518 0.88472
 O691 O 1.12874 1.02451 0.90617
 O692 O 1.15915 1.02417 0.87614
 C693 C 1.14996 1.03315 0.89715
 C694 C 1.16365 1.05432 0.91087
 C695 C 1.18785 1.06313 0.90209
 H696 H 1.19718 1.05334 0.88604
 O697 O 0.90662 0.87111 0.97453
 O698 O 0.87620 0.84111 0.97451
 C699 C 0.89735 0.85007 0.96568
 C700 C 0.91091 0.83635 0.94441
 C701 C 0.90220 0.81205 0.93576
 H702 H 0.88629 0.80268 0.94571
 O703 O 1.09430 1.12871 0.97477
 O704 O 1.12477 1.15865 0.97490
 C705 C 1.10362 1.14974 0.96600
 C706 C 1.09001 1.16353 0.94481
 C707 C 1.09924 1.18741 0.93554
 H708 H 1.11624 1.19604 0.94430
 O709 O 0.90741 1.02634 0.87050
 O710 O 0.87721 1.02656 0.84026
 C711 C 0.89828 1.03534 0.84948
 C712 C 0.91214 1.05652 0.83594
 C713 C 0.90326 1.06579 0.81194
 H714 H 0.88595 1.05742 0.80359
 O715 O 1.09303 0.97406 0.87068
 O716 O 1.12334 0.97374 0.84054
 C717 C 1.10213 0.96513 0.84960
 C718 C 1.08826 0.94409 0.83587
 C719 C 1.09664 0.93563 0.81140
 H720 H 1.11253 0.94557 0.80196
 O721 O 1.02443 0.87010 0.90557
 O722 O 1.02434 0.83980 0.87540
 C723 C 1.03312 0.84890 0.89655
 C724 C 1.05399 0.83509 0.91064
 C725 C 1.06275 0.81067 0.90230
 H726 H 1.05398 0.80173 0.88546
 O727 O 0.97563 1.12941 0.90605
 O728 O 0.97577 1.15974 0.87595
 C729 C 0.96680 1.15050 0.89694
 C730 C 0.94539 1.16399 0.91056
 C731 C 0.93641 1.18816 0.90181
 H732 H 0.94622 1.19760 0.88585
 O733 O 0.87170 1.09388 0.97491
 O734 O 0.84144 1.12408 0.97494
 C735 C 0.85053 1.10292 0.96618
 C736 C 0.83691 1.08918 0.94495
 C737 C 0.81272 1.09795 0.93606
 H738 H 0.80318 1.11355 0.94632
 O739 O 1.12736 0.90493 0.97438
 O740 O 1.15759 0.87470 0.97439
 C741 C 1.14840 0.89573 0.96546
 C742 C 1.16205 0.90949 0.94426
 C743 C 1.18612 0.90058 0.93509
 H744 H 1.19448 0.88331 0.94354
 O745 O 0.97617 1.09391 0.87044
 O746 O 0.97636 1.12406 0.84016
 C747 C 0.96754 1.10293 0.84923
 C748 C 0.94640 1.08913 0.83551
 C749 C 0.93786 1.09751 0.81104
 H750 H 0.94826 1.11295 0.80142
 O751 O 1.02489 0.90569 0.87026
 O752 O 1.02480 0.87563 0.83985
 C753 C 1.03375 0.89662 0.84915
 C754 C 1.05498 0.91043 0.83568
 C755 C 1.06387 0.90200 0.81134
 H756 H 1.05495 0.88531 0.80227
 O757 O 1.12816 0.97399 0.90663
 O758 O 1.15861 0.97365 0.87664
 C759 C 1.14929 0.96501 0.89774
 C760 C 1.16270 0.94377 0.91164
 C761 C 1.18719 0.93523 0.90343
 H762 H 1.19695 0.94571 0.88813
 O763 O 0.87193 1.02630 0.90589
 O764 O 0.84161 1.02646 0.87577
 C765 C 0.85088 1.03529 0.89681
 C766 C 0.83737 1.05657 0.91063
 C767 C 0.81366 1.06625 0.90140
 H768 H 0.80546 1.05805 0.88393
 O769 O 0.90712 1.12940 0.97412
 O770 O 0.87699 1.15973 0.97410
 C771 C 0.89795 1.15041 0.96513
 C772 C 0.91157 1.16383 0.94371
 C773 C 0.90258 1.18779 0.93440
 H774 H 0.88558 1.19650 0.94308
 O775 O 1.09162 0.86974 0.97466
 O776 O 1.12171 0.83937 0.97473
 C777 C 1.10062 0.84855 0.96592
 C778 C 1.08681 0.83489 0.94478
 C779 C 1.09505 0.81033 0.93644
 H780 H 1.11072 0.80075 0.94659
 O781 O 1.09333 1.02462 0.87058
 O782 O 1.12362 1.02428 0.84043
 C783 C 1.10257 1.03332 0.84949
 C784 C 1.08917 1.05480 0.83593
 C785 C 1.09787 1.06350 0.81165
 H786 H 1.11323 1.05296 0.80202
 O787 O 0.90734 0.97575 0.87013
 O788 O 0.87716 0.97596 0.83986
 C789 C 0.89824 0.96704 0.84896
 C790 C 0.91192 0.94582 0.83524
 C791 C 0.90349 0.93745 0.81075
 H792 H 0.88777 0.94759 0.80124
 O793 O 1.02617 1.12948 0.90659
 O794 O 1.02639 1.15985 0.87652
 C795 C 1.03508 1.15059 0.89763
 C796 C 1.05636 1.16399 0.91148
 C797 C 1.06568 1.18796 0.90265
 H798 H 1.05621 1.19741 0.88648
 O799 O 0.97399 0.87069 0.90548
 O800 O 0.97373 0.84040 0.87530
 C801 C 0.96499 0.84966 0.89640
 C802 C 0.94382 0.83622 0.91035
 C803 C 0.93465 0.81205 0.90178
 H804 H 0.94333 0.80307 0.88491
 O805 O 1.12931 1.09283 0.97444
 O806 O 1.15992 1.12264 0.97458
 C807 C 1.15046 1.10176 0.96557
 C808 C 1.16381 1.08800 0.94418
 C809 C 1.18781 1.09681 0.93486
 H810 H 1.19667 1.11371 0.94360
 O811 O 0.87178 0.90731 0.97442
 O812 O 0.84124 0.87744 0.97436
 C813 C 0.85062 0.89843 0.96552
 C814 C 0.83719 0.91226 0.94422
 C815 C 0.81301 0.90361 0.93526
 H816 H 0.80355 0.88760 0.94497
 Cu817 Cu 0.99945 0.89118 0.89087
 Cu818 Cu 0.99923 0.85496 0.85449
 Cu819 Cu 1.00112 1.10873 0.89153
 Cu820 Cu 1.00136 1.14507 0.85533
 Cu821 Cu 0.89268 1.00097 0.89111
 Cu822 Cu 0.85636 1.00117 0.85488
 Cu823 Cu 1.10776 0.99933 0.89151
 Cu824 Cu 1.14423 0.99889 0.85542
 C825 C 0.93272 0.93296 0.84718
 H826 H 0.93915 0.93918 0.86618
 C827 C 0.91518 0.91610 0.79843
 C828 C 1.06842 1.06763 0.84795
 H829 H 1.06160 1.06098 0.86666
 C830 C 1.08694 1.08558 0.79986
 C831 C 0.84906 0.93342 0.93190
 H832 H 0.86783 0.94003 0.93855
 C833 C 0.80092 0.91542 0.91387
 C834 C 1.15196 1.06667 0.93213
 H835 H 1.13321 1.06010 0.93888
 C836 C 1.20008 1.08446 0.91386
 C837 C 0.93192 0.84810 0.93177
 H838 H 0.93858 0.86695 0.93820
 C839 C 0.91387 0.79975 0.91440
 C840 C 1.06845 1.15210 0.93276
 H841 H 1.06154 1.13346 0.93948
 C842 C 1.08721 1.19980 0.91445
 C843 C 0.93372 1.06831 0.84754
 H844 H 0.94020 1.06175 0.86640
 C845 C 0.91608 1.08616 0.79907
 C846 C 1.06722 0.93157 0.84769
 H847 H 1.06080 0.93788 0.86667
 C848 C 1.08469 0.91451 0.79898
 C849 C 1.06605 0.84693 0.93199
 H850 H 1.05976 0.86598 0.93821
 C851 C 1.08328 0.79807 0.91511
 C852 C 0.93305 1.15216 0.93173
 H853 H 0.93977 1.13345 0.93848
 C854 C 0.91491 1.20021 0.91349
 C855 C 0.84882 1.06816 0.93242
 H856 H 0.86748 1.06131 0.93917
 C857 C 0.80094 1.08686 0.91405
 C858 C 1.15051 0.93108 0.93237
 H859 H 1.13163 0.93761 0.93881
 C860 C 1.19905 0.91340 0.91474
 O861 O 1.02521 0.90577 1.12998
 O862 O 1.02501 0.87564 1.16029
 C863 C 1.03403 0.89660 1.15106
 C864 C 1.05523 0.91037 1.16464
 C865 C 1.06442 0.90165 1.18875
 H866 H 1.05596 0.88446 1.19726
 O867 O 0.97529 1.09402 1.12919
 O868 O 0.97531 1.12419 1.15948
 C869 C 0.96645 1.10312 1.15029
 C870 C 0.94525 1.08931 1.16386
 C871 C 0.93611 1.09807 1.18798
 H872 H 0.94490 1.11492 1.19690
 O873 O 0.87168 1.02584 1.09369
 O874 O 0.84129 1.02607 1.12373
 C875 C 0.85062 1.03487 1.10271
 C876 C 0.83728 1.05630 1.08899
 C877 C 0.81317 1.06545 1.09772
 H878 H 0.80369 1.05586 1.11379
 O879 O 1.12762 0.97382 1.09396
 O880 O 1.15807 0.97356 1.12394
 C881 C 1.14867 0.96474 1.10293
 C882 C 1.16204 0.94341 1.08900
 C883 C 1.18621 0.93426 1.09759
 H884 H 1.19513 0.94301 1.11445
 O885 O 1.09185 0.86973 1.02517
 O886 O 1.12198 0.83940 1.02524
 C887 C 1.10088 0.84860 1.03402
 C888 C 1.08714 0.83506 1.05529
 C889 C 1.09557 0.81066 1.06391
 H890 H 1.11104 0.80100 1.05354
 O891 O 0.90782 1.12986 1.02473
 O892 O 0.87774 1.16024 1.02471
 C893 C 0.89888 1.15110 1.03344
 C894 C 0.91273 1.16477 1.05457
 C895 C 0.90425 1.18917 1.06318
 H896 H 0.88876 1.19877 1.05281
 O897 O 0.90654 0.97491 1.12938
 O898 O 0.87628 0.97515 1.15957
 C899 C 0.89729 0.96610 1.15044
 C900 C 0.91092 0.94484 1.16412
 C901 C 0.90191 0.93572 1.18815
 H902 H 0.88467 0.94428 1.19647
 O903 O 1.09284 1.02484 1.12963
 O904 O 1.12316 1.02467 1.15976
 C905 C 1.10210 1.03366 1.15067
 C906 C 1.08868 1.05517 1.16417
 C907 C 1.09762 1.06416 1.18826
 H908 H 1.11328 1.05395 1.19776
 O909 O 0.97423 0.87110 1.09446
 O910 O 0.97385 0.84078 1.12456
 C911 C 0.96513 0.85010 1.10348
 C912 C 0.94389 0.83673 1.08952
 C913 C 0.93462 0.81262 1.09813
 H914 H 0.94326 0.80367 1.11503
 O915 O 1.02584 1.12924 1.09357
 O916 O 1.02595 1.15966 1.12362
 C917 C 1.03482 1.15029 1.10262
 C918 C 1.05625 1.16357 1.08889
 C919 C 1.06563 1.18754 1.09775
 H920 H 1.05680 1.19657 1.11453
 O921 O 0.87134 0.90708 1.02502
 O922 O 0.84083 0.87718 1.02495
 C923 C 0.85015 0.89817 1.03382
 C924 C 0.83666 0.91193 1.05513
 C925 C 0.81266 0.90301 1.06433
 H926 H 0.80329 0.88688 1.05471
 O927 O 1.12931 1.09231 1.02505
 O928 O 1.15992 1.12209 1.02522
 C929 C 1.15053 1.10105 1.03391
 C930 C 1.16392 1.08711 1.05517
 C931 C 1.18821 1.09556 1.06407
 H932 H 1.19790 1.11108 1.05386
 O933 O 1.02585 1.09415 1.12928
 O934 O 1.02599 1.12440 1.15950
 C935 C 1.03484 1.10333 1.15029
 C936 C 1.05614 1.08956 1.16377
 C937 C 1.06589 1.09880 1.18747
 H938 H 1.05768 1.11623 1.19578
 O939 O 0.97479 0.90669 1.12994
 O940 O 0.97446 0.87659 1.16027
 C941 C 0.96593 0.89782 1.15112
 C942 C 0.94490 0.91190 1.16470
 C943 C 0.93628 0.90371 1.18917
 H944 H 0.94659 0.88825 1.19887
 O945 O 1.12832 1.02453 1.09417
 O946 O 1.15875 1.02430 1.12417
 C947 C 1.14950 1.03327 1.10319
 C948 C 1.16320 1.05441 1.08938
 C949 C 1.18707 1.06376 1.09858
 H950 H 1.19530 1.05539 1.11595
 O951 O 0.87148 0.97522 1.09357
 O952 O 0.84110 0.97540 1.12363
 C953 C 0.85035 0.96644 1.10262
 C954 C 0.83682 0.94516 1.08889
 C955 C 0.81300 0.93572 1.09806
 H956 H 0.80435 0.94435 1.11513
 O957 O 1.09425 1.12838 1.02533
 O958 O 1.12472 1.15831 1.02551
 C959 C 1.10352 1.14936 1.03426
 C960 C 1.08983 1.16309 1.05547
 C961 C 1.09877 1.18719 1.06444
 H962 H 1.11503 1.19637 1.05488
 O963 O 0.90676 0.87146 1.02518
 O964 O 0.87636 0.84145 1.02512
 C965 C 0.89747 0.85047 1.03404
 C966 C 0.91097 0.83683 1.05543
 C967 C 0.90217 0.81261 1.06415
 H968 H 0.88623 0.80324 1.05422
 O969 O 1.09260 0.97438 1.13001
 O970 O 1.12291 0.97420 1.16014
 C971 C 1.10168 0.96560 1.15115
 C972 C 1.08784 0.94458 1.16491
 C973 C 1.09614 0.93625 1.18944
 H974 H 1.11152 0.94677 1.19904
 O975 O 0.90724 1.02549 1.12916
 O976 O 0.87699 1.02576 1.15935
 C977 C 0.89817 1.03441 1.15024
 C978 C 0.91200 1.05558 1.16386
 C979 C 0.90335 1.06442 1.18811
 H980 H 0.88734 1.05467 1.19751
 O981 O 0.97527 1.12960 1.09381
 O982 O 0.97525 1.15996 1.12391
 C983 C 0.96640 1.15073 1.10285
 C984 C 0.94529 1.16436 1.08893
 C985 C 0.93595 1.18837 1.09782
 H986 H 0.94429 1.19680 1.11512
 O987 O 1.02478 0.87047 1.09444
 O988 O 1.02456 0.84015 1.12455
 C989 C 1.03349 0.84930 1.10350
 C990 C 1.05455 0.83557 1.08961
 C991 C 1.06383 0.81156 1.09852
 H992 H 1.05544 0.80317 1.11581
 O993 O 1.12719 0.90548 1.02507
 O994 O 1.15746 0.87530 1.02510
 C995 C 1.14831 0.89642 1.03391
 C996 C 1.16196 0.91023 1.05512
 C997 C 1.18633 0.90167 1.06372
 H998 H 1.19576 0.88578 1.05375
 O999 O 0.87217 1.09449 1.02548
 O1000 O 0.84195 1.12473 1.02552
 C1001 C 0.85116 1.10370 1.03444
 C1002 C 0.83762 1.09005 1.05576
 C1003 C 0.81361 1.09906 1.06492
 H1004 H 0.80484 1.11599 1.05612
 Cu1005 Cu 0.99977 0.89151 1.10918
 Cu1006 Cu 0.99939 0.85523 1.14544
 Cu1007 Cu 1.00052 1.10873 1.10845
 Cu1008 Cu 1.00060 1.14510 1.14466
 Cu1009 Cu 0.89218 0.89222 0.99979
 Cu1010 Cu 0.85560 0.85630 0.99972
 Cu1011 Cu 1.10651 0.89051 0.99982
 Cu1012 Cu 1.14273 0.85418 0.99989
 Cu1013 Cu 0.89272 1.10889 0.99982
 Cu1014 Cu 0.85650 1.14524 0.99984
 Cu1015 Cu 1.10874 1.10757 0.99989
 Cu1016 Cu 1.14541 1.14341 1.00012
 Cu1017 Cu 0.89226 1.00034 1.10843
 Cu1018 Cu 0.85586 1.00065 1.14458
 Cu1019 Cu 1.10733 0.99940 1.10891
 Cu1020 Cu 1.14381 0.99913 1.14499
 C1021 C 1.06708 0.93184 1.15291
 H1022 H 1.06060 0.93821 1.13398
 C1023 C 1.08482 0.91454 1.20152
 C1024 C 0.93316 1.06794 1.15206
 H1025 H 0.93976 1.06139 1.13323
 C1026 C 0.91517 1.08574 1.20030
 C1027 C 0.84920 1.06855 1.06781
 H1028 H 0.86792 1.06177 1.06114
 C1029 C 0.80120 1.08689 1.08589
 C1030 C 1.15014 0.93133 1.06767
 H1031 H 1.13127 0.93792 1.06126
 C1032 C 1.19862 0.91345 1.08503
 C1033 C 1.06634 0.84712 1.06798
 H1034 H 1.05977 0.86596 1.06144
 C1035 C 1.08430 0.79876 1.08575
 C1036 C 0.93356 1.15276 1.06728
 H1037 H 0.94015 1.13391 1.06077
 C1038 C 0.91547 1.20110 1.08503
 C1039 C 0.93241 0.93279 1.15258
 H1040 H 0.93898 0.93921 1.13371
 C1041 C 0.91453 0.91521 1.20105
 C1042 C 1.06766 1.06772 1.15232
 H1043 H 1.06071 1.06090 1.13372
 C1044 C 1.08656 1.08616 1.20006
 C1045 C 0.93203 0.84858 1.06805
 H1046 H 0.93876 0.86737 1.06158
 C1047 C 0.91379 0.80034 1.08555
 C1048 C 1.06838 1.15160 1.06763
 H1049 H 1.06155 1.13289 1.06099
 C1050 C 1.08686 1.19956 1.08563
 C1051 C 0.84841 0.93323 1.06733
 H1052 H 0.86703 0.94005 1.06048
 C1053 C 0.80071 0.91465 1.08590
 C1054 C 1.15180 1.06622 1.06767
 H1055 H 1.13305 1.05963 1.06094
 C1056 C 1.19990 1.08430 1.08602
 O1057 O 1.09407 0.52418 0.62856
 O1058 O 1.12428 0.52411 0.65877
 C1059 C 1.10321 0.53302 0.64965
 C1060 C 1.08958 0.55437 0.66326
 C1061 C 1.09842 0.56331 0.68742
 H1062 H 1.11451 0.55361 0.69677
 O1063 O 0.90750 0.47516 0.62960
 O1064 O 0.87733 0.47539 0.65988
 C1065 C 0.89844 0.46653 0.65080
 C1066 C 0.91213 0.44536 0.66452
 C1067 C 0.90374 0.43704 0.68902
 H1068 H 0.88849 0.44773 0.69865
 O1069 O 1.02607 0.62914 0.59385
 O1070 O 1.02633 0.65942 0.62404
 C1071 C 1.03502 0.65021 0.60290
 C1072 C 1.05612 0.66375 0.58894
 C1073 C 1.06517 0.68796 0.59750
 H1074 H 1.05641 0.69693 0.61434
 O1075 O 0.97397 0.37056 0.59367
 O1076 O 0.97391 0.34023 0.62378
 C1077 C 0.96501 0.34953 0.60277
 C1078 C 0.94367 0.33615 0.58902
 C1079 C 0.93427 0.31217 0.59783
 H1080 H 0.94292 0.30330 0.61476
 O1081 O 1.12884 0.59330 0.52500
 O1082 O 1.15937 0.62317 0.52490
 C1083 C 1.14999 0.60225 0.53387
 C1084 C 1.16350 0.58841 0.55514
 C1085 C 1.18743 0.59739 0.56456
 H1086 H 1.19576 0.61471 0.55621
 O1087 O 0.87127 0.40691 0.52502
 O1088 O 0.84064 0.37714 0.52501
 C1089 C 0.85011 0.39806 0.53391
 C1090 C 0.83685 0.41175 0.55541
 C1091 C 0.81290 0.40285 0.56474
 H1092 H 0.80338 0.38684 0.55507
 O1093 O 0.97563 0.59384 0.62953
 O1094 O 0.97583 0.62390 0.65994
 C1095 C 0.96687 0.60291 0.65069
 C1096 C 0.94565 0.58914 0.66425
 C1097 C 0.93664 0.59774 0.68849
 H1098 H 0.94553 0.61447 0.69751
 O1099 O 1.02480 0.40592 0.62882
 O1100 O 1.02488 0.37577 0.65910
 C1101 C 1.03372 0.39684 0.64989
 C1102 C 1.05514 0.41051 0.66331
 C1103 C 1.06401 0.40194 0.68757
 H1104 H 1.05377 0.38641 0.69723
 O1105 O 1.12961 0.47365 0.59296
 O1106 O 1.16002 0.47360 0.62300
 C1107 C 1.15078 0.46482 0.60193
 C1108 C 1.16441 0.44379 0.58792
 C1109 C 1.18885 0.43505 0.59617
 H1110 H 1.19788 0.44398 0.61288
 O1111 O 0.87202 0.52546 0.59370
 O1112 O 0.84169 0.52561 0.62381
 C1113 C 0.85089 0.53434 0.60270
 C1114 C 0.83733 0.55555 0.58887
 C1115 C 0.81318 0.56455 0.59761
 H1116 H 0.80379 0.55490 0.61370
 O1117 O 0.90769 0.62917 0.52534
 O1118 O 0.87746 0.65940 0.52543
 C1119 C 0.89857 0.65025 0.53423
 C1120 C 0.91229 0.66381 0.55550
 C1121 C 0.90360 0.68802 0.56441
 H1122 H 0.88757 0.69744 0.55467
 O1123 O 1.09340 0.37041 0.52550
 O1124 O 1.12355 0.34011 0.52550
 C1125 C 1.10257 0.34941 0.53448
 C1126 C 1.08878 0.33591 0.55579
 C1127 C 1.09755 0.31182 0.56500
 H1128 H 1.11482 0.30341 0.55658
 O1129 O 0.90750 0.52562 0.62928
 O1130 O 0.87729 0.52581 0.65952
 C1131 C 0.89843 0.53451 0.65038
 C1132 C 0.91228 0.55558 0.66407
 C1133 C 0.90378 0.56419 0.68844
 H1134 H 0.88782 0.55435 0.69783
 O1135 O 1.09392 0.47348 0.62818
 O1136 O 1.12418 0.47335 0.65835
 C1137 C 1.10312 0.46447 0.64916
 C1138 C 1.08939 0.44318 0.66271
 C1139 C 1.09854 0.43373 0.68655
 H1140 H 1.11589 0.44208 0.69483
 O1141 O 1.02450 0.37032 0.59330
 O1142 O 1.02453 0.33997 0.62338
 C1143 C 1.03327 0.34913 0.60225
 C1144 C 1.05444 0.33550 0.58838
 C1145 C 1.06282 0.31095 0.59660
 H1146 H 1.05225 0.30127 0.61189
 O1147 O 0.97557 0.62905 0.59385
 O1148 O 0.97570 0.65930 0.62407
 C1149 C 0.96676 0.65014 0.60301
 C1150 C 0.94552 0.66373 0.58926
 C1151 C 0.93636 0.68782 0.59810
 H1152 H 0.94514 0.69669 0.61498
 O1153 O 0.87203 0.59384 0.52534
 O1154 O 0.84168 0.62394 0.52538
 C1155 C 0.85093 0.60291 0.53424
 C1156 C 0.83740 0.58917 0.55552
 C1157 C 0.81339 0.59812 0.56476
 H1158 H 0.80458 0.61502 0.55598
 O1159 O 1.12916 0.40559 0.52473
 O1160 O 1.15948 0.37544 0.52455
 C1161 C 1.15042 0.39661 0.53330
 C1162 C 1.16430 0.41058 0.55417
 C1163 C 1.18890 0.40236 0.56239
 H1164 H 1.19838 0.38656 0.55232
 O1165 O 0.97426 0.40580 0.62931
 O1166 O 0.97423 0.37565 0.65959
 C1167 C 0.96542 0.39674 0.65043
 C1168 C 0.94439 0.41075 0.66411
 C1169 C 0.93505 0.40202 0.68817
 H1170 H 0.94328 0.38465 0.69655
 O1171 O 1.02617 0.59322 0.62885
 O1172 O 1.02649 0.62330 0.65923
 C1173 C 1.03520 0.60221 0.64990
 C1174 C 1.05643 0.58827 0.66331
 C1175 C 1.06571 0.59705 0.68735
 H1176 H 1.05700 0.61396 0.69626
 O1177 O 0.87208 0.47483 0.59400
 O1178 O 0.84181 0.47496 0.62416
 C1179 C 0.85102 0.46599 0.60314
 C1180 C 0.83742 0.44472 0.58945
 C1181 C 0.81363 0.43529 0.59872
 H1182 H 0.80511 0.44384 0.61590
 O1183 O 1.12922 0.52414 0.59263
 O1184 O 1.15960 0.52412 0.62269
 C1185 C 1.15038 0.53293 0.60161
 C1186 C 1.16393 0.55418 0.58782
 C1187 C 1.18830 0.56281 0.59630
 H1188 H 1.19791 0.55243 0.61177
 O1189 O 0.90634 0.37101 0.52507
 O1190 O 0.87582 0.34111 0.52511
 C1191 C 0.89700 0.35004 0.53393
 C1192 C 0.91055 0.33634 0.55519
 C1193 C 0.90167 0.31219 0.56399
 H1194 H 0.88567 0.30288 0.55412
 O1195 O 1.09354 0.62895 0.52497
 O1196 O 1.12393 0.65898 0.52489
 C1197 C 1.10279 0.64999 0.53377
 C1198 C 1.08917 0.66369 0.55502
 C1199 C 1.09777 0.68802 0.56366
 H1200 H 1.11369 0.69743 0.55376
 Cu1201 Cu 1.10866 0.49887 0.60759
 Cu1202 Cu 1.14503 0.49882 0.64376
 Cu1203 Cu 0.89279 0.50025 0.60860
 Cu1204 Cu 0.85646 0.50047 0.64485
 Cu1205 Cu 1.00083 0.60830 0.60850
 Cu1206 Cu 1.00113 0.64451 0.64488
 Cu1207 Cu 0.99938 0.39117 0.60827
 Cu1208 Cu 0.99945 0.35486 0.64449
 C1209 C 1.06838 0.56680 0.65152
 H1210 H 1.06163 0.56021 0.63276
 C1211 C 1.08666 0.58469 0.69962
 C1212 C 0.93277 0.43242 0.65248
 H1213 H 0.93933 0.43879 0.63358
 C1214 C 0.91477 0.41512 0.70100
 C1215 C 1.06813 0.65189 0.56758
 H1216 H 1.06156 0.63301 0.56117
 C1217 C 1.08596 0.70032 0.58495
 C1218 C 0.93175 0.34799 0.56760
 H1219 H 0.93855 0.36672 0.56102
 C1220 C 0.91331 0.29994 0.58539
 C1221 C 1.15193 0.56681 0.56693
 H1222 H 1.13314 0.56023 0.56028
 C1223 C 1.20021 0.58466 0.58506
 C1224 C 0.84879 0.43290 0.56770
 H1225 H 0.86738 0.43972 0.56075
 C1226 C 0.80117 0.41436 0.58650
 C1227 C 0.93342 0.56796 0.65229
 H1228 H 0.93992 0.56153 0.63338
 C1229 C 0.91570 0.58536 0.70079
 C1230 C 1.06768 0.43143 0.65126
 H1231 H 1.06094 0.43814 0.63255
 C1232 C 1.08591 0.41320 0.69936
 C1233 C 1.15240 0.43152 0.56681
 H1234 H 1.13333 0.43781 0.56068
 C1235 C 1.20134 0.41438 0.58348
 C1236 C 0.84912 0.56777 0.56761
 H1237 H 0.86787 0.56109 0.56093
 C1238 C 0.80106 0.58592 0.58579
 C1239 C 0.93346 0.65199 0.56785
 H1240 H 0.94010 0.63320 0.56123
 C1241 C 0.91540 0.70016 0.58578
 C1242 C 1.06723 0.34758 0.56765
 H1243 H 1.06081 0.36649 0.56117
 C1244 C 1.08462 0.29893 0.58531
 O1245 O 1.09185 0.47403 0.37025
 O1246 O 1.12194 0.47397 0.33988
 C1247 C 1.10085 0.46521 0.34908
 C1248 C 1.08709 0.44402 0.33548
 C1249 C 1.09537 0.43568 0.31095
 H1250 H 1.11094 0.44592 0.30133
 O1251 O 0.90784 0.52546 0.37011
 O1252 O 0.87764 0.52559 0.33986
 C1253 C 0.89874 0.53435 0.34902
 C1254 C 0.91247 0.55555 0.33543
 C1255 C 0.90395 0.56417 0.31107
 H1256 H 0.88810 0.55422 0.30158
 O1257 O 0.97504 0.62966 0.40597
 O1258 O 0.97498 0.65999 0.37587
 C1259 C 0.96610 0.65071 0.39688
 C1260 C 0.94476 0.66412 0.41065
 C1261 C 0.93512 0.68790 0.40156
 H1262 H 0.94361 0.69662 0.38447
 O1263 O 1.02460 0.36956 0.40661
 O1264 O 1.02461 0.33908 0.37663
 C1265 C 1.03332 0.34831 0.39775
 C1266 C 1.05424 0.33460 0.41188
 C1267 C 1.06245 0.30990 0.40393
 H1268 H 1.05242 0.30029 0.38820
 O1269 O 1.12823 0.40555 0.47427
 O1270 O 1.15848 0.37535 0.47404
 C1271 C 1.14923 0.39643 0.46524
 C1272 C 1.16254 0.41007 0.44376
 C1273 C 1.18668 0.40136 0.43468
 H1274 H 1.19631 0.38575 0.44484
 O1275 O 0.87238 0.59363 0.47465
 O1276 O 0.84201 0.62371 0.47467
 C1277 C 0.85132 0.60272 0.46571
 C1278 C 0.83793 0.58907 0.44426
 C1279 C 0.81406 0.59819 0.43486
 H1280 H 0.80526 0.61511 0.44366
 O1281 O 1.02570 0.59434 0.37064
 O1282 O 1.02588 0.62450 0.34037
 C1283 C 1.03462 0.60339 0.34957
 C1284 C 1.05558 0.58929 0.33592
 C1285 C 1.06461 0.59779 0.31168
 H1286 H 1.05625 0.61505 0.30318
 O1287 O 0.97438 0.40500 0.37070
 O1288 O 0.97425 0.37475 0.34047
 C1289 C 0.96554 0.39593 0.34958
 C1290 C 0.94468 0.41009 0.33581
 C1291 C 0.93557 0.40148 0.31161
 H1292 H 0.94382 0.38414 0.30317
 O1293 O 1.12778 0.52421 0.40597
 O1294 O 1.15801 0.52408 0.37577
 C1295 C 1.14893 0.53292 0.39691
 C1296 C 1.16269 0.55406 0.41072
 C1297 C 1.18702 0.56268 0.40207
 H1298 H 1.19637 0.55274 0.38611
 O1299 O 0.87238 0.47471 0.40539
 O1300 O 0.84212 0.47483 0.37521
 C1301 C 0.85131 0.46586 0.39622
 C1302 C 0.83771 0.44457 0.40987
 C1303 C 0.81396 0.43508 0.40053
 H1304 H 0.80545 0.44361 0.38335
 O1305 O 1.09351 0.62914 0.47449
 O1306 O 1.12393 0.65914 0.47439
 C1307 C 1.10270 0.65021 0.46569
 C1308 C 1.08888 0.66408 0.44469
 C1309 C 1.09737 0.68850 0.43625
 H1310 H 1.11337 0.69783 0.44611
 O1311 O 0.90634 0.37069 0.47458
 O1312 O 0.87586 0.34075 0.47465
 C1313 C 0.89708 0.34960 0.46588
 C1314 C 0.91082 0.33562 0.44489
 C1315 C 0.90235 0.31112 0.43662
 H1316 H 0.88645 0.30181 0.44666
 O1317 O 0.90802 0.47492 0.37001
 O1318 O 0.87788 0.47509 0.33970
 C1319 C 0.89896 0.46621 0.34883
 C1320 C 0.91261 0.44491 0.33521
 C1321 C 0.90437 0.43661 0.31064
 H1322 H 0.88919 0.44731 0.30090
 O1323 O 1.09237 0.52456 0.37018
 O1324 O 1.12249 0.52443 0.33986
 C1325 C 1.10144 0.53333 0.34903
 C1326 C 1.08779 0.55462 0.33542
 C1327 C 1.09594 0.56280 0.31078
 H1328 H 1.11111 0.55208 0.30104
 O1329 O 0.97414 0.36960 0.40614
 O1330 O 0.97401 0.33912 0.37615
 C1331 C 0.96520 0.34850 0.39716
 C1332 C 0.94400 0.33513 0.41113
 C1333 C 0.93505 0.31077 0.40288
 H1334 H 0.94392 0.30159 0.38621
 O1335 O 1.02555 0.62983 0.40606
 O1336 O 1.02565 0.66022 0.37602
 C1337 C 1.03441 0.65096 0.39709
 C1338 C 1.05554 0.66444 0.41106
 C1339 C 1.06448 0.68874 0.40269
 H1340 H 1.05557 0.69786 0.38601
 O1341 O 0.87149 0.40687 0.47433
 O1342 O 0.84089 0.37706 0.47431
 C1343 C 0.85036 0.39796 0.46539
 C1344 C 0.83715 0.41160 0.44385
 C1345 C 0.81324 0.40265 0.43448
 H1346 H 0.80373 0.38664 0.44414
 O1347 O 1.12845 0.59301 0.47426
 O1348 O 1.15901 0.62284 0.47410
 C1349 C 1.14956 0.60187 0.46526
 C1350 C 1.16290 0.58791 0.44394
 C1351 C 1.18702 0.59650 0.43470
 H1352 H 1.19594 0.61338 0.44342
 O1353 O 1.02481 0.40466 0.37065
 O1354 O 1.02487 0.37443 0.34042
 C1355 C 1.03363 0.39558 0.34953
 C1356 C 1.05452 0.40967 0.33577
 C1357 C 1.06334 0.40133 0.31136
 H1358 H 1.05467 0.38443 0.30242
 O1359 O 0.97526 0.59441 0.37033
 O1360 O 0.97529 0.62453 0.34002
 C1361 C 0.96648 0.60344 0.34918
 C1362 C 0.94545 0.58949 0.33553
 C1363 C 0.93643 0.59808 0.31130
 H1364 H 0.94516 0.61495 0.30240
 O1365 O 0.87256 0.52536 0.40589
 O1366 O 0.84225 0.52551 0.37576
 C1367 C 0.85147 0.53428 0.39687
 C1368 C 0.83795 0.55557 0.41070
 C1369 C 0.81394 0.56480 0.40179
 H1370 H 0.80463 0.55533 0.38553
 O1371 O 1.12753 0.47348 0.40543
 O1372 O 1.15771 0.47337 0.37518
 C1373 C 1.14846 0.46440 0.39615
 C1374 C 1.16190 0.44289 0.40967
 C1375 C 1.18556 0.43325 0.40025
 H1376 H 1.19371 0.44158 0.38282
 O1377 O 1.09308 0.36972 0.47485
 O1378 O 1.12315 0.33934 0.47478
 C1379 C 1.10201 0.34850 0.46608
 C1380 C 1.08792 0.33472 0.44518
 C1381 C 1.09611 0.31015 0.43671
 H1382 H 1.11276 0.30111 0.44576
 O1383 O 0.90744 0.62947 0.47479
 O1384 O 0.87717 0.65967 0.47487
 C1385 C 0.89825 0.65055 0.46597
 C1386 C 0.91176 0.66412 0.44461
 C1387 C 0.90263 0.68808 0.43548
 H1388 H 0.88652 0.69738 0.44521
 Cu1389 Cu 1.10689 0.49913 0.39101
 Cu1390 Cu 1.14309 0.49899 0.35467
 Cu1391 Cu 0.89321 0.50010 0.39088
 Cu1392 Cu 0.85692 0.50028 0.35463
 Cu1393 Cu 1.10807 0.60808 0.49967
 Cu1394 Cu 1.14466 0.64400 0.49954
 Cu1395 Cu 1.10793 0.39082 0.49986
 Cu1396 Cu 1.14418 0.35450 0.49969
 Cu1397 Cu 0.89290 0.60850 0.50004
 Cu1398 Cu 0.85652 0.64469 0.50011
 Cu1399 Cu 0.89190 0.39188 0.49973
 Cu1400 Cu 0.85518 0.35606 0.49976
 Cu1401 Cu 1.00039 0.60905 0.39128
 Cu1402 Cu 1.00047 0.64538 0.35504
 Cu1403 Cu 0.99951 0.39023 0.39153
 Cu1404 Cu 0.99948 0.35378 0.35539
 C1405 C 1.06645 0.43112 0.34757
 H1406 H 1.06012 0.43735 0.36661
 C1407 C 1.08377 0.41424 0.29875
 C1408 C 0.93343 0.56812 0.34733
 H1409 H 0.93994 0.56171 0.36623
 C1410 C 0.91568 0.58552 0.29887
 C1411 C 0.93304 0.65247 0.43227
 H1412 H 0.94002 0.63387 0.43907
 C1413 C 0.91407 0.70010 0.41387
 C1414 C 1.06688 0.34669 0.43274
 H1415 H 1.06079 0.36585 0.43882
 C1416 C 1.08347 0.29751 0.41611
 C1417 C 1.15055 0.43115 0.43142
 H1418 H 1.13195 0.43800 0.43834
 C1419 C 1.19835 0.41258 0.41270
 C1420 C 0.84963 0.56765 0.43214
 H1421 H 0.86827 0.56082 0.43896
 C1422 C 0.80185 0.58618 0.41365
 C1423 C 1.06730 0.56770 0.34760
 H1424 H 1.06092 0.56146 0.36661
 C1425 C 1.08471 0.58459 0.29874
 C1426 C 0.93308 0.43181 0.34740
 H1427 H 0.93950 0.43812 0.36637
 C1428 C 0.91545 0.41468 0.29868
 C1429 C 1.15097 0.56659 0.43189
 H1430 H 1.13213 0.56018 0.43854
 C1431 C 1.19935 0.58398 0.41382
 C1432 C 0.84908 0.43277 0.43162
 H1433 H 0.86764 0.43962 0.43860
 C1434 C 0.80152 0.41412 0.41272
 C1435 C 1.06775 0.65237 0.43219
 H1436 H 1.06128 0.63342 0.43845
 C1437 C 1.08538 0.70099 0.41518
 C1438 C 0.93185 0.34729 0.43224
 H1439 H 0.93833 0.36629 0.43839
 C1440 C 0.91426 0.29852 0.41556
 O1441 O 0.47388 0.90586 0.37042
 O1442 O 0.47359 0.87569 0.34012
 C1443 C 0.46488 0.89682 0.34936
 C1444 C 0.44378 0.91089 0.33585
 C1445 C 0.43414 0.90198 0.31199
 H1446 H 0.44219 0.88449 0.30367
 O1447 O 0.52596 1.09460 0.37083
 O1448 O 0.52608 1.12492 0.34072
 C1449 C 0.53495 1.10385 0.34986
 C1450 C 0.55621 1.09011 0.33631
 C1451 C 0.56605 1.09951 0.31274
 H1452 H 0.55803 1.11713 0.30467
 O1453 O 0.37198 0.97520 0.40613
 O1454 O 0.34160 0.97530 0.37608
 C1455 C 0.35093 0.96630 0.39703
 C1456 C 0.33750 0.94490 0.41068
 C1457 C 0.31368 0.93543 0.40151
 H1458 H 0.30501 0.94404 0.38445
 O1459 O 0.62757 1.02457 0.40587
 O1460 O 0.65794 1.02435 0.37581
 C1461 C 0.64879 1.03322 0.39690
 C1462 C 0.66256 1.05429 0.41078
 C1463 C 0.68681 1.06301 0.40206
 H1464 H 0.69609 1.05329 0.38592
 O1465 O 0.40666 0.87091 0.47511
 O1466 O 0.37619 0.84097 0.47523
 C1467 C 0.39737 0.84984 0.46638
 C1468 C 0.41086 0.83603 0.44512
 C1469 C 0.40211 0.81170 0.43660
 H1470 H 0.38667 0.80225 0.44716
 O1471 O 0.59372 1.12896 0.47503
 O1472 O 0.62420 1.15890 0.47494
 C1473 C 0.60295 1.15002 0.46624
 C1474 C 0.58913 1.16389 0.44523
 C1475 C 0.59769 1.18827 0.43670
 H1476 H 0.61375 1.19757 0.44650
 O1477 O 0.40709 1.02615 0.37086
 O1478 O 0.37682 1.02635 0.34069
 C1479 C 0.39794 1.03510 0.34983
 C1480 C 0.41183 1.05618 0.33617
 C1481 C 0.40341 1.06485 0.31178
 H1482 H 0.38669 1.05588 0.30283
 O1483 O 0.59169 0.97444 0.37003
 O1484 O 0.62191 0.97426 0.33981
 C1485 C 0.60073 0.96561 0.34889
 C1486 C 0.58692 0.94445 0.33523
 C1487 C 0.59526 0.93600 0.31075
 H1488 H 0.61060 0.94654 0.30111
 O1489 O 0.52409 0.87006 0.40593
 O1490 O 0.52400 0.83963 0.37589
 C1491 C 0.53284 0.84886 0.39696
 C1492 C 0.55392 0.83527 0.41098
 C1493 C 0.56282 0.81089 0.40264
 H1494 H 0.55396 0.80178 0.38594
 O1495 O 0.47524 1.12977 0.40636
 O1496 O 0.47515 1.16014 0.37631
 C1497 C 0.46636 1.15090 0.39737
 C1498 C 0.44526 1.16450 0.41130
 C1499 C 0.43602 1.18854 0.40247
 H1500 H 0.44466 1.19735 0.38549
 O1501 O 0.37210 1.09456 0.47459
 O1502 O 0.34189 1.12480 0.47463
 C1503 C 0.35112 1.10381 0.46562
 C1504 C 0.33763 1.09020 0.44421
 C1505 C 0.31385 1.09946 0.43470
 H1506 H 0.30554 1.11680 0.44310
 O1507 O 0.62751 0.90607 0.47431
 O1508 O 0.65777 0.87588 0.47421
 C1509 C 0.64858 0.89697 0.46540
 C1510 C 0.66212 0.91072 0.44414
 C1511 C 0.68652 0.90228 0.43550
 H1512 H 0.69604 0.88639 0.44536
 O1513 O 0.47543 1.09424 0.37081
 O1514 O 0.47544 1.12442 0.34056
 C1515 C 0.46667 1.10329 0.34967
 C1516 C 0.44558 1.08939 0.33600
 C1517 C 0.43709 1.09759 0.31147
 H1518 H 0.44699 1.11342 0.30190
 O1519 O 0.52441 0.90535 0.37030
 O1520 O 0.52433 0.87517 0.34002
 C1521 C 0.53327 0.89620 0.34922
 C1522 C 0.55443 0.91005 0.33562
 C1523 C 0.56371 0.90125 0.31154
 H1524 H 0.55536 0.88397 0.30309
 O1525 O 0.62734 0.97399 0.40545
 O1526 O 0.65770 0.97377 0.37537
 C1527 C 0.64842 0.96501 0.39642
 C1528 C 0.66197 0.94386 0.41032
 C1529 C 0.68626 0.93497 0.40178
 H1530 H 0.69520 0.94385 0.38500
 O1531 O 0.37171 1.02584 0.40654
 O1532 O 0.34130 1.02597 0.37652
 C1533 C 0.35055 1.03472 0.39761
 C1534 C 0.33709 1.05604 0.41140
 C1535 C 0.31291 1.06505 0.40273
 H1536 H 0.30332 1.05493 0.38706
 O1537 O 0.40762 1.12994 0.47528
 O1538 O 0.37752 1.16031 0.47544
 C1539 C 0.39859 1.15113 0.46657
 C1540 C 0.41228 1.16471 0.44530
 C1541 C 0.40345 1.18885 0.43632
 H1542 H 0.38738 1.19826 0.44602
 O1543 O 0.59202 0.87049 0.47455
 O1544 O 0.62216 0.84017 0.47449
 C1545 C 0.60102 0.84930 0.46578
 C1546 C 0.58712 0.83551 0.44477
 C1547 C 0.59551 0.81102 0.43640
 H1548 H 0.61139 0.80161 0.44640
 O1549 O 0.59246 1.02499 0.36996
 O1550 O 0.62272 1.02480 0.33978
 C1551 C 0.60173 1.03383 0.34893
 C1552 C 0.58842 1.05546 0.33556
 C1553 C 0.59740 1.06455 0.31153
 H1554 H 0.61293 1.05424 0.30192
 O1555 O 0.40722 0.97561 0.37039
 O1556 O 0.37695 0.97583 0.34022
 C1557 C 0.39807 0.96693 0.34923
 C1558 C 0.41162 0.94563 0.33552
 C1559 C 0.40293 0.93708 0.31118
 H1560 H 0.38757 0.94768 0.30162
 O1561 O 0.52572 1.12968 0.40660
 O1562 O 0.52575 1.16017 0.37665
 C1563 C 0.53456 1.15084 0.39768
 C1564 C 0.55573 1.16428 0.41164
 C1565 C 0.56474 1.18854 0.40320
 H1566 H 0.55584 1.19763 0.38651
 O1567 O 0.47358 0.87042 0.40575
 O1568 O 0.47330 0.84004 0.37567
 C1569 C 0.46449 0.84941 0.39669
 C1570 C 0.44320 0.83610 0.41060
 C1571 C 0.43351 0.81226 0.40169
 H1572 H 0.44164 0.80386 0.38428
 O1573 O 0.62860 1.09284 0.47473
 O1574 O 0.65923 1.12260 0.47459
 C1575 C 0.64970 1.10169 0.46571
 C1576 C 0.66295 1.08782 0.44430
 C1577 C 0.68704 1.09646 0.43506
 H1578 H 0.69606 1.11321 0.44391
 O1579 O 0.37175 0.90704 0.47486
 O1580 O 0.34119 0.87720 0.47491
 C1581 C 0.35061 0.89811 0.46598
 C1582 C 0.33727 0.91177 0.44453
 C1583 C 0.31327 0.90285 0.43532
 H1584 H 0.30385 0.88680 0.44500
 Cu1585 Cu 0.49903 0.89094 0.39111
 Cu1586 Cu 0.49881 0.85458 0.35488
 Cu1587 Cu 0.50056 1.10903 0.39165
 Cu1588 Cu 0.50057 1.14547 0.35553
 Cu1589 Cu 0.39252 1.00070 0.39150
 Cu1590 Cu 0.35610 1.00090 0.35538
 Cu1591 Cu 0.60673 0.99951 0.39084
 Cu1592 Cu 0.64311 0.99926 0.35466
 C1593 C 0.43237 0.93272 0.34744
 H1594 H 0.43916 0.93924 0.36621
 C1595 C 0.41379 0.91504 0.29925
 C1596 C 0.56752 1.06808 0.34753
 H1597 H 0.56051 1.06115 0.36607
 C1598 C 0.58657 1.08679 0.29997
 C1599 C 0.34907 0.93300 0.43227
 H1600 H 0.36768 0.93985 0.43914
 C1601 C 0.30136 0.91442 0.41372
 C1602 C 0.65094 1.06663 0.43212
 H1603 H 0.63213 1.06017 0.43881
 C1604 C 0.69920 1.08416 0.41399
 C1605 C 0.43172 0.84780 0.43231
 H1606 H 0.43858 0.86655 0.43883
 C1607 C 0.41307 0.79964 0.41468
 C1608 C 0.56794 1.15223 0.43278
 H1609 H 0.56141 1.13331 0.43909
 C1610 C 0.58569 1.20075 0.41563
 C1611 C 0.43302 1.06846 0.34802
 H1612 H 0.43931 1.06217 0.36704
 C1613 C 0.41595 1.08551 0.29919
 C1614 C 0.56619 0.93165 0.34727
 H1615 H 0.55967 0.93810 0.36617
 C1616 C 0.58409 0.91416 0.29875
 C1617 C 0.56611 0.84732 0.43215
 H1618 H 0.55970 0.86633 0.43838
 C1619 C 0.58363 0.79856 0.41526
 C1620 C 0.43339 1.15286 0.43285
 H1621 H 0.44010 1.13410 0.43948
 C1622 C 0.41512 1.20089 0.41484
 C1623 C 0.34906 1.06848 0.43243
 H1624 H 0.36773 1.06166 0.43920
 C1625 C 0.30114 1.08697 0.41402
 C1626 C 0.65016 0.93171 0.43161
 H1627 H 0.63124 0.93817 0.43802
 C1628 C 0.69875 0.91422 0.41427
 O1629 O 0.52474 0.90619 0.62993
 O1630 O 0.52472 0.87604 0.66022
 C1631 C 0.53353 0.89713 0.65106
 C1632 C 0.55469 0.91093 0.66466
 C1633 C 0.56327 0.90261 0.68910
 H1634 H 0.55336 0.88678 0.69866
 O1635 O 0.47587 1.09382 0.62955
 O1636 O 0.47594 1.12397 0.65986
 C1637 C 0.46710 1.10288 0.65071
 C1638 C 0.44598 1.08906 0.66438
 C1639 C 0.43756 1.09741 0.68889
 H1640 H 0.44760 1.11319 0.69841
 O1641 O 0.37162 1.02607 0.59421
 O1642 O 0.34122 1.02635 0.62424
 C1643 C 0.35052 1.03505 0.60316
 C1644 C 0.33699 1.05616 0.58912
 C1645 C 0.31277 1.06525 0.59766
 H1646 H 0.30389 1.05660 0.61458
 O1647 O 0.62827 0.97390 0.59385
 O1648 O 0.65875 0.97368 0.62381
 C1649 C 0.64937 0.96492 0.60278
 C1650 C 0.66279 0.94371 0.58881
 C1651 C 0.68691 0.93451 0.59744
 H1652 H 0.69585 0.94323 0.61431
 O1653 O 0.59217 0.87075 0.52512
 O1654 O 0.62230 0.84042 0.52502
 C1655 C 0.60126 0.84964 0.53393
 C1656 C 0.58759 0.83606 0.55521
 C1657 C 0.59613 0.81169 0.56377
 H1658 H 0.61196 0.80220 0.55376
 O1659 O 0.40719 1.12937 0.52594
 O1660 O 0.37706 1.15969 0.52612
 C1661 C 0.39804 1.15036 0.53503
 C1662 C 0.41178 1.16378 0.55640
 C1663 C 0.40297 1.18785 0.56566
 H1664 H 0.38576 1.19630 0.55719
 O1665 O 0.40661 0.97528 0.62993
 O1666 O 0.37637 0.97549 0.66012
 C1667 C 0.39735 0.96642 0.65095
 C1668 C 0.41085 0.94494 0.66445
 C1669 C 0.40177 0.93564 0.68838
 H1670 H 0.38487 0.94448 0.69713
 O1671 O 0.59322 1.02451 0.62976
 O1672 O 0.62352 1.02433 0.65989
 C1673 C 0.60238 1.03320 0.65090
 C1674 C 0.58869 1.05439 0.66465
 C1675 C 0.59684 1.06253 0.68931
 H1676 H 0.61203 1.05179 0.69898
 O1677 O 0.47416 0.87081 0.59450
 O1678 O 0.47408 0.84042 0.62454
 C1679 C 0.46526 0.84970 0.60350
 C1680 C 0.44410 0.83623 0.58954
 C1681 C 0.43505 0.81195 0.59793
 H1682 H 0.44380 0.80291 0.61472
 O1683 O 0.52636 1.12929 0.59409
 O1684 O 0.52647 1.15966 0.62420
 C1685 C 0.53524 1.15040 0.60312
 C1686 C 0.55634 1.16393 0.58917
 C1687 C 0.56525 1.18823 0.59759
 H1688 H 0.55637 1.19731 0.61431
 O1689 O 0.37153 0.90719 0.52552
 O1690 O 0.34096 0.87735 0.52554
 C1691 C 0.35033 0.89836 0.53434
 C1692 C 0.33680 0.91224 0.55555
 C1693 C 0.31260 0.90359 0.56444
 H1694 H 0.30318 0.88757 0.55469
 O1695 O 0.62901 1.09297 0.52546
 O1696 O 0.65966 1.12272 0.52538
 C1697 C 0.65022 1.10180 0.53430
 C1698 C 0.66368 1.08785 0.55554
 C1699 C 0.68797 1.09628 0.56452
 H1700 H 0.69700 1.11300 0.55564
 O1701 O 0.52641 1.09391 0.62958
 O1702 O 0.52656 1.12409 0.65987
 C1703 C 0.53533 1.10299 0.65066
 C1704 C 0.55636 1.08895 0.66429
 C1705 C 0.56544 1.09747 0.68852
 H1706 H 0.55706 1.11473 0.69702
 O1707 O 0.47430 0.90651 0.62978
 O1708 O 0.47416 0.87632 0.66002
 C1709 C 0.46543 0.89747 0.65087
 C1710 C 0.44427 0.91136 0.66445
 C1711 C 0.43522 0.90262 0.68858
 H1712 H 0.44486 0.88650 0.69794
 O1713 O 0.62850 1.02447 0.59389
 O1714 O 0.65897 1.02429 0.62385
 C1715 C 0.64973 1.03316 0.60281
 C1716 C 0.66346 1.05420 0.58889
 C1717 C 0.68792 1.06262 0.59729
 H1718 H 0.69734 1.05266 0.61318
 O1719 O 0.37155 0.97551 0.59414
 O1720 O 0.34113 0.97569 0.62416
 C1721 C 0.35040 0.96674 0.60315
 C1722 C 0.33686 0.94551 0.58932
 C1723 C 0.31281 0.93633 0.59816
 H1724 H 0.30396 0.94509 0.61506
 O1725 O 0.59390 1.12886 0.52549
 O1726 O 0.62438 1.15880 0.52543
 C1727 C 0.60320 1.14990 0.53427
 C1728 C 0.58952 1.16371 0.55541
 C1729 C 0.59802 1.18813 0.56390
 H1730 H 0.61397 1.19750 0.55400
 O1731 O 0.40671 0.87127 0.52563
 O1732 O 0.37624 0.84132 0.52568
 C1733 C 0.39743 0.85026 0.53446
 C1734 C 0.41109 0.83647 0.55560
 C1735 C 0.40257 0.81204 0.56397
 H1736 H 0.38677 0.80265 0.55385
 O1737 O 0.59320 0.97400 0.62968
 O1738 O 0.62353 0.97380 0.65979
 C1739 C 0.60237 0.96509 0.65073
 C1740 C 0.58850 0.94405 0.66443
 C1741 C 0.59705 0.93523 0.68873
 H1742 H 0.61386 0.94411 0.69761
 O1743 O 0.40715 1.02591 0.62970
 O1744 O 0.37695 1.02622 0.65993
 C1745 C 0.39810 1.03489 0.65077
 C1746 C 0.41209 1.05598 0.66436
 C1747 C 0.40369 1.06487 0.68870
 H1748 H 0.38690 1.05605 0.69767
 O1749 O 0.47589 1.12931 0.59397
 O1750 O 0.47593 1.15966 0.62409
 C1751 C 0.46712 1.15048 0.60298
 C1752 C 0.44594 1.16411 0.58916
 C1753 C 0.43749 1.18862 0.59748
 H1754 H 0.44793 1.19825 0.61290
 O1755 O 0.52470 0.87086 0.59426
 O1756 O 0.52476 0.84050 0.62434
 C1757 C 0.53356 0.84973 0.60326
 C1758 C 0.55466 0.83613 0.58926
 C1759 C 0.56371 0.81188 0.59778
 H1760 H 0.55500 0.80295 0.61464
 O1761 O 0.62787 0.90604 0.52493
 O1762 O 0.65812 0.87582 0.52480
 C1763 C 0.64900 0.89692 0.53369
 C1764 C 0.66269 0.91060 0.55491
 C1765 C 0.68696 0.90187 0.56363
 H1766 H 0.69634 0.88587 0.55377
 O1767 O 0.37177 1.09386 0.52519
 O1768 O 0.34149 1.12404 0.52525
 C1769 C 0.35060 1.10288 0.53395
 C1770 C 0.33691 1.08905 0.55505
 C1771 C 0.31251 1.09756 0.56357
 H1772 H 0.30302 1.11334 0.55350
 Cu1773 Cu 0.49948 0.89160 0.60909
 Cu1774 Cu 0.49943 0.85527 0.64531
 Cu1775 Cu 0.50112 1.10855 0.60879
 Cu1776 Cu 0.50119 1.14489 0.64505
 Cu1777 Cu 0.39221 0.89211 0.50028
 Cu1778 Cu 0.35555 0.85624 0.50036
 Cu1779 Cu 0.60689 0.89138 0.49972
 Cu1780 Cu 0.64312 0.85504 0.49961
 Cu1781 Cu 0.39270 1.10892 0.50024
 Cu1782 Cu 0.35647 1.14525 0.50039
 Cu1783 Cu 0.60828 1.10790 0.50020
 Cu1784 Cu 0.64498 1.14371 0.50007
 Cu1785 Cu 0.39227 1.00069 0.60900
 Cu1786 Cu 0.35588 1.00100 0.64514
 Cu1787 Cu 0.60775 0.99926 0.60880
 Cu1788 Cu 0.64427 0.99905 0.64484
 C1789 C 0.56721 0.93187 0.65265
 H1790 H 0.56083 0.93825 0.63369
 C1791 C 0.58453 0.91455 0.70130
 C1792 C 0.43334 1.06812 0.65245
 H1793 H 0.43961 1.06172 0.63345
 C1794 C 0.41635 1.08554 0.70122
 C1795 C 0.34882 1.06811 0.56772
 H1796 H 0.36774 1.06158 0.56137
 C1797 C 0.30029 1.08592 0.58496
 C1798 C 0.65093 0.93172 0.56743
 H1799 H 0.63210 0.93840 0.56097
 C1800 C 0.69923 0.91363 0.58495
 C1801 C 0.56665 0.84796 0.56787
 H1802 H 0.56011 0.86687 0.56149
 C1803 C 0.58444 0.79946 0.58513
 C1804 C 0.43326 1.15208 0.56831
 H1805 H 0.43972 1.13320 0.56176
 C1806 C 0.41579 1.20067 0.58609
 C1807 C 0.43218 0.93273 0.65273
 H1808 H 0.43895 0.93944 0.63403
 C1809 C 0.41386 0.91450 0.70069
 C1810 C 0.56813 1.06741 0.65255
 H1811 H 0.56174 1.06119 0.63354
 C1812 C 0.58559 1.08429 0.70144
 C1813 C 0.43206 0.84823 0.56828
 H1814 H 0.43859 0.86717 0.56202
 C1815 C 0.41430 0.79961 0.58521
 C1816 C 0.56848 1.15194 0.56797
 H1817 H 0.56200 1.13299 0.56167
 C1818 C 0.58606 1.20055 0.58504
 C1819 C 0.34862 0.93342 0.56791
 H1820 H 0.36741 0.94003 0.56130
 C1821 C 0.30048 0.91537 0.58583
 C1822 C 0.65166 1.06672 0.56779
 H1823 H 0.63270 1.06044 0.56133
 C1824 C 0.70034 1.08375 0.58537
 O1825 O 0.47381 0.40657 0.87095
 O1826 O 0.47349 0.37641 0.84065
 C1827 C 0.46482 0.39755 0.84989
 C1828 C 0.44368 0.41156 0.83639
 C1829 C 0.43444 0.40289 0.81230
 H1830 H 0.44305 0.38590 0.80346
 O1831 O 0.52510 0.59434 0.87081
 O1832 O 0.52517 0.62459 0.84063
 C1833 C 0.53394 0.60344 0.84972
 C1834 C 0.55503 0.58953 0.83605
 C1835 C 0.56424 0.59834 0.81199
 H1836 H 0.55558 0.61532 0.80319
 O1837 O 0.37082 0.47570 0.90669
 O1838 O 0.34043 0.47592 0.87663
 C1839 C 0.34961 0.46704 0.89769
 C1840 C 0.33586 0.44600 0.91151
 C1841 C 0.31130 0.43776 0.90323
 H1842 H 0.30183 0.44785 0.88745
 O1843 O 0.62786 0.52456 0.90586
 O1844 O 0.65812 0.52445 0.87568
 C1845 C 0.64901 0.53330 0.89680
 C1846 C 0.66275 0.55438 0.91068
 C1847 C 0.68673 0.56361 0.90165
 H1848 H 0.69539 0.55496 0.88459
 O1849 O 0.40595 0.37146 0.97491
 O1850 O 0.37551 0.34148 0.97492
 C1851 C 0.39676 0.35036 0.96619
 C1852 C 0.41054 0.33649 0.94513
 C1853 C 0.40217 0.31195 0.93683
 H1854 H 0.38672 0.30245 0.94734
 O1855 O 0.59360 0.62848 0.97478
 O1856 O 0.62414 0.65835 0.97476
 C1857 C 0.60295 0.64947 0.96595
 C1858 C 0.58935 0.66327 0.94477
 C1859 C 0.59828 0.68743 0.93599
 H1860 H 0.61443 0.69661 0.94573
 O1861 O 0.40620 0.52640 0.87130
 O1862 O 0.37594 0.52659 0.84112
 C1863 C 0.39700 0.53541 0.85031
 C1864 C 0.41067 0.55675 0.83682
 C1865 C 0.40167 0.56605 0.81286
 H1866 H 0.38469 0.55734 0.80413
 O1867 O 0.59171 0.47468 0.87004
 O1868 O 0.62179 0.47457 0.83968
 C1869 C 0.60063 0.46594 0.84882
 C1870 C 0.58673 0.44486 0.83516
 C1871 C 0.59507 0.43636 0.81069
 H1872 H 0.61043 0.44685 0.80104
 O1873 O 0.52421 0.37083 0.90633
 O1874 O 0.52407 0.34047 0.87623
 C1875 C 0.53303 0.34971 0.89725
 C1876 C 0.55437 0.33623 0.91097
 C1877 C 0.56372 0.31226 0.90199
 H1878 H 0.55493 0.30337 0.88512
 O1879 O 0.47497 0.62997 0.90673
 O1880 O 0.47492 0.66043 0.87676
 C1881 C 0.46617 0.65118 0.89785
 C1882 C 0.44522 0.66485 0.91199
 C1883 C 0.43627 0.68918 0.90361
 H1884 H 0.44497 0.69812 0.88674
 O1885 O 0.37155 0.59493 0.97500
 O1886 O 0.34131 0.62514 0.97511
 C1887 C 0.35055 0.60418 0.96606
 C1888 C 0.33703 0.59057 0.94468
 C1889 C 0.31319 0.59976 0.93521
 H1890 H 0.30488 0.61710 0.94359
 O1891 O 0.62804 0.40652 0.97481
 O1892 O 0.65838 0.37640 0.97475
 C1893 C 0.64915 0.39747 0.96592
 C1894 C 0.66255 0.41107 0.94445
 C1895 C 0.68676 0.40236 0.93554
 H1896 H 0.69643 0.38694 0.94594
 O1897 O 0.47462 0.59446 0.87119
 O1898 O 0.47456 0.62472 0.84102
 C1899 C 0.46572 0.60363 0.85016
 C1900 C 0.44438 0.58998 0.83666
 C1901 C 0.43537 0.59875 0.81253
 H1902 H 0.44510 0.61476 0.80310
 O1903 O 0.52432 0.40585 0.87044
 O1904 O 0.52414 0.37567 0.84015
 C1905 C 0.53310 0.39669 0.84931
 C1906 C 0.55421 0.41052 0.83563
 C1907 C 0.56348 0.40164 0.81157
 H1908 H 0.55511 0.38435 0.80316
 O1909 O 0.62736 0.47388 0.90541
 O1910 O 0.65757 0.47370 0.87519
 C1911 C 0.64832 0.46479 0.89620
 C1912 C 0.66181 0.44343 0.90992
 C1913 C 0.68554 0.43376 0.90065
 H1914 H 0.69366 0.44190 0.88313
 O1915 O 0.37107 0.52618 0.90712
 O1916 O 0.34069 0.52638 0.87706
 C1917 C 0.34994 0.53508 0.89817
 C1918 C 0.33649 0.55636 0.91197
 C1919 C 0.31223 0.56520 0.90340
 H1920 H 0.30260 0.55491 0.88788
 O1921 O 0.40746 0.62995 0.97578
 O1922 O 0.37736 0.66031 0.97594
 C1923 C 0.39848 0.65118 0.96714
 C1924 C 0.41234 0.66492 0.94609
 C1925 C 0.40395 0.68940 0.93771
 H1926 H 0.38820 0.69891 0.94782
 O1927 O 0.59249 0.37102 0.97472
 O1928 O 0.62269 0.34077 0.97461
 C1929 C 0.60159 0.34993 0.96581
 C1930 C 0.58784 0.33634 0.94453
 C1931 C 0.59673 0.31227 0.93543
 H1932 H 0.61296 0.30298 0.94497
 O1933 O 0.59239 0.52518 0.87035
 O1934 O 0.62251 0.52507 0.84003
 C1935 C 0.60153 0.53405 0.84928
 C1936 C 0.58798 0.55550 0.83583
 C1937 C 0.59673 0.56439 0.81165
 H1938 H 0.61268 0.55455 0.80219
 O1939 O 0.40635 0.47573 0.87115
 O1940 O 0.37610 0.47592 0.84096
 C1941 C 0.39718 0.46698 0.85004
 C1942 C 0.41078 0.44567 0.83637
 C1943 C 0.40208 0.43697 0.81209
 H1944 H 0.38621 0.44695 0.80266
 O1945 O 0.52551 0.62952 0.90650
 O1946 O 0.52559 0.65996 0.87651
 C1947 C 0.53451 0.65056 0.89746
 C1948 C 0.55596 0.66379 0.91119
 C1949 C 0.56536 0.68779 0.90246
 H1950 H 0.55660 0.69683 0.88567
 O1951 O 0.47360 0.37089 0.90612
 O1952 O 0.47333 0.34052 0.87602
 C1953 C 0.46454 0.34986 0.89706
 C1954 C 0.44327 0.33648 0.91096
 C1955 C 0.43399 0.31239 0.90230
 H1956 H 0.44243 0.30383 0.88511
 O1957 O 0.62861 0.59244 0.97487
 O1958 O 0.65926 0.62220 0.97488
 C1959 C 0.64981 0.60125 0.96602
 C1960 C 0.66318 0.58743 0.94465
 C1961 C 0.68728 0.59615 0.93556
 H1962 H 0.69680 0.61212 0.94530
 O1963 O 0.37040 0.40704 0.97461
 O1964 O 0.33980 0.37723 0.97460
 C1965 C 0.34921 0.39818 0.96575
 C1966 C 0.33571 0.41219 0.94463
 C1967 C 0.31129 0.40394 0.93582
 H1968 H 0.30222 0.38724 0.94470
 Cu1969 Cu 0.49902 0.39154 0.89148
 Cu1970 Cu 0.49873 0.35520 0.85524
 Cu1971 Cu 0.50003 0.60905 0.89182
 Cu1972 Cu 0.50003 0.64549 0.85570
 Cu1973 Cu 0.39167 0.50096 0.89205
 Cu1974 Cu 0.35527 0.50120 0.85589
 Cu1975 Cu 0.60684 0.49959 0.89096
 Cu1976 Cu 0.64305 0.49942 0.85463
 C1977 C 0.43181 0.43306 0.84819
 H1978 H 0.43849 0.43954 0.86701
 C1979 C 0.41370 0.41551 0.79989
 C1980 C 0.56693 0.56799 0.84771
 H1981 H 0.56025 0.56138 0.86648
 C1982 C 0.58509 0.58589 0.79959
 C1983 C 0.34774 0.43331 0.93243
 H1984 H 0.36677 0.43946 0.93879
 C1985 C 0.29885 0.41665 0.91514
 C1986 C 0.65123 0.56633 0.93229
 H1987 H 0.63250 0.55969 0.93903
 C1988 C 0.69918 0.58451 0.91397
 C1989 C 0.43141 0.34834 0.93238
 H1990 H 0.43797 0.36726 0.93871
 C1991 C 0.41355 0.29971 0.91521
 C1992 C 0.56799 0.65178 0.93245
 H1993 H 0.56116 0.63305 0.93899
 C1994 C 0.58649 0.69984 0.91477
 C1995 C 0.43212 0.56876 0.84847
 H1996 H 0.43885 0.56202 0.86718
 C1997 C 0.41392 0.58701 0.80047
 C1998 C 0.56599 0.43212 0.84723
 H1999 H 0.55949 0.43861 0.86612
 C2000 C 0.58388 0.41450 0.79876
 C2001 C 0.56646 0.34800 0.93235
 H2002 H 0.55968 0.36671 0.93909
 C2003 C 0.58490 0.30009 0.91409
 C2004 C 0.43321 0.65298 0.93334
 H2005 H 0.43963 0.63398 0.93958
 C2006 C 0.41565 0.70168 0.91637
 C2007 C 0.34850 0.56888 0.93290
 H2008 H 0.36722 0.56214 0.93960
 C2009 C 0.30045 0.58713 0.91462
 C2010 C 0.65048 0.43192 0.93181
 H2011 H 0.63183 0.43875 0.93860
 C2012 C 0.69842 0.41332 0.91341
 O2013 O 0.52478 0.40508 1.12905
 O2014 O 0.52478 0.37475 1.15915
 C2015 C 0.53373 0.39579 1.15004
 C2016 C 0.55492 0.40955 1.16370
 C2017 C 0.56422 0.40057 1.18769
 H2018 H 0.55593 0.38321 1.19600
 O2019 O 0.47553 0.59438 1.12967
 O2020 O 0.47564 0.62460 1.15992
 C2021 C 0.46685 0.60344 1.15085
 C2022 C 0.44577 0.58959 1.16457
 C2023 C 0.43743 0.59778 1.18916
 H2024 H 0.44792 0.61315 1.19880
 O2025 O 0.37183 0.52575 1.09419
 O2026 O 0.34159 0.52587 1.12439
 C2027 C 0.35074 0.53464 1.10327
 C2028 C 0.33717 0.55587 1.08948
 C2029 C 0.31339 0.56542 1.09871
 H2030 H 0.30474 0.55683 1.11579
 O2031 O 0.62756 0.47412 1.09463
 O2032 O 0.65783 0.47389 1.12480
 C2033 C 0.64857 0.46508 1.10374
 C2034 C 0.66202 0.44372 1.09000
 C2035 C 0.68568 0.43399 1.09932
 H2036 H 0.69426 0.44244 1.11652
 O2037 O 0.59270 0.37073 1.02533
 O2038 O 0.62287 0.34045 1.02523
 C2039 C 0.60179 0.34960 1.03411
 C2040 C 0.58787 0.33581 1.05512
 C2041 C 0.59662 0.31162 1.06412
 H2042 H 0.61390 0.30328 1.05567
 O2043 O 0.40664 0.62973 1.02636
 O2044 O 0.37648 0.66003 1.02652
 C2045 C 0.39748 0.65074 1.03540
 C2046 C 0.41126 0.66427 1.05666
 C2047 C 0.40250 0.68839 1.06578
 H2048 H 0.38524 0.69676 1.05734
 O2049 O 0.40778 0.47581 1.13016
 O2050 O 0.37774 0.47597 1.16056
 C2051 C 0.39887 0.46719 1.15142
 C2052 C 0.41271 0.44606 1.16511
 C2053 C 0.40463 0.43792 1.18978
 H2054 H 0.38955 0.44872 1.19955
 O2055 O 0.59242 0.52487 1.13031
 O2056 O 0.62259 0.52464 1.16059
 C2057 C 0.60156 0.53361 1.15144
 C2058 C 0.58808 0.55504 1.16498
 C2059 C 0.59667 0.56368 1.18932
 H2060 H 0.61204 0.55319 1.19899
 O2061 O 0.47338 0.37062 1.09386
 O2062 O 0.47323 0.34018 1.12385
 C2063 C 0.46430 0.34963 1.10294
 C2064 C 0.44279 0.33645 1.08929
 C2065 C 0.43326 0.31259 1.09824
 H2066 H 0.44195 0.30367 1.11514
 O2067 O 0.52588 0.62965 1.09390
 O2068 O 0.52610 0.66013 1.12390
 C2069 C 0.53481 0.65077 1.10284
 C2070 C 0.55592 0.66418 1.08880
 C2071 C 0.56486 0.68851 1.09710
 H2072 H 0.55599 0.69767 1.11379
 O2073 O 0.37078 0.40771 1.02524
 O2074 O 0.34016 0.37792 1.02526
 C2075 C 0.34962 0.39888 1.03414
 C2076 C 0.33640 0.41257 1.05568
 C2077 C 0.31224 0.40394 1.06471
 H2078 H 0.30248 0.38852 1.05438
 O2079 O 0.62842 0.59253 1.02555
 O2080 O 0.65904 0.62232 1.02555
 C2081 C 0.64957 0.60141 1.03446
 C2082 C 0.66287 0.58772 1.05592
 C2083 C 0.68693 0.59652 1.06504
 H2084 H 0.69643 0.61248 1.05529
 O2085 O 0.52598 0.59459 1.12966
 O2086 O 0.52620 0.62488 1.15984
 C2087 C 0.53493 0.60374 1.15070
 C2088 C 0.55595 0.58977 1.16436
 C2089 C 0.56535 0.59869 1.18831
 H2090 H 0.55717 0.61612 1.19666
 O2091 O 0.47428 0.40597 1.12940
 O2092 O 0.47414 0.37572 1.15958
 C2093 C 0.46551 0.39696 1.15056
 C2094 C 0.44478 0.41124 1.16446
 C2095 C 0.43576 0.40273 1.18872
 H2096 H 0.44403 0.38539 1.19713
 O2097 O 0.62772 0.52477 1.09461
 O2098 O 0.65802 0.52460 1.12475
 C2099 C 0.64884 0.53354 1.10370
 C2100 C 0.66249 0.55473 1.08992
 C2101 C 0.68642 0.56406 1.09897
 H2102 H 0.69511 0.55545 1.11603
 O2103 O 0.37201 0.47510 1.09483
 O2104 O 0.34184 0.47514 1.12508
 C2105 C 0.35101 0.46616 1.10405
 C2106 C 0.33737 0.44489 1.09031
 C2107 C 0.31363 0.43534 1.09963
 H2108 H 0.30551 0.44352 1.11715
 O2109 O 0.59357 0.62873 1.02529
 O2110 O 0.62408 0.65864 1.02525
 C2111 C 0.60285 0.64981 1.03403
 C2112 C 0.58913 0.66375 1.05505
 C2113 C 0.59764 0.68821 1.06344
 H2114 H 0.61361 0.69752 1.05351
 O2115 O 0.40537 0.37137 1.02542
 O2116 O 0.37487 0.34145 1.02543
 C2117 C 0.39601 0.35041 1.03430
 C2118 C 0.40950 0.33676 1.05564
 C2119 C 0.40040 0.31276 1.06468
 H2120 H 0.38418 0.30356 1.05506
 O2121 O 0.59191 0.47435 1.12995
 O2122 O 0.62205 0.47414 1.16026
 C2123 C 0.60093 0.46543 1.15104
 C2124 C 0.58722 0.44409 1.16446
 C2125 C 0.59561 0.43546 1.18885
 H2126 H 0.61090 0.44597 1.19861
 O2127 O 0.40712 0.52639 1.12977
 O2128 O 0.37700 0.52654 1.16009
 C2129 C 0.39797 0.53545 1.15077
 C2130 C 0.41170 0.55679 1.16424
 C2131 C 0.40295 0.56594 1.18835
 H2132 H 0.38576 0.55743 1.19678
 O2133 O 0.47542 0.62994 1.09412
 O2134 O 0.47554 0.66038 1.12415
 C2135 C 0.46671 0.65116 1.10308
 C2136 C 0.44554 0.66477 1.08925
 C2137 C 0.43719 0.68938 1.09740
 H2138 H 0.44777 0.69910 1.11267
 O2139 O 0.52387 0.37010 1.09298
 O2140 O 0.52381 0.33956 1.12288
 C2141 C 0.53250 0.34878 1.10174
 C2142 C 0.55351 0.33514 1.08767
 C2143 C 0.56186 0.31051 1.09568
 H2144 H 0.55129 0.30074 1.11091
 O2145 O 0.62792 0.40643 1.02548
 O2146 O 0.65821 0.37626 1.02543
 C2147 C 0.64896 0.39727 1.03439
 C2148 C 0.66231 0.41073 1.05597
 C2149 C 0.68612 0.40149 1.06538
 H2150 H 0.69546 0.38533 1.05577
 O2151 O 0.37160 0.59388 1.02561
 O2152 O 0.34131 0.62405 1.02579
 C2153 C 0.35049 0.60290 1.03449
 C2154 C 0.33698 0.58912 1.05573
 C2155 C 0.31305 0.59815 1.06503
 H2156 H 0.30372 0.61436 1.05550
 Cu2157 Cu 0.49910 0.39098 1.10833
 Cu2158 Cu 0.49901 0.35448 1.14438
 Cu2159 Cu 0.50067 0.60910 1.10883
 Cu2160 Cu 0.50084 0.64556 1.14498
 Cu2161 Cu 0.39117 0.39240 1.00000
 Cu2162 Cu 0.35450 0.35655 1.00002
 Cu2163 Cu 0.60727 0.39170 1.00009
 Cu2164 Cu 0.64359 0.35546 0.99997
 Cu2165 Cu 0.39232 0.60909 1.00067
 Cu2166 Cu 0.35607 0.64541 1.00085
 Cu2167 Cu 0.60800 0.60755 1.00013
 Cu2168 Cu 0.64474 0.64333 1.00011
 Cu2169 Cu 0.39269 0.50072 1.10921
 Cu2170 Cu 0.35650 0.50086 1.14555
 Cu2171 Cu 0.60689 0.49957 1.10934
 Cu2172 Cu 0.64317 0.49929 1.14562
 C2173 C 0.56657 0.43130 1.15227
 H2174 H 0.56001 0.43789 1.13344
 C2175 C 0.58454 0.41347 1.20061
 C2176 C 0.43310 0.56876 1.15252
 H2177 H 0.43948 0.56229 1.13358
 C2178 C 0.41579 0.58631 1.20125
 C2179 C 0.34871 0.56775 1.06787
 H2180 H 0.36731 0.56086 1.06099
 C2181 C 0.30114 0.58655 1.08661
 C2182 C 0.65058 0.43205 1.06822
 H2183 H 0.63209 0.43911 1.06122
 C2184 C 0.69793 0.41289 1.08714
 C2185 C 0.56632 0.34738 1.06705
 H2186 H 0.55996 0.36637 1.06076
 C2187 C 0.58368 0.29859 1.08433
 C2188 C 0.43276 0.65262 1.06855
 H2189 H 0.43916 0.63367 1.06212
 C2190 C 0.41544 0.70138 1.08603
 C2191 C 0.43311 0.43291 1.15286
 H2192 H 0.43941 0.43911 1.13381
 C2193 C 0.41574 0.41602 1.20175
 C2194 C 0.56743 0.56793 1.15289
 H2195 H 0.56075 0.56137 1.13409
 C2196 C 0.58565 0.58571 1.20114
 C2197 C 0.43088 0.34829 1.06788
 H2198 H 0.43784 0.36691 1.06115
 C2199 C 0.41211 0.30053 1.08604
 C2200 C 0.56806 0.65207 1.06765
 H2201 H 0.56156 0.63309 1.06145
 C2202 C 0.58568 0.70076 1.08451
 C2203 C 0.34859 0.43335 1.06834
 H2204 H 0.36724 0.44009 1.06148
 C2205 C 0.30073 0.41490 1.08691
 C2206 C 0.65095 0.56663 1.06829
 H2207 H 0.63227 0.55990 1.06150
 C2208 C 0.69883 0.58497 1.08666
 C2209 C 1.09053 1.11887 1.26615
 C2210 C 1.11695 1.11607 1.27255
 C2211 C 1.13316 1.10311 1.25475
 C2212 C 1.12341 1.09378 1.23127
 C2213 C 1.09698 1.09630 1.22511
 C2214 C 1.08066 1.10879 1.24302
 H2215 H 1.07705 1.12794 1.27939
 H2216 H 1.15370 1.10104 1.25827
 H2217 H 1.13685 1.08503 1.21775
 H2218 H 1.06008 1.11053 1.23944
 C2219 C 1.13299 0.60513 0.75302
 C2220 C 1.11593 0.61448 0.77207
 C2221 C 1.08916 0.61376 0.76727
 C2222 C 1.07964 0.60384 0.74391
 C2223 C 1.09671 0.59464 0.72474
 C2224 C 1.12351 0.59542 0.72959
 H2225 H 1.15373 0.60582 0.75604
 H2226 H 1.07556 0.62049 0.78176
 H2227 H 1.05888 0.60314 0.74099
 H2228 H 1.13723 0.58899 0.71506
 C2229 C 0.58850 1.11650 0.76800
 C2230 C 0.61455 1.11265 0.77524
 C2231 C 0.63074 1.09887 0.75805
 C2232 C 0.62145 1.09002 0.73422
 C2233 C 0.59539 1.09368 0.72709
 C2234 C 0.57898 1.10676 0.74455
 H2235 H 0.57508 1.12630 0.78079
 H2236 H 0.65106 1.09600 0.76221
 H2237 H 0.63507 1.08087 0.72117
 H2238 H 0.55861 1.10937 0.74032
 C2239 C 0.63178 0.60176 1.25643
 C2240 C 0.61559 0.61491 1.27410
 C2241 C 0.58927 0.61811 1.26744
 C2242 C 0.57951 0.60823 1.24417
 C2243 C 0.59585 0.59555 1.22640
 C2244 C 0.62216 0.59264 1.23284
 H2245 H 0.65226 0.59942 1.26010
 H2246 H 0.57583 0.62741 1.28057
 H2247 H 0.55900 0.61030 1.24035
 H2248 H 0.63565 0.58378 1.21943
 C2249 C 0.88154 0.91208 1.26719
 C2250 C 0.88501 0.88590 1.27418
 C2251 C 0.89847 0.86964 1.25682
 C2252 C 0.90761 0.87903 1.23317
 C2253 C 0.90455 0.90526 1.22639
 C2254 C 0.89157 0.92170 1.24391
 H2255 H 0.87193 0.92553 1.28010
 H2256 H 0.90097 0.84921 1.26075
 H2257 H 0.91659 0.86540 1.22000
 H2258 H 0.88935 0.94215 1.23990
 C2259 C 0.91087 0.38250 0.76723
 C2260 C 0.88475 0.38648 0.77421
 C2261 C 0.86883 0.40040 0.75694
 C2262 C 0.87844 0.40928 0.73325
 C2263 C 0.90458 0.40553 0.72641
 C2264 C 0.92071 0.39226 0.74395
 H2265 H 0.92411 0.37261 0.78012
 H2266 H 0.84848 0.40338 0.76093
 H2267 H 0.86501 0.41856 0.72010
 H2268 H 0.94110 0.38958 0.73994
 C2269 C 0.38408 0.91176 0.76808
 C2270 C 0.38444 0.88506 0.77324
 C2271 C 0.39454 0.86809 0.75453
 C2272 C 0.40392 0.87761 0.73099
 C2273 C 0.40380 0.90439 0.72579
 C2274 C 0.39383 0.92136 0.74469
 H2275 H 0.37665 0.92524 0.78235
 H2276 H 0.39466 0.84739 0.75791
 H2277 H 0.41086 0.86389 0.71670
 H2278 H 0.39384 0.94211 0.74159
 C2279 C 0.37023 0.40144 1.25801
 C2280 C 0.38628 0.38767 1.27531
 C2281 C 0.41238 0.38375 1.26822
 C2282 C 0.42206 0.39342 1.24481
 C2283 C 0.40579 0.40656 1.22729
 C2284 C 0.37968 0.41025 1.23425
 H2285 H 0.34988 0.40434 1.26202
 H2286 H 0.42571 0.37394 1.28108
 H2287 H 0.44243 0.39075 1.24065
 H2288 H 0.36616 0.41942 1.22112
 C2289 C 0.89995 1.13151 0.74303
 C2290 C 0.88624 1.11518 0.72594
 C2291 C 0.88294 1.08902 0.73306
 C2292 C 0.89320 1.07952 0.75626
 C2293 C 0.90624 1.09603 0.77364
 C2294 C 0.90933 1.12221 0.76666
 H2295 H 0.90243 1.15190 0.73892
 H2296 H 0.87326 1.07549 0.72031
 H2297 H 0.89105 1.05907 0.76036
 H2298 H 0.91848 1.13586 0.77967
 C2299 C 0.86940 0.60415 0.24478
 C2300 C 0.88636 0.61371 0.22580
 C2301 C 0.91309 0.61395 0.23090
 C2302 C 0.92267 0.60463 0.25449
 C2303 C 0.90568 0.59515 0.27358
 C2304 C 0.87891 0.59513 0.26844
 H2305 H 0.84868 0.60421 0.24155
 H2306 H 0.92657 0.62101 0.21647
 H2307 H 0.94340 0.60458 0.25764
 H2308 H 0.86521 0.58856 0.28290
 C2309 C 0.38752 1.08672 0.23114
 C2310 C 0.38732 1.11338 0.22569
 C2311 C 0.39680 1.13074 0.24440
 C2312 C 0.40610 1.12169 0.26814
 C2313 C 0.40641 1.09501 0.27367
 C2314 C 0.39710 1.07761 0.25482
 H2315 H 0.38054 1.07294 0.21694
 H2316 H 0.39641 1.15142 0.24093
 H2317 H 0.41254 1.13569 0.28238
 H2318 H 0.39742 1.05692 0.25826
 C2319 C 0.39442 0.63326 0.74655
 C2320 C 0.38424 0.61623 0.72794
 C2321 C 0.38402 0.58953 0.73315
 C2322 C 0.39391 0.58002 0.75651
 C2323 C 0.40390 0.59705 0.77534
 C2324 C 0.40396 0.62381 0.77006
 H2325 H 0.39445 0.65395 0.74313
 H2326 H 0.37658 0.57600 0.71895
 H2327 H 0.39398 0.55928 0.75968
 H2328 H 0.41095 0.63756 0.78429
 C2329 C 1.13045 0.89628 0.74429
 C2330 C 1.11329 0.88703 0.72533
 C2331 C 1.08661 0.88687 0.73063
 C2332 C 1.07726 0.89597 0.75441
 C2333 C 1.09445 0.90513 0.77350
 C2334 C 1.12118 0.90507 0.76815
 H2335 H 1.15114 0.89615 0.74089
 H2336 H 1.07298 0.88004 0.71622
 H2337 H 1.05655 0.89610 0.75772
 H2338 H 1.13503 0.91139 0.78258
 C2339 C 1.12976 0.39695 0.24395
 C2340 C 1.11277 0.38730 0.22503
 C2341 C 1.08611 0.38653 0.23042
 C2342 C 1.07661 0.39540 0.25423
 C2343 C 1.09364 0.40496 0.27326
 C2344 C 1.12035 0.40551 0.26783
 H2345 H 1.15045 0.39725 0.24053
 H2346 H 1.07261 0.37934 0.21606
 H2347 H 1.05592 0.39503 0.25762
 H2348 H 1.13410 0.41213 0.28222
 C2349 C 0.63004 0.89902 0.24299
 C2350 C 0.61395 0.88573 0.22537
 C2351 C 0.58776 0.88204 0.23220
 C2352 C 0.57798 0.89165 0.25561
 C2353 C 0.59424 0.90448 0.27337
 C2354 C 0.62047 0.90777 0.26674
 H2355 H 0.65046 0.90167 0.23918
 H2356 H 0.57441 0.87257 0.21911
 H2357 H 0.55753 0.88926 0.25954
 H2358 H 0.63396 0.91666 0.28009
 C2359 C 0.58775 0.38216 0.73233
 C2360 C 0.61397 0.38581 0.72557
 C2361 C 0.63002 0.39912 0.74323
 C2362 C 0.62037 0.40794 0.76691
 C2363 C 0.59410 0.40471 0.77345
 C2364 C 0.57790 0.39185 0.75568
 H2365 H 0.57445 0.37268 0.71921
 H2366 H 0.65045 0.40174 0.73949
 H2367 H 0.63383 0.41684 0.78030
 H2368 H 0.55744 0.38948 0.75955
 C2369 C 1.26579 1.08817 1.11931
 C2370 C 1.27237 1.11450 1.11615
 C2371 C 1.25470 1.13065 1.10296
 C2372 C 1.23126 1.12095 1.09362
 C2373 C 1.22496 1.09457 1.09630
 C2374 C 1.24268 1.07830 1.10916
 H2375 H 1.27890 1.07479 1.12871
 H2376 H 1.25828 1.15117 1.10073
 H2377 H 1.21788 1.13443 1.08473
 H2378 H 1.23896 1.05776 1.11112
 C2379 C 1.25582 0.60062 0.63099
 C2380 C 1.27312 0.61424 0.61485
 C2381 C 1.26621 0.61770 0.58864
 C2382 C 1.24302 0.60762 0.57890
 C2383 C 1.22549 0.59457 0.59521
 C2384 C 1.23223 0.59141 0.62145
 H2385 H 1.25975 0.59805 0.65141
 H2386 H 1.27910 0.62734 0.57524
 H2387 H 1.23909 0.60987 0.55842
 H2388 H 1.21907 0.58230 0.63498
 C2389 C 0.76832 1.11222 0.58745
 C2390 C 0.77374 1.11185 0.61411
 C2391 C 0.75508 1.10196 0.63123
 C2392 C 0.73132 1.09291 0.62192
 C2393 C 0.72580 1.09318 0.59520
 C2394 C 0.74470 1.10282 0.57806
 H2395 H 0.78252 1.11952 0.57384
 H2396 H 0.75859 1.10188 0.65192
 H2397 H 0.71708 1.08621 0.63578
 H2398 H 0.74134 1.10291 0.55735
 C2399 C 0.76636 0.58822 1.11594
 C2400 C 0.77125 0.61500 1.11574
 C2401 C 0.75219 0.63181 1.10603
 C2402 C 0.72870 0.62209 1.09679
 C2403 C 0.72382 0.59525 1.09673
 C2404 C 0.74296 0.57843 1.10642
 H2405 H 0.78086 0.57482 1.12304
 H2406 H 0.75527 0.65256 1.10607
 H2407 H 0.71419 0.63566 1.09004
 H2408 H 0.74002 0.55766 1.10631
 C2409 C 1.26560 0.88134 0.91183
 C2410 C 1.27277 0.88505 0.88571
 C2411 C 1.25534 0.89830 0.86938
 C2412 C 1.23146 0.90700 0.87867
 C2413 C 1.22452 0.90370 0.90484
 C2414 C 1.24209 0.89091 0.92132
 H2415 H 1.27854 0.87192 0.92536
 H2416 H 1.25944 0.90099 0.84901
 H2417 H 1.21827 0.91588 0.86500
 H2418 H 1.23794 0.88853 0.94173
 C2419 C 1.26405 0.40907 0.37910
 C2420 C 1.27103 0.38287 0.38248
 C2421 C 1.25376 0.36663 0.39603
 C2422 C 1.23020 0.37612 0.40539
 C2423 C 1.22347 0.40240 0.40243
 C2424 C 1.24091 0.41875 0.38933
 H2425 H 1.27691 0.42254 0.36952
 H2426 H 1.25778 0.34622 0.39851
 H2427 H 1.21709 0.36258 0.41453
 H2428 H 1.23699 0.43925 0.38724
 C2429 C 0.76679 0.91251 0.38598
 C2430 C 0.77206 0.88581 0.38570
 C2431 C 0.75316 0.86857 0.39495
 C2432 C 0.72945 0.87779 0.40419
 C2433 C 0.72415 0.90452 0.40463
 C2434 C 0.74315 0.92179 0.39547
 H2435 H 0.78114 0.92623 0.37922
 H2436 H 0.75648 0.84786 0.39451
 H2437 H 0.71508 0.86389 0.41053
 H2438 H 0.73985 0.94251 0.39588
 C2439 C 0.76404 0.40937 0.87960
 C2440 C 0.77116 0.38327 0.88345
 C2441 C 0.75408 0.36728 0.89752
 C2442 C 0.73051 0.37687 0.90681
 C2443 C 0.72361 0.40304 0.90330
 C2444 C 0.74092 0.41918 0.88977
 H2445 H 0.77677 0.42268 0.86962
 H2446 H 0.75821 0.34694 0.90042
 H2447 H 0.71753 0.36344 0.91630
 H2448 H 0.73691 0.43960 0.88725
 C2449 C 0.73368 0.91131 1.11628
 C2450 C 0.72885 0.88454 1.11615
 C2451 C 0.74770 0.86773 1.10602
 C2452 C 0.77100 0.87747 1.09633
 C2453 C 0.77585 0.90431 1.09621
 C2454 C 0.75685 0.92111 1.10626
 H2455 H 0.71930 0.92468 1.12367
 H2456 H 0.74458 0.84699 1.10606
 H2457 H 0.78539 0.86390 1.08932
 H2458 H 0.75972 0.94190 1.10609
 C2459 C 0.73422 0.41107 0.61706
 C2460 C 0.72928 0.38432 0.61679
 C2461 C 0.74807 0.36750 0.60655
 C2462 C 0.77139 0.37722 0.59687
 C2463 C 0.77632 0.40404 0.59688
 C2464 C 0.75741 0.42085 0.60707
 H2465 H 0.71989 0.42446 0.62453
 H2466 H 0.74489 0.34677 0.60648
 H2467 H 0.78572 0.36365 0.58974
 H2468 H 0.76036 0.44163 0.60701
 C2469 C 0.23276 0.91262 0.61469
 C2470 C 0.22778 0.88586 0.61464
 C2471 C 0.24680 0.86889 0.60510
 C2472 C 0.27037 0.87845 0.59591
 C2473 C 0.27536 0.90526 0.59572
 C2474 C 0.25623 0.92223 0.60521
 H2475 H 0.21829 0.92612 0.62167
 H2476 H 0.24362 0.84816 0.60525
 H2477 H 0.28485 0.86476 0.58932
 H2478 H 0.25925 0.94299 0.60499
 C2479 C 0.24572 0.36850 1.10320
 C2480 C 0.22812 0.38458 1.11657
 C2481 C 0.23484 0.41085 1.12010
 C2482 C 0.25803 0.42072 1.11016
 C2483 C 0.27569 0.40453 1.09713
 C2484 C 0.26926 0.37821 1.09407
 H2485 H 0.24200 0.34805 1.10064
 H2486 H 0.22178 0.42421 1.12960
 H2487 H 0.26183 0.44122 1.11240
 H2488 H 0.28259 0.36479 1.08500
 C2489 C 0.74585 1.13322 0.89740
 C2490 C 0.72858 1.11714 0.88364
 C2491 C 0.73537 1.09088 0.88029
 C2492 C 0.75836 1.08101 0.89064
 C2493 C 0.77586 1.09722 0.90385
 C2494 C 0.76928 1.12353 0.90690
 H2495 H 0.74197 1.15366 0.89992
 H2496 H 0.72248 1.07751 0.87059
 H2497 H 0.76216 1.06049 0.88850
 H2498 H 0.78244 1.13696 0.91616
 C2499 C 0.73449 0.61589 0.41080
 C2500 C 0.72974 0.61644 0.38400
 C2501 C 0.74877 0.60693 0.36703
 C2502 C 0.77213 0.59718 0.37662
 C2503 C 0.77690 0.59645 0.40346
 C2504 C 0.75775 0.60588 0.42044
 H2505 H 0.71999 0.62276 0.42432
 H2506 H 0.74576 0.60748 0.34627
 H2507 H 0.78664 0.59061 0.36295
 H2508 H 0.76058 0.60523 0.44122
 C2509 C 0.24627 1.10406 0.36772
 C2510 C 0.22845 1.11685 0.38404
 C2511 C 0.23498 1.11968 0.41044
 C2512 C 0.25819 1.10965 0.42019
 C2513 C 0.27605 1.09718 0.40377
 C2514 C 0.26980 1.09478 0.37734
 H2515 H 0.24270 1.10204 0.34717
 H2516 H 0.22178 1.12871 0.42398
 H2517 H 0.26187 1.11136 0.44077
 H2518 H 0.28328 1.08613 0.36379
 C2519 C 0.23419 0.61962 0.91094
 C2520 C 0.22746 0.61622 0.88466
 C2521 C 0.24516 0.60317 0.86844
 C2522 C 0.26882 0.59423 0.87803
 C2523 C 0.27527 0.59715 0.90437
 C2524 C 0.25750 0.60985 0.92070
 H2525 H 0.22104 0.62888 0.92438
 H2526 H 0.24141 0.60074 0.84797
 H2527 H 0.28223 0.58543 0.86452
 H2528 H 0.26131 0.61196 0.94122
 C2529 C 1.08970 1.26736 1.11430
 C2530 C 1.11650 1.27198 1.11509
 C2531 C 1.13348 1.25274 1.10599
 C2532 C 1.12388 1.22929 1.09646
 C2533 C 1.09704 1.22464 1.09557
 C2534 C 1.08006 1.24400 1.10454
 H2535 H 1.07618 1.28201 1.12086
 H2536 H 1.15423 1.25563 1.10676
 H2537 H 1.13753 1.21462 1.09022
 H2538 H 1.05929 1.24123 1.10374
 C2539 C 1.08803 0.76837 0.61321
 C2540 C 1.11474 0.77353 0.61334
 C2541 C 1.13189 0.75459 0.60396
 C2542 C 1.12256 0.73089 0.59479
 C2543 C 1.09582 0.72567 0.59454
 C2544 C 1.07865 0.74475 0.60379
 H2545 H 1.07438 0.78277 0.62004
 H2546 H 1.15259 0.75788 0.60425
 H2547 H 1.13638 0.71646 0.58836
 H2548 H 1.05793 0.74155 0.60349
 C2549 C 0.58791 1.26877 0.61290
 C2550 C 0.61463 1.27388 0.61329
 C2551 C 0.63184 1.25485 0.60417
 C2552 C 0.62256 1.23114 0.59501
 C2553 C 0.59583 1.22597 0.59452
 C2554 C 0.57859 1.24512 0.60350
 H2555 H 0.57423 1.28323 0.61957
 H2556 H 0.65255 1.25806 0.60470
 H2557 H 0.63642 1.21665 0.58879
 H2558 H 0.55787 1.24193 0.60303
 C2559 C 0.58758 0.76899 1.11234
 C2560 C 0.61430 0.77407 1.11276
 C2561 C 0.63149 0.75504 1.10360
 C2562 C 0.62221 0.73135 1.09441
 C2563 C 0.59546 0.72620 1.09391
 C2564 C 0.57824 0.74536 1.10289
 H2565 H 0.57391 0.78344 1.11902
 H2566 H 0.65220 0.75824 1.10414
 H2567 H 0.63605 0.71685 1.08819
 H2568 H 0.55752 0.74219 1.10242
 C2569 C 0.88458 1.26739 0.91085
 C2570 C 0.88507 1.27268 0.88417
 C2571 C 0.89562 1.25420 0.86721
 C2572 C 0.90523 1.23073 0.87669
 C2573 C 0.90489 1.22536 0.90344
 C2574 C 0.89457 1.24409 0.92041
 H2575 H 0.87681 1.28149 0.92432
 H2576 H 0.89585 1.25768 0.84652
 H2577 H 0.91245 1.21660 0.86296
 H2578 H 0.89442 1.24087 0.94114
 C2579 C 0.86679 0.75294 0.39400
 C2580 C 0.88347 0.77188 0.38390
 C2581 C 0.91026 0.76720 0.38379
 C2582 C 0.92022 0.74406 0.39373
 C2583 C 0.90356 0.72495 0.40370
 C2584 C 0.87670 0.72966 0.40363
 H2585 H 0.84604 0.75594 0.39395
 H2586 H 0.92354 0.78166 0.37643
 H2587 H 0.94102 0.74128 0.39388
 H2588 H 0.86324 0.71518 0.41062
 C2589 C 0.41197 1.26842 0.38557
 C2590 C 0.38514 1.27298 0.38489
 C2591 C 0.36830 1.25374 0.39419
 C2592 C 0.37803 1.23043 0.40391
 C2593 C 0.40487 1.22587 0.40473
 C2594 C 0.42174 1.24516 0.39547
 H2595 H 0.42540 1.28304 0.37882
 H2596 H 0.34752 1.25650 0.39348
 H2597 H 0.36447 1.21578 0.41034
 H2598 H 0.44253 1.24239 0.39615
 C2599 C 0.41323 0.76964 0.88791
 C2600 C 0.38656 0.77499 0.88848
 C2601 C 0.36957 0.75624 0.89842
 C2602 C 0.37900 0.73251 0.90737
 C2603 C 0.40572 0.72709 0.90695
 C2604 C 0.42274 0.74602 0.89719
 H2605 H 0.42673 0.78390 0.88055
 H2606 H 0.34888 0.75968 0.89863
 H2607 H 0.36524 0.71820 0.91414
 H2608 H 0.44345 0.74269 0.89695
 C2609 C 1.08538 0.72984 0.88711
 C2610 C 1.11204 0.72441 0.88771
 C2611 C 1.12910 0.74325 0.89738
 C2612 C 1.11976 0.76709 0.90613
 C2613 C 1.09307 0.77258 0.90575
 C2614 C 1.07596 0.75362 0.89618
 H2615 H 1.07183 0.71554 0.87992
 H2616 H 1.14978 0.73979 0.89756
 H2617 H 1.13358 0.78142 0.91275
 H2618 H 1.05527 0.75703 0.89594
 C2619 C 1.10172 0.24232 0.37093
 C2620 C 1.11124 0.22362 0.38826
 C2621 C 1.11143 0.22921 0.41490
 C2622 C 1.10214 0.25302 0.42403
 C2623 C 1.09279 0.27187 0.40665
 C2624 C 1.09276 0.26619 0.37998
 H2625 H 1.10186 0.23875 0.35026
 H2626 H 1.11852 0.21504 0.42864
 H2627 H 1.10211 0.25658 0.44471
 H2628 H 1.08632 0.28041 0.36597
 C2629 C 0.62988 0.74424 0.39709
 C2630 C 0.61291 0.72508 0.38791
 C2631 C 0.58616 0.73014 0.38778
 C2632 C 0.57659 0.75387 0.39680
 C2633 C 0.59360 0.77314 0.40590
 C2634 C 0.62037 0.76803 0.40583
 H2635 H 0.65061 0.74109 0.39691
 H2636 H 0.57266 0.71560 0.38099
 H2637 H 0.55585 0.75702 0.39691
 H2638 H 0.63410 0.78260 0.41209
 C2639 C 0.63186 0.24726 0.89352
 C2640 C 0.61506 0.22791 0.88435
 C2641 C 0.58823 0.23242 0.88498
 C2642 C 0.57840 0.25573 0.89476
 C2643 C 0.59522 0.27513 0.90393
 C2644 C 0.62208 0.27062 0.90308
 H2645 H 0.65264 0.24452 0.89284
 H2646 H 0.57484 0.21772 0.87832
 H2647 H 0.55760 0.25843 0.89546
 H2648 H 0.63562 0.28534 0.90942
 C2649 C 0.91121 0.73242 1.11398
 C2650 C 0.88447 0.72742 1.11409
 C2651 C 0.86746 0.74643 1.10459
 C2652 C 0.87696 0.77003 1.09536
 C2653 C 0.90374 0.77509 1.09517
 C2654 C 0.92076 0.75594 1.10451
 H2655 H 0.92476 0.71798 1.12089
 H2656 H 0.84674 0.74327 1.10484
 H2657 H 0.86325 0.78452 1.08884
 H2658 H 0.94151 0.75901 1.10426
 C2659 C 0.91048 0.23239 0.61458
 C2660 C 0.88377 0.22728 0.61429
 C2661 C 0.86683 0.24602 0.60421
 C2662 C 0.87638 0.26958 0.59492
 C2663 C 0.90316 0.27476 0.59512
 C2664 C 0.92010 0.25578 0.60495
 H2665 H 0.92395 0.21808 0.62195
 H2666 H 0.84613 0.24268 0.60413
 H2667 H 0.86270 0.28392 0.58803
 H2668 H 0.94084 0.25889 0.60497
 C2669 C 0.41201 0.73148 0.61327
 C2670 C 0.38535 0.72610 0.61266
 C2671 C 0.36832 0.74486 0.60278
 C2672 C 0.37769 0.76867 0.59399
 C2673 C 0.40440 0.77414 0.59449
 C2674 C 0.42146 0.75517 0.60413
 H2675 H 0.42554 0.71721 0.62058
 H2676 H 0.34764 0.74138 0.60253
 H2677 H 0.36390 0.78299 0.58728
 H2678 H 0.44216 0.75850 0.60440
 C2679 C 0.40916 0.23303 1.11520
 C2680 C 0.38236 0.22839 1.11587
 C2681 C 0.36541 0.24747 1.10643
 C2682 C 0.37503 0.27084 1.09675
 C2683 C 0.40187 0.27553 1.09603
 C2684 C 0.41882 0.25629 1.10528
 H2685 H 0.42266 0.21848 1.12199
 H2686 H 0.34466 0.24452 1.10706
 H2687 H 0.36141 0.28542 1.09028
 H2688 H 0.43959 0.25907 1.10459
 C2689 C 1.09054 1.11908 0.73411
 C2690 C 1.11661 1.11522 0.72693
 C2691 C 1.13267 1.10112 0.74394
 C2692 C 1.12320 1.09187 0.76756
 C2693 C 1.09708 1.09547 0.77456
 C2694 C 1.08085 1.10894 0.75726
 H2695 H 1.07718 1.12905 0.72141
 H2696 H 1.15299 1.09820 0.73974
 H2697 H 1.13667 1.08237 0.78051
 H2698 H 1.06044 1.11147 0.76134
 C2699 C 1.08762 0.61646 0.23209
 C2700 C 1.11380 0.61296 0.22510
 C2701 C 1.13007 0.59963 0.24255
 C2702 C 1.12071 0.59076 0.26632
 C2703 C 1.09454 0.59403 0.27317
 C2704 C 1.07807 0.60676 0.25554
 H2705 H 1.07414 0.62592 0.21913
 H2706 H 1.15048 0.59708 0.23865
 H2707 H 1.13434 0.58189 0.27956
 H2708 H 1.05764 0.60909 0.25964
 C2709 C 0.63319 1.10350 0.24520
 C2710 C 0.61722 1.11729 0.22785
 C2711 C 0.59095 1.12071 0.23453
 C2712 C 0.58097 1.11038 0.25748
 C2713 C 0.59707 1.09709 0.27501
 C2714 C 0.62339 1.09399 0.26857
 H2715 H 0.65364 1.10094 0.24142
 H2716 H 0.57765 1.13045 0.22159
 H2717 H 0.56046 1.11258 0.26121
 H2718 H 0.63672 1.08464 0.28178
 C2719 C 0.63161 0.60526 0.74598
 C2720 C 0.61468 0.61477 0.72692
 C2721 C 0.58792 0.61472 0.73184
 C2722 C 0.57827 0.60520 0.75531
 C2723 C 0.59521 0.59575 0.77446
 C2724 C 0.62201 0.59598 0.76952
 H2725 H 0.65235 0.60549 0.74290
 H2726 H 0.57444 0.62168 0.71736
 H2727 H 0.55751 0.60495 0.75832
 H2728 H 0.63566 0.58940 0.78403
 C2729 C 0.91311 0.88781 0.73036
 C2730 C 0.88643 0.88808 0.72502
 C2731 C 0.86932 0.89785 0.74381
 C2732 C 0.87865 0.90692 0.76754
 C2733 C 0.90536 0.90672 0.77296
 C2734 C 0.92249 0.89717 0.75401
 H2735 H 0.92671 0.88063 0.71608
 H2736 H 0.84863 0.89784 0.74040
 H2737 H 0.86483 0.91358 0.78187
 H2738 H 0.94320 0.89711 0.75736
 C2739 C 0.91198 0.38260 0.23212
 C2740 C 0.88575 0.38613 0.22531
 C2741 C 0.86963 0.39949 0.24290
 C2742 C 0.87919 0.40839 0.26659
 C2743 C 0.90541 0.40511 0.27323
 C2744 C 0.92172 0.39230 0.25551
 H2745 H 0.92536 0.37310 0.21907
 H2746 H 0.84919 0.40207 0.23915
 H2747 H 0.86568 0.41731 0.27992
 H2748 H 0.94217 0.38993 0.25948
 C2749 C 0.40968 0.88187 0.23334
 C2750 C 0.38354 0.88571 0.22640
 C2751 C 0.36762 0.89975 0.24360
 C2752 C 0.37729 0.90890 0.26719
 C2753 C 0.40346 0.90526 0.27397
 C2754 C 0.41957 0.89190 0.25647
 H2755 H 0.42295 0.87197 0.22048
 H2756 H 0.34726 0.90267 0.23958
 H2757 H 0.36391 0.91832 0.28031
 H2758 H 0.44000 0.88934 0.26040
 C2759 C 0.36766 0.39673 0.74551
 C2760 C 0.38473 0.38645 0.72698
 C2761 C 0.41138 0.38609 0.73235
 C2762 C 0.42082 0.39583 0.75580
 C2763 C 0.40374 0.40582 0.77458
 C2764 C 0.37702 0.40613 0.76912
 H2765 H 0.34699 0.39689 0.74197
 H2766 H 0.42495 0.37858 0.71821
 H2767 H 0.44153 0.39573 0.75910
 H2768 H 0.36324 0.41316 0.78330
 C2769 C 1.13053 0.89938 1.25743
 C2770 C 1.11432 0.88621 1.27502
 C2771 C 1.08812 0.88268 1.26814
 C2772 C 1.07846 0.89230 1.24471
 C2773 C 1.09484 0.90496 1.22697
 C2774 C 1.12107 0.90813 1.23365
 H2775 H 1.15096 0.90191 1.26128
 H2776 H 1.07469 0.87332 1.28122
 H2777 H 1.05800 0.89002 1.24075
 H2778 H 1.13465 0.91690 1.22031
 C2779 C 1.10257 0.36742 0.75485
 C2780 C 1.11580 0.38378 0.77229
 C2781 C 1.11881 0.41006 0.76544
 C2782 C 1.10867 0.41965 0.74222
 C2783 C 1.09596 0.40315 0.72461
 C2784 C 1.09324 0.37685 0.73125
 H2785 H 1.10035 0.34695 0.75873
 H2786 H 1.12812 0.42364 0.77841
 H2787 H 1.11057 0.44016 0.73832
 H2788 H 1.08435 0.36323 0.71801
 C2789 C 0.61311 0.91294 0.76924
 C2790 C 0.61307 0.88628 0.77465
 C2791 C 0.60343 0.86902 0.75594
 C2792 C 0.59421 0.87819 0.73222
 C2793 C 0.59412 0.90489 0.72673
 C2794 C 0.60360 0.92218 0.74560
 H2795 H 0.62021 0.92665 0.78345
 H2796 H 0.60361 0.84834 0.75943
 H2797 H 0.58763 0.86427 0.71796
 H2798 H 0.60344 0.94288 0.74220
 C2799 C 0.63059 0.39804 1.25615
 C2800 C 0.61451 0.38477 1.27378
 C2801 C 0.58830 0.38109 1.26697
 C2802 C 0.57849 0.39075 1.24361
 C2803 C 0.59473 0.40363 1.22589
 C2804 C 0.62097 0.40687 1.23246
 H2805 H 0.65102 0.40067 1.25991
 H2806 H 0.57497 0.37161 1.28006
 H2807 H 0.55804 0.38837 1.23969
 H2808 H 0.63444 0.41579 1.21911
 C2809 C 0.86872 1.10501 1.25404
 C2810 C 0.88568 1.11426 1.27320
 C2811 C 0.91244 1.11416 1.26828
 C2812 C 0.92206 1.10480 1.24472
 C2813 C 0.90508 1.09556 1.22548
 C2814 C 0.87828 1.09591 1.23041
 H2815 H 0.84798 1.10531 1.25714
 H2816 H 0.92593 1.12093 1.28284
 H2817 H 0.94282 1.10446 1.24171
 H2818 H 0.86461 1.08953 1.21584
 C2819 C 0.91319 0.61335 0.76900
 C2820 C 0.88647 0.61320 0.77409
 C2821 C 0.86947 0.60390 0.75500
 C2822 C 0.87895 0.59504 0.73125
 C2823 C 0.90572 0.59494 0.72613
 C2824 C 0.92275 0.60418 0.74532
 H2825 H 0.92670 0.62022 0.78350
 H2826 H 0.84875 0.60404 0.75822
 H2827 H 0.86521 0.58867 0.71673
 H2828 H 0.94349 0.60404 0.74219
 C2829 C 0.39818 1.13111 0.75621
 C2830 C 0.38826 1.11391 0.77478
 C2831 C 0.38789 1.08727 0.76923
 C2832 C 0.39730 1.07801 0.74554
 C2833 C 0.40696 1.09524 0.72675
 C2834 C 0.40725 1.12192 0.73240
 H2835 H 0.39826 1.15178 0.75983
 H2836 H 0.38058 1.07361 0.78335
 H2837 H 0.39720 1.05731 0.74206
 H2838 H 0.41397 1.13584 0.71823
 C2839 C 0.38298 0.58886 1.26748
 C2840 C 0.38659 0.61490 1.27486
 C2841 C 0.40045 0.63123 1.25792
 C2842 C 0.40959 0.62208 1.23414
 C2843 C 0.40617 0.59601 1.22686
 C2844 C 0.39306 0.57946 1.24414
 H2845 H 0.37316 0.57534 1.28013
 H2846 H 0.40315 0.65156 1.26225
 H2847 H 0.41878 0.63580 1.22124
 H2848 H 0.39068 0.55908 1.23986
 C2849 C 1.10795 1.25256 0.86760
 C2850 C 1.11722 1.27181 0.88446
 C2851 C 1.11673 1.26721 0.91129
 C2852 C 1.10692 1.24392 0.92106
 C2853 C 1.09759 1.22464 0.90419
 C2854 C 1.09837 1.22921 0.87732
 H2855 H 1.10852 1.25539 0.84682
 H2856 H 1.12346 1.28184 0.92473
 H2857 H 1.10629 1.24116 0.94186
 H2858 H 1.09190 1.21458 0.86374
 C2859 C 1.08747 0.76925 0.38749
 C2860 C 1.11421 0.77426 0.38711
 C2861 C 1.13134 0.75514 0.39615
 C2862 C 1.12198 0.73144 0.40522
 C2863 C 1.09522 0.72638 0.40573
 C2864 C 1.07806 0.74561 0.39681
 H2865 H 1.07384 0.78377 0.38088
 H2866 H 1.15206 0.75828 0.39563
 H2867 H 1.13579 0.71689 0.41137
 H2868 H 1.05732 0.74250 0.39729
 C2869 C 0.58792 1.26879 0.38740
 C2870 C 0.61467 1.27371 0.38688
 C2871 C 0.63177 1.25464 0.39609
 C2872 C 0.62237 1.23106 0.40543
 C2873 C 0.59560 1.22607 0.40603
 C2874 C 0.57847 1.24528 0.39700
 H2875 H 0.57432 1.28328 0.38068
 H2876 H 0.65250 1.25771 0.39548
 H2877 H 0.63615 1.21652 0.41168
 H2878 H 0.55772 1.24224 0.39755
 C2879 C 0.58931 0.76768 0.88623
 C2880 C 0.61607 0.77253 0.88596
 C2881 C 0.63304 0.75348 0.89541
 C2882 C 0.62347 0.72993 0.90471
 C2883 C 0.59666 0.72502 0.90506
 C2884 C 0.57969 0.74425 0.89581
 H2885 H 0.57580 0.78219 0.87937
 H2886 H 0.65377 0.75657 0.89505
 H2887 H 0.63714 0.71538 0.91116
 H2888 H 0.55892 0.74132 0.89621
 C2889 C 0.86902 1.25604 1.10150
 C2890 C 0.88512 1.27382 1.11460
 C2891 C 0.91151 1.26738 1.11761
 C2892 C 0.92143 1.24420 1.10760
 C2893 C 0.90517 1.22631 1.09498
 C2894 C 0.87878 1.23256 1.09228
 H2895 H 0.84848 1.25952 1.09933
 H2896 H 0.92487 1.28058 1.12688
 H2897 H 0.94198 1.24052 1.10954
 H2898 H 0.86534 1.21906 1.08352
 C2899 C 0.86897 0.75387 0.60524
 C2900 C 0.88594 0.77299 0.61454
 C2901 C 0.91270 0.76805 0.61440
 C2902 C 0.92231 0.74452 0.60495
 C2903 C 0.90532 0.72533 0.59566
 C2904 C 0.87852 0.73027 0.59604
 H2905 H 0.84823 0.75698 0.60556
 H2906 H 0.92620 0.78258 0.62121
 H2907 H 0.94307 0.74150 0.60459
 H2908 H 0.86484 0.71573 0.58961
 C2909 C 0.40036 1.25706 0.63130
 C2910 C 0.38697 1.27431 0.61489
 C2911 C 0.38356 1.26714 0.58875
 C2912 C 0.39342 1.24371 0.57933
 C2913 C 0.40617 1.22621 0.59591
 C2914 C 0.40934 1.23323 0.62208
 H2915 H 0.40289 1.26123 0.65169
 H2916 H 0.37412 1.27999 0.57515
 H2917 H 0.39122 1.23957 0.55889
 H2918 H 0.41827 1.22013 0.63579
 C2919 C 0.38258 0.76760 1.08866
 C2920 C 0.38641 0.77504 1.11466
 C2921 C 0.40037 0.75812 1.13094
 C2922 C 0.40943 0.73431 1.12178
 C2923 C 0.40583 0.72699 1.09574
 C2924 C 0.39257 0.74422 1.07925
 H2925 H 0.37266 0.78021 1.07517
 H2926 H 0.40323 0.76249 1.15124
 H2927 H 0.41871 0.72144 1.13548
 H2928 H 0.39004 0.73989 1.05889
 C2929 C 0.86770 0.74564 0.89551
 C2930 C 0.88476 0.72664 0.88606
 C2931 C 0.91148 0.73172 0.88614
 C2932 C 0.92097 0.75530 0.89554
 C2933 C 0.90389 0.77443 0.90484
 C2934 C 0.87713 0.76930 0.90467
 H2935 H 0.84698 0.74243 0.89527
 H2936 H 0.92507 0.71728 0.87926
 H2937 H 0.94171 0.75843 0.89578
 H2938 H 0.86338 0.78378 0.91115
 C2939 C 0.86856 0.24373 0.39747
 C2940 C 0.88576 0.22485 0.38805
 C2941 C 0.91243 0.23017 0.38797
 C2942 C 0.92173 0.25390 0.39717
 C2943 C 0.90451 0.27297 0.40636
 C2944 C 0.87780 0.26756 0.40636
 H2945 H 0.84787 0.24031 0.39731
 H2946 H 0.92609 0.21582 0.38106
 H2947 H 0.94244 0.25722 0.39729
 H2948 H 0.86392 0.28196 0.41274
 C2949 C 0.40916 0.73363 0.38170
 C2950 C 0.38303 0.72667 0.38547
 C2951 C 0.36704 0.74385 0.39945
 C2952 C 0.37663 0.76748 0.40857
 C2953 C 0.40280 0.77431 0.40497
 C2954 C 0.41897 0.75679 0.39171
 H2955 H 0.42248 0.72077 0.37185
 H2956 H 0.34669 0.73978 0.40233
 H2957 H 0.36321 0.78059 0.41793
 H2958 H 0.43940 0.76072 0.38921
 C2959 C 0.41077 0.23314 0.88319
 C2960 C 0.38463 0.22604 0.88663
 C2961 C 0.36828 0.24335 0.90004
 C2962 C 0.37753 0.26718 0.90897
 C2963 C 0.40370 0.27414 0.90573
 C2964 C 0.42023 0.25655 0.89300
 H2965 H 0.42434 0.22024 0.87375
 H2966 H 0.34790 0.23924 0.90260
 H2967 H 0.36385 0.28033 0.91788
 H2968 H 0.44066 0.26063 0.89077
 C2969 C 1.08796 0.73241 1.11814
 C2970 C 1.11431 0.72582 1.11504
 C2971 C 1.13049 0.74357 1.10203
 C2972 C 1.12084 0.76714 1.09292
 C2973 C 1.09449 0.77351 1.09566
 C2974 C 1.07815 0.75568 1.10825
 H2975 H 1.07455 0.71925 1.12738
 H2976 H 1.15101 0.73999 1.09981
 H2977 H 1.13435 0.78059 1.08420
 H2978 H 1.05763 0.75946 1.11023
 C2979 C 1.09957 0.24251 0.63061
 C2980 C 1.11338 0.22536 0.61442
 C2981 C 1.11722 0.23260 0.58836
 C2982 C 1.10738 0.25598 0.57881
 C2983 C 1.09423 0.27340 0.59520
 C2984 C 1.09064 0.26630 0.62130
 H2985 H 1.09671 0.23831 0.65094
 H2986 H 1.12703 0.21982 0.57493
 H2987 H 1.10992 0.26016 0.55842
 H2988 H 1.08145 0.27933 0.63492
 C2989 C 0.58698 0.73139 0.61331
 C2990 C 0.61370 0.72622 0.61303
 C2991 C 0.63068 0.74518 0.60346
 C2992 C 0.62119 0.76890 0.59452
 C2993 C 0.59444 0.77412 0.59464
 C2994 C 0.57743 0.75503 0.60409
 H2995 H 0.57348 0.71699 0.62036
 H2996 H 0.65140 0.74190 0.60348
 H2997 H 0.63491 0.78333 0.58797
 H2998 H 0.55670 0.75823 0.60410
 C2999 C 0.59899 0.24238 1.12969
 C3000 C 0.61290 0.22526 1.11356
 C3001 C 0.61672 0.23244 1.08748
 C3002 C 0.60672 0.25574 1.07786
 C3003 C 0.59342 0.27311 1.09421
 C3004 C 0.58990 0.26607 1.12032
 H3005 H 0.59618 0.23829 1.15005
 H3006 H 0.62666 0.21969 1.07412
 H3007 H 0.60927 0.25992 1.05747
 H3008 H 0.58065 0.27908 1.13392
 C3009 C 1.26745 1.11412 0.91128
 C3010 C 1.27263 1.11394 0.88457
 C3011 C 1.25403 1.10375 0.86755
 C3012 C 1.23053 1.09423 0.87702
 C3013 C 1.22527 1.09431 0.90379
 C3014 C 1.24412 1.10424 0.92081
 H3015 H 1.28165 1.12156 0.92480
 H3016 H 1.25744 1.10374 0.84685
 H3017 H 1.21630 1.08727 0.86327
 H3018 H 1.24098 1.10417 0.94156
 C3019 C 1.25371 0.60269 0.36769
 C3020 C 1.27220 0.61306 0.38472
 C3021 C 1.26685 0.61348 0.41139
 C3022 C 1.24345 0.60369 0.42087
 C3023 C 1.22467 0.59363 0.40384
 C3024 C 1.23013 0.59327 0.37710
 H3025 H 1.25722 0.60251 0.34700
 H3026 H 1.28096 0.62109 0.42492
 H3027 H 1.24017 0.60384 0.44160
 H3028 H 1.21598 0.58623 0.36332
 C3029 C 0.76692 1.11298 0.41161
 C3030 C 0.77192 1.11336 0.38486
 C3031 C 0.75303 1.10384 0.36776
 C3032 C 0.72949 1.09437 0.37719
 C3033 C 0.72443 1.09391 0.40398
 C3034 C 0.74351 1.10322 0.42109
 H3035 H 0.78132 1.11989 0.42522
 H3036 H 0.75624 1.10427 0.34703
 H3037 H 0.71506 1.08788 0.36341
 H3038 H 0.74047 1.10275 0.44185
 C3039 C 0.75258 0.63121 0.89437
 C3040 C 0.77155 0.61434 0.88456
 C3041 C 0.76661 0.58757 0.88439
 C3042 C 0.74324 0.57785 0.89405
 C3043 C 0.72418 0.59472 0.90384
 C3044 C 0.72912 0.62154 0.90376
 H3045 H 0.75571 0.65195 0.89432
 H3046 H 0.78104 0.57413 0.87721
 H3047 H 0.74026 0.55708 0.89417
 H3048 H 0.71468 0.63516 0.91057
 C3049 C 1.25335 0.86760 1.10342
 C3050 C 1.27185 0.88472 1.11363
 C3051 C 1.26633 0.91136 1.11412
 C3052 C 1.24278 0.92072 1.10454
 C3053 C 1.22403 0.90359 1.09460
 C3054 C 1.22964 0.87689 1.09420
 H3055 H 1.25699 0.84693 1.10319
 H3056 H 1.28042 0.92496 1.12163
 H3057 H 1.23938 0.94143 1.10472
 H3058 H 1.21551 0.86304 1.08724
 C3059 C 1.25657 0.36906 0.60142
 C3060 C 1.27512 0.38636 0.61121
 C3061 C 1.26949 0.41298 0.61154
 C3062 C 1.24574 0.42213 0.60224
 C3063 C 1.22695 0.40480 0.59272
 C3064 C 1.23270 0.37813 0.59246
 H3065 H 1.26026 0.34840 0.60137
 H3066 H 1.28360 0.42671 0.61876
 H3067 H 1.24218 0.44281 0.60232
 H3068 H 1.21854 0.36415 0.58585
 C3069 C 0.76698 0.91135 0.61375
 C3070 C 0.77211 0.88463 0.61395
 C3071 C 0.75328 0.86751 0.60433
 C3072 C 0.72969 0.87690 0.59492
 C3073 C 0.72450 0.90367 0.59465
 C3074 C 0.74350 0.92079 0.60408
 H3075 H 0.78131 0.92498 0.62074
 H3076 H 0.75658 0.84679 0.60462
 H3077 H 0.71532 0.86312 0.58833
 H3078 H 0.74035 0.94154 0.60375
 C3079 C 0.75050 0.36556 1.10771
 C3080 C 0.76942 0.38225 1.11786
 C3081 C 0.76478 0.40907 1.11778
 C3082 C 0.74173 0.41903 1.10763
 C3083 C 0.72266 0.40234 1.09758
 C3084 C 0.72732 0.37547 1.09782
 H3085 H 0.75346 0.34479 1.10786
 H3086 H 0.77922 0.42239 1.12512
 H3087 H 0.73900 0.43983 1.10734
 H3088 H 0.71286 0.36201 1.09076
 C3089 C 0.73355 1.11603 1.08845
 C3090 C 0.72874 1.11665 1.11524
 C3091 C 0.74790 1.10746 1.13227
 C3092 C 0.77135 1.09787 1.12275
 C3093 C 0.77615 1.09705 1.09593
 C3094 C 0.75695 1.10624 1.07888
 H3095 H 0.71901 1.12270 1.07488
 H3096 H 0.74494 1.10813 1.15303
 H3097 H 0.78590 1.09150 1.13645
 H3098 H 0.75988 1.10555 1.05811
 C3099 C 0.73352 0.61533 0.58847
 C3100 C 0.72852 0.61545 0.61523
 C3101 C 0.74743 0.60576 0.63223
 C3102 C 0.77093 0.59628 0.62269
 C3103 C 0.77596 0.59597 0.59589
 C3104 C 0.75691 0.60556 0.57889
 H3105 H 0.71913 0.62239 0.57495
 H3106 H 0.74423 0.60602 0.65296
 H3107 H 0.78534 0.58961 0.63640
 H3108 H 0.75994 0.60523 0.55812
 C3109 C 0.23261 1.08833 0.61404
 C3110 C 0.22716 1.11498 0.61338
 C3111 C 0.24569 1.13199 0.60309
 C3112 C 0.26937 1.12258 0.59395
 C3113 C 0.27492 1.09587 0.59450
 C3114 C 0.25614 1.07884 0.60454
 H3115 H 0.21848 1.07481 0.62163
 H3116 H 0.24210 1.15266 0.60275
 H3117 H 0.28354 1.13636 0.58693
 H3118 H 0.25952 1.05813 0.60485
 C3119 C 0.23416 0.59014 1.11693
 C3120 C 0.22954 0.61696 1.11723
 C3121 C 0.24850 0.63373 1.10732
 C3122 C 0.27172 0.62388 1.09747
 C3123 C 0.27636 0.59701 1.09701
 C3124 C 0.25725 0.58025 1.10681
 H3125 H 0.21968 0.57678 1.12411
 H3126 H 0.24555 0.65450 1.10765
 H3127 H 0.28622 0.63739 1.09060
 H3128 H 0.25999 0.55945 1.10636
 C3129 C 0.73311 0.91271 0.88514
 C3130 C 0.72817 0.88594 0.88506
 C3131 C 0.74729 0.86897 0.89440
 C3132 C 0.77086 0.87853 0.90359
 C3133 C 0.77580 0.90534 0.90394
 C3134 C 0.75662 0.92233 0.89460
 H3135 H 0.71858 0.92622 0.87831
 H3136 H 0.74419 0.84823 0.89412
 H3137 H 0.78540 0.86484 0.91005
 H3138 H 0.75962 0.94309 0.89492
 C3139 C 0.73455 0.41062 0.38223
 C3140 C 0.72965 0.38386 0.38260
 C3141 C 0.74849 0.36711 0.39282
 C3142 C 0.77182 0.37690 0.40240
 C3143 C 0.77671 0.40373 0.40232
 C3144 C 0.75776 0.42048 0.39212
 H3145 H 0.72019 0.42395 0.37475
 H3146 H 0.74533 0.34637 0.39296
 H3147 H 0.78619 0.36337 0.40953
 H3148 H 0.76067 0.44125 0.39213
 C3149 C 0.23414 0.91121 0.38378
 C3150 C 0.22921 0.88446 0.38399
 C3151 C 0.24807 0.86761 0.39400
 C3152 C 0.27148 0.87730 0.40349
 C3153 C 0.27643 0.90412 0.40353
 C3154 C 0.25742 0.92097 0.39359
 H3155 H 0.21976 0.92462 0.37647
 H3156 H 0.24488 0.84688 0.39402
 H3157 H 0.28588 0.86371 0.41044
 H3158 H 0.26037 0.94174 0.39371
 C3159 C 0.23067 0.38870 0.91331
 C3160 C 0.22523 0.38901 0.88665
 C3161 C 0.24396 0.39870 0.86948
 C3162 C 0.26777 0.40762 0.87872
 C3163 C 0.27331 0.40740 0.90542
 C3164 C 0.25438 0.39795 0.92263
 H3165 H 0.21644 0.38153 0.92695
 H3166 H 0.24047 0.39870 0.84879
 H3167 H 0.28205 0.41417 0.86483
 H3168 H 0.25779 0.39788 0.94334
   
