data_POSCAR
  _audit_creation_date              2014-09-24
  _audit_creation_method            'ToBaCCo'
  _symmetry_space_group_name_H-M    'P1'
  _symmetry_Int_Tables_number       1
  _symmetry_cell_setting            triclinic
  loop_
  _symmetry_equiv_pos_as_xyz
 x,y,z
_cell_length_a 70.0099
_cell_length_b 71.4149
_cell_length_c 74.5933
_cell_angle_alpha 89.959100
_cell_angle_beta 89.899300
_cell_angle_gamma 90.291500
loop_
  _atom_site_label
  _atom_site_type_symbol
  _atom_site_fract_x
  _atom_site_fract_y
  _atom_site_fract_z
N1 N 0.35009 0.35705 0.35141
 N2 N 0.32866 0.84608 -0.16103
 N3 N 0.83065 0.33916 -0.16043
 N4 N 0.84204 0.84560 0.34964
 N5 N 0.65949 0.64825 0.34607
 N6 N 0.65711 0.15428 -0.15530
 N7 N 0.15871 0.66225 -0.15217
 N8 N 0.17116 0.16153 0.34025
 N9 N 0.65249 0.33800 0.65031
 N10 N 0.66264 0.84589 1.16070
 N11 N 0.16577 0.34288 1.14626
 N12 N 0.14072 0.83703 0.64753
 N13 N 0.33201 0.65692 0.65524
 N14 N 0.36364 0.16651 1.14270
 N15 N 0.85248 0.66413 1.16355
 N16 N 0.83574 0.14120 0.65650
 N17 N 0.34090 0.34810 0.65769
 N18 N 0.35152 0.84556 0.15217
 N19 N 0.84941 0.34004 0.14963
 N20 N 0.83634 0.83799 0.65785
 N21 N 0.64862 0.65805 0.65362
 N22 N 0.65736 0.15950 0.15882
 N23 N 0.15999 0.66410 0.15838
 N24 N 0.15041 0.16029 0.64713
 N25 N 0.33672 0.66036 0.34088
 N26 N 0.33682 0.14321 0.83990
 N27 N 0.82998 0.65269 0.84819
 N28 N 0.85625 0.15563 0.35047
 N29 N 0.66608 0.34952 0.35376
 N30 N 0.64659 0.83418 0.85861
 N31 N 0.15346 0.33638 0.83856
 N32 N 0.17422 0.85865 0.34229
 O33 O 0.27419 1.02823 0.26740
 O34 O 0.29691 0.99157 0.24021
 O35 O 0.29881 1.02791 0.24125
 O36 O 0.27160 0.99187 0.26600
 O37 O 0.24817 0.99420 0.24641
 O38 O 0.27566 1.02951 0.22130
 O39 O 0.27319 0.99295 0.22081
 O40 O 0.25105 1.03048 0.24750
 Cu41 Cu 0.28772 1.00967 0.25569
 Cu42 Cu 0.25971 1.01201 0.23199
 C43 C 0.25878 1.03571 0.26208
 C44 C 0.28887 0.98588 0.22596
 C45 C 0.29186 1.03489 0.22701
 C46 C 0.25516 0.98692 0.26045
 O47 O 0.21762 0.48265 0.75668
 O48 O 0.24104 0.51781 0.72781
 O49 O 0.24095 0.48115 0.72978
 O50 O 0.21728 0.51897 0.75460
 O51 O 0.24155 0.52025 0.77338
 O52 O 0.26552 0.48267 0.74826
 O53 O 0.26549 0.51887 0.74644
 O54 O 0.24207 0.48376 0.77527
 Cu55 Cu 0.22680 0.50006 0.74031
 Cu56 Cu 0.25608 0.50158 0.76274
 C57 C 0.22590 0.47708 0.77084
 C58 C 0.25730 0.52430 0.73220
 C59 C 0.25721 0.47537 0.73483
 C60 C 0.22530 0.52603 0.76829
 O61 O 0.75603 -0.01410 0.22978
 O62 O 0.78277 0.02313 0.25344
 O63 O 0.78193 -0.01333 0.25470
 O64 O 0.75767 0.02234 0.22768
 O65 O 0.73448 0.02377 0.24767
 O66 O 0.75932 -0.01156 0.27523
 O67 O 0.75937 0.02511 0.27322
 O68 O 0.73338 -0.01259 0.25031
 Cu69 Cu 0.77190 0.00434 0.23938
 Cu70 Cu 0.74437 0.00631 0.26367
 C71 C 0.74014 -0.01978 0.23611
 C72 C 0.77540 0.03067 0.26723
 C73 C 0.77482 -0.01863 0.26953
 C74 C 0.74197 0.02921 0.23301
 O75 O 0.73053 0.47971 0.72906
 O76 O 0.75706 0.51595 0.75373
 O77 O 0.75602 0.47940 0.75417
 O78 O 0.73108 0.51620 0.72879
 O79 O 0.70846 0.51674 0.74939
 O80 O 0.73341 0.48011 0.77477
 O81 O 0.73448 0.51661 0.77436
 O82 O 0.70784 0.48016 0.74960
 Cu83 Cu 0.74594 0.49781 0.73939
 Cu84 Cu 0.71877 0.49851 0.76409
 C85 C 0.71475 0.47357 0.73517
 C86 C 0.75036 0.52253 0.76824
 C87 C 0.74887 0.47333 0.76874
 C88 C 0.71548 0.52278 0.73477
 O89 O 0.25130 0.48251 0.22221
 O90 O 0.27536 0.51805 0.24984
 O91 O 0.27274 0.48188 0.25060
 O92 O 0.25312 0.51916 0.22186
 O93 O 0.22769 0.52058 0.23929
 O94 O 0.24735 0.48363 0.26804
 O95 O 0.24974 0.52012 0.26702
 O96 O 0.22573 0.48424 0.23946
 Cu97 Cu 0.26564 0.50023 0.23432
 Cu98 Cu 0.23507 0.50223 0.25520
 C99 C 0.23445 0.47724 0.22612
 C100 C 0.26666 0.52520 0.26310
 C101 C 0.26344 0.47647 0.26432
 C102 C 0.23707 0.52636 0.22578
 O103 O 0.71358 0.97092 0.75921
 O104 O 0.74053 1.00669 0.73376
 O105 O 0.73869 0.96997 0.73376
 O106 O 0.71459 1.00724 0.75899
 O107 O 0.73781 1.00704 0.77899
 O108 O 0.76183 0.96947 0.75383
 O109 O 0.76343 1.00582 0.75400
 O110 O 0.73645 0.97042 0.77950
 Cu111 Cu 0.72459 0.98882 0.74435
 Cu112 Cu 0.75216 0.98809 0.76863
 C113 C 0.72046 0.96452 0.77371
 C114 C 0.75657 1.01245 0.73961
 C115 C 0.75425 0.96323 0.73955
 C116 C 0.72211 1.01356 0.77325
 O117 O 0.76359 0.51664 0.27256
 O118 O 0.78812 0.48024 0.24663
 O119 O 0.78831 0.51687 0.24648
 O120 O 0.76257 0.48021 0.27201
 O121 O 0.73939 0.48084 0.25203
 O122 O 0.76515 0.51695 0.22650
 O123 O 0.76490 0.48035 0.22669
 O124 O 0.74042 0.51726 0.25259
 Cu125 Cu 0.77800 0.49845 0.26139
 Cu126 Cu 0.75018 0.49890 0.23743
 C127 C 0.74785 0.52323 0.26706
 C128 C 0.78068 0.47389 0.23235
 C129 C 0.78102 0.52325 0.23214
 C130 C 0.74652 0.47427 0.26634
 O131 O 0.23614 -0.02070 0.71446
 O132 O 0.25833 0.01644 0.74173
 O133 O 0.26018 -0.01966 0.74122
 O134 O 0.23429 0.01586 0.71510
 O135 O 0.21025 0.01419 0.73420
 O136 O 0.23593 -0.02153 0.76010
 O137 O 0.23409 0.01504 0.76068
 O138 O 0.21203 -0.02217 0.73349
 Cu139 Cu 0.24962 -0.00188 0.72615
 Cu140 Cu 0.22067 -0.00381 0.74904
 C141 C 0.22029 -0.02782 0.71933
 C142 C 0.24998 0.02210 0.75584
 C143 C 0.25248 -0.02660 0.75516
 C144 C 0.21790 0.02123 0.72028
 O145 O 0.25850 0.27596 0.97226
 O146 O 0.28361 0.25108 1.00847
 O147 O 0.28345 0.24911 0.97352
 O148 O 0.25883 0.27798 1.00720
 O149 O 0.23548 0.25718 1.00854
 O150 O 0.26011 0.22829 0.97484
 O151 O 0.26025 0.23027 1.00966
 O152 O 0.23518 0.25512 0.97351
 Cu153 Cu 0.27343 0.26562 0.99022
 Cu154 Cu 0.24539 0.24067 0.99175
 C155 C 0.24260 0.26971 0.96660
 C156 C 0.27618 0.23647 1.01533
 C157 C 0.27599 0.23378 0.96838
 C158 C 0.24304 0.27243 1.01379
 O159 O 0.24790 0.77519 0.48021
 O160 O 0.27029 0.74767 0.51639
 O161 O 0.27328 0.74883 0.48153
 O162 O 0.24578 0.77486 0.51517
 O163 O 0.22262 0.75387 0.51362
 O164 O 0.25005 0.72797 0.47948
 O165 O 0.24714 0.72673 0.51427
 O166 O 0.22461 0.75435 0.47866
 Cu167 Cu 0.26163 0.76374 0.49851
 Cu168 Cu 0.23377 0.73865 0.49632
 C169 C 0.23243 0.76938 0.47319
 C170 C 0.26246 0.73248 0.52155
 C171 C 0.26637 0.73404 0.47463
 C172 C 0.22961 0.76877 0.52032
 O173 O 0.27469 0.75793 -0.01665
 O174 O 0.25046 0.73116 0.01880
 O175 O 0.24941 0.73135 -0.01623
 O176 O 0.27484 0.75879 0.01824
 O177 O 0.25168 0.77961 0.01793
 O178 O 0.22554 0.75142 -0.01517
 O179 O 0.22735 0.75202 0.01961
 O180 O 0.25102 0.77818 -0.01701
 Cu181 Cu 0.26468 0.74274 0.00104
 Cu182 Cu 0.23657 0.76739 0.00135
 C183 C 0.26697 0.77250 -0.02307
 C184 C 0.23488 0.73704 0.02541
 C185 C 0.23306 0.73670 -0.02150
 C186 C 0.26760 0.77396 0.02394
 O187 O 0.22742 0.25660 0.48178
 O188 O 0.25337 0.27973 0.51884
 O189 O 0.25264 0.28329 0.48407
 O190 O 0.22693 0.25398 0.51674
 O191 O 0.24951 0.23264 0.51503
 O192 O 0.27542 0.26215 0.48228
 O193 O 0.27588 0.25833 0.51700
 O194 O 0.25017 0.23543 0.48010
 Cu195 Cu 0.23781 0.27050 0.50056
 Cu196 Cu 0.26499 0.24499 0.49843
 C197 C 0.23452 0.24212 0.47448
 C198 C 0.26910 0.27293 0.52425
 C199 C 0.26838 0.27776 0.47752
 C200 C 0.23380 0.23836 0.52157
 O201 O 0.75171 0.77158 0.98923
 O202 O 0.77982 0.74760 1.02368
 O203 O 0.77620 0.74432 0.98898
 O204 O 0.75436 0.77393 1.02393
 O205 O 0.73121 0.75312 1.02710
 O206 O 0.75303 0.72359 0.99250
 O207 O 0.75677 0.72676 1.02725
 O208 O 0.72849 0.75086 0.99245
 Cu209 Cu 0.76786 0.76140 1.00611
 Cu210 Cu 0.74010 0.73646 1.01017
 C211 C 0.73531 0.76542 0.98493
 C212 C 0.77312 0.73320 1.03150
 C213 C 0.76824 0.72892 0.98468
 C214 C 0.73897 0.76855 1.03146
 O215 O 0.72789 0.24507 0.51646
 O216 O 0.75794 0.22105 0.48311
 O217 O 0.75225 0.21781 0.51749
 O218 O 0.73322 0.24816 0.48200
 O219 O 0.75641 0.26856 0.48678
 O220 O 0.77541 0.23820 0.52238
 O221 O 0.78106 0.24151 0.48794
 O222 O 0.75104 0.26554 0.52117
 Cu223 Cu 0.74050 0.23098 0.49925
 Cu224 Cu 0.76832 0.25548 0.50506
 C225 C 0.73436 0.25941 0.52456
 C226 C 0.77463 0.22722 0.47977
 C227 C 0.76702 0.22286 0.52610
 C228 C 0.74154 0.26354 0.47828
 O229 O 0.77186 0.24903 -0.01818
 O230 O 0.74721 0.22300 0.01738
 O231 O 0.74535 0.22338 -0.01749
 O232 O 0.77209 0.25012 0.01682
 O233 O 0.74943 0.27146 0.01677
 O234 O 0.72266 0.24468 -0.01675
 O235 O 0.72454 0.24432 0.01815
 O236 O 0.74910 0.27026 -0.01823
 Cu237 Cu 0.76141 0.23428 -0.00041
 Cu238 Cu 0.73418 0.25982 0.00004
 C239 C 0.76470 0.26393 -0.02449
 C240 C 0.73176 0.22917 0.02397
 C241 C 0.72937 0.22956 -0.02299
 C242 C 0.76520 0.26539 0.02271
 O243 O 0.77085 0.75144 0.48255
 O244 O 0.74581 0.72250 0.51630
 O245 O 0.74559 0.72461 0.48132
 O246 O 0.77182 0.74855 0.51734
 O247 O 0.74915 0.76981 0.51908
 O248 O 0.72275 0.74569 0.48300
 O249 O 0.72310 0.74373 0.51793
 O250 O 0.74797 0.77248 0.48430
 Cu251 Cu 0.76078 0.73464 0.49919
 Cu252 Cu 0.73345 0.76002 0.50126
 C253 C 0.76365 0.76692 0.47764
 C254 C 0.73019 0.72828 0.52299
 C255 C 0.72976 0.73108 0.47589
 C256 C 0.76501 0.76325 0.52441
 O257 O 0.99024 0.25478 0.27492
 O258 O 1.02711 0.28129 0.24991
 O259 O 0.98982 0.28045 0.25001
 O260 O 1.02738 0.25652 0.27549
 O261 O 1.02838 0.23425 0.25505
 O262 O 0.99060 0.25821 0.22953
 O263 O 1.02772 0.25901 0.22947
 O264 O 0.99125 0.23262 0.25437
 Cu265 Cu 1.00853 0.27051 0.26462
 Cu266 Cu 1.00956 0.24379 0.24006
 C267 C 0.98449 0.23909 0.26888
 C268 C 1.03373 0.27461 0.23539
 C269 C 0.98376 0.27347 0.23543
 C270 C 1.03436 0.24133 0.26965
 O271 O 0.51382 0.26771 0.74627
 O272 O 0.47757 0.24205 0.77212
 O273 O 0.51482 0.24207 0.77112
 O274 O 0.47663 0.26653 0.74634
 O275 O 0.47682 0.24415 0.72598
 O276 O 0.51455 0.21975 0.75070
 O277 O 0.47721 0.21969 0.75175
 O278 O 0.51397 0.24540 0.72584
 Cu279 Cu 0.49574 0.25681 0.76100
 Cu280 Cu 0.49567 0.22998 0.73657
 C281 C 0.52012 0.26104 0.73165
 C282 C 0.47100 0.22661 0.76634
 C283 C 0.52124 0.22668 0.76506
 C284 C 0.47018 0.25945 0.73190
 O285 O -0.02746 0.27188 0.75083
 O286 O 0.00809 0.24829 0.72272
 O287 O -0.02906 0.24768 0.72453
 O288 O 0.00965 0.27103 0.74973
 O289 O 0.00906 0.24797 0.76946
 O290 O -0.02781 0.22377 0.74320
 O291 O 0.00946 0.22500 0.74209
 O292 O -0.02808 0.24771 0.76930
 Cu293 Cu -0.00980 0.26207 0.73503
 Cu294 Cu -0.00924 0.23372 0.75790
 C295 C -0.03396 0.26384 0.76475
 C296 C 0.01509 0.23277 0.72764
 C297 C -0.03498 0.23164 0.72954
 C298 C 0.01575 0.26353 0.76406
 O299 O 0.52182 0.25605 0.28492
 O300 O 0.48549 0.23351 0.25629
 O301 O 0.52247 0.23116 0.25940
 O302 O 0.48458 0.25746 0.28210
 O303 O 0.48792 0.28049 0.26256
 O304 O 0.52575 0.25391 0.23960
 O305 O 0.48896 0.25620 0.23641
 O306 O 0.52501 0.27871 0.26503
 Cu307 Cu 0.50333 0.24228 0.27270
 Cu308 Cu 0.50722 0.26965 0.24895
 C309 C 0.52974 0.27120 0.27978
 C310 C 0.48102 0.24107 0.24146
 C311 C 0.53057 0.23796 0.24559
 C312 C 0.47961 0.27333 0.27611
 O313 O 1.01112 0.70975 0.74998
 O314 O 0.97132 0.73112 0.72501
 O315 O 1.00842 0.73229 0.72274
 O316 O 0.97398 0.70795 0.75204
 O317 O 0.97375 0.73231 0.77024
 O318 O 1.00900 0.75620 0.74144
 O319 O 0.97196 0.75526 0.74343
 O320 O 1.01112 0.73365 0.76869
 Cu321 Cu 0.99115 0.71784 0.73560
 Cu322 Cu 0.99150 0.74673 0.75785
 C323 C 1.01802 0.71814 0.76355
 C324 C 0.96488 0.74693 0.72994
 C325 C 1.01471 0.74836 0.72713
 C326 C 0.96781 0.71607 0.76602
 O327 O 0.52422 0.76974 0.25038
 O328 O 0.48513 0.74424 0.27308
 O329 O 0.52239 0.74243 0.27352
 O330 O 0.48710 0.77151 0.25000
 O331 O 0.48682 0.75135 0.22762
 O332 O 0.52111 0.72167 0.25167
 O333 O 0.48403 0.72411 0.25069
 O334 O 0.52404 0.74868 0.22873
 Cu335 Cu 0.50478 0.75902 0.26398
 Cu336 Cu 0.50388 0.73443 0.23744
 C337 C 0.53099 0.76337 0.23580
 C338 C 0.47777 0.72990 0.26567
 C339 C 0.52783 0.72709 0.26661
 C340 C 0.48094 0.76642 0.23475
 O341 O -0.01021 0.78750 0.26210
 O342 O 0.02594 0.76335 0.23499
 O343 O -0.01120 0.76220 0.23673
 O344 O 0.02696 0.78761 0.26098
 O345 O 0.02755 0.76506 0.28118
 O346 O -0.00961 0.73938 0.25661
 O347 O 0.02738 0.74075 0.25510
 O348 O -0.00984 0.76436 0.28174
 Cu349 Cu 0.00774 0.77746 0.24671
 Cu350 Cu 0.00902 0.75016 0.27070
 C351 C -0.01635 0.77999 0.27643
 C352 C 0.03290 0.74796 0.24037
 C353 C -0.01682 0.74632 0.24251
 C354 C 0.03377 0.78062 0.27527
 O355 O 0.50860 0.74221 0.78062
 O356 O 0.47084 0.72180 0.75226
 O357 O 0.50795 0.71928 0.75375
 O358 O 0.47129 0.74447 0.77952
 O359 O 0.47319 0.76812 0.76055
 O360 O 0.51089 0.74347 0.73554
 O361 O 0.47380 0.74546 0.73341
 O362 O 0.51032 0.76664 0.76253
 Cu363 Cu 0.48940 0.72956 0.76842
 Cu364 Cu 0.49232 0.75833 0.74616
 C365 C 0.51592 0.75791 0.77638
 C366 C 0.46588 0.73013 0.73796
 C367 C 0.51585 0.72712 0.74036
 C368 C 0.46574 0.76048 0.77429
 C369 C 0.38432 0.34922 0.35218
 C370 C 0.40063 0.34204 0.34387
 C371 C 0.39963 0.33500 0.32634
 C372 C 0.38225 0.33591 0.31697
 C373 C 0.36609 0.34347 0.32514
 C374 C 0.36698 0.34995 0.34285
 C375 C 0.41674 0.32667 0.31804
 C376 C 0.41561 0.31091 0.30841
 C377 C 0.43252 0.30173 0.30067
 C378 C 0.43342 0.28214 0.30074
 C379 C 0.44901 0.27298 0.29313
 C380 C 0.46369 0.28326 0.28479
 C381 C 0.46270 0.30289 0.28448
 C382 C 0.44732 0.31209 0.29254
 H383 H 0.38515 0.35427 0.36584
 H384 H 0.41393 0.34154 0.35126
 H385 H 0.38122 0.33088 0.30331
 H386 H 0.35276 0.34399 0.31781
 H387 H 0.43057 0.33278 0.32101
 H388 H 0.40198 0.30374 0.30719
 H389 H 0.42208 0.27392 0.30682
 H390 H 0.44936 0.25782 0.29339
 H391 H 0.47384 0.31109 0.27807
 H392 H 0.44674 0.32723 0.29204
 C393 C 0.35963 0.84876 0.82327
 C394 C 0.37595 0.84061 0.81591
 C395 C 0.37883 0.82119 0.81696
 C396 C 0.36484 0.81004 0.82551
 C397 C 0.34856 0.81824 0.83296
 C398 C 0.34578 0.83766 0.83188
 C399 C 0.39606 0.81322 0.80821
 C400 C 0.40258 0.79584 0.81118
 C401 C 0.41935 0.78769 0.80181
 C402 C 0.42768 0.77145 0.80890
 C403 C 0.44293 0.76277 0.80015
 C404 C 0.45021 0.77014 0.78405
 C405 C 0.44199 0.78645 0.77697
 C406 C 0.42667 0.79507 0.78565
 H407 H 0.35780 0.86376 0.82227
 H408 H 0.38636 0.84953 0.80930
 H409 H 0.36605 0.79498 0.82615
 H410 H 0.33787 0.80937 0.83921
 H411 H 0.40384 0.82242 0.79927
 H412 H 0.39575 0.78716 0.82121
 H413 H 0.42228 0.76536 0.82123
 H414 H 0.44890 0.75019 0.80594
 H415 H 0.44712 0.79236 0.76447
 H416 H 0.42039 0.80717 0.77931
 C417 C -0.15731 0.32047 0.81427
 C418 C -0.14287 0.30997 0.80619
 C419 C -0.12505 0.30806 0.81455
 C420 C -0.12205 0.31641 0.83140
 C421 C -0.13667 0.32654 0.83966
 C422 C -0.15430 0.32875 0.83107
 C423 C -0.11000 0.29705 0.80560
 C424 C -0.09161 0.30227 0.80583
 C425 C -0.07681 0.29210 0.79567
 C426 C -0.06268 0.30232 0.78655
 C427 C -0.04883 0.29310 0.77641
 C428 C -0.04849 0.27345 0.77570
 C429 C -0.06227 0.26317 0.78530
 C430 C -0.07647 0.27242 0.79506
 H431 H -0.17094 0.32196 0.80759
 H432 H -0.14551 0.30356 0.79327
 H433 H -0.10856 0.31483 0.83829
 H434 H -0.13424 0.33278 0.85269
 H435 H -0.11436 0.28524 0.79742
 H436 H -0.08753 0.31525 0.81234
 H437 H -0.06263 0.31748 0.78696
 H438 H -0.03825 0.30133 0.76924
 H439 H -0.06229 0.24801 0.78496
 H440 H -0.08703 0.26422 0.80226
 C441 C -0.14367 0.83122 0.32286
 C442 C -0.12825 0.82262 0.31432
 C443 C -0.11051 0.82132 0.32294
 C444 C -0.10846 0.82859 0.34035
 C445 C -0.12402 0.83677 0.34905
 C446 C -0.14168 0.83813 0.34034
 C447 C -0.09469 0.81151 0.31389
 C448 C -0.07652 0.81731 0.31504
 C449 C -0.06097 0.80757 0.30554
 C450 C -0.04699 0.81808 0.29650
 C451 C -0.03248 0.80909 0.28697
 C452 C -0.03136 0.78946 0.28686
 C453 C -0.04498 0.77896 0.29642
 C454 C -0.05981 0.78793 0.30553
 H455 H -0.15732 0.83202 0.31611
 H456 H -0.13016 0.81698 0.30096
 H457 H -0.09503 0.82742 0.34743
 H458 H -0.12241 0.84193 0.36261
 H459 H -0.09823 0.79981 0.30525
 H460 H -0.07314 0.83019 0.32205
 H461 H -0.04758 0.83323 0.29648
 H462 H -0.02205 0.81748 0.27978
 H463 H -0.04441 0.76380 0.29651
 H464 H -0.07028 0.77955 0.31268
 C465 C 0.62765 0.66262 0.34967
 C466 C 0.61170 0.67155 0.34243
 C467 C 0.61039 0.67475 0.32390
 C468 C 0.62551 0.66900 0.31275
 C469 C 0.64144 0.66009 0.32000
 C470 C 0.64269 0.65685 0.33853
 C471 C 0.59361 0.68498 0.31684
 C472 C 0.58775 0.68371 0.29977
 C473 C 0.57162 0.69458 0.29229
 C474 C 0.56311 0.68836 0.27634
 C475 C 0.54863 0.69870 0.26821
 C476 C 0.54240 0.71562 0.27580
 C477 C 0.55079 0.72180 0.29185
 C478 C 0.56529 0.71145 0.29999
 H479 H 0.62831 0.66025 0.36399
 H480 H 0.60035 0.67599 0.35133
 H481 H 0.62542 0.67180 0.29850
 H482 H 0.65304 0.65608 0.31121
 H483 H 0.58559 0.69335 0.32627
 H484 H 0.59470 0.67393 0.29084
 H485 H 0.56780 0.67551 0.27005
 H486 H 0.54251 0.69357 0.25582
 H487 H 0.54643 0.73485 0.29796
 H488 H 0.57184 0.71706 0.31197
 C489 C 0.64037 0.18381 0.83750
 C490 C 0.62494 0.19330 0.82992
 C491 C 0.60990 0.18341 0.82178
 C492 C 0.61042 0.16368 0.82179
 C493 C 0.62590 0.15421 0.82929
 C494 C 0.64104 0.16415 0.83719
 C495 C 0.59391 0.19412 0.81373
 C496 C 0.58226 0.18709 0.80110
 C497 C 0.56664 0.19775 0.79238
 C498 C 0.55915 0.19086 0.77623
 C499 C 0.54442 0.20023 0.76744
 C500 C 0.53672 0.21674 0.77463
 C501 C 0.54401 0.22357 0.79092
 C502 C 0.55876 0.21415 0.79977
 H503 H 0.65193 0.19181 0.84339
 H504 H 0.62486 0.20847 0.83023
 H505 H 0.59885 0.15543 0.81629
 H506 H 0.62595 0.13905 0.82913
 H507 H 0.59252 0.20861 0.81771
 H508 H 0.58478 0.17311 0.79608
 H509 H 0.56480 0.17821 0.77029
 H510 H 0.53913 0.19454 0.75494
 H511 H 0.53826 0.23617 0.79690
 H512 H 0.56365 0.21968 0.81245
 C513 C 1.12744 0.67809 0.84996
 C514 C 1.11101 0.68528 0.84192
 C515 C 1.10858 0.68439 0.82326
 C516 C 1.12325 0.67661 0.81273
 C517 C 1.13966 0.66943 0.82078
 C518 C 1.14186 0.66994 0.83949
 C519 C 1.09096 0.69228 0.81527
 C520 C 1.08416 0.68710 0.79919
 C521 C 1.06672 0.69509 0.79092
 C522 C 1.05792 0.68525 0.77686
 C523 C 1.04194 0.69256 0.76816
 C524 C 1.03442 0.70996 0.77327
 C525 C 1.04317 0.71981 0.78738
 C526 C 1.05918 0.71252 0.79606
 H527 H 1.12880 0.67869 0.86441
 H528 H 1.10006 0.69139 0.85033
 H529 H 1.12233 0.67633 0.79826
 H530 H 1.15078 0.66364 0.81237
 H531 H 1.08300 0.70206 0.82339
 H532 H 1.09123 0.67603 0.79188
 H533 H 1.06349 0.67187 0.77253
 H534 H 1.03558 0.68464 0.75730
 H535 H 1.03785 0.73335 0.79153
 H536 H 1.06582 0.72089 0.80642
 C537 C 1.15601 0.17281 0.31240
 C538 C 1.14062 0.18082 0.30339
 C539 C 1.12431 0.18658 0.31283
 C540 C 1.12363 0.18391 0.33154
 C541 C 1.13907 0.17588 0.34054
 C542 C 1.15539 0.17024 0.33105
 C543 C 1.10824 0.19473 0.30256
 C544 C 1.09488 0.20579 0.30984
 C545 C 1.07928 0.21440 0.29929
 C546 C 1.07084 0.23086 0.30573
 C547 C 1.05624 0.23956 0.29613
 C548 C 1.04962 0.23189 0.27993
 C549 C 1.05778 0.21519 0.27365
 C550 C 1.07241 0.20649 0.28325
 H551 H 1.16848 0.16864 0.30481
 H552 H 1.14149 0.18261 0.28899
 H553 H 1.11111 0.18758 0.33925
 H554 H 1.13818 0.17374 0.35489
 H555 H 1.10814 0.19228 0.28824
 H556 H 1.09596 0.20972 0.32381
 H557 H 1.07572 0.23714 0.31813
 H558 H 1.05019 0.25236 0.30140
 H559 H 1.05286 0.20882 0.26132
 H560 H 1.07806 0.19347 0.27815
 C561 C 0.63755 0.30800 0.65942
 C562 C 0.62234 0.29796 0.66693
 C563 C 0.60589 0.30723 0.67292
 C564 C 0.60471 0.32678 0.67068
 C565 C 0.61994 0.33681 0.66318
 C566 C 0.63656 0.32755 0.65762
 C567 C 0.59035 0.29604 0.68129
 C568 C 0.57779 0.30325 0.69297
 C569 C 0.56297 0.29200 0.70237
 C570 C 0.55535 0.29902 0.71840
 C571 C 0.54147 0.28897 0.72786
 C572 C 0.53475 0.27165 0.72143
 C573 C 0.54213 0.26471 0.70523
 C574 C 0.55606 0.27479 0.69575
 H575 H 0.65024 0.30055 0.65528
 H576 H 0.62356 0.28291 0.66835
 H577 H 0.59202 0.33438 0.67449
 H578 H 0.61875 0.35184 0.66161
 H579 H 0.59022 0.28114 0.67865
 H580 H 0.57910 0.31780 0.69683
 H581 H 0.56029 0.31230 0.72373
 H582 H 0.53604 0.29478 0.74025
 H583 H 0.53711 0.25150 0.69984
 H584 H 0.56111 0.26916 0.68316
 C585 C 0.62793 0.84030 0.16156
 C586 C 0.61169 0.83323 0.17021
 C587 C 0.61330 0.82432 0.18691
 C588 C 0.63129 0.82327 0.19519
 C589 C 0.64743 0.83079 0.18674
 C590 C 0.64586 0.83911 0.16979
 C591 C 0.59611 0.81625 0.19550
 C592 C 0.59642 0.79944 0.20343
 C593 C 0.57920 0.79067 0.21131
 C594 C 0.57641 0.77133 0.20937
 C595 C 0.56045 0.76256 0.21697
 C596 C 0.54733 0.77290 0.22715
 C597 C 0.55025 0.79224 0.22933
 C598 C 0.56596 0.80111 0.22130
 H599 H 0.62659 0.84675 0.14849
 H600 H 0.59793 0.83427 0.16368
 H601 H 0.63283 0.81675 0.20822
 H602 H 0.66124 0.82981 0.19319
 H603 H 0.58269 0.82360 0.19407
 H604 H 0.60941 0.79125 0.20307
 H605 H 0.58653 0.76302 0.20183
 H606 H 0.55861 0.74760 0.21525
 H607 H 0.54034 0.80050 0.23715
 H608 H 0.56800 0.81601 0.22325
 C609 C 1.14851 0.31425 0.15579
 C610 C 1.13353 0.30555 0.16503
 C611 C 1.11984 0.31623 0.17421
 C612 C 1.12128 0.33590 0.17363
 C613 C 1.13632 0.34457 0.16443
 C614 C 1.15006 0.33384 0.15542
 C615 C 1.10415 0.30627 0.18371
 C616 C 1.09333 0.31404 0.19657
 C617 C 1.07786 0.30380 0.20612
 C618 C 1.07180 0.31034 0.22294
 C619 C 1.05737 0.30100 0.23244
 C620 C 1.04864 0.28492 0.22526
 C621 C 1.05441 0.27860 0.20826
 C622 C 1.06875 0.28797 0.19874
 H623 H 1.15906 0.30567 0.14910
 H624 H 1.13273 0.29040 0.16515
 H625 H 1.11075 0.34471 0.17997
 H626 H 1.13714 0.35971 0.16416
 H627 H 1.10215 0.29164 0.18044
 H628 H 1.09641 0.32813 0.20105
 H629 H 1.07841 0.32261 0.22885
 H630 H 1.05319 0.30626 0.24547
 H631 H 1.04778 0.26641 0.20223
 H632 H 1.07238 0.28287 0.18554
 C633 C 1.10906 0.83882 0.66204
 C634 C 1.09363 0.83023 0.67070
 C635 C 1.09294 0.81070 0.67281
 C636 C 1.10807 0.79989 0.66595
 C637 C 1.12347 0.80851 0.65725
 C638 C 1.12419 0.82805 0.65537
 C639 C 1.07691 0.80238 0.68320
 C640 C 1.07213 0.78417 0.68270
 C641 C 1.05685 0.77577 0.69398
 C642 C 1.04887 0.75854 0.68881
 C643 C 1.03503 0.74974 0.69944
 C644 C 1.02894 0.75794 0.71558
 C645 C 1.03692 0.77518 0.72078
 C646 C 1.05078 0.78397 0.71018
 H647 H 1.10935 0.85392 0.66072
 H648 H 1.08227 0.83891 0.67594
 H649 H 1.10850 0.78488 0.66776
 H650 H 1.13516 0.79998 0.65246
 H651 H 1.06856 0.81187 0.69131
 H652 H 1.07926 0.77495 0.67338
 H653 H 1.05341 0.75183 0.67651
 H654 H 1.02921 0.73643 0.69507
 H655 H 1.03268 0.78178 0.73323
 H656 H 1.05701 0.79689 0.71501
 C657 C 0.36086 0.65143 0.67346
 C658 C 0.37644 0.65815 0.68324
 C659 C 0.37990 0.67746 0.68474
 C660 C 0.36720 0.68998 0.67640
 C661 C 0.35164 0.68324 0.66657
 C662 C 0.34835 0.66391 0.66497
 C663 C 0.39634 0.68389 0.69570
 C664 C 0.40422 0.70100 0.69432
 C665 C 0.42041 0.70759 0.70553
 C666 C 0.43090 0.72329 0.69979
 C667 C 0.44582 0.73046 0.71018
 C668 C 0.45055 0.72211 0.72663
 C669 C 0.44010 0.70637 0.73241
 C670 C 0.42512 0.69924 0.72205
 H671 H 0.35857 0.63647 0.67245
 H672 H 0.38585 0.64820 0.68966
 H673 H 0.36886 0.70497 0.67774
 H674 H 0.34192 0.69312 0.66049
 H675 H 0.40250 0.67375 0.70475
 H676 H 0.39914 0.71053 0.68413
 H677 H 0.42750 0.73010 0.68721
 H678 H 0.45355 0.74264 0.70537
 H679 H 0.44326 0.69974 0.74512
 H680 H 0.41706 0.68752 0.72732
 C681 C 0.39726 0.16725 0.15222
 C682 C 0.41224 0.17584 0.16153
 C683 C 0.40923 0.19274 0.17066
 C684 C 0.39126 0.20138 0.16968
 C685 C 0.37645 0.19302 0.15998
 C686 C 0.37931 0.17579 0.15145
 C687 C 0.42494 0.20115 0.18112
 C688 C 0.42200 0.20844 0.19742
 C689 C 0.43761 0.21635 0.20837
 C690 C 0.43734 0.21367 0.22699
 C691 C 0.45174 0.22133 0.23772
 C692 C 0.46631 0.23230 0.23004
 C693 C 0.46643 0.23519 0.21141
 C694 C 0.45231 0.22714 0.20063
 H695 H 0.39958 0.15393 0.14566
 H696 H 0.42603 0.16904 0.16205
 H697 H 0.38871 0.21460 0.17635
 H698 H 0.36261 0.19968 0.15948
 H699 H 0.43934 0.20010 0.17589
 H700 H 0.40789 0.20757 0.20339
 H701 H 0.42605 0.20552 0.23322
 H702 H 0.45123 0.21904 0.25207
 H703 H 0.47751 0.24363 0.20518
 H704 H 0.45261 0.22972 0.18633
 C705 C -0.13350 0.69501 0.17111
 C706 C -0.11872 0.70586 0.17832
 C707 C -0.10219 0.69736 0.18509
 C708 C -0.10045 0.67776 0.18385
 C709 C -0.11524 0.66693 0.17667
 C710 C -0.13199 0.67542 0.17040
 C711 C -0.08712 0.70934 0.19320
 C712 C -0.07479 0.70299 0.20552
 C713 C -0.06019 0.71477 0.21459
 C714 C -0.05218 0.70806 0.23056
 C715 C -0.03823 0.71837 0.23960
 C716 C -0.03182 0.73567 0.23284
 C717 C -0.03970 0.74241 0.21678
 C718 C -0.05371 0.73206 0.20769
 H719 H -0.14629 0.70187 0.16637
 H720 H -0.12037 0.72092 0.17894
 H721 H -0.08765 0.67070 0.18823
 H722 H -0.11362 0.65188 0.17593
 H723 H -0.08715 0.72405 0.18973
 H724 H -0.07603 0.68864 0.21006
 H725 H -0.05679 0.69477 0.23613
 H726 H -0.03245 0.71271 0.25191
 H727 H -0.03494 0.75562 0.21115
 H728 H -0.05908 0.73752 0.19518
 C729 C -0.13392 0.13955 0.67333
 C730 C -0.11868 0.14835 0.68208
 C731 C -0.11784 0.16797 0.68343
 C732 C -0.13286 0.17859 0.67618
 C733 C -0.14804 0.16978 0.66740
 C734 C -0.14867 0.15020 0.66582
 C735 C -0.10153 0.17669 0.69304
 C736 C -0.09624 0.19468 0.69100
 C737 C -0.08022 0.20356 0.70093
 C738 C -0.07241 0.22039 0.69438
 C739 C -0.05766 0.22951 0.70357
 C740 C -0.05042 0.22199 0.71956
 C741 C -0.05829 0.20520 0.72618
 C742 C -0.07308 0.19614 0.71706
 H743 H -0.13414 0.12443 0.67225
 H744 H -0.10744 0.13982 0.68770
 H745 H -0.13322 0.19366 0.67749
 H746 H -0.15945 0.17823 0.66197
 H747 H -0.09323 0.16760 0.70159
 H748 H -0.10346 0.20328 0.68121
 H749 H -0.07776 0.22652 0.68210
 H750 H -0.05195 0.24245 0.69815
 H751 H -0.05319 0.19915 0.73858
 H752 H -0.07906 0.18360 0.72297
 C753 C 0.35100 0.38797 0.33674
 C754 C 0.34204 0.40232 0.32730
 C755 C 0.32228 0.40175 0.32414
 C756 C 0.31158 0.38656 0.33099
 C757 C 0.32059 0.37222 0.34052
 C758 C 0.34042 0.37268 0.34328
 C759 C 0.31388 0.41660 0.31272
 C760 C 0.29510 0.41983 0.31109
 C761 C 0.28731 0.43433 0.29891
 C762 C 0.26939 0.44211 0.30270
 C763 C 0.26159 0.45577 0.29148
 C764 C 0.27150 0.46180 0.27609
 C765 C 0.28926 0.45373 0.27210
 C766 C 0.29705 0.44010 0.28332
 H767 H 0.36631 0.38861 0.33871
 H768 H 0.35067 0.41376 0.32216
 H769 H 0.29643 0.38524 0.32853
 H770 H 0.31220 0.36039 0.34516
 H771 H 0.32384 0.42552 0.30554
 H772 H 0.28499 0.41222 0.31935
 H773 H 0.26148 0.43775 0.31450
 H774 H 0.24782 0.46163 0.29489
 H775 H 0.29717 0.45791 0.26024
 H776 H 0.31054 0.43393 0.27952
 C777 C 0.31140 -0.14448 0.81176
 C778 C 0.30136 -0.13110 0.80194
 C779 C 0.29931 -0.11284 0.80856
 C780 C 0.30710 -0.10825 0.82537
 C781 C 0.31673 -0.12179 0.83538
 C782 C 0.31901 -0.13992 0.82857
 C783 C 0.28839 -0.09905 0.79805
 C784 C 0.29366 -0.08105 0.79691
 C785 C 0.28289 -0.06738 0.78612
 C786 C 0.29287 -0.05377 0.77624
 C787 C 0.28297 -0.04069 0.76591
 C788 C 0.26291 -0.04065 0.76576
 C789 C 0.25292 -0.05403 0.77596
 C790 C 0.26282 -0.06741 0.78592
 H791 H 0.31295 -0.15851 0.80647
 H792 H 0.29533 -0.13494 0.78908
 H793 H 0.30536 -0.09437 0.83094
 H794 H 0.32247 -0.11818 0.84840
 H795 H 0.27639 -0.10408 0.79022
 H796 H 0.30683 -0.07643 0.80315
 H797 H 0.30834 -0.05344 0.77634
 H798 H 0.29100 -0.03040 0.75828
 H799 H 0.23745 -0.05426 0.77608
 H800 H 0.25480 -0.07755 0.79373
 C801 C 0.83491 0.36809 0.82177
 C802 C 0.82736 0.38367 0.81299
 C803 C 0.80758 0.38682 0.81281
 C804 C 0.79543 0.37373 0.82128
 C805 C 0.80301 0.35817 0.83008
 C806 C 0.82282 0.35526 0.83052
 C807 C 0.80021 0.40346 0.80316
 C808 C 0.78307 0.41107 0.80649
 C809 C 0.77534 0.42753 0.79678
 C810 C 0.75972 0.43699 0.80428
 C811 C 0.75135 0.45205 0.79534
 C812 C 0.75838 0.45799 0.77861
 C813 C 0.77410 0.44865 0.77112
 C814 C 0.78244 0.43352 0.78003
 H815 H 0.85023 0.36610 0.82188
 H816 H 0.83703 0.39339 0.80642
 H817 H 0.78008 0.37517 0.82087
 H818 H 0.79338 0.34822 0.83636
 H819 H 0.80970 0.40999 0.79354
 H820 H 0.77439 0.40545 0.81725
 H821 H 0.75387 0.43264 0.81708
 H822 H 0.73923 0.45892 0.80147
 H823 H 0.77973 0.45276 0.75817
 H824 H 0.79406 0.42635 0.77346
 C825 C 0.81280 -0.13670 0.34214
 C826 C 0.80394 -0.12091 0.33491
 C827 C 0.81486 -0.10600 0.32801
 C828 C 0.83493 -0.10700 0.32903
 C829 C 0.84376 -0.12283 0.33617
 C830 C 0.83281 -0.13787 0.34273
 C831 C 0.80482 -0.08975 0.31997
 C832 C 0.81303 -0.07814 0.30803
 C833 C 0.80291 -0.06260 0.29888
 C834 C 0.81078 -0.05549 0.28295
 C835 C 0.80175 -0.04113 0.27358
 C836 C 0.78464 -0.03338 0.27998
 C837 C 0.77692 -0.04016 0.29616
 C838 C 0.78598 -0.05459 0.30556
 H839 H 0.80404 -0.14817 0.34700
 H840 H 0.78848 -0.12047 0.33443
 H841 H 0.84392 -0.09557 0.32452
 H842 H 0.85921 -0.12330 0.33674
 H843 H 0.78984 -0.08820 0.32315
 H844 H 0.82752 -0.08076 0.30371
 H845 H 0.82387 -0.06126 0.27756
 H846 H 0.80815 -0.03620 0.26120
 H847 H 0.76384 -0.03438 0.30152
 H848 H 0.77974 -0.05922 0.31808
 C849 C 0.31083 0.64533 0.67915
 C850 C 0.30004 0.63098 0.68697
 C851 C 0.29948 0.61314 0.67912
 C852 C 0.30931 0.61005 0.66294
 C853 C 0.31972 0.62457 0.65490
 C854 C 0.32072 0.64219 0.66310
 C855 C 0.28853 0.59807 0.68806
 C856 C 0.29504 0.58052 0.68911
 C857 C 0.28508 0.56593 0.69965
 C858 C 0.29587 0.55340 0.70992
 C859 C 0.28682 0.53991 0.72057
 C860 C 0.26681 0.53836 0.72070
 C861 C 0.25601 0.55050 0.70996
 C862 C 0.26506 0.56431 0.69965
 H863 H 0.31145 0.65894 0.68552
 H864 H 0.29248 0.63367 0.69938
 H865 H 0.30880 0.59650 0.65646
 H866 H 0.32727 0.62205 0.64246
 H867 H 0.27573 0.60190 0.69537
 H868 H 0.30892 0.57719 0.68352
 H869 H 0.31132 0.55435 0.71001
 H870 H 0.29546 0.53061 0.72861
 H871 H 0.24057 0.54955 0.70982
 H872 H 0.25644 0.57360 0.69157
 C873 C 0.34850 1.13525 0.13981
 C874 C 0.34030 1.11927 0.14756
 C875 C 0.33923 1.11737 0.16627
 C876 C 0.34638 1.13192 0.17711
 C877 C 0.35457 1.14786 0.16937
 C878 C 0.35563 1.14975 0.15064
 C879 C 0.32965 1.10062 0.17398
 C880 C 0.33281 1.09451 0.19074
 C881 C 0.32244 1.07854 0.19906
 C882 C 0.33033 1.07001 0.21428
 C883 C 0.32057 1.05564 0.22320
 C884 C 0.30259 1.04955 0.21714
 C885 C 0.29472 1.05800 0.20184
 C886 C 0.30447 1.07238 0.19292
 H887 H 0.34926 1.13632 0.12535
 H888 H 0.33476 1.10836 0.13890
 H889 H 0.34522 1.13138 0.19156
 H890 H 0.35967 1.15894 0.17805
 H891 H 0.32007 1.09291 0.16531
 H892 H 0.34376 1.10118 0.19875
 H893 H 0.34406 1.07458 0.21939
 H894 H 0.32703 1.04946 0.23497
 H895 H 0.28082 1.05373 0.19691
 H896 H 0.29757 1.07893 0.18160
 C897 C 0.84219 0.63097 0.16293
 C898 C 0.83625 0.61467 0.17173
 C899 C 0.83464 0.61428 0.19056
 C900 C 0.83977 0.63033 0.20032
 C901 C 0.84574 0.64662 0.19150
 C902 C 0.84684 0.64715 0.17271
 C903 C 0.82777 0.59751 0.20048
 C904 C 0.81650 0.58436 0.19312
 C905 C 0.80824 0.56837 0.20327
 C906 C 0.79165 0.55978 0.19662
 C907 C 0.78298 0.54502 0.20589
 C908 C 0.79081 0.53836 0.22200
 C909 C 0.80774 0.54658 0.22844
 C910 C 0.81641 0.56141 0.21916
 H911 H 0.84326 0.63098 0.14845
 H912 H 0.83315 0.60242 0.16372
 H913 H 0.83881 0.63039 0.21482
 H914 H 0.84920 0.65894 0.19932
 H915 H 0.83100 0.59684 0.21465
 H916 H 0.81185 0.58599 0.17939
 H917 H 0.78515 0.56472 0.18433
 H918 H 0.77001 0.53894 0.20048
 H919 H 0.81422 0.54166 0.24073
 H920 H 0.82954 0.56723 0.22443
 C921 C 0.82271 1.12456 0.68297
 C922 C 0.81299 1.10938 0.69060
 C923 C 0.80643 1.09452 0.67980
 C924 C 0.80950 1.09541 0.66122
 C925 C 0.81926 1.11059 0.65360
 C926 C 0.82598 1.12532 0.66440
 C927 C 0.79579 1.07831 0.68737
 C928 C 0.79792 1.07253 0.70437
 C929 C 0.78734 1.05653 0.71239
 C930 C 0.79472 1.04824 0.72794
 C931 C 0.78489 1.03373 0.73653
 C932 C 0.76731 1.02723 0.72986
 C933 C 0.75991 1.03543 0.71422
 C934 C 0.76978 1.04997 0.70558
 H935 H 0.82739 1.13591 0.69154
 H936 H 0.81029 1.10959 0.70488
 H937 H 0.80445 1.08425 0.65259
 H938 H 0.82162 1.11084 0.63925
 H939 H 0.78666 1.07050 0.67837
 H940 H 0.80846 1.07934 0.71277
 H941 H 0.80813 1.05308 0.73354
 H942 H 0.79100 1.02778 0.74857
 H943 H 0.74632 1.03083 0.70882
 H944 H 0.76332 1.05631 0.69392
 C945 C 0.65703 0.61813 0.32990
 C946 C 0.66546 0.60342 0.32046
 C947 C 0.68534 0.60283 0.31800
 C948 C 0.69663 0.61743 0.32510
 C949 C 0.68818 0.63211 0.33457
 C950 C 0.66830 0.63264 0.33700
 C951 C 0.69358 0.58726 0.30735
 C952 C 0.71194 0.58205 0.30841
 C953 C 0.72036 0.56665 0.29768
 C954 C 0.73746 0.55860 0.30360
 C955 C 0.74627 0.54444 0.29374
 C956 C 0.73823 0.53804 0.27760
 C957 C 0.72114 0.54612 0.27158
 C958 C 0.71231 0.56032 0.28146
 H959 H 0.64167 0.61826 0.33162
 H960 H 0.65641 0.59247 0.31503
 H961 H 0.71190 0.61792 0.32300
 H962 H 0.69711 0.64334 0.33962
 H963 H 0.68387 0.57943 0.29891
 H964 H 0.72121 0.58878 0.31807
 H965 H 0.74406 0.56329 0.31594
 H966 H 0.75945 0.53856 0.29875
 H967 H 0.71467 0.54161 0.25912
 H968 H 0.69948 0.56652 0.27609
 C969 C 0.67251 1.14024 0.81829
 C970 C 0.68108 1.12497 0.80984
 C971 C 0.68144 1.10741 0.81827
 C972 C 0.67331 1.10539 0.83542
 C973 C 0.66516 1.12079 0.84403
 C974 C 0.66470 1.13827 0.83550
 C975 C 0.69120 1.09167 0.80934
 C976 C 0.68462 1.07407 0.81015
 C977 C 0.69440 1.05854 0.80094
 C978 C 0.68357 1.04504 0.79180
 C979 C 0.69259 1.03045 0.78268
 C980 C 0.71257 1.02877 0.78310
 C981 C 0.72337 1.04196 0.79273
 C982 C 0.71438 1.05685 0.80142
 H983 H 0.67239 1.15374 0.81167
 H984 H 0.68740 1.12684 0.79669
 H985 H 0.67376 1.09208 0.84237
 H986 H 0.65929 1.11917 0.85739
 H987 H 0.70358 1.09484 0.80111
 H988 H 0.67112 1.07114 0.81674
 H989 H 0.66814 1.04604 0.79141
 H990 H 0.68395 1.02036 0.77544
 H991 H 0.73880 1.04096 0.79323
 H992 H 0.72301 1.06692 0.80868
 C993 C 0.18770 0.64480 0.83923
 C994 C 0.19643 0.62902 0.83190
 C995 C 0.18541 0.61383 0.82585
 C996 C 0.16541 0.61448 0.82789
 C997 C 0.15669 0.63030 0.83521
 C998 C 0.16773 0.64569 0.84075
 C999 C 0.19535 0.59765 0.81766
 C1000 C 0.18689 0.58568 0.80628
 C1001 C 0.19708 0.57026 0.79707
 C1002 C 0.18907 0.56280 0.78138
 C1003 C 0.19821 0.54844 0.77207
 C1004 C 0.21558 0.54113 0.77830
 C1005 C 0.22347 0.54835 0.79418
 C1006 C 0.21428 0.56269 0.80354
 H1007 H 0.19653 0.65648 0.84342
 H1008 H 0.21184 0.62883 0.83065
 H1009 H 0.15643 0.60279 0.82406
 H1010 H 0.14129 0.63053 0.83662
 H1011 H 0.21050 0.59649 0.82020
 H1012 H 0.17216 0.58791 0.80251
 H1013 H 0.17577 0.56824 0.77617
 H1014 H 0.19170 0.54314 0.75992
 H1015 H 0.23671 0.54285 0.79945
 H1016 H 0.22063 0.56756 0.81590
 C1017 C 0.16914 1.13090 0.32502
 C1018 C 0.17781 1.11593 0.31621
 C1019 C 0.19776 1.11510 0.31449
 C1020 C 0.20891 1.12961 0.32196
 C1021 C 0.20021 1.14457 0.33083
 C1022 C 0.18024 1.14544 0.33228
 C1023 C 0.20612 1.09949 0.30399
 C1024 C 0.22456 1.09452 0.30468
 C1025 C 0.23276 1.07924 0.29364
 C1026 C 0.24964 1.07062 0.29938
 C1027 C 0.25804 1.05643 0.28921
 C1028 C 0.24980 1.05065 0.27294
 C1029 C 0.23301 1.05941 0.26707
 C1030 C 0.22461 1.07359 0.27725
 H1031 H 0.15372 1.13130 0.32602
 H1032 H 0.16885 1.10504 0.31053
 H1033 H 0.22428 1.12988 0.32053
 H1034 H 0.20901 1.15579 0.33609
 H1035 H 0.19639 1.09149 0.29570
 H1036 H 0.23403 1.10130 0.31414
 H1037 H 0.25633 1.07482 0.31185
 H1038 H 0.27103 1.05003 0.29408
 H1039 H 0.22641 1.05542 0.25452
 H1040 H 0.21200 1.08032 0.27200
 C1041 C 0.66451 0.37054 0.64813
 C1042 C 0.67113 0.38699 0.65619
 C1043 C 0.67187 0.38860 0.67493
 C1044 C 0.66589 0.37329 0.68549
 C1045 C 0.65927 0.35685 0.67742
 C1046 C 0.65860 0.35527 0.65866
 C1047 C 0.68008 0.40593 0.68284
 C1048 C 0.67716 0.41133 0.69986
 C1049 C 0.68648 0.42799 0.70800
 C1050 C 0.67845 0.43588 0.72349
 C1051 C 0.68737 0.45094 0.73214
 C1052 C 0.70464 0.45834 0.72553
 C1053 C 0.71263 0.45051 0.70997
 C1054 C 0.70373 0.43547 0.70134
 H1055 H 0.66409 0.36966 0.63365
 H1056 H 0.67579 0.39848 0.64773
 H1057 H 0.66682 0.37366 0.69995
 H1058 H 0.65510 0.34514 0.68581
 H1059 H 0.68855 0.41471 0.67402
 H1060 H 0.66726 0.40355 0.70820
 H1061 H 0.66528 0.43029 0.72901
 H1062 H 0.68088 0.45659 0.74415
 H1063 H 0.72602 0.45576 0.70461
 H1064 H 0.71079 0.42946 0.68982
 C1065 C 0.69312 -0.13873 0.16891
 C1066 C 0.70319 -0.12360 0.17616
 C1067 C 0.69347 -0.10798 0.18296
 C1068 C 0.67338 -0.10767 0.18201
 C1069 C 0.66332 -0.12285 0.17481
 C1070 C 0.67309 -0.13850 0.16817
 C1071 C 0.70480 -0.09226 0.19055
 C1072 C 0.69763 -0.07975 0.20213
 C1073 C 0.70897 -0.06439 0.21033
 C1074 C 0.70210 -0.05615 0.22612
 C1075 C 0.71219 -0.04166 0.23442
 C1076 C 0.72941 -0.03497 0.22705
 C1077 C 0.73620 -0.04299 0.21109
 C1078 C 0.72607 -0.05750 0.20275
 H1079 H 0.70096 -0.15071 0.16401
 H1080 H 0.71865 -0.12417 0.17662
 H1081 H 0.66531 -0.09568 0.18648
 H1082 H 0.64789 -0.12228 0.17416
 H1083 H 0.71983 -0.09174 0.18718
 H1084 H 0.68304 -0.08131 0.20672
 H1085 H 0.68890 -0.06104 0.23217
 H1086 H 0.70650 -0.03576 0.24667
 H1087 H 0.74933 -0.03802 0.20498
 H1088 H 0.73157 -0.06301 0.19029
 C1089 C 0.18510 0.35457 0.17140
 C1090 C 0.19464 0.36913 0.18016
 C1091 C 0.19443 0.38732 0.17306
 C1092 C 0.18502 0.39062 0.15672
 C1093 C 0.17586 0.37592 0.14774
 C1094 C 0.17569 0.35789 0.15514
 C1095 C 0.20449 0.40244 0.18274
 C1096 C 0.19753 0.41982 0.18393
 C1097 C 0.20719 0.43457 0.19449
 C1098 C 0.19618 0.44732 0.20433
 C1099 C 0.20502 0.46113 0.21476
 C1100 C 0.22503 0.46273 0.21510
 C1101 C 0.23602 0.45028 0.20484
 C1102 C 0.22719 0.43624 0.19473
 H1103 H 0.18513 0.34065 0.17717
 H1104 H 0.20193 0.36627 0.19265
 H1105 H 0.18499 0.40446 0.15078
 H1106 H 0.16867 0.37859 0.13516
 H1107 H 0.21721 0.39877 0.19020
 H1108 H 0.18373 0.42297 0.17813
 H1109 H 0.18074 0.44636 0.20421
 H1110 H 0.19621 0.47065 0.22242
 H1111 H 0.25146 0.45122 0.20483
 H1112 H 0.23601 0.42683 0.18695
 C1113 C 0.15130 -0.14743 0.67541
 C1114 C 0.15956 -0.13225 0.68432
 C1115 C 0.16644 -0.11671 0.67471
 C1116 C 0.16468 -0.11660 0.65589
 C1117 C 0.15637 -0.13182 0.64698
 C1118 C 0.14956 -0.14735 0.65666
 C1119 C 0.17461 -0.10078 0.68492
 C1120 C 0.18644 -0.08789 0.67787
 C1121 C 0.19467 -0.07232 0.68854
 C1122 C 0.21213 -0.06433 0.68317
 C1123 C 0.22045 -0.04983 0.69310
 C1124 C 0.21138 -0.04289 0.70853
 C1125 C 0.19368 -0.05059 0.71366
 C1126 C 0.18537 -0.06506 0.70375
 H1127 H 0.14629 -0.15931 0.68317
 H1128 H 0.16064 -0.13268 0.69880
 H1129 H 0.16927 -0.10467 0.64802
 H1130 H 0.15496 -0.13137 0.63254
 H1131 H 0.17138 -0.10028 0.69911
 H1132 H 0.19122 -0.08928 0.66413
 H1133 H 0.21948 -0.06951 0.67140
 H1134 H 0.23405 -0.04413 0.68873
 H1135 H 0.18619 -0.04541 0.72535
 H1136 H 0.17155 -0.07033 0.70795
 C1137 C 0.34327 0.32757 0.36767
 C1138 C 0.33556 0.31796 0.38230
 C1139 C 0.32638 0.32764 0.39620
 C1140 C 0.32540 0.34733 0.39527
 C1141 C 0.33309 0.35695 0.38056
 C1142 C 0.34206 0.34717 0.36659
 C1143 C 0.31840 0.31657 0.41136
 C1144 C 0.30538 0.32306 0.42301
 C1145 C 0.29665 0.31139 0.43737
 C1146 C 0.27897 0.31683 0.44449
 C1147 C 0.26991 0.30603 0.45764
 C1148 C 0.27838 0.28954 0.46407
 C1149 C 0.29632 0.28432 0.45730
 C1150 C 0.30543 0.29516 0.44417
 H1151 H 0.35003 0.31963 0.35707
 H1152 H 0.33663 0.30283 0.38267
 H1153 H 0.31902 0.35545 0.40591
 H1154 H 0.33227 0.37208 0.38016
 H1155 H 0.32269 0.30207 0.41217
 H1156 H 0.29983 0.33705 0.42137
 H1157 H 0.27197 0.32934 0.43965
 H1158 H 0.25613 0.31051 0.46262
 H1159 H 0.30334 0.27182 0.46214
 H1160 H 0.31937 0.29082 0.43958
 C1161 C 0.30053 0.83834 -0.14230
 C1162 C 0.29255 0.83207 -0.12620
 C1163 C 0.30424 0.82717 -0.11169
 C1164 C 0.32418 0.82926 -0.11347
 C1165 C 0.33216 0.83549 -0.12962
 C1166 C 0.32043 0.83993 -0.14425
 C1167 C 0.29501 0.82004 -0.09509
 C1168 C 0.30406 0.80949 -0.08291
 C1169 C 0.29441 0.80088 -0.06718
 C1170 C 0.30279 0.78512 -0.05926
 C1171 C 0.29398 0.77607 -0.04483
 C1172 C 0.27659 0.78266 -0.03788
 C1173 C 0.26843 0.79876 -0.04546
 C1174 C 0.27727 0.80784 -0.05991
 H1175 H 0.29114 0.84165 -0.15336
 H1176 H 0.27716 0.83075 -0.12519
 H1177 H 0.33370 0.82632 -0.10243
 H1178 H 0.34752 0.83699 -0.13067
 H1179 H 0.27985 0.82247 -0.09367
 H1180 H 0.31880 0.80569 -0.08515
 H1181 H 0.31606 0.77956 -0.06445
 H1182 H 0.30072 0.76377 -0.03926
 H1183 H 0.25515 0.80431 -0.04028
 H1184 H 0.27067 0.82033 -0.06521
 C1185 C 0.81683 0.34559 -0.13047
 C1186 C 0.80885 0.33931 -0.11433
 C1187 C 0.80697 0.32008 -0.11082
 C1188 C 0.81297 0.30722 -0.12395
 C1189 C 0.82091 0.31349 -0.14006
 C1190 C 0.82287 0.33274 -0.14354
 C1191 C 0.79801 0.31390 -0.09376
 C1192 C 0.80166 0.29721 -0.08627
 C1193 C 0.79239 0.29013 -0.06968
 C1194 C 0.80086 0.27500 -0.06078
 C1195 C 0.79209 0.26685 -0.04587
 C1196 C 0.77451 0.27358 -0.03951
 C1197 C 0.76612 0.28895 -0.04819
 C1198 C 0.77492 0.29712 -0.06317
 H1199 H 0.81829 0.36050 -0.13278
 H1200 H 0.80421 0.34951 -0.10452
 H1201 H 0.81112 0.29230 -0.12207
 H1202 H 0.82514 0.30329 -0.15001
 H1203 H 0.78873 0.32370 -0.08700
 H1204 H 0.81235 0.28830 -0.09230
 H1205 H 0.81425 0.26927 -0.06554
 H1206 H 0.79897 0.25504 -0.03951
 H1207 H 0.75251 0.29437 -0.04369
 H1208 H 0.76764 0.30844 -0.06988
 C1209 C 0.83442 0.81598 0.36533
 C1210 C 0.82718 0.80630 0.38012
 C1211 C 0.81979 0.81601 0.39492
 C1212 C 0.82020 0.83574 0.39475
 C1213 C 0.82744 0.84543 0.37989
 C1214 C 0.83453 0.83565 0.36499
 C1215 C 0.81214 0.80495 0.41020
 C1216 C 0.79986 0.81174 0.42237
 C1217 C 0.79130 0.80016 0.43686
 C1218 C 0.77392 0.80587 0.44442
 C1219 C 0.76504 0.79517 0.45775
 C1220 C 0.77342 0.77853 0.46391
 C1221 C 0.79106 0.77303 0.45669
 C1222 C 0.79997 0.78376 0.44337
 H1223 H 0.83977 0.80808 0.35402
 H1224 H 0.82718 0.79113 0.37992
 H1225 H 0.81526 0.84379 0.40610
 H1226 H 0.82772 0.86059 0.38008
 H1227 H 0.81590 0.79029 0.41064
 H1228 H 0.79472 0.82593 0.42104
 H1229 H 0.76701 0.81853 0.43980
 H1230 H 0.75149 0.79987 0.46309
 H1231 H 0.79801 0.76040 0.46131
 H1232 H 0.81370 0.77921 0.43840
 C1233 C 0.68310 0.33047 0.63550
 C1234 C 0.69332 0.32291 0.62116
 C1235 C 0.68375 0.31520 0.60634
 C1236 C 0.66363 0.31566 0.60600
 C1237 C 0.65343 0.32318 0.62040
 C1238 C 0.66306 0.33058 0.63530
 C1239 C 0.69534 0.30720 0.59155
 C1240 C 0.68849 0.29514 0.57932
 C1241 C 0.70042 0.28658 0.56505
 C1242 C 0.69403 0.26995 0.55695
 C1243 C 0.70493 0.26120 0.54369
 C1244 C 0.72248 0.26894 0.53819
 C1245 C 0.72869 0.28581 0.54599
 C1246 C 0.71775 0.29460 0.55918
 H1247 H 0.69082 0.33603 0.64690
 H1248 H 0.70878 0.32288 0.62175
 H1249 H 0.65566 0.31049 0.59462
 H1250 H 0.63797 0.32338 0.61989
 H1251 H 0.71040 0.31068 0.59149
 H1252 H 0.67385 0.29036 0.58028
 H1253 H 0.68065 0.26356 0.56106
 H1254 H 0.69970 0.24826 0.53790
 H1255 H 0.74202 0.29227 0.54187
 H1256 H 0.72289 0.30775 0.56453
 C1257 C 0.66820 0.81662 1.14383
 C1258 C 0.67540 0.80720 1.12891
 C1259 C 0.68411 0.81710 1.11481
 C1260 C 0.68495 0.83679 1.11572
 C1261 C 0.67775 0.84621 1.13069
 C1262 C 0.66950 0.83621 1.14498
 C1263 C 0.69176 0.80633 1.09941
 C1264 C 0.70496 0.81297 1.08793
 C1265 C 0.71311 0.80163 1.07313
 C1266 C 0.73104 0.80663 1.06608
 C1267 C 0.73942 0.79604 1.05243
 C1268 C 0.72998 0.78022 1.04550
 C1269 C 0.71183 0.77549 1.05223
 C1270 C 0.70342 0.78612 1.06579
 H1271 H 0.66193 0.80854 1.15465
 H1272 H 0.67439 0.79206 1.12850
 H1273 H 0.69090 0.84503 1.10488
 H1274 H 0.67855 0.86135 1.13111
 H1275 H 0.68707 0.79193 1.09828
 H1276 H 0.71098 0.82677 1.08999
 H1277 H 0.73872 0.81863 1.07134
 H1278 H 0.75338 0.80010 1.04746
 H1279 H 0.70404 0.76355 1.04699
 H1280 H 0.68926 0.78220 1.07028
 C1281 C 0.15977 0.32941 1.11622
 C1282 C 0.16645 0.32186 1.10011
 C1283 C 0.18613 0.32090 1.09655
 C1284 C 0.19901 0.32774 1.10950
 C1285 C 0.19231 0.33531 1.12558
 C1286 C 0.17263 0.33603 1.12921
 C1287 C 0.19261 0.31163 1.07981
 C1288 C 0.21007 0.31408 1.07268
 C1289 C 0.21722 0.30375 1.05677
 C1290 C 0.23349 0.31062 1.04787
 C1291 C 0.24161 0.30070 1.03365
 C1292 C 0.23366 0.28358 1.02802
 C1293 C 0.21720 0.27680 1.03672
 C1294 C 0.20911 0.28670 1.05099
 H1295 H 0.14453 0.32994 1.11863
 H1296 H 0.15621 0.31661 1.09045
 H1297 H 0.21429 0.32673 1.10764
 H1298 H 0.20255 0.34008 1.13545
 H1299 H 0.18236 0.30271 1.07307
 H1300 H 0.21965 0.32431 1.07852
 H1301 H 0.24013 0.32362 1.05210
 H1302 H 0.25431 0.30631 1.02726
 H1303 H 0.21083 0.26358 1.03281
 H1304 H 0.19693 0.28056 1.05774
 C1305 C 0.13760 0.82313 0.61731
 C1306 C 0.14576 0.81521 0.60200
 C1307 C 0.16566 0.81356 0.60041
 C1308 C 0.17727 0.81983 0.61463
 C1309 C 0.16909 0.82776 0.62992
 C1310 C 0.14919 0.82947 0.63143
 C1311 C 0.17370 0.80443 0.58422
 C1312 C 0.19172 0.80713 0.57861
 C1313 C 0.20029 0.79749 0.56293
 C1314 C 0.21713 0.80491 0.55551
 C1315 C 0.22641 0.79579 0.54144
 C1316 C 0.21909 0.77895 0.53449
 C1317 C 0.20211 0.77158 0.54175
 C1318 C 0.19283 0.78069 0.55588
 H1319 H 0.12221 0.82430 0.61819
 H1320 H 0.13649 0.81034 0.59134
 H1321 H 0.19261 0.81820 0.61428
 H1322 H 0.17830 0.83218 0.64079
 H1323 H 0.16413 0.79569 0.57648
 H1324 H 0.20065 0.81723 0.58547
 H1325 H 0.22326 0.81775 0.56074
 H1326 H 0.23948 0.80185 0.53618
 H1327 H 0.19620 0.75853 0.53680
 H1328 H 0.18021 0.77416 0.56150
 C1329 C 0.33973 0.67182 0.62612
 C1330 C 0.33398 0.68059 0.61027
 C1331 C 0.31452 0.68290 0.60640
 C1332 C 0.30088 0.67640 0.61886
 C1333 C 0.30663 0.66763 0.63468
 C1334 C 0.32611 0.66536 0.63855
 C1335 C 0.30901 0.69293 0.58978
 C1336 C 0.29192 0.69076 0.58192
 C1337 C 0.28566 0.70128 0.56583
 C1338 C 0.26991 0.69445 0.55619
 C1339 C 0.26266 0.70439 0.54161
 C1340 C 0.27093 0.72151 0.53636
 C1341 C 0.28685 0.72829 0.54585
 C1342 C 0.29411 0.71834 0.56048
 H1343 H 0.35483 0.67013 0.62872
 H1344 H 0.34478 0.68558 0.60098
 H1345 H 0.28576 0.67849 0.61675
 H1346 H 0.29583 0.66306 0.64414
 H1347 H 0.31967 0.70190 0.58366
 H1348 H 0.28202 0.68044 0.58720
 H1349 H 0.26304 0.68143 0.56006
 H1350 H 0.25037 0.69876 0.53461
 H1351 H 0.29346 0.74151 0.54222
 H1352 H 0.30592 0.72440 0.56781
 C1353 C 0.36651 0.18336 1.11388
 C1354 C 0.35821 0.19192 1.09897
 C1355 C 0.33827 0.19244 1.09704
 C1356 C 0.32676 0.18448 1.11059
 C1357 C 0.33508 0.17587 1.12546
 C1358 C 0.35503 0.17513 1.12721
 C1359 C 0.33013 0.20200 1.08113
 C1360 C 0.31233 0.19892 1.07510
 C1361 C 0.30393 0.20861 1.05937
 C1362 C 0.28747 0.20092 1.05149
 C1363 C 0.27861 0.20983 1.03707
 C1364 C 0.28597 0.22671 1.03021
 C1365 C 0.30247 0.23443 1.03803
 C1366 C 0.31130 0.22556 1.05251
 H1367 H 0.38192 0.18303 1.11497
 H1368 H 0.36742 0.19810 1.08887
 H1369 H 0.31136 0.18519 1.11004
 H1370 H 0.32593 0.17005 1.13579
 H1371 H 0.33955 0.21132 1.07382
 H1372 H 0.30355 0.18835 1.08151
 H1373 H 0.28139 0.18798 1.05655
 H1374 H 0.26589 0.20352 1.03138
 H1375 H 0.30838 0.24753 1.03317
 H1376 H 0.32358 0.23234 1.05847
 C1377 C 0.82206 0.66947 1.14761
 C1378 C 0.81201 0.67550 1.13252
 C1379 C 0.82174 0.68236 1.11738
 C1380 C 0.84188 0.68261 1.11753
 C1381 C 0.85191 0.67668 1.13268
 C1382 C 0.84210 0.67014 1.14787
 C1383 C 0.81034 0.68891 1.10182
 C1384 C 0.81723 0.70041 1.08909
 C1385 C 0.80563 0.70801 1.07412
 C1386 C 0.81246 0.72394 1.06509
 C1387 C 0.80200 0.73195 1.05116
 C1388 C 0.78443 0.72416 1.04584
 C1389 C 0.77774 0.70796 1.05457
 C1390 C 0.78825 0.69990 1.06851
 H1391 H 0.81421 0.66450 1.15920
 H1392 H 0.79655 0.67500 1.13276
 H1393 H 0.85004 0.68711 1.10598
 H1394 H 0.86738 0.67700 1.13251
 H1395 H 0.79542 0.68495 1.10161
 H1396 H 0.83172 0.70559 1.09014
 H1397 H 0.82585 0.73040 1.06898
 H1398 H 0.80763 0.74439 1.04469
 H1399 H 0.76434 0.70151 1.05066
 H1400 H 0.78273 0.68727 1.07466
 C1401 C 0.84246 0.15483 0.62672
 C1402 C 0.83630 0.16365 0.61107
 C1403 C 0.81679 0.16676 0.60806
 C1404 C 0.80349 0.16075 0.62108
 C1405 C 0.80968 0.15190 0.63673
 C1406 C 0.82922 0.14902 0.63976
 C1407 C 0.81108 0.17739 0.59187
 C1408 C 0.79338 0.17709 0.58502
 C1409 C 0.78754 0.18865 0.56947
 C1410 C 0.77151 0.18312 0.55950
 C1411 C 0.76502 0.19406 0.54524
 C1412 C 0.77435 0.21089 0.54074
 C1413 C 0.79041 0.21645 0.55071
 C1414 C 0.79691 0.20551 0.56496
 H1415 H 0.85760 0.15273 0.62880
 H1416 H 0.84685 0.16825 0.60135
 H1417 H 0.78839 0.16339 0.61961
 H1418 H 0.79927 0.14784 0.64677
 H1419 H 0.82213 0.18544 0.58519
 H1420 H 0.78277 0.16769 0.59060
 H1421 H 0.76393 0.17030 0.56280
 H1422 H 0.75255 0.18941 0.53788
 H1423 H 0.79781 0.22943 0.54769
 H1424 H 0.80891 0.21062 0.57267
 C1425 C 0.67539 0.64443 0.37544
 C1426 C 0.68377 0.65209 0.39080
 C1427 C 0.68498 0.67159 0.39305
 C1428 C 0.67798 0.68330 0.37939
 C1429 C 0.66962 0.67562 0.36406
 C1430 C 0.66816 0.65613 0.36196
 C1431 C 0.69435 0.67915 0.40936
 C1432 C 0.69115 0.69644 0.41573
 C1433 C 0.70096 0.70440 0.43165
 C1434 C 0.69284 0.71994 0.44025
 C1435 C 0.70201 0.72844 0.45478
 C1436 C 0.71960 0.72164 0.46098
 C1437 C 0.72771 0.70605 0.45242
 C1438 C 0.71857 0.69756 0.43788
 H1439 H 0.67442 0.62936 0.37411
 H1440 H 0.68923 0.64276 0.40101
 H1441 H 0.67929 0.69836 0.38023
 H1442 H 0.66450 0.68492 0.35367
 H1443 H 0.70365 0.66978 0.41663
 H1444 H 0.68047 0.70510 0.40939
 H1445 H 0.67939 0.72560 0.43564
 H1446 H 0.69540 0.74047 0.46103
 H1447 H 0.74134 0.70057 0.45676
 H1448 H 0.72566 0.68602 0.43133
 C1449 C 0.68642 0.16072 -0.13791
 C1450 C 0.69548 0.16715 -0.12241
 C1451 C 0.68478 0.17379 -0.10783
 C1452 C 0.66468 0.17335 -0.10892
 C1453 C 0.65563 0.16698 -0.12449
 C1454 C 0.66641 0.16075 -0.13917
 C1455 C 0.69519 0.18094 -0.09190
 C1456 C 0.68746 0.19255 -0.07979
 C1457 C 0.69834 0.20113 -0.06481
 C1458 C 0.69119 0.21754 -0.05702
 C1459 C 0.70116 0.22658 -0.04333
 C1460 C 0.71852 0.21937 -0.03698
 C1461 C 0.72547 0.20264 -0.04438
 C1462 C 0.71545 0.19355 -0.05811
 H1463 H 0.69507 0.15598 -0.14904
 H1464 H 0.71095 0.16718 -0.12192
 H1465 H 0.65583 0.17767 -0.09780
 H1466 H 0.64017 0.16675 -0.12504
 H1467 H 0.71019 0.17753 -0.09097
 H1468 H 0.67292 0.19723 -0.08156
 H1469 H 0.67798 0.22360 -0.06178
 H1470 H 0.69533 0.23939 -0.03787
 H1471 H 0.73870 0.19662 -0.03964
 H1472 H 0.72115 0.18058 -0.06328
 C1473 C 0.17445 0.68998 -0.13919
 C1474 C 0.18411 0.69866 -0.12506
 C1475 C 0.18631 0.68940 -0.10860
 C1476 C 0.17888 0.67119 -0.10655
 C1477 C 0.16962 0.66236 -0.12083
 C1478 C 0.16734 0.67172 -0.13721
 C1479 C 0.19715 0.69863 -0.09409
 C1480 C 0.19220 0.69703 -0.07682
 C1481 C 0.20289 0.70676 -0.06254
 C1482 C 0.19285 0.71570 -0.04874
 C1483 C 0.20268 0.72549 -0.03538
 C1484 C 0.22274 0.72591 -0.03529
 C1485 C 0.23281 0.71640 -0.04875
 C1486 C 0.22296 0.70707 -0.06240
 H1487 H 0.17295 0.69724 -0.15186
 H1488 H 0.18986 0.71264 -0.12694
 H1489 H 0.18073 0.66359 -0.09411
 H1490 H 0.16432 0.64819 -0.11923
 H1491 H 0.20886 0.70782 -0.09783
 H1492 H 0.17927 0.68953 -0.07317
 H1493 H 0.17737 0.71549 -0.04856
 H1494 H 0.19462 0.73263 -0.02506
 H1495 H 0.24828 0.71656 -0.04895
 H1496 H 0.23100 0.69996 -0.07275
 C1497 C 0.18449 0.15749 0.37071
 C1498 C 0.19162 0.16500 0.38666
 C1499 C 0.19259 0.18446 0.38920
 C1500 C 0.18645 0.19631 0.37527
 C1501 C 0.17932 0.18878 0.35932
 C1502 C 0.17827 0.16929 0.35686
 C1503 C 0.20099 0.19178 0.40608
 C1504 C 0.19792 0.20914 0.41235
 C1505 C 0.20709 0.21669 0.42879
 C1506 C 0.19887 0.23221 0.43734
 C1507 C 0.20754 0.24030 0.45237
 C1508 C 0.22474 0.23310 0.45910
 C1509 C 0.23295 0.21754 0.45058
 C1510 C 0.22431 0.20947 0.43556
 H1511 H 0.18377 0.14243 0.36917
 H1512 H 0.19641 0.15555 0.39708
 H1513 H 0.18756 0.21137 0.37638
 H1514 H 0.17494 0.19818 0.34872
 H1515 H 0.20958 0.18217 0.41381
 H1516 H 0.18790 0.21815 0.40553
 H1517 H 0.18572 0.23817 0.43232
 H1518 H 0.20089 0.25233 0.45857
 H1519 H 0.24630 0.21176 0.45531
 H1520 H 0.23150 0.19796 0.42908
 C1521 C 0.33330 0.38171 0.65709
 C1522 C 0.32561 0.39761 0.66525
 C1523 C 0.31710 0.39630 0.68225
 C1524 C 0.31695 0.37899 0.69125
 C1525 C 0.32505 0.36323 0.68326
 C1526 C 0.33309 0.36448 0.66608
 C1527 C 0.30877 0.41314 0.69055
 C1528 C 0.29226 0.41246 0.69959
 C1529 C 0.28365 0.42915 0.70792
 C1530 C 0.26374 0.43104 0.70792
 C1531 C 0.25517 0.44638 0.71625
 C1532 C 0.26637 0.45978 0.72520
 C1533 C 0.28632 0.45781 0.72534
 C1534 C 0.29492 0.44271 0.71662
 H1535 H 0.33955 0.38281 0.64384
 H1536 H 0.32597 0.41086 0.65818
 H1537 H 0.31081 0.37771 0.70453
 H1538 H 0.32487 0.34997 0.69031
 H1539 H 0.31578 0.42650 0.68827
 H1540 H 0.28426 0.39943 0.70016
 H1541 H 0.25481 0.42065 0.70142
 H1542 H 0.23974 0.44750 0.71610
 H1543 H 0.29526 0.46795 0.73218
 H1544 H 0.31031 0.44136 0.71712
 C1545 C 0.33413 0.85944 0.17755
 C1546 C 0.32534 0.87475 0.18571
 C1547 C 0.32588 0.89244 0.17752
 C1548 C 0.33496 0.89450 0.16080
 C1549 C 0.34333 0.87905 0.15243
 C1550 C 0.34307 0.86148 0.16083
 C1551 C 0.31635 0.90834 0.18640
 C1552 C 0.32381 0.92563 0.18646
 C1553 C 0.31466 0.94119 0.19620
 C1554 C 0.32604 0.95378 0.20593
 C1555 C 0.31764 0.96828 0.21570
 C1556 C 0.29776 0.97078 0.21541
 C1557 C 0.28642 0.95853 0.20519
 C1558 C 0.29477 0.94373 0.19581
 H1559 H 0.33369 0.84589 0.18406
 H1560 H 0.31829 0.87286 0.19853
 H1561 H 0.33523 0.90792 0.15404
 H1562 H 0.35010 0.88074 0.13947
 H1563 H 0.30356 0.90544 0.19416
 H1564 H 0.33767 0.92813 0.18039
 H1565 H 0.34141 0.95212 0.20629
 H1566 H 0.32670 0.97763 0.22337
 H1567 H 0.27105 0.96018 0.20476
 H1568 H 0.28573 0.93439 0.18812
 C1569 C 0.83432 0.37117 0.14647
 C1570 C 0.82579 0.38698 0.15403
 C1571 C 0.82368 0.38855 0.17269
 C1572 C 0.82992 0.37373 0.18364
 C1573 C 0.83841 0.35792 0.17607
 C1574 C 0.84077 0.35649 0.15742
 C1575 C 0.81435 0.40544 0.18020
 C1576 C 0.81754 0.41157 0.19694
 C1577 C 0.80816 0.42819 0.20495
 C1578 C 0.81649 0.43638 0.22016
 C1579 C 0.80775 0.45142 0.22881
 C1580 C 0.79035 0.45859 0.22251
 C1581 C 0.78204 0.45053 0.20719
 C1582 C 0.79080 0.43545 0.19852
 H1583 H 0.83599 0.37040 0.13206
 H1584 H 0.82095 0.39810 0.14528
 H1585 H 0.82791 0.37404 0.19801
 H1586 H 0.84289 0.34664 0.18478
 H1587 H 0.80526 0.41340 0.17133
 H1588 H 0.82804 0.40452 0.20512
 H1589 H 0.82977 0.43102 0.22549
 H1590 H 0.81454 0.45726 0.24059
 H1591 H 0.76856 0.45564 0.20209
 H1592 H 0.78361 0.42925 0.18714
 C1593 C 0.82938 0.87173 0.65899
 C1594 C 0.82206 0.88730 0.66800
 C1595 C 0.81348 0.88520 0.68490
 C1596 C 0.81288 0.86739 0.69294
 C1597 C 0.82063 0.85193 0.68412
 C1598 C 0.82875 0.85400 0.66704
 C1599 C 0.80551 0.90173 0.69407
 C1600 C 0.78888 0.90092 0.70292
 C1601 C 0.78045 0.91739 0.71179
 C1602 C 0.76062 0.91988 0.71119
 C1603 C 0.75218 0.93509 0.71985
 C1604 C 0.76339 0.94773 0.72976
 C1605 C 0.78324 0.94511 0.73057
 C1606 C 0.79174 0.93017 0.72149
 H1607 H 0.83571 0.87346 0.64584
 H1608 H 0.82276 0.90093 0.66165
 H1609 H 0.80667 0.86548 0.70612
 H1610 H 0.82014 0.83829 0.69045
 H1611 H 0.81283 0.91504 0.69252
 H1612 H 0.78059 0.88806 0.70276
 H1613 H 0.75166 0.91010 0.70390
 H1614 H 0.73682 0.93671 0.71917
 H1615 H 0.79217 0.95465 0.73815
 H1616 H 0.80705 0.92833 0.72243
 C1617 C 0.67759 0.64080 0.66267
 C1618 C 0.68628 0.62520 0.67039
 C1619 C 0.67522 0.61022 0.67693
 C1620 C 0.65521 0.61095 0.67509
 C1621 C 0.64654 0.62658 0.66736
 C1622 C 0.65763 0.64171 0.66119
 C1623 C 0.68512 0.59410 0.68529
 C1624 C 0.67670 0.58236 0.69697
 C1625 C 0.68687 0.56688 0.70612
 C1626 C 0.67937 0.55991 0.72226
 C1627 C 0.68858 0.54554 0.73151
 C1628 C 0.70549 0.53770 0.72473
 C1629 C 0.71281 0.54439 0.70836
 C1630 C 0.70358 0.55876 0.69910
 H1631 H 0.68644 0.65233 0.65808
 H1632 H 0.70170 0.62495 0.67151
 H1633 H 0.64619 0.59944 0.67934
 H1634 H 0.63114 0.62687 0.66609
 H1635 H 0.70022 0.59273 0.68254
 H1636 H 0.66207 0.58480 0.70099
 H1637 H 0.66643 0.56577 0.72789
 H1638 H 0.68251 0.54066 0.74404
 H1639 H 0.72570 0.53850 0.70268
 H1640 H 0.70948 0.56325 0.68639
 C1641 C 0.65390 0.12844 0.17311
 C1642 C 0.66186 0.11275 0.18137
 C1643 C 0.68175 0.11088 0.18279
 C1644 C 0.69356 0.12508 0.17563
 C1645 C 0.68557 0.14076 0.16733
 C1646 C 0.66566 0.14269 0.16617
 C1647 C 0.68945 0.09455 0.19273
 C1648 C 0.70755 0.08861 0.19135
 C1649 C 0.71541 0.07282 0.20195
 C1650 C 0.73210 0.06407 0.19585
 C1651 C 0.74054 0.04973 0.20578
 C1652 C 0.73253 0.04387 0.22215
 C1653 C 0.71578 0.05257 0.22828
 C1654 C 0.70735 0.06694 0.21835
 H1655 H 0.63851 0.12960 0.17232
 H1656 H 0.65242 0.10211 0.18683
 H1657 H 0.70893 0.12456 0.17689
 H1658 H 0.69491 0.15171 0.16234
 H1659 H 0.67952 0.08692 0.20118
 H1660 H 0.71703 0.09513 0.18170
 H1661 H 0.73871 0.06841 0.18337
 H1662 H 0.75346 0.04337 0.20069
 H1663 H 0.70936 0.04850 0.24092
 H1664 H 0.69486 0.07368 0.22386
 C1665 C 0.15551 0.63167 0.16903
 C1666 C 0.16295 0.61482 0.17535
 C1667 C 0.18277 0.61214 0.17649
 C1668 C 0.19505 0.62670 0.17080
 C1669 C 0.18756 0.64354 0.16438
 C1670 C 0.16773 0.64625 0.16368
 C1671 C 0.18976 0.59459 0.18487
 C1672 C 0.20804 0.58899 0.18486
 C1673 C 0.21472 0.57234 0.19495
 C1674 C 0.23192 0.56376 0.18992
 C1675 C 0.23910 0.54862 0.19970
 C1676 C 0.22925 0.54183 0.21482
 C1677 C 0.21204 0.55041 0.21984
 C1678 C 0.20491 0.56553 0.21012
 H1679 H 0.14017 0.63347 0.16853
 H1680 H 0.15313 0.60394 0.17969
 H1681 H 0.21039 0.62553 0.17178
 H1682 H 0.19722 0.65472 0.16051
 H1683 H 0.17911 0.58589 0.19138
 H1684 H 0.21861 0.59657 0.17711
 H1685 H 0.23988 0.56885 0.17842
 H1686 H 0.25245 0.54237 0.19554
 H1687 H 0.20420 0.54568 0.23154
 H1688 H 0.19202 0.57213 0.21493
 C1689 C 0.17953 0.14224 0.65396
 C1690 C 0.18831 0.12596 0.66018
 C1691 C 0.17733 0.11036 0.66535
 C1692 C 0.15732 0.11113 0.66349
 C1693 C 0.14856 0.12744 0.65733
 C1694 C 0.15956 0.14319 0.65269
 C1695 C 0.18726 0.09371 0.67265
 C1696 C 0.17874 0.08110 0.68340
 C1697 C 0.18893 0.06535 0.69207
 C1698 C 0.18081 0.05720 0.70743
 C1699 C 0.19009 0.04273 0.71644
 C1700 C 0.20772 0.03599 0.71023
 C1701 C 0.21565 0.04378 0.69457
 C1702 C 0.20633 0.05825 0.68552
 H1703 H 0.18828 0.15426 0.65050
 H1704 H 0.20373 0.12571 0.66133
 H1705 H 0.14835 0.09920 0.66665
 H1706 H 0.13315 0.12782 0.65616
 H1707 H 0.20244 0.09275 0.67012
 H1708 H 0.16397 0.08306 0.68721
 H1709 H 0.16735 0.06225 0.71267
 H1710 H 0.18354 0.03699 0.72842
 H1711 H 0.22911 0.03874 0.68932
 H1712 H 0.21277 0.06366 0.67338
 C1713 C 0.32157 0.64783 0.31363
 C1714 C 0.31231 0.63330 0.30453
 C1715 C 0.31008 0.61569 0.31263
 C1716 C 0.31697 0.61290 0.33012
 C1717 C 0.32584 0.62757 0.33935
 C1718 C 0.32823 0.64508 0.33114
 C1719 C 0.29981 0.60073 0.30290
 C1720 C 0.30495 0.58273 0.30387
 C1721 C 0.29490 0.56798 0.29368
 C1722 C 0.30549 0.55377 0.28546
 C1723 C 0.29631 0.53989 0.27542
 C1724 C 0.27631 0.53968 0.27393
 C1725 C 0.26565 0.55358 0.28264
 C1726 C 0.27488 0.56774 0.29229
 H1727 H 0.32317 0.66136 0.30723
 H1728 H 0.30697 0.63577 0.29112
 H1729 H 0.31507 0.59956 0.33682
 H1730 H 0.33081 0.62535 0.35292
 H1731 H 0.28843 0.60480 0.29389
 H1732 H 0.31761 0.57887 0.31131
 H1733 H 0.32092 0.55364 0.28651
 H1734 H 0.30482 0.52923 0.26893
 H1735 H 0.25021 0.55371 0.28169
 H1736 H 0.26637 0.57838 0.29882
 C1737 C 0.32721 0.11001 0.83944
 C1738 C 0.31848 0.09485 0.83082
 C1739 C 0.30918 0.09739 0.81435
 C1740 C 0.30909 0.11527 0.80643
 C1741 C 0.31822 0.13029 0.81485
 C1742 C 0.32725 0.12775 0.83141
 C1743 C 0.30047 0.08114 0.80521
 C1744 C 0.28398 0.08242 0.79625
 C1745 C 0.27556 0.06640 0.78652
 C1746 C 0.25567 0.06401 0.78636
 C1747 C 0.24736 0.04931 0.77673
 C1748 C 0.25879 0.03712 0.76662
 C1749 C 0.27869 0.03965 0.76661
 C1750 C 0.28704 0.05405 0.77661
 H1751 H 0.33426 0.10792 0.85219
 H1752 H 0.31885 0.08115 0.83705
 H1753 H 0.30238 0.11751 0.79354
 H1754 H 0.31826 0.14395 0.80852
 H1755 H 0.30742 0.06768 0.80648
 H1756 H 0.27601 0.09539 0.79659
 H1757 H 0.24658 0.07350 0.79378
 H1758 H 0.23196 0.04773 0.77684
 H1759 H 0.28780 0.03043 0.75891
 H1760 H 0.30240 0.05584 0.77620
 C1761 C 0.79920 0.63662 0.84230
 C1762 C 0.78885 0.62171 0.83491
 C1763 C 0.79829 0.60687 0.82634
 C1764 C 0.81841 0.60697 0.82589
 C1765 C 0.82872 0.62191 0.83320
 C1766 C 0.81924 0.63694 0.84137
 C1767 C 0.78671 0.59160 0.81822
 C1768 C 0.79321 0.58055 0.80500
 C1769 C 0.78172 0.56570 0.79609
 C1770 C 0.78822 0.55868 0.77962
 C1771 C 0.77807 0.54467 0.77063
 C1772 C 0.76114 0.53726 0.77795
 C1773 C 0.75469 0.54408 0.79455
 C1774 C 0.76489 0.55809 0.80359
 H1775 H 0.79155 0.64810 0.84842
 H1776 H 0.77340 0.62193 0.83560
 H1777 H 0.82631 0.59550 0.82008
 H1778 H 0.84417 0.62172 0.83257
 H1779 H 0.77204 0.59032 0.82261
 H1780 H 0.80736 0.58303 0.79964
 H1781 H 0.80118 0.56414 0.77357
 H1782 H 0.78348 0.53972 0.75789
 H1783 H 0.74179 0.53853 0.80062
 H1784 H 0.75963 0.56263 0.81649
 C1785 C 0.84930 0.12182 0.34860
 C1786 C 0.84271 0.10627 0.33900
 C1787 C 0.83608 0.10835 0.32137
 C1788 C 0.83688 0.12610 0.31322
 C1789 C 0.84387 0.14153 0.32268
 C1790 C 0.84989 0.13953 0.34049
 C1791 C 0.82823 0.09195 0.31178
 C1792 C 0.81246 0.09323 0.30175
 C1793 C 0.80344 0.07682 0.29317
 C1794 C 0.78348 0.07549 0.29298
 C1795 C 0.77444 0.06025 0.28484
 C1796 C 0.78522 0.04636 0.27623
 C1797 C 0.80523 0.04785 0.27611
 C1798 C 0.81431 0.06287 0.28471
 H1799 H 0.85399 0.12010 0.36232
 H1800 H 0.84230 0.09269 0.34548
 H1801 H 0.83216 0.12800 0.29952
 H1802 H 0.84427 0.15514 0.31628
 H1803 H 0.83454 0.07837 0.31423
 H1804 H 0.80499 0.10647 0.30100
 H1805 H 0.77486 0.08617 0.29931
 H1806 H 0.75898 0.05952 0.28496
 H1807 H 0.81383 0.03732 0.26951
 H1808 H 0.82975 0.06378 0.28443
 C1809 C 0.68464 0.37903 0.35554
 C1810 C 0.69482 0.39356 0.34727
 C1811 C 0.69688 0.39409 0.32855
 C1812 C 0.68888 0.37950 0.31827
 C1813 C 0.67870 0.36501 0.32654
 C1814 C 0.67642 0.36465 0.34524
 C1815 C 0.70787 0.40969 0.32027
 C1816 C 0.70527 0.41525 0.30327
 C1817 C 0.71603 0.43077 0.29463
 C1818 C 0.70839 0.43890 0.27912
 C1819 C 0.71820 0.45312 0.27008
 C1820 C 0.73602 0.45950 0.27629
 C1821 C 0.74375 0.45139 0.29183
 C1822 C 0.73390 0.43712 0.30089
 H1823 H 0.68308 0.37902 0.36998
 H1824 H 0.70099 0.40450 0.35551
 H1825 H 0.69076 0.37896 0.30389
 H1826 H 0.67284 0.35386 0.31836
 H1827 H 0.71769 0.41729 0.32881
 H1828 H 0.69414 0.40870 0.29537
 H1829 H 0.69474 0.43421 0.27392
 H1830 H 0.71184 0.45903 0.25814
 H1831 H 0.75752 0.45589 0.29687
 H1832 H 0.74058 0.43088 0.31248
 C1833 C 0.67660 0.84974 0.84904
 C1834 C 0.68617 0.86455 0.84061
 C1835 C 0.67597 0.87949 0.83308
 C1836 C 0.65591 0.87951 0.83455
 C1837 C 0.64635 0.86467 0.84294
 C1838 C 0.65658 0.84964 0.85026
 C1839 C 0.68679 0.89485 0.82419
 C1840 C 0.67910 0.90647 0.81205
 C1841 C 0.69002 0.92146 0.80269
 C1842 C 0.68286 0.92850 0.78648
 C1843 C 0.69266 0.94253 0.77713
 C1844 C 0.70984 0.94995 0.78384
 C1845 C 0.71687 0.94317 0.80024
 C1846 C 0.70704 0.92915 0.80962
 H1847 H 0.68480 0.83823 0.85442
 H1848 H 0.70162 0.86422 0.83978
 H1849 H 0.64750 0.89102 0.82952
 H1850 H 0.63092 0.86499 0.84391
 H1851 H 0.70188 0.89582 0.82711
 H1852 H 0.66444 0.90439 0.80792
 H1853 H 0.66970 0.92298 0.78092
 H1854 H 0.68682 0.94748 0.76457
 H1855 H 0.72996 0.94873 0.80588
 H1856 H 0.71273 0.92462 0.82236
 C1857 C 0.16098 0.35517 0.81159
 C1858 C 0.16768 0.37159 0.80358
 C1859 C 0.17429 0.38656 0.81406
 C1860 C 0.17376 0.38488 0.83287
 C1861 C 0.16701 0.36841 0.84091
 C1862 C 0.16062 0.35336 0.83035
 C1863 C 0.18114 0.40368 0.80474
 C1864 C 0.19284 0.41644 0.81213
 C1865 C 0.20048 0.43268 0.80196
 C1866 C 0.21817 0.44038 0.80693
 C1867 C 0.22630 0.45503 0.79704
 C1868 C 0.21680 0.46240 0.78204
 C1869 C 0.19874 0.45519 0.77750
 C1870 C 0.19061 0.44056 0.78739
 H1871 H 0.15621 0.34379 0.80310
 H1872 H 0.16782 0.37253 0.78908
 H1873 H 0.17816 0.39631 0.84145
 H1874 H 0.16654 0.36748 0.85539
 H1875 H 0.17729 0.40508 0.79076
 H1876 H 0.19824 0.41426 0.82555
 H1877 H 0.22595 0.43472 0.81822
 H1878 H 0.24019 0.46036 0.80096
 H1879 H 0.19092 0.46073 0.76617
 H1880 H 0.17660 0.43553 0.78357
 C1881 C 0.20504 0.87294 0.33338
 C1882 C 0.21548 0.88750 0.32552
 C1883 C 0.20618 0.90323 0.31846
 C1884 C 0.18614 0.90431 0.31988
 C1885 C 0.17570 0.88970 0.32771
 C1886 C 0.18504 0.87385 0.33445
 C1887 C 0.21790 0.91821 0.31001
 C1888 C 0.21095 0.93044 0.29805
 C1889 C 0.22273 0.94490 0.28888
 C1890 C 0.21582 0.95270 0.27290
 C1891 C 0.22634 0.96632 0.26371
 C1892 C 0.24403 0.97256 0.27034
 C1893 C 0.25089 0.96497 0.28647
 C1894 C 0.24033 0.95135 0.29570
 H1895 H 0.21252 0.86081 0.33845
 H1896 H 0.23089 0.88637 0.32475
 H1897 H 0.17844 0.91645 0.31524
 H1898 H 0.16032 0.89079 0.32867
 H1899 H 0.23301 0.91828 0.31301
 H1900 H 0.19621 0.92924 0.29387
 H1901 H 0.20226 0.94813 0.26741
 H1902 H 0.22060 0.97192 0.25136
 H1903 H 0.26438 0.96963 0.29202
 H1904 H 0.24591 0.94620 0.30826
 C1905 C 0.37180 0.34966 0.67356
 C1906 C 0.38692 0.34097 0.68241
 C1907 C 0.38766 0.32139 0.68385
 C1908 C 0.37281 0.31064 0.67622
 C1909 C 0.35770 0.31937 0.66731
 C1910 C 0.35701 0.33896 0.66594
 C1911 C 0.40365 0.31293 0.69405
 C1912 C 0.40890 0.29495 0.69256
 C1913 C 0.42487 0.28655 0.70283
 C1914 C 0.43316 0.27004 0.69635
 C1915 C 0.44794 0.26137 0.70571
 C1916 C 0.45474 0.26895 0.72189
 C1917 C 0.44639 0.28542 0.72848
 C1918 C 0.43157 0.29411 0.71911
 H1919 H 0.37160 0.36479 0.67270
 H1920 H 0.39805 0.34960 0.68824
 H1921 H 0.37243 0.29557 0.67750
 H1922 H 0.34626 0.31084 0.66189
 H1923 H 0.41183 0.32222 0.70258
 H1924 H 0.40186 0.28605 0.68286
 H1925 H 0.42820 0.26382 0.68395
 H1926 H 0.45399 0.24865 0.70027
 H1927 H 0.45117 0.29151 0.74100
 H1928 H 0.42518 0.30646 0.72492
 C1929 C 0.36647 0.81573 0.16124
 C1930 C 0.38111 0.80591 0.16968
 C1931 C 0.39601 0.81548 0.17836
 C1932 C 0.39603 0.83521 0.17827
 C1933 C 0.38133 0.84503 0.16984
 C1934 C 0.36648 0.83539 0.16116
 C1935 C 0.41141 0.80431 0.18678
 C1936 C 0.42341 0.81100 0.19926
 C1937 C 0.43842 0.79947 0.20784
 C1938 C 0.44527 0.80478 0.22477
 C1939 C 0.45918 0.79416 0.23345
 C1940 C 0.46665 0.77802 0.22532
 C1941 C 0.46014 0.77294 0.20818
 C1942 C 0.44625 0.78358 0.19949
 H1943 H 0.35506 0.80798 0.15479
 H1944 H 0.38075 0.79074 0.16948
 H1945 H 0.40750 0.84318 0.18430
 H1946 H 0.38172 0.86019 0.16979
 H1947 H 0.41217 0.78970 0.18305
 H1948 H 0.42162 0.82510 0.20426
 H1949 H 0.43964 0.81706 0.23141
 H1950 H 0.46396 0.79851 0.24661
 H1951 H 0.46578 0.76072 0.20146
 H1952 H 0.44192 0.77940 0.18617
 C1953 C 0.86565 0.31155 0.16044
 C1954 C 0.88095 0.30287 0.16902
 C1955 C 0.89614 0.31352 0.17594
 C1956 C 0.89589 0.33312 0.17374
 C1957 C 0.88055 0.34179 0.16514
 C1958 C 0.86528 0.33109 0.15846
 C1959 C 0.91205 0.30361 0.18492
 C1960 C 0.92387 0.31178 0.19673
 C1961 C 0.93928 0.30163 0.20623
 C1962 C 0.94613 0.30894 0.22246
 C1963 C 0.96056 0.29982 0.23192
 C1964 C 0.96858 0.28320 0.22529
 C1965 C 0.96198 0.27602 0.20888
 C1966 C 0.94755 0.28516 0.19940
 H1967 H 0.85398 0.30302 0.15546
 H1968 H 0.88083 0.28777 0.17041
 H1969 H 0.90759 0.34180 0.17831
 H1970 H 0.88067 0.35686 0.16351
 H1971 H 0.91323 0.28874 0.18242
 H1972 H 0.92157 0.32622 0.20051
 H1973 H 0.94016 0.32168 0.22794
 H1974 H 0.96537 0.30578 0.24448
 H1975 H 0.96802 0.26337 0.20330
 H1976 H 0.94318 0.27940 0.18664
 C1977 C 0.86749 0.83826 0.67328
 C1978 C 0.88262 0.82890 0.68143
 C1979 C 0.88296 0.80925 0.68213
 C1980 C 0.86771 0.79913 0.67442
 C1981 C 0.85260 0.80855 0.66619
 C1982 C 0.85231 0.82820 0.66560
 C1983 C 0.89897 0.80014 0.69178
 C1984 C 0.90321 0.78186 0.69071
 C1985 C 0.91904 0.77319 0.70096
 C1986 C 0.92704 0.75641 0.69473
 C1987 C 0.94192 0.74781 0.70410
 C1988 C 0.94903 0.75579 0.71998
 C1989 C 0.94080 0.77240 0.72638
 C1990 C 0.92591 0.78095 0.71707
 H1991 H 0.86760 0.85342 0.67298
 H1992 H 0.89407 0.83707 0.68733
 H1993 H 0.86704 0.78403 0.67507
 H1994 H 0.84086 0.80050 0.66066
 H1995 H 0.90797 0.80922 0.69977
 H1996 H 0.89543 0.77292 0.68156
 H1997 H 0.92187 0.75002 0.68249
 H1998 H 0.94790 0.73497 0.69887
 H1999 H 0.94575 0.77878 0.73870
 H2000 H 0.91967 0.79342 0.72276
 C2001 C 0.63492 0.35433 0.33894
 C2002 C 0.61849 0.34720 0.33074
 C2003 C 0.61563 0.32779 0.32914
 C2004 C 0.62973 0.31562 0.33577
 C2005 C 0.64613 0.32277 0.34398
 C2006 C 0.64890 0.34217 0.34562
 C2007 C 0.59840 0.32087 0.31960
 C2008 C 0.59140 0.30343 0.32138
 C2009 C 0.57493 0.29614 0.31096
 C2010 C 0.56528 0.28010 0.31718
 C2011 C 0.55037 0.27216 0.30727
 C2012 C 0.54485 0.28004 0.29082
 C2013 C 0.55442 0.29615 0.28463
 C2014 C 0.56934 0.30406 0.29451
 H2015 H 0.63677 0.36934 0.34008
 H2016 H 0.60797 0.35689 0.32559
 H2017 H 0.62848 0.30061 0.33425
 H2018 H 0.65690 0.31314 0.34874
 H2019 H 0.59106 0.33081 0.31114
 H2020 H 0.59765 0.29406 0.33112
 H2021 H 0.56940 0.27361 0.32971
 H2022 H 0.54334 0.25971 0.31238
 H2023 H 0.55065 0.30248 0.27193
 H2024 H 0.57674 0.31601 0.28888
 C2025 C 0.61199 0.82789 0.85867
 C2026 C 0.59562 0.82081 0.85029
 C2027 C 0.59698 0.81199 0.83353
 C2028 C 0.61488 0.81085 0.82502
 C2029 C 0.63113 0.81834 0.83320
 C2030 C 0.62978 0.82676 0.85011
 C2031 C 0.57958 0.80461 0.82485
 C2032 C 0.57951 0.78831 0.81601
 C2033 C 0.56240 0.78094 0.80682
 C2034 C 0.55908 0.76156 0.80658
 C2035 C 0.54355 0.75412 0.79719
 C2036 C 0.53141 0.76592 0.78741
 C2037 C 0.53476 0.78533 0.78760
 C2038 C 0.55002 0.79280 0.79737
 H2039 H 0.61082 0.83446 0.87170
 H2040 H 0.58194 0.82197 0.85698
 H2041 H 0.61623 0.80446 0.81192
 H2042 H 0.64482 0.81746 0.82649
 H2043 H 0.56639 0.81232 0.82649
 H2044 H 0.59223 0.77971 0.81604
 H2045 H 0.56856 0.75217 0.81366
 H2046 H 0.54138 0.73910 0.79711
 H2047 H 0.52563 0.79471 0.78013
 H2048 H 0.55250 0.80778 0.79703
 C2049 C 0.14080 0.30913 0.82221
 C2050 C 0.12605 0.30039 0.81271
 C2051 C 0.10800 0.30875 0.81160
 C2052 C 0.10495 0.32611 0.82000
 C2053 C 0.11984 0.33505 0.82912
 C2054 C 0.13782 0.32661 0.83025
 C2055 C 0.09293 0.29967 0.80080
 C2056 C 0.07455 0.29970 0.80573
 C2057 C 0.05964 0.29049 0.79486
 C2058 C 0.04538 0.27992 0.80340
 C2059 C 0.03122 0.27095 0.79334
 C2060 C 0.03075 0.27296 0.77461
 C2061 C 0.04474 0.28397 0.76609
 C2062 C 0.05922 0.29250 0.77612
 H2063 H 0.15471 0.30262 0.82284
 H2064 H 0.12873 0.28710 0.80621
 H2065 H 0.09127 0.33303 0.81902
 H2066 H 0.11748 0.34863 0.83514
 H2067 H 0.09722 0.29199 0.78894
 H2068 H 0.07046 0.30561 0.81854
 H2069 H 0.04539 0.27835 0.81785
 H2070 H 0.02048 0.26264 0.80020
 H2071 H 0.04465 0.28572 0.75167
 H2072 H 0.06991 0.30088 0.76927
 C2073 C 0.15713 0.84969 0.31455
 C2074 C 0.14101 0.84252 0.30588
 C2075 C 0.12489 0.83684 0.31573
 C2076 C 0.12504 0.83901 0.33450
 C2077 C 0.14118 0.84621 0.34317
 C2078 C 0.15743 0.85151 0.33330
 C2079 C 0.10825 0.82900 0.30593
 C2080 C 0.09534 0.81747 0.31348
 C2081 C 0.07938 0.80864 0.30345
 C2082 C 0.07135 0.79202 0.31017
 C2083 C 0.05650 0.78300 0.30108
 C2084 C 0.04920 0.79051 0.28509
 C2085 C 0.05692 0.80739 0.27854
 C2086 C 0.07182 0.81640 0.28763
 H2087 H 0.16950 0.85361 0.30664
 H2088 H 0.14125 0.84113 0.29142
 H2089 H 0.11268 0.83544 0.34255
 H2090 H 0.14096 0.84779 0.35760
 H2091 H 0.10745 0.83187 0.29170
 H2092 H 0.09718 0.81320 0.32729
 H2093 H 0.07676 0.78582 0.32240
 H2094 H 0.05082 0.77007 0.30656
 H2095 H 0.05149 0.81363 0.26634
 H2096 H 0.07717 0.82951 0.28232
 C2097 C 0.61690 0.67306 0.65187
 C2098 C 0.60114 0.68136 0.66014
 C2099 C 0.60005 0.68263 0.67889
 C2100 C 0.61523 0.67561 0.68924
 C2101 C 0.63100 0.66736 0.68095
 C2102 C 0.63202 0.66603 0.66219
 C2103 C 0.58339 0.69213 0.68710
 C2104 C 0.57755 0.68897 0.70398
 C2105 C 0.56122 0.69877 0.71245
 C2106 C 0.55225 0.69044 0.72730
 C2107 C 0.53734 0.69950 0.73617
 C2108 C 0.53116 0.71723 0.73048
 C2109 C 0.54012 0.72560 0.71560
 C2110 C 0.55503 0.71651 0.70670
 H2111 H 0.61735 0.67216 0.63739
 H2112 H 0.58974 0.68678 0.65186
 H2113 H 0.61529 0.67691 0.70368
 H2114 H 0.64264 0.66236 0.68917
 H2115 H 0.57532 0.70149 0.67862
 H2116 H 0.58451 0.67826 0.71186
 H2117 H 0.55685 0.67687 0.73210
 H2118 H 0.53080 0.69269 0.74763
 H2119 H 0.53580 0.73931 0.71097
 H2120 H 0.56194 0.72368 0.69566
 C2121 C 0.62609 0.17531 0.15776
 C2122 C 0.61107 0.18454 0.16630
 C2123 C 0.61098 0.18671 0.18500
 C2124 C 0.62633 0.17953 0.19502
 C2125 C 0.64133 0.17030 0.18645
 C2126 C 0.64139 0.16818 0.16775
 C2127 C 0.59519 0.19735 0.19339
 C2128 C 0.59030 0.19570 0.21071
 C2129 C 0.57479 0.20669 0.21911
 C2130 C 0.56595 0.19965 0.23462
 C2131 C 0.55152 0.20974 0.24317
 C2132 C 0.54575 0.22721 0.23646
 C2133 C 0.55473 0.23437 0.22103
 C2134 C 0.56914 0.22426 0.21247
 H2135 H 0.62586 0.17381 0.14332
 H2136 H 0.59952 0.19005 0.15826
 H2137 H 0.62716 0.18146 0.20937
 H2138 H 0.65318 0.16522 0.19437
 H2139 H 0.58693 0.20634 0.18471
 H2140 H 0.59730 0.18538 0.21901
 H2141 H 0.57017 0.18625 0.24011
 H2142 H 0.54495 0.20387 0.25507
 H2143 H 0.55073 0.24787 0.21562
 H2144 H 0.57605 0.23048 0.20092
 C2145 C 0.14644 0.67242 0.18792
 C2146 C 0.13219 0.68065 0.19835
 C2147 C 0.11644 0.68930 0.19024
 C2148 C 0.11504 0.68915 0.17140
 C2149 C 0.12934 0.68093 0.16098
 C2150 C 0.14520 0.67256 0.16914
 C2151 C 0.10169 0.69786 0.20191
 C2152 C 0.08967 0.71122 0.19633
 C2153 C 0.07528 0.72024 0.20808
 C2154 C 0.06796 0.73769 0.20295
 C2155 C 0.05428 0.74670 0.21346
 C2156 C 0.04749 0.73840 0.22934
 C2157 C 0.05465 0.72084 0.23443
 C2158 C 0.06833 0.71179 0.22388
 H2159 H 0.15858 0.66607 0.19449
 H2160 H 0.13356 0.68042 0.21281
 H2161 H 0.10283 0.69503 0.16461
 H2162 H 0.12795 0.68089 0.14652
 H2163 H 0.10158 0.69365 0.21584
 H2164 H 0.09098 0.71663 0.18283
 H2165 H 0.07292 0.74445 0.19078
 H2166 H 0.04902 0.76019 0.20911
 H2167 H 0.04956 0.71398 0.24649
 H2168 H 0.07308 0.69809 0.22804
 C2169 C 0.13504 0.16687 0.67630
 C2170 C 0.11967 0.17352 0.68636
 C2171 C 0.10352 0.18098 0.67788
 C2172 C 0.10296 0.18133 0.65899
 C2173 C 0.11840 0.17471 0.64893
 C2174 C 0.13458 0.16743 0.65749
 C2175 C 0.08757 0.18786 0.68924
 C2176 C 0.07437 0.20003 0.68352
 C2177 C 0.05908 0.20775 0.69513
 C2178 C 0.05049 0.22463 0.69002
 C2179 C 0.03620 0.23264 0.70054
 C2180 C 0.03000 0.22389 0.71642
 C2181 C 0.03830 0.20679 0.72142
 C2182 C 0.05264 0.19875 0.71086
 H2183 H 0.14740 0.16137 0.68321
 H2184 H 0.12046 0.17296 0.70085
 H2185 H 0.09058 0.18636 0.65186
 H2186 H 0.11763 0.17498 0.63443
 H2187 H 0.08753 0.18352 0.70314
 H2188 H 0.07540 0.20563 0.67008
 H2189 H 0.05502 0.23179 0.67792
 H2190 H 0.03007 0.24579 0.69624
 H2191 H 0.03371 0.19961 0.73348
 H2192 H 0.05842 0.18541 0.71499
 C2193 C 0.35527 0.68924 0.33459
 C2194 C 0.37134 0.69821 0.32740
 C2195 C 0.38585 0.68786 0.31905
 C2196 C 0.38413 0.66821 0.31843
 C2197 C 0.36803 0.65926 0.32558
 C2198 C 0.35343 0.66967 0.33372
 C2199 C 0.40260 0.69804 0.31154
 C2200 C 0.41405 0.69093 0.29881
 C2201 C 0.43045 0.70125 0.29082
 C2202 C 0.43746 0.69536 0.27412
 C2203 C 0.45284 0.70460 0.26600
 C2204 C 0.46168 0.71993 0.27447
 C2205 C 0.45489 0.72567 0.29132
 C2206 C 0.43951 0.71640 0.29947
 H2207 H 0.34414 0.69760 0.34066
 H2208 H 0.37233 0.71333 0.32818
 H2209 H 0.39525 0.65961 0.31272
 H2210 H 0.36705 0.64414 0.32497
 H2211 H 0.40480 0.71228 0.31603
 H2212 H 0.41078 0.67734 0.29317
 H2213 H 0.43089 0.68364 0.26723
 H2214 H 0.45775 0.69977 0.25304
 H2215 H 0.46151 0.73731 0.29828
 H2216 H 0.43502 0.72101 0.31260
 C2217 C 0.36721 0.13962 0.82339
 C2218 C 0.38295 0.14734 0.81447
 C2219 C 0.38530 0.16683 0.81325
 C2220 C 0.37133 0.17848 0.82094
 C2221 C 0.35559 0.17075 0.82988
 C2222 C 0.35340 0.15124 0.83123
 C2223 C 0.40199 0.17437 0.80325
 C2224 C 0.40898 0.19170 0.80571
 C2225 C 0.42545 0.19960 0.79561
 C2226 C 0.43468 0.21550 0.80253
 C2227 C 0.44966 0.22403 0.79318
 C2228 C 0.45577 0.21689 0.77659
 C2229 C 0.44667 0.20088 0.76967
 C2230 C 0.43161 0.19236 0.77901
 H2231 H 0.36579 0.12454 0.82420
 H2232 H 0.39337 0.13804 0.80854
 H2233 H 0.37216 0.19355 0.81973
 H2234 H 0.34489 0.17998 0.83542
 H2235 H 0.40911 0.16493 0.79412
 H2236 H 0.40287 0.20047 0.81603
 H2237 H 0.43018 0.22145 0.81520
 H2238 H 0.45634 0.23636 0.79890
 H2239 H 0.45092 0.19515 0.75684
 H2240 H 0.42458 0.18047 0.77290
 C2241 C 0.84257 0.66715 0.82062
 C2242 C 0.85759 0.67535 0.81101
 C2243 C 0.87604 0.67600 0.81829
 C2244 C 0.87922 0.66853 0.83548
 C2245 C 0.86409 0.66073 0.84525
 C2246 C 0.84571 0.65999 0.83785
 C2247 C 0.89145 0.68544 0.80815
 C2248 C 0.90949 0.67932 0.80813
 C2249 C 0.92460 0.68887 0.79770
 C2250 C 0.93800 0.67822 0.78821
 C2251 C 0.95207 0.68704 0.77784
 C2252 C 0.95332 0.70668 0.77730
 C2253 C 0.94029 0.71732 0.78729
 C2254 C 0.92593 0.70851 0.79727
 H2255 H 0.82838 0.66681 0.81487
 H2256 H 0.85481 0.68117 0.79786
 H2257 H 0.89324 0.66922 0.84156
 H2258 H 0.86661 0.65535 0.85860
 H2259 H 0.88760 0.69720 0.79973
 H2260 H 0.91302 0.66640 0.81495
 H2261 H 0.93729 0.66307 0.78850
 H2262 H 0.96204 0.67854 0.77034
 H2263 H 0.94095 0.73248 0.78708
 H2264 H 0.91597 0.71702 0.80478
 C2265 C 0.87054 0.18659 0.34357
 C2266 C 0.88515 0.19747 0.33603
 C2267 C 0.90108 0.18897 0.32808
 C2268 C 0.90244 0.16930 0.32840
 C2269 C 0.88781 0.15844 0.33589
 C2270 C 0.87166 0.16696 0.34343
 C2271 C 0.91596 0.20101 0.31970
 C2272 C 0.92756 0.19498 0.30660
 C2273 C 0.94197 0.20689 0.29737
 C2274 C 0.94917 0.20075 0.28084
 C2275 C 0.96288 0.21124 0.27162
 C2276 C 0.96983 0.22815 0.27875
 C2277 C 0.96277 0.23430 0.29537
 C2278 C 0.94903 0.22375 0.30465
 H2279 H 0.85817 0.19349 0.34919
 H2280 H 0.88381 0.21258 0.33610
 H2281 H 0.91480 0.16219 0.32307
 H2282 H 0.88910 0.14334 0.33587
 H2283 H 0.91639 0.21555 0.32373
 H2284 H 0.92581 0.18087 0.30157
 H2285 H 0.94410 0.18777 0.27497
 H2286 H 0.96804 0.20606 0.25886
 H2287 H 0.96797 0.24719 0.30129
 H2288 H 0.94432 0.22875 0.31758
 C2289 C 0.31164 0.34091 0.64046
 C2290 C 0.30261 0.33372 0.62526
 C2291 C 0.31329 0.32587 0.61124
 C2292 C 0.33337 0.32567 0.61266
 C2293 C 0.34241 0.33283 0.62793
 C2294 C 0.33163 0.34048 0.64200
 C2295 C 0.30285 0.31850 0.59539
 C2296 C 0.31036 0.30654 0.58347
 C2297 C 0.29949 0.29853 0.56817
 C2298 C 0.30613 0.28196 0.56027
 C2299 C 0.29631 0.27372 0.54600
 C2300 C 0.27962 0.28193 0.53919
 C2301 C 0.27312 0.29871 0.54684
 C2302 C 0.28299 0.30699 0.56111
 H2303 H 0.30296 0.34669 0.65111
 H2304 H 0.28717 0.33419 0.62452
 H2305 H 0.34224 0.32034 0.60196
 H2306 H 0.35785 0.33266 0.62868
 H2307 H 0.28799 0.32238 0.59421
 H2308 H 0.32471 0.30140 0.58545
 H2309 H 0.31888 0.27522 0.56530
 H2310 H 0.30177 0.26083 0.54038
 H2311 H 0.26043 0.30550 0.54177
 H2312 H 0.27772 0.32011 0.56633
 C2313 C 0.35595 0.83186 0.12204
 C2314 C 0.34840 0.82414 0.10635
 C2315 C 0.32857 0.82340 0.10362
 C2316 C 0.31642 0.83073 0.11693
 C2317 C 0.32399 0.83850 0.13258
 C2318 C 0.34380 0.83890 0.13540
 C2319 C 0.32117 0.81380 0.08739
 C2320 C 0.30341 0.81613 0.08106
 C2321 C 0.29541 0.80551 0.06569
 C2322 C 0.27891 0.81235 0.05734
 C2323 C 0.27010 0.80228 0.04358
 C2324 C 0.27755 0.78504 0.03788
 C2325 C 0.29418 0.77824 0.04609
 C2326 C 0.30297 0.78829 0.05991
 H2327 H 0.37128 0.83211 0.12390
 H2328 H 0.35809 0.81851 0.09640
 H2329 H 0.30106 0.82993 0.11572
 H2330 H 0.31432 0.84359 0.14280
 H2331 H 0.33095 0.80470 0.08036
 H2332 H 0.29425 0.82651 0.08711
 H2333 H 0.27268 0.82548 0.06160
 H2334 H 0.25729 0.80792 0.03755
 H2335 H 0.30017 0.76492 0.04211
 H2336 H 0.31530 0.78218 0.06630
 C2337 C 0.85361 0.32497 0.12007
 C2338 C 0.84602 0.31615 0.10493
 C2339 C 0.82619 0.31407 0.10292
 C2340 C 0.81407 0.32088 0.11651
 C2341 C 0.82168 0.32971 0.13163
 C2342 C 0.84151 0.33178 0.13358
 C2343 C 0.81877 0.30398 0.08699
 C2344 C 0.80100 0.30627 0.08069
 C2345 C 0.79303 0.29589 0.06516
 C2346 C 0.77667 0.30301 0.05681
 C2347 C 0.76792 0.29329 0.04281
 C2348 C 0.77528 0.27610 0.03685
 C2349 C 0.79179 0.26901 0.04505
 C2350 C 0.80055 0.27875 0.05911
 H2351 H 0.86895 0.32641 0.12131
 H2352 H 0.85568 0.31090 0.09477
 H2353 H 0.79876 0.31898 0.11583
 H2354 H 0.81211 0.33451 0.14205
 H2355 H 0.82859 0.29492 0.07995
 H2356 H 0.79186 0.31666 0.08680
 H2357 H 0.77050 0.31610 0.06124
 H2358 H 0.75521 0.29915 0.03681
 H2359 H 0.79770 0.25572 0.04087
 H2360 H 0.81282 0.27248 0.06549
 C2361 C 0.80717 0.83204 0.64005
 C2362 C 0.79821 0.82530 0.62462
 C2363 C 0.80896 0.81767 0.61053
 C2364 C 0.82902 0.81743 0.61201
 C2365 C 0.83797 0.82413 0.62750
 C2366 C 0.82713 0.83135 0.64173
 C2367 C 0.79864 0.81037 0.59460
 C2368 C 0.80617 0.79812 0.58296
 C2369 C 0.79542 0.78987 0.56771
 C2370 C 0.80210 0.77315 0.56014
 C2371 C 0.79232 0.76460 0.54602
 C2372 C 0.77561 0.77263 0.53906
 C2373 C 0.76909 0.78958 0.54636
 C2374 C 0.77893 0.79818 0.56046
 H2375 H 0.79846 0.83752 0.65082
 H2376 H 0.78277 0.82582 0.62381
 H2377 H 0.83793 0.81234 0.60124
 H2378 H 0.85341 0.82382 0.62834
 H2379 H 0.78385 0.81442 0.59321
 H2380 H 0.82041 0.79284 0.58522
 H2381 H 0.81484 0.76652 0.56532
 H2382 H 0.79777 0.75159 0.54066
 H2383 H 0.75639 0.79624 0.54115
 H2384 H 0.77363 0.81138 0.56543
 C2385 C 0.30771 0.66763 0.35839
 C2386 C 0.29893 0.67404 0.37402
 C2387 C 0.30990 0.67982 0.38877
 C2388 C 0.32995 0.67855 0.38770
 C2389 C 0.33873 0.67216 0.37201
 C2390 C 0.32770 0.66678 0.35716
 C2391 C 0.29979 0.68691 0.40487
 C2392 C 0.30800 0.69785 0.41732
 C2393 C 0.29734 0.70622 0.43252
 C2394 C 0.30470 0.72247 0.44056
 C2395 C 0.29479 0.73133 0.45440
 C2396 C 0.27730 0.72406 0.46060
 C2397 C 0.27019 0.70745 0.45297
 C2398 C 0.28013 0.69856 0.43913
 H2399 H 0.29888 0.66358 0.34713
 H2400 H 0.28348 0.67474 0.37450
 H2401 H 0.33895 0.68221 0.39894
 H2402 H 0.35416 0.67126 0.37147
 H2403 H 0.28462 0.68404 0.40569
 H2404 H 0.32274 0.70211 0.41570
 H2405 H 0.31800 0.72857 0.43586
 H2406 H 0.30073 0.74405 0.46005
 H2407 H 0.25687 0.70137 0.45761
 H2408 H 0.27431 0.68568 0.43379
 C2409 C 0.30894 0.15230 0.85833
 C2410 C 0.30121 0.16081 0.87353
 C2411 C 0.31312 0.16865 0.88668
 C2412 C 0.33306 0.16721 0.88458
 C2413 C 0.34080 0.15870 0.86934
 C2414 C 0.32883 0.15137 0.85595
 C2415 C 0.30412 0.17801 0.90230
 C2416 C 0.31303 0.19084 0.91249
 C2417 C 0.30349 0.20117 0.92725
 C2418 C 0.31124 0.21841 0.93271
 C2419 C 0.30245 0.22891 0.94619
 C2420 C 0.28572 0.22234 0.95458
 C2421 C 0.27823 0.20485 0.94947
 C2422 C 0.28705 0.19432 0.93603
 H2423 H 0.29935 0.14678 0.84825
 H2424 H 0.28582 0.16155 0.87487
 H2425 H 0.34277 0.17243 0.89469
 H2426 H 0.35616 0.15779 0.86801
 H2427 H 0.28914 0.17508 0.90459
 H2428 H 0.32749 0.19501 0.90921
 H2429 H 0.32398 0.22395 0.92633
 H2430 H 0.30864 0.24229 0.94987
 H2431 H 0.26550 0.19927 0.95583
 H2432 H 0.28100 0.18081 0.93273
 C2433 C 0.82538 0.68177 0.86558
 C2434 C 0.82016 0.69098 0.88132
 C2435 C 0.81383 0.68086 0.89634
 C2436 C 0.81317 0.66115 0.89537
 C2437 C 0.81837 0.65193 0.87955
 C2438 C 0.82446 0.66215 0.86449
 C2439 C 0.80835 0.69149 0.91265
 C2440 C 0.79743 0.68451 0.92589
 C2441 C 0.79087 0.69581 0.94140
 C2442 C 0.77429 0.69014 0.95053
 C2443 C 0.76712 0.70073 0.96474
 C2444 C 0.77646 0.71722 0.97024
 C2445 C 0.79342 0.72260 0.96150
 C2446 C 0.80062 0.71197 0.94729
 H2447 H 0.82998 0.69001 0.85416
 H2448 H 0.82092 0.70614 0.88169
 H2449 H 0.80899 0.65274 0.90677
 H2450 H 0.81788 0.63678 0.87913
 H2451 H 0.81254 0.70608 0.91307
 H2452 H 0.79180 0.67042 0.92481
 H2453 H 0.76661 0.67766 0.94642
 H2454 H 0.75407 0.69613 0.97124
 H2455 H 0.80108 0.73510 0.96556
 H2456 H 0.81384 0.71646 0.94109
 C2457 C 0.82597 0.15980 0.36706
 C2458 C 0.81596 0.16593 0.38214
 C2459 C 0.82566 0.17364 0.39687
 C2460 C 0.84578 0.17449 0.39641
 C2461 C 0.85579 0.16842 0.38126
 C2462 C 0.84597 0.16121 0.36637
 C2463 C 0.81421 0.18053 0.41227
 C2464 C 0.82080 0.19274 0.42449
 C2465 C 0.80885 0.20078 0.43903
 C2466 C 0.81504 0.21738 0.44731
 C2467 C 0.80406 0.22583 0.46067
 C2468 C 0.78660 0.21784 0.46611
 C2469 C 0.78060 0.20098 0.45818
 C2470 C 0.79164 0.19245 0.44487
 H2471 H 0.81806 0.15432 0.35575
 H2472 H 0.80051 0.16494 0.38216
 H2473 H 0.85392 0.17966 0.40768
 H2474 H 0.87123 0.16931 0.38115
 H2475 H 0.79938 0.17626 0.41268
 H2476 H 0.83517 0.19820 0.42322
 H2477 H 0.82830 0.22401 0.44323
 H2478 H 0.80913 0.23879 0.46656
 H2479 H 0.76735 0.19434 0.46225
 H2480 H 0.78663 0.17932 0.43939
 C2481 C 0.66134 0.33522 0.38362
 C2482 C 0.66845 0.32573 0.39854
 C2483 C 0.68799 0.32166 0.39991
 C2484 C 0.70033 0.32732 0.38596
 C2485 C 0.69320 0.33680 0.37104
 C2486 C 0.67362 0.34072 0.36966
 C2487 C 0.69467 0.31053 0.41544
 C2488 C 0.71287 0.31024 0.42100
 C2489 C 0.71954 0.29833 0.43600
 C2490 C 0.73621 0.30350 0.44520
 C2491 C 0.74327 0.29232 0.45905
 C2492 C 0.73389 0.27560 0.46386
 C2493 C 0.71727 0.27036 0.45456
 C2494 C 0.71020 0.28155 0.44075
 H2495 H 0.64620 0.33813 0.38285
 H2496 H 0.65862 0.32142 0.40901
 H2497 H 0.71536 0.32393 0.38618
 H2498 H 0.70287 0.34061 0.36028
 H2499 H 0.68395 0.30269 0.42280
 H2500 H 0.72328 0.31945 0.41481
 H2501 H 0.74379 0.31625 0.44168
 H2502 H 0.75616 0.29671 0.46590
 H2503 H 0.70981 0.25748 0.45783
 H2504 H 0.69769 0.27673 0.43357
 C2505 C 0.65304 0.80562 0.87637
 C2506 C 0.66093 0.79687 0.89136
 C2507 C 0.67000 0.80742 0.90476
 C2508 C 0.67032 0.82708 0.90320
 C2509 C 0.66245 0.83583 0.88818
 C2510 C 0.65398 0.82519 0.87448
 C2511 C 0.67891 0.79741 0.92002
 C2512 C 0.69331 0.80463 0.92971
 C2513 C 0.70343 0.79426 0.94406
 C2514 C 0.72172 0.80044 0.94906
 C2515 C 0.73200 0.79109 0.96231
 C2516 C 0.72419 0.77534 0.97100
 C2517 C 0.70575 0.76929 0.96625
 C2518 C 0.69543 0.77868 0.95297
 H2519 H 0.64658 0.79706 0.86604
 H2520 H 0.66029 0.78174 0.89230
 H2521 H 0.67649 0.83580 0.91355
 H2522 H 0.66295 0.85096 0.88722
 H2523 H 0.67436 0.78312 0.92234
 H2524 H 0.69894 0.81830 0.92626
 H2525 H 0.72818 0.81247 0.94254
 H2526 H 0.74614 0.79619 0.96569
 H2527 H 0.69926 0.75732 0.97283
 H2528 H 0.68115 0.77379 0.94996
 C2529 C 0.15126 0.32000 0.86767
 C2530 C 0.15988 0.31205 0.88272
 C2531 C 0.17982 0.31234 0.88469
 C2532 C 0.19102 0.32059 0.87107
 C2533 C 0.18237 0.32861 0.85605
 C2534 C 0.16241 0.32844 0.85422
 C2535 C 0.18826 0.30322 0.90071
 C2536 C 0.20611 0.30648 0.90654
 C2537 C 0.21466 0.29702 0.92233
 C2538 C 0.23103 0.30493 0.93017
 C2539 C 0.23998 0.29622 0.94467
 C2540 C 0.23277 0.27932 0.95165
 C2541 C 0.21637 0.27138 0.94385
 C2542 C 0.20747 0.28004 0.92929
 H2543 H 0.13584 0.31967 0.86656
 H2544 H 0.15090 0.30565 0.89289
 H2545 H 0.20644 0.32055 0.87166
 H2546 H 0.19128 0.33466 0.84565
 H2547 H 0.17900 0.29395 0.90826
 H2548 H 0.21480 0.31697 0.89991
 H2549 H 0.23698 0.31790 0.92502
 H2550 H 0.25263 0.30268 0.95034
 H2551 H 0.21058 0.25826 0.94877
 H2552 H 0.19530 0.27307 0.92336
 C2553 C 0.18775 0.86107 0.37281
 C2554 C 0.19476 0.85271 0.38839
 C2555 C 0.19489 0.83315 0.39023
 C2556 C 0.18801 0.82207 0.37598
 C2557 C 0.18099 0.83045 0.36041
 C2558 C 0.18082 0.85001 0.35865
 C2559 C 0.20309 0.82487 0.40675
 C2560 C 0.19886 0.80753 0.41251
 C2561 C 0.20740 0.79882 0.42867
 C2562 C 0.19824 0.78317 0.43622
 C2563 C 0.20618 0.77386 0.45087
 C2564 C 0.22358 0.77992 0.45828
 C2565 C 0.23273 0.79568 0.45084
 C2566 C 0.22479 0.80499 0.43614
 H2567 H 0.18775 0.87619 0.37174
 H2568 H 0.20011 0.86157 0.39906
 H2569 H 0.18848 0.80695 0.37654
 H2570 H 0.17607 0.82164 0.34953
 H2571 H 0.21238 0.83373 0.41466
 H2572 H 0.18820 0.79938 0.40544
 H2573 H 0.18491 0.77803 0.43068
 H2574 H 0.19876 0.76174 0.45624
 H2575 H 0.24625 0.80060 0.45614
 H2576 H 0.23265 0.81663 0.43045
 C2577 C 0.65865 0.68662 0.63733
 C2578 C 0.66675 0.69532 0.62235
 C2579 C 0.67338 0.68468 0.60783
 C2580 C 0.67141 0.66505 0.60846
 C2581 C 0.66329 0.65635 0.62347
 C2582 C 0.65687 0.66705 0.63805
 C2583 C 0.68174 0.69467 0.59221
 C2584 C 0.69347 0.68670 0.58021
 C2585 C 0.70224 0.69722 0.56511
 C2586 C 0.71954 0.69090 0.55782
 C2587 C 0.72854 0.70080 0.54396
 C2588 C 0.72031 0.71718 0.53701
 C2589 C 0.70267 0.72316 0.54392
 C2590 C 0.69369 0.71326 0.55774
 H2591 H 0.65392 0.69515 0.64846
 H2592 H 0.66798 0.71045 0.62218
 H2593 H 0.67576 0.65636 0.59734
 H2594 H 0.66182 0.64125 0.62366
 H2595 H 0.67887 0.70951 0.59124
 H2596 H 0.69787 0.67233 0.58205
 H2597 H 0.72632 0.67846 0.56310
 H2598 H 0.74207 0.69577 0.53887
 H2599 H 0.69582 0.73558 0.53871
 H2600 H 0.67999 0.71818 0.56248
 C2601 C 0.66803 0.18796 0.14277
 C2602 C 0.67521 0.19677 0.12746
 C2603 C 0.68028 0.18629 0.11229
 C2604 C 0.67789 0.16668 0.11276
 C2605 C 0.67071 0.15787 0.12814
 C2606 C 0.66561 0.16844 0.14324
 C2607 C 0.68746 0.19647 0.09627
 C2608 C 0.69764 0.18844 0.08313
 C2609 C 0.70562 0.19903 0.06771
 C2610 C 0.72176 0.19191 0.05896
 C2611 C 0.73010 0.20162 0.04468
 C2612 C 0.72236 0.21864 0.03868
 C2613 C 0.70587 0.22554 0.04709
 C2614 C 0.69753 0.21582 0.06143
 H2615 H 0.66428 0.19640 0.15430
 H2616 H 0.67684 0.21187 0.12749
 H2617 H 0.68106 0.15809 0.10122
 H2618 H 0.66871 0.14282 0.12814
 H2619 H 0.68514 0.21144 0.09590
 H2620 H 0.70151 0.17384 0.08421
 H2621 H 0.72816 0.17893 0.06338
 H2622 H 0.74273 0.19583 0.03843
 H2623 H 0.69945 0.23851 0.04267
 H2624 H 0.68470 0.22144 0.06741
 C2625 C 0.17010 0.69329 0.14310
 C2626 C 0.17722 0.70266 0.12805
 C2627 C 0.18204 0.69275 0.11246
 C2628 C 0.17920 0.67321 0.11211
 C2629 C 0.17206 0.66385 0.12718
 C2630 C 0.16746 0.67378 0.14283
 C2631 C 0.18954 0.70335 0.09683
 C2632 C 0.20036 0.69564 0.08396
 C2633 C 0.20862 0.70647 0.06883
 C2634 C 0.22513 0.69969 0.06042
 C2635 C 0.23359 0.70956 0.04628
 C2636 C 0.22559 0.72639 0.04011
 C2637 C 0.20880 0.73298 0.04824
 C2638 C 0.20036 0.72312 0.06242
 H2639 H 0.16677 0.70126 0.15504
 H2640 H 0.17915 0.71771 0.12866
 H2641 H 0.18212 0.66512 0.10018
 H2642 H 0.16986 0.64884 0.12657
 H2643 H 0.18697 0.71828 0.09661
 H2644 H 0.20446 0.68110 0.08507
 H2645 H 0.23167 0.68683 0.06496
 H2646 H 0.24646 0.70403 0.04026
 H2647 H 0.20218 0.74580 0.04368
 H2648 H 0.18727 0.72848 0.06813
 C2649 C 0.15921 0.19023 0.63246
 C2650 C 0.16714 0.20011 0.61805
 C2651 C 0.17397 0.19062 0.60287
 C2652 C 0.17209 0.17099 0.60215
 C2653 C 0.16414 0.16113 0.61656
 C2654 C 0.15779 0.17062 0.63193
 C2655 C 0.18265 0.20169 0.58808
 C2656 C 0.19508 0.19458 0.57619
 C2657 C 0.20445 0.20591 0.56194
 C2658 C 0.22179 0.19966 0.55467
 C2659 C 0.23127 0.21006 0.54144
 C2660 C 0.22351 0.22692 0.53511
 C2661 C 0.20590 0.23295 0.54206
 C2662 C 0.19643 0.22254 0.55526
 H2663 H 0.15451 0.19787 0.64418
 H2664 H 0.16825 0.21522 0.61890
 H2665 H 0.17651 0.16318 0.59046
 H2666 H 0.16291 0.14603 0.61573
 H2667 H 0.17953 0.21651 0.58780
 H2668 H 0.19960 0.18018 0.57752
 H2669 H 0.22819 0.18680 0.55942
 H2670 H 0.24476 0.20498 0.53632
 H2671 H 0.19942 0.24576 0.53733
 H2672 H 0.18276 0.22751 0.56000
   
