data_POSCAR
  _audit_creation_date              2014-09-24
  _audit_creation_method            'ToBaCCo'
  _symmetry_space_group_name_H-M    'P1'
  _symmetry_Int_Tables_number       1
  _symmetry_cell_setting            triclinic
  loop_
  _symmetry_equiv_pos_as_xyz
 x,y,z
_cell_length_a 79.9941
_cell_length_b 79.7404
_cell_length_c 79.9267
_cell_angle_alpha 90.019100
_cell_angle_beta 90.064100
_cell_angle_gamma 90.006700
loop_
  _atom_site_label
  _atom_site_type_symbol
  _atom_site_fract_x
  _atom_site_fract_y
  _atom_site_fract_z
C1 C 0.30884 0.44256 0.92057
 C2 C 0.32334 0.44962 0.92747
 C3 C 0.33057 0.44254 0.94181
 C4 C 0.32323 0.42843 0.94927
 C5 C 0.30874 0.42138 0.94237
 C6 C 0.30154 0.42847 0.92804
 H7 H 0.32911 0.46038 0.92150
 H8 H 0.32894 0.42275 0.96021
 H9 H 0.29047 0.42284 0.92253
 C10 C 0.44353 0.82754 0.44299
 C11 C 0.42929 0.82031 0.45023
 C12 C 0.42193 0.80612 0.44293
 C13 C 0.42885 0.79913 0.42843
 C14 C 0.44308 0.80633 0.42118
 C15 C 0.45043 0.82051 0.42847
 H16 H 0.42373 0.82587 0.46130
 H17 H 0.42299 0.78833 0.42262
 H18 H 0.46128 0.82623 0.42267
 C19 C 0.94117 0.92102 0.80988
 C20 C 0.94836 0.92815 0.82420
 C21 C 0.94124 0.94248 0.83144
 C22 C 0.92694 0.94970 0.82429
 C23 C 0.91975 0.94257 0.80996
 C24 C 0.92688 0.92825 0.80275
 H25 H 0.95929 0.92237 0.82984
 H26 H 0.92125 0.96066 0.82998
 H27 H 0.92118 0.92259 0.79180
 C28 C 0.44179 -0.07976 0.30712
 C29 C 0.42739 -0.07252 0.30023
 C30 C 0.42051 -0.05807 0.30744
 C31 C 0.42807 -0.05083 0.32152
 C32 C 0.44248 -0.05807 0.32841
 C33 C 0.44934 -0.07251 0.32119
 H34 H 0.42138 -0.07828 0.28950
 H35 H 0.42259 -0.03982 0.32728
 H36 H 0.46032 -0.07829 0.32670
 C37 C 0.80797 0.30782 0.32850
 C38 C 0.82237 0.30064 0.32157
 C39 C 0.82988 0.30793 0.30751
 C40 C 0.82294 0.32237 0.30034
 C41 C 0.80854 0.32956 0.30726
 C42 C 0.80104 0.32227 0.32133
 H43 H 0.82790 0.28963 0.32729
 H44 H 0.82889 0.32817 0.28962
 H45 H 0.79006 0.32799 0.32685
 C46 C -0.19159 0.83132 0.80854
 C47 C -0.17717 0.82414 0.80161
 C48 C -0.17018 0.80972 0.80880
 C49 C -0.17764 0.80244 0.82288
 C50 C -0.19206 0.80958 0.82984
 C51 C -0.19904 0.82401 0.82264
 H52 H -0.17123 0.82988 0.79084
 H53 H -0.17205 0.79142 0.82856
 H54 H -0.21007 0.82970 0.82816
 C55 C 0.94327 0.32790 0.44330
 C56 C 0.95026 0.32105 0.42876
 C57 C 0.94311 0.30680 0.42141
 C58 C 0.92899 0.29936 0.42864
 C59 C 0.92199 0.30620 0.44318
 C60 C 0.92915 0.32045 0.45052
 H61 H 0.96101 0.32698 0.42300
 H62 H 0.92327 0.28851 0.42279
 H63 H 0.92355 0.32593 0.46160
 C64 C 0.43983 0.43899 0.83177
 C65 C 0.42551 0.44627 0.82471
 C66 C 0.41824 0.43922 0.81039
 C67 C 0.42531 0.42491 0.80309
 C68 C 0.43961 0.41762 0.81011
 C69 C 0.44689 0.42467 0.82444
 H70 H 0.41989 0.45723 0.83047
 H71 H 0.41955 0.41933 0.79213
 H72 H 0.45784 0.41887 0.82998
 C73 C 0.80824 0.92209 0.94195
 C74 C 0.82268 0.92915 0.94895
 C75 C 0.83013 0.94316 0.94145
 C76 C 0.82310 0.95013 0.92697
 C77 C 0.80866 0.94307 0.91996
 C78 C 0.80122 0.92906 0.92748
 H79 H 0.82828 0.92359 0.95999
 H80 H 0.82901 0.96081 0.92101
 H81 H 0.79021 0.92342 0.92190
 C82 C 0.30810 0.82980 0.30791
 C83 C 0.30066 0.82246 0.32199
 C84 C 0.30766 0.80805 0.32916
 C85 C 0.32209 0.80093 0.32223
 C86 C 0.32955 0.80824 0.30815
 C87 C 0.32254 0.82265 0.30098
 H88 H 0.28964 0.82810 0.32755
 H89 H 0.32766 0.78993 0.32794
 H90 H 0.32849 0.82843 0.29023
 C91 C 0.80692 0.42256 0.44275
 C92 C 0.82108 0.42992 0.45001
 C93 C 0.82830 0.44419 0.44275
 C94 C 0.82128 0.45111 0.42822
 C95 C 0.80712 0.44375 0.42095
 C96 C 0.79993 0.42950 0.42823
 H97 H 0.82663 0.42434 0.46109
 H98 H 0.82699 0.46198 0.42240
 H99 H 0.78915 0.42363 0.42244
 C100 C 0.94165 0.83132 -0.05771
 C101 C 0.92759 0.82381 -0.05039
 C102 C 0.92058 0.80939 -0.05756
 C103 C 0.92765 0.80244 -0.07201
 C104 C 0.94169 0.80993 -0.07934
 C105 C 0.94870 0.82435 -0.07217
 H106 H 0.92193 0.82931 -0.03935
 H107 H 0.92207 0.79144 -0.07771
 H108 H 0.95943 0.83026 -0.07802
 C109 C 0.30833 0.32923 0.80772
 C110 C 0.30087 0.32191 0.82178
 C111 C 0.30782 0.30747 0.82894
 C112 C 0.32223 0.30032 0.82200
 C113 C 0.32971 0.30763 0.80793
 C114 C 0.32274 0.32207 0.80078
 H115 H 0.28987 0.32760 0.82732
 H116 H 0.32778 0.28930 0.82770
 H117 H 0.32867 0.32788 0.79005
 C118 C 0.17000 0.55792 0.55764
 C119 C 0.17720 0.57232 0.55065
 C120 C 0.19163 0.57928 0.55778
 C121 C 0.19889 0.57179 0.57187
 C122 C 0.19171 0.55739 0.57888
 C123 C 0.17728 0.55045 0.57174
 H124 H 0.17141 0.57827 0.53990
 H125 H 0.20990 0.57734 0.57757
 H126 H 0.17155 0.53947 0.57733
 C127 C 0.57883 0.69290 0.05665
 C128 C 0.57157 0.70020 0.07084
 C129 C 0.55707 0.69325 0.07779
 C130 C 0.54979 0.67902 0.07050
 C131 C 0.55704 0.67172 0.05631
 C132 C 0.57154 0.67868 0.04937
 H133 H 0.57737 0.71103 0.07665
 H134 H 0.53874 0.67346 0.07605
 H135 H 0.57732 0.67286 0.03856
 C136 C 0.69294 0.19341 0.67085
 C137 C 0.70038 0.17919 0.67798
 C138 C 0.69356 0.17202 0.69247
 C139 C 0.67933 0.17914 0.69983
 C140 C 0.67189 0.19335 0.69269
 C141 C 0.67872 0.20049 0.67822
 H142 H 0.71122 0.17356 0.67208
 H143 H 0.67383 0.17346 0.71086
 H144 H 0.67279 0.21132 0.67253
 C145 C 1.07704 0.05513 0.19446
 C146 C 1.06984 0.06947 0.20159
 C147 C 1.05561 0.07669 0.19432
 C148 C 1.04853 0.06952 0.17996
 C149 C 1.05571 0.05518 0.17281
 C150 C 1.06995 0.04797 0.18010
 H151 H 1.07552 0.07521 0.21251
 H152 H 1.03771 0.07533 0.17418
 H153 H 1.07575 0.03706 0.17443
 C154 C 0.05708 0.17334 1.05721
 C155 C 0.04987 0.18064 1.07142
 C156 C 0.05715 0.19489 1.07868
 C157 C 0.07163 0.20186 1.07166
 C158 C 0.07884 0.19456 1.05745
 C159 C 0.07154 0.18032 1.05022
 H160 H 0.03884 0.17503 1.07699
 H161 H 0.07748 0.21271 1.07741
 H162 H 0.07729 0.17449 1.03939
 C163 C 0.17129 0.69377 0.69331
 C164 C 0.17861 0.67957 0.70059
 C165 C 0.19274 0.67224 0.69327
 C166 C 0.19959 0.67915 0.67870
 C167 C 0.19228 0.69335 0.67141
 C168 C 0.17815 0.70067 0.67874
 H169 H 0.17312 0.67404 0.71170
 H170 H 0.21035 0.67331 0.67287
 H171 H 0.17232 0.71149 0.67294
 C172 C 1.19383 0.17226 0.19339
 C173 C 1.20069 0.17925 0.17886
 C174 C 1.19340 0.19350 0.17166
 C175 C 1.17928 0.20080 0.17903
 C176 C 1.17241 0.19382 0.19356
 C177 C 1.17971 0.17957 0.20075
 H178 H 1.21143 0.17342 0.17299
 H179 H 1.17345 0.21164 0.17328
 H180 H 1.17421 0.17397 0.21182
 C181 C 0.66998 1.05892 0.55738
 C182 C 0.67747 1.05149 0.57140
 C183 C 0.69191 1.05855 0.57840
 C184 C 0.69891 1.07302 0.57135
 C185 C 0.69144 1.08048 0.55732
 C186 C 0.67699 1.07340 0.55033
 H187 H 0.67194 1.04043 0.57705
 H188 H 0.70994 1.07860 0.57696
 H189 H 0.67106 1.07929 0.53961
 C190 C 0.55570 0.55443 0.17276
 C191 C 0.57005 0.54742 0.17998
 C192 C 0.57712 0.55469 0.19430
 C193 C 0.56978 0.56895 0.20143
 C194 C 0.55543 0.57598 0.19423
 C195 C 0.54838 0.56870 0.17991
 H196 H 0.57591 0.53658 0.17426
 H197 H 0.57544 0.57477 0.21232
 H198 H 0.53746 0.57433 0.17413
 C199 C 0.67165 0.69392 0.19263
 C200 C 0.67843 0.70101 0.17811
 C201 C 0.69264 0.69390 0.17072
 C202 C 0.70010 0.67972 0.17791
 C203 C 0.69333 0.67262 0.19243
 C204 C 0.67912 0.67975 0.19980
 H205 H 0.67248 0.71180 0.17239
 H206 H 0.71092 0.67404 0.17204
 H207 H 0.67369 0.67407 0.21087
 C208 C 0.17194 0.05660 1.05626
 C209 C 0.17915 0.04915 1.07042
 C210 C 0.19336 0.05629 1.07781
 C211 C 0.20041 0.07085 1.07099
 C212 C 0.19323 0.07831 1.05684
 C213 C 0.17902 0.07116 1.04945
 H214 H 0.17354 0.03806 1.07591
 H215 H 0.21123 0.07655 1.07689
 H216 H 0.17331 0.07713 1.03867
 C217 C 0.57949 0.19174 0.55701
 C218 C 0.57207 0.19913 0.57107
 C219 C 0.55767 0.19203 0.57808
 C220 C 0.55066 0.17757 0.57100
 C221 C 0.55808 0.17017 0.55694
 C222 C 0.57248 0.17728 0.54994
 H223 H 0.57766 0.21015 0.57672
 H224 H 0.53969 0.17191 0.57660
 H225 H 0.57839 0.17140 0.53923
 C226 C 0.07782 0.55712 0.69340
 C227 C 0.07050 0.57134 0.70064
 C228 C 0.05637 0.57865 0.69328
 C229 C 0.04953 0.57171 0.67869
 C230 C 0.05684 0.55751 0.67143
 C231 C 0.07097 0.55020 0.67880
 H232 H 0.07597 0.57688 0.71176
 H233 H 0.03877 0.57754 0.67283
 H234 H 0.07681 0.53937 0.67303
 C235 C 0.67243 0.55686 0.05564
 C236 C 0.67937 0.57140 0.04867
 C237 C 0.69354 0.57874 0.05595
 C238 C 0.70080 0.57150 0.07017
 C239 C 0.69387 0.55696 0.07715
 C240 C 0.67971 0.54963 0.06986
 H241 H 0.67356 0.57717 0.03784
 H242 H 0.71159 0.57734 0.07599
 H243 H 0.67416 0.53856 0.07544
 C244 C 0.05769 0.69316 0.57935
 C245 C 0.07212 0.70010 0.57224
 C246 C 0.07941 0.69261 0.55816
 C247 C 0.07222 0.67819 0.55117
 C248 C 0.05779 0.67124 0.55827
 C249 C 0.05052 0.67874 0.57235
 H250 H 0.07783 0.71111 0.57782
 H251 H 0.07800 0.67223 0.54043
 H252 H 0.03951 0.67321 0.57801
 C253 C 0.55706 1.05613 0.67025
 C254 C 0.57130 1.04904 0.67764
 C255 C 0.57813 1.05616 0.69214
 C256 C 0.57068 1.07033 0.69932
 C257 C 0.55643 1.07745 0.69197
 C258 C 0.54960 1.07032 0.67744
 H259 H 0.57728 1.03824 0.67195
 H260 H 0.57618 1.07599 0.71038
 H261 H 0.53874 1.07599 0.67158
 C262 C 0.44310 0.32797 0.94194
 C263 C 0.42899 0.32065 0.94929
 C264 C 0.42187 0.30622 0.94225
 C265 C 0.42891 0.29908 0.92787
 C266 C 0.44303 0.30639 0.92051
 C267 C 0.45013 0.32082 0.92756
 H268 H 0.42336 0.32634 0.96025
 H269 H 0.42324 0.28808 0.92225
 H270 H 0.46089 0.32664 0.92170
 C271 C 0.94231 0.44242 0.32973
 C272 C 0.94940 0.42801 0.32260
 C273 C 0.94204 0.42063 0.30849
 C274 C 0.92761 0.42769 0.30146
 C275 C 0.92051 0.44208 0.30856
 C276 C 0.92787 0.44946 0.32267
 H277 H 0.96041 0.42236 0.32818
 H278 H 0.92177 0.42183 0.29069
 H279 H 0.92219 0.46045 0.32830
 C280 C 0.30736 0.94325 0.42139
 C281 C 0.30001 0.92915 0.42881
 C282 C 0.30694 0.92227 0.44338
 C283 C 0.32118 0.92954 0.45056
 C284 C 0.32854 0.94364 0.44316
 C285 C 0.32161 0.95052 0.42859
 H286 H 0.28917 0.92334 0.42308
 H287 H 0.32673 0.92403 0.46166
 H288 H 0.32747 0.96125 0.42268
 O289 O 0.24836 0.54464 0.72857
 O290 O 0.27758 0.53883 0.73103
 O291 O 0.22827 0.50075 0.70567
 O292 O 0.22778 0.47301 0.71063
 O293 O 0.20495 0.52153 0.74954
 O294 O 0.21123 0.52030 0.77868
 O295 O 0.27148 0.45620 0.75105
 O296 O 0.26808 0.46103 0.72247
 O297 O 0.29317 0.49867 0.77207
 O298 O 0.28887 0.52751 0.76941
 O299 O 0.25100 0.47846 0.79401
 O300 O 0.22095 0.47929 0.78830
 O301 O 0.25148 0.45618 0.77136
 O302 O 0.22048 0.46222 0.76972
 O303 O 0.27094 0.49883 0.79414
 O304 O 0.26873 0.52977 0.78753
 O305 O 0.29307 0.47819 0.75221
 O306 O 0.28798 0.48367 0.72196
 O307 O 0.22857 0.54481 0.74910
 O308 O 0.23024 0.53851 0.77882
 O309 O 0.20477 0.50130 0.72940
 O310 O 0.21159 0.47099 0.73204
 O311 O 0.24781 0.52158 0.70569
 O312 O 0.27789 0.51609 0.71201
 Zr313 Zr 0.25855 0.52031 0.72973
 O314 O 0.27454 0.50574 0.74481
 Zr315 Zr 0.22898 0.49090 0.73011
 O316 O 0.24410 0.47488 0.74461
 Zr317 Zr 0.22933 0.52049 0.75944
 O318 O 0.24398 0.50555 0.77547
 Zr319 Zr 0.26949 0.48027 0.74068
 O320 O 0.25439 0.49475 0.72437
 Zr321 Zr 0.26936 0.50966 0.77020
 O322 O 0.25473 0.52595 0.75526
 Zr323 Zr 0.24011 0.48003 0.77008
 O324 O 0.22365 0.49498 0.75558
 O325 O 0.23326 0.51620 0.73416
 O326 O 0.26544 0.48420 0.76610
 C327 C 0.23686 0.55178 0.73722
 C328 C 0.23636 0.51276 0.69864
 C329 C 0.19780 0.51304 0.73790
 C330 C 0.26343 0.44930 0.76311
 C331 C 0.29995 0.48642 0.76417
 C332 C 0.26289 0.48673 0.80096
 H333 H 0.28633 0.50851 0.74225
 H334 H 0.24121 0.50824 0.78722
 H335 H 0.22605 0.52334 0.72705
 H336 H 0.24160 0.46307 0.74178
 H337 H 0.26465 0.46646 0.71187
 H338 H 0.23628 0.46438 0.71314
 H339 H 0.25958 0.52759 0.79556
 H340 H 0.24105 0.54443 0.77769
 H341 H 0.29571 0.47396 0.72245
 H342 H 0.27691 0.52439 0.70283
 H343 H 0.22161 0.48979 0.79486
 H344 H 0.20603 0.50903 0.77847
 H345 H 0.27685 0.54609 0.72097
 H346 H 0.28538 0.53614 0.76124
 H347 H 0.20505 0.47295 0.74237
 H348 H 0.22257 0.45439 0.76035
 O349 O 0.20522 0.02114 0.24886
 O350 O 0.21111 0.01873 0.27808
 O351 O 0.24888 0.04425 0.22872
 O352 O 0.27651 0.03934 0.22807
 O353 O 0.22821 0.00017 0.20535
 O354 O 0.22955 -0.02903 0.21162
 O355 O 0.29352 -0.00110 0.27186
 O356 O 0.28867 0.02751 0.26842
 O357 O 0.25122 -0.02211 0.29368
 O358 O 0.22251 -0.01977 0.28929
 O359 O 0.27145 -0.04421 0.25133
 O360 O 0.27052 -0.03854 0.22130
 O361 O 0.29356 -0.02142 0.25178
 O362 O 0.28742 -0.01982 0.22076
 O363 O 0.25127 -0.04437 0.27139
 O364 O 0.22037 -0.03792 0.26917
 O365 O 0.27157 -0.00213 0.29354
 O366 O 0.26612 0.02811 0.28832
 O367 O 0.20505 0.00052 0.22906
 O368 O 0.21146 -0.02922 0.23067
 O369 O 0.24829 0.02042 0.20515
 O370 O 0.27855 0.01786 0.21192
 O371 O 0.22815 0.04418 0.24829
 O372 O 0.23370 0.03787 0.27837
 Zr373 Zr 0.22951 0.02008 0.25900
 O374 O 0.24413 0.00503 0.27497
 Zr375 Zr 0.25874 0.01976 0.22936
 O376 O 0.27481 0.00530 0.24446
 Zr377 Zr 0.22935 -0.00972 0.22974
 O378 O 0.24434 -0.02573 0.24438
 Zr379 Zr 0.26950 0.00926 0.26988
 O380 O 0.25496 0.02553 0.25480
 Zr381 Zr 0.24031 -0.02044 0.26980
 O382 O 0.22398 -0.00553 0.25518
 Zr383 Zr 0.26975 -0.02023 0.24047
 O384 O 0.25475 -0.00578 0.22402
 O385 O 0.23354 0.01564 0.23368
 O386 O 0.26567 -0.01625 0.26584
 C387 C 0.19808 0.01241 0.23739
 C388 C 0.23693 0.05127 0.23685
 C389 C 0.23662 0.01184 0.19819
 C390 C 0.30043 -0.01314 0.26376
 C391 C 0.26335 -0.01407 0.30048
 C392 C 0.26331 -0.05118 0.26327
 H393 H 0.24138 0.00763 0.28676
 H394 H 0.24170 -0.03752 0.24161
 H395 H 0.22638 0.02273 0.22648
 H396 H 0.28656 0.00818 0.24194
 H397 H 0.28324 0.03812 0.26497
 H398 H 0.28513 0.03689 0.23659
 H399 H 0.22260 -0.04601 0.26005
 H400 H 0.20563 -0.02814 0.24154
 H401 H 0.27582 0.02769 0.29605
 H402 H 0.22539 0.04704 0.27741
 H403 H 0.26005 -0.04510 0.22193
 H404 H 0.24076 -0.02878 0.20639
 H405 H 0.20384 0.02879 0.27737
 H406 H 0.21392 -0.01154 0.28585
 H407 H 0.27659 0.00751 0.20535
 H408 H 0.29522 -0.01042 0.22285
 O409 O 0.50060 0.70438 0.22811
 O410 O 0.47139 0.71015 0.23057
 O411 O 0.52052 0.74832 0.20513
 O412 O 0.52098 0.77605 0.21007
 O413 O 0.54408 0.72764 0.24895
 O414 O 0.53792 0.72886 0.27811
 O415 O 0.47742 0.79282 0.25058
 O416 O 0.48070 0.78797 0.22201
 O417 O 0.45587 0.75028 0.27162
 O418 O 0.46026 0.72147 0.26904
 O419 O 0.49816 0.77063 0.29351
 O420 O 0.52815 0.76987 0.28774
 O421 O 0.49752 0.79289 0.27083
 O422 O 0.52852 0.78690 0.26915
 O423 O 0.47824 0.75023 0.29370
 O424 O 0.48047 0.71929 0.28709
 O425 O 0.45585 0.77074 0.25174
 O426 O 0.46086 0.76528 0.22151
 O427 O 0.52048 0.70427 0.24860
 O428 O 0.51897 0.71061 0.27829
 O429 O 0.54413 0.74786 0.22882
 O430 O 0.53724 0.77814 0.23145
 O431 O 0.50105 0.72743 0.20518
 O432 O 0.47097 0.73288 0.21157
 Zr433 Zr 0.49039 0.72871 0.22925
 O434 O 0.47443 0.74325 0.24437
 Zr435 Zr 0.51989 0.75818 0.22957
 O436 O 0.50481 0.77418 0.24410
 Zr437 Zr 0.51974 0.72862 0.25890
 O438 O 0.50512 0.74354 0.27496
 Zr439 Zr 0.47941 0.76874 0.24021
 O440 O 0.49447 0.75427 0.22388
 Zr441 Zr 0.47972 0.73938 0.26975
 O442 O 0.49433 0.72311 0.25477
 Zr443 Zr 0.50891 0.76906 0.26955
 O444 O 0.52534 0.75414 0.25503
 O445 O 0.51569 0.73287 0.23362
 O446 O 0.48357 0.76484 0.26564
 C447 C 0.51213 0.69726 0.23676
 C448 C 0.51244 0.73629 0.19811
 C449 C 0.55116 0.73616 0.23732
 C450 C 0.48553 0.79975 0.26259
 C451 C 0.44902 0.76248 0.26369
 C452 C 0.48633 0.76234 0.30051
 H453 H 0.46265 0.74045 0.24182
 H454 H 0.50795 0.74086 0.28670
 H455 H 0.52289 0.72574 0.22651
 H456 H 0.50727 0.78599 0.24125
 H457 H 0.48410 0.78254 0.21140
 H458 H 0.51247 0.78467 0.21260
 H459 H 0.48964 0.72150 0.29510
 H460 H 0.50814 0.70469 0.27722
 H461 H 0.45312 0.77498 0.22199
 H462 H 0.47194 0.72459 0.20237
 H463 H 0.52758 0.75936 0.29426
 H464 H 0.54310 0.74014 0.27788
 H465 H 0.47209 0.70290 0.22050
 H466 H 0.46370 0.71288 0.26080
 H467 H 0.54383 0.77621 0.24177
 H468 H 0.52638 0.79472 0.25977
 O469 O 0.04427 0.72914 0.74935
 O470 O 0.03850 0.73166 0.77861
 O471 O 0.00050 0.70616 0.72930
 O472 O -0.02714 0.71115 0.72875
 O473 O 0.02123 0.75009 0.70588
 O474 O 0.01998 0.77932 0.71208
 O475 O -0.04386 0.75181 0.77246
 O476 O -0.03912 0.72314 0.76907
 O477 O -0.00144 0.77275 0.79414
 O478 O 0.02727 0.77019 0.78978
 O479 O -0.02172 0.79474 0.75184
 O480 O -0.02086 0.78898 0.72176
 O481 O -0.04389 0.77208 0.75235
 O482 O -0.03790 0.77036 0.72133
 O483 O -0.00145 0.79488 0.77185
 O484 O 0.02943 0.78831 0.76958
 O485 O -0.02187 0.75285 0.79408
 O486 O -0.01651 0.72254 0.78896
 O487 O 0.04444 0.74971 0.72952
 O488 O 0.03815 0.77950 0.73112
 O489 O 0.00108 0.72990 0.70572
 O490 O -0.02915 0.73261 0.71251
 O491 O 0.02128 0.70621 0.74886
 O492 O 0.01584 0.71259 0.77895
 Zr493 Zr 0.02002 0.73033 0.75955
 O494 O 0.00551 0.74547 0.77551
 Zr495 Zr -0.00930 0.73067 0.72994
 O496 O -0.02527 0.74524 0.74503
 Zr497 Zr 0.02019 0.76006 0.73024
 O498 O 0.00531 0.77616 0.74486
 Zr499 Zr -0.01989 0.74133 0.77046
 O500 O -0.00546 0.72496 0.75539
 Zr501 Zr 0.00942 0.77091 0.77028
 O502 O 0.02565 0.75591 0.75568
 Zr503 Zr -0.02013 0.77075 0.74099
 O504 O -0.00524 0.75619 0.72455
 O505 O 0.01591 0.73473 0.73423
 O506 O -0.01596 0.76681 0.76635
 C507 C 0.05139 0.73780 0.73784
 C508 C 0.01247 0.69913 0.73742
 C509 C 0.01279 0.73841 0.69875
 C510 C -0.05074 0.76387 0.76436
 C511 C -0.01361 0.76481 0.80096
 C512 C -0.01352 0.80171 0.76376
 H513 H 0.00829 0.74291 0.78731
 H514 H 0.00798 0.78793 0.74208
 H515 H 0.02303 0.72759 0.72704
 H516 H -0.03705 0.74241 0.74254
 H517 H -0.03374 0.71250 0.76563
 H518 H -0.03576 0.71369 0.73724
 H519 H 0.02719 0.79640 0.76047
 H520 H 0.04404 0.77839 0.74196
 H521 H -0.02618 0.72304 0.79670
 H522 H 0.02412 0.70339 0.77800
 H523 H -0.01041 0.79558 0.72244
 H524 H 0.00875 0.77910 0.70687
 H525 H 0.04574 0.72159 0.77790
 H526 H 0.03585 0.76197 0.78631
 H527 H -0.02718 0.74294 0.70593
 H528 H -0.04570 0.76098 0.72344
 O529 O 0.00177 0.04546 0.02222
 O530 O -0.02747 0.03978 0.01970
 O531 O 0.02159 0.00140 0.04505
 O532 O 0.02210 -0.02629 0.03998
 O533 O 0.04510 0.02221 0.00122
 O534 O 0.03884 0.02108 -0.02792
 O535 O -0.02173 -0.04283 -0.00056
 O536 O -0.01831 -0.03813 0.02804
 O537 O -0.04324 -0.00016 -0.02137
 O538 O -0.03872 0.02862 -0.01877
 O539 O -0.00110 -0.02063 -0.04336
 O540 O 0.02896 -0.01988 -0.03765
 O541 O -0.00166 -0.04291 -0.02079
 O542 O 0.02936 -0.03698 -0.01909
 O543 O -0.02100 -0.00022 -0.04346
 O544 O -0.01857 0.03074 -0.03685
 O545 O -0.04324 -0.02069 -0.00157
 O546 O -0.03808 -0.01538 0.02868
 O547 O 0.02156 0.04560 0.00170
 O548 O 0.01990 0.03935 -0.02804
 O549 O 0.04518 0.00197 0.02132
 O550 O 0.03823 -0.02833 0.01858
 O551 O 0.00215 0.02232 0.04506
 O552 O -0.02793 0.01701 0.03865
 Zr553 Zr -0.00852 0.02117 0.02098
 O554 O -0.02456 0.00670 0.00585
 Zr555 Zr 0.02092 -0.00835 0.02056
 O556 O 0.00575 -0.02429 0.00601
 Zr557 Zr 0.02072 0.02130 -0.00869
 O558 O 0.00603 0.00644 -0.02478
 Zr559 Zr -0.01962 -0.01881 0.00993
 O560 O -0.00448 -0.00442 0.02628
 Zr561 Zr -0.01934 0.01064 -0.01953
 O562 O -0.00466 0.02685 -0.00452
 Zr563 Zr 0.00979 -0.01911 -0.01944
 O564 O 0.02629 -0.00424 -0.00489
 O565 O 0.01676 0.01698 0.01658
 O566 O -0.01553 -0.01484 -0.01549
 C567 C 0.01328 0.05258 0.01359
 C568 C 0.01352 0.01340 0.05211
 C569 C 0.05220 0.01367 0.01283
 C570 C -0.01368 -0.04975 -0.01260
 C571 C -0.05009 -0.01236 -0.01347
 C572 C -0.01298 -0.01235 -0.05030
 H573 H -0.03633 0.00952 0.00842
 H574 H 0.00882 0.00913 -0.03652
 H575 H 0.02398 0.02407 0.02372
 H576 H 0.00819 -0.03611 0.00881
 H577 H -0.01485 -0.03275 0.03867
 H578 H 0.01350 -0.03484 0.03750
 H579 H -0.00948 0.02847 -0.04493
 H580 H 0.00909 0.04529 -0.02692
 H581 H -0.04586 -0.02505 0.02817
 H582 H -0.02693 0.02529 0.04786
 H583 H 0.02832 -0.00939 -0.04421
 H584 H 0.04396 0.00978 -0.02777
 H585 H -0.02673 0.04701 0.02978
 H586 H -0.03521 0.03720 -0.01054
 H587 H 0.04481 -0.02635 0.00828
 H588 H 0.02723 -0.04482 -0.00975
 O589 O -0.02262 0.45594 0.49906
 O590 O -0.02014 0.46179 0.52830
 O591 O -0.04553 0.49984 0.47898
 O592 O -0.04056 0.52757 0.47846
 O593 O -0.00177 0.47900 0.45558
 O594 O 0.02737 0.48026 0.46178
 O595 O 0.00002 0.54439 0.52218
 O596 O -0.02856 0.53965 0.51877
 O597 O 0.02086 0.50183 0.54386
 O598 O 0.01834 0.47305 0.53947
 O599 O 0.04281 0.52210 0.50150
 O600 O 0.03701 0.52127 0.47147
 O601 O 0.02021 0.54439 0.50207
 O602 O 0.01846 0.53835 0.47105
 O603 O 0.04295 0.50180 0.52152
 O604 O 0.03635 0.47083 0.51929
 O605 O 0.00102 0.52231 0.54382
 O606 O -0.02918 0.51698 0.53865
 O607 O -0.00212 0.45575 0.47923
 O608 O 0.02756 0.46207 0.48081
 O609 O -0.02188 0.49924 0.45542
 O610 O -0.01917 0.52957 0.46222
 O611 O -0.04549 0.47900 0.49852
 O612 O -0.03912 0.48453 0.52862
 Zr613 Zr -0.02144 0.48029 0.50924
 O614 O -0.00632 0.49486 0.52521
 Zr615 Zr -0.02110 0.50967 0.47964
 O616 O -0.00657 0.52571 0.49474
 Zr617 Zr 0.00819 0.48008 0.47994
 O618 O 0.02425 0.49502 0.49457
 Zr619 Zr -0.01044 0.52034 0.52017
 O620 O -0.02678 0.50586 0.50509
 Zr621 Zr 0.01903 0.49093 0.51998
 O622 O 0.00405 0.47464 0.50537
 Zr623 Zr 0.01886 0.52054 0.49070
 O624 O 0.00434 0.50559 0.47426
 O625 O -0.01706 0.48438 0.48392
 O626 O 0.01496 0.51639 0.51607
 C627 C -0.01398 0.44878 0.48756
 C628 C -0.05254 0.48783 0.48708
 C629 C -0.01341 0.48748 0.44844
 C630 C 0.01203 0.55128 0.51408
 C631 C 0.01293 0.51402 0.55070
 C632 C 0.04977 0.51386 0.51339
 H633 H -0.00888 0.49208 0.53700
 H634 H 0.03597 0.49233 0.49177
 H635 H -0.02418 0.47723 0.47673
 H636 H -0.00939 0.53752 0.49226
 H637 H -0.03917 0.53425 0.51533
 H638 H -0.03801 0.53622 0.48694
 H639 H 0.04439 0.47305 0.51017
 H640 H 0.02647 0.45617 0.49165
 H641 H -0.02869 0.52669 0.54639
 H642 H -0.04830 0.47624 0.52766
 H643 H 0.04353 0.51075 0.47208
 H644 H 0.02712 0.49151 0.45655
 H645 H -0.03019 0.45454 0.52759
 H646 H 0.01007 0.46449 0.53605
 H647 H -0.00888 0.52758 0.45565
 H648 H 0.00911 0.54618 0.47317
 O649 O 0.49995 -0.02316 0.45524
 O650 O 0.52919 -0.02063 0.46104
 O651 O 0.47996 -0.04615 0.49896
 O652 O 0.47958 -0.04122 0.52665
 O653 O 0.45650 -0.00219 0.47836
 O654 O 0.46272 0.02701 0.47951
 O655 O 0.52307 -0.00052 0.54351
 O656 O 0.51983 -0.02917 0.53868
 O657 O 0.54468 0.02057 0.50107
 O658 O 0.54035 0.01793 0.47235
 O659 O 0.50241 0.04245 0.52127
 O660 O 0.47235 0.03660 0.52041
 O661 O 0.50297 0.01975 0.54351
 O662 O 0.47204 0.01808 0.53750
 O663 O 0.52232 0.04265 0.50095
 O664 O 0.52011 0.03598 0.47007
 O665 O 0.54469 0.00068 0.52152
 O666 O 0.53969 -0.02965 0.51609
 O667 O 0.48008 -0.00265 0.45509
 O668 O 0.48169 0.02715 0.46135
 O669 O 0.45640 -0.02238 0.49851
 O670 O 0.46328 -0.01981 0.52873
 O671 O 0.49950 -0.04609 0.47820
 O672 O 0.52958 -0.03968 0.48373
 Zr673 Zr 0.51017 -0.02196 0.47951
 O674 O 0.52613 -0.00679 0.49405
 Zr675 Zr 0.48064 -0.02166 0.50884
 O676 O 0.49572 -0.00707 0.52484
 Zr677 Zr 0.48086 0.00774 0.47935
 O678 O 0.49545 0.02385 0.49425
 Zr679 Zr 0.52113 -0.01093 0.51948
 O680 O 0.50608 -0.02733 0.50502
 Zr681 Zr 0.52085 0.01864 0.49015
 O682 O 0.50626 0.00361 0.47389
 Zr683 Zr 0.49163 0.01843 0.51971
 O684 O 0.47522 0.00385 0.50479
 O685 O 0.48487 -0.01759 0.48361
 O686 O 0.51698 0.01454 0.51555
 C687 C 0.48840 -0.01453 0.44812
 C688 C 0.48806 -0.05317 0.48698
 C689 C 0.44938 -0.01383 0.48684
 C690 C 0.51494 0.01151 0.55041
 C691 C 0.55152 0.01267 0.51328
 C692 C 0.51424 0.04947 0.51301
 H693 H 0.53792 -0.00934 0.49129
 H694 H 0.49264 0.03562 0.49157
 H695 H 0.47766 -0.02472 0.47649
 H696 H 0.49325 -0.00992 0.53661
 H697 H 0.51642 -0.03981 0.53325
 H698 H 0.48805 -0.03865 0.53529
 H699 H 0.51095 0.04401 0.47226
 H700 H 0.49249 0.02601 0.45543
 H701 H 0.54743 -0.02913 0.52577
 H702 H 0.52862 -0.04889 0.47545
 H703 H 0.47306 0.04327 0.51000
 H704 H 0.45755 0.02683 0.49076
 H705 H 0.52848 -0.03071 0.45380
 H706 H 0.53692 0.00966 0.46378
 H707 H 0.45673 -0.00945 0.52682
 H708 H 0.47410 0.00861 0.54523
 O709 O 0.54504 0.52102 0.00061
 O710 O 0.53920 0.51844 -0.02862
 O711 O 0.50136 0.54401 0.02068
 O712 O 0.47372 0.53905 0.02120
 O713 O 0.52203 0.50005 0.04417
 O714 O 0.52089 0.47085 0.03795
 O715 O 0.45682 0.49841 -0.02235
 O716 O 0.46167 0.52706 -0.01908
 O717 O 0.49910 0.47724 -0.04403
 O718 O 0.52786 0.47994 -0.03979
 O719 O 0.47905 0.45539 -0.00172
 O720 O 0.47995 0.46122 0.02834
 O721 O 0.45684 0.47810 -0.00227
 O722 O 0.46292 0.47981 0.02873
 O723 O 0.49933 0.45519 -0.02168
 O724 O 0.53017 0.46185 -0.01955
 O725 O 0.47869 0.49716 -0.04398
 O726 O 0.48419 0.52749 -0.03903
 O727 O 0.54525 0.50051 0.02051
 O728 O 0.53899 0.47070 0.01891
 O729 O 0.50189 0.52024 0.04430
 O730 O 0.47169 0.51765 0.03747
 O731 O 0.52207 0.54394 0.00108
 O732 O 0.51654 0.53750 -0.02899
 Zr733 Zr 0.52077 0.51980 -0.00956
 O734 O 0.50621 0.50463 -0.02550
 Zr735 Zr 0.49152 0.51951 0.02006
 O736 O 0.47551 0.50492 0.00500
 Zr737 Zr 0.52101 0.49012 0.01979
 O738 O 0.50608 0.47400 0.00521
 Zr739 Zr 0.48083 0.50880 -0.02043
 O740 O 0.49530 0.52518 -0.00540
 Zr741 Zr 0.51012 0.47920 -0.02023
 O742 O 0.52640 0.49423 -0.00565
 Zr743 Zr 0.48064 0.47941 0.00908
 O744 O 0.49559 0.49399 0.02548
 O745 O 0.51673 0.51544 0.01577
 O746 O 0.48475 0.48332 -0.01629
 C747 C 0.55219 0.51239 0.01216
 C748 C 0.51330 0.55103 0.01253
 C749 C 0.51356 0.51169 0.05131
 C750 C 0.44995 0.48635 -0.01424
 C751 C 0.48687 0.48514 -0.05083
 C752 C 0.48728 0.44838 -0.01358
 H753 H 0.50895 0.50717 -0.03731
 H754 H 0.50877 0.46224 0.00802
 H755 H 0.52385 0.52258 0.02298
 H756 H 0.46375 0.50777 0.00750
 H757 H 0.46711 0.53770 -0.01571
 H758 H 0.46511 0.53652 0.01269
 H759 H 0.52803 0.45384 -0.01034
 H760 H 0.54488 0.47184 0.00808
 H761 H 0.47449 0.52698 -0.04675
 H762 H 0.52481 0.54670 -0.02806
 H763 H 0.49038 0.45460 0.02765
 H764 H 0.50966 0.47101 0.04312
 H765 H 0.54644 0.52852 -0.02794
 H766 H 0.53647 0.48815 -0.03634
 H767 H 0.47361 0.50729 0.04402
 H768 H 0.45513 0.48921 0.02663
 O769 O 0.75118 0.27198 0.45505
 O770 O 0.72193 0.26956 0.46076
 O771 O 0.77123 0.29495 0.49881
 O772 O 0.77168 0.29004 0.52649
 O773 O 0.79450 0.25081 0.47827
 O774 O 0.78814 0.22164 0.47949
 O775 O 0.72789 0.24966 0.54328
 O776 O 0.73134 0.27827 0.53843
 O777 O 0.70616 0.22866 0.50080
 O778 O 0.71058 0.23110 0.47208
 O779 O 0.74829 0.20652 0.52123
 O780 O 0.77837 0.21214 0.52040
 O781 O 0.74790 0.22929 0.54339
 O782 O 0.77887 0.23077 0.53740
 O783 O 0.72836 0.20640 0.50088
 O784 O 0.73069 0.21291 0.46997
 O785 O 0.70628 0.24858 0.52122
 O786 O 0.71150 0.27885 0.51578
 O787 O 0.77093 0.25134 0.45496
 O788 O 0.76914 0.22155 0.46128
 O789 O 0.79470 0.27106 0.49838
 O790 O 0.78783 0.26854 0.52861
 O791 O 0.75170 0.29494 0.47800
 O792 O 0.72161 0.28868 0.48340
 Zr793 Zr 0.74094 0.27086 0.47929
 O794 O 0.72490 0.25582 0.49382
 Zr795 Zr 0.77046 0.27047 0.50869
 O796 O 0.75530 0.25600 0.52467
 Zr797 Zr 0.77009 0.24101 0.47924
 O798 O 0.75540 0.22500 0.49414
 Zr799 Zr 0.72992 0.26001 0.51924
 O800 O 0.74507 0.27628 0.50479
 Zr801 Zr 0.73003 0.23035 0.48997
 O802 O 0.74471 0.24526 0.47372
 Zr803 Zr 0.75924 0.23046 0.51960
 O804 O 0.77574 0.24491 0.50469
 O805 O 0.76621 0.26636 0.48345
 O806 O 0.73392 0.23450 0.51538
 C807 C 0.76269 0.26327 0.44797
 C808 C 0.76315 0.30199 0.48681
 C809 C 0.80166 0.26246 0.48673
 C810 C 0.73596 0.23761 0.55023
 C811 C 0.69936 0.23665 0.51295
 C812 C 0.73639 0.19957 0.51299
 H813 H 0.71313 0.25843 0.49101
 H814 H 0.75814 0.21322 0.49150
 H815 H 0.77345 0.27345 0.47635
 H816 H 0.75779 0.25886 0.53645
 H817 H 0.73482 0.28888 0.53301
 H818 H 0.76318 0.28755 0.53510
 H819 H 0.73978 0.20481 0.47223
 H820 H 0.75834 0.22273 0.45534
 H821 H 0.70375 0.27842 0.52544
 H822 H 0.72261 0.29786 0.47509
 H823 H 0.77766 0.20549 0.50998
 H824 H 0.79328 0.22182 0.49076
 H825 H 0.72269 0.27961 0.45350
 H826 H 0.71407 0.23931 0.46350
 H827 H 0.79434 0.25816 0.52670
 H828 H 0.77684 0.24023 0.54514
 O829 O 0.75086 0.77279 -0.04499
 O830 O 0.72160 0.77011 -0.03936
 O831 O 0.77068 0.79564 -0.00110
 O832 O 0.77108 0.79062 0.02657
 O833 O 0.79425 0.75182 -0.02183
 O834 O 0.78809 0.72257 -0.02073
 O835 O 0.72755 0.74989 0.04309
 O836 O 0.73082 0.77853 0.03837
 O837 O 0.70603 0.72891 0.00050
 O838 O 0.71046 0.73152 -0.02820
 O839 O 0.74834 0.70695 0.02082
 O840 O 0.77829 0.71278 0.02017
 O841 O 0.74767 0.72964 0.04314
 O842 O 0.77868 0.73140 0.03718
 O843 O 0.72843 0.70679 0.00045
 O844 O 0.73069 0.71351 -0.03040
 O845 O 0.70598 0.74878 0.02098
 O846 O 0.71102 0.77909 0.01569
 O847 O 0.77075 0.75229 -0.04515
 O848 O 0.76912 0.72244 -0.03899
 O849 O 0.79427 0.77196 -0.00161
 O850 O 0.78739 0.76920 0.02860
 O851 O 0.75119 0.79561 -0.02195
 O852 O 0.72111 0.78914 -0.01663
 Zr853 Zr 0.74056 0.77146 -0.02078
 O854 O 0.72460 0.75625 -0.00635
 Zr855 Zr 0.77004 0.77112 0.00867
 O856 O 0.75495 0.75649 0.02456
 Zr857 Zr 0.76992 0.74181 -0.02093
 O858 O 0.75531 0.72564 -0.00612
 Zr859 Zr 0.72955 0.76035 0.01910
 O860 O 0.74461 0.77678 0.00475
 Zr861 Zr 0.72990 0.73083 -0.01030
 O862 O 0.74451 0.74591 -0.02647
 Zr863 Zr 0.75907 0.73100 0.01938
 O864 O 0.77550 0.74562 0.00455
 O865 O 0.76585 0.76711 -0.01659
 O866 O 0.73372 0.73488 0.01514
 C867 C 0.76246 0.76422 -0.05209
 C868 C 0.76260 0.80268 -0.01310
 C869 C 0.80131 0.76350 -0.01332
 C870 C 0.73568 0.73786 0.04999
 C871 C 0.69915 0.73683 0.01266
 C872 C 0.73652 0.69994 0.01251
 H873 H 0.71282 0.75879 -0.00917
 H874 H 0.75814 0.71389 -0.00882
 H875 H 0.77305 0.77428 -0.02365
 H876 H 0.75740 0.75931 0.03636
 H877 H 0.73425 0.78918 0.03300
 H878 H 0.76261 0.78801 0.03518
 H879 H 0.73988 0.70550 -0.02821
 H880 H 0.75833 0.72360 -0.04496
 H881 H 0.70326 0.77857 0.02534
 H882 H 0.72207 0.79836 -0.02489
 H883 H 0.77778 0.70631 0.00963
 H884 H 0.79328 0.72279 -0.00948
 H885 H 0.72231 0.78021 -0.04657
 H886 H 0.71388 0.73982 -0.03672
 H887 H 0.79400 0.75889 0.02663
 H888 H 0.77653 0.74075 0.04502
 O889 O 1.04495 0.22831 0.24904
 O890 O 1.03912 0.23073 0.27827
 O891 O 1.00123 0.20530 0.22886
 O892 O 0.97361 0.21026 0.22817
 O893 O 1.02194 0.24940 0.20558
 O894 O 1.02065 0.27858 0.21190
 O895 O 0.95672 0.25070 0.27201
 O896 O 0.96152 0.22207 0.26854
 O897 O 0.99908 0.27163 0.29390
 O898 O 1.02778 0.26922 0.28956
 O899 O 0.97883 0.29377 0.25157
 O900 O 0.97975 0.28810 0.22150
 O901 O 0.95668 0.27103 0.25197
 O902 O 0.96276 0.26947 0.22098
 O903 O 0.99905 0.29389 0.27164
 O904 O 1.02994 0.28738 0.26944
 O905 O 0.97870 0.25168 0.29372
 O906 O 0.98410 0.22143 0.28847
 O907 O 1.04512 0.24896 0.22929
 O908 O 1.03877 0.27871 0.23097
 O909 O 1.00184 0.22915 0.20531
 O910 O 0.97159 0.23176 0.21205
 O911 O 1.02198 0.20531 0.24845
 O912 O 1.01650 0.21162 0.27853
 Zr913 Zr 1.02068 0.22942 0.25918
 O914 O 1.00610 0.24447 0.27516
 Zr915 Zr 0.99142 0.22980 0.22951
 O916 O 0.97539 0.24427 0.24462
 Zr917 Zr 1.02085 0.25925 0.22998
 O918 O 1.00590 0.27527 0.24462
 Zr919 Zr 0.98072 0.24029 0.27004
 O920 O 0.99521 0.22401 0.25495
 Zr921 Zr 1.00996 0.26994 0.27003
 O922 O 1.02625 0.25502 0.25541
 Zr923 Zr 0.98048 0.26981 0.24067
 O924 O 0.99544 0.25535 0.22422
 O925 O 1.01662 0.23389 0.23387
 O926 O 0.98459 0.26580 0.26604
 C927 C 1.05208 0.23704 0.23758
 C928 C 1.01317 0.19824 0.23700
 C929 C 1.01352 0.23774 0.19838
 C930 C 0.94982 0.26275 0.26392
 C931 C 0.98694 0.26361 0.30068
 C932 C 0.98701 0.30073 0.26353
 H933 H 1.00886 0.24187 0.28696
 H934 H 1.00856 0.28705 0.24188
 H935 H 1.02376 0.22678 0.22666
 H936 H 0.96363 0.24142 0.24209
 H937 H 0.96693 0.21146 0.26508
 H938 H 0.96502 0.21270 0.23670
 H939 H 1.02771 0.29548 0.26034
 H940 H 1.04463 0.27759 0.24182
 H941 H 0.97441 0.22186 0.29619
 H942 H 1.02480 0.20244 0.27757
 H943 H 0.99018 0.29471 0.22221
 H944 H 1.00943 0.27837 0.20667
 H945 H 1.04638 0.22066 0.27755
 H946 H 1.03635 0.26098 0.28612
 H947 H 0.97356 0.24211 0.20551
 H948 H 0.95499 0.26003 0.22301
 O949 O 0.70577 1.02229 0.74797
 O950 O 0.71148 1.01993 0.77724
 O951 O 0.74950 1.04543 0.72805
 O952 O 0.77716 1.04055 0.72762
 O953 O 0.72899 1.00135 0.70465
 O954 O 0.73041 0.97212 0.71092
 O955 O 0.79393 1.00015 0.77156
 O956 O 0.78909 1.02879 0.76802
 O957 O 0.75159 0.97909 0.79308
 O958 O 0.72287 0.98148 0.78857
 O959 O 0.77206 0.95702 0.75092
 O960 O 0.77129 0.96267 0.72086
 O961 O 0.79412 0.97979 0.75152
 O962 O 0.78820 0.98140 0.72044
 O963 O 0.75175 0.95686 0.77085
 O964 O 0.72085 0.96327 0.76844
 O965 O 0.77190 0.99911 0.79305
 O966 O 0.76642 1.02936 0.78780
 O967 O 0.70574 1.00164 0.72821
 O968 O 0.71219 0.97190 0.72987
 O969 O 0.74906 1.02162 0.70453
 O970 O 0.77929 1.01904 0.71145
 O971 O 0.72865 1.04535 0.74750
 O972 O 0.73405 1.03909 0.77763
 Zr973 Zr 0.73000 1.02127 0.75827
 O974 O 0.74454 1.00625 0.77434
 Zr975 Zr 0.75940 1.02096 0.72879
 O976 O 0.77540 1.00653 0.74400
 Zr977 Zr 0.73005 0.99143 0.72904
 O978 O 0.74497 0.97546 0.74378
 Zr979 Zr 0.76993 1.01051 0.76939
 O980 O 0.75547 1.02675 0.75420
 Zr981 Zr 0.74077 0.98078 0.76916
 O982 O 0.72451 0.99565 0.75444
 Zr983 Zr 0.77040 0.98098 0.74001
 O984 O 0.75547 0.99540 0.72346
 O985 O 0.73419 1.01680 0.73298
 O986 O 0.76614 0.98500 0.76535
 C987 C 0.69871 1.01354 0.73647
 C988 C 0.73747 1.05243 0.73609
 C989 C 0.73739 1.01305 0.69753
 C990 C 0.80089 0.98808 0.76355
 C991 C 0.76369 0.98713 0.79993
 C992 C 0.76386 0.95005 0.76283
 H993 H 0.74172 1.00885 0.78612
 H994 H 0.74236 0.96367 0.74101
 H995 H 0.72705 1.02388 0.72575
 H996 H 0.78717 1.00941 0.74156
 H997 H 0.78366 1.03939 0.76452
 H998 H 0.78577 1.03808 0.73615
 H999 H 0.72315 0.95517 0.75935
 H1000 H 0.70628 0.97299 0.74069
 H1001 H 0.77607 1.02895 0.79559
 H1002 H 0.72574 1.04826 0.77661
 H1003 H 0.76082 0.95609 0.72144
 H1004 H 0.74164 0.97242 0.70574
 H1005 H 0.70421 1.02997 0.77648
 H1006 H 0.71427 0.98966 0.78504
 H1007 H 0.77737 1.00869 0.70489
 H1008 H 0.79599 0.99080 0.72259
 O1009 O 0.74930 0.54510 0.22765
 O1010 O 0.77853 0.53938 0.23025
 O1011 O 0.72941 0.50119 0.20467
 O1012 O 0.72903 0.47345 0.20960
 O1013 O 0.70584 0.52180 0.24850
 O1014 O 0.71206 0.52071 0.27764
 O1015 O 0.77257 0.45673 0.25028
 O1016 O 0.76927 0.46151 0.22169
 O1017 O 0.79408 0.49931 0.27132
 O1018 O 0.78968 0.52810 0.26873
 O1019 O 0.75180 0.47896 0.29313
 O1020 O 0.72176 0.47972 0.28723
 O1021 O 0.75246 0.45667 0.27048
 O1022 O 0.72149 0.46259 0.26872
 O1023 O 0.77170 0.49937 0.29335
 O1024 O 0.76945 0.53030 0.28672
 O1025 O 0.79412 0.47883 0.25145
 O1026 O 0.78909 0.48423 0.22121
 O1027 O 0.72940 0.54522 0.24807
 O1028 O 0.73100 0.53897 0.27780
 O1029 O 0.70580 0.50158 0.22836
 O1030 O 0.71274 0.47133 0.23094
 O1031 O 0.74892 0.52205 0.20477
 O1032 O 0.77899 0.51664 0.21124
 Zr1033 Zr 0.75955 0.52080 0.22887
 O1034 O 0.77551 0.50628 0.24403
 Zr1035 Zr 0.73007 0.49132 0.22911
 O1036 O 0.74516 0.47534 0.24369
 Zr1037 Zr 0.73021 0.52091 0.25844
 O1038 O 0.74482 0.50601 0.27455
 Zr1039 Zr 0.77055 0.48079 0.23987
 O1040 O 0.75549 0.49523 0.22350
 Zr1041 Zr 0.77022 0.51019 0.26939
 O1042 O 0.75561 0.52644 0.25438
 Zr1043 Zr 0.74105 0.48048 0.26914
 O1044 O 0.72462 0.49538 0.25456
 O1045 O 0.73425 0.51663 0.23318
 O1046 O 0.76639 0.48471 0.26529
 C1047 C 0.73774 0.55222 0.23624
 C1048 C 0.73752 0.51320 0.19768
 C1049 C 0.69875 0.51325 0.23688
 C1050 C 0.76447 0.44980 0.26229
 C1051 C 0.80094 0.48711 0.26341
 C1052 C 0.76362 0.48727 0.30015
 H1053 H 0.78730 0.50909 0.24151
 H1054 H 0.74199 0.50870 0.28628
 H1055 H 0.72703 0.52373 0.22605
 H1056 H 0.74271 0.46352 0.24085
 H1057 H 0.76587 0.46692 0.21107
 H1058 H 0.73751 0.46481 0.21218
 H1059 H 0.76027 0.52810 0.29470
 H1060 H 0.74180 0.54491 0.27670
 H1061 H 0.79685 0.47454 0.22171
 H1062 H 0.77803 0.52493 0.20205
 H1063 H 0.72242 0.49017 0.29386
 H1064 H 0.70692 0.50942 0.27746
 H1065 H 0.77783 0.54663 0.22019
 H1066 H 0.78623 0.53668 0.26048
 H1067 H 0.70620 0.47322 0.24128
 H1068 H 0.72361 0.45480 0.25933
 O1069 O 0.50075 0.20396 0.72753
 O1070 O 0.47153 0.20968 0.73014
 O1071 O 0.52064 0.24801 0.70488
 O1072 O 0.52105 0.27571 0.70997
 O1073 O 0.54422 0.22709 0.74856
 O1074 O 0.53806 0.22807 0.77772
 O1075 O 0.47747 0.29217 0.75074
 O1076 O 0.48083 0.28761 0.72210
 O1077 O 0.45602 0.24954 0.77142
 O1078 O 0.46042 0.22074 0.76867
 O1079 O 0.49836 0.26974 0.79341
 O1080 O 0.52836 0.26903 0.78756
 O1081 O 0.49759 0.29212 0.77097
 O1082 O 0.52863 0.28623 0.76910
 O1083 O 0.47840 0.24938 0.79348
 O1084 O 0.48066 0.21846 0.78669
 O1085 O 0.45596 0.27009 0.75164
 O1086 O 0.46101 0.26489 0.72138
 O1087 O 0.52066 0.20371 0.74800
 O1088 O 0.51910 0.20981 0.77777
 O1089 O 0.54425 0.24743 0.72856
 O1090 O 0.53734 0.27770 0.73137
 O1091 O 0.50114 0.22714 0.70481
 O1092 O 0.47107 0.23252 0.71126
 Zr1093 Zr 0.49051 0.22826 0.72890
 O1094 O 0.47457 0.24269 0.74412
 Zr1095 Zr 0.52000 0.25773 0.72937
 O1096 O 0.50493 0.27364 0.74402
 Zr1097 Zr 0.51988 0.22797 0.75851
 O1098 O 0.50529 0.24278 0.77468
 Zr1099 Zr 0.47954 0.26821 0.74012
 O1100 O 0.49458 0.25386 0.72368
 Zr1101 Zr 0.47988 0.23865 0.76947
 O1102 O 0.49447 0.22248 0.75438
 Zr1103 Zr 0.50907 0.26834 0.76943
 O1104 O 0.52548 0.25351 0.75480
 O1105 O 0.51581 0.23240 0.73327
 O1106 O 0.48372 0.26413 0.76551
 C1107 C 0.51232 0.19679 0.73610
 C1108 C 0.51255 0.23602 0.69780
 C1109 C 0.55130 0.23569 0.73698
 C1110 C 0.48554 0.29901 0.76284
 C1111 C 0.44915 0.26176 0.76356
 C1112 C 0.48652 0.26143 0.80036
 H1113 H 0.46278 0.23990 0.74156
 H1114 H 0.50812 0.24003 0.78640
 H1115 H 0.52302 0.22533 0.72611
 H1116 H 0.50737 0.28548 0.74127
 H1117 H 0.48423 0.28227 0.71144
 H1118 H 0.51259 0.28435 0.71260
 H1119 H 0.48983 0.22064 0.79471
 H1120 H 0.50829 0.20389 0.77663
 H1121 H 0.45326 0.27458 0.72193
 H1122 H 0.47202 0.22428 0.70202
 H1123 H 0.52776 0.25850 0.79407
 H1124 H 0.54324 0.23934 0.77758
 H1125 H 0.47222 0.20248 0.72003
 H1126 H 0.46386 0.21220 0.76039
 H1127 H 0.54392 0.27572 0.74169
 H1128 H 0.52641 0.29415 0.75984
 O1129 O 0.27177 0.79475 0.49923
 O1130 O 0.26930 0.78891 0.52846
 O1131 O 0.29461 0.75083 0.47915
 O1132 O 0.28960 0.72310 0.47861
 O1133 O 0.25085 0.77171 0.45570
 O1134 O 0.22171 0.77048 0.46186
 O1135 O 0.24907 0.70633 0.52223
 O1136 O 0.27763 0.71105 0.51890
 O1137 O 0.22828 0.74893 0.54394
 O1138 O 0.23082 0.77771 0.53956
 O1139 O 0.20627 0.72865 0.50157
 O1140 O 0.21201 0.72951 0.47153
 O1141 O 0.22886 0.70635 0.50209
 O1142 O 0.23054 0.71242 0.47109
 O1143 O 0.20617 0.74896 0.52159
 O1144 O 0.21279 0.77993 0.51936
 O1145 O 0.24808 0.72840 0.54389
 O1146 O 0.27828 0.73371 0.53879
 O1147 O 0.25126 0.79496 0.47937
 O1148 O 0.22156 0.78869 0.48090
 O1149 O 0.27093 0.75146 0.45556
 O1150 O 0.26820 0.72113 0.46233
 O1151 O 0.29461 0.77166 0.49871
 O1152 O 0.28825 0.76614 0.52880
 Zr1153 Zr 0.27057 0.77040 0.50939
 O1154 O 0.25545 0.75586 0.52532
 Zr1155 Zr 0.27016 0.74102 0.47977
 O1156 O 0.25562 0.72501 0.49484
 Zr1157 Zr 0.24091 0.77065 0.48005
 O1158 O 0.22484 0.75573 0.49464
 Zr1159 Zr 0.25953 0.73037 0.52027
 O1160 O 0.27587 0.74483 0.50523
 Zr1161 Zr 0.23009 0.75981 0.52007
 O1162 O 0.24508 0.77609 0.50549
 Zr1163 Zr 0.23020 0.73020 0.49077
 O1164 O 0.24473 0.74514 0.47435
 O1165 O 0.26616 0.76632 0.48406
 O1166 O 0.23413 0.73435 0.51615
 C1167 C 0.26313 0.80191 0.48771
 C1168 C 0.30165 0.76283 0.48727
 C1169 C 0.26247 0.76322 0.44857
 C1170 C 0.23705 0.69944 0.51409
 C1171 C 0.23619 0.73672 0.55078
 C1172 C 0.19933 0.73689 0.51347
 H1173 H 0.25802 0.75863 0.53712
 H1174 H 0.21312 0.75843 0.49184
 H1175 H 0.27328 0.77346 0.47688
 H1176 H 0.25843 0.71320 0.49234
 H1177 H 0.28824 0.71644 0.51547
 H1178 H 0.28704 0.71445 0.48708
 H1179 H 0.20472 0.77770 0.51024
 H1180 H 0.22267 0.79458 0.49175
 H1181 H 0.27778 0.72400 0.54652
 H1182 H 0.29745 0.77442 0.52785
 H1183 H 0.20548 0.74002 0.47217
 H1184 H 0.22193 0.75923 0.45663
 H1185 H 0.27936 0.79615 0.52776
 H1186 H 0.23909 0.78626 0.53614
 H1187 H 0.25791 0.72313 0.45574
 H1188 H 0.23990 0.70459 0.47318
 O1189 O 0.27239 0.29453 0.99902
 O1190 O 0.26992 0.28879 1.02828
 O1191 O 0.29490 0.25047 0.97898
 O1192 O 0.28974 0.22277 0.97851
 O1193 O 0.25118 0.27153 0.95561
 O1194 O 0.22206 0.27051 0.96188
 O1195 O 0.24930 0.20627 1.02224
 O1196 O 0.27785 0.21087 1.01886
 O1197 O 0.22876 0.24904 1.04397
 O1198 O 0.23144 0.27779 1.03954
 O1199 O 0.20650 0.22884 1.00168
 O1200 O 0.21215 0.22955 0.97166
 O1201 O 0.22901 0.20636 1.00218
 O1202 O 0.23060 0.21240 0.97118
 O1203 O 0.20656 0.24921 1.02165
 O1204 O 0.21338 0.28010 1.01939
 O1205 O 0.24844 0.22841 1.04390
 O1206 O 0.27865 0.23355 1.03870
 O1207 O 0.25183 0.29483 0.97921
 O1208 O 0.22209 0.28874 0.98089
 O1209 O 0.27116 0.25117 0.95545
 O1210 O 0.26829 0.22088 0.96229
 O1211 O 0.29507 0.27133 0.99852
 O1212 O 0.28876 0.26592 1.02863
 Zr1213 Zr 0.27105 0.27023 1.00925
 O1214 O 0.25590 0.25579 1.02526
 Zr1215 Zr 0.27040 0.24079 0.97969
 O1216 O 0.25582 0.22489 0.99483
 Zr1217 Zr 0.24132 0.27058 0.98000
 O1218 O 0.22522 0.25577 0.99467
 Zr1219 Zr 0.25984 0.23028 1.02024
 O1220 O 0.27621 0.24462 1.00512
 Zr1221 Zr 0.23056 0.25988 1.02007
 O1222 O 0.24558 0.27605 1.00542
 Zr1223 Zr 0.23041 0.23021 0.99083
 O1224 O 0.24497 0.24504 0.97435
 O1225 O 0.26655 0.26612 0.98395
 O1226 O 0.23444 0.23437 1.01619
 C1227 C 0.26378 0.30172 0.98749
 C1228 C 0.30202 0.26244 0.98707
 C1229 C 0.26273 0.26296 0.94847
 C1230 C 0.23724 0.19942 1.01414
 C1231 C 0.23663 0.23681 1.05080
 C1232 C 0.19962 0.23718 1.01356
 H1233 H 0.25852 0.25857 1.03705
 H1234 H 0.21350 0.25854 0.99189
 H1235 H 0.27369 0.27320 0.97673
 H1236 H 0.25856 0.21306 0.99234
 H1237 H 0.28847 0.21620 1.01538
 H1238 H 0.28716 0.21414 0.98700
 H1239 H 0.20532 0.27795 1.01024
 H1240 H 0.22329 0.29468 0.99171
 H1241 H 0.27813 0.22386 1.04646
 H1242 H 0.29799 0.27416 1.02764
 H1243 H 0.20574 0.24014 0.97224
 H1244 H 0.22219 0.25924 0.95667
 H1245 H 0.28002 0.29598 1.02754
 H1246 H 0.23975 0.28629 1.03610
 H1247 H 0.25799 0.22292 0.95573
 H1248 H 0.23993 0.20453 0.97324
 C1249 C 0.27880 0.38643 0.76799
 C1250 C 0.29694 0.38285 0.77385
 C1251 C 0.28996 0.37360 0.78919
 C1252 C 0.27193 0.37692 0.78344
 C1253 C 0.27893 0.40270 0.77830
 C1254 C 0.27196 0.39345 0.79364
 C1255 C 0.29696 0.39936 0.78406
 C1256 C 0.29008 0.38988 0.79948
 C1257 C 0.29629 0.35757 0.79549
 C1258 C 0.30168 0.34455 0.80093
 C1259 C 0.27303 0.41908 0.77251
 C1260 C 0.26847 0.43277 0.76804
 H1261 H 0.27410 0.38521 0.75498
 H1262 H 0.30728 0.37832 0.76578
 H1263 H 0.26171 0.36750 0.78326
 H1264 H 0.26162 0.39799 0.80172
 H1265 H 0.30719 0.40877 0.78425
 H1266 H 0.29478 0.39113 0.81249
 C1267 C 0.27256 -0.10649 0.29447
 C1268 C 0.27170 -0.12325 0.28469
 C1269 C 0.28995 -0.12676 0.28957
 C1270 C 0.29089 -0.11025 0.29944
 C1271 C 0.27887 -0.09773 0.27857
 C1272 C 0.29711 -0.10126 0.28346
 C1273 C 0.27792 -0.11423 0.26868
 C1274 C 0.29627 -0.11801 0.27367
 C1275 C 0.29633 -0.14275 0.29595
 C1276 C 0.30177 -0.15573 0.30145
 C1277 C 0.27294 -0.08137 0.27272
 C1278 C 0.26837 -0.06770 0.26822
 H1279 H 0.26274 -0.10157 0.30296
 H1280 H 0.26133 -0.13248 0.28528
 H1281 H 0.29629 -0.10878 0.31216
 H1282 H 0.30750 -0.09204 0.28288
 H1283 H 0.27252 -0.11568 0.25596
 H1284 H 0.30610 -0.12293 0.26519
 C1285 C 0.79786 0.89846 0.77911
 C1286 C 0.79526 0.89183 0.79712
 C1287 C 0.79034 0.87467 0.78989
 C1288 C 0.79303 0.88106 0.77196
 C1289 C 0.77936 0.90361 0.77855
 C1290 C 0.77442 0.88646 0.77129
 C1291 C 0.77668 0.89721 0.79648
 C1292 C 0.77184 0.87981 0.78934
 C1293 C 0.79667 0.85872 0.79643
 C1294 C 0.80208 0.84577 0.80202
 C1295 C 0.77348 0.91993 0.77251
 C1296 C 0.76892 0.93356 0.76788
 H1297 H 0.80849 0.90631 0.77484
 H1298 H 0.80390 0.89388 0.80781
 H1299 H 0.79983 0.87423 0.76195
 H1300 H 0.76578 0.88444 0.76060
 H1301 H 0.76990 0.90404 0.80649
 H1302 H 0.76121 0.87196 0.79362
 C1303 C 0.47920 0.86327 0.27435
 C1304 C 0.46204 0.87121 0.27000
 C1305 C 0.45970 0.87571 0.28854
 C1306 C 0.47675 0.86804 0.29299
 C1307 C 0.47038 0.84649 0.27768
 C1308 C 0.46802 0.85101 0.29622
 C1309 C 0.45333 0.85416 0.27325
 C1310 C 0.45089 0.85892 0.29187
 C1311 C 0.45355 0.89181 0.29485
 C1312 C 0.44830 0.90488 0.30030
 C1313 C 0.47611 0.83004 0.27191
 C1314 C 0.48056 0.81631 0.26748
 H1315 H 0.49090 0.86486 0.26707
 H1316 H 0.45951 0.87971 0.25930
 H1317 H 0.48631 0.87393 0.30118
 H1318 H 0.47055 0.84252 0.30693
 H1319 H 0.44376 0.84827 0.26507
 H1320 H 0.43919 0.85730 0.29914
 C1321 C -0.02269 0.85672 0.79543
 C1322 C -0.02188 0.87360 0.78585
 C1323 C -0.04013 0.87703 0.79078
 C1324 C -0.04101 0.86040 0.80045
 C1325 C -0.02903 0.84815 0.77942
 C1326 C -0.04727 0.85159 0.78436
 C1327 C -0.02813 0.86476 0.76973
 C1328 C -0.04647 0.86845 0.77477
 C1329 C -0.04653 0.89293 0.79734
 C1330 C -0.05202 0.90583 0.80295
 C1331 C -0.02311 0.83185 0.77339
 C1332 C -0.01855 0.81821 0.76878
 H1333 H -0.01284 0.85172 0.80385
 H1334 H -0.01152 0.88283 0.78655
 H1335 H -0.04638 0.85877 0.81315
 H1336 H -0.05764 0.84237 0.78368
 H1337 H -0.02277 0.86636 0.75703
 H1338 H -0.05633 0.87345 0.76636
 C1339 C -0.04778 -0.10136 -0.02864
 C1340 C -0.04518 -0.10813 -0.04661
 C1341 C -0.04029 -0.12524 -0.03926
 C1342 C -0.04297 -0.11872 -0.02137
 C1343 C -0.02927 -0.09623 -0.02810
 C1344 C -0.02436 -0.11333 -0.02073
 C1345 C -0.02659 -0.10276 -0.04599
 C1346 C -0.02178 -0.12012 -0.03873
 C1347 C -0.04662 -0.14122 -0.04570
 C1348 C -0.05204 -0.15420 -0.05123
 C1349 C -0.02336 -0.07989 -0.02217
 C1350 C -0.01878 -0.06624 -0.01761
 H1351 H -0.05840 -0.09347 -0.02443
 H1352 H -0.05381 -0.10615 -0.05731
 H1353 H -0.04979 -0.12546 -0.01132
 H1354 H -0.01573 -0.11528 -0.01003
 H1355 H -0.01979 -0.09602 -0.05605
 H1356 H -0.01116 -0.12802 -0.04296
 C1357 C -0.03424 0.39813 0.45517
 C1358 C -0.02366 0.38187 0.45486
 C1359 C -0.03858 0.37223 0.46217
 C1360 C -0.04924 0.38825 0.46239
 C1361 C -0.02812 0.40153 0.47308
 C1362 C -0.04305 0.39189 0.48039
 C1363 C -0.01744 0.38552 0.47287
 C1364 C -0.03248 0.37560 0.48009
 C1365 C -0.04471 0.35614 0.45578
 C1366 C -0.05003 0.34314 0.45024
 C1367 C -0.02263 0.41809 0.47878
 C1368 C -0.01847 0.43198 0.48304
 H1369 H -0.03491 0.40756 0.44499
 H1370 H -0.01575 0.37758 0.44428
 H1371 H -0.06238 0.38921 0.45801
 H1372 H -0.05096 0.39619 0.49096
 H1373 H -0.00430 0.38459 0.47726
 H1374 H -0.03182 0.36614 0.49026
 C1375 C 0.47046 -0.10454 0.45393
 C1376 C 0.47915 -0.12165 0.45686
 C1377 C 0.46213 -0.12927 0.46150
 C1378 C 0.45337 -0.11240 0.45847
 C1379 C 0.47317 -0.10020 0.47246
 C1380 C 0.45616 -0.10783 0.47709
 C1381 C 0.48196 -0.11705 0.47551
 C1382 C 0.46484 -0.12496 0.48004
 C1383 C 0.45569 -0.14523 0.45509
 C1384 C 0.45011 -0.15813 0.44953
 C1385 C 0.47898 -0.08374 0.47819
 C1386 C 0.48335 -0.06993 0.48246
 H1387 H 0.47283 -0.09597 0.44325
 H1388 H 0.48852 -0.12751 0.44846
 H1389 H 0.44155 -0.11065 0.45140
 H1390 H 0.44677 -0.10197 0.48548
 H1391 H 0.49379 -0.11878 0.48258
 H1392 H 0.46245 -0.13354 0.49071
 C1393 C 0.46615 0.39826 -0.04669
 C1394 C 0.47652 0.38187 -0.04689
 C1395 C 0.46142 0.37243 -0.03967
 C1396 C 0.45097 0.38859 -0.03956
 C1397 C 0.47218 0.40162 -0.02873
 C1398 C 0.45708 0.39219 -0.02152
 C1399 C 0.48265 0.38548 -0.02884
 C1400 C 0.46745 0.37577 -0.02171
 C1401 C 0.45519 0.35635 -0.04597
 C1402 C 0.44982 0.34331 -0.05137
 C1403 C 0.47791 0.41807 -0.02292
 C1404 C 0.48235 0.43180 -0.01846
 H1405 H 0.46568 0.40769 -0.05689
 H1406 H 0.48445 0.37745 -0.05739
 H1407 H 0.43787 0.38971 -0.04403
 H1408 H 0.44914 0.39661 -0.01102
 H1409 H 0.49575 0.38438 -0.02436
 H1410 H 0.46791 0.36633 -0.01152
 C1411 C 0.76658 0.36449 0.46961
 C1412 C 0.77986 0.37557 0.47846
 C1413 C 0.78850 0.37832 0.46152
 C1414 C 0.77533 0.36751 0.45258
 C1415 C 0.77781 0.34911 0.47242
 C1416 C 0.78645 0.35189 0.45549
 C1417 C 0.79098 0.35991 0.48135
 C1418 C 0.79971 0.36292 0.46433
 C1419 C 0.79474 0.39436 0.45515
 C1420 C 0.80014 0.40734 0.44963
 C1421 C 0.77216 0.33259 0.47810
 C1422 C 0.76785 0.31875 0.48234
 H1423 H 0.75290 0.36494 0.47186
 H1424 H 0.77722 0.38550 0.48782
 H1425 H 0.76897 0.37081 0.44068
 H1426 H 0.78911 0.34198 0.44610
 H1427 H 0.79735 0.35660 0.49325
 H1428 H 0.81339 0.36244 0.46209
 C1429 C 0.78235 0.85313 -0.04591
 C1430 C 0.77283 0.87000 -0.04490
 C1431 C 0.78893 0.87850 -0.03872
 C1432 C 0.79853 0.86185 -0.03983
 C1433 C 0.77766 0.84959 -0.02761
 C1434 C 0.79377 0.85809 -0.02145
 C1435 C 0.76803 0.86622 -0.02649
 C1436 C 0.78425 0.87500 -0.02042
 C1437 C 0.79550 0.89434 -0.04525
 C1438 C 0.80117 0.90712 -0.05093
 C1439 C 0.77176 0.83320 -0.02184
 C1440 C 0.76733 0.81942 -0.01757
 H1441 H 0.78151 0.84396 -0.05634
 H1442 H 0.76429 0.87507 -0.05462
 H1443 H 0.81114 0.86022 -0.04539
 H1444 H 0.80231 0.85302 -0.01173
 H1445 H 0.75542 0.86782 -0.02093
 H1446 H 0.78512 0.88418 -0.01001
 C1447 C 0.79324 0.27127 0.39232
 C1448 C 0.78340 0.27072 0.37561
 C1449 C 0.78866 0.28893 0.37220
 C1450 C 0.79859 0.28956 0.38865
 C1451 C 0.77752 0.27792 0.40112
 C1452 C 0.78279 0.29612 0.39768
 C1453 C 0.76756 0.27728 0.38469
 C1454 C 0.77294 0.29559 0.38100
 C1455 C 0.79519 0.29536 0.35633
 C1456 C 0.80086 0.30091 0.34352
 C1457 C 0.77169 0.27216 0.41750
 C1458 C 0.76733 0.26784 0.43127
 H1459 H 0.80152 0.26120 0.39716
 H1460 H 0.78373 0.26035 0.36635
 H1461 H 0.81141 0.29468 0.39012
 H1462 H 0.78247 0.30651 0.40693
 H1463 H 0.75474 0.27215 0.38325
 H1464 H 0.76467 0.30566 0.37616
 C1465 C 0.79589 0.77846 -0.10428
 C1466 C 0.79006 0.77238 -0.12174
 C1467 C 0.78886 0.79074 -0.12745
 C1468 C 0.79479 0.79690 -0.11022
 C1469 C 0.77754 0.77940 -0.09871
 C1470 C 0.77636 0.79776 -0.10442
 C1471 C 0.77158 0.77321 -0.11592
 C1472 C 0.77050 0.79169 -0.12189
 C1473 C 0.79547 0.79732 -0.14322
 C1474 C 0.80120 0.80298 -0.15597
 C1475 C 0.77161 0.77344 -0.08242
 C1476 C 0.76717 0.76897 -0.06873
 H1477 H 0.80627 0.77296 -0.09686
 H1478 H 0.79577 0.76202 -0.12904
 H1479 H 0.80440 0.80671 -0.10803
 H1480 H 0.77066 0.80813 -0.09713
 H1481 H 0.76197 0.76340 -0.11807
 H1482 H 0.76014 0.79721 -0.12932
 C1483 C 0.28458 0.45361 0.85080
 C1484 C 0.29995 0.46084 0.86011
 C1485 C 0.28982 0.46083 0.87643
 C1486 C 0.27454 0.45351 0.86735
 C1487 C 0.27849 0.47157 0.84745
 C1488 C 0.26833 0.47157 0.86375
 C1489 C 0.29378 0.47889 0.85653
 C1490 C 0.28373 0.47880 0.87310
 C1491 C 0.29636 0.45462 0.89239
 C1492 C 0.30194 0.44926 0.90534
 C1493 C 0.27247 0.47731 0.83111
 C1494 C 0.26788 0.48177 0.81746
 H1495 H 0.28487 0.44332 0.84145
 H1496 H 0.31303 0.45636 0.85878
 H1497 H 0.26670 0.44300 0.87197
 H1498 H 0.25526 0.47606 0.86506
 H1499 H 0.30162 0.48939 0.85190
 H1500 H 0.28346 0.48908 0.88246
 C1501 C 0.29679 -0.03384 0.35102
 C1502 C 0.29587 -0.02357 0.36744
 C1503 C 0.28936 -0.03923 0.37654
 C1504 C 0.29037 -0.04957 0.36035
 C1505 C 0.27861 -0.02893 0.34718
 C1506 C 0.27210 -0.04459 0.35628
 C1507 C 0.27760 -0.01857 0.36335
 C1508 C 0.27118 -0.03433 0.37272
 C1509 C 0.29554 -0.04517 0.39274
 C1510 C 0.30082 -0.05031 0.40590
 C1511 C 0.27285 -0.02339 0.33069
 C1512 C 0.26836 -0.01903 0.31697
 H1513 H 0.30726 -0.03358 0.34191
 H1514 H 0.30572 -0.01499 0.37222
 H1515 H 0.29569 -0.06239 0.35929
 H1516 H 0.26227 -0.05317 0.35150
 H1517 H 0.27227 -0.00576 0.36440
 H1518 H 0.26072 -0.03460 0.38183
 C1519 C -0.04626 -0.02423 -0.10357
 C1520 C -0.03841 -0.02044 -0.12088
 C1521 C -0.04008 -0.03908 -0.12544
 C1522 C -0.04802 -0.04295 -0.10838
 C1523 C -0.02872 -0.02790 -0.09663
 C1524 C -0.03040 -0.04654 -0.10121
 C1525 C -0.02076 -0.02402 -0.11367
 C1526 C -0.02254 -0.04276 -0.11851
 C1527 C -0.04662 -0.04553 -0.14131
 C1528 C -0.05222 -0.05105 -0.15419
 C1529 C -0.02268 -0.02195 -0.08037
 C1530 C -0.01804 -0.01737 -0.06677
 H1531 H -0.05594 -0.01654 -0.09725
 H1532 H -0.04178 -0.00978 -0.12915
 H1533 H -0.05930 -0.05080 -0.10637
 H1534 H -0.02704 -0.05721 -0.09294
 H1535 H -0.00947 -0.01616 -0.11566
 H1536 H -0.01286 -0.05046 -0.12483
 C1537 C -0.04014 0.48207 0.39013
 C1538 C -0.02901 0.47759 0.37490
 C1539 C -0.03900 0.46128 0.37264
 C1540 C -0.05021 0.46568 0.38761
 C1541 C -0.02797 0.47253 0.40156
 C1542 C -0.03797 0.45623 0.39927
 C1543 C -0.01674 0.46814 0.38661
 C1544 C -0.02684 0.45174 0.38409
 C1545 C -0.04546 0.45472 0.35678
 C1546 C -0.05107 0.44906 0.34397
 C1547 C -0.02222 0.47841 0.41795
 C1548 C -0.01794 0.48282 0.43172
 H1549 H -0.04554 0.49462 0.39279
 H1550 H -0.02540 0.48629 0.36468
 H1551 H -0.06405 0.46459 0.38786
 H1552 H -0.04159 0.44751 0.40946
 H1553 H -0.00290 0.46923 0.38639
 H1554 H -0.02144 0.43920 0.38143
 C1555 C 0.45835 -0.02138 0.39202
 C1556 C 0.46847 -0.02172 0.37549
 C1557 C 0.46207 -0.03959 0.37220
 C1558 C 0.45186 -0.03932 0.38847
 C1559 C 0.47346 -0.02894 0.40120
 C1560 C 0.46704 -0.04679 0.39788
 C1561 C 0.48369 -0.02919 0.38495
 C1562 C 0.47717 -0.04715 0.38139
 C1563 C 0.45541 -0.04582 0.35630
 C1564 C 0.44965 -0.05125 0.34346
 C1565 C 0.47938 -0.02334 0.41762
 C1566 C 0.48378 -0.01910 0.43141
 H1567 H 0.45068 -0.01071 0.39657
 H1568 H 0.46898 -0.01149 0.36610
 H1569 H 0.43870 -0.04355 0.38976
 H1570 H 0.46652 -0.05705 0.40726
 H1571 H 0.49685 -0.02496 0.38370
 H1572 H 0.48483 -0.05782 0.37684
 C1573 C 0.45239 0.47076 -0.10257
 C1574 C 0.45876 0.47603 -0.12009
 C1575 C 0.45892 0.45749 -0.12532
 C1576 C 0.45245 0.45214 -0.10804
 C1577 C 0.47059 0.46888 -0.09672
 C1578 C 0.47075 0.45034 -0.10196
 C1579 C 0.47708 0.47425 -0.11399
 C1580 C 0.47713 0.45560 -0.11949
 C1581 C 0.45221 0.45097 -0.14110
 C1582 C 0.44649 0.44543 -0.15391
 C1583 C 0.47682 0.47501 -0.08060
 C1584 C 0.48161 0.47980 -0.06713
 H1585 H 0.44228 0.47707 -0.09543
 H1586 H 0.45375 0.48652 -0.12773
 H1587 H 0.44225 0.44298 -0.10575
 H1588 H 0.47574 0.43985 -0.09432
 H1589 H 0.48728 0.48341 -0.11625
 H1590 H 0.48722 0.44928 -0.12662
 C1591 C 0.47697 0.79399 0.35544
 C1592 C 0.45850 0.79761 0.35996
 C1593 C 0.46095 0.78817 0.37653
 C1594 C 0.47934 0.78464 0.37227
 C1595 C 0.47151 0.77743 0.34727
 C1596 C 0.47397 0.76796 0.36384
 C1597 C 0.45313 0.78096 0.35156
 C1598 C 0.45548 0.77160 0.36837
 C1599 C 0.45485 0.79437 0.39266
 C1600 C 0.44961 0.79970 0.40576
 C1601 C 0.47715 0.77169 0.33080
 C1602 C 0.48151 0.76726 0.31707
 H1603 H 0.48587 0.80314 0.34994
 H1604 H 0.45208 0.80987 0.35853
 H1605 H 0.49005 0.78622 0.38097
 H1606 H 0.48040 0.75571 0.36524
 H1607 H 0.44241 0.77939 0.34286
 H1608 H 0.44658 0.76246 0.37387
 C1609 C -0.04729 0.78517 0.85100
 C1610 C -0.04611 0.77548 0.86774
 C1611 C -0.03992 0.79157 0.87633
 C1612 C -0.04118 0.80135 0.85981
 C1613 C -0.02902 0.78054 0.84731
 C1614 C -0.02283 0.79663 0.85589
 C1615 C -0.02774 0.77074 0.86381
 C1616 C -0.02164 0.78694 0.87265
 C1617 C -0.04620 0.79789 0.89233
 C1618 C -0.05159 0.80328 0.90534
 C1619 C -0.02318 0.77461 0.83098
 C1620 C -0.01865 0.76998 0.81737
 H1621 H -0.05777 0.78439 0.84191
 H1622 H -0.05576 0.76686 0.87280
 H1623 H -0.04678 0.81400 0.85834
 H1624 H -0.01319 0.80525 0.85083
 H1625 H -0.02214 0.75808 0.86526
 H1626 H -0.01117 0.78773 0.88174
 C1627 C 0.38571 0.77275 0.27222
 C1628 C 0.37909 0.77091 0.29035
 C1629 C 0.37379 0.78942 0.29006
 C1630 C 0.38014 0.79137 0.27203
 C1631 C 0.40275 0.77818 0.27926
 C1632 C 0.39744 0.79670 0.27898
 C1633 C 0.39639 0.77624 0.29729
 C1634 C 0.39084 0.79484 0.29708
 C1635 C 0.35782 0.79589 0.29626
 C1636 C 0.34484 0.80141 0.30157
 C1637 C 0.41904 0.77219 0.27344
 C1638 C 0.43263 0.76757 0.26886
 H1639 H 0.38379 0.76360 0.26193
 H1640 H 0.37136 0.76037 0.29510
 H1641 H 0.37328 0.79767 0.26172
 H1642 H 0.40516 0.80724 0.27423
 H1643 H 0.40325 0.76995 0.30761
 H1644 H 0.39279 0.80400 0.30737
 C1645 C -0.11418 0.77321 0.77360
 C1646 C -0.12024 0.77248 0.79201
 C1647 C -0.12602 0.79080 0.79060
 C1648 C -0.12022 0.79164 0.77230
 C1649 C -0.09709 0.77952 0.77975
 C1650 C -0.10288 0.79784 0.77836
 C1651 C -0.10290 0.77868 0.79805
 C1652 C -0.10892 0.79709 0.79673
 C1653 C -0.14197 0.79730 0.79684
 C1654 C -0.15492 0.80285 0.80218
 C1655 C -0.08080 0.77351 0.77393
 C1656 C -0.06719 0.76891 0.76940
 H1657 H -0.11615 0.76332 0.76402
 H1658 H -0.12757 0.76212 0.79769
 H1659 H -0.12752 0.79705 0.76179
 H1660 H -0.09556 0.80820 0.77268
 H1661 H -0.09560 0.77329 0.80857
 H1662 H -0.10692 0.80698 0.80631
 C1663 C 0.85226 0.29452 0.46637
 C1664 C 0.86859 0.29464 0.47678
 C1665 C 0.87797 0.28733 0.46168
 C1666 C 0.86186 0.28729 0.45120
 C1667 C 0.84880 0.27656 0.47240
 C1668 C 0.85817 0.26925 0.45730
 C1669 C 0.86489 0.27658 0.48292
 C1670 C 0.87454 0.26936 0.46771
 C1671 C 0.89396 0.29367 0.45542
 C1672 C 0.90687 0.29922 0.44998
 C1673 C 0.83230 0.27097 0.47801
 C1674 C 0.81845 0.26682 0.48223
 H1675 H 0.84293 0.30481 0.46588
 H1676 H 0.87306 0.30516 0.48472
 H1677 H 0.86078 0.29177 0.43809
 H1678 H 0.85371 0.25874 0.44936
 H1679 H 0.86594 0.27210 0.49603
 H1680 H 0.88389 0.25909 0.46818
 C1681 C 0.85168 0.78345 -0.04603
 C1682 C 0.86044 0.79954 -0.03967
 C1683 C 0.87700 0.78984 -0.03871
 C1684 C 0.86847 0.77382 -0.04516
 C1685 C 0.84814 0.77844 -0.02782
 C1686 C 0.86468 0.76870 -0.02684
 C1687 C 0.85667 0.79445 -0.02137
 C1688 C 0.87348 0.78483 -0.02048
 C1689 C 0.89282 0.79649 -0.04508
 C1690 C 0.90560 0.80224 -0.05061
 C1691 C 0.83178 0.77250 -0.02213
 C1692 C 0.81802 0.76810 -0.01786
 H1693 H 0.84255 0.78282 -0.05648
 H1694 H 0.85885 0.81230 -0.04501
 H1695 H 0.87350 0.76542 -0.05502
 H1696 H 0.86623 0.75595 -0.02149
 H1697 H 0.85164 0.80287 -0.01152
 H1698 H 0.88263 0.78548 -0.01005
 C1699 C -0.11329 -0.01902 -0.02567
 C1700 C -0.11805 -0.02125 -0.04435
 C1701 C -0.12553 -0.03850 -0.04017
 C1702 C -0.12103 -0.03637 -0.02160
 C1703 C -0.09648 -0.02764 -0.02916
 C1704 C -0.10395 -0.04489 -0.02500
 C1705 C -0.10099 -0.02978 -0.04773
 C1706 C -0.10870 -0.04711 -0.04365
 C1707 C -0.14154 -0.04476 -0.04649
 C1708 C -0.15455 -0.05014 -0.05188
 C1709 C -0.08014 -0.02184 -0.02325
 C1710 C -0.06652 -0.01735 -0.01864
 H1711 H -0.11498 -0.00740 -0.01821
 H1712 H -0.12404 -0.01161 -0.05238
 H1713 H -0.12945 -0.03915 -0.01093
 H1714 H -0.09797 -0.05454 -0.01698
 H1715 H -0.09257 -0.02701 -0.05841
 H1716 H -0.10699 -0.05872 -0.05111
 C1717 C -0.11545 0.48420 0.47145
 C1718 C -0.11884 0.47741 0.45358
 C1719 C -0.12856 0.46266 0.46121
 C1720 C -0.12544 0.46934 0.47898
 C1721 C -0.09950 0.47350 0.47222
 C1722 C -0.10921 0.45875 0.47985
 C1723 C -0.10264 0.46682 0.45446
 C1724 C -0.11258 0.45199 0.46200
 C1725 C -0.14450 0.45630 0.45480
 C1726 C -0.15738 0.45075 0.44926
 C1727 C -0.08306 0.47915 0.47801
 C1728 C -0.06926 0.48336 0.48238
 H1729 H -0.11644 0.49751 0.47540
 H1730 H -0.12298 0.48501 0.44270
 H1731 H -0.13500 0.47030 0.48899
 H1732 H -0.10507 0.45114 0.49072
 H1733 H -0.09310 0.46584 0.44444
 H1734 H -0.11157 0.43868 0.45805
 C1735 C 0.38600 -0.01733 0.47333
 C1736 C 0.38198 -0.02250 0.45506
 C1737 C 0.37286 -0.03810 0.46168
 C1738 C 0.37660 -0.03303 0.47985
 C1739 C 0.40215 -0.02771 0.47247
 C1740 C 0.39303 -0.04331 0.47908
 C1741 C 0.39838 -0.03279 0.45431
 C1742 C 0.38903 -0.04846 0.46083
 C1743 C 0.35677 -0.04421 0.45539
 C1744 C 0.34378 -0.04958 0.44994
 C1745 C 0.41872 -0.02229 0.47812
 C1746 C 0.43259 -0.01821 0.48234
 H1747 H 0.38495 -0.00447 0.47854
 H1748 H 0.37726 -0.01402 0.44512
 H1749 H 0.36745 -0.03321 0.49028
 H1750 H 0.39775 -0.05180 0.48902
 H1751 H 0.40752 -0.03263 0.44386
 H1752 H 0.39011 -0.06132 0.45563
 C1753 C 0.38710 0.48148 -0.02888
 C1754 C 0.38325 0.47608 -0.04711
 C1755 C 0.37422 0.46048 -0.04039
 C1756 C 0.37781 0.46577 -0.02225
 C1757 C 0.40336 0.47125 -0.02952
 C1758 C 0.39433 0.45564 -0.02281
 C1759 C 0.39976 0.46595 -0.04766
 C1760 C 0.39049 0.45026 -0.04103
 C1761 C 0.35816 0.45424 -0.04664
 C1762 C 0.34512 0.44887 -0.05197
 C1763 C 0.41976 0.47699 -0.02371
 C1764 C 0.43344 0.48143 -0.01921
 H1765 H 0.38590 0.49439 -0.02381
 H1766 H 0.37852 0.48442 -0.05718
 H1767 H 0.36859 0.46562 -0.01188
 H1768 H 0.39906 0.44729 -0.01275
 H1769 H 0.40896 0.46608 -0.05804
 H1770 H 0.39172 0.43735 -0.04609
 C1771 C 0.35451 0.45430 0.77377
 C1772 C 0.37135 0.46390 0.77338
 C1773 C 0.37452 0.45863 0.79159
 C1774 C 0.35793 0.44894 0.79207
 C1775 C 0.34589 0.47024 0.78027
 C1776 C 0.34908 0.46496 0.79848
 C1777 C 0.36247 0.47995 0.77978
 C1778 C 0.36590 0.47456 0.79810
 C1779 C 0.39030 0.45195 0.79808
 C1780 C 0.40312 0.44626 0.80360
 C1781 C 0.32975 0.47643 0.77418
 C1782 C 0.31626 0.48119 0.76945
 H1783 H 0.34964 0.44604 0.76370
 H1784 H 0.38069 0.46339 0.76313
 H1785 H 0.35622 0.43611 0.79720
 H1786 H 0.33974 0.46546 0.80874
 H1787 H 0.36415 0.49278 0.77465
 H1788 H 0.37076 0.48282 0.80817
 C1789 C 0.35299 -0.02740 0.29714
 C1790 C 0.35916 -0.04575 0.29581
 C1791 C 0.37614 -0.03932 0.28955
 C1792 C 0.37022 -0.02105 0.29097
 C1793 C 0.34702 -0.02833 0.27889
 C1794 C 0.36399 -0.02188 0.27261
 C1795 C 0.35295 -0.04660 0.27748
 C1796 C 0.37018 -0.04026 0.27129
 C1797 C 0.39218 -0.04570 0.29568
 C1798 C 0.40520 -0.05120 0.30093
 C1799 C 0.33063 -0.02250 0.27317
 C1800 C 0.31694 -0.01803 0.26872
 H1801 H 0.34574 -0.02204 0.30771
 H1802 H 0.35734 -0.05563 0.30542
 H1803 H 0.37751 -0.01062 0.29659
 H1804 H 0.36578 -0.01200 0.26300
 H1805 H 0.34567 -0.05704 0.27188
 H1806 H 0.37743 -0.04562 0.26074
 C1807 C 0.14263 0.52196 0.70696
 C1808 C 0.12575 0.51997 0.71625
 C1809 C 0.12174 0.53841 0.71243
 C1810 C 0.13837 0.54049 0.70305
 C1811 C 0.15080 0.52758 0.72344
 C1812 C 0.14676 0.54603 0.71960
 C1813 C 0.13419 0.52550 0.73285
 C1814 C 0.12991 0.54405 0.72890
 C1815 C 0.10580 0.54474 0.70598
 C1816 C 0.09292 0.55024 0.70038
 C1817 C 0.16725 0.52190 0.72917
 C1818 C 0.18105 0.51762 0.73343
 H1819 H 0.14803 0.51281 0.69800
 H1820 H 0.11692 0.50932 0.71480
 H1821 H 0.13993 0.54672 0.69073
 H1822 H 0.15558 0.55669 0.72104
 H1823 H 0.13266 0.51926 0.74517
 H1824 H 0.12450 0.55320 0.73785
 C1825 C 0.14154 0.04175 0.23040
 C1826 C 0.13753 0.04742 0.21231
 C1827 C 0.12144 0.03692 0.21281
 C1828 C 0.12519 0.03132 0.23082
 C1829 C 0.15080 0.02643 0.22332
 C1830 C 0.13472 0.01590 0.22383
 C1831 C 0.14701 0.03203 0.20532
 C1832 C 0.13069 0.02160 0.20573
 C1833 C 0.10532 0.04306 0.20664
 C1834 C 0.09229 0.04841 0.20125
 C1835 C 0.16739 0.02095 0.22881
 C1836 C 0.18128 0.01682 0.23295
 H1837 H 0.14619 0.04997 0.24061
 H1838 H 0.13852 0.06044 0.20751
 H1839 H 0.11602 0.03110 0.24123
 H1840 H 0.13377 0.00288 0.22863
 H1841 H 0.15616 0.03227 0.19489
 H1842 H 0.12605 0.01339 0.19551
 C1843 C 0.61089 0.71198 0.23318
 C1844 C 0.61355 0.70022 0.21799
 C1845 C 0.62749 0.71188 0.21172
 C1846 C 0.62510 0.72357 0.22682
 C1847 C 0.59829 0.72217 0.22282
 C1848 C 0.61222 0.73385 0.21655
 C1849 C 0.60072 0.71048 0.20772
 C1850 C 0.61488 0.72206 0.20137
 C1851 C 0.64351 0.70584 0.20523
 C1852 C 0.65646 0.70057 0.19962
 C1853 C 0.58178 0.72758 0.22858
 C1854 C 0.56793 0.73169 0.23285
 H1855 H 0.60906 0.70791 0.24633
 H1856 H 0.61426 0.68632 0.21851
 H1857 H 0.63532 0.72888 0.23459
 H1858 H 0.61149 0.74774 0.21603
 H1859 H 0.59052 0.70515 0.19993
 H1860 H 0.61669 0.72614 0.18821
 C1861 C 0.10216 0.71918 0.70484
 C1862 C 0.11891 0.72879 0.70644
 C1863 C 0.12737 0.71249 0.71223
 C1864 C 0.11085 0.70282 0.71055
 C1865 C 0.09833 0.72330 0.72323
 C1866 C 0.10680 0.70701 0.72901
 C1867 C 0.11483 0.73301 0.72493
 C1868 C 0.12357 0.71661 0.73062
 C1869 C 0.14332 0.70617 0.70581
 C1870 C 0.15619 0.70067 0.70025
 C1871 C 0.08189 0.72897 0.72897
 C1872 C 0.06810 0.73323 0.73327
 H1873 H 0.09318 0.72030 0.69431
 H1874 H 0.12407 0.73767 0.69708
 H1875 H 0.10937 0.69034 0.70457
 H1876 H 0.10163 0.69812 0.73836
 H1877 H 0.11628 0.74549 0.73091
 H1878 H 0.13257 0.71547 0.74114
 C1879 C 0.63596 0.22820 0.52255
 C1880 C 0.62939 0.21002 0.52050
 C1881 C 0.62385 0.21020 0.53890
 C1882 C 0.63015 0.22828 0.54105
 C1883 C 0.65293 0.22116 0.52817
 C1884 C 0.64738 0.22133 0.54657
 C1885 C 0.64662 0.20309 0.52603
 C1886 C 0.64083 0.20318 0.54451
 C1887 C 0.60782 0.20389 0.54509
 C1888 C 0.59481 0.19847 0.55040
 C1889 C 0.66929 0.22702 0.52242
 C1890 C 0.68293 0.23158 0.51795
 H1891 H 0.63414 0.23856 0.51345
 H1892 H 0.62181 0.20530 0.50986
 H1893 H 0.62319 0.23856 0.54730
 H1894 H 0.65496 0.22605 0.55722
 H1895 H 0.65358 0.19279 0.51979
 H1896 H 0.64267 0.19282 0.55360
 C1897 C 0.63572 0.72815 0.02165
 C1898 C 0.62926 0.70987 0.02029
 C1899 C 0.62344 0.71082 0.03858
 C1900 C 0.62963 0.72900 0.04004
 C1901 C 0.65264 0.72144 0.02782
 C1902 C 0.64681 0.72239 0.04610
 C1903 C 0.64644 0.70326 0.02637
 C1904 C 0.64038 0.70413 0.04474
 C1905 C 0.60733 0.70471 0.04478
 C1906 C 0.59424 0.69946 0.05008
 C1907 C 0.66905 0.72718 0.02206
 C1908 C 0.68271 0.73170 0.01760
 H1909 H 0.63400 0.73810 0.01208
 H1910 H 0.62186 0.70465 0.00975
 H1911 H 0.62254 0.73952 0.04573
 H1912 H 0.65421 0.72760 0.05665
 H1913 H 0.65353 0.69274 0.02069
 H1914 H 0.64212 0.69419 0.05430
 C1915 C 0.10891 0.04289 0.01962
 C1916 C 0.11257 0.04922 0.03757
 C1917 C 0.12858 0.03859 0.03783
 C1918 C 0.12519 0.03234 0.01996
 C1919 C 0.09938 0.02792 0.02706
 C1920 C 0.11537 0.01726 0.02730
 C1921 C 0.10281 0.03418 0.04492
 C1922 C 0.11905 0.02363 0.04526
 C1923 C 0.14461 0.04483 0.04416
 C1924 C 0.15756 0.05023 0.04969
 C1925 C 0.08285 0.02234 0.02145
 C1926 C 0.06899 0.01815 0.01726
 H1927 H 0.10456 0.05074 0.00901
 H1928 H 0.11158 0.06243 0.04186
 H1929 H 0.13458 0.03166 0.00977
 H1930 H 0.11633 0.00406 0.02301
 H1931 H 0.09343 0.03488 0.05512
 H1932 H 0.12339 0.01578 0.05588
 C1933 C 0.10287 0.52681 0.54642
 C1934 C 0.12005 0.52134 0.53937
 C1935 C 0.12558 0.53979 0.53923
 C1936 C 0.10863 0.54534 0.54637
 C1937 C 0.09642 0.52901 0.52844
 C1938 C 0.10195 0.54746 0.52831
 C1939 C 0.11335 0.52344 0.52128
 C1940 C 0.11914 0.54200 0.52125
 C1941 C 0.14164 0.54601 0.54549
 C1942 C 0.15467 0.55133 0.55089
 C1943 C 0.08001 0.52325 0.52269
 C1944 C 0.06631 0.51879 0.51827
 H1945 H 0.09599 0.52051 0.55670
 H1946 H 0.12768 0.51067 0.54399
 H1947 H 0.10686 0.55442 0.55676
 H1948 H 0.09433 0.55814 0.52370
 H1949 H 0.11510 0.51436 0.51089
 H1950 H 0.12602 0.54831 0.51097
 C1951 C 0.60617 0.02336 0.54506
 C1952 C 0.62300 0.02184 0.53558
 C1953 C 0.62660 0.04036 0.53949
 C1954 C 0.61003 0.04197 0.54906
 C1955 C 0.59771 0.02888 0.52870
 C1956 C 0.60133 0.04739 0.53262
 C1957 C 0.61427 0.02726 0.51912
 C1958 C 0.61814 0.04588 0.52314
 C1959 C 0.64255 0.04692 0.54572
 C1960 C 0.65550 0.05248 0.55107
 C1961 C 0.58145 0.02272 0.52290
 C1962 C 0.56789 0.01795 0.51837
 H1963 H 0.60108 0.01403 0.55401
 H1964 H 0.63210 0.01140 0.53687
 H1965 H 0.60845 0.04808 0.56143
 H1966 H 0.59224 0.05783 0.53134
 H1967 H 0.61583 0.02114 0.50674
 H1968 H 0.62323 0.05522 0.51419
 C1969 C 0.60813 0.54265 0.01963
 C1970 C 0.61204 0.54811 0.03781
 C1971 C 0.62837 0.53798 0.03711
 C1972 C 0.62471 0.53261 0.01901
 C1973 C 0.59923 0.52701 0.02645
 C1974 C 0.61553 0.51686 0.02574
 C1975 C 0.60291 0.53239 0.04454
 C1976 C 0.61946 0.52235 0.04393
 C1977 C 0.64436 0.54439 0.04336
 C1978 C 0.65728 0.54994 0.04880
 C1979 C 0.58275 0.52127 0.02087
 C1980 C 0.56893 0.51697 0.01667
 H1981 H 0.60329 0.55094 0.00957
 H1982 H 0.61077 0.56102 0.04284
 H1983 H 0.63386 0.53278 0.00858
 H1984 H 0.61678 0.50395 0.02070
 H1985 H 0.59378 0.53224 0.05499
 H1986 H 0.62430 0.51407 0.05400
 C1987 C 0.01738 0.02607 0.11562
 C1988 C 0.03299 0.01931 0.12498
 C1989 C 0.03813 0.03744 0.12897
 C1990 C 0.02263 0.04429 0.11989
 C1991 C 0.02774 0.02710 0.09949
 C1992 C 0.03290 0.04522 0.10351
 C1993 C 0.04325 0.02025 0.10856
 C1994 C 0.04847 0.03846 0.11281
 C1995 C 0.04420 0.04353 0.14516
 C1996 C 0.04947 0.04885 0.15826
 C1997 C 0.02226 0.02171 0.08284
 C1998 C 0.01808 0.01768 0.06893
 H1999 H 0.00453 0.02091 0.11658
 H2000 H 0.03309 0.00873 0.13400
 H2001 H 0.01422 0.05424 0.12473
 H2002 H 0.03281 0.05582 0.09450
 H2003 H 0.05166 0.01031 0.10372
 H2004 H 0.06133 0.04362 0.11183
 C2005 C 0.02204 0.52238 0.61422
 C2006 C 0.04039 0.52146 0.62041
 C2007 C 0.03899 0.53964 0.62663
 C2008 C 0.02074 0.54066 0.62070
 C2009 C 0.02829 0.52909 0.59733
 C2010 C 0.02689 0.54727 0.60355
 C2011 C 0.04653 0.52807 0.60326
 C2012 C 0.04522 0.54633 0.60972
 C2013 C 0.04513 0.54572 0.64280
 C2014 C 0.05037 0.55096 0.65594
 C2015 C 0.02252 0.52342 0.58087
 C2016 C 0.01800 0.51900 0.56718
 H2017 H 0.01244 0.51247 0.61588
 H2018 H 0.04601 0.51092 0.62753
 H2019 H 0.01021 0.54591 0.62806
 H2020 H 0.02128 0.55782 0.59644
 H2021 H 0.05708 0.52283 0.59590
 H2022 H 0.05482 0.55624 0.60804
 C2023 C 0.54747 0.03310 0.60080
 C2024 C 0.53997 0.04829 0.61025
 C2025 C 0.53993 0.03788 0.62642
 C2026 C 0.54752 0.02278 0.61721
 C2027 C 0.52968 0.02681 0.59715
 C2028 C 0.52963 0.01638 0.61331
 C2029 C 0.52210 0.04192 0.60636
 C2030 C 0.52214 0.03159 0.62279
 C2031 C 0.54586 0.04427 0.64255
 C2032 C 0.55099 0.04974 0.65565
 C2033 C 0.52417 0.02093 0.58068
 C2034 C 0.51984 0.01643 0.56695
 H2035 H 0.55783 0.03366 0.59158
 H2036 H 0.54428 0.06148 0.60915
 H2037 H 0.55804 0.01498 0.62186
 H2038 H 0.52532 0.00320 0.61438
 H2039 H 0.51158 0.04972 0.60171
 H2040 H 0.51179 0.03105 0.63201
 C2041 C 0.51714 0.52461 0.11482
 C2042 C 0.53276 0.51794 0.12423
 C2043 C 0.53784 0.53610 0.12816
 C2044 C 0.52234 0.54287 0.11903
 C2045 C 0.52754 0.52561 0.09870
 C2046 C 0.53263 0.54376 0.10266
 C2047 C 0.54304 0.51885 0.10783
 C2048 C 0.54821 0.53709 0.11202
 C2049 C 0.54387 0.54226 0.14435
 C2050 C 0.54911 0.54765 0.15743
 C2051 C 0.52212 0.52014 0.08206
 C2052 C 0.51801 0.51605 0.06814
 H2053 H 0.50431 0.51941 0.11578
 H2054 H 0.53288 0.50739 0.13329
 H2055 H 0.51389 0.55281 0.12382
 H2056 H 0.53252 0.55433 0.09362
 H2057 H 0.55150 0.50891 0.10304
 H2058 H 0.56105 0.54228 0.11103
 C2059 C 0.23149 0.52646 0.63534
 C2060 C 0.21563 0.51998 0.62619
 C2061 C 0.21051 0.53822 0.62271
 C2062 C 0.22625 0.54479 0.63157
 C2063 C 0.22149 0.52721 0.65172
 C2064 C 0.21635 0.54544 0.64820
 C2065 C 0.20574 0.52064 0.64285
 C2066 C 0.20053 0.53896 0.63911
 C2067 C 0.20411 0.54468 0.60679
 C2068 C 0.19859 0.55032 0.59394
 C2069 C 0.22727 0.52149 0.66814
 C2070 C 0.23164 0.51723 0.68193
 H2071 H 0.24428 0.52125 0.63398
 H2072 H 0.21526 0.50959 0.61696
 H2073 H 0.23460 0.55480 0.62676
 H2074 H 0.21671 0.55584 0.65742
 H2075 H 0.19738 0.51064 0.64767
 H2076 H 0.18774 0.54417 0.64049
 C2077 C 0.23245 0.02540 0.13481
 C2078 C 0.21670 0.01895 0.12547
 C2079 C 0.21166 0.03719 0.12189
 C2080 C 0.22730 0.04374 0.13096
 C2081 C 0.22224 0.02619 0.15106
 C2082 C 0.21719 0.04442 0.14745
 C2083 C 0.20660 0.01964 0.14200
 C2084 C 0.20148 0.03797 0.13816
 C2085 C 0.20548 0.04365 0.10589
 C2086 C 0.20011 0.04926 0.09296
 C2087 C 0.22781 0.02048 0.16757
 C2088 C 0.23204 0.01626 0.18141
 H2089 H 0.24525 0.02016 0.13363
 H2090 H 0.21642 0.00854 0.11624
 H2091 H 0.23574 0.05372 0.12624
 H2092 H 0.21745 0.05484 0.15666
 H2093 H 0.19815 0.00967 0.14672
 H2094 H 0.18868 0.04321 0.13938
 C2095 C 0.72123 0.20419 0.60250
 C2096 C 0.72845 0.20968 0.61964
 C2097 C 0.71054 0.21184 0.62623
 C2098 C 0.70325 0.20626 0.60932
 C2099 C 0.72099 0.22264 0.59696
 C2100 C 0.70309 0.22479 0.60355
 C2101 C 0.72831 0.22823 0.61385
 C2102 C 0.71030 0.23029 0.62071
 C2103 C 0.70452 0.20557 0.64236
 C2104 C 0.69936 0.20016 0.65545
 C2105 C 0.72661 0.22838 0.58050
 C2106 C 0.73101 0.23278 0.56677
 H2107 H 0.72578 0.19352 0.59483
 H2108 H 0.73881 0.20339 0.62643
 H2109 H 0.69288 0.19716 0.60763
 H2110 H 0.69272 0.23107 0.59676
 H2111 H 0.73867 0.23734 0.61552
 H2112 H 0.70573 0.24095 0.62838
 C2113 C 0.72184 0.73299 0.11302
 C2114 C 0.70361 0.72790 0.11716
 C2115 C 0.71022 0.71214 0.12601
 C2116 C 0.72836 0.71712 0.12214
 C2117 C 0.72071 0.72283 0.09672
 C2118 C 0.72731 0.70707 0.10557
 C2119 C 0.70257 0.71785 0.10060
 C2120 C 0.70909 0.70200 0.10970
 C2121 C 0.70419 0.70594 0.14217
 C2122 C 0.69904 0.70059 0.15528
 C2123 C 0.72634 0.72854 0.08024
 C2124 C 0.73074 0.73295 0.06652
 H2125 H 0.72716 0.74580 0.11420
 H2126 H 0.69379 0.73640 0.12210
 H2127 H 0.73890 0.71675 0.13118
 H2128 H 0.73712 0.69857 0.10063
 H2129 H 0.69202 0.71821 0.09157
 H2130 H 0.70378 0.68919 0.10850
 C2131 C 0.54489 0.71533 0.14795
 C2132 C 0.53719 0.70079 0.13769
 C2133 C 0.53826 0.71171 0.12190
 C2134 C 0.54606 0.72617 0.13193
 C2135 C 0.52723 0.72224 0.15105
 C2136 C 0.52829 0.73318 0.13528
 C2137 C 0.51944 0.70777 0.14102
 C2138 C 0.52060 0.71861 0.12497
 C2139 C 0.54468 0.70552 0.10589
 C2140 C 0.55020 0.70009 0.09295
 C2141 C 0.52145 0.72774 0.16755
 C2142 C 0.51709 0.73187 0.18137
 H2143 H 0.55482 0.71404 0.15758
 H2144 H 0.54092 0.68741 0.13852
 H2145 H 0.55707 0.73367 0.12801
 H2146 H 0.52456 0.74657 0.13448
 H2147 H 0.50843 0.70027 0.14494
 H2148 H 0.51068 0.71989 0.11532
 C2149 C 0.04547 0.71732 0.64885
 C2150 C 0.03820 0.70216 0.63919
 C2151 C 0.03872 0.71254 0.62301
 C2152 C 0.04610 0.72762 0.63244
 C2153 C 0.02761 0.72371 0.65190
 C2154 C 0.02813 0.73411 0.63573
 C2155 C 0.02025 0.70862 0.64247
 C2156 C 0.02086 0.71892 0.62603
 C2157 C 0.04519 0.70599 0.60716
 C2158 C 0.05077 0.70029 0.59436
 C2159 C 0.02179 0.72953 0.66827
 C2160 C 0.01742 0.73386 0.68203
 H2161 H 0.05554 0.71673 0.65840
 H2162 H 0.04241 0.68896 0.64046
 H2163 H 0.05680 0.73535 0.62814
 H2164 H 0.02391 0.74732 0.63450
 H2165 H 0.00955 0.70088 0.64677
 H2166 H 0.01081 0.71949 0.61646
 C2167 C 0.54376 0.64660 0.21537
 C2168 C 0.54517 0.63069 0.22636
 C2169 C 0.53693 0.62048 0.21229
 C2170 C 0.53560 0.63617 0.20122
 C2171 C 0.52632 0.64990 0.22271
 C2172 C 0.51807 0.63969 0.20864
 C2173 C 0.52764 0.63422 0.23380
 C2174 C 0.51948 0.62373 0.21963
 C2175 C 0.54315 0.60432 0.20619
 C2176 C 0.54859 0.59127 0.20089
 C2177 C 0.52077 0.66652 0.22818
 C2178 C 0.51660 0.68043 0.23231
 H2179 H 0.55368 0.65618 0.21367
 H2180 H 0.55639 0.62680 0.23358
 H2181 H 0.53894 0.63680 0.18776
 H2182 H 0.50687 0.64358 0.20141
 H2183 H 0.52430 0.63361 0.24727
 H2184 H 0.50957 0.61414 0.22131
 C2185 C 0.04195 0.64265 0.72998
 C2186 C 0.03165 0.62619 0.72988
 C2187 C 0.03761 0.62280 0.71193
 C2188 C 0.04799 0.63901 0.71195
 C2189 C 0.02677 0.65199 0.72275
 C2190 C 0.03274 0.64857 0.70481
 C2191 C 0.01636 0.63580 0.72275
 C2192 C 0.02243 0.63214 0.70470
 C2193 C 0.04396 0.60678 0.70561
 C2194 C 0.04947 0.59383 0.70014
 C2195 C 0.02112 0.66850 0.72845
 C2196 C 0.01691 0.68235 0.73276
 H2197 H 0.04990 0.64716 0.74044
 H2198 H 0.03127 0.61679 0.74012
 H2199 H 0.06106 0.64017 0.70744
 H2200 H 0.03313 0.65796 0.69456
 H2201 H 0.00329 0.63467 0.72726
 H2202 H 0.01448 0.62763 0.69423
 C2203 C 0.03582 0.10279 0.04516
 C2204 C 0.04953 0.11344 0.03661
 C2205 C 0.03846 0.12905 0.03870
 C2206 C 0.02483 0.11862 0.04735
 C2207 C 0.02772 0.09978 0.02798
 C2208 C 0.01664 0.11537 0.03007
 C2209 C 0.04135 0.11020 0.01933
 C2210 C 0.03037 0.12608 0.02151
 C2211 C 0.04475 0.14512 0.04496
 C2212 C 0.05022 0.15811 0.05040
 C2213 C 0.02209 0.08323 0.02236
 C2214 C 0.01784 0.06937 0.01813
 H2215 H 0.03800 0.09303 0.05483
 H2216 H 0.06312 0.11282 0.03936
 H2217 H 0.01811 0.12226 0.05894
 H2218 H 0.00305 0.11597 0.02731
 H2219 H 0.04808 0.10656 0.00775
 H2220 H 0.02821 0.13585 0.01186
 C2221 C 0.02079 0.61495 0.52373
 C2222 C 0.02079 0.62080 0.54223
 C2223 C 0.03888 0.62691 0.54011
 C2224 C 0.03899 0.62133 0.52171
 C2225 C 0.02761 0.59785 0.52935
 C2226 C 0.04570 0.60397 0.52724
 C2227 C 0.02751 0.60344 0.54775
 C2228 C 0.04568 0.60980 0.54571
 C2229 C 0.04537 0.64293 0.54631
 C2230 C 0.05093 0.65593 0.55164
 C2231 C 0.02163 0.58147 0.52358
 C2232 C 0.01704 0.56780 0.51909
 H2233 H 0.01048 0.61688 0.51462
 H2234 H 0.01062 0.62791 0.54847
 H2235 H 0.04378 0.62887 0.51107
 H2236 H 0.05588 0.59687 0.52101
 H2237 H 0.02273 0.59590 0.55839
 H2238 H 0.05599 0.60784 0.55482
 C2239 C 0.54596 0.09914 0.53697
 C2240 C 0.54904 0.11469 0.52579
 C2241 C 0.53991 0.12559 0.53873
 C2242 C 0.53691 0.11027 0.54999
 C2243 C 0.52918 0.09631 0.52802
 C2244 C 0.52005 0.10720 0.54097
 C2245 C 0.53217 0.11161 0.51674
 C2246 C 0.52313 0.12278 0.52979
 C2247 C 0.54611 0.14171 0.54493
 C2248 C 0.55145 0.15479 0.55027
 C2249 C 0.52347 0.07983 0.52232
 C2250 C 0.51907 0.06607 0.51791
 H2251 H 0.55528 0.08924 0.53985
 H2252 H 0.56104 0.11795 0.51962
 H2253 H 0.53893 0.10989 0.56373
 H2254 H 0.50806 0.10394 0.54714
 H2255 H 0.53015 0.11197 0.50300
 H2256 H 0.51382 0.13269 0.52691
 C2257 C 0.52642 0.61462 0.01699
 C2258 C 0.52013 0.62374 0.03293
 C2259 C 0.53835 0.62749 0.03775
 C2260 C 0.54474 0.61865 0.02192
 C2261 C 0.52756 0.59824 0.02703
 C2262 C 0.54577 0.60202 0.03186
 C2263 C 0.52118 0.60707 0.04287
 C2264 C 0.53948 0.61109 0.04777
 C2265 C 0.54467 0.64354 0.04402
 C2266 C 0.55017 0.65651 0.04947
 C2267 C 0.52193 0.58169 0.02140
 C2268 C 0.51774 0.56783 0.01713
 H2269 H 0.52098 0.61588 0.00427
 H2270 H 0.50967 0.63286 0.03345
 H2271 H 0.55450 0.62359 0.01338
 H2272 H 0.55626 0.59291 0.03136
 H2273 H 0.51142 0.60213 0.05142
 H2274 H 0.54491 0.60980 0.06049
 C2275 C 0.72368 0.14626 0.54611
 C2276 C 0.70504 0.14106 0.54687
 C2277 C 0.70968 0.12399 0.53925
 C2278 C 0.72823 0.12895 0.53858
 C2279 C 0.72083 0.15303 0.52834
 C2280 C 0.72547 0.13597 0.52070
 C2281 C 0.70228 0.14806 0.52902
 C2282 C 0.70682 0.13075 0.52148
 C2283 C 0.70327 0.10799 0.54555
 C2284 C 0.69780 0.09499 0.55097
 C2285 C 0.72678 0.16939 0.52250
 C2286 C 0.73136 0.18305 0.51799
 H2287 H 0.73067 0.15282 0.55617
 H2288 H 0.69658 0.14299 0.55769
 H2289 H 0.73882 0.12090 0.54259
 H2290 H 0.73394 0.13407 0.50987
 H2291 H 0.69167 0.15610 0.52502
 H2292 H 0.69981 0.12420 0.51142
 C2293 C 0.72839 0.64409 0.04309
 C2294 C 0.71015 0.63990 0.04806
 C2295 C 0.71135 0.62356 0.03795
 C2296 C 0.72950 0.62749 0.03306
 C2297 C 0.72182 0.65296 0.02734
 C2298 C 0.72302 0.63663 0.01720
 C2299 C 0.70367 0.64901 0.03223
 C2300 C 0.70477 0.63243 0.02220
 C2301 C 0.70528 0.60736 0.04409
 C2302 C 0.70006 0.59421 0.04937
 C2303 C 0.72741 0.66951 0.02169
 C2304 C 0.73173 0.68330 0.01733
 H2305 H 0.73816 0.64907 0.05163
 H2306 H 0.70480 0.64108 0.06082
 H2307 H 0.74005 0.61846 0.03348
 H2308 H 0.72837 0.63548 0.00445
 H2309 H 0.69311 0.65803 0.03183
 H2310 H 0.69499 0.62745 0.01367
 C2311 C 0.22984 0.60850 0.70789
 C2312 C 0.21193 0.61201 0.70140
 C2313 C 0.21148 0.62810 0.71197
 C2314 C 0.22930 0.62485 0.71838
 C2315 C 0.22235 0.59892 0.72278
 C2316 C 0.22191 0.61499 0.73337
 C2317 C 0.20453 0.60220 0.71636
 C2318 C 0.20399 0.61852 0.72685
 C2319 C 0.20513 0.64412 0.70565
 C2320 C 0.19962 0.65706 0.70016
 C2321 C 0.22804 0.58241 0.72843
 C2322 C 0.23231 0.56856 0.73268
 H2323 H 0.24053 0.60420 0.70016
 H2324 H 0.20776 0.61095 0.68819
 H2325 H 0.23941 0.63436 0.71913
 H2326 H 0.22608 0.61602 0.74658
 H2327 H 0.19440 0.59271 0.71559
 H2328 H 0.19328 0.62281 0.73458
 C2329 C 0.23016 0.10792 0.20731
 C2330 C 0.21217 0.11175 0.20125
 C2331 C 0.21228 0.12788 0.21177
 C2332 C 0.23019 0.12432 0.21775
 C2333 C 0.22286 0.09853 0.22241
 C2334 C 0.22298 0.11464 0.23295
 C2335 C 0.20496 0.10213 0.21642
 C2336 C 0.20498 0.11849 0.22686
 C2337 C 0.20607 0.14399 0.20555
 C2338 C 0.20065 0.15701 0.20016
 C2339 C 0.22838 0.08195 0.22801
 C2340 C 0.23252 0.06806 0.23225
 H2341 H 0.24058 0.10340 0.19934
 H2342 H 0.20766 0.11073 0.18815
 H2343 H 0.24049 0.13363 0.21822
 H2344 H 0.22749 0.11564 0.24606
 H2345 H 0.19464 0.09283 0.21593
 H2346 H 0.19455 0.12301 0.23483
 C2347 C 0.72990 1.10864 0.70587
 C2348 C 0.71174 1.11238 0.70030
 C2349 C 0.71218 1.12869 0.71054
 C2350 C 0.73026 1.12521 0.71602
 C2351 C 0.72308 1.09951 0.72134
 C2352 C 0.72353 1.11581 0.73160
 C2353 C 0.70500 1.10302 0.71586
 C2354 C 0.70535 1.11956 0.72601
 C2355 C 0.70577 1.14470 0.70426
 C2356 C 0.70018 1.15764 0.69883
 C2357 C 0.72875 1.08302 0.72705
 C2358 C 0.73299 1.06919 0.73139
 H2359 H 0.74007 1.10397 0.69765
 H2360 H 0.70682 1.11113 0.68737
 H2361 H 0.74058 1.13452 0.71600
 H2362 H 0.72845 1.11702 0.74454
 H2363 H 0.69467 1.09373 0.71585
 H2364 H 0.69518 1.12422 0.73422
 C2365 C 0.70522 0.60572 0.22390
 C2366 C 0.71220 0.62300 0.22936
 C2367 C 0.71232 0.62851 0.21094
 C2368 C 0.70525 0.61147 0.20541
 C2369 C 0.72321 0.59933 0.22174
 C2370 C 0.72331 0.60486 0.20333
 C2371 C 0.73030 0.61635 0.22729
 C2372 C 0.73031 0.62214 0.20876
 C2373 C 0.70593 0.64453 0.20465
 C2374 C 0.70035 0.65746 0.19921
 C2375 C 0.72890 0.58283 0.22741
 C2376 C 0.73317 0.56899 0.23167
 H2377 H 0.69496 0.59879 0.23019
 H2378 H 0.70756 0.63065 0.23999
 H2379 H 0.69488 0.60962 0.19635
 H2380 H 0.72794 0.59722 0.19268
 H2381 H 0.74067 0.61817 0.23635
 H2382 H 0.74055 0.62908 0.20246
 C2383 C 0.54185 0.14026 0.72869
 C2384 C 0.53147 0.12385 0.72816
 C2385 C 0.53778 0.12067 0.71029
 C2386 C 0.54823 0.13682 0.71073
 C2387 C 0.52686 0.14977 0.72128
 C2388 C 0.53318 0.14656 0.70342
 C2389 C 0.51638 0.13363 0.72085
 C2390 C 0.52279 0.13017 0.70288
 C2391 C 0.54419 0.10470 0.70390
 C2392 C 0.54978 0.09179 0.69841
 C2393 C 0.52116 0.16623 0.72706
 C2394 C 0.51689 0.18005 0.73142
 H2395 H 0.54962 0.14459 0.73937
 H2396 H 0.53085 0.11432 0.73827
 H2397 H 0.56140 0.13798 0.70650
 H2398 H 0.53382 0.15607 0.69330
 H2399 H 0.50322 0.13251 0.72509
 H2400 H 0.51503 0.12585 0.69219
 C2401 C 1.03306 0.14711 0.20489
 C2402 C 1.04811 0.13739 0.21223
 C2403 C 1.03747 0.12135 0.21235
 C2404 C 1.02249 0.13084 0.20491
 C2405 C 1.02705 0.15084 0.22275
 C2406 C 1.01637 0.13483 0.22288
 C2407 C 1.04202 0.14135 0.23019
 C2408 C 1.03146 0.12505 0.23022
 C2409 C 1.04358 0.10515 0.20627
 C2410 C 1.04891 0.09205 0.20098
 C2411 C 1.02161 0.16749 0.22824
 C2412 C 1.01753 0.18142 0.23243
 H2413 H 1.03366 0.15636 0.19452
 H2414 H 1.06123 0.13827 0.20779
 H2415 H 1.01453 0.12634 0.19445
 H2416 H 1.00326 0.13397 0.22733
 H2417 H 1.05000 0.14585 0.24064
 H2418 H 1.03087 0.11579 0.24057
 C2419 C 0.20584 0.64408 0.52244
 C2420 C 0.21564 0.62733 0.52163
 C2421 C 0.21045 0.62366 0.53976
 C2422 C 0.20056 0.64015 0.54065
 C2423 C 0.22161 0.65279 0.52915
 C2424 C 0.21641 0.64910 0.54727
 C2425 C 0.23152 0.63631 0.52824
 C2426 C 0.22622 0.63237 0.54647
 C2427 C 0.20400 0.60761 0.54589
 C2428 C 0.19847 0.59459 0.55118
 C2429 C 0.22754 0.66920 0.52346
 C2430 C 0.23208 0.68290 0.51904
 H2431 H 0.19752 0.64908 0.51249
 H2432 H 0.21524 0.61820 0.51115
 H2433 H 0.18776 0.64156 0.54582
 H2434 H 0.21680 0.65822 0.55776
 H2435 H 0.24432 0.63493 0.52308
 H2436 H 0.23452 0.62737 0.55643
 C2437 C 0.20722 0.14312 1.02138
 C2438 C 0.21769 0.12676 1.02153
 C2439 C 0.21144 0.12316 1.03934
 C2440 C 0.20088 0.13926 1.03927
 C2441 C 0.22216 0.15256 1.02897
 C2442 C 0.21590 0.14894 1.04677
 C2443 C 0.23273 0.13647 1.02903
 C2444 C 0.22637 0.13260 1.04693
 C2445 C 0.20523 0.10695 1.04532
 C2446 C 0.19989 0.09380 1.05045
 C2447 C 0.22788 0.16908 1.02340
 C2448 C 0.23231 0.18285 1.01904
 H2449 H 0.19941 0.14762 1.01081
 H2450 H 0.21836 0.11746 1.01122
 H2451 H 0.18772 0.14024 1.04354
 H2452 H 0.21523 0.15824 1.05709
 H2453 H 0.24590 0.13552 1.02476
 H2454 H 0.23418 0.12810 1.05751
 C2455 C 0.22248 0.70356 0.60371
 C2456 C 0.22844 0.71037 0.62086
 C2457 C 0.21014 0.71116 0.62664
 C2458 C 0.20411 0.70426 0.60973
 C2459 C 0.22084 0.72167 0.59736
 C2460 C 0.20255 0.72245 0.60315
 C2461 C 0.22689 0.72859 0.61426
 C2462 C 0.20850 0.72927 0.62031
 C2463 C 0.20400 0.70509 0.64280
 C2464 C 0.19876 0.69987 0.65593
 C2465 C 0.22661 0.72733 0.58092
 C2466 C 0.23112 0.73175 0.56724
 H2467 H 0.22829 0.69305 0.59670
 H2468 H 0.23901 0.70534 0.62833
 H2469 H 0.19467 0.69419 0.60803
 H2470 H 0.19197 0.72747 0.59568
 H2471 H 0.23633 0.73866 0.61594
 H2472 H 0.20267 0.73977 0.62732
 C2473 C 0.20331 0.21738 1.10154
 C2474 C 0.20950 0.20134 1.11052
 C2475 C 0.21104 0.21139 1.12685
 C2476 C 0.20477 0.22735 1.11811
 C2477 C 0.22153 0.22190 1.09750
 C2478 C 0.22309 0.23197 1.11382
 C2479 C 0.22781 0.20594 1.10624
 C2480 C 0.22927 0.21590 1.12283
 C2481 C 0.20501 0.20530 1.14304
 C2482 C 0.19984 0.20006 1.15619
 C2483 C 0.22718 0.22753 1.08101
 C2484 C 0.23162 0.23191 1.06730
 H2485 H 0.19270 0.21805 1.09260
 H2486 H 0.20384 0.18868 1.10933
 H2487 H 0.19522 0.23608 1.12318
 H2488 H 0.22875 0.24463 1.11499
 H2489 H 0.23734 0.19720 1.10117
 H2490 H 0.23988 0.21522 1.13177
 C2491 C 0.70723 0.52107 0.14170
 C2492 C 0.70233 0.53942 0.13770
 C2493 C 0.71237 0.53832 0.12136
 C2494 C 0.71718 0.52005 0.12510
 C2495 C 0.72303 0.52750 0.15056
 C2496 C 0.73310 0.52638 0.13424
 C2497 C 0.71821 0.54576 0.14679
 C2498 C 0.72817 0.54475 0.13022
 C2499 C 0.70613 0.54464 0.10532
 C2500 C 0.70070 0.55012 0.09236
 C2501 C 0.72865 0.52186 0.16708
 C2502 C 0.73290 0.51765 0.18092
 H2503 H 0.69868 0.51127 0.14660
 H2504 H 0.68962 0.54485 0.13896
 H2505 H 0.71669 0.50954 0.11599
 H2506 H 0.74581 0.52095 0.13301
 H2507 H 0.71869 0.55628 0.15588
 H2508 H 0.73671 0.55456 0.12532
 C2509 C 0.72986 1.02311 0.63360
 C2510 C 0.71188 1.02051 0.62680
 C2511 C 0.71128 1.03914 0.62190
 C2512 C 0.72915 1.04184 0.62843
 C2513 C 0.72249 1.02782 0.65071
 C2514 C 0.72188 1.04644 0.64579
 C2515 C 0.70462 1.02513 0.64417
 C2516 C 0.70394 1.04382 0.63902
 C2517 C 0.70472 1.04575 0.60610
 C2518 C 0.69903 1.05145 0.59335
 C2519 C 0.72835 1.02194 0.66706
 C2520 C 0.73274 1.01759 0.68081
 H2521 H 0.74059 1.01452 0.63156
 H2522 H 0.70768 1.00993 0.61880
 H2523 H 0.73916 1.04880 0.62178
 H2524 H 0.72606 1.05704 0.65377
 H2525 H 0.69460 1.01818 0.65081
 H2526 H 0.69321 1.05241 0.64110
 C2527 C 0.54441 0.21319 0.64823
 C2528 C 0.53572 0.19979 0.63725
 C2529 C 0.53855 0.21095 0.62184
 C2530 C 0.54734 0.22427 0.63260
 C2531 C 0.52743 0.22180 0.65084
 C2532 C 0.53025 0.23298 0.63546
 C2533 C 0.51864 0.20847 0.64009
 C2534 C 0.52156 0.21955 0.62442
 C2535 C 0.54503 0.20457 0.60594
 C2536 C 0.55065 0.19901 0.59311
 C2537 C 0.52161 0.22744 0.66727
 C2538 C 0.51723 0.23162 0.68107
 H2539 H 0.55375 0.21064 0.65819
 H2540 H 0.53803 0.18608 0.63782
 H2541 H 0.55921 0.23069 0.62934
 H2542 H 0.52793 0.24670 0.63491
 H2543 H 0.50677 0.20205 0.64335
 H2544 H 0.51224 0.22209 0.61444
 C2545 C 1.01931 0.22718 0.13447
 C2546 C 1.03649 0.23163 0.12667
 C2547 C 1.03891 0.21309 0.12204
 C2548 C 1.02184 0.20854 0.12956
 C2549 C 1.02807 0.22371 0.15123
 C2550 C 1.03050 0.20517 0.14657
 C2551 C 1.04514 0.22825 0.14370
 C2552 C 1.04765 0.20963 0.13882
 C2553 C 1.04524 0.20684 0.10601
 C2554 C 1.05071 0.20138 0.09307
 C2555 C 1.02238 0.22924 0.16775
 C2556 C 1.01810 0.23337 0.18160
 H2557 H 1.00759 0.23446 0.13288
 H2558 H 1.03904 0.24243 0.11830
 H2559 H 1.01233 0.20036 0.12357
 H2560 H 1.02797 0.19435 0.15493
 H2561 H 1.05466 0.23641 0.14970
 H2562 H 1.05936 0.20235 0.14044
 C2563 C 0.60205 0.21645 0.70442
 C2564 C 0.61840 0.22683 0.70492
 C2565 C 0.62768 0.21135 0.71162
 C2566 C 0.61155 0.20091 0.71103
 C2567 C 0.59845 0.22171 0.72256
 C2568 C 0.60773 0.20623 0.72926
 C2569 C 0.61457 0.23218 0.72317
 C2570 C 0.62412 0.21660 0.72977
 C2571 C 0.64373 0.20528 0.70521
 C2572 C 0.65669 0.20000 0.69965
 C2573 C 0.58193 0.22715 0.72827
 C2574 C 0.56807 0.23125 0.73251
 H2575 H 0.59279 0.21645 0.69406
 H2576 H 0.62297 0.23523 0.69484
 H2577 H 0.61047 0.18798 0.70597
 H2578 H 0.60316 0.19783 0.73934
 H2579 H 0.61561 0.24510 0.72823
 H2580 H 0.63339 0.21658 0.74011
 C2581 C 1.10286 0.21785 0.20502
 C2582 C 1.11935 0.22799 0.20582
 C2583 C 1.12836 0.21228 0.21237
 C2584 C 1.11209 0.20207 0.21147
 C2585 C 1.09918 0.22287 0.22321
 C2586 C 1.10818 0.20716 0.22974
 C2587 C 1.11542 0.23311 0.22412
 C2588 C 1.12470 0.21729 0.23056
 C2589 C 1.14436 0.20607 0.20601
 C2590 C 1.15728 0.20064 0.20049
 C2591 C 1.08267 0.22841 0.22886
 C2592 C 1.06884 0.23257 0.23309
 H2593 H 1.09370 0.21814 0.19458
 H2594 H 1.12413 0.23648 0.19592
 H2595 H 1.11089 0.18924 0.20620
 H2596 H 1.10341 0.19867 0.23964
 H2597 H 1.11660 0.24594 0.22939
 H2598 H 1.13388 0.21699 0.24099
 C2599 C 0.13640 0.73167 0.52766
 C2600 C 0.12733 0.71567 0.52139
 C2601 C 0.12372 0.71082 0.53964
 C2602 C 0.13253 0.72672 0.54600
 C2603 C 0.15278 0.72166 0.52869
 C2604 C 0.14915 0.71681 0.54693
 C2605 C 0.14398 0.70576 0.52232
 C2606 C 0.14012 0.70083 0.54065
 C2607 C 0.10771 0.70458 0.54596
 C2608 C 0.09471 0.69923 0.55140
 C2609 C 0.16915 0.72745 0.52286
 C2610 C 0.18282 0.73193 0.51839
 H2611 H 0.13506 0.74442 0.52225
 H2612 H 0.11817 0.71513 0.51096
 H2613 H 0.12765 0.73527 0.55581
 H2614 H 0.15830 0.71734 0.55737
 H2615 H 0.14886 0.69721 0.51252
 H2616 H 0.14148 0.68808 0.54606
 C2617 C 0.14122 0.21075 1.01885
 C2618 C 0.13823 0.20069 1.03515
 C2619 C 0.12349 0.21231 1.03932
 C2620 C 0.12622 0.22228 1.02311
 C2621 C 0.15280 0.22265 1.02858
 C2622 C 0.13807 0.23429 1.03274
 C2623 C 0.15004 0.21267 1.04478
 C2624 C 0.13507 0.22421 1.04904
 C2625 C 0.10734 0.20630 1.04552
 C2626 C 0.09424 0.20109 1.05084
 C2627 C 0.16929 0.22816 1.02285
 C2628 C 0.18304 0.23243 1.01843
 H2629 H 0.14393 0.20527 1.00638
 H2630 H 0.13813 0.18681 1.03622
 H2631 H 0.11623 0.22617 1.01427
 H2632 H 0.13819 0.24817 1.03168
 H2633 H 0.16002 0.20878 1.05363
 H2634 H 0.13237 0.22968 1.06152
 C2635 C 0.64248 0.52028 0.20726
 C2636 C 0.62601 0.51889 0.21736
 C2637 C 0.62180 0.53706 0.21253
 C2638 C 0.63802 0.53851 0.20235
 C2639 C 0.65132 0.52695 0.22299
 C2640 C 0.64709 0.54510 0.21815
 C2641 C 0.63512 0.52548 0.23319
 C2642 C 0.63064 0.54374 0.22826
 C2643 C 0.60559 0.54299 0.20639
 C2644 C 0.59249 0.54816 0.20103
 C2645 C 0.66798 0.52164 0.22844
 C2646 C 0.68191 0.51761 0.23253
 H2647 H 0.64753 0.51057 0.19868
 H2648 H 0.61715 0.50818 0.21696
 H2649 H 0.63905 0.54394 0.18960
 H2650 H 0.65593 0.55583 0.21853
 H2651 H 0.63413 0.52005 0.24594
 H2652 H 0.62559 0.55345 0.23682
 C2653 C 0.64434 1.02353 0.70455
 C2654 C 0.62730 1.01953 0.71283
 C2655 C 0.62236 1.03806 0.71101
 C2656 C 0.63916 1.04213 0.70264
 C2657 C 0.65159 1.02758 0.72189
 C2658 C 0.64663 1.04611 0.72006
 C2659 C 0.63481 1.02349 0.73029
 C2660 C 0.62960 1.04212 0.72836
 C2661 C 0.60631 1.04419 0.70463
 C2662 C 0.59334 1.04950 0.69909
 C2663 C 0.66811 1.02209 0.72759
 C2664 C 0.68195 1.01796 0.73188
 H2665 H 0.65059 1.01582 0.69482
 H2666 H 0.61916 1.00867 0.70977
 H2667 H 0.64079 1.04986 0.69121
 H2668 H 0.65476 1.05698 0.72310
 H2669 H 0.63322 1.01576 0.74172
 H2670 H 0.62335 1.04984 0.73807
 C2671 C 0.86369 0.47267 0.26930
 C2672 C 0.87265 0.47889 0.28535
 C2673 C 0.87623 0.46058 0.29015
 C2674 C 0.86754 0.45426 0.27420
 C2675 C 0.84725 0.47161 0.27916
 C2676 C 0.85085 0.45331 0.28396
 C2677 C 0.85594 0.47793 0.29511
 C2678 C 0.85978 0.45953 0.29999
 C2679 C 0.89222 0.45424 0.29646
 C2680 C 0.90521 0.44881 0.30186
 C2681 C 0.83094 0.47750 0.27325
 C2682 C 0.81734 0.48207 0.26862
 H2683 H 0.86511 0.47814 0.25661
 H2684 H 0.88180 0.48934 0.28600
 H2685 H 0.87248 0.44446 0.26568
 H2686 H 0.84171 0.44285 0.28332
 H2687 H 0.85099 0.48772 0.30364
 H2688 H 0.85834 0.45406 0.31268
 C2689 C 0.85161 0.97115 0.79820
 C2690 C 0.85886 0.95348 0.79480
 C2691 C 0.87589 0.96150 0.79098
 C2692 C 0.86888 0.97909 0.79448
 C2693 C 0.84712 0.97266 0.77957
 C2694 C 0.86414 0.98070 0.77573
 C2695 C 0.85414 0.95507 0.77608
 C2696 C 0.87142 0.96300 0.77234
 C2697 C 0.89174 0.95504 0.79753
 C2698 C 0.90461 0.94949 0.80310
 C2699 C 0.83089 0.97858 0.77346
 C2700 C 0.81732 0.98312 0.76875
 H2701 H 0.84328 0.97457 0.80877
 H2702 H 0.85685 0.94222 0.80272
 H2703 H 0.87512 0.98889 0.80212
 H2704 H 0.86613 0.99196 0.76781
 H2705 H 0.84790 0.94525 0.76845
 H2706 H 0.87975 0.95957 0.76178
 C2707 C 0.38582 0.27089 0.77321
 C2708 C 0.37985 0.27050 0.79165
 C2709 C 0.37394 0.28874 0.78989
 C2710 C 0.37964 0.28924 0.77155
 C2711 C 0.40289 0.27745 0.77914
 C2712 C 0.39696 0.29569 0.77738
 C2713 C 0.39718 0.27696 0.79748
 C2714 C 0.39101 0.29529 0.79580
 C2715 C 0.35797 0.29524 0.79606
 C2716 C 0.34499 0.30078 0.80135
 C2717 C 0.41918 0.27143 0.77333
 C2718 C 0.43276 0.26682 0.76876
 H2719 H 0.38388 0.26078 0.76385
 H2720 H 0.37263 0.26021 0.79759
 H2721 H 0.37225 0.29436 0.76096
 H2722 H 0.40418 0.30599 0.77146
 H2723 H 0.40457 0.27185 0.80808
 H2724 H 0.39298 0.30540 0.80516
 C2725 C 0.88629 0.27168 0.27268
 C2726 C 0.88006 0.27087 0.29102
 C2727 C 0.87420 0.28917 0.28960
 C2728 C 0.88016 0.29008 0.27136
 C2729 C 0.90328 0.27807 0.27899
 C2730 C 0.89740 0.29636 0.27758
 C2731 C 0.89731 0.27717 0.29723
 C2732 C 0.89120 0.29554 0.29590
 C2733 C 0.85818 0.29558 0.29572
 C2734 C 0.84518 0.30109 0.30097
 C2735 C 0.91965 0.27218 0.27330
 C2736 C 0.93332 0.26768 0.26887
 H2737 H 0.88446 0.26180 0.26306
 H2738 H 0.87274 0.26047 0.29662
 H2739 H 0.87292 0.29546 0.26079
 H2740 H 0.90472 0.30678 0.27199
 H2741 H 0.90455 0.27179 0.30781
 H2742 H 0.89306 0.30542 0.30551
 C2743 C 0.35250 0.79524 0.46770
 C2744 C 0.36915 0.79413 0.47753
 C2745 C 0.37780 0.78766 0.46164
 C2746 C 0.36138 0.78886 0.45173
 C2747 C 0.34867 0.77700 0.47255
 C2748 C 0.35732 0.77053 0.45665
 C2749 C 0.36507 0.77578 0.48249
 C2750 C 0.37400 0.76941 0.46648
 C2751 C 0.39381 0.79390 0.45529
 C2752 C 0.40675 0.79933 0.44979
 C2753 C 0.33219 0.77143 0.47828
 C2754 C 0.31838 0.76726 0.48261
 H2755 H 0.34348 0.80581 0.46826
 H2756 H 0.37419 0.80391 0.48605
 H2757 H 0.36002 0.79430 0.43902
 H2758 H 0.35228 0.76076 0.44813
 H2759 H 0.36640 0.77034 0.49520
 H2760 H 0.38303 0.75886 0.46591
 C2761 C 0.36508 0.26613 0.97208
 C2762 C 0.36861 0.27223 0.95401
 C2763 C 0.37800 0.28743 0.96118
 C2764 C 0.37475 0.28144 0.97916
 C2765 C 0.34897 0.27660 0.97218
 C2766 C 0.35835 0.29180 0.97935
 C2767 C 0.35225 0.28260 0.95422
 C2768 C 0.36186 0.29787 0.96130
 C2769 C 0.39393 0.29378 0.95477
 C2770 C 0.40679 0.29931 0.94920
 C2771 C 0.33253 0.27097 0.97797
 C2772 C 0.31874 0.26680 0.98234
 H2773 H 0.36621 0.25301 0.97658
 H2774 H 0.37301 0.26426 0.94351
 H2775 H 0.38419 0.28104 0.98933
 H2776 H 0.35395 0.29979 0.98984
 H2777 H 0.34282 0.28301 0.94402
 H2778 H 0.36070 0.31099 0.95680
 C2779 C 0.79646 0.46668 0.35065
 C2780 C 0.79612 0.47704 0.36704
 C2781 C 0.78907 0.46169 0.37627
 C2782 C 0.78950 0.45125 0.36011
 C2783 C 0.77845 0.47231 0.34697
 C2784 C 0.77141 0.45696 0.35619
 C2785 C 0.77802 0.48276 0.36311
 C2786 C 0.77107 0.46731 0.37261
 C2787 C 0.79522 0.45556 0.39242
 C2788 C 0.80051 0.45030 0.40552
 C2789 C 0.77280 0.47799 0.33048
 C2790 C 0.76843 0.48238 0.31673
 H2791 H 0.80684 0.46649 0.34144
 H2792 H 0.80635 0.48523 0.37168
 H2793 H 0.79429 0.43823 0.35904
 H2794 H 0.76119 0.44877 0.35154
 H2795 H 0.77323 0.49579 0.36416
 H2796 H 0.76070 0.46749 0.38182
 C2797 C 0.79676 0.97531 0.85333
 C2798 C 0.78893 0.97968 0.87051
 C2799 C 0.79020 0.96112 0.87552
 C2800 C 0.79812 0.95667 0.85858
 C2801 C 0.77917 0.97182 0.84641
 C2802 C 0.78045 0.95327 0.85143
 C2803 C 0.77124 0.97628 0.86333
 C2804 C 0.77261 0.95763 0.86860
 C2805 C 0.79654 0.95496 0.89157
 C2806 C 0.80196 0.94966 0.90461
 C2807 C 0.77328 0.97758 0.83004
 C2808 C 0.76873 0.98208 0.81639
 H2809 H 0.80662 0.98264 0.84686
 H2810 H 0.79249 0.99046 0.87854
 H2811 H 0.80924 0.94854 0.85680
 H2812 H 0.77690 0.94248 0.84340
 H2813 H 0.76011 0.98442 0.86509
 H2814 H 0.76276 0.95028 0.87507
 C2815 C 0.29392 0.77286 0.39389
 C2816 C 0.28499 0.77053 0.37683
 C2817 C 0.28834 0.78907 0.37282
 C2818 C 0.29735 0.79148 0.38964
 C2819 C 0.27715 0.77801 0.40172
 C2820 C 0.28051 0.79655 0.39769
 C2821 C 0.26811 0.77558 0.38493
 C2822 C 0.27158 0.79423 0.38065
 C2823 C 0.29489 0.79552 0.35697
 C2824 C 0.30057 0.80109 0.34418
 C2825 C 0.27133 0.77222 0.41810
 C2826 C 0.26701 0.76786 0.43186
 H2827 H 0.30304 0.76401 0.39951
 H2828 H 0.28692 0.75990 0.36806
 H2829 H 0.30944 0.79809 0.39142
 H2830 H 0.27861 0.80719 0.40644
 H2831 H 0.25602 0.76898 0.38318
 H2832 H 0.26247 0.80309 0.37502
 C2833 C 0.29278 0.27058 0.89253
 C2834 C 0.28276 0.27048 0.87592
 C2835 C 0.28850 0.28857 0.87262
 C2836 C 0.29860 0.28875 0.88898
 C2837 C 0.27734 0.27759 0.90156
 C2838 C 0.28309 0.29567 0.89823
 C2839 C 0.26721 0.27739 0.88522
 C2840 C 0.27306 0.29557 0.88165
 C2841 C 0.29504 0.29498 0.85676
 C2842 C 0.30072 0.30053 0.84395
 C2843 C 0.27154 0.27184 0.91795
 C2844 C 0.26724 0.26754 0.93174
 H2845 H 0.30082 0.26024 0.89718
 H2846 H 0.28271 0.26019 0.86655
 H2847 H 0.31158 0.29349 0.89037
 H2848 H 0.28315 0.30597 0.90758
 H2849 H 0.25423 0.27264 0.88386
 H2850 H 0.26503 0.30593 0.87699
 C2851 C 0.45488 0.27186 0.85501
 C2852 C 0.46394 0.26915 0.87195
 C2853 C 0.46110 0.28773 0.87617
 C2854 C 0.45195 0.29052 0.85948
 C2855 C 0.47168 0.27667 0.84704
 C2856 C 0.46883 0.29525 0.85128
 C2857 C 0.48084 0.27387 0.86371
 C2858 C 0.47789 0.29255 0.86820
 C2859 C 0.45496 0.29413 0.89221
 C2860 C 0.44966 0.29961 0.90521
 C2861 C 0.47732 0.27080 0.83063
 C2862 C 0.48168 0.26632 0.81692
 H2863 H 0.44548 0.26329 0.84940
 H2864 H 0.46185 0.25850 0.88063
 H2865 H 0.44001 0.29744 0.85791
 H2866 H 0.47090 0.30591 0.84260
 H2867 H 0.49278 0.26695 0.86526
 H2868 H 0.48728 0.30113 0.87380
 C2869 C 0.95359 0.28343 0.35120
 C2870 C 0.95470 0.27334 0.36771
 C2871 C 0.96113 0.28914 0.37664
 C2872 C 0.95992 0.29932 0.36036
 C2873 C 0.97178 0.27866 0.34733
 C2874 C 0.97820 0.29447 0.35626
 C2875 C 0.97300 0.26847 0.36359
 C2876 C 0.97933 0.28438 0.37279
 C2877 C 0.95498 0.29518 0.39281
 C2878 C 0.94970 0.30036 0.40595
 C2879 C 0.97749 0.27302 0.33086
 C2880 C 0.98195 0.26860 0.31716
 H2881 H 0.94306 0.28298 0.34214
 H2882 H 0.94497 0.26472 0.37261
 H2883 H 0.95447 0.31207 0.35921
 H2884 H 0.98793 0.30310 0.35136
 H2885 H 0.97845 0.25572 0.36473
 H2886 H 0.98984 0.28484 0.38185
 C2887 C 0.47236 0.36220 0.77044
 C2888 C 0.45369 0.36643 0.77351
 C2889 C 0.45840 0.37385 0.79062
 C2890 C 0.47696 0.36988 0.78767
 C2891 C 0.46969 0.34515 0.77898
 C2892 C 0.47439 0.35257 0.79609
 C2893 C 0.45113 0.34913 0.78194
 C2894 C 0.45575 0.35679 0.79914
 C2895 C 0.45193 0.38966 0.79732
 C2896 C 0.44642 0.40250 0.80305
 C2897 C 0.47572 0.32896 0.77279
 C2898 C 0.48039 0.31541 0.76804
 H2899 H 0.47926 0.36424 0.75858
 H2900 H 0.44510 0.37231 0.76430
 H2901 H 0.48751 0.37860 0.79011
 H2902 H 0.48297 0.34670 0.80531
 H2903 H 0.44057 0.34042 0.77951
 H2904 H 0.44885 0.35472 0.81100
 C2905 C 0.95339 0.35085 0.28386
 C2906 C 0.95973 0.35987 0.29980
 C2907 C 0.96060 0.37636 0.28990
 C2908 C 0.95416 0.36758 0.27404
 C2909 C 0.97160 0.34731 0.27888
 C2910 C 0.97247 0.36379 0.26896
 C2911 C 0.97803 0.35610 0.29474
 C2912 C 0.97881 0.37284 0.28493
 C2913 C 0.95425 0.39237 0.29626
 C2914 C 0.94880 0.40535 0.30172
 C2915 C 0.97746 0.33094 0.27301
 C2916 C 0.98200 0.31726 0.26850
 H2917 H 0.94300 0.34163 0.28336
 H2918 H 0.95443 0.35843 0.31255
 H2919 H 0.94427 0.37247 0.26561
 H2920 H 0.97777 0.36520 0.25621
 H2921 H 0.98791 0.35120 0.30318
 H2922 H 0.98919 0.38207 0.28544
 C2923 C 0.29265 0.85849 0.48047
 C2924 C 0.29871 0.86207 0.46243
 C2925 C 0.28827 0.87824 0.46233
 C2926 C 0.28229 0.87491 0.48029
 C2927 C 0.27753 0.84906 0.47325
 C2928 C 0.26706 0.86521 0.47316
 C2929 C 0.28351 0.85242 0.45530
 C2930 C 0.27315 0.86881 0.45511
 C2931 C 0.29457 0.89424 0.45593
 C2932 C 0.30005 0.90715 0.45036
 C2933 C 0.27190 0.83255 0.47894
 C2934 C 0.26767 0.81870 0.48320
 H2935 H 0.30061 0.85406 0.49096
 H2936 H 0.31180 0.86094 0.45795
 H2937 H 0.28186 0.88436 0.49048
 H2938 H 0.25397 0.86630 0.47764
 H2939 H 0.28396 0.84299 0.44509
 H2940 H 0.26520 0.87323 0.44460
 C2941 C 0.27185 0.35764 0.95716
 C2942 C 0.27165 0.37432 0.96714
 C2943 C 0.28975 0.37760 0.96160
 C2944 C 0.29003 0.36119 0.95154
 C2945 C 0.27866 0.34863 0.97273
 C2946 C 0.29675 0.35194 0.96718
 C2947 C 0.27837 0.36503 0.98282
 C2948 C 0.29656 0.36859 0.97716
 C2949 C 0.29620 0.39350 0.95509
 C2950 C 0.30178 0.40633 0.94944
 C2951 C 0.27285 0.33222 0.97854
 C2952 C 0.26847 0.31844 0.98288
 H2953 H 0.26163 0.35296 0.94900
 H2954 H 0.26141 0.38371 0.96704
 H2955 H 0.29489 0.35977 0.93861
 H2956 H 0.30701 0.34257 0.96726
 H2957 H 0.27350 0.36641 0.99574
 H2958 H 0.30680 0.37327 0.98531
 C2959 C 0.78463 0.39956 0.29583
 C2960 C 0.77468 0.38292 0.29501
 C2961 C 0.79046 0.37401 0.28861
 C2962 C 0.80049 0.39042 0.28953
 C2963 C 0.77971 0.40316 0.27760
 C2964 C 0.79549 0.39425 0.27120
 C2965 C 0.76967 0.38677 0.27667
 C2966 C 0.78555 0.37759 0.27037
 C2967 C 0.79665 0.35794 0.29498
 C2968 C 0.80195 0.34491 0.30046
 C2969 C 0.77396 0.41957 0.27174
 C2970 C 0.76947 0.43327 0.26724
 H2971 H 0.78419 0.40877 0.30624
 H2972 H 0.76620 0.37808 0.30487
 H2973 H 0.81323 0.39175 0.29489
 H2974 H 0.80399 0.39910 0.26135
 H2975 H 0.75692 0.38546 0.27131
 H2976 H 0.78600 0.36837 0.25997
   
