data_POSCAR
  _audit_creation_date              2014-09-24
  _audit_creation_method            'ToBaCCo'
  _symmetry_space_group_name_H-M    'P1'
  _symmetry_Int_Tables_number       1
  _symmetry_cell_setting            triclinic
  loop_
  _symmetry_equiv_pos_as_xyz
 x,y,z
_cell_length_a 53.4882
_cell_length_b 53.4237
_cell_length_c 53.3255
_cell_angle_alpha 89.878100
_cell_angle_beta 90.011300
_cell_angle_gamma 89.969700
loop_
  _atom_site_label
  _atom_site_type_symbol
  _atom_site_fract_x
  _atom_site_fract_y
  _atom_site_fract_z
O1 O 0.33770 0.37294 0.02150
 O2 O 0.37225 0.33901 -0.02761
 O3 O 0.33797 0.37362 -0.02730
 O4 O 0.37221 0.33828 0.02121
 O5 O 0.34296 0.30921 0.02075
 O6 O 0.30879 0.34453 -0.02769
 O7 O 0.34296 0.30996 -0.02800
 O8 O 0.30851 0.34380 0.02103
 Cu9 Cu 0.35797 0.35888 -0.00296
 Cu10 Cu 0.32289 0.32396 -0.00348
 C11 C 0.31709 0.36425 0.02956
 C12 C 0.36349 0.31866 -0.03622
 C13 C 0.31746 0.36515 -0.03584
 C14 C 0.36352 0.31761 0.02918
 O15 O 0.66052 0.62566 0.02657
 O16 O 0.62700 0.65956 -0.02344
 O17 O 0.66168 0.62515 -0.02221
 O18 O 0.62607 0.66015 0.02547
 O19 O 0.65520 0.68934 0.02560
 O20 O 0.69070 0.65440 -0.02193
 O21 O 0.65614 0.68874 -0.02320
 O22 O 0.68956 0.65494 0.02676
 Cu23 Cu 0.64088 0.63971 0.00155
 Cu24 Cu 0.67579 0.67479 0.00181
 C25 C 0.68082 0.63449 0.03519
 C26 C 0.63583 0.68000 -0.03185
 C27 C 0.68241 0.63370 -0.03018
 C28 C 0.63459 0.68075 0.03374
 O29 O 0.66056 0.37299 0.97582
 O30 O 0.62719 0.34016 1.02647
 O31 O 0.66227 0.37405 1.02460
 O32 O 0.62611 0.33851 0.97770
 O33 O 0.65509 0.30914 0.97784
 O34 O 0.69108 0.34456 1.02458
 O35 O 0.65611 0.31071 1.02654
 O36 O 0.68948 0.34354 0.97587
 Cu37 Cu 0.64114 0.35938 1.00115
 Cu38 Cu 0.67583 0.32405 1.00122
 C39 C 0.68077 0.36394 0.96721
 C40 C 0.63587 0.31975 1.03511
 C41 C 0.68298 0.36543 1.03260
 C42 C 0.63442 0.31767 0.96979
 O43 O 0.33699 0.62790 0.97622
 O44 O 0.37194 0.66246 1.02461
 O45 O 0.33770 0.62777 1.02503
 O46 O 0.37178 0.66220 0.97591
 O47 O 0.34269 0.69147 0.97607
 O48 O 0.30857 0.65694 1.02517
 O49 O 0.34272 0.69161 1.02472
 O50 O 0.30795 0.65721 0.97640
 Cu51 Cu 0.35751 0.64214 1.00040
 Cu52 Cu 0.32255 0.67721 1.00058
 C53 C 0.31640 0.63661 0.96811
 C54 C 0.36334 0.68304 1.03286
 C55 C 0.31724 0.63639 1.03355
 C56 C 0.36321 0.68285 0.96773
 O57 O 0.02568 0.33966 0.37512
 O58 O -0.02293 0.37392 0.34004
 O59 O -0.02306 0.33947 0.37472
 O60 O 0.02584 0.37403 0.34029
 O61 O 0.02605 0.34469 0.31126
 O62 O -0.02271 0.31029 0.34558
 O63 O -0.02259 0.34462 0.31098
 O64 O 0.02591 0.31042 0.34598
 Cu65 Cu 0.00137 0.35971 0.36045
 Cu66 Cu 0.00170 0.32459 0.32555
 C67 C 0.03409 0.31913 0.36655
 C68 C -0.03110 0.36511 0.31950
 C69 C -0.03131 0.31890 0.36605
 C70 C 0.03431 0.36525 0.31985
 O71 O 0.02139 0.66207 0.62619
 O72 O -0.02654 0.62670 0.66107
 O73 O -0.02724 0.66120 0.62649
 O74 O 0.02223 0.62724 0.66059
 O75 O 0.02202 0.65635 0.68986
 O76 O -0.02740 0.69022 0.65579
 O77 O -0.02665 0.65583 0.69032
 O78 O 0.02114 0.69109 0.65554
 Cu79 Cu -0.00250 0.64137 0.64066
 Cu80 Cu -0.00272 0.67626 0.67582
 C81 C 0.02938 0.68272 0.63485
 C82 C -0.03484 0.63528 0.68167
 C83 C -0.03581 0.68160 0.63524
 C84 C 0.03058 0.63597 0.68109
 O85 O 1.02527 0.62729 0.33777
 O86 O 0.97732 0.66238 0.37274
 O87 O 0.97671 0.62771 0.33826
 O88 O 1.02599 0.66162 0.37243
 O89 O 1.02606 0.69080 0.34318
 O90 O 0.97681 0.65692 0.30898
 O91 O 0.97745 0.69154 0.34341
 O92 O 1.02531 0.65656 0.30854
 Cu93 Cu 1.00129 0.64183 0.35825
 Cu94 Cu 1.00139 0.67690 0.32312
 C95 C 1.03341 0.63588 0.31708
 C96 C 0.96926 0.68305 0.36410
 C97 C 0.96847 0.63639 0.31765
 C98 C 1.03449 0.68208 0.36372
 O99 O 0.97535 0.33637 0.62880
 O100 O 1.02376 0.37102 0.66332
 O101 O 1.02392 0.33614 0.62915
 O102 O 0.97519 0.37107 0.66319
 O103 O 0.97501 0.34203 0.69264
 O104 O 1.02371 0.30722 0.65867
 O105 O 1.02355 0.34204 0.69285
 O106 O 0.97517 0.30736 0.65828
 Cu107 Cu 0.99957 0.35655 0.64316
 Cu108 Cu 0.99933 0.32176 0.67856
 C109 C 0.96708 0.31584 0.63753
 C110 C 1.03184 0.36256 0.68408
 C111 C 1.03210 0.31557 0.63798
 C112 C 0.96687 0.36259 0.68385
 O113 O 0.37240 0.02509 0.33905
 O114 O 0.33793 -0.02404 0.37318
 O115 O 0.37274 -0.02376 0.33892
 O116 O 0.33774 0.02456 0.37347
 O117 O 0.30877 0.02457 0.34402
 O118 O 0.34376 -0.02368 0.30950
 O119 O 0.30902 -0.02395 0.34368
 O120 O 0.34337 0.02509 0.30967
 Cu121 Cu 0.35815 0.00046 0.35907
 Cu122 Cu 0.32338 0.00052 0.32373
 C123 C 0.36374 0.03352 0.31850
 C124 C 0.31747 -0.03227 0.36434
 C125 C 0.36422 -0.03202 0.31829
 C126 C 0.31716 0.03270 0.36475
 O127 O 0.62770 0.02553 0.66120
 O128 O 0.66201 -0.02339 0.62684
 O129 O 0.62779 -0.02321 0.66185
 O130 O 0.66170 0.02530 0.62630
 O131 O 0.69112 0.02562 0.65528
 O132 O 0.65727 -0.02282 0.69076
 O133 O 0.69143 -0.02300 0.65582
 O134 O 0.65719 0.02584 0.69011
 Cu135 Cu 0.64183 0.00096 0.64115
 Cu136 Cu 0.67719 0.00140 0.67589
 C137 C 0.63661 0.03409 0.68154
 C138 C 0.68271 -0.03144 0.63535
 C139 C 0.63664 -0.03121 0.68248
 C140 C 0.68224 0.03377 0.63473
 O141 O 0.37437 0.97328 0.66008
 O142 O 0.34006 1.02303 0.62667
 O143 O 0.37479 1.02197 0.66107
 O144 O 0.33951 0.97421 0.62593
 O145 O 0.31066 0.97402 0.65547
 O146 O 0.34585 1.02164 0.69053
 O147 O 0.31122 1.02274 0.65621
 O148 O 0.34543 0.97304 0.68953
 Cu149 Cu 0.36006 0.99817 0.64045
 Cu150 Cu 0.32538 0.99785 0.67586
 C151 C 0.36579 0.96468 0.68058
 C152 C 0.31974 1.03139 0.63571
 C153 C 0.36640 1.02989 0.68190
 C154 C 0.31904 0.96590 0.63473
 O155 O 0.62845 0.97691 0.33670
 O156 O 0.66385 1.02487 0.37132
 O157 O 0.62881 1.02552 0.33719
 O158 O 0.66297 0.97614 0.37116
 O159 O 0.69189 0.97604 0.34169
 O160 O 0.65769 1.02540 0.30767
 O161 O 0.69266 1.02473 0.34179
 O162 O 0.65742 0.97684 0.30727
 Cu163 Cu 0.64315 1.00090 0.35707
 Cu164 Cu 0.67783 1.00077 0.32168
 C165 C 0.63686 0.96874 0.31598
 C166 C 0.68444 1.03297 0.36255
 C167 C 0.63726 1.03375 0.31649
 C168 C 0.68329 0.96762 0.36225
 C169 C 0.81247 0.81322 0.51199
 C170 C 0.81329 0.81302 0.48644
 C171 C 0.83152 0.79729 0.47256
 C172 C 0.79671 0.82925 0.47104
 C173 C 0.79659 0.83126 0.52595
 C174 C 0.82825 0.79617 0.52735
 C175 C 0.85732 0.79949 0.47701
 C176 C 0.87429 0.78471 0.46368
 C177 C 0.86566 0.76779 0.44563
 C178 C 0.84000 0.76577 0.44088
 C179 C 0.82301 0.78052 0.45421
 C180 C 0.80726 0.84547 0.45319
 C181 C 0.79206 0.86144 0.43910
 C182 C 0.76612 0.86126 0.44255
 C183 C 0.75539 0.84477 0.45993
 C184 C 0.77059 0.82873 0.47403
 C185 C 0.77948 0.82245 0.54388
 C186 C 0.76468 0.83926 0.55738
 C187 C 0.76698 0.86504 0.55323
 C188 C 0.78419 0.87397 0.53557
 C189 C 0.79902 0.85718 0.52208
 C190 C 0.82764 0.77010 0.52379
 C191 C 0.84336 0.75447 0.53779
 C192 C 0.85961 0.76473 0.55561
 C193 C 0.85984 0.79060 0.55964
 C194 C 0.84419 0.80623 0.54566
 H195 H 0.86429 0.81270 0.49070
 H196 H 0.89412 0.78655 0.46737
 H197 H 0.83313 0.75284 0.42686
 H198 H 0.80320 0.77873 0.45038
 H199 H 0.82732 0.84609 0.45052
 H200 H 0.80055 0.87410 0.42569
 H201 H 0.76205 0.81605 0.48738
 H202 H 0.77751 0.80256 0.54727
 H203 H 0.75151 0.83216 0.57109
 H204 H 0.78625 0.89389 0.53235
 H205 H 0.81249 0.86437 0.50873
 H206 H 0.81517 0.76193 0.51007
 H207 H 0.84298 0.73445 0.53459
 H208 H 0.87232 0.79873 0.57340
 H209 H 0.84488 0.82625 0.54875
 H210 H 0.73532 0.84443 0.46268
 C211 C 0.18685 0.18658 0.51544
 C212 C 0.18709 0.18648 0.48986
 C213 C 0.17092 0.20355 0.47493
 C214 C 0.20277 0.16859 0.47548
 C215 C 0.20392 0.17041 0.53037
 C216 C 0.16880 0.20210 0.52979
 C217 C 0.15469 0.19353 0.45685
 C218 C 0.13880 0.20917 0.44318
 C219 C 0.13906 0.23504 0.44728
 C220 C 0.15555 0.24526 0.46491
 C221 C 0.17151 0.22960 0.47859
 C222 C 0.20059 0.14264 0.47931
 C223 C 0.21529 0.12600 0.46549
 C224 C 0.23212 0.13510 0.44755
 C225 C 0.23412 0.16091 0.44341
 C226 C 0.21945 0.17757 0.45724
 C227 C 0.22995 0.17113 0.52673
 C228 C 0.24560 0.15505 0.54028
 C229 C 0.23540 0.13832 0.55776
 C230 C 0.20957 0.13797 0.56188
 C231 C 0.19392 0.15398 0.54833
 C232 C 0.17755 0.21885 0.54805
 C233 C 0.16074 0.23349 0.56173
 C234 C 0.13501 0.23138 0.55742
 C235 C 0.12613 0.21446 0.53948
 C236 C 0.14292 0.19980 0.52582
 H237 H 0.15401 0.17352 0.45368
 H238 H 0.12615 0.20108 0.42956
 H239 H 0.15597 0.26526 0.46815
 H240 H 0.18420 0.23774 0.49214
 H241 H 0.18744 0.13532 0.49291
 H242 H 0.21346 0.10606 0.46872
 H243 H 0.22123 0.19749 0.45387
 H244 H 0.23807 0.18397 0.51327
 H245 H 0.26558 0.15553 0.53702
 H246 H 0.20149 0.12513 0.57538
 H247 H 0.17393 0.15320 0.55149
 H248 H 0.19742 0.22072 0.55152
 H249 H 0.16780 0.24644 0.57564
 H250 H 0.10625 0.21256 0.53612
 H251 H 0.13577 0.18660 0.51220
 H252 H 0.24700 0.16815 0.42950
 C253 C 0.18648 0.81280 0.48719
 C254 C 0.18596 0.81257 0.51276
 C255 C 0.16767 0.79710 0.52688
 C256 C 0.20293 0.82860 0.52788
 C257 C 0.20238 0.83069 0.47305
 C258 C 0.17040 0.79592 0.47202
 C259 C 0.14186 0.79958 0.52258
 C260 C 0.12483 0.78489 0.53596
 C261 C 0.13340 0.76777 0.55393
 C262 C 0.15907 0.76550 0.55858
 C263 C 0.17612 0.78017 0.54519
 C264 C 0.19281 0.84509 0.54567
 C265 C 0.20837 0.86107 0.55927
 C266 C 0.23425 0.86063 0.55541
 C267 C 0.24456 0.84382 0.53814
 C268 C 0.22900 0.82777 0.52452
 C269 C 0.21939 0.82174 0.45514
 C270 C 0.23436 0.83842 0.44161
 C271 C 0.23231 0.86421 0.44573
 C272 C 0.21514 0.87328 0.46334
 C273 C 0.20015 0.85662 0.47685
 C274 C 0.17076 0.76984 0.47566
 C275 C 0.15492 0.75438 0.46170
 C276 C 0.13877 0.76481 0.44382
 C277 C 0.13874 0.79069 0.43975
 C278 C 0.15451 0.80615 0.45370
 H279 H 0.13494 0.81292 0.50892
 H280 H 0.10500 0.78693 0.53235
 H281 H 0.16589 0.75241 0.57253
 H282 H 0.19593 0.77816 0.54890
 H283 H 0.17279 0.84597 0.54860
 H284 H 0.20019 0.87396 0.57262
 H285 H 0.23722 0.81490 0.51121
 H286 H 0.22120 0.80182 0.45181
 H287 H 0.24749 0.83122 0.42794
 H288 H 0.21328 0.89321 0.46653
 H289 H 0.18676 0.86391 0.49020
 H290 H 0.18318 0.76153 0.48939
 H291 H 0.15516 0.73435 0.46493
 H292 H 0.12635 0.79896 0.42595
 H293 H 0.15400 0.82618 0.45053
 H294 H 0.26458 0.84325 0.53508
 C295 C 0.81402 0.18688 0.48525
 C296 C 0.81398 0.18696 0.51082
 C297 C 0.83173 0.20256 0.52541
 C298 C 0.79694 0.17063 0.52559
 C299 C 0.79859 0.16891 0.47075
 C300 C 0.83032 0.20398 0.47052
 C301 C 0.85767 0.20029 0.52187
 C302 C 0.87419 0.21484 0.53595
 C303 C 0.86497 0.23160 0.55387
 C304 C 0.83916 0.23371 0.55770
 C305 C 0.82262 0.21918 0.54360
 C306 C 0.80698 0.15432 0.54366
 C307 C 0.79137 0.13838 0.55730
 C308 C 0.76554 0.13866 0.55316
 C309 C 0.75531 0.15519 0.53550
 C310 C 0.77092 0.17121 0.52184
 C311 C 0.78180 0.17779 0.45255
 C312 C 0.76710 0.16105 0.43887
 C313 C 0.76921 0.13526 0.44311
 C314 C 0.78622 0.12626 0.46095
 C315 C 0.80094 0.14298 0.47462
 C316 C 0.82970 0.23003 0.47425
 C317 C 0.84595 0.24569 0.46093
 C318 C 0.86276 0.23549 0.44359
 C319 C 0.86301 0.20965 0.43937
 C320 C 0.84683 0.19399 0.45268
 H321 H 0.86508 0.18717 0.50831
 H322 H 0.89414 0.21296 0.53297
 H323 H 0.83184 0.24654 0.57159
 H324 H 0.80270 0.22100 0.54674
 H325 H 0.82696 0.15364 0.54689
 H326 H 0.79948 0.12570 0.57094
 H327 H 0.76278 0.18395 0.50830
 H328 H 0.77990 0.19770 0.44917
 H329 H 0.75409 0.16820 0.42503
 H330 H 0.78813 0.10633 0.46425
 H331 H 0.81417 0.13574 0.48820
 H332 H 0.81682 0.23816 0.48761
 H333 H 0.84553 0.26568 0.46427
 H334 H 0.87590 0.20156 0.42596
 H335 H 0.84756 0.17399 0.44945
 H336 H 0.73532 0.15563 0.53223
 C337 C 0.51467 0.81232 0.81307
 C338 C 0.48918 0.81183 0.81315
 C339 C 0.47420 0.82785 0.79598
 C340 C 0.47489 0.79604 0.83110
 C341 C 0.52966 0.79532 0.82925
 C342 C 0.52885 0.83056 0.79752
 C343 C 0.45598 0.84393 0.80594
 C344 C 0.44221 0.85965 0.79019
 C345 C 0.44636 0.85935 0.76429
 C346 C 0.46414 0.84300 0.75412
 C347 C 0.47792 0.82721 0.76988
 C348 C 0.47862 0.79825 0.85710
 C349 C 0.46468 0.78366 0.87380
 C350 C 0.44671 0.76691 0.86471
 C351 C 0.44273 0.76482 0.83885
 C352 C 0.45668 0.77938 0.82213
 C353 C 0.52622 0.76923 0.82854
 C354 C 0.53988 0.75363 0.84459
 C355 C 0.55726 0.76392 0.86128
 C356 C 0.56117 0.78982 0.86164
 C357 C 0.54753 0.80542 0.84566
 C358 C 0.54722 0.82200 0.78079
 C359 C 0.56073 0.83898 0.76612
 C360 C 0.55614 0.86470 0.76817
 C361 C 0.53809 0.87339 0.78507
 C362 C 0.52459 0.85642 0.79977
 H363 H 0.45276 0.84464 0.82598
 H364 H 0.42848 0.87219 0.79824
 H365 H 0.46742 0.84256 0.73408
 H366 H 0.49158 0.81463 0.76179
 H367 H 0.49217 0.81139 0.86442
 H368 H 0.46779 0.78554 0.89378
 H369 H 0.45337 0.77759 0.80217
 H370 H 0.51285 0.76103 0.81572
 H371 H 0.53678 0.73360 0.84410
 H372 H 0.57460 0.79798 0.87445
 H373 H 0.55053 0.82546 0.84644
 H374 H 0.55092 0.80215 0.77896
 H375 H 0.57473 0.83207 0.75319
 H376 H 0.53450 0.89326 0.78693
 H377 H 0.51088 0.86344 0.81294
 H378 H 0.42881 0.75200 0.83162
 C379 C 0.51117 0.18815 0.18749
 C380 C 0.48569 0.18827 0.18678
 C381 C 0.47058 0.17213 0.20370
 C382 C 0.47164 0.20376 0.16837
 C383 C 0.52631 0.20520 0.17153
 C384 C 0.52531 0.17026 0.20347
 C385 C 0.45288 0.15567 0.19343
 C386 C 0.43920 0.13966 0.20895
 C387 C 0.44291 0.14005 0.23493
 C388 C 0.46011 0.15680 0.24539
 C389 C 0.47380 0.17288 0.22986
 C390 C 0.47610 0.20149 0.14249
 C391 C 0.46264 0.21605 0.12536
 C392 C 0.44442 0.23284 0.13388
 C393 C 0.43965 0.23493 0.15961
 C394 C 0.45312 0.22040 0.17676
 C395 C 0.52265 0.23126 0.17205
 C396 C 0.53673 0.24691 0.15644
 C397 C 0.55475 0.23667 0.14039
 C398 C 0.55880 0.21079 0.14018
 C399 C 0.54473 0.19515 0.15572
 C400 C 0.54335 0.17924 0.22033
 C401 C 0.55724 0.16257 0.23501
 C402 C 0.55338 0.13675 0.23283
 C403 C 0.53556 0.12766 0.21591
 C404 C 0.52167 0.14431 0.20120
 H405 H 0.45005 0.15486 0.17333
 H406 H 0.42591 0.12680 0.20067
 H407 H 0.46305 0.15732 0.26548
 H408 H 0.48705 0.18574 0.23818
 H409 H 0.48992 0.18838 0.13560
 H410 H 0.46637 0.21416 0.10548
 H411 H 0.44926 0.22225 0.19661
 H412 H 0.50883 0.23941 0.18443
 H413 H 0.53351 0.26693 0.15680
 H414 H 0.57270 0.20268 0.12785
 H415 H 0.54792 0.17514 0.15510
 H416 H 0.54659 0.19917 0.22217
 H417 H 0.57106 0.16980 0.24796
 H418 H 0.53253 0.10771 0.21395
 H419 H 0.50824 0.13698 0.18790
 H420 H 0.42552 0.24778 0.16640
 C421 C 0.48781 0.18690 0.81172
 C422 C 0.51328 0.18759 0.81266
 C423 C 0.52889 0.17181 0.79592
 C424 C 0.52681 0.20339 0.83113
 C425 C 0.47221 0.20383 0.82728
 C426 C 0.47424 0.16851 0.79586
 C427 C 0.54686 0.15571 0.80636
 C428 C 0.56091 0.13993 0.79099
 C429 C 0.55727 0.14021 0.76500
 C430 C 0.53983 0.15666 0.75437
 C431 C 0.52579 0.17250 0.76974
 C432 C 0.52211 0.20106 0.85697
 C433 C 0.53508 0.21589 0.87417
 C434 C 0.55305 0.23302 0.86576
 C435 C 0.55804 0.23519 0.84008
 C436 C 0.54506 0.22039 0.82285
 C437 C 0.47552 0.22993 0.82647
 C438 C 0.46141 0.24549 0.84208
 C439 C 0.44372 0.23511 0.85842
 C440 C 0.43990 0.20920 0.85882
 C441 C 0.45400 0.19365 0.84328
 C442 C 0.45616 0.17687 0.77868
 C443 C 0.44305 0.15972 0.76391
 C444 C 0.44775 0.13404 0.76630
 C445 C 0.46556 0.12556 0.78360
 C446 C 0.47866 0.14269 0.79840
 H447 H 0.54960 0.15496 0.82648
 H448 H 0.57437 0.12729 0.79939
 H449 H 0.53695 0.15708 0.73426
 H450 H 0.51232 0.18510 0.76129
 H451 H 0.50850 0.18768 0.86378
 H452 H 0.53121 0.21391 0.89402
 H453 H 0.54909 0.22230 0.80303
 H454 H 0.48918 0.23818 0.81395
 H455 H 0.46444 0.26553 0.84157
 H456 H 0.42623 0.20100 0.87138
 H457 H 0.45111 0.17360 0.84412
 H458 H 0.45234 0.19668 0.77662
 H459 H 0.42922 0.16648 0.75068
 H460 H 0.46921 0.10572 0.78574
 H461 H 0.49214 0.13582 0.81193
 H462 H 0.57200 0.24828 0.83337
 C463 C 0.48697 0.81351 0.18710
 C464 C 0.51246 0.81366 0.18727
 C465 C 0.52678 0.83170 0.20275
 C466 C 0.52732 0.79658 0.17109
 C467 C 0.47267 0.79776 0.16926
 C468 C 0.47207 0.82990 0.20394
 C469 C 0.52298 0.85761 0.20019
 C470 C 0.53662 0.87441 0.21484
 C471 C 0.55435 0.86549 0.23200
 C472 C 0.55848 0.83972 0.23437
 C473 C 0.54483 0.82290 0.21974
 C474 C 0.54516 0.80663 0.15458
 C475 C 0.55864 0.79100 0.13856
 C476 C 0.55460 0.76513 0.13894
 C477 C 0.53723 0.75487 0.15573
 C478 C 0.52374 0.77051 0.17184
 C479 C 0.45473 0.78085 0.17833
 C480 C 0.44115 0.76593 0.16170
 C481 C 0.44525 0.76795 0.13585
 C482 C 0.46285 0.78504 0.12666
 C483 C 0.47642 0.79998 0.14327
 C484 C 0.47565 0.82958 0.23006
 C485 C 0.46200 0.84577 0.24547
 C486 C 0.44448 0.86223 0.23493
 C487 C 0.44047 0.86222 0.20900
 C488 C 0.45411 0.84610 0.19360
 H489 H 0.50952 0.86478 0.18680
 H490 H 0.53342 0.89433 0.21274
 H491 H 0.57225 0.83264 0.24749
 H492 H 0.54816 0.80300 0.22180
 H493 H 0.54827 0.82665 0.15376
 H494 H 0.57206 0.79913 0.12568
 H495 H 0.51037 0.76234 0.18472
 H496 H 0.45145 0.77905 0.19830
 H497 H 0.42747 0.75286 0.16898
 H498 H 0.46602 0.78687 0.10667
 H499 H 0.48981 0.81330 0.13589
 H500 H 0.48910 0.81694 0.23846
 H501 H 0.46518 0.84555 0.26553
 H502 H 0.42694 0.87484 0.20065
 H503 H 0.45099 0.84659 0.17353
 H504 H 0.53403 0.73486 0.15627
 C505 C 0.81159 0.51251 0.81387
 C506 C 0.81193 0.48699 0.81317
 C507 C 0.79504 0.47167 0.82911
 C508 C 0.82992 0.47304 0.79721
 C509 C 0.82756 0.52779 0.79696
 C510 C 0.79602 0.52641 0.83226
 C511 C 0.80522 0.45335 0.84504
 C512 C 0.78973 0.43931 0.86074
 C513 C 0.76387 0.44328 0.86057
 C514 C 0.75349 0.46113 0.84435
 C515 C 0.76899 0.47519 0.82857
 C516 C 0.85581 0.47695 0.79951
 C517 C 0.87255 0.46340 0.78468
 C518 C 0.86362 0.44564 0.76761
 C519 C 0.83788 0.44147 0.76543
 C520 C 0.82111 0.45503 0.78023
 C521 C 0.82678 0.52460 0.77080
 C522 C 0.84279 0.53835 0.75527
 C523 C 0.85952 0.55557 0.76573
 C524 C 0.85991 0.55928 0.79170
 C525 C 0.84396 0.54554 0.80723
 C526 C 0.77921 0.54479 0.82384
 C527 C 0.76456 0.55808 0.84096
 C528 C 0.76670 0.55326 0.86670
 C529 C 0.78367 0.53519 0.87525
 C530 C 0.79835 0.52191 0.85814
 H531 H 0.82523 0.45029 0.84566
 H532 H 0.79794 0.42553 0.87320
 H533 H 0.73348 0.46429 0.84402
 H534 H 0.76073 0.48892 0.81611
 H535 H 0.86301 0.49036 0.81289
 H536 H 0.89245 0.46664 0.78665
 H537 H 0.80124 0.45160 0.77837
 H538 H 0.81397 0.51130 0.76248
 H539 H 0.84227 0.53541 0.73519
 H540 H 0.87274 0.57260 0.79998
 H541 H 0.84479 0.54834 0.82732
 H542 H 0.77730 0.54868 0.80398
 H543 H 0.75158 0.57211 0.83415
 H544 H 0.78562 0.53144 0.89512
 H545 H 0.81159 0.50819 0.86505
 H546 H 0.83077 0.42769 0.75238
 C547 C 0.18751 0.51211 0.18643
 C548 C 0.18796 0.48659 0.18627
 C549 C 0.20349 0.47242 0.16810
 C550 C 0.17204 0.47155 0.20349
 C551 C 0.16959 0.52624 0.20227
 C552 C 0.20418 0.52725 0.17005
 C553 C 0.20093 0.47636 0.14216
 C554 C 0.21559 0.46284 0.12524
 C555 C 0.23275 0.44509 0.13406
 C556 C 0.23512 0.44082 0.15987
 C557 C 0.22048 0.45435 0.17681
 C558 C 0.15568 0.45357 0.19355
 C559 C 0.13980 0.44003 0.20932
 C560 C 0.14021 0.44416 0.23523
 C561 C 0.15689 0.46162 0.24537
 C562 C 0.17284 0.47518 0.22960
 C563 C 0.17847 0.54436 0.21909
 C564 C 0.16176 0.55790 0.23396
 C565 C 0.13602 0.55359 0.23201
 C566 C 0.12702 0.53577 0.21504
 C567 C 0.14371 0.52224 0.20014
 C568 C 0.23026 0.52392 0.17038
 C569 C 0.24554 0.53794 0.15435
 C570 C 0.23492 0.55558 0.13805
 C571 C 0.20903 0.55932 0.13801
 C572 C 0.19375 0.54530 0.15396
 H573 H 0.18754 0.48983 0.13505
 H574 H 0.21349 0.46616 0.10530
 H575 H 0.24825 0.42704 0.16688
 H576 H 0.22255 0.45090 0.19672
 H577 H 0.15483 0.45043 0.17351
 H578 H 0.12701 0.42654 0.20128
 H579 H 0.18562 0.48865 0.23768
 H580 H 0.19834 0.54785 0.22081
 H581 H 0.16890 0.57174 0.24694
 H582 H 0.10713 0.53243 0.21326
 H583 H 0.13647 0.50872 0.18689
 H584 H 0.23872 0.51040 0.18295
 H585 H 0.26558 0.53497 0.15460
 H586 H 0.20062 0.57293 0.12550
 H587 H 0.17372 0.54824 0.15347
 H588 H 0.15743 0.46489 0.26541
 C589 C 0.81361 0.48633 0.18753
 C590 C 0.81365 0.51185 0.18830
 C591 C 0.79644 0.52699 0.17251
 C592 C 0.83160 0.52598 0.20414
 C593 C 0.82985 0.47115 0.20432
 C594 C 0.79802 0.47234 0.16923
 C595 C 0.80628 0.54534 0.15642
 C596 C 0.79050 0.55914 0.14077
 C597 C 0.76469 0.55489 0.14116
 C598 C 0.75465 0.53702 0.15755
 C599 C 0.77044 0.52321 0.17327
 C600 C 0.85752 0.52230 0.20171
 C601 C 0.87421 0.53604 0.21642
 C602 C 0.86521 0.55376 0.23351
 C603 C 0.83944 0.55770 0.23580
 C604 C 0.82272 0.54396 0.22113
 C605 C 0.82924 0.47432 0.23048
 C606 C 0.84546 0.46064 0.24588
 C607 C 0.86222 0.44351 0.23530
 C608 C 0.86244 0.43982 0.20932
 C609 C 0.84629 0.45349 0.19392
 C610 C 0.78132 0.45392 0.17774
 C611 C 0.76650 0.44071 0.16070
 C612 C 0.76837 0.44564 0.13497
 C613 C 0.78526 0.46372 0.12633
 C614 C 0.80011 0.47692 0.14335
 H615 H 0.82625 0.54861 0.15561
 H616 H 0.79845 0.57295 0.12818
 H617 H 0.73468 0.53365 0.15805
 H618 H 0.76245 0.50944 0.18586
 H619 H 0.86477 0.50892 0.18833
 H620 H 0.89413 0.53296 0.21437
 H621 H 0.80283 0.54722 0.22309
 H622 H 0.81641 0.48754 0.23891
 H623 H 0.84507 0.46357 0.26597
 H624 H 0.87530 0.42658 0.20094
 H625 H 0.84698 0.45070 0.17382
 H626 H 0.77959 0.44998 0.19760
 H627 H 0.75359 0.42667 0.16759
 H628 H 0.78700 0.46755 0.10645
 H629 H 0.81325 0.49068 0.13636
 H630 H 0.83227 0.57144 0.24888
 C631 C 0.18586 0.48877 0.81235
 C632 C 0.18591 0.51428 0.81265
 C633 C 0.20153 0.52852 0.83068
 C634 C 0.16959 0.52925 0.79574
 C635 C 0.16795 0.47441 0.79671
 C636 C 0.20292 0.47382 0.82852
 C637 C 0.19928 0.52450 0.85664
 C638 C 0.21414 0.53797 0.87342
 C639 C 0.23118 0.55574 0.86444
 C640 C 0.23321 0.56011 0.83863
 C641 C 0.21838 0.54664 0.82182
 C642 C 0.15332 0.54715 0.80600
 C643 C 0.13723 0.56080 0.79052
 C644 C 0.13731 0.55685 0.76459
 C645 C 0.15385 0.53942 0.75413
 C646 C 0.17002 0.52576 0.76961
 C647 C 0.17689 0.45627 0.77994
 C648 C 0.16021 0.44231 0.76545
 C649 C 0.13443 0.44622 0.76773
 C650 C 0.12538 0.46411 0.78460
 C651 C 0.14204 0.47806 0.79913
 C652 C 0.22895 0.47743 0.82783
 C653 C 0.24459 0.46365 0.84376
 C654 C 0.23437 0.44601 0.86029
 C655 C 0.20852 0.44200 0.86066
 C656 C 0.19289 0.45575 0.84482
 H657 H 0.18602 0.51098 0.86385
 H658 H 0.21229 0.53458 0.89337
 H659 H 0.24624 0.57391 0.83150
 H660 H 0.22020 0.55013 0.80189
 H661 H 0.15275 0.55020 0.82607
 H662 H 0.12454 0.57426 0.79881
 H663 H 0.18272 0.51236 0.76128
 H664 H 0.19679 0.45304 0.77801
 H665 H 0.16740 0.42844 0.75253
 H666 H 0.10545 0.46716 0.78663
 H667 H 0.13476 0.49158 0.81236
 H668 H 0.23709 0.49097 0.81510
 H669 H 0.26458 0.46683 0.84325
 H670 H 0.20042 0.42837 0.87335
 H671 H 0.17290 0.45262 0.84558
 H672 H 0.15414 0.53628 0.73406
 C673 C 0.27480 0.40527 0.08424
 C674 C 0.26595 0.38232 0.07529
 C675 C 0.27984 0.36885 0.05768
 C676 C 0.30279 0.37817 0.04878
 C677 C 0.31163 0.40117 0.05806
 C678 C 0.29770 0.41462 0.07567
 C679 C 0.26017 0.41934 0.10193
 C680 C 0.24774 0.43109 0.11662
 H681 H 0.24824 0.37492 0.08179
 H682 H 0.27249 0.35122 0.05093
 H683 H 0.32921 0.40887 0.05158
 H684 H 0.30471 0.43238 0.08247
 C685 C 0.72154 0.59418 0.09174
 C686 C 0.73040 0.61722 0.08296
 C687 C 0.71701 0.63046 0.06476
 C688 C 0.69455 0.62079 0.05504
 C689 C 0.68565 0.59772 0.06419
 C690 C 0.69909 0.58450 0.08241
 C691 C 0.73602 0.58019 0.10967
 C692 C 0.74875 0.56859 0.12428
 H693 H 0.74780 0.62485 0.09001
 H694 H 0.72438 0.64816 0.05814
 H695 H 0.66843 0.58977 0.05709
 H696 H 0.69212 0.56663 0.08903
 C697 C 0.72127 0.40371 0.91018
 C698 C 0.69875 0.41337 0.91937
 C699 C 0.68538 0.40029 0.93772
 C700 C 0.69442 0.37738 0.94714
 C701 C 0.71693 0.36769 0.93755
 C702 C 0.73026 0.38080 0.91921
 C703 C 0.73566 0.41767 0.89218
 C704 C 0.74823 0.42937 0.87751
 H705 H 0.69168 0.43114 0.91256
 H706 H 0.66812 0.40826 0.94471
 H707 H 0.72440 0.35011 0.94439
 H708 H 0.74771 0.37320 0.91227
 C709 C 0.27373 0.59543 0.91390
 C710 C 0.26509 0.61854 0.92262
 C711 C 0.27909 0.63205 0.94008
 C712 C 0.30197 0.62259 0.94908
 C713 C 0.31060 0.59941 0.94004
 C714 C 0.29654 0.58592 0.92257
 C715 C 0.25897 0.58136 0.89634
 C716 C 0.24638 0.56965 0.88175
 H717 H 0.24744 0.62605 0.91603
 H718 H 0.27190 0.64982 0.94665
 H719 H 0.32812 0.59161 0.94660
 H720 H 0.30339 0.56803 0.91594
 C721 C 0.08961 0.27797 0.40778
 C722 C 0.08089 0.26898 0.38476
 C723 C 0.06296 0.28246 0.37127
 C724 C 0.05347 0.30516 0.38066
 C725 C 0.06250 0.31415 0.40374
 C726 C 0.08045 0.30061 0.41721
 C727 C 0.10745 0.26352 0.42191
 C728 C 0.12207 0.25086 0.43357
 H729 H 0.08781 0.25144 0.37732
 H730 H 0.05643 0.27501 0.35357
 H731 H 0.05558 0.33155 0.41148
 H732 H 0.08703 0.30770 0.43505
 C733 C 0.08341 0.72556 0.59346
 C734 C 0.07459 0.73423 0.61655
 C735 C 0.05714 0.72021 0.63010
 C736 C 0.04825 0.69728 0.62070
 C737 C 0.05735 0.68864 0.59751
 C738 C 0.07481 0.70271 0.58399
 C739 C 0.10111 0.74025 0.57943
 C740 C 0.11586 0.75273 0.56777
 H741 H 0.08112 0.75189 0.62405
 H742 H 0.05052 0.72740 0.64787
 H743 H 0.05088 0.67108 0.58975
 H744 H 0.08152 0.69583 0.56612
 C745 C 0.91540 0.72567 0.40581
 C746 C 0.92404 0.70276 0.41519
 C747 C 0.94142 0.68874 0.40154
 C748 C 0.95039 0.69751 0.37832
 C749 C 0.94145 0.72050 0.36900
 C750 C 0.92409 0.73446 0.38267
 C751 C 0.89781 0.74032 0.41997
 C752 C 0.88314 0.75277 0.43173
 H753 H 0.91743 0.69579 0.43309
 H754 H 0.94793 0.67114 0.40925
 H755 H 0.94798 0.72779 0.35120
 H756 H 0.91752 0.75218 0.37524
 C757 C 0.91353 0.27346 0.59528
 C758 C 0.92221 0.29642 0.58610
 C759 C 0.93942 0.31038 0.59998
 C760 C 0.94818 0.30152 0.62325
 C761 C 0.93915 0.27852 0.63242
 C762 C 0.92194 0.26460 0.61851
 C763 C 0.89630 0.25882 0.58071
 C764 C 0.88198 0.24645 0.56847
 H765 H 0.91582 0.30344 0.56813
 H766 H 0.94601 0.32799 0.59238
 H767 H 0.94553 0.27117 0.65025
 H768 H 0.91534 0.24684 0.62578
 C769 C 0.40402 0.08991 0.27760
 C770 C 0.41356 0.08073 0.30026
 C771 C 0.40039 0.06250 0.31372
 C772 C 0.37752 0.05320 0.30462
 C773 C 0.36802 0.06270 0.28190
 C774 C 0.38120 0.08092 0.26850
 C775 C 0.41787 0.10802 0.26322
 C776 C 0.42934 0.12284 0.25063
 H777 H 0.43125 0.08752 0.30743
 H778 H 0.40821 0.05558 0.33114
 H779 H 0.35047 0.05597 0.27437
 H780 H 0.37368 0.08784 0.25094
 C781 C 0.59647 0.09033 0.72253
 C782 C 0.58671 0.08103 0.70005
 C783 C 0.59984 0.06284 0.68657
 C784 C 0.62289 0.05371 0.69546
 C785 C 0.63260 0.06334 0.71799
 C786 C 0.61946 0.08152 0.73141
 C787 C 0.58262 0.10837 0.73692
 C788 C 0.57106 0.12312 0.74945
 H789 H 0.56889 0.08768 0.69305
 H790 H 0.59185 0.05582 0.66930
 H791 H 0.65029 0.05674 0.72535
 H792 H 0.62714 0.08855 0.74883
 C793 C 0.40668 0.90854 0.72124
 C794 C 0.41607 0.91784 0.69857
 C795 C 0.40265 0.93592 0.68514
 C796 C 0.37968 0.94497 0.69429
 C797 C 0.37031 0.93529 0.71698
 C798 C 0.38373 0.91722 0.73034
 C799 C 0.42085 0.89073 0.73568
 C800 C 0.43257 0.87618 0.74838
 H801 H 0.43385 0.91129 0.69140
 H802 H 0.41039 0.94299 0.66775
 H803 H 0.35269 0.94183 0.72454
 H804 H 0.37633 0.91020 0.74791
 C805 C 0.59475 0.91489 0.27386
 C806 C 0.58561 0.92363 0.29681
 C807 C 0.59939 0.94101 0.31068
 C808 C 0.62250 0.94986 0.30171
 C809 C 0.63159 0.94080 0.27869
 C810 C 0.61779 0.92344 0.26487
 C811 C 0.58042 0.89738 0.25933
 C812 C 0.56849 0.88280 0.24694
 H813 H 0.56778 0.91713 0.30392
 H814 H 0.59187 0.94763 0.32832
 H815 H 0.64930 0.94723 0.27125
 H816 H 0.62503 0.91678 0.24712
 C817 C 0.40409 0.27786 0.90770
 C818 C 0.41369 0.30035 0.91704
 C819 C 0.40040 0.31380 0.93515
 C820 C 0.37734 0.30485 0.94416
 C821 C 0.36776 0.28233 0.93446
 C822 C 0.38107 0.26895 0.91637
 C823 C 0.41813 0.26345 0.88984
 C824 C 0.42982 0.25083 0.87527
 H825 H 0.43154 0.30737 0.91050
 H826 H 0.40828 0.33106 0.94223
 H827 H 0.35006 0.27494 0.94097
 H828 H 0.37351 0.25152 0.90931
 C829 C 0.59604 0.72100 0.91138
 C830 C 0.58639 0.69840 0.92048
 C831 C 0.59942 0.68488 0.93879
 C832 C 0.62228 0.69386 0.94826
 C833 C 0.63192 0.71650 0.93880
 C834 C 0.61886 0.72995 0.92050
 C835 C 0.58225 0.73548 0.89326
 C836 C 0.57081 0.74814 0.87845
 H837 H 0.56869 0.69133 0.91359
 H838 H 0.59150 0.66753 0.94568
 H839 H 0.64945 0.72394 0.94566
 H840 H 0.62647 0.74747 0.91363
 C841 C 0.40505 0.72542 0.08685
 C842 C 0.38187 0.73412 0.07838
 C843 C 0.36818 0.72020 0.06100
 C844 C 0.37752 0.69734 0.05185
 C845 C 0.40076 0.68863 0.06066
 C846 C 0.41443 0.70261 0.07805
 C847 C 0.41931 0.74013 0.10427
 C848 C 0.43117 0.75272 0.11872
 H849 H 0.37445 0.75176 0.08507
 H850 H 0.35036 0.72744 0.05461
 H851 H 0.40848 0.67113 0.05398
 H852 H 0.43238 0.69572 0.08450
 C853 C 0.59511 0.27947 0.09160
 C854 C 0.61796 0.27023 0.08281
 C855 C 0.63141 0.28350 0.06468
 C856 C 0.62213 0.30622 0.05506
 C857 C 0.59929 0.31554 0.06427
 C858 C 0.58587 0.30222 0.08241
 C859 C 0.58078 0.26508 0.10931
 C860 C 0.56885 0.25246 0.12373
 H861 H 0.62524 0.25259 0.08975
 H862 H 0.64891 0.27581 0.05801
 H863 H 0.59164 0.33297 0.05725
 H864 H 0.56816 0.30950 0.08903
 C865 C 0.27845 0.08810 0.59619
 C866 C 0.30093 0.07904 0.58629
 C867 C 0.31452 0.06073 0.59923
 C868 C 0.30575 0.05122 0.62224
 C869 C 0.28324 0.06063 0.63211
 C870 C 0.26970 0.07893 0.61916
 C871 C 0.26392 0.10625 0.58253
 C872 C 0.25122 0.12110 0.57119
 H873 H 0.30784 0.08597 0.56848
 H874 H 0.33177 0.05389 0.59112
 H875 H 0.27596 0.05374 0.64977
 H876 H 0.25229 0.08576 0.62695
 C877 C 0.72670 0.08599 0.40318
 C878 C 0.73531 0.07722 0.38006
 C879 C 0.72126 0.05984 0.36650
 C880 C 0.69828 0.05090 0.37591
 C881 C 0.68971 0.06008 0.39916
 C882 C 0.70385 0.07747 0.41266
 C883 C 0.74150 0.10348 0.41728
 C884 C 0.75407 0.11802 0.42906
 H885 H 0.75299 0.08371 0.37255
 H886 H 0.72856 0.05334 0.34872
 H887 H 0.67217 0.05375 0.40709
 H888 H 0.69701 0.08416 0.43056
 C889 C 0.72491 0.91440 0.59359
 C890 C 0.73388 0.92320 0.61658
 C891 C 0.72002 0.94061 0.63031
 C892 C 0.69696 0.94948 0.62119
 C893 C 0.68798 0.94035 0.59815
 C894 C 0.70189 0.92292 0.58445
 C895 C 0.73951 0.89690 0.57927
 C896 C 0.75195 0.88234 0.56735
 H897 H 0.75168 0.91672 0.62382
 H898 H 0.72748 0.94727 0.64796
 H899 H 0.67032 0.94681 0.59060
 H900 H 0.69478 0.91623 0.56666
 C901 C 0.27496 0.91337 0.40565
 C902 C 0.29771 0.92210 0.41520
 C903 C 0.31174 0.93958 0.40164
 C904 C 0.30314 0.94856 0.37835
 C905 C 0.28035 0.93946 0.36883
 C906 C 0.26638 0.92199 0.38241
 C907 C 0.26018 0.89589 0.41985
 C908 C 0.24756 0.88139 0.43168
 H909 H 0.30451 0.91555 0.43319
 H910 H 0.32918 0.94622 0.40949
 H911 H 0.27320 0.94599 0.35098
 H912 H 0.24879 0.91536 0.37486
 C913 C 0.08553 0.40489 0.72619
 C914 C 0.07687 0.38193 0.73538
 C915 C 0.05961 0.36799 0.72155
 C916 C 0.05076 0.37688 0.69833
 C917 C 0.05976 0.39989 0.68914
 C918 C 0.07703 0.41379 0.70301
 C919 C 0.10286 0.41947 0.74070
 C920 C 0.11728 0.43169 0.75298
 H921 H 0.08334 0.37488 0.75331
 H922 H 0.05305 0.35037 0.72916
 H923 H 0.05332 0.40726 0.67134
 H924 H 0.08362 0.43155 0.69573
 C925 C 0.08699 0.59390 0.27443
 C926 C 0.07830 0.58459 0.29737
 C927 C 0.06103 0.59834 0.31142
 C928 C 0.05223 0.62159 0.30265
 C929 C 0.06124 0.63086 0.27964
 C930 C 0.07849 0.61708 0.26564
 C931 C 0.10437 0.57958 0.25970
 C932 C 0.11883 0.56768 0.24716
 H933 H 0.08476 0.56665 0.30433
 H934 H 0.05446 0.59068 0.32904
 H935 H 0.05484 0.64867 0.27234
 H936 H 0.08510 0.62445 0.24789
 C937 C 0.91272 0.40501 0.27792
 C938 C 0.92166 0.41470 0.30057
 C939 C 0.93986 0.40169 0.31421
 C940 C 0.94938 0.37880 0.30531
 C941 C 0.94015 0.36917 0.28258
 C942 C 0.92197 0.38220 0.26900
 C943 C 0.89453 0.41866 0.26346
 C944 C 0.87959 0.43001 0.25088
 H945 H 0.91467 0.43238 0.30761
 H946 H 0.94656 0.40961 0.33164
 H947 H 0.94706 0.35160 0.27521
 H948 H 0.91522 0.37456 0.25145
 C949 C 0.90950 0.59453 0.72302
 C950 C 0.91843 0.61742 0.73202
 C951 C 0.93645 0.63072 0.71851
 C952 C 0.94584 0.62126 0.69577
 C953 C 0.93665 0.59828 0.68678
 C954 C 0.91860 0.58500 0.70035
 C955 C 0.89148 0.58065 0.73743
 C956 C 0.87669 0.56916 0.75004
 H957 H 0.91155 0.62493 0.74958
 H958 H 0.94310 0.64834 0.72595
 H959 H 0.94348 0.59050 0.66935
 H960 H 0.91186 0.56726 0.69325
 C961 C 0.72462 0.59279 0.91683
 C962 C 0.73340 0.61577 0.92573
 C963 C 0.71940 0.62938 0.94314
 C964 C 0.69629 0.62019 0.95198
 C965 C 0.68760 0.59705 0.94273
 C966 C 0.70168 0.58349 0.92531
 C967 C 0.73928 0.57874 0.89912
 C968 C 0.75172 0.56707 0.88433
 H969 H 0.75114 0.62314 0.91928
 H970 H 0.72681 0.64706 0.94970
 H971 H 0.66996 0.58928 0.94899
 H972 H 0.69471 0.56572 0.91853
 C973 C 0.27716 0.40609 0.90958
 C974 C 0.29988 0.41530 0.91868
 C975 C 0.31336 0.40171 0.93661
 C976 C 0.30425 0.37865 0.94577
 C977 C 0.28141 0.36952 0.93623
 C978 C 0.26802 0.38316 0.91832
 C979 C 0.26278 0.42038 0.89178
 C980 C 0.25017 0.43217 0.87720
 H981 H 0.30709 0.43307 0.91207
 H982 H 0.33082 0.40942 0.94339
 H983 H 0.27371 0.35190 0.94268
 H984 H 0.25041 0.37589 0.91142
 C985 C 0.27710 0.59583 0.08851
 C986 C 0.26790 0.61870 0.07963
 C987 C 0.28125 0.63225 0.06161
 C988 C 0.30409 0.62308 0.05212
 C989 C 0.31327 0.60010 0.06144
 C990 C 0.29984 0.58661 0.07946
 C991 C 0.26281 0.58156 0.10638
 C992 C 0.25038 0.56967 0.12102
 H993 H 0.25027 0.62598 0.08648
 H994 H 0.27350 0.64981 0.05503
 H995 H 0.33074 0.59236 0.05471
 H996 H 0.30711 0.56889 0.08618
 C997 C 0.72573 0.40638 0.08511
 C998 C 0.70286 0.41586 0.07658
 C999 C 0.68860 0.40231 0.05929
 C1000 C 0.69705 0.37900 0.05023
 C1001 C 0.72010 0.36965 0.05911
 C1002 C 0.73427 0.38325 0.07637
 C1003 C 0.74056 0.42038 0.10272
 C1004 C 0.75317 0.43195 0.11743
 H1005 H 0.69607 0.43377 0.08323
 H1006 H 0.67102 0.41020 0.05300
 H1007 H 0.72733 0.35183 0.05269
 H1008 H 0.75195 0.37573 0.08286
 C1009 C 0.90897 0.72186 0.59528
 C1010 C 0.91804 0.69921 0.58583
 C1011 C 0.93615 0.68572 0.59912
 C1012 C 0.94553 0.69476 0.62212
 C1013 C 0.93600 0.71751 0.63152
 C1014 C 0.91790 0.73090 0.61818
 C1015 C 0.89109 0.73630 0.58120
 C1016 C 0.87650 0.74895 0.56949
 H1017 H 0.91128 0.69207 0.56808
 H1018 H 0.94291 0.66832 0.59121
 H1019 H 0.94262 0.72514 0.64911
 H1020 H 0.91104 0.74847 0.62563
 C1021 C 0.91327 0.27836 0.40543
 C1022 C 0.92210 0.30107 0.41498
 C1023 C 0.94035 0.31461 0.40194
 C1024 C 0.95010 0.30558 0.37909
 C1025 C 0.94087 0.28273 0.36964
 C1026 C 0.92265 0.26928 0.38272
 C1027 C 0.89505 0.26396 0.41910
 C1028 C 0.88011 0.25131 0.43035
 H1029 H 0.91500 0.30823 0.43259
 H1030 H 0.94688 0.33208 0.40988
 H1031 H 0.94778 0.27508 0.35216
 H1032 H 0.91598 0.25169 0.37519
 C1033 C 0.08555 0.27364 0.59750
 C1034 C 0.07700 0.29654 0.58805
 C1035 C 0.05951 0.31059 0.60152
 C1036 C 0.05024 0.30188 0.62472
 C1037 C 0.05924 0.27886 0.63412
 C1038 C 0.07672 0.26490 0.62059
 C1039 C 0.10311 0.25891 0.58336
 C1040 C 0.11769 0.24642 0.57153
 H1041 H 0.08373 0.30348 0.57018
 H1042 H 0.05314 0.32816 0.59360
 H1043 H 0.05267 0.27146 0.65186
 H1044 H 0.08323 0.24719 0.62807
 C1045 C 0.08947 0.72226 0.40391
 C1046 C 0.08049 0.69950 0.41326
 C1047 C 0.06247 0.68605 0.39989
 C1048 C 0.05309 0.69522 0.37690
 C1049 C 0.06254 0.71806 0.36758
 C1050 C 0.08055 0.73144 0.38102
 C1051 C 0.10729 0.73663 0.41808
 C1052 C 0.12186 0.74918 0.42987
 H1053 H 0.08724 0.69226 0.43101
 H1054 H 0.05577 0.66857 0.40773
 H1055 H 0.05592 0.72580 0.35000
 H1056 H 0.08735 0.74907 0.37363
 C1057 C 0.59574 0.91454 0.72568
 C1058 C 0.58622 0.92308 0.70275
 C1059 C 0.59961 0.94057 0.68855
 C1060 C 0.62273 0.94976 0.69713
 C1061 C 0.63221 0.94091 0.72013
 C1062 C 0.61879 0.92343 0.73428
 C1063 C 0.58176 0.89689 0.74052
 C1064 C 0.57007 0.88219 0.75308
 H1065 H 0.56838 0.91633 0.69592
 H1066 H 0.59177 0.94700 0.67095
 H1067 H 0.64993 0.94760 0.72728
 H1068 H 0.62633 0.91696 0.75200
 C1069 C 0.40519 0.91226 0.27727
 C1070 C 0.38239 0.92125 0.26805
 C1071 C 0.36900 0.93927 0.28146
 C1072 C 0.37825 0.94859 0.30431
 C1073 C 0.40113 0.93931 0.31352
 C1074 C 0.41451 0.92127 0.30006
 C1075 C 0.41921 0.89424 0.26298
 C1076 C 0.43081 0.87944 0.25050
 H1077 H 0.37504 0.91444 0.25041
 H1078 H 0.35146 0.94599 0.27385
 H1079 H 0.40878 0.94608 0.33104
 H1080 H 0.43217 0.91449 0.30734
 C1081 C 0.59488 0.08783 0.27454
 C1082 C 0.58608 0.07925 0.29772
 C1083 C 0.60002 0.06190 0.31156
 C1084 C 0.62298 0.05289 0.30235
 C1085 C 0.63179 0.06184 0.27914
 C1086 C 0.61781 0.07919 0.26534
 C1087 C 0.58023 0.10518 0.26000
 C1088 C 0.56795 0.11960 0.24768
 H1089 H 0.56835 0.08581 0.30501
 H1090 H 0.59270 0.05538 0.32934
 H1091 H 0.64936 0.05528 0.27150
 H1092 H 0.62479 0.08571 0.24741
 C1093 C 0.40821 0.08383 0.72440
 C1094 C 0.38529 0.07495 0.73338
 C1095 C 0.37162 0.05752 0.71949
 C1096 C 0.38071 0.04871 0.69636
 C1097 C 0.40373 0.05784 0.68741
 C1098 C 0.41738 0.07529 0.70136
 C1099 C 0.42233 0.10157 0.73894
 C1100 C 0.43400 0.11638 0.75132
 H1101 H 0.37802 0.08143 0.75118
 H1102 H 0.35399 0.05088 0.72692
 H1103 H 0.41126 0.05144 0.66970
 H1104 H 0.43511 0.08204 0.69423
 C1105 C 0.59351 0.72223 0.08907
 C1106 C 0.61645 0.73120 0.08021
 C1107 C 0.62984 0.71766 0.06229
 C1108 C 0.62046 0.69490 0.05294
 C1109 C 0.59743 0.68596 0.06206
 C1110 C 0.58405 0.69957 0.08000
 C1111 C 0.57956 0.73667 0.10704
 C1112 C 0.56808 0.74932 0.12179
 H1113 H 0.62392 0.74875 0.08705
 H1114 H 0.64750 0.72507 0.05569
 H1115 H 0.58969 0.66852 0.05526
 H1116 H 0.56628 0.69249 0.08669
 C1117 C 0.40471 0.27481 0.08361
 C1118 C 0.41405 0.29776 0.07507
 C1119 C 0.40058 0.31182 0.05751
 C1120 C 0.37755 0.30307 0.04824
 C1121 C 0.36825 0.28004 0.05708
 C1122 C 0.38176 0.26603 0.07463
 C1123 C 0.41875 0.26014 0.10140
 C1124 C 0.43048 0.24774 0.11622
 H1125 H 0.43181 0.30474 0.08190
 H1126 H 0.40826 0.32945 0.05109
 H1127 H 0.35061 0.27275 0.05033
 H1128 H 0.37436 0.24828 0.08111
 C1129 C 0.59234 0.27500 0.91615
 C1130 C 0.58314 0.29797 0.92472
 C1131 C 0.59684 0.31196 0.94212
 C1132 C 0.61994 0.30311 0.95115
 C1133 C 0.62904 0.28001 0.94234
 C1134 C 0.61532 0.26609 0.92498
 C1135 C 0.57825 0.26045 0.89837
 C1136 C 0.56667 0.24804 0.88351
 H1137 H 0.56537 0.30505 0.91801
 H1138 H 0.58931 0.32965 0.94852
 H1139 H 0.64674 0.27265 0.94891
 H1140 H 0.62262 0.24833 0.91847
 C1141 C 0.40538 0.72515 0.91374
 C1142 C 0.38239 0.73419 0.92242
 C1143 C 0.36849 0.72029 0.93975
 C1144 C 0.37743 0.69714 0.94865
 C1145 C 0.40045 0.68810 0.93962
 C1146 C 0.41431 0.70204 0.92229
 C1147 C 0.41994 0.73976 0.89637
 C1148 C 0.43216 0.75209 0.88191
 H1149 H 0.37530 0.75206 0.91593
 H1150 H 0.35087 0.72779 0.94633
 H1151 H 0.40788 0.67037 0.94610
 H1152 H 0.43208 0.69487 0.91570
 C1153 C 0.72405 0.91124 0.40275
 C1154 C 0.70148 0.92043 0.41229
 C1155 C 0.68808 0.93863 0.39903
 C1156 C 0.69713 0.94790 0.37603
 C1157 C 0.71974 0.93838 0.36650
 C1158 C 0.73310 0.92018 0.37980
 C1159 C 0.73834 0.89319 0.41679
 C1160 C 0.75074 0.87842 0.42855
 H1161 H 0.69435 0.91368 0.43008
 H1162 H 0.67074 0.94556 0.40688
 H1163 H 0.72722 0.94511 0.34886
 H1164 H 0.75059 0.91325 0.37227
 C1165 C 0.27722 0.91052 0.59414
 C1166 C 0.29976 0.91962 0.58438
 C1167 C 0.31347 0.93757 0.59761
 C1168 C 0.30477 0.94668 0.62077
 C1169 C 0.28215 0.93730 0.63045
 C1170 C 0.26850 0.91937 0.61721
 C1171 C 0.26268 0.89255 0.58032
 C1172 C 0.25000 0.87779 0.56891
 H1173 H 0.30666 0.91294 0.56650
 H1174 H 0.33081 0.94439 0.58964
 H1175 H 0.27492 0.94389 0.64822
 H1176 H 0.25105 0.91251 0.62491
 C1177 C 0.27437 0.08622 0.40676
 C1178 C 0.29729 0.07760 0.41605
 C1179 C 0.31137 0.06038 0.40227
 C1180 C 0.30268 0.05154 0.37900
 C1181 C 0.27970 0.06050 0.36975
 C1182 C 0.26566 0.07771 0.38355
 C1183 C 0.25962 0.10355 0.42116
 C1184 C 0.24713 0.11796 0.43321
 H1185 H 0.30420 0.08407 0.43400
 H1186 H 0.32896 0.05385 0.40994
 H1187 H 0.27247 0.05407 0.35192
 H1188 H 0.24794 0.08427 0.37619
 C1189 C 0.72291 0.08927 0.59300
 C1190 C 0.73208 0.08063 0.61602
 C1191 C 0.71876 0.06271 0.62967
 C1192 C 0.69604 0.05316 0.62046
 C1193 C 0.68685 0.06211 0.59738
 C1194 C 0.70024 0.08004 0.58374
 C1195 C 0.73720 0.10710 0.57870
 C1196 C 0.74977 0.12170 0.56693
 H1197 H 0.74964 0.08761 0.62333
 H1198 H 0.72634 0.05624 0.64737
 H1199 H 0.66943 0.05514 0.58977
 H1200 H 0.69301 0.08656 0.56590
 C1201 C 0.91431 0.59460 0.27546
 C1202 C 0.92295 0.61765 0.26648
 C1203 C 0.94033 0.63142 0.28035
 C1204 C 0.94933 0.62228 0.30342
 C1205 C 0.94033 0.59919 0.31241
 C1206 C 0.92294 0.58545 0.29850
 C1207 C 0.89689 0.58018 0.26083
 C1208 C 0.88242 0.56811 0.24844
 H1209 H 0.91639 0.62491 0.24866
 H1210 H 0.94688 0.64911 0.27288
 H1211 H 0.94688 0.59161 0.33008
 H1212 H 0.91638 0.56762 0.30562
 C1213 C 0.91285 0.40487 0.72574
 C1214 C 0.92167 0.41396 0.70275
 C1215 C 0.93904 0.40009 0.68894
 C1216 C 0.94783 0.37693 0.69798
 C1217 C 0.93866 0.36787 0.72102
 C1218 C 0.92130 0.38176 0.73478
 C1219 C 0.89540 0.41936 0.74026
 C1220 C 0.88089 0.43140 0.75263
 H1221 H 0.91525 0.43183 0.69559
 H1222 H 0.94573 0.40760 0.67130
 H1223 H 0.94504 0.35013 0.72852
 H1224 H 0.91460 0.37456 0.75256
 C1225 C 0.08706 0.59580 0.72203
 C1226 C 0.07794 0.61859 0.73112
 C1227 C 0.05971 0.63175 0.71771
 C1228 C 0.05031 0.62227 0.69498
 C1229 C 0.05975 0.59942 0.68588
 C1230 C 0.07800 0.58628 0.69935
 C1231 C 0.10520 0.58194 0.73639
 C1232 C 0.12006 0.57044 0.74894
 H1233 H 0.08478 0.62610 0.74869
 H1234 H 0.05286 0.64927 0.72524
 H1235 H 0.05292 0.59161 0.66846
 H1236 H 0.08489 0.56861 0.69217
 C1237 C 0.09033 0.40554 0.27847
 C1238 C 0.08109 0.41529 0.30098
 C1239 C 0.06297 0.40213 0.31460
 C1240 C 0.05384 0.37905 0.30580
 C1241 C 0.06340 0.36936 0.28323
 C1242 C 0.08150 0.38253 0.26969
 C1243 C 0.10835 0.41935 0.26393
 C1244 C 0.12310 0.43073 0.25117
 H1245 H 0.08775 0.43313 0.30792
 H1246 H 0.05601 0.41011 0.33189
 H1247 H 0.05681 0.35165 0.27594
 H1248 H 0.08847 0.37484 0.25225
   
