data_POSCAR
  _audit_creation_date              2014-09-24
  _audit_creation_method            'ToBaCCo'
  _symmetry_space_group_name_H-M    'P1'
  _symmetry_Int_Tables_number       1
  _symmetry_cell_setting            triclinic
  loop_
  _symmetry_equiv_pos_as_xyz
 x,y,z
_cell_length_a 83.2939
_cell_length_b 83.9036
_cell_length_c 83.0706
_cell_angle_alpha 89.978100
_cell_angle_beta 89.970100
_cell_angle_gamma 90.003000
loop_
  _atom_site_label
  _atom_site_type_symbol
  _atom_site_fract_x
  _atom_site_fract_y
  _atom_site_fract_z
C1 C 0.32431 0.44554 0.92507
 C2 C 0.31738 0.45155 0.91092
 C3 C 0.30355 0.44449 0.90434
 C4 C 0.29660 0.43133 0.91218
 C5 C 0.30335 0.42522 0.92636
 C6 C 0.31725 0.43238 0.93286
 C7 C 0.33829 0.45243 0.93141
 C8 C 0.34551 0.44642 0.94559
 C9 C 0.33808 0.43333 0.95334
 C10 C 0.32417 0.42627 0.94704
 C11 C 0.31726 0.41294 0.95455
 C12 C 0.30352 0.40560 0.94806
 C13 C 0.29658 0.41192 0.93402
 H14 H 0.32298 0.46153 0.90480
 H15 H 0.28586 0.42588 0.90727
 H16 H 0.34315 0.46284 0.92545
 H17 H 0.34350 0.42794 0.96386
 H18 H 0.32258 0.40826 0.96548
 H19 H 0.28613 0.40622 0.92878
 C20 C 0.44814 0.82499 0.42678
 C21 C 0.45483 0.83868 0.43379
 C22 C 0.44789 0.84576 0.44759
 C23 C 0.43421 0.83839 0.45441
 C24 C 0.42747 0.82466 0.44755
 C25 C 0.43441 0.81795 0.43366
 C26 C 0.45478 0.81845 0.41272
 C27 C 0.44785 0.80499 0.40542
 C28 C 0.43425 0.79793 0.41249
 C29 C 0.42748 0.80432 0.42654
 C30 C 0.41368 0.79751 0.43338
 C31 C 0.40667 0.80416 0.44723
 C32 C 0.41374 0.81766 0.45431
 H33 H 0.46495 0.84421 0.42781
 H34 H 0.42892 0.84297 0.46537
 H35 H 0.46538 0.82385 0.40745
 H36 H 0.42868 0.78769 0.40683
 H37 H 0.40818 0.78726 0.42767
 H38 H 0.40852 0.82276 0.46510
 C39 C 0.94742 0.92549 0.82348
 C40 C 0.95454 0.91204 0.81641
 C41 C 0.94804 0.90497 0.80239
 C42 C 0.93427 0.91207 0.79547
 C43 C 0.92699 0.92544 0.80249
 C44 C 0.93354 0.93214 0.81658
 C45 C 0.95388 0.93218 0.83755
 C46 C 0.94653 0.94539 0.84515
 C47 C 0.93259 0.95189 0.83797
 C48 C 0.92611 0.94539 0.82385
 C49 C 0.91217 0.95186 0.81700
 C50 C 0.90545 0.94518 0.80303
 C51 C 0.91300 0.93200 0.79581
 H52 H 0.96547 0.90746 0.82170
 H53 H 0.92852 0.90677 0.78509
 H54 H 0.96418 0.92643 0.84294
 H55 H 0.92694 0.96240 0.84297
 H56 H 0.90629 0.96186 0.82279
 H57 H 0.90799 0.92688 0.78494
 C58 C 0.44655 -0.07614 0.32441
 C59 C 0.45312 -0.08984 0.31730
 C60 C 0.44603 -0.09663 0.30355
 C61 C 0.43238 -0.08940 0.29679
 C62 C 0.42566 -0.07572 0.30377
 C63 C 0.43275 -0.06906 0.31764
 C64 C 0.45338 -0.06958 0.33834
 C65 C 0.44658 -0.05606 0.34567
 C66 C 0.43288 -0.04902 0.33878
 C67 C 0.42591 -0.05543 0.32485
 C68 C 0.41202 -0.04863 0.31821
 C69 C 0.40483 -0.05528 0.30445
 C70 C 0.41183 -0.06876 0.29724
 H71 H 0.46351 -0.09546 0.32273
 H72 H 0.42695 -0.09444 0.28609
 H73 H 0.46404 -0.07499 0.34347
 H74 H 0.42740 -0.03876 0.34450
 H75 H 0.40658 -0.03839 0.32400
 H76 H 0.40648 -0.07385 0.28651
 C77 C 0.82273 0.30410 0.32374
 C78 C 0.81530 0.29770 0.33745
 C79 C 0.80149 0.30486 0.34399
 C80 C 0.79501 0.31844 0.33648
 C81 C 0.80230 0.32497 0.32275
 C82 C 0.81624 0.31780 0.31637
 C83 C 0.83673 0.29718 0.31748
 C84 C 0.84440 0.30380 0.30395
 C85 C 0.83778 0.31739 0.29659
 C86 C 0.82379 0.32445 0.30273
 C87 C 0.81741 0.33823 0.29562
 C88 C 0.80358 0.34551 0.30198
 C89 C 0.79605 0.33872 0.31550
 H90 H 0.82053 0.28738 0.34331
 H91 H 0.78428 0.32394 0.34133
 H92 H 0.84165 0.28661 0.32313
 H93 H 0.84375 0.32272 0.28632
 H94 H 0.82320 0.34329 0.28510
 H95 H 0.78554 0.34440 0.32065
 C96 C -0.19794 0.82428 0.82199
 C97 C -0.20420 0.83835 0.81537
 C98 C -0.19724 0.84546 0.80158
 C99 C -0.18387 0.83782 0.79445
 C100 C -0.17745 0.82377 0.80099
 C101 C -0.18451 0.81698 0.81480
 C102 C -0.20474 0.81758 0.83591
 C103 C -0.19818 0.80374 0.84282
 C104 C -0.18490 0.79643 0.83545
 C105 C -0.17797 0.80301 0.82158
 C106 C -0.16436 0.79601 0.81463
 C107 C -0.15700 0.80289 0.80108
 C108 C -0.16374 0.81668 0.79421
 H109 H -0.21485 0.84338 0.82084
 H110 H -0.17777 0.84314 0.78427
 H111 H -0.21484 0.82342 0.84164
 H112 H -0.17987 0.78565 0.84058
 H113 H -0.15939 0.78526 0.81988
 H114 H -0.15803 0.82217 0.78387
 C115 C 0.92648 0.32481 0.44798
 C116 C 0.93343 0.33859 0.45453
 C117 C 0.94686 0.34594 0.44719
 C118 C 0.95337 0.33873 0.43325
 C119 C 0.94657 0.32492 0.42664
 C120 C 0.93305 0.31794 0.43399
 C121 C 0.91278 0.31803 0.45503
 C122 C 0.90548 0.30450 0.44823
 C123 C 0.91225 0.29758 0.43438
 C124 C 0.92596 0.30422 0.42721
 C125 C 0.93248 0.29756 0.41315
 C126 C 0.94597 0.30447 0.40573
 C127 C 0.95300 0.31808 0.41265
 H128 H 0.92767 0.34399 0.46486
 H129 H 0.96407 0.34351 0.42764
 H130 H 0.90776 0.32331 0.46582
 H131 H 0.90659 0.28728 0.42892
 H132 H 0.92681 0.28723 0.40778
 H133 H 0.96351 0.32338 0.40710
 C134 C 0.42437 0.44425 0.82406
 C135 C 0.43110 0.45091 0.83799
 C136 C 0.44466 0.44398 0.84525
 C137 C 0.45161 0.43035 0.83827
 C138 C 0.44503 0.42356 0.82433
 C139 C 0.43134 0.43052 0.81720
 C140 C 0.41061 0.45094 0.81707
 C141 C 0.40363 0.44405 0.80332
 C142 C 0.41075 0.43045 0.79646
 C143 C 0.42449 0.42361 0.80334
 C144 C 0.43132 0.40982 0.79672
 C145 C 0.44486 0.40271 0.80384
 C146 C 0.45171 0.40974 0.81759
 H147 H 0.42578 0.46152 0.84317
 H148 H 0.46192 0.42480 0.84393
 H149 H 0.40508 0.46128 0.82259
 H150 H 0.40556 0.42516 0.78575
 H151 H 0.42608 0.40460 0.78601
 H152 H 0.46200 0.40421 0.82330
 C153 C 0.82448 0.92651 0.94708
 C154 C 0.81739 0.91295 0.95400
 C155 C 0.80372 0.90570 0.94703
 C156 C 0.79718 0.91271 0.93301
 C157 C 0.80408 0.92632 0.92607
 C158 C 0.81777 0.93325 0.93312
 C159 C 0.83838 0.93323 0.95382
 C160 C 0.84581 0.94675 0.94687
 C161 C 0.83866 0.95351 0.93302
 C162 C 0.82486 0.94682 0.92610
 C163 C 0.81825 0.95332 0.91202
 C164 C 0.80466 0.94641 0.90481
 C165 C 0.79757 0.93297 0.91200
 H166 H 0.82319 0.90765 0.96435
 H167 H 0.78634 0.90799 0.92764
 H168 H 0.84303 0.92808 0.96482
 H169 H 0.84423 0.96349 0.92693
 H170 H 0.82368 0.96380 0.90667
 H171 H 0.78724 0.92741 0.90640
 C172 C 0.32463 0.82546 0.30272
 C173 C 0.31792 0.83924 0.29591
 C174 C 0.30422 0.84658 0.30274
 C175 C 0.29721 0.83937 0.31644
 C176 C 0.30378 0.82557 0.32331
 C177 C 0.31756 0.81860 0.31648
 C178 C 0.33857 0.81864 0.29618
 C179 C 0.34558 0.80508 0.30324
 C180 C 0.33832 0.79820 0.31686
 C181 C 0.32437 0.80487 0.32352
 C182 C 0.31735 0.79822 0.33733
 C183 C 0.30360 0.80514 0.34425
 C184 C 0.29683 0.81875 0.33707
 H185 H 0.32404 0.84463 0.28578
 H186 H 0.28630 0.84413 0.32164
 H187 H 0.34398 0.82390 0.28556
 H188 H 0.34375 0.78789 0.32253
 H189 H 0.32280 0.78788 0.34293
 H190 H 0.28614 0.82406 0.34223
 C191 C 0.82380 0.42672 0.44672
 C192 C 0.81687 0.41331 0.45404
 C193 C 0.80301 0.40622 0.44757
 C194 C 0.79594 0.41289 0.43375
 C195 C 0.80270 0.42634 0.42635
 C196 C 0.81668 0.43330 0.43287
 C197 C 0.83786 0.43349 0.45299
 C198 C 0.84519 0.44684 0.44560
 C199 C 0.83770 0.45342 0.43183
 C200 C 0.82364 0.44672 0.42542
 C201 C 0.81667 0.45299 0.41139
 C202 C 0.80285 0.44600 0.40469
 C203 C 0.79588 0.43274 0.41234
 H204 H 0.82231 0.40835 0.46478
 H205 H 0.78541 0.40736 0.42851
 H206 H 0.84273 0.42850 0.46396
 H207 H 0.84316 0.46327 0.42544
 H208 H 0.82224 0.46307 0.40544
 H209 H 0.78512 0.42740 0.40738
 C210 C 0.94856 0.82452 -0.07307
 C211 C 0.95506 0.83847 -0.06643
 C212 C 0.94800 0.84565 -0.05287
 C213 C 0.93446 0.83852 -0.04578
 C214 C 0.92786 0.82454 -0.05226
 C215 C 0.93494 0.81750 -0.06595
 C216 C 0.95538 0.81765 -0.08685
 C217 C 0.94878 0.80379 -0.09391
 C218 C 0.93522 0.79679 -0.08644
 C219 C 0.92826 0.80358 -0.07266
 C220 C 0.91441 0.79691 -0.06576
 C221 C 0.90713 0.80397 -0.05224
 C222 C 0.91407 0.81770 -0.04547
 H223 H 0.96562 0.84378 -0.07186
 H224 H 0.92877 0.84410 -0.03548
 H225 H 0.96616 0.82302 -0.09172
 H226 H 0.92941 0.78652 -0.09174
 H227 H 0.90902 0.78646 -0.07121
 H228 H 0.90870 0.82311 -0.03491
 C229 C 0.32451 0.32457 0.80321
 C230 C 0.31799 0.33826 0.79604
 C231 C 0.30408 0.34543 0.80236
 C232 C 0.29661 0.33861 0.81590
 C233 C 0.30299 0.32494 0.82321
 C234 C 0.31700 0.31789 0.81686
 C235 C 0.33857 0.31762 0.79711
 C236 C 0.34532 0.30411 0.80452
 C237 C 0.33769 0.29746 0.81806
 C238 C 0.32362 0.30427 0.82429
 C239 C 0.31622 0.29783 0.83800
 C240 C 0.30233 0.30488 0.84449
 C241 C 0.29574 0.31838 0.83694
 H242 H 0.32374 0.34333 0.78551
 H243 H 0.28604 0.34420 0.82102
 H244 H 0.34450 0.32297 0.78682
 H245 H 0.34270 0.28695 0.82374
 H246 H 0.32153 0.28757 0.84389
 H247 H 0.28494 0.32379 0.84176
 C248 C 0.17767 0.55294 0.57113
 C249 C 0.16383 0.54626 0.56426
 C250 C 0.15673 0.55318 0.55057
 C251 C 0.16382 0.56677 0.54364
 C252 C 0.17759 0.57362 0.55042
 C253 C 0.18455 0.56670 0.56422
 C254 C 0.18447 0.54632 0.58505
 C255 C 0.19806 0.55329 0.59223
 C256 C 0.20494 0.56692 0.58516
 C257 C 0.19825 0.57370 0.57127
 C258 C 0.20481 0.58759 0.56454
 C259 C 0.19781 0.59467 0.55089
 C260 C 0.18430 0.58748 0.54381
 H261 H 0.15831 0.53594 0.56983
 H262 H 0.15855 0.57207 0.53298
 H263 H 0.17892 0.53598 0.59057
 H264 H 0.21551 0.57228 0.59050
 H265 H 0.21508 0.59317 0.57022
 H266 H 0.17893 0.59274 0.53317
 C267 C 0.57312 0.69736 0.07219
 C268 C 0.58723 0.70400 0.06586
 C269 C 0.59466 0.69730 0.05224
 C270 C 0.58763 0.68394 0.04482
 C271 C 0.57352 0.67716 0.05102
 C272 C 0.56624 0.68387 0.06477
 C273 C 0.56597 0.70380 0.08603
 C274 C 0.55207 0.69688 0.09265
 C275 C 0.54522 0.68351 0.08510
 C276 C 0.55222 0.67695 0.07125
 C277 C 0.54561 0.66336 0.06399
 C278 C 0.55287 0.65650 0.05036
 C279 C 0.56677 0.66357 0.04388
 H280 H 0.59245 0.71440 0.07155
 H281 H 0.59340 0.67854 0.03446
 H282 H 0.57149 0.71395 0.09191
 H283 H 0.53442 0.67820 0.09003
 H284 H 0.53507 0.65785 0.06924
 H285 H 0.57235 0.65848 0.03328
 C286 C 0.69841 0.17680 0.67795
 C287 C 0.70436 0.18346 0.66366
 C288 C 0.69690 0.19679 0.65665
 C289 C 0.68350 0.20363 0.66428
 C290 C 0.67746 0.19714 0.67864
 C291 C 0.68496 0.18367 0.68550
 C292 C 0.70562 0.16323 0.68464
 C293 C 0.69956 0.15613 0.69884
 C294 C 0.68620 0.16339 0.70640
 C295 C 0.67885 0.17694 0.69978
 C296 C 0.66518 0.18359 0.70701
 C297 C 0.65747 0.19686 0.70013
 C298 C 0.66380 0.20365 0.68600
 H299 H 0.71481 0.17822 0.65795
 H300 H 0.67752 0.21376 0.65884
 H301 H 0.71625 0.15852 0.67884
 H302 H 0.68079 0.15807 0.71696
 H303 H 0.66049 0.17840 0.71800
 H304 H 0.65781 0.21373 0.68048
 C305 C 1.07259 0.05167 0.17822
 C306 C 1.08653 0.04518 0.18512
 C307 C 1.09338 0.05204 0.19895
 C308 C 1.08593 0.06533 0.20604
 C309 C 1.07203 0.07193 0.19928
 C310 C 1.06531 0.06508 0.18533
 C311 C 1.06605 0.04510 0.16416
 C312 C 1.05224 0.05171 0.15685
 C313 C 1.04498 0.06506 0.16431
 C314 C 1.05146 0.07180 0.17835
 C315 C 1.04457 0.08548 0.18523
 C316 C 1.05136 0.09254 0.19900
 C317 C 1.06496 0.08551 0.20607
 H318 H 1.09233 0.03508 0.17943
 H319 H 1.09102 0.07059 0.21681
 H320 H 1.07161 0.03448 0.15928
 H321 H 1.03477 0.07090 0.15883
 H322 H 1.03420 0.09092 0.17958
 H323 H 1.07015 0.09071 0.21682
 C324 C 0.05080 0.17713 1.07197
 C325 C 0.04404 0.16356 1.06487
 C326 C 0.05107 0.15635 1.05119
 C327 C 0.06496 0.16353 1.04455
 C328 C 0.07186 0.17711 1.05158
 C329 C 0.06479 0.18392 1.06537
 C330 C 0.04390 0.18384 1.08580
 C331 C 0.05093 0.19713 1.09330
 C332 C 0.06483 0.20392 1.08658
 C333 C 0.07183 0.19737 1.07271
 C334 C 0.08597 0.20383 1.06630
 C335 C 0.09327 0.19699 1.05269
 C336 C 0.08605 0.18371 1.04532
 H337 H 0.03299 0.15894 1.06991
 H338 H 0.07107 0.15814 1.03442
 H339 H 0.03308 0.17864 1.09081
 H340 H 0.07049 0.21402 1.09242
 H341 H 0.09133 0.21419 1.07194
 H342 H 0.09172 0.17823 1.03496
 C343 C 0.17619 0.67557 0.69747
 C344 C 0.16223 0.68231 0.70399
 C345 C 0.15496 0.69560 0.69670
 C346 C 0.16203 0.70233 0.68289
 C347 C 0.17603 0.69574 0.67625
 C348 C 0.18312 0.68227 0.68353
 C349 C 0.18313 0.66204 0.70449
 C350 C 0.19684 0.65494 0.69770
 C351 C 0.20380 0.66179 0.68390
 C352 C 0.19700 0.67536 0.67675
 C353 C 0.20368 0.68194 0.66274
 C354 C 0.19662 0.69529 0.65533
 C355 C 0.18284 0.70217 0.66223
 H356 H 0.15699 0.67717 0.71475
 H357 H 0.15638 0.71244 0.67706
 H358 H 0.17780 0.65696 0.71525
 H359 H 0.21423 0.65627 0.67843
 H360 H 0.21439 0.67666 0.65759
 H361 H 0.17717 0.71230 0.65646
 C362 C 1.19797 0.17661 0.17805
 C363 C 1.20523 0.16314 0.18489
 C364 C 1.19906 0.15605 0.19906
 C365 C 1.18552 0.16320 0.20639
 C366 C 1.17812 0.17665 0.19962
 C367 C 1.18435 0.18338 0.18539
 C368 C 1.20404 0.18327 0.16380
 C369 C 1.19655 0.19651 0.15663
 C370 C 1.18297 0.20324 0.16407
 C371 C 1.17681 0.19675 0.17837
 C372 C 1.16301 0.20318 0.18555
 C373 C 1.15658 0.19640 0.19963
 C374 C 1.16431 0.18322 0.20665
 H375 H 1.21599 0.15852 0.17927
 H376 H 1.18002 0.15788 0.21690
 H377 H 1.21462 0.17812 0.15825
 H378 H 1.17696 0.21329 0.15851
 H379 H 1.15701 0.21319 0.17991
 H380 H 1.15953 0.17804 0.21761
 C381 C 0.67775 1.07494 0.55147
 C382 C 0.66392 1.06810 0.54478
 C383 C 0.65704 1.05435 0.55159
 C384 C 0.66435 1.04730 0.56508
 C385 C 0.67825 1.05396 0.57184
 C386 C 0.68498 1.06784 0.56500
 C387 C 0.68428 1.08893 0.54493
 C388 C 0.69802 1.09619 0.55173
 C389 C 0.70528 1.08869 0.56514
 C390 C 0.69881 1.07473 0.57183
 C391 C 0.70573 1.06780 0.58555
 C392 C 0.69896 1.05412 0.59261
 C393 C 0.68528 1.04719 0.58558
 H394 H 0.65847 1.07351 0.53427
 H395 H 0.65898 1.03687 0.57058
 H396 H 0.67876 1.09382 0.53423
 H397 H 0.71546 1.09410 0.57111
 H398 H 0.71639 1.07310 0.59078
 H399 H 0.67983 1.03679 0.59106
 C400 C 0.55000 0.57216 0.17876
 C401 C 0.54312 0.56571 0.16480
 C402 C 0.54987 0.55222 0.15735
 C403 C 0.56349 0.54504 0.16423
 C404 C 0.57050 0.55135 0.17819
 C405 C 0.56377 0.56497 0.18548
 C406 C 0.54357 0.58591 0.18589
 C407 C 0.55077 0.59268 0.19958
 C408 C 0.56440 0.58533 0.20630
 C409 C 0.57097 0.57158 0.19932
 C410 C 0.58486 0.56458 0.20572
 C411 C 0.59176 0.55110 0.19841
 C412 C 0.58439 0.54448 0.18473
 H413 H 0.53253 0.57124 0.15967
 H414 H 0.56895 0.53481 0.15844
 H415 H 0.53323 0.59163 0.18046
 H416 H 0.56994 0.59037 0.21695
 H417 H 0.59060 0.56993 0.21611
 H418 H 0.58952 0.53398 0.17912
 C419 C 0.67829 0.69776 0.17749
 C420 C 0.66440 0.70437 0.18428
 C421 C 0.65718 0.69739 0.19788
 C422 C 0.66423 0.68381 0.20486
 C423 C 0.67817 0.67708 0.19823
 C424 C 0.68521 0.68406 0.18447
 C425 C 0.68513 0.70440 0.16358
 C426 C 0.69876 0.69746 0.15646
 C427 C 0.70573 0.68395 0.16364
 C428 C 0.69901 0.67717 0.17752
 C429 C 0.70565 0.66339 0.18432
 C430 C 0.69858 0.65620 0.19788
 C431 C 0.68491 0.66323 0.20486
 H432 H 0.65915 0.71494 0.17893
 H433 H 0.65861 0.67820 0.21518
 H434 H 0.67953 0.71467 0.15800
 H435 H 0.71636 0.67864 0.15834
 H436 H 0.71630 0.65817 0.17898
 H437 H 0.67924 0.65764 0.21516
 C438 C 0.17769 0.05347 1.07250
 C439 C 0.16402 0.04653 1.06558
 C440 C 0.15671 0.05314 1.05174
 C441 C 0.16382 0.06684 1.04483
 C442 C 0.17747 0.07392 1.05168
 C443 C 0.18445 0.06719 1.06555
 C444 C 0.18458 0.04689 1.08640
 C445 C 0.19818 0.05388 1.09375
 C446 C 0.20489 0.06760 1.08647
 C447 C 0.19809 0.07430 1.07257
 C448 C 0.20446 0.08830 1.06584
 C449 C 0.19737 0.09528 1.05218
 C450 C 0.18398 0.08788 1.04508
 H451 H 0.15942 0.03566 1.07087
 H452 H 0.15832 0.07268 1.03460
 H453 H 0.17947 0.03599 1.09113
 H454 H 0.21493 0.07370 1.09199
 H455 H 0.21467 0.09401 1.07150
 H456 H 0.17859 0.09305 1.03441
 C457 C 0.57246 0.17677 0.55214
 C458 C 0.58640 0.18355 0.54561
 C459 C 0.59361 0.19690 0.55286
 C460 C 0.58648 0.20365 0.56662
 C461 C 0.57249 0.19703 0.57326
 C462 C 0.56547 0.18350 0.56602
 C463 C 0.56561 0.16316 0.54518
 C464 C 0.55193 0.15601 0.55201
 C465 C 0.54492 0.16289 0.56576
 C466 C 0.55162 0.17655 0.57282
 C467 C 0.54490 0.18313 0.58680
 C468 C 0.55189 0.19653 0.59419
 C469 C 0.56563 0.20346 0.58725
 H470 H 0.59170 0.17839 0.53490
 H471 H 0.59207 0.21379 0.57243
 H472 H 0.57099 0.15806 0.53447
 H473 H 0.53452 0.15733 0.57126
 H474 H 0.53422 0.17780 0.59196
 H475 H 0.57126 0.21362 0.59301
 C476 C 0.07189 0.55306 0.67681
 C477 C 0.08569 0.54627 0.68360
 C478 C 0.09311 0.55327 0.69707
 C479 C 0.08637 0.56709 0.70390
 C480 C 0.07253 0.57401 0.69725
 C481 C 0.06528 0.56699 0.68363
 C482 C 0.06482 0.54636 0.66306
 C483 C 0.05126 0.55345 0.65594
 C484 C 0.04461 0.56719 0.66297
 C485 C 0.05158 0.57404 0.67668
 C486 C 0.04523 0.58804 0.68332
 C487 C 0.05248 0.59525 0.69675
 C488 C 0.06607 0.58807 0.70374
 H489 H 0.09069 0.53553 0.67838
 H490 H 0.09214 0.57270 0.71412
 H491 H 0.07017 0.53590 0.65760
 H492 H 0.03405 0.57262 0.65769
 H493 H 0.03464 0.59337 0.67798
 H494 H 0.07186 0.59366 0.71396
 C495 C 0.67714 0.57490 0.05091
 C496 C 0.66341 0.56807 0.04403
 C497 C 0.65641 0.55434 0.05076
 C498 C 0.66354 0.54727 0.06435
 C499 C 0.67734 0.55393 0.07133
 C500 C 0.68415 0.56783 0.06461
 C501 C 0.68377 0.58888 0.04449
 C502 C 0.69726 0.59604 0.05166
 C503 C 0.70431 0.58881 0.06520
 C504 C 0.69781 0.57480 0.07175
 C505 C 0.70454 0.56787 0.08554
 C506 C 0.69773 0.55412 0.09243
 C507 C 0.68419 0.54716 0.08516
 H508 H 0.65811 0.57349 0.03345
 H509 H 0.65809 0.53684 0.06977
 H510 H 0.67838 0.59426 0.03393
 H511 H 0.71456 0.59436 0.07095
 H512 H 0.71509 0.57321 0.09095
 H513 H 0.67870 0.53672 0.09053
 C514 C 0.05339 0.67533 0.57276
 C515 C 0.04654 0.68179 0.58675
 C516 C 0.05349 0.69511 0.59432
 C517 C 0.06734 0.70204 0.58762
 C518 C 0.07433 0.69570 0.57367
 C519 C 0.06735 0.68230 0.56620
 C520 C 0.04667 0.66184 0.56541
 C521 C 0.05377 0.65513 0.55162
 C522 C 0.06761 0.66224 0.54508
 C523 C 0.07447 0.67572 0.55229
 C524 C 0.08851 0.68254 0.54600
 C525 C 0.09563 0.69581 0.55348
 C526 C 0.08838 0.70238 0.56725
 H527 H 0.03578 0.67646 0.59175
 H528 H 0.07293 0.71214 0.59353
 H529 H 0.03615 0.65630 0.57069
 H530 H 0.07307 0.65725 0.53436
 H531 H 0.09415 0.67725 0.53552
 H532 H 0.09368 0.71272 0.57298
 C533 C 0.55095 1.07181 0.67896
 C534 C 0.54402 1.06502 0.66519
 C535 C 0.55068 1.05130 0.65788
 C536 C 0.56434 1.04432 0.66515
 C537 C 0.57141 1.05105 0.67889
 C538 C 0.56472 1.06486 0.68582
 C539 C 0.54441 1.08563 0.68582
 C540 C 0.55161 1.09279 0.69932
 C541 C 0.56535 1.08575 0.70612
 C542 C 0.57197 1.07186 0.69945
 C543 C 0.58596 1.06510 0.70593
 C544 C 0.59285 1.05145 0.69893
 C545 C 0.58538 1.04442 0.68552
 H546 H 0.53316 1.07035 0.66048
 H547 H 0.57019 1.03416 0.65968
 H548 H 0.53373 1.09088 0.68060
 H549 H 0.57114 1.09132 0.71636
 H550 H 0.59174 1.07075 0.71612
 H551 H 0.59050 1.03378 0.68019
 C552 C 0.42606 0.32527 0.94810
 C553 C 0.43278 0.33916 0.95462
 C554 C 0.44640 0.34643 0.94758
 C555 C 0.45331 0.33907 0.93390
 C556 C 0.44665 0.32519 0.92723
 C557 C 0.43296 0.31828 0.93434
 C558 C 0.41237 0.31838 0.95507
 C559 C 0.40531 0.30470 0.94834
 C560 C 0.41231 0.29775 0.93462
 C561 C 0.42604 0.30447 0.92757
 C562 C 0.43277 0.29778 0.91366
 C563 C 0.44629 0.30472 0.90632
 C564 C 0.45324 0.31836 0.91328
 H565 H 0.42752 0.34395 0.96551
 H566 H 0.46339 0.34450 0.92777
 H567 H 0.40716 0.32372 0.96575
 H568 H 0.40681 0.28736 0.92917
 H569 H 0.42746 0.28714 0.90852
 H570 H 0.46353 0.32391 0.90758
 C571 C 0.92400 0.44353 0.32465
 C572 C 0.93083 0.45020 0.33851
 C573 C 0.94467 0.44351 0.34570
 C574 C 0.95160 0.42994 0.33835
 C575 C 0.94482 0.42310 0.32452
 C576 C 0.93097 0.42991 0.31764
 C577 C 0.91014 0.45020 0.31780
 C578 C 0.90306 0.44334 0.30409
 C579 C 0.91013 0.42977 0.29714
 C580 C 0.92398 0.42299 0.30386
 C581 C 0.93079 0.40925 0.29713
 C582 C 0.94445 0.40220 0.30406
 C583 C 0.95147 0.40929 0.31769
 H584 H 0.92552 0.46098 0.34330
 H585 H 0.96183 0.42405 0.34376
 H586 H 0.90461 0.46051 0.32338
 H587 H 0.90486 0.42449 0.28647
 H588 H 0.92542 0.40400 0.28649
 H589 H 0.96189 0.40382 0.32323
 C590 C 0.32511 0.94552 0.42565
 C591 C 0.31819 0.95167 0.41156
 C592 C 0.30439 0.94463 0.40487
 C593 C 0.29747 0.93135 0.41254
 C594 C 0.30423 0.92511 0.42666
 C595 C 0.31809 0.93224 0.43326
 C596 C 0.33907 0.95237 0.43210
 C597 C 0.34629 0.94621 0.44621
 C598 C 0.33889 0.93300 0.45378
 C599 C 0.32501 0.92598 0.44737
 C600 C 0.31816 0.91254 0.45471
 C601 C 0.30448 0.90521 0.44810
 C602 C 0.29751 0.91167 0.43414
 H603 H 0.32376 0.96173 0.40557
 H604 H 0.28677 0.92592 0.40754
 H605 H 0.34391 0.96286 0.42628
 H606 H 0.34431 0.92749 0.46422
 H607 H 0.32349 0.90775 0.46558
 H608 H 0.28709 0.90599 0.42883
 O609 O 0.20669 0.52018 0.74863
 O610 O 0.21181 0.51736 0.77613
 O611 O 0.24873 0.54219 0.72960
 O612 O 0.27520 0.53749 0.72911
 O613 O 0.22873 0.50105 0.70629
 O614 O 0.22980 0.47312 0.71165
 O615 O 0.29123 0.49786 0.77033
 O616 O 0.28688 0.52514 0.76766
 O617 O 0.25064 0.47779 0.79077
 O618 O 0.22164 0.47911 0.78532
 O619 O 0.27007 0.45767 0.74960
 O620 O 0.26911 0.46361 0.72084
 O621 O 0.29117 0.47908 0.75058
 O622 O 0.28541 0.48143 0.72069
 O623 O 0.25076 0.45715 0.76889
 O624 O 0.22109 0.46315 0.76712
 O625 O 0.27026 0.49659 0.79102
 O626 O 0.26494 0.52560 0.78657
 O627 O 0.20648 0.50108 0.72916
 O628 O 0.21232 0.47271 0.72991
 O629 O 0.24812 0.52011 0.70660
 O630 O 0.27714 0.51740 0.71305
 O631 O 0.22914 0.54181 0.74866
 O632 O 0.23273 0.53496 0.77758
 Zr633 Zr 0.22997 0.51859 0.75831
 O634 O 0.24390 0.50396 0.77345
 Zr635 Zr 0.25808 0.51891 0.72986
 O636 O 0.27342 0.50476 0.74404
 Zr637 Zr 0.22971 0.49106 0.72951
 O638 O 0.24398 0.47541 0.74326
 Zr639 Zr 0.26827 0.50797 0.76856
 O640 O 0.25442 0.52387 0.75446
 Zr641 Zr 0.24012 0.47987 0.76783
 O642 O 0.22457 0.49441 0.75405
 Zr643 Zr 0.26840 0.48063 0.73963
 O644 O 0.25412 0.49480 0.72411
 O645 O 0.23383 0.51504 0.73386
 O646 O 0.26446 0.48385 0.76411
 C647 C 0.19973 0.51231 0.73731
 C648 C 0.23735 0.54885 0.73763
 C649 C 0.23684 0.51229 0.69958
 C650 C 0.29787 0.48649 0.76237
 C651 C 0.26241 0.48509 0.79754
 C652 C 0.26239 0.45074 0.76105
 H653 H 0.24138 0.50634 0.78484
 H654 H 0.24141 0.46427 0.74036
 H655 H 0.22702 0.52201 0.72711
 H656 H 0.28473 0.50747 0.74170
 H657 H 0.28180 0.53534 0.76449
 H658 H 0.28351 0.53488 0.73718
 H659 H 0.22306 0.45587 0.75797
 H660 H 0.20691 0.47336 0.74051
 H661 H 0.27411 0.52491 0.79416
 H662 H 0.22424 0.54321 0.77674
 H663 H 0.25903 0.45740 0.72132
 H664 H 0.24059 0.47339 0.70665
 H665 H 0.20726 0.50647 0.77562
 H666 H 0.22262 0.48877 0.79208
 H667 H 0.27521 0.50775 0.70649
 H668 H 0.29308 0.49012 0.72304
 O669 O 0.20814 0.02109 0.24919
 O670 O 0.21317 0.01837 0.27667
 O671 O 0.25040 0.04355 0.23067
 O672 O 0.27685 0.03881 0.23005
 O673 O 0.23070 0.00235 0.20681
 O674 O 0.23174 -0.02556 0.21207
 O675 O 0.29262 -0.00090 0.27135
 O676 O 0.28821 0.02638 0.26875
 O677 O 0.25199 -0.02123 0.29133
 O678 O 0.22299 -0.01987 0.28573
 O679 O 0.27180 -0.04104 0.25035
 O680 O 0.27094 -0.03498 0.22152
 O681 O 0.29278 -0.01957 0.25150
 O682 O 0.28726 -0.01716 0.22160
 O683 O 0.25212 -0.04176 0.26926
 O684 O 0.22255 -0.03573 0.26749
 O685 O 0.27150 -0.00232 0.29186
 O686 O 0.26613 0.02670 0.28749
 O687 O 0.20816 0.00219 0.22953
 O688 O 0.21413 -0.02613 0.23015
 O689 O 0.24978 0.02171 0.20741
 O690 O 0.27883 0.01881 0.21397
 O691 O 0.23041 0.04293 0.24931
 O692 O 0.23400 0.03606 0.27825
 Zr693 Zr 0.23139 0.01970 0.25893
 O694 O 0.24525 0.00506 0.27412
 Zr695 Zr 0.25970 0.02025 0.23069
 O696 O 0.27498 0.00608 0.24493
 Zr697 Zr 0.23145 -0.00771 0.23001
 O698 O 0.24565 -0.02337 0.24380
 Zr699 Zr 0.26964 0.00916 0.26943
 O700 O 0.25585 0.02508 0.25529
 Zr701 Zr 0.24157 -0.01901 0.26836
 O702 O 0.22610 -0.00447 0.25452
 Zr703 Zr 0.27009 -0.01806 0.24039
 O704 O 0.25589 -0.00386 0.22482
 O705 O 0.23543 0.01627 0.23449
 O706 O 0.26594 -0.01496 0.26485
 C707 C 0.20129 0.01325 0.23779
 C708 C 0.23883 0.05009 0.23852
 C709 C 0.23867 0.01377 0.20026
 C710 C 0.29935 -0.01222 0.26339
 C711 C 0.26367 -0.01391 0.29824
 C712 C 0.26391 -0.04807 0.26158
 H713 H 0.24264 0.00737 0.28550
 H714 H 0.24313 -0.03450 0.24083
 H715 H 0.22862 0.02325 0.22775
 H716 H 0.28630 0.00883 0.24270
 H717 H 0.28313 0.03658 0.26558
 H718 H 0.28502 0.03626 0.23828
 H719 H 0.22449 -0.04288 0.25822
 H720 H 0.20861 -0.02554 0.24069
 H721 H 0.27523 0.02600 0.29515
 H722 H 0.22547 0.04428 0.27738
 H723 H 0.26097 -0.04136 0.22203
 H724 H 0.24260 -0.02531 0.20722
 H725 H 0.20873 0.00744 0.27620
 H726 H 0.22402 -0.01034 0.29266
 H727 H 0.27689 0.00922 0.20731
 H728 H 0.29479 -0.00837 0.22398
 O729 O 0.54288 0.72861 0.24915
 O730 O 0.53780 0.73130 0.27667
 O731 O 0.50070 0.70668 0.23024
 O732 O 0.47423 0.71148 0.22985
 O733 O 0.52073 0.74787 0.20693
 O734 O 0.51970 0.77577 0.21233
 O735 O 0.45843 0.75110 0.27123
 O736 O 0.46267 0.72380 0.26848
 O737 O 0.49922 0.77088 0.29154
 O738 O 0.52818 0.76949 0.28594
 O739 O 0.47971 0.79125 0.25053
 O740 O 0.48059 0.78532 0.22167
 O741 O 0.45850 0.76990 0.25150
 O742 O 0.46410 0.76771 0.22166
 O743 O 0.49908 0.79160 0.26974
 O744 O 0.52869 0.78554 0.26781
 O745 O 0.47952 0.75217 0.29187
 O746 O 0.48467 0.72316 0.28728
 O747 O 0.54305 0.74780 0.22975
 O748 O 0.53725 0.77612 0.23048
 O749 O 0.50132 0.72883 0.20724
 O750 O 0.47233 0.73160 0.21382
 O751 O 0.52037 0.70698 0.24921
 O752 O 0.51686 0.71373 0.27813
 Zr753 Zr 0.51961 0.73017 0.25890
 O754 O 0.50576 0.74478 0.27413
 Zr755 Zr 0.49142 0.73000 0.23056
 O756 O 0.47616 0.74417 0.24484
 Zr757 Zr 0.51983 0.75780 0.23017
 O758 O 0.50568 0.77345 0.24402
 Zr759 Zr 0.48136 0.74088 0.26934
 O760 O 0.49513 0.72498 0.25514
 Zr761 Zr 0.50962 0.76886 0.26855
 O762 O 0.52507 0.75434 0.25467
 Zr763 Zr 0.48123 0.76831 0.24048
 O764 O 0.49540 0.75413 0.22486
 O765 O 0.51569 0.73380 0.23447
 O766 O 0.48524 0.76500 0.26494
 C767 C 0.54981 0.73656 0.23785
 C768 C 0.51208 0.69997 0.23824
 C769 C 0.51260 0.73667 0.20021
 C770 C 0.45180 0.76250 0.26330
 C771 C 0.48747 0.76361 0.29837
 C772 C 0.48746 0.79809 0.26197
 H773 H 0.50831 0.74236 0.28550
 H774 H 0.50828 0.78458 0.24114
 H775 H 0.52248 0.72684 0.22768
 H776 H 0.46483 0.74151 0.24254
 H777 H 0.46768 0.71359 0.26524
 H778 H 0.46594 0.71411 0.23794
 H779 H 0.52672 0.79287 0.25870
 H780 H 0.54266 0.77549 0.24106
 H781 H 0.47553 0.72386 0.29491
 H782 H 0.52535 0.70548 0.27725
 H783 H 0.49059 0.79164 0.22225
 H784 H 0.50889 0.77554 0.20739
 H785 H 0.54241 0.74217 0.27616
 H786 H 0.52717 0.75985 0.29271
 H787 H 0.47423 0.74131 0.20731
 H788 H 0.45654 0.75889 0.22391
 O789 O -0.02098 0.79257 0.75007
 O790 O -0.01861 0.78720 0.72252
 O791 O -0.04318 0.75120 0.76976
 O792 O -0.03858 0.72489 0.77061
 O793 O -0.00106 0.77089 0.79222
 O794 O 0.02696 0.76956 0.78629
 O795 O 0.00040 0.70824 0.72882
 O796 O -0.02701 0.71281 0.73199
 O797 O 0.02050 0.74810 0.70751
 O798 O 0.01945 0.77700 0.71265
 O799 O 0.04148 0.72924 0.74849
 O800 O 0.03593 0.73051 0.77742
 O801 O 0.01973 0.70833 0.74815
 O802 O 0.01805 0.71431 0.77793
 O803 O 0.04174 0.74821 0.72900
 O804 O 0.03593 0.77762 0.73046
 O805 O 0.00136 0.72882 0.70785
 O806 O -0.02769 0.73436 0.71285
 O807 O -0.00127 0.79283 0.76906
 O808 O 0.02716 0.78675 0.76795
 O809 O -0.02060 0.75198 0.79244
 O810 O -0.01808 0.72308 0.78635
 O811 O -0.04296 0.77052 0.75057
 O812 O -0.03663 0.76661 0.72163
 Zr813 Zr -0.01975 0.76937 0.74055
 O814 O -0.00546 0.75523 0.72527
 Zr815 Zr -0.01978 0.74176 0.76930
 O816 O -0.00591 0.72626 0.75502
 Zr817 Zr 0.00854 0.76965 0.76880
 O818 O 0.02390 0.75524 0.75488
 Zr819 Zr -0.00959 0.73113 0.73053
 O820 O -0.02520 0.74519 0.74477
 Zr821 Zr 0.01893 0.75885 0.73036
 O822 O 0.00473 0.77455 0.74429
 Zr823 Zr 0.01853 0.73107 0.75888
 O824 O 0.00465 0.74551 0.77452
 O825 O -0.01574 0.76576 0.76497
 O826 O 0.01483 0.73475 0.73442
 C827 C -0.01270 0.79953 0.76111
 C828 C -0.04993 0.76247 0.76174
 C829 C -0.01241 0.76311 0.79920
 C830 C 0.01196 0.70163 0.73660
 C831 C 0.01289 0.73642 0.70102
 C832 C 0.04830 0.73675 0.73687
 H833 H -0.00806 0.75762 0.71391
 H834 H 0.03519 0.75774 0.75753
 H835 H -0.02259 0.77265 0.77177
 H836 H -0.00868 0.71508 0.75754
 H837 H -0.03717 0.71796 0.73533
 H838 H -0.03613 0.71650 0.76263
 H839 H 0.04334 0.77582 0.73957
 H840 H 0.02643 0.79198 0.75729
 H841 H -0.02723 0.72517 0.70536
 H842 H -0.04479 0.77519 0.72249
 H843 H 0.04238 0.74037 0.77660
 H844 H 0.02666 0.75892 0.79144
 H845 H -0.00762 0.79168 0.72286
 H846 H 0.00962 0.77597 0.70606
 H847 H -0.00818 0.72497 0.79265
 H848 H 0.00903 0.70690 0.77597
 O849 O 0.04339 0.02151 0.00010
 O850 O 0.03826 0.01882 -0.02743
 O851 O 0.00123 0.04347 0.01901
 O852 O -0.02519 0.03860 0.01988
 O853 O 0.02126 0.00204 0.04236
 O854 O 0.02030 -0.02579 0.03681
 O855 O -0.04108 -0.00075 -0.02183
 O856 O -0.03682 0.02653 -0.01892
 O857 O -0.00060 -0.02071 -0.04221
 O858 O 0.02846 -0.01924 -0.03686
 O859 O -0.01995 -0.04104 -0.00131
 O860 O -0.01902 -0.03528 0.02751
 O861 O -0.04117 -0.01949 -0.00202
 O862 O -0.03531 -0.01750 0.02780
 O863 O -0.00048 -0.04139 -0.02045
 O864 O 0.02909 -0.03531 -0.01875
 O865 O -0.02005 -0.00173 -0.04250
 O866 O -0.01483 0.02723 -0.03778
 O867 O 0.04363 0.00223 0.01941
 O868 O 0.03773 -0.02611 0.01859
 O869 O 0.00208 0.02131 0.04211
 O870 O -0.02700 0.01845 0.03570
 O871 O 0.02107 0.04311 0.00021
 O872 O 0.01736 0.03653 -0.02872
 Zr873 Zr 0.02013 0.01998 -0.00958
 O874 O 0.00621 0.00546 -0.02482
 Zr875 Zr -0.00798 0.02012 0.01887
 O876 O -0.02331 0.00605 0.00458
 Zr877 Zr 0.02037 -0.00774 0.01905
 O878 O 0.00611 -0.02330 0.00521
 Zr879 Zr -0.01816 0.00942 -0.01992
 O880 O -0.00432 0.02523 -0.00571
 Zr881 Zr 0.01001 -0.01864 -0.01933
 O882 O 0.02554 -0.00421 -0.00545
 Zr883 Zr -0.01833 -0.01812 0.00884
 O884 O -0.00405 -0.00404 0.02445
 O885 O 0.01627 0.01628 0.01486
 O886 O -0.01436 -0.01473 -0.01562
 C887 C 0.05036 0.01351 0.01133
 C888 C 0.01271 0.05013 0.01111
 C889 C 0.01326 0.01332 0.04911
 C890 C -0.04781 -0.01205 -0.01383
 C891 C -0.01228 -0.01329 -0.04900
 C892 C -0.01213 -0.04789 -0.01271
 H893 H 0.00874 0.00791 -0.03619
 H894 H 0.00869 -0.03444 0.00804
 H895 H 0.02308 0.02321 0.02164
 H896 H -0.03463 0.00876 0.00693
 H897 H -0.03178 0.03672 -0.01567
 H898 H -0.03337 0.03618 0.01162
 H899 H 0.02721 -0.04260 -0.00958
 H900 H 0.04319 -0.02539 0.00803
 H901 H -0.02399 0.02660 -0.04538
 H902 H 0.02592 0.04471 -0.02787
 H903 H -0.00897 -0.04152 0.02696
 H904 H 0.00947 -0.02565 0.04173
 H905 H 0.04282 0.00794 -0.02697
 H906 H 0.02736 -0.00962 -0.04365
 H907 H -0.02499 0.00880 0.04226
 H908 H -0.04285 -0.00865 0.02564
 O909 O 0.04285 0.52083 0.49962
 O910 O 0.03792 0.51826 0.47215
 O911 O 0.00088 0.54323 0.51843
 O912 O -0.02566 0.53877 0.51863
 O913 O 0.02026 0.50188 0.54186
 O914 O 0.01906 0.47403 0.53649
 O915 O -0.04158 0.49926 0.47710
 O916 O -0.03712 0.52650 0.47991
 O917 O -0.00119 0.47872 0.45731
 O918 O 0.02788 0.48008 0.46282
 O919 O -0.02103 0.45892 0.49806
 O920 O -0.02036 0.46477 0.52683
 O921 O -0.04202 0.48062 0.49700
 O922 O -0.03641 0.48277 0.52693
 O923 O -0.00123 0.45818 0.47927
 O924 O 0.02830 0.46416 0.48106
 O925 O -0.02039 0.49794 0.45669
 O926 O -0.01494 0.52690 0.46128
 O927 O 0.04276 0.50182 0.51920
 O928 O 0.03666 0.47346 0.51834
 O929 O 0.00104 0.52110 0.54141
 O930 O -0.02795 0.51867 0.53464
 O931 O 0.02065 0.54271 0.49956
 O932 O 0.01714 0.53599 0.47057
 Zr933 Zr 0.01964 0.51954 0.48983
 O934 O 0.00577 0.50502 0.47455
 Zr935 Zr -0.00870 0.52004 0.51804
 O936 O -0.02402 0.50604 0.50367
 Zr937 Zr 0.01944 0.49197 0.51862
 O938 O 0.00515 0.47645 0.50475
 Zr939 Zr -0.01860 0.50923 0.47920
 O940 O -0.00479 0.52501 0.49347
 Zr941 Zr 0.00932 0.48091 0.48023
 O942 O 0.02484 0.49532 0.49414
 Zr943 Zr -0.01928 0.48186 0.50811
 O944 O -0.00501 0.49588 0.52378
 O945 O 0.01555 0.51598 0.51425
 O946 O -0.01504 0.48507 0.48368
 C947 C 0.04966 0.51293 0.51102
 C948 C 0.01241 0.54980 0.51053
 C949 C 0.01219 0.51316 0.54851
 C950 C -0.04848 0.48805 0.48508
 C951 C -0.01273 0.48622 0.45036
 C952 C -0.01306 0.45187 0.48689
 H953 H 0.00841 0.50738 0.46318
 H954 H 0.00762 0.46531 0.50769
 H955 H 0.02237 0.52287 0.52107
 H956 H -0.03534 0.50885 0.50589
 H957 H -0.03203 0.53666 0.48316
 H958 H -0.03389 0.53626 0.51045
 H959 H 0.02639 0.45702 0.49034
 H960 H 0.04232 0.47422 0.50788
 H961 H -0.02401 0.52629 0.45358
 H962 H 0.02567 0.54419 0.47151
 H963 H -0.01029 0.45853 0.52650
 H964 H 0.00819 0.47429 0.54130
 H965 H 0.04222 0.50727 0.47249
 H966 H 0.02682 0.48959 0.45587
 H967 H -0.02616 0.50900 0.54124
 H968 H -0.04396 0.49156 0.52455
 O969 O 0.54323 0.02114 0.50096
 O970 O 0.53813 0.01878 0.47347
 O971 O 0.50106 0.04253 0.52040
 O972 O 0.47461 0.03758 0.52079
 O973 O 0.52146 0.00126 0.54305
 O974 O 0.52061 -0.02658 0.53734
 O975 O 0.45889 -0.00141 0.47908
 O976 O 0.46311 0.02576 0.48195
 O977 O 0.49974 -0.02100 0.45832
 O978 O 0.52875 -0.01942 0.46379
 O979 O 0.48066 -0.04200 0.49927
 O980 O 0.48126 -0.03635 0.52798
 O981 O 0.45918 -0.02074 0.49830
 O982 O 0.46484 -0.01866 0.52831
 O983 O 0.49982 -0.04190 0.47982
 O984 O 0.52940 -0.03569 0.48173
 O985 O 0.47987 -0.00246 0.45830
 O986 O 0.48502 0.02658 0.46308
 O987 O 0.54368 0.00180 0.52019
 O988 O 0.53806 -0.02662 0.51902
 O989 O 0.50176 0.02000 0.54313
 O990 O 0.47279 0.01725 0.53651
 O991 O 0.52059 0.04260 0.50127
 O992 O 0.51704 0.03615 0.47227
 Zr993 Zr 0.51997 0.01953 0.49131
 O994 O 0.50621 0.00499 0.47595
 Zr995 Zr 0.49189 0.01916 0.51979
 O996 O 0.47669 0.00508 0.50537
 Zr997 Zr 0.52052 -0.00842 0.51971
 O998 O 0.50639 -0.02399 0.50575
 Zr999 Zr 0.48181 0.00871 0.48089
 O1000 O 0.49549 0.02452 0.49525
 Zr1001 Zr 0.51023 -0.01912 0.48126
 O1002 O 0.52563 -0.00465 0.49523
 Zr1003 Zr 0.48190 -0.01907 0.50942
 O1004 O 0.49606 -0.00501 0.52515
 O1005 O 0.51617 0.01559 0.51572
 O1006 O 0.48583 -0.01545 0.48499
 C1007 C 0.55029 0.01318 0.51215
 C1008 C 0.51235 0.04941 0.51241
 C1009 C 0.51316 0.01221 0.54998
 C1010 C 0.45237 -0.01305 0.48675
 C1011 C 0.48786 -0.01380 0.45166
 C1012 C 0.48838 -0.04862 0.48767
 H1013 H 0.50871 0.00755 0.46459
 H1014 H 0.50907 -0.03514 0.50851
 H1015 H 0.52292 0.02252 0.52257
 H1016 H 0.46535 0.00766 0.50774
 H1017 H 0.46811 0.03594 0.48529
 H1018 H 0.46639 0.03507 0.51259
 H1019 H 0.52750 -0.04312 0.49078
 H1020 H 0.54349 -0.02573 0.50846
 H1021 H 0.47589 0.02587 0.45545
 H1022 H 0.52543 0.04449 0.47323
 H1023 H 0.49152 -0.04226 0.52765
 H1024 H 0.50984 -0.02644 0.54240
 H1025 H 0.54275 0.00792 0.47375
 H1026 H 0.52759 -0.00975 0.45708
 H1027 H 0.47474 0.00747 0.54288
 H1028 H 0.45700 -0.01012 0.52596
 O1029 O 0.54261 0.52170 -0.00042
 O1030 O 0.53744 0.51910 -0.02793
 O1031 O 0.50067 0.54365 0.01882
 O1032 O 0.47411 0.53896 0.01904
 O1033 O 0.52051 0.50239 0.04192
 O1034 O 0.51952 0.47448 0.03636
 O1035 O 0.45805 0.49955 -0.02208
 O1036 O 0.46244 0.52678 -0.01935
 O1037 O 0.49870 0.47959 -0.04271
 O1038 O 0.52782 0.48111 -0.03723
 O1039 O 0.47956 0.45906 -0.00161
 O1040 O 0.48037 0.46507 0.02724
 O1041 O 0.45826 0.48041 -0.00268
 O1042 O 0.46381 0.48260 0.02720
 O1043 O 0.49872 0.45888 -0.02105
 O1044 O 0.52829 0.46485 -0.01926
 O1045 O 0.47901 0.49831 -0.04282
 O1046 O 0.48431 0.52732 -0.03830
 O1047 O 0.54286 0.50257 0.01904
 O1048 O 0.53707 0.47425 0.01818
 O1049 O 0.50109 0.52141 0.04169
 O1050 O 0.47219 0.51881 0.03521
 O1051 O 0.52022 0.54335 -0.00029
 O1052 O 0.51655 0.53674 -0.02922
 Zr1053 Zr 0.51933 0.52022 -0.01006
 O1054 O 0.50541 0.50569 -0.02529
 Zr1055 Zr 0.49123 0.52037 0.01839
 O1056 O 0.47592 0.50622 0.00416
 Zr1057 Zr 0.51962 0.49254 0.01862
 O1058 O 0.50542 0.47694 0.00475
 Zr1059 Zr 0.48104 0.50961 -0.02034
 O1060 O 0.49488 0.52546 -0.00618
 Zr1061 Zr 0.50927 0.48159 -0.01980
 O1062 O 0.52478 0.49604 -0.00590
 Zr1063 Zr 0.48098 0.48205 0.00840
 O1064 O 0.49520 0.49621 0.02399
 O1065 O 0.51548 0.51653 0.01438
 O1066 O 0.48491 0.48547 -0.01605
 C1067 C 0.54959 0.51380 0.01088
 C1068 C 0.51205 0.55034 0.01079
 C1069 C 0.51234 0.51353 0.04869
 C1070 C 0.45149 0.48800 -0.01431
 C1071 C 0.48686 0.48685 -0.04939
 C1072 C 0.48723 0.45230 -0.01316
 H1073 H 0.50791 0.50814 -0.03666
 H1074 H 0.50803 0.46580 0.00759
 H1075 H 0.52229 0.52345 0.02119
 H1076 H 0.46460 0.50888 0.00651
 H1077 H 0.46751 0.53696 -0.01612
 H1078 H 0.46565 0.53619 0.01119
 H1079 H 0.52643 0.45760 -0.01005
 H1080 H 0.54241 0.47489 0.00755
 H1081 H 0.47515 0.52663 -0.04588
 H1082 H 0.52507 0.54496 -0.02836
 H1083 H 0.49038 0.45876 0.02663
 H1084 H 0.50875 0.47474 0.04140
 H1085 H 0.54203 0.50823 -0.02748
 H1086 H 0.52659 0.49063 -0.04414
 H1087 H 0.47394 0.50896 0.04152
 H1088 H 0.45622 0.49138 0.02494
 O1089 O 0.76967 0.29420 0.50033
 O1090 O 0.76744 0.28879 0.52779
 O1091 O 0.79193 0.25293 0.48042
 O1092 O 0.78740 0.22663 0.47957
 O1093 O 0.74980 0.27267 0.45812
 O1094 O 0.72182 0.27129 0.46400
 O1095 O 0.74850 0.20986 0.52151
 O1096 O 0.77584 0.21447 0.51838
 O1097 O 0.72821 0.24969 0.54274
 O1098 O 0.72915 0.27851 0.53763
 O1099 O 0.70737 0.23070 0.50175
 O1100 O 0.71276 0.23190 0.47298
 O1101 O 0.72933 0.20982 0.50201
 O1102 O 0.73093 0.21607 0.47217
 O1103 O 0.70699 0.24971 0.52120
 O1104 O 0.71280 0.27918 0.51970
 O1105 O 0.74738 0.23044 0.54243
 O1106 O 0.77647 0.23605 0.53746
 O1107 O 0.75012 0.29448 0.48117
 O1108 O 0.72157 0.28838 0.48253
 O1109 O 0.76925 0.25367 0.45779
 O1110 O 0.76688 0.22472 0.46397
 O1111 O 0.79170 0.27215 0.49970
 O1112 O 0.78537 0.26817 0.52870
 Zr1113 Zr 0.76850 0.27098 0.50976
 O1114 O 0.75419 0.25684 0.52502
 Zr1115 Zr 0.76856 0.24345 0.48095
 O1116 O 0.75475 0.22790 0.49526
 Zr1117 Zr 0.74022 0.27132 0.48151
 O1118 O 0.72488 0.25680 0.49537
 Zr1119 Zr 0.75839 0.23276 0.51977
 O1120 O 0.77399 0.24682 0.50550
 Zr1121 Zr 0.72979 0.26041 0.51989
 O1122 O 0.74402 0.27616 0.50603
 Zr1123 Zr 0.73031 0.23264 0.49138
 O1124 O 0.74412 0.24718 0.47575
 O1125 O 0.76450 0.26742 0.48533
 O1126 O 0.73396 0.23631 0.51584
 C1127 C 0.76152 0.30116 0.48920
 C1128 C 0.79868 0.26418 0.48848
 C1129 C 0.76109 0.26487 0.45108
 C1130 C 0.73708 0.20315 0.51360
 C1131 C 0.73583 0.23803 0.54924
 C1132 C 0.70049 0.23821 0.51333
 H1133 H 0.75677 0.25924 0.53638
 H1134 H 0.71359 0.25927 0.49270
 H1135 H 0.77134 0.27432 0.47853
 H1136 H 0.75757 0.21673 0.49274
 H1137 H 0.78600 0.21963 0.51503
 H1138 H 0.78511 0.21835 0.48772
 H1139 H 0.70535 0.27732 0.51062
 H1140 H 0.72251 0.29374 0.49310
 H1141 H 0.77599 0.22689 0.54499
 H1142 H 0.79359 0.27669 0.52779
 H1143 H 0.70656 0.24194 0.47353
 H1144 H 0.72207 0.26064 0.45888
 H1145 H 0.75642 0.29319 0.52757
 H1146 H 0.73904 0.27759 0.54415
 H1147 H 0.75707 0.22667 0.45755
 H1148 H 0.73985 0.20856 0.47422
 O1149 O 0.79312 0.75255 -0.02098
 O1150 O 0.78800 0.72527 -0.01906
 O1151 O 0.75096 0.77208 -0.04249
 O1152 O 0.72452 0.77253 -0.03758
 O1153 O 0.77128 0.79373 -0.00033
 O1154 O 0.77001 0.78762 0.02774
 O1155 O 0.70859 0.73030 0.00096
 O1156 O 0.71290 0.73386 -0.02645
 O1157 O 0.74922 0.70942 0.02048
 O1158 O 0.77819 0.71482 0.01923
 O1159 O 0.72998 0.74955 0.04233
 O1160 O 0.73068 0.77805 0.03726
 O1161 O 0.70867 0.74914 0.02065
 O1162 O 0.71446 0.77886 0.01923
 O1163 O 0.74932 0.73049 0.04208
 O1164 O 0.77887 0.73229 0.03590
 O1165 O 0.72961 0.70978 0.00150
 O1166 O 0.73484 0.71522 -0.02764
 O1167 O 0.79336 0.77112 -0.00099
 O1168 O 0.78750 0.76950 0.02763
 O1169 O 0.75174 0.79416 -0.01941
 O1170 O 0.72268 0.78768 -0.01675
 O1171 O 0.77053 0.75318 -0.04279
 O1172 O 0.76706 0.72437 -0.03680
 Zr1173 Zr 0.76983 0.74292 -0.01966
 O1174 O 0.75592 0.72744 -0.00538
 Zr1175 Zr 0.74172 0.77110 -0.01894
 O1176 O 0.72641 0.75656 -0.00510
 Zr1177 Zr 0.77013 0.77048 0.00910
 O1178 O 0.75589 0.75635 0.02446
 Zr1179 Zr 0.73155 0.73241 -0.00920
 O1180 O 0.74537 0.74692 -0.02478
 Zr1181 Zr 0.75976 0.73219 0.01910
 O1182 O 0.77528 0.74632 0.00488
 Zr1183 Zr 0.73145 0.76008 0.01940
 O1184 O 0.74571 0.77594 0.00560
 O1185 O 0.76597 0.76699 -0.01524
 O1186 O 0.73538 0.73596 0.01531
 C1187 C 0.80009 0.76346 -0.01262
 C1188 C 0.76227 0.76429 -0.04952
 C1189 C 0.76316 0.80076 -0.01141
 C1190 C 0.70194 0.73776 0.01272
 C1191 C 0.73747 0.70295 0.01288
 C1192 C 0.73779 0.73807 0.04893
 H1193 H 0.75843 0.71625 -0.00817
 H1194 H 0.75851 0.75885 0.03578
 H1195 H 0.77279 0.77387 -0.02210
 H1196 H 0.71509 0.75895 -0.00773
 H1197 H 0.71795 0.73739 -0.03664
 H1198 H 0.71626 0.76439 -0.03525
 H1199 H 0.77703 0.74118 0.04349
 H1200 H 0.79297 0.75909 0.02658
 H1201 H 0.72570 0.70766 -0.02717
 H1202 H 0.77553 0.72549 -0.04513
 H1203 H 0.74097 0.77770 0.04317
 H1204 H 0.75929 0.79271 0.02750
 H1205 H 0.79255 0.72538 -0.00805
 H1206 H 0.77720 0.70848 0.00925
 H1207 H 0.72467 0.79388 -0.00681
 H1208 H 0.70672 0.77676 0.01046
 O1209 O 1.00003 0.20583 0.23029
 O1210 O 0.97264 0.21106 0.23247
 O1211 O 1.01964 0.24733 0.20798
 O1212 O 1.02041 0.27360 0.21255
 O1213 O 1.04197 0.22769 0.25028
 O1214 O 1.03605 0.22902 0.27831
 O1215 O 0.97837 0.29006 0.25142
 O1216 O 0.98157 0.28545 0.22399
 O1217 O 0.95740 0.25013 0.27173
 O1218 O 0.96268 0.22131 0.27084
 O1219 O 0.99811 0.26938 0.29271
 O1220 O 1.02686 0.26833 0.28731
 O1221 O 0.99762 0.29017 0.27084
 O1222 O 1.02749 0.28426 0.26909
 O1223 O 0.97877 0.25031 0.29304
 O1224 O 0.98051 0.22081 0.28731
 O1225 O 0.95761 0.26939 0.25251
 O1226 O 0.96265 0.26375 0.22336
 O1227 O 1.01903 0.20571 0.24999
 O1228 O 1.01771 0.21185 0.27858
 O1229 O 1.04221 0.24667 0.23076
 O1230 O 1.03586 0.27559 0.23316
 O1231 O 1.00055 0.22796 0.20817
 O1232 O 0.97160 0.23168 0.21451
 Zr1233 Zr 0.99050 0.22901 0.23143
 O1234 O 0.97516 0.24305 0.24574
 Zr1235 Zr 1.01905 0.25675 0.23142
 O1236 O 1.00465 0.27221 0.24521
 Zr1237 Zr 1.01861 0.22889 0.25985
 O1238 O 1.00467 0.24331 0.27520
 Zr1239 Zr 0.98025 0.26717 0.24151
 O1240 O 0.99460 0.25320 0.22593
 Zr1241 Zr 0.98024 0.23954 0.27022
 O1242 O 0.99420 0.22388 0.25600
 Zr1243 Zr 1.00850 0.26749 0.26973
 O1244 O 1.02421 0.25306 0.25593
 O1245 O 1.01483 0.23274 0.23549
 O1246 O 0.98414 0.26365 0.26601
 C1247 C 1.01110 0.19894 0.23856
 C1248 C 1.01167 0.23605 0.20119
 C1249 C 1.04896 0.23553 0.23897
 C1250 C 0.98605 0.29676 0.26301
 C1251 C 0.95085 0.26177 0.26410
 C1252 C 0.98653 0.26186 0.29956
 H1253 H 0.96384 0.24059 0.24314
 H1254 H 1.00732 0.24087 0.28653
 H1255 H 1.02166 0.22587 0.22864
 H1256 H 1.00708 0.28340 0.24239
 H1257 H 0.98495 0.28030 0.21382
 H1258 H 1.01217 0.28178 0.21478
 H1259 H 0.98950 0.22278 0.29483
 H1260 H 1.00717 0.20648 0.27771
 H1261 H 0.95510 0.27288 0.22381
 H1262 H 0.97258 0.22318 0.20626
 H1263 H 1.02630 0.25834 0.29360
 H1264 H 1.04108 0.23972 0.27808
 H1265 H 0.97282 0.20672 0.24355
 H1266 H 0.95615 0.22222 0.26094
 H1267 H 1.04224 0.27368 0.24302
 H1268 H 1.02531 0.29183 0.26023
 O1269 O 0.74995 1.04285 0.72904
 O1270 O 0.77735 1.03757 0.73103
 O1271 O 0.73036 1.00151 0.70634
 O1272 O 0.72994 0.97512 0.71070
 O1273 O 0.70794 1.02068 0.74872
 O1274 O 0.71387 1.01909 0.77679
 O1275 O 0.77181 0.95851 0.74966
 O1276 O 0.76850 0.96322 0.72222
 O1277 O 0.79260 0.99835 0.77008
 O1278 O 0.78722 1.02730 0.76912
 O1279 O 0.75205 0.97897 0.79103
 O1280 O 0.72316 0.98008 0.78560
 O1281 O 0.75239 0.95823 0.76893
 O1282 O 0.72268 0.96406 0.76754
 O1283 O 0.77119 0.99823 0.79136
 O1284 O 0.76956 1.02760 0.78575
 O1285 O 0.79246 0.97924 0.75073
 O1286 O 0.78740 0.98496 0.72163
 O1287 O 0.73076 1.04272 0.74859
 O1288 O 0.73207 1.03647 0.77709
 O1289 O 0.70783 1.00176 0.72915
 O1290 O 0.71423 0.97295 0.73126
 O1291 O 0.74939 1.02092 0.70670
 O1292 O 0.77833 1.01714 0.71288
 Zr1293 Zr 0.75947 1.01966 0.72990
 O1294 O 0.77486 1.00555 0.74409
 Zr1295 Zr 0.73104 0.99182 0.72971
 O1296 O 0.74543 0.97634 0.74350
 Zr1297 Zr 0.73130 1.01950 0.75830
 O1298 O 0.74534 1.00510 0.77358
 Zr1299 Zr 0.76982 0.98144 0.73979
 O1300 O 0.75547 0.99548 0.72426
 Zr1301 Zr 0.76975 1.00897 0.76857
 O1302 O 0.75571 1.02464 0.75447
 Zr1303 Zr 0.74158 0.98093 0.76806
 O1304 O 0.72583 0.99533 0.75426
 O1305 O 0.73515 1.01582 0.73393
 O1306 O 0.76593 0.98485 0.76431
 C1307 C 0.73880 1.04962 0.73731
 C1308 C 0.73828 1.01289 0.69965
 C1309 C 0.70100 1.01283 0.73739
 C1310 C 0.76402 0.95170 0.76112
 C1311 C 0.79918 0.98678 0.76237
 C1312 C 0.76354 0.98661 0.79789
 H1313 H 0.78617 1.00805 0.74148
 H1314 H 0.74269 1.00750 0.78492
 H1315 H 0.72830 1.02273 0.72714
 H1316 H 0.74302 0.96516 0.74064
 H1317 H 0.76514 0.96841 0.71206
 H1318 H 0.73792 0.96674 0.71313
 H1319 H 0.76040 1.02576 0.79310
 H1320 H 0.74262 1.04184 0.77629
 H1321 H 0.79495 0.97582 0.72201
 H1322 H 0.77734 1.02572 0.70472
 H1323 H 0.72390 0.98991 0.79211
 H1324 H 0.70886 1.00839 0.77643
 H1325 H 0.77718 1.04184 0.74213
 H1326 H 0.79400 1.02619 0.75940
 H1327 H 0.70798 0.97464 0.74124
 H1328 H 0.72462 0.95678 0.75838
 O1329 O 0.74864 0.54233 0.22869
 O1330 O 0.77605 0.53716 0.23080
 O1331 O 0.72918 0.50104 0.20595
 O1332 O 0.72884 0.47464 0.21026
 O1333 O 0.70664 0.52011 0.24827
 O1334 O 0.71248 0.51855 0.27635
 O1335 O 0.77057 0.45805 0.24923
 O1336 O 0.76742 0.46285 0.22183
 O1337 O 0.79125 0.49788 0.26992
 O1338 O 0.78585 0.52681 0.26897
 O1339 O 0.75060 0.47847 0.29068
 O1340 O 0.72180 0.47941 0.28511
 O1341 O 0.75130 0.45776 0.26865
 O1342 O 0.72146 0.46345 0.26696
 O1343 O 0.76978 0.49770 0.29112
 O1344 O 0.76809 0.52709 0.28552
 O1345 O 0.79117 0.47878 0.25054
 O1346 O 0.78628 0.48461 0.22141
 O1347 O 0.72945 0.54224 0.24823
 O1348 O 0.73067 0.53593 0.27674
 O1349 O 0.70661 0.50119 0.22870
 O1350 O 0.71309 0.47239 0.23078
 O1351 O 0.74821 0.52046 0.20638
 O1352 O 0.77715 0.51672 0.21267
 Zr1353 Zr 0.75823 0.51919 0.22961
 O1354 O 0.77359 0.50511 0.24385
 Zr1355 Zr 0.72984 0.49131 0.22931
 O1356 O 0.74423 0.47584 0.24310
 Zr1357 Zr 0.72998 0.51898 0.25792
 O1358 O 0.74397 0.50456 0.27323
 Zr1359 Zr 0.76861 0.48101 0.23947
 O1360 O 0.75428 0.49503 0.22391
 Zr1361 Zr 0.76840 0.50848 0.26832
 O1362 O 0.75439 0.52415 0.25418
 Zr1363 Zr 0.74029 0.48039 0.26765
 O1364 O 0.72456 0.49480 0.25384
 O1365 O 0.73390 0.51531 0.23356
 O1366 O 0.76463 0.48437 0.26399
 C1367 C 0.73748 0.54912 0.23693
 C1368 C 0.73710 0.51245 0.19930
 C1369 C 0.69975 0.51224 0.23693
 C1370 C 0.76290 0.45125 0.26078
 C1371 C 0.79784 0.48630 0.26223
 C1372 C 0.76207 0.48609 0.29760
 H1373 H 0.78491 0.50764 0.24129
 H1374 H 0.74127 0.50694 0.28456
 H1375 H 0.72705 0.52221 0.22677
 H1376 H 0.74185 0.46466 0.24022
 H1377 H 0.76408 0.46807 0.21167
 H1378 H 0.73685 0.46630 0.21268
 H1379 H 0.75892 0.52521 0.29285
 H1380 H 0.74121 0.54133 0.27597
 H1381 H 0.79386 0.47550 0.22183
 H1382 H 0.77617 0.52528 0.20449
 H1383 H 0.72238 0.48931 0.29155
 H1384 H 0.70747 0.50786 0.27597
 H1385 H 0.77586 0.54140 0.24191
 H1386 H 0.79264 0.52576 0.25926
 H1387 H 0.70682 0.47405 0.24077
 H1388 H 0.72362 0.45604 0.25795
 O1389 O 0.50120 0.20620 0.73126
 O1390 O 0.47378 0.21138 0.73335
 O1391 O 0.52077 0.24754 0.70871
 O1392 O 0.52134 0.27388 0.71311
 O1393 O 0.54310 0.22826 0.75113
 O1394 O 0.53714 0.22968 0.77915
 O1395 O 0.47935 0.29046 0.75192
 O1396 O 0.48256 0.28572 0.72453
 O1397 O 0.45846 0.25059 0.77245
 O1398 O 0.46380 0.22175 0.77165
 O1399 O 0.49911 0.27001 0.79337
 O1400 O 0.52788 0.26897 0.78795
 O1401 O 0.49855 0.29069 0.77138
 O1402 O 0.52844 0.28486 0.76968
 O1403 O 0.47985 0.25086 0.79374
 O1404 O 0.48160 0.22136 0.78814
 O1405 O 0.45863 0.26976 0.75314
 O1406 O 0.46368 0.26398 0.72401
 O1407 O 0.52029 0.20619 0.75087
 O1408 O 0.51883 0.21242 0.77944
 O1409 O 0.54329 0.24715 0.73152
 O1410 O 0.53687 0.27604 0.73372
 O1411 O 0.50170 0.22815 0.70901
 O1412 O 0.47274 0.23190 0.71528
 Zr1413 Zr 0.49161 0.22935 0.73224
 O1414 O 0.47623 0.24342 0.74648
 Zr1415 Zr 0.52009 0.25714 0.73210
 O1416 O 0.50566 0.27263 0.74584
 Zr1417 Zr 0.51973 0.22940 0.76066
 O1418 O 0.50574 0.24386 0.77595
 Zr1419 Zr 0.48127 0.26752 0.74214
 O1420 O 0.49566 0.25352 0.72662
 Zr1421 Zr 0.48132 0.24001 0.77097
 O1422 O 0.49532 0.22432 0.75682
 Zr1423 Zr 0.50951 0.26803 0.77038
 O1424 O 0.52525 0.25358 0.75664
 O1425 O 0.51594 0.23315 0.73629
 O1426 O 0.48516 0.26411 0.76666
 C1427 C 0.51233 0.19937 0.73950
 C1428 C 0.51283 0.23619 0.70199
 C1429 C 0.55007 0.23608 0.73979
 C1430 C 0.48699 0.29722 0.76349
 C1431 C 0.45190 0.26218 0.76477
 C1432 C 0.48756 0.26246 0.80023
 H1433 H 0.46492 0.24092 0.74388
 H1434 H 0.50839 0.24147 0.78729
 H1435 H 0.52279 0.22627 0.72949
 H1436 H 0.50807 0.28381 0.74297
 H1437 H 0.48595 0.28052 0.71438
 H1438 H 0.51318 0.28213 0.71539
 H1439 H 0.49063 0.22334 0.79561
 H1440 H 0.50831 0.20700 0.77855
 H1441 H 0.45611 0.27310 0.72442
 H1442 H 0.47374 0.22336 0.70708
 H1443 H 0.52729 0.25904 0.79433
 H1444 H 0.54213 0.24039 0.77888
 H1445 H 0.47395 0.20710 0.74445
 H1446 H 0.45723 0.22264 0.76178
 H1447 H 0.54320 0.27424 0.74363
 H1448 H 0.52625 0.29238 0.76078
 O1449 O 0.25177 0.77165 0.45783
 O1450 O 0.22431 0.76945 0.46302
 O1451 O 0.27128 0.79265 0.50028
 O1452 O 0.27172 0.78748 0.52678
 O1453 O 0.29362 0.75140 0.47948
 O1454 O 0.28772 0.72355 0.48023
 O1455 O 0.22975 0.74856 0.54227
 O1456 O 0.23301 0.77581 0.53834
 O1457 O 0.20894 0.72955 0.50132
 O1458 O 0.21434 0.73130 0.47224
 O1459 O 0.24959 0.70816 0.52027
 O1460 O 0.27830 0.71354 0.51952
 O1461 O 0.24898 0.72930 0.54190
 O1462 O 0.27887 0.73111 0.53609
 O1463 O 0.23037 0.70844 0.50089
 O1464 O 0.23210 0.71497 0.47134
 O1465 O 0.20909 0.74807 0.52126
 O1466 O 0.21416 0.77705 0.51640
 O1467 O 0.27082 0.75219 0.45726
 O1468 O 0.26947 0.72375 0.46271
 O1469 O 0.29375 0.77013 0.49923
 O1470 O 0.28732 0.76703 0.52832
 O1471 O 0.25231 0.79298 0.48062
 O1472 O 0.22333 0.78676 0.48426
 Zr1473 Zr 0.24215 0.76998 0.48117
 O1474 O 0.22674 0.75547 0.49493
 Zr1475 Zr 0.27055 0.76922 0.50930
 O1476 O 0.25611 0.75513 0.52448
 Zr1477 Zr 0.27027 0.74184 0.48041
 O1478 O 0.25623 0.72627 0.49449
 Zr1479 Zr 0.23174 0.75897 0.51941
 O1480 O 0.24614 0.77478 0.50576
 Zr1481 Zr 0.23182 0.73134 0.49072
 O1482 O 0.24588 0.74581 0.47535
 Zr1483 Zr 0.25996 0.73098 0.51907
 O1484 O 0.27574 0.74505 0.50494
 O1485 O 0.26645 0.76583 0.48494
 O1486 O 0.23562 0.73481 0.51520
 C1487 C 0.26289 0.76366 0.45070
 C1488 C 0.26345 0.79965 0.48896
 C1489 C 0.30054 0.76239 0.48773
 C1490 C 0.23742 0.73690 0.54875
 C1491 C 0.20235 0.73682 0.51324
 C1492 C 0.23808 0.70161 0.51237
 H1493 H 0.21544 0.75814 0.49247
 H1494 H 0.25888 0.71512 0.49171
 H1495 H 0.27331 0.77276 0.47818
 H1496 H 0.25850 0.75760 0.53586
 H1497 H 0.23642 0.78602 0.53341
 H1498 H 0.26364 0.78490 0.53509
 H1499 H 0.24116 0.70754 0.47306
 H1500 H 0.25895 0.72476 0.45727
 H1501 H 0.20659 0.77637 0.52559
 H1502 H 0.22433 0.79511 0.47586
 H1503 H 0.27786 0.70768 0.50920
 H1504 H 0.29280 0.72363 0.49100
 H1505 H 0.22454 0.75862 0.45830
 H1506 H 0.20775 0.74103 0.47347
 H1507 H 0.29365 0.75726 0.52620
 H1508 H 0.27669 0.73971 0.54394
 O1509 O 0.25017 0.27243 0.95832
 O1510 O 0.22272 0.27016 0.96341
 O1511 O 0.26945 0.29359 1.00082
 O1512 O 0.26973 0.28852 1.02732
 O1513 O 0.29204 0.25240 0.98025
 O1514 O 0.28627 0.22455 0.98098
 O1515 O 0.22787 0.24944 1.04273
 O1516 O 0.23098 0.27668 1.03873
 O1517 O 0.20735 0.23021 1.00166
 O1518 O 0.21290 0.23184 0.97267
 O1519 O 0.24804 0.20909 1.02094
 O1520 O 0.27668 0.21457 1.02033
 O1521 O 0.24723 0.23031 1.04249
 O1522 O 0.27715 0.23225 1.03678
 O1523 O 0.22889 0.20919 1.00150
 O1524 O 0.23081 0.21566 0.97188
 O1525 O 0.20730 0.24876 1.02157
 O1526 O 0.21225 0.27776 1.01668
 O1527 O 0.26932 0.25305 0.95790
 O1528 O 0.26809 0.22462 0.96342
 O1529 O 0.29199 0.27118 0.99997
 O1530 O 0.28539 0.26813 1.02903
 O1531 O 0.25059 0.29382 0.98105
 O1532 O 0.22158 0.28748 0.98464
 Zr1533 Zr 0.24048 0.27078 0.98163
 O1534 O 0.22508 0.25620 0.99533
 Zr1535 Zr 0.26874 0.27020 1.00989
 O1536 O 0.25428 0.25609 1.02503
 Zr1537 Zr 0.26873 0.24275 0.98107
 O1538 O 0.25471 0.22714 0.99513
 Zr1539 Zr 0.22991 0.25978 1.01984
 O1540 O 0.24431 0.27564 1.00623
 Zr1541 Zr 0.23030 0.23207 0.99123
 O1542 O 0.24434 0.24660 0.97589
 Zr1543 Zr 0.25829 0.23195 1.01971
 O1544 O 0.27407 0.24605 1.00562
 O1545 O 0.26478 0.26674 0.98552
 O1546 O 0.23394 0.23563 1.01572
 C1547 C 0.26135 0.26446 0.95126
 C1548 C 0.26168 0.30053 0.98942
 C1549 C 0.29888 0.26343 0.98853
 C1550 C 0.23560 0.23786 1.04929
 C1551 C 0.20065 0.23748 1.01352
 C1552 C 0.23660 0.20245 1.01305
 H1553 H 0.21377 0.25880 0.99280
 H1554 H 0.25744 0.21600 0.99240
 H1555 H 0.27165 0.27367 0.97878
 H1556 H 0.25660 0.25861 1.03642
 H1557 H 0.23436 0.28689 1.03380
 H1558 H 0.26158 0.28594 1.03557
 H1559 H 0.23982 0.20821 0.97375
 H1560 H 0.25759 0.22556 0.95792
 H1561 H 0.20462 0.27706 1.02582
 H1562 H 0.22261 0.29584 0.97625
 H1563 H 0.27639 0.20873 1.01000
 H1564 H 0.29127 0.22464 0.99179
 H1565 H 0.22298 0.25932 0.95873
 H1566 H 0.20632 0.24160 0.97375
 H1567 H 0.29182 0.25842 1.02695
 H1568 H 0.27486 0.24081 1.04464
 C1569 C 0.28529 0.38908 0.78243
 C1570 C 0.30193 0.38677 0.78396
 C1571 C 0.30801 0.37255 0.79024
 C1572 C 0.29760 0.36029 0.79512
 C1573 C 0.28095 0.36251 0.79341
 C1574 C 0.27487 0.37675 0.78714
 C1575 C 0.27886 0.40445 0.77634
 C1576 C 0.26544 0.41156 0.78367
 C1577 C 0.25988 0.42641 0.77848
 C1578 C 0.26758 0.43450 0.76581
 C1579 C 0.28080 0.42721 0.75826
 C1580 C 0.28637 0.41237 0.76348
 H1581 H 0.32088 0.37132 0.79165
 H1582 H 0.27263 0.35319 0.79684
 H1583 H 0.24971 0.43168 0.78463
 H1584 H 0.28703 0.43308 0.74847
 H1585 H 0.26200 0.37808 0.78589
 H1586 H 0.25951 0.40584 0.79374
 H1587 H 0.31026 0.39614 0.78069
 H1588 H 0.29661 0.40710 0.75745
 C1589 C 0.28570 -0.10992 0.28358
 C1590 C 0.29395 -0.12069 0.27364
 C1591 C 0.29997 -0.13499 0.27985
 C1592 C 0.29787 -0.13903 0.29625
 C1593 C 0.28943 -0.12812 0.30608
 C1594 C 0.28351 -0.11383 0.29985
 C1595 C 0.27967 -0.09451 0.27715
 C1596 C 0.26490 -0.08828 0.28240
 C1597 C 0.25963 -0.07338 0.27709
 C1598 C 0.26896 -0.06436 0.26631
 C1599 C 0.28355 -0.07075 0.26074
 C1600 C 0.28885 -0.08564 0.26611
 H1601 H 0.30572 -0.14306 0.27151
 H1602 H 0.28800 -0.13007 0.31887
 H1603 H 0.24829 -0.06886 0.28156
 H1604 H 0.29110 -0.06408 0.25253
 H1605 H 0.27757 -0.10561 0.30794
 H1606 H 0.25740 -0.09493 0.29067
 H1607 H 0.29556 -0.11818 0.26096
 H1608 H 0.30038 -0.08999 0.26199
 C1609 C 0.78507 0.88953 0.78298
 C1610 C 0.78307 0.88560 0.79927
 C1611 C 0.78871 0.87113 0.80533
 C1612 C 0.79669 0.86006 0.79530
 C1613 C 0.79860 0.86413 0.77889
 C1614 C 0.79285 0.87860 0.77285
 C1615 C 0.77928 0.90510 0.77670
 C1616 C 0.78845 0.91378 0.76551
 C1617 C 0.78334 0.92875 0.76018
 C1618 C 0.76895 0.93541 0.76595
 C1619 C 0.75964 0.92660 0.77693
 C1620 C 0.76473 0.91162 0.78220
 H1621 H 0.78745 0.86915 0.81813
 H1622 H 0.80398 0.85595 0.77040
 H1623 H 0.79086 0.93526 0.75182
 H1624 H 0.74846 0.93131 0.78156
 H1625 H 0.79430 0.88113 0.76015
 H1626 H 0.79982 0.90921 0.76121
 H1627 H 0.77748 0.89393 0.80750
 H1628 H 0.75724 0.90512 0.79061
 C1629 C 0.46489 0.85969 0.28380
 C1630 C 0.47532 0.87187 0.28886
 C1631 C 0.46923 0.88610 0.29515
 C1632 C 0.45258 0.88845 0.29652
 C1633 C 0.44216 0.87630 0.29137
 C1634 C 0.44824 0.86210 0.28508
 C1635 C 0.47129 0.84437 0.27757
 C1636 C 0.46388 0.83669 0.26450
 C1637 C 0.46936 0.82186 0.25919
 C1638 C 0.48239 0.81434 0.26683
 C1639 C 0.49001 0.82219 0.27969
 C1640 C 0.48452 0.83703 0.28499
 H1641 H 0.47755 0.89533 0.29882
 H1642 H 0.42928 0.87763 0.29255
 H1643 H 0.46321 0.81618 0.24924
 H1644 H 0.50002 0.81674 0.28591
 H1645 H 0.43990 0.85283 0.28157
 H1646 H 0.45379 0.84214 0.25840
 H1647 H 0.48820 0.87045 0.28783
 H1648 H 0.49036 0.84255 0.29521
 C1649 C -0.03269 0.86206 0.78271
 C1650 C -0.04073 0.87302 0.77283
 C1651 C -0.04688 0.88718 0.77919
 C1652 C -0.04513 0.89090 0.79570
 C1653 C -0.03669 0.87992 0.80544
 C1654 C -0.03065 0.86574 0.79905
 C1655 C -0.02692 0.84658 0.77619
 C1656 C -0.01238 0.83993 0.78154
 C1657 C -0.00755 0.82485 0.77631
 C1658 C -0.01710 0.81608 0.76553
 C1659 C -0.03139 0.82295 0.75977
 C1660 C -0.03626 0.83800 0.76506
 H1661 H -0.05254 0.89538 0.77090
 H1662 H -0.03545 0.88166 0.81828
 H1663 H 0.00358 0.81998 0.78090
 H1664 H -0.03909 0.81650 0.75154
 H1665 H -0.02483 0.85739 0.80710
 H1666 H -0.00478 0.84635 0.78988
 H1667 H -0.04218 0.87071 0.76009
 H1668 H -0.04762 0.84268 0.76086
 C1669 C -0.03369 -0.10987 -0.03447
 C1670 C -0.03860 -0.12198 -0.02386
 C1671 C -0.04445 -0.13645 -0.02979
 C1672 C -0.04553 -0.13911 -0.04647
 C1673 C -0.04062 -0.12699 -0.05706
 C1674 C -0.03477 -0.11255 -0.05113
 C1675 C -0.02766 -0.09439 -0.02828
 C1676 C -0.01456 -0.08683 -0.03571
 C1677 C -0.00932 -0.07192 -0.03043
 C1678 C -0.01706 -0.06417 -0.01757
 C1679 C -0.02998 -0.07189 -0.00992
 C1680 C -0.03520 -0.08684 -0.01521
 H1681 H -0.04796 -0.14564 -0.02133
 H1682 H -0.04161 -0.12854 -0.06996
 H1683 H 0.00068 -0.06637 -0.03661
 H1684 H -0.03626 -0.06626 -0.00003
 H1685 H -0.03137 -0.10334 -0.05961
 H1686 H -0.00835 -0.09246 -0.04566
 H1687 H -0.03774 -0.12032 -0.01096
 H1688 H -0.04543 -0.09229 -0.00934
 C1689 C -0.03443 0.38966 0.46556
 C1690 C -0.04215 0.37880 0.47581
 C1691 C -0.04817 0.36441 0.46987
 C1692 C -0.04662 0.36036 0.45342
 C1693 C -0.03861 0.37131 0.44327
 C1694 C -0.03269 0.38571 0.44924
 C1695 C -0.02852 0.40522 0.47172
 C1696 C -0.01403 0.41170 0.46602
 C1697 C -0.00887 0.42670 0.47116
 C1698 C -0.01804 0.43556 0.48221
 C1699 C -0.03236 0.42893 0.48818
 C1700 C -0.03755 0.41395 0.48298
 H1701 H -0.05353 0.35629 0.47844
 H1702 H -0.03758 0.36933 0.43045
 H1703 H 0.00226 0.43140 0.46637
 H1704 H -0.03978 0.43546 0.49662
 H1705 H -0.02714 0.39398 0.44093
 H1706 H -0.00666 0.40518 0.45754
 H1707 H -0.04338 0.38133 0.48854
 H1708 H -0.04887 0.40939 0.48744
 C1709 C 0.46659 -0.11074 0.46650
 C1710 C 0.47664 -0.12149 0.45839
 C1711 C 0.47059 -0.13581 0.45229
 C1712 C 0.45423 -0.13991 0.45419
 C1713 C 0.44430 -0.12910 0.46263
 C1714 C 0.45037 -0.11476 0.46861
 C1715 C 0.47283 -0.09520 0.47239
 C1716 C 0.46740 -0.08873 0.48702
 C1717 C 0.47265 -0.07375 0.49213
 C1718 C 0.48354 -0.06491 0.48277
 C1719 C 0.48923 -0.07152 0.46830
 C1720 C 0.48392 -0.08646 0.46316
 H1721 H 0.47901 -0.14383 0.44658
 H1722 H 0.43155 -0.13114 0.46395
 H1723 H 0.46808 -0.06905 0.50338
 H1724 H 0.49752 -0.06498 0.46072
 H1725 H 0.44219 -0.10658 0.47447
 H1726 H 0.45906 -0.09526 0.49455
 H1727 H 0.48929 -0.11892 0.45688
 H1728 H 0.48815 -0.09097 0.45171
 C1729 C 0.46514 0.39016 -0.03408
 C1730 C 0.44891 0.38619 -0.03196
 C1731 C 0.44282 0.37181 -0.03779
 C1732 C 0.45275 0.36088 -0.04610
 C1733 C 0.46909 0.36497 -0.04809
 C1734 C 0.47517 0.37934 -0.04213
 C1735 C 0.47142 0.40573 -0.02827
 C1736 C 0.48259 0.41436 -0.03750
 C1737 C 0.48797 0.42930 -0.03241
 C1738 C 0.48227 0.43602 -0.01799
 C1739 C 0.47128 0.42730 -0.00864
 C1740 C 0.46597 0.41231 -0.01369
 H1741 H 0.43007 0.36980 -0.03644
 H1742 H 0.47749 0.35688 -0.05373
 H1743 H 0.49633 0.43574 -0.04000
 H1744 H 0.46670 0.43209 0.00256
 H1745 H 0.48782 0.38187 -0.04366
 H1746 H 0.48684 0.40977 -0.04891
 H1747 H 0.44074 0.39444 -0.02617
 H1748 H 0.45757 0.40587 -0.00616
 C1749 C 0.78358 0.36309 0.46801
 C1750 C 0.80025 0.36528 0.46671
 C1751 C 0.80652 0.37932 0.46022
 C1752 C 0.79626 0.39153 0.45490
 C1753 C 0.77958 0.38941 0.45632
 C1754 C 0.77330 0.37534 0.46280
 C1755 C 0.77702 0.34786 0.47431
 C1756 C 0.76386 0.34050 0.46679
 C1757 C 0.75848 0.32556 0.47195
 C1758 C 0.76614 0.31766 0.48476
 C1759 C 0.77897 0.32530 0.49261
 C1760 C 0.78434 0.34021 0.48744
 H1761 H 0.81941 0.38045 0.45901
 H1762 H 0.77138 0.39869 0.45252
 H1763 H 0.74860 0.32003 0.46559
 H1764 H 0.78512 0.31961 0.50256
 H1765 H 0.76040 0.37406 0.46382
 H1766 H 0.75807 0.34603 0.45655
 H1767 H 0.80848 0.35595 0.47032
 H1768 H 0.79435 0.34571 0.49363
 C1769 C 0.78424 0.86288 -0.03321
 C1770 C 0.78239 0.86647 -0.04960
 C1771 C 0.78858 0.88057 -0.05603
 C1772 C 0.79697 0.89158 -0.04628
 C1773 C 0.79863 0.88791 -0.02975
 C1774 C 0.79233 0.87382 -0.02334
 C1775 C 0.77818 0.84754 -0.02662
 C1776 C 0.78727 0.83891 -0.01533
 C1777 C 0.78212 0.82396 -0.00998
 C1778 C 0.76780 0.81725 -0.01585
 C1779 C 0.75849 0.82609 -0.02678
 C1780 C 0.76359 0.84106 -0.03206
 H1781 H 0.78745 0.88225 -0.06888
 H1782 H 0.80429 0.89611 -0.02147
 H1783 H 0.78965 0.81745 -0.00163
 H1784 H 0.74734 0.82134 -0.03147
 H1785 H 0.79367 0.87156 -0.01058
 H1786 H 0.79865 0.84345 -0.01104
 H1787 H 0.77657 0.85812 -0.05763
 H1788 H 0.75617 0.84753 -0.04053
 C1789 C 0.78146 0.28644 0.38809
 C1790 C 0.78650 0.27601 0.37586
 C1791 C 0.79279 0.28196 0.36145
 C1792 C 0.79418 0.29848 0.35898
 C1793 C 0.78894 0.30890 0.37113
 C1794 C 0.78265 0.30295 0.38552
 C1795 C 0.77548 0.28019 0.40371
 C1796 C 0.76252 0.28753 0.41159
 C1797 C 0.75756 0.28229 0.42677
 C1798 C 0.76547 0.26958 0.43444
 C1799 C 0.77818 0.26197 0.42636
 C1800 C 0.78312 0.26721 0.41117
 H1801 H 0.79651 0.27364 0.35221
 H1802 H 0.79011 0.32168 0.36970
 H1803 H 0.74770 0.28841 0.43260
 H1804 H 0.78459 0.25217 0.43191
 H1805 H 0.77914 0.31129 0.39482
 H1806 H 0.75625 0.29742 0.40604
 H1807 H 0.78552 0.26323 0.37740
 H1808 H 0.79327 0.26141 0.40550
 C1809 C 0.78307 0.78521 -0.11255
 C1810 C 0.77258 0.79067 -0.12460
 C1811 C 0.77862 0.79662 -0.13914
 C1812 C 0.79526 0.79725 -0.14189
 C1813 C 0.80572 0.79182 -0.12981
 C1814 C 0.79970 0.78586 -0.11533
 C1815 C 0.77684 0.77914 -0.09697
 C1816 C 0.78397 0.76584 -0.08960
 C1817 C 0.77893 0.76076 -0.07441
 C1818 C 0.76661 0.76886 -0.06622
 C1819 C 0.75913 0.78187 -0.07382
 C1820 C 0.76418 0.78695 -0.08904
 H1821 H 0.77026 0.80056 -0.14829
 H1822 H 0.81860 0.79246 -0.13142
 H1823 H 0.78491 0.75064 -0.06899
 H1824 H 0.74963 0.78841 -0.06785
 H1825 H 0.80810 0.78207 -0.10615
 H1826 H 0.79357 0.75941 -0.09554
 H1827 H 0.75971 0.79017 -0.12286
 H1828 H 0.75855 0.79732 -0.09436
 C1829 C 0.28419 0.46242 0.85973
 C1830 C 0.28936 0.47297 0.87180
 C1831 C 0.29549 0.46716 0.88633
 C1832 C 0.29658 0.45067 0.88911
 C1833 C 0.29124 0.44012 0.87712
 C1834 C 0.28511 0.44593 0.86259
 C1835 C 0.27820 0.46857 0.84407
 C1836 C 0.26505 0.46136 0.83638
 C1837 C 0.25975 0.46687 0.82140
 C1838 C 0.26751 0.47970 0.81376
 C1839 C 0.28057 0.48700 0.82156
 C1840 C 0.28584 0.48150 0.83653
 H1841 H 0.29928 0.47558 0.89544
 H1842 H 0.29215 0.42736 0.87881
 H1843 H 0.24966 0.46095 0.81576
 H1844 H 0.28689 0.49685 0.81601
 H1845 H 0.28146 0.43749 0.85344
 H1846 H 0.25879 0.45149 0.84197
 H1847 H 0.28857 0.48573 0.87006
 H1848 H 0.29615 0.48716 0.84203
 C1849 C 0.28517 -0.03705 0.36036
 C1850 C 0.28611 -0.05356 0.36306
 C1851 C 0.29218 -0.05950 0.37756
 C1852 C 0.29745 -0.04905 0.38968
 C1853 C 0.29634 -0.03254 0.38705
 C1854 C 0.29027 -0.02661 0.37256
 C1855 C 0.27924 -0.03077 0.34473
 C1856 C 0.28689 -0.01775 0.33733
 C1857 C 0.28169 -0.01214 0.32238
 C1858 C 0.26868 -0.01940 0.31446
 C1859 C 0.26091 -0.03230 0.32195
 C1860 C 0.26613 -0.03792 0.33691
 H1861 H 0.29311 -0.07227 0.37913
 H1862 H 0.30007 -0.02420 0.39626
 H1863 H 0.28803 -0.00224 0.31695
 H1864 H 0.25085 -0.03819 0.31622
 H1865 H 0.28946 -0.01383 0.37093
 H1866 H 0.29717 -0.01212 0.34293
 H1867 H 0.28252 -0.06192 0.35381
 H1868 H 0.25987 -0.04785 0.34239
 C1869 C -0.03483 -0.03590 -0.11089
 C1870 C -0.05118 -0.03438 -0.11466
 C1871 C -0.05726 -0.04037 -0.12911
 C1872 C -0.04719 -0.04821 -0.14029
 C1873 C -0.03073 -0.04963 -0.13638
 C1874 C -0.02468 -0.04353 -0.12195
 C1875 C -0.02850 -0.02975 -0.09536
 C1876 C -0.01693 -0.03840 -0.08668
 C1877 C -0.01142 -0.03290 -0.07179
 C1878 C -0.01740 -0.01865 -0.06521
 C1879 C -0.02881 -0.00989 -0.07400
 C1880 C -0.03425 -0.01535 -0.08891
 H1881 H -0.07007 -0.03946 -0.13097
 H1882 H -0.02224 -0.05488 -0.14467
 H1883 H -0.00273 -0.04002 -0.06529
 H1884 H -0.03363 0.00117 -0.06933
 H1885 H -0.01194 -0.04459 -0.11956
 H1886 H -0.01241 -0.04964 -0.09119
 H1887 H -0.05941 -0.02891 -0.10623
 H1888 H -0.04297 -0.00827 -0.09541
 C1889 C -0.03584 0.46284 0.38900
 C1890 C -0.05218 0.46462 0.38535
 C1891 C -0.05854 0.45841 0.37113
 C1892 C -0.04876 0.45008 0.36005
 C1893 C -0.03230 0.44837 0.36385
 C1894 C -0.02597 0.45469 0.37806
 C1895 C -0.02923 0.46924 0.40431
 C1896 C -0.01780 0.46055 0.41314
 C1897 C -0.01215 0.46624 0.42790
 C1898 C -0.01786 0.48072 0.43421
 C1899 C -0.02908 0.48954 0.42525
 C1900 C -0.03466 0.48389 0.41046
 H1901 H -0.07135 0.45956 0.36937
 H1902 H -0.02402 0.44271 0.35561
 H1903 H -0.00360 0.45907 0.43454
 H1904 H -0.03368 0.50078 0.42971
 H1905 H -0.01324 0.45340 0.38036
 H1906 H -0.01354 0.44912 0.40886
 H1907 H -0.06021 0.47048 0.39372
 H1908 H -0.04325 0.49101 0.40383
 C1909 C 0.46592 -0.03714 0.38984
 C1910 C 0.46088 -0.02685 0.37748
 C1911 C 0.45476 -0.03297 0.36309
 C1912 C 0.45353 -0.04952 0.36075
 C1913 C 0.45868 -0.05980 0.37306
 C1914 C 0.46481 -0.05368 0.38744
 C1915 C 0.47201 -0.03068 0.40532
 C1916 C 0.48514 -0.03784 0.41309
 C1917 C 0.49047 -0.03217 0.42797
 C1918 C 0.48279 -0.01921 0.43544
 C1919 C 0.46980 -0.01190 0.42754
 C1920 C 0.46448 -0.01756 0.41264
 H1921 H 0.45110 -0.02475 0.35373
 H1922 H 0.45763 -0.07260 0.37173
 H1923 H 0.50051 -0.03811 0.43369
 H1924 H 0.46354 -0.00194 0.43296
 H1925 H 0.46834 -0.06191 0.39683
 H1926 H 0.49131 -0.04784 0.40765
 H1927 H 0.46180 -0.01405 0.37889
 H1928 H 0.45421 -0.01192 0.40705
 C1929 C 0.46380 0.46340 -0.11072
 C1930 C 0.44713 0.46224 -0.11308
 C1931 C 0.44096 0.45600 -0.12737
 C1932 C 0.45131 0.45077 -0.13965
 C1933 C 0.46798 0.45192 -0.13730
 C1934 C 0.47416 0.45816 -0.12298
 C1935 C 0.47027 0.46988 -0.09541
 C1936 C 0.48346 0.46263 -0.08782
 C1937 C 0.48907 0.46832 -0.07304
 C1938 C 0.48162 0.48141 -0.06554
 C1939 C 0.46862 0.48883 -0.07331
 C1940 C 0.46301 0.48313 -0.08807
 H1941 H 0.42807 0.45499 -0.12869
 H1942 H 0.47625 0.44817 -0.14662
 H1943 H 0.49905 0.46226 -0.06737
 H1944 H 0.46260 0.49895 -0.06792
 H1945 H 0.48705 0.45907 -0.12157
 H1946 H 0.48918 0.45229 -0.09310
 H1947 H 0.43884 0.46590 -0.10374
 H1948 H 0.45297 0.48910 -0.09374
 C1949 C 0.46638 0.78651 0.36069
 C1950 C 0.46153 0.77609 0.37302
 C1951 C 0.45567 0.78207 0.38760
 C1952 C 0.45451 0.79859 0.39014
 C1953 C 0.45947 0.80899 0.37784
 C1954 C 0.46534 0.80302 0.36329
 C1955 C 0.47221 0.78022 0.34503
 C1956 C 0.48523 0.78744 0.33711
 C1957 C 0.49034 0.78189 0.32211
 C1958 C 0.48255 0.76899 0.31465
 C1959 C 0.46965 0.76164 0.32268
 C1960 C 0.46456 0.76718 0.33770
 H1961 H 0.45216 0.77375 0.39693
 H1962 H 0.45846 0.82178 0.37933
 H1963 H 0.50032 0.78784 0.31629
 H1964 H 0.46331 0.75172 0.31728
 H1965 H 0.46871 0.81135 0.35392
 H1966 H 0.49149 0.79738 0.34255
 H1967 H 0.46240 0.76331 0.37146
 H1968 H 0.45436 0.76149 0.34341
 C1969 C -0.03242 0.78472 0.86233
 C1970 C -0.03058 0.80092 0.86605
 C1971 C -0.03653 0.80712 0.88047
 C1972 C -0.04466 0.79732 0.89167
 C1973 C -0.04629 0.78098 0.88787
 C1974 C -0.04022 0.77480 0.87347
 C1975 C -0.02668 0.77836 0.84663
 C1976 C -0.03586 0.76711 0.83812
 C1977 C -0.03099 0.76184 0.82293
 C1978 C -0.01686 0.76775 0.81584
 C1979 C -0.00748 0.77873 0.82450
 C1980 C -0.01232 0.78393 0.83973
 H1981 H -0.03544 0.81984 0.88225
 H1982 H -0.05175 0.77268 0.89620
 H1983 H -0.03857 0.75346 0.81657
 H1984 H 0.00352 0.78345 0.81945
 H1985 H -0.04153 0.76217 0.87113
 H1986 H -0.04710 0.76274 0.84297
 H1987 H -0.02498 0.80899 0.85756
 H1988 H -0.00483 0.79239 0.84609
 C1989 C 0.38994 0.78578 0.28485
 C1990 C 0.38758 0.80234 0.28577
 C1991 C 0.37317 0.80857 0.29163
 C1992 C 0.36075 0.79838 0.29668
 C1993 C 0.36308 0.78181 0.29570
 C1994 C 0.37752 0.77558 0.28986
 C1995 C 0.40540 0.77925 0.27886
 C1996 C 0.41272 0.76623 0.28657
 C1997 C 0.42764 0.76058 0.28135
 C1998 C 0.43554 0.76779 0.26827
 C1999 C 0.42803 0.78062 0.26038
 C2000 C 0.41315 0.78628 0.26562
 H2001 H 0.37188 0.82138 0.29252
 H2002 H 0.35366 0.77366 0.29930
 H2003 H 0.43309 0.75072 0.28776
 H2004 H 0.43373 0.78647 0.25026
 H2005 H 0.37892 0.76277 0.28910
 H2006 H 0.40712 0.76068 0.29691
 H2007 H 0.39703 0.81051 0.28227
 H2008 H 0.40770 0.79618 0.25930
 C2009 C -0.11280 0.78344 0.78253
 C2010 C -0.12484 0.78873 0.77194
 C2011 C -0.13924 0.79496 0.77791
 C2012 C -0.14189 0.79603 0.79459
 C2013 C -0.12985 0.79070 0.80515
 C2014 C -0.11549 0.78448 0.79919
 C2015 C -0.09727 0.77727 0.77635
 C2016 C -0.08978 0.76418 0.78377
 C2017 C -0.07462 0.75909 0.77873
 C2018 C -0.06659 0.76697 0.76614
 C2019 C -0.07430 0.77978 0.75841
 C2020 C -0.08947 0.78486 0.76345
 H2021 H -0.14837 0.79880 0.76948
 H2022 H -0.13138 0.79167 0.81806
 H2023 H -0.06909 0.74915 0.78493
 H2024 H -0.06847 0.78616 0.74870
 H2025 H -0.10633 0.78082 0.80766
 H2026 H -0.09560 0.75794 0.79358
 H2027 H -0.12317 0.78793 0.75904
 H2028 H -0.09486 0.79508 0.75760
 C2029 C 0.86142 0.28569 0.46781
 C2030 C 0.87365 0.27535 0.46262
 C2031 C 0.88802 0.28141 0.45642
 C2032 C 0.89046 0.29796 0.45526
 C2033 C 0.87827 0.30828 0.46056
 C2034 C 0.86393 0.30222 0.46676
 C2035 C 0.84591 0.27937 0.47388
 C2036 C 0.83817 0.28661 0.48701
 C2037 C 0.82306 0.28138 0.49204
 C2038 C 0.81530 0.26878 0.48404
 C2039 C 0.82325 0.26123 0.47119
 C2040 C 0.83839 0.26646 0.46618
 H2041 H 0.89727 0.27316 0.45263
 H2042 H 0.87965 0.32107 0.45954
 H2043 H 0.81734 0.28744 0.50202
 H2044 H 0.81763 0.25152 0.46472
 H2045 H 0.85463 0.31051 0.47037
 H2046 H 0.84378 0.29642 0.49335
 H2047 H 0.87213 0.26256 0.46346
 H2048 H 0.84397 0.26074 0.45592
 C2049 C 0.86279 0.78506 -0.03337
 C2050 C 0.86521 0.80159 -0.03455
 C2051 C 0.87961 0.80767 -0.04057
 C2052 C 0.89197 0.79738 -0.04553
 C2053 C 0.88959 0.78083 -0.04430
 C2054 C 0.87514 0.77473 -0.03830
 C2055 C 0.84727 0.77871 -0.02733
 C2056 C 0.83978 0.76578 -0.03501
 C2057 C 0.82464 0.76054 -0.02998
 C2058 C 0.81669 0.76808 -0.01712
 C2059 C 0.82444 0.78071 -0.00915
 C2060 C 0.83954 0.78596 -0.01421
 H2061 H 0.88092 0.82047 -0.04167
 H2062 H 0.89896 0.77260 -0.04783
 H2063 H 0.81903 0.75080 -0.03642
 H2064 H 0.81873 0.78678 0.00082
 H2065 H 0.87367 0.76194 -0.03738
 H2066 H 0.84538 0.76005 -0.04525
 H2067 H 0.85581 0.80984 -0.03114
 H2068 H 0.84513 0.79580 -0.00790
 C2069 C -0.11028 -0.03442 -0.03467
 C2070 C -0.12117 -0.02455 -0.04285
 C2071 C -0.13562 -0.03065 -0.04876
 C2072 C -0.13974 -0.04686 -0.04663
 C2073 C -0.12882 -0.05660 -0.03809
 C2074 C -0.11433 -0.05049 -0.03229
 C2075 C -0.09460 -0.02810 -0.02895
 C2076 C -0.08805 -0.03324 -0.01424
 C2077 C -0.07299 -0.02784 -0.00922
 C2078 C -0.06415 -0.01710 -0.01873
 C2079 C -0.07084 -0.01173 -0.03330
 C2080 C -0.08586 -0.01720 -0.03836
 H2081 H -0.14374 -0.02236 -0.05452
 H2082 H -0.13088 -0.06924 -0.03656
 H2083 H -0.06824 -0.03217 0.00211
 H2084 H -0.06431 -0.00357 -0.04100
 H2085 H -0.10606 -0.05851 -0.02634
 H2086 H -0.09457 -0.04143 -0.00658
 H2087 H -0.11859 -0.01202 -0.04454
 H2088 H -0.09044 -0.01318 -0.04986
 C2089 C -0.11070 0.46575 0.46349
 C2090 C -0.11473 0.44969 0.46594
 C2091 C -0.12921 0.44354 0.46021
 C2092 C -0.14019 0.45323 0.45169
 C2093 C -0.13602 0.46939 0.44929
 C2094 C -0.12154 0.47553 0.45514
 C2095 C -0.09512 0.47212 0.46940
 C2096 C -0.08623 0.48296 0.46006
 C2097 C -0.07125 0.48841 0.46531
 C2098 C -0.06478 0.48308 0.47999
 C2099 C -0.07379 0.47243 0.48944
 C2100 C -0.08879 0.46706 0.48423
 H2101 H -0.13126 0.43092 0.46185
 H2102 H -0.14413 0.47762 0.44345
 H2103 H -0.06459 0.49650 0.45766
 H2104 H -0.06922 0.46815 0.50086
 H2105 H -0.11894 0.48805 0.45332
 H2106 H -0.09064 0.48693 0.44847
 H2107 H -0.10646 0.44171 0.47195
 H2108 H -0.09545 0.45893 0.49185
 C2109 C 0.39013 -0.03477 0.46460
 C2110 C 0.37908 -0.04222 0.47490
 C2111 C 0.36465 -0.04833 0.46893
 C2112 C 0.36073 -0.04714 0.45242
 C2113 C 0.37184 -0.03935 0.44222
 C2114 C 0.38629 -0.03334 0.44821
 C2115 C 0.40575 -0.02881 0.47082
 C2116 C 0.41240 -0.01456 0.46493
 C2117 C 0.42740 -0.00931 0.47028
 C2118 C 0.43609 -0.01816 0.48172
 C2119 C 0.42930 -0.03227 0.48783
 C2120 C 0.41433 -0.03754 0.48242
 H2121 H 0.35639 -0.05348 0.47753
 H2122 H 0.36994 -0.03856 0.42937
 H2123 H 0.43222 0.00164 0.46536
 H2124 H 0.43570 -0.03945 0.49656
 H2125 H 0.39470 -0.02797 0.43987
 H2126 H 0.40599 -0.00742 0.45617
 H2127 H 0.38150 -0.04318 0.48767
 H2128 H 0.40967 -0.04869 0.48704
 C2129 C 0.38931 0.46582 -0.03627
 C2130 C 0.37828 0.45847 -0.02588
 C2131 C 0.36388 0.45221 -0.03176
 C2132 C 0.35997 0.45316 -0.04830
 C2133 C 0.37107 0.46082 -0.05860
 C2134 C 0.38549 0.46698 -0.05268
 C2135 C 0.40491 0.47193 -0.03013
 C2136 C 0.41158 0.48608 -0.03627
 C2137 C 0.42656 0.49145 -0.03096
 C2138 C 0.43521 0.48283 -0.01932
 C2139 C 0.42841 0.46882 -0.01298
 C2140 C 0.41347 0.46343 -0.01834
 H2141 H 0.35564 0.44715 -0.02310
 H2142 H 0.36918 0.46141 -0.07146
 H2143 H 0.43140 0.50231 -0.03608
 H2144 H 0.43478 0.46180 -0.00410
 H2145 H 0.39388 0.47225 -0.06110
 H2146 H 0.40519 0.49305 -0.04518
 H2147 H 0.38068 0.45772 -0.01309
 H2148 H 0.40881 0.45236 -0.01353
 C2149 C 0.35965 0.46334 0.78412
 C2150 C 0.36196 0.44678 0.78515
 C2151 C 0.37627 0.44055 0.79125
 C2152 C 0.38861 0.45074 0.79644
 C2153 C 0.38635 0.46731 0.79532
 C2154 C 0.37201 0.47354 0.78924
 C2155 C 0.34425 0.46987 0.77801
 C2156 C 0.33688 0.48288 0.78567
 C2157 C 0.32198 0.48850 0.78040
 C2158 C 0.31414 0.48126 0.76732
 C2159 C 0.32170 0.46844 0.75946
 C2160 C 0.33657 0.46282 0.76475
 H2161 H 0.37752 0.42774 0.79223
 H2162 H 0.39573 0.47546 0.79903
 H2163 H 0.31649 0.49835 0.78679
 H2164 H 0.31604 0.46257 0.74934
 H2165 H 0.37065 0.48635 0.78841
 H2166 H 0.34243 0.48845 0.79603
 H2167 H 0.35255 0.43861 0.78157
 H2168 H 0.34206 0.45291 0.75847
 C2169 C 0.36084 -0.03563 0.28566
 C2170 C 0.36308 -0.05220 0.28654
 C2171 C 0.37735 -0.05854 0.29259
 C2172 C 0.38975 -0.04845 0.29787
 C2173 C 0.38753 -0.03186 0.29697
 C2174 C 0.37321 -0.02552 0.29095
 C2175 C 0.34554 -0.02900 0.27943
 C2176 C 0.33811 -0.01602 0.28710
 C2177 C 0.32328 -0.01033 0.28170
 C2178 C 0.31558 -0.01747 0.26847
 C2179 C 0.32321 -0.03023 0.26060
 C2180 C 0.33800 -0.03592 0.26602
 H2181 H 0.37857 -0.07136 0.29341
 H2182 H 0.39693 -0.02379 0.30077
 H2183 H 0.31773 -0.00053 0.28810
 H2184 H 0.31766 -0.03602 0.25036
 H2185 H 0.37190 -0.01270 0.29024
 H2186 H 0.34355 -0.01055 0.29756
 H2187 H 0.35365 -0.06030 0.28285
 H2188 H 0.34355 -0.04579 0.25972
 C2189 C 0.13723 0.53384 0.71592
 C2190 C 0.13458 0.53471 0.69924
 C2191 C 0.12026 0.54093 0.69317
 C2192 C 0.10821 0.54643 0.70364
 C2193 C 0.11082 0.54553 0.72034
 C2194 C 0.12518 0.53931 0.72641
 C2195 C 0.15268 0.52760 0.72224
 C2196 C 0.16047 0.53518 0.73513
 C2197 C 0.17553 0.52995 0.74034
 C2198 C 0.18316 0.51699 0.73278
 C2199 C 0.17512 0.50912 0.72019
 C2200 C 0.16008 0.51436 0.71499
 H2201 H 0.11876 0.54175 0.68025
 H2202 H 0.10168 0.54949 0.72871
 H2203 H 0.18137 0.53633 0.75004
 H2204 H 0.18057 0.49906 0.71412
 H2205 H 0.12680 0.53864 0.73933
 H2206 H 0.15515 0.54550 0.74086
 H2207 H 0.14375 0.53090 0.69083
 H2208 H 0.15426 0.50811 0.70519
 C2209 C 0.13810 0.03397 0.21766
 C2210 C 0.13524 0.05045 0.21679
 C2211 C 0.12070 0.05626 0.21085
 C2212 C 0.10865 0.04574 0.20564
 C2213 C 0.11146 0.02924 0.20658
 C2214 C 0.12603 0.02342 0.21253
 C2215 C 0.15380 0.02791 0.22352
 C2216 C 0.16149 0.01520 0.21566
 C2217 C 0.17673 0.01017 0.22053
 C2218 C 0.18463 0.01774 0.23340
 C2219 C 0.17673 0.03019 0.24152
 C2220 C 0.16151 0.03521 0.23663
 H2221 H 0.11903 0.06903 0.20999
 H2222 H 0.10233 0.02084 0.20284
 H2223 H 0.18245 0.00057 0.21398
 H2224 H 0.18241 0.03626 0.25151
 H2225 H 0.12782 0.01066 0.21322
 H2226 H 0.15593 0.00945 0.20541
 H2227 H 0.14440 0.05889 0.22036
 H2228 H 0.15578 0.04488 0.24308
 C2229 C 0.61265 0.71593 0.21661
 C2230 C 0.62482 0.71085 0.22714
 C2231 C 0.63933 0.70494 0.22110
 C2232 C 0.64195 0.70396 0.20441
 C2233 C 0.62976 0.70906 0.19391
 C2234 C 0.61530 0.71498 0.19993
 C2235 C 0.59708 0.72190 0.22288
 C2236 C 0.58951 0.73500 0.21558
 C2237 C 0.57438 0.74002 0.22074
 C2238 C 0.56643 0.73204 0.23333
 C2239 C 0.57422 0.71921 0.24094
 C2240 C 0.58938 0.71421 0.23577
 H2241 H 0.64856 0.70128 0.22950
 H2242 H 0.63127 0.70815 0.18099
 H2243 H 0.56880 0.74999 0.21464
 H2244 H 0.56845 0.71276 0.25064
 H2245 H 0.60604 0.71850 0.19151
 H2246 H 0.59526 0.74133 0.20578
 H2247 H 0.62318 0.71160 0.24005
 H2248 H 0.59486 0.70399 0.24153
 C2249 C 0.11047 0.71430 0.71534
 C2250 C 0.11307 0.69777 0.71445
 C2251 C 0.12751 0.69175 0.70847
 C2252 C 0.13972 0.70211 0.70325
 C2253 C 0.13715 0.71864 0.70416
 C2254 C 0.12267 0.72467 0.71015
 C2255 C 0.09494 0.72061 0.72139
 C2256 C 0.08745 0.73354 0.71371
 C2257 C 0.07247 0.73898 0.71892
 C2258 C 0.06463 0.73162 0.73197
 C2259 C 0.07229 0.71888 0.73984
 C2260 C 0.08726 0.71344 0.73461
 H2261 H 0.12900 0.67896 0.70763
 H2262 H 0.14641 0.72691 0.70041
 H2263 H 0.06691 0.74878 0.71253
 H2264 H 0.06663 0.71294 0.74994
 H2265 H 0.12110 0.73746 0.71087
 H2266 H 0.09297 0.73918 0.70338
 H2267 H 0.10379 0.68947 0.71806
 H2268 H 0.09283 0.70360 0.74092
 C2269 C 0.63821 0.21566 0.53448
 C2270 C 0.63560 0.19913 0.53533
 C2271 C 0.62112 0.19309 0.54121
 C2272 C 0.60888 0.20343 0.54637
 C2273 C 0.61145 0.21996 0.54548
 C2274 C 0.62596 0.22601 0.53961
 C2275 C 0.65378 0.22199 0.52855
 C2276 C 0.66123 0.23489 0.53631
 C2277 C 0.67624 0.24036 0.53119
 C2278 C 0.68415 0.23305 0.51817
 C2279 C 0.67653 0.22033 0.51022
 C2280 C 0.66153 0.21487 0.51536
 H2281 H 0.61963 0.18030 0.54203
 H2282 H 0.60217 0.22822 0.54918
 H2283 H 0.68177 0.25013 0.53765
 H2284 H 0.68223 0.21444 0.50013
 H2285 H 0.62754 0.23880 0.53892
 H2286 H 0.65565 0.24050 0.54663
 H2287 H 0.64491 0.19084 0.53177
 H2288 H 0.65599 0.20505 0.50899
 C2289 C 0.63952 0.71603 0.03444
 C2290 C 0.62740 0.71131 0.02368
 C2291 C 0.61280 0.70535 0.02943
 C2292 C 0.61000 0.70397 0.04606
 C2293 C 0.62211 0.70875 0.05680
 C2294 C 0.63669 0.71471 0.05106
 C2295 C 0.65518 0.72206 0.02840
 C2296 C 0.66286 0.73490 0.03604
 C2297 C 0.67788 0.74018 0.03078
 C2298 C 0.68561 0.73273 0.01773
 C2299 C 0.67780 0.72002 0.00994
 C2300 C 0.66276 0.71476 0.01520
 H2301 H 0.60362 0.70197 0.02085
 H2302 H 0.62045 0.70756 0.06968
 H2303 H 0.68351 0.75000 0.03707
 H2304 H 0.68341 0.71394 -0.00010
 H2305 H 0.64589 0.71798 0.05965
 H2306 H 0.65723 0.74090 0.04610
 H2307 H 0.62914 0.71238 0.01080
 H2308 H 0.65724 0.70472 0.00918
 C2309 C 0.11326 0.03402 0.03258
 C2310 C 0.11716 0.03199 0.04888
 C2311 C 0.13149 0.03803 0.05510
 C2312 C 0.14242 0.04646 0.04523
 C2313 C 0.13845 0.04827 0.02879
 C2314 C 0.12413 0.04211 0.02258
 C2315 C 0.09765 0.02816 0.02622
 C2316 C 0.08885 0.03733 0.01513
 C2317 C 0.07371 0.03234 0.00994
 C2318 C 0.06697 0.01809 0.01576
 C2319 C 0.07593 0.00873 0.02655
 C2320 C 0.09110 0.01369 0.03167
 H2321 H 0.13340 0.03676 0.06791
 H2322 H 0.14657 0.05397 0.02042
 H2323 H 0.06711 0.03990 0.00171
 H2324 H 0.07114 -0.00236 0.03119
 H2325 H 0.12165 0.04358 0.00987
 H2326 H 0.09343 0.04864 0.01086
 H2327 H 0.10887 0.02615 0.05701
 H2328 H 0.09769 0.00621 0.03999
 C2329 C 0.11241 0.53433 0.53170
 C2330 C 0.11490 0.55086 0.53273
 C2331 C 0.12930 0.55693 0.53875
 C2332 C 0.14158 0.54661 0.54386
 C2333 C 0.13912 0.53007 0.54278
 C2334 C 0.12467 0.52399 0.53678
 C2335 C 0.09689 0.52802 0.52566
 C2336 C 0.08931 0.51517 0.53342
 C2337 C 0.07417 0.50997 0.52841
 C2338 C 0.06628 0.51749 0.51550
 C2339 C 0.07411 0.53003 0.50745
 C2340 C 0.08922 0.53523 0.51248
 H2341 H 0.13068 0.56972 0.53974
 H2342 H 0.14843 0.52182 0.54644
 H2343 H 0.06849 0.50029 0.53490
 H2344 H 0.06845 0.53607 0.49743
 H2345 H 0.12315 0.51120 0.53596
 H2346 H 0.09486 0.50947 0.54370
 H2347 H 0.10556 0.55914 0.52921
 H2348 H 0.09487 0.54500 0.50611
 C2349 C 0.61283 0.03524 0.53273
 C2350 C 0.61510 0.05179 0.53404
 C2351 C 0.62946 0.05794 0.54007
 C2352 C 0.64191 0.04771 0.54491
 C2353 C 0.63968 0.03115 0.54355
 C2354 C 0.62528 0.02498 0.53754
 C2355 C 0.59736 0.02881 0.52671
 C2356 C 0.59005 0.01570 0.53429
 C2357 C 0.57497 0.01034 0.52930
 C2358 C 0.56686 0.01795 0.51658
 C2359 C 0.57440 0.03077 0.50871
 C2360 C 0.58946 0.03613 0.51373
 H2361 H 0.63067 0.07074 0.54127
 H2362 H 0.64912 0.02297 0.54700
 H2363 H 0.56951 0.00046 0.53566
 H2364 H 0.56856 0.03689 0.49884
 H2365 H 0.62393 0.01219 0.53650
 H2366 H 0.59577 0.00991 0.54443
 H2367 H 0.60562 0.05999 0.53074
 H2368 H 0.59491 0.04610 0.50750
 C2369 C 0.61225 0.53546 0.03153
 C2370 C 0.61461 0.55199 0.03285
 C2371 C 0.62896 0.55807 0.03899
 C2372 C 0.64132 0.54777 0.04393
 C2373 C 0.63900 0.53123 0.04255
 C2374 C 0.62461 0.52514 0.03642
 C2375 C 0.59676 0.52912 0.02546
 C2376 C 0.58937 0.51604 0.03301
 C2377 C 0.57425 0.51078 0.02800
 C2378 C 0.56619 0.51846 0.01530
 C2379 C 0.57382 0.53124 0.00745
 C2380 C 0.58892 0.53650 0.01248
 H2381 H 0.63023 0.57086 0.04020
 H2382 H 0.64838 0.52300 0.04607
 H2383 H 0.56873 0.50092 0.03435
 H2384 H 0.56802 0.53741 -0.00241
 H2385 H 0.62320 0.51235 0.03538
 H2386 H 0.59504 0.51021 0.04315
 H2387 H 0.60520 0.56025 0.02949
 H2388 H 0.59442 0.54645 0.00626
 C2389 C 0.03398 0.03344 0.11252
 C2390 C 0.02376 0.04111 0.12349
 C2391 C 0.02967 0.04701 0.13807
 C2392 C 0.04605 0.04536 0.14222
 C2393 C 0.05616 0.03740 0.13116
 C2394 C 0.05023 0.03161 0.11657
 C2395 C 0.02789 0.02775 0.09670
 C2396 C 0.03363 0.01348 0.08994
 C2397 C 0.02864 0.00862 0.07465
 C2398 C 0.01770 0.01787 0.06577
 C2399 C 0.01162 0.03192 0.07271
 C2400 C 0.01668 0.03682 0.08796
 H2401 H 0.02113 0.05235 0.14626
 H2402 H 0.06893 0.03630 0.13320
 H2403 H 0.03348 -0.00232 0.06973
 H2404 H 0.00326 0.03939 0.06618
 H2405 H 0.05853 0.02611 0.10822
 H2406 H 0.04205 0.00607 0.09646
 H2407 H 0.01109 0.04240 0.12089
 H2408 H 0.01218 0.04797 0.09270
 C2409 C 0.03223 0.53469 0.61156
 C2410 C 0.03702 0.52433 0.62397
 C2411 C 0.04304 0.53038 0.63845
 C2412 C 0.04443 0.54691 0.64081
 C2413 C 0.03956 0.55725 0.62842
 C2414 C 0.03353 0.55121 0.61398
 C2415 C 0.02633 0.52838 0.59596
 C2416 C 0.01345 0.53579 0.58799
 C2417 C 0.00858 0.53057 0.57280
 C2418 C 0.01649 0.51782 0.56519
 C2419 C 0.02908 0.51012 0.57336
 C2420 C 0.03394 0.51535 0.58858
 H2421 H 0.04651 0.52212 0.64784
 H2422 H 0.04078 0.57003 0.62973
 H2423 H -0.00121 0.53674 0.56691
 H2424 H 0.03547 0.50029 0.56787
 H2425 H 0.03024 0.55949 0.60454
 H2426 H 0.00720 0.54571 0.59348
 H2427 H 0.03599 0.51154 0.62252
 H2428 H 0.04400 0.50950 0.59435
 C2429 C 0.53231 0.03283 0.61370
 C2430 C 0.53019 0.04892 0.61776
 C2431 C 0.53593 0.05491 0.63235
 C2432 C 0.54414 0.04500 0.64338
 C2433 C 0.54598 0.02875 0.63928
 C2434 C 0.54012 0.02279 0.62470
 C2435 C 0.52684 0.02673 0.59782
 C2436 C 0.53628 0.01581 0.58914
 C2437 C 0.53163 0.01078 0.57379
 C2438 C 0.51746 0.01661 0.56672
 C2439 C 0.50784 0.02726 0.57554
 C2440 C 0.51245 0.03222 0.59092
 H2441 H 0.53465 0.06757 0.63438
 H2442 H 0.55148 0.02036 0.64747
 H2443 H 0.53939 0.00265 0.56731
 H2444 H 0.49680 0.03190 0.57051
 H2445 H 0.54162 0.01023 0.62211
 H2446 H 0.54754 0.01152 0.59399
 H2447 H 0.52455 0.05709 0.60940
 H2448 H 0.50477 0.04042 0.59739
 C2449 C 0.53152 0.53435 0.11231
 C2450 C 0.53245 0.55083 0.11520
 C2451 C 0.53819 0.55659 0.12988
 C2452 C 0.54312 0.54602 0.14203
 C2453 C 0.54200 0.52953 0.13922
 C2454 C 0.53628 0.52376 0.12451
 C2455 C 0.52597 0.52832 0.09645
 C2456 C 0.53389 0.51557 0.08890
 C2457 C 0.52926 0.51052 0.07355
 C2458 C 0.51658 0.51810 0.06541
 C2459 C 0.50841 0.53061 0.07317
 C2460 C 0.51306 0.53566 0.08849
 H2461 H 0.53918 0.56935 0.13154
 H2462 H 0.54550 0.52108 0.14844
 H2463 H 0.53585 0.50087 0.06794
 H2464 H 0.49855 0.53670 0.06731
 H2465 H 0.53550 0.51100 0.12272
 H2466 H 0.54400 0.50979 0.09466
 H2467 H 0.52914 0.55930 0.10594
 H2468 H 0.50657 0.54537 0.09410
 C2469 C 0.21666 0.53430 0.63671
 C2470 C 0.21562 0.55084 0.63427
 C2471 C 0.20971 0.55696 0.61981
 C2472 C 0.20472 0.54669 0.60742
 C2473 C 0.20585 0.53014 0.60981
 C2474 C 0.21174 0.52401 0.62431
 C2475 C 0.22252 0.52790 0.65230
 C2476 C 0.21476 0.51495 0.65971
 C2477 C 0.21965 0.50960 0.67488
 C2478 C 0.23244 0.51707 0.68296
 C2479 C 0.24047 0.52973 0.67532
 C2480 C 0.23556 0.53508 0.66018
 H2481 H 0.20870 0.56976 0.61847
 H2482 H 0.20230 0.52193 0.60041
 H2483 H 0.21316 0.49985 0.68040
 H2484 H 0.25040 0.53574 0.68114
 H2485 H 0.21258 0.51121 0.62578
 H2486 H 0.20457 0.50927 0.65400
 H2487 H 0.21902 0.55907 0.64370
 H2488 H 0.24193 0.54492 0.65467
 C2489 C 0.21735 0.03511 0.13749
 C2490 C 0.20112 0.03294 0.13353
 C2491 C 0.19489 0.03894 0.11916
 C2492 C 0.20467 0.04747 0.10823
 C2493 C 0.22101 0.04955 0.11231
 C2494 C 0.22723 0.04342 0.12667
 C2495 C 0.22374 0.02907 0.15306
 C2496 C 0.23474 0.03817 0.16202
 C2497 C 0.23995 0.03297 0.17712
 C2498 C 0.23423 0.01859 0.18367
 C2499 C 0.22355 0.00930 0.17454
 C2500 C 0.21841 0.01446 0.15940
 H2501 H 0.18214 0.03752 0.11720
 H2502 H 0.22931 0.05539 0.10421
 H2503 H 0.24811 0.04047 0.18387
 H2504 H 0.21899 -0.00189 0.17916
 H2505 H 0.23988 0.04503 0.12921
 H2506 H 0.23893 0.04957 0.15760
 H2507 H 0.19305 0.02696 0.14179
 H2508 H 0.21017 0.00702 0.15268
 C2509 C 0.71423 0.21535 0.61147
 C2510 C 0.71314 0.19884 0.61405
 C2511 C 0.70753 0.19286 0.62870
 C2512 C 0.70287 0.20325 0.64111
 C2513 C 0.70389 0.21977 0.63853
 C2514 C 0.70951 0.22577 0.62385
 C2515 C 0.72016 0.22162 0.59584
 C2516 C 0.71267 0.23474 0.58847
 C2517 C 0.71790 0.24023 0.57347
 C2518 C 0.73076 0.23275 0.56551
 C2519 C 0.73840 0.21978 0.57302
 C2520 C 0.73315 0.21429 0.58800
 H2521 H 0.70658 0.18007 0.63020
 H2522 H 0.70056 0.22807 0.64794
 H2523 H 0.71169 0.25021 0.56802
 H2524 H 0.74835 0.21373 0.56727
 H2525 H 0.71038 0.23855 0.62228
 H2526 H 0.70251 0.24052 0.59413
 H2527 H 0.71639 0.19052 0.60464
 H2528 H 0.73931 0.20430 0.59348
 C2529 C 0.71703 0.71596 0.11162
 C2530 C 0.71602 0.69945 0.11427
 C2531 C 0.71023 0.69349 0.12885
 C2532 C 0.70533 0.70390 0.14115
 C2533 C 0.70640 0.72043 0.13856
 C2534 C 0.71218 0.72639 0.12394
 C2535 C 0.72285 0.72219 0.09594
 C2536 C 0.71515 0.73513 0.08848
 C2537 C 0.72016 0.74048 0.07335
 C2538 C 0.73301 0.73302 0.06535
 C2539 C 0.74090 0.72027 0.07299
 C2540 C 0.73588 0.71492 0.08809
 H2541 H 0.70925 0.68071 0.13035
 H2542 H 0.70289 0.72874 0.14788
 H2543 H 0.71377 0.75029 0.06782
 H2544 H 0.75087 0.71426 0.06722
 H2545 H 0.71301 0.73917 0.12232
 H2546 H 0.70496 0.74086 0.09416
 H2547 H 0.71938 0.69111 0.10491
 H2548 H 0.74219 0.70507 0.09364
 C2549 C 0.53275 0.71526 0.13709
 C2550 C 0.53362 0.69875 0.13436
 C2551 C 0.53971 0.69283 0.11988
 C2552 C 0.54506 0.70326 0.10778
 C2553 C 0.54404 0.71978 0.11043
 C2554 C 0.53795 0.72571 0.12493
 C2555 C 0.52689 0.72147 0.15277
 C2556 C 0.53472 0.73427 0.16034
 C2557 C 0.52983 0.73947 0.17556
 C2558 C 0.51699 0.73199 0.18356
 C2559 C 0.50890 0.71946 0.17579
 C2560 C 0.51380 0.71426 0.16058
 H2561 H 0.54061 0.68004 0.11833
 H2562 H 0.54787 0.72812 0.10125
 H2563 H 0.53637 0.74913 0.18119
 H2564 H 0.49892 0.71345 0.18155
 H2565 H 0.53723 0.73849 0.12660
 H2566 H 0.54496 0.73995 0.15472
 H2567 H 0.52999 0.69039 0.14360
 H2568 H 0.50737 0.70452 0.15495
 C2569 C 0.03449 0.71360 0.63884
 C2570 C 0.03960 0.72401 0.62661
 C2571 C 0.04558 0.71803 0.61209
 C2572 C 0.04659 0.70150 0.60949
 C2573 C 0.04134 0.69110 0.62167
 C2574 C 0.03536 0.69708 0.63617
 C2575 C 0.02854 0.71990 0.65445
 C2576 C 0.01539 0.71274 0.66221
 C2577 C 0.01016 0.71827 0.67718
 C2578 C 0.01795 0.73111 0.68476
 C2579 C 0.03096 0.73842 0.67688
 C2580 C 0.03619 0.73288 0.66190
 H2581 H 0.04932 0.72634 0.60285
 H2582 H 0.04222 0.67832 0.62014
 H2583 H 0.00008 0.71236 0.68286
 H2584 H 0.03730 0.74828 0.68239
 H2585 H 0.03178 0.68875 0.64546
 H2586 H 0.00912 0.70286 0.65668
 H2587 H 0.03885 0.73680 0.62821
 H2588 H 0.04648 0.73852 0.65632
 C2589 C 0.53266 0.63700 0.21858
 C2590 C 0.52201 0.62494 0.21369
 C2591 C 0.52786 0.61048 0.20771
 C2592 C 0.54447 0.60778 0.20648
 C2593 C 0.55510 0.61980 0.21150
 C2594 C 0.54926 0.63423 0.21748
 C2595 C 0.52657 0.65262 0.22439
 C2596 C 0.53407 0.66041 0.23733
 C2597 C 0.52907 0.67557 0.24211
 C2598 C 0.51644 0.68334 0.23405
 C2599 C 0.50864 0.67534 0.22139
 C2600 C 0.51364 0.66015 0.21663
 H2601 H 0.51938 0.60137 0.20413
 H2602 H 0.56795 0.61821 0.21042
 H2603 H 0.53532 0.68132 0.25195
 H2604 H 0.49890 0.68096 0.21488
 H2605 H 0.55777 0.64339 0.22087
 H2606 H 0.54390 0.65480 0.24370
 H2607 H 0.50916 0.62666 0.21457
 H2608 H 0.50773 0.65452 0.20651
 C2609 C 0.03399 0.63975 0.71494
 C2610 C 0.03519 0.63703 0.69830
 C2611 C 0.04119 0.62261 0.69245
 C2612 C 0.04612 0.61055 0.70309
 C2613 C 0.04497 0.61326 0.71975
 C2614 C 0.03896 0.62771 0.72561
 C2615 C 0.02780 0.65520 0.72106
 C2616 C 0.03516 0.66277 0.73421
 C2617 C 0.02982 0.67768 0.73946
 C2618 C 0.01696 0.68537 0.73170
 C2619 C 0.00939 0.67763 0.71874
 C2620 C 0.01475 0.66273 0.71349
 H2621 H 0.04222 0.62101 0.67955
 H2622 H 0.04850 0.60412 0.72824
 H2623 H 0.03599 0.68330 0.74943
 H2624 H -0.00055 0.68317 0.71248
 H2625 H 0.03802 0.62939 0.73850
 H2626 H 0.04536 0.65736 0.74017
 H2627 H 0.03177 0.64618 0.68977
 H2628 H 0.00868 0.65710 0.70347
 C2629 C 0.03249 0.11298 0.03191
 C2630 C 0.04077 0.12375 0.02200
 C2631 C 0.04679 0.13804 0.02824
 C2632 C 0.04461 0.14206 0.04462
 C2633 C 0.03604 0.13120 0.05440
 C2634 C 0.03015 0.11691 0.04815
 C2635 C 0.02677 0.09741 0.02557
 C2636 C 0.01215 0.09086 0.03085
 C2637 C 0.00737 0.07569 0.02586
 C2638 C 0.01706 0.06673 0.01536
 C2639 C 0.03143 0.07349 0.00966
 C2640 C 0.03625 0.08863 0.01473
 H2641 H 0.05265 0.14609 0.01995
 H2642 H 0.03454 0.13314 0.06718
 H2643 H -0.00382 0.07090 0.03040
 H2644 H 0.03924 0.06690 0.00164
 H2645 H 0.02418 0.10869 0.05623
 H2646 H 0.00443 0.09743 0.03897
 H2647 H 0.04250 0.12122 0.00934
 H2648 H 0.04768 0.09322 0.01059
 C2649 C 0.03447 0.61183 0.53144
 C2650 C 0.05114 0.61407 0.53274
 C2651 C 0.05737 0.62816 0.53913
 C2652 C 0.04707 0.64037 0.54437
 C2653 C 0.03039 0.63821 0.54295
 C2654 C 0.02416 0.62409 0.53656
 C2655 C 0.02795 0.59655 0.52523
 C2656 C 0.01474 0.58925 0.53273
 C2657 C 0.00936 0.57429 0.52764
 C2658 C 0.01707 0.56630 0.51491
 C2659 C 0.02997 0.57387 0.50708
 C2660 C 0.03534 0.58880 0.51219
 H2661 H 0.07025 0.62933 0.54034
 H2662 H 0.02217 0.64749 0.54669
 H2663 H -0.00058 0.56882 0.53398
 H2664 H 0.03617 0.56811 0.49721
 H2665 H 0.01127 0.62279 0.53553
 H2666 H 0.00890 0.59484 0.54291
 H2667 H 0.05940 0.60473 0.52919
 H2668 H 0.04539 0.59425 0.50600
 C2669 C 0.53323 0.11198 0.53291
 C2670 C 0.54986 0.11457 0.53394
 C2671 C 0.55588 0.12888 0.54001
 C2672 C 0.54541 0.14098 0.54518
 C2673 C 0.52876 0.13844 0.54408
 C2674 C 0.52273 0.12408 0.53802
 C2675 C 0.52697 0.09652 0.52687
 C2676 C 0.51408 0.08891 0.53462
 C2677 C 0.50900 0.07380 0.52965
 C2678 C 0.51669 0.06600 0.51679
 C2679 C 0.52925 0.07387 0.50873
 C2680 C 0.53433 0.08894 0.51372
 H2681 H 0.56876 0.13033 0.54100
 H2682 H 0.52039 0.14761 0.54779
 H2683 H 0.49931 0.06809 0.53615
 H2684 H 0.53541 0.06828 0.49874
 H2685 H 0.50985 0.12248 0.53721
 H2686 H 0.50827 0.09439 0.54488
 H2687 H 0.55826 0.10536 0.53040
 H2688 H 0.54412 0.09463 0.50734
 C2689 C 0.53382 0.61274 0.03094
 C2690 C 0.52344 0.62502 0.03585
 C2691 C 0.52959 0.63931 0.04193
 C2692 C 0.54626 0.64162 0.04328
 C2693 C 0.55662 0.62938 0.03823
 C2694 C 0.55048 0.61512 0.03212
 C2695 C 0.52738 0.59732 0.02500
 C2696 C 0.53472 0.58951 0.01198
 C2697 C 0.52941 0.57449 0.00706
 C2698 C 0.51664 0.56689 0.01507
 C2699 C 0.50899 0.57493 0.02781
 C2700 C 0.51430 0.58998 0.03270
 H2701 H 0.52130 0.64860 0.04551
 H2702 H 0.56951 0.63065 0.03939
 H2703 H 0.53556 0.56871 -0.00283
 H2704 H 0.49915 0.56943 0.03428
 H2705 H 0.55878 0.60579 0.02872
 H2706 H 0.54467 0.59497 0.00565
 H2707 H 0.51055 0.62361 0.03489
 H2708 H 0.50850 0.59564 0.04287
 C2709 C 0.71596 0.14047 0.53391
 C2710 C 0.72625 0.12960 0.54155
 C2711 C 0.72045 0.11503 0.54729
 C2712 C 0.70411 0.11080 0.54551
 C2713 C 0.69393 0.12177 0.53759
 C2714 C 0.69976 0.13635 0.53196
 C2715 C 0.72197 0.15621 0.52830
 C2716 C 0.71631 0.16292 0.51387
 C2717 C 0.72139 0.17804 0.50898
 C2718 C 0.73232 0.18679 0.51836
 C2719 C 0.73821 0.17996 0.53265
 C2720 C 0.73307 0.16487 0.53757
 H2721 H 0.72904 0.10693 0.55260
 H2722 H 0.68118 0.11964 0.53641
 H2723 H 0.71667 0.18290 0.49786
 H2724 H 0.74654 0.18641 0.54024
 H2725 H 0.69141 0.14461 0.52647
 H2726 H 0.70795 0.15647 0.50632
 H2727 H 0.73890 0.13227 0.54292
 H2728 H 0.73748 0.16016 0.54887
 C2729 C 0.71548 0.64081 0.03385
 C2730 C 0.69887 0.63806 0.03491
 C2731 C 0.69300 0.62352 0.04059
 C2732 C 0.70360 0.61136 0.04534
 C2733 C 0.72022 0.61408 0.04425
 C2734 C 0.72610 0.62865 0.03857
 C2735 C 0.72162 0.65639 0.02803
 C2736 C 0.73472 0.66379 0.03563
 C2737 C 0.74004 0.67878 0.03056
 C2738 C 0.73241 0.68670 0.01775
 C2739 C 0.71948 0.67915 0.00998
 C2740 C 0.71416 0.66418 0.01506
 H2741 H 0.68014 0.62191 0.04158
 H2742 H 0.72868 0.60487 0.04764
 H2743 H 0.74999 0.68426 0.03687
 H2744 H 0.71332 0.68486 0.00006
 H2745 H 0.73896 0.63035 0.03770
 H2746 H 0.74060 0.65817 0.04577
 H2747 H 0.69038 0.64729 0.03166
 H2748 H 0.70419 0.65869 0.00881
 C2749 C 0.21592 0.61126 0.71724
 C2750 C 0.19926 0.61366 0.71610
 C2751 C 0.19313 0.62786 0.70989
 C2752 C 0.20349 0.64003 0.70467
 C2753 C 0.22016 0.63769 0.70589
 C2754 C 0.22631 0.62345 0.71210
 C2755 C 0.22231 0.59588 0.72333
 C2756 C 0.23535 0.58845 0.71566
 C2757 C 0.24057 0.57339 0.72061
 C2758 C 0.23287 0.56543 0.73337
 C2759 C 0.22017 0.57312 0.74137
 C2760 C 0.21496 0.58816 0.73641
 H2761 H 0.18024 0.62917 0.70881
 H2762 H 0.22844 0.64693 0.70215
 H2763 H 0.25037 0.56782 0.71414
 H2764 H 0.21399 0.56740 0.75129
 H2765 H 0.23920 0.62200 0.71299
 H2766 H 0.24117 0.59402 0.70544
 H2767 H 0.19095 0.60438 0.71966
 H2768 H 0.20504 0.59370 0.74272
 C2769 C 0.21865 0.11291 0.21794
 C2770 C 0.22027 0.11670 0.20157
 C2771 C 0.21411 0.13094 0.19544
 C2772 C 0.20598 0.14189 0.20548
 C2773 C 0.20465 0.13806 0.22201
 C2774 C 0.21091 0.12383 0.22811
 C2775 C 0.22450 0.09736 0.22419
 C2776 C 0.21540 0.08872 0.23547
 C2777 C 0.22031 0.07360 0.24050
 C2778 C 0.23442 0.06670 0.23432
 C2779 C 0.24375 0.07552 0.22338
 C2780 C 0.23887 0.09068 0.21840
 H2781 H 0.21501 0.13275 0.18258
 H2782 H 0.19923 0.14622 0.23049
 H2783 H 0.21277 0.06712 0.24888
 H2784 H 0.25474 0.07063 0.21845
 H2785 H 0.20978 0.12143 0.24087
 H2786 H 0.20417 0.09342 0.24000
 H2787 H 0.22583 0.10838 0.19331
 H2788 H 0.24630 0.09713 0.20992
 C2789 C 0.71889 1.11265 0.71713
 C2790 C 0.72028 1.11650 0.70076
 C2791 C 0.71420 1.13085 0.69482
 C2792 C 0.70639 1.14185 0.70506
 C2793 C 0.70529 1.13795 0.72158
 C2794 C 0.71147 1.12361 0.72750
 C2795 C 0.72466 1.09700 0.72319
 C2796 C 0.71567 1.08845 0.73462
 C2797 C 0.72051 1.07327 0.73954
 C2798 C 0.73442 1.06623 0.73310
 C2799 C 0.74363 1.07495 0.72197
 C2800 C 0.73883 1.09016 0.71711
 H2801 H 0.71490 1.13273 0.68196
 H2802 H 0.70011 1.14613 0.73020
 H2803 H 0.71307 1.06687 0.74807
 H2804 H 0.75447 1.06994 0.71684
 H2805 H 0.71054 1.12116 0.74026
 H2806 H 0.70459 1.09327 0.73939
 H2807 H 0.72559 1.10816 0.69236
 H2808 H 0.74617 1.09655 0.70850
 C2809 C 0.71712 0.61182 0.21630
 C2810 C 0.71611 0.61455 0.19964
 C2811 C 0.71018 0.62896 0.19372
 C2812 C 0.70513 0.64102 0.20431
 C2813 C 0.70615 0.63832 0.22099
 C2814 C 0.71208 0.62387 0.22692
 C2815 C 0.72309 0.59630 0.22245
 C2816 C 0.71535 0.58863 0.23533
 C2817 C 0.72029 0.57349 0.24034
 C2818 C 0.73310 0.56571 0.23259
 C2819 C 0.74114 0.57363 0.22002
 C2820 C 0.73619 0.58874 0.21502
 H2821 H 0.70923 0.63053 0.18082
 H2822 H 0.70252 0.64746 0.22944
 H2823 H 0.71379 0.56775 0.25004
 H2824 H 0.75110 0.56805 0.21382
 H2825 H 0.71287 0.62216 0.23982
 H2826 H 0.70513 0.59410 0.24119
 H2827 H 0.71959 0.60539 0.19115
 H2828 H 0.74255 0.59447 0.20523
 C2829 C 0.53303 0.13697 0.71821
 C2830 C 0.53827 0.12489 0.72870
 C2831 C 0.54422 0.11051 0.72261
 C2832 C 0.54509 0.10793 0.70591
 C2833 C 0.53986 0.12003 0.69545
 C2834 C 0.53390 0.13436 0.70153
 C2835 C 0.52699 0.15240 0.72454
 C2836 C 0.51378 0.15993 0.71728
 C2837 C 0.50873 0.17495 0.72246
 C2838 C 0.51678 0.18283 0.73503
 C2839 C 0.52971 0.17507 0.74262
 C2840 C 0.53474 0.16002 0.73743
 H2841 H 0.54799 0.10134 0.73097
 H2842 H 0.54068 0.11855 0.68253
 H2843 H 0.49869 0.18051 0.71637
 H2844 H 0.53622 0.18079 0.75231
 H2845 H 0.53027 0.14356 0.69313
 H2846 H 0.50739 0.15424 0.70749
 H2847 H 0.53759 0.12649 0.74161
 H2848 H 0.54505 0.15459 0.74317
 C2849 C 1.03235 0.13653 0.21791
 C2850 C 1.04900 0.13401 0.21695
 C2851 C 1.05510 0.11973 0.21088
 C2852 C 1.04471 0.10759 0.20565
 C2853 C 1.02804 0.11008 0.20662
 C2854 C 1.02193 0.12442 0.21268
 C2855 C 1.02601 0.15194 0.22400
 C2856 C 1.01315 0.15954 0.21622
 C2857 C 1.00799 0.17461 0.22122
 C2858 C 1.01557 0.18239 0.23415
 C2859 C 1.02811 0.17453 0.24225
 C2860 C 1.03326 0.15949 0.23722
 H2861 H 1.06799 0.11833 0.20997
 H2862 H 1.01974 0.10089 0.20285
 H2863 H 0.99831 0.18030 0.21469
 H2864 H 1.03419 0.18011 0.25229
 H2865 H 1.00904 0.12596 0.21342
 H2866 H 1.00742 0.15408 0.20590
 H2867 H 1.05734 0.14324 0.22056
 H2868 H 1.04304 0.15382 0.24361
 C2869 C 0.21620 0.63926 0.53279
 C2870 C 0.22677 0.62712 0.53766
 C2871 C 0.22084 0.61259 0.54339
 C2872 C 0.20421 0.60990 0.54440
 C2873 C 0.19366 0.62203 0.53948
 C2874 C 0.19958 0.63653 0.53374
 C2875 C 0.22239 0.65485 0.52703
 C2876 C 0.21505 0.66265 0.51400
 C2877 C 0.22035 0.67766 0.50905
 C2878 C 0.23313 0.68526 0.51702
 C2879 C 0.24067 0.67732 0.52988
 C2880 C 0.23537 0.66228 0.53481
 H2881 H 0.22927 0.60340 0.54691
 H2882 H 0.18079 0.62045 0.54041
 H2883 H 0.21428 0.68339 0.49908
 H2884 H 0.25050 0.68283 0.53634
 H2885 H 0.19112 0.64575 0.53037
 H2886 H 0.20518 0.65713 0.50762
 H2887 H 0.23964 0.62881 0.53688
 H2888 H 0.24115 0.65665 0.54501
 C2889 C 0.21523 0.14000 1.03382
 C2890 C 0.19865 0.13708 1.03480
 C2891 C 0.19290 0.12255 1.04064
 C2892 C 0.20359 0.11057 1.04564
 C2893 C 0.22019 0.11344 1.04460
 C2894 C 0.22595 0.12801 1.03876
 C2895 C 0.22125 0.15563 1.02798
 C2896 C 0.23420 0.16320 1.03567
 C2897 C 0.23937 0.17825 1.03065
 C2898 C 0.23174 0.18609 1.01778
 C2899 C 0.21897 0.17837 1.00990
 C2900 C 0.21380 0.16333 1.01494
 H2901 H 0.18005 0.12082 1.04158
 H2902 H 0.22873 0.10437 1.04816
 H2903 H 0.24920 0.18384 1.03704
 H2904 H 0.21282 0.18402 0.99994
 H2905 H 0.23879 0.12983 1.03796
 H2906 H 0.24006 0.15766 1.04587
 H2907 H 0.19008 0.14618 1.03138
 H2908 H 0.20394 0.15772 1.00863
 C2909 C 0.21559 0.71401 0.61085
 C2910 C 0.21040 0.72436 0.62309
 C2911 C 0.20437 0.71831 0.63757
 C2912 C 0.20339 0.70178 0.64012
 C2913 C 0.20866 0.69144 0.62791
 C2914 C 0.21469 0.69748 0.61345
 C2915 C 0.22165 0.72036 0.59530
 C2916 C 0.23486 0.71324 0.58761
 C2917 C 0.24016 0.71880 0.57266
 C2918 C 0.23238 0.73162 0.56504
 C2919 C 0.21931 0.73890 0.57286
 C2920 C 0.21403 0.73334 0.58782
 H2921 H 0.20061 0.72658 0.64684
 H2922 H 0.20779 0.67864 0.62939
 H2923 H 0.25027 0.71291 0.56702
 H2924 H 0.21297 0.74874 0.56732
 H2925 H 0.21833 0.68919 0.60415
 H2926 H 0.24112 0.70336 0.59316
 H2927 H 0.21115 0.73715 0.62153
 H2928 H 0.20370 0.73896 0.59335
 C2929 C 0.21412 0.21518 1.11157
 C2930 C 0.20910 0.22556 1.12386
 C2931 C 0.20343 0.21953 1.13851
 C2932 C 0.20266 0.20300 1.14116
 C2933 C 0.20765 0.19264 1.12884
 C2934 C 0.21332 0.19866 1.11423
 C2935 C 0.22004 0.22149 1.09595
 C2936 C 0.23323 0.21437 1.08823
 C2937 C 0.23845 0.21987 1.07325
 C2938 C 0.23059 0.23263 1.06559
 C2939 C 0.21754 0.23991 1.07344
 C2940 C 0.21234 0.23441 1.08845
 H2941 H 0.19985 0.22781 1.14784
 H2942 H 0.20691 0.17985 1.13039
 H2943 H 0.24856 0.21398 1.06759
 H2944 H 0.21115 0.24971 1.06788
 H2945 H 0.21681 0.19035 1.10489
 H2946 H 0.23956 0.20454 1.09381
 H2947 H 0.20975 0.23835 1.12224
 H2948 H 0.20203 0.24002 1.09401
 C2949 C 0.71655 0.53471 0.13665
 C2950 C 0.71163 0.52453 0.12416
 C2951 C 0.70565 0.53080 0.10975
 C2952 C 0.70444 0.54737 0.10755
 C2953 C 0.70940 0.55752 0.12004
 C2954 C 0.71540 0.55127 0.13440
 C2955 C 0.72256 0.52819 0.15214
 C2956 C 0.73560 0.53538 0.16000
 C2957 C 0.74061 0.52997 0.17508
 C2958 C 0.73267 0.51722 0.18269
 C2959 C 0.71991 0.50971 0.17459
 C2960 C 0.71492 0.51513 0.15948
 H2961 H 0.70211 0.52267 0.10027
 H2962 H 0.70832 0.57033 0.11885
 H2963 H 0.75052 0.53600 0.18090
 H2964 H 0.71349 0.49989 0.18009
 H2965 H 0.71880 0.55942 0.14392
 H2966 H 0.74189 0.54530 0.15453
 H2967 H 0.71254 0.51172 0.12548
 H2968 H 0.70474 0.50944 0.15377
 C2969 C 0.71794 1.03489 0.63684
 C2970 C 0.71693 1.05144 0.63446
 C2971 C 0.71092 1.05764 0.62008
 C2972 C 0.70580 1.04743 0.60769
 C2973 C 0.70691 1.03086 0.61000
 C2974 C 0.71290 1.02466 0.62444
 C2975 C 0.72388 1.02843 0.65237
 C2976 C 0.71612 1.01550 0.65981
 C2977 C 0.72105 1.01015 0.67497
 C2978 C 0.73388 1.01760 0.68301
 C2979 C 0.74193 1.03022 0.67532
 C2980 C 0.73698 1.03557 0.66019
 H2981 H 0.70993 1.07044 0.61880
 H2982 H 0.70325 1.02270 0.60061
 H2983 H 0.71455 1.00043 0.68054
 H2984 H 0.75190 1.03620 0.68109
 H2985 H 0.71371 1.01185 0.62585
 H2986 H 0.70589 1.00985 0.65415
 H2987 H 0.72043 1.05963 0.64390
 H2988 H 0.74336 1.04539 0.65465
 C2989 C 0.53313 0.21492 0.63886
 C2990 C 0.53820 0.22538 0.62665
 C2991 C 0.54415 0.21944 0.61209
 C2992 C 0.54517 0.20292 0.60944
 C2993 C 0.54001 0.19249 0.62163
 C2994 C 0.53406 0.19841 0.63616
 C2995 C 0.52724 0.22112 0.65454
 C2996 C 0.51418 0.21384 0.66234
 C2997 C 0.50925 0.21901 0.67754
 C2998 C 0.51726 0.23159 0.68533
 C2999 C 0.53007 0.23914 0.67733
 C3000 C 0.53499 0.23397 0.66211
 H3001 H 0.54783 0.22777 0.60285
 H3002 H 0.54093 0.17970 0.62008
 H3003 H 0.49930 0.21294 0.68329
 H3004 H 0.53655 0.24883 0.68297
 H3005 H 0.53054 0.19005 0.64544
 H3006 H 0.50781 0.20407 0.65671
 H3007 H 0.53744 0.23815 0.62831
 H3008 H 0.54519 0.23971 0.65648
 C3009 C 1.03189 0.21535 0.13790
 C3010 C 1.03712 0.22587 0.12581
 C3011 C 1.04317 0.21999 0.11126
 C3012 C 1.04411 0.20349 0.10852
 C3013 C 1.03879 0.19300 0.12059
 C3014 C 1.03275 0.19886 0.13510
 C3015 C 1.02597 0.22146 0.15359
 C3016 C 1.01284 0.21419 0.16128
 C3017 C 1.00794 0.21920 0.17653
 C3018 C 1.01605 0.23162 0.18448
 C3019 C 1.02891 0.23919 0.17658
 C3020 C 1.03380 0.23416 0.16131
 H3021 H 1.04700 0.22836 0.10210
 H3022 H 1.03966 0.18022 0.11897
 H3023 H 0.99794 0.21314 0.18220
 H3024 H 1.03546 0.24876 0.18234
 H3025 H 1.02912 0.19046 0.14430
 H3026 H 1.00641 0.20453 0.15552
 H3027 H 1.03643 0.23864 0.12755
 H3028 H 1.04406 0.23989 0.15577
 C3029 C 0.61324 0.21511 0.71981
 C3030 C 0.62525 0.22560 0.71440
 C3031 C 0.63970 0.21971 0.70822
 C3032 C 0.64245 0.20321 0.70731
 C3033 C 0.63052 0.19274 0.71291
 C3034 C 0.61609 0.19861 0.71909
 C3035 C 0.59757 0.22125 0.72568
 C3036 C 0.58985 0.21408 0.73887
 C3037 C 0.57463 0.21916 0.74372
 C3038 C 0.56674 0.23154 0.73548
 C3039 C 0.57466 0.23899 0.72255
 C3040 C 0.58990 0.23390 0.71771
 H3041 H 0.64875 0.22808 0.70420
 H3042 H 0.63215 0.17996 0.71211
 H3043 H 0.56893 0.21319 0.75377
 H3044 H 0.56896 0.24853 0.71589
 H3045 H 0.60697 0.19021 0.72288
 H3046 H 0.59556 0.20446 0.74541
 H3047 H 0.62349 0.23837 0.71500
 H3048 H 0.59544 0.23955 0.70738
 C3049 C 1.11214 0.21453 0.21897
 C3050 C 1.12413 0.22505 0.21359
 C3051 C 1.13863 0.21920 0.20749
 C3052 C 1.14146 0.20271 0.20666
 C3053 C 1.12953 0.19220 0.21221
 C3054 C 1.11505 0.19805 0.21830
 C3055 C 1.09643 0.22064 0.22480
 C3056 C 1.08871 0.21346 0.23799
 C3057 C 1.07348 0.21856 0.24285
 C3058 C 1.06561 0.23096 0.23462
 C3059 C 1.07353 0.23840 0.22168
 C3060 C 1.08876 0.23330 0.21684
 H3061 H 1.14768 0.22759 0.20351
 H3062 H 1.13123 0.17943 0.21147
 H3063 H 1.06779 0.21259 0.25290
 H3064 H 1.06783 0.24795 0.21503
 H3065 H 1.10595 0.18962 0.22207
 H3066 H 1.09442 0.20384 0.24453
 H3067 H 1.12233 0.23782 0.21416
 H3068 H 1.09431 0.23895 0.20652
 C3069 C 0.14027 0.71467 0.53535
 C3070 C 0.12800 0.71014 0.52468
 C3071 C 0.11346 0.70413 0.53054
 C3072 C 0.11090 0.70251 0.54719
 C3073 C 0.12317 0.70709 0.55784
 C3074 C 0.13767 0.71310 0.55199
 C3075 C 0.15583 0.72080 0.52920
 C3076 C 0.16357 0.73355 0.53694
 C3077 C 0.17851 0.73892 0.53158
 C3078 C 0.18609 0.73167 0.51834
 C3079 C 0.17822 0.71907 0.51044
 C3080 C 0.16325 0.71371 0.51580
 H3081 H 0.10416 0.70089 0.52205
 H3082 H 0.12168 0.70571 0.57072
 H3083 H 0.18419 0.74866 0.53796
 H3084 H 0.18373 0.71315 0.50025
 H3085 H 0.14700 0.71622 0.56050
 H3086 H 0.15804 0.73939 0.54716
 H3087 H 0.12957 0.71140 0.51181
 H3088 H 0.15768 0.70374 0.50970
 C3089 C 0.13831 0.21532 1.03497
 C3090 C 0.12617 0.21073 1.02418
 C3091 C 0.11152 0.20484 1.02989
 C3092 C 0.10872 0.20342 1.04652
 C3093 C 0.12087 0.20800 1.05729
 C3094 C 0.13549 0.21389 1.05159
 C3095 C 0.15396 0.22143 1.02900
 C3096 C 0.16158 0.23422 1.03677
 C3097 C 0.17659 0.23959 1.03158
 C3098 C 0.18435 0.23229 1.01847
 C3099 C 0.17660 0.21964 1.01054
 C3100 C 0.16157 0.21429 1.01573
 H3101 H 0.10231 0.20158 1.02131
 H3102 H 0.11920 0.20675 1.07016
 H3103 H 0.18217 0.24938 1.03798
 H3104 H 0.18224 0.21369 1.00044
 H3105 H 0.14471 0.21704 1.06020
 H3106 H 0.15592 0.24012 1.04689
 H3107 H 0.12792 0.21188 1.01132
 H3108 H 0.15608 0.20429 1.00961
 C3109 C 0.63650 0.53235 0.21639
 C3110 C 0.63368 0.53351 0.19976
 C3111 C 0.61912 0.53944 0.19397
 C3112 C 0.60702 0.54433 0.20467
 C3113 C 0.60978 0.54306 0.22132
 C3114 C 0.62437 0.53714 0.22712
 C3115 C 0.65221 0.52650 0.22243
 C3116 C 0.65988 0.53411 0.23539
 C3117 C 0.67514 0.52924 0.24037
 C3118 C 0.68307 0.51664 0.23252
 C3119 C 0.67517 0.50876 0.21985
 C3120 C 0.65993 0.51364 0.21487
 H3121 H 0.61750 0.54056 0.18108
 H3122 H 0.60060 0.54654 0.22986
 H3123 H 0.68087 0.53560 0.25015
 H3124 H 0.68086 0.49896 0.21356
 H3125 H 0.62613 0.53621 0.24000
 H3126 H 0.65429 0.54415 0.24135
 H3127 H 0.64289 0.53020 0.19119
 H3128 H 0.65422 0.50739 0.20501
 C3129 C 0.63775 1.03308 0.71695
 C3130 C 0.63479 1.03391 0.70032
 C3131 C 0.62020 1.03975 0.69453
 C3132 C 0.60819 1.04490 0.70522
 C3133 C 0.61111 1.04402 0.72187
 C3134 C 0.62574 1.03818 0.72767
 C3135 C 0.65346 1.02722 0.72298
 C3136 C 0.66129 1.03498 0.73575
 C3137 C 0.67655 1.03008 0.74071
 C3138 C 0.68432 1.01728 0.73303
 C3139 C 0.67628 1.00926 0.72054
 C3140 C 0.66104 1.01418 0.71559
 H3141 H 0.61846 1.04058 0.68164
 H3142 H 0.60202 1.04772 0.73041
 H3143 H 0.68240 1.03656 0.75034
 H3144 H 0.68184 0.99932 0.71439
 H3145 H 0.62760 1.03752 0.74056
 H3146 H 0.65583 1.04517 0.74158
 H3147 H 0.64391 1.03036 0.69175
 H3148 H 0.65521 1.00780 0.70588
 C3149 C 0.85917 0.46278 0.28485
 C3150 C 0.86138 0.44621 0.28599
 C3151 C 0.87564 0.43994 0.29214
 C3152 C 0.88804 0.45008 0.29729
 C3153 C 0.88586 0.46666 0.29611
 C3154 C 0.87157 0.47294 0.28997
 C3155 C 0.84387 0.46937 0.27856
 C3156 C 0.83655 0.48253 0.28601
 C3157 C 0.82177 0.48825 0.28053
 C3158 C 0.81399 0.48094 0.26744
 C3159 C 0.82150 0.46797 0.25980
 C3160 C 0.83625 0.46225 0.26530
 H3161 H 0.87682 0.42713 0.29317
 H3162 H 0.89528 0.47477 0.29979
 H3163 H 0.81631 0.49822 0.28674
 H3164 H 0.81588 0.46205 0.24968
 H3165 H 0.87030 0.48575 0.28905
 H3166 H 0.84205 0.48815 0.29636
 H3167 H 0.85193 0.43808 0.28243
 H3168 H 0.84170 0.45223 0.25918
 C3169 C 0.86109 0.96392 0.78417
 C3170 C 0.86375 0.94739 0.78486
 C3171 C 0.87819 0.94134 0.79083
 C3172 C 0.89030 0.95167 0.79627
 C3173 C 0.88769 0.96821 0.79549
 C3174 C 0.87324 0.97426 0.78951
 C3175 C 0.84557 0.97027 0.77815
 C3176 C 0.83805 0.98314 0.78592
 C3177 C 0.82313 0.98870 0.78063
 C3178 C 0.81540 0.98152 0.76744
 C3179 C 0.82308 0.96881 0.75952
 C3180 C 0.83798 0.96326 0.76481
 H3181 H 0.87973 0.92854 0.79154
 H3182 H 0.89689 0.97647 0.79939
 H3183 H 0.81754 0.99845 0.78708
 H3184 H 0.81752 0.96300 0.74931
 H3185 H 0.87163 0.98706 0.78892
 H3186 H 0.84350 0.98866 0.79635
 H3187 H 0.85452 0.93910 0.78110
 H3188 H 0.84359 0.95348 0.75844
 C3189 C 0.38985 0.28465 0.78675
 C3190 C 0.37781 0.28957 0.77599
 C3191 C 0.36331 0.29577 0.78174
 C3192 C 0.36055 0.29718 0.79837
 C3193 C 0.37255 0.29216 0.80912
 C3194 C 0.38703 0.28596 0.80338
 C3195 C 0.40543 0.27844 0.78069
 C3196 C 0.41296 0.26548 0.78829
 C3197 C 0.42790 0.26002 0.78296
 C3198 C 0.43566 0.26741 0.76989
 C3199 C 0.42800 0.28024 0.76216
 C3200 C 0.41306 0.28568 0.76749
 H3201 H 0.35420 0.29932 0.77316
 H3202 H 0.37090 0.29336 0.82199
 H3203 H 0.43343 0.25011 0.78920
 H3204 H 0.43365 0.28627 0.75211
 H3205 H 0.39617 0.28253 0.81197
 H3206 H 0.40729 0.25953 0.79837
 H3207 H 0.37954 0.28849 0.76312
 H3208 H 0.40766 0.29582 0.76151
 C3209 C 0.88882 0.28417 0.28611
 C3210 C 0.87679 0.28917 0.27537
 C3211 C 0.86233 0.29540 0.28114
 C3212 C 0.85957 0.29678 0.29778
 C3213 C 0.87155 0.29166 0.30851
 C3214 C 0.88600 0.28542 0.30274
 C3215 C 0.90438 0.27797 0.28003
 C3216 C 0.91188 0.26495 0.28756
 C3217 C 0.92682 0.25951 0.28222
 C3218 C 0.93462 0.26697 0.26921
 C3219 C 0.92699 0.27986 0.26155
 C3220 C 0.91204 0.28528 0.26688
 H3221 H 0.85323 0.29903 0.27258
 H3222 H 0.86991 0.29282 0.32138
 H3223 H 0.93233 0.24955 0.28841
 H3224 H 0.93266 0.28595 0.25155
 H3225 H 0.89513 0.28193 0.31132
 H3226 H 0.90618 0.25895 0.29758
 H3227 H 0.87852 0.28814 0.26249
 H3228 H 0.90666 0.29546 0.26096
 C3229 C 0.36284 0.78456 0.46653
 C3230 C 0.36513 0.80113 0.46569
 C3231 C 0.37936 0.80744 0.45950
 C3232 C 0.39167 0.79734 0.45404
 C3233 C 0.38941 0.78075 0.45492
 C3234 C 0.37513 0.77443 0.46109
 C3235 C 0.34749 0.77799 0.47273
 C3236 C 0.33993 0.76518 0.46492
 C3237 C 0.32490 0.75978 0.47007
 C3238 C 0.31711 0.76705 0.48319
 C3239 C 0.32495 0.77952 0.49131
 C3240 C 0.33995 0.78493 0.48614
 H3241 H 0.38059 0.82027 0.45868
 H3242 H 0.39874 0.77266 0.45099
 H3243 H 0.31921 0.75017 0.46350
 H3244 H 0.31936 0.78537 0.50150
 H3245 H 0.37376 0.76161 0.46175
 H3246 H 0.34538 0.75969 0.45446
 H3247 H 0.35576 0.80925 0.46948
 H3248 H 0.34560 0.79465 0.49257
 C3249 C 0.36140 0.28543 0.96780
 C3250 C 0.37375 0.27521 0.96266
 C3251 C 0.38807 0.28143 0.95650
 C3252 C 0.39032 0.29800 0.95530
 C3253 C 0.37798 0.30820 0.96051
 C3254 C 0.36371 0.30199 0.96670
 C3255 C 0.34597 0.27895 0.97389
 C3256 C 0.33823 0.28608 0.98707
 C3257 C 0.32318 0.28072 0.99213
 C3258 C 0.31548 0.26810 0.98409
 C3259 C 0.32345 0.26066 0.97119
 C3260 C 0.33853 0.26601 0.96616
 H3261 H 0.39744 0.27328 0.95278
 H3262 H 0.37921 0.32100 0.95946
 H3263 H 0.31744 0.28671 1.00214
 H3264 H 0.31787 0.25093 0.96470
 H3265 H 0.35430 0.31016 0.97026
 H3266 H 0.34378 0.29591 0.99342
 H3267 H 0.37239 0.26241 0.96354
 H3268 H 0.34413 0.26037 0.95587
 C3269 C 0.78355 0.46401 0.36009
 C3270 C 0.78867 0.47456 0.37220
 C3271 C 0.79481 0.46874 0.38672
 C3272 C 0.79595 0.45225 0.38946
 C3273 C 0.79071 0.44171 0.37741
 C3274 C 0.78458 0.44752 0.36290
 C3275 C 0.77752 0.47013 0.34444
 C3276 C 0.76447 0.46279 0.33670
 C3277 C 0.75925 0.46814 0.32165
 C3278 C 0.76697 0.48097 0.31397
 C3279 C 0.77988 0.48846 0.32184
 C3280 C 0.78508 0.48311 0.33689
 H3281 H 0.79855 0.47714 0.39587
 H3282 H 0.79169 0.42895 0.37905
 H3283 H 0.74927 0.46209 0.31596
 H3284 H 0.78617 0.49832 0.31627
 H3285 H 0.78101 0.43909 0.35371
 H3286 H 0.75826 0.45290 0.34231
 H3287 H 0.78781 0.48732 0.37049
 H3288 H 0.79531 0.48889 0.34243
 C3289 C 0.78596 0.96475 0.86009
 C3290 C 0.80260 0.96369 0.86266
 C3291 C 0.80863 0.95784 0.87719
 C3292 C 0.79817 0.95292 0.88951
 C3293 C 0.78152 0.95402 0.88696
 C3294 C 0.77547 0.95985 0.87240
 C3295 C 0.77964 0.97080 0.84453
 C3296 C 0.76655 0.96334 0.83699
 C3297 C 0.76110 0.96863 0.82198
 C3298 C 0.76861 0.98153 0.81422
 C3299 C 0.78151 0.98917 0.82195
 C3300 C 0.78695 0.98386 0.83691
 H3301 H 0.82151 0.95685 0.87865
 H3302 H 0.77315 0.95051 0.89630
 H3303 H 0.75118 0.96242 0.81636
 H3304 H 0.78758 0.99916 0.81637
 H3305 H 0.76260 0.96072 0.87083
 H3306 H 0.76077 0.95313 0.84249
 H3307 H 0.81098 0.96709 0.85330
 H3308 H 0.79692 0.99000 0.84254
 C3309 C 0.28392 0.78596 0.38820
 C3310 C 0.28904 0.77572 0.37582
 C3311 C 0.29530 0.78192 0.36150
 C3312 C 0.29660 0.79848 0.35927
 C3313 C 0.29140 0.80869 0.37162
 C3314 C 0.28513 0.80251 0.38590
 C3315 C 0.27776 0.77948 0.40365
 C3316 C 0.26473 0.78675 0.41149
 C3317 C 0.25961 0.78133 0.42654
 C3318 C 0.26741 0.76850 0.43413
 C3319 C 0.28016 0.76094 0.42606
 C3320 C 0.28527 0.76636 0.41100
 H3321 H 0.29902 0.77376 0.35212
 H3322 H 0.29252 0.82149 0.37038
 H3323 H 0.24971 0.78741 0.43235
 H3324 H 0.28648 0.75105 0.43155
 H3325 H 0.28159 0.81070 0.39533
 H3326 H 0.25854 0.79672 0.40601
 H3327 H 0.28807 0.76292 0.37716
 H3328 H 0.29545 0.76061 0.40534
 C3329 C 0.28220 0.28628 0.88849
 C3330 C 0.28738 0.27589 0.87627
 C3331 C 0.29372 0.28191 0.86191
 C3332 C 0.29502 0.29843 0.85945
 C3333 C 0.28965 0.30881 0.87159
 C3334 C 0.28332 0.30280 0.88594
 C3335 C 0.27612 0.27997 0.90405
 C3336 C 0.26308 0.28727 0.91186
 C3337 C 0.25801 0.28197 0.92697
 C3338 C 0.26587 0.26923 0.93466
 C3339 C 0.27865 0.26166 0.92665
 C3340 C 0.28371 0.26697 0.91153
 H3341 H 0.29755 0.27362 0.85268
 H3342 H 0.29074 0.32159 0.87018
 H3343 H 0.24810 0.28806 0.93274
 H3344 H 0.28502 0.25185 0.93221
 H3345 H 0.27969 0.31111 0.89522
 H3346 H 0.25684 0.29717 0.90630
 H3347 H 0.28647 0.26311 0.87779
 H3348 H 0.29390 0.26120 0.90591
 C3349 C 0.46510 0.28540 0.86205
 C3350 C 0.47556 0.29065 0.87423
 C3351 C 0.46949 0.29686 0.88862
 C3352 C 0.45284 0.29796 0.89114
 C3353 C 0.44240 0.29272 0.87895
 C3354 C 0.44846 0.28651 0.86459
 C3355 C 0.47145 0.27901 0.84664
 C3356 C 0.46412 0.26582 0.83924
 C3357 C 0.46957 0.26025 0.82437
 C3358 C 0.48250 0.26773 0.81651
 C3359 C 0.49003 0.28073 0.82407
 C3360 C 0.48458 0.28629 0.83897
 H3361 H 0.47783 0.30061 0.89787
 H3362 H 0.42952 0.29371 0.88039
 H3363 H 0.46348 0.25019 0.81894
 H3364 H 0.49997 0.28683 0.81834
 H3365 H 0.44010 0.28287 0.85532
 H3366 H 0.45412 0.25981 0.84497
 H3367 H 0.48844 0.28977 0.87270
 H3368 H 0.49037 0.29658 0.84427
 C3369 C 0.96459 0.28515 0.36140
 C3370 C 0.95967 0.27495 0.37390
 C3371 C 0.95369 0.28119 0.38831
 C3372 C 0.95247 0.29776 0.39052
 C3373 C 0.95738 0.30793 0.37801
 C3374 C 0.96338 0.30170 0.36363
 C3375 C 0.97075 0.27861 0.34598
 C3376 C 0.98384 0.28581 0.33817
 C3377 C 0.98918 0.28016 0.32329
 C3378 C 0.98155 0.26715 0.31584
 C3379 C 0.96864 0.25975 0.32382
 C3380 C 0.96332 0.26541 0.33872
 H3381 H 0.95019 0.27306 0.39781
 H3382 H 0.95631 0.32074 0.37921
 H3383 H 0.99917 0.28615 0.31753
 H3384 H 0.96243 0.24975 0.31842
 H3385 H 0.96678 0.30986 0.35411
 H3386 H 0.98995 0.29587 0.34357
 H3387 H 0.96064 0.26215 0.37260
 H3388 H 0.95309 0.25971 0.34436
 C3389 C 0.46407 0.35880 0.78502
 C3390 C 0.47442 0.37102 0.79013
 C3391 C 0.46821 0.38532 0.79615
 C3392 C 0.45153 0.38768 0.79718
 C3393 C 0.44121 0.37546 0.79203
 C3394 C 0.44740 0.36119 0.78601
 C3395 C 0.47056 0.34346 0.77893
 C3396 C 0.46337 0.33579 0.76574
 C3397 C 0.46893 0.32097 0.76051
 C3398 C 0.48184 0.31345 0.76834
 C3399 C 0.48925 0.32128 0.78134
 C3400 C 0.48368 0.33612 0.78656
 H3401 H 0.47646 0.39460 0.79984
 H3402 H 0.42831 0.37680 0.79296
 H3403 H 0.46294 0.31532 0.75045
 H3404 H 0.49917 0.31582 0.78771
 H3405 H 0.43913 0.35189 0.78246
 H3406 H 0.45339 0.34126 0.75948
 H3407 H 0.48731 0.36960 0.78932
 H3408 H 0.48936 0.34165 0.79687
 C3409 C 0.96344 0.35830 0.28496
 C3410 C 0.94679 0.36068 0.28622
 C3411 C 0.94067 0.37493 0.29234
 C3412 C 0.95106 0.38716 0.29734
 C3413 C 0.96772 0.38482 0.29605
 C3414 C 0.97385 0.37053 0.28993
 C3415 C 0.96985 0.34297 0.27875
 C3416 C 0.98307 0.33562 0.28618
 C3417 C 0.98856 0.32079 0.28086
 C3418 C 0.98097 0.31298 0.26795
 C3419 C 0.96796 0.32052 0.26031
 C3420 C 0.96247 0.33533 0.26565
 H3421 H 0.92779 0.37625 0.29346
 H3422 H 0.97601 0.39410 0.29962
 H3423 H 0.99856 0.31532 0.28708
 H3424 H 0.96182 0.31488 0.25033
 H3425 H 0.98673 0.36912 0.28893
 H3426 H 0.98889 0.34113 0.29642
 H3427 H 0.93847 0.35136 0.28278
 H3428 H 0.95240 0.34081 0.25953
 C3429 C 0.28535 0.86191 0.46848
 C3430 C 0.30202 0.86430 0.46738
 C3431 C 0.30818 0.87841 0.46095
 C3432 C 0.29784 0.89048 0.45547
 C3433 C 0.28117 0.88818 0.45673
 C3434 C 0.27499 0.87404 0.46316
 C3435 C 0.27889 0.84655 0.47459
 C3436 C 0.26584 0.83917 0.46690
 C3437 C 0.26051 0.82416 0.47188
 C3438 C 0.26810 0.81619 0.48469
 C3439 C 0.28083 0.82381 0.49270
 C3440 C 0.28617 0.83881 0.48770
 H3441 H 0.32108 0.87969 0.45987
 H3442 H 0.27290 0.89735 0.45282
 H3443 H 0.25069 0.81865 0.46540
 H3444 H 0.28694 0.81806 0.50264
 H3445 H 0.26210 0.87263 0.46404
 H3446 H 0.26010 0.84474 0.45665
 H3447 H 0.31031 0.85506 0.47108
 H3448 H 0.29609 0.84431 0.49402
 C3449 C 0.28402 0.36260 0.96875
 C3450 C 0.27377 0.37476 0.96330
 C3451 C 0.28007 0.38881 0.95681
 C3452 C 0.29676 0.39101 0.95561
 C3453 C 0.30700 0.37893 0.96127
 C3454 C 0.30071 0.36490 0.96777
 C3455 C 0.27742 0.34731 0.97491
 C3456 C 0.28454 0.33962 0.98813
 C3457 C 0.27909 0.32467 0.99318
 C3458 C 0.26639 0.31705 0.98510
 C3459 C 0.25895 0.32498 0.97218
 C3460 C 0.26440 0.33994 0.96716
 H3461 H 0.27188 0.39800 0.95276
 H3462 H 0.31991 0.38013 0.96027
 H3463 H 0.28509 0.31896 1.00320
 H3464 H 0.24917 0.31947 0.96565
 H3465 H 0.30892 0.35565 0.97160
 H3466 H 0.29444 0.34510 0.99450
 H3467 H 0.26086 0.37342 0.96409
 H3468 H 0.25877 0.34548 0.95683
 C3469 C 0.78530 0.38944 0.28224
 C3470 C 0.77474 0.37719 0.28685
 C3471 C 0.78066 0.36287 0.29307
 C3472 C 0.79727 0.36048 0.29482
 C3473 C 0.80783 0.37266 0.29004
 C3474 C 0.80191 0.38697 0.28382
 C3475 C 0.77905 0.40489 0.27617
 C3476 C 0.78669 0.41278 0.26336
 C3477 C 0.78124 0.42766 0.25814
 C3478 C 0.76802 0.43502 0.26562
 C3479 C 0.76022 0.42698 0.27826
 C3480 C 0.76566 0.41209 0.28346
 H3481 H 0.77224 0.35361 0.29643
 H3482 H 0.82068 0.37129 0.29149
 H3483 H 0.78756 0.43349 0.24838
 H3484 H 0.75005 0.43230 0.28435
 H3485 H 0.81035 0.39627 0.28062
 H3486 H 0.79691 0.40744 0.25737
 H3487 H 0.76189 0.37865 0.28556
 H3488 H 0.75964 0.40640 0.29349
   
