data_POSCAR
  _audit_creation_date              2014-09-24
  _audit_creation_method            'ToBaCCo'
  _symmetry_space_group_name_H-M    'P1'
  _symmetry_Int_Tables_number       1
  _symmetry_cell_setting            triclinic
  loop_
  _symmetry_equiv_pos_as_xyz
 x,y,z
_cell_length_a 48.4485
_cell_length_b 48.2329
_cell_length_c 48.5317
_cell_angle_alpha 88.987600
_cell_angle_beta 91.810200
_cell_angle_gamma 89.945100
loop_
  _atom_site_label
  _atom_site_type_symbol
  _atom_site_fract_x
  _atom_site_fract_y
  _atom_site_fract_z
N1 N 0.15422 0.22698 0.22356
 N2 N 0.16009 0.20631 0.24078
 C3 C 0.14255 0.20707 0.26178
 C4 C 0.12509 0.22962 0.25757
 C5 C 0.13289 0.24151 0.23293
 H6 H 0.14198 0.19204 0.27855
 H7 H 0.12301 0.25881 0.22210
 Cu8 Cu 0.18885 0.17952 0.23288
 Cu9 Cu 0.17330 0.23279 0.18939
 Cu10 Cu 0.22389 0.18523 0.17426
 N11 N 0.21776 0.15314 0.22425
 N12 N 0.23092 0.15537 0.20102
 C13 C 0.24862 0.13404 0.19928
 C14 C 0.24632 0.11741 0.22253
 C15 C 0.22682 0.13025 0.23816
 H16 H 0.26197 0.13060 0.18223
 H17 H 0.21933 0.12298 0.25775
 N18 N 0.21386 0.21692 0.14984
 N19 N 0.19478 0.23522 0.15579
 C20 C 0.19299 0.25455 0.13547
 C21 C 0.21149 0.24784 0.11556
 C22 C 0.22464 0.22411 0.12550
 H23 H 0.17957 0.27249 0.13528
 H24 H 0.24096 0.21305 0.11568
 H25 H 0.18321 0.19156 0.18401
 H26 H 0.20974 0.21339 0.20207
 N27 N 0.65613 0.72705 0.72796
 N28 N 0.66554 0.70816 0.74574
 C29 C 0.64816 0.70613 0.76681
 C30 C 0.62663 0.72458 0.76175
 C31 C 0.63253 0.73775 0.73714
 H32 H 0.65058 0.69182 0.78413
 H33 H 0.61991 0.75311 0.72619
 Cu34 Cu 0.69867 0.68681 0.73904
 Cu35 Cu 0.67354 0.73450 0.69300
 Cu36 Cu 0.72586 0.68969 0.67611
 N37 N 0.72576 0.65980 0.72778
 N38 N 0.73595 0.66086 0.70300
 C39 C 0.75394 0.63988 0.70048
 C40 C 0.75539 0.62506 0.72507
 C41 C 0.73699 0.63804 0.74191
 H42 H 0.76532 0.63574 0.68218
 H43 H 0.73192 0.63189 0.76268
 N44 N 0.71299 0.72030 0.65168
 N45 N 0.69365 0.73797 0.65846
 C46 C 0.69030 0.75712 0.63807
 C47 C 0.70805 0.75085 0.61726
 C48 C 0.72234 0.72762 0.62678
 H49 H 0.67638 0.77462 0.63851
 H50 H 0.73860 0.71708 0.61635
 H51 H 0.68624 0.69384 0.69056
 H52 H 0.71262 0.71944 0.70305
 N53 N 0.33940 0.77097 0.72711
 N54 N 0.34222 0.79708 0.73389
 C55 C 0.36591 0.80005 0.74877
 C56 C 0.37870 0.77434 0.75160
 C57 C 0.36071 0.75627 0.73820
 H58 H 0.37317 0.81945 0.75715
 H59 H 0.36268 0.73401 0.73676
 Cu60 Cu 0.31350 0.82414 0.72458
 Cu61 Cu 0.30902 0.75844 0.70315
 Cu62 Cu 0.26852 0.81050 0.67299
 N63 N 0.27899 0.84468 0.71982
 N64 N 0.26142 0.83933 0.69947
 C65 C 0.23976 0.85666 0.70051
 C66 C 0.24349 0.87363 0.72321
 C67 C 0.26907 0.86560 0.73461
 H68 H 0.22233 0.85642 0.68604
 H69 H 0.28047 0.87515 0.75142
 N70 N 0.27124 0.77350 0.65729
 N71 N 0.28585 0.75330 0.66930
 C72 C 0.28529 0.73120 0.65272
 C73 C 0.26992 0.73808 0.62904
 C74 C 0.26094 0.76487 0.63286
 H75 H 0.29655 0.71212 0.65681
 H76 H 0.24903 0.77761 0.61827
 H77 H 0.30901 0.79617 0.68343
 H78 H 0.28026 0.78987 0.70753
 N79 N 0.83745 0.28372 0.22955
 N80 N 0.83614 0.30856 0.24003
 C81 C 0.85749 0.31205 0.25793
 C82 C 0.87273 0.28759 0.25991
 C83 C 0.85943 0.27025 0.24100
 H84 H 0.86214 0.33157 0.26762
 H85 H 0.86505 0.24927 0.23600
 Cu86 Cu 0.80587 0.33357 0.23038
 Cu87 Cu 0.81077 0.27181 0.20104
 Cu88 Cu 0.77834 0.32771 0.16697
 N89 N 0.77615 0.35779 0.21720
 N90 N 0.76673 0.35683 0.19158
 C91 C 0.74819 0.37735 0.18706
 C92 C 0.74482 0.39115 0.21162
 C93 C 0.76327 0.37826 0.23016
 H94 H 0.73820 0.38192 0.16726
 H95 H 0.76721 0.38360 0.25147
 N96 N 0.78055 0.29032 0.15128
 N97 N 0.79176 0.26883 0.16467
 C98 C 0.78834 0.24607 0.14923
 C99 C 0.77382 0.25352 0.12521
 C100 C 0.76963 0.28180 0.12704
 H101 H 0.79581 0.22559 0.15503
 H102 H 0.75923 0.29517 0.11188
 H103 H 0.81390 0.31097 0.18669
 H104 H 0.77956 0.30224 0.20084
 N105 N 0.84749 0.73295 0.27530
 N106 N 0.83936 0.71383 0.25785
 C107 C 0.85824 0.71147 0.23827
 C108 C 0.87950 0.72975 0.24398
 C109 C 0.87184 0.74339 0.26737
 H110 H 0.85692 0.69726 0.22129
 H111 H 0.88346 0.75922 0.27815
 Cu112 Cu 0.80575 0.69274 0.26323
 Cu113 Cu 0.82636 0.74201 0.30750
 Cu114 Cu 0.76556 0.70539 0.31662
 N115 N 0.77204 0.67187 0.26895
 N116 N 0.75618 0.67721 0.28968
 C117 C 0.73510 0.65906 0.28973
 C118 C 0.73775 0.64150 0.26773
 C119 C 0.76164 0.65002 0.25521
 H120 H 0.71951 0.65801 0.30519
 H121 H 0.77136 0.64015 0.23818
 N122 N 0.77859 0.73456 0.34173
 N123 N 0.80200 0.74813 0.33866
 C124 C 0.80560 0.76572 0.35975
 C125 C 0.78349 0.76289 0.37688
 C126 C 0.76665 0.74327 0.36471
 H127 H 0.82290 0.77965 0.36250
 H128 H 0.74731 0.73567 0.37239
 H129 H 0.80792 0.70366 0.31210
 H130 H 0.78856 0.73034 0.29090
 N131 N 0.34214 0.22082 -0.22743
 N132 N 0.33563 0.20004 -0.24344
 C133 C 0.35654 0.19545 -0.26042
 C134 C 0.37762 0.21420 -0.25446
 C135 C 0.36724 0.23034 -0.23373
 H136 H 0.35570 0.18048 -0.27675
 H137 H 0.37747 0.24727 -0.22326
 Cu138 Cu 0.30026 0.18134 -0.24072
 Cu139 Cu 0.31765 0.23390 -0.19958
 Cu140 Cu 0.26896 0.18550 -0.17981
 N141 N 0.27129 0.15578 -0.23052
 N142 N 0.25983 0.15689 -0.20637
 C143 C 0.24123 0.13633 -0.20433
 C144 C 0.24078 0.12180 -0.22862
 C145 C 0.26036 0.13448 -0.24469
 H146 H 0.22878 0.13229 -0.18659
 H147 H 0.26658 0.12829 -0.26489
 N148 N 0.28084 0.21665 -0.15654
 N149 N 0.29840 0.23576 -0.16474
 C150 C 0.30149 0.25489 -0.14505
 C151 C 0.28542 0.24723 -0.12316
 C152 C 0.27230 0.22314 -0.13132
 H153 H 0.31436 0.27312 -0.14660
 H154 H 0.25745 0.21141 -0.11973
 H155 H 0.30863 0.19292 -0.19275
 H156 H 0.27987 0.21408 -0.20866
 N157 N 0.65440 0.28831 -0.21960
 N158 N 0.66268 0.30337 -0.24057
 C159 C 0.64236 0.30482 -0.26006
 C160 C 0.61976 0.29010 -0.25074
 C161 C 0.62851 0.27949 -0.22509
 H162 H 0.64445 0.31479 -0.28001
 H163 H 0.61672 0.26686 -0.21109
 Cu164 Cu 0.69908 0.31991 -0.24030
 Cu165 Cu 0.67757 0.28243 -0.18636
 Cu166 Cu 0.74696 0.29706 -0.19420
 N167 N 0.73282 0.34056 -0.23311
 N168 N 0.75200 0.33127 -0.21553
 C169 C 0.77269 0.34984 -0.21399
 C170 C 0.76570 0.37223 -0.23105
 C171 C 0.74049 0.36544 -0.24320
 H172 H 0.79099 0.34764 -0.20075
 H173 H 0.72822 0.37808 -0.25759
 N174 N 0.73342 0.27335 -0.16418
 N175 N 0.70691 0.26942 -0.16005
 C176 C 0.70419 0.25523 -0.13615
 C177 C 0.73025 0.25028 -0.12450
 C178 C 0.74829 0.26148 -0.14327
 H179 H 0.68469 0.24922 -0.12761
 H180 H 0.77060 0.26152 -0.14162
 H181 H 0.70827 0.31204 -0.19115
 H182 H 0.71028 0.27933 -0.21089
 N183 N 0.15788 0.77382 0.27472
 N184 N 0.16292 0.79685 0.26105
 C185 C 0.14507 0.79915 0.23934
 C186 C 0.12852 0.77562 0.23856
 C187 C 0.13726 0.76018 0.26168
 H188 H 0.14344 0.81735 0.22610
 H189 H 0.12854 0.74099 0.26924
 Cu190 Cu 0.19214 0.82177 0.27308
 Cu191 Cu 0.17481 0.76630 0.31091
 Cu192 Cu 0.23668 0.80034 0.32404
 N193 N 0.22789 0.83908 0.27902
 N194 N 0.24437 0.83207 0.29993
 C195 C 0.26598 0.84959 0.30078
 C196 C 0.26380 0.86808 0.27831
 C197 C 0.23893 0.86053 0.26523
 H198 H 0.28087 0.84972 0.31777
 H199 H 0.22907 0.86998 0.24715
 N200 N 0.22454 0.76776 0.34584
 N201 N 0.20013 0.75618 0.34184
 C202 C 0.19659 0.73640 0.36125
 C203 C 0.22042 0.73433 0.37771
 C204 C 0.23754 0.75492 0.36747
 H205 H 0.17765 0.72493 0.36361
 H206 H 0.25782 0.76044 0.37550
 H207 H 0.19478 0.80340 0.32065
 H208 H 0.21132 0.78030 0.29553
 N209 N 0.47966 0.40425 0.47825
 N210 N 0.46655 0.41316 0.49971
 C211 C 0.46524 0.39268 0.51873
 C212 C 0.47785 0.36949 0.50851
 C213 C 0.48714 0.37761 0.48292
 H214 H 0.45524 0.39428 0.53825
 H215 H 0.49779 0.36489 0.46850
 Cu216 Cu 0.45017 0.44970 0.49996
 Cu217 Cu 0.48389 0.42757 0.44528
 Cu218 Cu 0.46799 0.49715 0.45296
 N219 N 0.42774 0.48248 0.49264
 N220 N 0.43501 0.50157 0.47463
 C221 C 0.41518 0.52115 0.47257
 C222 C 0.39411 0.51344 0.48975
 C223 C 0.40299 0.48906 0.50250
 H224 H 0.41547 0.53893 0.45867
 H225 H 0.39168 0.47637 0.51687
 N226 N 0.49037 0.48360 0.42292
 N227 N 0.49487 0.45700 0.41888
 C228 C 0.50786 0.45429 0.39493
 C229 C 0.51137 0.48040 0.38320
 C230 C 0.50065 0.49850 0.40195
 H231 H 0.51397 0.43474 0.38638
 H232 H 0.49982 0.52088 0.40023
 H233 H 0.48804 0.46116 0.46947
 H234 H 0.45415 0.45779 0.45059
 N235 N -0.03628 -0.10197 0.96442
 N236 N -0.05142 -0.09296 0.98439
 C237 C -0.05452 -0.11344 1.00321
 C238 C -0.04090 -0.13674 0.99437
 C239 C -0.02928 -0.12857 0.96982
 H240 H -0.06511 -0.11130 1.02235
 H241 H -0.01604 -0.14086 0.95729
 Cu242 Cu -0.06513 -0.05523 0.98434
 Cu243 Cu -0.02468 -0.07772 0.93438
 Cu244 Cu -0.05001 -0.01032 0.93352
 N245 N -0.08700 -0.02204 0.97711
 N246 N -0.08109 -0.00438 0.95724
 C247 C -0.09923 0.01680 0.95715
 C248 C -0.11733 0.01221 0.97827
 C249 C -0.10921 -0.01288 0.99020
 H250 H -0.09928 0.03423 0.94281
 H251 H -0.11895 -0.02383 1.00693
 N252 N -0.02448 -0.02402 0.90600
 N253 N -0.01517 -0.04977 0.90606
 C254 C 0.00195 -0.05258 0.88495
 C255 C 0.00373 -0.02737 0.87116
 C256 C -0.01364 -0.00985 0.88478
 H257 H 0.01275 -0.07142 0.88012
 H258 H -0.01815 0.01159 0.87949
 H259 H -0.02718 -0.04108 0.95477
 H260 H -0.05888 -0.05175 0.93494
 N261 N 1.03420 0.59237 0.96909
 N262 N 1.05210 0.58248 0.98768
 C263 C 1.05397 0.60007 1.00893
 C264 C 1.03658 0.62235 1.00305
 C265 C 1.02415 0.61656 0.97779
 H266 H 1.06680 0.59679 1.02735
 H267 H 1.00890 0.62912 0.96660
 Cu268 Cu 1.07155 0.54788 0.98209
 Cu269 Cu 1.02473 0.57307 0.93527
 Cu270 Cu 1.06428 0.51581 0.92104
 N271 N 1.09754 0.51982 0.97090
 N272 N 1.09440 0.50727 0.94717
 C273 C 1.11583 0.49004 0.94394
 C274 C 1.13356 0.49219 0.96665
 C275 C 1.12115 0.51094 0.98360
 H276 H 1.11873 0.47738 0.92608
 H277 H 1.12919 0.51827 1.00320
 N278 N 1.03301 0.52834 0.89716
 N279 N 1.01830 0.55061 0.90225
 C280 C 0.99945 0.55464 0.88157
 C281 C 1.00271 0.53406 0.86251
 C282 C 1.02386 0.51754 0.87317
 H283 H 0.98445 0.57126 0.88036
 H284 H 1.03227 0.49934 0.86378
 H285 H 1.03690 0.53352 0.94764
 H286 H 1.06405 0.55667 0.93304
 N287 N 0.49774 0.08013 0.48577
 N288 N 0.51670 0.07162 0.50396
 C289 C 0.51816 0.08956 0.52485
 C290 C 0.49894 0.11039 0.51958
 C291 C 0.48645 0.10379 0.49448
 H292 H 0.53306 0.08831 0.54191
 H293 H 0.47157 0.11619 0.48259
 Cu294 Cu 0.54004 0.03984 0.49720
 Cu295 Cu 0.49159 0.06112 0.45101
 Cu296 Cu 0.55191 0.03059 0.43012
 N297 N 0.57050 0.01730 0.48562
 N298 N 0.57598 0.01497 0.45942
 C299 C 0.59991 0.00113 0.45732
 C300 C 0.61005 -0.00544 0.48366
 C301 C 0.59042 0.00459 0.50109
 H302 H 0.60949 -0.00343 0.43808
 H303 H 0.59078 0.00322 0.52337
 N304 N 0.52027 0.03923 0.40464
 N305 N 0.49701 0.05016 0.41289
 C306 C 0.47887 0.05202 0.39141
 C307 C 0.49137 0.04205 0.36835
 C308 C 0.51747 0.03374 0.37757
 H309 H 0.45786 0.05940 0.39263
 H310 H 0.53298 0.02380 0.36558
 H311 H 0.51815 0.02599 0.45363
 H312 H 0.53322 0.06160 0.45181
 N313 N -0.01548 0.07103 0.50582
 N314 N -0.03992 0.07079 0.49338
 C315 C -0.04191 0.09204 0.47527
 C316 C -0.01689 0.10595 0.47522
 C317 C -0.00064 0.09211 0.49525
 H318 H -0.06074 0.09754 0.46392
 H319 H 0.01997 0.09758 0.50240
 Cu320 Cu -0.06715 0.04282 0.50158
 Cu321 Cu -0.00722 0.04575 0.53704
 Cu322 Cu -0.06792 0.02455 0.56795
 N323 N -0.09727 0.02149 0.51590
 N324 N -0.09832 0.01526 0.54229
 C325 C -0.12229 0.00214 0.54696
 C326 C -0.13699 0.00006 0.52205
 C327 C -0.12008 0.01207 0.50273
 H328 H -0.12847 -0.00550 0.56693
 H329 H -0.12388 0.01362 0.48069
 N330 N -0.03137 0.02439 0.58726
 N331 N -0.00817 0.03094 0.57510
 C332 C 0.01321 0.02691 0.59312
 C333 C 0.00289 0.01734 0.61773
 C334 C -0.02537 0.01619 0.61343
 H335 H 0.03461 0.03095 0.58880
 H336 H -0.04035 0.00929 0.62811
 H337 H -0.04076 0.01754 0.53757
 H338 H -0.04635 0.05458 0.54619
 N339 N 0.46561 0.60304 0.03468
 N340 N 0.44873 0.59530 0.01453
 C341 C 0.44784 0.61517 -0.00528
 C342 C 0.46460 0.63682 0.00318
 C343 C 0.47586 0.62826 0.02850
 H344 H 0.43591 0.61402 -0.02444
 H345 H 0.49025 0.63961 0.04152
 Cu346 Cu 0.42839 0.56074 0.01695
 Cu347 Cu 0.47212 0.57991 0.06767
 Cu348 Cu 0.45419 0.51076 0.05892
 N349 N 0.41116 0.52450 0.01906
 N350 N 0.42146 0.50486 0.03545
 C351 C 0.40558 0.48208 0.03327
 C352 C 0.38422 0.48775 0.01440
 C353 C 0.38823 0.51500 0.00606
 H354 H 0.40894 0.46304 0.04502
 H355 H 0.37491 0.52721 -0.00773
 N356 N 0.47913 0.52344 0.08891
 N357 N 0.48537 0.54977 0.09268
 C358 C 0.50168 0.55179 0.11553
 C359 C 0.50605 0.52545 0.12655
 C360 C 0.49113 0.50803 0.10936
 H361 H 0.50973 0.57099 0.12366
 H362 H 0.48851 0.48589 0.11205
 H363 H 0.47076 0.54738 0.04222
 H364 H 0.44068 0.54996 0.06512
 N365 N 0.52368 -0.08005 0.01989
 N366 N 0.54712 -0.07700 0.00727
 C367 C 0.54983 -0.09769 -0.01074
 C368 C 0.52655 -0.11422 -0.00968
 C369 C 0.51052 -0.10258 0.01018
 H370 H 0.56722 -0.10037 -0.02388
 H371 H 0.49086 -0.11007 0.01718
 Cu372 Cu 0.57129 -0.04568 0.01479
 Cu373 Cu 0.51190 -0.05428 0.04759
 Cu374 Cu 0.56366 -0.01177 0.07411
 N375 N 0.59959 -0.02084 0.02912
 N376 N 0.59695 -0.00837 0.05276
 C377 C 0.61925 0.00768 0.05761
 C378 C 0.63686 0.00494 0.03593
 C379 C 0.62358 -0.01307 0.01806
 H380 H 0.62202 0.02116 0.07505
 H381 H 0.63079 -0.01975 -0.00162
 N382 N 0.52817 -0.01767 0.09219
 N383 N 0.50822 -0.03327 0.08169
 C384 C 0.48640 -0.03243 0.09820
 C385 C 0.49273 -0.01505 0.11983
 C386 C 0.51949 -0.00639 0.11559
 H387 H 0.46728 -0.04357 0.09476
 H388 H 0.53169 0.00710 0.12869
 H389 H 0.53760 -0.02005 0.04149
 H390 H 0.55241 -0.05089 0.06039
 N391 N 1.02921 0.40002 0.52678
 N392 N 1.05440 0.39725 0.51799
 C393 C 1.05606 0.37363 0.50385
 C394 C 1.03040 0.36083 0.50343
 C395 C 1.01370 0.37869 0.51771
 H396 H 1.07449 0.36659 0.49408
 H397 H 0.99177 0.37682 0.52079
 Cu398 Cu 1.08159 0.42635 0.52342
 Cu399 Cu 1.01938 0.43082 0.55016
 Cu400 Cu 1.07769 0.45920 0.58314
 N401 N 1.10939 0.45305 0.53466
 N402 N 1.10887 0.46443 0.55899
 C403 C 1.13132 0.48059 0.56241
 C404 C 1.14665 0.47968 0.53870
 C405 C 1.13155 0.46236 0.52132
 H406 H 1.13569 0.49275 0.58054
 H407 H 1.13571 0.45758 0.50018
 N408 N 1.03936 0.46236 0.59835
 N409 N 1.01704 0.45223 0.58416
 C410 C 0.99446 0.45820 0.59817
 C411 C 1.00260 0.47270 0.62142
 C412 C 1.03130 0.47527 0.62215
 H413 H 0.97365 0.45223 0.59215
 H414 H 1.04719 0.46917 0.60910
 H415 H 1.05289 0.45867 0.54867
 H416 H 1.05732 0.42476 0.56690
 C417 C 0.34804 -0.02596 0.25240
 C418 C 0.35944 0.00009 0.24647
 C419 C 0.34227 0.02341 0.24372
 C420 C 0.31381 0.02081 0.24716
 C421 C 0.30279 -0.00491 0.25497
 C422 C 0.31973 -0.02860 0.25765
 C423 C 0.38949 0.00328 0.24456
 C424 C 0.40265 -0.00095 0.21964
 C425 C 0.43124 0.00327 0.21802
 C426 C 0.44666 0.01101 0.24163
 C427 C 0.43354 0.01538 0.26649
 C428 C 0.40498 0.01145 0.26787
 H429 H 0.36135 -0.04404 0.25317
 H430 H 0.35096 0.04342 0.23837
 H431 H 0.39063 -0.00689 0.20148
 H432 H 0.39478 0.01487 0.28709
 H433 H 0.28081 -0.00653 0.25815
 H434 H 0.46874 0.01419 0.24048
 C435 C 0.15156 -0.02942 0.74453
 C436 C 0.13692 -0.00470 0.74786
 C437 C 0.15126 0.02021 0.75159
 C438 C 0.18022 0.02051 0.75190
 C439 C 0.19478 -0.00436 0.74907
 C440 C 0.18051 -0.02936 0.74535
 C441 C 0.10660 -0.00491 0.74715
 C442 C 0.09231 -0.00824 0.77160
 C443 C 0.06333 -0.00845 0.77100
 C444 C 0.04878 -0.00629 0.74557
 C445 C 0.06298 -0.00320 0.72091
 C446 C 0.09195 -0.00195 0.72195
 H447 H 0.14045 -0.04868 0.74147
 H448 H 0.13992 0.03935 0.75407
 H449 H 0.10370 -0.01055 0.79110
 H450 H 0.10311 0.00114 0.70313
 H451 H 0.21716 -0.00422 0.74940
 H452 H 0.02641 -0.00688 0.74502
 C453 C 0.65420 0.48656 0.24534
 C454 C 0.63916 0.50952 0.25381
 C455 C 0.65229 0.53515 0.25694
 C456 C 0.68020 0.53803 0.25076
 C457 C 0.69492 0.51521 0.24124
 C458 C 0.68197 0.48932 0.23822
 C459 C 0.60899 0.50751 0.25513
 C460 C 0.59580 0.50510 0.28034
 C461 C 0.56689 0.50237 0.28080
 C462 C 0.55155 0.50161 0.25569
 C463 C 0.56467 0.50465 0.23047
 C464 C 0.59338 0.50771 0.23041
 H465 H 0.64393 0.46670 0.24351
 H466 H 0.64059 0.55302 0.26317
 H467 H 0.60796 0.50525 0.29946
 H468 H 0.60365 0.51044 0.21101
 H469 H 0.71636 0.51774 0.23601
 H470 H 0.52935 0.49888 0.25574
 C471 C 0.85158 0.47609 0.74472
 C472 C 0.86451 0.50166 0.74024
 C473 C 0.84868 0.52598 0.73817
 C474 C 0.81992 0.52483 0.74055
 C475 C 0.80706 0.49917 0.74482
 C476 C 0.82287 0.47484 0.74717
 C477 C 0.89474 0.50327 0.73950
 C478 C 0.90840 0.49852 0.71496
 C479 C 0.93726 0.50093 0.71429
 C480 C 0.95232 0.50743 0.73849
 C481 C 0.93871 0.51218 0.76299
 C482 C 0.90993 0.51006 0.76346
 H483 H 0.86385 0.45733 0.74699
 H484 H 0.85873 0.54580 0.73498
 H485 H 0.89661 0.49336 0.69641
 H486 H 0.89936 0.51380 0.78241
 H487 H 0.78488 0.49820 0.74696
 H488 H 0.97464 0.50887 0.73824
 C489 C 0.26283 0.33895 -0.02686
 C490 C 0.25437 0.35396 -0.00413
 C491 C 0.24435 0.33990 0.01901
 C492 C 0.24302 0.31087 0.01947
 C493 C 0.25123 0.29599 -0.00338
 C494 C 0.26111 0.30995 -0.02658
 C495 C 0.25595 0.38436 -0.00475
 C496 C 0.23194 0.40023 -0.00936
 C497 C 0.23363 0.42918 -0.01180
 C498 C 0.25936 0.44224 -0.00867
 C499 C 0.28339 0.42646 -0.00386
 C500 C 0.28165 0.39751 -0.00197
 H501 H 0.27039 0.34981 -0.04485
 H502 H 0.23791 0.35144 0.03667
 H503 H 0.21212 0.39002 -0.01193
 H504 H 0.30024 0.38524 0.00142
 H505 H 0.25000 0.27354 -0.00307
 H506 H 0.26072 0.46463 -0.01033
 C507 C 0.75258 0.15932 -0.02181
 C508 C 0.75442 0.14458 0.00335
 C509 C 0.75527 0.15895 0.02822
 C510 C 0.75371 0.18796 0.02807
 C511 C 0.75105 0.20252 0.00286
 C512 C 0.75102 0.18841 -0.02224
 C513 C 0.75579 0.11411 0.00378
 C514 C 0.78054 0.10067 -0.00206
 C515 C 0.78234 0.07170 -0.00021
 C516 C 0.75916 0.05612 0.00697
 C517 C 0.73426 0.06941 0.01258
 C518 C 0.73265 0.09844 0.01100
 H519 H 0.75229 0.14813 -0.04099
 H520 H 0.75730 0.14757 0.04764
 H521 H 0.79855 0.11275 -0.00730
 H522 H 0.71351 0.10880 0.01557
 H523 H 0.74942 0.22494 0.00281
 H524 H 0.76057 0.03370 0.00843
 C525 C 0.24383 0.64445 0.48194
 C526 C 0.25033 0.63062 0.50690
 C527 C 0.25302 0.64560 0.53124
 C528 C 0.24891 0.67434 0.53077
 C529 C 0.24054 0.68784 0.50606
 C530 C 0.23798 0.67307 0.48133
 C531 C 0.25530 0.60057 0.50757
 C532 C 0.28212 0.59035 0.50502
 C533 C 0.28712 0.56181 0.50706
 C534 C 0.26538 0.54356 0.51240
 C535 C 0.23808 0.55337 0.51348
 C536 C 0.23330 0.58213 0.51126
 H537 H 0.24351 0.63285 0.46301
 H538 H 0.25916 0.63505 0.55038
 H539 H 0.29899 0.60453 0.50125
 H540 H 0.21252 0.59025 0.51250
 H541 H 0.23696 0.71002 0.50600
 H542 H 0.26974 0.52161 0.51493
 C543 C 0.75199 0.84891 0.47624
 C544 C 0.74130 0.86158 0.49941
 C545 C 0.73248 0.84519 0.52157
 C546 C 0.73478 0.81626 0.52086
 C547 C 0.74563 0.80369 0.49774
 C548 C 0.75400 0.81995 0.47527
 C549 C 0.73968 0.89198 0.50074
 C550 C 0.71396 0.90513 0.50206
 C551 C 0.71230 0.93411 0.50358
 C552 C 0.73677 0.94971 0.50436
 C553 C 0.76266 0.93676 0.50315
 C554 C 0.76392 0.90781 0.50112
 H555 H 0.75850 0.86151 0.45892
 H556 H 0.72431 0.85493 0.53956
 H557 H 0.69523 0.89284 0.50148
 H558 H 0.78378 0.89754 0.50030
 H559 H 0.74719 0.78129 0.49706
 H560 H 0.73565 0.97208 0.50572
 C561 C -0.02257 0.26026 0.34478
 C562 C 0.00194 0.25224 0.35872
 C563 C 0.02590 0.24827 0.34401
 C564 C 0.02562 0.25297 0.31547
 C565 C 0.00119 0.26174 0.30157
 C566 C -0.02310 0.26560 0.31619
 C567 C 0.00227 0.24772 0.38870
 C568 C 0.00172 0.22078 0.39962
 C569 C -0.00100 0.21615 0.42806
 C570 C 0.00095 0.23894 0.44579
 C571 C 0.00277 0.26621 0.43505
 C572 C 0.00242 0.27033 0.40631
 H573 H -0.04129 0.26219 0.35625
 H574 H 0.04481 0.24171 0.35479
 H575 H 0.00217 0.20343 0.38575
 H576 H 0.00307 0.29116 0.39759
 H577 H 0.00110 0.26543 0.27948
 H578 H 0.00106 0.23546 0.46789
 C579 C -0.02594 0.74634 0.15037
 C580 C -0.00186 0.74763 0.13521
 C581 C 0.02361 0.75252 0.14870
 C582 C 0.02498 0.75867 0.17695
 C583 C 0.00056 0.75744 0.19189
 C584 C -0.02460 0.75034 0.17888
 C585 C -0.00332 0.74479 0.10511
 C586 C -0.01344 0.76688 0.08856
 C587 C -0.01377 0.76510 0.05977
 C588 C -0.00422 0.74095 0.04759
 C589 C 0.00576 0.71870 0.06401
 C590 C 0.00636 0.72071 0.09281
 H591 H -0.04551 0.74142 0.14016
 H592 H 0.04227 0.75197 0.13698
 H593 H -0.02042 0.78571 0.09807
 H594 H 0.01425 0.70362 0.10556
 H595 H 0.00118 0.76108 0.21387
 H596 H -0.00439 0.73953 0.02531
 C597 C 0.47638 0.23669 0.65882
 C598 C 0.49957 0.24544 0.64450
 C599 C 0.52262 0.25596 0.65904
 C600 C 0.52241 0.25809 0.68787
 C601 C 0.49905 0.24930 0.70196
 C602 C 0.47607 0.23849 0.68758
 C603 C 0.49931 0.24391 0.61427
 C604 C 0.49730 0.26822 0.59807
 C605 C 0.49454 0.26668 0.56929
 C606 C 0.49447 0.24077 0.55668
 C607 C 0.49671 0.21644 0.57281
 C608 C 0.49898 0.21804 0.60158
 H609 H 0.45844 0.22882 0.64756
 H610 H 0.54070 0.26237 0.64797
 H611 H 0.49672 0.28822 0.60788
 H612 H 0.50014 0.19919 0.61407
 H613 H 0.49873 0.25089 0.72421
 H614 H 0.49195 0.23951 0.53446
 C615 C 0.47800 0.75415 0.84777
 C616 C 0.50270 0.75239 0.86361
 C617 C 0.52782 0.74855 0.85064
 C618 C 0.52833 0.74705 0.82188
 C619 C 0.50381 0.75028 0.80609
 C620 C 0.47831 0.75298 0.81883
 C621 C 0.50220 0.75449 0.89377
 C622 C 0.49493 0.73145 0.90995
 C623 C 0.49391 0.73361 0.93868
 C624 C 0.50006 0.75893 0.95119
 C625 C 0.50686 0.78217 0.93504
 C626 C 0.50819 0.77982 0.90635
 H627 H 0.45860 0.75656 0.85800
 H628 H 0.54681 0.74627 0.86289
 H629 H 0.48988 0.71196 0.90023
 H630 H 0.51329 0.79780 0.89381
 H631 H 0.50463 0.75005 0.78380
 H632 H 0.49873 0.76076 0.97334
 C633 C 0.05875 0.22112 0.29502
 C634 C 0.08313 0.21547 0.28176
 C635 C 0.10068 0.23697 0.27355
 C636 C 0.09378 0.26479 0.27970
 C637 C 0.06869 0.27050 0.29283
 C638 C 0.05111 0.24843 0.30034
 C639 C 0.06228 0.29820 0.29859
 N640 N 0.08014 0.31872 0.29203
 N641 N 0.10399 0.31336 0.28030
 C642 C 0.11150 0.28716 0.27407
 H643 H 0.04561 0.20403 0.30107
 H644 H 0.08802 0.19411 0.27736
 H645 H 0.04337 0.30371 0.30843
 H646 H 0.13148 0.28413 0.26536
 C647 C 0.57194 0.76142 0.80067
 C648 C 0.59542 0.75589 0.78581
 C649 C 0.60178 0.72877 0.77815
 C650 C 0.58384 0.70676 0.78543
 C651 C 0.56004 0.71243 0.80068
 C652 C 0.55409 0.74000 0.80812
 C653 C 0.54259 0.69026 0.80766
 N654 N 0.54840 0.66427 0.79937
 N655 N 0.57037 0.65901 0.78450
 C656 C 0.58817 0.67931 0.77714
 H657 H 0.56741 0.78262 0.80602
 H658 H 0.60876 0.77295 0.78018
 H659 H 0.52436 0.69335 0.81955
 H660 H 0.60521 0.67373 0.76455
 C661 C 0.43444 0.77796 0.80757
 C662 C 0.41097 0.78338 0.79109
 C663 C 0.40479 0.76775 0.76756
 C664 C 0.42309 0.74599 0.76075
 C665 C 0.44574 0.73900 0.77892
 C666 C 0.45223 0.75601 0.80185
 C667 C 0.46109 0.71502 0.77349
 N668 N 0.45609 0.70096 0.74994
 N669 N 0.43669 0.70917 0.73155
 C670 C 0.42024 0.73129 0.73601
 H671 H 0.43890 0.79134 0.82484
 H672 H 0.39750 0.80007 0.79691
 H673 H 0.47693 0.70720 0.78777
 H674 H 0.40571 0.73748 0.71977
 C675 C -0.05856 0.25740 0.27930
 C676 C -0.08435 0.26182 0.26648
 C677 C -0.10262 0.28215 0.27573
 C678 C -0.09452 0.29724 0.29978
 C679 C -0.06728 0.29430 0.31125
 C680 C -0.04955 0.27342 0.30159
 C681 C -0.05878 0.31223 0.33246
 N682 N -0.07733 0.32928 0.34383
 N683 N -0.10373 0.32954 0.33542
 C684 C -0.11302 0.31382 0.31419
 H685 H -0.04556 0.24107 0.27179
 H686 H -0.08946 0.24954 0.24860
 H687 H -0.03764 0.31273 0.34024
 H688 H -0.13495 0.31363 0.30973
 C689 C -0.06498 0.76608 0.20452
 C690 C -0.08783 0.76100 0.22063
 C691 C -0.09505 0.73387 0.22833
 C692 C -0.07821 0.71142 0.22043
 C693 C -0.05522 0.71661 0.20374
 C694 C -0.04880 0.74414 0.19564
 C695 C -0.03895 0.69397 0.19609
 N696 N -0.04512 0.66801 0.20506
 N697 N -0.06631 0.66319 0.22127
 C698 C -0.08293 0.68395 0.22939
 H699 H -0.06000 0.78725 0.19875
 H700 H -0.10031 0.77839 0.22670
 H701 H -0.02125 0.69667 0.18328
 H702 H -0.09922 0.67872 0.24321
 C703 C 0.43770 0.25095 0.71699
 C704 C 0.41419 0.24492 0.73156
 C705 C 0.40307 0.21796 0.73243
 C706 C 0.41783 0.19623 0.71963
 C707 C 0.44154 0.20270 0.70416
 C708 C 0.45122 0.23036 0.70271
 C709 C 0.45567 0.18097 0.69168
 N710 N 0.44726 0.15443 0.69530
 N711 N 0.42602 0.14812 0.71094
 C712 C 0.41136 0.16795 0.72352
 H713 H 0.44512 0.27213 0.71637
 H714 H 0.40398 0.26210 0.74107
 H715 H 0.47370 0.18470 0.67960
 H716 H 0.39579 0.16108 0.73744
 C717 C 0.55850 0.25103 0.72432
 C718 C 0.58159 0.25913 0.73985
 C719 C 0.59442 0.28483 0.73507
 C720 C 0.58163 0.30375 0.71557
 C721 C 0.55806 0.29526 0.69960
 C722 C 0.54689 0.26841 0.70369
 C723 C 0.54555 0.31452 0.68096
 N724 N 0.55557 0.34065 0.67889
 N725 N 0.57690 0.34899 0.69454
 C726 C 0.58996 0.33167 0.71300
 H727 H 0.54993 0.23062 0.72807
 H728 H 0.59030 0.24425 0.75468
 H729 H 0.52746 0.30940 0.66851
 H730 H 0.60578 0.34045 0.72628
 C731 C 0.05759 0.75032 0.21667
 C732 C 0.08248 0.75392 0.23114
 C733 C 0.10367 0.77028 0.22037
 C734 C 0.09942 0.78257 0.19368
 C735 C 0.07290 0.78135 0.18030
 C736 C 0.05204 0.76413 0.19144
 C737 C 0.06824 0.79777 0.15633
 N738 N 0.08953 0.81133 0.14468
 N739 N 0.11508 0.80977 0.15551
 C740 C 0.12078 0.79567 0.17942
 H741 H 0.04240 0.73663 0.22554
 H742 H 0.08479 0.74397 0.25122
 H743 H 0.04792 0.80016 0.14680
 H744 H 0.14206 0.79420 0.18651
 C745 C 0.29438 0.06648 0.25905
 C746 C 0.27758 0.08951 0.25333
 C747 C 0.26148 0.09134 0.22887
 C748 C 0.26146 0.06896 0.21029
 C749 C 0.27862 0.04560 0.21606
 C750 C 0.29525 0.04452 0.24061
 C751 C 0.27878 0.02413 0.19680
 N752 N 0.26219 0.02571 0.17380
 N753 N 0.24551 0.04727 0.16875
 C754 C 0.24451 0.06888 0.18619
 H755 H 0.30698 0.06585 0.27790
 H756 H 0.27777 0.10643 0.26773
 H757 H 0.29191 0.00612 0.19975
 H758 H 0.23022 0.08555 0.18117
 C759 C 0.78544 0.55415 0.71541
 C760 C 0.77015 0.57843 0.71162
 C761 C 0.77194 0.59971 0.73089
 C762 C 0.78979 0.59643 0.75448
 C763 C 0.80526 0.57157 0.75840
 C764 C 0.80323 0.55050 0.73845
 C765 C 0.82227 0.56859 0.78230
 N766 N 0.82429 0.58955 0.80050
 N767 N 0.81049 0.61322 0.79640
 C768 C 0.79343 0.61743 0.77403
 H769 H 0.78370 0.53820 0.70000
 H770 H 0.75669 0.58059 0.69345
 H771 H 0.83391 0.54982 0.78673
 H772 H 0.78319 0.63726 0.77168
 C773 C 0.79940 0.43198 0.73235
 C774 C 0.78540 0.40737 0.73775
 C775 C 0.78106 0.39839 0.76490
 C776 C 0.79071 0.41491 0.78714
 C777 C 0.80523 0.43982 0.78157
 C778 C 0.80939 0.44832 0.75396
 C779 C 0.81473 0.45578 0.80391
 N780 N 0.80945 0.44755 0.83006
 N781 N 0.79520 0.42457 0.83532
 C782 C 0.78552 0.40810 0.81483
 H783 H 0.80230 0.43845 0.71114
 H784 H 0.77794 0.39516 0.72054
 H785 H 0.82617 0.47478 0.80083
 H786 H 0.77350 0.39020 0.82050
 C787 C 0.28300 -0.06322 0.24863
 C788 C 0.26980 -0.08838 0.25296
 C789 C 0.28065 -0.10862 0.27164
 C790 C 0.30720 -0.10332 0.28418
 C791 C 0.31900 -0.07632 0.28216
 C792 C 0.30711 -0.05626 0.26356
 C793 C 0.34243 -0.07051 0.29894
 N794 N 0.35557 -0.09128 0.31322
 N795 N 0.34677 -0.11736 0.31188
 C796 C 0.32335 -0.12412 0.29753
 H797 H 0.27385 -0.04877 0.23361
 H798 H 0.25040 -0.09119 0.24183
 H799 H 0.35052 -0.04975 0.30081
 H800 H 0.31846 -0.14581 0.29563
 C801 C 0.19461 -0.06733 0.71554
 C802 C 0.20943 -0.09126 0.71033
 C803 C 0.22619 -0.10432 0.73099
 C804 C 0.22553 -0.09385 0.75835
 C805 C 0.21109 -0.06881 0.76329
 C806 C 0.19590 -0.05541 0.74153
 C807 C 0.21133 -0.05853 0.79024
 N808 N 0.22402 -0.07309 0.81114
 N809 N 0.23607 -0.09738 0.80695
 C810 C 0.23690 -0.10842 0.78148
 H811 H 0.18263 -0.05750 0.69884
 H812 H 0.20879 -0.09853 0.68935
 H813 H 0.20106 -0.03938 0.79503
 H814 H 0.24525 -0.12903 0.78000
 C815 C 0.72336 0.45910 0.24172
 C816 C 0.73809 0.43536 0.23563
 C817 C 0.72741 0.41584 0.21702
 C818 C 0.70106 0.42089 0.20408
 C819 C 0.68704 0.44624 0.20872
 C820 C 0.69772 0.46489 0.22875
 C821 C 0.66276 0.45206 0.19297
 N822 N 0.65180 0.43265 0.17602
 N823 N 0.66356 0.40789 0.17366
 C824 C 0.68761 0.40128 0.18724
 H825 H 0.73198 0.47291 0.25710
 H826 H 0.75811 0.43225 0.24576
 H827 H 0.65243 0.47188 0.19380
 H828 H 0.69543 0.38052 0.18520
 C829 C 0.70072 0.57412 0.28031
 C830 C 0.71432 0.59920 0.28435
 C831 C 0.72137 0.61621 0.26191
 C832 C 0.71346 0.60809 0.23479
 C833 C 0.69998 0.58230 0.23071
 C834 C 0.69390 0.56519 0.25372
 C835 C 0.69247 0.57471 0.20365
 N836 N 0.69776 0.59209 0.18221
 N837 N 0.70987 0.61655 0.18604
 C838 C 0.71775 0.62521 0.21153
 H839 H 0.69593 0.56130 0.29809
 H840 H 0.72003 0.60499 0.30523
 H841 H 0.68216 0.55531 0.19937
 H842 H 0.72669 0.64561 0.21330
 C843 C 0.21083 0.05043 0.78000
 C844 C 0.22504 0.07502 0.78482
 C845 C 0.22445 0.09666 0.76516
 C846 C 0.20867 0.09359 0.74026
 C847 C 0.19433 0.06843 0.73530
 C848 C 0.19536 0.04684 0.75549
 C849 C 0.17954 0.06565 0.71009
 N850 N 0.17844 0.08707 0.69162
 N851 N 0.19113 0.11101 0.69664
 C852 C 0.20609 0.11505 0.72031
 H853 H 0.21175 0.03408 0.79562
 H854 H 0.23694 0.07702 0.80396
 H855 H 0.16888 0.04669 0.70485
 H856 H 0.21547 0.13510 0.72336
 C857 C 0.25352 0.28440 0.06231
 C858 C 0.24586 0.26878 0.08517
 C859 C 0.21796 0.26395 0.09037
 C860 C 0.19733 0.27476 0.07166
 C861 C 0.20522 0.29103 0.04858
 C862 C 0.23352 0.29575 0.04402
 C863 C 0.18447 0.30157 0.03038
 N864 N 0.15760 0.29570 0.03482
 N865 N 0.15017 0.27987 0.05608
 C866 C 0.16906 0.26908 0.07452
 H867 H 0.27527 0.28766 0.05880
 H868 H 0.26191 0.26064 0.09911
 H869 H 0.18936 0.31425 0.01259
 H870 H 0.16172 0.25576 0.09080
 C871 C 0.74726 0.78708 0.56151
 C872 C 0.74073 0.77133 0.58468
 C873 C 0.71317 0.76695 0.59164
 C874 C 0.69168 0.77810 0.57415
 C875 C 0.69843 0.79462 0.55081
 C876 C 0.72645 0.79915 0.54468
 C877 C 0.67681 0.80554 0.53390
 N878 N 0.65022 0.79983 0.53978
 N879 N 0.64386 0.78379 0.56126
 C880 C 0.66361 0.77261 0.57850
 H881 H 0.76878 0.79029 0.55691
 H882 H 0.75747 0.76290 0.59759
 H883 H 0.68078 0.81828 0.51590
 H884 H 0.65708 0.75907 0.59498
 C885 C 0.74564 0.80612 0.42710
 C886 C 0.75264 0.79202 0.40354
 C887 C 0.77797 0.77815 0.40226
 C888 C 0.79665 0.77846 0.42538
 C889 C 0.78943 0.79280 0.44942
 C890 C 0.76360 0.80646 0.45022
 C891 C 0.80834 0.79289 0.47199
 N892 N 0.83260 0.77903 0.47067
 N893 N 0.83915 0.76506 0.44836
 C894 C 0.82201 0.76420 0.42575
 H895 H 0.72575 0.81639 0.42752
 H896 H 0.73810 0.79189 0.38612
 H897 H 0.80408 0.80388 0.49063
 H898 H 0.82833 0.75216 0.40849
 C899 C 0.24775 0.28133 -0.06632
 C900 C 0.25368 0.26598 -0.08938
 C901 C 0.28095 0.26274 -0.09763
 C902 C 0.30281 0.27463 -0.08161
 C903 C 0.29664 0.29068 -0.05834
 C904 C 0.26886 0.29407 -0.05087
 C905 C 0.31864 0.30221 -0.04280
 N906 N 0.34504 0.29757 -0.04995
 N907 N 0.35090 0.28202 -0.07139
 C908 C 0.33077 0.27026 -0.08732
 H909 H 0.22642 0.28357 -0.06062
 H910 H 0.23671 0.25695 -0.10119
 H911 H 0.31513 0.31458 -0.02488
 H912 H 0.33697 0.25714 -0.10382
 C913 C 0.72656 0.19672 -0.06725
 C914 C 0.72125 0.21197 -0.09146
 C915 C 0.73692 0.23549 -0.09798
 C916 C 0.75849 0.24375 -0.07933
 C917 C 0.76487 0.22724 -0.05542
 C918 C 0.74808 0.20408 -0.04886
 C919 C 0.78805 0.23448 -0.03887
 N920 N 0.80229 0.25795 -0.04456
 N921 N 0.79498 0.27459 -0.06571
 C922 C 0.77351 0.26844 -0.08312
 H923 H 0.71342 0.17919 -0.06264
 H924 H 0.70467 0.20526 -0.10527
 H925 H 0.79510 0.22168 -0.02155
 H926 H 0.76816 0.28330 -0.09926
 C927 C 0.24598 0.71277 0.44923
 C928 C 0.24232 0.72705 0.42422
 C929 C 0.22533 0.71655 0.40292
 C930 C 0.21220 0.69049 0.40719
 C931 C 0.21374 0.67738 0.43368
 C932 C 0.23177 0.68802 0.45460
 C933 C 0.19687 0.65410 0.43826
 N934 N 0.18236 0.64276 0.41697
 N935 N 0.18343 0.65325 0.39148
 C936 C 0.19803 0.67651 0.38583
 H937 H 0.26020 0.72126 0.46454
 H938 H 0.25279 0.74670 0.42176
 H939 H 0.19492 0.64486 0.45854
 H940 H 0.19898 0.68327 0.36458
 C941 C 0.23378 0.70300 0.56937
 C942 C 0.23898 0.71833 0.59305
 C943 C 0.26597 0.72166 0.60375
 C944 C 0.28835 0.71005 0.58963
 C945 C 0.28299 0.69425 0.56565
 C946 C 0.25543 0.69056 0.55571
 C947 C 0.30559 0.68333 0.55185
 N948 N 0.33170 0.68811 0.56141
 N949 N 0.33677 0.70328 0.58364
 C950 C 0.31608 0.71454 0.59793
 H951 H 0.21267 0.70061 0.56176
 H952 H 0.22173 0.72745 0.60332
 H953 H 0.30283 0.67136 0.53335
 H954 H 0.32169 0.72734 0.61523
 C955 C 0.78171 0.20155 0.06904
 C956 C 0.78654 0.21736 0.09244
 C957 C 0.76631 0.23544 0.10174
 C958 C 0.74002 0.23633 0.08791
 C959 C 0.73524 0.22040 0.06388
 C960 C 0.75652 0.20333 0.05416
 C961 C 0.70899 0.22162 0.05068
 N962 N 0.68887 0.23754 0.06107
 N963 N 0.69316 0.25211 0.08384
 C964 C 0.71792 0.25193 0.09769
 H965 H 0.79814 0.18845 0.06195
 H966 H 0.80664 0.21614 0.10283
 H967 H 0.70413 0.20975 0.03248
 H968 H 0.71976 0.26347 0.11651
 C969 C 0.51110 0.30541 0.54009
 C970 C 0.50689 0.33002 0.52501
 C971 C 0.48053 0.34193 0.52218
 C972 C 0.45768 0.32795 0.53363
 C973 C 0.46204 0.30307 0.54914
 C974 C 0.48903 0.29206 0.55262
 C975 C 0.43907 0.28979 0.56052
 N976 N 0.41343 0.30058 0.55613
 N977 N 0.40922 0.32362 0.54107
 C978 C 0.43038 0.33758 0.52959
 H979 H 0.53179 0.29698 0.54243
 H980 H 0.52451 0.34032 0.51622
 H981 H 0.44122 0.27084 0.57266
 H982 H 0.42551 0.35573 0.51701
 C983 C -0.00250 0.80261 0.02685
 C984 C -0.00910 0.82609 0.01094
 C985 C -0.03603 0.83684 0.00985
 C986 C -0.05702 0.82267 0.02426
 C987 C -0.05013 0.79893 0.04082
 C988 C -0.02255 0.78915 0.04230
 C989 C -0.07131 0.78530 0.05485
 N990 N -0.09764 0.79471 0.05215
 N991 N -0.10423 0.81663 0.03622
 C992 C -0.08492 0.83080 0.02208
 H993 H 0.01865 0.79522 0.02765
 H994 H 0.00723 0.83644 0.00003
 H995 H -0.06727 0.76707 0.06762
 H996 H -0.09175 0.84783 0.00884
 C997 C -0.00492 0.67655 0.03796
 C998 C 0.00261 0.65349 0.02314
 C999 C 0.03046 0.64643 0.02038
 C1000 C 0.05121 0.66316 0.03306
 C1001 C 0.04342 0.68651 0.04850
 C1002 C 0.01513 0.69325 0.05065
 C1003 C 0.06433 0.70300 0.06049
 N1004 N 0.09122 0.69660 0.05699
 N1005 N 0.09858 0.67505 0.04210
 C1006 C 0.07957 0.65826 0.02988
 H1007 H -0.02663 0.68164 0.03927
 H1008 H -0.01354 0.64110 0.01355
 H1009 H 0.05958 0.72101 0.07243
 H1010 H 0.08694 0.64166 0.01744
 C1011 C 0.52081 0.17554 0.55568
 C1012 C 0.52123 0.14980 0.54323
 C1013 C 0.49666 0.13680 0.53449
 C1014 C 0.47100 0.14984 0.53930
 C1015 C 0.47066 0.17629 0.55165
 C1016 C 0.49582 0.18914 0.55967
 C1017 C 0.44500 0.18888 0.55599
 N1018 N 0.42130 0.17552 0.54885
 N1019 N 0.42156 0.15044 0.53784
 C1020 C 0.44552 0.13709 0.53296
 H1021 H 0.54017 0.18513 0.56196
 H1022 H 0.54106 0.14027 0.53981
 H1023 H 0.44357 0.20909 0.56517
 H1024 H 0.44432 0.11648 0.52470
 C1025 C 0.01025 0.17826 0.46221
 C1026 C 0.00712 0.15152 0.47306
 C1027 C -0.01086 0.13249 0.46035
 C1028 C -0.02504 0.14059 0.43541
 C1029 C -0.02433 0.16866 0.42625
 C1030 C -0.00554 0.18747 0.43909
 C1031 C -0.04294 0.17688 0.40471
 N1032 N -0.05797 0.15762 0.39088
 N1033 N -0.05596 0.13076 0.39737
 C1034 C -0.03985 0.12158 0.41897
 H1035 H 0.02495 0.19197 0.47227
 H1036 H 0.01849 0.14600 0.49192
 H1037 H -0.04590 0.19839 0.39879
 H1038 H -0.03840 0.09949 0.42273
 C1039 C 0.50540 0.69406 0.97001
 C1040 C 0.49821 0.67094 0.98583
 C1041 C 0.47054 0.66280 0.98774
 C1042 C 0.44957 0.67915 0.97427
 C1043 C 0.45699 0.70243 0.95782
 C1044 C 0.48514 0.70965 0.95558
 C1045 C 0.43586 0.71811 0.94449
 N1046 N 0.40907 0.71118 0.94792
 N1047 N 0.40202 0.68977 0.96389
 C1048 C 0.42128 0.67366 0.97729
 H1049 H 0.52699 0.69960 0.96865
 H1050 H 0.51449 0.65890 0.99613
 H1051 H 0.44036 0.73597 0.93160
 H1052 H 0.41416 0.65717 0.99059
 C1053 C 0.53621 0.81433 0.96213
 C1054 C 0.54104 0.83951 0.97508
 C1055 C 0.52077 0.86029 0.97462
 C1056 C 0.49539 0.85588 0.95994
 C1057 C 0.49047 0.83019 0.94687
 C1058 C 0.51109 0.80934 0.94810
 C1059 C 0.46487 0.82615 0.93303
 N1060 N 0.44589 0.84683 0.93176
 N1061 N 0.45078 0.87122 0.94335
 C1062 C 0.47485 0.87650 0.95729
 H1063 H 0.55215 0.79854 0.96316
 H1064 H 0.56057 0.84257 0.98610
 H1065 H 0.45979 0.80679 0.92317
 H1066 H 0.47776 0.89687 0.96576
 C1067 C 0.02945 0.30825 0.44691
 C1068 C 0.03626 0.33062 0.46339
 C1069 C 0.02242 0.33555 0.48777
 C1070 C 0.00114 0.31691 0.49557
 C1071 C -0.00720 0.29524 0.47756
 C1072 C 0.00776 0.29032 0.45341
 C1073 C -0.03050 0.27944 0.48431
 N1074 N -0.04277 0.28319 0.50868
 N1075 N -0.03339 0.30173 0.52666
 C1076 C -0.01179 0.31853 0.52106
 H1077 H 0.04146 0.30492 0.42879
 H1078 H 0.05252 0.34431 0.45670
 H1079 H -0.03925 0.26430 0.47042
 H1080 H -0.00461 0.33238 0.53692
 C1081 C 0.33244 0.54357 0.52376
 C1082 C 0.35816 0.53178 0.51940
 C1083 C 0.36687 0.52677 0.49266
 C1084 C 0.34893 0.53340 0.46975
 C1085 C 0.32289 0.54572 0.47425
 C1086 C 0.31471 0.55068 0.50147
 C1087 C 0.30543 0.55203 0.45125
 N1088 N 0.31345 0.54594 0.42555
 N1089 N 0.33759 0.53379 0.42133
 C1090 C 0.35549 0.52716 0.44248
 H1091 H 0.32622 0.54702 0.54467
 H1092 H 0.37143 0.52649 0.53711
 H1093 H 0.28542 0.56156 0.45346
 H1094 H 0.37432 0.51662 0.43765
 C1095 C 0.81656 0.05279 -0.03158
 C1096 C 0.84096 0.03873 -0.03668
 C1097 C 0.85840 0.02920 -0.01491
 C1098 C 0.85161 0.03519 0.01263
 C1099 C 0.82653 0.04911 0.01778
 C1100 C 0.80887 0.05765 -0.00456
 C1101 C 0.82009 0.05442 0.04525
 N1102 N 0.83796 0.04680 0.06607
 N1103 N 0.86184 0.03440 0.06125
 C1104 C 0.86935 0.02849 0.03531
 H1105 H 0.80328 0.05946 -0.04882
 H1106 H 0.84585 0.03456 -0.05784
 H1107 H 0.80116 0.06480 0.05036
 H1108 H 0.88936 0.01919 0.03276
 C1109 C 0.68800 0.05094 0.00049
 C1110 C 0.66484 0.03490 0.00592
 C1111 C 0.66262 0.02056 0.03113
 C1112 C 0.68461 0.02201 0.05107
 C1113 C 0.70820 0.03838 0.04551
 C1114 C 0.70981 0.05285 0.01996
 C1115 C 0.72943 0.03984 0.06588
 N1116 N 0.72741 0.02522 0.08984
 N1117 N 0.70563 0.00928 0.09479
 C1118 C 0.68425 0.00709 0.07624
 H1119 H 0.68904 0.06181 -0.01918
 H1120 H 0.64827 0.03405 -0.00956
 H1121 H 0.74758 0.05247 0.06301
 H1122 H 0.66740 -0.00655 0.08127
 C1123 C 0.19590 0.54038 0.53849
 C1124 C 0.17443 0.52250 0.54492
 C1125 C 0.17152 0.49665 0.53230
 C1126 C 0.19140 0.48879 0.51289
 C1127 C 0.21169 0.50819 0.50442
 C1128 C 0.21474 0.53381 0.51825
 C1129 C 0.22806 0.50123 0.48209
 N1130 N 0.22658 0.47548 0.47144
 N1131 N 0.20971 0.45631 0.48146
 C1132 C 0.19230 0.46199 0.50194
 H1133 H 0.19777 0.55963 0.54956
 H1134 H 0.15981 0.52926 0.55981
 H1135 H 0.24189 0.51601 0.47284
 H1136 H 0.17998 0.44523 0.50988
 C1137 C 0.18818 0.44716 0.00139
 C1138 C 0.16437 0.46294 -0.00356
 C1139 C 0.16020 0.47768 -0.02848
 C1140 C 0.18092 0.47719 -0.04850
 C1141 C 0.20492 0.46075 -0.04363
 C1142 C 0.20856 0.44582 -0.01836
 C1143 C 0.22444 0.45959 -0.06446
 N1144 N 0.22068 0.47494 -0.08794
 N1145 N 0.19874 0.49130 -0.09203
 C1146 C 0.17882 0.49304 -0.07313
 H1147 H 0.19076 0.43590 0.02082
 H1148 H 0.14879 0.46317 0.01196
 H1149 H 0.24256 0.44657 -0.06239
 H1150 H 0.16182 0.50711 -0.07744
 C1151 C 0.66715 0.94202 0.47954
 C1152 C 0.64299 0.95707 0.47441
 C1153 C 0.63605 0.97942 0.49093
 C1154 C 0.65398 0.98639 0.51354
 C1155 C 0.67785 0.96998 0.51965
 C1156 C 0.68507 0.94838 0.50175
 C1157 C 0.69383 0.97585 0.54355
 N1158 N 0.68761 0.99803 0.55894
 N1159 N 0.66648 1.01468 0.55206
 C1160 C 0.64964 1.00978 0.52984
 H1161 H 0.67228 0.92571 0.46550
 H1162 H 0.62969 0.95131 0.45708
 H1163 H 0.71114 0.96296 0.55021
 H1164 H 0.63353 1.02465 0.52494
 C1165 C 0.80782 0.94541 0.52666
 C1166 C 0.83145 0.96109 0.53179
 C1167 C 0.83631 0.98564 0.51685
 C1168 C 0.81640 0.99468 0.49646
 C1169 C 0.79317 0.97776 0.49006
 C1170 C 0.78843 0.95333 0.50595
 C1171 C 0.77554 0.98584 0.46774
 N1172 N 0.77951 1.01040 0.45448
 N1173 N 0.79997 1.02735 0.46195
 C1174 C 0.81838 1.02045 0.48256
 H1175 H 0.80454 0.92697 0.53920
 H1176 H 0.84623 0.95372 0.54746
 H1177 H 0.75873 0.97284 0.46058
 H1178 H 0.83392 1.03551 0.48818
 C1179 C 0.32294 0.44153 0.02536
 C1180 C 0.34740 0.45617 0.02968
 C1181 C 0.36005 0.47004 0.00780
 C1182 C 0.34850 0.46773 -0.01932
 C1183 C 0.32340 0.45306 -0.02361
 C1184 C 0.31039 0.44040 -0.00093
 C1185 C 0.31236 0.45114 -0.05066
 N1186 N 0.32582 0.46289 -0.07195
 N1187 N 0.34962 0.47624 -0.06803
 C1188 C 0.36149 0.47893 -0.04253
 H1189 H 0.31327 0.43170 0.04283
 H1190 H 0.35596 0.45750 0.05050
 H1191 H 0.29340 0.44006 -0.05512
 H1192 H 0.38122 0.48925 -0.04083
 C1193 C 0.56181 0.47789 0.32571
 C1194 C 0.54805 0.47224 0.34993
 C1195 C 0.52439 0.48717 0.35657
 C1196 C 0.51437 0.50829 0.33800
 C1197 C 0.52934 0.51507 0.31408
 C1198 C 0.55273 0.49904 0.30743
 C1199 C 0.52038 0.53787 0.29762
 N1200 N 0.49675 0.55132 0.30341
 N1201 N 0.48154 0.54358 0.32456
 C1202 C 0.48940 0.52247 0.34189
 H1203 H 0.57954 0.46532 0.32101
 H1204 H 0.55606 0.45600 0.36367
 H1205 H 0.53195 0.54526 0.28030
 H1206 H 0.47565 0.51670 0.35805
 C1207 C 0.03170 -0.03524 0.80026
 C1208 C 0.01777 -0.03997 0.82455
 C1209 C 0.01976 -0.02124 0.84627
 C1210 C 0.03665 0.00264 0.84351
 C1211 C 0.05045 0.00770 0.81852
 C1212 C 0.04819 -0.01167 0.79692
 C1213 C 0.06594 0.03222 0.81592
 N1214 N 0.06851 0.04969 0.83742
 N1215 N 0.05661 0.04434 0.86127
 C1216 C 0.04091 0.02142 0.86511
 H1217 H 0.02981 -0.05027 0.78398
 H1218 H 0.00506 -0.05835 0.82628
 H1219 H 0.07596 0.03775 0.79702
 H1220 H 0.03233 0.01801 0.88513
 C1221 C 0.02754 0.02116 0.69167
 C1222 C 0.01313 0.02617 0.66681
 C1223 C 0.01850 0.01057 0.64355
 C1224 C 0.03805 -0.01128 0.64563
 C1225 C 0.05231 -0.01684 0.67115
 C1226 C 0.04744 0.00007 0.69418
 C1227 C 0.07036 -0.03974 0.67289
 N1228 N 0.07435 -0.05533 0.65038
 N1229 N 0.06130 -0.04982 0.62635
 C1230 C 0.04323 -0.02844 0.62323
 H1231 H 0.02342 0.03421 0.70902
 H1232 H -0.00197 0.04277 0.66556
 H1233 H 0.08099 -0.04574 0.69197
 H1234 H 0.03284 -0.02535 0.60338
 C1235 C 0.52918 0.52852 0.20113
 C1236 C 0.51579 0.53406 0.17585
 C1237 C 0.52109 0.51814 0.15272
 C1238 C 0.54030 0.49590 0.15531
 C1239 C 0.55356 0.48994 0.18127
 C1240 C 0.54840 0.50689 0.20414
 C1241 C 0.57165 0.46711 0.18347
 N1242 N 0.57706 0.45218 0.16086
 N1243 N 0.56559 0.45850 0.13626
 C1244 C 0.54754 0.47987 0.13268
 H1245 H 0.52512 0.54180 0.21833
 H1246 H 0.50116 0.55106 0.17433
 H1247 H 0.58143 0.46089 0.20294
 H1248 H 0.53943 0.48424 0.11210
 C1249 C 0.44733 -0.02636 0.18060
 C1250 C 0.46215 -0.03069 0.15690
 C1251 C 0.47526 -0.00862 0.14343
 C1252 C 0.47197 0.01870 0.15329
 C1253 C 0.45707 0.02304 0.17757
 C1254 C 0.44519 0.00017 0.19155
 C1255 C 0.45405 0.05035 0.18677
 N1256 N 0.46504 0.07179 0.17241
 N1257 N 0.47865 0.06779 0.14941
 C1258 C 0.48235 0.04208 0.13928
 H1259 H 0.43813 -0.04399 0.19096
 H1260 H 0.46415 -0.05165 0.14953
 H1261 H 0.44270 0.05494 0.20497
 H1262 H 0.49282 0.04035 0.12008
 C1263 C 0.95007 0.46968 0.67684
 C1264 C 0.96588 0.46290 0.65444
 C1265 C 0.98420 0.48215 0.64315
 C1266 C 0.98525 0.50943 0.65360
 C1267 C 0.96907 0.51636 0.67636
 C1268 C 0.95201 0.49597 0.68854
 C1269 C 0.97010 0.54374 0.68586
 N1270 N 0.98641 0.56273 0.67345
 N1271 N 1.00155 0.55626 0.65207
 C1272 C 1.00144 0.53037 0.64164
 H1273 H 0.93697 0.45394 0.68578
 H1274 H 0.96462 0.44204 0.64656
 H1275 H 0.95776 0.55040 0.70270
 H1276 H 1.01358 0.52665 0.62379
 C1277 C 0.95846 0.49876 0.80875
 C1278 C 0.97430 0.50396 0.83252
 C1279 C 0.98659 0.52991 0.83658
 C1280 C 0.98323 0.55096 0.81594
 C1281 C 0.96702 0.54563 0.79176
 C1282 C 0.95473 0.51927 0.78823
 C1283 C 0.96363 0.56698 0.77182
 N1284 N 0.97631 0.59172 0.77562
 N1285 N 0.99214 0.59650 0.79795
 C1286 C 0.99612 0.57699 0.81816
 H1287 H 0.94923 0.47847 0.80619
 H1288 H 0.97676 0.48764 0.84804
 H1289 H 0.95101 0.56425 0.75329
 H1290 H 1.00958 0.58199 0.83551
 C1291 C 0.46774 0.00519 0.30413
 C1292 C 0.48183 0.01175 0.32860
 C1293 C 0.47827 0.03761 0.34078
 C1294 C 0.46129 0.05786 0.32702
 C1295 C 0.44669 0.05102 0.30226
 C1296 C 0.44961 0.02426 0.29115
 C1297 C 0.42998 0.07145 0.28909
 N1298 N 0.42833 0.09709 0.29993
 N1299 N 0.44238 0.10369 0.32290
 C1300 C 0.45889 0.08506 0.33671
 H1301 H 0.47033 -0.01526 0.29568
 H1302 H 0.49485 -0.00392 0.33864
 H1303 H 0.41852 0.06744 0.27010
 H1304 H 0.47038 0.09197 0.35472
   
