data_POSCAR
  _audit_creation_date              2014-09-24
  _audit_creation_method            'ToBaCCo'
  _symmetry_space_group_name_H-M    'P1'
  _symmetry_Int_Tables_number       1
  _symmetry_cell_setting            triclinic
  loop_
  _symmetry_equiv_pos_as_xyz
 x,y,z
_cell_length_a 77.4402
_cell_length_b 76.4782
_cell_length_c 77.2541
_cell_angle_alpha 89.168900
_cell_angle_beta 88.913000
_cell_angle_gamma 90.550900
loop_
  _atom_site_label
  _atom_site_type_symbol
  _atom_site_fract_x
  _atom_site_fract_y
  _atom_site_fract_z
C1 C 0.35776 0.32979 0.37033
 C2 C 0.34616 0.33316 0.38404
 C3 C 0.33597 0.34786 0.38339
 C4 C 0.33695 0.35920 0.36907
 C5 C 0.34814 0.35586 0.35539
 C6 C 0.35879 0.34104 0.35610
 C7 C 0.36912 0.31639 0.36736
 N8 N 0.37715 0.31922 0.35180
 C9 C 0.37084 0.33423 0.34475
 C10 C 0.34533 0.36861 0.34289
 N11 N 0.33271 0.37941 0.34883
 C12 C 0.32764 0.37375 0.36483
 C13 C 0.32531 0.34749 0.39777
 N14 N 0.32858 0.33282 0.40712
 C15 C 0.34141 0.32395 0.39891
 H16 H 0.37143 0.30537 0.37593
 H17 H 0.37454 0.33984 0.33228
 H18 H 0.35177 0.36965 0.33036
 H19 H 0.31749 0.37954 0.37263
 H20 H 0.31534 0.35684 0.40085
 H21 H 0.34659 0.31153 0.40307
 C22 C 0.35960 0.85140 -0.17281
 C23 C 0.34773 0.85170 -0.15876
 C24 C 0.33565 0.86490 -0.15792
 C25 C 0.33508 0.87777 -0.17092
 C26 C 0.34663 0.87747 -0.18469
 C27 C 0.35899 0.86427 -0.18561
 C28 C 0.37258 0.84007 -0.17764
 N29 N 0.37972 0.84589 -0.19298
 C30 C 0.37143 0.86064 -0.19786
 C31 C 0.34237 0.89092 -0.19582
 N32 N 0.32844 0.89930 -0.18912
 C33 C 0.32397 0.89134 -0.17378
 C34 C 0.32539 0.86185 -0.14354
 N35 N 0.33076 0.84711 -0.13547
 C36 C 0.34447 0.84071 -0.14463
 H37 H 0.37629 0.82848 -0.17051
 H38 H 0.37415 0.86812 -0.20962
 H39 H 0.34863 0.89405 -0.20815
 H40 H 0.31316 0.89459 -0.16542
 H41 H 0.31452 0.86965 -0.13937
 H42 H 0.35140 0.82891 -0.14150
 C43 C 0.83864 0.34932 -0.15338
 C44 C 0.82445 0.34833 -0.14179
 C45 C 0.81161 0.36081 -0.14259
 C46 C 0.81275 0.37443 -0.15497
 C47 C 0.82678 0.37537 -0.16627
 C48 C 0.83975 0.36282 -0.16545
 C49 C 0.85284 0.33885 -0.15609
 N50 N 0.86242 0.34581 -0.16953
 C51 C 0.85448 0.36047 -0.17522
 C52 C 0.82443 0.38945 -0.17717
 N53 N 0.80927 0.39715 -0.17288
 C54 C 0.80200 0.38807 -0.15923
 C55 C 0.79943 0.35648 -0.13002
 N56 N 0.80451 0.34175 -0.12161
 C57 C 0.81981 0.33664 -0.12874
 H58 H 0.85573 0.32705 -0.14887
 H59 H 0.85898 0.36871 -0.18594
 H60 H 0.83303 0.39363 -0.18768
 H61 H 0.78976 0.39084 -0.15294
 H62 H 0.78767 0.36352 -0.12718
 H63 H 0.82713 0.32533 -0.12482
 C64 C 0.88497 0.84368 0.33577
 C65 C 0.87437 0.84783 0.34998
 C66 C 0.86631 0.86383 0.35052
 C67 C 0.86874 0.87588 0.33686
 C68 C 0.87899 0.87175 0.32267
 C69 C 0.88724 0.85549 0.32215
 C70 C 0.89347 0.82867 0.33142
 N71 N 0.90092 0.83099 0.31551
 C72 C 0.89713 0.84738 0.30967
 C73 C 0.87733 0.88511 0.31066
 N74 N 0.86638 0.89721 0.31727
 C75 C 0.86113 0.89162 0.33335
 C76 C 0.85522 0.86347 0.36463
 N77 N 0.85628 0.84762 0.37260
 C78 C 0.86809 0.83797 0.36377
 H79 H 0.89400 0.81678 0.33917
 H80 H 0.90100 0.85306 0.29728
 H81 H 0.88309 0.88564 0.29777
 H82 H 0.85168 0.89780 0.34165
 H83 H 0.84620 0.87360 0.36822
 H84 H 0.87112 0.82443 0.36635
 C85 C 0.66390 0.64674 0.33166
 C86 C 0.67728 0.64750 0.34357
 C87 C 0.68980 0.63475 0.34372
 C88 C 0.68909 0.62103 0.33189
 C89 C 0.67586 0.62030 0.32011
 C90 C 0.66317 0.63325 0.31999
 C91 C 0.65065 0.65793 0.32800
 N92 N 0.64188 0.65159 0.31432
 C93 C 0.64944 0.63647 0.30938
 C94 C 0.67898 0.60631 0.30958
 N95 N 0.69380 0.59852 0.31467
 C96 C 0.70003 0.60742 0.32832
 C97 C 0.70161 0.63938 0.35600
 N98 N 0.69657 0.65466 0.36316
 C99 C 0.68163 0.65967 0.35567
 H100 H 0.64799 0.66996 0.33467
 H101 H 0.64549 0.62864 0.29855
 H102 H 0.67119 0.60251 0.29877
 H103 H 0.71193 0.60449 0.33484
 H104 H 0.71324 0.63240 0.35922
 H105 H 0.67443 0.67133 0.35858
 C106 C 0.64141 0.14939 -0.15211
 C107 C 0.65507 0.15045 -0.14048
 C108 C 0.66870 0.13896 -0.14175
 C109 C 0.66888 0.12626 -0.15471
 C110 C 0.65543 0.12526 -0.16619
 C111 C 0.64160 0.13689 -0.16486
 C112 C 0.62659 0.15896 -0.15405
 N113 N 0.61778 0.15254 -0.16772
 C114 C 0.62690 0.13904 -0.17435
 C115 C 0.65908 0.11199 -0.17750
 N116 N 0.67447 0.10486 -0.17315
 C117 C 0.68050 0.11351 -0.15922
 C118 C 0.68007 0.14313 -0.12892
 N119 N 0.67372 0.15688 -0.11995
 C120 C 0.65838 0.16143 -0.12694
 H121 H 0.62278 0.16980 -0.14607
 H122 H 0.62317 0.13140 -0.18540
 H123 H 0.65102 0.10802 -0.18805
 H124 H 0.69257 0.11081 -0.15288
 H125 H 0.69217 0.13670 -0.12632
 H126 H 0.65013 0.17187 -0.12258
 C127 C 0.15699 0.67837 -0.16469
 C128 C 0.17101 0.67679 -0.15346
 C129 C 0.18292 0.66362 -0.15589
 C130 C 0.18103 0.65186 -0.16950
 C131 C 0.16724 0.65339 -0.18047
 C132 C 0.15517 0.66672 -0.17807
 C133 C 0.14347 0.68994 -0.16575
 N134 N 0.13357 0.68560 -0.17943
 C135 C 0.14069 0.67133 -0.18701
 C136 C 0.16866 0.64033 -0.19245
 N137 N 0.18301 0.63090 -0.18908
 C138 C 0.19069 0.63790 -0.17500
 C139 C 0.19514 0.66526 -0.14331
 N140 N 0.19102 0.67906 -0.13327
 C141 C 0.17625 0.68623 -0.13938
 H142 H 0.14108 0.70082 -0.15724
 H143 H 0.13596 0.66468 -0.19825
 H144 H 0.15989 0.63788 -0.20293
 H145 H 0.20235 0.63331 -0.16904
 H146 H 0.20630 0.65702 -0.14161
 H147 H 0.16976 0.69749 -0.13414
 C148 C 0.15665 0.15386 0.34665
 C149 C 0.16884 0.15499 0.35976
 C150 C 0.18288 0.14401 0.35975
 C151 C 0.18498 0.13178 0.34658
 C152 C 0.17301 0.13064 0.33354
 C153 C 0.15866 0.14183 0.33357
 C154 C 0.14190 0.16310 0.34350
 N155 N 0.13475 0.15707 0.32874
 C156 C 0.14496 0.14407 0.32259
 C157 C 0.17860 0.11771 0.32251
 N158 N 0.19365 0.11108 0.32862
 C159 C 0.19757 0.11966 0.34331
 C160 C 0.19257 0.14812 0.37391
 N161 N 0.18479 0.16138 0.38241
 C162 C 0.17020 0.16565 0.37387
 H163 H 0.13706 0.17355 0.35145
 H164 H 0.14263 0.13680 0.31092
 H165 H 0.17213 0.11366 0.31094
 H166 H 0.20884 0.11729 0.35106
 H167 H 0.20450 0.14200 0.37769
 H168 H 0.16112 0.17564 0.37759
 C169 C 0.61378 0.33987 0.68022
 C170 C 0.62610 0.34018 0.66665
 C171 C 0.63760 0.35412 0.66478
 C172 C 0.63688 0.36803 0.67652
 C173 C 0.62460 0.36768 0.68975
 C174 C 0.61306 0.35359 0.69161
 C175 C 0.60146 0.32775 0.68570
 N176 N 0.59341 0.33392 0.70016
 C177 C 0.60041 0.34971 0.70378
 C178 C 0.62695 0.38235 0.69943
 N179 N 0.64041 0.39170 0.69259
 C180 C 0.64664 0.38310 0.67849
 C181 C 0.64823 0.35062 0.65075
 N182 N 0.64340 0.33495 0.64410
 C183 C 0.62992 0.32852 0.65378
 H184 H 0.59886 0.31532 0.67974
 H185 H 0.59679 0.35764 0.71474
 H186 H 0.61956 0.38586 0.71090
 H187 H 0.65748 0.38729 0.67038
 H188 H 0.65868 0.35891 0.64590
 H189 H 0.62342 0.31616 0.65164
 C190 C 0.64979 0.84946 1.15800
 C191 C 0.66170 0.84730 1.14437
 C192 C 0.67664 0.85735 1.14341
 C193 C 0.67978 0.86987 1.15615
 C194 C 0.66795 0.87197 1.16960
 C195 C 0.65289 0.86170 1.17055
 C196 C 0.63508 0.84036 1.16290
 N197 N 0.62919 0.84674 1.17827
 C198 C 0.63997 0.85988 1.18294
 C199 C 0.67460 0.88420 1.18052
 N200 N 0.69023 0.88964 1.17409
 C201 C 0.69348 0.88100 1.15915
 C202 C 0.68629 0.85142 1.12953
 N203 N 0.67748 0.83804 1.12218
 C204 C 0.66244 0.83552 1.13115
 H205 H 0.62970 0.82944 1.15603
 H206 H 0.63892 0.86708 1.19488
 H207 H 0.66839 0.88869 1.19227
 H208 H 0.70510 0.88249 1.15124
 H209 H 0.69892 0.85626 1.12546
 H210 H 0.65297 0.82543 1.12856
 C211 C 0.13090 0.33535 1.15866
 C212 C 0.13928 0.33817 1.14266
 C213 C 0.15246 0.35032 1.14113
 C214 C 0.15750 0.35978 1.15555
 C215 C 0.14931 0.35713 1.17151
 C216 C 0.13574 0.34468 1.17309
 C217 C 0.11844 0.32349 1.16381
 N218 N 0.11531 0.32521 1.18101
 C219 C 0.12583 0.33817 1.18691
 C220 C 0.15799 0.36750 1.18317
 N221 N 0.17109 0.37611 1.17449
 C222 C 0.17083 0.37138 1.15770
 C223 C 0.15938 0.34915 1.12469
 N224 N 0.15070 0.33645 1.11619
 C225 C 0.13833 0.32971 1.12709
 H226 H 0.11224 0.31401 1.15562
 H227 H 0.12662 0.34231 1.20020
 H228 H 0.15532 0.36821 1.19694
 H229 H 0.18000 0.37580 1.14778
 H230 H 0.17058 0.35634 1.11980
 H231 H 0.12991 0.31880 1.12420
 C232 C 0.15132 0.83658 0.64023
 C233 C 0.16520 0.83882 0.62836
 C234 C 0.17603 0.85324 0.62951
 C235 C 0.17317 0.86560 0.64243
 C236 C 0.15957 0.86340 0.65409
 C237 C 0.14859 0.84882 0.65298
 C238 C 0.13884 0.82373 0.64265
 N239 N 0.12872 0.82790 0.65653
 C240 C 0.13462 0.84329 0.66288
 C241 C 0.16023 0.87702 0.66550
 N242 N 0.17398 0.88746 0.66100
 C243 C 0.18190 0.88057 0.64687
 C244 C 0.18863 0.85185 0.61685
 N245 N 0.18576 0.83699 0.60795
 C246 C 0.17144 0.82889 0.61491
 H247 H 0.13733 0.81209 0.63499
 H248 H 0.12929 0.85009 0.67389
 H249 H 0.15139 0.87890 0.67629
 H250 H 0.19337 0.88592 0.64044
 H251 H 0.19926 0.86090 0.61438
 H252 H 0.16609 0.81653 0.61084
 C253 C 0.36200 0.65693 0.64193
 C254 C 0.34855 0.65668 0.62986
 C255 C 0.33826 0.64183 0.62851
 C256 C 0.34119 0.62711 0.63901
 C257 C 0.35447 0.62732 0.65064
 C258 C 0.36486 0.64224 0.65213
 C259 C 0.37358 0.66963 0.64714
 N260 N 0.38318 0.66281 0.66018
 C261 C 0.37790 0.64611 0.66321
 C262 C 0.35373 0.61184 0.65986
 N263 N 0.34018 0.60228 0.65426
 C264 C 0.33245 0.61145 0.64139
 C265 C 0.32596 0.64532 0.61642
 N266 N 0.32845 0.66182 0.61020
 C267 C 0.34222 0.66897 0.61838
 H268 H 0.37459 0.68287 0.64208
 H269 H 0.38296 0.63751 0.67310
 H270 H 0.36195 0.60813 0.67046
 H271 H 0.32104 0.60740 0.63459
 H272 H 0.31583 0.63647 0.61242
 H273 H 0.34720 0.68211 0.61636
 C274 C 0.35325 0.18502 1.15449
 C275 C 0.34025 0.18715 1.14239
 C276 C 0.32741 0.17467 1.14100
 C277 C 0.32749 0.15973 1.15176
 C278 C 0.34039 0.15752 1.16381
 C279 C 0.35344 0.17041 1.16525
 C280 C 0.36705 0.19542 1.15846
 N281 N 0.37576 0.18770 1.17147
 C282 C 0.36760 0.17232 1.17579
 C283 C 0.33704 0.14180 1.17232
 N284 N 0.32246 0.13452 1.16569
 C285 C 0.31661 0.14547 1.15318
 C286 C 0.31650 0.18039 1.12822
 N287 N 0.32257 0.19606 1.12197
 C288 C 0.33708 0.20022 1.13057
 H289 H 0.37047 0.20788 1.15241
 H290 H 0.37156 0.16324 1.18577
 H291 H 0.34471 0.13627 1.18254
 H292 H 0.30520 0.14320 1.14558
 H293 H 0.30509 0.17361 1.12390
 H294 H 0.34475 0.21199 1.12838
 C295 C 0.88391 0.64524 1.12625
 C296 C 0.86990 0.64658 1.11517
 C297 C 0.85584 0.63542 1.11726
 C298 C 0.85579 0.62254 1.13040
 C299 C 0.86965 0.62125 1.14140
 C300 C 0.88377 0.63279 1.13940
 C301 C 0.89839 0.65547 1.12807
 N302 N 0.90697 0.64973 1.14213
 C303 C 0.89821 0.63576 1.14914
 C304 C 0.86570 0.60827 1.15337
 N305 N 0.84988 0.60157 1.14986
 C306 C 0.84367 0.61031 1.13587
 C307 C 0.84355 0.64088 1.10574
 N308 N 0.84992 0.65508 1.09683
 C309 C 0.86604 0.65853 1.10245
 H310 H 0.90196 0.66687 1.12028
 H311 H 0.90169 0.62864 1.16074
 H312 H 0.87368 0.60407 1.16399
 H313 H 0.83119 0.60823 1.13016
 H314 H 0.83080 0.63522 1.10439
 H315 H 0.87406 0.66948 1.09812
 C316 C 0.85046 0.17705 0.67028
 C317 C 0.83726 0.17912 0.65833
 C318 C 0.82409 0.16678 0.65732
 C319 C 0.82414 0.15195 0.66845
 C320 C 0.83730 0.15007 0.68024
 C321 C 0.85046 0.16263 0.68114
 C322 C 0.86431 0.18743 0.67453
 N323 N 0.87271 0.17955 0.68782
 C324 C 0.86432 0.16434 0.69186
 C325 C 0.83401 0.13521 0.68986
 N326 N 0.81927 0.12773 0.68430
 C327 C 0.81302 0.13781 0.67118
 C328 C 0.81291 0.17285 0.64485
 N329 N 0.81915 0.18844 0.63846
 C330 C 0.83398 0.19225 0.64665
 H331 H 0.86764 0.19989 0.66852
 H332 H 0.86783 0.15534 0.70214
 H333 H 0.84172 0.13024 0.70037
 H334 H 0.80114 0.13536 0.66443
 H335 H 0.80114 0.16645 0.64090
 H336 H 0.84176 0.20394 0.64439
 C337 C 0.31890 0.33080 0.67664
 C338 C 0.31708 0.31726 0.66473
 C339 C 0.32799 0.30305 0.66533
 C340 C 0.34088 0.30218 0.67779
 C341 C 0.34270 0.31554 0.68949
 C342 C 0.33165 0.32994 0.68891
 C343 C 0.31007 0.34611 0.67923
 N344 N 0.31719 0.35452 0.69280
 C345 C 0.33040 0.34473 0.69874
 C346 C 0.35608 0.31118 0.70013
 N347 N 0.36242 0.29546 0.69515
 C348 C 0.35319 0.28989 0.68149
 C349 C 0.32318 0.29191 0.65243
 N350 N 0.30968 0.29900 0.64398
 C351 C 0.30582 0.31453 0.65143
 H352 H 0.29935 0.35071 0.67169
 H353 H 0.33847 0.34813 0.70950
 H354 H 0.36067 0.31894 0.71071
 H355 H 0.35526 0.27773 0.67479
 H356 H 0.32907 0.27952 0.64938
 H357 H 0.29557 0.32321 0.64767
 C358 C 0.35196 0.84429 0.15510
 C359 C 0.35145 0.83165 0.14197
 C360 C 0.36308 0.81800 0.14218
 C361 C 0.37528 0.81669 0.15524
 C362 C 0.37579 0.82902 0.16806
 C363 C 0.36410 0.84287 0.16800
 C364 C 0.34227 0.85896 0.15875
 N365 N 0.34835 0.86626 0.17347
 C366 C 0.36164 0.85647 0.17912
 C367 C 0.38876 0.82435 0.17910
 N368 N 0.39611 0.80943 0.17322
 C369 C 0.38792 0.80467 0.15864
 C370 C 0.35968 0.80756 0.12837
 N371 N 0.34629 0.81437 0.11961
 C372 C 0.34109 0.82915 0.12779
 H373 H 0.33155 0.86373 0.15132
 H374 H 0.36895 0.85902 0.19065
 H375 H 0.39239 0.83136 0.19055
 H376 H 0.39092 0.79324 0.15109
 H377 H 0.36642 0.79571 0.12496
 H378 H 0.33050 0.83737 0.12393
 C379 C 0.84781 0.32992 0.14950
 C380 C 0.84621 0.31577 0.13836
 C381 C 0.85687 0.30144 0.14000
 C382 C 0.86942 0.30119 0.15299
 C383 C 0.87092 0.31527 0.16396
 C384 C 0.86007 0.32970 0.16221
 C385 C 0.83864 0.34512 0.15124
 N386 N 0.84507 0.35414 0.16476
 C387 C 0.85820 0.34479 0.17152
 C388 C 0.88367 0.31152 0.17550
 N389 N 0.89006 0.29545 0.17194
 C390 C 0.88146 0.28905 0.15816
 C391 C 0.85182 0.28960 0.12766
 N392 N 0.83846 0.29648 0.11869
 C393 C 0.83498 0.31249 0.12525
 H394 H 0.82784 0.34895 0.14343
 H395 H 0.86558 0.34853 0.18267
 H396 H 0.88789 0.32006 0.18564
 H397 H 0.88371 0.27642 0.15243
 H398 H 0.85731 0.27684 0.12548
 H399 H 0.82486 0.32116 0.12116
 C400 C 0.83544 0.84800 0.63929
 C401 C 0.83764 0.83571 0.62624
 C402 C 0.85128 0.82431 0.62673
 C403 C 0.86296 0.82509 0.64030
 C404 C 0.86090 0.83720 0.65336
 C405 C 0.84690 0.84888 0.65283
 C406 C 0.82305 0.86037 0.64191
 N407 N 0.82649 0.86893 0.65667
 C408 C 0.84107 0.86205 0.66355
 C409 C 0.87420 0.83444 0.66482
 N410 N 0.88404 0.82105 0.65885
 C411 C 0.87722 0.81536 0.64392
 C412 C 0.84988 0.81352 0.61270
 N413 N 0.83573 0.81818 0.60372
 C414 C 0.82813 0.83178 0.61195
 H415 H 0.81218 0.86295 0.63367
 H416 H 0.84696 0.86613 0.67544
 H417 H 0.87644 0.84162 0.67654
 H418 H 0.88227 0.80475 0.63625
 H419 H 0.85841 0.80289 0.60938
 H420 H 0.81634 0.83814 0.60819
 C421 C 0.66487 0.65493 0.63121
 C422 C 0.66518 0.66583 0.61652
 C423 C 0.65334 0.67913 0.61495
 C424 C 0.64092 0.68163 0.62810
 C425 C 0.64055 0.67081 0.64264
 C426 C 0.65267 0.65734 0.64424
 C427 C 0.67532 0.64149 0.63632
 N428 N 0.66984 0.63560 0.65213
 C429 C 0.65594 0.64520 0.65713
 C430 C 0.62744 0.67658 0.65335
 N431 N 0.61988 0.69059 0.64562
 C432 C 0.62812 0.69379 0.63024
 C433 C 0.65721 0.68803 0.59972
 N434 N 0.67113 0.68037 0.59210
 C435 C 0.67602 0.66679 0.60227
 H436 H 0.68634 0.63650 0.62916
 H437 H 0.64890 0.64380 0.66930
 H438 H 0.62398 0.67110 0.66594
 H439 H 0.62503 0.70428 0.62128
 H440 H 0.65051 0.69936 0.59482
 H441 H 0.68697 0.65845 0.59966
 C442 C 0.65967 0.13280 0.15756
 C443 C 0.65758 0.14576 0.14489
 C444 C 0.64565 0.15893 0.14721
 C445 C 0.63531 0.15897 0.16247
 C446 C 0.63742 0.14598 0.17496
 C447 C 0.64974 0.13291 0.17254
 C448 C 0.67113 0.11929 0.15898
 N449 N 0.66851 0.11124 0.17455
 C450 C 0.65533 0.11941 0.18295
 C451 C 0.62613 0.14921 0.18840
 N452 N 0.61704 0.16375 0.18453
 C453 C 0.62257 0.16991 0.16870
 C454 C 0.64736 0.17004 0.13291
 N455 N 0.65994 0.16365 0.12223
 C456 C 0.66611 0.14884 0.12948
 H457 H 0.68113 0.11596 0.14964
 H458 H 0.65045 0.11623 0.19583
 H459 H 0.62458 0.14150 0.20020
 H460 H 0.61778 0.18142 0.16214
 H461 H 0.64010 0.18183 0.13057
 H462 H 0.67642 0.14103 0.12403
 C463 C 0.18966 0.64091 0.15353
 C464 C 0.19106 0.65273 0.13939
 C465 C 0.17823 0.66491 0.13680
 C466 C 0.16395 0.66555 0.14811
 C467 C 0.16259 0.65407 0.16201
 C468 C 0.17550 0.64170 0.16474
 C469 C 0.20002 0.62764 0.15961
 N470 N 0.19241 0.62052 0.17416
 C471 C 0.17750 0.62911 0.17737
 C472 C 0.14756 0.65790 0.17092
 N473 N 0.13984 0.67148 0.16267
 C474 C 0.14977 0.67619 0.14871
 C475 C 0.18283 0.67486 0.12253
 N476 N 0.19826 0.66919 0.11624
 C477 C 0.20337 0.65560 0.12643
 H478 H 0.21223 0.62369 0.15396
 H479 H 0.16871 0.62636 0.18816
 H480 H 0.14275 0.65125 0.18251
 H481 H 0.14692 0.68673 0.13972
 H482 H 0.17534 0.68548 0.11729
 H483 H 0.21527 0.64846 0.12465
 C484 C 0.12435 0.13363 0.64605
 C485 C 0.12320 0.14671 0.63328
 C486 C 0.11328 0.16140 0.63617
 C487 C 0.10406 0.16297 0.65192
 C488 C 0.10509 0.14988 0.66442
 C489 C 0.11536 0.13522 0.66152
 C490 C 0.13485 0.11931 0.64760
 N491 N 0.13253 0.11225 0.66368
 C492 C 0.12051 0.12184 0.67227
 C493 C 0.09590 0.15520 0.67871
 N494 N 0.08924 0.17117 0.67531
 C495 C 0.09418 0.17612 0.65894
 C496 C 0.11624 0.17267 0.62228
 N497 N 0.12765 0.16504 0.61118
 C498 C 0.13185 0.14918 0.61779
 H499 H 0.14431 0.11500 0.63812
 H500 H 0.11651 0.12006 0.68566
 H501 H 0.09440 0.14810 0.69089
 H502 H 0.09106 0.18837 0.65264
 H503 H 0.11095 0.18562 0.62075
 H504 H 0.14125 0.14045 0.61211
 C505 C 0.35000 0.63438 0.34307
 C506 C 0.35158 0.64803 0.35498
 C507 C 0.36662 0.65791 0.35516
 C508 C 0.38021 0.65437 0.34361
 C509 C 0.37869 0.64103 0.33187
 C510 C 0.36348 0.63095 0.33159
 C511 C 0.33682 0.62284 0.33947
 N512 N 0.34195 0.61257 0.32615
 C513 C 0.35826 0.61747 0.32124
 C514 C 0.39347 0.64138 0.32165
 N515 N 0.40384 0.65458 0.32699
 C516 C 0.39578 0.66259 0.34044
 C517 C 0.36448 0.67068 0.36729
 N518 N 0.34854 0.66887 0.37463
 C519 C 0.34048 0.65503 0.36720
 H520 H 0.32431 0.62205 0.34597
 H521 H 0.36588 0.61180 0.31092
 H522 H 0.39625 0.63302 0.31077
 H523 H 0.40042 0.67404 0.34704
 H524 H 0.37378 0.68076 0.37041
 H525 H 0.32743 0.65056 0.37008
 C526 C 0.31763 0.11967 0.87943
 C527 C 0.31952 0.13233 0.89216
 C528 C 0.33370 0.14346 0.89171
 C529 C 0.34633 0.14188 0.87858
 C530 C 0.34448 0.12936 0.86598
 C531 C 0.32993 0.11825 0.86632
 C532 C 0.30413 0.10870 0.87562
 N533 N 0.30779 0.10080 0.86043
 C534 C 0.32362 0.10645 0.85466
 C535 C 0.35778 0.13188 0.85411
 N536 N 0.36764 0.14558 0.85918
 C537 C 0.36070 0.15181 0.87414
 C538 C 0.33094 0.15586 0.90418
 N539 N 0.31539 0.15248 0.91207
 C540 C 0.30843 0.13804 0.90489
 H541 H 0.29207 0.10731 0.88284
 H542 H 0.32985 0.10281 0.84261
 H543 H 0.35985 0.12462 0.84233
 H544 H 0.36533 0.16301 0.88113
 H545 H 0.33928 0.16694 0.90662
 H546 H 0.29569 0.13278 0.90795
 C547 C 0.83230 0.65031 0.84241
 C548 C 0.83399 0.66085 0.85700
 C549 C 0.84834 0.67154 0.85846
 C550 C 0.86109 0.67200 0.84539
 C551 C 0.85947 0.66174 0.83091
 C552 C 0.84492 0.65073 0.82944
 C553 C 0.81964 0.63878 0.83749
 N554 N 0.82424 0.63213 0.82186
 C555 C 0.83966 0.63937 0.81685
 C556 C 0.87352 0.66553 0.82017
 N557 N 0.88348 0.67783 0.82791
 C558 C 0.87595 0.68176 0.84332
 C559 C 0.84645 0.68065 0.87354
 N560 N 0.83126 0.67586 0.88128
 C561 C 0.82350 0.66368 0.87130
 H562 H 0.80801 0.63557 0.84487
 H563 H 0.84652 0.63658 0.80488
 H564 H 0.87606 0.65995 0.80760
 H565 H 0.88080 0.69135 0.85224
 H566 H 0.85533 0.69036 0.87838
 H567 H 0.81112 0.65747 0.87402
 C568 C 0.82089 0.15721 0.36902
 C569 C 0.81965 0.17000 0.38171
 C570 C 0.83258 0.18245 0.38327
 C571 C 0.84706 0.18215 0.37197
 C572 C 0.84825 0.16945 0.35940
 C573 C 0.83504 0.15691 0.35788
 C574 C 0.81010 0.14371 0.36468
 N575 N 0.81726 0.13520 0.35111
 C576 C 0.83258 0.14315 0.34681
 C577 C 0.86344 0.17236 0.35025
 N578 N 0.87157 0.18652 0.35692
 C579 C 0.86163 0.19258 0.37018
 C580 C 0.82757 0.19328 0.39659
 N581 N 0.81195 0.18757 0.40298
 C582 C 0.80710 0.17338 0.39393
 H583 H 0.79785 0.14032 0.37089
 H584 H 0.84135 0.13924 0.33655
 H585 H 0.86802 0.16471 0.33947
 H586 H 0.86476 0.20383 0.37792
 H587 H 0.83470 0.20452 0.40105
 H588 H 0.79515 0.16610 0.39603
 C589 C 0.67291 0.35687 0.34634
 C590 C 0.66918 0.34642 0.36107
 C591 C 0.65429 0.33620 0.36183
 C592 C 0.64287 0.33634 0.34786
 C593 C 0.64656 0.34677 0.33349
 C594 C 0.66162 0.35700 0.33272
 C595 C 0.68656 0.36781 0.34166
 N596 N 0.68376 0.37441 0.32554
 C597 C 0.66845 0.36789 0.32005
 C598 C 0.63365 0.34429 0.32184
 N599 N 0.62214 0.33251 0.32863
 C600 C 0.62762 0.32753 0.34461
 C601 C 0.65427 0.32723 0.37742
 N602 N 0.66868 0.33177 0.38614
 C603 C 0.67790 0.34350 0.37619
 H604 H 0.69779 0.37061 0.34932
 H605 H 0.66253 0.37073 0.30779
 H606 H 0.63278 0.35043 0.30917
 H607 H 0.62114 0.31822 0.35323
 H608 H 0.64454 0.31796 0.38208
 H609 H 0.69015 0.34935 0.37947
 C610 C 0.66486 0.84510 0.84668
 C611 C 0.66312 0.83314 0.86052
 C612 C 0.65019 0.82059 0.86050
 C613 C 0.63884 0.81978 0.84664
 C614 C 0.64051 0.83155 0.83291
 C615 C 0.65369 0.84436 0.83292
 C616 C 0.67649 0.85842 0.84324
 N617 N 0.67279 0.86585 0.82774
 C618 C 0.65882 0.85735 0.82128
 C619 C 0.62792 0.82731 0.82124
 N620 N 0.61874 0.81328 0.82764
 C621 C 0.62539 0.80863 0.84312
 C622 C 0.65188 0.81051 0.87525
 N623 N 0.66556 0.81659 0.88415
 C624 C 0.67251 0.83051 0.87525
 H625 H 0.68704 0.86236 0.85138
 H626 H 0.65282 0.86024 0.80906
 H627 H 0.62584 0.83386 0.80896
 H628 H 0.62081 0.79779 0.85120
 H629 H 0.64393 0.79933 0.87909
 H630 H 0.68363 0.83812 0.87899
 C631 C 0.14399 0.38639 0.86133
 C632 C 0.14480 0.37171 0.87237
 C633 C 0.13135 0.35967 0.87297
 C634 C 0.11695 0.36208 0.86252
 C635 C 0.11611 0.37660 0.85172
 C636 C 0.12970 0.38883 0.85114
 C637 C 0.15594 0.39912 0.85663
 N638 N 0.14920 0.40915 0.84379
 C639 C 0.13314 0.40300 0.84046
 C640 C 0.10172 0.37462 0.84177
 N641 N 0.09388 0.35921 0.84615
 C642 C 0.10306 0.35148 0.85895
 C643 C 0.13622 0.34611 0.88361
 N644 N 0.15225 0.34961 0.88951
 C645 C 0.15765 0.36525 0.88267
 H646 H 0.16879 0.40039 0.86171
 H647 H 0.12495 0.40792 0.83032
 H648 H 0.09776 0.38327 0.83139
 H649 H 0.10040 0.33876 0.86474
 H650 H 0.12883 0.33430 0.88652
 H651 H 0.17010 0.37136 0.88459
 C652 C 0.17221 0.84857 0.32767
 C653 C 0.17190 0.83629 0.34151
 C654 C 0.15783 0.82509 0.34365
 C655 C 0.14409 0.82580 0.33222
 C656 C 0.14442 0.83767 0.31862
 C657 C 0.15852 0.84914 0.31636
 C658 C 0.18407 0.86109 0.32188
 N659 N 0.17777 0.86909 0.30746
 C660 C 0.16222 0.86178 0.30405
 C661 C 0.12977 0.83480 0.30918
 N662 N 0.12065 0.82140 0.31682
 C663 C 0.12929 0.81591 0.33095
 C664 C 0.16090 0.81427 0.35750
 N665 N 0.17648 0.81842 0.36401
 C666 C 0.18340 0.83192 0.35437
 H667 H 0.19634 0.86399 0.32771
 H668 H 0.15418 0.86542 0.29328
 H669 H 0.12627 0.84179 0.29752
 H670 H 0.12530 0.80514 0.33942
 H671 H 0.15247 0.80387 0.36239
 H672 H 0.19589 0.83797 0.35631
 O673 O 0.26308 1.01068 0.25959
 O674 O 0.28785 0.97781 0.23430
 O675 O 0.28865 1.01201 0.23695
 O676 O 0.26582 0.97666 0.26018
 O677 O 0.24574 0.97602 0.24028
 O678 O 0.26833 1.01319 0.21731
 O679 O 0.26789 0.97897 0.21430
 O680 O 0.24295 1.00998 0.23973
 Cu681 Cu 0.27835 0.99430 0.24965
 Cu682 Cu 0.25431 0.99452 0.22592
 C683 C 0.24862 1.01578 0.25380
 C684 C 0.28185 0.97281 0.21991
 C685 C 0.28243 1.01890 0.22348
 C686 C 0.25207 0.97018 0.25433
 O687 O 0.22761 0.48442 0.75537
 O688 O 0.24854 0.50935 0.71971
 O689 O 0.24408 0.47617 0.72693
 O690 O 0.23258 0.51735 0.74845
 O691 O 0.25717 0.51671 0.76245
 O692 O 0.26865 0.47575 0.74097
 O693 O 0.27316 0.50883 0.73366
 O694 O 0.25219 0.48370 0.76940
 Cu695 Cu 0.23574 0.49685 0.73617
 Cu696 Cu 0.26529 0.49620 0.75298
 C697 C 0.23624 0.47991 0.76848
 C698 C 0.26440 0.51339 0.72063
 C699 C 0.25834 0.46895 0.73034
 C700 C 0.24289 0.52395 0.75922
 O701 O 0.75787 -0.01000 0.24273
 O702 O 0.78035 0.02833 0.26017
 O703 O 0.78467 -0.00538 0.26222
 O704 O 0.75274 0.02357 0.24184
 O705 O 0.73635 0.02168 0.26553
 O706 O 0.76807 -0.00681 0.28580
 O707 O 0.76375 0.02664 0.28372
 O708 O 0.74142 -0.01181 0.26637
 Cu709 Cu 0.77057 0.00930 0.24934
 Cu710 Cu 0.75075 0.00723 0.27772
 C711 C 0.74578 -0.01737 0.25152
 C712 C 0.77590 0.03398 0.27494
 C713 C 0.78174 -0.01091 0.27761
 C714 C 0.73909 0.02748 0.25027
 O715 O 0.72565 0.50182 0.73395
 O716 O 0.74602 0.53568 0.75998
 O717 O 0.74500 0.50157 0.76118
 O718 O 0.72410 0.53587 0.73474
 O719 O 0.70176 0.53520 0.75296
 O720 O 0.72238 0.50126 0.77905
 O721 O 0.72369 0.53531 0.77818
 O722 O 0.70306 0.50112 0.75185
 Cu723 Cu 0.73743 0.51881 0.74567
 Cu724 Cu 0.71048 0.51819 0.76728
 C725 C 0.71098 0.49563 0.73842
 C726 C 0.73847 0.54128 0.77348
 C727 C 0.73711 0.49559 0.77465
 C728 C 0.70929 0.54134 0.73948
 O729 O 0.26981 0.47600 0.26856
 O730 O 0.24777 0.51022 0.24262
 O731 O 0.24184 0.47698 0.24997
 O732 O 0.27279 0.50975 0.26452
 O733 O 0.29015 0.50444 0.24226
 O734 O 0.25871 0.47103 0.22750
 O735 O 0.26490 0.50408 0.22040
 O736 O 0.28660 0.47060 0.24588
 Cu737 Cu 0.25631 0.49373 0.25859
 Cu738 Cu 0.27673 0.48697 0.23180
 C739 C 0.28212 0.46758 0.26147
 C740 C 0.25289 0.51302 0.22703
 C741 C 0.24488 0.46836 0.23640
 C742 C 0.28667 0.51281 0.25602
 O743 O 0.73617 1.00454 0.75617
 O744 O 0.76660 0.97394 0.73677
 O745 O 0.76132 1.00774 0.73375
 O746 O 0.73869 0.97065 0.75628
 O747 O 0.72170 0.96812 0.73380
 O748 O 0.74440 1.00423 0.71135
 O749 O 0.74960 0.97052 0.71443
 O750 O 0.71896 1.00213 0.73386
 Cu751 Cu 0.75245 0.98944 0.74790
 Cu752 Cu 0.73201 0.98593 0.72113
 C753 C 0.72250 1.00873 0.74843
 C754 C 0.76335 0.96687 0.72247
 C755 C 0.75644 1.01239 0.71872
 C756 C 0.72616 0.96321 0.74876
 O757 O 0.73224 0.46334 0.21907
 O758 O 0.75493 0.49774 0.19360
 O759 O 0.75555 0.46371 0.19441
 O760 O 0.73143 0.49726 0.21808
 O761 O 0.75188 0.49819 0.23761
 O762 O 0.77588 0.46442 0.21407
 O763 O 0.77542 0.49854 0.21309
 O764 O 0.75250 0.46429 0.23880
 Cu765 Cu 0.74150 0.48042 0.20430
 Cu766 Cu 0.76602 0.48144 0.22783
 C767 C 0.73840 0.45806 0.23330
 C768 C 0.76901 0.50403 0.19902
 C769 C 0.76976 0.45829 0.20024
 C770 C 0.73751 0.50340 0.23189
 O771 O 0.22472 -0.00761 0.77929
 O772 O 0.19699 0.02525 0.75938
 O773 O 0.19928 -0.00871 0.75796
 O774 O 0.22373 0.02611 0.77968
 O775 O 0.24127 0.02848 0.75685
 O776 O 0.21762 -0.00668 0.73576
 O777 O 0.21463 0.02698 0.73660
 O778 O 0.24308 -0.00538 0.75709
 Cu779 Cu 0.20931 0.00865 0.77131
 Cu780 Cu 0.23094 0.01112 0.74430
 C781 C 0.23864 -0.01200 0.77172
 C782 C 0.20089 0.03150 0.74452
 C783 C 0.20448 -0.01370 0.74315
 C784 C 0.23684 0.03299 0.77199
 O785 O 0.24781 0.29387 0.98177
 O786 O 0.26245 0.26807 1.01936
 O787 O 0.26871 0.26768 0.98621
 O788 O 0.24266 0.29510 1.01500
 O789 O 0.22041 0.27705 1.01252
 O790 O 0.24666 0.24937 0.98391
 O791 O 0.24013 0.25013 1.01685
 O792 O 0.22577 0.27559 0.97930
 Cu793 Cu 0.25765 0.28300 1.00083
 Cu794 Cu 0.23100 0.26123 0.99781
 C795 C 0.23413 0.28914 0.97425
 C796 C 0.25378 0.25468 1.02444
 C797 C 0.26222 0.25374 0.98035
 C798 C 0.22715 0.29080 1.01865
 O799 O 0.26256 0.77359 0.46993
 O800 O 0.28340 0.75106 0.50543
 O801 O 0.28199 0.74615 0.47222
 O802 O 0.25693 0.77267 0.50401
 O803 O 0.23660 0.75221 0.50417
 O804 O 0.26111 0.72626 0.47383
 O805 O 0.26260 0.73109 0.50695
 O806 O 0.24140 0.75403 0.47021
 Cu807 Cu 0.27295 0.76281 0.48799
 Cu808 Cu 0.24848 0.73925 0.48870
 C809 C 0.24863 0.76783 0.46384
 C810 C 0.27684 0.73739 0.51233
 C811 C 0.27553 0.73149 0.46773
 C812 C 0.24233 0.76665 0.50945
 O813 O 0.28491 0.75942 -0.02606
 O814 O 0.25790 0.73837 0.00787
 O815 O 0.25758 0.73906 -0.02605
 O816 O 0.28262 0.76169 0.00782
 O817 O 0.26468 0.78390 0.00617
 O818 O 0.23962 0.76132 -0.02643
 O819 O 0.23995 0.76062 0.00730
 O820 O 0.26688 0.78156 -0.02746
 Cu821 Cu 0.27256 0.74745 -0.00903
 Cu822 Cu 0.25102 0.77403 -0.01022
 C823 C 0.28053 0.77392 -0.03266
 C824 C 0.24446 0.74589 0.01352
 C825 C 0.24420 0.74653 -0.03191
 C826 C 0.27770 0.77671 0.01277
 O827 O 0.25174 0.24959 0.50123
 O828 O 0.21451 0.23322 0.52701
 O829 O 0.22412 0.23161 0.49474
 O830 O 0.24209 0.25161 0.53356
 O831 O 0.22798 0.27596 0.52798
 O832 O 0.20976 0.25581 0.48926
 O833 O 0.20037 0.25762 0.52181
 O834 O 0.23761 0.27392 0.49565
 Cu835 Cu 0.23452 0.23907 0.51474
 Cu836 Cu 0.21751 0.26828 0.50808
 C837 C 0.25100 0.26455 0.49401
 C838 C 0.20113 0.24254 0.52880
 C839 C 0.21387 0.24030 0.48539
 C840 C 0.23815 0.26721 0.53735
 O841 O 0.75398 0.77068 0.98782
 O842 O 0.77353 0.74089 1.01960
 O843 O 0.77088 0.74161 0.98634
 O844 O 0.75727 0.77061 1.02132
 O845 O 0.73253 0.75612 1.02394
 O846 O 0.74634 0.72675 0.98887
 O847 O 0.74885 0.72632 1.02242
 O848 O 0.72943 0.75584 0.99045
 Cu849 Cu 0.76637 0.75746 1.00357
 Cu850 Cu 0.73679 0.73981 1.00677
 C851 C 0.73839 0.76819 0.98360
 C852 C 0.76459 0.72839 1.02622
 C853 C 0.76105 0.72924 0.98165
 C854 C 0.74255 0.76842 1.02851
 O855 O 0.74232 0.25435 0.50494
 O856 O 0.71567 0.27785 0.53749
 O857 O 0.71957 0.27918 0.50365
 O858 O 0.73581 0.25067 0.53812
 O859 O 0.75748 0.26902 0.54231
 O860 O 0.74132 0.29760 0.50707
 O861 O 0.73737 0.29637 0.54084
 O862 O 0.76383 0.27285 0.50935
 Cu863 Cu 0.72617 0.26371 0.52068
 Cu864 Cu 0.75206 0.28584 0.52536
 C865 C 0.75768 0.25974 0.50167
 C866 C 0.72218 0.29120 0.54469
 C867 C 0.72773 0.29304 0.49921
 C868 C 0.74939 0.25483 0.54603
 O869 O 0.72767 0.22992 0.01818
 O870 O 0.75665 0.24877 -0.01603
 O871 O 0.75601 0.24873 0.01782
 O872 O 0.72978 0.22801 -0.01553
 O873 O 0.71315 0.25126 -0.01679
 O874 O 0.73982 0.27229 0.01641
 O875 O 0.73999 0.27200 -0.01733
 O876 O 0.71152 0.25352 0.01695
 Cu877 Cu 0.74415 0.23651 0.00126
 Cu878 Cu 0.72449 0.26459 -0.00031
 C879 C 0.71468 0.23860 0.02342
 C880 C 0.75312 0.26364 -0.02257
 C881 C 0.75245 0.26404 0.02278
 C882 C 0.71708 0.23605 -0.02191
 O883 O 0.78036 0.75831 0.46173
 O884 O 0.74648 0.74067 0.49109
 O885 O 0.75368 0.73772 0.45836
 O886 O 0.77303 0.76130 0.49448
 O887 O 0.75652 0.78404 0.48897
 O888 O 0.73745 0.76061 0.45264
 O889 O 0.73003 0.76343 0.48550
 O890 O 0.76418 0.78130 0.45631
 Cu891 Cu 0.76503 0.74719 0.47696
 Cu892 Cu 0.74539 0.77464 0.47021
 C893 C 0.77812 0.77291 0.45417
 C894 C 0.73253 0.74900 0.49334
 C895 C 0.74219 0.74514 0.44941
 C896 C 0.76805 0.77668 0.49788
 O897 O 1.02131 0.26710 0.27697
 O898 O 0.98739 0.23933 0.29711
 O899 O 1.02118 0.24060 0.29849
 O900 O 0.98800 0.26377 0.27336
 O901 O 0.99100 0.24455 0.25248
 O902 O 1.02422 0.22174 0.27731
 O903 O 0.99031 0.22013 0.27622
 O904 O 1.02432 0.24833 0.25570
 Cu905 Cu 1.00418 0.25454 0.28860
 Cu906 Cu 1.00781 0.23176 0.26338
 C907 C 1.02857 0.26256 0.26293
 C908 C 0.98286 0.22517 0.29007
 C909 C 1.02849 0.22731 0.29202
 C910 C 0.98379 0.25798 0.25866
 O911 O 0.50301 0.25818 0.77811
 O912 O 0.47201 0.23650 0.80846
 O913 O 0.50552 0.23694 0.80458
 O914 O 0.46976 0.25884 0.78297
 O915 O 0.46737 0.23680 0.76496
 O916 O 0.50346 0.21478 0.78669
 O917 O 0.46983 0.21440 0.79053
 O918 O 0.50072 0.23599 0.76029
 Cu919 Cu 0.48782 0.24981 0.79534
 Cu920 Cu 0.48511 0.22323 0.77386
 C921 C 0.50709 0.25076 0.76401
 C922 C 0.46557 0.22177 0.80457
 C923 C 0.51068 0.22224 0.79931
 C924 C 0.46249 0.25165 0.77031
 O925 O -0.02952 0.28603 0.77004
 O926 O 0.00542 0.26969 0.74185
 O927 O -0.02805 0.26863 0.74148
 O928 O 0.00397 0.28741 0.77056
 O929 O 0.00417 0.26278 0.78584
 O930 O -0.02794 0.24399 0.75676
 O931 O 0.00552 0.24509 0.75716
 O932 O -0.02942 0.26141 0.78535
 Cu933 Cu -0.01199 0.28045 0.75448
 Cu934 Cu -0.01184 0.25084 0.77283
 C935 C -0.03548 0.27650 0.78243
 C936 C 0.01125 0.25447 0.74457
 C937 C -0.03345 0.25311 0.74418
 C938 C 0.00940 0.27839 0.78323
 O939 O 0.51443 0.24733 0.28490
 O940 O 0.48152 0.22419 0.26096
 O941 O 0.51465 0.22750 0.25811
 O942 O 0.48018 0.25041 0.28326
 O943 O 0.48107 0.27157 0.26354
 O944 O 0.51417 0.24904 0.23879
 O945 O 0.48061 0.24575 0.24166
 O946 O 0.51468 0.26917 0.26584
 Cu947 Cu 0.49742 0.23567 0.27376
 Cu948 Cu 0.49762 0.26095 0.25060
 C949 C 0.52033 0.26198 0.27961
 C950 C 0.47538 0.23081 0.24733
 C951 C 0.52017 0.23462 0.24398
 C952 C 0.47483 0.26505 0.27744
 O953 O 1.02357 0.73165 0.74093
 O954 O 0.98936 0.75953 0.72301
 O955 O 1.02307 0.75962 0.72141
 O956 O 0.98986 0.73030 0.74068
 O957 O 0.98969 0.74578 0.76459
 O958 O 1.02288 0.77545 0.74509
 O959 O 0.98913 0.77504 0.74689
 O960 O 1.02349 0.74744 0.76463
 Cu961 Cu 1.00647 0.74372 0.72914
 Cu962 Cu 1.00628 0.76248 0.75769
 C963 C 1.02946 0.73492 0.75579
 C964 C 0.98336 0.77200 0.73196
 C965 C 1.02871 0.77246 0.72993
 C966 C 0.98406 0.73304 0.75584
 O967 O 0.53725 0.77200 0.25372
 O968 O 0.50817 0.74686 0.28331
 O969 O 0.54143 0.74888 0.27837
 O970 O 0.50412 0.77081 0.25955
 O971 O 0.50211 0.75010 0.24002
 O972 O 0.53942 0.72787 0.25915
 O973 O 0.50617 0.72616 0.26378
 O974 O 0.53528 0.75102 0.23448
 Cu975 Cu 0.52297 0.76173 0.27069
 Cu976 Cu 0.52057 0.73669 0.24740
 C977 C 0.54113 0.76576 0.23901
 C978 C 0.50220 0.73222 0.27851
 C979 C 0.54670 0.73461 0.27210
 C980 C 0.49679 0.76426 0.24658
 O981 O 0.02684 0.73415 0.21286
 O982 O -0.00977 0.76157 0.22584
 O983 O 0.02355 0.76380 0.22840
 O984 O -0.00643 0.73149 0.21045
 O985 O -0.00804 0.71761 0.23571
 O986 O 0.02199 0.74983 0.25362
 O987 O -0.01128 0.74760 0.25106
 O988 O 0.02533 0.72015 0.23807
 Cu989 Cu 0.00863 0.74913 0.21682
 Cu990 Cu 0.00679 0.73239 0.24716
 C991 C 0.03236 0.72255 0.22324
 C992 C -0.01662 0.75939 0.24077
 C993 C 0.02790 0.76226 0.24410
 C994 C -0.01220 0.71897 0.21996
 O995 O 0.48030 0.77763 0.73877
 O996 O 0.51365 0.75433 0.71293
 O997 O 0.47999 0.75700 0.71213
 O998 O 0.51400 0.77812 0.73672
 O999 O 0.51353 0.75637 0.75586
 O1000 O 0.47878 0.73501 0.73098
 O1001 O 0.51225 0.73263 0.73212
 O1002 O 0.47981 0.75563 0.75762
 Cu1003 Cu 0.49705 0.76892 0.72326
 Cu1004 Cu 0.49597 0.74277 0.74602
 C1005 C 0.47445 0.77043 0.75269
 C1006 C 0.51860 0.73941 0.71835
 C1007 C 0.47355 0.74250 0.71722
 C1008 C 0.51968 0.77097 0.75032
 C1009 C 0.39008 0.30785 0.34466
 C1010 C 0.39943 0.31198 0.32951
 C1011 C 0.41308 0.30067 0.32243
 N1012 N 0.42186 0.30585 0.30788
 N1013 N 0.43430 0.29597 0.30121
 C1014 C 0.43849 0.28048 0.30880
 N1015 N 0.42969 0.27526 0.32338
 N1016 N 0.41722 0.28517 0.33008
 C1017 C 0.45229 0.26954 0.30127
 C1018 C 0.46128 0.27505 0.28634
 H1019 H 0.39698 0.32406 0.32261
 H1020 H 0.45527 0.25712 0.30737
 H1021 H 0.39291 0.29583 0.35159
 H1022 H 0.45805 0.28750 0.28043
 C1023 C 0.39271 0.83879 0.79741
 C1024 C 0.40122 0.82345 0.80204
 C1025 C 0.41500 0.81618 0.79095
 N1026 N 0.42265 0.80099 0.79558
 N1027 N 0.43501 0.79419 0.78559
 C1028 C 0.44020 0.80232 0.77058
 N1029 N 0.43258 0.81754 0.76597
 N1030 N 0.42021 0.82434 0.77596
 C1031 C 0.45371 0.79477 0.75935
 C1032 C 0.46129 0.77887 0.76356
 H1033 H 0.39773 0.81643 0.81385
 H1034 H 0.45757 0.80167 0.74754
 H1035 H 0.39660 0.84536 0.78541
 H1036 H 0.45725 0.77201 0.77534
 C1037 C -0.12280 0.33969 0.82307
 C1038 C -0.11493 0.32409 0.82809
 C1039 C -0.09946 0.31779 0.81880
 N1040 N -0.09279 0.30190 0.82273
 N1041 N -0.07908 0.29596 0.81401
 C1042 C -0.07154 0.30573 0.80106
 N1043 N -0.07813 0.32164 0.79723
 N1044 N -0.09182 0.32755 0.80592
 C1045 C -0.05672 0.29936 0.79090
 C1046 C -0.04965 0.28287 0.79351
 H1047 H -0.12034 0.31606 0.83850
 H1048 H -0.05146 0.30785 0.78073
 H1049 H -0.11702 0.34717 0.81239
 H1050 H -0.05480 0.27431 0.80368
 C1051 C -0.08962 0.81849 0.30749
 C1052 C -0.08217 0.82066 0.29098
 C1053 C -0.07129 0.80703 0.28332
 N1054 N -0.06436 0.80931 0.26718
 N1055 N -0.05406 0.79725 0.26037
 C1056 C -0.05034 0.78247 0.26948
 N1057 N -0.05733 0.78017 0.28558
 N1058 N -0.06763 0.79220 0.29236
 C1059 C -0.03831 0.76944 0.26265
 C1060 C -0.03055 0.77106 0.24629
 H1061 H -0.08404 0.83253 0.28352
 H1062 H -0.03489 0.75865 0.27111
 H1063 H -0.08770 0.80621 0.31435
 H1064 H -0.03413 0.78165 0.23766
 C1065 C 0.62760 0.65948 0.30566
 C1066 C 0.62113 0.67574 0.31035
 C1067 C 0.60707 0.68431 0.30108
 N1068 N 0.60170 0.70029 0.30616
 N1069 N 0.58907 0.70839 0.29791
 C1070 C 0.58134 0.70082 0.28424
 N1071 N 0.58670 0.68483 0.27914
 N1072 N 0.59936 0.67671 0.28740
 C1073 C 0.56726 0.70963 0.27517
 C1074 C 0.56133 0.72594 0.28029
 H1075 H 0.62661 0.68273 0.32101
 H1076 H 0.56126 0.70303 0.26449
 H1077 H 0.62198 0.65270 0.29488
 H1078 H 0.56729 0.73246 0.29104
 C1079 C 0.60262 0.15828 0.82570
 C1080 C 0.59350 0.17237 0.83253
 C1081 C 0.57753 0.17884 0.82476
 N1082 N 0.56966 0.19304 0.83148
 N1083 N 0.55540 0.19934 0.82443
 C1084 C 0.54846 0.19164 0.81040
 N1085 N 0.55627 0.17737 0.80372
 N1086 N 0.57056 0.17108 0.81077
 C1087 C 0.53297 0.19879 0.80222
 C1088 C 0.52533 0.21410 0.80801
 H1089 H 0.59816 0.17921 0.84367
 H1090 H 0.52784 0.19218 0.79110
 H1091 H 0.59748 0.15173 0.81454
 H1092 H 0.53063 0.22080 0.81900
 C1093 C 1.11922 0.69448 0.81563
 C1094 C 1.10950 0.68984 0.80126
 C1095 C 1.09431 0.69971 0.79558
 N1096 N 1.08609 0.69486 0.78103
 N1097 N 1.07247 0.70369 0.77546
 C1098 C 1.06653 0.71772 0.78426
 N1099 N 1.07471 0.72254 0.79887
 N1100 N 1.08835 0.71371 0.80443
 C1101 C 1.05168 0.72783 0.77807
 C1102 C 1.04353 0.72411 0.76257
 H1103 H 1.11309 0.67875 0.79354
 H1104 H 1.04739 0.73878 0.78571
 H1105 H 1.11527 0.70573 0.82306
 H1106 H 1.04795 0.71329 0.75481
 C1107 C 1.12016 0.16290 0.32095
 C1108 C 1.10984 0.17613 0.32791
 C1109 C 1.09450 0.18310 0.31928
 N1110 N 1.08531 0.19598 0.32695
 N1111 N 1.07161 0.20281 0.31928
 C1112 C 1.06656 0.19701 0.30362
 N1113 N 1.07572 0.18408 0.29596
 N1114 N 1.08944 0.17723 0.30364
 C1115 C 1.05174 0.20479 0.29474
 C1116 C 1.04229 0.21859 0.30168
 H1117 H 1.11298 0.18191 0.34013
 H1118 H 1.04853 0.19986 0.28211
 H1119 H 1.11640 0.15709 0.30886
 H1120 H 1.04551 0.22361 0.31426
 C1121 C 0.58027 0.32558 0.71082
 C1122 C 0.57395 0.30877 0.70786
 C1123 C 0.56132 0.30030 0.71983
 N1124 N 0.55534 0.28394 0.71667
 N1125 N 0.54412 0.27608 0.72760
 C1126 C 0.53849 0.28428 0.74211
 N1127 N 0.54446 0.30063 0.74525
 N1128 N 0.55565 0.30849 0.73433
 C1129 C 0.52623 0.27580 0.75442
 C1130 C 0.51933 0.25921 0.75167
 H1131 H 0.57849 0.30150 0.69681
 H1132 H 0.52252 0.28286 0.76594
 H1133 H 0.57544 0.33260 0.72196
 H1134 H 0.52287 0.25220 0.74007
 C1135 C 0.61581 0.84056 0.18835
 C1136 C 0.60555 0.82632 0.18369
 C1137 C 0.59300 0.81800 0.19576
 N1138 N 0.58473 0.80316 0.19107
 N1139 N 0.57396 0.79488 0.20210
 C1140 C 0.57106 0.80112 0.21825
 N1141 N 0.57921 0.81607 0.22290
 N1142 N 0.59003 0.82435 0.21187
 C1143 C 0.55958 0.79176 0.23066
 C1144 C 0.55245 0.77552 0.22683
 H1145 H 0.60721 0.82033 0.17121
 H1146 H 0.55699 0.79758 0.24313
 H1147 H 0.61346 0.84650 0.20082
 H1148 H 0.55527 0.76964 0.21443
 C1149 C 1.10372 0.31483 0.18988
 C1150 C 1.09969 0.31637 0.20749
 C1151 C 1.08693 0.30439 0.21598
 N1152 N 1.08109 0.30737 0.23234
 N1153 N 1.06936 0.29671 0.23988
 C1154 C 1.06309 0.28264 0.23135
 N1155 N 1.06904 0.27960 0.21507
 N1156 N 1.08070 0.29027 0.20754
 C1157 C 1.04997 0.27078 0.23928
 C1158 C 1.04204 0.27411 0.25521
 H1159 H 1.10550 0.32656 0.21507
 H1160 H 1.04617 0.25932 0.23215
 H1161 H 1.09703 0.30481 0.18273
 H1162 H 1.04559 0.28575 0.26219
 C1163 C 1.11442 0.81746 0.66308
 C1164 C 1.10543 0.82152 0.67835
 C1165 C 1.09093 0.81086 0.68537
 N1166 N 1.08332 0.81524 0.70065
 N1167 N 1.07025 0.80573 0.70734
 C1168 C 1.06428 0.79148 0.69896
 N1169 N 1.07185 0.78712 0.68365
 N1170 N 1.08494 0.79662 0.67697
 C1171 C 1.05001 0.78067 0.70627
 C1172 C 1.04229 0.78397 0.72236
 H1173 H 1.10919 0.83277 0.68573
 H1174 H 1.04573 0.76954 0.69891
 H1175 H 1.11072 0.80591 0.65604
 H1176 H 1.04663 0.79499 0.72985
 C1177 C 0.39631 0.67107 0.67020
 C1178 C 0.40176 0.68836 0.66771
 C1179 C 0.41500 0.69615 0.67882
 N1180 N 0.42082 0.71270 0.67568
 N1181 N 0.43280 0.71979 0.68566
 C1182 C 0.43937 0.71061 0.69919
 N1183 N 0.43350 0.69410 0.70236
 N1184 N 0.42156 0.68701 0.69237
 C1185 C 0.45270 0.71822 0.71028
 C1186 C 0.45991 0.73466 0.70677
 H1187 H 0.39634 0.69634 0.65754
 H1188 H 0.45714 0.71059 0.72122
 H1189 H 0.40216 0.66335 0.68036
 H1190 H 0.45562 0.74210 0.69564
 C1191 C 0.39083 0.19556 0.17878
 C1192 C 0.39886 0.18916 0.19353
 C1193 C 0.41348 0.19872 0.20111
 N1194 N 0.42099 0.19254 0.21566
 N1195 N 0.43394 0.20133 0.22277
 C1196 C 0.43987 0.21665 0.21561
 N1197 N 0.43239 0.22280 0.20105
 N1198 N 0.41947 0.21400 0.19394
 C1199 C 0.45392 0.22672 0.22355
 C1200 C 0.46197 0.22080 0.23845
 H1201 H 0.39415 0.17733 0.19992
 H1202 H 0.45780 0.23914 0.21769
 H1203 H 0.39577 0.20753 0.17276
 H1204 H 0.45807 0.20832 0.24416
 C1205 C -0.07823 0.65857 0.14878
 C1206 C -0.07332 0.65685 0.16598
 C1207 C -0.06059 0.66884 0.17340
 N1208 N -0.05747 0.66823 0.19062
 N1209 N -0.04672 0.67972 0.19762
 C1210 C -0.03873 0.69227 0.18765
 N1211 N -0.04174 0.69279 0.17043
 N1212 N -0.05248 0.68131 0.16344
 C1213 C -0.02725 0.70541 0.19514
 C1214 C -0.02376 0.70574 0.21274
 H1215 H -0.07990 0.64757 0.17457
 H1216 H -0.02142 0.71516 0.18649
 H1217 H -0.07184 0.66834 0.14055
 H1218 H -0.02932 0.69586 0.22141
 C1219 C -0.11337 0.18557 0.69650
 C1220 C -0.10537 0.20168 0.69281
 C1221 C -0.09130 0.20843 0.70340
 N1222 N -0.08474 0.22469 0.70017
 N1223 N -0.07236 0.23120 0.71001
 C1224 C -0.06609 0.22168 0.72343
 N1225 N -0.07256 0.20539 0.72659
 N1226 N -0.08495 0.19888 0.71677
 C1227 C -0.05275 0.22882 0.73467
 C1228 C -0.04630 0.24579 0.73252
 H1229 H -0.10975 0.20996 0.68237
 H1230 H -0.04815 0.22059 0.74510
 H1231 H -0.10853 0.17765 0.70708
 H1232 H -0.05088 0.25404 0.72210
 C1233 C 0.32482 0.39396 0.34020
 C1234 C 0.32756 0.39798 0.32271
 C1235 C 0.31774 0.41187 0.31398
 N1236 N 0.32038 0.41518 0.29684
 N1237 N 0.31129 0.42742 0.28873
 C1238 C 0.29918 0.43679 0.29742
 N1239 N 0.29656 0.43350 0.31458
 N1240 N 0.30565 0.42127 0.32269
 C1241 C 0.28897 0.45027 0.28852
 C1242 C 0.29162 0.45408 0.27099
 H1243 H 0.33659 0.39047 0.31505
 H1244 H 0.27935 0.45736 0.29589
 H1245 H 0.31556 0.40156 0.34752
 H1246 H 0.30141 0.44704 0.26380
 C1247 C 0.32021 -0.08735 0.80273
 C1248 C 0.30554 -0.07944 0.80976
 C1249 C 0.29556 -0.06635 0.80025
 N1250 N 0.28089 -0.06009 0.80758
 N1251 N 0.27129 -0.04861 0.79908
 C1252 C 0.27599 -0.04296 0.78291
 N1253 N 0.29074 -0.04915 0.77559
 N1254 N 0.30035 -0.06067 0.78410
 C1255 C 0.26528 -0.03041 0.77345
 C1256 C 0.24959 -0.02482 0.78040
 H1257 H 0.30064 -0.08318 0.82247
 H1258 H 0.26976 -0.02556 0.76089
 H1259 H 0.32498 -0.08299 0.79009
 H1260 H 0.24511 -0.02987 0.79288
 C1261 C 0.80297 0.41121 0.81837
 C1262 C 0.78716 0.41896 0.82238
 C1263 C 0.78051 0.43363 0.81196
 N1264 N 0.76500 0.44069 0.81608
 N1265 N 0.75870 0.45375 0.80658
 C1266 C 0.76767 0.46023 0.79258
 N1267 N 0.78320 0.45320 0.78848
 N1268 N 0.78950 0.44014 0.79799
 C1269 C 0.76072 0.47445 0.78179
 C1270 C 0.74473 0.48184 0.78548
 H1271 H 0.77925 0.41417 0.83314
 H1272 H 0.76824 0.47902 0.77062
 H1273 H 0.81054 0.41654 0.80755
 H1274 H 0.73729 0.47725 0.79669
 C1275 C 0.86066 -0.08854 0.30837
 C1276 C 0.84971 -0.07630 0.31596
 C1277 C 0.84028 -0.06314 0.30600
 N1278 N 0.82853 -0.05316 0.31437
 N1279 N 0.81874 -0.04207 0.30562
 C1280 C 0.82031 -0.04052 0.28814
 N1281 N 0.83229 -0.05030 0.27974
 N1282 N 0.84207 -0.06148 0.28852
 C1283 C 0.80875 -0.02896 0.27845
 C1284 C 0.79414 -0.02206 0.28650
 H1285 H 0.84696 -0.07683 0.32972
 H1286 H 0.81131 -0.02649 0.26479
 H1287 H 0.86430 -0.08691 0.29482
 H1288 H 0.79134 -0.02526 0.29998
 C1289 C 0.33459 0.58611 0.66229
 C1290 C 0.31825 0.57890 0.65978
 C1291 C 0.31133 0.56474 0.67104
 N1292 N 0.29463 0.55953 0.66968
 N1293 N 0.28782 0.54768 0.68069
 C1294 C 0.29748 0.54059 0.69345
 N1295 N 0.31425 0.54561 0.69465
 N1296 N 0.32104 0.55749 0.68367
 C1297 C 0.28989 0.52841 0.70642
 C1298 C 0.27247 0.52375 0.70646
 H1299 H 0.30970 0.58467 0.65044
 H1300 H 0.29806 0.52369 0.71668
 H1301 H 0.34282 0.58029 0.67195
 H1302 H 0.26431 0.52828 0.69611
 C1303 C 0.31444 1.11912 0.17021
 C1304 C 0.32061 1.10756 0.18279
 C1305 C 0.31146 1.09109 0.18756
 N1306 N 0.31826 1.08018 0.19957
 N1307 N 0.31009 1.06540 0.20426
 C1308 C 0.29479 1.06090 0.19713
 N1309 N 0.28800 1.07179 0.18507
 N1310 N 0.29619 1.08660 0.18036
 C1311 C 0.28540 1.04481 0.20276
 C1312 C 0.29196 1.03383 0.21556
 H1313 H 0.33243 1.11045 0.18943
 H1314 H 0.27291 1.04199 0.19733
 H1315 H 0.30269 1.11559 0.16365
 H1316 H 0.30439 1.03695 0.22100
 C1317 C 0.84157 0.58778 0.15981
 C1318 C 0.82594 0.58019 0.15505
 C1319 C 0.81757 0.56597 0.16522
 N1320 N 0.80252 0.55890 0.15981
 N1321 N 0.79473 0.54603 0.16886
 C1322 C 0.80173 0.53974 0.18367
 N1323 N 0.81679 0.54682 0.18908
 N1324 N 0.82458 0.55969 0.18003
 C1325 C 0.79322 0.52561 0.19385
 C1326 C 0.77779 0.51789 0.18874
 H1327 H 0.81959 0.58459 0.14346
 H1328 H 0.79921 0.52125 0.20569
 H1329 H 0.84789 0.58295 0.17130
 H1330 H 0.77182 0.52222 0.17688
 C1331 C 0.81199 1.11219 0.69226
 C1332 C 0.79910 1.10208 0.68484
 C1333 C 0.79299 1.08564 0.69328
 N1334 N 0.78156 1.07508 0.68527
 N1335 N 0.77615 1.06015 0.69280
 C1336 C 0.78198 1.05522 0.70862
 N1337 N 0.79336 1.06580 0.71663
 N1338 N 0.79878 1.08069 0.70910
 C1339 C 0.77588 1.03894 0.71731
 C1340 C 0.76427 1.02760 0.70958
 H1341 H 0.79384 1.10589 0.67249
 H1342 H 0.78023 1.03614 0.73030
 H1343 H 0.81751 1.10770 0.70429
 H1344 H 0.75993 1.03048 0.69661
 C1345 C 0.70243 0.58406 0.30676
 C1346 C 0.69615 0.57584 0.29212
 C1347 C 0.70574 0.56202 0.28324
 N1348 N 0.69939 0.55507 0.26858
 N1349 N 0.70810 0.54283 0.26011
 C1350 C 0.72349 0.53709 0.26599
 N1351 N 0.72982 0.54399 0.28068
 N1352 N 0.72111 0.55624 0.28915
 C1353 C 0.73336 0.52376 0.25666
 C1354 C 0.72764 0.51667 0.24125
 H1355 H 0.68408 0.57986 0.28659
 H1356 H 0.74547 0.51951 0.26202
 H1357 H 0.71452 0.57977 0.31213
 H1358 H 0.71554 0.52091 0.23586
 C1359 C 0.68298 1.09153 0.81900
 C1360 C 0.67688 1.08300 0.80436
 C1361 C 0.68664 1.06885 0.79604
 N1362 N 0.68087 1.06157 0.78125
 N1363 N 0.68973 1.04890 0.77353
 C1364 C 0.70467 1.04302 0.78037
 N1365 N 0.71037 1.05025 0.79517
 N1366 N 0.70155 1.06291 0.80285
 C1367 C 0.71495 1.02929 0.77210
 C1368 C 0.71083 1.02159 0.75639
 H1369 H 0.66487 1.08679 0.79856
 H1370 H 0.72662 1.02541 0.77858
 H1371 H 0.69520 1.08743 0.82427
 H1372 H 0.69925 1.02534 0.74970
 C1373 C 0.18815 0.61694 0.80144
 C1374 C 0.20321 0.60760 0.80472
 C1375 C 0.20830 0.59240 0.79440
 N1376 N 0.22344 0.58428 0.79754
 N1377 N 0.22817 0.57040 0.78843
 C1378 C 0.21791 0.56411 0.77583
 N1379 N 0.20276 0.57222 0.77269
 N1380 N 0.19805 0.58612 0.78178
 C1381 C 0.22280 0.54861 0.76587
 C1382 C 0.23838 0.54004 0.76837
 H1383 H 0.21167 0.61141 0.81500
 H1384 H 0.21378 0.54368 0.75651
 H1385 H 0.18022 0.61292 0.79076
 H1386 H 0.24745 0.54504 0.77763
 C1387 C 0.20371 1.09825 0.32181
 C1388 C 0.19966 1.08928 0.30677
 C1389 C 0.21093 1.07561 0.29959
 N1390 N 0.20620 1.06717 0.28510
 N1391 N 0.21623 1.05490 0.27829
 C1392 C 0.23142 1.05057 0.28568
 N1393 N 0.23617 1.05900 0.30021
 N1394 N 0.22611 1.07129 0.30704
 C1395 C 0.24269 1.03716 0.27795
 C1396 C 0.23791 1.02860 0.26295
 H1397 H 0.18798 1.09219 0.29990
 H1398 H 0.25490 1.03423 0.28390
 H1399 H 0.21546 1.09481 0.32842
 H1400 H 0.22567 1.03174 0.25716
 C1401 C 0.64657 0.40761 0.70007
 C1402 C 0.66177 0.41616 0.69473
 C1403 C 0.66826 0.43153 0.70404
 N1404 N 0.68347 0.43925 0.69916
 N1405 N 0.68964 0.45281 0.70787
 C1406 C 0.68083 0.45914 0.72178
 N1407 N 0.66560 0.45147 0.72660
 N1408 N 0.65944 0.43793 0.71790
 C1409 C 0.68766 0.47377 0.73189
 C1410 C 0.70345 0.48180 0.72780
 H1411 H 0.66938 0.41125 0.68400
 H1412 H 0.68024 0.47802 0.74306
 H1413 H 0.63931 0.41274 0.71097
 H1414 H 0.71084 0.47756 0.71660
 C1415 C 0.70163 -0.09769 0.18149
 C1416 C 0.69918 -0.09172 0.19835
 C1417 C 0.71016 -0.07822 0.20597
 N1418 N 0.70687 -0.07307 0.22243
 N1419 N 0.71639 -0.06059 0.22952
 C1420 C 0.72957 -0.05277 0.22041
 N1421 N 0.73291 -0.05795 0.20396
 N1422 N 0.72338 -0.07046 0.19686
 C1423 C 0.73986 -0.03862 0.22792
 C1424 C 0.73643 -0.03240 0.24450
 H1425 H 0.68880 -0.09704 0.20641
 H1426 H 0.75005 -0.03264 0.22001
 H1427 H 0.71254 -0.09284 0.17379
 H1428 H 0.72620 -0.03835 0.25241
 C1429 C 0.18414 0.38758 0.18104
 C1430 C 0.18320 0.39532 0.19725
 C1431 C 0.19659 0.40795 0.20257
 N1432 N 0.19464 0.41691 0.21750
 N1433 N 0.20651 0.42863 0.22211
 C1434 C 0.22078 0.43182 0.21197
 N1435 N 0.22276 0.42278 0.19711
 N1436 N 0.21090 0.41110 0.19249
 C1437 C 0.23393 0.44488 0.21673
 C1438 C 0.23202 0.45518 0.23134
 H1439 H 0.17226 0.39267 0.20584
 H1440 H 0.24528 0.44653 0.20843
 H1441 H 0.19491 0.39101 0.17245
 H1442 H 0.22059 0.45356 0.23953
 C1443 C 0.17965 -0.09789 0.66899
 C1444 C 0.17193 -0.09136 0.68404
 C1445 C 0.17908 -0.07600 0.69274
 N1446 N 0.17229 -0.07086 0.70815
 N1447 N 0.17898 -0.05721 0.71631
 C1448 C 0.19268 -0.04821 0.70931
 N1449 N 0.19937 -0.05330 0.69386
 N1450 N 0.19272 -0.06694 0.68574
 C1451 C 0.20063 -0.03343 0.71815
 C1452 C 0.19525 -0.02788 0.73448
 H1453 H 0.16078 -0.09776 0.69000
 H1454 H 0.21149 -0.02694 0.71165
 H1455 H 0.19095 -0.09117 0.66358
 H1456 H 0.18438 -0.03420 0.74110
 C1457 C 0.31859 0.32765 0.42219
 C1458 C 0.31886 0.31080 0.42929
 C1459 C 0.30590 0.30507 0.44242
 N1460 N 0.30580 0.28836 0.44856
 N1461 N 0.29348 0.28281 0.45967
 C1462 C 0.28079 0.29377 0.46499
 N1463 N 0.28097 0.31049 0.45894
 N1464 N 0.29329 0.31604 0.44787
 C1465 C 0.26660 0.28772 0.47654
 C1466 C 0.26586 0.27084 0.48350
 H1467 H 0.32787 0.30126 0.42440
 H1468 H 0.25628 0.29677 0.47936
 H1469 H 0.30935 0.33691 0.42728
 H1470 H 0.27638 0.26191 0.48112
 C1471 C 0.32227 0.84007 -0.12018
 C1472 C 0.32676 0.82434 -0.11218
 C1473 C 0.31679 0.81742 -0.09706
 N1474 N 0.32126 0.80209 -0.08938
 N1475 N 0.31209 0.79566 -0.07591
 C1476 C 0.29809 0.80430 -0.06963
 N1477 N 0.29366 0.81963 -0.07730
 N1478 N 0.30283 0.82606 -0.09073
 C1479 C 0.28755 0.79725 -0.05501
 C1480 C 0.29150 0.78160 -0.04662
 H1481 H 0.33748 0.81683 -0.11715
 H1482 H 0.27624 0.80446 -0.05096
 H1483 H 0.31149 0.84731 -0.11485
 H1484 H 0.30286 0.77445 -0.05063
 C1485 C 0.79484 0.33358 -0.10757
 C1486 C 0.79992 0.31810 -0.09939
 C1487 C 0.78971 0.31005 -0.08502
 N1488 N 0.79475 0.29472 -0.07771
 N1489 N 0.78556 0.28732 -0.06473
 C1490 C 0.77099 0.29502 -0.05859
 N1491 N 0.76598 0.31035 -0.06588
 N1492 N 0.77515 0.31773 -0.07884
 C1493 C 0.76050 0.28716 -0.04437
 C1494 C 0.76432 0.27117 -0.03645
 H1495 H 0.81156 0.31157 -0.10358
 H1496 H 0.74916 0.29422 -0.04012
 H1497 H 0.78302 0.33977 -0.10325
 H1498 H 0.77556 0.26393 -0.04065
 C1499 C 0.84480 0.84179 0.38636
 C1500 C 0.84531 0.82491 0.39337
 C1501 C 0.83163 0.81802 0.40508
 N1502 N 0.83245 0.80133 0.41114
 N1503 N 0.81977 0.79460 0.42111
 C1504 C 0.80576 0.80432 0.42533
 N1505 N 0.80495 0.82103 0.41932
 N1506 N 0.81765 0.82776 0.40936
 C1507 C 0.79154 0.79699 0.43609
 C1508 C 0.79205 0.78008 0.44298
 H1509 H 0.85552 0.81610 0.38966
 H1510 H 0.78051 0.80518 0.43879
 H1511 H 0.83476 0.85057 0.39067
 H1512 H 0.80323 0.77200 0.44058
 C1513 C 0.65086 0.32599 0.62956
 C1514 C 0.66513 0.33245 0.62011
 C1515 C 0.67298 0.32285 0.60558
 N1516 N 0.68739 0.32936 0.59747
 N1517 N 0.69487 0.32076 0.58452
 C1518 C 0.68821 0.30530 0.57912
 N1519 N 0.67373 0.29882 0.58716
 N1520 N 0.66626 0.30743 0.60015
 C1521 C 0.69670 0.29549 0.56507
 C1522 C 0.71245 0.30107 0.55779
 H1523 H 0.67103 0.34476 0.62353
 H1524 H 0.69081 0.28342 0.56085
 H1525 H 0.64522 0.31356 0.62598
 H1526 H 0.71843 0.31294 0.56241
 C1527 C 0.68279 0.82726 1.10803
 C1528 C 0.69930 0.82809 1.10053
 C1529 C 0.70475 0.81575 1.08709
 N1530 N 0.72106 0.81657 1.08039
 N1531 N 0.72622 0.80524 1.06845
 C1532 C 0.71526 0.79265 1.06281
 N1533 N 0.69895 0.79185 1.06950
 N1534 N 0.69380 0.80318 1.08142
 C1535 C 0.72073 0.78004 1.04966
 C1536 C 0.73722 0.78052 1.04215
 H1537 H 0.70866 0.83757 1.10488
 H1538 H 0.71146 0.77028 1.04565
 H1539 H 0.67372 0.81753 1.10356
 H1540 H 0.74643 0.79039 1.04603
 C1541 C 0.15508 0.32927 1.09963
 C1542 C 0.16833 0.33626 1.08912
 C1543 C 0.17571 0.32673 1.07443
 N1544 N 0.19025 0.33298 1.06638
 N1545 N 0.19800 0.32388 1.05396
 C1546 C 0.19148 0.30819 1.04911
 N1547 N 0.17678 0.30205 1.05697
 N1548 N 0.16905 0.31114 1.06944
 C1549 C 0.20056 0.29756 1.03620
 C1550 C 0.21712 0.30203 1.03022
 H1551 H 0.17450 0.34846 1.09244
 H1552 H 0.19452 0.28552 1.03210
 H1553 H 0.14865 0.31732 1.09581
 H1554 H 0.22329 0.31388 1.03467
 C1555 C 0.19679 0.83114 0.59407
 C1556 C 0.19261 0.81687 0.58391
 C1557 C 0.20409 0.81059 0.56997
 N1558 N 0.19903 0.79677 0.56047
 N1559 N 0.20927 0.79061 0.54801
 C1560 C 0.22500 0.79800 0.54451
 N1561 N 0.23008 0.81189 0.55398
 N1562 N 0.21980 0.81808 0.56649
 C1563 C 0.23651 0.79073 0.53100
 C1564 C 0.23147 0.77593 0.52203
 H1565 H 0.18050 0.80995 0.58612
 H1566 H 0.24910 0.79663 0.52854
 H1567 H 0.20872 0.83826 0.59135
 H1568 H 0.21889 0.77013 0.52486
 C1569 C 0.31774 0.66962 0.59724
 C1570 C 0.32137 0.68583 0.58946
 C1571 C 0.31060 0.69313 0.57560
 N1572 N 0.31521 0.70850 0.56778
 N1573 N 0.30580 0.71516 0.55508
 C1574 C 0.29139 0.70673 0.54966
 N1575 N 0.28672 0.69138 0.55753
 N1576 N 0.29615 0.68469 0.57024
 C1577 C 0.28104 0.71401 0.53543
 C1578 C 0.28624 0.72928 0.52668
 H1579 H 0.33261 0.69327 0.59322
 H1580 H 0.26938 0.70722 0.53171
 H1581 H 0.30661 0.66224 0.59302
 H1582 H 0.29803 0.73580 0.53046
 C1583 C 0.31557 0.20699 1.10864
 C1584 C 0.30019 0.20316 1.10035
 C1585 C 0.29350 0.21483 1.08678
 N1586 N 0.27844 0.21088 1.07898
 N1587 N 0.27236 0.22131 1.06659
 C1588 C 0.28111 0.23607 1.06157
 N1589 N 0.29615 0.24002 1.06939
 N1590 N 0.30222 0.22961 1.08177
 C1591 C 0.27479 0.24755 1.04769
 C1592 C 0.25954 0.24398 1.03912
 H1593 H 0.29284 0.19150 1.10381
 H1594 H 0.28255 0.25888 1.04390
 H1595 H 0.32260 0.21885 1.10504
 H1596 H 0.25177 0.23267 1.04293
 C1597 C 0.84132 0.66593 1.08447
 C1598 C 0.82353 0.66521 1.08205
 C1599 C 0.81488 0.67820 1.07107
 N1600 N 0.79747 0.67764 1.06940
 N1601 N 0.78951 0.68965 1.05985
 C1602 C 0.79867 0.70269 1.05169
 N1603 N 0.81606 0.70323 1.05335
 N1604 N 0.82401 0.69122 1.06287
 C1605 C 0.79022 0.71603 1.04103
 C1606 C 0.77252 0.71585 1.03817
 H1607 H 0.81564 0.65553 1.08890
 H1608 H 0.79832 0.72601 1.03483
 H1609 H 0.84890 0.67596 1.07770
 H1610 H 0.76440 0.70576 1.04413
 C1611 C 0.81209 0.19985 0.62552
 C1612 C 0.79629 0.19696 0.61762
 C1613 C 0.78966 0.20957 0.60474
 N1614 N 0.77429 0.20661 0.59708
 N1615 N 0.76826 0.21797 0.58546
 C1616 C 0.77735 0.23274 0.58109
 N1617 N 0.79268 0.23570 0.58876
 N1618 N 0.79871 0.22434 0.60035
 C1619 C 0.77099 0.24540 0.56817
 C1620 C 0.75559 0.24276 0.55952
 H1621 H 0.78860 0.18548 0.62093
 H1622 H 0.77879 0.25693 0.56520
 H1623 H 0.81945 0.21152 0.62196
 H1624 H 0.74789 0.23114 0.56240
 C1625 C 0.70597 0.66381 0.37614
 C1626 C 0.70220 0.68101 0.38052
 C1627 C 0.71175 0.69062 0.39365
 N1628 N 0.70770 0.70750 0.39684
 N1629 N 0.71606 0.71644 0.40878
 C1630 C 0.72880 0.70884 0.41799
 N1631 N 0.73287 0.69195 0.41480
 N1632 N 0.72451 0.68300 0.40284
 C1633 C 0.73789 0.71849 0.43145
 C1634 C 0.73399 0.73579 0.43523
 H1635 H 0.69206 0.68793 0.37398
 H1636 H 0.74762 0.71168 0.43877
 H1637 H 0.71663 0.65725 0.38230
 H1638 H 0.72426 0.74259 0.42791
 C1639 C 0.68225 0.16477 -0.10560
 C1640 C 0.67630 0.17997 -0.09770
 C1641 C 0.68535 0.18808 -0.08319
 N1642 N 0.67959 0.20336 -0.07656
 N1643 N 0.68774 0.21093 -0.06354
 C1644 C 0.70193 0.20346 -0.05663
 N1645 N 0.70764 0.18816 -0.06321
 N1646 N 0.69953 0.18061 -0.07624
 C1647 C 0.71131 0.21165 -0.04239
 C1648 C 0.70684 0.22782 -0.03554
 H1649 H 0.66488 0.18637 -0.10236
 H1650 H 0.72239 0.20481 -0.03740
 H1651 H 0.69396 0.15880 -0.10098
 H1652 H 0.69589 0.23483 -0.04056
 C1653 C 0.20118 0.68465 -0.11891
 C1654 C 0.19673 0.69886 -0.10868
 C1655 C 0.20745 0.70479 -0.09429
 N1656 N 0.20261 0.71900 -0.08517
 N1657 N 0.21220 0.72477 -0.07228
 C1658 C 0.22703 0.71656 -0.06796
 N1659 N 0.23187 0.70229 -0.07704
 N1660 N 0.22226 0.69651 -0.08997
 C1661 C 0.23788 0.72320 -0.05391
 C1662 C 0.23358 0.73847 -0.04527
 H1663 H 0.18512 0.70609 -0.11129
 H1664 H 0.24955 0.71629 -0.05067
 H1665 H 0.21285 0.67753 -0.11606
 H1666 H 0.22200 0.74538 -0.04885
 C1667 C 0.19131 0.16912 0.39783
 C1668 C 0.18472 0.18460 0.40452
 C1669 C 0.19165 0.19261 0.42016
 N1670 N 0.18570 0.20834 0.42540
 N1671 N 0.19190 0.21580 0.43950
 C1672 C 0.20427 0.20778 0.44889
 N1673 N 0.21017 0.19203 0.44368
 N1674 N 0.20400 0.18458 0.42957
 C1675 C 0.21132 0.21580 0.46445
 C1676 C 0.20659 0.23243 0.46986
 H1677 H 0.17448 0.19136 0.39798
 H1678 H 0.22067 0.20844 0.47175
 H1679 H 0.20206 0.16291 0.40415
 H1680 H 0.19745 0.23996 0.46245
 C1681 C 0.31220 0.37093 0.70008
 C1682 C 0.29745 0.37990 0.69505
 C1683 C 0.29249 0.39658 0.70293
 N1684 N 0.27762 0.40450 0.69830
 N1685 N 0.27297 0.41957 0.70541
 C1686 C 0.28305 0.42727 0.71738
 N1687 N 0.29792 0.41936 0.72196
 N1688 N 0.30255 0.40430 0.71488
 C1689 C 0.27821 0.44385 0.72545
 C1690 C 0.26288 0.45248 0.72184
 H1691 H 0.28913 0.37454 0.68534
 H1692 H 0.28702 0.44936 0.73469
 H1693 H 0.32011 0.37634 0.71015
 H1694 H 0.25396 0.44701 0.71269
 C1695 C 0.34224 0.88138 0.18250
 C1696 C 0.32906 0.89206 0.17650
 C1697 C 0.32299 0.90725 0.18643
 N1698 N 0.31012 0.91733 0.18021
 N1699 N 0.30431 0.93090 0.18919
 C1700 C 0.31115 0.93494 0.20473
 N1701 N 0.32407 0.92490 0.21092
 N1702 N 0.32988 0.91133 0.20194
 C1703 C 0.30438 0.94957 0.21505
 C1704 C 0.29059 0.95956 0.20935
 H1705 H 0.32296 0.88927 0.16436
 H1706 H 0.30982 0.95201 0.22761
 H1707 H 0.34829 0.88461 0.19459
 H1708 H 0.28513 0.95684 0.19685
 C1709 C 0.83882 0.37022 0.17180
 C1710 C 0.82518 0.37937 0.16455
 C1711 C 0.81768 0.39487 0.17270
 N1712 N 0.80370 0.40252 0.16563
 N1713 N 0.79630 0.41617 0.17316
 C1714 C 0.80264 0.42268 0.18805
 N1715 N 0.81671 0.41511 0.19506
 N1716 N 0.82409 0.40144 0.18753
 C1717 C 0.79422 0.43733 0.19684
 C1718 C 0.77899 0.44460 0.19081
 H1719 H 0.81932 0.37487 0.15282
 H1720 H 0.79982 0.44208 0.20864
 H1721 H 0.84466 0.37508 0.18344
 H1722 H 0.77332 0.43976 0.17907
 C1723 C 0.81566 0.88264 0.66307
 C1724 C 0.81894 0.89202 0.67801
 C1725 C 0.80711 0.90589 0.68382
 N1726 N 0.81044 0.91498 0.69836
 N1727 N 0.79971 0.92741 0.70372
 C1728 C 0.78527 0.93125 0.69472
 N1729 N 0.78197 0.92219 0.68018
 N1730 N 0.79269 0.90978 0.67483
 C1731 C 0.77309 0.94473 0.70062
 C1732 C 0.77580 0.95419 0.71561
 H1733 H 0.83022 0.88923 0.68558
 H1734 H 0.76157 0.94697 0.69320
 H1735 H 0.80430 0.88583 0.65573
 H1736 H 0.78733 0.95187 0.72300
 C1737 C 0.67829 0.62190 0.66154
 C1738 C 0.67222 0.61539 0.67749
 C1739 C 0.68138 0.60153 0.68693
 N1740 N 0.67474 0.59512 0.70213
 N1741 N 0.68292 0.58263 0.71083
 C1742 C 0.69805 0.57609 0.70468
 N1743 N 0.70471 0.58251 0.68949
 N1744 N 0.69652 0.59499 0.68077
 C1745 C 0.70724 0.56232 0.71423
 C1746 C 0.70046 0.55499 0.72953
 H1747 H 0.66049 0.62042 0.68325
 H1748 H 0.71951 0.55785 0.70908
 H1749 H 0.68990 0.61641 0.65586
 H1750 H 0.68809 0.55937 0.73450
 C1751 C 0.67921 0.09744 0.18090
 C1752 C 0.67788 0.09093 0.19782
 C1753 C 0.69048 0.07853 0.20474
 N1754 N 0.68893 0.07283 0.22140
 N1755 N 0.70059 0.06208 0.22804
 C1756 C 0.71425 0.05668 0.21828
 N1757 N 0.71577 0.06233 0.20160
 N1758 N 0.70411 0.07307 0.19495
 C1759 C 0.72738 0.04510 0.22559
 C1760 C 0.72608 0.03887 0.24258
 H1761 H 0.66787 0.09549 0.20652
 H1762 H 0.73828 0.04149 0.21745
 H1763 H 0.68931 0.09260 0.17240
 H1764 H 0.71505 0.04233 0.25060
 C1765 C 0.19849 0.60655 0.18501
 C1766 C 0.21188 0.59554 0.18006
 C1767 C 0.21733 0.58081 0.19115
 N1768 N 0.22947 0.56960 0.18524
 N1769 N 0.23449 0.55619 0.19507
 C1770 C 0.22758 0.55347 0.21120
 N1771 N 0.21546 0.56471 0.21713
 N1772 N 0.21041 0.57811 0.20728
 C1773 C 0.23332 0.53883 0.22227
 C1774 C 0.24536 0.52685 0.21622
 H1775 H 0.21825 0.59736 0.16757
 H1776 H 0.22832 0.53771 0.23543
 H1777 H 0.19183 0.60409 0.19728
 H1778 H 0.25020 0.52807 0.20300
 C1779 C 0.14305 0.09857 0.67062
 C1780 C 0.14152 0.09283 0.68779
 C1781 C 0.15411 0.08103 0.69564
 N1782 N 0.15234 0.07647 0.71261
 N1783 N 0.16396 0.06632 0.72015
 C1784 C 0.17781 0.06040 0.71102
 N1785 N 0.17957 0.06492 0.69403
 N1786 N 0.16794 0.07508 0.68648
 C1787 C 0.19068 0.04916 0.71923
 C1788 C 0.18899 0.04386 0.73650
 H1789 H 0.13128 0.09762 0.69608
 H1790 H 0.20144 0.04461 0.71140
 H1791 H 0.15319 0.09330 0.66242
 H1792 H 0.17806 0.04819 0.74422
 C1793 C 0.33144 0.59901 0.31889
 C1794 C 0.33673 0.58925 0.30459
 C1795 C 0.32581 0.57535 0.29737
 N1796 N 0.33125 0.56651 0.28318
 N1797 N 0.32147 0.55390 0.27655
 C1798 C 0.30589 0.54969 0.28391
 N1799 N 0.30048 0.55852 0.29809
 N1800 N 0.31024 0.57110 0.30470
 C1801 C 0.29473 0.53588 0.27698
 C1802 C 0.29875 0.52627 0.26221
 H1803 H 0.34912 0.59181 0.29836
 H1804 H 0.28264 0.53329 0.28388
 H1805 H 0.31886 0.59638 0.32477
 H1806 H 0.31071 0.52876 0.25507
 C1807 C 0.29584 0.08966 0.85176
 C1808 C 0.29709 0.08662 0.83405
 C1809 C 0.28371 0.07686 0.82490
 N1810 N 0.28500 0.07511 0.80749
 N1811 N 0.27293 0.06640 0.79898
 C1812 C 0.25910 0.05916 0.80757
 N1813 N 0.25779 0.06093 0.82498
 N1814 N 0.26986 0.06965 0.83349
 C1815 C 0.24610 0.04887 0.79841
 C1816 C 0.24760 0.04591 0.78071
 H1817 H 0.30772 0.09217 0.82646
 H1818 H 0.23578 0.04260 0.80594
 H1819 H 0.28473 0.08462 0.85905
 H1820 H 0.25806 0.05203 0.77326
 C1821 C 0.81490 0.61951 0.81194
 C1822 C 0.79883 0.61267 0.81726
 C1823 C 0.78950 0.59954 0.80717
 N1824 N 0.77387 0.59338 0.81289
 N1825 N 0.76532 0.58140 0.80396
 C1826 C 0.77211 0.57513 0.78897
 N1827 N 0.78772 0.58129 0.78326
 N1828 N 0.79626 0.59327 0.79218
 C1829 C 0.76304 0.56180 0.77893
 C1830 C 0.74692 0.55482 0.78383
 H1831 H 0.79277 0.61694 0.82916
 H1832 H 0.76939 0.55729 0.76723
 H1833 H 0.82066 0.61517 0.79988
 H1834 H 0.74041 0.55928 0.79546
 C1835 C 0.80937 0.12028 0.34333
 C1836 C 0.81541 0.11308 0.32790
 C1837 C 0.80651 0.09810 0.32014
 N1838 N 0.81185 0.09199 0.30454
 N1839 N 0.80372 0.07852 0.29740
 C1840 C 0.78997 0.07069 0.30563
 N1841 N 0.78469 0.07677 0.32123
 N1842 N 0.79279 0.09022 0.32834
 C1843 C 0.78079 0.05582 0.29810
 C1844 C 0.78509 0.04915 0.28192
 H1845 H 0.82654 0.11868 0.32114
 H1846 H 0.77026 0.04992 0.30563
 H1847 H 0.79787 0.11476 0.34956
 H1848 H 0.79551 0.05505 0.27425
 C1849 C 0.69524 0.38622 0.31617
 C1850 C 0.69255 0.39081 0.29888
 C1851 C 0.70359 0.40323 0.28898
 N1852 N 0.69952 0.40727 0.27242
 N1853 N 0.70909 0.41865 0.26315
 C1854 C 0.72314 0.42642 0.27007
 N1855 N 0.72728 0.42234 0.28664
 N1856 N 0.71767 0.41094 0.29595
 C1857 C 0.73357 0.43925 0.25994
 C1858 C 0.72880 0.44462 0.24338
 H1859 H 0.68182 0.38522 0.29208
 H1860 H 0.74491 0.44489 0.26577
 H1861 H 0.70631 0.39154 0.32273
 H1862 H 0.71727 0.43919 0.23773
 C1863 C 0.68261 0.88013 0.82011
 C1864 C 0.67943 0.88703 0.80369
 C1865 C 0.68997 0.90142 0.79603
 N1866 N 0.68653 0.90752 0.77990
 N1867 N 0.69596 0.92048 0.77276
 C1868 C 0.70920 0.92786 0.78146
 N1869 N 0.71265 0.92176 0.79759
 N1870 N 0.70322 0.90878 0.80474
 C1871 C 0.71966 0.94225 0.77364
 C1872 C 0.71638 0.94871 0.75709
 H1873 H 0.66910 0.88174 0.79608
 H1874 H 0.73002 0.94788 0.78105
 H1875 H 0.69313 0.88555 0.82744
 H1876 H 0.70598 0.94299 0.74980
 C1877 C 0.15766 0.42271 0.83370
 C1878 C 0.17536 0.42609 0.83450
 C1879 C 0.18424 0.43763 0.82174
 N1880 N 0.20165 0.43972 0.82213
 N1881 N 0.20993 0.44938 0.81004
 C1882 C 0.20107 0.45725 0.79712
 N1883 N 0.18367 0.45525 0.79681
 N1884 N 0.17541 0.44561 0.80888
 C1885 C 0.20993 0.46741 0.78329
 C1886 C 0.22774 0.47017 0.78283
 H1887 H 0.18315 0.41933 0.84388
 H1888 H 0.20213 0.47274 0.77303
 H1889 H 0.15016 0.42959 0.82411
 H1890 H 0.23560 0.46525 0.79324
 C1891 C 0.18545 0.88285 0.29692
 C1892 C 0.20086 0.89131 0.30093
 C1893 C 0.20808 0.90572 0.29001
 N1894 N 0.22284 0.91393 0.29465
 N1895 N 0.22947 0.92702 0.28500
 C1896 C 0.22160 0.93243 0.27030
 N1897 N 0.20684 0.92420 0.26563
 N1898 N 0.20021 0.91110 0.27530
 C1899 C 0.22889 0.94697 0.25956
 C1900 C 0.24388 0.95572 0.26434
 H1901 H 0.20776 0.88754 0.31242
 H1902 H 0.22241 0.95079 0.24782
 H1903 H 0.17868 0.88702 0.28545
 H1904 H 0.25019 0.95175 0.27615
 C1905 C 0.37629 0.28580 0.70270
 C1906 C 0.38541 0.29188 0.71684
 C1907 C 0.39946 0.28194 0.72472
 N1908 N 0.40775 0.28860 0.73849
 N1909 N 0.42050 0.27984 0.74586
 C1910 C 0.42545 0.26406 0.73976
 N1911 N 0.41717 0.25737 0.72598
 N1912 N 0.40439 0.26614 0.71859
 C1913 C 0.43956 0.25431 0.74784
 C1914 C 0.44830 0.26091 0.76197
 H1915 H 0.38224 0.30430 0.72250
 H1916 H 0.44314 0.24178 0.74257
 H1917 H 0.37968 0.27332 0.69719
 H1918 H 0.44468 0.27346 0.76717
 C1919 C 0.41004 0.79981 0.18065
 C1920 C 0.41829 0.80508 0.19562
 C1921 C 0.43259 0.79518 0.20308
 N1922 N 0.44028 0.80102 0.21755
 N1923 N 0.45329 0.79227 0.22446
 C1924 C 0.45911 0.77733 0.21717
 N1925 N 0.45141 0.77146 0.20270
 N1926 N 0.43839 0.78022 0.19578
 C1927 C 0.47356 0.76763 0.22461
 C1928 C 0.48202 0.77347 0.23923
 H1929 H 0.41432 0.81682 0.20214
 H1930 H 0.47774 0.75578 0.21834
 H1931 H 0.41426 0.78802 0.17429
 H1932 H 0.47787 0.78537 0.24543
 C1933 C 0.90359 0.28652 0.18094
 C1934 C 0.91039 0.29286 0.19631
 C1935 C 0.92442 0.28426 0.20571
 N1936 N 0.92999 0.29123 0.22069
 N1937 N 0.94269 0.28378 0.22945
 C1938 C 0.95033 0.26907 0.22354
 N1939 N 0.94478 0.26210 0.20853
 N1940 N 0.93206 0.26955 0.19976
 C1941 C 0.96432 0.26061 0.23314
 C1942 C 0.97025 0.26694 0.24885
 H1943 H 0.90524 0.30458 0.20197
 H1944 H 0.96992 0.24890 0.22778
 H1945 H 0.90847 0.27443 0.17570
 H1946 H 0.96459 0.27856 0.25433
 C1947 C 0.89915 0.81334 0.66616
 C1948 C 0.90574 0.81767 0.68225
 C1949 C 0.92080 0.80834 0.68919
 N1950 N 0.92685 0.81200 0.70513
 N1951 N 0.94022 0.80327 0.71149
 C1952 C 0.94803 0.79056 0.70212
 N1953 N 0.94202 0.78697 0.68619
 N1954 N 0.92870 0.79568 0.67985
 C1955 C 0.96254 0.78037 0.70889
 C1956 C 0.96944 0.78302 0.72519
 H1957 H 0.89965 0.82763 0.69000
 H1958 H 0.96779 0.77020 0.70079
 H1959 H 0.90546 0.80317 0.65882
 H1960 H 0.96434 0.79324 0.73334
 C1961 C 0.60716 0.32666 0.31957
 C1962 C 0.59677 0.31267 0.32529
 C1963 C 0.58231 0.30610 0.31498
 N1964 N 0.57336 0.29165 0.32041
 N1965 N 0.56056 0.28527 0.31102
 C1966 C 0.55618 0.29310 0.29584
 N1967 N 0.56505 0.30763 0.29045
 N1968 N 0.57788 0.31400 0.29984
 C1969 C 0.54226 0.28586 0.28519
 C1970 C 0.53387 0.27026 0.28988
 H1971 H 0.59961 0.30588 0.33726
 H1972 H 0.53886 0.29266 0.27337
 H1973 H 0.60430 0.33301 0.30733
 H1974 H 0.53757 0.26346 0.30162
 C1975 C 0.60461 0.80415 0.81989
 C1976 C 0.59704 0.80976 0.80458
 C1977 C 0.58253 0.80023 0.79686
 N1978 N 0.57530 0.80656 0.78224
 N1979 N 0.56221 0.79812 0.77504
 C1980 C 0.55582 0.78299 0.78217
 N1981 N 0.56306 0.77663 0.79680
 N1982 N 0.57616 0.78509 0.80402
 C1983 C 0.54141 0.77351 0.77415
 C1984 C 0.53363 0.78004 0.75932
 H1985 H 0.60168 0.82153 0.79804
 H1986 H 0.53698 0.76123 0.77990
 H1987 H 0.59953 0.79251 0.82641
 H1988 H 0.53813 0.79237 0.75374
 C1989 C 0.07950 0.35206 0.83708
 C1990 C 0.07404 0.33472 0.83922
 C1991 C 0.06121 0.32684 0.82784
 N1992 N 0.05698 0.30966 0.82971
 N1993 N 0.04591 0.30218 0.81902
 C1994 C 0.03872 0.31163 0.80604
 N1995 N 0.04289 0.32882 0.80423
 N1996 N 0.05395 0.33629 0.81491
 C1997 C 0.02669 0.30360 0.79395
 C1998 C 0.02178 0.28605 0.79520
 H1999 H 0.07988 0.32633 0.84879
 H2000 H 0.02149 0.31182 0.78382
 H2001 H 0.07353 0.36018 0.82731
 H2002 H 0.02677 0.27781 0.80544
 C2003 C 0.10510 0.81323 0.31102
 C2004 C 0.09828 0.81658 0.29474
 C2005 C 0.08383 0.80615 0.28818
 N2006 N 0.07860 0.80851 0.27165
 N2007 N 0.06611 0.79852 0.26531
 C2008 C 0.05840 0.78580 0.27528
 N2009 N 0.06351 0.78355 0.29184
 N2010 N 0.07600 0.79353 0.29817
 C2011 C 0.04516 0.77410 0.26834
 C2012 C 0.04008 0.77502 0.25116
 H2013 H 0.10422 0.82627 0.28615
 H2014 H 0.03971 0.76407 0.27691
 H2015 H 0.09912 0.80320 0.31925
 H2016 H 0.04542 0.78508 0.24255
 C2017 C 0.60585 0.70090 0.65219
 C2018 C 0.59609 0.69585 0.66679
 C2019 C 0.58172 0.70632 0.67362
 N2020 N 0.57249 0.70027 0.68756
 N2021 N 0.55955 0.70954 0.69414
 C2022 C 0.55531 0.72525 0.68706
 N2023 N 0.56453 0.73132 0.67307
 N2024 N 0.57750 0.72201 0.66645
 C2025 C 0.54121 0.73567 0.69466
 C2026 C 0.53190 0.72946 0.70911
 H2027 H 0.59884 0.68371 0.67347
 H2028 H 0.53844 0.74842 0.68915
 H2029 H 0.60257 0.71280 0.64528
 H2030 H 0.53488 0.71669 0.71447
 C2031 C 0.60390 0.17060 0.19588
 C2032 C 0.59430 0.18541 0.19193
 C2033 C 0.58077 0.19195 0.20382
 N2034 N 0.57194 0.20655 0.19951
 N2035 N 0.55970 0.21266 0.21008
 C2036 C 0.55577 0.20443 0.22538
 N2037 N 0.56458 0.18980 0.22970
 N2038 N 0.57685 0.18368 0.21912
 C2039 C 0.54224 0.21126 0.23715
 C2040 C 0.53358 0.22661 0.23304
 H2041 H 0.59666 0.19246 0.17988
 H2042 H 0.53921 0.20431 0.24916
 H2043 H 0.60131 0.16378 0.20806
 H2044 H 0.53693 0.23347 0.22106
 C2045 C 0.12406 0.68001 0.16739
 C2046 C 0.11487 0.67612 0.18268
 C2047 C 0.09920 0.68570 0.18757
 N2048 N 0.09117 0.68235 0.20304
 N2049 N 0.07715 0.69121 0.20774
 C2050 C 0.07066 0.70372 0.19710
 N2051 N 0.07863 0.70700 0.18160
 N2052 N 0.09264 0.69816 0.17692
 C2053 C 0.05544 0.71389 0.20214
 C2054 C 0.04712 0.71172 0.21818
 H2055 H 0.11940 0.66620 0.19156
 H2056 H 0.05087 0.72362 0.19303
 H2057 H 0.11942 0.69022 0.15884
 H2058 H 0.05165 0.70204 0.22736
 C2059 C 0.07896 0.18054 0.68766
 C2060 C 0.07314 0.19752 0.68482
 C2061 C 0.06247 0.20639 0.69794
 N2062 N 0.05696 0.22297 0.69508
 N2063 N 0.04706 0.23091 0.70683
 C2064 C 0.04234 0.22257 0.72186
 N2065 N 0.04789 0.20605 0.72472
 N2066 N 0.05778 0.19812 0.71301
 C2067 C 0.03087 0.23071 0.73472
 C2068 C 0.02446 0.24755 0.73266
 H2069 H 0.07636 0.20446 0.67288
 H2070 H 0.02685 0.22288 0.74591
 H2071 H 0.07574 0.17401 0.69985
 H2072 H 0.02857 0.25555 0.72162
 C2073 C 0.41969 0.65996 0.31846
 C2074 C 0.43028 0.67300 0.32511
 C2075 C 0.44471 0.68089 0.31510
 N2076 N 0.45318 0.69494 0.32144
 N2077 N 0.46559 0.70300 0.31211
 C2078 C 0.46999 0.69726 0.29609
 N2079 N 0.46167 0.68307 0.28983
 N2080 N 0.44922 0.67504 0.29914
 C2081 C 0.48302 0.70650 0.28528
 C2082 C 0.49040 0.72233 0.29016
 H2083 H 0.42744 0.67841 0.33768
 H2084 H 0.48628 0.70108 0.27277
 H2085 H 0.42306 0.65419 0.30615
 H2086 H 0.48707 0.72790 0.30258
 C2087 C 0.38224 0.15241 0.84942
 C2088 C 0.39138 0.16731 0.85431
 C2089 C 0.40560 0.17484 0.84362
 N2090 N 0.41350 0.18983 0.84853
 N2091 N 0.42611 0.19705 0.83878
 C2092 C 0.43130 0.18952 0.82377
 N2093 N 0.42345 0.17448 0.81891
 N2094 N 0.41084 0.16727 0.82864
 C2095 C 0.44487 0.19752 0.81259
 C2096 C 0.45287 0.21336 0.81647
 H2097 H 0.38786 0.17403 0.86604
 H2098 H 0.44832 0.19093 0.80072
 H2099 H 0.38597 0.14591 0.83757
 H2100 H 0.44943 0.22003 0.82830
 C2101 C 0.89896 0.68634 0.82144
 C2102 C 0.90617 0.68335 0.80508
 C2103 C 0.92132 0.69347 0.79858
 N2104 N 0.92800 0.69052 0.78253
 N2105 N 0.94142 0.69994 0.77641
 C2106 C 0.94864 0.71267 0.78612
 N2107 N 0.94198 0.71556 0.80217
 N2108 N 0.92860 0.70615 0.80828
 C2109 C 0.96312 0.72358 0.77943
 C2110 C 0.97046 0.72132 0.76302
 H2111 H 0.90047 0.67378 0.79668
 H2112 H 0.96787 0.73395 0.78754
 H2113 H 0.90499 0.69596 0.82960
 H2114 H 0.96581 0.71089 0.75494
 C2115 C 0.88771 0.19434 0.35117
 C2116 C 0.89776 0.18751 0.33769
 C2117 C 0.91397 0.19589 0.33140
 N2118 N 0.92287 0.18896 0.31787
 N2119 N 0.93736 0.19656 0.31179
 C2120 C 0.94351 0.21138 0.31905
 N2121 N 0.93465 0.21827 0.33262
 N2122 N 0.92016 0.21068 0.33869
 C2123 C 0.95916 0.22038 0.31221
 C2124 C 0.96851 0.21467 0.29774
 H2125 H 0.89366 0.17576 0.33127
 H2126 H 0.96305 0.23235 0.31843
 H2127 H 0.89212 0.20605 0.35753
 H2128 H 0.96471 0.20273 0.29141
 C2129 C 0.30130 0.29083 0.62974
 C2130 C 0.28837 0.29899 0.62033
 C2131 C 0.28017 0.29049 0.60558
 N2132 N 0.26819 0.29919 0.59631
 N2133 N 0.26078 0.29172 0.58282
 C2134 C 0.26508 0.27525 0.57813
 N2135 N 0.27702 0.26653 0.58743
 N2136 N 0.28443 0.27400 0.60091
 C2137 C 0.25723 0.26686 0.56314
 C2138 C 0.24545 0.27545 0.55268
 H2139 H 0.28426 0.31202 0.62355
 H2140 H 0.26109 0.25366 0.56012
 H2141 H 0.30546 0.27789 0.62605
 H2142 H 0.24166 0.28869 0.55559
 C2143 C 0.33931 0.80625 0.10457
 C2144 C 0.32636 0.81363 0.09461
 C2145 C 0.31964 0.80464 0.07930
 N2146 N 0.30728 0.81227 0.06963
 N2147 N 0.30101 0.80418 0.05589
 C2148 C 0.30685 0.78816 0.05128
 N2149 N 0.31923 0.78056 0.06094
 N2150 N 0.32551 0.78865 0.07467
 C2151 C 0.29965 0.77887 0.03640
 C2152 C 0.28665 0.78615 0.02648
 H2153 H 0.32106 0.82619 0.09795
 H2154 H 0.30424 0.76586 0.03359
 H2155 H 0.34460 0.79380 0.10073
 H2156 H 0.28208 0.79913 0.02946
 C2157 C 0.82943 0.28783 0.10505
 C2158 C 0.81645 0.29612 0.09571
 C2159 C 0.80638 0.28754 0.08219
 N2160 N 0.79369 0.29657 0.07426
 N2161 N 0.78422 0.28915 0.06212
 C2162 C 0.78709 0.27238 0.05742
 N2163 N 0.79982 0.26333 0.06531
 N2164 N 0.80929 0.27076 0.07750
 C2165 C 0.77664 0.26398 0.04404
 C2166 C 0.76296 0.27248 0.03605
 H2167 H 0.81324 0.30954 0.09836
 H2168 H 0.77973 0.25071 0.04051
 H2169 H 0.83277 0.27448 0.10203
 H2170 H 0.75973 0.28570 0.03969
 C2171 C 0.82979 0.80939 0.58862
 C2172 C 0.81625 0.81575 0.57876
 C2173 C 0.80949 0.80633 0.56387
 N2174 N 0.79643 0.81333 0.55469
 N2175 N 0.78987 0.80485 0.54136
 C2176 C 0.79612 0.78903 0.53672
 N2177 N 0.80921 0.78203 0.54587
 N2178 N 0.81578 0.79052 0.55921
 C2179 C 0.78883 0.77943 0.52218
 C2180 C 0.77556 0.78626 0.51228
 H2181 H 0.81024 0.82801 0.58199
 H2182 H 0.79401 0.76668 0.51924
 H2183 H 0.83610 0.79741 0.58483
 H2184 H 0.77051 0.79909 0.51510
 C2185 C 0.34189 0.68050 0.38754
 C2186 C 0.32606 0.67780 0.39606
 C2187 C 0.31947 0.68993 0.40921
 N2188 N 0.30430 0.68629 0.41758
 N2189 N 0.29806 0.69711 0.42945
 C2190 C 0.30673 0.71201 0.43345
 N2191 N 0.32193 0.71567 0.42507
 N2192 N 0.32818 0.70483 0.41318
 C2193 C 0.29966 0.72408 0.44649
 C2194 C 0.28424 0.72005 0.45528
 H2195 H 0.31826 0.66644 0.39322
 H2196 H 0.30644 0.73621 0.44900
 H2197 H 0.34970 0.69174 0.39089
 H2198 H 0.27771 0.70781 0.45262
 C2199 C 0.30625 0.16306 0.92431
 C2200 C 0.31147 0.18002 0.92819
 C2201 C 0.30030 0.19170 0.93823
 N2202 N 0.30561 0.20827 0.94143
 N2203 N 0.29534 0.21918 0.94998
 C2204 C 0.27936 0.21394 0.95557
 N2205 N 0.27405 0.19737 0.95239
 N2206 N 0.28432 0.18646 0.94386
 C2207 C 0.26788 0.22577 0.96505
 C2208 C 0.27313 0.24251 0.96961
 H2209 H 0.32352 0.18530 0.92301
 H2210 H 0.25518 0.22096 0.96900
 H2211 H 0.29407 0.15810 0.92960
 H2212 H 0.28596 0.24720 0.96601
 C2213 C 0.82494 0.68340 0.89704
 C2214 C 0.80825 0.68051 0.90365
 C2215 C 0.80186 0.69001 0.91889
 N2216 N 0.78531 0.68777 0.92471
 N2217 N 0.77934 0.69683 0.93814
 C2218 C 0.78973 0.70845 0.94621
 N2219 N 0.80626 0.71060 0.94045
 N2220 N 0.81221 0.70156 0.92706
 C2221 C 0.78346 0.71906 0.96066
 C2222 C 0.76677 0.71769 0.96765
 H2223 H 0.79947 0.67173 0.89727
 H2224 H 0.79240 0.72851 0.96588
 H2225 H 0.83338 0.69243 0.90359
 H2226 H 0.75781 0.70803 0.96284
 C2227 C 0.80145 0.19485 0.41656
 C2228 C 0.80669 0.20893 0.42652
 C2229 C 0.79539 0.21612 0.44019
 N2230 N 0.80107 0.22956 0.44990
 N2231 N 0.79094 0.23626 0.46221
 C2232 C 0.77474 0.22978 0.46528
 N2233 N 0.76906 0.21634 0.45557
 N2234 N 0.77920 0.20963 0.44327
 C2235 C 0.76334 0.23729 0.47870
 C2236 C 0.76881 0.25114 0.48880
 H2237 H 0.81931 0.21483 0.42437
 H2238 H 0.75038 0.23202 0.48045
 H2239 H 0.78886 0.18897 0.41917
 H2240 H 0.78179 0.25633 0.48695
 C2241 C 0.67310 0.32464 0.40280
 C2242 C 0.68738 0.33043 0.41202
 C2243 C 0.69217 0.32252 0.42877
 N2244 N 0.70628 0.32849 0.43713
 N2245 N 0.71100 0.32118 0.45207
 C2246 C 0.70176 0.30763 0.45921
 N2247 N 0.68762 0.30172 0.45088
 N2248 N 0.68290 0.30902 0.43597
 C2249 C 0.70707 0.29881 0.47530
 C2250 C 0.72168 0.30368 0.48449
 H2251 H 0.69545 0.34096 0.40688
 H2252 H 0.69948 0.28757 0.47970
 H2253 H 0.66496 0.31433 0.40836
 H2254 H 0.72925 0.31501 0.48034
 C2255 C 0.67154 0.80877 0.89992
 C2256 C 0.68701 0.81374 0.90749
 C2257 C 0.69371 0.80457 0.92276
 N2258 N 0.70951 0.80885 0.92879
 N2259 N 0.71601 0.80024 0.94224
 C2260 C 0.70690 0.78703 0.95018
 N2261 N 0.69105 0.78284 0.94425
 N2262 N 0.68457 0.79144 0.93078
 C2263 C 0.71410 0.77690 0.96459
 C2264 C 0.73082 0.77964 0.97040
 H2265 H 0.69488 0.82413 0.90176
 H2266 H 0.70619 0.76649 0.97032
 H2267 H 0.66403 0.79809 0.90568
 H2268 H 0.73882 0.78997 0.96467
 C2269 C 0.16155 0.33794 0.90057
 C2270 C 0.17818 0.34157 0.90624
 C2271 C 0.18728 0.32939 0.91771
 N2272 N 0.20307 0.33370 0.92377
 N2273 N 0.21123 0.32291 0.93449
 C2274 C 0.20388 0.30740 0.93949
 N2275 N 0.18815 0.30306 0.93334
 N2276 N 0.18001 0.31384 0.92265
 C2277 C 0.21216 0.29567 0.95195
 C2278 C 0.22767 0.29982 0.95985
 H2279 H 0.18469 0.35364 0.90247
 H2280 H 0.20528 0.28377 0.95572
 H2281 H 0.15526 0.32581 0.90465
 H2282 H 0.23467 0.31166 0.95613
 C2283 C 0.18364 0.80907 0.37842
 C2284 C 0.19975 0.81282 0.38530
 C2285 C 0.20647 0.80245 0.39994
 N2286 N 0.22193 0.80665 0.40681
 N2287 N 0.22809 0.79735 0.42001
 C2288 C 0.21905 0.78348 0.42684
 N2289 N 0.20361 0.77926 0.41996
 N2290 N 0.19744 0.78857 0.40677
 C2291 C 0.22576 0.77311 0.44148
 C2292 C 0.24124 0.77756 0.44922
 H2293 H 0.20758 0.82345 0.37997
 H2294 H 0.21835 0.76190 0.44627
 H2295 H 0.17603 0.79844 0.38415
 H2296 H 0.24843 0.78891 0.44442
 C2297 C 0.68024 0.68566 0.57653
 C2298 C 0.67645 0.70090 0.56728
 C2299 C 0.68747 0.70698 0.55266
 N2300 N 0.68436 0.72255 0.54471
 N2301 N 0.69481 0.72853 0.53201
 C2302 C 0.70874 0.71914 0.52682
 N2303 N 0.71174 0.70353 0.53466
 N2304 N 0.70131 0.69756 0.54733
 C2305 C 0.72096 0.72581 0.51350
 C2306 C 0.71913 0.74201 0.50531
 H2307 H 0.66578 0.70902 0.57124
 H2308 H 0.73211 0.71789 0.51050
 H2309 H 0.69109 0.67783 0.57234
 H2310 H 0.70788 0.74990 0.50800
 C2311 C 0.66670 0.17062 0.10611
 C2312 C 0.66450 0.18785 0.10052
 C2313 C 0.67444 0.19482 0.08538
 N2314 N 0.67251 0.21163 0.07993
 N2315 N 0.68203 0.21807 0.06669
 C2316 C 0.69385 0.20793 0.05845
 N2317 N 0.69572 0.19114 0.06387
 N2318 N 0.68621 0.18472 0.07705
 C2319 C 0.70492 0.21482 0.04416
 C2320 C 0.70311 0.23160 0.03724
 H2321 H 0.65623 0.19655 0.10777
 H2322 H 0.71486 0.20638 0.03898
 H2323 H 0.67521 0.16231 0.09865
 H2324 H 0.69291 0.23991 0.04207
 C2325 C 0.20787 0.67625 0.10155
 C2326 C 0.20256 0.69123 0.09257
 C2327 C 0.21215 0.69895 0.07766
 N2328 N 0.20625 0.71379 0.07006
 N2329 N 0.21471 0.72114 0.05661
 C2330 C 0.22939 0.71389 0.05023
 N2331 N 0.23527 0.69901 0.05780
 N2332 N 0.22682 0.69166 0.07127
 C2333 C 0.23904 0.72195 0.03552
 C2334 C 0.23405 0.73760 0.02760
 H2335 H 0.19099 0.69791 0.09662
 H2336 H 0.25065 0.71550 0.03103
 H2337 H 0.21968 0.66988 0.09754
 H2338 H 0.22252 0.74418 0.03209
 C2339 C 0.13576 0.17234 0.59585
 C2340 C 0.13586 0.19018 0.59187
 C2341 C 0.14782 0.19749 0.57852
 N2342 N 0.14841 0.21496 0.57518
 N2343 N 0.16007 0.22172 0.56397
 C2344 C 0.17159 0.21122 0.55579
 N2345 N 0.17091 0.19377 0.55906
 N2346 N 0.15924 0.18704 0.57018
 C2347 C 0.18530 0.21832 0.54427
 C2348 C 0.18635 0.23585 0.53921
 H2349 H 0.12819 0.19910 0.59948
 H2350 H 0.19512 0.20936 0.53979
 H2351 H 0.14363 0.16373 0.58803
 H2352 H 0.17618 0.24478 0.54287
   
