data_POSCAR
  _audit_creation_date              2014-09-24
  _audit_creation_method            'ToBaCCo'
  _symmetry_space_group_name_H-M    'P1'
  _symmetry_Int_Tables_number       1
  _symmetry_cell_setting            triclinic
  loop_
  _symmetry_equiv_pos_as_xyz
 x,y,z
_cell_length_a 52.0066
_cell_length_b 51.8799
_cell_length_c 52.0061
_cell_angle_alpha 89.631700
_cell_angle_beta 90.362500
_cell_angle_gamma 89.812100
loop_
  _atom_site_label
  _atom_site_type_symbol
  _atom_site_fract_x
  _atom_site_fract_y
  _atom_site_fract_z
C1 C 0.24330 1.00361 -0.02230
 C2 C 0.25055 1.00904 0.00234
 C3 C 0.25045 1.03615 0.01160
 C4 C 0.25858 0.98913 0.02170
 C5 C 0.24528 0.97757 -0.03389
 C6 C 0.23386 1.02449 -0.03963
 C7 C 0.26547 1.05513 -0.00024
 C8 C 0.26584 1.08030 0.00919
 C9 C 0.25176 1.08712 0.03143
 C10 C 0.23645 1.06759 0.04283
 C11 C 0.23589 1.04264 0.03308
 C12 C 0.27894 0.99474 0.03859
 C13 C 0.28488 0.97843 0.05917
 C14 C 0.27120 0.95539 0.06318
 C15 C 0.25128 0.94930 0.04571
 C16 C 0.24474 0.96620 0.02550
 C17 C 0.22480 0.96837 -0.04897
 C18 C 0.22689 0.94501 -0.06193
 C19 C 0.24945 0.93025 -0.05993
 C20 C 0.26991 0.93925 -0.04469
 C21 C 0.26797 0.96289 -0.03202
 C22 C 0.21171 1.03870 -0.03359
 C23 C 0.20436 1.05978 -0.04880
 C24 C 0.21899 1.06690 -0.07032
 C25 C 0.24057 1.05199 -0.07685
 C26 C 0.24785 1.03087 -0.06170
 H27 H 0.27736 1.05031 -0.01656
 H28 H 0.27873 1.09361 -0.00018
 H29 H 0.22379 1.07142 0.05876
 H30 H 0.22391 1.02829 0.04230
 H31 H 0.28985 1.01236 0.03637
 H32 H 0.29976 0.98455 0.07237
 H33 H 0.22849 0.96160 0.01329
 H34 H 0.20717 0.97942 -0.05086
 H35 H 0.21076 0.93834 -0.07332
 H36 H 0.28759 0.92827 -0.04306
 H37 H 0.28432 0.96990 -0.02118
 H38 H 0.20056 1.03383 -0.01674
 H39 H 0.18770 1.07099 -0.04330
 H40 H 0.25191 1.05679 -0.09359
 H41 H 0.26488 1.01998 -0.06670
 H42 H 0.24045 0.93165 0.04769
 C43 C 0.75124 0.49256 0.47487
 C44 C 0.75352 0.48705 0.50045
 C45 C 0.75207 0.46027 0.51033
 C46 C 0.75883 0.50654 0.52049
 C47 C 0.75605 0.51880 0.46401
 C48 C 0.74341 0.47176 0.45692
 C49 C 0.73351 0.45384 0.52868
 C50 C 0.73474 0.43021 0.54157
 C51 C 0.75485 0.41279 0.53662
 C52 C 0.77286 0.41896 0.51747
 C53 C 0.77144 0.44249 0.50439
 C54 C 0.74184 0.52708 0.52500
 C55 C 0.74544 0.54293 0.54644
 C56 C 0.76588 0.53816 0.56369
 C57 C 0.78338 0.51829 0.55844
 C58 C 0.77988 0.50265 0.53710
 C59 C 0.77623 0.53426 0.47312
 C60 C 0.77909 0.55957 0.46441
 C61 C 0.76308 0.56970 0.44481
 C62 C 0.74415 0.55334 0.43429
 C63 C 0.74044 0.52847 0.44405
 C64 C 0.76058 0.46261 0.43836
 C65 C 0.75490 0.44019 0.42457
 C66 C 0.73195 0.42670 0.42918
 C67 C 0.71405 0.43704 0.44647
 C68 C 0.71970 0.45938 0.46015
 H69 H 0.71855 0.46750 0.53356
 H70 H 0.72027 0.42582 0.55580
 H71 H 0.78881 0.40619 0.51344
 H72 H 0.78623 0.44744 0.49067
 H73 H 0.72534 0.53018 0.51254
 H74 H 0.73167 0.55813 0.55017
 H75 H 0.79327 0.48698 0.53389
 H76 H 0.78974 0.52699 0.48732
 H77 H 0.79378 0.57104 0.47355
 H78 H 0.73204 0.55944 0.41843
 H79 H 0.72513 0.51683 0.43606
 H80 H 0.77895 0.47197 0.43562
 H81 H 0.76906 0.43262 0.41141
 H82 H 0.69601 0.42733 0.45004
 H83 H 0.70609 0.46639 0.47417
 H84 H 0.79954 0.51453 0.57118
 C85 C 0.75603 0.97508 0.98992
 C86 C 0.75024 1.00060 0.99257
 C87 C 0.75107 1.01377 1.01787
 C88 C 0.74255 1.01691 0.97040
 C89 C 0.75869 0.96242 0.96420
 C90 C 0.76034 0.95827 1.01289
 C91 C 0.73007 1.02882 1.02571
 C92 C 0.73079 1.04181 1.04913
 C93 C 0.75253 1.03998 1.06518
 C94 C 0.77370 1.02522 1.05718
 C95 C 0.77307 1.01242 1.03363
 C96 C 0.71922 1.01267 0.95760
 C97 C 0.71155 1.02894 0.93744
 C98 C 0.72743 1.04938 0.92925
 C99 C 0.75083 1.05346 0.94236
 C100 C 0.75804 1.03768 0.96303
 C101 C 0.77237 0.97406 0.94402
 C102 C 0.77619 0.96116 0.92081
 C103 C 0.76782 0.93554 0.91748
 C104 C 0.75436 0.92386 0.93790
 C105 C 0.74955 0.93722 0.96066
 C106 C 0.78279 0.94344 1.01467
 C107 C 0.78619 0.92575 1.03469
 C108 C 0.76708 0.92212 1.05360
 C109 C 0.74507 0.93815 1.05236
 C110 C 0.74163 0.95576 1.03208
 H111 H 0.71297 1.03030 1.01379
 H112 H 0.71414 1.05288 1.05495
 H113 H 0.79084 1.02381 1.06903
 H114 H 0.78979 1.00158 1.02763
 H115 H 0.70677 0.99706 0.96353
 H116 H 0.69306 1.02554 0.92847
 H117 H 0.77606 1.04126 0.97293
 H118 H 0.78080 0.99292 0.94632
 H119 H 0.78606 0.97142 0.90568
 H120 H 0.74805 0.90407 0.93688
 H121 H 0.73924 0.92748 0.97590
 H122 H 0.79766 0.94539 1.00029
 H123 H 0.80418 0.91526 1.03536
 H124 H 0.72954 0.93607 1.06595
 H125 H 0.72397 0.96683 1.03089
 H126 H 0.76390 1.06851 0.93646
 C127 C 0.25394 0.51410 0.48828
 C128 C 0.25635 0.48810 0.49182
 C129 C 0.25726 0.46968 0.47003
 C130 C 0.25728 0.47650 0.51815
 C131 C 0.24998 0.53148 0.51053
 C132 C 0.25567 0.52663 0.46254
 C133 C 0.23838 0.46994 0.45053
 C134 C 0.23790 0.45054 0.43191
 C135 C 0.25598 0.43038 0.43282
 C136 C 0.27529 0.43066 0.45181
 C137 C 0.27592 0.45009 0.47019
 C138 C 0.23937 0.45756 0.52511
 C139 C 0.23935 0.44724 0.55001
 C140 C 0.25730 0.45557 0.56848
 C141 C 0.27560 0.47415 0.56130
 C142 C 0.27572 0.48435 0.53633
 C143 C 0.22957 0.52734 0.52758
 C144 C 0.22804 0.54136 0.55031
 C145 C 0.24650 0.56020 0.55604
 C146 C 0.26574 0.56575 0.53805
 C147 C 0.26749 0.55143 0.51543
 C148 C 0.27623 0.52143 0.44593
 C149 C 0.27836 0.53465 0.42252
 C150 C 0.26023 0.55363 0.41551
 C151 C 0.23964 0.55870 0.43209
 C152 C 0.23739 0.54534 0.45534
 H153 H 0.22346 0.48454 0.45031
 H154 H 0.22267 0.45058 0.41760
 H155 H 0.28958 0.41544 0.45277
 H156 H 0.29065 0.44949 0.48501
 H157 H 0.22504 0.45118 0.51139
 H158 H 0.22488 0.43313 0.55498
 H159 H 0.29006 0.49854 0.53122
 H160 H 0.21549 0.51248 0.52380
 H161 H 0.21283 0.53704 0.56378
 H162 H 0.28018 0.58017 0.54213
 H163 H 0.28320 0.55508 0.50235
 H164 H 0.29094 0.50757 0.45134
 H165 H 0.29461 0.53061 0.41024
 H166 H 0.22525 0.57303 0.42705
 H167 H 0.22142 0.54974 0.46786
 H168 H 0.28996 0.48063 0.57495
 C169 C 0.96550 0.25078 0.01932
 C170 C 0.96592 0.24818 -0.00665
 C171 C 0.99015 0.25015 -0.02134
 C172 C 0.94353 0.23888 -0.02148
 C173 C 0.94285 0.24316 0.03465
 C174 C 0.98890 0.25856 0.03396
 C175 C 0.99298 0.26864 -0.04084
 C176 C 1.01551 0.26955 -0.05544
 C177 C 1.03573 0.25170 -0.05106
 C178 C 1.03202 0.23271 -0.03173
 C179 C 1.00971 0.23210 -0.01707
 C180 C 0.92496 0.25611 -0.03093
 C181 C 0.90738 0.24825 -0.04983
 C182 C 0.90830 0.22296 -0.05991
 C183 C 0.92575 0.20534 -0.04837
 C184 C 0.94330 0.21331 -0.02973
 C185 C 0.93647 0.21702 0.03723
 C186 C 0.91857 0.20918 0.05557
 C187 C 0.90669 0.22736 0.07154
 C188 C 0.91210 0.25365 0.06798
 C189 C 0.93027 0.26146 0.04984
 C190 C 1.00200 0.28130 0.02788
 C191 C 1.02501 0.28744 0.04042
 C192 C 1.03570 0.27098 0.05956
 C193 C 1.02156 0.24873 0.06632
 C194 C 0.99857 0.24267 0.05369
 H195 H 0.97782 0.28256 -0.04457
 H196 H 1.01712 0.28491 -0.06945
 H197 H 1.04569 0.21734 -0.02831
 H198 H 1.00740 0.21708 -0.00271
 H199 H 0.92516 0.27607 -0.02492
 H200 H 0.89473 0.26281 -0.05788
 H201 H 0.95747 0.19971 -0.02246
 H202 H 0.94646 0.20257 0.02614
 H203 H 0.91471 0.18880 0.05798
 H204 H 0.90343 0.26799 0.08029
 H205 H 0.93533 0.28165 0.04838
 H206 H 0.99450 0.29424 0.01320
 H207 H 1.03392 0.30553 0.03528
 H208 H 1.02875 0.23492 0.08026
 H209 H 0.98881 0.22494 0.05871
 H210 H 0.92630 0.18527 -0.05382
 C211 C 0.49672 0.73435 0.50490
 C212 C 0.50079 0.73090 0.53055
 C213 C 0.47934 0.72726 0.54891
 C214 C 0.52697 0.72857 0.54180
 C215 C 0.51809 0.73423 0.48572
 C216 C 0.47042 0.73443 0.49370
 C217 C 0.46105 0.74670 0.55332
 C218 C 0.44318 0.74398 0.57326
 C219 C 0.44354 0.72188 0.58910
 C220 C 0.46107 0.70202 0.58370
 C221 C 0.47880 0.70473 0.56392
 C222 C 0.53494 0.74617 0.56056
 C223 C 0.55906 0.74366 0.57229
 C224 C 0.57558 0.72327 0.56569
 C225 C 0.56737 0.70546 0.54706
 C226 C 0.54325 0.70804 0.53529
 C227 C 0.51582 0.71836 0.46406
 C228 C 0.53499 0.71757 0.44559
 C229 C 0.55760 0.73206 0.44840
 C230 C 0.55985 0.74844 0.46982
 C231 C 0.54013 0.74975 0.48814
 C232 C 0.45667 0.71125 0.49208
 C233 C 0.43713 0.70856 0.47371
 C234 C 0.43074 0.72919 0.45722
 C235 C 0.44249 0.75320 0.46094
 C236 C 0.46242 0.75571 0.47888
 H237 H 0.46132 0.76433 0.54207
 H238 H 0.42995 0.75963 0.57707
 H239 H 0.46147 0.68457 0.59525
 H240 H 0.49263 0.68944 0.56072
 H241 H 0.52247 0.76195 0.56601
 H242 H 0.56489 0.75787 0.58630
 H243 H 0.53713 0.69390 0.52132
 H244 H 0.49912 0.70628 0.46130
 H245 H 0.53188 0.70553 0.42895
 H246 H 0.57693 0.75996 0.47264
 H247 H 0.54217 0.76275 0.50421
 H248 H 0.46289 0.69449 0.50301
 H249 H 0.42834 0.68986 0.47104
 H250 H 0.43803 0.76926 0.44826
 H251 H 0.47306 0.77361 0.47966
 H252 H 0.57942 0.68928 0.54189
 C253 C -0.01470 0.77849 0.01707
 C254 C 0.01123 0.77608 0.01433
 C255 C 0.02330 0.77129 -0.01112
 C256 C 0.02908 0.77969 0.03628
 C257 C -0.02713 0.77731 0.04278
 C258 C -0.03143 0.78229 -0.00589
 C259 C 0.01411 0.75184 -0.02737
 C260 C 0.02571 0.74733 -0.05108
 C261 C 0.04748 0.76155 -0.05881
 C262 C 0.05672 0.78084 -0.04212
 C263 C 0.04472 0.78569 -0.01874
 C264 C 0.04700 0.76038 0.04257
 C265 C 0.06616 0.76498 0.06085
 C266 C 0.06805 0.78920 0.07255
 C267 C 0.04973 0.80833 0.06673
 C268 C 0.03019 0.80351 0.04887
 C269 C -0.04777 0.79372 0.04852
 C270 C -0.06008 0.79206 0.07227
 C271 C -0.05174 0.77421 0.09121
 C272 C -0.03096 0.75782 0.08524
 C273 C -0.01927 0.75898 0.06121
 C274 C -0.05185 0.76549 -0.01086
 C275 C -0.06534 0.76703 -0.03417
 C276 C -0.05852 0.78538 -0.05317
 C277 C -0.03919 0.80340 -0.04695
 C278 C -0.02598 0.80193 -0.02360
 H279 H -0.00188 0.73988 -0.02157
 H280 H 0.01831 0.73167 -0.06257
 H281 H 0.07270 0.79304 -0.04738
 H282 H 0.05211 0.80091 -0.00663
 H283 H 0.04650 0.74200 0.03282
 H284 H 0.08029 0.75010 0.06490
 H285 H 0.01670 0.81873 0.04392
 H286 H -0.05433 0.80797 0.03462
 H287 H -0.07548 0.80557 0.07601
 H288 H -0.02450 0.74297 0.09851
 H289 H -0.00431 0.74515 0.05690
 H290 H -0.05646 0.75031 0.00273
 H291 H -0.07972 0.75248 -0.03780
 H292 H -0.03420 0.81893 -0.05994
 H293 H -0.01082 0.81566 -0.01968
 H294 H 0.05098 0.82715 0.07554
 C295 C 0.45480 0.26542 0.50296
 C296 C 0.48042 0.26045 0.50284
 C297 C 0.49386 0.25253 0.47919
 C298 C 0.49687 0.26254 0.52600
 C299 C 0.44019 0.26732 0.52727
 C300 C 0.44065 0.26844 0.47833
 C301 C 0.48922 0.22816 0.46868
 C302 C 0.50508 0.21867 0.44932
 C303 C 0.52548 0.23364 0.44000
 C304 C 0.52910 0.25864 0.44950
 C305 C 0.51357 0.26791 0.46918
 C306 C 0.50960 0.24055 0.53551
 C307 C 0.52973 0.24297 0.55318
 C308 C 0.53789 0.26747 0.56100
 C309 C 0.52434 0.28940 0.55243
 C310 C 0.50375 0.28691 0.53521
 C311 C 0.42270 0.28759 0.53115
 C312 C 0.40912 0.28933 0.55424
 C313 C 0.41293 0.27082 0.57373
 C314 C 0.42973 0.25009 0.56941
 C315 C 0.44302 0.24823 0.54633
 C316 C 0.44829 0.28737 0.46062
 C317 C 0.43706 0.28856 0.43625
 C318 C 0.41791 0.27089 0.42916
 C319 C 0.40938 0.25275 0.44741
 C320 C 0.42066 0.25158 0.47188
 H321 H 0.47423 0.21598 0.47644
 H322 H 0.50203 0.19932 0.44225
 H323 H 0.54492 0.27038 0.44277
 H324 H 0.51746 0.28670 0.47726
 H325 H 0.50478 0.22165 0.52821
 H326 H 0.54012 0.22585 0.55932
 H327 H 0.49443 0.30408 0.52763
 H328 H 0.41992 0.30230 0.51652
 H329 H 0.39623 0.30547 0.55718
 H330 H 0.43253 0.23527 0.58393
 H331 H 0.45551 0.23180 0.54334
 H332 H 0.46343 0.30080 0.46550
 H333 H 0.44359 0.30313 0.42281
 H334 H 0.39472 0.23885 0.44243
 H335 H 0.41454 0.23690 0.48539
 H336 H 0.53046 0.30846 0.55818
 C337 C 1.01326 0.01977 0.24372
 C338 C 1.01270 -0.00518 0.25223
 C339 C 1.03629 -0.02060 0.25733
 C340 C 0.98794 -0.01883 0.25686
 C341 C 0.98897 0.03442 0.23964
 C342 C 1.03749 0.03435 0.23952
 C343 C 1.05380 -0.02657 0.23784
 C344 C 1.07400 -0.04402 0.24258
 C345 C 1.07691 -0.05616 0.26691
 C346 C 1.05998 -0.04851 0.28665
 C347 C 1.03991 -0.03130 0.28182
 C348 C 0.98290 -0.04193 0.24404
 C349 C 0.95931 -0.05435 0.24691
 C350 C 0.93981 -0.04383 0.26253
 C351 C 0.94538 -0.02088 0.27593
 C352 C 0.96930 -0.00889 0.27353
 C353 C 0.98375 0.05576 0.25520
 C354 C 0.95936 0.06706 0.25493
 C355 C 0.93983 0.05726 0.23900
 C356 C 0.94570 0.03708 0.22206
 C357 C 0.97016 0.02588 0.22223
 C358 C 1.05731 0.03466 0.25804
 C359 C 1.07930 0.04955 0.25406
 C360 C 1.08142 0.06508 0.23199
 C361 C 1.06147 0.06526 0.21377
 C362 C 1.03980 0.04990 0.21742
 H363 H 1.05116 -0.01861 0.21870
 H364 H 1.08605 -0.04914 0.22653
 H365 H 1.06212 -0.05556 0.30615
 H366 H 1.02684 -0.02655 0.29724
 H367 H 0.99705 -0.05003 0.23116
 H368 H 0.95606 -0.07146 0.23559
 H369 H 0.97313 0.00842 0.28440
 H370 H 0.99809 0.06266 0.26866
 H371 H 0.95537 0.08249 0.26827
 H372 H 0.93113 0.02947 0.20925
 H373 H 0.97404 0.00968 0.20978
 H374 H 1.05562 0.02381 0.27578
 H375 H 1.09444 0.04942 0.26847
 H376 H 1.06283 0.07707 0.19658
 H377 H 1.02468 0.05026 0.20299
 H378 H 0.93170 -0.01249 0.28905
 C379 C 0.51133 0.51568 0.75073
 C380 C 0.51143 0.48939 0.75087
 C381 C 0.53503 0.47345 0.74617
 C382 C 0.48759 0.47525 0.75758
 C383 C 0.48668 0.53030 0.75119
 C384 C 0.53534 0.53073 0.75325
 C385 C 0.55330 0.48058 0.72765
 C386 C 0.57414 0.46443 0.72215
 C387 C 0.57671 0.44006 0.73411
 C388 C 0.55833 0.43302 0.75262
 C389 C 0.53812 0.44958 0.75881
 C390 C 0.47641 0.45799 0.74018
 C391 C 0.45509 0.44335 0.74745
 C392 C 0.44510 0.44541 0.77239
 C393 C 0.45612 0.46298 0.78962
 C394 C 0.47712 0.47787 0.78223
 C395 C 0.48204 0.54851 0.77047
 C396 C 0.45796 0.56040 0.77234
 C397 C 0.43814 0.55422 0.75498
 C398 C 0.44318 0.53679 0.73507
 C399 C 0.46728 0.52512 0.73306
 C400 C 0.55141 0.52686 0.77464
 C401 C 0.57348 0.54171 0.77780
 C402 C 0.58029 0.56046 0.75936
 C403 C 0.56386 0.56449 0.73807
 C404 C 0.54140 0.54996 0.73524
 H405 H 0.55122 0.49835 0.71684
 H406 H 0.58800 0.47109 0.70823
 H407 H 0.55889 0.41435 0.76195
 H408 H 0.52445 0.44328 0.77313
 H409 H 0.48441 0.45565 0.72116
 H410 H 0.44702 0.42972 0.73397
 H411 H 0.48572 0.49094 0.79596
 H412 H 0.49673 0.55283 0.78464
 H413 H 0.45454 0.57373 0.78790
 H414 H 0.42839 0.53208 0.72113
 H415 H 0.47065 0.51154 0.71770
 H416 H 0.54660 0.51259 0.78911
 H417 H 0.58509 0.53859 0.79488
 H418 H 0.56853 0.57852 0.72336
 H419 H 0.52898 0.55338 0.71877
 H420 H 0.44867 0.46487 0.80892
 C421 C 1.02772 1.00861 0.73513
 C422 C 1.00239 1.00194 0.73457
 C423 C 0.99422 0.97459 0.73386
 C424 C 0.98062 1.02036 0.73239
 C425 C 1.03737 1.03576 0.73587
 C426 C 1.04751 0.98795 0.73374
 C427 C 0.99785 0.95987 0.71164
 C428 C 0.98548 0.93619 0.70894
 C429 C 0.96910 0.92696 0.72833
 C430 C 0.96640 0.94127 0.75100
 C431 C 0.97879 0.96492 0.75368
 C432 C 0.96388 1.01780 0.71136
 C433 C 0.94019 1.03024 0.71094
 C434 C 0.93252 1.04609 0.73143
 C435 C 0.95040 1.05038 0.75159
 C436 C 0.97406 1.03722 0.75229
 C437 C 1.05987 1.04111 0.74993
 C438 C 1.07059 1.06572 0.74990
 C439 C 1.05867 1.08632 0.73657
 C440 C 1.03589 1.08097 0.72272
 C441 C 1.02592 1.05596 0.72169
 C442 C 1.05264 0.97168 0.75477
 C443 C 1.06992 0.95106 0.75241
 C444 C 1.08187 0.94583 0.72864
 C445 C 1.07709 0.96301 0.70794
 C446 C 1.06037 0.98391 0.71059
 H447 H 1.00903 0.96741 0.69580
 H448 H 0.98767 0.92576 0.69111
 H449 H 0.95423 0.93445 0.76641
 H450 H 0.97552 0.97624 0.77080
 H451 H 0.96873 1.00519 0.69559
 H452 H 0.92800 1.02746 0.69425
 H453 H 0.98663 1.03922 0.76883
 H454 H 1.06957 1.02602 0.76076
 H455 H 1.08859 1.06813 0.76004
 H456 H 1.02555 1.09591 0.71241
 H457 H 1.00952 1.05260 0.70934
 H458 H 1.04283 0.97463 0.77283
 H459 H 1.07247 0.93838 0.76882
 H460 H 1.08662 0.96079 0.68965
 H461 H 1.05682 0.99653 0.69426
 H462 H 0.94545 1.06225 0.76787
 C463 C 0.50236 0.50698 0.25367
 C464 C 0.52782 0.50131 0.25575
 C465 C 0.53703 0.47410 0.25679
 C466 C 0.54786 0.52177 0.25659
 C467 C 0.49266 0.53336 0.24841
 C468 C 0.48228 0.48684 0.25527
 C469 C 0.55419 0.46610 0.27624
 C470 C 0.56435 0.44110 0.27631
 C471 C 0.55751 0.42362 0.25692
 C472 C 0.54037 0.43169 0.23745
 C473 C 0.53042 0.45673 0.23726
 C474 C 0.54604 0.54263 0.27365
 C475 C 0.56634 0.56015 0.27607
 C476 C 0.58898 0.55674 0.26193
 C477 C 0.59056 0.53626 0.24450
 C478 C 0.57019 0.51904 0.24178
 C479 C 0.49737 0.54534 0.22466
 C480 C 0.48353 0.56743 0.21742
 C481 C 0.46503 0.57794 0.23397
 C482 C 0.46167 0.56686 0.25842
 C483 C 0.47519 0.54461 0.26547
 C484 C 0.46705 0.48154 0.23360
 C485 C 0.44609 0.46491 0.23550
 C486 C 0.43960 0.45386 0.25929
 C487 C 0.45508 0.45887 0.28093
 C488 C 0.47645 0.47508 0.27887
 H489 H 0.55980 0.47930 0.29131
 H490 H 0.57742 0.43536 0.29161
 H491 H 0.53515 0.41880 0.22198
 H492 H 0.51801 0.46272 0.22152
 H493 H 0.52938 0.54483 0.28581
 H494 H 0.56484 0.57564 0.28984
 H495 H 0.57210 0.50315 0.22851
 H496 H 0.51052 0.53668 0.21113
 H497 H 0.48648 0.57567 0.19849
 H498 H 0.44731 0.57435 0.27141
 H499 H 0.47114 0.53543 0.28376
 H500 H 0.47115 0.49070 0.21531
 H501 H 0.43428 0.46152 0.21864
 H502 H 0.45039 0.45053 0.29945
 H503 H 0.48783 0.47927 0.29584
 H504 H 0.60779 0.53335 0.23327
 O505 O 0.26012 0.21481 0.16900
 O506 O 0.29300 0.20483 0.19986
 O507 O 0.19309 0.22198 0.21494
 O508 O 0.17801 0.24739 0.24523
 O509 O 0.21207 0.28101 0.15613
 O510 O 0.24206 0.31481 0.15447
 O511 O 0.25124 0.28641 0.29283
 O512 O 0.22896 0.24732 0.29237
 O513 O 0.31928 0.27439 0.25258
 O514 O 0.32969 0.25725 0.20965
 O515 O 0.27485 0.33872 0.23846
 O516 O 0.23542 0.34722 0.21129
 O517 O 0.24336 0.32384 0.27132
 O518 O 0.21016 0.33482 0.23820
 O519 O 0.31051 0.31575 0.22793
 O520 O 0.32240 0.28994 0.18997
 O521 O 0.29129 0.26171 0.28350
 O522 O 0.26247 0.22319 0.28348
 O523 O 0.25295 0.25163 0.14605
 O524 O 0.27525 0.29289 0.14785
 O525 O 0.18374 0.26585 0.18563
 O526 O 0.17542 0.28502 0.22845
 O527 O 0.22931 0.19910 0.20626
 O528 O 0.26859 0.19242 0.22887
 Zr529 Zr 0.25913 0.22600 0.20754
 O530 O 0.28067 0.24544 0.23554
 Zr531 Zr 0.20640 0.26022 0.21924
 O532 O 0.22559 0.28091 0.24848
 Zr533 Zr 0.24785 0.27986 0.17481
 O534 O 0.26832 0.30213 0.20182
 Zr535 Zr 0.25578 0.25876 0.26415
 O536 O 0.23442 0.23679 0.23753
 Zr537 Zr 0.29658 0.27887 0.21933
 O538 O 0.27792 0.25742 0.19031
 Zr539 Zr 0.24408 0.31308 0.23217
 O540 O 0.22271 0.29375 0.20322
 O541 O 0.22994 0.24736 0.18994
 O542 O 0.27339 0.29153 0.24927
 C543 C 0.25725 0.22721 0.14773
 C544 C 0.20508 0.20071 0.21046
 C545 C 0.18928 0.27490 0.16321
 C546 C 0.24682 0.31075 0.29216
 C547 C 0.31387 0.26800 0.27581
 C548 C 0.29931 0.33629 0.23578
 H549 H 0.29408 0.23379 0.24255
 H550 H 0.27590 0.31726 0.19312
 H551 H 0.22000 0.23732 0.17719
 H552 H 0.21323 0.28589 0.26195
 H553 H 0.21724 0.23485 0.28405
 H554 H 0.18395 0.25205 0.26268
 H555 H 0.31529 0.30548 0.18137
 H556 H 0.29048 0.28152 0.14977
 H557 H 0.27947 0.21647 0.27832
 H558 H 0.25771 0.19263 0.24442
 H559 H 0.24981 0.35063 0.19941
 H560 H 0.23046 0.32538 0.16515
 H561 H 0.30413 0.21620 0.18942
 H562 H 0.32924 0.24090 0.21951
 H563 H 0.17722 0.30068 0.21763
 H564 H 0.19977 0.32561 0.25117
 O565 O 0.75236 0.82082 0.22000
 O566 O 0.71448 0.82824 0.24603
 O567 O 0.81273 0.81493 0.27480
 O568 O 0.82175 0.79194 0.31026
 O569 O 0.80490 0.75918 0.21545
 O570 O 0.77822 0.72174 0.21010
 O571 O 0.75048 0.74632 0.34535
 O572 O 0.76766 0.78953 0.34618
 O573 O 0.68629 0.75132 0.29592
 O574 O 0.67738 0.77190 0.25685
 O575 O 0.73583 0.69347 0.28431
 O576 O 0.77912 0.68882 0.26568
 O577 O 0.76017 0.70974 0.32338
 O578 O 0.79855 0.70151 0.29651
 O579 O 0.70038 0.71441 0.26921
 O580 O 0.69282 0.74506 0.23062
 O581 O 0.70835 0.76638 0.33058
 O582 O 0.72748 0.80532 0.33486
 O583 O 0.76412 0.78394 0.19983
 O584 O 0.74537 0.74180 0.19740
 O585 O 0.82772 0.77246 0.25038
 O586 O 0.83116 0.75489 0.29402
 O587 O 0.77721 0.83720 0.26164
 O588 O 0.73297 0.84135 0.27828
 Zr589 Zr 0.74806 0.80892 0.25896
 O590 O 0.72421 0.78705 0.28371
 Zr591 Zr 0.79997 0.77695 0.27935
 O592 O 0.77848 0.75409 0.30478
 Zr593 Zr 0.76698 0.75601 0.22880
 O594 O 0.74411 0.73196 0.25179
 Zr595 Zr 0.74521 0.77405 0.31594
 O596 O 0.76835 0.79862 0.29289
 Zr597 Zr 0.71250 0.75301 0.26539
 O598 O 0.73365 0.77644 0.23946
 Zr599 Zr 0.76480 0.72156 0.28508
 O600 O 0.78890 0.74299 0.26042
 O601 O 0.78038 0.78910 0.24659
 O602 O 0.73229 0.74061 0.29812
 C603 C 0.75892 0.80812 0.19981
 C604 C 0.80114 0.83581 0.26804
 C605 C 0.82596 0.76556 0.22674
 C606 C 0.75564 0.72212 0.34414
 C607 C 0.68831 0.75659 0.31995
 C608 C 0.71213 0.69402 0.27723
 H609 H 0.70921 0.79741 0.28915
 H610 H 0.73884 0.71689 0.24151
 H611 H 0.79143 0.79975 0.23536
 H612 H 0.78943 0.74948 0.31972
 H613 H 0.77531 0.80575 0.33967
 H614 H 0.81314 0.78652 0.32628
 H615 H 0.69968 0.72860 0.22400
 H616 H 0.72918 0.75187 0.19674
 H617 H 0.73315 0.82107 0.32584
 H618 H 0.74480 0.84528 0.29270
 H619 H 0.76833 0.68622 0.25019
 H620 H 0.79133 0.71338 0.22127
 H621 H 0.70690 0.81754 0.23224
 H622 H 0.68118 0.79051 0.25571
 H623 H 0.83160 0.73867 0.28412
 H624 H 0.80615 0.71069 0.31132
 O625 O 0.72537 0.16501 0.76856
 O626 O 0.69714 0.16287 0.73239
 O627 O 0.79905 0.17996 0.73440
 O628 O 0.81629 0.20946 0.70866
 O629 O 0.77381 0.22413 0.79931
 O630 O 0.74500 0.25919 0.80384
 O631 O 0.75108 0.25803 0.66212
 O632 O 0.77135 0.21915 0.65803
 O633 O 0.67745 0.24191 0.69233
 O634 O 0.66222 0.21675 0.72929
 O635 O 0.72061 0.30053 0.72258
 O636 O 0.75526 0.30431 0.75270
 O637 O 0.75587 0.29080 0.69053
 O638 O 0.78545 0.29323 0.73043
 O639 O 0.68382 0.27710 0.72561
 O640 O 0.66802 0.24347 0.75633
 O641 O 0.70894 0.23621 0.66273
 O642 O 0.73259 0.19635 0.65886
 O643 O 0.73043 0.19617 0.79875
 O644 O 0.71026 0.23865 0.80239
 O645 O 0.80454 0.21539 0.76968
 O646 O 0.81767 0.24318 0.73276
 O647 O 0.76277 0.15558 0.73388
 O648 O 0.72913 0.15218 0.70698
 Zr649 Zr 0.73254 0.18294 0.73332
 O650 O 0.71393 0.20830 0.70744
 Zr651 Zr 0.78573 0.21800 0.73388
 O652 O 0.77002 0.24434 0.70715
 Zr653 Zr 0.74028 0.22929 0.77682
 O654 O 0.72293 0.25703 0.75228
 Zr655 Zr 0.74165 0.22638 0.68472
 O656 O 0.76018 0.19897 0.70865
 Zr657 Zr 0.69655 0.23853 0.72791
 O658 O 0.71219 0.21115 0.75403
 Zr659 Zr 0.75021 0.27320 0.72708
 O660 O 0.76820 0.24811 0.75428
 O661 O 0.75929 0.19992 0.75767
 O662 O 0.72281 0.25624 0.70344
 C663 C 0.72475 0.17305 0.79180
 C664 C 0.78740 0.15821 0.73425
 C665 C 0.79697 0.21844 0.79293
 C666 C 0.75579 0.28156 0.66757
 C667 C 0.68568 0.24144 0.66912
 C668 C 0.69604 0.29841 0.72281
 H669 H 0.70139 0.19891 0.69666
 H670 H 0.71450 0.27040 0.76276
 H671 H 0.76726 0.18715 0.76951
 H672 H 0.78400 0.25137 0.69642
 H673 H 0.78104 0.20400 0.66456
 H674 H 0.81200 0.21747 0.69188
 H675 H 0.67360 0.25761 0.76773
 H676 H 0.69514 0.22841 0.79705
 H677 H 0.74297 0.18120 0.66421
 H678 H 0.71931 0.15861 0.69188
 H679 H 0.74359 0.30147 0.76737
 H680 H 0.75873 0.27048 0.79707
 H681 H 0.68510 0.17238 0.74357
 H682 H 0.66355 0.20289 0.71640
 H683 H 0.81546 0.25571 0.74686
 H684 H 0.79622 0.28845 0.71557
 O685 O 0.24190 0.79670 0.79889
 O686 O 0.27565 0.80130 0.76818
 O687 O 0.18017 0.77387 0.74420
 O688 O 0.16967 0.74061 0.72101
 O689 O 0.19154 0.73562 0.81949
 O690 O 0.22068 0.70169 0.83279
 O691 O 0.25035 0.69477 0.69621
 O692 O 0.22542 0.73275 0.68405
 O693 O 0.31120 0.72245 0.74070
 O694 O 0.31487 0.75014 0.77899
 O695 O 0.26685 0.66062 0.76615
 O696 O 0.22468 0.65704 0.78797
 O697 O 0.24010 0.66481 0.72643
 O698 O 0.20317 0.66059 0.75580
 O699 O 0.30054 0.68763 0.77231
 O700 O 0.30596 0.72287 0.80502
 O701 O 0.28783 0.72587 0.70379
 O702 O 0.25921 0.75810 0.68869
 O703 O 0.23310 0.76517 0.82807
 O704 O 0.25147 0.72580 0.84036
 O705 O 0.16773 0.73916 0.78281
 O706 O 0.16630 0.70888 0.74595
 O707 O 0.21201 0.80154 0.75582
 O708 O 0.25282 0.80499 0.73543
 Zr709 Zr 0.24354 0.77686 0.76344
 O710 O 0.26934 0.75208 0.74436
 Zr711 Zr 0.19482 0.73708 0.75294
 O712 O 0.21845 0.71068 0.73338
 Zr713 Zr 0.22951 0.73156 0.80647
 O714 O 0.25479 0.70494 0.78961
 Zr715 Zr 0.24973 0.72990 0.71673
 O716 O 0.22438 0.75697 0.73366
 Zr717 Zr 0.28423 0.72475 0.77047
 O718 O 0.26074 0.75136 0.79017
 Zr719 Zr 0.23517 0.68528 0.76043
 O720 O 0.20902 0.70973 0.77947
 O721 O 0.21308 0.75850 0.78141
 O722 O 0.26591 0.70322 0.74216
 C723 C 0.23870 0.78848 0.82208
 C724 C 0.18942 0.79660 0.74701
 C725 C 0.17000 0.73792 0.80741
 C726 C 0.24618 0.67137 0.70348
 C727 C 0.30919 0.72310 0.71608
 C728 C 0.29088 0.66502 0.76983
 H729 H 0.28318 0.76246 0.73656
 H730 H 0.26169 0.69305 0.80289
 H731 H 0.20171 0.77107 0.79004
 H732 H 0.20823 0.70158 0.72019
 H733 H 0.21399 0.74778 0.68679
 H734 H 0.17857 0.73296 0.70614
 H735 H 0.30019 0.70763 0.81493
 H736 H 0.26860 0.73332 0.83697
 H737 H 0.26947 0.77159 0.69725
 H738 H 0.24331 0.80029 0.71959
 H739 H 0.23619 0.65888 0.80306
 H740 H 0.20825 0.69023 0.82404
 H741 H 0.28649 0.79338 0.78182
 H742 H 0.31580 0.76304 0.76493
 H743 H 0.16636 0.69699 0.76092
 H744 H 0.19430 0.66551 0.73961
 O745 O 0.24382 0.35257 0.74362
 O746 O 0.21504 0.35963 0.77872
 O747 O 0.30418 0.30849 0.78310
 O748 O 0.30903 0.27059 0.80190
 O749 O 0.27383 0.28478 0.70782
 O750 O 0.23452 0.26190 0.69635
 O751 O 0.22623 0.24066 0.83455
 O752 O 0.26118 0.27013 0.84539
 O753 O 0.16681 0.28104 0.80566
 O754 O 0.16574 0.32175 0.77510
 O755 O 0.19064 0.22225 0.76383
 O756 O 0.22772 0.21248 0.73604
 O757 O 0.22102 0.21417 0.80018
 O758 O 0.25318 0.20574 0.76511
 O759 O 0.16410 0.25721 0.76320
 O760 O 0.16109 0.29864 0.74351
 O761 O 0.19718 0.27836 0.83712
 O762 O 0.23041 0.30234 0.84961
 O763 O 0.24224 0.32511 0.70981
 O764 O 0.21076 0.29470 0.69703
 O765 O 0.30220 0.27830 0.74063
 O766 O 0.30231 0.24331 0.77244
 O767 O 0.27831 0.34393 0.78052
 O768 O 0.24117 0.35385 0.80795
 Zr769 Zr 0.24107 0.32837 0.77632
 O770 O 0.21361 0.30707 0.79729
 Zr771 Zr 0.28004 0.27751 0.77397
 O772 O 0.25419 0.25390 0.79406
 Zr773 Zr 0.23804 0.28854 0.72677
 O774 O 0.20979 0.26609 0.74511
 Zr775 Zr 0.23187 0.27720 0.81780
 O776 O 0.25968 0.30070 0.80002
 Zr777 Zr 0.18872 0.28816 0.77171
 O778 O 0.21469 0.31162 0.75050
 Zr779 Zr 0.22786 0.23764 0.76791
 O780 O 0.25611 0.25852 0.74739
 O781 O 0.26350 0.30661 0.75163
 O782 O 0.20591 0.25899 0.79332
 C783 C 0.24391 0.34782 0.71935
 C784 C 0.30024 0.33291 0.78403
 C785 C 0.29673 0.28084 0.71667
 C786 C 0.22124 0.21874 0.82440
 C787 C 0.17384 0.27747 0.82930
 C788 C 0.16839 0.23288 0.76153
 H789 H 0.20422 0.31855 0.80913
 H790 H 0.19861 0.25864 0.73164
 H791 H 0.27640 0.31726 0.74258
 H792 H 0.26365 0.24071 0.80418
 H793 H 0.27413 0.28394 0.84331
 H794 H 0.30080 0.26182 0.81662
 H795 H 0.16602 0.28979 0.72748
 H796 H 0.19844 0.30771 0.70343
 H797 H 0.24184 0.31692 0.84550
 H798 H 0.25514 0.34826 0.81974
 H799 H 0.21555 0.21961 0.72312
 H800 H 0.24541 0.24687 0.70100
 H801 H 0.20082 0.35588 0.76659
 H802 H 0.16471 0.32625 0.79353
 H803 H 0.29589 0.23329 0.75760
 H804 H 0.26382 0.20507 0.78093
 O805 O 0.78106 0.66495 0.71946
 O806 O 0.80889 0.66557 0.75675
 O807 O 0.71362 0.70334 0.74618
 O808 O 0.70415 0.74222 0.76300
 O809 O 0.74721 0.72424 0.67279
 O810 O 0.78339 0.74946 0.66063
 O811 O 0.77904 0.78706 0.79612
 O812 O 0.74999 0.75573 0.80963
 O813 O 0.84603 0.74813 0.77494
 O814 O 0.85364 0.70788 0.74782
 O815 O 0.81824 0.80211 0.72559
 O816 O 0.78089 0.80393 0.69458
 O817 O 0.78378 0.81041 0.75930
 O818 O 0.75455 0.81172 0.72171
 O819 O 0.84794 0.77045 0.73199
 O820 O 0.85639 0.72874 0.71517
 O821 O 0.81465 0.75465 0.80445
 O822 O 0.77872 0.72572 0.81758
 O823 O 0.78163 0.68829 0.68232
 O824 O 0.81134 0.72105 0.66810
 O825 O 0.71507 0.73074 0.70143
 O826 O 0.70836 0.76763 0.72927
 O827 O 0.74497 0.67369 0.75433
 O828 O 0.77993 0.67163 0.78344
 Zr829 Zr 0.77963 0.69287 0.74862
 O830 O 0.80316 0.71928 0.76804
 Zr831 Zr 0.73458 0.73712 0.73668
 O832 O 0.75654 0.76574 0.75553
 Zr833 Zr 0.78112 0.72684 0.69449
 O834 O 0.80495 0.75479 0.71123
 Zr835 Zr 0.78031 0.74866 0.78368
 O836 O 0.75630 0.72041 0.76694
 Zr837 Zr 0.82656 0.73782 0.74110
 O838 O 0.80520 0.70913 0.72204
 Zr839 Zr 0.78248 0.78291 0.72958
 O840 O 0.75829 0.75639 0.71000
 O841 O 0.75636 0.70840 0.71974
 O842 O 0.80544 0.76708 0.75848
 C843 C 0.78160 0.66682 0.69479
 C844 C 0.72131 0.68058 0.75293
 C845 C 0.72335 0.72633 0.67857
 C846 C 0.78165 0.80843 0.78386
 C847 C 0.83833 0.75411 0.79754
 C848 C 0.84157 0.79372 0.72664
 H849 H 0.81348 0.71025 0.78133
 H850 H 0.81593 0.76222 0.69764
 H851 H 0.74535 0.69533 0.71137
 H852 H 0.74493 0.77859 0.76330
 H853 H 0.73664 0.74260 0.80620
 H854 H 0.70938 0.75585 0.77514
 H855 H 0.85180 0.73661 0.69838
 H856 H 0.82384 0.70927 0.67657
 H857 H 0.79413 0.71452 0.81833
 H858 H 0.76915 0.68139 0.79563
 H859 H 0.79537 0.79807 0.68382
 H860 H 0.77180 0.76440 0.66310
 H861 H 0.82275 0.66870 0.74416
 H862 H 0.85211 0.70214 0.76592
 H863 H 0.71523 0.77753 0.71451
 H864 H 0.74129 0.81067 0.73522
 O865 O 0.27078 0.68613 0.26194
 O866 O 0.24279 0.68799 0.22539
 O867 O 0.33778 0.72596 0.23681
 O868 O 0.34740 0.76511 0.22147
 O869 O 0.30370 0.74370 0.31072
 O870 O 0.26754 0.76796 0.32336
 O871 O 0.27198 0.81138 0.18875
 O872 O 0.30188 0.78001 0.17499
 O873 O 0.20513 0.77053 0.20807
 O874 O 0.19536 0.73398 0.23383
 O875 O 0.23409 0.82499 0.25821
 O876 O 0.26936 0.82525 0.29028
 O877 O 0.27189 0.83368 0.22629
 O878 O 0.29815 0.83153 0.26585
 O879 O 0.20391 0.79395 0.25196
 O880 O 0.19674 0.74912 0.26919
 O881 O 0.23687 0.78065 0.17993
 O882 O 0.26772 0.75203 0.16547
 O883 O 0.26865 0.70798 0.29964
 O884 O 0.23910 0.74105 0.31437
 O885 O 0.33571 0.74945 0.28163
 O886 O 0.34255 0.78891 0.25537
 O887 O 0.30717 0.69637 0.22680
 O888 O 0.26940 0.69495 0.19832
 Zr889 Zr 0.27190 0.71517 0.23348
 O890 O 0.24838 0.74281 0.21507
 Zr891 Zr 0.31647 0.75882 0.24695
 O892 O 0.29495 0.78833 0.22873
 Zr893 Zr 0.26987 0.74713 0.28865
 O894 O 0.24649 0.77631 0.27254
 Zr895 Zr 0.27098 0.77270 0.20027
 O896 O 0.29511 0.74342 0.21590
 Zr897 Zr 0.22477 0.76079 0.24222
 O898 O 0.24606 0.73084 0.26022
 Zr899 Zr 0.26935 0.80487 0.25513
 O900 O 0.29297 0.77712 0.27422
 O901 O 0.29472 0.72946 0.26299
 O902 O 0.24606 0.79065 0.22584
 C903 C 0.26920 0.68699 0.28660
 C904 C 0.33066 0.70365 0.22900
 C905 C 0.32750 0.74462 0.30443
 C906 C 0.27270 0.83234 0.20162
 C907 C 0.21311 0.77842 0.18608
 C908 C 0.21070 0.81703 0.25742
 H909 H 0.23830 0.73457 0.20120
 H910 H 0.23548 0.78342 0.28621
 H911 H 0.30562 0.71589 0.27097
 H912 H 0.30691 0.80114 0.22137
 H913 H 0.31370 0.76505 0.17637
 H914 H 0.34133 0.77742 0.20816
 H915 H 0.19875 0.75999 0.28463
 H916 H 0.22677 0.72952 0.30559
 H917 H 0.27978 0.73733 0.16677
 H918 H 0.28396 0.70052 0.18750
 H919 H 0.25525 0.81838 0.30095
 H920 H 0.27811 0.78361 0.32097
 H921 H 0.22898 0.69086 0.23809
 H922 H 0.20173 0.72260 0.22008
 H923 H 0.33720 0.79640 0.27198
 H924 H 0.31186 0.83074 0.25278
 O925 O 0.72332 0.28093 0.30135
 O926 O 0.75222 0.28837 0.26645
 O927 O 0.65829 0.24781 0.26141
 O928 O 0.65031 0.21408 0.23686
 O929 O 0.68745 0.21082 0.33146
 O930 O 0.72443 0.18652 0.34193
 O931 O 0.73180 0.17676 0.20130
 O932 O 0.69950 0.20928 0.19208
 O933 O 0.79320 0.21192 0.23462
 O934 O 0.79933 0.24299 0.27051
 O935 O 0.76182 0.14762 0.26820
 O936 O 0.72408 0.13980 0.29688
 O937 O 0.73021 0.14675 0.23327
 O938 O 0.69813 0.13895 0.26773
 O939 O 0.79241 0.17874 0.26863
 O940 O 0.79811 0.21610 0.29910
 O941 O 0.76391 0.21281 0.20194
 O942 O 0.72811 0.24101 0.19170
 O943 O 0.72148 0.25007 0.33253
 O944 O 0.75147 0.21570 0.34173
 O945 O 0.65754 0.21272 0.29932
 O946 O 0.65403 0.18176 0.26382
 O947 O 0.68803 0.27973 0.26375
 O948 O 0.72482 0.28729 0.23668
 Zr949 Zr 0.72340 0.25974 0.26676
 O950 O 0.74904 0.23770 0.24442
 Zr951 Zr 0.67945 0.21354 0.26542
 O952 O 0.70290 0.18966 0.24268
 Zr953 Zr 0.72285 0.21498 0.31269
 O954 O 0.74816 0.19088 0.29247
 Zr955 Zr 0.72825 0.21223 0.22085
 O956 O 0.70242 0.23640 0.24105
 Zr957 Zr 0.77131 0.21354 0.26840
 O958 O 0.74798 0.23800 0.29097
 Zr959 Zr 0.72685 0.16778 0.26721
 O960 O 0.70138 0.18950 0.28989
 O961 O 0.69911 0.23815 0.28996
 O962 O 0.75153 0.18894 0.24396
 C963 C 0.72229 0.27373 0.32507
 C964 C 0.66473 0.27170 0.26141
 C965 C 0.66418 0.21052 0.32307
 C966 C 0.73272 0.15333 0.20962
 C967 C 0.78705 0.21171 0.21067
 C968 C 0.78534 0.15502 0.26790
 H969 H 0.75998 0.24939 0.23421
 H970 H 0.75848 0.18043 0.30471
 H971 H 0.68731 0.24895 0.30020
 H972 H 0.69223 0.17869 0.23142
 H973 H 0.68602 0.22207 0.19633
 H974 H 0.65673 0.20409 0.22208
 H975 H 0.79529 0.20124 0.31074
 H976 H 0.76479 0.22795 0.33584
 H977 H 0.74011 0.25477 0.19695
 H978 H 0.71326 0.28097 0.22291
 H979 H 0.73863 0.14241 0.30892
 H980 H 0.71495 0.17144 0.33526
 H981 H 0.76600 0.28219 0.27819
 H982 H 0.79645 0.25489 0.25584
 H983 H 0.65882 0.16998 0.27813
 H984 H 0.68691 0.14161 0.25252
 C985 C 0.25004 0.13955 0.07888
 C986 C 0.25762 0.16021 0.06422
 C987 C 0.26340 0.15785 0.03832
 C988 C 0.26138 0.13324 0.02721
 C989 C 0.25334 0.11124 0.04193
 C990 C 0.24755 0.11517 0.06837
 O991 O 0.24638 0.14527 0.10333
 C992 C 0.25161 0.17017 0.10417
 C993 C 0.25846 0.18049 0.08080
 C994 C 0.26478 0.20645 0.07779
 C995 C 0.26406 0.22220 0.09981
 C996 C 0.25753 0.21158 0.12413
 C997 C 0.25108 0.18520 0.12607
 H998 H 0.26934 0.17435 0.02701
 H999 H 0.26509 0.13203 0.00684
 H1000 H 0.24287 0.09963 0.08142
 H1001 H 0.27011 0.21428 0.05925
 H1002 H 0.26899 0.24239 0.09803
 H1003 H 0.24568 0.17646 0.14422
 C1004 C 0.77024 0.59279 0.61117
 C1005 C 0.77519 0.57925 0.63351
 C1006 C 0.77677 0.55254 0.63441
 C1007 C 0.77337 0.53924 0.61128
 C1008 C 0.76845 0.55274 0.58790
 C1009 C 0.76660 0.57994 0.58795
 O1010 O 0.76978 0.61811 0.61452
 C1011 C 0.77454 0.62057 0.63949
 C1012 C 0.77796 0.59738 0.65199
 C1013 C 0.78309 0.59551 0.67821
 C1014 C 0.78458 0.61851 0.69217
 C1015 C 0.78107 0.64275 0.67974
 C1016 C 0.77608 0.64365 0.65292
 H1017 H 0.78062 0.54231 0.65224
 H1018 H 0.77449 0.51839 0.61156
 H1019 H 0.76304 0.59074 0.57039
 H1020 H 0.78571 0.57700 0.68760
 H1021 H 0.78839 0.61739 0.71264
 H1022 H 0.77308 0.66173 0.64281
 C1023 C 0.75985 0.88304 0.11414
 C1024 C 0.77394 0.86170 0.10763
 C1025 C 0.78630 0.85919 0.08428
 C1026 C 0.78412 0.87955 0.06666
 C1027 C 0.76953 0.90216 0.07235
 C1028 C 0.75711 0.90360 0.09673
 O1029 O 0.74990 0.88136 0.13765
 C1030 C 0.75783 0.85831 0.14597
 C1031 C 0.77247 0.84560 0.12811
 C1032 C 0.78259 0.82120 0.13220
 C1033 C 0.77750 0.80924 0.15573
 C1034 C 0.76266 0.82175 0.17493
 C1035 C 0.75272 0.84683 0.16993
 H1036 H 0.79710 0.84198 0.07963
 H1037 H 0.79291 0.87679 0.04810
 H1038 H 0.74629 0.92041 0.10250
 H1039 H 0.79402 0.81165 0.11776
 H1040 H 0.78554 0.79022 0.15901
 H1041 H 0.74137 0.85692 0.18406
 C1042 C 0.25145 0.40927 0.62472
 C1043 C 0.25490 0.42566 0.64513
 C1044 C 0.25946 0.45189 0.64184
 C1045 C 0.26042 0.46157 0.61654
 C1046 C 0.25678 0.44504 0.59514
 C1047 C 0.25226 0.41846 0.59948
 O1048 O 0.24743 0.38503 0.63186
 C1049 C 0.24831 0.38610 0.65734
 C1050 C 0.25279 0.41048 0.66650
 C1051 C 0.25435 0.41579 0.69268
 C1052 C 0.25123 0.39513 0.71004
 C1053 C 0.24669 0.36972 0.70104
 C1054 C 0.24522 0.36535 0.67418
 H1055 H 0.26209 0.46448 0.65816
 H1056 H 0.26357 0.48201 0.61364
 H1057 H 0.24967 0.40524 0.58366
 H1058 H 0.25789 0.43513 0.69950
 H1059 H 0.25252 0.39895 0.73045
 H1060 H 0.24178 0.34632 0.66648
 C1061 C 0.72250 0.10578 0.88241
 C1062 C 0.70805 0.09487 0.86320
 C1063 C 0.69909 0.06972 0.86436
 C1064 C 0.70534 0.05506 0.88624
 C1065 C 0.72002 0.06577 0.90670
 C1066 C 0.72841 0.09176 0.90469
 O1067 O 0.73091 0.12925 0.87646
 C1068 C 0.72156 0.13317 0.85291
 C1069 C 0.70727 0.11271 0.84411
 C1070 C 0.69680 0.11183 0.81957
 C1071 C 0.70176 0.13259 0.80311
 C1072 C 0.71718 0.15365 0.81122
 C1073 C 0.72670 0.15424 0.83679
 H1074 H 0.68837 0.06137 0.84858
 H1075 H 0.69940 0.03511 0.88667
 H1076 H 0.73956 0.10082 0.91974
 H1077 H 0.68580 0.09541 0.81308
 H1078 H 0.69412 0.13187 0.78370
 H1079 H 0.73890 0.16977 0.84337
 C1080 C 0.26206 0.60936 0.36848
 C1081 C 0.26815 0.59684 0.34609
 C1082 C 0.27208 0.57031 0.34507
 C1083 C 0.26957 0.55616 0.36807
 C1084 C 0.26308 0.56866 0.39136
 C1085 C 0.25932 0.59569 0.39144
 O1086 O 0.25940 0.63464 0.36548
 C1087 C 0.26384 0.63820 0.34062
 C1088 C 0.26921 0.61571 0.32784
 C1089 C 0.27436 0.61511 0.30164
 C1090 C 0.27404 0.63865 0.28812
 C1091 C 0.26876 0.66221 0.30093
 C1092 C 0.26355 0.66179 0.32763
 H1093 H 0.27690 0.56086 0.32724
 H1094 H 0.27234 0.53547 0.36768
 H1095 H 0.25471 0.60586 0.40895
 H1096 H 0.27853 0.59718 0.29196
 H1097 H 0.27818 0.63849 0.26775
 H1098 H 0.25940 0.67929 0.33807
 C1099 C 0.24500 0.87924 0.88865
 C1100 C 0.25303 0.85793 0.90237
 C1101 C 0.26075 0.85901 0.92800
 C1102 C 0.26001 0.88308 0.94009
 C1103 C 0.25136 0.90532 0.92656
 C1104 C 0.24383 0.90333 0.90040
 O1105 O 0.23852 0.87393 0.86448
 C1106 C 0.24242 0.84866 0.86297
 C1107 C 0.25113 0.83802 0.88573
 C1108 C 0.25581 0.81186 0.88888
 C1109 C 0.25134 0.79594 0.86772
 C1110 C 0.24260 0.80630 0.84382
 C1111 C 0.23823 0.83316 0.84139
 H1112 H 0.26697 0.84191 0.93835
 H1113 H 0.26559 0.88433 0.96015
 H1114 H 0.23726 0.92002 0.88959
 H1115 H 0.26254 0.80395 0.90704
 H1116 H 0.25504 0.77548 0.86991
 H1117 H 0.23144 0.84161 0.82350
 C1118 C 0.72915 0.37056 0.38276
 C1119 C 0.72045 0.35148 0.39894
 C1120 C 0.71500 0.35567 0.42469
 C1121 C 0.71863 0.38060 0.43422
 C1122 C 0.72763 0.40078 0.41805
 C1123 C 0.73306 0.39558 0.39190
 O1124 O 0.73324 0.36231 0.35896
 C1125 C 0.72703 0.33748 0.36024
 C1126 C 0.71916 0.32996 0.38433
 C1127 C 0.71210 0.30484 0.39022
 C1128 C 0.71323 0.28661 0.37051
 C1129 C 0.72123 0.29368 0.34534
 C1130 C 0.72812 0.31965 0.34018
 H1131 H 0.70834 0.34025 0.43706
 H1132 H 0.71491 0.38407 0.45437
 H1133 H 0.73994 0.41054 0.37910
 H1134 H 0.70601 0.29943 0.40937
 H1135 H 0.70771 0.26697 0.37491
 H1136 H 0.73443 0.32570 0.32129
 C1137 C 0.09176 0.27069 0.10545
 C1138 C 0.10893 0.28531 0.09183
 C1139 C 0.10314 0.29605 0.06800
 C1140 C 0.07865 0.29147 0.05761
 C1141 C 0.06013 0.27622 0.07097
 C1142 C 0.06722 0.26583 0.09553
 O1143 O 0.10130 0.26209 0.12773
 C1144 C 0.12508 0.27144 0.12803
 C1145 C 0.13063 0.28574 0.10643
 C1146 C 0.15444 0.29697 0.10236
 C1147 C 0.17342 0.29328 0.12128
 C1148 C 0.16841 0.27858 0.14388
 C1149 C 0.14369 0.26761 0.14729
 H1150 H 0.11717 0.30726 0.05752
 H1151 H 0.07497 0.29894 0.03849
 H1152 H 0.05403 0.25479 0.10717
 H1153 H 0.15835 0.30809 0.08515
 H1154 H 0.19205 0.30199 0.11822
 H1155 H 0.13919 0.25618 0.16416
 C1156 C 0.62954 0.72435 0.61509
 C1157 C 0.64993 0.71683 0.60021
 C1158 C 0.64743 0.71103 0.57426
 C1159 C 0.62286 0.71307 0.56313
 C1160 C 0.60137 0.72077 0.57798
 C1161 C 0.60490 0.72643 0.60444
 O1162 O 0.63619 0.72936 0.63927
 C1163 C 0.66137 0.72495 0.63962
 C1164 C 0.67066 0.71723 0.61618
 C1165 C 0.69644 0.71189 0.61201
 C1166 C 0.71345 0.71476 0.63278
 C1167 C 0.70456 0.72290 0.65727
 C1168 C 0.67797 0.72790 0.66067
 H1169 H 0.66386 0.70536 0.56291
 H1170 H 0.62071 0.70912 0.54282
 H1171 H 0.58895 0.73215 0.61642
 H1172 H 0.70328 0.70586 0.59336
 H1173 H 0.73361 0.71067 0.62964
 H1174 H 0.67049 0.73421 0.67897
 C1175 C 0.09866 0.75521 0.89182
 C1176 C 0.08472 0.74600 0.87136
 C1177 C 0.05847 0.74138 0.87270
 C1178 C 0.04611 0.74644 0.89608
 C1179 C 0.05998 0.75638 0.91762
 C1180 C 0.08681 0.76078 0.91502
 O1181 O 0.12353 0.75760 0.88696
 C1182 C 0.12533 0.74986 0.86281
 C1183 C 0.10214 0.74270 0.85225
 C1184 C 0.09975 0.73415 0.82705
 C1185 C 0.12220 0.73291 0.81220
 C1186 C 0.14640 0.73983 0.82288
 C1187 C 0.14786 0.74844 0.84859
 H1188 H 0.04786 0.73410 0.85633
 H1189 H 0.02555 0.74348 0.89685
 H1190 H 0.09866 0.76724 0.93087
 H1191 H 0.08129 0.72866 0.81910
 H1192 H 0.12079 0.72620 0.79257
 H1193 H 0.16596 0.75405 0.85726
 C1194 C 0.57374 0.22576 0.38689
 C1195 C 0.58599 0.20357 0.39498
 C1196 C 0.57824 0.18951 0.41639
 C1197 C 0.55726 0.19895 0.43031
 C1198 C 0.54488 0.22226 0.42287
 C1199 C 0.55307 0.23568 0.40066
 O1200 O 0.58466 0.23659 0.36652
 C1201 C 0.60436 0.22104 0.36181
 C1202 C 0.60616 0.20067 0.37884
 C1203 C 0.62640 0.18310 0.37865
 C1204 C 0.64556 0.18666 0.36012
 C1205 C 0.64380 0.20719 0.34209
 C1206 C 0.62281 0.22450 0.34277
 H1207 H 0.58834 0.17222 0.42249
 H1208 H 0.55139 0.18878 0.44754
 H1209 H 0.54412 0.25367 0.39478
 H1210 H 0.62767 0.16754 0.39257
 H1211 H 0.66170 0.17341 0.35968
 H1212 H 0.62141 0.24060 0.32946
 C1213 C 0.89726 0.77472 0.14112
 C1214 C 0.91116 0.76733 0.16248
 C1215 C 0.93734 0.76212 0.16166
 C1216 C 0.94964 0.76445 0.13781
 C1217 C 0.93582 0.77236 0.11528
 C1218 C 0.90912 0.77779 0.11739
 O1219 O 0.87238 0.77768 0.14568
 C1220 C 0.87056 0.77218 0.17052
 C1221 C 0.89376 0.76595 0.18182
 C1222 C 0.89616 0.75972 0.20780
 C1223 C 0.87370 0.75993 0.22268
 C1224 C 0.84952 0.76576 0.21124
 C1225 C 0.84802 0.77199 0.18477
 H1226 H 0.94790 0.75625 0.17872
 H1227 H 0.97014 0.76086 0.13728
 H1228 H 0.89739 0.78291 0.10087
 H1229 H 0.91463 0.75494 0.21630
 H1230 H 0.87505 0.75514 0.24295
 H1231 H 0.82987 0.77679 0.17559
 C1232 C 0.36259 0.27904 0.62526
 C1233 C 0.37764 0.27569 0.64686
 C1234 C 0.40397 0.27137 0.64594
 C1235 C 0.41535 0.27019 0.62167
 C1236 C 0.40036 0.27338 0.59898
 C1237 C 0.37359 0.27818 0.60082
 O1238 O 0.33779 0.28216 0.63060
 C1239 C 0.33727 0.28073 0.65614
 C1240 C 0.36121 0.27683 0.66686
 C1241 C 0.36534 0.27422 0.69308
 C1242 C 0.34391 0.27567 0.70906
 C1243 C 0.31876 0.27962 0.69875
 C1244 C 0.31547 0.28226 0.67175
 H1245 H 0.41531 0.26870 0.66328
 H1246 H 0.43586 0.26675 0.62051
 H1247 H 0.36168 0.28040 0.58379
 H1248 H 0.38441 0.27104 0.70098
 H1249 H 0.34709 0.27360 0.72957
 H1250 H 0.29665 0.28521 0.66320
 C1251 C 0.85846 0.22285 0.88766
 C1252 C 0.86849 0.20421 0.87200
 C1253 C 0.89058 0.19047 0.87809
 C1254 C 0.90318 0.19633 0.90116
 C1255 C 0.89382 0.21596 0.91790
 C1256 C 0.87073 0.22918 0.91076
 O1257 O 0.83743 0.23394 0.87788
 C1258 C 0.83436 0.22212 0.85546
 C1259 C 0.85301 0.20387 0.85096
 C1260 C 0.85438 0.18998 0.82828
 C1261 C 0.83578 0.19514 0.80934
 C1262 C 0.81613 0.21369 0.81346
 C1263 C 0.81528 0.22723 0.83702
 H1264 H 0.89825 0.17610 0.86520
 H1265 H 0.92115 0.18642 0.90481
 H1266 H 0.86219 0.24379 0.92275
 H1267 H 0.86942 0.17590 0.82513
 H1268 H 0.83658 0.18452 0.79151
 H1269 H 0.80068 0.24168 0.84055
 C1270 C 0.38421 0.73712 0.40164
 C1271 C 0.39449 0.71966 0.38471
 C1272 C 0.41504 0.70362 0.39106
 C1273 C 0.42579 0.70602 0.41572
 C1274 C 0.41620 0.72452 0.43323
 C1275 C 0.39497 0.74019 0.42613
 O1276 O 0.36466 0.75047 0.39169
 C1277 C 0.36274 0.74139 0.36792
 C1278 C 0.38078 0.72275 0.36260
 C1279 C 0.38308 0.71151 0.33850
 C1280 C 0.36587 0.71961 0.31917
 C1281 C 0.34658 0.73816 0.32442
 C1282 C 0.34497 0.74920 0.34916
 H1283 H 0.42278 0.69004 0.37740
 H1284 H 0.44234 0.69426 0.42081
 H1285 H 0.38753 0.75467 0.43904
 H1286 H 0.39765 0.69711 0.33470
 H1287 H 0.36707 0.71095 0.30033
 H1288 H 0.33047 0.76351 0.35355
 C1289 C 0.12470 0.12215 0.22035
 C1290 C 0.14822 0.11002 0.21949
 C1291 C 0.15124 0.08356 0.22288
 C1292 C 0.12904 0.06893 0.22727
 C1293 C 0.10453 0.08090 0.22781
 C1294 C 0.10232 0.10789 0.22420
 O1295 O 0.12626 0.14761 0.21777
 C1296 C 0.15133 0.15161 0.21512
 C1297 C 0.16551 0.12918 0.21583
 C1298 C 0.19206 0.12874 0.21367
 C1299 C 0.20464 0.15241 0.21102
 C1300 C 0.19068 0.17607 0.21089
 C1301 C 0.16350 0.17553 0.21274
 H1302 H 0.17002 0.07453 0.22240
 H1303 H 0.13083 0.04828 0.22998
 H1304 H 0.08379 0.11746 0.22483
 H1305 H 0.20277 0.11082 0.21430
 H1306 H 0.22542 0.15220 0.20977
 H1307 H 0.15223 0.19311 0.21282
 C1308 C 0.63030 0.61382 0.75675
 C1309 C 0.65068 0.60147 0.76842
 C1310 C 0.64965 0.57612 0.77698
 C1311 C 0.62652 0.56285 0.77360
 C1312 C 0.60473 0.57511 0.76220
 C1313 C 0.60683 0.60109 0.75355
 O1314 O 0.63593 0.63766 0.74903
 C1315 C 0.66043 0.64032 0.75606
 C1316 C 0.67013 0.61869 0.76813
 C1317 C 0.69529 0.61671 0.77677
 C1318 C 0.71142 0.63771 0.77239
 C1319 C 0.70241 0.66020 0.75927
 C1320 C 0.67628 0.66167 0.75138
 H1321 H 0.66623 0.56672 0.78560
 H1322 H 0.62585 0.54284 0.77953
 H1323 H 0.59073 0.61117 0.74480
 H1324 H 0.70238 0.59945 0.78626
 H1325 H 0.73119 0.63615 0.77891
 H1326 H 0.66882 0.67837 0.74118
 C1327 C 0.87731 0.09095 0.74170
 C1328 C 0.85775 0.07728 0.73032
 C1329 C 0.86152 0.05324 0.71949
 C1330 C 0.88648 0.04297 0.72014
 C1331 C 0.90733 0.05659 0.73177
 C1332 C 0.90221 0.08084 0.74323
 O1333 O 0.87006 0.11427 0.74912
 C1334 C 0.84542 0.11524 0.74235
 C1335 C 0.83682 0.09301 0.73100
 C1336 C 0.81181 0.09028 0.72168
 C1337 C 0.79511 0.11152 0.72379
 C1338 C 0.80385 0.13495 0.73462
 C1339 C 0.82930 0.13657 0.74437
 H1340 H 0.84587 0.04289 0.71046
 H1341 H 0.88919 0.02398 0.71210
 H1342 H 0.91734 0.09240 0.75161
 H1343 H 0.80554 0.07262 0.71265
 H1344 H 0.77576 0.11004 0.71612
 H1345 H 0.83663 0.15419 0.75267
 C1346 C 0.41981 0.63506 0.23308
 C1347 C 0.40699 0.63084 0.21027
 C1348 C 0.41363 0.61114 0.19355
 C1349 C 0.43394 0.59475 0.20089
 C1350 C 0.44687 0.59808 0.22476
 C1351 C 0.43992 0.61885 0.24086
 O1352 O 0.40976 0.65412 0.24669
 C1353 C 0.39003 0.66195 0.23228
 C1354 C 0.38736 0.64818 0.20990
 C1355 C 0.36677 0.65173 0.19302
 C1356 C 0.34817 0.67020 0.19951
 C1357 C 0.35075 0.68492 0.22225
 C1358 C 0.37213 0.68092 0.23873
 H1359 H 0.40307 0.60803 0.17585
 H1360 H 0.43869 0.57866 0.18862
 H1361 H 0.44921 0.62167 0.25931
 H1362 H 0.36478 0.64028 0.17581
 H1363 H 0.33177 0.67310 0.18686
 H1364 H 0.37419 0.69151 0.25648
 C1365 C 0.12628 0.89022 0.74177
 C1366 C 0.12637 0.87883 0.71802
 C1367 C 0.11281 0.88872 0.69712
 C1368 C 0.09848 0.91131 0.70077
 C1369 C 0.09739 0.92354 0.72526
 C1370 C 0.11166 0.91244 0.74607
 O1371 O 0.14084 0.87777 0.75896
 C1372 C 0.15010 0.85798 0.74575
 C1373 C 0.14157 0.85767 0.72065
 C1374 C 0.14792 0.83820 0.70357
 C1375 C 0.16369 0.81815 0.71274
 C1376 C 0.17316 0.81823 0.73834
 C1377 C 0.16645 0.83852 0.75509
 H1378 H 0.11311 0.87928 0.67862
 H1379 H 0.08725 0.91834 0.68459
 H1380 H 0.11217 0.92115 0.76491
 H1381 H 0.14072 0.83826 0.68400
 H1382 H 0.16872 0.80262 0.69987
 H1383 H 0.17319 0.83875 0.77483
 C1384 C 0.60422 0.36751 0.26070
 C1385 C 0.58805 0.34737 0.25514
 C1386 C 0.56192 0.35071 0.25034
 C1387 C 0.55204 0.37589 0.25114
 C1388 C 0.56828 0.39710 0.25678
 C1389 C 0.59477 0.39272 0.26177
 O1390 O 0.62847 0.36014 0.26442
 C1391 C 0.62756 0.33478 0.26115
 C1392 C 0.60325 0.32604 0.25549
 C1393 C 0.59783 0.30020 0.25137
 C1394 C 0.61826 0.28259 0.25323
 C1395 C 0.64365 0.29096 0.25906
 C1396 C 0.64827 0.31758 0.26299
 H1397 H 0.54958 0.33451 0.24603
 H1398 H 0.53171 0.37886 0.24756
 H1399 H 0.60771 0.40850 0.26585
 H1400 H 0.57852 0.29381 0.24694
 H1401 H 0.61419 0.26239 0.25011
 H1402 H 0.66729 0.32469 0.26758
 C1403 C 0.88873 0.90579 0.26286
 C1404 C 0.86720 0.92051 0.26713
 C1405 C 0.86839 0.94702 0.27057
 C1406 C 0.89269 0.95880 0.26943
 C1407 C 0.91540 0.94411 0.26449
 C1408 C 0.91294 0.91703 0.26124
 O1409 O 0.88376 0.88084 0.26086
 C1410 C 0.85849 0.87976 0.26376
 C1411 C 0.84729 0.90347 0.26747
 C1412 C 0.82087 0.90652 0.27074
 C1413 C 0.80552 0.88420 0.27035
 C1414 C 0.81685 0.85950 0.26715
 C1415 C 0.84375 0.85744 0.26366
 H1416 H 0.85120 0.95829 0.27396
 H1417 H 0.89340 0.97954 0.27130
 H1418 H 0.92942 0.90459 0.25853
 H1419 H 0.81240 0.92537 0.27355
 H1420 H 0.78498 0.88609 0.27310
 H1421 H 0.85301 0.83894 0.26093
 C1422 C 0.38334 0.40747 0.77475
 C1423 C 0.38748 0.39306 0.79671
 C1424 C 0.40947 0.39541 0.81183
 C1425 C 0.42804 0.41327 0.80392
 C1426 C 0.42449 0.42797 0.78107
 C1427 C 0.40174 0.42507 0.76633
 O1428 O 0.36139 0.40185 0.76291
 C1429 C 0.35157 0.38337 0.77760
 C1430 C 0.36690 0.37716 0.79842
 C1431 C 0.36119 0.35720 0.81540
 C1432 C 0.33885 0.34291 0.81058
 C1433 C 0.32261 0.34916 0.78945
 C1434 C 0.32886 0.36987 0.77289
 H1435 H 0.41235 0.38375 0.82894
 H1436 H 0.44552 0.41517 0.81519
 H1437 H 0.39863 0.43601 0.74878
 H1438 H 0.37379 0.35240 0.83137
 H1439 H 0.33420 0.32691 0.82319
 H1440 H 0.31702 0.37454 0.75629
 C1441 C 0.08391 0.26448 0.89667
 C1442 C 0.10497 0.25247 0.90727
 C1443 C 0.10486 0.24078 0.93124
 C1444 C 0.08192 0.24109 0.94501
 C1445 C 0.05905 0.25259 0.93466
 C1446 C 0.06053 0.26481 0.90993
 O1447 O 0.08874 0.27507 0.87374
 C1448 C 0.11348 0.26954 0.86999
 C1449 C 0.12401 0.25561 0.89006
 C1450 C 0.14939 0.24766 0.89082
 C1451 C 0.16491 0.25474 0.87027
 C1452 C 0.15517 0.26981 0.84936
 C1453 C 0.12877 0.27692 0.84894
 H1454 H 0.12206 0.23206 0.93934
 H1455 H 0.08272 0.23309 0.96422
 H1456 H 0.04402 0.27357 0.90063
 H1457 H 0.15705 0.23651 0.90679
 H1458 H 0.18478 0.24844 0.87083
 H1459 H 0.12073 0.28828 0.83331
 C1460 C 0.61144 0.74793 0.40157
 C1461 C 0.61330 0.72483 0.38893
 C1462 C 0.59924 0.70323 0.39581
 C1463 C 0.58200 0.70564 0.41619
 C1464 C 0.57837 0.72962 0.42885
 C1465 C 0.59386 0.75097 0.42165
 O1466 O 0.62709 0.76584 0.39211
 C1467 C 0.63884 0.75375 0.37296
 C1468 C 0.63075 0.72871 0.37009
 C1469 C 0.63959 0.71269 0.35073
 C1470 C 0.65780 0.72277 0.33375
 C1471 C 0.66719 0.74822 0.33671
 C1472 C 0.65764 0.76398 0.35666
 H1473 H 0.60150 0.68512 0.38585
 H1474 H 0.57134 0.68869 0.42192
 H1475 H 0.59173 0.76957 0.43070
 H1476 H 0.63270 0.69314 0.34877
 H1477 H 0.66524 0.71046 0.31876
 H1478 H 0.66456 0.78344 0.35930
 C1479 C 0.89567 0.77340 0.89258
 C1480 C 0.91017 0.78170 0.87220
 C1481 C 0.93451 0.79210 0.87515
 C1482 C 0.94451 0.79384 0.90015
 C1483 C 0.93028 0.78496 0.92188
 C1484 C 0.90525 0.77470 0.91764
 O1485 O 0.87299 0.76403 0.88551
 C1486 C 0.87333 0.76631 0.86007
 C1487 C 0.89575 0.77689 0.85099
 C1488 C 0.90062 0.78031 0.82497
 C1489 C 0.88158 0.77247 0.80755
 C1490 C 0.85814 0.76170 0.81638
 C1491 C 0.85393 0.75874 0.84310
 H1492 H 0.94564 0.79830 0.85872
 H1493 H 0.96398 0.80082 0.90207
 H1494 H 0.89314 0.76835 0.93326
 H1495 H 0.91848 0.78856 0.81831
 H1496 H 0.88498 0.77509 0.78717
 H1497 H 0.83633 0.75043 0.85040
 C1498 C 0.37255 0.26737 0.37221
 C1499 C 0.38948 0.27090 0.35229
 C1500 C 0.41569 0.27437 0.35611
 C1501 C 0.42484 0.27427 0.38152
 C1502 C 0.40776 0.27082 0.40249
 C1503 C 0.38121 0.26720 0.39764
 O1504 O 0.34837 0.26467 0.36439
 C1505 C 0.35011 0.26653 0.33900
 C1506 C 0.37483 0.27035 0.33063
 C1507 C 0.38098 0.27322 0.30481
 C1508 C 0.36078 0.27217 0.28686
 C1509 C 0.33502 0.26826 0.29496
 C1510 C 0.32974 0.26531 0.32151
 H1511 H 0.42864 0.27704 0.34011
 H1512 H 0.44527 0.27660 0.38485
 H1513 H 0.36766 0.26474 0.41317
 H1514 H 0.40060 0.27631 0.29872
 H1515 H 0.36528 0.27451 0.26668
 H1516 H 0.31035 0.26254 0.32844
 C1517 C 0.12010 0.78346 0.12286
 C1518 C 0.13598 0.80329 0.11544
 C1519 C 0.12994 0.82006 0.09531
 C1520 C 0.10676 0.81595 0.08203
 C1521 C 0.09053 0.79510 0.08881
 C1522 C 0.09720 0.77879 0.10967
 O1523 O 0.12956 0.76953 0.14221
 C1524 C 0.15201 0.78066 0.14696
 C1525 C 0.15698 0.80124 0.13095
 C1526 C 0.18004 0.81472 0.13162
 C1527 C 0.19866 0.80671 0.14963
 C1528 C 0.19369 0.78595 0.16676
 C1529 C 0.16996 0.77282 0.16543
 H1530 H 0.14278 0.83548 0.08978
 H1531 H 0.10190 0.82834 0.06586
 H1532 H 0.08519 0.76264 0.11505
 H1533 H 0.18369 0.83059 0.11855
 H1534 H 0.21681 0.81684 0.15045
 H1535 H 0.16584 0.75666 0.17801
 C1536 C 0.59168 0.25638 0.60874
 C1537 C 0.61104 0.27025 0.59726
 C1538 C 0.60717 0.28496 0.57512
 C1539 C 0.58248 0.28494 0.56409
 C1540 C 0.56246 0.27006 0.57507
 C1541 C 0.56710 0.25576 0.59786
 O1542 O 0.59938 0.24373 0.62969
 C1543 C 0.62416 0.24956 0.63134
 C1544 C 0.63233 0.26550 0.61180
 C1545 C 0.65781 0.27316 0.60927
 C1546 C 0.67551 0.26430 0.62784
 C1547 C 0.66735 0.24850 0.64858
 C1548 C 0.64130 0.24102 0.65030
 H1549 H 0.62268 0.29573 0.56644
 H1550 H 0.57918 0.29565 0.54642
 H1551 H 0.55219 0.24410 0.60648
 H1552 H 0.66384 0.28550 0.59359
 H1553 H 0.69539 0.27032 0.62650
 H1554 H 0.63462 0.22888 0.66589
 C1555 C 0.85421 0.22294 0.12143
 C1556 C 0.86469 0.20468 0.13773
 C1557 C 0.88797 0.19246 0.13294
 C1558 C 0.90116 0.19952 0.11056
 C1559 C 0.89112 0.21874 0.09370
 C1560 C 0.86720 0.23053 0.09921
 O1561 O 0.83196 0.23231 0.12972
 C1562 C 0.82845 0.21983 0.15180
 C1563 C 0.84807 0.20288 0.15766
 C1564 C 0.84897 0.18867 0.18040
 C1565 C 0.82881 0.19206 0.19785
 C1566 C 0.80813 0.20909 0.19210
 C1567 C 0.80786 0.22304 0.16863
 H1568 H 0.89584 0.17820 0.14611
 H1569 H 0.91960 0.19063 0.10677
 H1570 H 0.85915 0.24532 0.08673
 H1571 H 0.86474 0.17564 0.18468
 H1572 H 0.82909 0.18117 0.21568
 H1573 H 0.79241 0.23633 0.16392
 C1574 C 0.38657 0.72464 0.63430
 C1575 C 0.39793 0.71566 0.65658
 C1576 C 0.42370 0.70873 0.65815
 C1577 C 0.43840 0.71100 0.63578
 C1578 C 0.42727 0.72007 0.61239
 C1579 C 0.40092 0.72719 0.61175
 O1580 O 0.36174 0.73009 0.63710
 C1581 C 0.35744 0.72445 0.66168
 C1582 C 0.37900 0.71559 0.67440
 C1583 C 0.37904 0.70872 0.70025
 C1584 C 0.35590 0.71120 0.71367
 C1585 C 0.33323 0.72035 0.70116
 C1586 C 0.33408 0.72691 0.67465
 H1587 H 0.43219 0.70183 0.67596
 H1588 H 0.45860 0.70591 0.63677
 H1589 H 0.39185 0.73410 0.59421
 H1590 H 0.39630 0.70177 0.70978
 H1591 H 0.35569 0.70587 0.73384
 H1592 H 0.31722 0.73403 0.66451
 C1593 C 0.22495 0.12892 0.89192
 C1594 C 0.19966 0.13352 0.88542
 C1595 C 0.17977 0.11732 0.89293
 C1596 C 0.18624 0.09546 0.90771
 C1597 C 0.21224 0.09018 0.91445
 C1598 C 0.23179 0.10732 0.90647
 O1599 O 0.24100 0.14634 0.88246
 C1600 C 0.22555 0.16227 0.86961
 C1601 C 0.20004 0.15528 0.87077
 C1602 C 0.18068 0.16876 0.85783
 C1603 C 0.18798 0.19010 0.84289
 C1604 C 0.21412 0.19751 0.84145
 C1605 C 0.23316 0.18362 0.85514
 H1606 H 0.16003 0.12125 0.88744
 H1607 H 0.17110 0.08241 0.91349
 H1608 H 0.25177 0.10397 0.91149
 H1609 H 0.16079 0.16279 0.85883
 H1610 H 0.17341 0.20074 0.83223
 H1611 H 0.25327 0.18880 0.85390
 C1612 C 0.74989 0.63470 0.41269
 C1613 C 0.77265 0.64725 0.41726
 C1614 C 0.79308 0.63573 0.43026
 C1615 C 0.78991 0.61030 0.43900
 C1616 C 0.76623 0.59693 0.43538
 C1617 C 0.74587 0.60986 0.42217
 O1618 O 0.73411 0.64771 0.39718
 C1619 C 0.74719 0.66898 0.39189
 C1620 C 0.77074 0.66988 0.40409
 C1621 C 0.78832 0.68961 0.39995
 C1622 C 0.78175 0.70867 0.38177
 C1623 C 0.75826 0.70727 0.36797
 C1624 C 0.74048 0.68752 0.37348
 H1625 H 0.81125 0.64558 0.43266
 H1626 H 0.80641 0.60108 0.44783
 H1627 H 0.72739 0.60102 0.41882
 H1628 H 0.80689 0.68968 0.40946
 H1629 H 0.79571 0.72338 0.37703
 H1630 H 0.72291 0.68555 0.36236
 C1631 C 0.74369 0.08949 0.11753
 C1632 C 0.75230 0.07567 0.13854
 C1633 C 0.76151 0.05056 0.13689
 C1634 C 0.76181 0.03912 0.11255
 C1635 C 0.75283 0.05281 0.09053
 C1636 C 0.74366 0.07842 0.09314
 O1637 O 0.73567 0.11308 0.12340
 C1638 C 0.73922 0.11411 0.14870
 C1639 C 0.74927 0.09164 0.15881
 C1640 C 0.75416 0.08815 0.18485
 C1641 C 0.74840 0.10864 0.20122
 C1642 C 0.73806 0.13219 0.19143
 C1643 C 0.73358 0.13498 0.16466
 H1644 H 0.76809 0.04009 0.15377
 H1645 H 0.76855 0.01943 0.11091
 H1646 H 0.73681 0.08939 0.07667
 H1647 H 0.76206 0.07027 0.19232
 H1648 H 0.75230 0.10616 0.22156
 H1649 H 0.72571 0.15263 0.15660
 C1650 C 0.24960 0.60925 0.60950
 C1651 C 0.24865 0.59306 0.63051
 C1652 C 0.24683 0.56644 0.62854
 C1653 C 0.24595 0.55597 0.60382
 C1654 C 0.24703 0.57213 0.58174
 C1655 C 0.24907 0.59918 0.58463
 O1656 O 0.25046 0.63405 0.61584
 C1657 C 0.25008 0.63341 0.64141
 C1658 C 0.24911 0.60874 0.65119
 C1659 C 0.24817 0.60332 0.67728
 C1660 C 0.24785 0.62420 0.69411
 C1661 C 0.24827 0.65005 0.68476
 C1662 C 0.24977 0.65466 0.65790
 H1663 H 0.24598 0.55418 0.64543
 H1664 H 0.24472 0.53524 0.60182
 H1665 H 0.24979 0.61191 0.56807
 H1666 H 0.24744 0.58370 0.68444
 H1667 H 0.24700 0.62006 0.71453
 H1668 H 0.25002 0.67405 0.65008
 C1669 C 0.76614 0.88524 0.86420
 C1670 C 0.78661 0.89288 0.84948
 C1671 C 0.80168 0.91401 0.85569
 C1672 C 0.79546 0.92779 0.87799
 C1673 C 0.77393 0.92085 0.89342
 C1674 C 0.75901 0.89918 0.88593
 O1675 O 0.75523 0.86370 0.85589
 C1676 C 0.76907 0.85767 0.83540
 C1677 C 0.78832 0.87510 0.83041
 C1678 C 0.80507 0.87248 0.80980
 C1679 C 0.80202 0.85089 0.79388
 C1680 C 0.78291 0.83220 0.79921
 C1681 C 0.76614 0.83575 0.82023
 H1682 H 0.81812 0.91930 0.84418
 H1683 H 0.80803 0.94342 0.88336
 H1684 H 0.74230 0.89305 0.89654
 H1685 H 0.82007 0.88644 0.80622
 H1686 H 0.81508 0.84823 0.77797
 H1687 H 0.75142 0.82174 0.82473
 C1688 C 0.24862 0.38884 0.37352
 C1689 C 0.24978 0.36476 0.38467
 C1690 C 0.25275 0.36086 0.41096
 C1691 C 0.25469 0.38270 0.42650
 C1692 C 0.25357 0.40785 0.41564
 C1693 C 0.25025 0.41096 0.38872
 O1694 O 0.24654 0.38807 0.34802
 C1695 C 0.24635 0.36294 0.34306
 C1696 C 0.24821 0.34795 0.36490
 C1697 C 0.24888 0.32124 0.36439
 C1698 C 0.24782 0.30935 0.34034
 C1699 C 0.24621 0.32417 0.31726
 C1700 C 0.24526 0.35148 0.31877
 H1701 H 0.25371 0.34167 0.41921
 H1702 H 0.25693 0.38006 0.44707
 H1703 H 0.24953 0.42992 0.37991
 H1704 H 0.25045 0.30993 0.38189
 H1705 H 0.24858 0.28850 0.33981
 H1706 H 0.24429 0.36341 0.30163
 C1707 C 0.26441 0.90863 0.11956
 C1708 C 0.28853 0.91016 0.13035
 C1709 C 0.30810 0.92468 0.11956
 C1710 C 0.30247 0.93863 0.09701
 C1711 C 0.27730 0.93859 0.08598
 C1712 C 0.25810 0.92298 0.09755
 O1713 O 0.24912 0.89227 0.13186
 C1714 C 0.26392 0.88342 0.15090
 C1715 C 0.28811 0.89407 0.15106
 C1716 C 0.30687 0.88729 0.16909
 C1717 C 0.30068 0.86818 0.18725
 C1718 C 0.27633 0.85608 0.18667
 C1719 C 0.25755 0.86405 0.16850
 H1720 H 0.32721 0.92491 0.12793
 H1721 H 0.31796 0.94927 0.08819
 H1722 H 0.23868 0.92221 0.09008
 H1723 H 0.32580 0.89590 0.16877
 H1724 H 0.31529 0.86174 0.20079
 H1725 H 0.23900 0.85472 0.16746
 C1726 C 0.75623 0.36651 0.59316
 C1727 C 0.76556 0.34475 0.58153
 C1728 C 0.77105 0.34358 0.55545
 C1729 C 0.76703 0.36595 0.54071
 C1730 C 0.75784 0.38892 0.55223
 C1731 C 0.75230 0.38905 0.57892
 O1732 O 0.75139 0.36317 0.61803
 C1733 C 0.75784 0.33870 0.62217
 C1734 C 0.76674 0.32671 0.60041
 C1735 C 0.77400 0.30101 0.59997
 C1736 C 0.77137 0.28682 0.62272
 C1737 C 0.76148 0.29837 0.64535
 C1738 C 0.75514 0.32491 0.64522
 H1739 H 0.77799 0.32603 0.54672
 H1740 H 0.77090 0.36527 0.52030
 H1741 H 0.74552 0.40624 0.58846
 H1742 H 0.78094 0.29205 0.58259
 H1743 H 0.77652 0.26657 0.62250
 H1744 H 0.74721 0.33415 0.66203
 C1745 C 0.09987 0.14429 0.75456
 C1746 C 0.09331 0.16143 0.73539
 C1747 C 0.07571 0.15552 0.71614
 C1748 C 0.06451 0.13092 0.71659
 C1749 C 0.07035 0.11282 0.73658
 C1750 C 0.08819 0.12017 0.75604
 O1751 O 0.11847 0.15281 0.76988
 C1752 C 0.12370 0.17592 0.76019
 C1753 C 0.10855 0.18231 0.73931
 C1754 C 0.11094 0.20557 0.72609
 C1755 C 0.13000 0.22275 0.73450
 C1756 C 0.14657 0.21606 0.75526
 C1757 C 0.14323 0.19239 0.76842
 H1758 H 0.07139 0.16907 0.70079
 H1759 H 0.05190 0.12606 0.70079
 H1760 H 0.09325 0.10768 0.77199
 H1761 H 0.09880 0.21019 0.70970
 H1762 H 0.13259 0.24075 0.72419
 H1763 H 0.15575 0.18682 0.78424
 C1764 C 0.63192 0.61497 0.26989
 C1765 C 0.65508 0.60300 0.27488
 C1766 C 0.65786 0.57637 0.27596
 C1767 C 0.63588 0.56140 0.27165
 C1768 C 0.61170 0.57320 0.26658
 C1769 C 0.60967 0.60042 0.26590
 O1770 O 0.63376 0.64051 0.26882
 C1771 C 0.65859 0.64469 0.27328
 C1772 C 0.67239 0.62235 0.27724
 C1773 C 0.69870 0.62211 0.28192
 C1774 C 0.71143 0.64587 0.28235
 C1775 C 0.69784 0.66933 0.27790
 C1776 C 0.67090 0.66861 0.27346
 H1777 H 0.67634 0.56742 0.27975
 H1778 H 0.63762 0.54060 0.27240
 H1779 H 0.59150 0.60989 0.26183
 H1780 H 0.70912 0.60424 0.28493
 H1781 H 0.73200 0.64586 0.28572
 H1782 H 0.65990 0.68606 0.26999
 C1783 C 0.13461 0.90051 0.26081
 C1784 C 0.12915 0.88264 0.27953
 C1785 C 0.10746 0.88398 0.29475
 C1786 C 0.09051 0.90459 0.29060
 C1787 C 0.09518 0.92371 0.27127
 C1788 C 0.11789 0.92128 0.25615
 O1789 O 0.15612 0.89512 0.24814
 C1790 C 0.16420 0.87325 0.25907
 C1791 C 0.14820 0.86484 0.27832
 C1792 C 0.15198 0.84180 0.29157
 C1793 C 0.17302 0.82658 0.28454
 C1794 C 0.18996 0.83472 0.26489
 C1795 C 0.18574 0.85858 0.25211
 H1796 H 0.10341 0.86933 0.30907
 H1797 H 0.07306 0.90450 0.30177
 H1798 H 0.12291 0.93524 0.24152
 H1799 H 0.13888 0.83550 0.30641
 H1800 H 0.17610 0.80831 0.29430
 H1801 H 0.19815 0.86491 0.23669
 C1802 C 0.62476 0.38449 0.73592
 C1803 C 0.63508 0.38622 0.71173
 C1804 C 0.62757 0.40503 0.69407
 C1805 C 0.60850 0.42265 0.70157
 C1806 C 0.59767 0.42169 0.72667
 C1807 C 0.60642 0.40228 0.74409
 O1808 O 0.63364 0.36450 0.74940
 C1809 C 0.64999 0.35340 0.73338
 C1810 C 0.65182 0.36610 0.71014
 C1811 C 0.66807 0.35791 0.69064
 C1812 C 0.68298 0.33571 0.69528
 C1813 C 0.68088 0.32201 0.71883
 C1814 C 0.66415 0.33092 0.73814
 H1815 H 0.63562 0.40573 0.67494
 H1816 H 0.60185 0.43651 0.68741
 H1817 H 0.59926 0.40079 0.76350
 H1818 H 0.66927 0.36825 0.67254
 H1819 H 0.69579 0.32888 0.68044
 H1820 H 0.66238 0.32076 0.75629
 C1821 C 0.88242 0.10073 0.24969
 C1822 C 0.86305 0.08279 0.25089
 C1823 C 0.86728 0.05658 0.24738
 C1824 C 0.89257 0.04848 0.24275
 C1825 C 0.91302 0.06655 0.24174
 C1826 C 0.90772 0.09311 0.24511
 O1827 O 0.87428 0.12467 0.25360
 C1828 C 0.84924 0.12174 0.25745
 C1829 C 0.84144 0.09648 0.25605
 C1830 C 0.81609 0.08901 0.25951
 C1831 C 0.79792 0.10839 0.26427
 C1832 C 0.80530 0.13475 0.26540
 C1833 C 0.83150 0.14138 0.26217
 H1834 H 0.85171 0.04282 0.24849
 H1835 H 0.89634 0.02805 0.24074
 H1836 H 0.92285 0.10737 0.24439
 H1837 H 0.81043 0.06898 0.25835
 H1838 H 0.77803 0.10280 0.26660
 H1839 H 0.83786 0.16122 0.26272
 C1840 C 0.38384 0.60148 0.76553
 C1841 C 0.36293 0.58545 0.76334
 C1842 C 0.36525 0.55923 0.75849
 C1843 C 0.39015 0.54913 0.75580
 C1844 C 0.41206 0.56526 0.75801
 C1845 C 0.40875 0.59182 0.76310
 O1846 O 0.37742 0.62594 0.76926
 C1847 C 0.35192 0.62534 0.76944
 C1848 C 0.34208 0.60103 0.76598
 C1849 C 0.31583 0.59617 0.76479
 C1850 C 0.29903 0.61727 0.76694
 C1851 C 0.30868 0.64267 0.77014
 C1852 C 0.33561 0.64657 0.77169
 H1853 H 0.34851 0.54702 0.75670
 H1854 H 0.39239 0.52871 0.75219
 H1855 H 0.42506 0.60467 0.76455
 H1856 H 0.30854 0.57688 0.76187
 H1857 H 0.27855 0.61382 0.76553
 H1858 H 0.34374 0.66563 0.77377
 C1859 C 0.91378 0.87985 0.72720
 C1860 C 0.92522 0.85919 0.71541
 C1861 C 0.95078 0.85918 0.70776
 C1862 C 0.96518 0.88152 0.71227
 C1863 C 0.95387 0.90322 0.72431
 C1864 C 0.92773 0.90225 0.73189
 O1865 O 0.88944 0.87557 0.73357
 C1866 C 0.88544 0.85162 0.72565
 C1867 C 0.90678 0.84083 0.71439
 C1868 C 0.90738 0.81569 0.70554
 C1869 C 0.88526 0.80082 0.70891
 C1870 C 0.86307 0.81122 0.72087
 C1871 C 0.86298 0.83721 0.72892
 H1872 H 0.95938 0.84252 0.69875
 H1873 H 0.98518 0.88182 0.70665
 H1874 H 0.91844 0.91854 0.74088
 H1875 H 0.92445 0.80762 0.69687
 H1876 H 0.88558 0.78097 0.70258
 H1877 H 0.84650 0.84549 0.73848
 C1878 C 0.38742 0.40521 0.24615
 C1879 C 0.36930 0.41252 0.26387
 C1880 C 0.37346 0.43232 0.28131
 C1881 C 0.39711 0.44531 0.28021
 C1882 C 0.41579 0.43854 0.26164
 C1883 C 0.41085 0.41811 0.24446
 O1884 O 0.37994 0.38563 0.23166
 C1885 C 0.35653 0.38054 0.24029
 C1886 C 0.34897 0.39656 0.25983
 C1887 C 0.32494 0.39475 0.27135
 C1888 C 0.30821 0.37540 0.26261
 C1889 C 0.31591 0.35817 0.24298
 C1890 C 0.34041 0.36098 0.23161
 H1891 H 0.35899 0.43767 0.29518
 H1892 H 0.40063 0.46107 0.29331
 H1893 H 0.42481 0.41252 0.23015
 H1894 H 0.31935 0.40763 0.28663
 H1895 H 0.28963 0.37333 0.27167
 H1896 H 0.34685 0.34817 0.21658
   
