data_POSCAR
  _audit_creation_date              2014-09-24
  _audit_creation_method            'ToBaCCo'
  _symmetry_space_group_name_H-M    'P1'
  _symmetry_Int_Tables_number       1
  _symmetry_cell_setting            triclinic
  loop_
  _symmetry_equiv_pos_as_xyz
 x,y,z
_cell_length_a 59.8499
_cell_length_b 58.8601
_cell_length_c 59.6339
_cell_angle_alpha 89.953200
_cell_angle_beta 90.072200
_cell_angle_gamma 90.223500
loop_
  _atom_site_label
  _atom_site_type_symbol
  _atom_site_fract_x
  _atom_site_fract_y
  _atom_site_fract_z
O1 O 0.34731 0.31574 -0.01924
 O2 O 0.31589 0.34882 0.02261
 O3 O 0.34603 0.31691 0.02431
 O4 O 0.31830 0.34858 -0.02085
 O5 O 0.29108 0.32327 -0.02155
 O6 O 0.31922 0.29111 0.02356
 O7 O 0.28902 0.32308 0.02192
 O8 O 0.32021 0.29026 -0.02000
 Cu9 Cu 0.33458 0.33505 0.00180
 Cu10 Cu 0.30219 0.30436 0.00091
 C11 C 0.33916 0.29724 -0.02669
 C12 C 0.29694 0.34168 0.02926
 C13 C 0.33758 0.29850 0.03154
 C14 C 0.29982 0.34160 -0.02883
 O15 O 0.67905 0.63864 0.02125
 O16 O 0.64770 0.66814 -0.02322
 O17 O 0.68006 0.63871 -0.02248
 O18 O 0.64648 0.66785 0.02031
 O19 O 0.67090 0.69600 0.02098
 O20 O 0.70470 0.66660 -0.02164
 O21 O 0.67235 0.69608 -0.02253
 O22 O 0.70350 0.66675 0.02201
 Cu23 Cu 0.66090 0.65050 -0.00111
 Cu24 Cu 0.69034 0.68414 -0.00021
 C25 C 0.69666 0.64766 0.02925
 C26 C 0.65460 0.68725 -0.03039
 C27 C 0.69817 0.64759 -0.02943
 C28 C 0.65283 0.68700 0.02785
 O29 O 0.64240 0.32782 1.02171
 O30 O 0.67305 0.36076 0.97922
 O31 O 0.64266 0.32879 0.97826
 O32 O 0.67262 0.36005 1.02235
 O33 O 0.69908 0.33411 1.02246
 O34 O 0.66924 0.30293 0.97782
 O35 O 0.69956 0.33479 0.97884
 O36 O 0.66904 0.30201 1.02172
 Cu37 Cu 0.65498 0.34689 1.00041
 Cu38 Cu 0.68685 0.31580 1.00018
 C39 C 0.65045 0.30929 1.02897
 C40 C 0.69167 0.35356 0.97197
 C41 C 0.65077 0.31053 0.97049
 C42 C 0.69114 0.35269 1.02979
 O43 O 0.32649 0.64291 0.96937
 O44 O 0.35828 0.67328 1.01282
 O45 O 0.32748 0.64227 1.01298
 O46 O 0.35740 0.67464 0.96949
 O47 O 0.33091 0.70061 0.96981
 O48 O 0.30172 0.66887 1.01437
 O49 O 0.33268 0.70013 1.01349
 O50 O 0.30009 0.66890 0.97084
 Cu51 Cu 0.34498 0.65561 0.99094
 Cu52 Cu 0.31374 0.68728 0.99217
 C53 C 0.30767 0.65043 0.96294
 C54 C 0.35102 0.69194 1.02054
 C55 C 0.30953 0.65006 1.02130
 C56 C 0.34941 0.69328 0.96239
 O57 O 0.02964 0.33466 0.36458
 O58 O -0.01561 0.36560 0.33608
 O59 O -0.01352 0.33396 0.36669
 O60 O 0.02794 0.36663 0.33447
 O61 O 0.02756 0.34038 0.30811
 O62 O -0.01518 0.30839 0.33976
 O63 O -0.01594 0.33983 0.30925
 O64 O 0.02831 0.30826 0.33838
 Cu65 Cu 0.00718 0.35287 0.35307
 Cu66 Cu 0.00616 0.32162 0.32119
 C67 C 0.03651 0.31599 0.35650
 C68 C -0.02349 0.35803 0.31773
 C69 C -0.02151 0.31557 0.35883
 C70 C 0.03497 0.35908 0.31584
 O71 O 0.02309 0.67130 0.64373
 O72 O -0.02442 0.64526 0.67333
 O73 O -0.01989 0.67506 0.64090
 O74 O 0.01875 0.64201 0.67612
 O75 O 0.02045 0.67036 0.70026
 O76 O -0.02036 0.70224 0.66627
 O77 O -0.02303 0.67242 0.69874
 O78 O 0.02307 0.69972 0.66782
 Cu79 Cu -0.00078 0.65562 0.65606
 Cu80 Cu 0.00002 0.68897 0.68576
 C81 C 0.03108 0.69009 0.65056
 C82 C -0.03157 0.65410 0.69136
 C83 C -0.02670 0.69438 0.64744
 C84 C 0.02643 0.65065 0.69408
 O85 O 0.97843 0.67628 0.35611
 O86 O 1.01975 0.64528 0.32285
 O87 O 1.02191 0.67648 0.35424
 O88 O 0.97666 0.64649 0.32409
 O89 O 0.97650 0.67361 0.29854
 O90 O 1.02112 0.70367 0.32885
 O91 O 1.01981 0.67258 0.29747
 O92 O 0.97764 0.70351 0.33070
 Cu93 Cu 0.99935 0.65847 0.34192
 Cu94 Cu 0.99880 0.69111 0.31139
 C95 C 0.97079 0.69507 0.34911
 C96 C 1.02652 0.65330 0.30430
 C97 C 1.02909 0.69544 0.34684
 C98 C 0.96900 0.65487 0.30600
 O99 O 0.97722 0.31784 0.64314
 O100 O 1.02236 0.34800 0.67292
 O101 O 1.02061 0.31539 0.64357
 O102 O 0.97934 0.35108 0.67219
 O103 O 0.97672 0.32584 0.69945
 O104 O 1.01889 0.29043 0.67107
 O105 O 1.02007 0.32323 0.70061
 O106 O 0.97555 0.29261 0.67045
 Cu107 Cu 1.00003 0.33554 0.65517
 Cu108 Cu 0.99760 0.30551 0.68815
 C109 C 0.96884 0.29990 0.65157
 C110 C 1.02875 0.34094 0.69201
 C111 C 1.02689 0.29678 0.65231
 C112 C 0.97115 0.34475 0.69082
 O113 O 0.33638 -0.02639 0.36132
 O114 O 0.36242 0.02062 0.32972
 O115 O 0.33335 0.01781 0.36195
 O116 O 0.36612 -0.02308 0.32925
 O117 O 0.33893 -0.02549 0.30432
 O118 O 0.30629 0.01608 0.33687
 O119 O 0.33546 0.01845 0.30456
 O120 O 0.30929 -0.02810 0.33628
 Cu121 Cu 0.35223 -0.00264 0.34814
 Cu122 Cu 0.31974 -0.00499 0.31804
 C123 C 0.31828 -0.03521 0.35424
 C124 C 0.35349 0.02741 0.31158
 C125 C 0.31430 0.02411 0.35498
 C126 C 0.35832 -0.03103 0.31105
 O127 O 0.64276 0.02502 0.67356
 O128 O 0.67869 -0.01534 0.64331
 O129 O 0.64746 -0.01861 0.67332
 O130 O 0.67354 0.02847 0.64240
 O131 O 0.69913 0.03205 0.66883
 O132 O 0.67278 -0.01522 0.70003
 O133 O 0.70426 -0.01196 0.66977
 O134 O 0.66859 0.02868 0.69976
 Cu135 Cu 0.65808 0.00464 0.65546
 Cu136 Cu 0.68879 0.00872 0.68722
 C137 C 0.64943 0.03351 0.69200
 C138 C 0.69763 -0.02058 0.65140
 C139 C 0.65546 -0.02487 0.69204
 C140 C 0.69087 0.03821 0.65016
 O141 O 0.33025 1.01646 0.64091
 O142 O 0.36162 0.97696 0.67684
 O143 O 0.33246 0.97274 0.64454
 O144 O 0.35995 1.02073 0.67284
 O145 O 0.33304 1.02146 0.69809
 O146 O 0.30480 0.97412 0.66890
 O147 O 0.33403 0.97710 0.70136
 O148 O 0.30348 1.01807 0.66629
 Cu149 Cu 0.34881 0.99665 0.65631
 Cu150 Cu 0.31615 0.99775 0.68623
 C151 C 0.31146 1.02394 0.64742
 C152 C 0.35315 0.97022 0.69521
 C153 C 0.31375 0.96546 0.65159
 C154 C 0.35135 1.02920 0.69038
 O155 O 0.64846 0.97367 0.31763
 O156 O 0.67504 1.01875 0.35110
 O157 O 0.64394 1.01734 0.31999
 O158 O 0.67910 0.97517 0.34859
 O159 O 0.70513 0.97967 0.32280
 O160 O 0.66975 1.02184 0.29397
 O161 O 0.70056 1.02349 0.32489
 O162 O 0.67426 0.97795 0.29157
 Cu163 Cu 0.65903 0.99587 0.33691
 Cu164 Cu 0.69000 1.00115 0.30568
 C165 C 0.65670 0.96819 0.29878
 C166 C 0.69257 1.02864 0.34396
 C167 C 0.65066 1.02659 0.30195
 C168 C 0.69825 0.97040 0.34079
 O169 O 0.82430 0.85899 0.52241
 O170 O 0.85658 0.82972 0.47882
 O171 O 0.82385 0.85853 0.47881
 O172 O 0.85676 0.82910 0.52233
 O173 O 0.83153 0.80166 0.52332
 O174 O 0.79968 0.83015 0.47868
 O175 O 0.83251 0.80125 0.47946
 O176 O 0.79932 0.83134 0.52211
 Cu177 Cu 0.84284 0.84689 0.50067
 Cu178 Cu 0.81336 0.81324 0.50094
 C179 C 0.80608 0.85045 0.52943
 C180 C 0.85014 0.81046 0.47169
 C181 C 0.80614 0.84931 0.47124
 C182 C 0.84972 0.81034 0.53024
 O183 O 0.14563 0.17133 0.47908
 O184 O 0.17705 0.14053 0.52255
 O185 O 0.14631 0.17198 0.52269
 O186 O 0.17562 0.13946 0.47916
 O187 O 0.20240 0.16530 0.47848
 O188 O 0.17234 0.19856 0.52118
 O189 O 0.20298 0.16730 0.52214
 O190 O 0.17228 0.19727 0.47769
 Cu191 Cu 0.15849 0.15321 0.50102
 Cu192 Cu 0.19017 0.18472 0.49975
 C193 C 0.15359 0.18960 0.47094
 C194 C 0.19540 0.14865 0.52974
 C195 C 0.15412 0.19096 0.52920
 C196 C 0.19413 0.14667 0.47151
 O197 O 0.14870 0.82099 0.52171
 O198 O 0.18037 0.84971 0.47724
 O199 O 0.14971 0.81806 0.47834
 O200 O 0.17958 0.85197 0.52078
 O201 O 0.20550 0.82554 0.52304
 O202 O 0.17579 0.79176 0.48033
 O203 O 0.20664 0.82362 0.47944
 O204 O 0.17451 0.79441 0.52379
 Cu205 Cu 0.16202 0.83783 0.49923
 Cu206 Cu 0.19325 0.80619 0.50178
 C207 C 0.15609 0.80277 0.53034
 C208 C 0.19903 0.84181 0.47088
 C209 C 0.15747 0.79896 0.47227
 C210 C 0.19760 0.84451 0.52927
 O211 O 0.84843 0.18089 0.51549
 O212 O 0.82022 0.15013 0.46971
 O213 O 0.85143 0.18137 0.47220
 O214 O 0.81804 0.14905 0.51283
 O215 O 0.79216 0.17565 0.51229
 O216 O 0.82517 0.20753 0.47029
 O217 O 0.79415 0.17655 0.46854
 O218 O 0.82274 0.20760 0.51385
 Cu219 Cu 0.83715 0.16274 0.49267
 Cu220 Cu 0.80592 0.19448 0.49118
 C221 C 0.84060 0.19970 0.52228
 C222 C 0.80223 0.15797 0.46148
 C223 C 0.84412 0.19997 0.46434
 C224 C 0.79934 0.15665 0.51939
 O225 O 0.48798 0.86548 0.83319
 O226 O 0.53037 0.83196 0.86300
 O227 O 0.53124 0.86385 0.83302
 O228 O 0.48713 0.83308 0.86358
 O229 O 0.48559 0.80743 0.83665
 O230 O 0.53007 0.83805 0.80624
 O231 O 0.52901 0.80596 0.83641
 O232 O 0.48654 0.83956 0.80650
 Cu233 Cu 0.50918 0.85119 0.85088
 Cu234 Cu 0.50764 0.82017 0.81875
 C235 C 0.48022 0.85842 0.81461
 C236 C 0.53694 0.81321 0.85486
 C237 C 0.53825 0.85621 0.81441
 C238 C 0.47905 0.81483 0.85552
 O239 O 0.51693 0.17826 0.14503
 O240 O 0.47683 0.14931 0.18204
 O241 O 0.47399 0.17932 0.15017
 O242 O 0.51982 0.14796 0.17720
 O243 O 0.52389 0.17555 0.20192
 O244 O 0.47781 0.20682 0.17499
 O245 O 0.48073 0.17660 0.20709
 O246 O 0.52100 0.20561 0.17002
 Cu247 Cu 0.49657 0.16096 0.16112
 Cu248 Cu 0.50122 0.19390 0.19101
 C249 C 0.52565 0.19699 0.15107
 C250 C 0.47201 0.15788 0.20096
 C251 C 0.46814 0.19852 0.15784
 C252 C 0.52956 0.15627 0.19429
 O253 O 0.52141 0.14724 0.82597
 O254 O 0.47499 0.17642 0.85441
 O255 O 0.47850 0.14494 0.82368
 O256 O 0.51807 0.17772 0.85776
 O257 O 0.51938 0.20446 0.83182
 O258 O 0.47861 0.17186 0.79789
 O259 O 0.47605 0.20343 0.82878
 O260 O 0.52206 0.17418 0.80019
 Cu261 Cu 0.49816 0.15892 0.84305
 Cu262 Cu 0.49903 0.19117 0.81207
 C263 C 0.52947 0.15563 0.80805
 C264 C 0.46784 0.19515 0.84664
 C265 C 0.47201 0.15255 0.80487
 C266 C 0.52541 0.19671 0.85078
 O267 O 0.52359 0.85291 0.17277
 O268 O 0.47931 0.82607 0.13899
 O269 O 0.48034 0.85461 0.17249
 O270 O 0.52278 0.82432 0.13953
 O271 O 0.52163 0.79587 0.16360
 O272 O 0.47835 0.82570 0.19600
 O273 O 0.47819 0.79726 0.16263
 O274 O 0.52185 0.82460 0.19696
 Cu275 Cu 0.50162 0.84232 0.15353
 Cu276 Cu 0.49988 0.80798 0.18219
 C277 C 0.53017 0.84348 0.19076
 C278 C 0.47126 0.80700 0.14493
 C279 C 0.47211 0.84536 0.18990
 C280 C 0.52952 0.80493 0.14594
 O281 O 0.84842 0.52080 0.81288
 O282 O 0.82037 0.47652 0.84622
 O283 O 0.85066 0.47679 0.81468
 O284 O 0.81859 0.52038 0.84466
 O285 O 0.79180 0.51787 0.81934
 O286 O 0.82394 0.47408 0.78927
 O287 O 0.79392 0.47379 0.82052
 O288 O 0.82188 0.51833 0.78730
 Cu289 Cu 0.83720 0.49886 0.83213
 Cu290 Cu 0.80523 0.49588 0.80150
 C291 C 0.84005 0.52705 0.79430
 C292 C 0.80230 0.46766 0.83913
 C293 C 0.84282 0.46796 0.79689
 C294 C 0.79957 0.52637 0.83734
 O295 O 0.17609 0.48326 0.14199
 O296 O 0.14365 0.52753 0.17089
 O297 O 0.17421 0.52728 0.13979
 O298 O 0.14476 0.48345 0.17228
 O299 O 0.17019 0.48595 0.19896
 O300 O 0.20062 0.52894 0.16559
 O301 O 0.17009 0.53029 0.19658
 O302 O 0.20171 0.48501 0.16857
 Cu303 Cu 0.15708 0.50516 0.15363
 Cu304 Cu 0.18821 0.50771 0.18511
 C305 C 0.19453 0.47664 0.15029
 C306 C 0.15142 0.53657 0.18862
 C307 C 0.19255 0.53545 0.14694
 C308 C 0.15224 0.47731 0.19125
 O309 O 0.85193 0.47630 0.18270
 O310 O 0.81807 0.51942 0.15419
 O311 O 0.84891 0.52017 0.18503
 O312 O 0.82058 0.47565 0.15226
 O313 O 0.79552 0.47167 0.17913
 O314 O 0.82294 0.51748 0.21112
 O315 O 0.79193 0.51581 0.18000
 O316 O 0.82673 0.47369 0.20956
 Cu317 Cu 0.83745 0.49820 0.16592
 Cu318 Cu 0.80666 0.49440 0.19758
 C319 C 0.84534 0.46784 0.20116
 C320 C 0.79906 0.52475 0.16194
 C321 C 0.84088 0.52635 0.20376
 C322 C 0.80321 0.46606 0.16009
 O323 O 0.16372 0.51819 0.86210
 O324 O 0.13418 0.47188 0.83269
 O325 O 0.16477 0.47388 0.86347
 O326 O 0.13219 0.51569 0.83159
 O327 O 0.15820 0.51656 0.80541
 O328 O 0.19062 0.47396 0.83715
 O329 O 0.15989 0.47245 0.80622
 O330 O 0.18963 0.51825 0.83585
 Cu331 Cu 0.14619 0.49498 0.85016
 Cu332 Cu 0.17721 0.49540 0.81856
 C333 C 0.18185 0.52603 0.85408
 C334 C 0.14193 0.46435 0.81431
 C335 C 0.18312 0.46654 0.85572
 C336 C 0.13939 0.52302 0.81291
 C337 C 0.26205 0.34848 0.05138
 C338 C 0.24898 0.36206 0.06534
 C339 C 0.25730 0.38270 0.07369
 C340 C 0.27908 0.38953 0.06775
 C341 C 0.29214 0.37598 0.05371
 C342 C 0.28371 0.35538 0.04524
 C343 C 0.24233 0.39720 0.08729
 C344 C 0.24975 0.41301 0.10169
 C345 C 0.23471 0.42824 0.11443
 C346 C 0.24253 0.43807 0.13438
 C347 C 0.22930 0.45339 0.14629
 C348 C 0.20801 0.45943 0.13835
 C349 C 0.20013 0.44953 0.11839
 C350 C 0.21333 0.43414 0.10652
 H351 H 0.25500 0.33276 0.04506
 H352 H 0.23221 0.35649 0.06950
 H353 H 0.28587 0.40564 0.07327
 H354 H 0.30869 0.38186 0.04916
 H355 H 0.22454 0.39417 0.08575
 H356 H 0.26749 0.41454 0.10492
 H357 H 0.25900 0.43397 0.14072
 H358 H 0.23592 0.46079 0.16155
 H359 H 0.18388 0.45396 0.11172
 H360 H 0.20697 0.42750 0.09085
 C361 C 0.72968 0.64491 0.05494
 C362 C 0.74226 0.63326 0.07096
 C363 C 0.73485 0.61236 0.07955
 C364 C 0.71449 0.60328 0.07173
 C365 C 0.70192 0.61490 0.05564
 C366 C 0.70946 0.63577 0.04695
 C367 C 0.74956 0.59987 0.09527
 C368 C 0.74229 0.58365 0.10933
 C369 C 0.75755 0.56994 0.12347
 C370 C 0.74922 0.55948 0.14292
 C371 C 0.76283 0.54528 0.15584
 C372 C 0.78500 0.54104 0.14938
 C373 C 0.79338 0.55166 0.13000
 C374 C 0.77983 0.56587 0.11716
 H375 H 0.73600 0.66092 0.04856
 H376 H 0.75798 0.64053 0.07653
 H377 H 0.70850 0.58690 0.07741
 H378 H 0.68647 0.60735 0.04975
 H379 H 0.76705 0.60460 0.09539
 H380 H 0.72455 0.58041 0.11092
 H381 H 0.73206 0.56215 0.14801
 H382 H 0.75584 0.53724 0.17061
 H383 H 0.81033 0.54863 0.12445
 H384 H 0.78669 0.57296 0.10190
 C385 C 0.70068 0.39097 0.95437
 C386 C 0.71379 0.40453 0.94034
 C387 C 0.73062 0.39485 0.92715
 C388 C 0.73429 0.37130 0.92836
 C389 C 0.72145 0.35777 0.94275
 C390 C 0.70455 0.36749 0.95591
 C391 C 0.74476 0.40990 0.91327
 C392 C 0.75316 0.40362 0.89344
 C393 C 0.76656 0.41940 0.87962
 C394 C 0.76355 0.41973 0.85631
 C395 C 0.77527 0.43535 0.84306
 C396 C 0.79065 0.45046 0.85288
 C397 C 0.79430 0.44948 0.87613
 C398 C 0.78225 0.43421 0.88941
 H399 H 0.68791 0.39896 0.96448
 H400 H 0.71080 0.42267 0.93978
 H401 H 0.74748 0.36344 0.91872
 H402 H 0.72484 0.33973 0.94368
 H403 H 0.74723 0.42720 0.91901
 H404 H 0.74877 0.38722 0.88641
 H405 H 0.75167 0.40831 0.84843
 H406 H 0.77227 0.43563 0.82515
 H407 H 0.80608 0.46091 0.88413
 H408 H 0.78525 0.43393 0.90732
 C409 C 0.30320 0.61768 0.93651
 C410 C 0.29020 0.60444 0.92204
 C411 C 0.26793 0.61024 0.91752
 C412 C 0.25915 0.63016 0.92706
 C413 C 0.27222 0.64350 0.94144
 C414 C 0.29429 0.63723 0.94656
 C415 C 0.25458 0.59516 0.90272
 C416 C 0.23224 0.59339 0.90383
 C417 C 0.21923 0.57684 0.89029
 C418 C 0.19865 0.56895 0.89850
 C419 C 0.18632 0.55266 0.88666
 C420 C 0.19426 0.54408 0.86618
 C421 C 0.21451 0.55254 0.85759
 C422 C 0.22683 0.56879 0.86945
 H423 H 0.32018 0.61244 0.93999
 H424 H 0.29744 0.58933 0.91473
 H425 H 0.24229 0.63559 0.92339
 H426 H 0.26491 0.65855 0.94880
 H427 H 0.26376 0.58386 0.89182
 H428 H 0.22322 0.60305 0.91630
 H429 H 0.19229 0.57506 0.91439
 H430 H 0.17072 0.54660 0.89368
 H431 H 0.22098 0.54649 0.84174
 H432 H 0.24220 0.57506 0.86214
 C433 C 0.06391 0.31178 0.38800
 C434 C 0.07950 0.29899 0.39999
 C435 C 0.08520 0.27702 0.39297
 C436 C 0.07569 0.26842 0.37311
 C437 C 0.06017 0.28125 0.36105
 C438 C 0.05388 0.30294 0.36854
 C439 C 0.10103 0.26370 0.40676
 C440 C 0.10083 0.24092 0.40754
 C441 C 0.11521 0.22771 0.42297
 C442 C 0.10778 0.20634 0.43033
 C443 C 0.12036 0.19379 0.44569
 C444 C 0.14081 0.20228 0.45379
 C445 C 0.14864 0.22332 0.44580
 C446 C 0.13601 0.23590 0.43051
 H447 H 0.05955 0.32849 0.39413
 H448 H 0.08677 0.30609 0.41509
 H449 H 0.08024 0.25186 0.36677
 H450 H 0.05290 0.27405 0.34600
 H451 H 0.11186 0.27309 0.41800
 H452 H 0.08845 0.23158 0.39799
 H453 H 0.09192 0.19955 0.42458
 H454 H 0.11393 0.17757 0.45140
 H455 H 0.16444 0.23022 0.45154
 H456 H 0.14265 0.25194 0.42460
 C457 C 0.05879 0.69041 0.61911
 C458 C 0.07550 0.70120 0.60666
 C459 C 0.08321 0.72288 0.61272
 C460 C 0.07458 0.73316 0.63215
 C461 C 0.05790 0.72235 0.64464
 C462 C 0.04959 0.70100 0.63807
 C463 C 0.09998 0.73425 0.59827
 C464 C 0.10157 0.75691 0.59647
 C465 C 0.11644 0.76845 0.58018
 C466 C 0.11050 0.79014 0.57252
 C467 C 0.12349 0.80133 0.55650
 C468 C 0.14290 0.79118 0.54796
 C469 C 0.14928 0.76975 0.55613
 C470 C 0.13620 0.75848 0.57210
 H471 H 0.05288 0.67389 0.61369
 H472 H 0.08204 0.69282 0.59190
 H473 H 0.08067 0.74951 0.63780
 H474 H 0.05135 0.73084 0.65932
 H475 H 0.10982 0.72357 0.58734
 H476 H 0.09015 0.76753 0.60580
 H477 H 0.09549 0.79827 0.57863
 H478 H 0.11819 0.81790 0.55070
 H479 H 0.16427 0.76158 0.55002
 H480 H 0.14170 0.74210 0.57815
 C481 C 0.94527 0.69706 0.38222
 C482 C 0.92961 0.70844 0.39534
 C483 C 0.92234 0.73025 0.38940
 C484 C 0.93056 0.74021 0.36957
 C485 C 0.94620 0.72876 0.35636
 C486 C 0.95386 0.70714 0.36266
 C487 C 0.90615 0.74182 0.40426
 C488 C 0.90435 0.76448 0.40563
 C489 C 0.88969 0.77598 0.42207
 C490 C 0.89537 0.79798 0.42912
 C491 C 0.88248 0.80918 0.44514
 C492 C 0.86342 0.79870 0.45432
 C493 C 0.85735 0.77690 0.44683
 C494 C 0.87030 0.76566 0.43083
 H495 H 0.95069 0.68035 0.38749
 H496 H 0.92340 0.70030 0.41042
 H497 H 0.92482 0.75670 0.36404
 H498 H 0.95234 0.73688 0.34126
 H499 H 0.89674 0.73123 0.41574
 H500 H 0.91532 0.77514 0.39571
 H501 H 0.91009 0.80639 0.42250
 H502 H 0.88754 0.82604 0.45042
 H503 H 0.84263 0.76847 0.45339
 H504 H 0.86495 0.74902 0.42526
 C505 C 0.94384 0.26595 0.64707
 C506 C 0.92859 0.25312 0.63459
 C507 C 0.92044 0.26118 0.61402
 C508 C 0.92789 0.28244 0.60613
 C509 C 0.94324 0.29524 0.61856
 C510 C 0.95153 0.28705 0.63908
 C511 C 0.90554 0.24631 0.60058
 C512 C 0.89135 0.25419 0.58502
 C513 C 0.87773 0.23920 0.57039
 C514 C 0.85824 0.24790 0.56058
 C515 C 0.84579 0.23483 0.54547
 C516 C 0.85274 0.21283 0.53963
 C517 C 0.87213 0.20401 0.54964
 C518 C 0.88453 0.21704 0.56482
 H519 H 0.94997 0.25911 0.66277
 H520 H 0.92327 0.23672 0.64094
 H521 H 0.92254 0.28894 0.59003
 H522 H 0.94894 0.31135 0.61186
 H523 H 0.90606 0.22827 0.60407
 H524 H 0.88919 0.27234 0.58308
 H525 H 0.85276 0.26497 0.56444
 H526 H 0.83099 0.24218 0.53798
 H527 H 0.87803 0.18720 0.54538
 H528 H 0.89981 0.20996 0.57148
 C529 C 0.35528 0.05238 0.27760
 C530 C 0.36641 0.06823 0.26417
 C531 C 0.38683 0.07771 0.27108
 C532 C 0.39584 0.07113 0.29190
 C533 C 0.38472 0.05523 0.30533
 C534 C 0.36445 0.04548 0.29820
 C535 C 0.39897 0.09286 0.25535
 C536 C 0.41507 0.10745 0.26165
 C537 C 0.42844 0.12085 0.24540
 C538 C 0.43876 0.14105 0.25252
 C539 C 0.45252 0.15342 0.23797
 C540 C 0.45645 0.14565 0.21604
 C541 C 0.44605 0.12546 0.20890
 C542 C 0.43226 0.11317 0.22340
 H543 H 0.33971 0.04517 0.27158
 H544 H 0.35919 0.07286 0.24814
 H545 H 0.41184 0.07751 0.29758
 H546 H 0.39229 0.05017 0.32105
 H547 H 0.39416 0.09201 0.23787
 H548 H 0.41847 0.11006 0.27929
 H549 H 0.43628 0.14720 0.26945
 H550 H 0.46038 0.16884 0.24402
 H551 H 0.44887 0.11890 0.19219
 H552 H 0.42526 0.09729 0.21749
 C553 C 0.61137 0.04826 0.70110
 C554 C 0.59708 0.06109 0.71455
 C555 C 0.60567 0.07489 0.73170
 C556 C 0.62889 0.07559 0.73526
 C557 C 0.64317 0.06246 0.72206
 C558 C 0.63453 0.04858 0.70492
 C559 C 0.58998 0.08729 0.74634
 C560 C 0.59491 0.10735 0.75575
 C561 C 0.57873 0.11956 0.76998
 C562 C 0.57720 0.14326 0.76837
 C563 C 0.56133 0.15507 0.78094
 C564 C 0.54717 0.14341 0.79583
 C565 C 0.54935 0.11977 0.79812
 C566 C 0.56488 0.10792 0.78519
 H567 H 0.60422 0.03757 0.68816
 H568 H 0.57923 0.06017 0.71162
 H569 H 0.63599 0.08567 0.74869
 H570 H 0.66095 0.06296 0.72544
 H571 H 0.57340 0.08015 0.74853
 H572 H 0.61052 0.11579 0.75173
 H573 H 0.58788 0.15257 0.75690
 H574 H 0.56008 0.17332 0.77896
 H575 H 0.53864 0.11037 0.80947
 H576 H 0.56610 0.08967 0.78714
 C577 C 0.35486 0.94077 0.72552
 C578 C 0.36703 0.92601 0.73924
 C579 C 0.39039 0.92519 0.73778
 C580 C 0.40138 0.93878 0.72181
 C581 C 0.38920 0.95316 0.70778
 C582 C 0.36585 0.95446 0.70964
 C583 C 0.40300 0.90972 0.75261
 C584 C 0.42275 0.91564 0.76145
 C585 C 0.43597 0.90039 0.77596
 C586 C 0.44945 0.90989 0.79279
 C587 C 0.46323 0.89611 0.80589
 C588 C 0.46423 0.87260 0.80200
 C589 C 0.45067 0.86305 0.78518
 C590 C 0.43654 0.87679 0.77237
 H591 H 0.33685 0.94133 0.72718
 H592 H 0.35823 0.91550 0.75130
 H593 H 0.41936 0.93808 0.71996
 H594 H 0.39809 0.96351 0.69567
 H595 H 0.39533 0.89367 0.75719
 H596 H 0.42916 0.93266 0.75868
 H597 H 0.44940 0.92806 0.79571
 H598 H 0.47364 0.90396 0.81859
 H599 H 0.45117 0.84498 0.78179
 H600 H 0.42670 0.86905 0.75917
 C601 C 0.65289 0.94587 0.26315
 C602 C 0.64102 0.93080 0.24944
 C603 C 0.62146 0.92017 0.25719
 C604 C 0.61409 0.92481 0.27911
 C605 C 0.62592 0.93989 0.29280
 C606 C 0.64530 0.95081 0.28489
 C607 C 0.60829 0.90594 0.24144
 C608 C 0.59333 0.89029 0.24808
 C609 C 0.57848 0.87783 0.23237
 C610 C 0.56890 0.85719 0.23932
 C611 C 0.55359 0.84574 0.22562
 C612 C 0.54734 0.85484 0.20474
 C613 C 0.55706 0.87541 0.19771
 C614 C 0.57240 0.88682 0.21137
 H615 H 0.66771 0.95405 0.25652
 H616 H 0.64696 0.92769 0.23257
 H617 H 0.59875 0.91756 0.28554
 H618 H 0.61953 0.94344 0.30941
 H619 H 0.61126 0.90846 0.22371
 H620 H 0.59191 0.88614 0.26570
 H621 H 0.57311 0.85001 0.25550
 H622 H 0.54635 0.82996 0.23157
 H623 H 0.55250 0.88297 0.18179
 H624 H 0.57882 0.90303 0.20568
 C625 C 0.34441 0.26181 0.95068
 C626 C 0.35702 0.24839 0.93614
 C627 C 0.37731 0.25644 0.92740
 C628 C 0.38487 0.27821 0.93367
 C629 C 0.37232 0.29159 0.94831
 C630 C 0.35199 0.28351 0.95705
 C631 C 0.39073 0.24125 0.91293
 C632 C 0.40541 0.24897 0.89775
 C633 C 0.41986 0.23397 0.88411
 C634 C 0.42881 0.24245 0.86404
 C635 C 0.44381 0.22954 0.85149
 C636 C 0.45039 0.20789 0.85888
 C637 C 0.44118 0.19921 0.87880
 C638 C 0.42610 0.21211 0.89132
 H639 H 0.32888 0.25502 0.95720
 H640 H 0.35094 0.23161 0.93175
 H641 H 0.40077 0.28473 0.92786
 H642 H 0.37871 0.30815 0.95302
 H643 H 0.38781 0.22315 0.91448
 H644 H 0.40667 0.26707 0.89469
 H645 H 0.42441 0.25928 0.85819
 H646 H 0.45065 0.23678 0.83627
 H647 H 0.44604 0.18267 0.88504
 H648 H 0.42008 0.20520 0.90701
 C649 C 0.62169 0.69040 0.94374
 C650 C 0.60891 0.70264 0.92830
 C651 C 0.61570 0.72434 0.92126
 C652 C 0.63613 0.73315 0.92917
 C653 C 0.64892 0.72090 0.94456
 C654 C 0.64169 0.69954 0.95228
 C655 C 0.60105 0.73732 0.90587
 C656 C 0.60057 0.76010 0.90551
 C657 C 0.58463 0.77336 0.89177
 C658 C 0.57899 0.79532 0.89886
 C659 C 0.56363 0.80828 0.88680
 C660 C 0.55374 0.79966 0.86717
 C661 C 0.55981 0.77790 0.85971
 C662 C 0.57513 0.76487 0.87186
 H663 H 0.61573 0.67391 0.94922
 H664 H 0.59337 0.69538 0.92226
 H665 H 0.64234 0.74945 0.92349
 H666 H 0.66439 0.72831 0.95060
 H667 H 0.58909 0.72776 0.89601
 H668 H 0.61102 0.76956 0.91705
 H669 H 0.58623 0.80234 0.91402
 H670 H 0.55943 0.82504 0.89294
 H671 H 0.55262 0.77086 0.84455
 H672 H 0.57960 0.74831 0.86547
 C673 C 0.38349 0.69425 0.04691
 C674 C 0.39632 0.70589 0.06276
 C675 C 0.39041 0.72784 0.06961
 C676 C 0.37092 0.73772 0.06075
 C677 C 0.35798 0.72601 0.04494
 C678 C 0.36424 0.70422 0.03772
 C679 C 0.40486 0.73959 0.08618
 C680 C 0.40635 0.76226 0.08792
 C681 C 0.42226 0.77370 0.10332
 C682 C 0.43022 0.79544 0.09776
 C683 C 0.44596 0.80638 0.11137
 C684 C 0.45390 0.79587 0.13099
 C685 C 0.44537 0.77442 0.13694
 C686 C 0.42968 0.76347 0.12331
 H687 H 0.38871 0.67743 0.04182
 H688 H 0.41113 0.69781 0.06947
 H689 H 0.36544 0.75434 0.06613
 H690 H 0.34314 0.73407 0.03830
 H691 H 0.41589 0.72904 0.09609
 H692 H 0.39697 0.77290 0.07650
 H693 H 0.42460 0.80379 0.08259
 H694 H 0.45207 0.82297 0.10638
 H695 H 0.45094 0.76598 0.15208
 H696 H 0.42333 0.74709 0.12858
 C697 C 0.64889 0.28005 0.05949
 C698 C 0.63689 0.26735 0.07528
 C699 C 0.61369 0.26988 0.07722
 C700 C 0.60274 0.28591 0.06366
 C701 C 0.61478 0.29893 0.04822
 C702 C 0.63793 0.29597 0.04582
 C703 C 0.60128 0.25605 0.09376
 C704 C 0.58084 0.24781 0.08944
 C705 C 0.56800 0.23405 0.10571
 C706 C 0.55336 0.21727 0.09768
 C707 C 0.54012 0.20473 0.11252
 C708 C 0.54086 0.20916 0.13565
 C709 C 0.55552 0.22599 0.14372
 C710 C 0.56909 0.23823 0.12890
 H711 H 0.66675 0.27756 0.05810
 H712 H 0.64567 0.25524 0.08572
 H713 H 0.58492 0.28860 0.06519
 H714 H 0.60591 0.31111 0.03793
 H715 H 0.60965 0.25155 0.10925
 H716 H 0.57356 0.25036 0.07297
 H717 H 0.55212 0.21390 0.07986
 H718 H 0.52883 0.19201 0.10581
 H719 H 0.55636 0.22980 0.16146
 H720 H 0.57987 0.25143 0.13553
 C721 C 0.30232 0.03931 0.60945
 C722 C 0.28899 0.05244 0.59527
 C723 C 0.27197 0.06607 0.60408
 C724 C 0.26834 0.06623 0.62737
 C725 C 0.28139 0.05275 0.64152
 C726 C 0.29846 0.03913 0.63268
 C727 C 0.25750 0.07888 0.58853
 C728 C 0.24872 0.09909 0.59368
 C729 C 0.23450 0.11165 0.57771
 C730 C 0.23666 0.13531 0.57602
 C731 C 0.22390 0.14741 0.56044
 C732 C 0.20830 0.13608 0.54678
 C733 C 0.20558 0.11249 0.54907
 C734 C 0.21868 0.10034 0.56428
 H735 H 0.31523 0.02880 0.60217
 H736 H 0.29195 0.05194 0.57736
 H737 H 0.25499 0.07620 0.63458
 H738 H 0.27801 0.05286 0.65935
 H739 H 0.25492 0.07192 0.57190
 H740 H 0.25317 0.10731 0.60932
 H741 H 0.24863 0.14435 0.58638
 H742 H 0.22620 0.16562 0.55911
 H743 H 0.19366 0.10335 0.53875
 H744 H 0.21633 0.08214 0.56564
 C745 C 0.69663 0.04843 0.37977
 C746 C 0.70881 0.06278 0.39391
 C747 C 0.72771 0.07435 0.38599
 C748 C 0.73425 0.07144 0.36356
 C749 C 0.72238 0.05670 0.34950
 C750 C 0.70353 0.04476 0.35748
 C751 C 0.74118 0.08795 0.40185
 C752 C 0.75197 0.10699 0.39594
 C753 C 0.76547 0.11997 0.41227
 C754 C 0.76424 0.14374 0.41261
 C755 C 0.77627 0.15619 0.42858
 C756 C 0.79027 0.14506 0.44397
 C757 C 0.79214 0.12131 0.44303
 C758 C 0.77969 0.10885 0.42746
 H759 H 0.68226 0.03960 0.38662
 H760 H 0.70356 0.06471 0.41118
 H761 H 0.74903 0.07985 0.35712
 H762 H 0.72826 0.05441 0.33248
 H763 H 0.74152 0.08252 0.41923
 H764 H 0.74985 0.11392 0.37924
 H765 H 0.75352 0.15262 0.40091
 H766 H 0.77466 0.17451 0.42890
 H767 H 0.80279 0.11233 0.45472
 H768 H 0.78125 0.09052 0.42721
 C769 C 0.73392 0.95877 0.64689
 C770 C 0.74789 0.94414 0.63496
 C771 C 0.74038 0.93353 0.61527
 C772 C 0.71861 0.93806 0.60757
 C773 C 0.70467 0.95277 0.61944
 C774 C 0.71219 0.96333 0.63920
 C775 C 0.75607 0.91898 0.60256
 C776 C 0.74935 0.90251 0.58853
 C777 C 0.76491 0.88883 0.57475
 C778 C 0.75769 0.86768 0.56659
 C779 C 0.77128 0.85491 0.55236
 C780 C 0.79235 0.86315 0.54579
 C781 C 0.79970 0.88422 0.55414
 C782 C 0.78613 0.89696 0.56840
 H783 H 0.74027 0.96671 0.66199
 H784 H 0.76465 0.94112 0.64113
 H785 H 0.71244 0.93082 0.59208
 H786 H 0.68808 0.95605 0.61297
 H787 H 0.77374 0.92164 0.60546
 H788 H 0.73174 0.89838 0.58734
 H789 H 0.74135 0.86112 0.57106
 H790 H 0.76507 0.83879 0.54615
 H791 H 0.81577 0.89113 0.54926
 H792 H 0.79207 0.91347 0.57375
 C793 C 0.31597 0.93920 0.38788
 C794 C 0.30476 0.92275 0.40059
 C795 C 0.28456 0.91331 0.39298
 C796 C 0.27632 0.91987 0.37185
 C797 C 0.28750 0.93630 0.35916
 C798 C 0.30727 0.94641 0.36717
 C799 C 0.27245 0.89697 0.40755
 C800 C 0.25017 0.89441 0.40687
 C801 C 0.23744 0.87996 0.42276
 C802 C 0.21505 0.88539 0.42701
 C803 C 0.20254 0.87281 0.44239
 C804 C 0.21206 0.85425 0.45369
 C805 C 0.23428 0.84830 0.44892
 C806 C 0.24688 0.86102 0.43360
 H807 H 0.33125 0.94654 0.39446
 H808 H 0.31160 0.91780 0.41669
 H809 H 0.26126 0.91236 0.36500
 H810 H 0.28051 0.94122 0.34313
 H811 H 0.28199 0.88836 0.42041
 H812 H 0.24048 0.90476 0.39546
 H813 H 0.20732 0.89974 0.41871
 H814 H 0.18542 0.87776 0.44556
 H815 H 0.24203 0.83400 0.45726
 H816 H 0.26388 0.85589 0.43024
 C817 C 0.05604 0.37316 0.69508
 C818 C 0.07128 0.38613 0.70744
 C819 C 0.07663 0.38021 0.72959
 C820 C 0.06719 0.36038 0.73884
 C821 C 0.05199 0.34735 0.72645
 C822 C 0.04600 0.35379 0.70456
 C823 C 0.09198 0.39516 0.74242
 C824 C 0.09153 0.39688 0.76485
 C825 C 0.10532 0.41345 0.77753
 C826 C 0.09771 0.42095 0.79849
 C827 C 0.10971 0.43726 0.81058
 C828 C 0.12974 0.44628 0.80204
 C829 C 0.13776 0.43824 0.78138
 C830 C 0.12573 0.42195 0.76927
 H831 H 0.05190 0.37851 0.67821
 H832 H 0.07851 0.40118 0.69984
 H833 H 0.07150 0.35482 0.75558
 H834 H 0.04472 0.33240 0.73416
 H835 H 0.10262 0.40646 0.73284
 H836 H 0.07933 0.38718 0.77427
 H837 H 0.08217 0.41450 0.80533
 H838 H 0.10315 0.44299 0.82651
 H839 H 0.15326 0.44465 0.77445
 H840 H 0.13256 0.41600 0.75356
 C841 C 0.04256 0.61589 0.29340
 C842 C 0.05544 0.60238 0.27927
 C843 C 0.06811 0.61222 0.26205
 C844 C 0.06756 0.63592 0.25905
 C845 C 0.05425 0.64945 0.27294
 C846 C 0.04161 0.63953 0.29025
 C847 C 0.08079 0.59714 0.24696
 C848 C 0.10053 0.60287 0.23800
 C849 C 0.11346 0.58662 0.22436
 C850 C 0.13671 0.58552 0.22698
 C851 C 0.14910 0.56930 0.21529
 C852 C 0.13850 0.55431 0.20031
 C853 C 0.11533 0.55606 0.19700
 C854 C 0.10289 0.57196 0.20902
 H855 H 0.03282 0.60773 0.30643
 H856 H 0.05552 0.58415 0.28178
 H857 H 0.07685 0.64391 0.24560
 H858 H 0.05373 0.66761 0.27008
 H859 H 0.07439 0.58007 0.24449
 H860 H 0.10825 0.61896 0.24234
 H861 H 0.14519 0.59678 0.23859
 H862 H 0.16698 0.56846 0.21800
 H863 H 0.10673 0.54477 0.18550
 H864 H 0.08502 0.57280 0.20632
 C865 C 0.94971 0.39058 0.31511
 C866 C 0.93296 0.40247 0.30378
 C867 C 0.92479 0.39467 0.28310
 C868 C 0.93319 0.37425 0.27429
 C869 C 0.94989 0.36234 0.28562
 C870 C 0.95848 0.37047 0.30605
 C871 C 0.90750 0.40810 0.27131
 C872 C 0.90498 0.40784 0.24896
 C873 C 0.88889 0.42250 0.23692
 C874 C 0.89365 0.42886 0.21477
 C875 C 0.87935 0.44332 0.20304
 C876 C 0.85977 0.45149 0.21315
 C877 C 0.85457 0.44449 0.23508
 C878 C 0.86898 0.43013 0.24687
 H879 H 0.95586 0.39721 0.33090
 H880 H 0.92661 0.41803 0.31103
 H881 H 0.92677 0.36726 0.25879
 H882 H 0.95610 0.34676 0.27831
 H883 H 0.89774 0.41979 0.28128
 H884 H 0.91628 0.39788 0.23881
 H885 H 0.90876 0.42300 0.20665
 H886 H 0.88376 0.44827 0.18612
 H887 H 0.83953 0.45037 0.24327
 H888 H 0.86440 0.42497 0.26367
 C889 C 0.94365 0.65102 0.72511
 C890 C 0.92800 0.63914 0.73800
 C891 C 0.91865 0.61872 0.73021
 C892 C 0.92515 0.61048 0.70905
 C893 C 0.94084 0.62233 0.69618
 C894 C 0.95048 0.64259 0.70418
 C895 C 0.90369 0.60563 0.74530
 C896 C 0.88918 0.58982 0.73808
 C897 C 0.87599 0.57516 0.75341
 C898 C 0.85631 0.56492 0.74545
 C899 C 0.84428 0.54974 0.75890
 C900 C 0.85187 0.54425 0.78055
 C901 C 0.87148 0.55464 0.78859
 C902 C 0.88344 0.56987 0.77519
 H903 H 0.95080 0.66653 0.73179
 H904 H 0.92343 0.64576 0.75431
 H905 H 0.91888 0.59448 0.70269
 H906 H 0.94584 0.61530 0.68019
 H907 H 0.90469 0.60941 0.76303
 H908 H 0.88653 0.58756 0.72026
 H909 H 0.85034 0.56852 0.72866
 H910 H 0.82929 0.54194 0.75216
 H911 H 0.87786 0.55067 0.80513
 H912 H 0.89890 0.57680 0.78171
 C913 C 0.73149 0.64549 0.94685
 C914 C 0.74449 0.63393 0.93113
 C915 C 0.73732 0.61308 0.92224
 C916 C 0.71688 0.60386 0.92958
 C917 C 0.70390 0.61533 0.94538
 C918 C 0.71103 0.63630 0.95432
 C919 C 0.75216 0.60081 0.90650
 C920 C 0.74472 0.58543 0.89163
 C921 C 0.75968 0.57187 0.87707
 C922 C 0.75095 0.56211 0.85744
 C923 C 0.76408 0.54788 0.84412
 C924 C 0.78618 0.54289 0.85032
 C925 C 0.79501 0.55288 0.86984
 C926 C 0.78193 0.56715 0.88309
 H927 H 0.73765 0.66153 0.95331
 H928 H 0.76028 0.64128 0.92593
 H929 H 0.71110 0.58749 0.92368
 H930 H 0.68836 0.60756 0.95073
 H931 H 0.76976 0.60508 0.90696
 H932 H 0.72691 0.58282 0.88964
 H933 H 0.73381 0.56529 0.85252
 H934 H 0.75673 0.54036 0.82926
 H935 H 0.81193 0.54927 0.87518
 H936 H 0.78911 0.57374 0.89843
 C937 C 0.29859 0.37467 0.94635
 C938 C 0.28727 0.38818 0.93082
 C939 C 0.26587 0.38208 0.92332
 C940 C 0.25639 0.36155 0.93088
 C941 C 0.26777 0.34790 0.94632
 C942 C 0.28889 0.35447 0.95460
 C943 C 0.25401 0.39760 0.90778
 C944 C 0.23168 0.39926 0.90708
 C945 C 0.21970 0.41634 0.89332
 C946 C 0.19838 0.42326 0.90020
 C947 C 0.18659 0.43959 0.88803
 C948 C 0.19575 0.44920 0.86849
 C949 C 0.21692 0.44195 0.86131
 C950 C 0.22878 0.42568 0.87358
 H951 H 0.31488 0.38030 0.95207
 H952 H 0.29504 0.40378 0.92506
 H953 H 0.24023 0.35592 0.92487
 H954 H 0.25981 0.33237 0.95199
 H955 H 0.26412 0.40936 0.89815
 H956 H 0.22170 0.38900 0.91838
 H957 H 0.19092 0.41622 0.91523
 H958 H 0.17026 0.44465 0.89396
 H959 H 0.22434 0.44888 0.84622
 H960 H 0.24488 0.42028 0.86736
 C961 C 0.30679 0.61704 0.04610
 C962 C 0.29531 0.60460 0.06242
 C963 C 0.27490 0.61235 0.07094
 C964 C 0.26651 0.63328 0.06337
 C965 C 0.27802 0.64583 0.04712
 C966 C 0.29823 0.63778 0.03807
 C967 C 0.26298 0.59824 0.08773
 C968 C 0.24071 0.59848 0.09017
 C969 C 0.22860 0.58295 0.10552
 C970 C 0.20657 0.57674 0.10024
 C971 C 0.19480 0.56150 0.11380
 C972 C 0.20472 0.55238 0.13318
 C973 C 0.22654 0.55917 0.13890
 C974 C 0.23838 0.57431 0.12522
 H975 H 0.32235 0.61027 0.03975
 H976 H 0.30224 0.58862 0.06814
 H977 H 0.25118 0.64018 0.07009
 H978 H 0.27095 0.66181 0.04162
 H979 H 0.27277 0.58601 0.09704
 H980 H 0.23071 0.60907 0.07924
 H981 H 0.19859 0.58334 0.08528
 H982 H 0.17797 0.55674 0.10900
 H983 H 0.23458 0.55258 0.15381
 H984 H 0.25508 0.57929 0.13021
 C985 C 0.69591 0.38744 0.05166
 C986 C 0.70869 0.40099 0.06601
 C987 C 0.72853 0.39271 0.07536
 C988 C 0.73546 0.37057 0.07015
 C989 C 0.72297 0.35715 0.05533
 C990 C 0.70309 0.36548 0.04572
 C991 C 0.74236 0.40806 0.08920
 C992 C 0.75396 0.40103 0.10709
 C993 C 0.76736 0.41708 0.12058
 C994 C 0.76654 0.41604 0.14405
 C995 C 0.77826 0.43194 0.15700
 C996 C 0.79153 0.44864 0.14663
 C997 C 0.79303 0.44908 0.12314
 C998 C 0.78089 0.43357 0.11022
 H999 H 0.68076 0.39456 0.04466
 H1000 H 0.70313 0.41806 0.06976
 H1001 H 0.75094 0.36392 0.07686
 H1002 H 0.72908 0.34036 0.05124
 H1003 H 0.74210 0.42602 0.08513
 H1004 H 0.75245 0.38360 0.11278
 H1005 H 0.75632 0.40334 0.15233
 H1006 H 0.77696 0.43117 0.17510
 H1007 H 0.80313 0.46179 0.11474
 H1008 H 0.78210 0.43443 0.09212
 C1009 C 0.95440 0.70020 0.61150
 C1010 C 0.94151 0.71370 0.59722
 C1011 C 0.93237 0.73415 0.60484
 C1012 C 0.93650 0.74108 0.62700
 C1013 C 0.94989 0.72790 0.64116
 C1014 C 0.95910 0.70727 0.63360
 C1015 C 0.91957 0.74845 0.58904
 C1016 C 0.90135 0.76001 0.59514
 C1017 C 0.88834 0.77348 0.57882
 C1018 C 0.86493 0.77235 0.57915
 C1019 C 0.85234 0.78433 0.56332
 C1020 C 0.86295 0.79827 0.54740
 C1021 C 0.88636 0.80003 0.54758
 C1022 C 0.89897 0.78754 0.56300
 H1023 H 0.96119 0.68453 0.60493
 H1024 H 0.93861 0.70812 0.58015
 H1025 H 0.92994 0.75701 0.63318
 H1026 H 0.95307 0.73398 0.65801
 H1027 H 0.92452 0.74832 0.57156
 H1028 H 0.89488 0.75824 0.61202
 H1029 H 0.85643 0.76173 0.59131
 H1030 H 0.83430 0.78281 0.56359
 H1031 H 0.89492 0.81063 0.53545
 H1032 H 0.91701 0.78898 0.56268
 C1033 C 0.95787 0.30931 0.39367
 C1034 C 0.94323 0.29625 0.40662
 C1035 C 0.93264 0.27712 0.39749
 C1036 C 0.93710 0.27103 0.37518
 C1037 C 0.95222 0.28372 0.36235
 C1038 C 0.96286 0.30305 0.37143
 C1039 C 0.91816 0.26306 0.41200
 C1040 C 0.89938 0.25310 0.40465
 C1041 C 0.88529 0.23914 0.41965
 C1042 C 0.86195 0.24097 0.41862
 C1043 C 0.84845 0.22832 0.43321
 C1044 C 0.85811 0.21309 0.44855
 C1045 C 0.88145 0.21076 0.44904
 C1046 C 0.89493 0.22380 0.43487
 H1047 H 0.96571 0.32398 0.40137
 H1048 H 0.94012 0.30113 0.42385
 H1049 H 0.92944 0.25606 0.36788
 H1050 H 0.95556 0.27831 0.34532
 H1051 H 0.92256 0.26181 0.42960
 H1052 H 0.89358 0.25626 0.38772
 H1053 H 0.85421 0.25258 0.40687
 H1054 H 0.83048 0.23031 0.43241
 H1055 H 0.88933 0.19917 0.46071
 H1056 H 0.91289 0.22175 0.43567
 C1057 C 0.04910 0.26196 0.64978
 C1058 C 0.06395 0.24812 0.63798
 C1059 C 0.07283 0.25519 0.61735
 C1060 C 0.06637 0.27636 0.60860
 C1061 C 0.05145 0.29016 0.62028
 C1062 C 0.04249 0.28314 0.64101
 C1063 C 0.08761 0.23960 0.60475
 C1064 C 0.10273 0.24690 0.58976
 C1065 C 0.11640 0.23152 0.57572
 C1066 C 0.13625 0.23991 0.56626
 C1067 C 0.14881 0.22655 0.55161
 C1068 C 0.14163 0.20455 0.54588
 C1069 C 0.12188 0.19603 0.55552
 C1070 C 0.10936 0.20936 0.57025
 H1071 H 0.04257 0.25586 0.66563
 H1072 H 0.06849 0.23178 0.64497
 H1073 H 0.07225 0.28210 0.59240
 H1074 H 0.04675 0.30623 0.61282
 H1075 H 0.08622 0.22164 0.60839
 H1076 H 0.10561 0.26497 0.58782
 H1077 H 0.14194 0.25698 0.57004
 H1078 H 0.16390 0.23366 0.54442
 H1079 H 0.11582 0.17919 0.55135
 H1080 H 0.09384 0.20249 0.57664
 C1081 C 0.05290 0.72902 0.35102
 C1082 C 0.06810 0.74189 0.36351
 C1083 C 0.07656 0.73373 0.38390
 C1084 C 0.06958 0.71222 0.39154
 C1085 C 0.05428 0.69931 0.37909
 C1086 C 0.04550 0.70765 0.35876
 C1087 C 0.09132 0.74882 0.39730
 C1088 C 0.10544 0.74139 0.41315
 C1089 C 0.11912 0.75690 0.42721
 C1090 C 0.13893 0.74876 0.43688
 C1091 C 0.15170 0.76258 0.45107
 C1092 C 0.14476 0.78479 0.45613
 C1093 C 0.12495 0.79296 0.44641
 C1094 C 0.11224 0.77918 0.43215
 H1095 H 0.04664 0.73612 0.33549
 H1096 H 0.07310 0.75845 0.35730
 H1097 H 0.07524 0.70557 0.40746
 H1098 H 0.04900 0.68301 0.38570
 H1099 H 0.09081 0.76679 0.39344
 H1100 H 0.10765 0.72331 0.41560
 H1101 H 0.14448 0.73161 0.43352
 H1102 H 0.16680 0.75571 0.45840
 H1103 H 0.11902 0.80991 0.45011
 H1104 H 0.09672 0.78586 0.42564
 C1105 C 0.62580 0.94524 0.69527
 C1106 C 0.61400 0.92905 0.70766
 C1107 C 0.61998 0.92422 0.72990
 C1108 C 0.63878 0.93520 0.73919
 C1109 C 0.65068 0.95137 0.72673
 C1110 C 0.64407 0.95684 0.70476
 C1111 C 0.60603 0.90791 0.74273
 C1112 C 0.60415 0.90834 0.76515
 C1113 C 0.58805 0.89397 0.77774
 C1114 C 0.58065 0.90149 0.79876
 C1115 C 0.56468 0.88911 0.81077
 C1116 C 0.55586 0.86878 0.80208
 C1117 C 0.56378 0.86083 0.78135
 C1118 C 0.57976 0.87323 0.76933
 H1119 H 0.62036 0.94891 0.67832
 H1120 H 0.59975 0.92068 0.70001
 H1121 H 0.64438 0.93138 0.75602
 H1122 H 0.66481 0.95986 0.73445
 H1123 H 0.59539 0.89664 0.73311
 H1124 H 0.61324 0.92106 0.77460
 H1125 H 0.58689 0.91728 0.80574
 H1126 H 0.55906 0.89565 0.82676
 H1127 H 0.55753 0.84508 0.77432
 H1128 H 0.58561 0.86642 0.75356
 C1129 C 0.39558 0.95346 0.30031
 C1130 C 0.40911 0.94037 0.28636
 C1131 C 0.39965 0.92687 0.26946
 C1132 C 0.37631 0.92675 0.26663
 C1133 C 0.36277 0.94019 0.28035
 C1134 C 0.37229 0.95373 0.29728
 C1135 C 0.41467 0.91425 0.25430
 C1136 C 0.40925 0.89425 0.24503
 C1137 C 0.42494 0.88188 0.23035
 C1138 C 0.42609 0.85812 0.23161
 C1139 C 0.44141 0.84619 0.21845
 C1140 C 0.45543 0.85779 0.20336
 C1141 C 0.45370 0.88152 0.20157
 C1142 C 0.43870 0.89347 0.21501
 H1143 H 0.40342 0.96386 0.31308
 H1144 H 0.42706 0.94085 0.28872
 H1145 H 0.36858 0.91687 0.25341
 H1146 H 0.34488 0.94015 0.27758
 H1147 H 0.43128 0.92115 0.25167
 H1148 H 0.39364 0.88602 0.24945
 H1149 H 0.41549 0.84885 0.24317
 H1150 H 0.44227 0.82788 0.22005
 H1151 H 0.46424 0.89091 0.19005
 H1152 H 0.43777 0.91176 0.21330
 C1153 C 0.61273 0.04239 0.29411
 C1154 C 0.59837 0.05614 0.28161
 C1155 C 0.60679 0.07062 0.26494
 C1156 C 0.62993 0.07104 0.26086
 C1157 C 0.64428 0.05697 0.27311
 C1158 C 0.63581 0.04245 0.28981
 C1159 C 0.59089 0.08400 0.25131
 C1160 C 0.59581 0.10441 0.24262
 C1161 C 0.57929 0.11756 0.22952
 C1162 C 0.57850 0.14125 0.23184
 C1163 C 0.56243 0.15391 0.22029
 C1164 C 0.54725 0.14314 0.20573
 C1165 C 0.54861 0.11950 0.20278
 C1166 C 0.56439 0.10681 0.21465
 H1167 H 0.60567 0.03125 0.30673
 H1168 H 0.58059 0.05541 0.28494
 H1169 H 0.63688 0.08166 0.24776
 H1170 H 0.66198 0.05730 0.26936
 H1171 H 0.57411 0.07727 0.24940
 H1172 H 0.61171 0.11237 0.24642
 H1173 H 0.58997 0.14989 0.24305
 H1174 H 0.56186 0.17212 0.22278
 H1175 H 0.53716 0.11074 0.19165
 H1176 H 0.56498 0.08861 0.21210
 C1177 C 0.35183 0.06151 0.71782
 C1178 C 0.36331 0.07855 0.72953
 C1179 C 0.38628 0.08185 0.72616
 C1180 C 0.39739 0.06862 0.71008
 C1181 C 0.38586 0.05190 0.69810
 C1182 C 0.36305 0.04790 0.70213
 C1183 C 0.39852 0.09874 0.73986
 C1184 C 0.41890 0.09429 0.74798
 C1185 C 0.43124 0.10988 0.76296
 C1186 C 0.44481 0.10052 0.77971
 C1187 C 0.45749 0.11453 0.79367
 C1188 C 0.45734 0.13821 0.79078
 C1189 C 0.44384 0.14767 0.77390
 C1190 C 0.43069 0.13361 0.76022
 H1191 H 0.33421 0.05893 0.72112
 H1192 H 0.35442 0.08868 0.74174
 H1193 H 0.41501 0.07117 0.70678
 H1194 H 0.39494 0.04175 0.68605
 H1195 H 0.38995 0.11410 0.74485
 H1196 H 0.42627 0.07779 0.74488
 H1197 H 0.44559 0.08228 0.78200
 H1198 H 0.46791 0.10674 0.80638
 H1199 H 0.44351 0.16587 0.77128
 H1200 H 0.42066 0.14122 0.74711
 C1201 C 0.61923 0.68889 0.05282
 C1202 C 0.60563 0.70051 0.06795
 C1203 C 0.61118 0.72257 0.07498
 C1204 C 0.63113 0.73251 0.06713
 C1205 C 0.64478 0.72086 0.05204
 C1206 C 0.63887 0.69901 0.04453
 C1207 C 0.59590 0.73445 0.09058
 C1208 C 0.59446 0.75716 0.09187
 C1209 C 0.57812 0.76905 0.10634
 C1210 C 0.57150 0.79110 0.10044
 C1211 C 0.55581 0.80279 0.11333
 C1212 C 0.54655 0.79274 0.13259
 C1213 C 0.55356 0.77086 0.13884
 C1214 C 0.56922 0.75915 0.12590
 H1215 H 0.61425 0.67203 0.04749
 H1216 H 0.59049 0.69237 0.07391
 H1217 H 0.63638 0.74917 0.07273
 H1218 H 0.65991 0.72904 0.04614
 H1219 H 0.58437 0.72401 0.10008
 H1220 H 0.60448 0.76757 0.08077
 H1221 H 0.57825 0.79921 0.08559
 H1222 H 0.55088 0.81967 0.10811
 H1223 H 0.54691 0.76273 0.15371
 H1224 H 0.57444 0.74249 0.13145
 C1225 C 0.34190 0.26385 0.05577
 C1226 C 0.35419 0.25091 0.07111
 C1227 C 0.37426 0.25927 0.08018
 C1228 C 0.38178 0.28096 0.07361
 C1229 C 0.36955 0.29385 0.05826
 C1230 C 0.34959 0.28538 0.04899
 C1231 C 0.38770 0.24433 0.09500
 C1232 C 0.40311 0.25218 0.10946
 C1233 C 0.41826 0.23732 0.12259
 C1234 C 0.42888 0.24626 0.14167
 C1235 C 0.44464 0.23348 0.15349
 C1236 C 0.45029 0.21149 0.14635
 C1237 C 0.43945 0.20241 0.12743
 C1238 C 0.42367 0.21517 0.11564
 H1239 H 0.32665 0.25678 0.04888
 H1240 H 0.34812 0.23418 0.07571
 H1241 H 0.39750 0.28777 0.07960
 H1242 H 0.37603 0.31030 0.05328
 H1243 H 0.38452 0.22625 0.09397
 H1244 H 0.40473 0.27031 0.11206
 H1245 H 0.42519 0.26334 0.14727
 H1246 H 0.45273 0.24101 0.16795
 H1247 H 0.44352 0.18558 0.12140
 H1248 H 0.41642 0.20786 0.10066
 C1249 C 0.64910 0.28176 0.93950
 C1250 C 0.63704 0.26953 0.92338
 C1251 C 0.61396 0.27279 0.92095
 C1252 C 0.60327 0.28917 0.93424
 C1253 C 0.61537 0.30168 0.95003
 C1254 C 0.63834 0.29789 0.95304
 C1255 C 0.60128 0.25899 0.90457
 C1256 C 0.58083 0.25102 0.90925
 C1257 C 0.56784 0.23659 0.89368
 C1258 C 0.55373 0.21986 0.90263
 C1259 C 0.54044 0.20652 0.88857
 C1260 C 0.54055 0.21008 0.86527
 C1261 C 0.55460 0.22694 0.85626
 C1262 C 0.56830 0.23998 0.87034
 H1263 H 0.66683 0.27864 0.94135
 H1264 H 0.64562 0.25711 0.91316
 H1265 H 0.58557 0.29240 0.93235
 H1266 H 0.60664 0.31404 0.96018
 H1267 H 0.60949 0.25404 0.88915
 H1268 H 0.57377 0.25403 0.92571
 H1269 H 0.55299 0.21709 0.92058
 H1270 H 0.52962 0.19379 0.89601
 H1271 H 0.55494 0.23007 0.83836
 H1272 H 0.57872 0.25312 0.86304
 C1273 C 0.35148 0.72339 0.93267
 C1274 C 0.36388 0.73704 0.91799
 C1275 C 0.38718 0.73487 0.91680
 C1276 C 0.39779 0.71808 0.92970
 C1277 C 0.38536 0.70412 0.94399
 C1278 C 0.36214 0.70688 0.94591
 C1279 C 0.40017 0.75016 0.90203
 C1280 C 0.41985 0.75890 0.90849
 C1281 C 0.43340 0.77425 0.89430
 C1282 C 0.44684 0.79074 0.90466
 C1283 C 0.46103 0.80454 0.89193
 C1284 C 0.46247 0.80169 0.86859
 C1285 C 0.44889 0.78526 0.85815
 C1286 C 0.43436 0.77175 0.87087
 H1287 H 0.33358 0.72578 0.93373
 H1288 H 0.35537 0.74974 0.90802
 H1289 H 0.41569 0.71571 0.92871
 H1290 H 0.39402 0.69154 0.95399
 H1291 H 0.39278 0.75537 0.88626
 H1292 H 0.42591 0.75546 0.92529
 H1293 H 0.44649 0.79284 0.92271
 H1294 H 0.47143 0.81691 0.90046
 H1295 H 0.44972 0.78265 0.84020
 H1296 H 0.42453 0.75884 0.86246
 C1297 C 0.73501 0.95077 0.34652
 C1298 C 0.74913 0.93695 0.35930
 C1299 C 0.74132 0.92629 0.37886
 C1300 C 0.71901 0.92977 0.38542
 C1301 C 0.70494 0.94361 0.37271
 C1302 C 0.71281 0.95443 0.35322
 C1303 C 0.75715 0.91297 0.39277
 C1304 C 0.75056 0.89662 0.40702
 C1305 C 0.76594 0.88430 0.42226
 C1306 C 0.75911 0.86324 0.43096
 C1307 C 0.77236 0.85169 0.44651
 C1308 C 0.79270 0.86107 0.45391
 C1309 C 0.79966 0.88210 0.44510
 C1310 C 0.78642 0.89363 0.42948
 H1311 H 0.74164 0.95896 0.33167
 H1312 H 0.76629 0.93473 0.35399
 H1313 H 0.71251 0.92250 0.40075
 H1314 H 0.68798 0.94622 0.37845
 H1315 H 0.77478 0.91656 0.39076
 H1316 H 0.73316 0.89156 0.40736
 H1317 H 0.74333 0.85577 0.42585
 H1318 H 0.76646 0.83556 0.45299
 H1319 H 0.81517 0.88985 0.45056
 H1320 H 0.79199 0.91012 0.42370
 C1321 C 0.31247 0.93653 0.62085
 C1322 C 0.30093 0.92046 0.60803
 C1323 C 0.27866 0.91492 0.61296
 C1324 C 0.26844 0.92499 0.63171
 C1325 C 0.28003 0.94099 0.64463
 C1326 C 0.30205 0.94721 0.63911
 C1327 C 0.26671 0.89874 0.59811
 C1328 C 0.24450 0.89917 0.59501
 C1329 C 0.23271 0.88450 0.57858
 C1330 C 0.21221 0.89187 0.56982
 C1331 C 0.20078 0.87888 0.55387
 C1332 C 0.20953 0.85808 0.54646
 C1333 C 0.22980 0.85042 0.55561
 C1334 C 0.24126 0.86344 0.57154
 H1335 H 0.32947 0.94082 0.61624
 H1336 H 0.30926 0.91276 0.59384
 H1337 H 0.25155 0.92056 0.63648
 H1338 H 0.27160 0.94878 0.65870
 H1339 H 0.27684 0.88751 0.58803
 H1340 H 0.23468 0.91194 0.60349
 H1341 H 0.20515 0.90792 0.57510
 H1342 H 0.18513 0.88522 0.54727
 H1343 H 0.23687 0.83435 0.55045
 H1344 H 0.25663 0.85680 0.57843
 C1345 C 0.31061 0.05054 0.38764
 C1346 C 0.29850 0.06627 0.40019
 C1347 C 0.27685 0.07256 0.39372
 C1348 C 0.26774 0.06322 0.37398
 C1349 C 0.27989 0.04751 0.36136
 C1350 C 0.30142 0.04090 0.36813
 C1351 C 0.26459 0.08908 0.40783
 C1352 C 0.24222 0.09032 0.40854
 C1353 C 0.23008 0.10560 0.42404
 C1354 C 0.20845 0.09948 0.43086
 C1355 C 0.19671 0.11293 0.44607
 C1356 C 0.20624 0.13300 0.45463
 C1357 C 0.22762 0.13953 0.44726
 C1358 C 0.23942 0.12601 0.43210
 H1359 H 0.32720 0.04594 0.39326
 H1360 H 0.30599 0.07334 0.41521
 H1361 H 0.25139 0.06817 0.36803
 H1362 H 0.27243 0.04056 0.34629
 H1363 H 0.27443 0.09936 0.41922
 H1364 H 0.23230 0.07853 0.39877
 H1365 H 0.20078 0.08397 0.42473
 H1366 H 0.18021 0.10747 0.45128
 H1367 H 0.23535 0.15501 0.45337
 H1368 H 0.25574 0.13171 0.42664
 C1369 C 0.71744 0.07117 0.64693
 C1370 C 0.72847 0.08763 0.63404
 C1371 C 0.72444 0.08926 0.61092
 C1372 C 0.70836 0.07493 0.60108
 C1373 C 0.69707 0.05878 0.61400
 C1374 C 0.70177 0.05644 0.63698
 C1375 C 0.73741 0.10564 0.59726
 C1376 C 0.74483 0.10019 0.57679
 C1377 C 0.75909 0.11534 0.56312
 C1378 C 0.77534 0.10554 0.54931
 C1379 C 0.78871 0.11911 0.53557
 C1380 C 0.78570 0.14275 0.53487
 C1381 C 0.76927 0.15263 0.54854
 C1382 C 0.75619 0.13904 0.56274
 H1383 H 0.72127 0.06988 0.66464
 H1384 H 0.74067 0.09864 0.64199
 H1385 H 0.70454 0.07618 0.58337
 H1386 H 0.68503 0.04774 0.60586
 H1387 H 0.74246 0.12156 0.60487
 H1388 H 0.74171 0.08325 0.57037
 H1389 H 0.77774 0.08730 0.54922
 H1390 H 0.80108 0.11100 0.52505
 H1391 H 0.76658 0.17081 0.54825
 H1392 H 0.74346 0.14698 0.57292
 C1393 C 0.94421 0.65082 0.27236
 C1394 C 0.92886 0.63848 0.25954
 C1395 C 0.92034 0.61768 0.26730
 C1396 C 0.92746 0.60947 0.28830
 C1397 C 0.94289 0.62179 0.30111
 C1398 C 0.95159 0.64250 0.29319
 C1399 C 0.90543 0.60437 0.25236
 C1400 C 0.89124 0.58834 0.25971
 C1401 C 0.87774 0.57388 0.24447
 C1402 C 0.85817 0.56364 0.25265
 C1403 C 0.84580 0.54871 0.23922
 C1404 C 0.85292 0.54351 0.21737
 C1405 C 0.87239 0.55393 0.20910
 C1406 C 0.88470 0.56891 0.22248
 H1407 H 0.95063 0.66668 0.26573
 H1408 H 0.92380 0.64509 0.24336
 H1409 H 0.92181 0.59320 0.29460
 H1410 H 0.94835 0.61484 0.31701
 H1411 H 0.90601 0.60834 0.23464
 H1412 H 0.88899 0.58587 0.27756
 H1413 H 0.85255 0.56702 0.26958
 H1414 H 0.83094 0.54087 0.24615
 H1415 H 0.87843 0.55015 0.19241
 H1416 H 0.90006 0.57586 0.21577
 C1417 C 0.95545 0.38328 0.69797
 C1418 C 0.94188 0.39803 0.71016
 C1419 C 0.92774 0.38969 0.72700
 C1420 C 0.92751 0.36625 0.73161
 C1421 C 0.94144 0.35151 0.71970
 C1422 C 0.95557 0.35991 0.70278
 C1423 C 0.91449 0.40601 0.74024
 C1424 C 0.89420 0.40119 0.74845
 C1425 C 0.88120 0.41811 0.76123
 C1426 C 0.85797 0.41924 0.75833
 C1427 C 0.84545 0.43553 0.76982
 C1428 C 0.85591 0.45057 0.78487
 C1429 C 0.87908 0.44896 0.78824
 C1430 C 0.89163 0.43299 0.77644
 H1431 H 0.96631 0.39028 0.68518
 H1432 H 0.94246 0.41605 0.70645
 H1433 H 0.91710 0.35940 0.74485
 H1434 H 0.94127 0.33358 0.72381
 H1435 H 0.92121 0.42301 0.74221
 H1436 H 0.88633 0.38507 0.74452
 H1437 H 0.84958 0.40780 0.74683
 H1438 H 0.82759 0.43627 0.76704
 H1439 H 0.88757 0.46028 0.79979
 H1440 H 0.90947 0.43213 0.77940
 C1441 C 0.05656 0.64863 0.72324
 C1442 C 0.07161 0.63616 0.73630
 C1443 C 0.07228 0.61240 0.73474
 C1444 C 0.05817 0.60133 0.71934
 C1445 C 0.04346 0.61381 0.70596
 C1446 C 0.04235 0.63756 0.70793
 C1447 C 0.08802 0.59952 0.74902
 C1448 C 0.08254 0.57939 0.75798
 C1449 C 0.09773 0.56629 0.77264
 C1450 C 0.08851 0.55288 0.78974
 C1451 C 0.10219 0.53942 0.80325
 C1452 C 0.12535 0.53862 0.79954
 C1453 C 0.13463 0.55202 0.78237
 C1454 C 0.12096 0.56588 0.76913
 H1455 H 0.05619 0.66694 0.72496
 H1456 H 0.08247 0.64504 0.74792
 H1457 H 0.05870 0.58305 0.71741
 H1458 H 0.03275 0.60483 0.69426
 H1459 H 0.10382 0.60743 0.75334
 H1460 H 0.06580 0.57274 0.75551
 H1461 H 0.07064 0.55280 0.79263
 H1462 H 0.09452 0.52912 0.81621
 H1463 H 0.15242 0.55165 0.77909
 H1464 H 0.12848 0.57569 0.75573
 C1465 C 0.06034 0.39279 0.31165
 C1466 C 0.07576 0.40561 0.29936
 C1467 C 0.08281 0.39843 0.27811
 C1468 C 0.07467 0.37764 0.26967
 C1469 C 0.05927 0.36477 0.28198
 C1470 C 0.05177 0.37231 0.30302
 C1471 C 0.09863 0.41302 0.26541
 C1472 C 0.10007 0.41291 0.24295
 C1473 C 0.11431 0.42894 0.23007
 C1474 C 0.10827 0.43403 0.20790
 C1475 C 0.12071 0.44955 0.19529
 C1476 C 0.13969 0.46020 0.20448
 C1477 C 0.14616 0.45463 0.22647
 C1478 C 0.13363 0.43914 0.23915
 H1479 H 0.05504 0.39903 0.32786
 H1480 H 0.08191 0.42143 0.30635
 H1481 H 0.08026 0.37111 0.25369
 H1482 H 0.05318 0.34895 0.27497
 H1483 H 0.10805 0.42549 0.27488
 H1484 H 0.08909 0.40194 0.23338
 H1485 H 0.09361 0.42627 0.20042
 H1486 H 0.11533 0.45333 0.17835
 H1487 H 0.16080 0.46239 0.23396
 H1488 H 0.13924 0.43510 0.25592
   
