data_POSCAR
  _audit_creation_date              2014-09-24
  _audit_creation_method            'ToBaCCo'
  _symmetry_space_group_name_H-M    'P1'
  _symmetry_Int_Tables_number       1
  _symmetry_cell_setting            triclinic
  loop_
  _symmetry_equiv_pos_as_xyz
 x,y,z
_cell_length_a 54.1713
_cell_length_b 54.1670
_cell_length_c 54.1722
_cell_angle_alpha 89.983900
_cell_angle_beta 89.997100
_cell_angle_gamma 89.971400
loop_
  _atom_site_label
  _atom_site_type_symbol
  _atom_site_fract_x
  _atom_site_fract_y
  _atom_site_fract_z
C1 C 0.12538 0.00028 0.25030
 C2 C 0.37481 -0.00190 0.75000
 C3 C 0.87516 0.50084 0.24873
 C4 C 0.62534 0.49915 0.75096
 C5 C 0.24917 0.12511 1.00134
 C6 C 0.75052 0.37454 0.99884
 C7 C 0.24971 0.87459 0.50040
 C8 C 0.75051 0.62531 0.49959
 C9 C -0.00018 0.25071 0.12510
 C10 C -0.00008 0.75023 0.37480
 C11 C 0.50179 0.25025 0.87479
 C12 C 0.49790 0.75098 0.62519
 C13 C 0.87538 0.99916 0.75020
 C14 C 0.37563 0.49996 0.25113
 C15 C 0.62501 1.00097 0.25013
 C16 C 0.12510 0.49809 0.74857
 C17 C 0.74922 0.87548 -0.00032
 C18 C 0.25065 0.37502 0.50105
 C19 C 0.25043 0.62450 0.00057
 C20 C 0.74945 0.12470 0.49880
 C21 C 0.99775 0.75077 0.87507
 C22 C 0.49995 0.25100 0.37504
 C23 C 1.00176 0.25016 0.62463
 C24 C 0.49982 0.75015 0.12509
 O25 O -0.01656 0.93036 0.98876
 O26 O -0.00412 0.92970 1.02939
 O27 O -0.07086 0.98876 0.98647
 O28 O -0.07261 1.02892 0.99418
 O29 O -0.01279 0.98530 0.93088
 O30 O 0.02950 0.99609 0.93091
 O31 O -0.00482 1.05463 1.04910
 O32 O -0.04322 1.03740 1.05204
 O33 O 0.04650 0.99668 1.05571
 O34 O 0.05261 0.95715 1.03549
 O35 O 0.05398 1.04756 0.99753
 O36 O 0.03397 1.05424 0.95852
 O37 O 0.01483 1.06939 1.01493
 O38 O 0.00264 1.06968 0.97011
 O39 O 0.06878 1.01327 1.01675
 O40 O 0.06844 0.96880 1.00438
 O41 O 0.01260 1.01673 1.07036
 O42 O -0.02965 0.99905 1.06955
 O43 O 0.00381 0.94482 0.95485
 O44 O 0.04302 0.96541 0.94953
 O45 O -0.04700 1.00496 0.94534
 O46 O -0.05023 1.04537 0.96667
 O47 O -0.05630 0.95405 1.00521
 O48 O -0.03558 0.95198 1.04595
 Zr49 Zr -0.01871 0.96147 1.01186
 O50 O 0.00404 0.98256 1.03525
 Zr51 Zr -0.03958 1.01146 0.98295
 O52 O -0.01840 1.03458 1.00585
 Zr53 Zr 0.01024 0.98254 0.96202
 O54 O 0.03370 1.00504 0.98333
 Zr55 Zr -0.01170 1.01762 1.04006
 O56 O -0.03585 0.99581 1.01839
 Zr57 Zr 0.03828 0.98929 1.01847
 O58 O 0.01671 0.96549 0.99626
 Zr59 Zr 0.01677 1.03930 0.99026
 O60 O -0.00527 1.01798 0.96593
 O61 O -0.02455 0.97670 0.97705
 O62 O 0.02320 1.02409 1.02501
 C63 C -0.00650 0.92757 0.96747
 C64 C -0.07364 0.96715 0.99576
 C65 C -0.03419 0.99505 0.92805
 C66 C 0.00556 1.07190 1.03663
 C67 C 0.03418 1.00733 1.07291
 C68 C 0.07129 1.03500 1.00770
 H69 H 0.00583 0.97391 1.05122
 H70 H 0.04958 1.00695 0.97456
 H71 H -0.03516 0.96621 0.96649
 H72 H -0.02718 1.05043 1.00805
 H73 H -0.05773 1.02702 1.04807
 H74 H -0.06873 1.03817 1.00942
 H75 H 0.07443 0.97727 0.98935
 H76 H 0.04812 0.95371 0.96260
 H77 H -0.02889 1.00979 1.08436
 H78 H -0.04537 0.93667 1.04369
 H79 H 0.04564 1.04172 0.95219
 H80 H 0.02383 1.01328 0.92841
 H81 H 0.01327 0.92820 1.02400
 H82 H 0.04054 0.95164 1.04803
 H83 H -0.03818 1.04894 0.95340
 H84 H -0.01215 1.07585 0.97887
 O85 O 0.54779 0.49600 0.55585
 O86 O 0.55202 0.45792 0.53736
 O87 O 0.55525 0.54728 0.49531
 O88 O 0.53627 0.55563 0.45997
 O89 O 0.49513 0.55544 0.54810
 O90 O 0.45695 0.53492 0.55363
 O91 O 0.48841 0.48388 0.43117
 O92 O 0.52814 0.49789 0.43025
 O93 O 0.48448 0.43087 0.48809
 O94 O 0.49549 0.42996 0.53134
 O95 O 0.43085 0.48740 0.48485
 O96 O 0.42957 0.53025 0.49526
 O97 O 0.45403 0.50329 0.44578
 O98 O 0.44853 0.54439 0.46707
 O99 O 0.44544 0.45332 0.50459
 O100 O 0.46688 0.44841 0.54531
 O101 O 0.50349 0.44564 0.45365
 O102 O 0.54523 0.46446 0.45376
 O103 O 0.51314 0.51473 0.57077
 O104 O 0.47012 0.50327 0.57074
 O105 O 0.51464 0.57034 0.51400
 O106 O 0.50109 0.56903 0.47030
 O107 O 0.57005 0.51366 0.51576
 O108 O 0.56872 0.47046 0.50094
 Zr109 Zr 0.53945 0.48979 0.51848
 O110 O 0.51790 0.46601 0.49658
 Zr111 Zr 0.51753 0.53969 0.49024
 O112 O 0.49585 0.51783 0.46656
 Zr113 Zr 0.48936 0.51790 0.54009
 O114 O 0.46580 0.49574 0.51854
 Zr115 Zr 0.51154 0.48266 0.46220
 O116 O 0.53511 0.50569 0.48322
 Zr117 Zr 0.48269 0.46144 0.51203
 O118 O 0.50527 0.48278 0.53569
 Zr119 Zr 0.46147 0.51120 0.48318
 O120 O 0.48231 0.53521 0.50601
 O121 O 0.52392 0.52438 0.52479
 O122 O 0.47653 0.47632 0.47707
 C123 C 0.53481 0.50541 0.57333
 C124 C 0.57266 0.53485 0.50551
 C125 C 0.50486 0.57291 0.53541
 C126 C 0.46669 0.49299 0.42855
 C127 C 0.49340 0.42835 0.46629
 C128 C 0.42822 0.46580 0.49418
 H129 H 0.52666 0.45010 0.49468
 H130 H 0.44984 0.49400 0.52719
 H131 H 0.53446 0.53499 0.53529
 H132 H 0.49425 0.52629 0.45047
 H133 H 0.54374 0.50569 0.43569
 H134 H 0.53322 0.54479 0.44562
 H135 H 0.45253 0.45901 0.54923
 H136 H 0.47702 0.48662 0.57379
 H137 H 0.54337 0.45632 0.43747
 H138 H 0.58403 0.47265 0.51075
 H139 H 0.42600 0.52469 0.51229
 H140 H 0.45081 0.54575 0.54024
 H141 H 0.53799 0.45181 0.54735
 H142 H 0.51202 0.42577 0.52480
 H143 H 0.48564 0.57341 0.47902
 H144 H 0.45892 0.54798 0.45249
 O145 O 0.44429 -0.04665 0.49496
 O146 O 0.46271 -0.05065 0.45677
 O147 O 0.50487 -0.05445 0.54603
 O148 O 0.54032 -0.03564 0.55432
 O149 O 0.45219 0.00559 0.55464
 O150 O 0.44669 0.04398 0.53435
 O151 O 0.56901 0.01266 0.48285
 O152 O 0.56989 -0.02717 0.49662
 O153 O 0.51194 0.01697 0.42998
 O154 O 0.46862 0.00595 0.42919
 O155 O 0.51541 0.07024 0.48672
 O156 O 0.50498 0.07129 0.52965
 O157 O 0.55447 0.04693 0.50248
 O158 O 0.53327 0.05230 0.54359
 O159 O 0.49554 0.05588 0.45264
 O160 O 0.45482 0.03461 0.44771
 O161 O 0.54641 -0.00213 0.44458
 O162 O 0.54633 -0.04400 0.46317
 O163 O 0.42943 -0.01211 0.51394
 O164 O 0.42945 0.03099 0.50267
 O165 O 0.48632 -0.01405 0.56931
 O166 O 0.52999 -0.00048 0.56802
 O167 O 0.48432 -0.06902 0.51239
 O168 O 0.49914 -0.06748 0.46919
 Zr169 Zr 0.48165 -0.03830 0.48867
 O170 O 0.50352 -0.01664 0.46496
 Zr171 Zr 0.51002 -0.01671 0.53861
 O172 O 0.53366 0.00507 0.51682
 Zr173 Zr 0.46013 0.01164 0.51711
 O174 O 0.48166 0.03531 0.49502
 Zr175 Zr 0.53793 -0.01041 0.48156
 O176 O 0.51695 -0.03410 0.50451
 Zr177 Zr 0.48808 0.01861 0.46062
 O178 O 0.46443 -0.00405 0.48190
 Zr179 Zr 0.51706 0.03951 0.51041
 O180 O 0.49426 0.01855 0.53438
 O181 O 0.47544 -0.02296 0.52335
 O182 O 0.52307 0.02465 0.47544
 C183 C 0.42685 -0.03374 0.50454
 C184 C 0.49458 -0.07176 0.53357
 C185 C 0.46489 -0.00433 0.57200
 C186 C 0.57167 0.03431 0.49208
 C187 C 0.53373 0.00807 0.42738
 C188 C 0.50605 0.07300 0.46516
 H189 H 0.50539 -0.02531 0.44901
 H190 H 0.47302 0.05130 0.49337
 H191 H 0.46495 -0.03356 0.53393
 H192 H 0.54977 0.00660 0.52526
 H193 H 0.56444 -0.04279 0.50440
 H194 H 0.55470 -0.03235 0.54358
 H195 H 0.45087 0.04881 0.45848
 H196 H 0.42636 0.02418 0.48600
 H197 H 0.56260 -0.04211 0.45498
 H198 H 0.48932 -0.08280 0.47132
 H199 H 0.48800 0.07497 0.52406
 H200 H 0.46011 0.05002 0.54518
 H201 H 0.45267 -0.03660 0.45079
 H202 H 0.47526 -0.01049 0.42480
 H203 H 0.52129 0.01497 0.57248
 H204 H 0.54777 0.04178 0.54717
 O205 O 0.01256 0.51536 0.92861
 O206 O -0.02803 0.50287 0.92791
 O207 O 0.01436 0.57009 0.98673
 O208 O 0.00678 0.57203 1.02685
 O209 O 0.07027 0.51204 0.98383
 O210 O 0.07027 0.46982 0.99483
 O211 O -0.04823 0.50435 1.05275
 O212 O -0.05113 0.54263 1.03524
 O213 O -0.05453 0.45266 0.99513
 O214 O -0.03412 0.44629 0.95573
 O215 O 0.00351 0.44551 1.04626
 O216 O 0.04239 0.46562 1.05299
 O217 O -0.01410 0.48481 1.06777
 O218 O 0.03074 0.49706 1.06811
 O219 O -0.01555 0.43048 1.01201
 O220 O -0.00304 0.43058 0.96760
 O221 O -0.06930 0.48667 1.01490
 O222 O -0.06849 0.52878 0.99693
 O223 O 0.04644 0.49512 0.94331
 O224 O 0.05180 0.45609 0.96423
 O225 O 0.05563 0.54635 1.00316
 O226 O 0.03415 0.54975 1.04349
 O227 O -0.00413 0.55528 0.95202
 O228 O -0.04474 0.53444 0.94989
 Zr229 Zr -0.01064 0.51770 0.95964
 O230 O -0.03406 0.49504 0.98080
 Zr231 Zr 0.01803 0.53890 1.00958
 O232 O -0.00492 0.51783 1.03277
 Zr233 Zr 0.03917 0.48896 0.98107
 O234 O 0.01782 0.46560 1.00366
 Zr235 Zr -0.03904 0.51099 1.01573
 O236 O -0.01734 0.53502 0.99384
 Zr237 Zr -0.01726 0.46085 0.98783
 O238 O 0.00500 0.48232 0.96396
 Zr239 Zr 0.01071 0.48271 1.03778
 O240 O 0.03508 0.50466 1.01639
 O241 O 0.02411 0.52370 0.97493
 O242 O -0.02397 0.47613 1.02250
 C243 C 0.03384 0.50526 0.92593
 C244 C 0.00510 0.57274 0.96509
 C245 C 0.07300 0.53350 0.99347
 C246 C -0.03581 0.49408 1.07014
 C247 C -0.07179 0.46503 1.00563
 C248 C -0.00656 0.42811 1.03377
 H249 H -0.05000 0.49317 0.97210
 H250 H 0.02662 0.44975 1.00570
 H251 H 0.03467 0.53428 0.96440
 H252 H -0.00719 0.52671 1.04855
 H253 H -0.04716 0.55707 1.02475
 H254 H -0.00859 0.56825 1.03592
 H255 H 0.01201 0.42471 0.97612
 H256 H 0.03878 0.45088 0.95251
 H257 H -0.08333 0.52811 1.00764
 H258 H -0.04244 0.54413 0.93450
 H259 H 0.04885 0.45394 1.04054
 H260 H 0.07267 0.47556 1.01202
 H261 H -0.02258 0.48548 0.92655
 H262 H -0.04662 0.45834 0.95006
 H263 H 0.04745 0.53776 1.04715
 H264 H 0.02190 0.51185 1.07418
 O265 O 0.00493 0.55460 0.45143
 O266 O 0.04311 0.53611 0.44739
 O267 O -0.04624 0.49416 0.44347
 O268 O -0.05467 0.45871 0.46222
 O269 O -0.05472 0.54665 0.50376
 O270 O -0.03438 0.55201 0.54207
 O271 O 0.01690 0.42968 0.51050
 O272 O 0.00309 0.42888 0.47066
 O273 O 0.06981 0.48659 0.51486
 O274 O 0.07082 0.52980 0.50405
 O275 O 0.01305 0.48308 0.56812
 O276 O -0.02997 0.49371 0.56911
 O277 O -0.00271 0.44418 0.54479
 O278 O -0.04378 0.46532 0.55021
 O279 O 0.04718 0.50290 0.55379
 O280 O 0.05206 0.54382 0.53247
 O281 O 0.05518 0.45221 0.49566
 O282 O 0.03653 0.45248 0.45379
 O283 O -0.01401 0.56937 0.48602
 O284 O -0.00268 0.56919 0.52910
 O285 O -0.06950 0.51263 0.48405
 O286 O -0.06823 0.46884 0.49740
 O287 O -0.01255 0.51466 0.42895
 O288 O 0.03060 0.49979 0.43041
 Zr289 Zr 0.01116 0.51720 0.45967
 O290 O 0.03484 0.49520 0.48126
 Zr291 Zr -0.03883 0.48887 0.48121
 O292 O -0.01707 0.46510 0.50292
 Zr293 Zr -0.01721 0.53861 0.50969
 O294 O 0.00485 0.51696 0.53329
 Zr295 Zr 0.01819 0.46079 0.48743
 O296 O -0.00473 0.48191 0.46381
 Zr297 Zr 0.03922 0.51052 0.51655
 O298 O 0.01799 0.53429 0.49395
 Zr299 Zr -0.01064 0.48160 0.53740
 O300 O -0.03455 0.50451 0.51651
 O301 O -0.02351 0.52344 0.47505
 O302 O 0.02432 0.47555 0.52251
 C303 C -0.00460 0.57201 0.46439
 C304 C -0.03374 0.50445 0.42618
 C305 C -0.07213 0.53402 0.49389
 C306 C 0.00771 0.42700 0.53217
 C307 C 0.07240 0.46482 0.50591
 C308 C 0.03464 0.49237 0.57088
 H309 H 0.05080 0.49332 0.47259
 H310 H 0.00652 0.52555 0.54929
 H311 H -0.03408 0.53399 0.46449
 H312 H -0.02552 0.44900 0.50442
 H313 H -0.00470 0.43438 0.45506
 H314 H -0.04386 0.44433 0.46529
 H315 H 0.04152 0.54757 0.54690
 H316 H 0.01397 0.57230 0.52225
 H317 H 0.04473 0.43621 0.45565
 H318 H 0.02852 0.50971 0.41515
 H319 H -0.02408 0.51053 0.57304
 H320 H -0.04518 0.53857 0.54814
 H321 H 0.04909 0.54610 0.46147
 H322 H 0.07501 0.52343 0.48746
 H323 H -0.07267 0.47748 0.51289
 H324 H -0.04741 0.45090 0.53960
 O325 O 0.44453 1.04787 0.00477
 O326 O 0.46310 1.05213 0.04287
 O327 O 0.50502 1.05526 -0.04656
 O328 O 0.54033 1.03625 -0.05495
 O329 O 0.45224 0.99505 -0.05453
 O330 O 0.44678 0.95694 -0.03386
 O331 O 0.56931 0.98855 0.01686
 O332 O 0.57015 1.02827 0.00284
 O333 O 0.51246 0.98467 0.06999
 O334 O 0.46922 0.99567 0.07096
 O335 O 0.51566 0.93096 0.01364
 O336 O 0.50509 0.92964 -0.02928
 O337 O 0.55468 0.95412 -0.00240
 O338 O 0.53338 0.94845 -0.04339
 O339 O 0.49590 0.94559 0.04768
 O340 O 0.45517 0.96708 0.05255
 O341 O 0.54687 1.00364 0.05512
 O342 O 0.54662 1.04540 0.03620
 O343 O 0.42962 1.01320 -0.01387
 O344 O 0.42968 0.97022 -0.00224
 O345 O 0.48629 1.01457 -0.06951
 O346 O 0.53001 1.00106 -0.06824
 O347 O 0.48460 1.07012 -0.01296
 O348 O 0.49943 1.06890 0.03017
 Zr349 Zr 0.48192 1.03955 0.01097
 O350 O 0.50387 1.01804 0.03478
 Zr351 Zr 0.51010 1.01754 -0.03891
 O352 O 0.53382 0.99591 -0.01702
 Zr353 Zr 0.46031 0.98940 -0.01697
 O354 O 0.48191 0.96588 0.00522
 Zr355 Zr 0.53823 1.01165 0.01811
 O356 O 0.51716 1.03517 -0.00496
 Zr357 Zr 0.48846 0.98283 0.03947
 O358 O 0.46475 1.00537 0.01810
 Zr359 Zr 0.51725 0.96153 -0.01027
 O360 O 0.49436 0.98232 -0.03432
 O361 O 0.47557 1.02395 -0.02357
 O362 O 0.52340 0.97665 0.02456
 C363 C 0.42706 1.03488 -0.00460
 C364 C 0.49485 1.07270 -0.03416
 C365 C 0.46489 1.00475 -0.07204
 C366 C 0.57192 0.96681 0.00781
 C367 C 0.53427 0.99356 0.07245
 C368 C 0.50634 0.92836 0.03524
 H369 H 0.50580 1.02683 0.05066
 H370 H 0.47327 0.94992 0.00702
 H371 H 0.46505 1.03448 -0.03420
 H372 H 0.54990 0.99429 -0.02550
 H373 H 0.56467 1.04384 -0.00504
 H374 H 0.55469 1.03326 -0.04410
 H375 H 0.45126 0.95270 0.04200
 H376 H 0.42663 0.97719 0.01438
 H377 H 0.56290 1.04356 0.04439
 H378 H 0.48955 1.08418 0.02800
 H379 H 0.48821 0.92588 -0.02344
 H380 H 0.46020 0.95070 -0.04459
 H381 H 0.45307 1.03813 0.04897
 H382 H 0.47570 1.01224 0.07505
 H383 H 0.52133 0.98556 -0.07252
 H384 H 0.54787 0.95893 -0.04710
 O385 O 0.48485 0.56970 0.01318
 O386 O 0.49732 0.57036 -0.02742
 O387 O 0.43045 0.51140 0.01538
 O388 O 0.42867 0.47124 0.00772
 O389 O 0.48852 0.51473 0.07105
 O390 O 0.53080 0.50380 0.07100
 O391 O 0.49646 0.44548 -0.04726
 O392 O 0.45804 0.46274 -0.05013
 O393 O 0.54777 0.50331 -0.05382
 O394 O 0.55382 0.54297 -0.03336
 O395 O 0.55525 0.45235 0.00430
 O396 O 0.53524 0.44568 0.04332
 O397 O 0.51609 0.43063 -0.01312
 O398 O 0.50388 0.43032 0.03174
 O399 O 0.57006 0.48660 -0.01496
 O400 O 0.56998 0.53090 -0.00258
 O401 O 0.51384 0.48334 -0.06846
 O402 O 0.47160 0.50111 -0.06759
 O403 O 0.50523 0.55521 0.04707
 O404 O 0.54436 0.53451 0.05241
 O405 O 0.45430 0.49515 0.05656
 O406 O 0.45101 0.45477 0.03524
 O407 O 0.44507 0.54609 -0.00332
 O408 O 0.46583 0.54821 -0.04401
 Zr409 Zr 0.48265 0.53861 -0.00992
 O410 O 0.50537 0.51749 -0.03333
 Zr411 Zr 0.46172 0.48865 0.01895
 O412 O 0.48287 0.46549 -0.00397
 Zr413 Zr 0.51156 0.51745 0.03991
 O414 O 0.53500 0.49491 0.01857
 Zr415 Zr 0.48957 0.48247 -0.03815
 O416 O 0.46547 0.50432 -0.01647
 Zr417 Zr 0.53960 0.51068 -0.01656
 O418 O 0.51807 0.53450 0.00568
 Zr419 Zr 0.51804 0.46069 0.01161
 O420 O 0.49602 0.48204 0.03596
 O421 O 0.47678 0.52338 0.02488
 O422 O 0.52447 0.47592 -0.02312
 C423 C 0.49495 0.57248 0.03444
 C424 C 0.42770 0.53301 0.00607
 C425 C 0.46712 0.50501 0.07386
 C426 C 0.50685 0.42818 -0.03483
 C427 C 0.53543 0.49270 -0.07101
 C428 C 0.57255 0.46486 -0.00593
 H429 H 0.50716 0.52615 -0.04930
 H430 H 0.55088 0.49296 0.02733
 H431 H 0.46618 0.53390 0.03543
 H432 H 0.47408 0.44965 -0.00617
 H433 H 0.44354 0.47313 -0.04611
 H434 H 0.43256 0.46193 -0.00747
 H435 H 0.57577 0.52254 0.01259
 H436 H 0.54954 0.54612 0.03928
 H437 H 0.47236 0.49041 -0.08242
 H438 H 0.45607 0.56356 -0.04173
 H439 H 0.54690 0.45820 0.04968
 H440 H 0.52507 0.48664 0.07351
 H441 H 0.51471 0.57181 -0.02200
 H442 H 0.54195 0.54828 -0.04618
 H443 H 0.46309 0.45115 0.04847
 H444 H 0.48909 0.42419 0.02296
 O445 O -0.01252 0.01556 0.56998
 O446 O 0.02801 0.00307 0.57074
 O447 O -0.01438 0.07019 0.51175
 O448 O -0.00668 0.07204 0.47163
 O449 O -0.07027 0.01226 0.51479
 O450 O -0.07033 -0.02995 0.50389
 O451 O 0.04823 0.00414 0.44589
 O452 O 0.05124 0.04242 0.46321
 O453 O 0.05447 -0.04740 0.50368
 O454 O 0.03402 -0.05365 0.54306
 O455 O -0.00359 -0.05451 0.45252
 O456 O -0.04252 -0.03426 0.44581
 O457 O 0.01406 -0.01533 0.43092
 O458 O -0.03069 -0.00298 0.43048
 O459 O 0.01548 -0.06950 0.48680
 O460 O 0.00292 -0.06930 0.53122
 O461 O 0.06930 -0.01346 0.48386
 O462 O 0.06845 0.02879 0.50166
 O463 O -0.04643 -0.00464 0.55534
 O464 O -0.05183 -0.04370 0.53452
 O465 O -0.05562 0.04649 0.49533
 O466 O -0.03412 0.04982 0.45504
 O467 O 0.00417 0.05542 0.54647
 O468 O 0.04479 0.03448 0.54864
 Zr469 Zr 0.01066 0.01782 0.53894
 O470 O 0.03405 -0.00495 0.51785
 Zr471 Zr -0.01801 0.03898 0.48896
 O472 O 0.00493 0.01781 0.46583
 Zr473 Zr -0.03918 -0.01087 0.51760
 O474 O -0.01786 -0.03432 0.49507
 Zr475 Zr 0.03905 0.01092 0.48288
 O476 O 0.01737 0.03506 0.50470
 Zr477 Zr 0.01720 -0.03911 0.51092
 O478 O -0.00502 -0.01754 0.53472
 Zr479 Zr -0.01075 -0.01729 0.46091
 O480 O -0.03509 0.00476 0.48223
 O481 O -0.02409 0.02385 0.52365
 O482 O 0.02393 -0.02391 0.47620
 C483 C -0.03380 0.00549 0.57269
 C484 C -0.00511 0.07286 0.53338
 C485 C -0.07300 0.03368 0.50507
 C486 C 0.03579 -0.00614 0.42853
 C487 C 0.07176 -0.03508 0.49319
 C488 C 0.00648 -0.07190 0.46505
 H489 H 0.04999 -0.00683 0.52657
 H490 H -0.02668 -0.05016 0.49307
 H491 H -0.03465 0.03447 0.53415
 H492 H 0.00721 0.02665 0.45003
 H493 H 0.04720 0.05693 0.47356
 H494 H 0.00864 0.06818 0.46250
 H495 H -0.01208 -0.07521 0.52266
 H496 H -0.03881 -0.04890 0.54624
 H497 H 0.08333 0.02798 0.49103
 H498 H 0.04250 0.04426 0.56396
 H499 H -0.04887 -0.04606 0.45821
 H500 H -0.07270 -0.02428 0.48668
 H501 H 0.02264 -0.01434 0.57209
 H502 H 0.04657 -0.04164 0.54868
 H503 H -0.04736 0.03779 0.45134
 H504 H -0.02185 0.01180 0.42441
 O505 O 0.80442 0.24636 0.20228
 O506 O 0.78587 0.20818 0.19833
 O507 O 0.74390 0.29758 0.19444
 O508 O 0.70851 0.30607 0.21334
 O509 O 0.79661 0.30607 0.25456
 O510 O 0.80202 0.28573 0.29293
 O511 O 0.67962 0.23462 0.26156
 O512 O 0.67878 0.24841 0.22177
 O513 O 0.73656 0.18157 0.26582
 O514 O 0.77989 0.18065 0.25483
 O515 O 0.73321 0.23829 0.31915
 O516 O 0.74376 0.28119 0.32021
 O517 O 0.69420 0.25420 0.29584
 O518 O 0.71552 0.29523 0.30125
 O519 O 0.75299 0.20415 0.30475
 O520 O 0.79371 0.19911 0.28348
 O521 O 0.70213 0.19628 0.24673
 O522 O 0.70230 0.21491 0.20488
 O523 O 0.81928 0.26529 0.23683
 O524 O 0.81923 0.25405 0.27990
 O525 O 0.76255 0.32086 0.23488
 O526 O 0.71887 0.31969 0.24844
 O527 O 0.76443 0.26388 0.17990
 O528 O 0.74955 0.22080 0.18138
 Zr529 Zr 0.76704 0.24019 0.21062
 O530 O 0.74508 0.21654 0.23225
 Zr531 Zr 0.73877 0.29022 0.23220
 O532 O 0.71507 0.26849 0.25399
 Zr533 Zr 0.78858 0.26856 0.26057
 O534 O 0.76699 0.24651 0.28422
 Zr535 Zr 0.71070 0.23325 0.23849
 O536 O 0.73177 0.25614 0.21482
 Zr537 Zr 0.76049 0.21213 0.26750
 O538 O 0.78421 0.23336 0.24487
 Zr539 Zr 0.73164 0.26201 0.28843
 O540 O 0.75449 0.28592 0.26748
 O541 O 0.77333 0.27486 0.22596
 O542 O 0.72553 0.22706 0.27355
 C543 C 0.82186 0.25587 0.21521
 C544 C 0.75417 0.28506 0.17714
 C545 C 0.78396 0.32348 0.24465
 C546 C 0.67698 0.24386 0.28322
 C547 C 0.71477 0.17903 0.25691
 C548 C 0.74252 0.21669 0.32188
 H549 H 0.74318 0.20060 0.22358
 H550 H 0.77562 0.24482 0.30020
 H551 H 0.78384 0.28541 0.21537
 H552 H 0.69898 0.27698 0.25553
 H553 H 0.68424 0.25615 0.20613
 H554 H 0.69415 0.29529 0.21650
 H555 H 0.79768 0.20986 0.29770
 H556 H 0.82227 0.23735 0.27313
 H557 H 0.68601 0.20677 0.20676
 H558 H 0.75948 0.22283 0.16611
 H559 H 0.76070 0.27549 0.32393
 H560 H 0.78862 0.29660 0.29896
 H561 H 0.79595 0.20223 0.21237
 H562 H 0.77325 0.17628 0.23840
 H563 H 0.72754 0.32410 0.26390
 H564 H 0.70104 0.29888 0.29074
 O565 O 0.69338 0.75474 0.70215
 O566 O 0.71187 0.79281 0.69785
 O567 O 0.75405 0.70351 0.69475
 O568 O 0.78936 0.69521 0.71377
 O569 O 0.70118 0.69532 0.75482
 O570 O 0.69560 0.71585 0.79298
 O571 O 0.81804 0.76695 0.76162
 O572 O 0.81896 0.75296 0.72186
 O573 O 0.76106 0.81995 0.76551
 O574 O 0.71781 0.82084 0.75439
 O575 O 0.76434 0.76355 0.81911
 O576 O 0.75383 0.72062 0.82041
 O577 O 0.80340 0.74760 0.79601
 O578 O 0.78216 0.70653 0.80159
 O579 O 0.74452 0.79758 0.80449
 O580 O 0.70379 0.80237 0.78299
 O581 O 0.79555 0.80516 0.74660
 O582 O 0.79547 0.78637 0.70480
 O583 O 0.67847 0.73598 0.73678
 O584 O 0.67845 0.74750 0.77979
 O585 O 0.73532 0.68046 0.73533
 O586 O 0.77897 0.68178 0.74894
 O587 O 0.73353 0.73708 0.67992
 O588 O 0.74833 0.78029 0.68124
 Zr589 Zr 0.73076 0.76098 0.71050
 O590 O 0.75262 0.78479 0.73206
 Zr591 Zr 0.75904 0.71112 0.73248
 O592 O 0.78267 0.73300 0.75418
 Zr593 Zr 0.70914 0.73288 0.76058
 O594 O 0.73064 0.75509 0.78416
 Zr595 Zr 0.78701 0.76817 0.73847
 O596 O 0.76604 0.74511 0.71489
 Zr597 Zr 0.73713 0.78938 0.76725
 O598 O 0.71351 0.76799 0.74466
 Zr599 Zr 0.76600 0.73966 0.78854
 O600 O 0.74323 0.71560 0.76768
 O601 O 0.72448 0.72639 0.72605
 O602 O 0.77209 0.77452 0.77346
 C603 C 0.67591 0.74530 0.71511
 C604 C 0.74384 0.71591 0.67733
 C605 C 0.71390 0.67787 0.74508
 C606 C 0.82063 0.75789 0.78336
 C607 C 0.78290 0.82245 0.75669
 C608 C 0.75500 0.78515 0.82171
 H609 H 0.75453 0.80070 0.72330
 H610 H 0.72196 0.75685 0.80011
 H611 H 0.71400 0.71576 0.71549
 H612 H 0.79876 0.72455 0.75581
 H613 H 0.81351 0.74509 0.70629
 H614 H 0.80373 0.70597 0.71696
 H615 H 0.69989 0.79181 0.79737
 H616 H 0.67537 0.76413 0.77285
 H617 H 0.81173 0.79457 0.70669
 H618 H 0.73857 0.77805 0.66590
 H619 H 0.73690 0.72638 0.82411
 H620 H 0.70904 0.70514 0.79920
 H621 H 0.70193 0.79899 0.71188
 H622 H 0.72441 0.82505 0.73790
 H623 H 0.77027 0.67746 0.76442
 H624 H 0.79670 0.70289 0.79116
 O625 O 0.29869 0.19397 0.74622
 O626 O 0.30292 0.21242 0.70810
 O627 O 0.30618 0.25451 0.79742
 O628 O 0.28724 0.28989 0.80573
 O629 O 0.24595 0.20183 0.80554
 O630 O 0.20779 0.19638 0.78495
 O631 O 0.23945 0.31877 0.73390
 O632 O 0.27918 0.31961 0.74799
 O633 O 0.23550 0.26187 0.68094
 O634 O 0.24645 0.21864 0.68001
 O635 O 0.18185 0.26521 0.73735
 O636 O 0.18062 0.25464 0.78035
 O637 O 0.20503 0.30420 0.75324
 O638 O 0.19937 0.28306 0.79428
 O639 O 0.19645 0.24542 0.70331
 O640 O 0.21789 0.20461 0.69852
 O641 O 0.25453 0.29628 0.69573
 O642 O 0.29627 0.29607 0.71459
 O643 O 0.26400 0.17913 0.76492
 O644 O 0.22101 0.17921 0.75334
 O645 O 0.26550 0.23589 0.82044
 O646 O 0.25204 0.27961 0.81911
 O647 O 0.32098 0.23404 0.76382
 O648 O 0.31971 0.24881 0.72063
 Zr649 Zr 0.29039 0.23136 0.73994
 O650 O 0.26890 0.25330 0.71612
 Zr651 Zr 0.26847 0.25965 0.78979
 O652 O 0.24683 0.28336 0.76790
 Zr653 Zr 0.24025 0.20985 0.76799
 O654 O 0.21673 0.23144 0.74578
 Zr655 Zr 0.26255 0.28769 0.73274
 O656 O 0.28608 0.26663 0.75581
 Zr657 Zr 0.23367 0.23792 0.71150
 O658 O 0.25619 0.21421 0.73289
 Zr659 Zr 0.21243 0.26680 0.76122
 O660 O 0.23323 0.24394 0.78528
 O661 O 0.27482 0.22508 0.77451
 O662 O 0.22754 0.27288 0.72637
 C663 C 0.28568 0.17653 0.75564
 C664 C 0.32359 0.24429 0.78501
 C665 C 0.25568 0.21449 0.82301
 C666 C 0.21771 0.32140 0.74294
 C667 C 0.24441 0.28367 0.67844
 C668 C 0.17924 0.25590 0.71575
 H669 H 0.27767 0.25520 0.70022
 H670 H 0.20076 0.22281 0.74401
 H671 H 0.28534 0.21457 0.78515
 H672 H 0.24523 0.29946 0.77634
 H673 H 0.29477 0.31415 0.75582
 H674 H 0.28417 0.30426 0.79491
 H675 H 0.20346 0.20077 0.70903
 H676 H 0.22796 0.17614 0.73672
 H677 H 0.29445 0.31237 0.70644
 H678 H 0.33499 0.23894 0.72281
 H679 H 0.17680 0.23778 0.77449
 H680 H 0.20162 0.20980 0.79572
 H681 H 0.28889 0.20243 0.70201
 H682 H 0.26303 0.22508 0.67591
 H683 H 0.23652 0.27097 0.82341
 H684 H 0.20991 0.29750 0.79798
 O685 O 0.19519 0.74535 0.29756
 O686 O 0.21374 0.70722 0.30177
 O687 O 0.25565 0.79661 0.30525
 O688 O 0.29103 0.80503 0.28637
 O689 O 0.20301 0.80480 0.24498
 O690 O 0.19767 0.78425 0.20673
 O691 O 0.32009 0.73335 0.23850
 O692 O 0.32089 0.74732 0.27824
 O693 O 0.26328 0.68026 0.23445
 O694 O 0.21999 0.67931 0.24536
 O695 O 0.26655 0.73677 0.18085
 O696 O 0.25598 0.77968 0.17958
 O697 O 0.30552 0.75275 0.20411
 O698 O 0.28421 0.79377 0.19850
 O699 O 0.24683 0.70267 0.19539
 O700 O 0.20606 0.69774 0.21670
 O701 O 0.29764 0.69508 0.25354
 O702 O 0.29736 0.71395 0.29531
 O703 O 0.18036 0.76411 0.26289
 O704 O 0.18050 0.75263 0.21990
 O705 O 0.23701 0.81969 0.26464
 O706 O 0.28073 0.81848 0.25118
 O707 O 0.23518 0.76297 0.31994
 O708 O 0.25005 0.71982 0.31866
 Zr709 Zr 0.23260 0.73913 0.28933
 O710 O 0.25463 0.71539 0.26784
 Zr711 Zr 0.26083 0.78908 0.26753
 O712 O 0.28460 0.76726 0.24589
 Zr713 Zr 0.21110 0.76726 0.23920
 O714 O 0.23275 0.74510 0.21570
 Zr715 Zr 0.28899 0.73208 0.26157
 O716 O 0.26786 0.75507 0.28509
 Zr717 Zr 0.23928 0.71081 0.23260
 O718 O 0.21550 0.73213 0.25509
 Zr719 Zr 0.26808 0.76061 0.21146
 O720 O 0.24517 0.78461 0.23226
 O721 O 0.22629 0.77373 0.27380
 O722 O 0.27422 0.72573 0.22652
 C723 C 0.17776 0.75479 0.28456
 C724 C 0.24540 0.78416 0.32261
 C725 C 0.21561 0.82226 0.25481
 C726 C 0.32273 0.74247 0.21679
 C727 C 0.28506 0.67777 0.24341
 C728 C 0.25728 0.71516 0.17821
 H729 H 0.25655 0.69949 0.27660
 H730 H 0.22414 0.74334 0.19971
 H731 H 0.21575 0.78433 0.28433
 H732 H 0.30068 0.77574 0.24432
 H733 H 0.31539 0.75521 0.29378
 H734 H 0.30544 0.79429 0.28322
 H735 H 0.20216 0.70834 0.20234
 H736 H 0.17749 0.73596 0.22676
 H737 H 0.31363 0.70575 0.29348
 H738 H 0.24015 0.72197 0.33393
 H739 H 0.23906 0.77395 0.17586
 H740 H 0.21105 0.79511 0.20065
 H741 H 0.20376 0.70115 0.28773
 H742 H 0.22653 0.67511 0.26188
 H743 H 0.27208 0.82282 0.23568
 H744 H 0.29866 0.79747 0.20903
 O745 O 0.17786 0.73371 0.76259
 O746 O 0.17722 0.74629 0.72202
 O747 O 0.23604 0.67908 0.76456
 O748 O 0.27619 0.67717 0.75698
 O749 O 0.23295 0.73706 0.82043
 O750 O 0.24386 0.77926 0.82047
 O751 O 0.30211 0.74502 0.70208
 O752 O 0.28471 0.70667 0.69910
 O753 O 0.24441 0.79661 0.69567
 O754 O 0.20493 0.80286 0.71601
 O755 O 0.29541 0.80368 0.75381
 O756 O 0.30197 0.78345 0.79283
 O757 O 0.31700 0.76452 0.73626
 O758 O 0.31736 0.75220 0.78101
 O759 O 0.26118 0.81871 0.73466
 O760 O 0.21674 0.81858 0.74711
 O761 O 0.26428 0.76264 0.68093
 O762 O 0.24639 0.72048 0.68167
 O763 O 0.19245 0.75393 0.79652
 O764 O 0.21328 0.79301 0.80190
 O765 O 0.25239 0.70278 0.80583
 O766 O 0.29274 0.69942 0.78442
 O767 O 0.20137 0.69386 0.74593
 O768 O 0.19930 0.71475 0.70532
 Zr769 Zr 0.20894 0.73145 0.73945
 O770 O 0.23011 0.75416 0.71608
 Zr771 Zr 0.25885 0.71026 0.76822
 O772 O 0.28205 0.73138 0.74533
 Zr773 Zr 0.23021 0.76015 0.78932
 O774 O 0.25280 0.78357 0.76803
 Zr775 Zr 0.26508 0.73826 0.71118
 O776 O 0.24319 0.71417 0.73282
 Zr777 Zr 0.23704 0.78834 0.73292
 O778 O 0.21316 0.76682 0.75512
 Zr779 Zr 0.28696 0.76649 0.76101
 O780 O 0.26556 0.74449 0.78532
 O781 O 0.22416 0.72543 0.77423
 O782 O 0.27175 0.77309 0.72630
 C783 C 0.17513 0.74377 0.78388
 C784 C 0.21443 0.67641 0.75524
 C785 C 0.24264 0.71562 0.82318
 C786 C 0.31942 0.75533 0.71453
 C787 C 0.25499 0.78428 0.67843
 C788 C 0.28293 0.82107 0.74369
 H789 H 0.22145 0.75604 0.70012
 H790 H 0.25480 0.79942 0.77684
 H791 H 0.21364 0.71483 0.78477
 H792 H 0.29786 0.72253 0.74309
 H793 H 0.27425 0.69221 0.70303
 H794 H 0.28528 0.68098 0.74163
 H795 H 0.22524 0.82446 0.76216
 H796 H 0.20156 0.79819 0.78886
 H797 H 0.25712 0.72121 0.66686
 H798 H 0.18391 0.70507 0.70757
 H799 H 0.28961 0.79535 0.79907
 H800 H 0.26108 0.77361 0.82286
 H801 H 0.17582 0.76366 0.72749
 H802 H 0.19936 0.79085 0.70344
 H803 H 0.29639 0.71144 0.79769
 H804 H 0.32341 0.73737 0.77222
 O805 O 0.25404 0.20338 0.19604
 O806 O 0.29222 0.19929 0.21445
 O807 O 0.20293 0.19564 0.25661
 O808 O 0.19456 0.21453 0.29202
 O809 O 0.19451 0.25587 0.20396
 O810 O 0.21492 0.29415 0.19853
 O811 O 0.26626 0.26249 0.32082
 O812 O 0.25239 0.22275 0.32169
 O813 O 0.31913 0.26671 0.26380
 O814 O 0.32002 0.25581 0.22055
 O815 O 0.26254 0.32017 0.26730
 O816 O 0.21959 0.32134 0.25685
 O817 O 0.24673 0.29685 0.30634
 O818 O 0.20565 0.30241 0.28517
 O819 O 0.29659 0.30570 0.24742
 O820 O 0.30142 0.28436 0.20662
 O821 O 0.30449 0.24757 0.29822
 O822 O 0.28572 0.20575 0.29803
 O823 O 0.23517 0.23801 0.18122
 O824 O 0.24655 0.28107 0.18130
 O825 O 0.17972 0.23623 0.23803
 O826 O 0.18104 0.24970 0.28175
 O827 O 0.23656 0.18100 0.23606
 O828 O 0.27972 0.18236 0.25081
 Zr829 Zr 0.26033 0.21167 0.23340
 O830 O 0.28408 0.23321 0.25531
 Zr831 Zr 0.21041 0.23338 0.26176
 O832 O 0.23225 0.25505 0.28545
 Zr833 Zr 0.23204 0.26174 0.21194
 O834 O 0.25418 0.28530 0.23352
 Zr835 Zr 0.26748 0.23945 0.28972
 O836 O 0.24447 0.21588 0.26869
 Zr837 Zr 0.28853 0.26847 0.23992
 O838 O 0.26721 0.24591 0.21624
 Zr839 Zr 0.23878 0.28950 0.26891
 O840 O 0.21477 0.26866 0.24607
 O841 O 0.22568 0.22713 0.22718
 O842 O 0.27370 0.27451 0.27492
 C843 C 0.24453 0.21635 0.17862
 C844 C 0.21539 0.17830 0.24633
 C845 C 0.17710 0.24603 0.21663
 C846 C 0.25710 0.28418 0.32351
 C847 C 0.32172 0.25776 0.28558
 C848 C 0.28411 0.32286 0.25793
 H849 H 0.30002 0.22449 0.25717
 H850 H 0.25588 0.30129 0.22489
 H851 H 0.21508 0.21658 0.21668
 H852 H 0.22382 0.25660 0.30156
 H853 H 0.24452 0.20718 0.31623
 H854 H 0.20539 0.21762 0.30637
 H855 H 0.29080 0.29871 0.20277
 H856 H 0.26319 0.27418 0.17817
 H857 H 0.29397 0.20759 0.31427
 H858 H 0.27762 0.16710 0.24090
 H859 H 0.22527 0.32507 0.23991
 H860 H 0.20410 0.30022 0.21195
 H861 H 0.29823 0.21335 0.20445
 H862 H 0.32428 0.23929 0.22707
 H863 H 0.17666 0.26520 0.27310
 H864 H 0.20202 0.29187 0.29963
 O865 O 0.67979 0.76622 0.23781
 O866 O 0.67925 0.75373 0.27839
 O867 O 0.73788 0.82085 0.23557
 O868 O 0.77803 0.82279 0.24307
 O869 O 0.73467 0.76278 0.17984
 O870 O 0.74563 0.72063 0.17976
 O871 O 0.80421 0.75502 0.29797
 O872 O 0.78675 0.79334 0.30097
 O873 O 0.74657 0.70340 0.30459
 O874 O 0.70713 0.69704 0.28443
 O875 O 0.79744 0.69625 0.24628
 O876 O 0.80392 0.71647 0.20728
 O877 O 0.81904 0.73548 0.26378
 O878 O 0.81926 0.74775 0.21902
 O879 O 0.76328 0.68124 0.26554
 O880 O 0.71876 0.68142 0.25320
 O881 O 0.76643 0.73739 0.31925
 O882 O 0.74852 0.77954 0.31851
 O883 O 0.69432 0.74596 0.20388
 O884 O 0.71520 0.70682 0.19854
 O885 O 0.75414 0.79707 0.19431
 O886 O 0.79456 0.80051 0.21562
 O887 O 0.70329 0.80608 0.25434
 O888 O 0.70140 0.78522 0.29502
 Zr889 Zr 0.71093 0.76850 0.26086
 O890 O 0.73219 0.74581 0.28418
 Zr891 Zr 0.76073 0.78966 0.23191
 O892 O 0.78402 0.76858 0.25476
 Zr893 Zr 0.73209 0.73973 0.21097
 O894 O 0.75479 0.71635 0.23221
 Zr895 Zr 0.76715 0.76173 0.28897
 O896 O 0.74517 0.78580 0.26736
 Zr897 Zr 0.73912 0.71162 0.26736
 O898 O 0.71514 0.73311 0.24523
 Zr899 Zr 0.78894 0.73345 0.23912
 O900 O 0.76744 0.75541 0.21485
 O901 O 0.72605 0.77447 0.22603
 O902 O 0.77383 0.72687 0.27388
 C903 C 0.67702 0.75614 0.21654
 C904 C 0.71629 0.82352 0.24494
 C905 C 0.74431 0.78422 0.17702
 C906 C 0.82151 0.74472 0.28549
 C907 C 0.75715 0.71576 0.32180
 C908 C 0.78500 0.67885 0.25642
 H909 H 0.72357 0.74394 0.30017
 H910 H 0.75678 0.70050 0.22340
 H911 H 0.71548 0.78506 0.21551
 H912 H 0.79982 0.77744 0.25695
 H913 H 0.77628 0.80779 0.29701
 H914 H 0.78721 0.81899 0.25837
 H915 H 0.72730 0.67544 0.23821
 H916 H 0.70344 0.70172 0.21156
 H917 H 0.75929 0.77880 0.33331
 H918 H 0.68603 0.79496 0.29280
 H919 H 0.79153 0.70462 0.20103
 H920 H 0.76285 0.72624 0.17734
 H921 H 0.67787 0.73633 0.27300
 H922 H 0.70147 0.70913 0.29688
 H923 H 0.79819 0.78849 0.20235
 H924 H 0.82530 0.76259 0.22777
 O925 O 0.69667 0.24503 0.79631
 O926 O 0.71518 0.20682 0.80031
 O927 O 0.75723 0.29616 0.80383
 O928 O 0.79260 0.30447 0.78488
 O929 O 0.70439 0.30459 0.74389
 O930 O 0.69885 0.28422 0.70557
 O931 O 0.82132 0.23295 0.73670
 O932 O 0.82222 0.24681 0.77651
 O933 O 0.76428 0.17997 0.73273
 O934 O 0.72092 0.17923 0.74391
 O935 O 0.76751 0.23658 0.67923
 O936 O 0.75708 0.27949 0.67809
 O937 O 0.80667 0.25246 0.70240
 O938 O 0.78535 0.29352 0.69697
 O939 O 0.74774 0.20251 0.69378
 O940 O 0.70717 0.19753 0.71511
 O941 O 0.79879 0.19464 0.75166
 O942 O 0.79881 0.21330 0.79344
 O943 O 0.68172 0.26391 0.76176
 O944 O 0.68166 0.25255 0.71870
 O945 O 0.73854 0.31936 0.76339
 O946 O 0.78219 0.31807 0.74972
 O947 O 0.73673 0.26253 0.81853
 O948 O 0.75160 0.21938 0.81709
 Zr949 Zr 0.73403 0.23875 0.78788
 O950 O 0.75590 0.21503 0.76623
 Zr951 Zr 0.76229 0.28868 0.76608
 O952 O 0.78591 0.26687 0.74428
 Zr953 Zr 0.71237 0.26707 0.73792
 O954 O 0.73388 0.24494 0.71426
 Zr955 Zr 0.79028 0.23164 0.75985
 O956 O 0.76930 0.25461 0.78353
 Zr957 Zr 0.74038 0.21058 0.73104
 O958 O 0.71675 0.23189 0.75369
 Zr959 Zr 0.76924 0.26034 0.70990
 O960 O 0.74646 0.28434 0.73086
 O961 O 0.72774 0.27340 0.77246
 O962 O 0.77535 0.22541 0.72485
 C963 C 0.67919 0.25455 0.78341
 C964 C 0.74698 0.28371 0.82119
 C965 C 0.71708 0.32199 0.75372
 C966 C 0.82392 0.24215 0.71502
 C967 C 0.78609 0.17740 0.74158
 C968 C 0.75815 0.21500 0.67657
 H969 H 0.75781 0.19909 0.77494
 H970 H 0.72519 0.24325 0.69831
 H971 H 0.71725 0.28399 0.78306
 H972 H 0.80200 0.27532 0.74268
 H973 H 0.81677 0.25459 0.79212
 H974 H 0.80699 0.29375 0.78158
 H975 H 0.70309 0.20836 0.70098
 H976 H 0.67864 0.23588 0.72555
 H977 H 0.81510 0.20515 0.79151
 H978 H 0.74175 0.22148 0.83240
 H979 H 0.74008 0.27391 0.67450
 H980 H 0.71223 0.29507 0.69948
 H981 H 0.70505 0.20087 0.78633
 H982 H 0.72770 0.17481 0.76028
 H983 H 0.77347 0.32247 0.73427
 H984 H 0.79987 0.29715 0.70742
 C985 C 0.08659 1.00352 1.18476
 C986 C 0.09374 1.02678 1.17019
 C987 C 0.08286 1.02828 1.14756
 C988 C 0.06590 1.00637 1.14171
 C989 C 0.04739 1.00544 1.16318
 C990 C 0.05828 1.00394 1.18584
 C991 C 0.09301 0.98189 1.16764
 C992 C 0.08215 0.98339 1.14503
 C993 C 0.09877 1.00192 1.20887
 C994 C 0.11003 1.00089 1.22805
 C995 C 0.05438 1.00771 1.11723
 C996 C 0.04513 1.00804 1.09699
 H997 H 0.10622 1.04086 1.17707
 H998 H 0.08602 1.04363 1.13506
 H999 H 0.02749 1.00596 1.16080
 H1000 H 0.04774 1.00316 1.20287
 H1001 H 0.10503 0.96671 1.17283
 H1002 H 0.08487 0.96949 1.13085
 C1003 C 0.58638 0.50129 0.68554
 C1004 C 0.59354 0.52439 0.67074
 C1005 C 0.58271 0.52563 0.64809
 C1006 C 0.56578 0.50365 0.64244
 C1007 C 0.54722 0.50294 0.66388
 C1008 C 0.55807 0.50169 0.68658
 C1009 C 0.59286 0.47947 0.66867
 C1010 C 0.58203 0.48071 0.64603
 C1011 C 0.59855 0.50003 0.70966
 C1012 C 0.60987 0.49935 0.72881
 C1013 C 0.55438 0.50485 0.61791
 C1014 C 0.54536 0.50541 0.59759
 H1015 H 0.60599 0.53856 0.67750
 H1016 H 0.58588 0.54085 0.63544
 H1017 H 0.52733 0.50338 0.66144
 H1018 H 0.54750 0.50107 0.70359
 H1019 H 0.60488 0.46435 0.67406
 H1020 H 0.58478 0.46666 0.63201
 C1021 C 0.41345 -0.00270 0.68435
 C1022 C 0.44022 -0.01197 0.68478
 C1023 C 0.45100 -0.01261 0.66203
 C1024 C 0.43391 -0.00390 0.64113
 C1025 C 0.42534 0.02197 0.64892
 C1026 C 0.41458 0.02260 0.67164
 C1027 C 0.40012 -0.01958 0.66590
 C1028 C 0.41087 -0.02021 0.64320
 C1029 C 0.40137 -0.00206 0.70854
 C1030 C 0.39015 -0.00179 0.72776
 C1031 C 0.44525 -0.00446 0.61656
 C1032 C 0.45428 -0.00462 0.59623
 H1033 H 0.44985 -0.01756 0.70145
 H1034 H 0.46987 -0.01875 0.65920
 H1035 H 0.42755 0.03837 0.63761
 H1036 H 0.40757 0.03953 0.67978
 H1037 H 0.38368 -0.03017 0.67031
 H1038 H 0.40365 -0.03132 0.62816
 C1039 C -0.08718 0.49818 1.18249
 C1040 C -0.05952 0.49207 1.18324
 C1041 C -0.04893 0.49063 1.16044
 C1042 C -0.06706 0.49545 1.13916
 C1043 C -0.07847 0.52077 1.14483
 C1044 C -0.08905 0.52221 1.16760
 C1045 C -0.09864 0.47831 1.16584
 C1046 C -0.08807 0.47688 1.14307
 C1047 C -0.09902 0.49968 1.20679
 C1048 C -0.10994 0.50053 1.22617
 C1049 C -0.05584 0.49412 1.11455
 C1050 C -0.04673 0.49366 1.09425
 H1051 H -0.04918 0.48913 1.20016
 H1052 H -0.02950 0.48644 1.15782
 H1053 H -0.07823 0.53625 1.13209
 H1054 H -0.09785 0.53890 1.17435
 H1055 H -0.11372 0.46636 1.17147
 H1056 H -0.09408 0.46371 1.12921
 C1057 C -0.08553 0.50186 0.31399
 C1058 C -0.05723 0.50099 0.31295
 C1059 C -0.04632 0.50182 0.33564
 C1060 C -0.06482 0.50344 0.35709
 C1061 C -0.08207 0.48124 0.35359
 C1062 C -0.09295 0.48042 0.33095
 C1063 C -0.09166 0.52531 0.32870
 C1064 C -0.08077 0.52613 0.35135
 C1065 C -0.09779 0.50104 0.28988
 C1066 C -0.10921 0.50069 0.27078
 C1067 C -0.05337 0.50422 0.38161
 C1068 C -0.04431 0.50455 0.40192
 H1069 H -0.04670 0.49985 0.29593
 H1070 H -0.02643 0.50139 0.33806
 H1071 H -0.08543 0.46737 0.36766
 H1072 H -0.10562 0.46583 0.32563
 H1073 H -0.10347 0.54001 0.32189
 H1074 H -0.08326 0.54153 0.36393
 C1075 C 0.41328 1.00002 -0.18425
 C1076 C 0.40661 1.02350 -0.16983
 C1077 C 0.41740 1.02483 -0.14717
 C1078 C 0.43382 1.00255 -0.14112
 C1079 C 0.45242 1.00108 -0.16249
 C1080 C 0.44160 0.99975 -0.18520
 C1081 C 0.40627 0.97862 -0.16706
 C1082 C 0.41707 0.97995 -0.14440
 C1083 C 0.40118 0.99870 -0.20841
 C1084 C 0.39001 0.99807 -0.22765
 C1085 C 0.44521 1.00387 -0.11659
 C1086 C 0.45426 1.00456 -0.09627
 H1087 H 0.39448 1.03785 -0.17684
 H1088 H 0.41454 1.04031 -0.13477
 H1089 H 0.47230 1.00111 -0.16001
 H1090 H 0.45220 0.99863 -0.20217
 H1091 H 0.39393 0.96370 -0.17225
 H1092 H 0.41397 0.96617 -0.13017
 C1093 C 0.58723 0.49610 -0.18312
 C1094 C 0.59346 0.51802 -0.16630
 C1095 C 0.58275 0.51663 -0.14360
 C1096 C 0.56686 0.49347 -0.13992
 C1097 C 0.58410 0.47173 -0.14562
 C1098 C 0.59481 0.47311 -0.16834
 C1099 C 0.55893 0.49529 -0.18402
 C1100 C 0.54820 0.49391 -0.16127
 C1101 C 0.59921 0.49758 -0.20733
 C1102 C 0.61027 0.49855 -0.22662
 C1103 C 0.55551 0.49225 -0.11537
 C1104 C 0.54635 0.49197 -0.09510
 H1105 H 0.60522 0.53330 -0.17175
 H1106 H 0.58536 0.53074 -0.12960
 H1107 H 0.58756 0.45657 -0.13297
 H1108 H 0.60745 0.45912 -0.17514
 H1109 H 0.54827 0.49576 -0.20098
 H1110 H 0.52833 0.49318 -0.15875
 C1111 C 0.08724 -0.00253 0.31622
 C1112 C 0.09405 0.01909 0.33320
 C1113 C 0.08345 0.01775 0.35595
 C1114 C 0.06706 -0.00508 0.35953
 C1115 C 0.08377 -0.02715 0.35352
 C1116 C 0.09438 -0.02581 0.33076
 C1117 C 0.05892 -0.00270 0.31548
 C1118 C 0.04829 -0.00404 0.33828
 C1119 C 0.09914 -0.00111 0.29196
 C1120 C 0.11020 -0.00021 0.27266
 C1121 C 0.05581 -0.00630 0.38413
 C1122 C 0.04671 -0.00666 0.40443
 H1123 H 0.10612 0.03415 0.32781
 H1124 H 0.08645 0.03167 0.37005
 H1125 H 0.08696 -0.04250 0.36603
 H1126 H 0.10666 -0.04003 0.32376
 H1127 H 0.04818 -0.00186 0.29858
 H1128 H 0.02843 -0.00435 0.34091
 C1129 C 0.18340 1.08676 1.00411
 C1130 C 0.18435 1.05845 1.00476
 C1131 C 0.16162 1.04769 1.00612
 C1132 C 0.14023 1.06632 1.00670
 C1133 C 0.14385 1.08237 0.98362
 C1134 C 0.16652 1.09310 0.98226
 C1135 C 0.16865 1.09417 1.02717
 C1136 C 0.14596 1.08343 1.02853
 C1137 C 0.20758 1.09880 1.00267
 C1138 C 0.22682 1.10993 1.00178
 C1139 C 0.11570 1.05495 1.00793
 C1140 C 0.09542 1.04582 1.00827
 H1141 H 0.20133 1.04782 1.00422
 H1142 H 0.15914 1.02781 1.00676
 H1143 H 0.12982 1.08504 0.96956
 H1144 H 0.17192 1.10497 0.96703
 H1145 H 0.17547 1.10673 1.04122
 H1146 H 0.13333 1.08677 1.04373
 C1147 C 0.68474 0.58681 0.50133
 C1148 C 0.68584 0.55850 0.50194
 C1149 C 0.66317 0.54760 0.50312
 C1150 C 0.64167 0.56611 0.50358
 C1151 C 0.64535 0.58221 0.48055
 C1152 C 0.66798 0.59309 0.47937
 C1153 C 0.66979 0.59409 0.52428
 C1154 C 0.64716 0.58322 0.52547
 C1155 C 0.70888 0.59899 0.50016
 C1156 C 0.72812 0.61017 0.49960
 C1157 C 0.61717 0.55463 0.50475
 C1158 C 0.59688 0.54551 0.50535
 H1159 H 0.70289 0.54796 0.50148
 H1160 H 0.66079 0.52771 0.50369
 H1161 H 0.63140 0.58483 0.46639
 H1162 H 0.67343 0.60501 0.46420
 H1163 H 0.67643 0.60667 0.53840
 H1164 H 0.63441 0.58647 0.54059
 C1165 C 0.68472 0.41297 -0.00356
 C1166 C 0.68562 0.44128 -0.00391
 C1167 C 0.66286 0.45205 -0.00498
 C1168 C 0.64150 0.43341 -0.00559
 C1169 C 0.64531 0.41712 0.01728
 C1170 C 0.66802 0.40639 0.01835
 C1171 C 0.66981 0.40579 -0.02657
 C1172 C 0.64709 0.41654 -0.02764
 C1173 C 0.70893 0.40093 -0.00240
 C1174 C 0.72819 0.38978 -0.00163
 C1175 C 0.61694 0.44479 -0.00652
 C1176 C 0.59666 0.45396 -0.00666
 H1177 H 0.70259 0.45193 -0.00338
 H1178 H 0.66034 0.47193 -0.00538
 H1179 H 0.63139 0.41428 0.03142
 H1180 H 0.67355 0.39436 0.03341
 H1181 H 0.67654 0.39339 -0.04081
 H1182 H 0.63435 0.41334 -0.04278
 C1183 C 0.18376 -0.08724 0.49739
 C1184 C 0.18474 -0.05894 0.49639
 C1185 C 0.16203 -0.04814 0.49486
 C1186 C 0.14061 -0.06672 0.49446
 C1187 C 0.14416 -0.08250 0.51774
 C1188 C 0.16683 -0.09327 0.51928
 C1189 C 0.16904 -0.09489 0.47439
 C1190 C 0.14636 -0.08410 0.47286
 C1191 C 0.20794 -0.09929 0.49900
 C1192 C 0.22724 -0.11037 0.49996
 C1193 C 0.11610 -0.05528 0.49306
 C1194 C 0.09584 -0.04606 0.49262
 H1195 H 0.20173 -0.04833 0.49684
 H1196 H 0.15958 -0.02826 0.49397
 H1197 H 0.13010 -0.08498 0.53180
 H1198 H 0.17218 -0.10498 0.53465
 H1199 H 0.17586 -0.10764 0.46051
 H1200 H 0.13376 -0.08760 0.45768
 C1201 C 0.31495 -0.08608 0.50179
 C1202 C 0.33004 -0.09295 0.52479
 C1203 C 0.35261 -0.08193 0.52571
 C1204 C 0.35791 -0.06512 0.50354
 C1205 C 0.33631 -0.04673 0.50289
 C1206 C 0.31369 -0.05778 0.50197
 C1207 C 0.33166 -0.09259 0.47986
 C1208 C 0.35423 -0.08158 0.48078
 C1209 C 0.29091 -0.09845 0.50087
 C1210 C 0.27182 -0.10987 0.50041
 C1211 C 0.38235 -0.05352 0.50440
 C1212 C 0.40262 -0.04437 0.50474
 H1213 H 0.32354 -0.10536 0.53913
 H1214 H 0.36545 -0.08490 0.54082
 H1215 H 0.33858 -0.02682 0.50314
 H1216 H 0.29658 -0.04734 0.50143
 H1217 H 0.32622 -0.10477 0.46490
 H1218 H 0.36813 -0.08433 0.46660
 C1219 C -0.18382 0.41307 1.00192
 C1220 C -0.16673 0.40650 0.98031
 C1221 C -0.14407 0.41724 0.98177
 C1222 C -0.14067 0.43353 1.00470
 C1223 C -0.14661 0.41666 1.02666
 C1224 C -0.16929 0.40591 1.02520
 C1225 C -0.18477 0.44139 1.00225
 C1226 C -0.16205 0.45216 1.00371
 C1227 C -0.20799 0.40101 1.00037
 C1228 C -0.22720 0.38983 0.99939
 C1229 C -0.11614 0.44492 1.00600
 C1230 C -0.09588 0.45410 1.00632
 H1231 H -0.17199 0.39447 0.96517
 H1232 H -0.12990 0.41441 0.96788
 H1233 H -0.13413 0.41348 1.04202
 H1234 H -0.17624 0.39349 1.03933
 H1235 H -0.20174 0.45202 1.00142
 H1236 H -0.15957 0.47204 1.00415
 C1237 C -0.18410 0.58620 0.49785
 C1238 C -0.16731 0.59242 0.51979
 C1239 C -0.14472 0.58146 0.51859
 C1240 C -0.14110 0.56535 0.49557
 C1241 C -0.14655 0.58247 0.47368
 C1242 C -0.16915 0.59344 0.47487
 C1243 C -0.18529 0.55790 0.49725
 C1244 C -0.16265 0.54692 0.49605
 C1245 C -0.20818 0.59850 0.49904
 C1246 C -0.22731 0.60986 0.49962
 C1247 C -0.11664 0.55380 0.49442
 C1248 C -0.09636 0.54467 0.49388
 H1249 H -0.17271 0.60436 0.53496
 H1250 H -0.13075 0.58402 0.53274
 H1251 H -0.13381 0.58567 0.45855
 H1252 H -0.17576 0.60604 0.46075
 H1253 H -0.20237 0.54743 0.49772
 H1254 H -0.16032 0.52702 0.49549
 C1255 C 0.31476 1.08636 -0.00061
 C1256 C 0.33163 1.09296 0.02116
 C1257 C 0.35430 1.08216 0.01995
 C1258 C 0.35791 1.06582 -0.00291
 C1259 C 0.35219 1.08266 -0.02496
 C1260 C 0.32952 1.09345 -0.02375
 C1261 C 0.31379 1.05805 -0.00088
 C1262 C 0.33651 1.04723 -0.00209
 C1263 C 0.29060 1.09849 0.00061
 C1264 C 0.27141 1.10974 0.00124
 C1265 C 0.38245 1.05445 -0.00408
 C1266 C 0.40279 1.04543 -0.00462
 H1267 H 0.32623 1.10502 0.03623
 H1268 H 0.36833 1.08499 0.03398
 H1269 H 0.36482 1.08579 -0.04020
 H1270 H 0.32272 1.10585 -0.03797
 H1271 H 0.29680 1.04745 -0.00020
 H1272 H 0.33899 1.02734 -0.00245
 C1273 C 0.00237 1.18453 1.08739
 C1274 C -0.01953 1.16783 1.09399
 C1275 C -0.01829 1.14501 1.08355
 C1276 C 0.00475 1.14108 1.06752
 C1277 C 0.02663 1.14693 1.08450
 C1278 C 0.02538 1.16977 1.09495
 C1279 C 0.00297 1.18510 1.05907
 C1280 C 0.00422 1.16223 1.04861
 C1281 C 0.00106 1.20888 1.09913
 C1282 C 0.00025 1.22825 1.11006
 C1283 C 0.00587 1.11639 1.05643
 C1284 C 0.00615 1.09604 1.04744
 H1285 H -0.03472 1.17347 1.10580
 H1286 H -0.03241 1.13108 1.08642
 H1287 H 0.04178 1.13428 1.08799
 H1288 H 0.03949 1.17669 1.10740
 H1289 H 0.00246 1.20194 1.04822
 H1290 H 0.00479 1.15947 1.02877
 C1291 C 0.50025 0.68520 0.58681
 C1292 C 0.50091 0.68616 0.55850
 C1293 C 0.50224 0.66343 0.54772
 C1294 C 0.50278 0.64204 0.56635
 C1295 C 0.47970 0.64568 0.58238
 C1296 C 0.47837 0.66836 0.59313
 C1297 C 0.52328 0.67041 0.59422
 C1298 C 0.52460 0.64772 0.58347
 C1299 C 0.49890 0.70938 0.59888
 C1300 C 0.49815 0.72862 0.61002
 C1301 C 0.50408 0.61749 0.55501
 C1302 C 0.50473 0.59716 0.54600
 H1303 H 0.50040 0.70315 0.54788
 H1304 H 0.50288 0.66095 0.52785
 H1305 H 0.46561 0.63168 0.58502
 H1306 H 0.46315 0.67379 0.60498
 H1307 H 0.53734 0.67719 0.60679
 H1308 H 0.53979 0.63507 0.58681
 C1309 C -0.00151 0.68452 0.41333
 C1310 C -0.00182 0.68537 0.44164
 C1311 C -0.00281 0.66259 0.45236
 C1312 C -0.00339 0.64126 0.43367
 C1313 C 0.01946 0.64516 0.41736
 C1314 C 0.02044 0.66789 0.40668
 C1315 C -0.02449 0.66957 0.40615
 C1316 C -0.02547 0.64683 0.41684
 C1317 C -0.00053 0.70874 0.40131
 C1318 C -0.00006 0.72798 0.39013
 C1319 C -0.00433 0.61666 0.44494
 C1320 C -0.00472 0.59630 0.45389
 H1321 H -0.00130 0.70232 0.45232
 H1322 H -0.00315 0.66002 0.47223
 H1323 H 0.03363 0.63127 0.41448
 H1324 H 0.03546 0.67349 0.39465
 H1325 H -0.03875 0.67627 0.39375
 H1326 H -0.04057 0.63406 0.41361
 C1327 C 0.49956 1.18476 -0.08622
 C1328 C 0.49905 1.18588 -0.05791
 C1329 C 0.49774 1.16322 -0.04698
 C1330 C 0.49705 1.14171 -0.06546
 C1331 C 0.52005 1.14520 -0.08164
 C1332 C 0.52137 1.16782 -0.09255
 C1333 C 0.47646 1.16998 -0.09341
 C1334 C 0.47515 1.14736 -0.08250
 C1335 C 0.50088 1.20887 -0.09847
 C1336 C 0.50159 1.22803 -0.10979
 C1337 C 0.49575 1.11722 -0.05395
 C1338 C 0.49506 1.09693 -0.04483
 H1339 H 0.49968 1.20293 -0.04740
 H1340 H 0.49723 1.16086 -0.02709
 H1341 H 0.53410 1.13114 -0.08427
 H1342 H 0.53654 1.17313 -0.10451
 H1343 H 0.46235 1.17672 -0.10596
 H1344 H 0.45993 1.13473 -0.08570
 C1345 C 0.50412 0.31611 -0.08689
 C1346 C 0.48215 0.33283 -0.09324
 C1347 C 0.48330 0.35551 -0.08247
 C1348 C 0.50632 0.35929 -0.06639
 C1349 C 0.52822 0.35375 -0.08347
 C1350 C 0.52707 0.33105 -0.09425
 C1351 C 0.50473 0.31515 -0.05858
 C1352 C 0.50588 0.33788 -0.04779
 C1353 C 0.50290 0.29191 -0.09895
 C1354 C 0.50215 0.27264 -0.11006
 C1355 C 0.50734 0.38383 -0.05497
 C1356 C 0.50754 0.40409 -0.04577
 H1357 H 0.46698 0.32733 -0.10513
 H1358 H 0.46913 0.36944 -0.08516
 H1359 H 0.54332 0.36649 -0.08678
 H1360 H 0.54120 0.32436 -0.10679
 H1361 H 0.50431 0.29815 -0.04796
 H1362 H 0.50646 0.34035 -0.02791
 C1363 C 0.00264 -0.18401 0.41321
 C1364 C -0.01926 -0.16714 0.40700
 C1365 C -0.01787 -0.14446 0.41773
 C1366 C 0.00529 -0.14083 0.43365
 C1367 C 0.02703 -0.14655 0.41643
 C1368 C 0.02564 -0.16925 0.40569
 C1369 C 0.00343 -0.18496 0.44152
 C1370 C 0.00483 -0.16223 0.45228
 C1371 C 0.00118 -0.20819 0.40116
 C1372 C 0.00031 -0.22743 0.39001
 C1373 C 0.00657 -0.11630 0.44502
 C1374 C 0.00697 -0.09602 0.45416
 H1375 H -0.03456 -0.17256 0.39524
 H1376 H -0.03197 -0.13044 0.41515
 H1377 H 0.04222 -0.13393 0.41302
 H1378 H 0.03966 -0.17606 0.39307
 H1379 H 0.00296 -0.20194 0.45215
 H1380 H 0.00555 -0.15974 0.47215
 C1381 C 0.49697 -0.18365 0.58601
 C1382 C 0.47574 -0.18081 0.56745
 C1383 C 0.47499 -0.15820 0.55639
 C1384 C 0.49554 -0.14069 0.56499
 C1385 C 0.51968 -0.15483 0.56035
 C1386 C 0.52044 -0.17743 0.57141
 C1387 C 0.49372 -0.16217 0.60421
 C1388 C 0.49297 -0.13961 0.59317
 C1389 C 0.49771 -0.20770 0.59839
 C1390 C 0.49803 -0.22682 0.60977
 C1391 C 0.49482 -0.11626 0.55337
 C1392 C 0.49450 -0.09599 0.54420
 H1393 H 0.46249 -0.19527 0.56336
 H1394 H 0.46109 -0.15329 0.54281
 H1395 H 0.53484 -0.14773 0.54932
 H1396 H 0.53622 -0.18970 0.56986
 H1397 H 0.49213 -0.16449 0.62405
 H1398 H 0.49074 -0.12261 0.60355
 C1399 C -0.00283 0.31617 1.08611
 C1400 C -0.00319 0.31511 1.05781
 C1401 C -0.00456 0.33779 1.04692
 C1402 C -0.00544 0.35926 1.06544
 C1403 C 0.01750 0.35581 1.08172
 C1404 C 0.01886 0.33318 1.09258
 C1405 C -0.02603 0.33085 1.09323
 C1406 C -0.02740 0.35349 1.08236
 C1407 C -0.00139 0.29205 1.09832
 C1408 C -0.00054 0.27289 1.10963
 C1409 C -0.00669 0.38376 1.05395
 C1410 C -0.00707 0.40401 1.04472
 H1411 H -0.00244 0.29808 1.04726
 H1412 H -0.00500 0.34019 1.02703
 H1413 H 0.03146 0.36992 1.08447
 H1414 H 0.03401 0.32790 1.10461
 H1415 H -0.04018 0.32402 1.10568
 H1416 H -0.04270 0.36606 1.08550
 C1417 C 0.75141 0.33609 0.06461
 C1418 C 0.75206 0.30778 0.06376
 C1419 C 0.75288 0.29707 0.08655
 C1420 C 0.75297 0.31576 0.10788
 C1421 C 0.72999 0.33181 0.10369
 C1422 C 0.72918 0.34250 0.08095
 C1423 C 0.77412 0.34352 0.07986
 C1424 C 0.77493 0.33283 0.10260
 C1425 C 0.75061 0.34810 0.04038
 C1426 C 0.75030 0.35927 0.02113
 C1427 C 0.75378 0.30451 0.13249
 C1428 C 0.75416 0.29557 0.15286
 H1429 H 0.75188 0.29710 0.04681
 H1430 H 0.75341 0.27720 0.08912
 H1431 H 0.71560 0.33451 0.11738
 H1432 H 0.71408 0.35435 0.07515
 H1433 H 0.78833 0.35605 0.07334
 H1434 H 0.78984 0.33621 0.11556
 C1435 C 0.25210 0.83642 0.56638
 C1436 C 0.25308 0.80812 0.56542
 C1437 C 0.25433 0.79733 0.58815
 C1438 C 0.25448 0.81593 0.60956
 C1439 C 0.23127 0.83173 0.60572
 C1440 C 0.23002 0.84250 0.58304
 C1441 C 0.27492 0.84406 0.58137
 C1442 C 0.27617 0.83328 0.60407
 C1443 C 0.25078 0.84847 0.54217
 C1444 C 0.25000 0.85954 0.52286
 C1445 C 0.25557 0.80450 0.63410
 C1446 C 0.25577 0.79527 0.65436
 H1447 H 0.25284 0.79751 0.54842
 H1448 H 0.25517 0.77746 0.59062
 H1449 H 0.21704 0.83424 0.61962
 H1450 H 0.21472 0.85421 0.57750
 H1451 H 0.28891 0.85678 0.57472
 H1452 H 0.29120 0.83677 0.61685
 C1453 C 0.74837 0.66405 0.56520
 C1454 C 0.77016 0.65756 0.58211
 C1455 C 0.76891 0.66842 0.60475
 C1456 C 0.74598 0.68471 0.60829
 C1457 C 0.72400 0.66779 0.60262
 C1458 C 0.72525 0.65693 0.57998
 C1459 C 0.74800 0.69236 0.56414
 C1460 C 0.74674 0.70324 0.58683
 C1461 C 0.74963 0.65187 0.54107
 C1462 C 0.75032 0.64062 0.52187
 C1463 C 0.74474 0.69616 0.63280
 C1464 C 0.74407 0.70526 0.65310
 H1465 H 0.78527 0.64553 0.57676
 H1466 H 0.78294 0.66567 0.61879
 H1467 H 0.70877 0.66463 0.61526
 H1468 H 0.71108 0.64447 0.57323
 H1469 H 0.74865 0.70291 0.54712
 H1470 H 0.74632 0.72313 0.58923
 C1471 C 0.24771 0.16430 0.06663
 C1472 C 0.24722 0.19261 0.06543
 C1473 C 0.24620 0.20359 0.08807
 C1474 C 0.24576 0.18515 0.10962
 C1475 C 0.26869 0.16893 0.10590
 C1476 C 0.26972 0.15797 0.08330
 C1477 C 0.22479 0.15718 0.08171
 C1478 C 0.22376 0.16814 0.10431
 C1479 C 0.24873 0.15200 0.04257
 C1480 C 0.24921 0.14061 0.02347
 C1481 C 0.24478 0.19669 0.13408
 C1482 C 0.24438 0.20578 0.15437
 H1483 H 0.24765 0.20308 0.04834
 H1484 H 0.24574 0.22349 0.09039
 H1485 H 0.28290 0.16629 0.11978
 H1486 H 0.28480 0.14595 0.07783
 H1487 H 0.21058 0.14464 0.07519
 H1488 H 0.20870 0.16499 0.11715
 C1489 C 0.25121 0.16324 0.93539
 C1490 C 0.25181 0.19155 0.93626
 C1491 C 0.25308 0.20228 0.91350
 C1492 C 0.25363 0.18360 0.89217
 C1493 C 0.23060 0.16753 0.89588
 C1494 C 0.22933 0.15683 0.91860
 C1495 C 0.27424 0.15583 0.92060
 C1496 C 0.27551 0.16653 0.89788
 C1497 C 0.24994 0.15125 0.95961
 C1498 C 0.24928 0.14018 0.97890
 C1499 C 0.25489 0.19490 0.86760
 C1500 C 0.25553 0.20390 0.84726
 H1501 H 0.25128 0.20222 0.95322
 H1502 H 0.25364 0.22215 0.91096
 H1503 H 0.21650 0.16482 0.88190
 H1504 H 0.21414 0.14495 0.92408
 H1505 H 0.28833 0.14329 0.92740
 H1506 H 0.29067 0.16317 0.88522
 C1507 C 0.75348 0.66378 0.43385
 C1508 C 0.75417 0.69209 0.43480
 C1509 C 0.75563 0.70286 0.41208
 C1510 C 0.75627 0.68425 0.39069
 C1511 C 0.73316 0.66825 0.39422
 C1512 C 0.73169 0.65750 0.41689
 C1513 C 0.77659 0.65633 0.41919
 C1514 C 0.77805 0.66709 0.39650
 C1515 C 0.75193 0.65171 0.45803
 C1516 C 0.75097 0.64055 0.47727
 C1517 C 0.75757 0.69565 0.36616
 C1518 C 0.75788 0.70483 0.34589
 H1519 H 0.75357 0.70271 0.45178
 H1520 H 0.75630 0.72274 0.40960
 H1521 H 0.71914 0.66561 0.38014
 H1522 H 0.71643 0.64566 0.42224
 H1523 H 0.79060 0.64374 0.42606
 H1524 H 0.79330 0.66373 0.38393
 C1525 C 0.24853 0.83568 0.43491
 C1526 C 0.27054 0.84222 0.41833
 C1527 C 0.26962 0.83144 0.39564
 C1528 C 0.24676 0.81517 0.39173
 C1529 C 0.22468 0.83206 0.39715
 C1530 C 0.22561 0.84284 0.41984
 C1531 C 0.24817 0.80736 0.43588
 C1532 C 0.24724 0.79656 0.41315
 C1533 C 0.24944 0.84781 0.45908
 C1534 C 0.24984 0.85911 0.47825
 C1535 C 0.24585 0.80380 0.36718
 C1536 C 0.24542 0.79477 0.34685
 H1537 H 0.28558 0.85423 0.42393
 H1538 H 0.28385 0.83422 0.38180
 H1539 H 0.20962 0.83525 0.38432
 H1540 H 0.21132 0.85527 0.42644
 H1541 H 0.24860 0.79676 0.45288
 H1542 H 0.24687 0.77668 0.41067
 C1543 C 0.74970 0.33574 0.93326
 C1544 C 0.74919 0.30743 0.93440
 C1545 C 0.74837 0.29650 0.91173
 C1546 C 0.74814 0.31497 0.89020
 C1547 C 0.77105 0.33116 0.89417
 C1548 C 0.77187 0.34207 0.91680
 C1549 C 0.72693 0.34293 0.91799
 C1550 C 0.72611 0.33201 0.89536
 C1551 C 0.75049 0.34798 0.95738
 C1552 C 0.75078 0.35925 0.97656
 C1553 C 0.74734 0.30347 0.86571
 C1554 C 0.74697 0.29436 0.84542
 H1555 H 0.74944 0.29693 0.95147
 H1556 H 0.74790 0.27660 0.90937
 H1557 H 0.78539 0.33379 0.88042
 H1558 H 0.78691 0.35405 0.92243
 H1559 H 0.71266 0.35547 0.92441
 H1560 H 0.71115 0.33520 0.88240
 C1561 C 0.83599 0.43551 0.24746
 C1562 C 0.83629 0.42380 0.22165
 C1563 C 0.82537 0.40117 0.22072
 C1564 C 0.81522 0.39247 0.24570
 C1565 C 0.79777 0.41318 0.25418
 C1566 C 0.80872 0.43584 0.25510
 C1567 C 0.84817 0.41631 0.26436
 C1568 C 0.83726 0.39370 0.26344
 C1569 C 0.84826 0.45961 0.24838
 C1570 C 0.85964 0.47872 0.24881
 C1571 C 0.80372 0.36798 0.24483
 C1572 C 0.79462 0.34769 0.24449
 H1573 H 0.84436 0.43253 0.20550
 H1574 H 0.82406 0.39052 0.20379
 H1575 H 0.77854 0.41030 0.25900
 H1576 H 0.79887 0.45237 0.26072
 H1577 H 0.86399 0.42013 0.27606
 H1578 H 0.84374 0.37817 0.27433
 C1579 C 0.33585 0.93265 0.74726
 C1580 C 0.33133 0.92074 0.77255
 C1581 C 0.32031 0.89818 0.77120
 C1582 C 0.31488 0.88974 0.74469
 C1583 C 0.33982 0.89095 0.73134
 C1584 C 0.35084 0.91350 0.73269
 C1585 C 0.31045 0.93323 0.73469
 C1586 C 0.29941 0.91063 0.73335
 C1587 C 0.34818 0.95669 0.74868
 C1588 C 0.35950 0.97583 0.74956
 C1589 C 0.30323 0.86534 0.74347
 C1590 C 0.29391 0.84514 0.74313
 H1591 H 0.33630 0.92928 0.78998
 H1592 H 0.31584 0.88740 0.78750
 H1593 H 0.34809 0.87548 0.72165
 H1594 H 0.36855 0.91733 0.72412
 H1595 H 0.30191 0.94987 0.72751
 H1596 H 0.28140 0.90792 0.72499
 C1597 C 0.16391 0.93451 0.25140
 C1598 C 0.15746 0.91788 0.22941
 C1599 C 0.16826 0.89520 0.23043
 C1600 C 0.18446 0.89134 0.25336
 C1601 C 0.16748 0.89680 0.27536
 C1602 C 0.15668 0.91949 0.27433
 C1603 C 0.19222 0.93549 0.25187
 C1604 C 0.20304 0.91276 0.25290
 C1605 C 0.15179 0.95870 0.25041
 C1606 C 0.14061 0.97795 0.25003
 C1607 C 0.19586 0.86679 0.25435
 C1608 C 0.20494 0.84648 0.25482
 H1609 H 0.14549 0.92345 0.21432
 H1610 H 0.16553 0.88133 0.21623
 H1611 H 0.16426 0.88400 0.29045
 H1612 H 0.14420 0.92612 0.28855
 H1613 H 0.20281 0.95249 0.25145
 H1614 H 0.22292 0.91029 0.25337
 C1615 C 0.66468 0.43390 0.75165
 C1616 C 0.65801 0.41732 0.72968
 C1617 C 0.66903 0.39473 0.73042
 C1618 C 0.68564 0.39091 0.75305
 C1619 C 0.66898 0.39611 0.77536
 C1620 C 0.65796 0.41871 0.77462
 C1621 C 0.69299 0.43513 0.75165
 C1622 C 0.70402 0.41249 0.75239
 C1623 C 0.65232 0.45796 0.75094
 C1624 C 0.64090 0.47705 0.75069
 C1625 C 0.69723 0.36646 0.75374
 C1626 C 0.70640 0.34619 0.75396
 H1627 H 0.64574 0.42284 0.71482
 H1628 H 0.66619 0.38090 0.71619
 H1629 H 0.66610 0.38320 0.79042
 H1630 H 0.64564 0.42515 0.78906
 H1631 H 0.70342 0.45223 0.75110
 H1632 H 0.72393 0.41020 0.75248
 C1633 C 0.66315 0.56527 0.74909
 C1634 C 0.65571 0.58010 0.72609
 C1635 C 0.66629 0.60287 0.72490
 C1636 C 0.68326 0.60861 0.74683
 C1637 C 0.70206 0.58736 0.74736
 C1638 C 0.69146 0.56454 0.74855
 C1639 C 0.65658 0.58197 0.77100
 C1640 C 0.66715 0.60474 0.76982
 C1641 C 0.65129 0.54098 0.75028
 C1642 C 0.64032 0.52163 0.75089
 C1643 C 0.69442 0.63324 0.74569
 C1644 C 0.70335 0.65361 0.74514
 H1645 H 0.64326 0.57328 0.71194
 H1646 H 0.66290 0.61556 0.70976
 H1647 H 0.72191 0.59000 0.74682
 H1648 H 0.70222 0.54764 0.74903
 H1649 H 0.64468 0.57639 0.78614
 H1650 H 0.66431 0.61867 0.78394
 C1651 C 0.16399 0.06595 0.24932
 C1652 C 0.19230 0.06499 0.24861
 C1653 C 0.20308 0.08774 0.24773
 C1654 C 0.18446 0.10915 0.24764
 C1655 C 0.16846 0.10505 0.27066
 C1656 C 0.15770 0.08235 0.27154
 C1657 C 0.15656 0.08121 0.22661
 C1658 C 0.16732 0.10391 0.22573
 C1659 C 0.15191 0.04176 0.25017
 C1660 C 0.14070 0.02254 0.25050
 C1661 C 0.19580 0.13372 0.24678
 C1662 C 0.20481 0.15405 0.24636
 H1663 H 0.20292 0.04799 0.24881
 H1664 H 0.22296 0.09023 0.24716
 H1665 H 0.16583 0.11877 0.28503
 H1666 H 0.14586 0.07662 0.28667
 H1667 H 0.14395 0.07473 0.21243
 H1668 H 0.16393 0.11687 0.21081
 C1669 C 0.33650 0.06393 0.75209
 C1670 C 0.34364 0.08085 0.73052
 C1671 C 0.33303 0.10361 0.73163
 C1672 C 0.31631 0.10725 0.75422
 C1673 C 0.33269 0.10128 0.77654
 C1674 C 0.34330 0.07851 0.77542
 C1675 C 0.30818 0.06321 0.75185
 C1676 C 0.29755 0.08602 0.75297
 C1677 C 0.34844 0.03968 0.75094
 C1678 C 0.35956 0.02041 0.75027
 C1679 C 0.30511 0.13187 0.75528
 C1680 C 0.29619 0.15225 0.75574
 H1681 H 0.35594 0.07542 0.71565
 H1682 H 0.33624 0.11768 0.71772
 H1683 H 0.33566 0.11382 0.79188
 H1684 H 0.35538 0.07154 0.78983
 H1685 H 0.29745 0.04632 0.75090
 H1686 H 0.27768 0.08867 0.75298
 C1687 C 0.83700 0.56679 0.25191
 C1688 C 0.84255 0.58354 0.22975
 C1689 C 0.83179 0.60621 0.23131
 C1690 C 0.81652 0.60994 0.25488
 C1691 C 0.83436 0.60439 0.27616
 C1692 C 0.84512 0.58171 0.27460
 C1693 C 0.80873 0.56580 0.25350
 C1694 C 0.79794 0.58851 0.25507
 C1695 C 0.84904 0.54260 0.25027
 C1696 C 0.86012 0.52331 0.24926
 C1697 C 0.80511 0.63447 0.25633
 C1698 C 0.79592 0.65474 0.25684
 H1699 H 0.85391 0.57805 0.21417
 H1700 H 0.83395 0.62015 0.21707
 H1701 H 0.83817 0.61713 0.29116
 H1702 H 0.85817 0.57502 0.28828
 H1703 H 0.79813 0.54879 0.25342
 H1704 H 0.77809 0.59096 0.25633
 C1705 C 0.93411 0.25238 0.16363
 C1706 C 0.91756 0.23024 0.15748
 C1707 C 0.89489 0.23132 0.16829
 C1708 C 0.89096 0.25444 0.18419
 C1709 C 0.89631 0.27624 0.16693
 C1710 C 0.91898 0.27517 0.15612
 C1711 C 0.93512 0.25321 0.19193
 C1712 C 0.91240 0.25429 0.20276
 C1713 C 0.95827 0.25130 0.15151
 C1714 C 0.97750 0.25076 0.14032
 C1715 C 0.86644 0.25547 0.19559
 C1716 C 0.84612 0.25593 0.20463
 H1717 H 0.92317 0.21503 0.14570
 H1718 H 0.88107 0.21703 0.16575
 H1719 H 0.88344 0.29123 0.16352
 H1720 H 0.92554 0.28925 0.14345
 H1721 H 0.95214 0.25298 0.20251
 H1722 H 0.90996 0.25499 0.22264
 C1723 C 0.43179 0.75299 0.66310
 C1724 C 0.43255 0.75414 0.69140
 C1725 C 0.40973 0.75515 0.70202
 C1726 C 0.38845 0.75492 0.68327
 C1727 C 0.39270 0.73166 0.66766
 C1728 C 0.41548 0.73065 0.65706
 C1729 C 0.41654 0.77556 0.65521
 C1730 C 0.39376 0.77657 0.66581
 C1731 C 0.45609 0.75192 0.65122
 C1732 C 0.47543 0.75127 0.64023
 C1733 C 0.36383 0.75581 0.69451
 C1734 C 0.34352 0.75598 0.70362
 H1735 H 0.44947 0.75417 0.70213
 H1736 H 0.40711 0.75605 0.72186
 H1737 H 0.37903 0.71722 0.66516
 H1738 H 0.42131 0.71534 0.64550
 H1739 H 0.42309 0.78956 0.64244
 H1740 H 0.38079 0.79141 0.66213
 C1741 C 0.43591 0.24838 0.83648
 C1742 C 0.43683 0.24778 0.80816
 C1743 C 0.41408 0.24661 0.79741
 C1744 C 0.39271 0.24616 0.81605
 C1745 C 0.39649 0.26918 0.83212
 C1746 C 0.41919 0.27035 0.84285
 C1747 C 0.42101 0.22542 0.84385
 C1748 C 0.39831 0.22426 0.83312
 C1749 C 0.46012 0.24955 0.84852
 C1750 C 0.47940 0.25015 0.85964
 C1751 C 0.36814 0.24501 0.80470
 C1752 C 0.34782 0.24443 0.79565
 H1753 H 0.45381 0.24822 0.79752
 H1754 H 0.41157 0.24604 0.77753
 H1755 H 0.38256 0.28334 0.83482
 H1756 H 0.42471 0.28551 0.85474
 H1757 H 0.42773 0.21129 0.85639
 H1758 H 0.38558 0.20914 0.83645
 C1759 C 0.93386 0.74804 0.33686
 C1760 C 0.93463 0.74754 0.30855
 C1761 C 0.91184 0.74629 0.29791
 C1762 C 0.89056 0.74566 0.31666
 C1763 C 0.89431 0.76864 0.33279
 C1764 C 0.91706 0.76990 0.34340
 C1765 C 0.91911 0.72498 0.34424
 C1766 C 0.89636 0.72373 0.33362
 C1767 C 0.95813 0.74934 0.34876
 C1768 C 0.97746 0.75005 0.35977
 C1769 C 0.86596 0.74451 0.30540
 C1770 C 0.84565 0.74419 0.29633
 H1771 H 0.95155 0.74812 0.29782
 H1772 H 0.90923 0.74578 0.27804
 H1773 H 0.88032 0.78273 0.33560
 H1774 H 0.92256 0.78505 0.35530
 H1775 H 0.92598 0.71084 0.35670
 H1776 H 0.88372 0.70854 0.33697
 C1777 C 0.06539 0.75172 0.33588
 C1778 C 0.08201 0.72973 0.34241
 C1779 C 0.10470 0.73071 0.33164
 C1780 C 0.10857 0.75359 0.31539
 C1781 C 0.10310 0.77564 0.33229
 C1782 C 0.08041 0.77466 0.34306
 C1783 C 0.06443 0.75212 0.30756
 C1784 C 0.08717 0.75311 0.29677
 C1785 C 0.04123 0.75074 0.34800
 C1786 C 0.02206 0.75025 0.35930
 C1787 C 0.13313 0.75453 0.30405
 C1788 C 0.15348 0.75492 0.29507
 H1789 H 0.07644 0.71467 0.35441
 H1790 H 0.11857 0.71650 0.33443
 H1791 H 0.11591 0.79072 0.33550
 H1792 H 0.07377 0.78891 0.35551
 H1793 H 0.04744 0.75168 0.29695
 H1794 H 0.08967 0.75351 0.27689
 C1795 C 0.56721 0.25155 0.83570
 C1796 C 0.56601 0.25188 0.80739
 C1797 C 0.58865 0.25285 0.79639
 C1798 C 0.61022 0.25340 0.81480
 C1799 C 0.60651 0.23055 0.83114
 C1800 C 0.58392 0.22958 0.84213
 C1801 C 0.58228 0.27451 0.84269
 C1802 C 0.60488 0.27549 0.83170
 C1803 C 0.54314 0.25059 0.84802
 C1804 C 0.52399 0.25015 0.85937
 C1805 C 0.63468 0.25433 0.80323
 C1806 C 0.65496 0.25471 0.79408
 H1807 H 0.54892 0.25138 0.79694
 H1808 H 0.59095 0.25320 0.77648
 H1809 H 0.62041 0.21635 0.83383
 H1810 H 0.57846 0.21454 0.85421
 H1811 H 0.57575 0.28879 0.85516
 H1812 H 0.61770 0.29058 0.83476
 C1813 C 0.56344 0.74904 0.66398
 C1814 C 0.58033 0.77071 0.65709
 C1815 C 0.60305 0.76956 0.66779
 C1816 C 0.60668 0.74684 0.68434
 C1817 C 0.60086 0.72464 0.66775
 C1818 C 0.57814 0.72580 0.65705
 C1819 C 0.56259 0.74904 0.69230
 C1820 C 0.58536 0.74788 0.70302
 C1821 C 0.53925 0.75021 0.65193
 C1822 C 0.52006 0.75084 0.64067
 C1823 C 0.63128 0.74574 0.69561
 C1824 C 0.65164 0.74525 0.70457
 H1825 H 0.57490 0.78568 0.64491
 H1826 H 0.61708 0.78354 0.66476
 H1827 H 0.61345 0.70934 0.66471
 H1828 H 0.57126 0.71147 0.64484
 H1829 H 0.54565 0.74987 0.70297
 H1830 H 0.58792 0.74772 0.72290
 C1831 C 0.06524 0.24948 0.16418
 C1832 C 0.06396 0.24914 0.19248
 C1833 C 0.08657 0.24808 0.20354
 C1834 C 0.10818 0.24748 0.18518
 C1835 C 0.10456 0.27035 0.16884
 C1836 C 0.08200 0.27140 0.15780
 C1837 C 0.08027 0.22647 0.15721
 C1838 C 0.10284 0.22542 0.16825
 C1839 C 0.04119 0.25050 0.15182
 C1840 C 0.02206 0.25092 0.14047
 C1841 C 0.13261 0.24646 0.19680
 C1842 C 0.15288 0.24599 0.20597
 H1843 H 0.04685 0.24967 0.20290
 H1844 H 0.08883 0.24771 0.22345
 H1845 H 0.11850 0.28450 0.16618
 H1846 H 0.07660 0.28645 0.14570
 H1847 H 0.07374 0.21223 0.14471
 H1848 H 0.11563 0.21029 0.16521
 C1849 C -0.08596 0.99797 0.81587
 C1850 C -0.09268 1.01981 0.83261
 C1851 C -0.08178 1.01885 0.85524
 C1852 C -0.06522 0.99615 0.85894
 C1853 C -0.04673 0.99697 0.83745
 C1854 C -0.05765 0.99792 0.81477
 C1855 C -0.09278 0.97487 0.83083
 C1856 C -0.08188 0.97392 0.85347
 C1857 C -0.09818 0.99890 0.79175
 C1858 C -0.10941 0.99931 0.77254
 C1859 C -0.05374 0.99525 0.88344
 C1860 C -0.04468 0.99488 0.90376
 H1861 H -0.10491 1.03473 0.82715
 H1862 H -0.08469 1.03296 0.86918
 H1863 H -0.02683 0.99677 0.83984
 H1864 H -0.04712 0.99855 0.79773
 H1865 H -0.10506 0.96049 0.82419
 H1866 H -0.08482 0.95874 0.86622
 C1867 C 0.41435 0.49724 0.31672
 C1868 C 0.44252 0.49441 0.31546
 C1869 C 0.45348 0.49285 0.33808
 C1870 C 0.43516 0.49427 0.35969
 C1871 C 0.41639 0.47366 0.35480
 C1872 C 0.40545 0.47522 0.33221
 C1873 C 0.40992 0.51995 0.33303
 C1874 C 0.42085 0.51840 0.35561
 C1875 C 0.40211 0.49884 0.29264
 C1876 C 0.39086 0.49973 0.27346
 C1877 C 0.44672 0.49284 0.38414
 C1878 C 0.45592 0.49240 0.40439
 H1879 H 0.45293 0.49369 0.29834
 H1880 H 0.47329 0.49079 0.34036
 H1881 H 0.41209 0.45910 0.36789
 H1882 H 0.39178 0.46197 0.32595
 H1883 H 0.39917 0.53589 0.32733
 H1884 H 0.41945 0.53301 0.36925
 C1885 C 0.58593 0.00393 0.31548
 C1886 C 0.55762 0.00458 0.31433
 C1887 C 0.54670 0.00618 0.33697
 C1888 C 0.56518 0.00697 0.35848
 C1889 C 0.58232 0.02873 0.35264
 C1890 C 0.59323 0.02714 0.33004
 C1891 C 0.59215 -0.01774 0.33262
 C1892 C 0.58125 -0.01615 0.35520
 C1893 C 0.59817 0.00226 0.29141
 C1894 C 0.60952 0.00130 0.27229
 C1895 C 0.55367 0.00840 0.38295
 C1896 C 0.54451 0.00879 0.40322
 H1897 H 0.54711 0.00388 0.29729
 H1898 H 0.52681 0.00685 0.33932
 H1899 H 0.58556 0.04407 0.36512
 H1900 H 0.60582 0.04113 0.32316
 H1901 H 0.60404 -0.03303 0.32745
 H1902 H 0.58382 -0.03008 0.36939
 C1903 C 0.08610 0.50036 0.81402
 C1904 C 0.09226 0.47858 0.83105
 C1905 C 0.08126 0.48001 0.85361
 C1906 C 0.06515 0.50309 0.85696
 C1907 C 0.04676 0.50243 0.83537
 C1908 C 0.05779 0.50100 0.81277
 C1909 C 0.09331 0.52347 0.82877
 C1910 C 0.08230 0.52490 0.85133
 C1911 C 0.09844 0.49892 0.78998
 C1912 C 0.10978 0.49818 0.77084
 C1913 C 0.05357 0.50448 0.88140
 C1914 C 0.04444 0.50517 0.90168
 H1915 H 0.10419 0.46333 0.82583
 H1916 H 0.08378 0.46599 0.86771
 H1917 H 0.02686 0.50307 0.83764
 H1918 H 0.04736 0.50040 0.79567
 H1919 H 0.10591 0.53753 0.82203
 H1920 H 0.08547 0.54017 0.86392
 C1921 C 0.08645 0.49556 0.68296
 C1922 C 0.05816 0.49444 0.68403
 C1923 C 0.04731 0.49314 0.66133
 C1924 C 0.06586 0.49307 0.63986
 C1925 C 0.08335 0.47147 0.64530
 C1926 C 0.09418 0.47277 0.66796
 C1927 C 0.09235 0.51767 0.66628
 C1928 C 0.08153 0.51637 0.64364
 C1929 C 0.09860 0.49693 0.70709
 C1930 C 0.10983 0.49775 0.72628
 C1931 C 0.05443 0.49191 0.61536
 C1932 C 0.04533 0.49165 0.59506
 H1933 H 0.04760 0.49465 0.70106
 H1934 H 0.02744 0.49222 0.65891
 H1935 H 0.08689 0.45645 0.63251
 H1936 H 0.10699 0.45885 0.67458
 H1937 H 0.10396 0.53305 0.67179
 H1938 H 0.08389 0.53063 0.62975
 C1939 C 0.58660 0.99780 0.18433
 C1940 C 0.59273 1.01955 0.16726
 C1941 C 0.58186 1.01798 0.14465
 C1942 C 0.56591 0.99480 0.14129
 C1943 C 0.54741 0.99545 0.16278
 C1944 C 0.55830 0.99703 0.18544
 C1945 C 0.59404 0.97467 0.16971
 C1946 C 0.58316 0.97309 0.14709
 C1947 C 0.59876 0.99946 0.20846
 C1948 C 0.60991 1.00047 0.22771
 C1949 C 0.55439 0.99337 0.11681
 C1950 C 0.54516 0.99295 0.09657
 H1951 H 0.60454 1.03487 0.17248
 H1952 H 0.58438 1.03196 0.13051
 H1953 H 0.52752 0.99470 0.16041
 H1954 H 0.54776 0.99764 0.20247
 H1955 H 0.60670 0.96071 0.17657
 H1956 H 0.58650 0.95780 0.13457
 C1957 C 0.41482 0.50138 0.18576
 C1958 C 0.44185 0.49288 0.18601
 C1959 C 0.45293 0.49402 0.16341
 C1960 C 0.43586 0.50356 0.14285
 C1961 C 0.42644 0.52862 0.15212
 C1962 C 0.41537 0.52748 0.17468
 C1963 C 0.40222 0.48535 0.16611
 C1964 C 0.41327 0.48649 0.14358
 C1965 C 0.40242 0.50027 0.20979
 C1966 C 0.39103 0.49979 0.22891
 C1967 C 0.44749 0.50465 0.11843
 C1968 C 0.45661 0.50512 0.09814
 H1969 H 0.45143 0.48655 0.20243
 H1970 H 0.47202 0.48867 0.16049
 H1971 H 0.42831 0.54575 0.14189
 H1972 H 0.40777 0.54365 0.18376
 H1973 H 0.38603 0.47405 0.16960
 H1974 H 0.40653 0.47619 0.12776
 C1975 C -0.08566 0.00081 0.68475
 C1976 C -0.05833 -0.00665 0.68495
 C1977 C -0.04739 -0.00529 0.66230
 C1978 C -0.06490 0.00341 0.64173
 C1979 C -0.07522 0.02817 0.65082
 C1980 C -0.08614 0.02680 0.67343
 C1981 C -0.09772 -0.01587 0.66530
 C1982 C -0.08682 -0.01451 0.64270
 C1983 C -0.09792 -0.00052 0.70883
 C1984 C -0.10924 -0.00108 0.72798
 C1985 C -0.05342 0.00475 0.61726
 C1986 C -0.04435 0.00542 0.59695
 H1987 H -0.04845 -0.01247 0.70139
 H1988 H -0.02812 -0.00994 0.65934
 H1989 H -0.07402 0.04528 0.64044
 H1990 H -0.09430 0.04276 0.68242
 H1991 H -0.11344 -0.02775 0.66896
 H1992 H -0.09320 -0.02522 0.62701
 C1993 C -0.18553 0.91482 0.99845
 C1994 C -0.17038 0.90803 0.97548
 C1995 C -0.14785 0.91914 0.97460
 C1996 C -0.14266 0.93596 0.99677
 C1997 C -0.14632 0.91949 1.01953
 C1998 C -0.16884 0.90838 1.02041
 C1999 C -0.18691 0.94313 0.99825
 C2000 C -0.16433 0.95427 0.99737
 C2001 C -0.20952 0.90236 0.99933
 C2002 C -0.22860 0.89092 0.99974
 C2003 C -0.11825 0.94762 0.99593
 C2004 C -0.09795 0.95672 0.99560
 H2005 H -0.17681 0.89561 0.96112
 H2006 H -0.13499 0.91625 0.95950
 H2007 H -0.13244 0.91682 1.03375
 H2008 H -0.17427 0.89620 1.03539
 H2009 H -0.20406 0.95349 0.99876
 H2010 H -0.16214 0.97419 0.99712
 C2011 C 0.31619 0.41383 0.49843
 C2012 C 0.33087 0.40640 0.47534
 C2013 C 0.35351 0.41724 0.47382
 C2014 C 0.35926 0.43446 0.49554
 C2015 C 0.35583 0.41850 0.51870
 C2016 C 0.33321 0.40766 0.52022
 C2017 C 0.31511 0.44213 0.49766
 C2018 C 0.33779 0.45300 0.49615
 C2019 C 0.29207 0.40165 0.49999
 C2020 C 0.27290 0.39039 0.50085
 C2021 C 0.38376 0.44591 0.49414
 C2022 C 0.40405 0.45504 0.49368
 H2023 H 0.32405 0.39376 0.46136
 H2024 H 0.36607 0.41391 0.45856
 H2025 H 0.36993 0.41596 0.53272
 H2026 H 0.32793 0.39585 0.53553
 H2027 H 0.29808 0.45269 0.49825
 H2028 H 0.34018 0.47289 0.49542
 C2029 C 0.31576 0.58526 0.00218
 C2030 C 0.33077 0.59236 0.02515
 C2031 C 0.35330 0.58127 0.02632
 C2032 C 0.35865 0.56415 0.00440
 C2033 C 0.35511 0.58033 -0.01860
 C2034 C 0.33258 0.59142 -0.01976
 C2035 C 0.31442 0.55696 0.00274
 C2036 C 0.33700 0.54584 0.00391
 C2037 C 0.29176 0.59770 0.00102
 C2038 C 0.27265 0.60911 0.00048
 C2039 C 0.38307 0.55251 0.00554
 C2040 C 0.40337 0.54343 0.00607
 H2041 H 0.32423 0.60496 0.03931
 H2042 H 0.36606 0.58436 0.04146
 H2043 H 0.36907 0.58282 -0.03276
 H2044 H 0.32723 0.60341 -0.03492
 H2045 H 0.29728 0.54659 0.00227
 H2046 H 0.33921 0.52593 0.00445
 C2047 C -0.18511 0.08562 0.50052
 C2048 C -0.17034 0.09275 0.52364
 C2049 C -0.14774 0.08180 0.52497
 C2050 C -0.14210 0.06478 0.50306
 C2051 C -0.14555 0.08100 0.48007
 C2052 C -0.16814 0.09195 0.47874
 C2053 C -0.18627 0.05731 0.50100
 C2054 C -0.16363 0.04634 0.50233
 C2055 C -0.20919 0.09792 0.49922
 C2056 C -0.22833 0.10928 0.49865
 C2057 C -0.11762 0.05326 0.50436
 C2058 C -0.09730 0.04419 0.50501
 H2059 H -0.17708 0.10527 0.53777
 H2060 H -0.13513 0.08494 0.54023
 H2061 H -0.13148 0.08361 0.46603
 H2062 H -0.17344 0.10393 0.46356
 H2063 H -0.20334 0.04683 0.50036
 H2064 H -0.16129 0.02644 0.50284
 C2065 C 0.68372 0.08621 0.49625
 C2066 C 0.67450 0.08279 0.46965
 C2067 C 0.65185 0.07195 0.46814
 C2068 C 0.64064 0.06560 0.49337
 C2069 C 0.64061 0.08999 0.50776
 C2070 C 0.66323 0.10081 0.50928
 C2071 C 0.68281 0.06034 0.50776
 C2072 C 0.66014 0.04949 0.50624
 C2073 C 0.70785 0.09835 0.49780
 C2074 C 0.72708 0.10953 0.49863
 C2075 C 0.61615 0.05415 0.49197
 C2076 C 0.59586 0.04503 0.49153
 H2077 H 0.68487 0.08837 0.45343
 H2078 H 0.64282 0.06824 0.45064
 H2079 H 0.62425 0.09807 0.51606
 H2080 H 0.66623 0.11815 0.51888
 H2081 H 0.69854 0.05134 0.51631
 H2082 H 0.65646 0.03118 0.51351
 C2083 C 0.18492 0.58562 0.99829
 C2084 C 0.18621 0.55733 0.99734
 C2085 C 0.16361 0.54630 0.99591
 C2086 C 0.14201 0.56468 0.99558
 C2087 C 0.14748 0.58210 0.97393
 C2088 C 0.17004 0.59310 0.97535
 C2089 C 0.16802 0.59151 1.02025
 C2090 C 0.14547 0.58051 1.01882
 C2091 C 0.20896 0.59795 0.99972
 C2092 C 0.22812 0.60925 1.00046
 C2093 C 0.11758 0.55309 0.99419
 C2094 C 0.09729 0.54399 0.99352
 H2095 H 0.20332 0.54690 0.99772
 H2096 H 0.16137 0.52640 0.99507
 H2097 H 0.13479 0.58546 0.95879
 H2098 H 0.17666 0.60590 0.96141
 H2099 H 0.17332 0.60327 1.03559
 H2100 H 0.13144 0.58285 1.03294
 C2101 C 0.18474 0.41329 0.50307
 C2102 C 0.18556 0.44161 0.50364
 C2103 C 0.16278 0.45230 0.50487
 C2104 C 0.14146 0.43360 0.50540
 C2105 C 0.14717 0.41656 0.52730
 C2106 C 0.16991 0.40589 0.52607
 C2107 C 0.16799 0.40685 0.48116
 C2108 C 0.14526 0.41751 0.48239
 C2109 C 0.20899 0.40131 0.50180
 C2110 C 0.22828 0.39021 0.50113
 C2111 C 0.11686 0.44490 0.50649
 C2112 C 0.09655 0.45400 0.50670
 H2113 H 0.20250 0.45230 0.50314
 H2114 H 0.16020 0.47217 0.50543
 H2115 H 0.13448 0.41320 0.54245
 H2116 H 0.17672 0.39339 0.54020
 H2117 H 0.17352 0.39497 0.46599
 H2118 H 0.13131 0.41475 0.46827
 C2119 C 0.68367 0.91428 0.00303
 C2120 C 0.68494 0.94257 0.00401
 C2121 C 0.66235 0.95360 0.00570
 C2122 C 0.64076 0.93522 0.00626
 C2123 C 0.64649 0.91778 0.02783
 C2124 C 0.66904 0.90677 0.02613
 C2125 C 0.66653 0.90842 -0.01873
 C2126 C 0.64399 0.91942 -0.01704
 C2127 C 0.70770 0.90196 0.00126
 C2128 C 0.72687 0.89069 0.00019
 C2129 C 0.61635 0.94684 0.00782
 C2130 C 0.59610 0.95606 0.00834
 H2131 H 0.70204 0.95300 0.00343
 H2132 H 0.66010 0.97349 0.00659
 H2133 H 0.63397 0.91442 0.04311
 H2134 H 0.67584 0.89397 0.03999
 H2135 H 0.67167 0.89669 -0.03415
 H2136 H 0.62982 0.91710 -0.03102
 C2137 C -0.00365 0.81593 0.91457
 C2138 C -0.02649 0.83118 0.90751
 C2139 C -0.02747 0.85367 0.91869
 C2140 C -0.00552 0.85874 0.93584
 C2141 C 0.01746 0.85507 0.91967
 C2142 C 0.01844 0.83258 0.90849
 C2143 C -0.00424 0.81445 0.94286
 C2144 C -0.00522 0.83699 0.95406
 C2145 C -0.00265 0.79197 0.90204
 C2146 C -0.00218 0.77291 0.89056
 C2147 C -0.00643 0.88310 0.94761
 C2148 C -0.00676 0.90334 0.95684
 H2149 H -0.04068 0.82483 0.89486
 H2150 H -0.04249 0.86660 0.91563
 H2151 H 0.03173 0.86893 0.91723
 H2152 H 0.03355 0.82717 0.89648
 H2153 H -0.00393 0.79726 0.95316
 H2154 H -0.00576 0.83911 0.97398
 C2155 C 0.49751 0.31649 0.41394
 C2156 C 0.49720 0.31534 0.44225
 C2157 C 0.49568 0.33798 0.45319
 C2158 C 0.49462 0.35949 0.43472
 C2159 C 0.47267 0.35362 0.41783
 C2160 C 0.47419 0.33102 0.40691
 C2161 C 0.51907 0.33367 0.40747
 C2162 C 0.51755 0.35626 0.41839
 C2163 C 0.49907 0.29241 0.40169
 C2164 C 0.49988 0.27325 0.39039
 C2165 C 0.49322 0.38396 0.44626
 C2166 C 0.49279 0.40421 0.45546
 H2167 H 0.49808 0.29830 0.45275
 H2168 H 0.49525 0.34033 0.47309
 H2169 H 0.45727 0.36608 0.41476
 H2170 H 0.46006 0.32412 0.39447
 H2171 H 0.53423 0.32853 0.39540
 H2172 H 0.53141 0.37048 0.41565
 C2173 C 0.00414 0.31553 0.58543
 C2174 C 0.00479 0.31405 0.55714
 C2175 C 0.00619 0.33657 0.54593
 C2176 C 0.00680 0.35830 0.56413
 C2177 C 0.02861 0.35286 0.58136
 C2178 C 0.02721 0.33038 0.59255
 C2179 C -0.01769 0.33257 0.59143
 C2180 C -0.01629 0.35503 0.58024
 C2181 C 0.00269 0.29157 0.59795
 C2182 C 0.00191 0.27246 0.60934
 C2183 C 0.00806 0.38265 0.55232
 C2184 C 0.00839 0.40285 0.54298
 H2185 H 0.00423 0.29687 0.54685
 H2186 H 0.00683 0.33867 0.52601
 H2187 H 0.04384 0.36551 0.58445
 H2188 H 0.04127 0.32377 0.60523
 H2189 H -0.03293 0.32742 0.60338
 H2190 H -0.03034 0.36913 0.58262
 C2191 C 0.50228 0.81611 0.08690
 C2192 C 0.50295 0.81521 0.05859
 C2193 C 0.50442 0.83796 0.04786
 C2194 C 0.50507 0.85932 0.06651
 C2195 C 0.52685 0.85345 0.08363
 C2196 C 0.52539 0.83074 0.09435
 C2197 C 0.48050 0.83308 0.09324
 C2198 C 0.48196 0.85577 0.08252
 C2199 C 0.50078 0.79189 0.09892
 C2200 C 0.49998 0.77260 0.11001
 C2201 C 0.50643 0.88388 0.05516
 C2202 C 0.50686 0.90419 0.04605
 H2203 H 0.50234 0.79825 0.04794
 H2204 H 0.50508 0.84047 0.02798
 H2205 H 0.54211 0.86599 0.08701
 H2206 H 0.53940 0.82384 0.10691
 H2207 H 0.46523 0.82772 0.10507
 H2208 H 0.46795 0.86986 0.08520
 C2209 C 0.49827 0.68471 0.08610
 C2210 C 0.47534 0.66969 0.09332
 C2211 C 0.47429 0.64704 0.08246
 C2212 C 0.49626 0.64161 0.06544
 C2213 C 0.51921 0.64538 0.08162
 C2214 C 0.52027 0.66802 0.09247
 C2215 C 0.49777 0.68578 0.05779
 C2216 C 0.49671 0.66309 0.04691
 C2217 C 0.49934 0.70883 0.09831
 C2218 C 0.49985 0.72798 0.10963
 C2219 C 0.49525 0.61708 0.05401
 C2220 C 0.49482 0.59676 0.04498
 H2221 H 0.46114 0.67630 0.10584
 H2222 H 0.45920 0.63425 0.08567
 H2223 H 0.53342 0.63148 0.08428
 H2224 H 0.53538 0.67353 0.10442
 H2225 H 0.49820 0.70282 0.04724
 H2226 H 0.49623 0.66068 0.02702
 C2227 C -0.00029 0.18481 0.58548
 C2228 C -0.00085 0.18612 0.55718
 C2229 C -0.00223 0.16354 0.54611
 C2230 C -0.00292 0.14192 0.56446
 C2231 C -0.02478 0.14749 0.58158
 C2232 C -0.02340 0.17003 0.59263
 C2233 C 0.02150 0.16779 0.59166
 C2234 C 0.02012 0.14525 0.58061
 C2235 C 0.00108 0.20882 0.59788
 C2236 C 0.00175 0.22793 0.60926
 C2237 C -0.00428 0.11749 0.55286
 C2238 C -0.00497 0.09718 0.54380
 H2239 H -0.00023 0.20324 0.54678
 H2240 H -0.00280 0.16131 0.52620
 H2241 H -0.04003 0.13488 0.58471
 H2242 H -0.03749 0.17672 0.60523
 H2243 H 0.03671 0.17299 0.60363
 H2244 H 0.03415 0.13115 0.58313
 C2245 C 0.50244 0.18524 0.41352
 C2246 C 0.50327 0.18620 0.44183
 C2247 C 0.50464 0.16348 0.45262
 C2248 C 0.50506 0.14207 0.43401
 C2249 C 0.52679 0.14773 0.41676
 C2250 C 0.52542 0.17042 0.40599
 C2251 C 0.48052 0.16842 0.40735
 C2252 C 0.48189 0.14574 0.41811
 C2253 C 0.50101 0.20942 0.40144
 C2254 C 0.50020 0.22866 0.39026
 C2255 C 0.50630 0.11752 0.44539
 C2256 C 0.50665 0.09721 0.45447
 H2257 H 0.50283 0.20320 0.45244
 H2258 H 0.50539 0.16100 0.47249
 H2259 H 0.54195 0.13506 0.41335
 H2260 H 0.53942 0.17719 0.39335
 H2261 H 0.46523 0.17386 0.39558
 H2262 H 0.46778 0.13175 0.41555
 C2263 C -0.00007 0.68500 0.91357
 C2264 C 0.00056 0.68608 0.94187
 C2265 C 0.00201 0.66340 0.95277
 C2266 C 0.00269 0.64193 0.93425
 C2267 C 0.02449 0.64767 0.91712
 C2268 C 0.02305 0.67029 0.90625
 C2269 C -0.02185 0.66801 0.90731
 C2270 C -0.02040 0.64538 0.91818
 C2271 C -0.00150 0.70912 0.90138
 C2272 C -0.00221 0.72836 0.89019
 C2273 C 0.00413 0.61742 0.94569
 C2274 C 0.00489 0.59707 0.95468
 H2275 H -0.00008 0.70311 0.95241
 H2276 H 0.00261 0.66101 0.97266
 H2277 H 0.03976 0.63509 0.91385
 H2278 H 0.03709 0.67710 0.89366
 H2279 H -0.03710 0.67331 0.89544
 H2280 H -0.03442 0.63130 0.91561
 C2281 C 0.24773 0.66363 0.93521
 C2282 C 0.26940 0.65736 0.91809
 C2283 C 0.26789 0.66833 0.89552
 C2284 C 0.24485 0.68452 0.89225
 C2285 C 0.24570 0.70294 0.91380
 C2286 C 0.24721 0.69194 0.93642
 C2287 C 0.22452 0.65648 0.92060
 C2288 C 0.22301 0.66745 0.89802
 C2289 C 0.24927 0.65130 0.95925
 C2290 C 0.25013 0.63993 0.97837
 C2291 C 0.24339 0.69606 0.86780
 C2292 C 0.24269 0.70514 0.84749
 H2293 H 0.28463 0.64538 0.92325
 H2294 H 0.28183 0.66574 0.88135
 H2295 H 0.24514 0.72284 0.91150
 H2296 H 0.24795 0.70240 0.95349
 H2297 H 0.21046 0.64393 0.92742
 H2298 H 0.20768 0.66431 0.88551
 C2299 C 0.74666 0.16407 0.43360
 C2300 C 0.72531 0.15446 0.41762
 C2301 C 0.72378 0.16551 0.39508
 C2302 C 0.74375 0.18510 0.39072
 C2303 C 0.76832 0.17167 0.39517
 C2304 C 0.76984 0.16063 0.41770
 C2305 C 0.74274 0.19211 0.43500
 C2306 C 0.74121 0.20318 0.41242
 C2307 C 0.74825 0.15166 0.45759
 C2308 C 0.74916 0.14021 0.47666
 C2309 C 0.74235 0.19674 0.36631
 C2310 C 0.74193 0.20595 0.34606
 H2311 H 0.71246 0.14026 0.42353
 H2312 H 0.70964 0.16078 0.38169
 H2313 H 0.78324 0.17095 0.38181
 H2314 H 0.78607 0.15045 0.42364
 H2315 H 0.74130 0.20234 0.45217
 H2316 H 0.73845 0.22291 0.41024
 C2317 C 0.25333 0.33619 0.43552
 C2318 C 0.25410 0.30789 0.43665
 C2319 C 0.25554 0.29698 0.41399
 C2320 C 0.25606 0.31548 0.39248
 C2321 C 0.27781 0.33271 0.39813
 C2322 C 0.27638 0.34359 0.42075
 C2323 C 0.23148 0.34234 0.41858
 C2324 C 0.23291 0.33146 0.39598
 C2325 C 0.25183 0.34840 0.45962
 C2326 C 0.25096 0.35968 0.47879
 C2327 C 0.25737 0.30400 0.36800
 C2328 C 0.25773 0.29487 0.34771
 H2329 H 0.25359 0.29736 0.45370
 H2330 H 0.25626 0.27709 0.41162
 H2331 H 0.29302 0.33602 0.38551
 H2332 H 0.29038 0.35624 0.42751
 H2333 H 0.21620 0.35418 0.42389
 H2334 H 0.21885 0.33399 0.38192
 C2335 C 0.75154 0.83731 0.93371
 C2336 C 0.75218 0.80900 0.93476
 C2337 C 0.75350 0.79814 0.91207
 C2338 C 0.75406 0.81668 0.89061
 C2339 C 0.77589 0.83380 0.89623
 C2340 C 0.77457 0.84464 0.91889
 C2341 C 0.72967 0.84360 0.91684
 C2342 C 0.73099 0.83276 0.89420
 C2343 C 0.75018 0.84943 0.95787
 C2344 C 0.74943 0.86051 0.97716
 C2345 C 0.75526 0.80520 0.86610
 C2346 C 0.75559 0.79600 0.84584
 H2347 H 0.75164 0.79844 0.95178
 H2348 H 0.75411 0.77826 0.90966
 H2349 H 0.79107 0.83709 0.88357
 H2350 H 0.78864 0.85723 0.92562
 H2351 H 0.71445 0.85549 0.92222
 H2352 H 0.71690 0.83539 0.88018
 C2353 C 0.74762 0.83610 0.06489
 C2354 C 0.74722 0.80779 0.06371
 C2355 C 0.74615 0.79681 0.08636
 C2356 C 0.74558 0.81525 0.10791
 C2357 C 0.72355 0.83222 0.10249
 C2358 C 0.72463 0.84318 0.07989
 C2359 C 0.76955 0.84247 0.08164
 C2360 C 0.76848 0.83151 0.10424
 C2361 C 0.74870 0.84843 0.04083
 C2362 C 0.74923 0.85988 0.02175
 C2363 C 0.74456 0.80373 0.13239
 C2364 C 0.74414 0.79469 0.15272
 H2365 H 0.74773 0.79731 0.04664
 H2366 H 0.74573 0.77690 0.08870
 H2367 H 0.70842 0.83532 0.11526
 H2368 H 0.71039 0.85567 0.07329
 H2369 H 0.78464 0.85449 0.07621
 H2370 H 0.78264 0.83417 0.11817
 C2371 C 0.24816 0.33623 0.56664
 C2372 C 0.24773 0.30793 0.56546
 C2373 C 0.24629 0.29695 0.58809
 C2374 C 0.24542 0.31539 0.60963
 C2375 C 0.22350 0.33239 0.60388
 C2376 C 0.22494 0.34334 0.58129
 C2377 C 0.26983 0.34258 0.58372
 C2378 C 0.26839 0.33162 0.60630
 C2379 C 0.24965 0.34850 0.54255
 C2380 C 0.25047 0.35976 0.52337
 C2381 C 0.24411 0.30380 0.63408
 C2382 C 0.24375 0.29455 0.65432
 H2383 H 0.24848 0.29745 0.54840
 H2384 H 0.24579 0.27705 0.59041
 H2385 H 0.20818 0.33550 0.61642
 H2386 H 0.21083 0.35585 0.57447
 H2387 H 0.28501 0.35459 0.57852
 H2388 H 0.28234 0.33427 0.62045
 C2389 C 0.75288 0.16309 0.56457
 C2390 C 0.75357 0.19140 0.56350
 C2391 C 0.75536 0.20225 0.58616
 C2392 C 0.75627 0.18370 0.60761
 C2393 C 0.77795 0.16651 0.60157
 C2394 C 0.77617 0.15568 0.57894
 C2395 C 0.73131 0.15689 0.58184
 C2396 C 0.73309 0.16771 0.60445
 C2397 C 0.75103 0.15095 0.54045
 C2398 C 0.74994 0.13980 0.52122
 C2399 C 0.75793 0.19515 0.63210
 C2400 C 0.75855 0.20428 0.65238
 H2401 H 0.75276 0.20197 0.54649
 H2402 H 0.75608 0.22214 0.58856
 H2403 H 0.79337 0.16319 0.61393
 H2404 H 0.79009 0.14307 0.57193
 H2405 H 0.71595 0.14507 0.57674
 H2406 H 0.71926 0.16515 0.61873
 C2407 C 0.25327 0.66302 0.06627
 C2408 C 0.25398 0.69133 0.06517
 C2409 C 0.25546 0.70222 0.08783
 C2410 C 0.25610 0.68370 0.10931
 C2411 C 0.27786 0.66651 0.10358
 C2412 C 0.27638 0.65564 0.08095
 C2413 C 0.23149 0.65684 0.08328
 C2414 C 0.23297 0.66771 0.10589
 C2415 C 0.25172 0.65085 0.04215
 C2416 C 0.25081 0.63966 0.02294
 C2417 C 0.25747 0.69520 0.13379
 C2418 C 0.25787 0.70437 0.15405
 H2419 H 0.25336 0.70187 0.04813
 H2420 H 0.25613 0.72211 0.09021
 H2421 H 0.29311 0.66318 0.11616
 H2422 H 0.29038 0.64299 0.07415
 H2423 H 0.21621 0.64500 0.07801
 H2424 H 0.21896 0.66515 0.11999
 C2425 C 0.16334 0.56397 0.75066
 C2426 C 0.19166 0.56304 0.75107
 C2427 C 0.20242 0.58578 0.75238
 C2428 C 0.18378 0.60715 0.75316
 C2429 C 0.16686 0.60136 0.77511
 C2430 C 0.15611 0.57867 0.77380
 C2431 C 0.15681 0.58089 0.72890
 C2432 C 0.16755 0.60358 0.73020
 C2433 C 0.15130 0.53978 0.74936
 C2434 C 0.14019 0.52051 0.74868
 C2435 C 0.19510 0.63171 0.75444
 C2436 C 0.20404 0.65208 0.75510
 H2437 H 0.20230 0.54606 0.75040
 H2438 H 0.22230 0.58827 0.75284
 H2439 H 0.16362 0.61395 0.79036
 H2440 H 0.14367 0.57183 0.78795
 H2441 H 0.14483 0.57551 0.71376
 H2442 H 0.16476 0.61763 0.71619
 C2443 C 0.66322 0.06683 0.25275
 C2444 C 0.65574 0.08138 0.27591
 C2445 C 0.66643 0.10409 0.27747
 C2446 C 0.68356 0.11003 0.25572
 C2447 C 0.66757 0.10656 0.23259
 C2448 C 0.65689 0.08387 0.23103
 C2449 C 0.69153 0.06594 0.25345
 C2450 C 0.70224 0.08868 0.25501
 C2451 C 0.65123 0.04263 0.25115
 C2452 C 0.64014 0.02336 0.25029
 C2453 C 0.69488 0.13458 0.25715
 C2454 C 0.70398 0.15488 0.25756
 H2455 H 0.64317 0.07443 0.28989
 H2456 H 0.66302 0.11658 0.29276
 H2457 H 0.66489 0.12070 0.21863
 H2458 H 0.64507 0.07856 0.21574
 H2459 H 0.70221 0.04898 0.25279
 H2460 H 0.72211 0.09121 0.25570
 C2461 C 0.83722 0.06503 0.74652
 C2462 C 0.81075 0.06441 0.73642
 C2463 C 0.80013 0.08719 0.73465
 C2464 C 0.81705 0.10829 0.74317
 C2465 C 0.84059 0.10556 0.72768
 C2466 C 0.85119 0.08283 0.72943
 C2467 C 0.83535 0.07859 0.77131
 C2468 C 0.82475 0.10132 0.76955
 C2469 C 0.84914 0.04080 0.74839
 C2470 C 0.86022 0.02153 0.74956
 C2471 C 0.80583 0.13288 0.74155
 C2472 C 0.79681 0.15321 0.74102
 H2473 H 0.80120 0.04761 0.73113
 H2474 H 0.78148 0.08990 0.72784
 H2475 H 0.84825 0.12017 0.71629
 H2476 H 0.86793 0.07798 0.71953
 H2477 H 0.84174 0.07099 0.78872
 H2478 H 0.82208 0.11320 0.78547
 C2479 C 0.33728 0.56581 0.24801
 C2480 C 0.34559 0.58083 0.22543
 C2481 C 0.33473 0.60346 0.22379
 C2482 C 0.31663 0.60888 0.24488
 C2483 C 0.33165 0.60515 0.26862
 C2484 C 0.34250 0.58252 0.27026
 C2485 C 0.30903 0.56469 0.24609
 C2486 C 0.29815 0.58736 0.24445
 C2487 C 0.34942 0.54167 0.24971
 C2488 C 0.36056 0.52241 0.25071
 C2489 C 0.30514 0.63337 0.24336
 C2490 C 0.29593 0.65363 0.24286
 H2491 H 0.35880 0.57422 0.21188
 H2492 H 0.33864 0.61624 0.20886
 H2493 H 0.33356 0.61905 0.28293
 H2494 H 0.35368 0.57704 0.28597
 H2495 H 0.29851 0.54764 0.24604
 H2496 H 0.27831 0.58973 0.24297
 C2497 C 0.33641 0.43470 0.25386
 C2498 C 0.34106 0.42140 0.27847
 C2499 C 0.33011 0.39881 0.27996
 C2500 C 0.31558 0.39173 0.25671
 C2501 C 0.33417 0.39397 0.23545
 C2502 C 0.34511 0.41653 0.23395
 C2503 C 0.30822 0.43565 0.25120
 C2504 C 0.29725 0.41302 0.25270
 C2505 C 0.34872 0.45875 0.25230
 C2506 C 0.36012 0.47784 0.25142
 C2507 C 0.30404 0.36729 0.25809
 C2508 C 0.29486 0.34703 0.25850
 H2509 H 0.35194 0.42908 0.29344
 H2510 H 0.33161 0.38715 0.29620
 H2511 H 0.33836 0.37912 0.22265
 H2512 H 0.35865 0.42102 0.21986
 H2513 H 0.29780 0.45255 0.24842
 H2514 H 0.27742 0.41055 0.25121
 C2515 C 0.83608 0.93391 0.75312
 C2516 C 0.84197 0.91693 0.73123
 C2517 C 0.83084 0.89445 0.73266
 C2518 C 0.81490 0.89110 0.75585
 C2519 C 0.79664 0.91281 0.75540
 C2520 C 0.80780 0.93535 0.75396
 C2521 C 0.84339 0.91902 0.77612
 C2522 C 0.83226 0.89652 0.77756
 C2523 C 0.84854 0.95788 0.75160
 C2524 C 0.85996 0.97696 0.75067
 C2525 C 0.80315 0.86674 0.75713
 C2526 C 0.79381 0.84654 0.75744
 H2527 H 0.85379 0.92214 0.71590
 H2528 H 0.83315 0.88039 0.71856
 H2529 H 0.77673 0.91067 0.75616
 H2530 H 0.79746 0.95252 0.75348
 H2531 H 0.85615 0.92561 0.79010
 H2532 H 0.83548 0.88384 0.79274
 C2533 C 0.66420 0.93558 0.24881
 C2534 C 0.65782 0.91874 0.27068
 C2535 C 0.66884 0.89617 0.26956
 C2536 C 0.68515 0.89261 0.24666
 C2537 C 0.70354 0.91419 0.24732
 C2538 C 0.69250 0.93682 0.24845
 C2539 C 0.65720 0.92064 0.22576
 C2540 C 0.66821 0.89806 0.22464
 C2541 C 0.65184 0.95964 0.24990
 C2542 C 0.64045 0.97877 0.25035
 C2543 C 0.69673 0.86814 0.24555
 C2544 C 0.70581 0.84783 0.24500
 H2545 H 0.64575 0.92410 0.28576
 H2546 H 0.66619 0.88218 0.28367
 H2547 H 0.72345 0.91190 0.24693
 H2548 H 0.70294 0.95391 0.24904
 H2549 H 0.64471 0.92725 0.21154
 H2550 H 0.66516 0.88533 0.20946
 C2551 C 0.16461 0.43294 0.74626
 C2552 C 0.15772 0.41818 0.72306
 C2553 C 0.16888 0.39568 0.72171
 C2554 C 0.18585 0.39013 0.74370
 C2555 C 0.16949 0.39336 0.76662
 C2556 C 0.15834 0.41585 0.76796
 C2557 C 0.19291 0.43437 0.74593
 C2558 C 0.20409 0.41183 0.74459
 C2559 C 0.15210 0.45690 0.74766
 C2560 C 0.14062 0.47595 0.74842
 C2561 C 0.19761 0.36577 0.74250
 C2562 C 0.20691 0.34555 0.74221
 H2563 H 0.14522 0.42486 0.70888
 H2564 H 0.16595 0.38309 0.70641
 H2565 H 0.16692 0.37923 0.78060
 H2566 H 0.14623 0.42098 0.78309
 H2567 H 0.20323 0.45152 0.74666
 H2568 H 0.22401 0.40967 0.74415
 C2569 C 0.06320 0.74839 0.83607
 C2570 C 0.08024 0.77010 0.84241
 C2571 C 0.10280 0.76872 0.83142
 C2572 C 0.10615 0.74576 0.81515
 C2573 C 0.08458 0.74661 0.79675
 C2574 C 0.06197 0.74799 0.80776
 C2575 C 0.07791 0.72520 0.84313
 C2576 C 0.10048 0.72382 0.83214
 C2577 C 0.03914 0.74979 0.84839
 C2578 C 0.02000 0.75056 0.85972
 C2579 C 0.13059 0.74442 0.80358
 C2580 C 0.15087 0.74379 0.79445
 H2581 H 0.07503 0.78525 0.85445
 H2582 H 0.11693 0.78268 0.83406
 H2583 H 0.08687 0.74614 0.77684
 H2584 H 0.04488 0.74871 0.79731
 H2585 H 0.07115 0.71107 0.85565
 H2586 H 0.11306 0.70852 0.83523
 C2587 C 0.56523 0.24830 0.33578
 C2588 C 0.57991 0.22514 0.34305
 C2589 C 0.60245 0.22358 0.33201
 C2590 C 0.60812 0.24532 0.31478
 C2591 C 0.60488 0.26846 0.33080
 C2592 C 0.58235 0.27003 0.34183
 C2593 C 0.56393 0.24760 0.30748
 C2594 C 0.58651 0.24603 0.29642
 C2595 C 0.54122 0.24991 0.34816
 C2596 C 0.52213 0.25079 0.35958
 C2597 C 0.63254 0.24386 0.30315
 C2598 C 0.65279 0.24336 0.29395
 H2599 H 0.57314 0.21115 0.35571
 H2600 H 0.61499 0.20827 0.33521
 H2601 H 0.61903 0.28243 0.33323
 H2602 H 0.57720 0.28534 0.35370
 H2603 H 0.54682 0.24826 0.29707
 H2604 H 0.58874 0.24533 0.27652
 C2605 C 0.56515 0.75214 0.16425
 C2606 C 0.56385 0.75252 0.19256
 C2607 C 0.58645 0.75374 0.20362
 C2608 C 0.60806 0.75447 0.18526
 C2609 C 0.60255 0.77647 0.16828
 C2610 C 0.58000 0.77524 0.15724
 C2611 C 0.58208 0.73032 0.15793
 C2612 C 0.60463 0.73155 0.16897
 C2613 C 0.54113 0.75090 0.15188
 C2614 C 0.52202 0.75025 0.14049
 C2615 C 0.63248 0.75566 0.19687
 C2616 C 0.65276 0.75619 0.20600
 H2617 H 0.54674 0.75189 0.20297
 H2618 H 0.58870 0.75417 0.22353
 H2619 H 0.61522 0.79169 0.16524
 H2620 H 0.57334 0.78943 0.14473
 H2621 H 0.57681 0.71521 0.14587
 H2622 H 0.61867 0.71748 0.16635
 C2623 C 0.06729 0.25250 0.66351
 C2624 C 0.06617 0.25322 0.69181
 C2625 C 0.08884 0.25453 0.70272
 C2626 C 0.11034 0.25500 0.68423
 C2627 C 0.10478 0.27680 0.66703
 C2628 C 0.08215 0.27549 0.65614
 C2629 C 0.08414 0.23058 0.65735
 C2630 C 0.10676 0.23189 0.66823
 C2631 C 0.04318 0.25114 0.65129
 C2632 C 0.02401 0.25038 0.64000
 C2633 C 0.13483 0.25620 0.69573
 C2634 C 0.15510 0.25652 0.70492
 H2635 H 0.04912 0.25275 0.70233
 H2636 H 0.09120 0.25520 0.72261
 H2637 H 0.11746 0.29196 0.66373
 H2638 H 0.07545 0.28955 0.64350
 H2639 H 0.07877 0.21533 0.64551
 H2640 H 0.12076 0.21777 0.66570
 C2641 C 0.93602 0.24703 0.66315
 C2642 C 0.91883 0.26867 0.65693
 C2643 C 0.89620 0.26698 0.66773
 C2644 C 0.89293 0.24381 0.68372
 C2645 C 0.91436 0.24461 0.70228
 C2646 C 0.93704 0.24630 0.69145
 C2647 C 0.92156 0.22380 0.65572
 C2648 C 0.89891 0.22211 0.66653
 C2649 C 0.96016 0.24879 0.65102
 C2650 C 0.97939 0.24979 0.63984
 C2651 C 0.86842 0.24223 0.69515
 C2652 C 0.84812 0.24168 0.70428
 H2653 H 0.92400 0.28401 0.64510
 H2654 H 0.88198 0.28088 0.66514
 H2655 H 0.91193 0.24388 0.72216
 H2656 H 0.95404 0.24704 0.70204
 H2657 H 0.92853 0.20987 0.64311
 H2658 H 0.88649 0.20675 0.66319
 C2659 C 0.43437 0.74699 0.16406
 C2660 C 0.41717 0.76868 0.15804
 C2661 C 0.39467 0.76705 0.16910
 C2662 C 0.39153 0.74388 0.18512
 C2663 C 0.41317 0.74463 0.20345
 C2664 C 0.43572 0.74627 0.19235
 C2665 C 0.41977 0.72380 0.15680
 C2666 C 0.39725 0.72217 0.16787
 C2667 C 0.45837 0.74870 0.15167
 C2668 C 0.47750 0.74971 0.14034
 C2669 C 0.36714 0.74238 0.19680
 C2670 C 0.34691 0.74191 0.20605
 H2671 H 0.42225 0.78401 0.14616
 H2672 H 0.38046 0.78099 0.16668
 H2673 H 0.41096 0.74391 0.22335
 H2674 H 0.45285 0.74696 0.20274
 H2675 H 0.42657 0.70985 0.14411
 H2676 H 0.38475 0.70684 0.16467
 C2677 C 0.43403 0.25377 0.33691
 C2678 C 0.43487 0.25471 0.30861
 C2679 C 0.41210 0.25622 0.29794
 C2680 C 0.39078 0.25665 0.31666
 C2681 C 0.39661 0.27829 0.33396
 C2682 C 0.41934 0.27678 0.34461
 C2683 C 0.41716 0.23189 0.34309
 C2684 C 0.39444 0.23340 0.33245
 C2685 C 0.45826 0.25219 0.34886
 C2686 C 0.47755 0.25129 0.35993
 C2687 C 0.36620 0.25802 0.30539
 C2688 C 0.34588 0.25840 0.29633
 H2689 H 0.45181 0.25426 0.29791
 H2690 H 0.40953 0.25707 0.27809
 H2691 H 0.38401 0.29348 0.33750
 H2692 H 0.42623 0.29070 0.35727
 H2693 H 0.42259 0.21653 0.35478
 H2694 H 0.38040 0.21933 0.33504
 C2695 C 0.93228 0.75386 0.83612
 C2696 C 0.93361 0.75463 0.80783
 C2697 C 0.91103 0.75614 0.79676
 C2698 C 0.88940 0.75674 0.81510
 C2699 C 0.89499 0.77846 0.83237
 C2700 C 0.91753 0.77695 0.84343
 C2701 C 0.91524 0.73206 0.84214
 C2702 C 0.89271 0.73357 0.83109
 C2703 C 0.95630 0.75226 0.84849
 C2704 C 0.97545 0.75128 0.85980
 C2705 C 0.86500 0.75811 0.80343
 C2706 C 0.84478 0.75851 0.79417
 H2707 H 0.95073 0.75405 0.79743
 H2708 H 0.90881 0.75686 0.77686
 H2709 H 0.88238 0.79371 0.83561
 H2710 H 0.92423 0.79093 0.85613
 H2711 H 0.92042 0.71675 0.85400
 H2712 H 0.87860 0.71955 0.83351
   
