data_POSCAR
  _audit_creation_date              2014-09-24
  _audit_creation_method            'ToBaCCo'
  _symmetry_space_group_name_H-M    'P1'
  _symmetry_Int_Tables_number       1
  _symmetry_cell_setting            triclinic
  loop_
  _symmetry_equiv_pos_as_xyz
 x,y,z
_cell_length_a 38.4387
_cell_length_b 40.0441
_cell_length_c 47.5316
_cell_angle_alpha 90.158200
_cell_angle_beta 89.862100
_cell_angle_gamma 90.009600
loop_
  _atom_site_label
  _atom_site_type_symbol
  _atom_site_fract_x
  _atom_site_fract_y
  _atom_site_fract_z
Zr1 Zr 0.24464 0.24685 0.29858
 O2 O 0.26804 0.27014 0.33390
 O3 O 0.21026 0.21385 0.31897
 O4 O 0.21112 0.27894 0.32155
 O5 O 0.31231 0.19072 0.28797
 O6 O 0.18794 0.31330 0.28831
 O7 O 0.27876 0.21598 0.32147
 O8 O 0.17997 0.19025 0.28290
 O9 O 0.20038 0.25061 0.27319
 O10 O 0.24548 0.20457 0.27259
 O11 O 0.25036 0.29212 0.27675
 O12 O 0.29266 0.24789 0.27685
 Zr13 Zr 0.25384 0.25510 0.20074
 Zr14 Zr 0.20733 0.29459 0.24982
 Zr15 Zr 0.29141 0.20688 0.24922
 Zr16 Zr 0.20269 0.20934 0.24619
 O17 O 0.34641 0.20828 0.24741
 O18 O 0.14862 0.21964 0.24422
 O19 O 0.24848 0.20917 0.22210
 O20 O 0.20633 0.25320 0.22280
 O21 O 0.25361 0.29753 0.22653
 O22 O 0.29774 0.25085 0.22635
 C23 C 0.18703 0.19382 0.30912
 C24 C 0.30422 0.19707 0.31382
 C25 C 0.19266 0.30430 0.31404
 O26 O 0.15237 0.29245 0.24850
 O27 O 0.18977 0.31479 0.21133
 O28 O 0.22251 0.28865 0.17784
 C29 C 0.19817 0.30888 0.18549
 O30 O 0.31723 0.30609 0.29297
 Zr31 Zr 0.29628 0.29181 0.25336
 O32 O 0.28872 0.28805 0.18064
 O33 O 0.21443 0.34694 0.25126
 O34 O 0.29077 0.34440 0.25659
 O35 O 0.35061 0.28258 0.25381
 O36 O 0.31724 0.31300 0.21703
 C37 C 0.31118 0.30871 0.19078
 O38 O 0.22845 0.23336 0.16562
 O39 O 0.28546 0.15435 0.25064
 O40 O 0.28506 0.22173 0.17736
 O41 O 0.30608 0.18551 0.21015
 O42 O 0.20774 0.15661 0.24480
 O43 O 0.18470 0.19068 0.20691
 C44 C 0.30167 0.19513 0.18449
 H45 H 0.24494 0.18342 0.28331
 H46 H 0.18615 0.25376 0.20993
 H47 H 0.31965 0.25012 0.21537
 H48 H 0.25139 0.31141 0.28978
 H49 H 0.13606 0.19837 0.24746
 H50 H 0.14393 0.31582 0.24926
 H51 H 0.19095 0.35710 0.25048
 H52 H 0.31408 0.35445 0.25378
 H53 H 0.18433 0.14689 0.24787
 H54 H 0.30918 0.14474 0.25134
 H55 H 0.35443 0.18479 0.24645
 H56 H 0.36258 0.30431 0.25131
 H57 H 0.16420 0.17615 0.21002
 H58 H 0.23914 0.24270 0.14830
 H59 H 0.25767 0.26020 0.35112
 H60 H 0.33439 0.32424 0.29026
 Zr61 Zr 0.75638 0.75800 0.30099
 O62 O 0.73413 0.73398 0.33643
 O63 O 0.78925 0.79266 0.32125
 O64 O 0.79100 0.72697 0.32370
 O65 O 0.68505 0.80990 0.29087
 O66 O 0.81626 0.69419 0.29007
 O67 O 0.72092 0.78768 0.32410
 O68 O 0.81788 0.81768 0.28497
 O69 O 0.80076 0.75646 0.27532
 O70 O 0.75313 0.80006 0.27512
 O71 O 0.75307 0.71255 0.27880
 O72 O 0.70845 0.75426 0.27948
 Zr73 Zr 0.74751 0.74932 0.20290
 Zr74 Zr 0.79622 0.71223 0.25172
 Zr75 Zr 0.70730 0.79524 0.25208
 Zr76 Zr 0.79606 0.79746 0.24843
 O77 O 0.65246 0.79088 0.25035
 O78 O 0.85061 0.78993 0.24600
 O79 O 0.75024 0.79529 0.22471
 O80 O 0.79488 0.75353 0.22478
 O81 O 0.75016 0.70697 0.22855
 O82 O 0.70342 0.75122 0.22873
 C83 C 0.81130 0.81381 0.31123
 C84 C 0.69400 0.80467 0.31663
 C85 C 0.81064 0.70245 0.31592
 O86 O 0.85096 0.71738 0.25045
 O87 O 0.81507 0.69302 0.21309
 O88 O 0.77996 0.71645 0.17994
 C89 C 0.80564 0.69776 0.18737
 O90 O 0.68704 0.69452 0.29499
 Zr91 Zr 0.70724 0.71038 0.25554
 O92 O 0.71382 0.71532 0.18267
 O93 O 0.79215 0.65957 0.25271
 O94 O 0.71577 0.65815 0.25837
 O95 O 0.65251 0.71706 0.25628
 O96 O 0.68763 0.68822 0.21911
 C97 C 0.69284 0.69329 0.19282
 O98 O 0.77218 0.77144 0.16763
 O99 O 0.71019 0.84800 0.25395
 O100 O 0.71594 0.78270 0.17988
 O101 O 0.69134 0.81600 0.21344
 O102 O 0.78820 0.84988 0.24737
 O103 O 0.81258 0.81708 0.20908
 C104 C 0.69738 0.80798 0.18759
 H105 H 0.75254 0.82123 0.28592
 H106 H 0.81502 0.75395 0.21178
 H107 H 0.68153 0.75100 0.21780
 H108 H 0.75297 0.69317 0.29166
 H109 H 0.86200 0.81182 0.24920
 H110 H 0.86075 0.69450 0.25105
 H111 H 0.81619 0.65067 0.25189
 H112 H 0.69310 0.64687 0.25546
 H113 H 0.81112 0.86074 0.25018
 H114 H 0.68594 0.85632 0.25487
 H115 H 0.64305 0.81389 0.24957
 H116 H 0.64166 0.69487 0.25337
 H117 H 0.83246 0.83241 0.21204
 H118 H 0.76176 0.76160 0.15039
 H119 H 0.74400 0.74454 0.35359
 H120 H 0.67059 0.67580 0.29203
 Zr121 Zr 0.76358 0.23701 -0.29998
 O122 O 0.74304 0.25591 -0.33813
 O123 O 0.80270 0.20542 -0.31661
 O124 O 0.79645 0.26987 -0.32258
 O125 O 0.69452 0.18212 -0.29038
 O126 O 0.81736 0.30606 -0.28959
 O127 O 0.73142 0.20392 -0.32318
 O128 O 0.82924 0.18466 -0.27764
 O129 O 0.80531 0.24358 -0.27224
 O130 O 0.76159 0.19637 -0.27245
 O131 O 0.75488 0.28348 -0.28027
 O132 O 0.71401 0.23857 -0.28070
 Zr133 Zr 0.74605 0.25123 -0.20301
 Zr134 Zr 0.79559 0.28888 -0.25131
 Zr135 Zr 0.71377 0.19932 -0.25155
 Zr136 Zr 0.80160 0.20405 -0.24365
 O137 O 0.65868 0.19905 -0.25166
 O138 O 0.85512 0.21497 -0.23779
 O139 O 0.75408 0.20424 -0.22220
 O140 O 0.79522 0.24927 -0.22253
 O141 O 0.74750 0.29207 -0.23045
 O142 O 0.70449 0.24436 -0.23068
 C143 C 0.82608 0.18758 -0.30432
 C144 C 0.70444 0.18671 -0.31598
 C145 C 0.81394 0.29599 -0.31526
 O146 O 0.85039 0.28774 -0.24751
 O147 O 0.80997 0.31155 -0.21277
 O148 O 0.77480 0.28705 -0.18010
 C149 C 0.79957 0.30704 -0.18720
 O150 O 0.68909 0.29516 -0.30026
 Zr151 Zr 0.70729 0.28367 -0.25920
 O152 O 0.70793 0.28361 -0.18632
 O153 O 0.78751 0.34093 -0.25490
 O154 O 0.71203 0.33610 -0.26426
 O155 O 0.65341 0.27279 -0.26215
 O156 O 0.68295 0.30669 -0.22505
 C157 C 0.68623 0.30347 -0.19839
 O158 O 0.76882 0.23363 -0.16524
 O159 O 0.72121 0.14694 -0.25170
 O160 O 0.71553 0.21684 -0.17992
 O161 O 0.69692 0.17937 -0.21278
 O162 O 0.79746 0.15129 -0.24146
 O163 O 0.81520 0.18794 -0.20253
 C164 C 0.70004 0.18955 -0.18714
 H165 H 0.76382 0.17480 -0.28253
 H166 H 0.81431 0.25101 -0.20867
 H167 H 0.68180 0.24356 -0.22080
 H168 H 0.75419 0.30198 -0.29401
 H169 H 0.86813 0.19363 -0.23882
 H170 H 0.85846 0.31121 -0.24855
 H171 H 0.81069 0.35162 -0.25339
 H172 H 0.68836 0.34583 -0.26312
 H173 H 0.82133 0.14199 -0.24246
 H174 H 0.69783 0.13670 -0.25321
 H175 H 0.65127 0.17540 -0.25041
 H176 H 0.64062 0.29424 -0.26093
 H177 H 0.83543 0.17269 -0.20362
 H178 H 0.75593 0.24372 -0.14918
 H179 H 0.75555 0.24488 -0.35396
 H180 H 0.67123 0.31292 -0.29906
 Zr181 Zr 0.24132 0.75500 -0.29858
 O182 O 0.26667 0.73279 -0.33361
 O183 O 0.20294 0.78330 -0.31912
 O184 O 0.21012 0.72074 -0.32107
 O185 O 0.30550 0.81471 -0.28923
 O186 O 0.18807 0.68611 -0.28745
 O187 O 0.27282 0.78784 -0.32214
 O188 O 0.17211 0.80643 -0.28321
 O189 O 0.19752 0.74941 -0.27282
 O190 O 0.23967 0.79786 -0.27337
 O191 O 0.24952 0.71039 -0.27635
 O192 O 0.28934 0.75682 -0.27717
 Zr193 Zr 0.25089 0.74906 -0.20095
 Zr194 Zr 0.20671 0.70618 -0.24919
 Zr195 Zr 0.28578 0.79826 -0.25014
 Zr196 Zr 0.19745 0.79131 -0.24649
 O197 O 0.34080 0.80000 -0.24909
 O198 O 0.14395 0.77912 -0.24256
 O199 O 0.24317 0.79437 -0.22269
 O200 O 0.20336 0.74799 -0.22272
 O201 O 0.25307 0.70615 -0.22611
 O202 O 0.29450 0.75503 -0.22678
 C203 C 0.17755 0.80108 -0.30952
 C204 C 0.29767 0.80782 -0.31504
 C205 C 0.19252 0.69495 -0.31328
 O206 O 0.15173 0.70557 -0.24751
 O207 O 0.19064 0.68579 -0.21028
 O208 O 0.22186 0.71423 -0.17744
 C209 C 0.19860 0.69258 -0.18449
 O210 O 0.31729 0.70008 -0.29272
 Zr211 Zr 0.29536 0.71353 -0.25318
 O212 O 0.28754 0.71857 -0.18051
 O213 O 0.21664 0.65424 -0.25016
 O214 O 0.29291 0.66071 -0.25619
 O215 O 0.34917 0.72527 -0.25344
 O216 O 0.31675 0.69358 -0.21658
 C217 C 0.31057 0.69828 -0.19036
 O218 O 0.22403 0.77009 -0.16613
 O219 O 0.27647 0.85029 -0.25177
 O220 O 0.27997 0.78432 -0.17804
 O221 O 0.30064 0.82017 -0.21132
 O222 O 0.19928 0.84424 -0.24735
 O223 O 0.18001 0.81046 -0.20715
 C224 C 0.29619 0.81101 -0.18551
 H225 H 0.23745 0.81851 -0.28464
 H226 H 0.18330 0.74662 -0.20968
 H227 H 0.31635 0.75700 -0.21591
 H228 H 0.25162 0.69098 -0.28917
 H229 H 0.13040 0.79983 -0.24570
 H230 H 0.14459 0.68179 -0.24783
 H231 H 0.19373 0.64295 -0.24914
 H232 H 0.31675 0.65195 -0.25331
 H233 H 0.17520 0.85237 -0.25022
 H234 H 0.29955 0.86123 -0.25284
 H235 H 0.34742 0.82390 -0.24860
 H236 H 0.36215 0.70415 -0.25068
 H237 H 0.15937 0.82481 -0.21009
 H238 H 0.23513 0.76172 -0.14867
 H239 H 0.25552 0.74145 -0.35095
 H240 H 0.33560 0.68303 -0.28991
 Zr241 Zr 1.24832 1.25378 0.79847
 O242 O 1.22494 1.22988 0.83349
 O243 O 1.28154 1.28771 0.81902
 O244 O 1.28244 1.22317 0.82188
 O245 O 1.17738 1.30580 0.78741
 O246 O 1.30947 1.19095 0.78878
 O247 O 1.21295 1.28408 0.82108
 O248 O 1.31067 1.31278 0.78304
 O249 O 1.29316 1.25225 0.77335
 O250 O 1.24558 1.29574 0.77248
 O251 O 1.24577 1.20814 0.77655
 O252 O 1.20078 1.24991 0.77652
 Zr253 Zr 1.24137 1.24449 0.70050
 Zr254 Zr 1.28942 1.20784 0.74998
 Zr255 Zr 1.20014 1.29070 0.74891
 Zr256 Zr 1.28894 1.29309 0.74627
 O257 O 1.14536 1.28621 0.74647
 O258 O 1.34355 1.28594 0.74393
 O259 O 1.24356 1.29063 0.72206
 O260 O 1.28837 1.24898 0.72284
 O261 O 1.24372 1.20236 0.72641
 O262 O 1.19679 1.24645 0.72576
 C263 C 1.30414 1.30844 0.80925
 C264 C 1.18614 1.30104 0.81327
 C265 C 1.30316 1.19933 0.81453
 O266 O 1.34416 1.21310 0.74896
 O267 O 1.30890 1.18837 0.71157
 O268 O 1.27429 1.21170 0.67803
 C269 C 1.29983 1.19305 0.68574
 O270 O 1.17945 1.19056 0.79225
 Zr271 Zr 1.20027 1.20583 0.75285
 O272 O 1.20888 1.20960 0.68007
 O273 O 1.28549 1.15520 0.75153
 O274 O 1.20863 1.15363 0.75628
 O275 O 1.14549 1.21221 0.75266
 O276 O 1.18164 1.18313 0.71636
 C277 C 1.18793 1.18753 0.69016
 O278 O 1.26651 1.26663 0.66544
 O279 O 1.20286 1.34347 0.75061
 O280 O 1.20995 1.27743 0.67690
 O281 O 1.18510 1.31127 0.70996
 O282 O 1.28106 1.34551 0.74549
 O283 O 1.30553 1.31279 0.70697
 C284 C 1.19154 1.30297 0.68423
 H285 H 1.24497 1.31691 0.78328
 H286 H 1.30870 1.24939 0.71004
 H287 H 1.17515 1.24599 0.71450
 H288 H 1.24564 1.18887 0.78953
 H289 H 1.35476 1.30791 0.74712
 H290 H 1.35402 1.19027 0.74991
 H291 H 1.30958 1.14641 0.75110
 H292 H 1.18598 1.14235 0.75331
 H293 H 1.30395 1.35632 0.74852
 H294 H 1.17858 1.35176 0.75107
 H295 H 1.13593 1.30920 0.74555
 H296 H 1.13485 1.18990 0.74990
 H297 H 1.32508 1.32848 0.71002
 H298 H 1.25652 1.25660 0.64811
 H299 H 1.23437 1.24038 0.85083
 H300 H 1.16295 1.17189 0.78932
 Zr301 Zr 0.74568 0.74786 0.79925
 O302 O 0.76989 0.77056 0.83448
 O303 O 0.71052 0.71548 0.81953
 O304 O 0.71268 0.77993 0.82264
 O305 O 0.81389 0.69254 0.78809
 O306 O 0.68912 0.81452 0.78974
 O307 O 0.77913 0.71591 0.82179
 O308 O 0.67957 0.69301 0.78331
 O309 O 0.70131 0.75188 0.77403
 O310 O 0.74621 0.70577 0.77309
 O311 O 0.75134 0.79330 0.77761
 O312 O 0.79356 0.74919 0.77732
 Zr313 Zr 0.75400 0.75663 0.70142
 Zr314 Zr 0.70805 0.79603 0.75099
 Zr315 Zr 0.79207 0.70833 0.74960
 Zr316 Zr 0.70334 0.71083 0.74679
 O317 O 0.84704 0.70968 0.74705
 O318 O 0.64923 0.72067 0.74393
 O319 O 0.74898 0.71063 0.72264
 O320 O 0.70670 0.75483 0.72373
 O321 O 0.75405 0.79896 0.72737
 O322 O 0.79820 0.75236 0.72669
 C323 C 0.68644 0.69652 0.80952
 C324 C 0.80518 0.69785 0.81395
 C325 C 0.69413 0.80533 0.81539
 O326 O 0.65308 0.79392 0.75013
 O327 O 0.69012 0.81639 0.71271
 O328 O 0.72221 0.79012 0.67886
 C329 C 0.69803 0.81038 0.68679
 O330 O 0.81879 0.80703 0.79326
 Zr331 Zr 0.79701 0.79319 0.75384
 O332 O 0.78818 0.78988 0.68115
 O333 O 0.71525 0.84837 0.75253
 O334 O 0.79169 0.84572 0.75788
 O335 O 0.85134 0.78391 0.75328
 O336 O 0.81669 0.81524 0.71733
 C337 C 0.81014 0.81110 0.69111
 O338 O 0.72844 0.73502 0.66632
 O339 O 0.78626 0.65580 0.75135
 O340 O 0.78501 0.72321 0.67782
 O341 O 0.80610 0.68690 0.71052
 O342 O 0.70803 0.65804 0.74627
 O343 O 0.68634 0.69198 0.70728
 C344 C 0.80149 0.69649 0.68491
 H345 H 0.74546 0.68463 0.78382
 H346 H 0.68639 0.75541 0.71099
 H347 H 0.81994 0.75176 0.71549
 H348 H 0.75256 0.81248 0.79074
 H349 H 0.63678 0.69926 0.74676
 H350 H 0.64467 0.81730 0.75098
 H351 H 0.69176 0.85855 0.75203
 H352 H 0.81495 0.85578 0.75483
 H353 H 0.68446 0.64858 0.74912
 H354 H 0.81001 0.64623 0.75175
 H355 H 0.85506 0.68618 0.74615
 H356 H 0.86321 0.80562 0.75045
 H357 H 0.66623 0.67690 0.71015
 H358 H 0.73901 0.74450 0.64900
 H359 H 0.75958 0.76063 0.85172
 H360 H 0.83641 0.82475 0.79039
 Zr361 Zr 1.25932 0.74256 0.19973
 O362 O 1.23828 0.76254 0.16215
 O363 O 1.29779 0.71072 0.18279
 O364 O 1.29295 0.77461 0.17717
 O365 O 1.18936 0.68887 0.20858
 O366 O 1.31463 0.81026 0.21024
 O367 O 1.22772 0.70944 0.17628
 O368 O 1.32411 0.68900 0.22148
 O369 O 1.30128 0.74793 0.22739
 O370 O 1.25647 0.70170 0.22694
 O371 O 1.25183 0.78903 0.21966
 O372 O 1.20974 0.74495 0.21887
 Zr373 Zr 1.24235 0.75613 0.29669
 Zr374 Zr 1.29271 0.79323 0.24856
 Zr375 Zr 1.20866 0.70542 0.24772
 Zr376 Zr 1.29671 0.70821 0.25570
 O377 O 1.15359 0.70650 0.24758
 O378 O 1.35044 0.71783 0.26188
 O379 O 1.24916 0.70920 0.27709
 O380 O 1.29144 0.75335 0.27710
 O381 O 1.24474 0.79721 0.26952
 O382 O 1.20058 0.75045 0.26898
 C383 C 1.32096 0.69244 0.19485
 C384 C 1.20028 0.69277 0.18312
 C385 C 1.31093 0.80036 0.18453
 O386 O 1.34747 0.79089 0.25220
 O387 O 1.30772 0.81519 0.28718
 O388 O 1.27214 0.79108 0.31978
 C389 C 1.29739 0.81059 0.31274
 O390 O 1.18607 0.80185 0.19978
 Zr391 Zr 1.20432 0.78998 0.24075
 O392 O 1.20476 0.78885 0.31375
 O393 O 1.28583 0.84549 0.24542
 O394 O 1.21018 0.84229 0.23552
 O395 O 1.15006 0.78072 0.23840
 O396 O 1.18147 0.81374 0.27513
 C397 C 1.18411 0.80976 0.30175
 O398 O 1.26468 0.73779 0.33437
 O399 O 1.21475 0.65289 0.24726
 O400 O 1.21134 0.72187 0.31952
 O401 O 1.19135 0.68543 0.28636
 O402 O 1.29165 0.65549 0.25722
 O403 O 1.30957 0.69128 0.29674
 C404 C 1.19506 0.69508 0.31210
 H405 H 1.25832 0.68018 0.21673
 H406 H 1.31058 0.75452 0.29094
 H407 H 1.17790 0.75009 0.27890
 H408 H 1.25152 0.80763 0.20601
 H409 H 1.36291 0.69621 0.26067
 H410 H 1.35608 0.81419 0.25120
 H411 H 1.30928 0.85564 0.24678
 H412 H 1.18674 0.85251 0.23675
 H413 H 1.31537 0.64586 0.25617
 H414 H 1.19112 0.64322 0.24561
 H415 H 1.14559 0.68300 0.24845
 H416 H 1.13802 0.80255 0.23978
 H417 H 1.32947 0.67563 0.29561
 H418 H 1.25201 0.74804 0.35047
 H419 H 1.25036 0.75177 0.14600
 H420 H 1.16844 0.81981 0.20107
 Zr421 Zr 0.74438 1.25089 0.20424
 O422 O 0.76921 1.22839 0.16910
 O423 O 0.70698 1.28044 0.18397
 O424 O 0.71242 1.21731 0.18177
 O425 O 0.80837 1.31091 0.21365
 O426 O 0.69083 1.18217 0.21522
 O427 O 0.77619 1.28346 0.18062
 O428 O 0.67561 1.30308 0.21997
 O429 O 0.70057 1.24520 0.23003
 O430 O 0.74275 1.29359 0.22965
 O431 O 0.75249 1.20614 0.22626
 O432 O 0.79246 1.25262 0.22552
 Zr433 Zr 0.75441 1.24463 0.30169
 Zr434 Zr 0.70979 1.20185 0.25355
 Zr435 Zr 0.78894 1.29401 0.25264
 Zr436 Zr 0.70053 1.28691 0.25657
 O437 O 0.84397 1.29569 0.25355
 O438 O 0.64711 1.27423 0.26002
 O439 O 0.74642 1.28999 0.28016
 O440 O 0.70667 1.24352 0.28021
 O441 O 0.75633 1.20174 0.27648
 O442 O 0.79784 1.25069 0.27572
 C443 C 0.68209 1.29863 0.19374
 C444 C 0.80055 1.30383 0.18793
 C445 C 0.69486 1.19146 0.18945
 O446 O 0.65481 1.20130 0.25548
 O447 O 0.69383 1.18132 0.29249
 O448 O 0.72693 1.20867 0.32497
 C449 C 0.70332 1.18743 0.31802
 O450 O 0.82002 1.19559 0.20967
 Zr451 Zr 0.79844 1.20915 0.24931
 O452 O 0.79229 1.21563 0.32210
 O453 O 0.71959 1.14990 0.25229
 O454 O 0.79563 1.15634 0.24656
 O455 O 0.85235 1.22045 0.24861
 O456 O 0.82023 1.18954 0.28591
 C457 C 0.81525 1.19536 0.31215
 O458 O 0.72702 1.26488 0.33655
 O459 O 0.77965 1.34607 0.25116
 O460 O 0.78291 1.28020 0.32471
 O461 O 0.80364 1.31599 0.29144
 O462 O 0.70226 1.33986 0.25647
 O463 O 0.68281 1.30551 0.29601
 C464 C 0.79903 1.30693 0.31725
 H465 H 0.74067 1.31440 0.21858
 H466 H 0.68679 1.24199 0.29341
 H467 H 0.81978 1.25283 0.28643
 H468 H 0.75442 1.18681 0.21333
 H469 H 0.63343 1.29486 0.25692
 H470 H 0.64763 1.17754 0.25501
 H471 H 0.69665 1.13867 0.25330
 H472 H 0.81943 1.14748 0.24944
 H473 H 0.67815 1.34804 0.25384
 H474 H 0.80273 1.35703 0.25019
 H475 H 0.85060 1.31959 0.25422
 H476 H 0.86517 1.19922 0.25125
 H477 H 0.66173 1.31930 0.29316
 H478 H 0.73828 1.25657 0.35398
 H479 H 0.75815 1.23730 0.15180
 H480 H 0.83782 1.17803 0.21234
 O481 O 0.54693 1.06538 0.04716
 O482 O 0.58663 1.03069 0.02559
 C483 C 0.57839 1.05513 0.04251
 O484 O 0.44935 0.94646 0.05302
 O485 O 0.41075 0.97427 0.02450
 C486 C 0.41817 0.95357 0.04480
 O487 O 0.54471 0.94949 0.05737
 O488 O 0.58574 0.97374 0.02867
 C489 C 0.57662 0.95559 0.05021
 O490 O 0.45148 1.06958 0.04257
 O491 O 0.41184 1.03484 0.02119
 C492 C 0.41994 1.06017 0.03719
 Zr493 Zr 0.49920 1.04688 0.03231
 O494 O 0.49713 1.04519 0.07673
 O495 O 0.50027 1.09970 0.03260
 Zr496 Zr 0.49767 0.96402 0.03868
 O497 O 0.49499 0.97328 0.08246
 O498 O 0.49975 0.91159 0.04395
 O499 O 0.52978 1.00561 0.04142
 O500 O 0.46729 1.00646 0.04007
 O501 O 0.45405 1.05679 -0.05457
 O502 O 0.41296 1.03071 -0.02708
 C503 C 0.42216 1.05057 -0.04750
 O504 O 0.54762 0.93654 -0.04521
 O505 O 0.58716 0.96985 -0.02217
 C506 C 0.57909 0.94575 -0.03944
 O507 O 0.45193 0.93729 -0.04636
 O508 O 0.41204 0.97104 -0.02400
 C509 C 0.42043 0.94734 -0.04160
 O510 O 0.54954 1.05144 -0.05564
 O511 O 0.58815 1.02641 -0.02548
 C512 C 0.58078 1.04451 -0.04744
 Zr513 Zr 0.50115 1.03930 -0.03785
 O514 O 0.49866 1.03673 -0.08228
 O515 O 0.50562 1.09197 -0.03979
 Zr516 Zr 0.49958 0.95574 -0.03136
 O517 O 0.49839 0.94835 -0.07548
 O518 O 0.49882 0.90388 -0.02328
 Zr519 Zr 0.55230 1.00072 0.00110
 Zr520 Zr 0.44647 1.00225 -0.00064
 O521 O 0.47021 0.99750 -0.04043
 O522 O 0.53164 0.99639 -0.03982
 O523 O 0.46899 1.05019 -0.00385
 O524 O 0.52927 0.95326 0.00463
 O525 O 0.53104 1.04888 -0.00280
 O526 O 0.46705 0.95373 0.00353
 H527 H 0.45110 1.00841 0.05625
 H528 H 0.54443 0.93337 0.00648
 H529 H 0.45579 0.99624 -0.05765
 H530 H 0.54724 1.06804 -0.00423
 H531 H 0.48478 0.90158 0.02927
 H532 H 0.49951 0.89270 -0.04190
 H533 H 0.51668 0.96259 -0.08385
 H534 H 0.51366 1.01800 -0.08833
 H535 H 0.48491 1.10163 -0.03039
 H536 H 0.50984 1.10694 0.01431
 H537 H 0.49602 1.06872 0.08316
 H538 H 0.49414 0.95112 0.09169
 O539 O 1.04777 0.56404 0.54760
 O540 O 1.08689 0.53079 0.52381
 C541 C 1.07911 0.55447 0.54161
 O542 O 0.95122 0.44416 0.55254
 O543 O 0.91137 0.47294 0.52591
 C544 C 0.91969 0.45141 0.54535
 O545 O 1.04664 0.44793 0.55459
 O546 O 1.08637 0.47367 0.52558
 C547 C 1.07817 0.45461 0.54681
 O548 O 0.95203 0.56806 0.54512
 O549 O 0.91182 0.53363 0.52409
 C550 C 0.92035 0.55877 0.54012
 Zr551 Zr 0.99955 0.54578 0.53359
 O552 O 0.99912 0.54217 0.57794
 O553 O 1.00009 0.59858 0.53570
 Zr554 Zr 0.99880 0.46284 0.53754
 O555 O 0.99770 0.47044 0.58158
 O556 O 1.00145 0.41026 0.54132
 O557 O 1.03080 0.50446 0.54062
 O558 O 0.96815 0.50493 0.54095
 O559 O 0.95093 0.56112 0.44992
 O560 O 0.91114 0.53147 0.47607
 C561 C 0.91942 0.55389 0.45738
 O562 O 1.04544 0.43864 0.45182
 O563 O 1.08569 0.47053 0.47544
 C564 C 1.07709 0.44719 0.45760
 O565 O 0.94979 0.43911 0.45315
 O566 O 0.91068 0.47176 0.47747
 C567 C 0.91846 0.44860 0.45922
 O568 O 1.04632 0.55480 0.44465
 O569 O 1.08629 0.52841 0.47276
 C570 C 1.07791 0.54750 0.45165
 Zr571 Zr 0.99876 0.54114 0.46310
 O572 O 0.99346 0.53856 0.41880
 O573 O 1.00340 0.59379 0.46127
 Zr574 Zr 0.99795 0.45745 0.46718
 O575 O 0.99500 0.45261 0.42287
 O576 O 0.99783 0.40520 0.47337
 Zr577 Zr 1.05172 0.50144 0.49959
 Zr578 Zr 0.94589 0.50221 0.50067
 O579 O 0.96783 0.49936 0.46012
 O580 O 1.02956 0.49858 0.45910
 O581 O 0.96809 0.55033 0.49832
 O582 O 1.02899 0.45374 0.50237
 O583 O 1.02989 0.54951 0.49767
 O584 O 0.96694 0.45372 0.50287
 H585 H 0.95250 0.50619 0.55753
 H586 H 1.04417 0.43378 0.50341
 H587 H 0.95236 0.49896 0.44348
 H588 H 1.04585 0.56887 0.49634
 H589 H 0.98661 0.40072 0.52634
 H590 H 0.99758 0.39496 0.45436
 H591 H 1.01354 0.46668 0.41464
 H592 H 1.01113 0.52269 0.41169
 H593 H 0.98587 0.60333 0.47429
 H594 H 1.01116 0.60683 0.51827
 H595 H 0.99784 0.56540 0.58508
 H596 H 0.99743 0.44794 0.59022
 O597 O 1.05599 0.45549 0.05318
 O598 O 1.02547 0.41728 0.02677
 C599 C 1.04699 0.42525 0.04688
 O600 O 0.93452 0.55049 0.04797
 O601 O 0.96972 0.58685 0.02360
 C602 C 0.94465 0.58027 0.04130
 O603 O 0.93760 0.45878 0.05419
 O604 O 0.96599 0.41881 0.02796
 C605 C 0.94515 0.42802 0.04822
 O606 O 1.06529 0.54650 0.04623
 O607 O 1.03201 0.58500 0.02271
 C608 C 1.05716 0.57688 0.03972
 Zr609 Zr 1.04128 0.50114 0.03530
 O610 O 1.03631 0.50510 0.07950
 O611 O 1.09590 0.49554 0.03777
 Zr612 Zr 0.95449 0.50369 0.03600
 O613 O 0.95943 0.50714 0.08022
 O614 O 0.89950 0.50178 0.03783
 O615 O 0.99698 0.47250 0.04162
 O616 O 0.99899 0.53228 0.04024
 O617 O 1.06059 0.54349 -0.05151
 O618 O 1.03091 0.58353 -0.02632
 C619 C 1.05312 0.57423 -0.04556
 O620 O 0.93778 0.45616 -0.05195
 O621 O 0.96436 0.41770 -0.02339
 C622 C 0.94437 0.42581 -0.04442
 O623 O 0.93417 0.54789 -0.04808
 O624 O 0.96984 0.58554 -0.02565
 C625 C 0.94453 0.57802 -0.04270
 O626 O 1.05691 0.45158 -0.04997
 O627 O 1.02331 0.41543 -0.02399
 C628 C 1.04668 0.42188 -0.04309
 Zr629 Zr 1.04089 0.49870 -0.03509
 O630 O 1.04115 0.49979 -0.07965
 O631 O 1.09581 0.49422 -0.03405
 Zr632 Zr 0.95332 0.50166 -0.03406
 O633 O 0.94813 0.50423 -0.07827
 O634 O 0.89869 0.50059 -0.02902
 Zr635 Zr 0.99581 0.45052 0.00128
 Zr636 Zr 0.99944 0.55207 -0.00066
 O637 O 0.99795 0.52908 -0.04054
 O638 O 0.99607 0.47028 -0.03980
 O639 O 1.04918 0.52978 -0.00068
 O640 O 0.94642 0.47309 0.00153
 O641 O 1.04654 0.47029 0.00071
 O642 O 0.94824 0.53310 0.00039
 H643 H 0.99979 0.54799 0.05638
 H644 H 0.92568 0.45838 0.00201
 H645 H 0.99774 0.54300 -0.05774
 H646 H 1.06664 0.45480 0.00107
 H647 H 0.89066 0.51589 0.02236
 H648 H 0.88882 0.49999 -0.04825
 H649 H 0.97033 0.49628 -0.08636
 H650 H 1.02665 0.48101 -0.08643
 H651 H 1.10541 0.51521 -0.02624
 H652 H 1.10589 0.50672 0.02110
 H653 H 1.06031 0.50537 0.08706
 H654 H 0.93544 0.50837 0.08783
 O655 O 0.44159 0.95445 0.44608
 O656 O 0.46745 0.91629 0.47543
 C657 C 0.44809 0.92419 0.45395
 O658 O 0.56849 1.04333 0.45690
 O659 O 0.53299 1.08277 0.47748
 C660 C 0.55936 1.07391 0.46191
 O661 O 0.56276 0.95147 0.45463
 O662 O 0.52683 0.91491 0.47808
 C663 C 0.55198 0.92165 0.46054
 O664 O 0.44112 1.04611 0.44676
 O665 O 0.47143 1.08420 0.47344
 C666 C 0.44984 1.07635 0.45339
 Zr667 Zr 0.45816 1.00025 0.46287
 O668 O 0.46840 0.99941 0.41914
 O669 O 0.40362 1.00268 0.45684
 Zr670 Zr 0.54466 0.99816 0.46866
 O671 O 0.54430 0.99850 0.42418
 O672 O 0.59950 0.99437 0.47050
 O673 O 0.50114 0.96890 0.46075
 O674 O 0.50278 1.02870 0.46027
 O675 O 0.42984 1.04863 0.54471
 O676 O 0.46673 1.08539 0.52263
 C677 C 0.44041 1.07852 0.53897
 O678 O 0.55057 0.95442 0.55739
 O679 O 0.52312 0.91612 0.52900
 C680 C 0.54273 0.92414 0.55030
 O681 O 0.55956 1.04600 0.55146
 O682 O 0.52922 1.08426 0.52518
 C683 C 0.55255 1.07626 0.54382
 O684 O 0.43349 0.95718 0.55099
 O685 O 0.46448 0.91745 0.52654
 C686 C 0.44204 0.92652 0.54567
 Zr687 Zr 0.45057 1.00214 0.53301
 O688 O 0.44339 1.00774 0.57691
 O689 O 0.39603 0.99901 0.52732
 Zr690 Zr 0.53777 1.00027 0.53872
 O691 O 0.53479 1.00606 0.58298
 O692 O 0.59261 0.99624 0.53970
 Zr693 Zr 0.49636 0.94945 0.50174
 Zr694 Zr 0.49896 1.05093 0.50032
 O695 O 0.49445 1.03061 0.54089
 O696 O 0.49289 0.97161 0.54202
 O697 O 0.44820 1.03145 0.49705
 O698 O 0.54680 0.96951 0.50461
 O699 O 0.44707 0.97170 0.49810
 O700 O 0.54867 1.02905 0.50366
 H701 H 0.50516 1.04316 0.44349
 H702 H 0.56688 0.95410 0.50615
 H703 H 0.49352 1.04599 0.55725
 H704 H 0.42667 0.95661 0.49754
 H705 H 0.60693 1.00623 0.48775
 H706 H 0.59934 0.99662 0.55982
 H707 H 0.51897 0.98862 0.59028
 H708 H 0.46149 0.99424 0.58623
 H709 H 0.38929 1.01680 0.51397
 H710 H 0.39249 0.98633 0.46953
 H711 H 0.44549 1.00073 0.40968
 H712 H 0.56902 0.99863 0.41822
 O713 O 1.08307 1.03240 0.45917
 O714 O 1.03945 1.01906 0.42821
 C715 C 1.07006 1.03086 0.43407
 O716 O 1.03566 0.91689 0.53278
 O717 O 1.02202 0.95555 0.56681
 C718 C 1.03305 0.92634 0.55880
 O719 O 1.03753 0.92430 0.45516
 O720 O 1.01869 0.96648 0.42630
 C721 C 1.03269 0.93745 0.43061
 O722 O 1.08414 1.03204 0.53689
 O723 O 1.04465 1.01149 0.56869
 C724 C 1.07344 1.02675 0.56235
 Zr725 Zr 1.06071 1.02047 0.49828
 O726 O 1.10842 0.99432 0.49646
 O727 O 1.08716 1.06676 0.49879
 Zr728 Zr 1.02753 0.94365 0.49541
 O729 O 1.07993 0.92770 0.49438
 O730 O 1.00869 0.89425 0.49128
 O731 O 1.04922 0.98149 0.47118
 O732 O 1.05110 0.97813 0.52153
 O733 O 0.97390 1.07335 0.54290
 O734 O 0.99048 1.03040 0.57177
 C735 C 0.97859 1.06030 0.56749
 O736 O 0.92034 0.97005 0.46073
 O737 O 0.96168 0.98679 0.42888
 C738 C 0.93140 0.97459 0.43528
 O739 O 0.92521 0.96077 0.53791
 O740 O 0.96800 0.97557 0.56915
 C741 C 0.93795 0.96266 0.56303
 O742 O 0.96646 1.07767 0.46536
 O743 O 0.98237 1.03998 0.43124
 C744 C 0.96906 1.06818 0.43940
 Zr745 Zr 0.97975 1.05269 0.50252
 O746 O 0.92891 1.07197 0.50826
 O747 O 1.00029 1.10176 0.50183
 Zr748 Zr 0.94659 0.97518 0.49924
 O749 O 0.89546 0.99391 0.50447
 O750 O 0.92871 0.92540 0.49586
 Zr751 Zr 1.00168 1.00123 0.45673
 Zr752 Zr 1.00529 0.99517 0.54097
 O753 O 0.95813 1.01449 0.52570
 O754 O 0.95558 1.01829 0.47605
 O755 O 1.02390 1.04112 0.52549
 O756 O 0.98365 0.95539 0.47258
 O757 O 1.02161 1.04430 0.47627
 O758 O 0.98543 0.95156 0.52212
 H759 H 1.07037 0.97021 0.53363
 H760 H 0.97560 0.93777 0.45943
 H761 H 0.93960 1.02084 0.53921
 H762 H 1.02860 1.06363 0.46458
 H763 H 0.98641 0.89325 0.50172
 H764 H 0.90296 0.92646 0.49666
 H765 H 0.89218 1.01193 0.49055
 H766 H 0.91462 1.06445 0.49217
 H767 H 1.01831 1.10316 0.51663
 H768 H 1.06920 1.08432 0.49753
 H769 H 1.12687 1.01153 0.49771
 H770 H 1.07924 0.90298 0.49349
 O771 O 0.42658 0.45249 -0.03664
 O772 O 0.46235 0.47501 -0.07042
 C773 C 0.43509 0.45824 -0.06256
 O774 O 0.45725 0.56955 0.03904
 O775 O 0.48369 0.53345 0.06973
 C776 C 0.46585 0.56013 0.06411
 O777 O 0.44355 0.56346 -0.03777
 O778 O 0.46982 0.53006 -0.07095
 C779 C 0.44835 0.55348 -0.06338
 O780 O 0.43465 0.44948 0.04049
 O781 O 0.47318 0.47536 0.07036
 C782 C 0.44620 0.45672 0.06529
 Zr783 Zr 0.45266 0.46402 0.00087
 O784 O 0.39819 0.46941 0.00530
 O785 O 0.44910 0.41137 0.00014
 Zr786 Zr 0.46577 0.54694 -0.00024
 O787 O 0.41145 0.55276 0.00499
 O788 O 0.47310 0.59909 -0.00433
 O789 O 0.45059 0.50616 -0.02431
 O790 O 0.45463 0.50686 0.02524
 O791 O 0.55684 0.43214 0.03464
 O792 O 0.53259 0.46711 0.06760
 C793 C 0.55198 0.44199 0.06026
 O794 O 0.57146 0.54534 -0.04468
 O795 O 0.53117 0.52185 -0.07437
 C796 C 0.55933 0.53873 -0.06944
 O797 O 0.57353 0.55196 0.03304
 O798 O 0.54058 0.52560 0.06663
 C799 C 0.56539 0.54569 0.05895
 O800 O 0.55601 0.43516 -0.04254
 O801 O 0.52420 0.46684 -0.07332
 C802 C 0.54709 0.44397 -0.06766
 Zr803 Zr 0.53819 0.45132 -0.00328
 O804 O 0.59118 0.43732 -0.00425
 O805 O 0.52479 0.40004 -0.00533
 Zr806 Zr 0.55156 0.53458 -0.00461
 O807 O 0.60631 0.52876 -0.00443
 O808 O 0.55585 0.58710 -0.00713
 Zr809 Zr 0.49904 0.49873 -0.04408
 Zr810 Zr 0.50536 0.49968 0.04045
 O811 O 0.55339 0.49241 0.02012
 O812 O 0.55008 0.49165 -0.02908
 O813 O 0.49627 0.45140 0.02436
 O814 O 0.50770 0.54663 -0.02736
 O815 O 0.49270 0.45121 -0.02612
 O816 O 0.51162 0.54744 0.02263
 H817 H 0.43530 0.51045 0.03875
 H818 H 0.50945 0.56576 -0.04048
 H819 H 0.57482 0.49015 0.03150
 H820 H 0.48900 0.43198 -0.03895
 H821 H 0.49390 0.60502 0.00685
 H822 H 0.58105 0.59204 -0.00863
 H823 H 0.61212 0.51110 -0.01827
 H824 H 0.60485 0.45816 -0.00311
 H825 H 0.51490 0.39364 0.01313
 H826 H 0.42394 0.40608 0.00086
 H827 H 0.39220 0.49160 -0.00239
 H828 H 0.40695 0.57713 0.00530
 C829 C 0.34007 1.13392 0.11692
 C830 C 0.33478 1.11981 0.14363
 C831 C 0.32294 1.13987 0.16583
 C832 C 0.31591 1.17389 0.16149
 C833 C 0.32140 1.18694 0.13441
 N834 N 0.33355 1.16706 0.11328
 C835 C 0.35547 1.11444 0.09335
 N836 N 0.37710 1.13033 0.07505
 C837 C 0.39530 1.11371 0.05484
 C838 C 0.39254 1.07888 0.05227
 C839 C 0.36875 1.06215 0.06963
 C840 C 0.35021 1.07983 0.09028
 H841 H 0.31895 1.12869 0.18631
 H842 H 0.31641 1.21302 0.13008
 H843 H 0.41353 1.12742 0.04186
 H844 H 0.36642 1.03521 0.06860
 H845 H 0.34063 1.09381 0.14761
 H846 H 0.33281 1.06641 0.10416
 C847 C 0.83943 0.63416 0.61806
 C848 C 0.83375 0.62044 0.64484
 C849 C 0.82193 0.64090 0.66674
 C850 C 0.81530 0.67491 0.66202
 C851 C 0.82100 0.68755 0.63485
 N852 N 0.83319 0.66728 0.61400
 C853 C 0.85522 0.61427 0.59497
 N854 N 0.87763 0.62972 0.57703
 C855 C 0.89631 0.61264 0.55741
 C856 C 0.89323 0.57781 0.55515
 C857 C 0.86872 0.56152 0.57212
 C858 C 0.84969 0.57966 0.59216
 H859 H 0.81774 0.63002 0.68730
 H860 H 0.81627 0.71362 0.63026
 H861 H 0.91500 0.62601 0.54462
 H862 H 0.86604 0.53460 0.57121
 H863 H 0.83938 0.59447 0.64912
 H864 H 0.83168 0.56662 0.60579
 C865 C 0.65740 0.87458 0.12455
 C866 C 0.67725 0.84671 0.11622
 C867 C 0.68987 0.82463 0.13665
 C868 C 0.68278 0.83005 0.16535
 C869 C 0.66277 0.85812 0.17266
 N870 N 0.65078 0.87910 0.15247
 C871 C 0.64115 0.89826 0.10432
 N872 N 0.61580 0.91883 0.11435
 C873 C 0.59715 0.93942 0.09754
 C874 C 0.60307 0.93997 0.06843
 C875 C 0.63029 0.92053 0.05751
 C876 C 0.64948 0.89961 0.07540
 H877 H 0.70525 0.80339 0.12994
 H878 H 0.65666 0.86357 0.19443
 H879 H 0.57644 0.95419 0.10677
 H880 H 0.63535 0.92009 0.03508
 H881 H 0.68261 0.84146 0.09433
 H882 H 0.66985 0.88431 0.06642
 C883 C 1.15537 0.37039 0.62028
 C884 C 1.17400 0.34157 0.61238
 C885 C 1.18519 0.31916 0.63309
 C886 C 1.17788 0.32514 0.66168
 C887 C 1.15903 0.35408 0.66857
 N888 N 1.14849 0.37542 0.64811
 C889 C 1.14102 0.39497 0.59980
 N890 N 1.11992 0.41941 0.61013
 C891 C 1.10260 0.44111 0.59336
 C892 C 1.10531 0.43870 0.56403
 C893 C 1.12830 0.41510 0.55262
 C894 C 1.14636 0.39320 0.57042
 H895 H 1.19981 0.29729 0.62671
 H896 H 1.15285 0.36003 0.69023
 H897 H 1.08492 0.45893 0.60290
 H898 H 1.13048 0.41214 0.53002
 H899 H 1.17988 0.33596 0.59066
 H900 H 1.16305 0.37458 0.56100
 C901 C 0.66173 1.12398 -0.12244
 C902 C 0.67765 1.15434 -0.11484
 C903 C 0.68967 1.17600 -0.13585
 C904 C 0.68586 1.16774 -0.16446
 C905 C 0.66971 1.13724 -0.17107
 N906 N 0.65822 1.11669 -0.15031
 C907 C 0.64617 1.10045 -0.10162
 N908 N 0.62408 1.07662 -0.11153
 C909 C 0.60579 1.05603 -0.09434
 C910 C 0.60856 1.05901 -0.06504
 C911 C 0.63259 1.08188 -0.05409
 C912 C 0.65160 1.10263 -0.07231
 H913 H 0.70201 1.19919 -0.12966
 H914 H 0.66626 1.12957 -0.19273
 H915 H 0.58739 1.03870 -0.10355
 H916 H 0.63497 1.08522 -0.03155
 H917 H 0.68038 1.16183 -0.09311
 H918 H 0.66933 1.12064 -0.06332
 C919 C 1.15677 0.62883 0.37632
 C920 C 1.17358 0.65865 0.38415
 C921 C 1.18550 0.68060 0.36331
 C922 C 1.18072 0.67315 0.33463
 C923 C 1.16362 0.64321 0.32780
 N924 N 1.15225 0.62237 0.34841
 C925 C 1.14150 0.60496 0.39702
 N926 N 1.11853 0.58189 0.38717
 C927 C 1.10066 0.56096 0.40436
 C928 C 1.10487 0.56270 0.43361
 C929 C 1.12976 0.58483 0.44443
 C930 C 1.14827 0.60599 0.42619
 H931 H 1.19859 0.70333 0.36968
 H932 H 1.15937 0.63617 0.30608
 H933 H 1.08158 0.54423 0.39526
 H934 H 1.13328 0.58721 0.46695
 H935 H 1.17713 0.66549 0.40596
 H936 H 1.16675 0.62335 0.43509
 C937 C 0.33682 0.87390 -0.11983
 C938 C 0.31780 0.84515 -0.11278
 C939 C 0.30465 0.82470 -0.13417
 C940 C 0.31030 0.83261 -0.16266
 C941 C 0.32917 0.86173 -0.16875
 N942 N 0.34190 0.88108 -0.14757
 C943 C 0.35423 0.89529 -0.09840
 N944 N 0.38061 0.91529 -0.10729
 C945 C 0.40016 0.93372 -0.08933
 C946 C 0.39402 0.93256 -0.06027
 C947 C 0.36603 0.91352 -0.05037
 C948 C 0.34594 0.89480 -0.06942
 H949 H 0.29024 0.80253 -0.12832
 H950 H 0.33414 0.86901 -0.19030
 H951 H 0.42151 0.94833 -0.09769
 H952 H 0.36075 0.91194 -0.02802
 H953 H 0.31382 0.83779 -0.09116
 H954 H 0.32474 0.87986 -0.06137
 C955 C 0.83700 0.37126 0.38293
 C956 C 0.82107 0.34078 0.38991
 C957 C 0.80892 0.31980 0.36851
 C958 C 0.81258 0.32883 0.34007
 C959 C 0.82853 0.35953 0.33403
 N960 N 0.84023 0.37945 0.35522
 C961 C 0.85300 0.39381 0.40427
 N962 N 0.87506 0.41789 0.39484
 C963 C 0.89367 0.43766 0.41246
 C964 C 0.89121 0.43352 0.44165
 C965 C 0.86749 0.41018 0.45223
 C966 C 0.84810 0.39033 0.43359
 H967 H 0.79682 0.29638 0.37431
 H968 H 0.83181 0.36773 0.31251
 H969 H 0.91190 0.45543 0.40363
 H970 H 0.86535 0.40611 0.47468
 H971 H 0.81856 0.33255 0.41144
 H972 H 0.83039 0.37209 0.44224
 C973 C 1.13148 0.34923 0.12161
 C974 C 1.16068 0.33020 0.11369
 C975 C 1.18314 0.31797 0.13441
 C976 C 1.17685 0.32466 0.16305
 C977 C 1.14779 0.34429 0.16996
 N978 N 1.12634 0.35579 0.14947
 C979 C 1.10671 0.36410 0.10107
 N980 N 1.08350 0.38691 0.11104
 C981 C 1.06172 0.40417 0.09402
 C982 C 1.06274 0.39945 0.06482
 C983 C 1.08493 0.37488 0.05387
 C984 C 1.10694 0.35699 0.07195
 H985 H 1.20516 0.30288 0.12799
 H986 H 1.14165 0.35006 0.19167
 H987 H 1.04498 0.42307 0.10319
 H988 H 1.08678 0.37101 0.03135
 H989 H 1.16655 0.32480 0.09192
 H990 H 1.12438 0.33871 0.06292
 C991 C 0.62905 0.84922 0.62400
 C992 C 0.65822 0.83042 0.61563
 C993 C 0.68152 0.81879 0.63597
 C994 C 0.67608 0.82587 0.66465
 C995 C 0.64706 0.84533 0.67199
 N996 N 0.62478 0.85624 0.65186
 C997 C 0.60342 0.86348 0.60388
 N998 N 0.58024 0.88614 0.61414
 C999 C 0.55789 0.90310 0.59741
 C1000 C 0.55835 0.89827 0.56821
 C1001 C 0.58033 0.87366 0.55705
 C1002 C 0.60290 0.85605 0.57483
 H1003 H 0.70347 0.80379 0.62924
 H1004 H 0.64156 0.85138 0.69375
 H1005 H 0.54127 0.92197 0.60675
 H1006 H 0.58172 0.86968 0.53452
 H1007 H 0.66341 0.82472 0.59380
 H1008 H 0.62025 0.83784 0.56560
 C1009 C 1.13713 0.65050 -0.12134
 C1010 C 1.16474 0.67171 -0.11393
 C1011 C 1.18616 0.68498 -0.13498
 C1012 C 1.18033 0.67737 -0.16365
 C1013 C 1.15302 0.65506 -0.16986
 N1014 N 1.13261 0.64268 -0.14899
 C1015 C 1.11328 0.63483 -0.10050
 N1016 N 1.09172 0.61041 -0.11007
 C1017 C 1.07045 0.59282 -0.09286
 C1018 C 1.07017 0.59897 -0.06384
 C1019 C 1.09071 0.62502 -0.05329
 C1020 C 1.11236 0.64314 -0.07160
 H1021 H 1.20689 0.70169 -0.12863
 H1022 H 1.14716 0.64787 -0.19131
 H1023 H 1.05479 0.57295 -0.10175
 H1024 H 1.09133 0.63017 -0.03091
 H1025 H 1.17013 0.67808 -0.09227
 H1026 H 1.12844 0.66273 -0.06294
 C1027 C 0.64485 1.14601 0.38614
 C1028 C 0.67829 1.15876 0.39115
 C1029 C 0.69791 1.17114 0.36874
 C1030 C 0.68448 1.17070 0.34128
 C1031 C 0.65110 1.15733 0.33713
 N1032 N 0.63233 1.14573 0.35936
 C1033 C 0.62307 1.13224 0.40908
 N1034 N 0.58774 1.13307 0.40666
 C1035 C 0.56632 1.11779 0.42550
 C1036 C 0.58043 1.09931 0.44768
 C1037 C 0.61661 1.09889 0.45108
 C1038 C 0.63802 1.11561 0.43205
 H1039 H 0.72337 1.18157 0.37300
 H1040 H 0.63947 1.15701 0.31642
 H1041 H 0.53851 1.11784 0.42188
 H1042 H 0.62832 1.08400 0.46753
 H1043 H 0.68893 1.15994 0.41218
 H1044 H 0.66594 1.11353 0.43429
 C1045 C 0.86877 0.65788 0.12069
 C1046 C 0.88240 0.66044 0.14800
 C1047 C 0.86145 0.67243 0.16988
 C1048 C 0.82698 0.68226 0.16470
 C1049 C 0.81429 0.67913 0.13710
 N1050 N 0.83505 0.66688 0.11621
 C1051 C 0.88933 0.64317 0.09722
 N1052 N 0.87252 0.62464 0.07742
 C1053 C 0.88986 0.60716 0.05722
 C1054 C 0.92636 0.60740 0.05626
 C1055 C 0.94422 0.62792 0.07526
 C1056 C 0.92582 0.64588 0.09579
 H1057 H 0.87246 0.67456 0.19076
 H1058 H 0.78788 0.68635 0.13212
 H1059 H 0.87525 0.59133 0.04301
 H1060 H 0.97236 0.62812 0.07555
 H1061 H 0.90871 0.65259 0.15263
 H1062 H 0.94007 0.66079 0.11089
 C1063 C 0.36340 1.15417 0.61894
 C1064 C 0.37725 1.15721 0.64616
 C1065 C 0.35616 1.16873 0.66817
 C1066 C 0.32137 1.17761 0.66317
 C1067 C 0.30849 1.17394 0.63567
 N1068 N 0.32938 1.16218 0.61468
 C1069 C 0.38408 1.14001 0.59530
 N1070 N 0.36752 1.12105 0.57565
 C1071 C 0.38504 1.10410 0.55524
 C1072 C 0.42151 1.10533 0.55391
 C1073 C 0.43903 1.12645 0.57266
 C1074 C 0.42043 1.14381 0.59345
 H1075 H 0.36730 1.17134 0.68897
 H1076 H 0.28184 1.18044 0.63084
 H1077 H 0.37067 1.08787 0.54119
 H1078 H 0.46716 1.12754 0.57258
 H1079 H 0.40385 1.15016 0.65060
 H1080 H 0.43445 1.15913 0.60841
 C1081 C 0.86181 0.34973 -0.12124
 C1082 C 0.83176 0.33145 -0.11429
 C1083 C 0.81066 0.31864 -0.13576
 C1084 C 0.81914 0.32400 -0.16421
 C1085 C 0.84889 0.34308 -0.17017
 N1086 N 0.86902 0.35513 -0.14895
 C1087 C 0.88554 0.36478 -0.09987
 N1088 N 0.91038 0.38627 -0.10926
 C1089 C 0.93162 0.40345 -0.09166
 C1090 C 0.92837 0.40004 -0.06244
 C1091 C 0.90438 0.37684 -0.05197
 C1092 C 0.88292 0.35901 -0.07063
 H1093 H 0.78804 0.30402 -0.13004
 H1094 H 0.85671 0.34784 -0.19168
 H1095 H 0.94985 0.42122 -0.10048
 H1096 H 0.90083 0.37398 -0.02949
 H1097 H 0.82427 0.32694 -0.09272
 H1098 H 0.86411 0.34181 -0.06198
 C1099 C 0.36209 0.85056 0.37834
 C1100 C 0.33209 0.83228 0.38549
 C1101 C 0.31013 0.82044 0.36419
 C1102 C 0.31770 0.82673 0.33572
 C1103 C 0.34745 0.84575 0.32958
 N1104 N 0.36841 0.85685 0.35062
 C1105 C 0.38689 0.86448 0.39948
 N1106 N 0.41308 0.88425 0.38978
 C1107 C 0.43533 0.90062 0.40712
 C1108 C 0.43169 0.89825 0.43638
 C1109 C 0.40626 0.87673 0.44718
 C1110 C 0.38382 0.85964 0.42881
 H1111 H 0.28761 0.80574 0.37004
 H1112 H 0.35461 0.85119 0.30804
 H1113 H 0.45454 0.91722 0.39804
 H1114 H 0.40227 0.87486 0.46969
 H1115 H 0.32538 0.82685 0.40707
 H1116 H 0.36380 0.84401 0.43777
 C1117 C 1.14017 1.12068 0.36158
 C1118 C 1.16739 1.14036 0.37233
 C1119 C 1.18164 1.16561 0.35579
 C1120 C 1.16873 1.17134 0.32869
 C1121 C 1.14036 1.15220 0.31931
 N1122 N 1.12704 1.12768 0.33574
 C1123 C 1.12446 1.09334 0.37791
 N1124 N 1.09072 1.08484 0.37292
 C1125 C 1.07358 1.06197 0.38883
 C1126 C 1.09038 1.04701 0.41170
 C1127 C 1.12586 1.05353 0.41583
 C1128 C 1.14304 1.07651 0.39890
 H1129 H 1.20344 1.17982 0.36386
 H1130 H 1.12935 1.15602 0.29863
 H1131 H 1.04624 1.05753 0.38490
 H1132 H 1.13987 1.04212 0.43305
 H1133 H 1.17764 1.13647 0.39324
 H1134 H 1.17027 1.08154 0.40274
 C1135 C 0.63326 0.62567 -0.14037
 C1136 C 0.66334 0.64105 -0.12961
 C1137 C 0.67983 0.66589 -0.14517
 C1138 C 0.66627 0.67538 -0.17124
 C1139 C 0.63501 0.66080 -0.18041
 N1140 N 0.61956 0.63656 -0.16499
 C1141 C 0.61550 0.59859 -0.12532
 N1142 N 0.58049 0.59479 -0.12850
 C1143 C 0.56199 0.57242 -0.11308
 C1144 C 0.57888 0.55329 -0.09270
 C1145 C 0.61518 0.55488 -0.09073
 C1146 C 0.63366 0.57732 -0.10717
 H1147 H 0.70384 0.67660 -0.13738
 H1148 H 0.62345 0.66783 -0.20027
 H1149 H 0.53395 0.57176 -0.11502
 H1150 H 0.62898 0.54018 -0.07524
 H1151 H 0.67419 0.63396 -0.10952
 H1152 H 0.66163 0.57867 -0.10496
 C1153 C 0.90175 1.13418 0.64790
 C1154 C 0.89756 1.12728 0.67653
 C1155 C 0.87247 1.14446 0.69180
 C1156 C 0.85153 1.16868 0.67875
 C1157 C 0.85666 1.17502 0.65009
 N1158 N 0.88142 1.15788 0.63559
 C1159 C 0.92707 1.11593 0.63049
 N1160 N 0.93916 1.13084 0.60679
 C1161 C 0.95903 1.11432 0.58777
 C1162 C 0.96654 1.08031 0.59155
 C1163 C 0.95619 1.06492 0.61663
 C1164 C 0.93635 1.08265 0.63618
 H1165 H 0.86963 1.13876 0.71394
 H1166 H 0.84137 1.19371 0.63930
 H1167 H 0.96696 1.12724 0.56883
 H1168 H 0.96116 1.03864 0.62017
 H1169 H 0.91369 1.10918 0.68720
 H1170 H 0.92653 1.06966 0.65447
 C1171 C 0.39346 0.63782 0.14508
 C1172 C 0.39341 0.63387 0.17430
 C1173 C 0.36964 0.65172 0.19038
 C1174 C 0.34598 0.67365 0.17750
 C1175 C 0.34730 0.67736 0.14825
 N1176 N 0.37074 0.65956 0.13298
 C1177 C 0.41694 0.61871 0.12680
 N1178 N 0.42433 0.63140 0.10102
 C1179 C 0.44238 0.61389 0.08152
 C1180 C 0.45312 0.58113 0.08721
 C1181 C 0.44736 0.56799 0.11407
 C1182 C 0.42913 0.58673 0.13399
 H1183 H 0.36988 0.64824 0.21297
 H1184 H 0.32984 0.69422 0.13751
 H1185 H 0.44685 0.62511 0.06113
 H1186 H 0.45505 0.54268 0.11908
 H1187 H 0.41165 0.61750 0.18473
 H1188 H 0.42300 0.57544 0.15405
 C1189 C 1.10776 0.84465 0.63524
 C1190 C 1.13444 0.82430 0.62454
 C1191 C 1.15806 0.80965 0.64296
 C1192 C 1.15512 0.81504 0.67216
 C1193 C 1.12762 0.83556 0.68182
 N1194 N 1.10534 0.84982 0.66338
 C1195 C 1.08402 0.86291 0.61663
 N1196 N 1.07232 0.89353 0.62482
 C1197 C 1.05337 0.91337 0.60753
 C1198 C 1.04599 0.90278 0.58006
 C1199 C 1.05572 0.87031 0.57199
 C1200 C 1.07469 0.85032 0.59020
 H1201 H 1.17859 0.79425 0.63418
 H1202 H 1.12385 0.84082 0.70397
 H1203 H 1.04599 0.93805 0.61471
 H1204 H 1.05000 0.86083 0.55114
 H1205 H 1.13782 0.82053 0.60215
 H1206 H 1.08261 0.82565 0.58338
 C1207 C 0.62369 0.35712 0.13645
 C1208 C 0.64541 0.33169 0.12602
 C1209 C 0.66382 0.31183 0.14471
 C1210 C 0.66019 0.31691 0.17371
 C1211 C 0.63654 0.34123 0.18329
 N1212 N 0.61930 0.36067 0.16465
 C1213 C 0.60637 0.38069 0.11750
 N1214 N 0.57584 0.39535 0.12543
 C1215 C 0.55842 0.41668 0.10823
 C1216 C 0.57168 0.42357 0.08143
 C1217 C 0.60395 0.41013 0.07364
 C1218 C 0.62143 0.38892 0.09160
 H1219 H 0.68126 0.29293 0.13645
 H1220 H 0.63259 0.34567 0.20554
 H1221 H 0.53380 0.42705 0.11501
 H1222 H 0.61550 0.41568 0.05336
 H1223 H 0.64845 0.32726 0.10369
 H1224 H 0.64648 0.37918 0.08516
 C1225 C 0.85678 0.88890 0.36282
 C1226 C 0.82964 0.86922 0.37380
 C1227 C 0.81574 0.84342 0.35756
 C1228 C 0.82889 0.83715 0.33054
 C1229 C 0.85695 0.85650 0.32087
 N1230 N 0.86995 0.88149 0.33700
 C1231 C 0.87300 0.91621 0.37899
 N1232 N 0.90636 0.92504 0.37276
 C1233 C 0.92449 0.94727 0.38860
 C1234 C 0.90929 0.96102 0.41282
 C1235 C 0.87404 0.95448 0.41822
 C1236 C 0.85573 0.93227 0.40126
 H1237 H 0.79409 0.82911 0.36579
 H1238 H 0.86812 0.85236 0.30023
 H1239 H 0.95160 0.95176 0.38367
 H1240 H 0.86126 0.96497 0.43656
 H1241 H 0.81931 0.87338 0.39469
 H1242 H 0.82880 0.92703 0.40621
 C1243 C 0.35576 0.37628 -0.13593
 C1244 C 0.32943 0.35558 -0.12507
 C1245 C 0.31313 0.33257 -0.14268
 C1246 C 0.32316 0.33006 -0.17096
 C1247 C 0.35042 0.35041 -0.18069
 N1248 N 0.36580 0.37266 -0.16318
 C1249 C 0.37397 0.40101 -0.11841
 N1250 N 0.40699 0.41011 -0.12553
 C1251 C 0.42632 0.43088 -0.10920
 C1252 C 0.41260 0.44294 -0.08384
 C1253 C 0.37792 0.43561 -0.07706
 C1254 C 0.35844 0.41486 -0.09436
 H1255 H 0.29235 0.31723 -0.13430
 H1256 H 0.35927 0.34908 -0.20230
 H1257 H 0.45298 0.43612 -0.11512
 H1258 H 0.36626 0.44497 -0.05782
 H1259 H 0.32162 0.35677 -0.10322
 H1260 H 0.33180 0.40939 -0.08861
 C1261 C 1.12042 0.34079 -0.12159
 C1262 C 1.10759 0.33778 -0.14913
 C1263 C 1.12915 0.32527 -0.17042
 C1264 C 1.16341 0.31540 -0.16441
 C1265 C 1.17512 0.31858 -0.13655
 N1266 N 1.15382 0.33137 -0.11628
 C1267 C 1.09978 0.35681 -0.09880
 N1268 N 1.11701 0.37437 -0.07862
 C1269 C 1.10014 0.39279 -0.05879
 C1270 C 1.06371 0.39453 -0.05860
 C1271 C 1.04518 0.37526 -0.07810
 C1272 C 1.06313 0.35630 -0.09828
 H1273 H 1.11892 0.32317 -0.19156
 H1274 H 1.20132 0.31136 -0.13091
 H1275 H 1.11521 0.40763 -0.04414
 H1276 H 1.01704 0.37657 -0.07885
 H1277 H 1.08160 0.34593 -0.15446
 H1278 H 1.04849 0.34222 -0.11368
 C1279 C 0.62804 0.84217 0.38249
 C1280 C 0.61490 0.83882 0.35507
 C1281 C 0.63657 0.82713 0.33354
 C1282 C 0.67125 0.81837 0.33919
 C1283 C 0.68327 0.82185 0.36694
 N1284 N 0.66185 0.83387 0.38745
 C1285 C 0.60717 0.85752 0.40544
 N1286 N 0.62392 0.87625 0.42512
 C1287 C 0.60654 0.89436 0.44487
 C1288 C 0.57006 0.89457 0.44544
 C1289 C 0.55212 0.87393 0.42658
 C1290 C 0.57061 0.85533 0.40647
 H1291 H 0.62609 0.82474 0.31250
 H1292 H 0.70981 0.81545 0.37227
 H1293 H 0.62117 0.91017 0.45907
 H1294 H 0.52394 0.87396 0.42614
 H1295 H 0.58854 0.84610 0.35005
 H1296 H 0.55639 0.84027 0.39146
 C1297 C 0.86935 0.65774 -0.12071
 C1298 C 0.88308 0.66172 -0.14790
 C1299 C 0.86194 0.67415 -0.16933
 C1300 C 0.82725 0.68303 -0.16376
 C1301 C 0.81460 0.67883 -0.13624
 N1302 N 0.83550 0.66608 -0.11584
 C1303 C 0.88972 0.64186 -0.09794
 N1304 N 0.87271 0.62202 -0.07922
 C1305 C 0.88979 0.60369 -0.05962
 C1306 C 0.92622 0.60450 -0.05815
 C1307 C 0.94432 0.62619 -0.07603
 C1308 C 0.92613 0.64489 -0.09607
 H1309 H 0.87285 0.67712 -0.19021
 H1310 H 0.78801 0.68528 -0.13100
 H1311 H 0.87505 0.58712 -0.04614
 H1312 H 0.97248 0.62702 -0.07572
 H1313 H 0.90952 0.65444 -0.15281
 H1314 H 0.94047 0.66081 -0.11035
 C1315 C 0.37058 1.15680 0.37795
 C1316 C 0.34139 1.17586 0.38576
 C1317 C 0.31945 1.18862 0.36491
 C1318 C 0.32631 1.18244 0.33628
 C1319 C 0.35569 1.16322 0.32945
 N1320 N 0.37653 1.15107 0.35007
 C1321 C 0.39395 1.14040 0.39864
 N1322 N 0.41524 1.11582 0.38890
 C1323 C 0.43542 1.09715 0.40610
 C1324 C 0.43472 1.10231 0.43526
 C1325 C 0.41457 1.12857 0.44599
 C1326 C 0.39411 1.14781 0.42771
 H1327 H 0.29712 1.20332 0.37126
 H1328 H 0.36225 1.15786 0.30775
 H1329 H 0.45080 1.07712 0.39709
 H1330 H 0.41320 1.13298 0.46846
 H1331 H 0.33491 1.18047 0.40755
 H1332 H 0.37821 1.16753 0.43647
 C1333 C 1.13730 0.65492 0.11589
 C1334 C 1.12226 0.66135 0.14229
 C1335 C 1.14306 0.67283 0.16433
 C1336 C 1.17877 0.67845 0.16016
 C1337 C 1.19277 0.67193 0.13337
 N1338 N 1.17210 0.66003 0.11235
 C1339 C 1.11676 0.63976 0.09279
 N1340 N 1.13214 0.61631 0.07617
 C1341 C 1.11395 0.59819 0.05698
 C1342 C 1.07797 0.60292 0.05385
 C1343 C 1.06194 0.62851 0.06928
 C1344 C 1.08123 0.64691 0.08892
 H1345 H 1.13106 0.67777 0.18456
 H1346 H 1.22015 0.67594 0.12922
 H1347 H 1.12720 0.57870 0.04531
 H1348 H 1.03423 0.63267 0.06756
 H1349 H 1.09493 0.65669 0.14613
 H1350 H 1.06827 0.66575 0.10152
 C1351 C 0.63717 1.15117 0.61862
 C1352 C 0.62463 1.15435 0.64622
 C1353 C 0.64696 1.16496 0.66752
 C1354 C 0.68182 1.17284 0.66153
 C1355 C 0.69339 1.16935 0.63360
 N1356 N 0.67123 1.15833 0.61322
 C1357 C 0.61486 1.13734 0.59600
 N1358 N 0.62935 1.11647 0.57662
 C1359 C 0.60982 1.09927 0.55768
 C1360 C 0.57343 1.10226 0.55776
 C1361 C 0.55802 1.12516 0.57624
 C1362 C 0.57866 1.14280 0.59543
 H1363 H 0.63668 1.16748 0.68866
 H1364 H 0.72001 1.17521 0.62801
 H1365 H 0.62250 1.08165 0.54370
 H1366 H 0.53002 1.12765 0.57716
 H1367 H 0.59806 1.14792 0.65152
 H1368 H 0.56631 1.15957 0.61030
 C1369 C 0.86537 0.34710 0.12394
 C1370 C 0.83879 0.32483 0.11610
 C1371 C 0.81717 0.31110 0.13684
 C1372 C 0.82183 0.31948 0.16536
 C1373 C 0.84857 0.34194 0.17216
 N1374 N 0.86911 0.35495 0.15166
 C1375 C 0.88831 0.36438 0.10338
 N1376 N 0.90608 0.39157 0.11272
 C1377 C 0.92604 0.41062 0.09559
 C1378 C 0.92893 0.40305 0.06687
 C1379 C 0.91239 0.37426 0.05670
 C1380 C 0.89193 0.35479 0.07492
 H1381 H 0.79694 0.29384 0.13055
 H1382 H 0.85336 0.34916 0.19377
 H1383 H 0.93874 0.43247 0.10429
 H1384 H 0.91397 0.36777 0.03460
 H1385 H 0.83416 0.31840 0.09433
 H1386 H 0.87893 0.33297 0.06662
 C1387 C 0.36103 0.84808 0.62208
 C1388 C 0.33299 0.82747 0.61453
 C1389 C 0.31128 0.81443 0.63551
 C1390 C 0.31724 0.82171 0.66422
 C1391 C 0.34546 0.84291 0.67059
 N1392 N 0.36602 0.85521 0.64979
 C1393 C 0.38433 0.86443 0.60124
 N1394 N 0.40415 0.89032 0.61053
 C1395 C 0.42455 0.90864 0.59317
 C1396 C 0.42575 0.90165 0.56429
 C1397 C 0.40708 0.87414 0.55409
 C1398 C 0.38624 0.85536 0.57255
 H1399 H 0.28997 0.79846 0.62905
 H1400 H 0.35159 0.84967 0.69209
 H1401 H 0.43884 0.92959 0.60181
 H1402 H 0.40727 0.86824 0.53184
 H1403 H 0.32729 0.82176 0.59279
 H1404 H 0.37157 0.83456 0.56423
 C1405 C 0.34454 1.13486 -0.12144
 C1406 C 0.32364 1.16221 -0.11358
 C1407 C 0.31103 1.18393 -0.13429
 C1408 C 0.31916 1.17871 -0.16285
 C1409 C 0.34059 1.15145 -0.16967
 N1410 N 0.35240 1.13072 -0.14921
 C1411 C 0.35980 1.11073 -0.10099
 N1412 N 0.38293 1.08798 -0.11120
 C1413 C 0.40054 1.06649 -0.09444
 C1414 C 0.39589 1.06722 -0.06519
 C1415 C 0.37100 1.08912 -0.05396
 C1416 C 0.35278 1.11093 -0.07180
 H1417 H 0.29446 1.20449 -0.12795
 H1418 H 0.34756 1.14617 -0.19130
 H1419 H 0.41961 1.04997 -0.10387
 H1420 H 0.36718 1.09073 -0.03142
 H1421 H 0.31694 1.16710 -0.09188
 H1422 H 0.33439 1.12813 -0.06252
 C1423 C 0.84692 0.63604 0.38027
 C1424 C 0.84818 0.62619 0.35193
 C1425 C 0.83772 0.64840 0.33101
 C1426 C 0.82564 0.68050 0.33804
 C1427 C 0.82524 0.68956 0.36666
 N1428 N 0.83603 0.66757 0.38670
 C1429 C 0.85949 0.61361 0.40296
 N1430 N 0.87627 0.62716 0.42545
 C1431 C 0.89227 0.60802 0.44518
 C1432 C 0.89232 0.57308 0.44276
 C1433 C 0.87347 0.55842 0.42080
 C1434 C 0.85690 0.57860 0.40088
 H1435 H 0.83838 0.64008 0.30931
 H1436 H 0.81611 0.71398 0.37312
 H1437 H 0.90703 0.62012 0.46169
 H1438 H 0.87367 0.53157 0.41793
 H1439 H 0.85771 0.60178 0.34584
 H1440 H 0.84332 0.56690 0.38354
 C1441 C 0.65617 1.12883 0.12319
 C1442 C 0.65950 1.11591 0.15049
 C1443 C 0.67116 1.13659 0.17227
 C1444 C 0.67984 1.17007 0.16696
 C1445 C 0.67603 1.18201 0.13937
 N1446 N 0.66414 1.16152 0.11861
 C1447 C 0.64140 1.10874 0.09981
 N1448 N 0.62239 1.12468 0.07982
 C1449 C 0.60482 1.10789 0.05944
 C1450 C 0.60550 1.07289 0.05847
 C1451 C 0.62659 1.05587 0.07767
 C1452 C 0.64460 1.07372 0.09845
 H1453 H 0.67385 1.12621 0.19317
 H1454 H 0.68237 1.20764 0.13428
 H1455 H 0.58865 1.12179 0.04498
 H1456 H 0.62722 1.02882 0.07781
 H1457 H 0.65242 1.09038 0.15522
 H1458 H 0.65999 1.06020 0.11367
 C1459 C 1.15586 0.63036 0.62103
 C1460 C 1.15801 0.61840 0.64872
 C1461 C 1.16897 0.63975 0.67026
 C1462 C 1.17811 0.67298 0.66436
 C1463 C 1.17546 0.68398 0.63640
 N1464 N 1.16424 0.66284 0.61585
 C1465 C 1.14183 0.60950 0.59782
 N1466 N 1.12386 0.62481 0.57686
 C1467 C 1.10670 0.60737 0.55664
 C1468 C 1.10665 0.57235 0.55691
 C1469 C 1.12671 0.55590 0.57713
 C1470 C 1.14443 0.57440 0.59766
 H1471 H 1.17078 0.63006 0.69145
 H1472 H 1.18220 0.70937 0.63085
 H1473 H 1.09119 0.62081 0.54142
 H1474 H 1.12664 0.52888 0.57827
 H1475 H 1.15053 0.59310 0.65392
 H1476 H 1.15899 0.56133 0.61367
 C1477 C 0.65645 0.86878 -0.11829
 C1478 C 0.65864 0.88100 -0.14589
 C1479 C 0.66987 0.85996 -0.16756
 C1480 C 0.67933 0.82674 -0.16194
 C1481 C 0.67667 0.81546 -0.13403
 N1482 N 0.66509 0.83631 -0.11332
 C1483 C 0.64217 0.88954 -0.09505
 N1484 N 0.62276 0.87445 -0.07475
 C1485 C 0.60529 0.89211 -0.05475
 C1486 C 0.60643 0.92714 -0.05456
 C1487 C 0.62796 0.94327 -0.07406
 C1488 C 0.64590 0.92454 -0.09439
 H1489 H 0.67169 0.86991 -0.18868
 H1490 H 0.68370 0.79009 -0.12869
 H1491 H 0.58871 0.87891 -0.04007
 H1492 H 0.62892 0.97029 -0.07485
 H1493 H 0.65100 0.90630 -0.15089
 H1494 H 0.66155 0.93738 -0.10992
 C1495 C 1.15425 0.36873 0.37943
 C1496 C 1.15658 0.38046 0.35169
 C1497 C 1.16805 0.35908 0.33035
 C1498 C 1.17762 0.32600 0.33643
 C1499 C 1.17482 0.31520 0.36446
 N1500 N 1.16300 0.33638 0.38486
 C1501 C 1.13980 0.38992 0.40234
 N1502 N 1.12024 0.37521 0.42274
 C1503 C 1.10274 0.39325 0.44249
 C1504 C 1.10406 0.42828 0.44232
 C1505 C 1.12563 0.44403 0.42264
 C1506 C 1.14358 0.42492 0.40257
 H1507 H 1.16996 0.36868 0.30912
 H1508 H 1.18192 0.28996 0.37015
 H1509 H 1.08612 0.38033 0.45732
 H1510 H 1.12673 0.47103 0.42161
 H1511 H 1.14887 0.40563 0.34634
 H1512 H 1.15933 0.43747 0.38693
 C1513 C 0.34707 0.86583 0.11895
 C1514 C 0.33050 0.83561 0.11188
 C1515 C 0.32014 0.81363 0.13318
 C1516 C 0.32598 0.82142 0.16167
 C1517 C 0.34307 0.85159 0.16778
 N1518 N 0.35287 0.87257 0.14670
 C1519 C 0.35919 0.89063 0.09758
 N1520 N 0.37261 0.92010 0.10700
 C1521 C 0.38760 0.94286 0.08959
 C1522 C 0.39056 0.93641 0.06069
 C1523 C 0.37561 0.90709 0.05008
 C1524 C 0.35973 0.88420 0.06836
 H1525 H 0.30674 0.79088 0.12730
 H1526 H 0.34796 0.85896 0.18934
 H1527 H 0.39963 0.96486 0.09862
 H1528 H 0.37858 0.90070 0.02804
 H1529 H 0.32487 0.82891 0.09036
 H1530 H 0.34998 0.86115 0.05958
 C1531 C 0.84996 0.36199 0.61940
 C1532 C 0.83340 0.33181 0.61218
 C1533 C 0.82301 0.30967 0.63338
 C1534 C 0.82883 0.31726 0.66190
 C1535 C 0.84590 0.34741 0.66815
 N1536 N 0.85572 0.36854 0.64717
 C1537 C 0.86203 0.38701 0.59815
 N1538 N 0.87529 0.41649 0.60771
 C1539 C 0.89000 0.43956 0.59040
 C1540 C 0.89275 0.43346 0.56143
 C1541 C 0.87813 0.40404 0.55071
 C1542 C 0.86257 0.38083 0.56889
 H1543 H 0.80961 0.28695 0.62740
 H1544 H 0.85080 0.35464 0.68974
 H1545 H 0.90183 0.46160 0.59953
 H1546 H 0.88100 0.39790 0.52862
 H1547 H 0.82779 0.32526 0.59062
 H1548 H 0.85299 0.35777 0.56000
 C1549 C 1.13997 1.11281 0.64038
 C1550 C 1.12203 1.12642 0.66345
 C1551 C 1.13719 1.15208 0.67881
 C1552 C 1.16985 1.16465 0.67108
 C1553 C 1.18629 1.15165 0.64718
 N1554 N 1.17119 1.12622 0.63269
 C1555 C 1.12517 1.08575 0.62302
 N1556 N 1.13933 1.08031 0.59720
 C1557 C 1.12516 1.05874 0.57848
 C1558 C 1.09408 1.04199 0.58501
 C1559 C 1.08052 1.04510 0.61227
 C1560 C 1.09617 1.06672 0.63145
 H1561 H 1.12358 1.16179 0.69707
 H1562 H 1.21167 1.16060 0.64076
 H1563 H 1.13700 1.05651 0.55788
 H1564 H 1.05682 1.03231 0.61828
 H1565 H 1.09656 1.11781 0.66975
 H1566 H 1.08482 1.06899 0.65217
 C1567 C 0.63748 0.62690 0.13917
 C1568 C 0.62458 0.63400 0.16613
 C1569 C 0.64241 0.65627 0.18324
 C1570 C 0.67285 0.67189 0.17358
 C1571 C 0.68434 0.66510 0.14621
 N1572 N 0.66663 0.64295 0.12993
 C1573 C 0.61964 0.60368 0.11989
 N1574 N 0.62765 0.60537 0.09210
 C1575 C 0.61161 0.58617 0.07258
 C1576 C 0.58530 0.56374 0.08062
 C1577 C 0.57735 0.56063 0.10926
 C1578 C 0.59462 0.58037 0.12901
 H1579 H 0.63230 0.66127 0.20413
 H1580 H 0.70772 0.67663 0.13801
 H1581 H 0.61893 0.58919 0.05074
 H1582 H 0.55748 0.54340 0.11637
 H1583 H 0.60082 0.62304 0.17404
 H1584 H 0.58822 0.57721 0.15098
 C1585 C 1.11196 0.86623 0.35013
 C1586 C 1.11804 0.87479 0.32204
 C1587 C 1.14244 0.85689 0.30664
 C1588 C 1.16065 0.83031 0.31903
 C1589 C 1.15402 0.82266 0.34724
 N1590 N 1.12999 0.84051 0.36186
 C1591 C 1.08665 0.88428 0.36760
 N1592 N 1.07353 0.86846 0.39052
 C1593 C 1.05325 0.88435 0.40960
 C1594 C 1.04615 0.91849 0.40658
 C1595 C 1.05768 0.93494 0.38234
 C1596 C 1.07808 0.91792 0.36277
 H1597 H 1.14661 0.86364 0.28484
 H1598 H 1.16723 0.80218 0.35749
 H1599 H 1.04442 0.87072 0.42791
 H1600 H 1.05306 0.96141 0.37953
 H1601 H 1.10370 0.89451 0.31177
 H1602 H 1.08871 0.93163 0.34516
 C1603 C 0.62113 0.36562 -0.14811
 C1604 C 0.61617 0.36464 -0.17725
 C1605 C 0.63715 0.34391 -0.19355
 C1606 C 0.66309 0.32424 -0.18092
 C1607 C 0.66689 0.32566 -0.15169
 N1608 N 0.64624 0.34621 -0.13630
 C1609 C 0.60138 0.38813 -0.12960
 N1610 N 0.61555 0.39529 -0.10419
 C1611 C 0.59903 0.41430 -0.08489
 C1612 C 0.56577 0.42700 -0.09045
 C1613 C 0.55079 0.42100 -0.11679
 C1614 C 0.56852 0.40133 -0.13652
 H1615 H 0.63328 0.34369 -0.21611
 H1616 H 0.68653 0.31101 -0.14109
 H1617 H 0.61175 0.41887 -0.06495
 H1618 H 0.52504 0.43031 -0.12163
 H1619 H 0.59714 0.38024 -0.18756
 H1620 H 0.55605 0.39568 -0.15633
 C1621 C 0.88702 1.14727 0.36644
 C1622 C 0.86506 1.17216 0.37750
 C1623 C 0.84089 1.18754 0.36001
 C1624 C 0.83862 1.17807 0.33169
 C1625 C 0.86055 1.15258 0.32169
 N1626 N 0.88376 1.13799 0.33910
 C1627 C 0.91214 1.12927 0.38391
 N1628 N 0.92114 1.09758 0.37640
 C1629 C 0.94189 1.07827 0.39269
 C1630 C 0.95401 1.09063 0.41842
 C1631 C 0.94696 1.12396 0.42562
 C1632 C 0.92616 1.14342 0.40836
 H1633 H 0.82435 1.20700 0.36854
 H1634 H 0.85949 1.14427 0.30002
 H1635 H 0.94696 1.05274 0.38635
 H1636 H 0.95641 1.13462 0.44512
 H1637 H 0.86597 1.17935 0.39943
 H1638 H 0.92070 1.16894 0.41444
 C1639 C 0.36770 0.63522 -0.13554
 C1640 C 0.34128 0.65564 -0.12433
 C1641 C 0.32305 0.67703 -0.14200
 C1642 C 0.33131 0.67825 -0.17067
 C1643 C 0.35890 0.65847 -0.18077
 N1644 N 0.37609 0.63769 -0.16320
 C1645 C 0.38698 0.61137 -0.11809
 N1646 N 0.41994 0.60242 -0.12571
 C1647 C 0.43973 0.58180 -0.10965
 C1648 C 0.42642 0.56979 -0.08423
 C1649 C 0.39197 0.57717 -0.07687
 C1650 C 0.37207 0.59769 -0.09381
 H1651 H 0.30219 0.69208 -0.13334
 H1652 H 0.36652 0.65898 -0.20270
 H1653 H 0.46622 0.57638 -0.11592
 H1654 H 0.38074 0.56769 -0.05754
 H1655 H 0.33476 0.65535 -0.10218
 H1656 H 0.34549 0.60293 -0.08772
 C1657 C 0.86133 0.88013 0.63742
 C1658 C 0.83308 0.86163 0.62694
 C1659 C 0.81689 0.83813 0.64409
 C1660 C 0.82887 0.83309 0.67155
 C1661 C 0.85794 0.85128 0.68085
 N1662 N 0.87325 0.87399 0.66377
 C1663 C 0.87938 0.90519 0.62027
 N1664 N 0.91382 0.91103 0.62491
 C1665 C 0.93275 0.93186 0.60835
 C1666 C 0.91698 0.94740 0.58532
 C1667 C 0.88107 0.94347 0.58139
 C1668 C 0.86215 0.92254 0.59889
 H1669 H 0.79463 0.82452 0.63612
 H1670 H 0.86829 0.84783 0.70180
 H1671 H 0.96041 0.93440 0.61205
 H1672 H 0.86789 0.95555 0.56406
 H1673 H 0.82370 0.86496 0.60569
 H1674 H 0.83453 0.91955 0.59530
 C1675 C 0.36741 0.37584 0.13877
 C1676 C 0.33726 0.36046 0.12810
 C1677 C 0.31938 0.33736 0.14457
 C1678 C 0.33154 0.32971 0.17151
 C1679 C 0.36256 0.34461 0.18087
 N1680 N 0.37949 0.36699 0.16449
 C1681 C 0.38685 0.40081 0.12249
 N1682 N 0.42199 0.40325 0.12580
 C1683 C 0.44175 0.42385 0.10960
 C1684 C 0.42598 0.44263 0.08842
 C1685 C 0.38967 0.44223 0.08607
 C1686 C 0.36997 0.42153 0.10317
 H1687 H 0.29564 0.32628 0.13661
 H1688 H 0.37310 0.33894 0.20141
 H1689 H 0.46974 0.42360 0.11185
 H1690 H 0.37671 0.45674 0.06999
 H1691 H 0.32761 0.36605 0.10728
 H1692 H 0.34199 0.42119 0.10074
   
