data_POSCAR
  _audit_creation_date              2014-09-24
  _audit_creation_method            'ToBaCCo'
  _symmetry_space_group_name_H-M    'P1'
  _symmetry_Int_Tables_number       1
  _symmetry_cell_setting            triclinic
  loop_
  _symmetry_equiv_pos_as_xyz
 x,y,z
_cell_length_a 53.3106
_cell_length_b 54.7481
_cell_length_c 57.7904
_cell_angle_alpha 89.578800
_cell_angle_beta 90.847100
_cell_angle_gamma 91.276900
loop_
  _atom_site_label
  _atom_site_type_symbol
  _atom_site_fract_x
  _atom_site_fract_y
  _atom_site_fract_z
C1 C 0.41432 0.01431 0.28567
 C2 C 0.39706 0.03643 0.28364
 C3 C 0.38080 0.03564 0.26518
 C4 C 0.38325 0.01260 0.25026
 C5 C 0.39634 -0.00779 0.28565
 C6 C 0.38016 -0.00917 0.26728
 C7 C 0.42726 0.01365 0.26218
 C8 C 0.41123 0.01283 0.24356
 H9 H 0.39882 0.05246 0.29437
 H10 H 0.36997 0.01203 0.23533
 H11 H 0.39601 -0.02083 0.29983
 H12 H 0.44747 0.01383 0.26059
 C13 C 0.08643 -0.00352 0.77179
 C14 C 0.10518 -0.02448 0.77191
 C15 C 0.12130 -0.02400 0.75386
 C16 C 0.11686 -0.00252 0.73696
 C17 C 0.10261 0.01971 0.77017
 C18 C 0.11857 0.02061 0.75216
 C19 C 0.07363 -0.00542 0.74939
 C20 C 0.09022 -0.00511 0.72981
 H21 H 0.10474 -0.03922 0.78452
 H22 H 0.13077 -0.00143 0.72301
 H23 H 0.10202 0.03400 0.78303
 H24 H 0.05392 -0.01021 0.74796
 C25 C 0.58808 0.50167 0.26808
 C26 C 0.60846 0.48226 0.26801
 C27 C 0.62381 0.48339 0.24932
 C28 C 0.61739 0.50418 0.23224
 C29 C 0.60226 0.52595 0.26545
 C30 C 0.61768 0.52762 0.24703
 C31 C 0.57422 0.49799 0.24485
 C32 C 0.58939 0.49911 0.22599
 H33 H 0.60931 0.46768 0.28074
 H34 H 0.63010 0.50533 0.21722
 H35 H 0.60099 0.54040 0.27808
 H36 H 0.55440 0.49369 0.24344
 C37 C 0.91436 0.50893 0.78547
 C38 C 0.89559 0.52976 0.78285
 C39 C 0.88004 0.52792 0.76392
 C40 C 0.88471 0.50507 0.74919
 C41 C 0.89812 0.48564 0.78500
 C42 C 0.88268 0.48317 0.76622
 C43 C 0.92817 0.50926 0.76242
 C44 C 0.91290 0.50730 0.74336
 H45 H 0.89633 0.54609 0.79323
 H46 H 0.87206 0.50346 0.73384
 H47 H 0.89834 0.47253 0.79913
 H48 H 0.94840 0.51096 0.76141
 C49 C 0.27753 0.36123 0.99964
 C50 C 0.27493 0.34148 1.01843
 C51 C 0.25359 0.32745 1.01692
 C52 C 0.23633 0.33452 0.99640
 C53 C 0.27431 0.34755 0.97673
 C54 C 0.25286 0.33367 0.97481
 C55 C 0.25322 0.37580 1.00181
 C56 C 0.23160 0.36196 0.99985
 H57 H 0.28697 0.34097 1.03366
 H58 H 0.21896 0.32303 0.99503
 H59 H 0.28778 0.34927 0.96292
 H60 H 0.25315 0.39537 1.00431
 C61 C 0.77279 0.13291 1.00056
 C62 C 0.76847 0.14502 0.97707
 C63 C 0.74755 0.15864 0.97556
 C64 C 0.73219 0.15857 0.99799
 C65 C 0.77245 0.15401 1.01798
 C66 C 0.75110 0.16737 1.01682
 C67 C 0.74980 0.11903 1.00522
 C68 C 0.72711 0.13267 1.00348
 H69 H 0.78164 0.14380 0.96303
 H70 H 0.71558 0.17026 0.99632
 H71 H 0.78653 0.15653 1.03150
 H72 H 0.75025 0.10152 1.01393
 C73 C 0.27266 0.63795 0.49728
 C74 C 0.27105 0.65680 0.47768
 C75 C 0.25169 0.67243 0.47918
 C76 C 0.23477 0.66726 0.50022
 C77 C 0.27246 0.65292 0.51964
 C78 C 0.25261 0.66812 0.52132
 C79 C 0.24677 0.62492 0.49647
 C80 C 0.22690 0.63997 0.49876
 H81 H 0.28317 0.65674 0.46283
 H82 H 0.21884 0.67983 0.50163
 H83 H 0.28587 0.65027 0.53364
 H84 H 0.24435 0.60534 0.49489
 C85 C 0.77714 0.85922 0.50498
 C86 C 0.77450 0.83866 0.52298
 C87 C 0.75353 0.82422 0.52041
 C88 C 0.73670 0.83176 0.49972
 C89 C 0.77496 0.84642 0.48154
 C90 C 0.75390 0.83218 0.47857
 C91 C 0.75239 0.87310 0.50703
 C92 C 0.73120 0.85889 0.50397
 H93 H 0.78622 0.83771 0.53839
 H94 H 0.71963 0.82000 0.49746
 H95 H 0.78881 0.84902 0.46816
 H96 H 0.75175 0.89255 0.51011
 C97 C -0.01575 0.27910 0.39776
 C98 C 0.01179 0.27791 0.39047
 C99 C 0.01676 0.25851 0.37692
 C100 C -0.00632 0.24220 0.37152
 C101 C -0.02955 0.27906 0.37587
 C102 C -0.02477 0.25856 0.36150
 C103 C -0.02148 0.25423 0.40906
 C104 C -0.01625 0.23490 0.39538
 H105 H 0.02571 0.29207 0.39432
 H106 H -0.00181 0.22642 0.36056
 H107 H -0.04266 0.29292 0.37087
 H108 H -0.02697 0.25220 0.42695
 C109 C -0.00118 0.76157 0.09153
 C110 C -0.01758 0.76815 0.11204
 C111 C -0.01999 0.75022 0.12829
 C112 C -0.00614 0.72700 0.12223
 C113 C 0.02367 0.75331 0.10240
 C114 C 0.02098 0.73558 0.11875
 C115 C -0.01318 0.73802 0.08182
 C116 C -0.01568 0.71996 0.09799
 H117 H -0.02690 0.78547 0.11307
 H118 H -0.00754 0.71188 0.13501
 H119 H 0.04153 0.76235 0.09897
 H120 H -0.01640 0.73458 0.06362
 C121 C 0.49411 0.25987 0.59410
 C122 C 0.47806 0.26438 0.61537
 C123 C 0.47780 0.24573 0.63101
 C124 C 0.49293 0.22382 0.62358
 C125 C 0.51991 0.25299 0.60386
 C126 C 0.51918 0.23444 0.61951
 C127 C 0.48337 0.23599 0.58388
 C128 C 0.48298 0.21713 0.59938
 H129 H 0.46778 0.28101 0.61764
 H130 H 0.49304 0.20825 0.63595
 H131 H 0.53691 0.26350 0.60033
 H132 H 0.47919 0.23314 0.56576
 C133 C 0.48080 0.77699 0.89676
 C134 C 0.50820 0.77788 0.88877
 C135 C 0.51459 0.75844 0.87580
 C136 C 0.49297 0.74001 0.87174
 C137 C 0.46566 0.77474 0.87401
 C138 C 0.47203 0.75528 0.86108
 C139 C 0.47755 0.75358 0.90833
 C140 C 0.48466 0.73304 0.89484
 H141 H 0.52102 0.79308 0.89226
 H142 H 0.49759 0.72471 0.86028
 H143 H 0.45148 0.78722 0.86816
 H144 H 0.47299 0.75233 0.92649
 C145 C -0.22916 0.66985 0.97641
 C146 C -0.21044 0.64897 0.97946
 C147 C -0.21494 0.63403 0.99800
 C148 C -0.23809 0.64124 1.01196
 C149 C -0.25476 0.65686 0.97561
 C150 C -0.25985 0.64200 0.99392
 C151 C -0.22815 0.68296 0.99973
 C152 C -0.23271 0.66836 1.01859
 H153 H -0.19423 0.64650 0.96884
 H154 H -0.24220 0.62876 1.02666
 H155 H -0.26734 0.65837 0.96080
 H156 H -0.22220 0.70192 1.00098
 C157 C -0.25330 0.33201 0.46891
 C158 C -0.27665 0.34804 0.47082
 C159 C -0.27640 0.36285 0.48975
 C160 C -0.25264 0.36020 0.50515
 C161 C -0.23144 0.35053 0.46961
 C162 C -0.23084 0.36536 0.48831
 C163 C -0.25188 0.31892 0.49071
 C164 C -0.25191 0.33397 0.51098
 H165 H -0.29209 0.34804 0.45856
 H166 H -0.25240 0.37300 0.51987
 H167 H -0.21786 0.35219 0.45588
 H168 H -0.25006 0.29930 0.49115
 C169 C 0.24810 -0.17175 -0.02810
 C170 C 0.22510 -0.15519 -0.02717
 C171 C 0.22506 -0.14012 -0.00841
 C172 C 0.24830 -0.14294 0.00763
 C173 C 0.27029 -0.15358 -0.02709
 C174 C 0.27095 -0.13874 -0.00841
 C175 C 0.24852 -0.18451 -0.00602
 C176 C 0.24830 -0.16904 0.01399
 H177 H 0.21010 -0.15528 -0.03992
 H178 H 0.24834 -0.12987 0.02210
 H179 H 0.28369 -0.15165 -0.04094
 H180 H 0.24975 -0.20418 -0.00516
 C181 C 0.26972 1.16882 0.47600
 C182 C 0.28839 1.14790 0.47901
 C183 C 0.28362 1.13265 0.49727
 C184 C 0.26024 1.13971 0.51102
 C185 C 0.24408 1.15601 0.47478
 C186 C 0.23869 1.14090 0.49281
 C187 C 0.27056 1.18157 0.49954
 C188 C 0.26578 1.16669 0.51821
 H189 H 0.30542 1.14644 0.46931
 H190 H 0.25581 1.12685 0.52530
 H191 H 0.23161 1.15796 0.45993
 H192 H 0.27676 1.20042 0.50094
 C193 C 0.12353 0.52932 0.25647
 C194 C 0.10288 0.52624 0.23796
 C195 C 0.08731 0.50654 0.24107
 C196 C 0.09395 0.49105 0.26255
 C197 C 0.10955 0.52904 0.27947
 C198 C 0.09411 0.50914 0.28282
 C199 C 0.13708 0.50467 0.25613
 C200 C 0.12173 0.48467 0.25955
 H201 H 0.10159 0.53798 0.22283
 H202 H 0.08133 0.47485 0.26496
 H203 H 0.11180 0.54356 0.29201
 H204 H 0.15694 0.50290 0.25336
 C205 C -0.11759 1.03218 0.24248
 C206 C -0.09802 1.03138 0.26208
 C207 C -0.08384 1.01108 0.26263
 C208 C -0.09114 0.99261 0.24332
 C209 C -0.10280 1.02805 0.22036
 C210 C -0.08910 1.00730 0.22057
 C211 C -0.13243 1.00975 0.24579
 C212 C -0.11820 0.98762 0.24576
 H213 H -0.09713 1.04478 0.27577
 H214 H -0.07913 0.97638 0.24382
 H215 H -0.10454 1.03970 0.20521
 H216 H -0.15259 1.00974 0.24687
 C217 C 0.38205 0.52581 -0.26056
 C218 C 0.40005 0.52603 -0.23970
 C219 C 0.41531 0.50652 -0.23799
 C220 C 0.41042 0.48754 -0.25728
 C221 C 0.39878 0.52205 -0.28156
 C222 C 0.41343 0.50207 -0.27989
 C223 C 0.36736 0.50139 -0.25794
 C224 C 0.38209 0.48131 -0.25635
 H225 H 0.39981 0.54022 -0.22676
 H226 H 0.42265 0.47142 -0.25619
 H227 H 0.39764 0.53315 -0.29712
 H228 H 0.34717 0.49971 -0.25805
 C229 C 0.62248 0.02312 -0.24547
 C230 C 0.60122 0.02017 -0.26335
 C231 C 0.58564 0.00048 -0.25995
 C232 C 0.59283 -0.01494 -0.23851
 C233 C 0.60926 0.02302 -0.22205
 C234 C 0.59373 0.00325 -0.21826
 C235 C 0.63581 -0.00163 -0.24589
 C236 C 0.62042 -0.02150 -0.24225
 H237 H 0.59987 0.03186 -0.27851
 H238 H 0.58032 -0.03110 -0.23560
 H239 H 0.61202 0.03755 -0.20960
 H240 H 0.65567 -0.00374 -0.24823
 C241 C 0.02746 0.24010 0.84976
 C242 C 0.02771 0.26518 0.86169
 C243 C 0.00928 0.26745 0.87751
 C244 C -0.00773 0.24469 0.87986
 C245 C 0.02919 0.22199 0.87016
 C246 C 0.01058 0.22432 0.88578
 C247 C 0.00242 0.23673 0.84024
 C248 C -0.01711 0.23962 0.85659
 H249 H 0.04252 0.27884 0.85955
 H250 H -0.02246 0.24629 0.89305
 H251 H 0.04398 0.20896 0.87251
 H252 H -0.00104 0.23504 0.82180
 C253 C 0.51472 0.27280 0.14280
 C254 C 0.51367 0.24518 0.13805
 C255 C 0.49600 0.23833 0.12204
 C256 C 0.48085 0.25953 0.11226
 C257 C 0.51859 0.28407 0.11867
 C258 C 0.50076 0.27724 0.10283
 C259 C 0.48806 0.27924 0.14935
 C260 C 0.47035 0.27214 0.13346
 H261 H 0.52780 0.23273 0.14426
 H262 H 0.46630 0.25407 0.09926
 H263 H 0.53382 0.29661 0.11441
 H264 H 0.48354 0.28714 0.16586
 C265 C 0.01251 0.76953 0.65548
 C266 C 0.01330 0.74267 0.64782
 C267 C -0.00181 0.73736 0.62933
 C268 C -0.01626 0.75917 0.61996
 C269 C 0.01923 0.78379 0.63335
 C270 C 0.00404 0.77848 0.61493
 C271 C -0.01523 0.77434 0.65935
 C272 C -0.03028 0.76867 0.64083
 H273 H 0.02629 0.72956 0.65489
 H274 H -0.02862 0.75497 0.60483
 H275 H 0.03437 0.79723 0.63232
 H276 H -0.02246 0.77958 0.67597
 C277 C 0.52155 0.73938 0.34655
 C278 C 0.52812 0.75937 0.36427
 C279 C 0.50995 0.76301 0.38007
 C280 C 0.48688 0.74620 0.37693
 C281 C 0.51489 0.71665 0.36098
 C282 C 0.49714 0.72043 0.37700
 C283 C 0.49638 0.74724 0.33596
 C284 C 0.47824 0.75084 0.35189
 H285 H 0.54530 0.77027 0.36365
 H286 H 0.47198 0.74849 0.38986
 H287 H 0.52448 0.69948 0.35961
 H288 H 0.49320 0.75081 0.31781
 Zr289 Zr 0.02356 -0.02120 1.02908
 O290 O 0.04848 -0.01379 1.05716
 O291 O 0.01833 -0.05913 1.03166
 O292 O 0.00656 -0.02750 1.06169
 O293 O 0.07024 -0.02190 0.98806
 O294 O -0.03146 -0.00951 1.05742
 O295 O 0.05950 -0.03590 1.02390
 O296 O -0.00916 -0.06857 1.00228
 O297 O -0.01452 -0.02641 1.02045
 O298 O 0.02180 -0.03154 0.99430
 O299 O 0.00688 0.01258 1.03522
 O300 O 0.04234 0.00709 1.01069
 Zr301 Zr -0.01590 0.02583 0.97164
 Zr302 Zr -0.03069 0.00764 1.02493
 Zr303 Zr 0.03862 -0.00303 0.97587
 Zr304 Zr -0.01598 -0.03529 0.98539
 O305 O 0.07102 0.01936 0.97112
 O306 O -0.05123 -0.05021 0.99549
 O307 O 0.00102 -0.00787 0.96516
 O308 O -0.03420 -0.00236 0.99015
 O309 O -0.01431 0.03659 1.00632
 O310 O 0.02217 0.03078 0.98025
 C311 C 0.00490 -0.07432 1.01962
 C312 C 0.07473 -0.03410 1.00676
 C313 C -0.01522 -0.02166 1.06910
 O314 O -0.06469 -0.01279 1.02788
 O315 O -0.06090 0.02897 1.01413
 O316 O -0.05070 0.04251 0.97797
 C317 C -0.06542 0.04117 0.99551
 O318 O 0.05001 0.04032 1.04306
 Zr319 Zr 0.02367 0.04016 1.01508
 O320 O -0.01076 0.06366 0.96867
 O321 O -0.03665 0.03430 1.05048
 O322 O 0.00938 0.06276 1.04123
 O323 O 0.05770 0.05723 1.00434
 O324 O 0.01426 0.07378 0.99964
 C325 C 0.00095 0.07924 0.98166
 O326 O -0.04261 0.01920 0.94478
 O327 O 0.04670 -0.03112 0.95230
 O328 O -0.00070 0.02864 0.93791
 O329 O 0.03688 0.00971 0.94166
 O330 O -0.00194 -0.05972 0.96064
 O331 O -0.03907 -0.03551 0.95509
 C332 C 0.02007 0.02088 0.92973
 H333 H 0.03049 -0.04694 0.99120
 H334 H -0.05200 -0.00417 0.98521
 H335 H 0.03060 0.04336 0.97051
 H336 H 0.00841 0.01709 1.05174
 H337 H -0.05249 -0.06713 0.98955
 H338 H -0.07438 -0.00521 1.04033
 H339 H -0.05337 0.03064 1.05711
 H340 H 0.01914 0.07838 1.04095
 H341 H -0.01265 -0.07475 0.96102
 H342 H 0.06339 -0.02715 0.94573
 H343 H 0.08081 0.01170 0.95879
 H344 H 0.05819 0.07403 1.01065
 H345 H -0.04733 -0.05179 0.95338
 H346 H -0.04567 0.03507 0.93693
 H347 H 0.05205 -0.02962 1.06485
 H348 H 0.05479 0.05740 1.04697
 Zr349 Zr 0.51916 0.47718 0.52488
 O350 O 0.54414 0.48701 0.55227
 O351 O 0.51535 0.43922 0.52940
 O352 O 0.50299 0.47195 0.55788
 O353 O 0.56559 0.47662 0.48373
 O354 O 0.46395 0.48771 0.55341
 O355 O 0.55568 0.46373 0.52012
 O356 O 0.48827 0.42740 0.50048
 O357 O 0.48130 0.46977 0.51678
 O358 O 0.51770 0.46516 0.49063
 O359 O 0.50082 0.51039 0.52974
 O360 O 0.53629 0.50558 0.50532
 Zr361 Zr 0.47679 0.51934 0.46590
 Zr362 Zr 0.46343 0.50310 0.52008
 Zr363 Zr 0.53299 0.49361 0.47105
 Zr364 Zr 0.48004 0.45931 0.48209
 O365 O 0.56441 0.51710 0.46555
 O366 O 0.44548 0.44320 0.49263
 O367 O 0.49562 0.48642 0.46061
 O368 O 0.46005 0.49135 0.48578
 O369 O 0.47806 0.53184 0.50005
 O370 O 0.51463 0.52666 0.47408
 C371 C 0.50234 0.42301 0.51816
 C372 C 0.57075 0.46545 0.50286
 C373 C 0.48113 0.47724 0.56546
 O374 O 0.43054 0.48119 0.52400
 O375 O 0.43243 0.52304 0.50885
 O376 O 0.44121 0.53482 0.47187
 C377 C 0.42703 0.53423 0.48986
 O378 O 0.54239 0.54101 0.53601
 Zr379 Zr 0.51583 0.53790 0.50834
 O380 O 0.47948 0.55696 0.46116
 O381 O 0.45622 0.53038 0.54474
 O382 O 0.50037 0.56080 0.53364
 O383 O 0.54872 0.55628 0.49656
 O384 O 0.50404 0.57019 0.49140
 C385 C 0.49013 0.57386 0.47332
 O386 O 0.45051 0.50962 0.43953
 O387 O 0.54211 0.46507 0.44833
 O388 O 0.49220 0.52229 0.43223
 O389 O 0.53082 0.50544 0.43664
 O390 O 0.49521 0.43420 0.45858
 O391 O 0.45713 0.45685 0.45175
 C392 C 0.51363 0.51572 0.42446
 H393 H 0.52708 0.45003 0.48816
 H394 H 0.44228 0.48853 0.48109
 H395 H 0.52232 0.53926 0.46388
 H396 H 0.50230 0.51578 0.54602
 H397 H 0.44505 0.42605 0.48724
 H398 H 0.42050 0.48890 0.53613
 H399 H 0.43969 0.52627 0.55154
 H400 H 0.50903 0.57696 0.53248
 H401 H 0.48506 0.41884 0.45959
 H402 H 0.55860 0.46947 0.44157
 H403 H 0.57459 0.50941 0.45351
 H404 H 0.54811 0.57341 0.50193
 H405 H 0.44964 0.44018 0.45061
 H406 H 0.44637 0.52485 0.43103
 H407 H 0.54845 0.47178 0.56071
 H408 H 0.54612 0.55849 0.53909
 Zr409 Zr 0.47194 0.99384 0.54627
 O410 O 0.44257 0.97921 0.56675
 O411 O 0.47829 1.02809 0.56135
 O412 O 0.48458 0.98822 0.58086
 O413 O 0.43363 1.01333 0.50128
 O414 O 0.51901 0.96458 0.57703
 O415 O 0.43814 1.01329 0.54058
 O416 O 0.51274 1.04268 0.54233
 O417 O 0.51124 0.99664 0.54550
 O418 O 0.48096 1.01566 0.51760
 O419 O 0.48468 0.95780 0.54386
 O420 O 0.45514 0.97610 0.51744
 Zr421 Zr 0.51790 0.96488 0.48386
 Zr422 Zr 0.52379 0.96101 0.54126
 Zr423 Zr 0.46618 0.99741 0.48890
 Zr424 Zr 0.51989 1.01739 0.51623
 O425 O 0.43434 0.98221 0.47154
 O426 O 0.55385 1.02328 0.53517
 O427 O 0.50527 1.00104 0.48605
 O428 O 0.53431 0.98248 0.51275
 O429 O 0.50913 0.94260 0.51239
 O430 O 0.47873 0.96196 0.48484
 C431 C 0.49552 1.04434 0.55756
 C432 C 0.42608 1.01858 0.52164
 C433 C 0.50317 0.97608 0.58925
 O434 O 0.55757 0.97499 0.55621
 O435 O 0.55447 0.94169 0.52871
 O436 O 0.55058 0.94406 0.48940
 C437 C 0.56203 0.93719 0.50813
 O438 O 0.43870 0.93465 0.53567
 Zr439 Zr 0.47004 0.94111 0.51398
 O440 O 0.51158 0.93053 0.46913
 O441 O 0.52297 0.92577 0.55654
 O442 O 0.47694 0.90897 0.53356
 O443 O 0.43779 0.93289 0.49330
 O444 O 0.48026 0.91365 0.49087
 C445 C 0.49666 0.91280 0.47480
 O446 O 0.54851 0.97850 0.46430
 O447 O 0.46432 1.03348 0.47560
 O448 O 0.50739 0.97350 0.44916
 O449 O 0.47399 0.99832 0.45356
 O450 O 0.51229 1.05111 0.49954
 O451 O 0.54816 1.02599 0.49174
 C452 C 0.49024 0.98772 0.44113
 H453 H 0.47400 1.03224 0.51838
 H454 H 0.55277 0.98390 0.51138
 H455 H 0.47137 0.95447 0.47067
 H456 H 0.47971 0.94802 0.55760
 H457 H 0.55726 1.04114 0.53555
 H458 H 0.56420 0.96204 0.56654
 H459 H 0.53827 0.92464 0.56640
 H460 H 0.46643 0.89560 0.52680
 H461 H 0.52334 1.06378 0.50679
 H462 H 0.44907 1.03418 0.46561
 H463 H 0.42767 0.99519 0.46127
 H464 H 0.43506 0.91493 0.49376
 H465 H 0.55716 1.04125 0.49634
 H466 H 0.55224 0.96596 0.45259
 H467 H 0.43860 0.99184 0.57828
 H468 H 0.43193 0.91787 0.53317
 Zr469 Zr -0.02851 0.49512 1.04788
 O470 O -0.05701 0.47956 1.06880
 O471 O -0.02333 0.52966 1.06258
 O472 O -0.01512 0.49051 1.08228
 O473 O -0.06858 0.51226 1.00337
 O474 O 0.02055 0.46869 1.07840
 O475 O -0.06299 0.51353 1.04258
 O476 O 0.00996 0.54551 1.04270
 O477 O 0.01066 0.49937 1.04654
 O478 O -0.02084 0.51691 1.01888
 O479 O -0.01434 0.45958 1.04577
 O480 O -0.04512 0.47643 1.01954
 Zr481 Zr 0.01748 0.46717 0.98524
 Zr482 Zr 0.02461 0.46420 1.04257
 Zr483 Zr -0.03542 0.49781 0.99064
 Zr484 Zr 0.01801 0.52006 1.01697
 O485 O -0.06686 0.48132 0.97367
 O486 O 0.05187 0.52741 1.03561
 O487 O 0.00348 0.50283 0.98719
 O488 O 0.03376 0.48568 1.01366
 O489 O 0.01014 0.44488 1.01410
 O490 O -0.02155 0.46287 0.98683
 C491 C -0.00705 0.54664 1.05820
 C492 C -0.07575 0.51775 1.02379
 C493 C 0.00434 0.47971 1.09064
 O494 O 0.05833 0.47942 1.05656
 O495 O 0.05569 0.44558 1.02969
 O496 O 0.05069 0.44714 0.99044
 C497 C 0.06279 0.44085 1.00900
 O498 O -0.05916 0.43431 1.03890
 Zr499 Zr -0.02886 0.44201 1.01630
 O500 O 0.01163 0.43286 0.97033
 O501 O 0.02526 0.42936 1.05862
 O502 O -0.01976 0.41028 1.03565
 O503 O -0.06155 0.43257 0.99668
 O504 O -0.01866 0.41506 0.99266
 C505 C -0.00291 0.41484 0.97601
 O506 O 0.04750 0.48156 0.96537
 O507 O -0.03902 0.53365 0.97715
 O508 O 0.00635 0.47527 0.95065
 O509 O -0.02813 0.49863 0.95518
 O510 O 0.00903 0.55321 0.99986
 O511 O 0.04567 0.52932 0.99208
 C512 C -0.01152 0.48865 0.94268
 H513 H -0.02845 0.53321 1.01956
 H514 H 0.05214 0.48767 1.01197
 H515 H -0.02895 0.45507 0.97284
 H516 H -0.01865 0.44985 1.05972
 H517 H 0.05456 0.54538 1.03578
 H518 H 0.06555 0.46692 1.06704
 H519 H 0.04082 0.42894 1.06819
 H520 H -0.02983 0.39645 1.02917
 H521 H 0.01972 0.56634 1.00681
 H522 H -0.05444 0.53365 0.96736
 H523 H -0.07422 0.49398 0.96345
 H524 H -0.06364 0.41455 0.99731
 H525 H 0.05432 0.54481 0.99655
 H526 H 0.05146 0.46912 0.95364
 H527 H -0.06130 0.49209 1.08032
 H528 H -0.06506 0.41718 1.03680
 Zr529 Zr -0.02610 0.49278 0.47726
 O530 O -0.05141 0.50595 0.45177
 O531 O -0.02178 0.45671 0.46687
 O532 O -0.00921 0.49360 0.44402
 O533 O -0.07022 0.47861 0.51908
 O534 O 0.02772 0.51425 0.45081
 O535 O -0.06211 0.47575 0.48057
 O536 O 0.00789 0.44206 0.49188
 O537 O 0.01245 0.48871 0.48311
 O538 O -0.02202 0.47389 0.50867
 O539 O -0.01081 0.52852 0.47795
 O540 O -0.04422 0.51391 0.50223
 Zr541 Zr 0.01565 0.52675 0.54195
 Zr542 Zr 0.02732 0.52428 0.48560
 Zr543 Zr -0.03803 0.49538 0.53363
 Zr544 Zr 0.01632 0.47094 0.51488
 O545 O -0.07039 0.51311 0.54516
 O546 O 0.05051 0.46191 0.49909
 O547 O 0.00017 0.49091 0.54150
 O548 O 0.03337 0.50576 0.51692
 O549 O 0.01148 0.54607 0.51078
 O550 O -0.02293 0.53059 0.53600
 C551 C -0.00782 0.43967 0.47485
 C552 C -0.07620 0.47207 0.49837
 C553 C 0.01233 0.50237 0.43754
 O554 O 0.06272 0.50944 0.47856
 O555 O 0.05546 0.54759 0.49895
 O556 O 0.04955 0.54775 0.53798
 C557 C 0.06140 0.55450 0.51953
 O558 O -0.05449 0.55459 0.47821
 Zr559 Zr -0.02687 0.54871 0.50444
 O560 O 0.00963 0.56190 0.55376
 O561 O 0.03009 0.55600 0.46453
 O562 O -0.01385 0.57860 0.48404
 O563 O -0.06096 0.55950 0.51937
 O564 O -0.01794 0.57765 0.52735
 C565 C -0.00383 0.57919 0.54562
 O566 O 0.04364 0.51459 0.56541
 O567 O -0.04399 0.46110 0.55012
 O568 O 0.00110 0.52176 0.57584
 O569 O -0.03436 0.49847 0.56953
 O570 O 0.00477 0.44022 0.53493
 O571 O 0.04247 0.46440 0.54222
 C572 C -0.01840 0.50950 0.58288
 H573 H -0.03048 0.45762 0.50883
 H574 H 0.05151 0.50445 0.52053
 H575 H -0.03129 0.53950 0.54847
 H576 H -0.01334 0.53674 0.46280
 H577 H 0.05237 0.44400 0.50066
 H578 H 0.07114 0.52072 0.46750
 H579 H 0.04673 0.55585 0.45711
 H580 H -0.02357 0.59305 0.48837
 H581 H 0.01511 0.42626 0.53039
 H582 H -0.06027 0.46179 0.55813
 H583 H -0.07913 0.50157 0.55578
 H584 H -0.06211 0.57743 0.51729
 H585 H 0.05071 0.44864 0.53962
 H586 H 0.04706 0.52811 0.57643
 H587 H -0.05541 0.49213 0.44124
 H588 H -0.05910 0.57201 0.47807
 Zr589 Zr 0.47214 -0.00893 -0.02454
 O590 O 0.44954 0.00537 -0.05160
 O591 O 0.47390 -0.04569 -0.03358
 O592 O 0.49085 -0.01024 -0.05685
 O593 O 0.42356 -0.01559 0.01439
 O594 O 0.52927 0.00685 -0.04850
 O595 O 0.43483 -0.02332 -0.02275
 O596 O 0.49935 -0.06209 -0.00576
 O597 O 0.50944 -0.01683 -0.01594
 O598 O 0.47169 -0.02645 0.00777
 O599 O 0.49138 0.02504 -0.02412
 O600 O 0.45469 0.01539 -0.00189
 Zr601 Zr 0.51238 0.02409 0.04133
 Zr602 Zr 0.52809 0.01710 -0.01374
 Zr603 Zr 0.45634 -0.00197 0.03056
 Zr604 Zr 0.50879 -0.03310 0.01677
 O605 O 0.42561 0.01977 0.03938
 O606 O 0.54304 -0.04657 0.00438
 O607 O 0.49306 -0.01000 0.04122
 O608 O 0.52943 -0.00017 0.01864
 O609 O 0.51299 0.04201 0.00921
 O610 O 0.47508 0.03162 0.03261
 C611 C 0.48526 -0.06366 -0.02400
 C612 C 0.41897 -0.02388 -0.00602
 C613 C 0.51335 -0.00337 -0.06248
 O614 O 0.56100 -0.00295 -0.01902
 O615 O 0.55906 0.03539 0.00132
 O616 O 0.54814 0.04191 0.03877
 C617 C 0.56338 0.04399 0.02164
 O618 O 0.45129 0.05568 -0.02833
 Zr619 Zr 0.47572 0.04828 0.00015
 O620 O 0.50918 0.06030 0.05147
 O621 O 0.53682 0.04827 -0.03421
 O622 O 0.49346 0.07577 -0.02028
 O623 O 0.44190 0.06319 0.01202
 O624 O 0.48582 0.07734 0.02246
 C625 C 0.49834 0.07843 0.04168
 O626 O 0.53743 0.01059 0.06688
 O627 O 0.44503 -0.03467 0.04765
 O628 O 0.49528 0.02171 0.07434
 O629 O 0.45788 0.00221 0.06649
 O630 O 0.49210 -0.06149 0.03687
 O631 O 0.53145 -0.04089 0.04637
 C632 C 0.47419 0.01172 0.08052
 H633 H 0.46162 -0.04185 0.00792
 H634 H 0.54692 -0.00333 0.02361
 H635 H 0.46686 0.04195 0.04412
 H636 H 0.49095 0.03285 -0.03962
 H637 H 0.54268 -0.06451 0.00679
 H638 H 0.57171 0.00684 -0.02965
 H639 H 0.55363 0.04573 -0.04076
 H640 H 0.48501 0.09135 -0.01725
 H641 H 0.50114 -0.07670 0.03367
 H642 H 0.42842 -0.03178 0.05447
 H643 H 0.41488 0.00974 0.04978
 H644 H 0.44287 0.08107 0.00926
 H645 H 0.53795 -0.05763 0.04516
 H646 H 0.54141 0.02429 0.07756
 H647 H 0.44497 -0.00846 -0.06195
 H648 H 0.44836 0.07346 -0.02928
 Zr649 Zr 0.53348 0.51672 -0.04135
 O650 O 0.56001 0.51045 -0.06743
 O651 O 0.52412 0.55318 -0.04858
 O652 O 0.51735 0.51646 -0.07539
 O653 O 0.57932 0.52482 0.00149
 O654 O 0.48175 0.49293 -0.07128
 O655 O 0.56837 0.53572 -0.03541
 O656 O 0.49506 0.56139 -0.02132
 O657 O 0.49500 0.51822 -0.03449
 O658 O 0.53035 0.52998 -0.00766
 O659 O 0.51937 0.48061 -0.04485
 O660 O 0.55345 0.49216 -0.01984
 Zr661 Zr 0.49579 0.47069 0.01868
 Zr662 Zr 0.48132 0.48224 -0.03653
 Zr663 Zr 0.54828 0.50481 0.01383
 Zr664 Zr 0.49233 0.53019 -0.00036
 O665 O 0.58190 0.48652 0.02193
 O666 O 0.45566 0.53996 -0.01115
 O667 O 0.51040 0.50660 0.02290
 O668 O 0.47644 0.49520 -0.00295
 O669 O 0.49897 0.45708 -0.01491
 O670 O 0.53420 0.46897 0.01180
 C671 C 0.50804 0.56708 -0.03917
 C672 C 0.58360 0.53603 -0.01771
 C673 C 0.49750 0.50529 -0.08352
 O674 O 0.44742 0.50019 -0.04413
 O675 O 0.45129 0.46039 -0.02471
 O676 O 0.46045 0.45238 0.01321
 C677 C 0.44600 0.45079 -0.00496
 O678 O 0.56519 0.45756 -0.04788
 Zr679 Zr 0.53729 0.45685 -0.02197
 O680 O 0.50105 0.43316 0.02280
 O681 O 0.47683 0.45123 -0.05798
 O682 O 0.52648 0.43105 -0.04769
 O683 O 0.57126 0.44387 -0.00737
 O684 O 0.52793 0.42338 -0.00589
 C685 C 0.51321 0.41779 0.01083
 O686 O 0.46997 0.47731 0.04529
 O687 O 0.55364 0.53596 0.03498
 O688 O 0.51233 0.47037 0.05254
 O689 O 0.54725 0.49483 0.04873
 O690 O 0.50510 0.55914 0.02132
 O691 O 0.46994 0.53094 0.02975
 C692 C 0.53226 0.48137 0.06076
 H693 H 0.53782 0.54659 -0.00586
 H694 H 0.45852 0.49601 0.00114
 H695 H 0.54302 0.45791 0.02267
 H696 H 0.52191 0.47432 -0.06063
 H697 H 0.45315 0.55708 -0.00639
 H698 H 0.43814 0.49003 -0.05568
 H699 H 0.46029 0.45250 -0.06592
 H700 H 0.53748 0.41678 -0.04589
 H701 H 0.49347 0.57285 0.01901
 H702 H 0.57037 0.53459 0.04254
 H703 H 0.59095 0.49635 0.03386
 H704 H 0.57277 0.42662 -0.01215
 H705 H 0.46167 0.54691 0.03071
 H706 H 0.46742 0.46171 0.05390
 H707 H 0.56224 0.52598 -0.07621
 H708 H 0.57201 0.44100 -0.04961
 Zr709 Zr 0.02912 1.01805 0.46141
 O710 O 0.05487 1.01118 0.43482
 O711 O 0.01950 1.05428 0.45350
 O712 O 0.01199 1.01662 0.42772
 O713 O 0.07591 1.02756 0.50317
 O714 O -0.02341 0.99332 0.43339
 O715 O 0.06426 1.03709 0.46610
 O716 O -0.00835 1.06354 0.48149
 O717 O -0.00920 1.01954 0.46899
 O718 O 0.02665 1.03240 0.49477
 O719 O 0.01527 0.98173 0.45926
 O720 O 0.04970 0.99439 0.48334
 Zr721 Zr -0.00677 0.97373 0.52364
 Zr722 Zr -0.02253 0.98336 0.46835
 Zr723 Zr 0.04517 1.00814 0.51673
 Zr724 Zr -0.01120 1.03260 0.50281
 O725 O 0.07907 0.99042 0.52502
 O726 O -0.04791 1.04186 0.49170
 O727 O 0.00752 1.00992 0.52648
 O728 O -0.02678 0.99737 0.50161
 O729 O -0.00425 0.95897 0.49040
 O730 O 0.03146 0.97218 0.51599
 C731 C 0.00420 1.06875 0.46326
 C732 C 0.07987 1.03792 0.48352
 C733 C -0.00820 1.00539 0.42035
 O734 O -0.05700 1.00049 0.46115
 O735 O -0.05187 0.96147 0.48130
 O736 O -0.04188 0.95464 0.51924
 C737 C -0.05665 0.95236 0.50134
 O738 O 0.06071 0.95853 0.45571
 Zr739 Zr 0.03388 0.95890 0.48255
 O740 O -0.00036 0.93659 0.52926
 O741 O -0.02705 0.95184 0.44757
 O742 O 0.02201 0.93189 0.45837
 O743 O 0.06878 0.94728 0.49631
 O744 O 0.02630 0.92617 0.50060
 C745 C 0.01240 0.92105 0.51803
 O746 O -0.03227 0.98115 0.55031
 O747 O 0.05078 1.04016 0.53663
 O748 O 0.01047 0.97460 0.55727
 O749 O 0.04482 0.99946 0.55196
 O750 O 0.00175 1.06187 0.52401
 O751 O -0.03361 1.03435 0.53284
 C752 C 0.03050 0.98605 0.56472
 H753 H 0.03412 1.04907 0.49598
 H754 H -0.04462 0.99812 0.50598
 H755 H 0.04078 0.96168 0.52700
 H756 H 0.01738 0.97498 0.44359
 H757 H -0.05043 1.05919 0.49573
 H758 H -0.06636 0.98995 0.44997
 H759 H -0.04393 0.95253 0.44020
 H760 H 0.03305 0.91768 0.46042
 H761 H -0.00981 1.07561 0.52155
 H762 H 0.06763 1.03912 0.54401
 H763 H 0.08824 1.00077 0.53648
 H764 H 0.07053 0.92988 0.49213
 H765 H -0.04203 1.05028 0.53322
 H766 H -0.03448 0.96589 0.55950
 H767 H 0.05674 1.02649 0.42563
 H768 H 0.06716 0.94181 0.45411
 Zr769 Zr 0.73653 0.28500 0.20688
 O770 O 0.74906 0.30907 0.18042
 O771 O 0.69750 0.28486 0.20167
 O772 O 0.73080 0.27009 0.17341
 O773 O 0.73886 0.32931 0.24916
 O774 O 0.74504 0.23119 0.17718
 O775 O 0.72479 0.32128 0.21248
 O776 O 0.68293 0.25851 0.22936
 O777 O 0.72676 0.24823 0.21332
 O778 O 0.72323 0.28320 0.24070
 O779 O 0.76970 0.26542 0.20257
 O780 O 0.76580 0.29965 0.22799
 Zr781 Zr 0.77593 0.24001 0.26584
 Zr782 Zr 0.76021 0.22904 0.21080
 Zr783 Zr 0.75246 0.29592 0.26176
 Zr784 Zr 0.71481 0.24660 0.24750
 O785 O 0.77877 0.32387 0.27081
 O786 O 0.69667 0.21490 0.23383
 O787 O 0.74279 0.25961 0.27029
 O788 O 0.74692 0.22565 0.24457
 O789 O 0.78974 0.24152 0.23215
 O790 O 0.78558 0.27667 0.25934
 C791 C 0.67971 0.27374 0.21260
 C792 C 0.72781 0.33549 0.23011
 C793 C 0.73523 0.24867 0.16545
 O794 O 0.73655 0.19801 0.20531
 O795 O 0.77895 0.19736 0.22173
 O796 O 0.79023 0.20507 0.25922
 C797 C 0.78966 0.19151 0.24105
 O798 O 0.80295 0.30470 0.19855
 Zr799 Zr 0.79789 0.27825 0.22529
 O800 O 0.81475 0.24090 0.27184
 O801 O 0.78854 0.22161 0.18674
 O802 O 0.82154 0.26316 0.20016
 O803 O 0.81780 0.30903 0.23887
 O804 O 0.82988 0.26480 0.24248
 C805 C 0.83276 0.25082 0.26027
 O806 O 0.76438 0.21375 0.29083
 O807 O 0.72249 0.30738 0.28247
 O808 O 0.77718 0.25311 0.30038
 O809 O 0.75978 0.29069 0.29704
 O810 O 0.68990 0.26137 0.27174
 O811 O 0.70950 0.22248 0.27608
 C812 C 0.76844 0.27283 0.30902
 H813 H 0.70839 0.29332 0.24321
 H814 H 0.74300 0.20839 0.24860
 H815 H 0.79835 0.28309 0.27047
 H816 H 0.77574 0.26699 0.18650
 H817 H 0.67880 0.21537 0.23825
 H818 H 0.74423 0.18836 0.19292
 H819 H 0.78378 0.20591 0.17927
 H820 H 0.83836 0.27105 0.20199
 H821 H 0.67341 0.25286 0.26970
 H822 H 0.72806 0.32272 0.29019
 H823 H 0.77083 0.33379 0.28283
 H824 H 0.83547 0.30790 0.23397
 H825 H 0.69206 0.21588 0.27575
 H826 H 0.77959 0.20885 0.29967
 H827 H 0.73396 0.31460 0.17180
 H828 H 0.82110 0.30807 0.19645
 Zr829 Zr 0.75416 0.72424 0.71754
 O830 O 0.73935 0.69400 0.69879
 O831 O 0.78715 0.73229 0.69944
 O832 O 0.74505 0.73442 0.68301
 O833 O 0.77967 0.69061 0.76255
 O834 O 0.71932 0.76684 0.68702
 O835 O 0.77537 0.69210 0.72327
 O836 O 0.80012 0.76861 0.71511
 O837 O 0.75448 0.76252 0.71687
 O838 O 0.77857 0.73589 0.74411
 O839 O 0.71665 0.73450 0.72185
 O840 O 0.73954 0.70875 0.74820
 Zr841 Zr 0.72677 0.77076 0.78001
 Zr842 Zr 0.71764 0.77274 0.72283
 Zr843 Zr 0.76317 0.72235 0.77466
 Zr844 Zr 0.77775 0.77388 0.74413
 O845 O 0.75158 0.69163 0.79460
 O846 O 0.78035 0.80715 0.72518
 O847 O 0.76447 0.76062 0.77593
 O848 O 0.74137 0.78592 0.74934
 O849 O 0.70206 0.75924 0.75347
 O850 O 0.72640 0.73252 0.78053
 C851 C 0.80155 0.75143 0.70018
 C852 C 0.78274 0.68167 0.74230
 C853 C 0.73129 0.75162 0.67469
 O854 O 0.72846 0.80571 0.70601
 O855 O 0.69680 0.80177 0.73547
 O856 O 0.70345 0.80145 0.77453
 C857 C 0.69395 0.81071 0.75578
 O858 O 0.69623 0.68936 0.73314
 Zr859 Zr 0.70305 0.72114 0.75340
 O860 O 0.69349 0.76310 0.79751
 O861 O 0.68058 0.76873 0.70960
 O862 O 0.66797 0.72549 0.73626
 O863 O 0.69873 0.69005 0.77522
 O864 O 0.67681 0.72994 0.77872
 C865 C 0.67628 0.74664 0.79424
 O866 O 0.74057 0.80214 0.79766
 O867 O 0.80142 0.72377 0.78504
 O868 O 0.73848 0.76242 0.81446
 O869 O 0.76633 0.73184 0.80964
 O870 O 0.81455 0.76845 0.75733
 O871 O 0.78715 0.80230 0.76779
 C872 C 0.75470 0.74706 0.82221
 H873 H 0.79581 0.72997 0.74208
 H874 H 0.74178 0.80399 0.74989
 H875 H 0.72046 0.72554 0.79537
 H876 H 0.70585 0.72837 0.70897
 H877 H 0.79840 0.81158 0.72379
 H878 H 0.71399 0.81077 0.69628
 H879 H 0.67762 0.78304 0.69941
 H880 H 0.65548 0.71496 0.74434
 H881 H 0.82599 0.77954 0.74862
 H882 H 0.80413 0.70959 0.79547
 H883 H 0.76630 0.68662 0.80403
 H884 H 0.68052 0.68615 0.77615
 H885 H 0.80271 0.81090 0.76279
 H886 H 0.72852 0.80559 0.81008
 H887 H 0.75160 0.69033 0.68660
 H888 H 0.67942 0.68237 0.73667
 Zr889 Zr 0.24055 0.22195 0.77915
 O890 O 0.24793 0.19892 0.80792
 O891 O 0.20149 0.22434 0.78013
 O892 O 0.23291 0.23904 0.81126
 O893 O 0.24311 0.17524 0.73906
 O894 O 0.25042 0.27717 0.80692
 O895 O 0.22658 0.18577 0.77368
 O896 O 0.19168 0.24942 0.74979
 O897 O 0.23430 0.25836 0.76954
 O898 O 0.23091 0.22187 0.74391
 O899 O 0.27450 0.24089 0.78638
 O900 O 0.27065 0.20533 0.76236
 Zr901 Zr 0.28917 0.26235 0.72286
 Zr902 Zr 0.26863 0.27674 0.77509
 Zr903 Zr 0.26126 0.20723 0.72705
 Zr904 Zr 0.22608 0.25806 0.73410
 O905 O 0.28542 0.17731 0.72390
 O906 O 0.20942 0.29152 0.74280
 O907 O 0.25532 0.24309 0.71534
 O908 O 0.25917 0.27845 0.73987
 O909 O 0.29925 0.26249 0.75804
 O910 O 0.29525 0.22596 0.73255
 C911 C 0.18580 0.23595 0.76728
 C912 C 0.22988 0.17054 0.75705
 C913 C 0.23825 0.26085 0.81858
 O914 O 0.24671 0.30845 0.77629
 O915 O 0.29066 0.30701 0.76493
 O916 O 0.30451 0.29802 0.72895
 C917 C 0.30310 0.31228 0.74661
 O918 O 0.30394 0.20119 0.79620
 Zr919 Zr 0.30382 0.22609 0.76781
 O920 O 0.32828 0.26043 0.72223
 O921 O 0.29492 0.28526 0.80180
 O922 O 0.32574 0.24238 0.79473
 O923 O 0.32269 0.19403 0.75839
 O924 O 0.33844 0.23744 0.75397
 C925 C 0.34415 0.25049 0.73616
 O926 O 0.28256 0.28677 0.69496
 O927 O 0.23321 0.19674 0.70253
 O928 O 0.29349 0.24632 0.68964
 O929 O 0.27539 0.20833 0.69350
 O930 O 0.20210 0.24179 0.70868
 O931 O 0.22592 0.27962 0.70336
 C932 C 0.28665 0.22511 0.68170
 H933 H 0.21548 0.21217 0.74032
 H934 H 0.25691 0.29551 0.73456
 H935 H 0.30873 0.21847 0.72358
 H936 H 0.27876 0.24021 0.80310
 H937 H 0.19218 0.29127 0.73614
 H938 H 0.25394 0.31885 0.78879
 H939 H 0.29057 0.30150 0.80786
 H940 H 0.34200 0.23396 0.79547
 H941 H 0.18633 0.25104 0.70825
 H942 H 0.23779 0.18053 0.69655
 H943 H 0.27815 0.16669 0.71160
 H944 H 0.33971 0.19493 0.76551
 H945 H 0.20898 0.28625 0.70075
 H946 H 0.29901 0.29052 0.68777
 H947 H 0.23152 0.19456 0.81491
 H948 H 0.32147 0.19788 0.80093
 Zr949 Zr 0.25321 0.79112 0.28641
 O950 O 0.23485 0.81496 0.30895
 O951 O 0.29003 0.79216 0.29987
 O952 O 0.25161 0.77649 0.32063
 O953 O 0.26073 0.83500 0.24323
 O954 O 0.23574 0.73783 0.31522
 O955 O 0.26638 0.82775 0.28189
 O956 O 0.31057 0.76747 0.27511
 O957 O 0.26461 0.75497 0.28254
 O958 O 0.27356 0.79010 0.25574
 O959 O 0.21982 0.76983 0.28484
 O960 O 0.22876 0.80395 0.26000
 Zr961 Zr 0.22780 0.74370 0.22237
 Zr962 Zr 0.23140 0.73407 0.27935
 Zr963 Zr 0.24917 0.80104 0.22943
 Zr964 Zr 0.28371 0.75412 0.25125
 O965 O 0.22521 0.82852 0.21669
 O966 O 0.29929 0.72325 0.26798
 O967 O 0.26104 0.76536 0.22333
 O968 O 0.25189 0.73134 0.24889
 O969 O 0.20687 0.74446 0.25274
 O970 O 0.21638 0.77978 0.22640
 C971 C 0.30983 0.78192 0.29251
 C972 C 0.26765 0.84164 0.26371
 C973 C 0.24345 0.75552 0.32816
 O974 O 0.25482 0.70586 0.29144
 O975 O 0.21793 0.70071 0.26594
 O976 O 0.21369 0.70729 0.22704
 C977 C 0.21181 0.69373 0.24539
 O978 O 0.18557 0.80737 0.28122
 Zr979 Zr 0.19684 0.78069 0.25718
 O980 O 0.19105 0.74147 0.20978
 O981 O 0.19768 0.72380 0.29608
 O982 O 0.16862 0.76451 0.27818
 O983 O 0.17934 0.80978 0.23921
 O984 O 0.16941 0.76436 0.23517
 C985 C 0.17067 0.74992 0.21773
 O986 O 0.24593 0.71928 0.20022
 O987 O 0.28286 0.81257 0.21330
 O988 O 0.23083 0.75791 0.18809
 O989 O 0.24653 0.79657 0.19351
 O990 O 0.31334 0.77073 0.23225
 O991 O 0.29556 0.73060 0.22463
 C992 C 0.23903 0.77887 0.18047
 H993 H 0.28875 0.80083 0.25588
 H994 H 0.25711 0.71438 0.24613
 H995 H 0.20578 0.78549 0.21332
 H996 H 0.21017 0.77123 0.29925
 H997 H 0.31779 0.72497 0.26701
 H998 H 0.24454 0.69534 0.30181
 H999 H 0.20101 0.70863 0.30497
 H1000 H 0.15228 0.77102 0.27293
 H1001 H 0.32920 0.76328 0.23758
 H1002 H 0.27924 0.82787 0.20473
 H1003 H 0.23529 0.83887 0.20602
 H1004 H 0.16096 0.80723 0.24064
 H1005 H 0.31297 0.72552 0.22792
 H1006 H 0.23306 0.71312 0.18900
 H1007 H 0.24770 0.82119 0.32015
 H1008 H 0.16718 0.80933 0.28004
 Zr1009 Zr 0.22951 0.77493 0.71585
 O1010 O 0.23968 0.79883 0.68840
 O1011 O 0.19021 0.77520 0.71372
 O1012 O 0.22107 0.75993 0.68268
 O1013 O 0.23520 0.81935 0.75808
 O1014 O 0.23508 0.72091 0.68583
 O1015 O 0.21891 0.81137 0.72212
 O1016 O 0.17771 0.74919 0.74254
 O1017 O 0.21994 0.73831 0.72312
 O1018 O 0.21927 0.77347 0.75066
 O1019 O 0.26198 0.75512 0.70918
 O1020 O 0.26056 0.78951 0.73481
 Zr1021 Zr 0.27334 0.72994 0.77181
 Zr1022 Zr 0.25288 0.71889 0.71822
 Zr1023 Zr 0.25028 0.78610 0.76961
 Zr1024 Zr 0.21103 0.73699 0.75814
 O1025 O 0.27712 0.81446 0.77573
 O1026 O 0.19148 0.70542 0.74587
 O1027 O 0.24099 0.74987 0.77884
 O1028 O 0.24251 0.71567 0.75285
 O1029 O 0.28421 0.73127 0.73723
 O1030 O 0.28278 0.76651 0.76461
 C1031 C 0.17329 0.76443 0.72603
 C1032 C 0.22305 0.82556 0.73959
 C1033 C 0.22470 0.73837 0.67456
 O1034 O 0.22865 0.68796 0.71469
 O1035 O 0.27254 0.68730 0.72763
 O1036 O 0.28749 0.69528 0.76402
 C1037 C 0.28531 0.68173 0.74592
 O1038 O 0.29486 0.79436 0.70276
 Zr1039 Zr 0.29208 0.76788 0.72973
 O1040 O 0.31247 0.73110 0.77542
 O1041 O 0.27881 0.71109 0.69202
 O1042 O 0.31327 0.75267 0.70283
 O1043 O 0.31361 0.79838 0.74177
 O1044 O 0.32522 0.75392 0.74443
 C1045 C 0.32953 0.74047 0.76234
 O1046 O 0.26415 0.70333 0.79729
 O1047 O 0.22261 0.79694 0.79313
 O1048 O 0.27666 0.74272 0.80621
 O1049 O 0.26247 0.78175 0.80410
 O1050 O 0.18825 0.75184 0.78408
 O1051 O 0.20832 0.71312 0.78722
 C1052 C 0.27096 0.76326 0.81532
 H1053 H 0.20480 0.78371 0.75427
 H1054 H 0.23890 0.69844 0.75720
 H1055 H 0.29654 0.77291 0.77472
 H1056 H 0.26665 0.75659 0.69270
 H1057 H 0.17412 0.70600 0.75171
 H1058 H 0.23511 0.67818 0.70179
 H1059 H 0.27331 0.69535 0.68502
 H1060 H 0.33023 0.76046 0.70341
 H1061 H 0.17177 0.74310 0.78344
 H1062 H 0.22866 0.81250 0.80014
 H1063 H 0.27044 0.82457 0.78827
 H1064 H 0.33072 0.79699 0.73550
 H1065 H 0.19104 0.70619 0.78802
 H1066 H 0.28004 0.69862 0.80512
 H1067 H 0.22390 0.80437 0.68092
 H1068 H 0.31275 0.79758 0.69921
 Zr1069 Zr 0.25675 0.23206 0.21709
 O1070 O 0.24203 0.20308 0.19659
 O1071 O 0.29038 0.24054 0.20010
 O1072 O 0.24829 0.24392 0.18292
 O1073 O 0.27873 0.19477 0.26107
 O1074 O 0.22341 0.27680 0.18790
 O1075 O 0.27696 0.19912 0.22178
 O1076 O 0.30339 0.27590 0.21764
 O1077 O 0.25800 0.27032 0.21833
 O1078 O 0.28064 0.24158 0.24477
 O1079 O 0.21939 0.24300 0.22106
 O1080 O 0.24076 0.21532 0.24657
 Zr1081 Zr 0.22855 0.27568 0.28115
 Zr1082 Zr 0.22129 0.28113 0.22393
 Zr1083 Zr 0.26392 0.22681 0.27424
 Zr1084 Zr 0.28071 0.27956 0.24670
 O1085 O 0.25110 0.19570 0.29302
 O1086 O 0.28482 0.31404 0.23001
 O1087 O 0.26611 0.26490 0.27745
 O1088 O 0.24450 0.29216 0.25166
 O1089 O 0.20439 0.26631 0.25347
 O1090 O 0.22726 0.23750 0.27975
 C1091 C 0.30486 0.25955 0.20190
 C1092 C 0.28242 0.18708 0.24047
 C1093 C 0.23499 0.26170 0.17510
 O1094 O 0.23383 0.31442 0.20875
 O1095 O 0.20132 0.31035 0.23741
 O1096 O 0.20596 0.30701 0.27660
 C1097 C 0.19777 0.31791 0.25812
 O1098 O 0.19735 0.19795 0.22940
 Zr1099 Zr 0.20448 0.22824 0.25152
 O1100 O 0.19468 0.26759 0.29763
 O1101 O 0.18440 0.27907 0.20999
 O1102 O 0.16998 0.23453 0.23397
 O1103 O 0.19899 0.19593 0.27146
 O1104 O 0.17784 0.23591 0.27677
 C1105 C 0.17730 0.25157 0.29323
 O1106 O 0.24231 0.30586 0.30061
 O1107 O 0.30204 0.22633 0.28499
 O1108 O 0.23931 0.26537 0.31540
 O1109 O 0.26669 0.23459 0.30962
 O1110 O 0.31704 0.27224 0.26010
 O1111 O 0.29020 0.30608 0.27222
 C1112 C 0.25514 0.24939 0.32270
 H1113 H 0.29775 0.23530 0.24277
 H1114 H 0.24539 0.31016 0.25317
 H1115 H 0.22079 0.22985 0.29411
 H1116 H 0.20877 0.23782 0.20770
 H1117 H 0.30302 0.31807 0.22932
 H1118 H 0.21983 0.32046 0.19895
 H1119 H 0.18220 0.29392 0.20034
 H1120 H 0.15702 0.22381 0.24117
 H1121 H 0.32897 0.28353 0.25219
 H1122 H 0.30405 0.21159 0.29483
 H1123 H 0.26554 0.18975 0.30230
 H1124 H 0.18070 0.19233 0.27184
 H1125 H 0.30630 0.31435 0.26827
 H1126 H 0.22996 0.30882 0.31291
 H1127 H 0.25456 0.19985 0.18451
 H1128 H 0.18029 0.19115 0.23223
 Zr1129 Zr 0.74156 0.72798 0.27902
 O1130 O 0.75122 0.70462 0.30695
 O1131 O 0.70267 0.72951 0.28196
 O1132 O 0.73499 0.74438 0.31161
 O1133 O 0.74193 0.68203 0.23789
 O1134 O 0.75165 0.78284 0.30722
 O1135 O 0.72750 0.69187 0.27353
 O1136 O 0.69058 0.75454 0.25231
 O1137 O 0.73401 0.76435 0.27022
 O1138 O 0.73011 0.72820 0.24424
 O1139 O 0.77536 0.74758 0.28511
 O1140 O 0.77108 0.71214 0.26078
 Zr1141 Zr 0.78642 0.77007 0.22128
 Zr1142 Zr 0.76816 0.78342 0.27454
 Zr1143 Zr 0.75982 0.71431 0.22593
 Zr1144 Zr 0.72398 0.76434 0.23517
 O1145 O 0.78412 0.68463 0.22201
 O1146 O 0.70711 0.79726 0.24520
 O1147 O 0.75261 0.75022 0.21494
 O1148 O 0.75692 0.78531 0.23974
 O1149 O 0.79822 0.77005 0.25602
 O1150 O 0.79364 0.73371 0.23030
 C1151 C 0.68599 0.74073 0.26993
 C1152 C 0.72954 0.67705 0.25635
 C1153 C 0.74028 0.76612 0.31908
 O1154 O 0.74549 0.81449 0.27728
 O1155 O 0.78857 0.81450 0.26369
 O1156 O 0.80132 0.80603 0.22720
 C1157 C 0.80007 0.82023 0.24494
 O1158 O 0.80608 0.70843 0.29321
 Zr1159 Zr 0.80401 0.73364 0.26514
 O1160 O 0.82549 0.76910 0.21886
 O1161 O 0.79571 0.79227 0.30004
 O1162 O 0.82689 0.75007 0.29129
 O1163 O 0.82322 0.70218 0.25460
 O1164 O 0.83759 0.74594 0.24987
 C1165 C 0.84221 0.75924 0.23195
 O1166 O 0.77751 0.79444 0.19390
 O1167 O 0.73116 0.70402 0.20194
 O1168 O 0.79021 0.75424 0.18790
 O1169 O 0.77300 0.71587 0.19205
 O1170 O 0.69909 0.74803 0.21052
 O1171 O 0.72165 0.78636 0.20480
 C1172 C 0.78375 0.73285 0.18011
 H1173 H 0.71465 0.71836 0.24111
 H1174 H 0.75401 0.80236 0.23473
 H1175 H 0.80688 0.72657 0.22079
 H1176 H 0.78046 0.74677 0.30164
 H1177 H 0.68950 0.79667 0.23945
 H1178 H 0.75306 0.82482 0.28966
 H1179 H 0.79124 0.80826 0.30657
 H1180 H 0.84338 0.74206 0.29117
 H1181 H 0.68307 0.75686 0.21104
 H1182 H 0.73565 0.68793 0.19562
 H1183 H 0.77660 0.67407 0.20977
 H1184 H 0.84053 0.70343 0.26104
 H1185 H 0.70449 0.79276 0.20316
 H1186 H 0.79346 0.79881 0.18607
 H1187 H 0.73537 0.69974 0.31468
 H1188 H 0.82389 0.70552 0.29722
 Zr1189 Zr 0.76181 0.27687 0.78098
 O1190 O 0.74639 0.30069 0.80542
 O1191 O 0.79835 0.27246 0.79434
 O1192 O 0.75946 0.26025 0.81433
 O1193 O 0.77070 0.32303 0.74033
 O1194 O 0.74354 0.22213 0.80640
 O1195 O 0.77741 0.31301 0.77828
 O1196 O 0.81456 0.24488 0.76952
 O1197 O 0.76983 0.24031 0.77417
 O1198 O 0.78154 0.27646 0.74993
 O1199 O 0.72687 0.25803 0.77914
 O1200 O 0.73785 0.29306 0.75602
 Zr1201 Zr 0.73108 0.23580 0.71483
 Zr1202 Zr 0.73535 0.22197 0.77091
 Zr1203 Zr 0.75729 0.29074 0.72485
 Zr1204 Zr 0.78826 0.24009 0.74261
 O1205 O 0.73566 0.32073 0.71377
 O1206 O 0.80147 0.20546 0.75330
 O1207 O 0.76596 0.25482 0.71605
 O1208 O 0.75474 0.21986 0.73978
 O1209 O 0.71105 0.23594 0.74574
 O1210 O 0.72281 0.27226 0.72150
 C1211 C 0.81535 0.25767 0.78808
 C1212 C 0.77836 0.32814 0.76095
 C1213 C 0.75230 0.23844 0.82039
 O1214 O 0.75636 0.19078 0.77965
 O1215 O 0.71850 0.19084 0.75603
 O1216 O 0.71449 0.20009 0.71756
 C1217 C 0.71178 0.18560 0.73519
 O1218 O 0.69588 0.29819 0.77880
 Zr1219 Zr 0.70416 0.27245 0.75279
 O1220 O 0.69406 0.23715 0.70324
 O1221 O 0.70195 0.21365 0.78894
 O1222 O 0.67537 0.25700 0.77360
 O1223 O 0.68859 0.30394 0.73714
 O1224 O 0.67493 0.25967 0.73062
 C1225 C 0.67465 0.24637 0.71231
 O1226 O 0.74646 0.21182 0.69051
 O1227 O 0.79170 0.30061 0.70913
 O1228 O 0.73400 0.25229 0.68149
 O1229 O 0.75338 0.28905 0.68878
 O1230 O 0.82007 0.25719 0.72726
 O1231 O 0.79746 0.22044 0.71243
 C1232 C 0.74370 0.27304 0.67493
 H1233 H 0.79757 0.28589 0.75095
 H1234 H 0.75843 0.20280 0.73569
 H1235 H 0.71237 0.27967 0.70913
 H1236 H 0.71791 0.25893 0.79398
 H1237 H 0.81994 0.20572 0.75148
 H1238 H 0.74575 0.18037 0.78984
 H1239 H 0.70439 0.19768 0.79674
 H1240 H 0.65951 0.26509 0.76925
 H1241 H 0.83489 0.24769 0.73206
 H1242 H 0.78927 0.31663 0.70141
 H1243 H 0.74647 0.33099 0.70362
 H1244 H 0.67016 0.30266 0.73900
 H1245 H 0.81511 0.21523 0.71355
 H1246 H 0.73283 0.20748 0.67930
 H1247 H 0.75996 0.30493 0.81671
 H1248 H 0.67773 0.30165 0.77827
 C1249 C 0.46097 1.00492 0.34698
 C1250 C 0.46408 0.98986 0.32774
 C1251 C 0.44975 0.99385 0.30765
 C1252 C 0.43245 1.01293 0.30637
 C1253 C 0.43075 1.02812 0.32577
 N1254 N 0.44469 1.02369 0.34515
 C1255 C 0.47320 1.00052 0.36987
 N1256 N 0.47155 1.01831 0.38604
 C1257 C 0.47888 1.01506 0.40838
 C1258 C 0.48800 0.99249 0.41598
 C1259 C 0.49123 0.97416 0.39955
 C1260 C 0.48378 0.97806 0.37643
 H1261 H 0.45155 0.98146 0.29328
 H1262 H 0.41766 1.04281 0.32630
 H1263 H 0.47639 1.02980 0.42047
 H1264 H 0.49797 0.95643 0.40482
 H1265 H 0.47699 0.97492 0.32812
 H1266 H 0.48505 0.96315 0.36440
 C1267 C -0.04044 0.50317 0.84802
 C1268 C -0.03513 0.48873 0.82882
 C1269 C -0.04912 0.49157 0.80836
 C1270 C -0.06821 0.50891 0.80668
 C1271 C -0.07223 0.52351 0.82612
 N1272 N -0.05855 0.52022 0.84586
 C1273 C -0.02850 0.49981 0.87116
 N1274 N -0.03228 0.51728 0.88724
 C1275 C -0.02523 0.51467 0.90972
 C1276 C -0.01413 0.49306 0.91752
 C1277 C -0.00877 0.47517 0.90120
 C1278 C -0.01600 0.47841 0.87795
 H1279 H -0.04558 0.47960 0.79399
 H1280 H -0.08689 0.53675 0.82637
 H1281 H -0.02936 0.52910 0.92171
 H1282 H -0.00040 0.45817 0.90662
 H1283 H -0.02074 0.47515 0.82950
 H1284 H -0.01300 0.46375 0.86597
 C1285 C 0.04833 0.00922 0.83584
 C1286 C 0.03469 0.01184 0.81501
 C1287 C 0.04609 0.00630 0.79395
 C1288 C 0.07079 -0.00244 0.79370
 C1289 C 0.08324 -0.00530 0.81514
 N1290 N 0.07201 0.00065 0.83510
 C1291 C 0.03903 0.01646 0.85878
 N1292 N 0.05654 0.02122 0.87559
 C1293 C 0.05050 0.02519 0.89790
 C1294 C 0.02543 0.02368 0.90480
 C1295 C 0.00673 0.02019 0.88767
 C1296 C 0.01347 0.01660 0.86452
 H1297 H 0.03598 0.00999 0.77800
 H1298 H 0.10256 -0.01091 0.81603
 H1299 H 0.06550 0.02805 0.91051
 H1300 H -0.01282 0.01857 0.89239
 H1301 H 0.01601 0.01918 0.81481
 H1302 H -0.00101 0.01253 0.85173
 C1303 C 0.54770 0.50991 0.33175
 C1304 C 0.53417 0.51058 0.31074
 C1305 C 0.54666 0.50682 0.28994
 C1306 C 0.57252 0.50186 0.29002
 C1307 C 0.58507 0.50109 0.31155
 N1308 N 0.57262 0.50517 0.33138
 C1309 C 0.53653 0.51505 0.35447
 N1310 N 0.55252 0.52149 0.37203
 C1311 C 0.54489 0.52413 0.39409
 C1312 C 0.51978 0.51947 0.39986
 C1313 C 0.50249 0.51407 0.38199
 C1314 C 0.51080 0.51183 0.35916
 H1315 H 0.53614 0.50888 0.27397
 H1316 H 0.60508 0.49824 0.31257
 H1317 H 0.55879 0.52850 0.40737
 H1318 H 0.48303 0.50998 0.38587
 H1319 H 0.51448 0.51497 0.31019
 H1320 H 0.49751 0.50631 0.34578
 C1321 C 0.56182 0.48511 0.15698
 C1322 C 0.55020 0.47340 0.17578
 C1323 C 0.55928 0.47779 0.19822
 C1324 C 0.57985 0.49391 0.20213
 C1325 C 0.59112 0.50491 0.18282
 N1326 N 0.58198 0.50030 0.16115
 C1327 C 0.55338 0.48139 0.13263
 N1328 N 0.56992 0.48711 0.11568
 C1329 C 0.56374 0.48591 0.09289
 C1330 C 0.53926 0.47908 0.08567
 C1331 C 0.52190 0.47237 0.10274
 C1332 C 0.52887 0.47353 0.12626
 H1333 H 0.55038 0.46819 0.21244
 H1334 H 0.60687 0.51755 0.18487
 H1335 H 0.57794 0.49097 0.08044
 H1336 H 0.50281 0.46719 0.09797
 H1337 H 0.53463 0.46064 0.17330
 H1338 H 0.51492 0.46924 0.13915
 C1339 C 0.06470 0.98525 0.66024
 C1340 C 0.09007 0.98221 0.66607
 C1341 C 0.09845 0.98560 0.68875
 C1342 C 0.08170 0.99133 0.70648
 C1343 C 0.05606 0.99316 0.69992
 N1344 N 0.04845 0.99035 0.67740
 C1345 C 0.05589 0.98425 0.63564
 N1346 N 0.03160 0.97795 0.63004
 C1347 C 0.02288 0.97747 0.60762
 C1348 C 0.03891 0.98400 0.58936
 C1349 C 0.06393 0.99039 0.59499
 C1350 C 0.07234 0.99071 0.61780
 H1351 H 0.11816 0.98303 0.69191
 H1352 H 0.04202 0.99777 0.71232
 H1353 H 0.00341 0.97262 0.60413
 H1354 H 0.07717 0.99560 0.58170
 H1355 H 0.10356 0.97715 0.65325
 H1356 H 0.09148 0.99673 0.62128
 C1357 C -0.05604 0.50698 0.67537
 C1358 C -0.07802 0.49316 0.68000
 C1359 C -0.08843 0.49362 0.70203
 C1360 C -0.07711 0.50781 0.71950
 C1361 C -0.05565 0.52200 0.71396
 N1362 N -0.04582 0.52126 0.69237
 C1363 C -0.04400 0.50648 0.65237
 N1364 N -0.03058 0.52637 0.64459
 C1365 C -0.02045 0.52735 0.62302
 C1366 C -0.02404 0.50766 0.60784
 C1367 C -0.03659 0.48660 0.61605
 C1368 C -0.04641 0.48586 0.63820
 H1369 H -0.10496 0.48242 0.70550
 H1370 H -0.04667 0.53372 0.72675
 H1371 H -0.01086 0.54392 0.61734
 H1372 H -0.03945 0.47082 0.60502
 H1373 H -0.08728 0.48220 0.66678
 H1374 H -0.05599 0.46934 0.64398
 C1375 C 0.43831 0.01112 0.17404
 C1376 C 0.41518 -0.00030 0.17944
 C1377 C 0.40631 0.00041 0.20201
 C1378 C 0.42018 0.01265 0.21931
 C1379 C 0.44283 0.02450 0.21307
 N1380 N 0.45118 0.02344 0.19096
 C1381 C 0.44884 0.01020 0.15039
 N1382 N 0.46536 0.02799 0.14314
 C1383 C 0.47484 0.02850 0.12130
 C1384 C 0.46736 0.01052 0.10527
 C1385 C 0.45123 -0.00844 0.11279
 C1386 C 0.44214 -0.00879 0.13520
 H1387 H 0.38882 -0.00904 0.20595
 H1388 H 0.45386 0.03472 0.22569
 H1389 H 0.48735 0.04336 0.11623
 H1390 H 0.44539 -0.02302 0.10119
 H1391 H 0.40380 -0.00957 0.16643
 H1392 H 0.43003 -0.02389 0.14042
 C1393 C 0.34829 0.40250 -0.00051
 C1394 C 0.32679 0.41226 -0.01114
 C1395 C 0.30400 0.39909 -0.01077
 C1396 C 0.30213 0.37636 0.00060
 C1397 C 0.32427 0.36725 0.01092
 N1398 N 0.34627 0.38038 0.01024
 C1399 C 0.37326 0.41522 -0.00161
 N1400 N 0.39073 0.41202 0.01563
 C1401 C 0.41400 0.42303 0.01522
 C1402 C 0.42101 0.43803 -0.00356
 C1403 C 0.40330 0.44117 -0.02158
 C1404 C 0.37964 0.42994 -0.02067
 H1405 H 0.28789 0.40662 -0.01966
 H1406 H 0.32450 0.34939 0.01896
 H1407 H 0.42701 0.41995 0.02945
 H1408 H 0.40761 0.45248 -0.03651
 H1409 H 0.32745 0.42990 -0.01970
 H1410 H 0.36673 0.43241 -0.03508
 C1411 C -0.15334 0.90233 0.50680
 C1412 C -0.17502 0.91180 0.49625
 C1413 C -0.19741 0.89803 0.49608
 C1414 C -0.19878 0.87500 0.50693
 C1415 C -0.17657 0.86629 0.51743
 N1416 N -0.15488 0.87996 0.51716
 C1417 C -0.12865 0.91556 0.50566
 N1418 N -0.11091 0.91263 0.52272
 C1419 C -0.08786 0.92412 0.52210
 C1420 C -0.08142 0.93931 0.50327
 C1421 C -0.09946 0.94219 0.48549
 C1422 C -0.12282 0.93047 0.48660
 H1423 H -0.21358 0.90531 0.48708
 H1424 H -0.17599 0.84830 0.52516
 H1425 H -0.07457 0.92121 0.53613
 H1426 H -0.09561 0.95362 0.47053
 H1427 H -0.17477 0.92962 0.48804
 H1428 H -0.13591 0.93271 0.47229
 C1429 C -0.15841 0.09244 0.99679
 C1430 C -0.18155 0.07998 0.99474
 C1431 C -0.20372 0.09281 0.99622
 C1432 C -0.20317 0.11813 1.00049
 C1433 C -0.17944 0.13000 1.00165
 N1434 N -0.15800 0.11708 0.99984
 C1435 C -0.13467 0.07899 0.99596
 N1436 N -0.11439 0.08868 0.98473
 C1437 C -0.09224 0.07673 0.98358
 C1438 C -0.08955 0.05399 0.99464
 C1439 C -0.11020 0.04389 1.00638
 C1440 C -0.13273 0.05619 1.00695
 H1441 H -0.22117 0.08277 0.99343
 H1442 H -0.17799 0.14961 1.00374
 H1443 H -0.07661 0.08524 0.97462
 H1444 H -0.10891 0.02642 1.01520
 H1445 H -0.18252 0.06053 0.99149
 H1446 H -0.14832 0.04817 1.01636
 C1447 C 0.33661 0.59022 0.49364
 C1448 C 0.31454 0.58208 0.50458
 C1449 C 0.29422 0.59760 0.50613
 C1450 C 0.29517 0.62108 0.49612
 C1451 C 0.31794 0.62872 0.48590
 N1452 N 0.33758 0.61331 0.48476
 C1453 C 0.35904 0.57463 0.49206
 N1454 N 0.37644 0.57933 0.47540
 C1455 C 0.39783 0.56624 0.47361
 C1456 C 0.40292 0.54738 0.48949
 C1457 C 0.38509 0.54220 0.50663
 C1458 C 0.36336 0.55569 0.50801
 H1459 H 0.27776 0.59108 0.51522
 H1460 H 0.32038 0.64701 0.47902
 H1461 H 0.41111 0.57103 0.46025
 H1462 H 0.38812 0.52792 0.51937
 H1463 H 0.31267 0.56384 0.51173
 H1464 H 0.35063 0.55170 0.52200
 C1465 C 0.15279 0.61141 0.51305
 C1466 C 0.15569 0.63402 0.50147
 C1467 C 0.17976 0.64337 0.49677
 C1468 C 0.20105 0.63037 0.50354
 C1469 C 0.19731 0.60829 0.51580
 N1470 N 0.17374 0.59951 0.52007
 C1471 C 0.12776 0.59947 0.51679
 N1472 N 0.12507 0.58186 0.53353
 C1473 C 0.10336 0.56846 0.53623
 C1474 C 0.08304 0.57188 0.52096
 C1475 C 0.08519 0.59032 0.50406
 C1476 C 0.10730 0.60416 0.50198
 H1477 H 0.18164 0.66055 0.48752
 H1478 H 0.21310 0.59800 0.52217
 H1479 H 0.10254 0.55421 0.54929
 H1480 H 0.06999 0.59337 0.49179
 H1481 H 0.13964 0.64449 0.49608
 H1482 H 0.10865 0.61734 0.48801
 C1483 C 0.65653 0.09845 0.01783
 C1484 C 0.65841 0.12406 0.01716
 C1485 C 0.68147 0.13559 0.01201
 C1486 C 0.70306 0.12177 0.00799
 C1487 C 0.69986 0.09607 0.00853
 N1488 N 0.67724 0.08545 0.01318
 C1489 C 0.63253 0.08471 0.02144
 N1490 N 0.63036 0.06179 0.01258
 C1491 C 0.60892 0.04807 0.01385
 C1492 C 0.58770 0.05719 0.02461
 C1493 C 0.58961 0.08033 0.03485
 C1494 C 0.61200 0.09425 0.03322
 H1495 H 0.68203 0.15529 0.01167
 H1496 H 0.71492 0.08406 0.00444
 H1497 H 0.60821 0.03027 0.00578
 H1498 H 0.57351 0.08805 0.04310
 H1499 H 0.64220 0.13513 0.01999
 H1500 H 0.61309 0.11221 0.04090
 C1501 C 0.65739 0.88904 0.50294
 C1502 C 0.66302 0.87017 0.48761
 C1503 C 0.68697 0.86012 0.48817
 C1504 C 0.70544 0.86891 0.50376
 C1505 C 0.69898 0.88764 0.51888
 N1506 N 0.67550 0.89694 0.51820
 C1507 C 0.63226 0.90037 0.50344
 N1508 N 0.62472 0.91063 0.52349
 C1509 C 0.60236 0.92189 0.52538
 C1510 C 0.58597 0.92382 0.50617
 C1511 C 0.59337 0.91348 0.48523
 C1512 C 0.61638 0.90166 0.48381
 H1513 H 0.69117 0.84578 0.47610
 H1514 H 0.71250 0.89474 0.53142
 H1515 H 0.59766 0.92974 0.54185
 H1516 H 0.58144 0.91460 0.46994
 H1517 H 0.64908 0.86296 0.47555
 H1518 H 0.62186 0.89425 0.46739
 C1519 C 0.15816 0.39295 1.00127
 C1520 C 0.16280 0.37349 0.98629
 C1521 C 0.18665 0.36327 0.98599
 C1522 C 0.20604 0.37245 1.00040
 C1523 C 0.20059 0.39181 1.01520
 N1524 N 0.17717 0.40127 1.01537
 C1525 C 0.13311 0.40443 1.00255
 N1526 N 0.12644 0.41520 1.02265
 C1527 C 0.10411 0.42642 1.02514
 C1528 C 0.08685 0.42775 1.00653
 C1529 C 0.09340 0.41693 0.98555
 C1530 C 0.11637 0.40519 0.98352
 H1531 H 0.19001 0.34845 0.97421
 H1532 H 0.21484 0.39922 1.02686
 H1533 H 0.10006 0.43467 1.04160
 H1534 H 0.08080 0.41757 0.97069
 H1535 H 0.14814 0.36594 0.97515
 H1536 H 0.12112 0.39738 0.96705
 C1537 C -0.02282 0.34367 0.43829
 C1538 C -0.04331 0.33614 0.42440
 C1539 C -0.04213 0.31433 0.41233
 C1540 C -0.02043 0.30023 0.41387
 C1541 C -0.00221 0.30670 0.43068
 N1542 N -0.00347 0.32829 0.44181
 C1543 C -0.02054 0.36836 0.44793
 N1544 N -0.00375 0.37246 0.46550
 C1545 C 0.00102 0.39509 0.47408
 C1546 C -0.01130 0.41530 0.46464
 C1547 C -0.02845 0.41153 0.44631
 C1548 C -0.03307 0.38815 0.43787
 H1549 H -0.05802 0.30901 0.40153
 H1550 H 0.01387 0.29538 0.43393
 H1551 H 0.01429 0.39714 0.48832
 H1552 H -0.03837 0.42661 0.43847
 H1553 H -0.05983 0.34712 0.42240
 H1554 H -0.04576 0.38589 0.42324
 C1555 C 0.47085 -0.15867 -0.06291
 C1556 C 0.45172 -0.16562 -0.07859
 C1557 C 0.45384 -0.18716 -0.09095
 C1558 C 0.47502 -0.20172 -0.08774
 C1559 C 0.49200 -0.19552 -0.06979
 N1560 N 0.48985 -0.17419 -0.05838
 C1561 C 0.47225 -0.13435 -0.05237
 N1562 N 0.48758 -0.13097 -0.03358
 C1563 C 0.49200 -0.10865 -0.02421
 C1564 C 0.48098 -0.08797 -0.03414
 C1565 C 0.46505 -0.09103 -0.05349
 C1566 C 0.46069 -0.11414 -0.06268
 H1567 H 0.43898 -0.19192 -0.10307
 H1568 H 0.50785 -0.20692 -0.06580
 H1569 H 0.50426 -0.10716 -0.00917
 H1570 H 0.45611 -0.07558 -0.06168
 H1571 H 0.43553 -0.15444 -0.08169
 H1572 H 0.44914 -0.11581 -0.07814
 C1573 C 0.00650 -0.17330 1.05042
 C1574 C -0.00595 -0.19361 1.04049
 C1575 C -0.00812 -0.21528 1.05321
 C1576 C 0.00243 -0.21674 1.07560
 C1577 C 0.01547 -0.19619 1.08438
 N1578 N 0.01705 -0.17537 1.07182
 C1579 C 0.00722 -0.14901 1.03960
 N1580 N 0.02398 -0.13226 1.04830
 C1581 C 0.02399 -0.10849 1.04178
 C1582 C 0.00594 -0.10029 1.02588
 C1583 C -0.01115 -0.11732 1.01618
 C1584 C -0.01063 -0.14171 1.02303
 H1585 H -0.01866 -0.23032 1.04561
 H1586 H 0.02367 -0.19640 1.10163
 H1587 H 0.03780 -0.09604 1.04939
 H1588 H -0.02539 -0.11172 1.00380
 H1589 H -0.01424 -0.19282 1.02332
 H1590 H -0.02480 -0.15423 1.01619
 C1591 C 0.50121 0.32576 0.55390
 C1592 C 0.49175 0.30466 0.54284
 C1593 C 0.48913 0.28299 0.55546
 C1594 C 0.49616 0.28235 0.57897
 C1595 C 0.50608 0.30379 0.58907
 N1596 N 0.50825 0.32458 0.57651
 C1597 C 0.50301 0.34968 0.54244
 N1598 N 0.51771 0.36732 0.55259
 C1599 C 0.51847 0.39069 0.54477
 C1600 C 0.50336 0.39746 0.52589
 C1601 C 0.48850 0.37942 0.51480
 C1602 C 0.48821 0.35555 0.52304
 H1603 H 0.48163 0.26711 0.54661
 H1604 H 0.51195 0.30405 0.60709
 H1605 H 0.53037 0.40396 0.55369
 H1606 H 0.47651 0.38383 0.50013
 H1607 H 0.48654 0.30468 0.52469
 H1608 H 0.47568 0.34232 0.51486
 C1609 C 0.48527 1.14194 0.58509
 C1610 C 0.49580 1.15871 0.56936
 C1611 C 0.49341 1.18350 0.57309
 C1612 C 0.48051 1.19152 0.59242
 C1613 C 0.46897 1.17420 0.60701
 N1614 N 0.47161 1.14999 0.60307
 C1615 C 0.48935 1.11585 0.58238
 N1616 N 0.46976 1.09969 0.58441
 C1617 C 0.47196 1.07579 0.57881
 C1618 C 0.49464 1.06751 0.57001
 C1619 C 0.51551 1.08351 0.56973
 C1620 C 0.51293 1.10769 0.57594
 H1621 H 0.50291 1.19632 0.56165
 H1622 H 0.45873 1.17991 0.62199
 H1623 H 0.45552 1.06386 0.57952
 H1624 H 0.53346 1.07770 0.56346
 H1625 H 0.50629 1.15267 0.55463
 H1626 H 0.52893 1.12016 0.57478
 C1627 C -0.01953 0.64418 1.08593
 C1628 C -0.03395 0.65366 1.10369
 C1629 C -0.03413 0.67887 1.10679
 C1630 C -0.02033 0.69432 1.09203
 C1631 C -0.00735 0.68415 1.07374
 N1632 N -0.00697 0.65962 1.07142
 C1633 C -0.01593 0.61802 1.08309
 N1634 N 0.00611 0.61100 1.07404
 C1635 C 0.01022 0.58764 1.06810
 C1636 C -0.00898 0.56994 1.07030
 C1637 C -0.03140 0.57641 1.08090
 C1638 C -0.03494 0.60055 1.08740
 H1639 H -0.04423 0.68625 1.12117
 H1640 H 0.00391 0.69545 1.06228
 H1641 H 0.02793 0.58335 1.06034
 H1642 H -0.04673 0.56326 1.08278
 H1643 H -0.04384 0.64178 1.11571
 H1644 H -0.05283 0.60570 1.09428
 C1645 C 0.49090 0.66225 -0.07704
 C1646 C 0.47515 0.67900 -0.06661
 C1647 C 0.47279 0.70223 -0.07612
 C1648 C 0.48624 0.70918 -0.09595
 C1649 C 0.50199 0.69174 -0.10571
 N1650 N 0.50394 0.66921 -0.09607
 C1651 C 0.49450 0.63755 -0.06754
 N1652 N 0.51568 0.62542 -0.07287
 C1653 C 0.52045 0.60275 -0.06437
 C1654 C 0.50338 0.59123 -0.04942
 C1655 C 0.48118 0.60321 -0.04421
 C1656 C 0.47659 0.62618 -0.05333
 H1657 H 0.45996 0.71442 -0.06798
 H1658 H 0.51385 0.69598 -0.12022
 H1659 H 0.53768 0.59401 -0.06897
 H1660 H 0.46716 0.59473 -0.03320
 H1661 H 0.46501 0.67458 -0.05102
 H1662 H 0.45902 0.63462 -0.04943
 C1663 C -0.01286 1.16281 0.42268
 C1664 C -0.03329 1.17737 0.42819
 C1665 C -0.03472 1.20086 0.41898
 C1666 C -0.01613 1.20961 0.40402
 C1667 C 0.00337 1.19416 0.39814
 N1668 N 0.00458 1.17149 0.40760
 C1669 C -0.00921 1.13862 0.43328
 N1670 N 0.00525 1.12220 0.42233
 C1671 C 0.01009 1.09986 0.43153
 C1672 C 0.00021 1.09312 0.45306
 C1673 C -0.01437 1.11000 0.46475
 C1674 C -0.01903 1.13270 0.45501
 H1675 H -0.05028 1.21218 0.42353
 H1676 H 0.01822 1.20035 0.38681
 H1677 H 0.02145 1.08741 0.42195
 H1678 H -0.02216 1.10578 0.48155
 H1679 H -0.04804 1.17083 0.43946
 H1680 H -0.02972 1.14554 0.46475
 C1681 C 0.77259 0.71593 0.91505
 C1682 C 0.79146 0.69867 0.91844
 C1683 C 0.79195 0.68443 0.93857
 C1684 C 0.77370 0.68719 0.95563
 C1685 C 0.75587 0.70553 0.95197
 N1686 N 0.75547 0.71885 0.93197
 C1687 C 0.76933 0.72887 0.89251
 N1688 N 0.74586 0.73534 0.88535
 C1689 C 0.74098 0.74388 0.86354
 C1690 C 0.76024 0.74537 0.84729
 C1691 C 0.78476 0.74040 0.85476
 C1692 C 0.78944 0.73249 0.87736
 H1693 H 0.80622 0.67086 0.93998
 H1694 H 0.74146 0.70841 0.96461
 H1695 H 0.72182 0.74755 0.85840
 H1696 H 0.80017 0.74154 0.84275
 H1697 H 0.80501 0.69510 0.90521
 H1698 H 0.80849 0.72841 0.88250
 C1699 C 0.27196 0.21531 0.41493
 C1700 C 0.28980 0.19695 0.41762
 C1701 C 0.29014 0.18252 0.43763
 C1702 C 0.27287 0.18629 0.45535
 C1703 C 0.25592 0.20552 0.45226
 N1704 N 0.25560 0.21901 0.43236
 C1705 C 0.26898 0.22875 0.39263
 N1706 N 0.24575 0.23612 0.38563
 C1707 C 0.24116 0.24528 0.36398
 C1708 C 0.26046 0.24658 0.34775
 C1709 C 0.28477 0.24062 0.35511
 C1710 C 0.28917 0.23203 0.37751
 H1711 H 0.30335 0.16791 0.43836
 H1712 H 0.24211 0.20901 0.46531
 H1713 H 0.22215 0.24972 0.35894
 H1714 H 0.30022 0.24160 0.34314
 H1715 H 0.30256 0.19271 0.40392
 H1716 H 0.30804 0.22719 0.38257
 C1717 C 0.75595 0.29137 0.40582
 C1718 C 0.77522 0.29189 0.42259
 C1719 C 0.77135 0.30366 0.44358
 C1720 C 0.74856 0.31533 0.44789
 C1721 C 0.72913 0.31236 0.43140
 N1722 N 0.73347 0.30110 0.41105
 C1723 C 0.75977 0.28376 0.38159
 N1724 N 0.74324 0.29218 0.36551
 C1725 C 0.74574 0.28833 0.34261
 C1726 C 0.76607 0.27528 0.33433
 C1727 C 0.78300 0.26538 0.35048
 C1728 C 0.78002 0.26973 0.37423
 H1729 H 0.78672 0.30491 0.45602
 H1730 H 0.71073 0.31950 0.43394
 H1731 H 0.73178 0.29569 0.33085
 H1732 H 0.79871 0.25491 0.34473
 H1733 H 0.79350 0.28464 0.41923
 H1734 H 0.79342 0.26230 0.38645
 C1735 C 0.25869 0.78610 0.91004
 C1736 C 0.23433 0.79313 0.91535
 C1737 C 0.23017 0.80574 0.93586
 C1738 C 0.25027 0.81116 0.95118
 C1739 C 0.27382 0.80138 0.94609
 N1740 N 0.27761 0.79012 0.92561
 C1741 C 0.26456 0.77738 0.88678
 N1742 N 0.28043 0.79106 0.87344
 C1743 C 0.28442 0.78575 0.85086
 C1744 C 0.27215 0.76560 0.84062
 C1745 C 0.25665 0.75058 0.85435
 C1746 C 0.25255 0.75661 0.87743
 H1747 H 0.21136 0.81153 0.93925
 H1748 H 0.28967 0.80408 0.95779
 H1749 H 0.29626 0.79785 0.84065
 H1750 H 0.24643 0.73522 0.84678
 H1751 H 0.21897 0.79007 0.90316
 H1752 H 0.23965 0.74564 0.88768
 C1753 C 0.24315 0.80358 0.08295
 C1754 C 0.23818 0.78795 0.06425
 C1755 C 0.24006 0.79694 0.04161
 C1756 C 0.24691 0.82162 0.03708
 C1757 C 0.25195 0.83647 0.05653
 N1758 N 0.25003 0.82720 0.07836
 C1759 C 0.24177 0.79554 0.10762
 N1760 N 0.25131 0.81101 0.12397
 C1761 C 0.25077 0.80583 0.14695
 C1762 C 0.23995 0.78376 0.15508
 C1763 C 0.22998 0.76734 0.13862
 C1764 C 0.23078 0.77314 0.11492
 H1765 H 0.23528 0.78435 0.02787
 H1766 H 0.25819 0.85525 0.05482
 H1767 H 0.25879 0.81917 0.15881
 H1768 H 0.22133 0.75020 0.14405
 H1769 H 0.23303 0.76894 0.06680
 H1770 H 0.22249 0.76033 0.10274
 C1771 C 0.74426 0.30416 0.57904
 C1772 C 0.73913 0.28923 0.55991
 C1773 C 0.74047 0.29907 0.53761
 C1774 C 0.74705 0.32394 0.53381
 C1775 C 0.75215 0.33817 0.55367
 N1776 N 0.75077 0.32804 0.57522
 C1777 C 0.74365 0.29479 0.60328
 N1778 N 0.75513 0.30851 0.62002
 C1779 C 0.75552 0.30171 0.64265
 C1780 C 0.74370 0.27977 0.64992
 C1781 C 0.73164 0.26524 0.63302
 C1782 C 0.73149 0.27268 0.60974
 H1783 H 0.73549 0.28692 0.52358
 H1784 H 0.75802 0.35710 0.55242
 H1785 H 0.76506 0.31365 0.65494
 H1786 H 0.72208 0.24833 0.63780
 H1787 H 0.73437 0.27004 0.56187
 H1788 H 0.72154 0.26138 0.59724
 C1789 C 0.27961 0.19188 0.58818
 C1790 C 0.27612 0.16679 0.58385
 C1791 C 0.27086 0.15870 0.56138
 C1792 C 0.26903 0.17534 0.54281
 C1793 C 0.27134 0.20045 0.54823
 N1794 N 0.27655 0.20787 0.57028
 C1795 C 0.28537 0.20138 0.61186
 N1796 N 0.27968 0.22486 0.61721
 C1797 C 0.28247 0.23395 0.63907
 C1798 C 0.29082 0.21887 0.65721
 C1799 C 0.29815 0.19516 0.65182
 C1800 C 0.29579 0.18648 0.62925
 H1801 H 0.26850 0.13931 0.55891
 H1802 H 0.26903 0.21439 0.53512
 H1803 H 0.27641 0.25228 0.64258
 H1804 H 0.30470 0.18296 0.66535
 H1805 H 0.27704 0.15335 0.59761
 H1806 H 0.30156 0.16808 0.62578
 C1807 C 0.77943 0.69626 0.08767
 C1808 C 0.77964 0.67092 0.08376
 C1809 C 0.77500 0.66181 0.06153
 C1810 C 0.77008 0.67768 0.04289
 C1811 C 0.76889 0.70285 0.04783
 N1812 N 0.77357 0.71129 0.06962
 C1813 C 0.78429 0.70696 0.11105
 N1814 N 0.77590 0.72975 0.11582
 C1815 C 0.77789 0.73978 0.13736
 C1816 C 0.78829 0.72638 0.15577
 C1817 C 0.79824 0.70351 0.15099
 C1818 C 0.79663 0.69390 0.12872
 H1819 H 0.77567 0.64232 0.05914
 H1820 H 0.76419 0.71595 0.03447
 H1821 H 0.76974 0.75737 0.14044
 H1822 H 0.80633 0.69258 0.16479
 H1823 H 0.78300 0.65801 0.09763
 H1824 H 0.80449 0.67620 0.12573
 C1825 C 0.16655 0.59719 0.24740
 C1826 C 0.17921 0.57566 0.25310
 C1827 C 0.16567 0.55369 0.25605
 C1828 C 0.13940 0.55281 0.25310
 C1829 C 0.12754 0.57497 0.24768
 N1830 N 0.14115 0.59610 0.24482
 C1831 C 0.18000 0.62122 0.24526
 N1832 N 0.17076 0.63888 0.23088
 C1833 C 0.18143 0.66176 0.22939
 C1834 C 0.20214 0.66818 0.24353
 C1835 C 0.21204 0.65018 0.25824
 C1836 C 0.20123 0.62676 0.25905
 H1837 H 0.17597 0.53770 0.26105
 H1838 H 0.10733 0.57550 0.24581
 H1839 H 0.17302 0.67521 0.21804
 H1840 H 0.22789 0.65442 0.26958
 H1841 H 0.19941 0.57571 0.25522
 H1842 H 0.20878 0.61356 0.27115
 C1843 C 0.66428 0.09068 0.74007
 C1844 C 0.67682 0.06840 0.73966
 C1845 C 0.66384 0.04655 0.74457
 C1846 C 0.63815 0.04654 0.74995
 C1847 C 0.62631 0.06933 0.74987
 N1848 N 0.63938 0.09039 0.74500
 C1849 C 0.67771 0.11447 0.73606
 N1850 N 0.66498 0.13403 0.72749
 C1851 C 0.67597 0.15667 0.72504
 C1852 C 0.70099 0.16073 0.73212
 C1853 C 0.71447 0.14084 0.74068
 C1854 C 0.70307 0.11775 0.74250
 H1855 H 0.67425 0.02996 0.74379
 H1856 H 0.60652 0.07032 0.75359
 H1857 H 0.66481 0.17174 0.71888
 H1858 H 0.73364 0.14343 0.74685
 H1859 H 0.69646 0.06772 0.73528
 H1860 H 0.71370 0.10303 0.75007
 C1861 C 0.84291 0.10087 0.24183
 C1862 C 0.86855 0.10045 0.24746
 C1863 C 0.88114 0.07843 0.24694
 C1864 C 0.86827 0.05635 0.24169
 C1865 C 0.84285 0.05792 0.23475
 N1866 N 0.83103 0.07976 0.23510
 C1867 C 0.82888 0.12395 0.24255
 N1868 N 0.81041 0.12813 0.22658
 C1869 C 0.79745 0.14930 0.22595
 C1870 C 0.80264 0.16778 0.24225
 C1871 C 0.82113 0.16350 0.25925
 C1872 C 0.83433 0.14175 0.25938
 H1873 H 0.90106 0.07872 0.25085
 H1874 H 0.83231 0.04201 0.22890
 H1875 H 0.78317 0.15171 0.21267
 H1876 H 0.82571 0.17713 0.27220
 H1877 H 0.87891 0.11705 0.25184
 H1878 H 0.84853 0.13884 0.27264
 C1879 C 0.34125 0.59334 0.74007
 C1880 C 0.36753 0.59379 0.74096
 C1881 C 0.38036 0.57195 0.73957
 C1882 C 0.36725 0.54942 0.73792
 C1883 C 0.34088 0.55002 0.73579
 N1884 N 0.32879 0.57162 0.73695
 C1885 C 0.32689 0.61599 0.74241
 N1886 N 0.30527 0.61872 0.72991
 C1887 C 0.29149 0.63930 0.73105
 C1888 C 0.29908 0.65854 0.74571
 C1889 C 0.32093 0.65578 0.75923
 C1890 C 0.33494 0.63464 0.75752
 H1891 H 0.40068 0.57256 0.74052
 H1892 H 0.32963 0.53362 0.73338
 H1893 H 0.27466 0.64064 0.72045
 H1894 H 0.32751 0.67020 0.77069
 H1895 H 0.37808 0.61082 0.74266
 H1896 H 0.35176 0.63284 0.76807
 C1897 C 0.34998 0.40868 0.74610
 C1898 C 0.33840 0.42781 0.75764
 C1899 C 0.34911 0.45126 0.75713
 C1900 C 0.37135 0.45600 0.74508
 C1901 C 0.38244 0.43638 0.73376
 N1902 N 0.37154 0.41358 0.73439
 C1903 C 0.33896 0.38346 0.74662
 N1904 N 0.34103 0.36835 0.72809
 C1905 C 0.33019 0.34547 0.72756
 C1906 C 0.31624 0.33664 0.74647
 C1907 C 0.31463 0.35183 0.76590
 C1908 C 0.32591 0.37497 0.76607
 H1909 H 0.33995 0.46569 0.76627
 H1910 H 0.39944 0.43924 0.72403
 H1911 H 0.33223 0.33435 0.71232
 H1912 H 0.30449 0.34594 0.78113
 H1913 H 0.32095 0.42488 0.76670
 H1914 H 0.32449 0.38602 0.78142
 C1915 C 0.84675 0.91700 0.24496
 C1916 C 0.83383 0.93713 0.25320
 C1917 C 0.84548 0.96019 0.25371
 C1918 C 0.87025 0.96382 0.24592
 C1919 C 0.88247 0.94298 0.23763
 N1920 N 0.87056 0.92062 0.23724
 C1921 C 0.83489 0.89204 0.24497
 N1922 N 0.84049 0.87548 0.22834
 C1923 C 0.82965 0.85258 0.22760
 C1924 C 0.81220 0.84511 0.24444
 C1925 C 0.80660 0.86192 0.26181
 C1926 C 0.81781 0.88512 0.26216
 H1927 H 0.83496 0.97489 0.26088
 H1928 H 0.90109 0.94433 0.23058
 H1929 H 0.83479 0.84020 0.21404
 H1930 H 0.79345 0.85721 0.27532
 H1931 H 0.81470 0.93524 0.25909
 H1932 H 0.81335 0.89735 0.27606
 C1933 C 0.64815 0.90545 0.75742
 C1934 C 0.65587 0.92241 0.74046
 C1935 C 0.64677 0.94610 0.74062
 C1936 C 0.62972 0.95307 0.75747
 C1937 C 0.62230 0.93558 0.77410
 N1938 N 0.63176 0.91258 0.77383
 C1939 C 0.65767 0.88010 0.75730
 N1940 N 0.66493 0.86882 0.77738
 C1941 C 0.67564 0.84633 0.77765
 C1942 C 0.67970 0.83390 0.75682
 C1943 C 0.67130 0.84497 0.73614
 C1944 C 0.66045 0.86787 0.73632
 H1945 H 0.65291 0.95896 0.72743
 H1946 H 0.60938 0.94035 0.78752
 H1947 H 0.68157 0.83849 0.79403
 H1948 H 0.67368 0.83625 0.71958
 H1949 H 0.66913 0.91751 0.72735
 H1950 H 0.65449 0.87607 0.72009
 C1951 C 0.15048 0.41194 0.26274
 C1952 C 0.13170 0.41867 0.27814
 C1953 C 0.12200 0.44227 0.27688
 C1954 C 0.13118 0.45928 0.26058
 C1955 C 0.14985 0.45175 0.24549
 N1956 N 0.15870 0.42865 0.24682
 C1957 C 0.16126 0.38707 0.26262
 N1958 N 0.17060 0.37875 0.24245
 C1959 C 0.18155 0.35668 0.24071
 C1960 C 0.18426 0.34137 0.26022
 C1961 C 0.17486 0.34954 0.28134
 C1962 C 0.16319 0.37227 0.28259
 H1963 H 0.10765 0.44735 0.28889
 H1964 H 0.15721 0.46412 0.23244
 H1965 H 0.18867 0.35143 0.22407
 H1966 H 0.17664 0.33846 0.29686
 H1967 H 0.12427 0.40581 0.29074
 H1968 H 0.15647 0.37841 0.29909
 C1969 C 0.08584 0.23387 0.79996
 C1970 C 0.07321 0.25595 0.80171
 C1971 C 0.05371 0.25765 0.81725
 C1972 C 0.04715 0.23762 0.83142
 C1973 C 0.05858 0.21522 0.82734
 N1974 N 0.07784 0.21412 0.81241
 C1975 C 0.10994 0.23253 0.78824
 N1976 N 0.12701 0.21670 0.79695
 C1977 C 0.15103 0.21669 0.78972
 C1978 C 0.15915 0.23376 0.77312
 C1979 C 0.14149 0.24928 0.76288
 C1980 C 0.11680 0.24867 0.77036
 H1981 H 0.04434 0.27489 0.81873
 H1982 H 0.05283 0.19870 0.83632
 H1983 H 0.16387 0.20392 0.79758
 H1984 H 0.14690 0.26243 0.74968
 H1985 H 0.07916 0.27219 0.79234
 H1986 H 0.10353 0.26110 0.76263
 C1987 C 0.58671 0.73202 0.30459
 C1988 C 0.56437 0.73924 0.29372
 C1989 C 0.54270 0.74094 0.30673
 C1990 C 0.54325 0.73530 0.33054
 C1991 C 0.56580 0.72703 0.34033
 N1992 N 0.58661 0.72575 0.32736
 C1993 C 0.61090 0.73248 0.29286
 N1994 N 0.62965 0.71900 0.30220
 C1995 C 0.65349 0.72070 0.29457
 C1996 C 0.65973 0.73731 0.27688
 C1997 C 0.64058 0.75094 0.26650
 C1998 C 0.61611 0.74860 0.27446
 H1999 H 0.52608 0.74728 0.29796
 H2000 H 0.56711 0.72243 0.35855
 H2001 H 0.66758 0.70954 0.30284
 H2002 H 0.64460 0.76394 0.25276
 H2003 H 0.56363 0.74383 0.27549
 H2004 H 0.60190 0.76021 0.26704
 C2005 C 0.57787 0.28919 0.18636
 C2006 C 0.56872 0.30777 0.17194
 C2007 C 0.54667 0.30350 0.15928
 C2008 C 0.53418 0.28066 0.16073
 C2009 C 0.54163 0.26455 0.17839
 N2010 N 0.56345 0.26879 0.19007
 C2011 C 0.60390 0.28909 0.19496
 N2012 N 0.60971 0.27293 0.21206
 C2013 C 0.63370 0.26816 0.21821
 C2014 C 0.65365 0.27944 0.20633
 C2015 C 0.64816 0.29668 0.18903
 C2016 C 0.62331 0.30155 0.18328
 H2017 H 0.54027 0.31756 0.14749
 H2018 H 0.53127 0.24771 0.18172
 H2019 H 0.63702 0.25507 0.23198
 H2020 H 0.66300 0.30601 0.17963
 H2021 H 0.57898 0.32485 0.16955
 H2022 H 0.61957 0.31389 0.16901
 C2023 C 0.07067 0.78225 0.70505
 C2024 C 0.06122 0.80243 0.69294
 C2025 C 0.04023 0.79913 0.67862
 C2026 C 0.02909 0.77576 0.67623
 C2027 C 0.03603 0.75768 0.69227
 N2028 N 0.05699 0.76101 0.70548
 C2029 C 0.09679 0.78152 0.71342
 N2030 N 0.10326 0.76311 0.72810
 C2031 C 0.12750 0.75775 0.73281
 C2032 C 0.14694 0.77070 0.72170
 C2033 C 0.14077 0.79024 0.70704
 C2034 C 0.11576 0.79575 0.70289
 H2035 H 0.03397 0.81438 0.66819
 H2036 H 0.02631 0.74015 0.69289
 H2037 H 0.13143 0.74282 0.74460
 H2038 H 0.15521 0.80098 0.69843
 H2039 H 0.07081 0.82006 0.69324
 H2040 H 0.11152 0.80997 0.69045
 C2041 C 0.89099 0.76313 0.64957
 C2042 C 0.90274 0.74604 0.63566
 C2043 C 0.92843 0.74841 0.63203
 C2044 C 0.94223 0.76782 0.64205
 C2045 C 0.92953 0.78538 0.65448
 N2046 N 0.90459 0.78250 0.65807
 C2047 C 0.86516 0.75967 0.65765
 N2048 N 0.85387 0.77932 0.66679
 C2049 C 0.83242 0.77719 0.67891
 C2050 C 0.82164 0.75406 0.68322
 C2051 C 0.83192 0.73365 0.67277
 C2052 C 0.85379 0.73636 0.65997
 H2053 H 0.93761 0.73440 0.62235
 H2054 H 0.93949 0.80091 0.66199
 H2055 H 0.82463 0.79348 0.68618
 H2056 H 0.82403 0.71551 0.67570
 H2057 H 0.89250 0.73067 0.62821
 H2058 H 0.86249 0.72014 0.65356
 C2059 C 0.39302 0.27368 0.14949
 C2060 C 0.40857 0.29398 0.15491
 C2061 C 0.43372 0.29393 0.14892
 C2062 C 0.44334 0.27380 0.13753
 C2063 C 0.42703 0.25439 0.13147
 N2064 N 0.40268 0.25462 0.13789
 C2065 C 0.36775 0.27082 0.15914
 N2066 N 0.35865 0.24781 0.16349
 C2067 C 0.33741 0.24362 0.17572
 C2068 C 0.32481 0.26332 0.18505
 C2069 C 0.33287 0.28714 0.17945
 C2070 C 0.35414 0.29098 0.16625
 H2071 H 0.44580 0.30930 0.15372
 H2072 H 0.43385 0.23841 0.12287
 H2073 H 0.33141 0.22499 0.17939
 H2074 H 0.32309 0.30281 0.18584
 H2075 H 0.40198 0.30915 0.16484
 H2076 H 0.36020 0.30953 0.16238
 C2077 C 0.40607 0.77643 0.33234
 C2078 C 0.41587 0.78255 0.35420
 C2079 C 0.43954 0.77423 0.36072
 C2080 C 0.45306 0.75960 0.34559
 C2081 C 0.44228 0.75374 0.32405
 N2082 N 0.41952 0.76232 0.31803
 C2083 C 0.38143 0.78411 0.32397
 N2084 N 0.37830 0.78666 0.30073
 C2085 C 0.35542 0.78863 0.29067
 C2086 C 0.33389 0.78688 0.30416
 C2087 C 0.33648 0.78605 0.32831
 C2088 C 0.36045 0.78468 0.33838
 H2089 H 0.44738 0.77967 0.37732
 H2090 H 0.45168 0.74215 0.31200
 H2091 H 0.35403 0.78980 0.27198
 H2092 H 0.32010 0.78455 0.33914
 H2093 H 0.40565 0.79396 0.36584
 H2094 H 0.36235 0.78213 0.35691
 C2095 C 0.90754 0.24264 0.83531
 C2096 C 0.92420 0.22846 0.82294
 C2097 C 0.94900 0.22719 0.83023
 C2098 C 0.95743 0.23984 0.85002
 C2099 C 0.93985 0.25347 0.86225
 N2100 N 0.91577 0.25486 0.85442
 C2101 C 0.88182 0.24562 0.82673
 N2102 N 0.87143 0.26816 0.82660
 C2103 C 0.84921 0.27245 0.81557
 C2104 C 0.83701 0.25357 0.80331
 C2105 C 0.84666 0.23001 0.80459
 C2106 C 0.86892 0.22593 0.81641
 H2107 H 0.96136 0.21588 0.82045
 H2108 H 0.94533 0.26428 0.87713
 H2109 H 0.84192 0.29075 0.81525
 H2110 H 0.83727 0.21481 0.79592
 H2111 H 0.91832 0.21896 0.80734
 H2112 H 0.87645 0.20771 0.81678
 C2113 C 0.53590 0.98228 0.68391
 C2114 C 0.54649 0.96339 0.69727
 C2115 C 0.56160 0.96916 0.71656
 C2116 C 0.56595 0.99361 0.72271
 C2117 C 0.55322 1.01173 0.71015
 N2118 N 0.53907 1.00574 0.69120
 C2119 C 0.52377 0.97799 0.66093
 N2120 N 0.50970 0.99595 0.65111
 C2121 C 0.50115 0.99496 0.62878
 C2122 C 0.50761 0.97546 0.61461
 C2123 C 0.52127 0.95634 0.62460
 C2124 C 0.52928 0.95746 0.64764
 H2125 H 0.57093 0.95460 0.72580
 H2126 H 0.55543 1.03079 0.71476
 H2127 H 0.49070 1.01011 0.62175
 H2128 H 0.52664 0.94090 0.61431
 H2129 H 0.54389 0.94441 0.69260
 H2130 H 0.54097 0.94306 0.65427
 C2131 C 0.03679 0.49068 1.18516
 C2132 C 0.03718 0.51404 1.19506
 C2133 C 0.05259 0.51878 1.21429
 C2134 C 0.06742 0.50033 1.22387
 C2135 C 0.06528 0.47684 1.21451
 N2136 N 0.05066 0.47280 1.19533
 C2137 C 0.02490 0.48608 1.16217
 N2138 N 0.03489 0.46878 1.14850
 C2139 C 0.02752 0.46552 1.12612
 C2140 C 0.00930 0.48054 1.11596
 C2141 C -0.00231 0.49758 1.13006
 C2142 C 0.00538 0.50038 1.15316
 H2143 H 0.05376 0.53716 1.22109
 H2144 H 0.07655 0.46219 1.22138
 H2145 H 0.03666 0.45178 1.11607
 H2146 H -0.01659 0.50941 1.12302
 H2147 H 0.02713 0.52901 1.18726
 H2148 H -0.00351 0.51395 1.16358
 C2149 C -0.05582 -0.01864 1.15871
 C2150 C -0.08046 -0.01006 1.15818
 C2151 C -0.09119 -0.00183 1.17840
 C2152 C -0.07762 -0.00216 1.19933
 C2153 C -0.05323 -0.01134 1.19939
 N2154 N -0.04286 -0.01887 1.17925
 C2155 C -0.04348 -0.02537 1.13687
 N2156 N -0.01904 -0.01867 1.13328
 C2157 C -0.00826 -0.02030 1.11207
 C2158 C -0.02270 -0.02811 1.09289
 C2159 C -0.04723 -0.03678 1.09662
 C2160 C -0.05757 -0.03574 1.11856
 H2161 H -0.11015 0.00488 1.17767
 H2162 H -0.04222 -0.01185 1.21527
 H2163 H 0.01072 -0.01338 1.10979
 H2164 H -0.05894 -0.04291 1.08222
 H2165 H -0.09113 -0.00888 1.14215
 H2166 H -0.07686 -0.04174 1.12087
 C2167 C 0.45111 0.47970 0.65967
 C2168 C 0.46317 0.49639 0.67480
 C2169 C 0.45121 0.50323 0.69506
 C2170 C 0.42758 0.49324 0.70031
 C2171 C 0.41655 0.47605 0.68530
 N2172 N 0.42824 0.47007 0.66546
 C2173 C 0.46070 0.47495 0.63623
 N2174 N 0.44369 0.46992 0.61905
 C2175 C 0.45024 0.46845 0.59650
 C2176 C 0.47525 0.47254 0.59002
 C2177 C 0.49345 0.47609 0.60751
 C2178 C 0.48625 0.47738 0.63068
 H2179 H 0.46001 0.51678 0.70627
 H2180 H 0.39817 0.46821 0.68884
 H2181 H 0.43567 0.46535 0.58353
 H2182 H 0.51294 0.47940 0.60318
 H2183 H 0.48092 0.50511 0.67050
 H2184 H 0.50041 0.48093 0.64391
 C2185 C 0.46361 0.50134 -0.17823
 C2186 C 0.45523 0.47983 -0.18955
 C2187 C 0.44025 0.48140 -0.20955
 C2188 C 0.43392 0.50425 -0.21866
 C2189 C 0.44446 0.52521 -0.20798
 N2190 N 0.45841 0.52326 -0.18821
 C2191 C 0.47592 0.50120 -0.15488
 N2192 N 0.48534 0.52260 -0.14582
 C2193 C 0.49402 0.52446 -0.12352
 C2194 C 0.49262 0.50411 -0.10874
 C2195 C 0.48392 0.48180 -0.11794
 C2196 C 0.47563 0.48022 -0.14079
 H2197 H 0.43280 0.46474 -0.21724
 H2198 H 0.44105 0.54325 -0.21492
 H2199 H 0.50066 0.54199 -0.11707
 H2200 H 0.48277 0.46556 -0.10714
 H2201 H 0.45948 0.46186 -0.18300
 H2202 H 0.46801 0.46287 -0.14660
 C2203 C -0.03922 1.00245 0.32411
 C2204 C -0.04966 0.98155 0.31314
 C2205 C -0.06295 0.98397 0.29220
 C2206 C -0.06556 1.00704 0.28196
 C2207 C -0.05273 1.02702 0.29230
 N2208 N -0.04047 1.02435 0.31294
 C2209 C -0.02918 1.00181 0.34832
 N2210 N -0.01391 1.02039 0.35636
 C2211 C -0.00615 1.02190 0.37900
 C2212 C -0.01451 1.00440 0.39518
 C2213 C -0.02999 0.98506 0.38705
 C2214 C -0.03730 0.98370 0.36392
 H2215 H -0.07231 0.96805 0.28477
 H2216 H -0.05348 1.04504 0.28455
 H2217 H 0.00585 1.03707 0.38443
 H2218 H -0.03680 0.97090 0.39869
 H2219 H -0.04835 0.96358 0.32088
 H2220 H -0.05008 0.96907 0.35876
 C2221 C 0.05344 0.49945 0.34596
 C2222 C 0.04215 0.49190 0.32497
 C2223 C 0.05547 0.49470 0.30428
 C2224 C 0.07977 0.50520 0.30446
 C2225 C 0.09036 0.51217 0.32582
 N2226 N 0.07720 0.50910 0.34557
 C2227 C 0.04113 0.49736 0.36884
 N2228 N 0.05619 0.49961 0.38789
 C2229 C 0.04721 0.50003 0.40966
 C2230 C 0.02126 0.49866 0.41359
 C2231 C 0.00512 0.49543 0.39436
 C2232 C 0.01498 0.49483 0.37188
 H2233 H 0.04660 0.48908 0.28814
 H2234 H 0.10921 0.51985 0.32691
 H2235 H 0.06051 0.50204 0.42389
 H2236 H -0.01500 0.49433 0.39662
 H2237 H 0.02348 0.48376 0.32445
 H2238 H 0.00221 0.49334 0.35722
 C2239 C 0.55411 -0.00598 -0.15441
 C2240 C 0.54258 -0.01382 -0.17520
 C2241 C 0.55555 -0.01112 -0.19608
 C2242 C 0.57978 -0.00046 -0.19634
 C2243 C 0.59062 0.00681 -0.17516
 N2244 N 0.57779 0.00385 -0.15518
 C2245 C 0.54205 -0.00798 -0.13137
 N2246 N 0.55721 -0.00557 -0.11239
 C2247 C 0.54835 -0.00524 -0.09054
 C2248 C 0.52243 -0.00692 -0.08646
 C2249 C 0.50623 -0.01019 -0.10565
 C2250 C 0.51595 -0.01070 -0.12817
 H2251 H 0.54645 -0.01695 -0.21204
 H2252 H 0.60943 0.01463 -0.17438
 H2253 H 0.56172 -0.00307 -0.07639
 H2254 H 0.48612 -0.01146 -0.10333
 H2255 H 0.52399 -0.02212 -0.17543
 H2256 H 0.50308 -0.01228 -0.14275
 C2257 C 0.67287 0.59775 -0.01154
 C2258 C 0.67249 0.62256 -0.01774
 C2259 C 0.69406 0.63714 -0.01472
 C2260 C 0.71626 0.62728 -0.00556
 C2261 C 0.71555 0.60271 0.00155
 N2262 N 0.69422 0.58875 -0.00164
 C2263 C 0.65039 0.58139 -0.01496
 N2264 N 0.64727 0.56166 -0.00077
 C2265 C 0.62671 0.54654 -0.00211
 C2266 C 0.60741 0.55079 -0.01850
 C2267 C 0.61066 0.57043 -0.03396
 C2268 C 0.63205 0.58575 -0.03225
 H2269 H 0.69348 0.65617 -0.01992
 H2270 H 0.73219 0.59434 0.00868
 H2271 H 0.62524 0.53143 0.01002
 H2272 H 0.59637 0.57439 -0.04688
 H2273 H 0.65572 0.63077 -0.02476
 H2274 H 0.63409 0.60080 -0.04436
 C2275 C 0.17051 1.09784 0.48731
 C2276 C 0.17068 1.12260 0.48089
 C2277 C 0.19256 1.13677 0.48382
 C2278 C 0.21454 1.12655 0.49308
 C2279 C 0.21332 1.10202 0.50029
 N2280 N 0.19169 1.08849 0.49721
 C2281 C 0.14762 1.08192 0.48430
 N2282 N 0.14459 1.06216 0.49845
 C2283 C 0.12371 1.04743 0.49763
 C2284 C 0.10395 1.05216 0.48186
 C2285 C 0.10706 1.07180 0.46638
 C2286 C 0.12881 1.08671 0.46754
 H2287 H 0.19235 1.15579 0.47856
 H2288 H 0.22976 1.09335 0.50749
 H2289 H 0.12236 1.03228 0.50971
 H2290 H 0.09240 1.07610 0.45393
 H2291 H 0.15409 1.13114 0.47387
 H2292 H 0.13072 1.10179 0.45546
 C2293 C 0.16364 -0.09258 1.00395
 C2294 C 0.17600 -0.10373 1.02280
 C2295 C 0.19629 -0.11892 1.01883
 C2296 C 0.20428 -0.12315 0.99619
 C2297 C 0.19173 -0.11130 0.97793
 N2298 N 0.17215 -0.09657 0.98222
 C2299 C 0.14164 -0.07659 1.00662
 N2300 N 0.13567 -0.06117 0.98890
 C2301 C 0.11515 -0.04689 0.98908
 C2302 C 0.09859 -0.04782 1.00781
 C2303 C 0.10447 -0.06337 1.02649
 C2304 C 0.12593 -0.07772 1.02599
 H2305 H 0.20535 -0.12775 1.03344
 H2306 H 0.19753 -0.11362 0.96023
 H2307 H 0.11152 -0.03527 0.97423
 H2308 H 0.09219 -0.06492 1.04121
 H2309 H 0.17031 -0.10071 1.04041
 H2310 H 0.12951 -0.09012 1.04025
 C2311 C 0.66193 0.41016 0.50188
 C2312 C 0.67420 0.39905 0.52083
 C2313 C 0.69472 0.38404 0.51701
 C2314 C 0.70297 0.37996 0.49443
 C2315 C 0.69064 0.39197 0.47612
 N2316 N 0.67084 0.40645 0.48025
 C2317 C 0.63944 0.42562 0.50421
 N2318 N 0.63296 0.44030 0.48607
 C2319 C 0.61187 0.45381 0.48576
 C2320 C 0.59522 0.45279 0.50441
 C2321 C 0.60167 0.43809 0.52356
 C2322 C 0.62369 0.42453 0.52355
 H2323 H 0.70371 0.37516 0.53163
 H2324 H 0.69669 0.38985 0.45848
 H2325 H 0.60785 0.46483 0.47058
 H2326 H 0.58937 0.43653 0.53826
 H2327 H 0.66821 0.40185 0.53838
 H2328 H 0.62766 0.41272 0.53816
 C2329 C -0.16984 0.41719 0.49110
 C2330 C -0.18442 0.41493 0.47079
 C2331 C -0.20519 0.39904 0.47042
 C2332 C -0.21174 0.38540 0.49020
 C2333 C -0.19780 0.38938 0.51061
 N2334 N -0.17733 0.40479 0.51050
 C2335 C -0.14627 0.43222 0.49183
 N2336 N -0.13756 0.44055 0.51261
 C2337 C -0.11570 0.45363 0.51487
 C2338 C -0.10074 0.45886 0.49546
 C2339 C -0.10931 0.45042 0.47383
 C2340 C -0.13198 0.43713 0.47193
 H2341 H -0.21585 0.39693 0.45443
 H2342 H -0.20234 0.37931 0.52624
 H2343 H -0.10991 0.45960 0.53198
 H2344 H -0.09834 0.45376 0.45845
 H2345 H -0.17982 0.42509 0.45525
 H2346 H -0.13772 0.43022 0.45515
 C2347 C 0.32960 -0.08404 -0.00689
 C2348 C 0.30563 -0.07815 0.00109
 C2349 C 0.28656 -0.09623 0.00175
 C2350 C 0.29133 -0.12001 -0.00558
 C2351 C 0.31574 -0.12522 -0.01266
 N2352 N 0.33381 -0.10741 -0.01332
 C2353 C 0.35068 -0.06595 -0.00860
 N2354 N 0.36997 -0.07066 -0.02306
 C2355 C 0.39112 -0.05629 -0.02408
 C2356 C 0.39415 -0.03620 -0.00933
 C2357 C 0.37415 -0.03053 0.00515
 C2358 C 0.35241 -0.04522 0.00550
 H2359 H 0.26791 -0.09137 0.00700
 H2360 H 0.32039 -0.14342 -0.01812
 H2361 H 0.40615 -0.06150 -0.03531
 H2362 H 0.37575 -0.01526 0.01694
 H2363 H 0.30131 -0.05972 0.00605
 H2364 H 0.33786 -0.04103 0.01760
 C2365 C 0.33891 1.07937 0.51527
 C2366 C 0.32729 1.09234 0.53296
 C2367 C 0.30852 1.10905 0.52727
 C2368 C 0.30131 1.11300 0.50409
 C2369 C 0.31280 1.09908 0.48710
 N2370 N 0.33094 1.08301 0.49302
 C2371 C 0.35995 1.06223 0.51944
 N2372 N 0.36613 1.04725 0.50183
 C2373 C 0.38619 1.03242 0.50287
 C2374 C 0.40218 1.03223 0.52245
 C2375 C 0.39590 1.04692 0.54125
 C2376 C 0.37485 1.06196 0.53983
 H2377 H 0.30041 1.11950 0.54092
 H2378 H 0.30764 1.10125 0.46903
 H2379 H 0.39000 1.02128 0.48799
 H2380 H 0.40779 1.04754 0.55660
 H2381 H 0.33260 1.08985 0.55094
 H2382 H 0.37107 1.07384 0.55416
 C2383 C -0.16249 0.57757 1.01368
 C2384 C -0.17262 0.57999 0.99117
 C2385 C -0.19028 0.59785 0.98640
 C2386 C -0.19817 0.61341 1.00387
 C2387 C -0.18798 0.61022 1.02624
 N2388 N -0.17042 0.59287 1.03047
 C2389 C -0.14223 0.55981 1.01882
 N2390 N -0.12430 0.56494 1.03533
 C2391 C -0.10381 0.55068 1.03881
 C2392 C -0.10016 0.53027 1.02474
 C2393 C -0.11910 0.52398 1.00860
 C2394 C -0.14014 0.53842 1.00578
 H2395 H -0.19749 0.59981 0.96887
 H2396 H -0.19309 0.62220 1.04007
 H2397 H -0.08964 0.55617 1.05145
 H2398 H -0.11720 0.50824 0.99756
 H2399 H -0.16634 0.56891 0.97706
 H2400 H -0.15428 0.53312 0.99305
 C2401 C -0.00351 0.66834 0.59640
 C2402 C -0.00158 0.66934 0.62062
 C2403 C -0.00108 0.69192 0.63146
 C2404 C -0.00268 0.71336 0.61821
 C2405 C -0.00510 0.71157 0.59411
 N2406 N -0.00544 0.68937 0.58392
 C2407 C -0.00349 0.64511 0.58397
 N2408 N -0.01528 0.64362 0.56297
 C2409 C -0.01563 0.62284 0.55031
 C2410 C -0.00337 0.60212 0.55869
 C2411 C 0.00920 0.60346 0.58018
 C2412 C 0.00922 0.62489 0.59283
 H2413 H 0.00025 0.69263 0.65016
 H2414 H -0.00610 0.72773 0.58328
 H2415 H -0.02542 0.62262 0.53377
 H2416 H 0.01902 0.58795 0.58731
 H2417 H -0.00083 0.65294 0.63115
 H2418 H 0.01951 0.62566 0.60909
 C2419 C 0.49717 0.16851 0.09082
 C2420 C 0.50055 0.17029 0.11490
 C2421 C 0.49966 0.19309 0.12529
 C2422 C 0.49520 0.21391 0.11176
 C2423 C 0.49122 0.21126 0.08789
 N2424 N 0.49233 0.18891 0.07815
 C2425 C 0.49840 0.14519 0.07865
 N2426 N 0.48625 0.14294 0.05789
 C2427 C 0.48647 0.12206 0.04547
 C2428 C 0.49954 0.10185 0.05394
 C2429 C 0.51278 0.10403 0.07502
 C2430 C 0.51231 0.12567 0.08740
 H2431 H 0.50245 0.19447 0.14384
 H2432 H 0.48810 0.22692 0.07679
 H2433 H 0.47612 0.12122 0.02924
 H2434 H 0.52335 0.08897 0.08210
 H2435 H 0.50360 0.15436 0.12567
 H2436 H 0.52298 0.12706 0.10341
 C2437 C 0.00369 0.17412 0.94161
 C2438 C 0.02741 0.18433 0.93664
 C2439 C 0.02963 0.20157 0.91894
 C2440 C 0.00830 0.20871 0.90643
 C2441 C -0.01522 0.19938 0.91294
 N2442 N -0.01686 0.18211 0.92980
 C2443 C 0.00106 0.15186 0.95578
 N2444 N -0.01743 0.13551 0.94980
 C2445 C -0.01876 0.11272 0.95901
 C2446 C -0.00031 0.10508 0.97483
 C2447 C 0.01790 0.12216 0.98252
 C2448 C 0.01864 0.14564 0.97304
 H2449 H 0.04807 0.20872 0.91455
 H2450 H -0.03209 0.20453 0.90364
 H2451 H -0.03356 0.10030 0.95313
 H2452 H 0.03226 0.11706 0.99498
 H2453 H 0.04430 0.17795 0.94509
 H2454 H 0.03327 0.15839 0.97859
 C2455 C 0.48464 0.66539 0.42739
 C2456 C 0.49411 0.68829 0.43443
 C2457 C 0.49731 0.70675 0.41795
 C2458 C 0.49105 0.70227 0.39474
 C2459 C 0.48079 0.67955 0.38852
 N2460 N 0.47791 0.66184 0.40482
 C2461 C 0.48357 0.64420 0.44304
 N2462 N 0.46713 0.62574 0.43769
 C2463 C 0.46777 0.60376 0.44848
 C2464 C 0.48652 0.59903 0.46512
 C2465 C 0.50285 0.61817 0.47188
 C2466 C 0.50144 0.64087 0.46085
 H2467 H 0.50571 0.72406 0.42310
 H2468 H 0.47572 0.67569 0.37069
 H2469 H 0.45441 0.58966 0.44313
 H2470 H 0.51756 0.61523 0.48466
 H2471 H 0.49941 0.69178 0.45227
 H2472 H 0.51527 0.65494 0.46513
 C2473 C 0.50686 0.82351 0.42540
 C2474 C 0.49671 0.80084 0.43243
 C2475 C 0.49848 0.78084 0.41793
 C2476 C 0.51067 0.78324 0.39670
 C2477 C 0.52168 0.80591 0.39085
 N2478 N 0.51937 0.82525 0.40509
 C2479 C 0.50392 0.84580 0.43899
 N2480 N 0.52014 0.86491 0.43536
 C2481 C 0.51812 0.88647 0.44646
 C2482 C 0.49869 0.88973 0.46218
 C2483 C 0.48161 0.87033 0.46604
 C2484 C 0.48408 0.84840 0.45443
 H2485 H 0.49005 0.76363 0.42331
 H2486 H 0.53105 0.80865 0.37453
 H2487 H 0.53176 0.90093 0.44300
 H2488 H 0.46623 0.87213 0.47790
 H2489 H 0.48741 0.79845 0.44881
 H2490 H 0.47020 0.83401 0.45717
 C2491 C 0.00337 0.32846 0.92172
 C2492 C -0.00110 0.30488 0.93056
 C2493 C 0.00097 0.28495 0.91606
 C2494 C 0.00756 0.28848 0.89290
 C2495 C 0.01249 0.31225 0.88483
 N2496 N 0.01029 0.33146 0.89929
 C2497 C 0.00134 0.35015 0.93622
 N2498 N 0.01517 0.37047 0.93072
 C2499 C 0.01418 0.39128 0.94318
 C2500 C -0.00160 0.39240 0.96235
 C2501 C -0.01626 0.37172 0.96813
 C2502 C -0.01489 0.35059 0.95509
 H2503 H -0.00213 0.26678 0.92313
 H2504 H 0.01768 0.31562 0.86704
 H2505 H 0.02568 0.40686 0.93802
 H2506 H -0.02886 0.37185 0.98265
 H2507 H -0.00565 0.30172 0.94853
 H2508 H -0.02679 0.33505 0.95952
 C2509 C 0.50002 0.32028 0.04250
 C2510 C 0.47704 0.31267 0.05200
 C2511 C 0.47696 0.29650 0.07067
 C2512 C 0.49970 0.28792 0.07952
 C2513 C 0.52183 0.29329 0.06757
 N2514 N 0.52157 0.30969 0.04991
 C2515 C 0.50184 0.34342 0.02959
 N2516 N 0.48368 0.36012 0.03256
 C2517 C 0.48668 0.38374 0.02597
 C2518 C 0.50933 0.39185 0.01629
 C2519 C 0.52778 0.37476 0.01177
 C2520 C 0.52414 0.35047 0.01852
 H2521 H 0.45949 0.29261 0.07943
 H2522 H 0.53960 0.28618 0.07351
 H2523 H 0.47165 0.39627 0.02894
 H2524 H 0.54535 0.38036 0.00394
 H2525 H 0.45960 0.32084 0.04650
 H2526 H 0.53906 0.33765 0.01617
 C2527 C 0.00802 0.82551 0.55692
 C2528 C 0.03033 0.81584 0.56591
 C2529 C 0.02908 0.79901 0.58403
 C2530 C 0.00574 0.79176 0.59288
 C2531 C -0.01610 0.79999 0.58195
 N2532 N -0.01443 0.81698 0.56487
 C2533 C 0.00831 0.84824 0.54339
 N2534 N -0.01041 0.86414 0.54707
 C2535 C -0.00983 0.88719 0.53850
 C2536 C 0.01077 0.89550 0.52567
 C2537 C 0.02967 0.87905 0.52051
 C2538 C 0.02853 0.85533 0.52940
 H2539 H 0.04633 0.79268 0.59193
 H2540 H -0.03445 0.79470 0.58829
 H2541 H -0.02517 0.89911 0.54221
 H2542 H 0.04567 0.88475 0.51030
 H2543 H 0.04855 0.82265 0.56054
 H2544 H 0.04355 0.84299 0.52584
 C2545 C 0.23608 0.28734 0.07838
 C2546 C 0.21659 0.29848 0.06572
 C2547 C 0.22184 0.31026 0.04470
 C2548 C 0.24633 0.31079 0.03620
 C2549 C 0.26471 0.29766 0.04837
 N2550 N 0.25929 0.28674 0.06894
 C2551 C 0.23300 0.27822 0.10251
 N2552 N 0.25059 0.26316 0.11181
 C2553 C 0.25085 0.25647 0.13457
 C2554 C 0.23311 0.26576 0.14971
 C2555 C 0.21446 0.28082 0.14037
 C2556 C 0.21428 0.28703 0.11692
 H2557 H 0.20710 0.32009 0.03585
 H2558 H 0.28372 0.29711 0.04210
 H2559 H 0.26562 0.24486 0.14100
 H2560 H 0.20034 0.28842 0.15135
 H2561 H 0.19767 0.29881 0.07215
 H2562 H 0.20038 0.29963 0.11064
 C2563 C 0.73483 0.77975 0.57896
 C2564 C 0.71546 0.79063 0.56593
 C2565 C 0.72125 0.80397 0.54588
 C2566 C 0.74617 0.80630 0.53865
 C2567 C 0.76457 0.79339 0.55102
 N2568 N 0.75859 0.78096 0.57069
 C2569 C 0.73093 0.76917 0.60246
 N2570 N 0.74917 0.75510 0.61213
 C2571 C 0.74879 0.74764 0.63468
 C2572 C 0.72965 0.75519 0.64924
 C2573 C 0.71021 0.76894 0.63945
 C2574 C 0.71071 0.77589 0.61620
 H2575 H 0.70644 0.81354 0.53684
 H2576 H 0.78394 0.79412 0.54566
 H2577 H 0.76421 0.73711 0.64150
 H2578 H 0.69504 0.77519 0.65002
 H2579 H 0.69615 0.78959 0.57137
 H2580 H 0.69614 0.78761 0.60967
 C2581 C 0.23045 0.70185 0.58412
 C2582 C 0.23986 0.67809 0.58461
 C2583 C 0.24766 0.66742 0.56422
 C2584 C 0.24599 0.68022 0.54319
 C2585 C 0.23654 0.70398 0.54335
 N2586 N 0.22938 0.71424 0.56360
 C2587 C 0.22285 0.71354 0.60590
 N2588 N 0.23034 0.73699 0.61063
 C2589 C 0.22781 0.74691 0.63205
 C2590 C 0.21819 0.73260 0.65028
 C2591 C 0.20850 0.70920 0.64518
 C2592 C 0.21065 0.69969 0.62305
 H2593 H 0.25449 0.64894 0.56482
 H2594 H 0.23502 0.71440 0.52742
 H2595 H 0.23560 0.76499 0.63538
 H2596 H 0.20102 0.69758 0.65880
 H2597 H 0.24151 0.66793 0.60069
 H2598 H 0.20415 0.68114 0.61975
 C2599 C 0.73540 0.21463 0.07291
 C2600 C 0.75780 0.21819 0.06068
 C2601 C 0.76267 0.20331 0.04177
 C2602 C 0.74507 0.18534 0.03477
 C2603 C 0.72247 0.18316 0.04676
 N2604 N 0.71849 0.19727 0.06555
 C2605 C 0.73156 0.22637 0.09552
 N2606 N 0.72033 0.21291 0.11249
 C2607 C 0.71920 0.22080 0.13466
 C2608 C 0.73002 0.24342 0.14088
 C2609 C 0.74023 0.25838 0.12346
 C2610 C 0.74117 0.24985 0.10071
 H2611 H 0.78042 0.20535 0.03300
 H2612 H 0.70869 0.16921 0.04219
 H2613 H 0.71113 0.20881 0.14769
 H2614 H 0.74902 0.27583 0.12774
 H2615 H 0.77206 0.23124 0.06646
 H2616 H 0.75004 0.26111 0.08756
 C2617 C 0.74425 0.19952 0.91276
 C2618 C 0.74202 0.21193 0.93389
 C2619 C 0.74098 0.19848 0.95467
 C2620 C 0.74221 0.17291 0.95432
 C2621 C 0.74303 0.16129 0.93289
 N2622 N 0.74423 0.17465 0.91309
 C2623 C 0.74796 0.21179 0.88996
 N2624 N 0.75367 0.19725 0.87190
 C2625 C 0.75663 0.20585 0.85007
 C2626 C 0.75350 0.23068 0.84499
 C2627 C 0.74851 0.24647 0.86333
 C2628 C 0.74567 0.23709 0.88590
 H2629 H 0.74078 0.20803 0.97101
 H2630 H 0.74403 0.14159 0.93195
 H2631 H 0.76071 0.19302 0.83653
 H2632 H 0.74570 0.26572 0.86004
 H2633 H 0.74213 0.23165 0.93464
 H2634 H 0.74105 0.24944 0.89962
 C2635 C 0.24163 0.72182 0.42223
 C2636 C 0.22039 0.71257 0.43395
 C2637 C 0.22350 0.69742 0.45338
 C2638 C 0.24763 0.69164 0.46126
 C2639 C 0.26825 0.70299 0.45028
 N2640 N 0.26480 0.71724 0.43119
 C2641 C 0.23987 0.73414 0.39923
 N2642 N 0.25991 0.74753 0.39120
 C2643 C 0.26093 0.75635 0.36906
 C2644 C 0.24141 0.75085 0.35331
 C2645 C 0.22034 0.73778 0.36140
 C2646 C 0.21940 0.72953 0.38422
 H2647 H 0.20709 0.68932 0.46145
 H2648 H 0.28721 0.69975 0.45630
 H2649 H 0.27756 0.76628 0.36342
 H2650 H 0.20488 0.73314 0.34975
 H2651 H 0.20157 0.71633 0.42792
 H2652 H 0.20344 0.71837 0.38939
 C2653 C 0.73718 0.79896 0.41291
 C2654 C 0.73159 0.78593 0.43334
 C2655 C 0.73654 0.79685 0.45491
 C2656 C 0.74735 0.82045 0.45610
 C2657 C 0.75210 0.83292 0.43528
 N2658 N 0.74696 0.82207 0.41466
 C2659 C 0.73348 0.78878 0.38928
 N2660 N 0.73276 0.80487 0.37126
 C2661 C 0.73269 0.79773 0.34884
 C2662 C 0.73426 0.77290 0.34320
 C2663 C 0.73375 0.75572 0.36138
 C2664 C 0.73335 0.76358 0.38449
 H2665 H 0.73247 0.78668 0.47061
 H2666 H 0.75984 0.85136 0.43536
 H2667 H 0.73271 0.81164 0.33543
 H2668 H 0.73518 0.73641 0.35781
 H2669 H 0.72340 0.76769 0.43277
 H2670 H 0.73442 0.75014 0.39826
 C2671 C 0.23453 0.29747 0.91089
 C2672 C 0.22966 0.28530 0.93194
 C2673 C 0.23500 0.29723 0.95296
 C2674 C 0.24552 0.32099 0.95299
 C2675 C 0.24950 0.33259 0.93160
 N2676 N 0.24397 0.32077 0.91153
 C2677 C 0.23055 0.28612 0.88775
 N2678 N 0.22881 0.30134 0.86912
 C2679 C 0.22871 0.29320 0.84700
 C2680 C 0.23140 0.26826 0.84232
 C2681 C 0.23184 0.25190 0.86116
 C2682 C 0.23139 0.26076 0.88395
 H2683 H 0.23153 0.28772 0.96913
 H2684 H 0.25704 0.35109 0.93080
 H2685 H 0.22803 0.30648 0.83304
 H2686 H 0.23423 0.23257 0.85833
 H2687 H 0.22179 0.26692 0.93224
 H2688 H 0.23330 0.24802 0.89823
 C2689 C 0.83300 0.42023 0.76349
 C2690 C 0.82502 0.44264 0.75407
 C2691 C 0.84144 0.46306 0.75410
 C2692 C 0.86568 0.46131 0.76361
 C2693 C 0.87301 0.43844 0.77238
 N2694 N 0.85676 0.41895 0.77223
 C2695 C 0.81666 0.39777 0.76415
 N2696 N 0.82224 0.37946 0.77944
 C2697 C 0.80930 0.35767 0.77996
 C2698 C 0.78981 0.35297 0.76391
 C2699 C 0.78340 0.37180 0.74837
 C2700 C 0.79661 0.39411 0.74846
 H2701 H 0.83486 0.48036 0.74748
 H2702 H 0.89168 0.43600 0.77950
 H2703 H 0.81507 0.34364 0.79208
 H2704 H 0.76856 0.36901 0.73559
 H2705 H 0.80617 0.44472 0.74731
 H2706 H 0.79179 0.40776 0.73563
 C2707 C 0.32617 0.93126 0.26459
 C2708 C 0.32009 0.95384 0.25436
 C2709 C 0.33782 0.97321 0.25459
 C2710 C 0.36156 0.97015 0.26493
 C2711 C 0.36698 0.94703 0.27435
 N2712 N 0.34943 0.92867 0.27412
 C2713 C 0.30838 0.90995 0.26539
 N2714 N 0.31152 0.89266 0.28224
 C2715 C 0.29749 0.87158 0.28309
 C2716 C 0.27947 0.86641 0.26575
 C2717 C 0.27550 0.88424 0.24850
 C2718 C 0.28973 0.90602 0.24834
 H2719 H 0.33267 0.99072 0.24735
 H2720 H 0.38518 0.94343 0.28198
 H2721 H 0.30141 0.85831 0.29656
 H2722 H 0.26193 0.88099 0.23467
 H2723 H 0.30169 0.95679 0.24685
 H2724 H 0.28696 0.91897 0.23435
 C2725 C 0.17195 0.91699 0.74574
 C2726 C 0.16964 0.92814 0.76743
 C2727 C 0.15369 0.94781 0.76983
 C2728 C 0.14002 0.95662 0.75074
 C2729 C 0.14314 0.94533 0.72927
 N2730 N 0.15854 0.92591 0.72739
 C2731 C 0.18723 0.89480 0.74287
 N2732 N 0.18073 0.87827 0.72616
 C2733 C 0.19267 0.85665 0.72388
 C2734 C 0.21221 0.85039 0.73928
 C2735 C 0.21987 0.86767 0.75594
 C2736 C 0.20763 0.88982 0.75769
 H2737 H 0.15174 0.95592 0.78672
 H2738 H 0.13253 0.95118 0.71427
 H2739 H 0.18618 0.84397 0.71070
 H2740 H 0.23507 0.86390 0.76799
 H2741 H 0.17921 0.92126 0.78268
 H2742 H 0.21402 0.90272 0.77070
 C2743 C 0.67543 0.42585 0.23778
 C2744 C 0.67325 0.43583 0.26000
 C2745 C 0.65698 0.45500 0.26355
 C2746 C 0.64281 0.46451 0.24509
 C2747 C 0.64583 0.45444 0.22303
 N2748 N 0.66157 0.43542 0.22002
 C2749 C 0.69124 0.40421 0.23384
 N2750 N 0.68429 0.38746 0.21745
 C2751 C 0.69663 0.36609 0.21475
 C2752 C 0.71695 0.36031 0.22944
 C2753 C 0.72513 0.37793 0.24558
 C2754 C 0.71253 0.39982 0.24772
 H2755 H 0.65521 0.46220 0.28084
 H2756 H 0.63498 0.46104 0.20839
 H2757 H 0.68973 0.35310 0.20200
 H2758 H 0.74094 0.37453 0.25706
 H2759 H 0.68326 0.42837 0.27476
 H2760 H 0.71920 0.41294 0.26043
 C2761 C 0.66612 0.59078 0.24811
 C2762 C 0.64020 0.59327 0.25072
 C2763 C 0.62427 0.57288 0.24852
 C2764 C 0.63392 0.54981 0.24380
 C2765 C 0.65975 0.54832 0.23971
 N2766 N 0.67505 0.56856 0.24208
 C2767 C 0.68360 0.61194 0.25210
 N2768 N 0.70433 0.61494 0.23881
 C2769 C 0.72000 0.63487 0.24075
 C2770 C 0.71521 0.65339 0.25681
 C2771 C 0.69461 0.65003 0.27141
 C2772 C 0.67881 0.62944 0.26909
 H2773 H 0.60440 0.57497 0.25136
 H2774 H 0.66793 0.53088 0.23601
 H2775 H 0.73579 0.63658 0.22924
 H2776 H 0.69009 0.66377 0.28399
 H2777 H 0.63227 0.61075 0.25471
 H2778 H 0.66285 0.62740 0.28036
 C2779 C 0.17039 0.08154 0.75113
 C2780 C 0.17857 0.05841 0.74429
 C2781 C 0.16144 0.03857 0.74336
 C2782 C 0.13630 0.04175 0.74923
 C2783 C 0.12879 0.06537 0.75503
 N2784 N 0.14575 0.08421 0.75606
 C2785 C 0.18756 0.10314 0.75376
 N2786 N 0.18082 0.12161 0.76796
 C2787 C 0.19471 0.14264 0.77040
 C2788 C 0.21663 0.14637 0.75758
 C2789 C 0.22417 0.12740 0.74312
 C2790 C 0.20982 0.10580 0.74124
 H2791 H 0.16809 0.02062 0.73915
 H2792 H 0.10950 0.06878 0.75932
 H2793 H 0.18801 0.15682 0.78154
 H2794 H 0.24087 0.12948 0.73278
 H2795 H 0.19807 0.05534 0.74059
 H2796 H 0.21565 0.09189 0.72938
 C2797 C 0.33361 0.09637 0.24983
 C2798 C 0.33668 0.08809 0.27275
 C2799 C 0.35166 0.06810 0.27756
 C2800 C 0.36371 0.05607 0.25967
 C2801 C 0.36009 0.06471 0.23690
 N2802 N 0.34555 0.08455 0.23261
 C2803 C 0.31809 0.11810 0.24466
 N2804 N 0.32523 0.13486 0.22824
 C2805 C 0.31309 0.15644 0.22505
 C2806 C 0.29300 0.16229 0.23932
 C2807 C 0.28462 0.14464 0.25531
 C2808 C 0.29688 0.12261 0.25789
 H2809 H 0.35391 0.06207 0.29535
 H2810 H 0.36936 0.05614 0.22264
 H2811 H 0.32004 0.16954 0.21244
 H2812 H 0.26895 0.14825 0.26643
 H2813 H 0.32808 0.09731 0.28701
 H2814 H 0.29016 0.10951 0.27061
 C2815 C 0.83442 0.58953 0.74698
 C2816 C 0.84577 0.57670 0.72900
 C2817 C 0.85984 0.55588 0.73428
 C2818 C 0.86275 0.54792 0.75732
 C2819 C 0.85036 0.56073 0.77452
 N2820 N 0.83695 0.58080 0.76901
 C2821 C 0.82051 0.61275 0.74368
 N2822 N 0.81145 0.62327 0.76299
 C2823 C 0.79933 0.64477 0.76264
 C2824 C 0.79554 0.65766 0.74177
 C2825 C 0.80431 0.64715 0.72136
 C2826 C 0.81685 0.62475 0.72222
 H2827 H 0.86924 0.54664 0.72048
 H2828 H 0.85170 0.55506 0.79247
 H2829 H 0.79276 0.65176 0.77888
 H2830 H 0.80178 0.65635 0.70487
 H2831 H 0.84440 0.58272 0.71120
 H2832 H 0.82365 0.61727 0.70630
 C2833 C 0.93545 0.75852 0.18812
 C2834 C 0.94051 0.73503 0.18026
 C2835 C 0.95538 0.73232 0.16098
 C2836 C 0.96567 0.75292 0.14976
 C2837 C 0.96140 0.77607 0.15910
 N2838 N 0.94605 0.77831 0.17744
 C2839 C 0.91488 0.76208 0.20412
 N2840 N 0.89814 0.77973 0.19889
 C2841 C 0.87552 0.78054 0.20919
 C2842 C 0.86848 0.76229 0.22511
 C2843 C 0.88634 0.74529 0.23228
 C2844 C 0.90964 0.74513 0.22178
 H2845 H 0.95757 0.71412 0.15435
 H2846 H 0.96959 0.79246 0.15155
 H2847 H 0.86251 0.79445 0.20380
 H2848 H 0.88174 0.73110 0.24477
 H2849 H 0.93153 0.71897 0.18776
 H2850 H 0.92278 0.73105 0.22640
 C2851 C 0.43773 0.25029 0.69375
 C2852 C 0.44217 0.22727 0.68435
 C2853 C 0.45576 0.22572 0.66412
 C2854 C 0.46525 0.24699 0.65348
 C2855 C 0.46203 0.26948 0.66443
 N2856 N 0.44794 0.27062 0.68370
 C2857 C 0.41745 0.25322 0.71020
 N2858 N 0.40163 0.27201 0.70644
 C2859 C 0.37889 0.27275 0.71647
 C2860 C 0.37072 0.25327 0.73048
 C2861 C 0.38764 0.23495 0.73645
 C2862 C 0.41116 0.23488 0.72631
 H2863 H 0.45750 0.20801 0.65623
 H2864 H 0.46986 0.28626 0.65731
 H2865 H 0.36658 0.28763 0.71215
 H2866 H 0.38207 0.21978 0.74750
 H2867 H 0.43347 0.21080 0.69132
 H2868 H 0.42355 0.21985 0.72983
 C2869 C 0.42679 0.73928 0.80230
 C2870 C 0.43794 0.76267 0.80437
 C2871 C 0.45403 0.76762 0.82297
 C2872 C 0.45930 0.74926 0.83915
 C2873 C 0.44976 0.72560 0.83534
 N2874 N 0.43331 0.72140 0.81759
 C2875 C 0.40416 0.73549 0.78784
 N2876 N 0.38551 0.72084 0.79639
 C2877 C 0.36194 0.72061 0.78727
 C2878 C 0.35590 0.73653 0.76901
 C2879 C 0.37534 0.75021 0.75865
 C2880 C 0.39956 0.74965 0.76797
 H2881 H 0.46136 0.78606 0.82538
 H2882 H 0.45365 0.71099 0.84751
 H2883 H 0.34769 0.70913 0.79528
 H2884 H 0.37163 0.76234 0.74417
 H2885 H 0.43265 0.77760 0.79308
 H2886 H 0.41412 0.76113 0.76044
 C2887 C 0.92794 0.24611 0.30427
 C2888 C 0.93957 0.22614 0.31484
 C2889 C 0.95671 0.23021 0.33294
 C2890 C 0.96186 0.25414 0.34074
 C2891 C 0.95145 0.27360 0.32812
 N2892 N 0.93482 0.26913 0.31067
 C2893 C 0.90580 0.24323 0.28911
 N2894 N 0.90069 0.26137 0.27366
 C2895 C 0.87805 0.26303 0.26285
 C2896 C 0.85852 0.24657 0.26850
 C2897 C 0.86369 0.22709 0.28359
 C2898 C 0.88739 0.22523 0.29379
 H2899 H 0.96395 0.21441 0.34193
 H2900 H 0.95600 0.29242 0.33230
 H2901 H 0.87488 0.27819 0.25111
 H2902 H 0.84916 0.21392 0.28827
 H2903 H 0.93461 0.20759 0.30993
 H2904 H 0.89052 0.21103 0.30656
 C2905 C 0.08841 0.25093 0.34722
 C2906 C 0.08687 0.25855 0.37026
 C2907 C 0.06342 0.26049 0.38020
 C2908 C 0.04167 0.25467 0.36729
 C2909 C 0.04405 0.24606 0.34472
 N2910 N 0.06708 0.24457 0.33531
 C2911 C 0.11233 0.25036 0.33504
 N2912 N 0.11393 0.23566 0.31630
 C2913 C 0.13464 0.23538 0.30303
 C2914 C 0.15519 0.25096 0.30814
 C2915 C 0.15403 0.26618 0.32749
 C2916 C 0.13263 0.26596 0.34098
 H2917 H 0.06228 0.26661 0.39792
 H2918 H 0.02769 0.24149 0.33418
 H2919 H 0.13473 0.22332 0.28828
 H2920 H 0.16945 0.27852 0.33203
 H2921 H 0.10346 0.26300 0.38052
 H2922 H 0.13178 0.27851 0.35529
 C2923 C 0.58679 0.75127 0.84694
 C2924 C 0.58478 0.76107 0.86918
 C2925 C 0.56115 0.76335 0.87871
 C2926 C 0.53969 0.75573 0.86620
 C2927 C 0.54254 0.74549 0.84431
 N2928 N 0.56572 0.74360 0.83532
 C2929 C 0.61095 0.74936 0.83534
 N2930 N 0.61277 0.73285 0.81802
 C2931 C 0.63370 0.73114 0.80518
 C2932 C 0.65424 0.74706 0.80922
 C2933 C 0.65290 0.76402 0.82722
 C2934 C 0.63129 0.76525 0.84030
 H2935 H 0.55967 0.77082 0.89592
 H2936 H 0.52643 0.73961 0.83402
 H2937 H 0.63392 0.71775 0.79150
 H2938 H 0.66831 0.77670 0.83089
 H2939 H 0.60116 0.76669 0.87923
 H2940 H 0.63030 0.77913 0.85346
 C2941 C 0.58258 0.22771 0.66348
 C2942 C 0.55860 0.22589 0.67306
 C2943 C 0.53766 0.22656 0.65845
 C2944 C 0.54074 0.22897 0.63450
 C2945 C 0.56495 0.22896 0.62553
 N2946 N 0.58506 0.22854 0.64009
 C2947 C 0.60530 0.23064 0.67780
 N2948 N 0.62747 0.22423 0.66860
 C2949 C 0.64969 0.22876 0.67950
 C2950 C 0.65044 0.24102 0.70075
 C2951 C 0.62778 0.24766 0.71069
 C2952 C 0.60513 0.24248 0.69927
 H2953 H 0.51918 0.22658 0.66598
 H2954 H 0.56792 0.23034 0.60707
 H2955 H 0.66670 0.22318 0.67123
 H2956 H 0.62756 0.25707 0.72710
 H2957 H 0.55599 0.22462 0.69156
 H2958 H 0.58790 0.24861 0.70674
 C2959 C 0.08152 0.72705 0.16592
 C2960 C 0.05695 0.72612 0.17425
 C2961 C 0.03693 0.72736 0.15862
 C2962 C 0.04145 0.72933 0.13484
 C2963 C 0.06615 0.72813 0.12713
 N2964 N 0.08537 0.72732 0.14270
 C2965 C 0.10339 0.73029 0.18136
 N2966 N 0.12616 0.72364 0.17358
 C2967 C 0.14773 0.72902 0.18530
 C2968 C 0.14717 0.74258 0.20581
 C2969 C 0.12385 0.74922 0.21440
 C2970 C 0.10191 0.74309 0.20224
 H2971 H 0.01809 0.72827 0.16526
 H2972 H 0.07026 0.72903 0.10886
 H2973 H 0.16529 0.72333 0.17813
 H2974 H 0.12257 0.75960 0.23020
 H2975 H 0.05320 0.72532 0.19260
 H2976 H 0.08423 0.74944 0.20858
   
