data_POSCAR
  _audit_creation_date              2014-09-24
  _audit_creation_method            'ToBaCCo'
  _symmetry_space_group_name_H-M    'P1'
  _symmetry_Int_Tables_number       1
  _symmetry_cell_setting            triclinic
  loop_
  _symmetry_equiv_pos_as_xyz
 x,y,z
_cell_length_a 87.7749
_cell_length_b 87.8574
_cell_length_c 88.0166
_cell_angle_alpha 90.070500
_cell_angle_beta 89.980200
_cell_angle_gamma 89.998900
loop_
  _atom_site_label
  _atom_site_type_symbol
  _atom_site_fract_x
  _atom_site_fract_y
  _atom_site_fract_z
N1 N 0.18325 0.22030 0.22256
 N2 N 0.18718 0.20808 0.23019
 C3 C 0.17718 0.20593 0.24161
 C4 C 0.16646 0.21749 0.24114
 C5 C 0.17070 0.22640 0.22888
 H6 H 0.17781 0.19682 0.24982
 H7 H 0.16502 0.23651 0.22478
 Cu8 Cu 0.20525 0.19649 0.22463
 Cu9 Cu 0.19466 0.22748 0.20499
 Cu10 Cu 0.22686 0.20692 0.19490
 N11 N 0.22315 0.18484 0.21871
 N12 N 0.23165 0.18912 0.20718
 C13 C 0.24332 0.17931 0.20560
 C14 C 0.24209 0.16822 0.21671
 C15 C 0.22912 0.17212 0.22482
 H16 H 0.25194 0.18011 0.19686
 H17 H 0.22447 0.16623 0.23454
 N18 N 0.22008 0.22523 0.18388
 N19 N 0.20770 0.23291 0.18759
 C20 C 0.20588 0.24448 0.17774
 C21 C 0.21771 0.24413 0.16735
 C22 C 0.22650 0.23178 0.17162
 H23 H 0.19669 0.25265 0.17815
 H24 H 0.23667 0.22769 0.16603
 H25 H 0.20367 0.20658 0.19891
 H26 H 0.21547 0.21879 0.21168
 N27 N 0.68316 0.72031 0.72285
 N28 N 0.68705 0.70805 0.73045
 C29 C 0.67703 0.70590 0.74185
 C30 C 0.66634 0.71749 0.74142
 C31 C 0.67062 0.72643 0.72919
 H32 H 0.67763 0.69676 0.75004
 H33 H 0.66499 0.73657 0.72513
 Cu34 Cu 0.70510 0.69645 0.72490
 Cu35 Cu 0.69462 0.72750 0.70532
 Cu36 Cu 0.72684 0.70692 0.69529
 N37 N 0.72301 0.68479 0.71904
 N38 N 0.73157 0.68909 0.70756
 C39 C 0.74325 0.67929 0.70602
 C40 C 0.74196 0.66818 0.71711
 C41 C 0.72895 0.67206 0.72515
 H42 H 0.75191 0.68011 0.69734
 H43 H 0.72426 0.66616 0.73485
 N44 N 0.72009 0.72524 0.68427
 N45 N 0.70771 0.73293 0.68795
 C46 C 0.70592 0.74449 0.67807
 C47 C 0.71776 0.74411 0.66770
 C48 C 0.72655 0.73177 0.67201
 H49 H 0.69672 0.75265 0.67845
 H50 H 0.73672 0.72766 0.66643
 H51 H 0.70363 0.70661 0.69920
 H52 H 0.71539 0.71877 0.71205
 N53 N 0.31556 0.77890 0.72357
 N54 N 0.31133 0.79086 0.73149
 C55 C 0.32108 0.79282 0.74314
 C56 C 0.33197 0.78142 0.74255
 C57 C 0.32807 0.77278 0.72997
 H58 H 0.32026 0.80179 0.75152
 H59 H 0.33403 0.76292 0.72563
 Cu60 Cu 0.29348 0.80272 0.72587
 Cu61 Cu 0.30479 0.77234 0.70539
 Cu62 Cu 0.27372 0.79394 0.69427
 N63 N 0.27615 0.81485 0.71924
 N64 N 0.26868 0.81153 0.70675
 C65 C 0.25752 0.82182 0.70468
 C66 C 0.25787 0.83220 0.71660
 C67 C 0.26992 0.82732 0.72562
 H68 H 0.24964 0.82154 0.69526
 H69 H 0.27402 0.83250 0.73597
 N70 N 0.28056 0.77570 0.68314
 N71 N 0.29245 0.76754 0.68732
 C72 C 0.29425 0.75593 0.67747
 C73 C 0.28290 0.75677 0.66659
 C74 C 0.27443 0.76945 0.67057
 H75 H 0.30304 0.74736 0.67828
 H76 H 0.26460 0.77388 0.66466
 H77 H 0.29661 0.79370 0.69985
 H78 H 0.28377 0.78118 0.71125
 N79 N 0.81750 0.27952 0.22268
 N80 N 0.81370 0.29195 0.23007
 C81 C 0.82363 0.29417 0.24152
 C82 C 0.83424 0.28241 0.24141
 C83 C 0.82989 0.27335 0.22921
 H84 H 0.82296 0.30351 0.24948
 H85 H 0.83530 0.26305 0.22522
 Cu86 Cu 0.79579 0.30361 0.22423
 Cu87 Cu 0.80617 0.27227 0.20504
 Cu88 Cu 0.77418 0.29300 0.19461
 N89 N 0.77795 0.31530 0.21826
 N90 N 0.76943 0.31094 0.20678
 C91 C 0.75776 0.32073 0.20518
 C92 C 0.75899 0.33189 0.21625
 C93 C 0.77198 0.32805 0.22434
 H94 H 0.74911 0.31985 0.19649
 H95 H 0.77662 0.33398 0.23405
 N96 N 0.78094 0.27455 0.18372
 N97 N 0.79324 0.26681 0.18756
 C98 C 0.79508 0.25519 0.17773
 C99 C 0.78335 0.25558 0.16723
 C100 C 0.77459 0.26800 0.17142
 H101 H 0.80423 0.24698 0.17821
 H102 H 0.76451 0.27213 0.16571
 H103 H 0.79736 0.29313 0.19864
 H104 H 0.78541 0.28123 0.21153
 N105 N 0.81648 0.71967 0.27714
 N106 N 0.81194 0.70806 0.26888
 C107 C 0.82159 0.70625 0.25711
 C108 C 0.83282 0.71730 0.25807
 C109 C 0.82917 0.72560 0.27096
 H110 H 0.82062 0.69743 0.24860
 H111 H 0.83518 0.73536 0.27544
 Cu112 Cu 0.79398 0.69637 0.27456
 Cu113 Cu 0.80555 0.72639 0.29522
 Cu114 Cu 0.77324 0.70595 0.30516
 N115 N 0.77585 0.68495 0.28021
 N116 N 0.76792 0.68868 0.29233
 C117 C 0.75632 0.67881 0.29398
 C118 C 0.75694 0.66833 0.28224
 C119 C 0.76948 0.67262 0.27369
 H120 H 0.74801 0.67929 0.30304
 H121 H 0.77381 0.66697 0.26366
 N122 N 0.78048 0.72378 0.31669
 N123 N 0.79290 0.73141 0.31305
 C124 C 0.79489 0.74279 0.32313
 C125 C 0.78311 0.74236 0.33358
 C126 C 0.77420 0.73016 0.32913
 H127 H 0.80408 0.75096 0.32274
 H128 H 0.76396 0.72613 0.33464
 H129 H 0.79632 0.70546 0.30064
 H130 H 0.78446 0.71831 0.28860
 N131 N 0.31654 0.21969 -0.22352
 N132 N 0.31195 0.20820 -0.23190
 C133 C 0.32166 0.20640 -0.24362
 C134 C 0.33305 0.21736 -0.24255
 C135 C 0.32932 0.22556 -0.22955
 H136 H 0.32052 0.19766 -0.25218
 H137 H 0.33532 0.23519 -0.22481
 Cu138 Cu 0.29382 0.19658 -0.22660
 Cu139 Cu 0.30552 0.22635 -0.20551
 Cu140 Cu 0.27360 0.20557 -0.19532
 N141 N 0.27619 0.18469 -0.22032
 N142 N 0.26829 0.18834 -0.20817
 C143 C 0.25677 0.17839 -0.20647
 C144 C 0.25747 0.16785 -0.21817
 C145 C 0.26998 0.17221 -0.22673
 H146 H 0.24862 0.17870 -0.19727
 H147 H 0.27417 0.16679 -0.23693
 N148 N 0.28078 0.22339 -0.18376
 N149 N 0.29289 0.23135 -0.18769
 C150 C 0.29473 0.24286 -0.17774
 C151 C 0.28324 0.24211 -0.16698
 C152 C 0.27462 0.22959 -0.17118
 H153 H 0.30383 0.25112 -0.17822
 H154 H 0.26448 0.22544 -0.16560
 H155 H 0.29660 0.20518 -0.20040
 H156 H 0.28439 0.21821 -0.21193
 N157 N 0.68493 0.27889 -0.22430
 N158 N 0.68682 0.29264 -0.22982
 C159 C 0.67698 0.29479 -0.24134
 C160 C 0.66834 0.28165 -0.24320
 C161 C 0.67385 0.27179 -0.23214
 H162 H 0.67620 0.30523 -0.24776
 H163 H 0.66985 0.26046 -0.22958
 Cu164 Cu 0.70165 0.30669 -0.22129
 Cu165 Cu 0.69600 0.27173 -0.20651
 Cu166 Cu 0.72453 0.29515 -0.19280
 N167 N 0.71981 0.31800 -0.21558
 N168 N 0.72865 0.31349 -0.20442
 C169 C 0.74044 0.32318 -0.20309
 C170 C 0.73896 0.33442 -0.21401
 C171 C 0.72568 0.33075 -0.22173
 H172 H 0.74943 0.32206 -0.19478
 H173 H 0.72079 0.33669 -0.23130
 N174 N 0.71868 0.27599 -0.18285
 N175 N 0.70834 0.26667 -0.18850
 C176 C 0.70725 0.25436 -0.17944
 C177 C 0.71725 0.25615 -0.16743
 C178 C 0.72428 0.27000 -0.16994
 H179 H 0.69943 0.24501 -0.18113
 H180 H 0.73293 0.27523 -0.16292
 H181 H 0.70141 0.29270 -0.19736
 H182 H 0.71506 0.28455 -0.21158
 N183 N 0.18368 0.77979 0.27664
 N184 N 0.18710 0.79252 0.26959
 C185 C 0.17716 0.79467 0.25814
 C186 C 0.16699 0.78261 0.25796
 C187 C 0.17151 0.77338 0.26988
 H188 H 0.17740 0.80419 0.25038
 H189 H 0.16621 0.76290 0.27353
 Cu190 Cu 0.20439 0.80485 0.27593
 Cu191 Cu 0.19496 0.77268 0.29432
 Cu192 Cu 0.22552 0.79476 0.30609
 N193 N 0.22174 0.81700 0.28248
 N194 N 0.23004 0.81287 0.29418
 C195 C 0.24149 0.82288 0.29603
 C196 C 0.24038 0.83401 0.28487
 C197 C 0.22760 0.82983 0.27651
 H198 H 0.24996 0.82200 0.30488
 H199 H 0.22299 0.83551 0.26665
 N200 N 0.21917 0.77602 0.31663
 N201 N 0.20772 0.76746 0.31199
 C202 C 0.20630 0.75550 0.32144
 C203 C 0.21731 0.75662 0.33264
 C204 C 0.22526 0.76978 0.32921
 H205 H 0.19766 0.74678 0.32047
 H206 H 0.23484 0.77441 0.33538
 H207 H 0.20246 0.79386 0.30127
 H208 H 0.21542 0.78277 0.28858
 N209 N 0.46996 0.43244 0.47237
 N210 N 0.45836 0.43702 0.48064
 C211 C 0.45656 0.42740 0.49242
 C212 C 0.46760 0.41616 0.49146
 C213 C 0.47589 0.41976 0.47856
 H214 H 0.44777 0.42841 0.50096
 H215 H 0.48566 0.41374 0.47409
 Cu216 Cu 0.44671 0.45500 0.47504
 Cu217 Cu 0.47673 0.44338 0.45434
 Cu218 Cu 0.45651 0.47586 0.44462
 N219 N 0.43544 0.47325 0.46949
 N220 N 0.43929 0.48126 0.45749
 C221 C 0.42955 0.49298 0.45594
 C222 C 0.41900 0.49235 0.46762
 C223 C 0.42313 0.47967 0.47603
 H224 H 0.43017 0.50136 0.44699
 H225 H 0.41741 0.47529 0.48598
 N226 N 0.47426 0.46853 0.43301
 N227 N 0.48181 0.45604 0.43656
 C228 C 0.49315 0.45401 0.42644
 C229 C 0.49277 0.46582 0.41605
 C230 C 0.48065 0.47480 0.42060
 H231 H 0.50125 0.44475 0.42674
 H232 H 0.47667 0.48508 0.41515
 H233 H 0.46877 0.46445 0.46113
 H234 H 0.45585 0.45277 0.44896
 N235 N -0.03116 -0.06707 0.97251
 N236 N -0.04126 -0.06132 0.98191
 C237 C -0.04336 -0.07102 0.99355
 C238 C -0.03403 -0.08357 0.99136
 C239 C -0.02647 -0.08063 0.97784
 H240 H -0.05110 -0.06903 1.00289
 H241 H -0.01785 -0.08759 0.97249
 Cu242 Cu -0.05062 -0.04166 0.97825
 Cu243 Cu -0.02397 -0.05602 0.95471
 Cu244 Cu -0.03964 -0.02026 0.94874
 N245 N -0.06314 -0.02503 0.97082
 N246 N -0.05872 -0.01658 0.95934
 C247 C -0.06906 -0.00554 0.95696
 C248 C -0.08071 -0.00718 0.96748
 C249 C -0.07653 -0.01973 0.97608
 H250 H -0.06811 0.00300 0.94818
 H251 H -0.08258 -0.02449 0.98567
 N252 N -0.02372 -0.02901 0.93565
 N253 N -0.01811 -0.04280 0.93757
 C254 C -0.00768 -0.04549 0.92666
 C255 C -0.00665 -0.03276 0.91744
 C256 C -0.01703 -0.02256 0.92350
 H257 H -0.00103 -0.05580 0.92573
 H258 H -0.01967 -0.01130 0.91930
 H259 H -0.02787 -0.03488 0.96338
 H260 H -0.04353 -0.04306 0.95161
 N261 N 1.02991 0.56636 0.97302
 N262 N 1.04088 0.56126 0.98179
 C263 C 1.04270 0.57088 0.99357
 C264 C 1.03230 0.58266 0.99213
 C265 C 1.02438 0.57938 0.97891
 H266 H 1.05110 0.56949 1.00243
 H267 H 1.01513 0.58584 0.97402
 Cu268 Cu 1.05196 0.54265 0.97708
 Cu269 Cu 1.02339 0.55559 0.95485
 Cu270 Cu 1.04386 0.52353 0.94476
 N271 N 1.06408 0.52538 0.97028
 N272 N 1.06101 0.51810 0.95760
 C273 C 1.07134 0.50698 0.95555
 C274 C 1.08146 0.50724 0.96762
 C275 C 1.07646 0.51909 0.97675
 H276 H 1.07140 0.49919 0.94603
 H277 H 1.08164 0.52302 0.98719
 N278 N 1.02613 0.53079 0.93319
 N279 N 1.01846 0.54316 0.93689
 C280 C 1.00710 0.54517 0.92681
 C281 C 1.00758 0.53346 0.91629
 C282 C 1.01980 0.52455 0.92071
 H283 H 0.99888 0.55432 0.92726
 H284 H 1.02385 0.51434 0.91518
 H285 H 1.03076 0.53418 0.96121
 H286 H 1.04467 0.54636 0.95063
 N287 N 0.52971 0.06672 0.47328
 N288 N 0.54269 0.06358 0.48001
 C289 C 0.54483 0.07347 0.49152
 C290 C 0.53252 0.08332 0.49205
 C291 C 0.52314 0.07866 0.48029
 H292 H 0.55453 0.07337 0.49908
 H293 H 0.51244 0.08371 0.47691
 Cu294 Cu 0.55556 0.04679 0.47342
 Cu295 Cu 0.52250 0.05537 0.45572
 Cu296 Cu 0.54398 0.02434 0.44448
 N297 N 0.56665 0.02852 0.46756
 N298 N 0.56202 0.01974 0.45639
 C299 C 0.57162 0.00788 0.45499
 C300 C 0.58293 0.00926 0.46588
 C301 C 0.57938 0.02253 0.47365
 H302 H 0.57049 -0.00102 0.44658
 H303 H 0.58547 0.02734 0.48318
 N304 N 0.52537 0.03079 0.43382
 N305 N 0.51710 0.04254 0.43817
 C306 C 0.50523 0.04409 0.42861
 C307 C 0.50608 0.03278 0.41765
 C308 C 0.51901 0.02457 0.42135
 H309 H 0.49675 0.05297 0.42939
 H310 H 0.52346 0.01475 0.41543
 H311 H 0.53293 0.03527 0.46221
 H312 H 0.54350 0.04758 0.44843
 N313 N -0.03024 0.06717 0.52738
 N314 N -0.04232 0.06311 0.51955
 C315 C -0.04415 0.07283 0.50786
 C316 C -0.03263 0.08359 0.50843
 C317 C -0.02402 0.07961 0.52100
 H318 H -0.05328 0.07221 0.49965
 H319 H -0.01388 0.08523 0.52513
 Cu320 Cu -0.05454 0.04561 0.52545
 Cu321 Cu -0.02337 0.05597 0.54518
 Cu322 Cu -0.04444 0.02426 0.55550
 N323 N -0.06605 0.02759 0.53124
 N324 N -0.06196 0.01925 0.54292
 C325 C -0.07170 0.00751 0.54437
 C326 C -0.08254 0.00853 0.53298
 C327 C -0.07858 0.02144 0.52486
 H328 H -0.07102 -0.00101 0.55318
 H329 H -0.08429 0.02593 0.51496
 N330 N -0.02634 0.03115 0.56681
 N331 N -0.01826 0.04316 0.56283
 C332 C -0.00663 0.04485 0.57267
 C333 C -0.00744 0.03337 0.58340
 C334 C -0.02010 0.02491 0.57931
 H335 H 0.00171 0.05387 0.57216
 H336 H -0.02436 0.01485 0.58493
 H337 H -0.03239 0.03526 0.53856
 H338 H -0.04444 0.04739 0.55121
 N339 N 0.47004 0.56685 0.02680
 N340 N 0.45828 0.56242 0.01868
 C341 C 0.45630 0.57219 0.00707
 C342 C 0.46740 0.58338 0.00797
 C343 C 0.47590 0.57959 0.02067
 H344 H 0.44735 0.57133 -0.00131
 H345 H 0.48575 0.58554 0.02505
 Cu346 Cu 0.44665 0.54437 0.02413
 Cu347 Cu 0.47696 0.55574 0.04464
 Cu348 Cu 0.45612 0.52389 0.05499
 N349 N 0.43483 0.52672 0.03038
 N350 N 0.43866 0.51871 0.04238
 C351 C 0.42875 0.50715 0.04408
 C352 C 0.41805 0.50795 0.03254
 C353 C 0.42228 0.52055 0.02407
 H354 H 0.42922 0.49889 0.05316
 H355 H 0.41673 0.52481 0.01398
 N356 N 0.47415 0.53094 0.06630
 N357 N 0.48215 0.54301 0.06231
 C358 C 0.49378 0.54477 0.07213
 C359 C 0.49307 0.53329 0.08287
 C360 C 0.48046 0.52475 0.07880
 H361 H 0.50207 0.55384 0.07160
 H362 H 0.47628 0.51465 0.08441
 H363 H 0.46854 0.53473 0.03823
 H364 H 0.45583 0.54692 0.05015
 N365 N 0.53086 -0.06694 0.02811
 N366 N 0.54262 -0.06250 0.02001
 C367 C 0.54458 -0.07224 0.00834
 C368 C 0.53348 -0.08342 0.00919
 C369 C 0.52499 -0.07966 0.02192
 H370 H 0.55349 -0.07131 -0.00009
 H371 H 0.51509 -0.08557 0.02623
 Cu372 Cu 0.55418 -0.04442 0.02552
 Cu373 Cu 0.52376 -0.05569 0.04582
 Cu374 Cu 0.54340 -0.02274 0.05515
 N375 N 0.56512 -0.02593 0.03093
 N376 N 0.56076 -0.01744 0.04243
 C377 C 0.57026 -0.00549 0.04375
 C378 C 0.58124 -0.00653 0.03249
 C379 C 0.57758 -0.01967 0.02455
 H380 H 0.56940 0.00313 0.05248
 H381 H 0.58352 -0.02431 0.01484
 N382 N 0.52558 -0.03004 0.06666
 N383 N 0.51829 -0.04274 0.06329
 C384 C 0.50695 -0.04480 0.07338
 C385 C 0.50704 -0.03280 0.08358
 C386 C 0.51900 -0.02366 0.07894
 H387 H 0.49906 -0.05424 0.07322
 H388 H 0.52279 -0.01323 0.08427
 H389 H 0.53171 -0.03476 0.03863
 H390 H 0.54445 -0.04593 0.05144
 N391 N 1.02982 0.43365 0.52733
 N392 N 1.04228 0.43738 0.51995
 C393 C 1.04442 0.42745 0.50847
 C394 C 1.03263 0.41696 0.50863
 C395 C 1.02358 0.42128 0.52078
 H396 H 1.05370 0.42798 0.50041
 H397 H 1.01328 0.41579 0.52467
 Cu398 Cu 1.05436 0.45504 0.52572
 Cu399 Cu 1.02261 0.44506 0.54485
 Cu400 Cu 1.04279 0.47746 0.55464
 N401 N 1.06511 0.47366 0.53111
 N402 N 1.06047 0.48243 0.54229
 C403 C 1.06988 0.49447 0.54347
 C404 C 1.08107 0.49322 0.53242
 C405 C 1.07763 0.47985 0.52479
 H406 H 1.06874 0.50336 0.55189
 H407 H 1.08371 0.47503 0.51526
 N408 N 1.02463 0.47055 0.56582
 N409 N 1.01708 0.45807 0.56222
 C410 C 1.00558 0.45616 0.57217
 C411 C 1.00585 0.46804 0.58252
 C412 C 1.01808 0.47695 0.57811
 H413 H 0.99753 0.44687 0.57186
 H414 H 1.02208 0.48719 0.58363
 H415 H 1.03162 0.46560 0.53765
 H416 H 1.04339 0.45419 0.55120
 C417 C 0.39715 0.00671 0.23015
 H418 H 0.39791 0.01691 0.23702
 C419 C 0.40719 0.00455 0.21804
 H420 H 0.41575 0.01312 0.21576
 C421 C 0.38538 -0.01706 0.22526
 H422 H 0.37702 -0.02556 0.22823
 C423 C 0.39513 -0.01964 0.21299
 H424 H 0.39388 -0.03000 0.20644
 N425 N 0.38642 -0.00395 0.23344
 C426 C 0.35061 0.02083 0.25729
 H427 H 0.35006 0.01436 0.26772
 C428 C 0.34081 0.03313 0.25507
 H429 H 0.33288 0.03621 0.26398
 C430 C 0.36178 0.02468 0.23308
 H431 H 0.36979 0.02119 0.22444
 C432 C 0.35217 0.03705 0.23037
 H433 H 0.35289 0.04294 0.21960
 Zn434 Zn 0.37354 -0.00008 0.25028
 N435 N 0.36094 0.01696 0.24644
 C436 C 0.38580 0.01713 0.27482
 N437 N 0.38629 0.00364 0.26723
 C438 C 0.39637 -0.00742 0.27118
 C439 C 0.40623 -0.00530 0.28344
 C440 C 0.39547 0.01975 0.28714
 C441 C 0.35038 -0.02080 0.24308
 C442 C 0.34038 -0.03295 0.24531
 C443 C 0.35104 -0.03644 0.27036
 C444 C 0.36090 -0.02428 0.26761
 N445 N 0.36054 -0.01686 0.25406
 H446 H 0.37803 0.02596 0.27125
 H447 H 0.39667 -0.01796 0.26480
 H448 H 0.41394 -0.01438 0.28658
 H449 H 0.39502 0.03062 0.29292
 H450 H 0.35013 -0.01452 0.23251
 H451 H 0.33265 -0.03611 0.23626
 H452 H 0.35139 -0.04206 0.28129
 H453 H 0.36869 -0.02069 0.27640
 C454 C 0.34152 0.04145 0.24146
 C455 C 0.40622 -0.00874 0.20920
 C456 C 0.34064 -0.04099 0.25910
 C457 C 0.40584 0.00843 0.29164
 C458 C 0.10221 -0.00789 0.72965
 H459 H 0.10164 -0.01823 0.73629
 C460 C 0.09222 -0.00575 0.71749
 H461 H 0.08415 -0.01464 0.71470
 C462 C 0.11354 0.01618 0.72524
 H463 H 0.12165 0.02484 0.72845
 C464 C 0.10375 0.01881 0.71303
 H465 H 0.10447 0.02952 0.70700
 N466 N 0.11276 0.00290 0.73313
 C467 C 0.14995 -0.02038 0.75634
 H468 H 0.15117 -0.01308 0.76617
 C469 C 0.16003 -0.03248 0.75413
 H470 H 0.16908 -0.03428 0.76229
 C471 C 0.13702 -0.02637 0.73349
 H472 H 0.12818 -0.02387 0.72535
 C473 C 0.14675 -0.03868 0.73091
 H474 H 0.14498 -0.04570 0.72095
 Zn475 Zn 0.12581 -0.00070 0.74989
 N476 N 0.13866 -0.01762 0.74614
 C477 C 0.11483 -0.01723 0.77544
 N478 N 0.11332 -0.00435 0.76702
 C479 C 0.10238 0.00612 0.77025
 C480 C 0.09253 0.00395 0.78251
 C481 C 0.10526 -0.01983 0.78785
 C482 C 0.14887 0.01998 0.74243
 C483 C 0.15869 0.03232 0.74442
 C484 C 0.14739 0.03673 0.76906
 C485 C 0.13774 0.02433 0.76658
 N486 N 0.13854 0.01635 0.75335
 H487 H 0.12344 -0.02553 0.77256
 H488 H 0.10128 0.01614 0.76320
 H489 H 0.08378 0.01234 0.78474
 H490 H 0.10683 -0.03002 0.79457
 H491 H 0.14939 0.01331 0.73210
 H492 H 0.16659 0.03521 0.73543
 H493 H 0.14669 0.04282 0.77974
 H494 H 0.12973 0.02103 0.77529
 C495 C 0.15848 -0.04189 0.74130
 C496 C 0.09295 0.00773 0.70895
 C497 C 0.15801 0.04091 0.75787
 C498 C 0.09391 -0.00916 0.79154
 C499 C 0.60311 0.49199 0.22872
 H500 H 0.60255 0.48161 0.23529
 C501 C 0.59325 0.49413 0.21647
 H502 H 0.58527 0.48520 0.21354
 C503 C 0.61434 0.51616 0.22457
 H504 H 0.62239 0.52483 0.22792
 C505 C 0.60466 0.51879 0.21226
 H506 H 0.60538 0.52953 0.20629
 N507 N 0.61349 0.50286 0.23243
 C508 C 0.64966 0.47903 0.25671
 H509 H 0.65018 0.48570 0.26704
 C510 C 0.65964 0.46682 0.25463
 H511 H 0.66765 0.46402 0.26354
 C512 C 0.63844 0.47457 0.23264
 H513 H 0.63037 0.47778 0.22396
 C514 C 0.64822 0.46230 0.23006
 H515 H 0.64754 0.45622 0.21938
 Zn516 Zn 0.62614 0.49933 0.24947
 N517 N 0.63918 0.48252 0.24589
 C518 C 0.61465 0.48273 0.27479
 N519 N 0.61322 0.49557 0.26629
 C520 C 0.60207 0.50592 0.26923
 C521 C 0.59199 0.50370 0.28130
 C522 C 0.60487 0.48010 0.28702
 C523 C 0.64971 0.51959 0.24282
 C524 C 0.65949 0.53195 0.24494
 C525 C 0.64639 0.53765 0.26841
 C526 C 0.63692 0.52512 0.26588
 N527 N 0.63864 0.51649 0.25317
 H528 H 0.62334 0.47446 0.27212
 H529 H 0.60100 0.51589 0.26211
 H530 H 0.58310 0.51200 0.28330
 H531 H 0.60643 0.46996 0.29382
 H532 H 0.65096 0.51239 0.23292
 H533 H 0.66835 0.53406 0.23666
 H534 H 0.64461 0.54455 0.27845
 H535 H 0.62822 0.52235 0.27409
 C536 C 0.65895 0.45822 0.24117
 C537 C 0.59395 0.50769 0.20804
 C538 C 0.65787 0.54122 0.25787
 C539 C 0.59334 0.49067 0.29044
 C540 C 0.89719 0.50677 0.73025
 H541 H 0.89818 0.51679 0.73735
 C542 C 0.90715 0.50470 0.71805
 H543 H 0.91588 0.51314 0.71594
 C544 C 0.88493 0.48336 0.72485
 H545 H 0.87639 0.47498 0.72762
 C546 C 0.89460 0.48087 0.71248
 H547 H 0.89311 0.47070 0.70569
 N548 N 0.88627 0.49624 0.73333
 C549 C 0.85017 0.52040 0.75737
 H550 H 0.84942 0.51367 0.76763
 C551 C 0.84032 0.53269 0.75523
 H552 H 0.83217 0.53549 0.76404
 C553 C 0.86184 0.52492 0.73352
 H554 H 0.87006 0.52171 0.72497
 C555 C 0.85219 0.53728 0.73089
 H556 H 0.85311 0.54343 0.72028
 Zn557 Zn 0.87351 0.49988 0.75031
 N558 N 0.86078 0.51688 0.74667
 C559 C 0.88510 0.51648 0.77559
 N560 N 0.88633 0.50351 0.76723
 C561 C 0.89722 0.49296 0.77036
 C562 C 0.90729 0.49514 0.78244
 C563 C 0.89487 0.51908 0.78784
 C564 C 0.85002 0.47952 0.74332
 C565 C 0.83999 0.46740 0.74557
 C566 C 0.85182 0.46280 0.76991
 C567 C 0.86165 0.47499 0.76718
 N568 N 0.86068 0.48297 0.75399
 H569 H 0.87659 0.52489 0.77279
 H570 H 0.89812 0.48287 0.76335
 H571 H 0.91601 0.48670 0.78456
 H572 H 0.89348 0.52934 0.79452
 H573 H 0.84935 0.48621 0.73303
 H574 H 0.83178 0.46467 0.73680
 H575 H 0.85265 0.45671 0.78057
 H576 H 0.86993 0.47814 0.77570
 C577 C 0.84128 0.54135 0.74186
 C578 C 0.90590 0.49163 0.70892
 C579 C 0.84081 0.45883 0.75901
 C580 C 0.90618 0.50834 0.79141
 C581 C 0.23032 0.39975 0.00631
 H582 H 0.23751 0.40078 0.01624
 C583 C 0.21817 0.40979 0.00423
 H584 H 0.21618 0.41861 0.01259
 C585 C 0.22465 0.38730 -0.01690
 H586 H 0.22730 0.37867 -0.02522
 C587 C 0.21233 0.39704 -0.01939
 H588 H 0.20545 0.39552 -0.02948
 N589 N 0.23323 0.38868 -0.00411
 C590 C 0.25690 0.35226 0.01973
 H591 H 0.26685 0.35107 0.01257
 C592 C 0.25479 0.34246 0.03202
 H593 H 0.26313 0.33363 0.03413
 C594 C 0.23370 0.36491 0.02523
 H595 H 0.22543 0.37356 0.02247
 C596 C 0.23118 0.35541 0.03769
 H597 H 0.22109 0.35710 0.04456
 Zn598 Zn 0.25012 0.37577 -0.00047
 N599 N 0.24648 0.36327 0.01664
 C600 C 0.27518 0.38759 0.01622
 N601 N 0.26723 0.38840 0.00298
 C602 C 0.27091 0.39872 -0.00792
 C603 C 0.28324 0.40854 -0.00587
 C604 C 0.28757 0.39723 0.01875
 C605 C 0.24272 0.35231 -0.02077
 C606 C 0.24478 0.34229 -0.03293
 C607 C 0.26948 0.35355 -0.03738
 C608 C 0.26692 0.36338 -0.02517
 N609 N 0.25362 0.36274 -0.01727
 H610 H 0.27185 0.37958 0.02491
 H611 H 0.26426 0.39925 -0.01825
 H612 H 0.28616 0.41646 -0.01483
 H613 H 0.29362 0.39653 0.02945
 H614 H 0.23235 0.35185 -0.01413
 H615 H 0.23581 0.33431 -0.03572
 H616 H 0.28022 0.35416 -0.04341
 H617 H 0.27566 0.37140 -0.02194
 C618 C 0.24181 0.34398 0.04124
 C619 C 0.20893 0.40847 -0.00873
 C620 C 0.25830 0.34287 -0.04146
 C621 C 0.29178 0.40787 0.00761
 C622 C 0.72856 0.10209 -0.00819
 H623 H 0.73473 0.10183 -0.01883
 C624 C 0.71609 0.09249 -0.00601
 H625 H 0.71261 0.08499 -0.01514
 C626 C 0.72561 0.11236 0.01655
 H627 H 0.72953 0.11993 0.02541
 C628 C 0.71309 0.10292 0.01923
 H629 H 0.70749 0.10333 0.03019
 N630 N 0.73298 0.11185 0.00296
 C631 C 0.75820 0.14583 -0.02290
 H632 H 0.76927 0.14515 -0.01753
 C633 C 0.75600 0.15555 -0.03525
 H634 H 0.76541 0.16234 -0.03943
 C635 C 0.73237 0.13800 -0.02388
 H636 H 0.72315 0.13128 -0.01930
 C637 C 0.72958 0.14785 -0.03600
 H638 H 0.71826 0.14851 -0.04085
 Zn639 Zn 0.75027 0.12407 -0.00093
 N640 N 0.74656 0.13703 -0.01771
 C641 C 0.77380 0.11056 -0.01873
 N642 N 0.76672 0.11065 -0.00498
 C643 C 0.77078 0.10069 0.00612
 C644 C 0.78284 0.09056 0.00385
 C645 C 0.78589 0.10060 -0.02150
 C646 C 0.74391 0.14743 0.01951
 C647 C 0.74616 0.15727 0.03177
 C648 C 0.77039 0.14510 0.03643
 C649 C 0.76771 0.13556 0.02401
 N650 N 0.75452 0.13673 0.01598
 H651 H 0.77003 0.11806 -0.02766
 H652 H 0.76473 0.10075 0.01683
 H653 H 0.78616 0.08303 0.01300
 H654 H 0.79132 0.10066 -0.03255
 H655 H 0.73364 0.14830 0.01276
 H656 H 0.73761 0.16580 0.03425
 H657 H 0.78079 0.14373 0.04288
 H658 H 0.77619 0.12724 0.02084
 C659 C 0.74154 0.15662 -0.04189
 C660 C 0.70817 0.09281 0.00786
 C661 C 0.75951 0.15613 0.04050
 C662 C 0.79066 0.09052 -0.01008
 C663 C 0.21866 0.61752 0.50201
 H664 H 0.21719 0.62944 0.49946
 C665 C 0.20585 0.60837 0.50430
 H666 H 0.19461 0.61333 0.50327
 C667 C 0.23501 0.59652 0.50633
 H668 H 0.24639 0.59198 0.50741
 C669 C 0.22254 0.58696 0.50865
 H670 H 0.22448 0.57513 0.51148
 N671 N 0.23291 0.61147 0.50290
 C672 C 0.25424 0.63411 0.46894
 H673 H 0.26197 0.62466 0.46770
 C674 C 0.25175 0.64372 0.45656
 H675 H 0.25757 0.64149 0.44594
 C676 C 0.23775 0.64893 0.48427
 H677 H 0.23252 0.65106 0.49520
 C678 C 0.23505 0.65892 0.47224
 H679 H 0.22748 0.66851 0.47390
 Zn680 Zn 0.25028 0.62395 0.49957
 N681 N 0.24708 0.63670 0.48241
 C682 C 0.26712 0.60068 0.48523
 N683 N 0.26757 0.61124 0.49655
 C684 C 0.27986 0.61236 0.50591
 C685 C 0.29243 0.60283 0.50388
 C686 C 0.27948 0.59099 0.48274
 C687 C 0.24478 0.63500 0.52932
 C688 C 0.24695 0.64462 0.54177
 C689 C 0.26686 0.65750 0.52784
 C690 C 0.26424 0.64771 0.51562
 N691 N 0.25341 0.63668 0.51660
 H692 H 0.25707 0.59971 0.47820
 H693 H 0.27993 0.62058 0.51504
 H694 H 0.30218 0.60401 0.51133
 H695 H 0.27885 0.58261 0.47374
 H696 H 0.23622 0.62617 0.52984
 H697 H 0.24009 0.64304 0.55188
 H698 H 0.27546 0.66628 0.52682
 H699 H 0.27083 0.64887 0.50529
 C700 C 0.24203 0.65630 0.45813
 C701 C 0.20771 0.59284 0.50757
 C702 C 0.25814 0.65603 0.54113
 C703 C 0.29236 0.59201 0.49213
 C704 C 0.72936 0.89944 0.50703
 H705 H 0.73615 0.90020 0.51726
 C706 C 0.71712 0.90935 0.50488
 H707 H 0.71442 0.91757 0.51364
 C708 C 0.72466 0.88766 0.48326
 H709 H 0.72778 0.87937 0.47474
 C710 C 0.71234 0.89737 0.48062
 H711 H 0.70614 0.89644 0.47003
 N712 N 0.73278 0.88875 0.49637
 C713 C 0.75684 0.85245 0.52008
 H714 H 0.76686 0.85148 0.51298
 C715 C 0.75480 0.84251 0.53228
 H716 H 0.76327 0.83382 0.53439
 C717 C 0.73337 0.86463 0.52546
 H718 H 0.72494 0.87312 0.52268
 C719 C 0.73091 0.85500 0.53783
 H720 H 0.72073 0.85646 0.54461
 Zn721 Zn 0.74978 0.87603 0.49998
 N722 N 0.74626 0.86331 0.51698
 C723 C 0.77487 0.88785 0.51665
 N724 N 0.76675 0.88884 0.50354
 C725 C 0.77016 0.89943 0.49281
 C726 C 0.78243 0.90932 0.49488
 C727 C 0.78720 0.89756 0.51921
 C728 C 0.74286 0.85228 0.47997
 C729 C 0.74501 0.84223 0.46785
 C730 C 0.76889 0.85473 0.46236
 C731 C 0.76632 0.86448 0.47464
 N732 N 0.75339 0.86320 0.48305
 H733 H 0.77174 0.87964 0.52522
 H734 H 0.76336 0.90010 0.48258
 H735 H 0.78514 0.91745 0.48605
 H736 H 0.79342 0.89670 0.52980
 H737 H 0.73280 0.85134 0.48701
 H738 H 0.73658 0.83349 0.46574
 H739 H 0.77912 0.85616 0.45564
 H740 H 0.77472 0.87301 0.47743
 C741 C 0.74171 0.84374 0.54139
 C742 C 0.70841 0.90838 0.49153
 C743 C 0.75816 0.84340 0.45882
 C744 C 0.79117 0.90845 0.50822
 C745 C 0.00720 0.22997 0.39856
 H746 H 0.01737 0.23689 0.39938
 C747 C 0.00512 0.21774 0.40846
 H748 H 0.01389 0.21517 0.41671
 C749 C -0.01648 0.22493 0.38667
 H750 H -0.02498 0.22790 0.37831
 C751 C -0.01905 0.21263 0.39637
 H752 H -0.02959 0.20630 0.39538
 N753 N -0.00345 0.23322 0.38784
 C754 C 0.01957 0.25696 0.35092
 H755 H 0.01227 0.26681 0.34978
 C756 C 0.03166 0.25480 0.34082
 H757 H 0.03348 0.26302 0.33185
 C758 C 0.02559 0.23401 0.36367
 H759 H 0.02310 0.22581 0.37245
 C760 C 0.03784 0.23144 0.35388
 H761 H 0.04484 0.22143 0.35551
 Zn762 Zn -0.00005 0.25021 0.37508
 N763 N 0.01685 0.24669 0.36214
 C764 C 0.01606 0.27621 0.38579
 N765 N 0.00356 0.26727 0.38775
 C766 C -0.00649 0.26995 0.39920
 C767 C -0.00430 0.28217 0.40911
 C768 C 0.01865 0.28861 0.39539
 C769 C -0.01992 0.24356 0.35118
 C770 C -0.03216 0.24569 0.34128
 C771 C -0.03875 0.26854 0.35508
 C772 C -0.02630 0.26605 0.36462
 N773 N -0.01725 0.25365 0.36259
 H774 H 0.02405 0.27377 0.37678
 H775 H -0.01619 0.26250 0.40066
 H776 H -0.01234 0.28396 0.41827
 H777 H 0.02850 0.29575 0.39343
 H778 H -0.01241 0.23390 0.34970
 H779 H -0.03385 0.23766 0.33210
 H780 H -0.04598 0.27832 0.35711
 H781 H -0.02390 0.27405 0.37363
 C782 C 0.04103 0.24191 0.34225
 C783 C -0.00815 0.20886 0.40744
 C784 C -0.04181 0.25832 0.34316
 C785 C 0.00839 0.29174 0.40725
 C786 C -0.00727 0.72934 0.10189
 H787 H -0.01772 0.73585 0.10138
 C788 C -0.00506 0.71709 0.09201
 H789 H -0.01400 0.71411 0.08407
 C790 C 0.01699 0.72533 0.11299
 H791 H 0.02566 0.72874 0.12100
 C792 C 0.01968 0.71302 0.10331
 H793 H 0.03047 0.70708 0.10398
 N794 N 0.00361 0.73311 0.11221
 C795 C -0.02081 0.75738 0.14796
 H796 H -0.01438 0.76787 0.14833
 C797 C -0.03302 0.75521 0.15790
 H798 H -0.03605 0.76422 0.16574
 C799 C -0.02469 0.73297 0.13715
 H800 H -0.02124 0.72421 0.12926
 C801 C -0.03695 0.73031 0.14691
 H802 H -0.04280 0.71947 0.14638
 Zn803 Zn -0.00014 0.75015 0.12484
 N804 N -0.01702 0.74641 0.13772
 C805 C -0.01747 0.77467 0.11272
 N806 N -0.00407 0.76694 0.11193
 C807 C 0.00667 0.77054 0.10139
 C808 C 0.00430 0.78260 0.09135
 C809 C -0.02032 0.78680 0.10289
 C810 C 0.02018 0.74346 0.14827
 C811 C 0.03243 0.74563 0.15815
 C812 C 0.03760 0.76961 0.14578
 C813 C 0.02519 0.76701 0.13619
 N814 N 0.01688 0.75401 0.13748
 H815 H -0.02607 0.77136 0.12084
 H816 H 0.01712 0.76404 0.10084
 H817 H 0.01313 0.78546 0.08324
 H818 H -0.03112 0.79271 0.10359
 H819 H 0.01322 0.73334 0.14921
 H820 H 0.03471 0.73716 0.16677
 H821 H 0.04425 0.77988 0.14435
 H822 H 0.02224 0.77542 0.12776
 C823 C -0.04130 0.74153 0.15743
 C824 C 0.00857 0.70873 0.09264
 C825 C 0.04139 0.75883 0.15695
 C826 C -0.00933 0.79094 0.09204
 C827 C 0.49347 0.22980 0.60221
 H828 H 0.48348 0.23693 0.60110
 C829 C 0.49557 0.21748 0.59239
 H830 H 0.48718 0.21532 0.58364
 C831 C 0.51677 0.22441 0.61467
 H832 H 0.52508 0.22723 0.62327
 C833 C 0.51929 0.21194 0.60515
 H834 H 0.52944 0.20512 0.60675
 N835 N 0.50395 0.23296 0.61313
 C836 C 0.47939 0.25758 0.64851
 H837 H 0.48588 0.26804 0.64896
 C838 C 0.46706 0.25546 0.65831
 H839 H 0.46398 0.26449 0.66610
 C840 C 0.47552 0.23320 0.63764
 H841 H 0.47901 0.22445 0.62975
 C842 C 0.46317 0.23057 0.64728
 H843 H 0.45732 0.21974 0.64671
 Zn844 Zn 0.50032 0.25012 0.62564
 N845 N 0.48325 0.24660 0.63832
 C846 C 0.48345 0.27486 0.61334
 N847 N 0.49674 0.26693 0.61263
 C848 C 0.50759 0.27036 0.60215
 C849 C 0.50548 0.28249 0.59212
 C850 C 0.48086 0.28706 0.60351
 C851 C 0.52017 0.24347 0.64956
 C852 C 0.53245 0.24552 0.65944
 C853 C 0.53847 0.26894 0.64643
 C854 C 0.52601 0.26650 0.63687
 N855 N 0.51729 0.25381 0.63844
 H856 H 0.47475 0.27169 0.62139
 H857 H 0.51794 0.26369 0.60164
 H858 H 0.51441 0.28523 0.58409
 H859 H 0.47014 0.29312 0.60416
 H860 H 0.51289 0.23360 0.65073
 H861 H 0.53441 0.23722 0.66831
 H862 H 0.54547 0.27893 0.64471
 H863 H 0.52339 0.27476 0.62819
 C864 C 0.45874 0.24180 0.65778
 C865 C 0.50862 0.20832 0.59380
 C866 C 0.54187 0.25836 0.65790
 C867 C 0.49199 0.29107 0.59275
 C868 C 0.50676 0.73008 0.89851
 H869 H 0.51706 0.73681 0.89920
 C870 C 0.50457 0.71789 0.90843
 H871 H 0.51339 0.71516 0.91658
 C872 C 0.48284 0.72548 0.88690
 H873 H 0.47429 0.72863 0.87867
 C874 C 0.48017 0.71322 0.89663
 H875 H 0.46951 0.70708 0.89576
 N876 N 0.49605 0.73353 0.88790
 C877 C 0.51983 0.75726 0.85147
 H878 H 0.51279 0.76732 0.85051
 C879 C 0.53199 0.75509 0.84147
 H880 H 0.53412 0.76350 0.83275
 C881 C 0.52512 0.73383 0.86367
 H882 H 0.52230 0.72547 0.87219
 C883 C 0.53745 0.73124 0.85397
 H884 H 0.54417 0.72102 0.85542
 Zn885 Zn 0.49972 0.75045 0.87513
 N886 N 0.51670 0.74677 0.86236
 C887 C 0.51664 0.77544 0.88683
 N888 N 0.50342 0.76743 0.88785
 C889 C 0.49274 0.77092 0.89848
 C890 C 0.49498 0.78310 0.90843
 C891 C 0.51938 0.78769 0.89658
 C892 C 0.47964 0.74346 0.85151
 C893 C 0.46742 0.74550 0.84157
 C894 C 0.46179 0.76932 0.85409
 C895 C 0.47418 0.76688 0.86372
 N896 N 0.48271 0.75402 0.86239
 H897 H 0.52518 0.77226 0.87857
 H898 H 0.48242 0.76422 0.89919
 H899 H 0.48620 0.78585 0.91662
 H900 H 0.53007 0.79378 0.89571
 H901 H 0.48676 0.73346 0.85054
 H902 H 0.46532 0.73703 0.83287
 H903 H 0.45497 0.77948 0.85558
 H904 H 0.47695 0.77529 0.87224
 C905 C 0.54104 0.74194 0.84266
 C906 C 0.49113 0.70925 0.90755
 C907 C 0.45824 0.75855 0.84281
 C908 C 0.50846 0.79168 0.90756
 C909 C 0.12862 0.22473 0.27153
 C910 C 0.13436 0.23674 0.26267
 C911 C 0.14658 0.23436 0.25278
 C912 C 0.15344 0.21996 0.25159
 C913 C 0.14776 0.20796 0.26048
 C914 C 0.13544 0.21030 0.27029
 C915 C 0.11562 0.22726 0.28199
 N916 N 0.10855 0.21535 0.28884
 N917 N 0.09684 0.21764 0.29821
 C918 C 0.09174 0.23194 0.30117
 N919 N 0.09883 0.24385 0.29434
 N920 N 0.11050 0.24156 0.28493
 C921 C 0.07875 0.23450 0.31162
 C922 C 0.07503 0.24926 0.31655
 C923 C 0.06283 0.25166 0.32649
 C924 C 0.05399 0.23937 0.33165
 C925 C 0.05767 0.22461 0.32664
 C926 C 0.06992 0.22220 0.31680
 H927 H 0.12937 0.24799 0.26333
 H928 H 0.15075 0.24389 0.24621
 H929 H 0.15269 0.19670 0.25976
 H930 H 0.13133 0.20081 0.27696
 H931 H 0.08164 0.25899 0.31287
 H932 H 0.06048 0.26315 0.33030
 H933 H 0.05094 0.21491 0.33018
 H934 H 0.07240 0.21069 0.31314
 C935 C 0.62858 0.72474 0.77189
 C936 C 0.63528 0.71027 0.77050
 C937 C 0.64757 0.70793 0.76066
 C938 C 0.65333 0.71996 0.75187
 C939 C 0.64658 0.73441 0.75320
 C940 C 0.63439 0.73678 0.76314
 C941 C 0.61561 0.72727 0.78239
 N942 N 0.61070 0.74158 0.78559
 N943 N 0.59907 0.74387 0.79505
 C944 C 0.59181 0.73194 0.80166
 N945 N 0.59670 0.71762 0.79844
 N946 N 0.60837 0.71534 0.78903
 C947 C 0.57884 0.73449 0.81215
 C948 C 0.56973 0.72225 0.81696
 C949 C 0.55746 0.72467 0.82679
 C950 C 0.55406 0.73937 0.83215
 C951 C 0.56321 0.75160 0.82737
 C952 C 0.57542 0.74920 0.81745
 H953 H 0.63110 0.70074 0.77709
 H954 H 0.65242 0.69663 0.75983
 H955 H 0.65083 0.74396 0.74671
 H956 H 0.62949 0.74807 0.76390
 H957 H 0.57198 0.71079 0.81301
 H958 H 0.55050 0.71503 0.83002
 H959 H 0.56109 0.76303 0.83146
 H960 H 0.58226 0.75887 0.81405
 C961 C 0.36990 0.77452 0.77285
 C962 C 0.36434 0.76249 0.76388
 C963 C 0.35208 0.76474 0.75402
 C964 C 0.34499 0.77904 0.75299
 C965 C 0.35047 0.79106 0.76201
 C966 C 0.36283 0.78884 0.77177
 C967 C 0.38298 0.77216 0.78323
 N968 N 0.39003 0.78418 0.78992
 N969 N 0.40182 0.78206 0.79922
 C970 C 0.40701 0.76782 0.80225
 N971 N 0.39994 0.75580 0.79558
 N972 N 0.38819 0.75792 0.78624
 C973 C 0.42011 0.76545 0.81261
 C974 C 0.42377 0.75080 0.81786
 C975 C 0.43608 0.74857 0.82768
 C976 C 0.44511 0.76093 0.83240
 C977 C 0.44147 0.77558 0.82708
 C978 C 0.42909 0.77782 0.81736
 H979 H 0.36952 0.75132 0.76441
 H980 H 0.34805 0.75521 0.74733
 H981 H 0.34536 0.80225 0.76141
 H982 H 0.36680 0.79836 0.77853
 H983 H 0.41703 0.74103 0.81451
 H984 H 0.43839 0.73718 0.83174
 H985 H 0.44833 0.78531 0.83026
 H986 H 0.42666 0.78924 0.81345
 C987 C -0.12884 0.27536 0.27184
 C988 C -0.13244 0.26443 0.26078
 C989 C -0.14450 0.26679 0.25068
 C990 C -0.15345 0.28010 0.25149
 C991 C -0.14979 0.29101 0.26268
 C992 C -0.13761 0.28870 0.27264
 C993 C -0.11601 0.27285 0.28249
 N994 N -0.11029 0.28452 0.29086
 N995 N -0.09873 0.28226 0.30040
 C996 C -0.09246 0.26822 0.30203
 N997 N -0.09822 0.25654 0.29369
 N998 N -0.10972 0.25882 0.28410
 C999 C -0.07959 0.26569 0.31262
 C1000 C -0.07540 0.25088 0.31691
 C1001 C -0.06325 0.24849 0.32689
 C1002 C -0.05489 0.26086 0.33270
 C1003 C -0.05908 0.27568 0.32835
 C1004 C -0.07134 0.27807 0.31850
 H1005 H -0.12587 0.25404 0.25982
 H1006 H -0.14679 0.25798 0.24241
 H1007 H -0.15617 0.30147 0.26379
 H1008 H -0.13514 0.29735 0.28106
 H1009 H -0.08160 0.24110 0.31269
 H1010 H -0.06054 0.23694 0.33021
 H1011 H -0.05276 0.28547 0.33236
 H1012 H -0.07420 0.28963 0.31532
 C1013 C -0.12921 0.72440 0.22775
 C1014 C -0.14159 0.71526 0.22334
 C1015 C -0.15388 0.71292 0.23317
 C1016 C -0.15412 0.71972 0.24764
 C1017 C -0.14174 0.72887 0.25204
 C1018 C -0.12943 0.73116 0.24223
 C1019 C -0.11616 0.72689 0.21733
 N1020 N -0.10379 0.73497 0.22190
 N1021 N -0.09208 0.73723 0.21255
 C1022 C -0.09223 0.73152 0.19820
 N1023 N -0.10461 0.72344 0.19362
 N1024 N -0.11631 0.72116 0.20298
 C1025 C -0.07920 0.73406 0.18778
 C1026 C -0.07980 0.72900 0.17263
 C1027 C -0.06753 0.73143 0.16280
 C1028 C -0.05435 0.73895 0.16789
 C1029 C -0.05373 0.74399 0.18304
 C1030 C -0.06601 0.74159 0.19286
 H1031 H -0.14182 0.70988 0.21226
 H1032 H -0.16325 0.70591 0.22933
 H1033 H -0.14144 0.73418 0.26313
 H1034 H -0.12009 0.73826 0.24602
 H1035 H -0.08979 0.72321 0.16831
 H1036 H -0.06846 0.72760 0.15115
 H1037 H -0.04366 0.74962 0.18738
 H1038 H -0.06512 0.74559 0.20447
 C1039 C 0.37058 0.22443 0.72773
 C1040 C 0.36891 0.23321 0.74096
 C1041 C 0.35656 0.23092 0.75071
 C1042 C 0.34553 0.21968 0.74758
 C1043 C 0.34732 0.21084 0.73431
 C1044 C 0.35963 0.21323 0.72451
 C1045 C 0.38365 0.22696 0.71735
 N1046 N 0.38424 0.22004 0.70356
 N1047 N 0.39596 0.22237 0.69423
 C1048 C 0.40762 0.23168 0.69831
 N1049 N 0.40704 0.23858 0.71212
 N1050 N 0.39530 0.23629 0.72143
 C1051 C 0.42068 0.23427 0.68794
 C1052 C 0.43369 0.24213 0.69299
 C1053 C 0.44602 0.24453 0.68324
 C1054 C 0.44562 0.23923 0.66816
 C1055 C 0.43259 0.23142 0.66311
 C1056 C 0.42029 0.22893 0.67289
 H1057 H 0.37713 0.24197 0.74378
 H1058 H 0.35586 0.23801 0.76072
 H1059 H 0.33922 0.20209 0.73127
 H1060 H 0.36058 0.20623 0.71442
 H1061 H 0.43442 0.24632 0.70454
 H1062 H 0.45597 0.25037 0.68759
 H1063 H 0.43179 0.22738 0.65150
 H1064 H 0.41042 0.22292 0.66859
 C1065 C 0.63154 0.27425 0.72628
 C1066 C 0.63890 0.28842 0.72690
 C1067 C 0.65115 0.29081 0.73677
 C1068 C 0.65631 0.27910 0.74645
 C1069 C 0.64895 0.26485 0.74565
 C1070 C 0.63679 0.26246 0.73567
 C1071 C 0.61835 0.27184 0.71603
 N1072 N 0.61273 0.25765 0.71353
 N1073 N 0.60079 0.25552 0.70443
 C1074 C 0.59392 0.26749 0.69749
 N1075 N 0.59953 0.28168 0.70000
 N1076 N 0.61151 0.28381 0.70905
 C1077 C 0.58057 0.26514 0.68744
 C1078 C 0.57181 0.27758 0.68252
 C1079 C 0.55922 0.27538 0.67306
 C1080 C 0.55515 0.26069 0.66816
 C1081 C 0.56394 0.24825 0.67308
 C1082 C 0.57645 0.25044 0.68265
 H1083 H 0.63520 0.29774 0.71975
 H1084 H 0.65634 0.30196 0.73685
 H1085 H 0.65247 0.25541 0.75267
 H1086 H 0.63139 0.25138 0.73547
 H1087 H 0.57458 0.28905 0.68610
 H1088 H 0.55256 0.28520 0.66973
 H1089 H 0.56130 0.23680 0.66934
 H1090 H 0.58300 0.24061 0.68615
 C1091 C 0.12937 0.77548 0.22728
 C1092 C 0.13555 0.76327 0.23554
 C1093 C 0.14771 0.76560 0.24553
 C1094 C 0.15407 0.78016 0.24739
 C1095 C 0.14795 0.79236 0.23907
 C1096 C 0.13571 0.79006 0.22918
 C1097 C 0.11640 0.77304 0.21677
 N1098 N 0.10894 0.78503 0.21050
 N1099 N 0.09724 0.78283 0.20111
 C1100 C 0.09253 0.76854 0.19755
 N1101 N 0.10002 0.75654 0.20379
 N1102 N 0.11168 0.75874 0.21321
 C1103 C 0.07950 0.76608 0.18711
 C1104 C 0.07611 0.75143 0.18163
 C1105 C 0.06382 0.74910 0.17181
 C1106 C 0.05454 0.76134 0.16731
 C1107 C 0.05793 0.77599 0.17282
 C1108 C 0.07028 0.77833 0.18256
 H1109 H 0.13095 0.75190 0.23437
 H1110 H 0.15223 0.75593 0.25165
 H1111 H 0.15248 0.80374 0.24032
 H1112 H 0.13125 0.79972 0.22298
 H1113 H 0.08303 0.74175 0.18482
 H1114 H 0.06171 0.73772 0.16758
 H1115 H 0.05088 0.78563 0.16979
 H1116 H 0.07250 0.78975 0.18665
 C1117 C 0.27203 0.13003 0.22423
 C1118 C 0.27667 0.14233 0.21513
 C1119 C 0.26696 0.15469 0.21269
 C1120 C 0.25239 0.15509 0.21932
 C1121 C 0.24778 0.14282 0.22846
 C1122 C 0.25746 0.13042 0.23085
 C1123 C 0.28233 0.11689 0.22677
 N1124 N 0.27755 0.10454 0.23474
 N1125 N 0.28679 0.09274 0.23700
 C1126 C 0.30122 0.09276 0.23141
 N1127 N 0.30600 0.10511 0.22345
 N1128 N 0.29675 0.11691 0.22117
 C1129 C 0.31151 0.07962 0.23394
 C1130 C 0.32676 0.08011 0.22904
 C1131 C 0.33647 0.06775 0.23148
 C1132 C 0.33117 0.05458 0.23884
 C1133 C 0.31593 0.05407 0.24370
 C1134 C 0.30622 0.06645 0.24130
 H1135 H 0.28781 0.14243 0.20986
 H1136 H 0.27098 0.16398 0.20570
 H1137 H 0.23661 0.14265 0.23365
 H1138 H 0.25351 0.12115 0.23792
 H1139 H 0.33125 0.09010 0.22340
 H1140 H 0.34821 0.06860 0.22778
 H1141 H 0.31142 0.04402 0.24919
 H1142 H 0.29453 0.06564 0.24516
 C1143 C 0.77188 0.63000 0.72473
 C1144 C 0.77660 0.64236 0.71577
 C1145 C 0.76689 0.65472 0.71329
 C1146 C 0.75225 0.65506 0.71975
 C1147 C 0.74755 0.64272 0.72875
 C1148 C 0.75723 0.63032 0.73118
 C1149 C 0.78216 0.61686 0.72730
 N1150 N 0.77727 0.60440 0.73503
 N1151 N 0.78651 0.59259 0.73732
 C1152 C 0.80104 0.59273 0.73199
 N1153 N 0.80592 0.60519 0.72427
 N1154 N 0.79668 0.61699 0.72197
 C1155 C 0.81132 0.57959 0.73452
 C1156 C 0.82667 0.58024 0.72999
 C1157 C 0.83637 0.56786 0.73238
 C1158 C 0.83096 0.55451 0.73933
 C1159 C 0.81561 0.55385 0.74384
 C1160 C 0.80591 0.56625 0.74149
 H1161 H 0.78780 0.64251 0.71062
 H1162 H 0.77098 0.66407 0.70641
 H1163 H 0.73632 0.64250 0.73381
 H1164 H 0.75321 0.62099 0.73814
 H1165 H 0.83125 0.59035 0.72466
 H1166 H 0.84819 0.56882 0.72898
 H1167 H 0.81102 0.54366 0.74902
 H1168 H 0.79414 0.56532 0.74506
 C1169 C 0.76955 0.37190 0.77749
 C1170 C 0.75482 0.37182 0.77123
 C1171 C 0.74490 0.35966 0.77395
 C1172 C 0.74946 0.34733 0.78304
 C1173 C 0.76420 0.34743 0.78929
 C1174 C 0.77412 0.35955 0.78653
 C1175 C 0.78011 0.38478 0.77465
 N1176 N 0.79465 0.38440 0.77989
 N1177 N 0.80414 0.39596 0.77739
 C1178 C 0.79948 0.40843 0.76956
 N1179 N 0.78493 0.40882 0.76431
 N1180 N 0.77545 0.39725 0.76679
 C1181 C 0.81005 0.42131 0.76682
 C1182 C 0.80492 0.43469 0.75971
 C1183 C 0.81488 0.44684 0.75719
 C1184 C 0.83022 0.44591 0.76169
 C1185 C 0.83535 0.43253 0.76877
 C1186 C 0.82539 0.42039 0.77133
 H1187 H 0.75092 0.38114 0.76420
 H1188 H 0.73362 0.36003 0.76902
 H1189 H 0.76819 0.33809 0.79622
 H1190 H 0.78538 0.35921 0.79153
 H1191 H 0.79317 0.43583 0.75616
 H1192 H 0.81049 0.45707 0.75192
 H1193 H 0.84715 0.43135 0.77218
 H1194 H 0.82976 0.41025 0.77678
 C1195 C 0.26997 -0.12842 0.27738
 C1196 C 0.25685 -0.13038 0.26846
 C1197 C 0.24711 -0.14273 0.27091
 C1198 C 0.25015 -0.15344 0.28244
 C1199 C 0.26327 -0.15131 0.29144
 C1200 C 0.27305 -0.13902 0.28889
 C1201 C 0.28040 -0.11543 0.27467
 N1202 N 0.29413 -0.11468 0.28175
 N1203 N 0.30354 -0.10306 0.27927
 C1204 C 0.29962 -0.09165 0.26964
 N1205 N 0.28587 -0.09237 0.26258
 N1206 N 0.27648 -0.10402 0.26502
 C1207 C 0.31010 -0.07870 0.26691
 C1208 C 0.30521 -0.06585 0.25875
 C1209 C 0.31508 -0.05362 0.25625
 C1210 C 0.33011 -0.05399 0.26176
 C1211 C 0.33501 -0.06688 0.26986
 C1212 C 0.32511 -0.07906 0.27244
 H1213 H 0.25413 -0.12243 0.25948
 H1214 H 0.23719 -0.14370 0.26370
 H1215 H 0.26623 -0.15914 0.30043
 H1216 H 0.28303 -0.13783 0.29602
 H1217 H 0.29369 -0.06516 0.25440
 H1218 H 0.31085 -0.04378 0.25018
 H1219 H 0.34658 -0.06765 0.27404
 H1220 H 0.32930 -0.08882 0.27868
 C1221 C 0.22858 -0.12997 0.72393
 C1222 C 0.23941 -0.13411 0.73490
 C1223 C 0.24914 -0.14647 0.73246
 C1224 C 0.24817 -0.15520 0.71903
 C1225 C 0.23720 -0.15101 0.70810
 C1226 C 0.22762 -0.13852 0.71049
 C1227 C 0.21830 -0.11684 0.72651
 N1228 N 0.21027 -0.11069 0.71485
 N1229 N 0.20102 -0.09889 0.71716
 C1230 C 0.19935 -0.09280 0.73125
 N1231 N 0.20736 -0.09896 0.74293
 N1232 N 0.21667 -0.11071 0.74060
 C1233 C 0.18898 -0.07974 0.73384
 C1234 C 0.18445 -0.07572 0.74862
 C1235 C 0.17453 -0.06351 0.75103
 C1236 C 0.16903 -0.05490 0.73873
 C1237 C 0.17369 -0.05887 0.72395
 C1238 C 0.18347 -0.07119 0.72153
 H1239 H 0.24048 -0.12772 0.74538
 H1240 H 0.25725 -0.14918 0.74128
 H1241 H 0.23598 -0.15719 0.69754
 H1242 H 0.21936 -0.13566 0.70181
 H1243 H 0.18840 -0.08215 0.75834
 H1244 H 0.17100 -0.06097 0.76254
 H1245 H 0.16993 -0.05234 0.71423
 H1246 H 0.18684 -0.07390 0.71001
 C1247 C 0.72891 0.36996 0.22393
 C1248 C 0.72429 0.35761 0.21487
 C1249 C 0.73405 0.34530 0.21235
 C1250 C 0.74865 0.34499 0.21889
 C1251 C 0.75327 0.35732 0.22798
 C1252 C 0.74353 0.36967 0.23045
 C1253 C 0.71855 0.38304 0.22656
 N1254 N 0.72331 0.39546 0.23446
 N1255 N 0.71400 0.40721 0.23680
 C1256 C 0.69952 0.40704 0.23136
 N1257 N 0.69476 0.39462 0.22347
 N1258 N 0.70407 0.38288 0.22112
 C1259 C 0.68915 0.42012 0.23392
 C1260 C 0.67387 0.41946 0.22918
 C1261 C 0.66409 0.43178 0.23157
 C1262 C 0.66936 0.44510 0.23871
 C1263 C 0.68463 0.44577 0.24346
 C1264 C 0.69441 0.43342 0.24111
 H1265 H 0.71311 0.35744 0.20968
 H1266 H 0.73003 0.33596 0.20540
 H1267 H 0.76447 0.35756 0.23309
 H1268 H 0.74748 0.37898 0.23748
 H1269 H 0.66940 0.40937 0.22368
 H1270 H 0.65233 0.43080 0.22799
 H1271 H 0.68911 0.45593 0.24881
 H1272 H 0.70612 0.43436 0.24486
 C1273 C 0.72702 0.63017 0.27470
 C1274 C 0.73588 0.63604 0.26276
 C1275 C 0.74563 0.64839 0.26521
 C1276 C 0.74662 0.65523 0.27961
 C1277 C 0.73770 0.64942 0.29152
 C1278 C 0.72806 0.63699 0.28911
 C1279 C 0.71676 0.61700 0.27216
 N1280 N 0.71005 0.60982 0.28407
 N1281 N 0.70086 0.59796 0.28183
 C1282 C 0.69795 0.59281 0.26757
 N1283 N 0.70464 0.60001 0.25565
 N1284 N 0.71387 0.61183 0.25790
 C1285 C 0.68770 0.57963 0.26508
 C1286 C 0.68270 0.57584 0.25038
 C1287 C 0.67299 0.56345 0.24806
 C1288 C 0.66813 0.55446 0.26035
 C1289 C 0.67318 0.55823 0.27504
 C1290 C 0.68280 0.57069 0.27738
 H1291 H 0.73537 0.63105 0.25152
 H1292 H 0.75225 0.65267 0.25576
 H1293 H 0.73828 0.65431 0.30279
 H1294 H 0.72138 0.63278 0.29856
 H1295 H 0.68616 0.58254 0.24066
 H1296 H 0.66913 0.56103 0.23663
 H1297 H 0.66989 0.55142 0.28474
 H1298 H 0.68651 0.57322 0.28884
 C1299 C 0.22745 0.12973 0.77421
 C1300 C 0.24176 0.13041 0.76704
 C1301 C 0.25146 0.14279 0.76946
 C1302 C 0.24713 0.15476 0.77915
 C1303 C 0.23283 0.15408 0.78631
 C1304 C 0.22310 0.14174 0.78384
 C1305 C 0.21715 0.11659 0.77169
 N1306 N 0.20285 0.11651 0.77759
 N1307 N 0.19360 0.10469 0.77538
 C1308 C 0.19826 0.09243 0.76719
 N1309 N 0.21256 0.09250 0.76130
 N1310 N 0.22180 0.10433 0.76349
 C1311 C 0.18797 0.07926 0.76478
 C1312 C 0.19325 0.06601 0.75752
 C1313 C 0.18356 0.05358 0.75530
 C1314 C 0.16833 0.05411 0.76025
 C1315 C 0.16305 0.06737 0.76748
 C1316 C 0.17275 0.07978 0.76974
 H1317 H 0.24548 0.12136 0.75955
 H1318 H 0.26243 0.14286 0.76385
 H1319 H 0.22904 0.16315 0.79373
 H1320 H 0.21216 0.14162 0.78954
 H1321 H 0.20492 0.06517 0.75362
 H1322 H 0.18806 0.04346 0.74990
 H1323 H 0.15133 0.06825 0.77122
 H1324 H 0.16826 0.08983 0.77531
 C1325 C 0.22508 0.27435 0.12952
 C1326 C 0.23715 0.26568 0.13546
 C1327 C 0.23475 0.25585 0.14770
 C1328 C 0.22026 0.25455 0.15436
 C1329 C 0.20821 0.26326 0.14848
 C1330 C 0.21058 0.27300 0.13616
 C1331 C 0.22758 0.28470 0.11646
 N1332 N 0.21560 0.29129 0.10924
 N1333 N 0.21783 0.30056 0.09748
 C1334 C 0.23213 0.30367 0.09248
 N1335 N 0.24411 0.29711 0.09972
 N1336 N 0.24188 0.28780 0.11144
 C1337 C 0.23461 0.31400 0.07940
 C1338 C 0.24933 0.31911 0.07572
 C1339 C 0.25165 0.32887 0.06341
 C1340 C 0.23932 0.33367 0.05440
 C1341 C 0.22461 0.32851 0.05806
 C1342 C 0.22227 0.31884 0.07044
 H1343 H 0.24846 0.26643 0.13061
 H1344 H 0.24431 0.24940 0.15203
 H1345 H 0.19688 0.26244 0.15324
 H1346 H 0.20103 0.27951 0.13189
 H1347 H 0.25907 0.31569 0.08244
 H1348 H 0.26309 0.33282 0.06107
 H1349 H 0.21489 0.33176 0.05123
 H1350 H 0.21080 0.31503 0.07288
 C1351 C 0.72515 0.77414 0.62973
 C1352 C 0.71063 0.77280 0.63635
 C1353 C 0.70827 0.76313 0.64873
 C1354 C 0.72033 0.75448 0.65469
 C1355 C 0.73483 0.75579 0.64805
 C1356 C 0.73723 0.76556 0.63576
 C1357 C 0.72764 0.78442 0.61662
 N1358 N 0.74195 0.78760 0.61165
 N1359 N 0.74417 0.79685 0.59988
 C1360 C 0.73218 0.80327 0.59253
 N1361 N 0.71788 0.80007 0.59748
 N1362 N 0.71566 0.79086 0.60928
 C1363 C 0.73464 0.81356 0.57942
 C1364 C 0.72232 0.81820 0.57035
 C1365 C 0.72462 0.82791 0.55799
 C1366 C 0.73928 0.83331 0.55447
 C1367 C 0.75160 0.82867 0.56357
 C1368 C 0.74932 0.81888 0.57586
 H1369 H 0.70107 0.77926 0.63202
 H1370 H 0.69692 0.76230 0.65346
 H1371 H 0.74439 0.74939 0.65244
 H1372 H 0.74855 0.76631 0.63093
 H1373 H 0.71088 0.81424 0.57269
 H1374 H 0.71492 0.83102 0.55107
 H1375 H 0.76301 0.83279 0.56133
 H1376 H 0.75905 0.81560 0.58267
 C1377 C 0.77560 0.77266 0.37139
 C1378 C 0.76355 0.76403 0.36536
 C1379 C 0.76600 0.75414 0.35315
 C1380 C 0.78054 0.75276 0.34660
 C1381 C 0.79258 0.76144 0.35258
 C1382 C 0.79015 0.77122 0.36487
 C1383 C 0.77300 0.78311 0.38437
 N1384 N 0.78492 0.78967 0.39172
 N1385 N 0.78258 0.79905 0.40340
 C1386 C 0.76823 0.80231 0.40819
 N1387 N 0.75632 0.79576 0.40082
 N1388 N 0.75865 0.78635 0.38918
 C1389 C 0.76564 0.81278 0.42115
 C1390 C 0.75092 0.81809 0.42454
 C1391 C 0.74850 0.82804 0.43671
 C1392 C 0.76073 0.83282 0.44586
 C1393 C 0.77544 0.82743 0.44251
 C1394 C 0.77787 0.81758 0.43028
 H1395 H 0.75219 0.76484 0.37011
 H1396 H 0.75644 0.74774 0.34874
 H1397 H 0.80394 0.76055 0.34789
 H1398 H 0.79969 0.77772 0.36922
 H1399 H 0.74125 0.81470 0.41769
 H1400 H 0.73707 0.83215 0.43881
 H1401 H 0.78508 0.83067 0.44947
 H1402 H 0.78935 0.81362 0.42806
 C1403 C 0.27567 0.27236 -0.12910
 C1404 C 0.28518 0.27669 -0.14120
 C1405 C 0.28768 0.26687 -0.15344
 C1406 C 0.28066 0.25250 -0.15393
 C1407 C 0.27113 0.24817 -0.14185
 C1408 C 0.26869 0.25796 -0.12957
 C1409 C 0.27303 0.28280 -0.11611
 N1410 N 0.26483 0.27823 -0.10384
 N1411 N 0.26249 0.28761 -0.09217
 C1412 C 0.26821 0.30197 -0.09227
 N1413 N 0.27639 0.30654 -0.10455
 N1414 N 0.27876 0.29716 -0.11620
 C1415 C 0.26561 0.31243 -0.07929
 C1416 C 0.27047 0.32766 -0.07999
 C1417 C 0.26805 0.33752 -0.06776
 C1418 C 0.26077 0.33238 -0.05449
 C1419 C 0.25590 0.31716 -0.05379
 C1420 C 0.25827 0.30730 -0.06605
 H1421 H 0.29074 0.28769 -0.14123
 H1422 H 0.29497 0.27065 -0.16260
 H1423 H 0.26565 0.23714 -0.14177
 H1424 H 0.26130 0.25424 -0.12045
 H1425 H 0.27608 0.33203 -0.09004
 H1426 H 0.27173 0.34924 -0.06876
 H1427 H 0.25045 0.31277 -0.04366
 H1428 H 0.25444 0.29563 -0.06508
 C1429 C 0.72418 0.22595 -0.12969
 C1430 C 0.72047 0.22013 -0.14410
 C1431 C 0.71802 0.22996 -0.15634
 C1432 C 0.71962 0.24575 -0.15447
 C1433 C 0.72350 0.25156 -0.14012
 C1434 C 0.72557 0.24177 -0.12780
 C1435 C 0.72661 0.21561 -0.11670
 N1436 N 0.72376 0.22033 -0.10228
 N1437 N 0.72597 0.21102 -0.09056
 C1438 C 0.73128 0.19667 -0.09278
 N1439 N 0.73420 0.19197 -0.10719
 N1440 N 0.73183 0.20123 -0.11893
 C1441 C 0.73389 0.18640 -0.07976
 C1442 C 0.74510 0.17501 -0.08054
 C1443 C 0.74771 0.16545 -0.06813
 C1444 C 0.73892 0.16688 -0.05489
 C1445 C 0.72759 0.17812 -0.05415
 C1446 C 0.72522 0.18793 -0.06642
 H1447 H 0.71926 0.20798 -0.14584
 H1448 H 0.71511 0.22520 -0.16731
 H1449 H 0.72469 0.26370 -0.13836
 H1450 H 0.72848 0.24655 -0.11683
 H1451 H 0.75198 0.17364 -0.09066
 H1452 H 0.75647 0.15679 -0.06892
 H1453 H 0.72073 0.17941 -0.04400
 H1454 H 0.71647 0.19658 -0.06555
 C1455 C 0.22462 0.72634 0.37042
 C1456 C 0.21685 0.72131 0.35739
 C1457 C 0.21443 0.73115 0.34515
 C1458 C 0.21986 0.74619 0.34560
 C1459 C 0.22771 0.75119 0.35860
 C1460 C 0.22999 0.74140 0.37089
 C1461 C 0.22710 0.71595 0.38345
 N1462 N 0.23223 0.72137 0.39698
 N1463 N 0.23446 0.71204 0.40869
 C1464 C 0.23170 0.69689 0.40736
 N1465 N 0.22659 0.69146 0.39383
 N1466 N 0.22431 0.70080 0.38214
 C1467 C 0.23426 0.68650 0.42037
 C1468 C 0.23407 0.67063 0.41829
 C1469 C 0.23664 0.66084 0.43054
 C1470 C 0.23930 0.66670 0.44515
 C1471 C 0.23939 0.68254 0.44727
 C1472 C 0.23697 0.69234 0.43501
 H1473 H 0.21254 0.70979 0.35665
 H1474 H 0.20846 0.72689 0.33526
 H1475 H 0.23192 0.76274 0.35939
 H1476 H 0.23605 0.74564 0.38075
 H1477 H 0.23204 0.66574 0.40718
 H1478 H 0.23636 0.64867 0.42861
 H1479 H 0.24156 0.68737 0.45839
 H1480 H 0.23718 0.70450 0.43702
 C1481 C 0.27542 0.72634 0.62885
 C1482 C 0.28969 0.72699 0.63608
 C1483 C 0.29210 0.73683 0.64834
 C1484 C 0.28033 0.74632 0.65360
 C1485 C 0.26609 0.74573 0.64634
 C1486 C 0.26364 0.73581 0.63414
 C1487 C 0.27284 0.71586 0.61589
 N1488 N 0.25864 0.71374 0.61014
 N1489 N 0.25633 0.70431 0.59850
 C1490 C 0.26812 0.69663 0.59208
 N1491 N 0.28233 0.69876 0.59782
 N1492 N 0.28464 0.70816 0.60949
 C1493 C 0.26556 0.68618 0.57909
 C1494 C 0.27796 0.67986 0.57116
 C1495 C 0.27555 0.67010 0.55884
 C1496 C 0.26069 0.66636 0.55423
 C1497 C 0.24829 0.67260 0.56218
 C1498 C 0.25069 0.68245 0.57444
 H1499 H 0.29901 0.71986 0.63231
 H1500 H 0.30325 0.73709 0.65357
 H1501 H 0.25673 0.75277 0.65016
 H1502 H 0.25252 0.73562 0.62884
 H1503 H 0.28956 0.68248 0.57443
 H1504 H 0.28532 0.66533 0.55302
 H1505 H 0.23672 0.67004 0.55878
 H1506 H 0.24088 0.68710 0.58028
 C1507 C 0.77617 0.22540 0.12927
 C1508 C 0.79065 0.22677 0.13595
 C1509 C 0.79295 0.23648 0.14833
 C1510 C 0.78086 0.24515 0.15422
 C1511 C 0.76640 0.24383 0.14752
 C1512 C 0.76406 0.23400 0.13523
 C1513 C 0.77373 0.21508 0.11615
 N1514 N 0.75943 0.21176 0.11127
 N1515 N 0.75723 0.20249 0.09948
 C1516 C 0.76924 0.19618 0.09204
 N1517 N 0.78354 0.19953 0.09690
 N1518 N 0.78574 0.20875 0.10872
 C1519 C 0.76678 0.18591 0.07889
 C1520 C 0.77903 0.18156 0.06955
 C1521 C 0.77668 0.17195 0.05710
 C1522 C 0.76204 0.16636 0.05375
 C1523 C 0.74982 0.17066 0.06315
 C1524 C 0.75215 0.18036 0.07553
 H1525 H 0.80023 0.22029 0.13166
 H1526 H 0.80427 0.23733 0.15312
 H1527 H 0.75681 0.25024 0.15186
 H1528 H 0.75276 0.23324 0.13035
 H1529 H 0.79043 0.18570 0.07175
 H1530 H 0.78631 0.16908 0.04996
 H1531 H 0.73845 0.16637 0.06108
 H1532 H 0.74248 0.18338 0.08255
 C1533 C 0.47482 0.37842 0.52194
 C1534 C 0.48148 0.37851 0.50742
 C1535 C 0.47915 0.39075 0.49755
 C1536 C 0.47005 0.40317 0.50194
 C1537 C 0.46335 0.40305 0.51644
 C1538 C 0.46573 0.39084 0.52634
 C1539 C 0.47736 0.36546 0.53243
 N1540 N 0.47182 0.36579 0.54684
 N1541 N 0.47413 0.35417 0.55627
 C1542 C 0.48205 0.34170 0.55170
 N1543 N 0.48758 0.34136 0.53728
 N1544 N 0.48529 0.35299 0.52786
 C1545 C 0.48462 0.32875 0.56220
 C1546 C 0.49186 0.31541 0.55711
 C1547 C 0.49425 0.30320 0.56700
 C1548 C 0.48948 0.30405 0.58223
 C1549 C 0.48226 0.31740 0.58732
 C1550 C 0.47984 0.32959 0.57743
 H1551 H 0.48854 0.36914 0.50364
 H1552 H 0.48439 0.39036 0.48643
 H1553 H 0.45638 0.41245 0.52028
 H1554 H 0.46042 0.39116 0.53744
 H1555 H 0.49563 0.31433 0.54545
 H1556 H 0.49964 0.29300 0.56265
 H1557 H 0.47865 0.31851 0.59903
 H1558 H 0.47429 0.33971 0.58176
 C1559 C -0.02768 0.87804 0.02124
 C1560 C -0.03558 0.89104 0.02621
 C1561 C -0.03775 0.90342 0.01649
 C1562 C -0.03205 0.90312 0.00156
 C1563 C -0.02426 0.89006 -0.00345
 C1564 C -0.02211 0.87767 0.00627
 C1565 C -0.02515 0.86501 0.03165
 N1566 N -0.01779 0.85229 0.02682
 N1567 N -0.01539 0.84067 0.03622
 C1568 C -0.02024 0.84126 0.05087
 N1569 N -0.02761 0.85397 0.05570
 N1570 N -0.03002 0.86559 0.04630
 C1571 C -0.01748 0.82836 0.06138
 C1572 C -0.02201 0.82927 0.07668
 C1573 C -0.01936 0.81715 0.08661
 C1574 C -0.01213 0.80382 0.08148
 C1575 C -0.00761 0.80291 0.06618
 C1576 C -0.01024 0.81503 0.05625
 H1577 H -0.04003 0.89173 0.03766
 H1578 H -0.04371 0.91329 0.02081
 H1579 H -0.01984 0.88933 -0.01490
 H1580 H -0.01602 0.86782 0.00203
 H1581 H -0.02756 0.83937 0.08105
 H1582 H -0.02280 0.81829 0.09837
 H1583 H -0.00220 0.79272 0.06182
 H1584 H -0.00665 0.81392 0.04454
 C1585 C 0.02562 0.62083 0.02230
 C1586 C 0.01935 0.62088 0.00761
 C1587 C 0.02152 0.60852 -0.00216
 C1588 C 0.03006 0.59582 0.00249
 C1589 C 0.03639 0.59580 0.01716
 C1590 C 0.03418 0.60814 0.02695
 C1591 C 0.02321 0.63390 0.03271
 N1592 N 0.02859 0.63357 0.04718
 N1593 N 0.02636 0.64529 0.05655
 C1594 C 0.01868 0.65785 0.05184
 N1595 N 0.01332 0.65818 0.03737
 N1596 N 0.01553 0.64646 0.02801
 C1597 C 0.01615 0.67088 0.06227
 C1598 C 0.00885 0.68416 0.05713
 C1599 C 0.00643 0.69642 0.06696
 C1600 C 0.01121 0.69571 0.08218
 C1601 C 0.01852 0.68245 0.08733
 C1602 C 0.02097 0.67018 0.07749
 H1603 H 0.01271 0.63046 0.00363
 H1604 H 0.01659 0.60903 -0.01341
 H1605 H 0.04293 0.58618 0.02120
 H1606 H 0.03917 0.60770 0.03819
 H1607 H 0.00505 0.68513 0.04547
 H1608 H 0.00097 0.70656 0.06258
 H1609 H 0.02216 0.68145 0.09904
 H1610 H 0.02657 0.66012 0.08186
 C1611 C 0.52526 0.12061 0.52312
 C1612 C 0.53990 0.11447 0.52102
 C1613 C 0.54224 0.10233 0.51101
 C1614 C 0.53001 0.09611 0.50278
 C1615 C 0.51538 0.10225 0.50485
 C1616 C 0.51302 0.11432 0.51495
 C1617 C 0.52279 0.13351 0.53372
 N1618 N 0.50848 0.13820 0.53729
 N1619 N 0.50627 0.14981 0.54678
 C1620 C 0.51827 0.15727 0.55308
 N1621 N 0.53258 0.15258 0.54950
 N1622 N 0.53479 0.14094 0.54004
 C1623 C 0.51582 0.17026 0.56357
 C1624 C 0.52813 0.17931 0.56834
 C1625 C 0.52580 0.19164 0.57812
 C1626 C 0.51111 0.19516 0.58344
 C1627 C 0.49881 0.18605 0.57873
 C1628 C 0.50113 0.17378 0.56888
 H1629 H 0.54959 0.11902 0.52713
 H1630 H 0.55368 0.09798 0.50960
 H1631 H 0.50568 0.09766 0.49881
 H1632 H 0.50159 0.11877 0.51628
 H1633 H 0.53958 0.17698 0.56440
 H1634 H 0.53549 0.19855 0.58131
 H1635 H 0.48739 0.18829 0.58281
 H1636 H 0.49140 0.16700 0.56552
 C1637 C -0.02522 0.12126 0.47793
 C1638 C -0.01825 0.12096 0.49230
 C1639 C -0.02062 0.10873 0.50217
 C1640 C -0.03008 0.09654 0.49793
 C1641 C -0.03708 0.09684 0.48357
 C1642 C -0.03464 0.10904 0.47367
 C1643 C -0.02268 0.13422 0.46746
 N1644 N -0.02822 0.13392 0.45305
 N1645 N -0.02593 0.14557 0.44365
 C1646 C -0.01802 0.15804 0.44826
 N1647 N -0.01249 0.15835 0.46267
 N1648 N -0.01476 0.14669 0.47206
 C1649 C -0.01549 0.17103 0.43781
 C1650 C -0.00863 0.18451 0.44306
 C1651 C -0.00627 0.19676 0.43323
 C1652 C -0.01067 0.19582 0.41790
 C1653 C -0.01750 0.18234 0.41264
 C1654 C -0.01991 0.17010 0.42249
 H1655 H -0.01092 0.13018 0.49596
 H1656 H -0.01515 0.10896 0.51318
 H1657 H -0.04432 0.08760 0.47987
 H1658 H -0.04019 0.10888 0.46269
 H1659 H -0.00515 0.18566 0.45481
 H1660 H -0.00120 0.20707 0.43770
 H1661 H -0.02081 0.18115 0.40085
 H1662 H -0.02515 0.15987 0.41804
 C1663 C 0.47420 0.62143 0.97781
 C1664 C 0.48099 0.62122 0.99227
 C1665 C 0.47879 0.60888 1.00203
 C1666 C 0.46970 0.59648 0.99761
 C1667 C 0.46286 0.59672 0.98317
 C1668 C 0.46511 0.60902 0.97338
 C1669 C 0.47662 0.63448 0.96741
 N1670 N 0.47109 0.63420 0.95300
 N1671 N 0.47332 0.64591 0.94365
 C1672 C 0.48114 0.65841 0.94831
 N1673 N 0.48665 0.65869 0.96273
 N1674 N 0.48445 0.64698 0.97207
 C1675 C 0.48365 0.67143 0.93789
 C1676 C 0.49069 0.68482 0.94312
 C1677 C 0.49308 0.69708 0.93330
 C1678 C 0.48853 0.69623 0.91801
 C1679 C 0.48149 0.68284 0.91279
 C1680 C 0.47906 0.67059 0.92261
 H1681 H 0.48805 0.63058 0.99607
 H1682 H 0.48413 0.60918 1.01311
 H1683 H 0.45589 0.58732 0.97932
 H1684 H 0.45970 0.60879 0.96232
 H1685 H 0.49430 0.68589 0.95483
 H1686 H 0.49832 0.70731 0.93775
 H1687 H 0.47805 0.68173 0.90103
 H1688 H 0.47367 0.66043 0.91818
 C1689 C 0.52633 0.87882 0.97864
 C1690 C 0.53550 0.89120 0.97431
 C1691 C 0.53788 0.90341 0.98423
 C1692 C 0.53108 0.90357 0.99870
 C1693 C 0.52192 0.89119 1.00302
 C1694 C 0.51960 0.87895 0.99313
 C1695 C 0.52377 0.86588 0.96810
 N1696 N 0.51585 0.85341 0.97266
 N1697 N 0.51351 0.84181 0.96320
 C1698 C 0.51896 0.84217 0.94876
 N1699 N 0.52687 0.85464 0.94420
 N1700 N 0.52924 0.86624 0.95367
 C1701 C 0.51631 0.82925 0.93822
 C1702 C 0.52085 0.83016 0.92292
 C1703 C 0.51829 0.81800 0.91299
 C1704 C 0.51117 0.80463 0.91811
 C1705 C 0.50666 0.80371 0.93341
 C1706 C 0.50917 0.81588 0.94334
 H1707 H 0.54087 0.89149 0.96324
 H1708 H 0.54490 0.91279 0.98045
 H1709 H 0.51662 0.89084 1.01411
 H1710 H 0.51248 0.86961 0.99686
 H1711 H 0.52631 0.84031 0.91857
 H1712 H 0.52171 0.81916 0.90123
 H1713 H 0.50136 0.79348 0.93779
 H1714 H 0.50559 0.81475 0.95505
 C1715 C 0.02542 0.37940 0.47790
 C1716 C 0.01334 0.38518 0.48667
 C1717 C 0.01570 0.39732 0.49667
 C1718 C 0.03016 0.40405 0.49806
 C1719 C 0.04222 0.39832 0.48924
 C1720 C 0.03990 0.38610 0.47932
 C1721 C 0.02292 0.36647 0.46735
 N1722 N 0.03486 0.35949 0.46041
 N1723 N 0.03260 0.34783 0.45098
 C1724 C 0.01831 0.34269 0.44805
 N1725 N 0.00637 0.34969 0.45496
 N1726 N 0.00863 0.36131 0.46442
 C1727 C 0.01579 0.32970 0.43757
 C1728 C 0.00099 0.32576 0.43290
 C1729 C -0.00140 0.31351 0.42303
 C1730 C 0.01095 0.30484 0.41766
 C1731 C 0.02575 0.30878 0.42235
 C1732 C 0.02814 0.32108 0.43215
 H1733 H 0.00205 0.38030 0.48587
 H1734 H 0.00612 0.40153 0.50318
 H1735 H 0.05353 0.40314 0.49011
 H1736 H 0.04945 0.38194 0.47273
 H1737 H -0.00879 0.33221 0.43677
 H1738 H -0.01292 0.31096 0.41946
 H1739 H 0.03550 0.30220 0.41864
 H1740 H 0.03969 0.32374 0.43558
 C1741 C 0.38107 0.52259 0.47533
 C1742 C 0.38834 0.52205 0.46111
 C1743 C 0.40067 0.51230 0.45865
 C1744 C 0.40598 0.50277 0.47032
 C1745 C 0.39871 0.50328 0.48454
 C1746 C 0.38643 0.51311 0.48703
 C1747 C 0.36797 0.53294 0.47790
 N1748 N 0.36186 0.53469 0.49198
 N1749 N 0.35008 0.54398 0.49425
 C1750 C 0.34388 0.55190 0.48253
 N1751 N 0.34998 0.55014 0.46846
 N1752 N 0.36178 0.54088 0.46620
 C1753 C 0.33073 0.56221 0.48502
 C1754 C 0.32332 0.56907 0.47263
 C1755 C 0.31087 0.57871 0.47495
 C1756 C 0.30560 0.58180 0.48970
 C1757 C 0.31304 0.57502 0.50210
 C1758 C 0.32544 0.56529 0.49979
 H1759 H 0.38452 0.52918 0.45184
 H1760 H 0.40588 0.51212 0.44751
 H1761 H 0.40258 0.49621 0.49382
 H1762 H 0.38110 0.51322 0.49813
 H1763 H 0.32709 0.56696 0.46111
 H1764 H 0.30547 0.58391 0.46519
 H1765 H 0.30912 0.57706 0.51360
 H1766 H 0.33087 0.56021 0.50959
 C1767 C 0.87986 0.02155 -0.02658
 C1768 C 0.89210 0.02624 -0.03576
 C1769 C 0.90482 0.01689 -0.03775
 C1770 C 0.90565 0.00262 -0.03060
 C1771 C 0.89337 -0.00211 -0.02149
 C1772 C 0.88062 0.00723 -0.01952
 C1773 C 0.86647 0.03161 -0.02432
 N1774 N 0.85433 0.02694 -0.01594
 N1775 N 0.84238 0.03605 -0.01382
 C1776 C 0.84207 0.05023 -0.01995
 N1777 N 0.85419 0.05488 -0.02834
 N1778 N 0.86613 0.04577 -0.03048
 C1779 C 0.82885 0.06046 -0.01749
 C1780 C 0.82902 0.07543 -0.02311
 C1781 C 0.81664 0.08514 -0.02072
 C1782 C 0.80376 0.08011 -0.01267
 C1783 C 0.80355 0.06513 -0.00708
 C1784 C 0.81595 0.05542 -0.00945
 H1785 H 0.89191 0.03720 -0.04138
 H1786 H 0.91406 0.02100 -0.04476
 H1787 H 0.89353 -0.01307 -0.01591
 H1788 H 0.87140 0.00323 -0.01240
 H1789 H 0.83878 0.07973 -0.02930
 H1790 H 0.81727 0.09668 -0.02498
 H1791 H 0.79372 0.06084 -0.00101
 H1792 H 0.81540 0.04395 -0.00501
 C1793 C 0.61922 0.02368 0.02481
 C1794 C 0.60695 0.02819 0.03404
 C1795 C 0.59463 0.01842 0.03650
 C1796 C 0.59425 0.00391 0.02975
 C1797 C 0.60648 -0.00056 0.02045
 C1798 C 0.61882 0.00919 0.01803
 C1799 C 0.63237 0.03398 0.02231
 N1800 N 0.64458 0.02933 0.01403
 N1801 N 0.65643 0.03854 0.01183
 C1802 C 0.65658 0.05281 0.01778
 N1803 N 0.64436 0.05747 0.02605
 N1804 N 0.63252 0.04825 0.02827
 C1805 C 0.66978 0.06305 0.01531
 C1806 C 0.66960 0.07809 0.02078
 C1807 C 0.68204 0.08774 0.01839
 C1808 C 0.69496 0.08256 0.01048
 C1809 C 0.69516 0.06751 0.00506
 C1810 C 0.68272 0.05788 0.00743
 H1811 H 0.60685 0.03928 0.03943
 H1812 H 0.58537 0.02232 0.04362
 H1813 H 0.60668 -0.01167 0.01516
 H1814 H 0.62807 0.00533 0.01085
 H1815 H 0.65981 0.08248 0.02686
 H1816 H 0.68145 0.09933 0.02254
 H1817 H 0.70503 0.06309 -0.00087
 H1818 H 0.68330 0.04634 0.00312
 C1819 C 0.11868 0.52377 0.52421
 C1820 C 0.10641 0.52824 0.53347
 C1821 C 0.09422 0.51836 0.53611
 C1822 C 0.09396 0.50377 0.52953
 C1823 C 0.10619 0.49934 0.52021
 C1824 C 0.11840 0.50921 0.51759
 C1825 C 0.13171 0.53418 0.52153
 N1826 N 0.14380 0.52966 0.51301
 N1827 N 0.15557 0.53894 0.51069
 C1828 C 0.15577 0.55315 0.51679
 N1829 N 0.14367 0.55768 0.52529
 N1830 N 0.13190 0.54840 0.52762
 C1831 C 0.16896 0.56341 0.51430
 C1832 C 0.16903 0.57826 0.52029
 C1833 C 0.18155 0.58784 0.51804
 C1834 C 0.19430 0.58278 0.50980
 C1835 C 0.19420 0.56797 0.50376
 C1836 C 0.18168 0.55841 0.50596
 H1837 H 0.10623 0.53939 0.53874
 H1838 H 0.08496 0.52225 0.54324
 H1839 H 0.10649 0.48817 0.51503
 H1840 H 0.12765 0.50536 0.51041
 H1841 H 0.15944 0.58249 0.52678
 H1842 H 0.18136 0.59913 0.52298
 H1843 H 0.20376 0.56382 0.49717
 H1844 H 0.18201 0.54707 0.50114
 C1845 C 0.12011 0.47787 -0.02515
 C1846 C 0.11367 0.47941 -0.03969
 C1847 C 0.10111 0.48890 -0.04202
 C1848 C 0.09476 0.49716 -0.02989
 C1849 C 0.10123 0.49568 -0.01537
 C1850 C 0.11373 0.48610 -0.01301
 C1851 C 0.13337 0.46772 -0.02269
 N1852 N 0.13830 0.46449 -0.00842
 N1853 N 0.15017 0.45530 -0.00622
 C1854 C 0.15765 0.44899 -0.01818
 N1855 N 0.15274 0.45226 -0.03245
 N1856 N 0.14084 0.46140 -0.03465
 C1857 C 0.17083 0.43873 -0.01574
 C1858 C 0.17985 0.43396 -0.02806
 C1859 C 0.19224 0.42424 -0.02578
 C1860 C 0.19585 0.41896 -0.01114
 C1861 C 0.18681 0.42373 0.00118
 C1862 C 0.17448 0.43354 -0.00109
 H1863 H 0.11828 0.47324 -0.04930
 H1864 H 0.09651 0.48987 -0.05338
 H1865 H 0.09656 0.50178 -0.00575
 H1866 H 0.11841 0.48519 -0.00167
 H1867 H 0.17743 0.43782 -0.03948
 H1868 H 0.19910 0.42100 -0.03548
 H1869 H 0.18912 0.41970 0.01256
 H1870 H 0.16772 0.43691 0.00864
 C1871 C 0.62067 0.97884 0.47385
 C1872 C 0.60814 0.97417 0.46506
 C1873 C 0.59592 0.98403 0.46247
 C1874 C 0.59591 0.99879 0.46865
 C1875 C 0.60841 1.00346 0.47747
 C1876 C 0.62066 0.99361 0.48001
 C1877 C 0.63366 0.96839 0.47653
 N1878 N 0.64624 0.97318 0.48415
 N1879 N 0.65792 0.96380 0.48652
 C1880 C 0.65752 0.94921 0.48139
 N1881 N 0.64493 0.94442 0.47379
 N1882 N 0.63326 0.95381 0.47140
 C1883 C 0.67052 0.93876 0.48401
 C1884 C 0.66965 0.92340 0.47961
 C1885 C 0.68191 0.91356 0.48206
 C1886 C 0.69536 0.91884 0.48895
 C1887 C 0.69624 0.93421 0.49334
 C1888 C 0.68396 0.94404 0.49092
 H1889 H 0.60774 0.96287 0.46015
 H1890 H 0.58644 0.97998 0.45574
 H1891 H 0.60887 1.01477 0.48230
 H1892 H 0.63012 0.99760 0.48683
 H1893 H 0.65946 0.91892 0.47432
 H1894 H 0.68078 0.90174 0.47875
 H1895 H 0.70651 0.93870 0.49847
 H1896 H 0.68507 0.95582 0.49439
 C1897 C 0.87956 0.97831 0.52506
 C1898 C 0.87989 0.99287 0.51845
 C1899 C 0.89220 1.00264 0.52096
 C1900 C 0.90446 0.99812 0.53019
 C1901 C 0.90414 0.98356 0.53678
 C1902 C 0.89186 0.97376 0.53422
 C1903 C 0.86648 0.96795 0.52246
 N1904 N 0.86667 0.95348 0.52789
 N1905 N 0.85491 0.94418 0.52561
 C1906 C 0.84244 0.94894 0.51783
 N1907 N 0.84224 0.96341 0.51240
 N1908 N 0.85402 0.97271 0.51466
 C1909 C 0.82933 0.93859 0.51534
 C1910 C 0.81592 0.94390 0.50841
 C1911 C 0.80355 0.93415 0.50612
 C1912 C 0.80430 0.91884 0.51067
 C1913 C 0.81772 0.91352 0.51758
 C1914 C 0.83007 0.92328 0.51991
 H1915 H 0.87062 0.99675 0.51133
 H1916 H 0.89199 1.01380 0.51579
 H1917 H 0.91343 0.97962 0.54382
 H1918 H 0.89201 0.96263 0.53948
 H1919 H 0.81491 0.95564 0.50482
 H1920 H 0.79330 0.93867 0.50097
 H1921 H 0.81876 0.90173 0.52101
 H1922 H 0.84024 0.91877 0.52522
 C1923 C 0.38006 0.47780 0.02480
 C1924 C 0.38060 0.49218 0.01783
 C1925 C 0.39293 0.50194 0.02030
 C1926 C 0.40499 0.49758 0.02986
 C1927 C 0.40444 0.48322 0.03685
 C1928 C 0.39214 0.47343 0.03433
 C1929 C 0.36699 0.46743 0.02219
 N1930 N 0.36701 0.45308 0.02793
 N1931 N 0.35527 0.44377 0.02560
 C1932 C 0.34299 0.44839 0.01744
 N1933 N 0.34296 0.46274 0.01170
 N1934 N 0.35471 0.47205 0.01401
 C1935 C 0.32990 0.43802 0.01488
 C1936 C 0.31665 0.44324 0.00758
 C1937 C 0.30430 0.43348 0.00523
 C1938 C 0.30492 0.41825 0.01008
 C1939 C 0.31818 0.41302 0.01735
 C1940 C 0.33051 0.42280 0.01974
 H1941 H 0.37149 0.49592 0.01043
 H1942 H 0.39290 0.51295 0.01483
 H1943 H 0.41357 0.47941 0.04417
 H1944 H 0.39212 0.46244 0.03988
 H1945 H 0.31575 0.45491 0.00376
 H1946 H 0.29417 0.43793 -0.00019
 H1947 H 0.31911 0.40131 0.02102
 H1948 H 0.34056 0.41836 0.02533
 C1949 C 0.52293 0.47326 0.37812
 C1950 C 0.52150 0.45872 0.38462
 C1951 C 0.51176 0.45632 0.39696
 C1952 C 0.50314 0.46837 0.40300
 C1953 C 0.50452 0.48288 0.39646
 C1954 C 0.51434 0.48532 0.38420
 C1955 C 0.53331 0.47584 0.36508
 N1956 N 0.53644 0.49017 0.36020
 N1957 N 0.54580 0.49249 0.34852
 C1958 C 0.55239 0.48058 0.34117
 N1959 N 0.54924 0.46625 0.34603
 N1960 N 0.53992 0.46393 0.35775
 C1961 C 0.56281 0.48317 0.32817
 C1962 C 0.56778 0.47092 0.31915
 C1963 C 0.57760 0.47336 0.30689
 C1964 C 0.58278 0.48809 0.30341
 C1965 C 0.57782 0.50034 0.31244
 C1966 C 0.56792 0.49791 0.32464
 H1967 H 0.52795 0.44918 0.38023
 H1968 H 0.51088 0.44497 0.40164
 H1969 H 0.49815 0.49245 0.40091
 H1970 H 0.51515 0.49666 0.37947
 H1971 H 0.56398 0.45943 0.32147
 H1972 H 0.58097 0.46370 0.30002
 H1973 H 0.58178 0.51179 0.31024
 H1974 H 0.56440 0.50760 0.33140
 C1975 C 0.02334 -0.02588 0.87923
 C1976 C 0.02032 -0.04063 0.88463
 C1977 C 0.01058 -0.04287 0.89701
 C1978 C 0.00357 -0.03042 0.90422
 C1979 C 0.00652 -0.01569 0.89876
 C1980 C 0.01631 -0.01344 0.88645
 C1981 C 0.03380 -0.02345 0.86622
 N1982 N 0.03795 -0.00917 0.86201
 N1983 N 0.04739 -0.00697 0.85037
 C1984 C 0.05308 -0.01896 0.84242
 N1985 N 0.04892 -0.03324 0.84662
 N1986 N 0.03950 -0.03544 0.85828
 C1987 C 0.06358 -0.01648 0.82945
 C1988 C 0.06818 -0.02872 0.82022
 C1989 C 0.07801 -0.02636 0.80795
 C1990 C 0.08352 -0.01170 0.80464
 C1991 C 0.07897 0.00052 0.81391
 C1992 C 0.06910 -0.00183 0.82614
 H1993 H 0.02553 -0.05047 0.87935
 H1994 H 0.00848 -0.05438 0.90081
 H1995 H 0.00144 -0.00582 0.90411
 H1996 H 0.01836 -0.00192 0.88260
 H1997 H 0.06410 -0.04014 0.82239
 H1998 H 0.08110 -0.03598 0.80090
 H1999 H 0.08319 0.01191 0.81183
 H2000 H 0.06587 0.00784 0.83306
 C2001 C 0.02278 0.02557 0.62123
 C2002 C 0.00830 0.01875 0.62079
 C2003 C -0.00148 0.02126 0.60852
 C2004 C 0.00295 0.03070 0.59642
 C2005 C 0.01741 0.03756 0.59687
 C2006 C 0.02722 0.03499 0.60911
 C2007 C 0.03318 0.02287 0.63422
 N2008 N 0.04761 0.02844 0.63413
 N2009 N 0.05696 0.02601 0.64579
 C2010 C 0.05227 0.01792 0.65807
 N2011 N 0.03783 0.01235 0.65818
 N2012 N 0.02849 0.01476 0.64650
 C2013 C 0.06267 0.01524 0.67107
 C2014 C 0.05743 0.00800 0.68431
 C2015 C 0.06723 0.00556 0.69658
 C2016 C 0.08252 0.01027 0.69590
 C2017 C 0.08777 0.01746 0.68263
 C2018 C 0.07797 0.01994 0.67038
 H2019 H 0.00449 0.01143 0.62992
 H2020 H -0.01258 0.01590 0.60864
 H2021 H 0.02127 0.04478 0.58771
 H2022 H 0.03829 0.04043 0.60906
 H2023 H 0.04570 0.00429 0.68527
 H2024 H 0.06276 0.00018 0.70671
 H2025 H 0.09954 0.02101 0.68164
 H2026 H 0.08243 0.02548 0.66034
 C2027 C 0.52347 0.52563 0.12058
 C2028 C 0.50903 0.51872 0.12018
 C2029 C 0.49919 0.52119 0.10795
 C2030 C 0.50352 0.53068 0.09585
 C2031 C 0.51793 0.53763 0.09627
 C2032 C 0.52780 0.53511 0.10847
 C2033 C 0.53393 0.52295 0.13354
 N2034 N 0.54832 0.52863 0.13342
 N2035 N 0.55772 0.52621 0.14505
 C2036 C 0.55312 0.51802 0.15731
 N2037 N 0.53872 0.51236 0.15743
 N2038 N 0.52934 0.51476 0.14579
 C2039 C 0.56358 0.51534 0.17026
 C2040 C 0.55840 0.50796 0.18346
 C2041 C 0.56824 0.50548 0.19569
 C2042 C 0.58350 0.51028 0.19501
 C2043 C 0.58869 0.51763 0.18181
 C2044 C 0.57884 0.52015 0.16959
 H2045 H 0.50530 0.51136 0.12931
 H2046 H 0.48813 0.51576 0.10809
 H2047 H 0.52171 0.54490 0.08711
 H2048 H 0.53884 0.54062 0.10840
 H2049 H 0.54670 0.50417 0.18441
 H2050 H 0.56381 0.50000 0.20578
 H2051 H 0.60043 0.52127 0.18083
 H2052 H 0.58324 0.52580 0.15958
 C2053 C 0.47675 -0.02554 0.12146
 C2054 C 0.47856 -0.04014 0.11514
 C2055 C 0.48833 -0.04247 0.10282
 C2056 C 0.49663 -0.03030 0.09660
 C2057 C 0.49488 -0.01572 0.10295
 C2058 C 0.48501 -0.01336 0.11520
 C2059 C 0.46632 -0.02305 0.13448
 N2060 N 0.46274 -0.00874 0.13913
 N2061 N 0.45334 -0.00651 0.15081
 C2062 C 0.44716 -0.01848 0.15837
 N2063 N 0.45076 -0.03279 0.15373
 N2064 N 0.46012 -0.03503 0.14202
 C2065 C 0.43671 -0.01599 0.17137
 C2066 C 0.43226 -0.02821 0.18067
 C2067 C 0.42243 -0.02586 0.19295
 C2068 C 0.41674 -0.01125 0.19618
 C2069 C 0.42117 0.00096 0.18685
 C2070 C 0.43107 -0.00137 0.17463
 H2071 H 0.47237 -0.04978 0.11967
 H2072 H 0.48951 -0.05387 0.09830
 H2073 H 0.50099 -0.00607 0.09837
 H2074 H 0.48390 -0.00197 0.11979
 H2075 H 0.43647 -0.03960 0.17855
 H2076 H 0.41947 -0.03547 0.20004
 H2077 H 0.41681 0.01231 0.18885
 H2078 H 0.43419 0.00828 0.16765
 C2079 C 0.97575 0.47524 0.62056
 C2080 C 0.97723 0.46074 0.61396
 C2081 C 0.98692 0.45843 0.60157
 C2082 C 0.99547 0.47053 0.59557
 C2083 C 0.99404 0.48503 0.60219
 C2084 C 0.98425 0.48737 0.61450
 C2085 C 0.96544 0.47769 0.63368
 N2086 N 0.96218 0.49197 0.63865
 N2087 N 0.95289 0.49416 0.65042
 C2088 C 0.94649 0.48216 0.65776
 N2089 N 0.94977 0.46788 0.65281
 N2090 N 0.95902 0.46570 0.64101
 C2091 C 0.93615 0.48459 0.67086
 C2092 C 0.93147 0.47227 0.67990
 C2093 C 0.92173 0.47455 0.69226
 C2094 C 0.91634 0.48920 0.69582
 C2095 C 0.92100 0.50152 0.68675
 C2096 C 0.93082 0.49925 0.67445
 H2097 H 0.97085 0.45115 0.61833
 H2098 H 0.98785 0.44709 0.59685
 H2099 H 1.00035 0.49463 0.59777
 H2100 H 0.98340 0.49869 0.61931
 H2101 H 0.93544 0.46084 0.67753
 H2102 H 0.91859 0.46485 0.69915
 H2103 H 0.91687 0.51291 0.68901
 H2104 H 0.93411 0.50898 0.66767
 C2105 C 0.97722 0.52594 0.87854
 C2106 C 0.97864 0.54047 0.88508
 C2107 C 0.98845 0.54290 0.89736
 C2108 C 0.99717 0.53089 0.90328
 C2109 C 0.99582 0.51637 0.89669
 C2110 C 0.98591 0.51391 0.88451
 C2111 C 0.96673 0.52332 0.86560
 N2112 N 0.96348 0.50898 0.86082
 N2113 N 0.95402 0.50663 0.84922
 C2114 C 0.94745 0.51852 0.84187
 N2115 N 0.95072 0.53286 0.84663
 N2116 N 0.96013 0.53522 0.85827
 C2117 C 0.93693 0.51591 0.82895
 C2118 C 0.93213 0.52810 0.81981
 C2119 C 0.92223 0.52564 0.80762
 C2120 C 0.91680 0.51094 0.80433
 C2121 C 0.92158 0.49875 0.81351
 C2122 C 0.93157 0.50120 0.82563
 H2123 H 0.97210 0.54999 0.88078
 H2124 H 0.98931 0.55425 0.90207
 H2125 H 1.00226 0.50683 0.90106
 H2126 H 0.98512 0.50257 0.87974
 H2127 H 0.93612 0.53956 0.82197
 H2128 H 0.91900 0.53525 0.80063
 H2129 H 0.91744 0.48733 0.81146
 H2130 H 0.93496 0.49156 0.83250
 C2131 C 0.47573 0.02537 0.37981
 C2132 C 0.49021 0.01855 0.38013
 C2133 C 0.50002 0.02092 0.39241
 C2134 C 0.49561 0.03020 0.40467
 C2135 C 0.48113 0.03703 0.40435
 C2136 C 0.47130 0.03462 0.39209
 C2137 C 0.46535 0.02286 0.36675
 N2138 N 0.45102 0.02870 0.36678
 N2139 N 0.44170 0.02645 0.35504
 C2140 C 0.44632 0.01827 0.34276
 N2141 N 0.46066 0.01244 0.34274
 N2142 N 0.46996 0.01468 0.35448
 C2143 C 0.43597 0.01576 0.32968
 C2144 C 0.44111 0.00812 0.31661
 C2145 C 0.43136 0.00576 0.30428
 C2146 C 0.41622 0.01096 0.30473
 C2147 C 0.41107 0.01860 0.31781
 C2148 C 0.42083 0.02099 0.33013
 H2149 H 0.49402 0.01137 0.37088
 H2150 H 0.51112 0.01558 0.39217
 H2151 H 0.47728 0.04414 0.41363
 H2152 H 0.46022 0.04005 0.39224
 H2153 H 0.45271 0.00400 0.31584
 H2154 H 0.43575 0.00004 0.29430
 H2155 H 0.39942 0.02256 0.31861
 H2156 H 0.41646 0.02687 0.34003
   
