data_POSCAR
  _audit_creation_date              2014-09-24
  _audit_creation_method            'ToBaCCo'
  _symmetry_space_group_name_H-M    'P1'
  _symmetry_Int_Tables_number       1
  _symmetry_cell_setting            triclinic
  loop_
  _symmetry_equiv_pos_as_xyz
 x,y,z
_cell_length_a 96.4161
_cell_length_b 96.3187
_cell_length_c 96.4812
_cell_angle_alpha 90.027100
_cell_angle_beta 90.011600
_cell_angle_gamma 90.004200
loop_
  _atom_site_label
  _atom_site_type_symbol
  _atom_site_fract_x
  _atom_site_fract_y
  _atom_site_fract_z
C1 C 0.30151 0.43858 0.92749
 C2 C 0.30140 0.42847 0.93794
 C3 C 0.31148 0.42861 0.94815
 C4 C 0.32181 0.43887 0.94804
 C5 C 0.32192 0.44884 0.93773
 C6 C 0.31170 0.44870 0.92739
 C7 C 0.29349 0.44051 0.91584
 N8 N 0.29858 0.45153 0.90869
 C9 C 0.30971 0.45662 0.91568
 C10 C 0.33351 0.45694 0.93976
 N11 N 0.34046 0.45208 0.95102
 C12 C 0.33334 0.44104 0.95617
 C13 C 0.30931 0.41717 0.95641
 N14 N 0.29818 0.41010 0.95145
 C15 C 0.29326 0.41694 0.94016
 H16 H 0.28481 0.43415 0.91263
 H17 H 0.31609 0.46523 0.91231
 H18 H 0.33681 0.46551 0.93329
 H19 H 0.33648 0.43482 0.96498
 H20 H 0.31559 0.41401 0.96516
 H21 H 0.28463 0.41357 0.93382
 C22 C 0.43526 0.82499 0.44592
 C23 C 0.42505 0.81462 0.44584
 C24 C 0.42511 0.80454 0.43562
 C25 C 0.43539 0.80470 0.42534
 C26 C 0.44547 0.81493 0.42542
 C27 C 0.44540 0.82514 0.43578
 C28 C 0.43735 0.83646 0.45419
 N29 N 0.44850 0.84357 0.44929
 C30 C 0.45350 0.83669 0.43804
 C31 C 0.45365 0.81291 0.41390
 N32 N 0.44876 0.80173 0.40685
 C33 C 0.43761 0.79663 0.41377
 C34 C 0.41367 0.79627 0.43771
 N35 N 0.40668 0.80109 0.44894
 C36 C 0.41356 0.81231 0.45399
 H37 H 0.43104 0.83953 0.46296
 H38 H 0.46222 0.83998 0.43177
 H39 H 0.46233 0.81929 0.41072
 H40 H 0.43138 0.78787 0.41047
 H41 H 0.41049 0.78756 0.43136
 H42 H 0.41029 0.81851 0.46277
 C43 C 0.93575 0.92506 0.80472
 C44 C 0.92552 0.93541 0.80474
 C45 C 0.92551 0.94548 0.81497
 C46 C 0.93572 0.94533 0.82533
 C47 C 0.94581 0.93511 0.82531
 C48 C 0.94582 0.92491 0.81493
 C49 C 0.93790 0.91361 0.79646
 N50 N 0.94902 0.90650 0.80143
 C51 C 0.95395 0.91337 0.81272
 C52 C 0.95391 0.93713 0.83689
 N53 N 0.94896 0.94831 0.84394
 C54 C 0.93784 0.95340 0.83691
 C55 C 0.91406 0.95374 0.81282
 N56 N 0.90714 0.94891 0.80154
 C57 C 0.91408 0.93771 0.79652
 H58 H 0.93165 0.91054 0.78765
 H59 H 0.96262 0.91008 0.81905
 H60 H 0.96259 0.93075 0.84007
 H61 H 0.93157 0.96216 0.84012
 H62 H 0.91083 0.96242 0.81917
 H63 H 0.91087 0.93151 0.78773
 C64 C 0.43628 -0.07429 0.30385
 C65 C 0.42604 -0.06394 0.30387
 C66 C 0.42611 -0.05379 0.31402
 C67 C 0.43641 -0.05384 0.32429
 C68 C 0.44651 -0.06405 0.32426
 C69 C 0.44644 -0.07434 0.31397
 C70 C 0.43837 -0.08581 0.29567
 N71 N 0.44953 -0.09287 0.30061
 C72 C 0.45455 -0.08589 0.31179
 C73 C 0.45469 -0.06194 0.33577
 N74 N 0.44978 -0.05073 0.34275
 C75 C 0.43861 -0.04570 0.33580
 C76 C 0.41462 -0.04558 0.31191
 N77 N 0.40760 -0.05051 0.30075
 C78 C 0.41451 -0.06173 0.29575
 H79 H 0.43203 -0.08897 0.28695
 H80 H 0.46329 -0.08912 0.31807
 H81 H 0.46338 -0.06828 0.33899
 H82 H 0.43235 -0.03695 0.33906
 H83 H 0.41143 -0.03684 0.31822
 H84 H 0.41122 -0.06802 0.28704
 C85 C 0.80288 0.31277 0.32292
 C86 C 0.80306 0.32318 0.31277
 C87 C 0.81337 0.32328 0.30280
 C88 C 0.82365 0.31297 0.30285
 C89 C 0.82346 0.30270 0.31287
 C90 C 0.81301 0.30260 0.32297
 C91 C 0.79456 0.31053 0.33430
 N92 N 0.79942 0.29927 0.34123
 C93 C 0.81069 0.29434 0.33438
 C94 C 0.83502 0.29456 0.31084
 N95 N 0.84219 0.29965 0.29985
 C96 C 0.83531 0.31090 0.29488
 C97 C 0.81139 0.33492 0.29476
 N98 N 0.80014 0.34186 0.29963
 C99 C 0.79497 0.33476 0.31064
 H100 H 0.78583 0.31683 0.33749
 H101 H 0.81695 0.28559 0.33763
 H102 H 0.83815 0.28576 0.31709
 H103 H 0.83871 0.31730 0.28631
 H104 H 0.81783 0.33826 0.28620
 H105 H 0.78616 0.33795 0.31683
 C106 C -0.18670 0.82394 0.80323
 C107 C -0.17648 0.81358 0.80326
 C108 C -0.17667 0.80332 0.81329
 C109 C -0.18708 0.80328 0.82343
 C110 C -0.19717 0.81349 0.82341
 C111 C -0.19698 0.82389 0.81324
 C112 C -0.18867 0.83556 0.79518
 N113 N -0.19988 0.84259 0.80008
 C114 C -0.20504 0.83549 0.81112
 C115 C -0.20546 0.81130 0.83482
 N116 N -0.20062 0.80002 0.84177
 C117 C -0.18940 0.79503 0.83485
 C118 C -0.16516 0.79513 0.81123
 N119 N -0.15800 0.80018 0.80022
 C120 C -0.16485 0.81145 0.79526
 H121 H -0.18223 0.83881 0.78657
 H122 H -0.21383 0.83867 0.81734
 H123 H -0.21418 0.81765 0.83798
 H124 H -0.18316 0.78625 0.83804
 H125 H -0.16204 0.78633 0.81749
 H126 H -0.16144 0.81783 0.78667
 C127 C 0.94705 0.32411 0.43641
 C128 C 0.94707 0.31386 0.42608
 C129 C 0.93715 0.30348 0.42623
 C130 C 0.92709 0.30320 0.43671
 C131 C 0.92707 0.31331 0.44691
 C132 C 0.93712 0.32384 0.44675
 C133 C 0.95499 0.33581 0.43844
 N134 N 0.95009 0.34267 0.44975
 C135 C 0.93917 0.33539 0.45491
 C136 C 0.91574 0.31090 0.45525
 N137 N 0.90890 0.29959 0.45034
 C138 C 0.91577 0.29480 0.43902
 C139 C 0.93923 0.29542 0.41463
 N140 N 0.95015 0.30068 0.40746
 C141 C 0.95502 0.31195 0.41438
 H142 H 0.96352 0.33923 0.43198
 H143 H 0.93297 0.33840 0.46377
 H144 H 0.91252 0.31711 0.46403
 H145 H 0.91258 0.28606 0.43273
 H146 H 0.93306 0.28657 0.41147
 H147 H 0.96353 0.31846 0.41100
 C148 C 0.44801 0.43839 0.82224
 C149 C 0.44801 0.42816 0.81188
 C150 C 0.43769 0.42804 0.80192
 C151 C 0.42722 0.43815 0.80218
 C152 C 0.42722 0.44824 0.81239
 C153 C 0.43769 0.44836 0.82249
 C154 C 0.45628 0.44054 0.83367
 N155 N 0.45119 0.45156 0.84088
 C156 C 0.43983 0.45642 0.83407
 C157 C 0.41547 0.45615 0.81057
 N158 N 0.40836 0.45108 0.79952
 C159 C 0.41547 0.44008 0.79431
 C160 C 0.43982 0.41654 0.79373
 N161 N 0.45117 0.40969 0.79850
 C162 C 0.45626 0.41673 0.80959
 H163 H 0.46513 0.43432 0.83670
 H164 H 0.43339 0.46498 0.83747
 H165 H 0.41217 0.46474 0.81701
 H166 H 0.41216 0.43375 0.78565
 H167 H 0.43338 0.41319 0.78516
 H168 H 0.46510 0.41356 0.81575
 C169 C 0.80402 0.92625 0.93679
 C170 C 0.80413 0.93633 0.92632
 C171 C 0.81442 0.94634 0.92608
 C172 C 0.82475 0.94640 0.93631
 C173 C 0.82465 0.93645 0.94665
 C174 C 0.81421 0.92630 0.94689
 C175 C 0.79572 0.91488 0.93917
 N176 N 0.80064 0.90800 0.95045
 C177 C 0.81194 0.91495 0.95526
 C178 C 0.83622 0.93860 0.95472
 N179 N 0.84336 0.94961 0.94951
 C180 C 0.83638 0.95445 0.93826
 C181 C 0.81234 0.95429 0.91440
 N182 N 0.80106 0.94933 0.90758
 C183 C 0.79596 0.93836 0.91479
 H184 H 0.78693 0.91169 0.93295
 H185 H 0.81825 0.91182 0.96401
 H186 H 0.83936 0.93243 0.96356
 H187 H 0.83966 0.96302 0.93178
 H188 H 0.81875 0.96286 0.91097
 H189 H 0.78714 0.93211 0.91171
 C190 C 0.30419 0.82496 0.31435
 C191 C 0.30416 0.81472 0.32468
 C192 C 0.31427 0.80452 0.32473
 C193 C 0.32454 0.80442 0.31444
 C194 C 0.32457 0.81452 0.30425
 C195 C 0.31433 0.82486 0.30421
 C196 C 0.29606 0.83649 0.31214
 N197 N 0.30104 0.84341 0.30091
 C198 C 0.31221 0.83634 0.29598
 C199 C 0.33607 0.81227 0.29610
 N200 N 0.34299 0.80107 0.30111
 C201 C 0.33602 0.79619 0.31232
 C202 C 0.31209 0.79642 0.33627
 N203 N 0.30092 0.80146 0.34321
 C204 C 0.29599 0.81265 0.33620
 H205 H 0.28734 0.83974 0.31843
 H206 H 0.31851 0.83945 0.28723
 H207 H 0.33932 0.81851 0.28735
 H208 H 0.33923 0.78748 0.31865
 H209 H 0.31834 0.78767 0.33954
 H210 H 0.28729 0.81899 0.33940
 C211 C 0.80343 0.42700 0.43694
 C212 C 0.80358 0.43703 0.42642
 C213 C 0.81390 0.44702 0.42616
 C214 C 0.82421 0.44710 0.43642
 C215 C 0.82406 0.43720 0.44680
 C216 C 0.81360 0.42708 0.44707
 C217 C 0.79513 0.41563 0.43934
 N218 N 0.80003 0.40883 0.45066
 C219 C 0.81131 0.41576 0.45546
 C220 C 0.83564 0.43935 0.45487
 N221 N 0.84282 0.45029 0.44961
 C222 C 0.83587 0.45512 0.43833
 C223 C 0.81188 0.45491 0.41444
 N224 N 0.80061 0.44994 0.40760
 C225 C 0.79546 0.43901 0.41485
 H226 H 0.78637 0.41235 0.43312
 H227 H 0.81760 0.41260 0.46421
 H228 H 0.83875 0.43319 0.46373
 H229 H 0.83920 0.46364 0.43181
 H230 H 0.81832 0.46344 0.41097
 H231 H 0.78664 0.43277 0.41177
 C232 C 0.93757 0.82313 -0.05309
 C233 C 0.92744 0.81268 -0.05300
 C234 C 0.92735 0.80267 -0.06329
 C235 C 0.93738 0.80297 -0.07381
 C236 C 0.94738 0.81328 -0.07390
 C237 C 0.94747 0.82343 -0.06347
 C238 C 0.93971 0.83461 -0.04486
 N239 N 0.95065 0.84184 -0.05000
 C240 C 0.95547 0.83508 -0.06137
 C241 C 0.95527 0.81144 -0.08565
 N242 N 0.95028 0.80028 -0.09270
 C243 C 0.93935 0.79503 -0.08550
 C244 C 0.91597 0.79435 -0.06104
 N245 N 0.90916 0.79909 -0.04966
 C246 C 0.91611 0.81029 -0.04466
 H247 H 0.93355 0.83765 -0.03597
 H248 H 0.96397 0.83856 -0.06783
 H249 H 0.96381 0.81794 -0.08895
 H250 H 0.93308 0.78625 -0.08868
 H251 H 0.91267 0.78570 -0.06742
 H252 H 0.91295 0.81645 -0.03582
 C253 C 0.30165 0.32256 0.81183
 C254 C 0.30142 0.31216 0.82199
 C255 C 0.31138 0.30181 0.82192
 C256 C 0.32171 0.30174 0.81168
 C257 C 0.32194 0.31200 0.80166
 C258 C 0.31185 0.32249 0.80173
 C259 C 0.29377 0.33430 0.80983
 N260 N 0.29894 0.34134 0.79878
 C261 C 0.30999 0.33419 0.79375
 C262 C 0.33351 0.30979 0.79359
 N263 N 0.34029 0.29845 0.79850
 C264 C 0.33315 0.29345 0.80955
 C265 C 0.30910 0.29363 0.83338
 N266 N 0.29801 0.29876 0.84039
 C267 C 0.29324 0.31009 0.83349
 H268 H 0.28511 0.33766 0.81614
 H269 H 0.31641 0.33743 0.78513
 H270 H 0.33693 0.31617 0.78501
 H271 H 0.33624 0.28464 0.81580
 H272 H 0.31526 0.28479 0.83658
 H273 H 0.28467 0.31655 0.83680
 C274 C 0.17910 0.56030 0.55042
 C275 C 0.18940 0.57058 0.55047
 C276 C 0.19953 0.57054 0.56063
 C277 C 0.19950 0.56023 0.57089
 C278 C 0.18933 0.55008 0.57084
 C279 C 0.17907 0.55012 0.56054
 C280 C 0.16750 0.55829 0.54235
 N281 N 0.16045 0.54716 0.54734
 C282 C 0.16745 0.54208 0.55846
 C283 C 0.19134 0.54200 0.58243
 N284 N 0.20245 0.54701 0.58949
 C285 C 0.20752 0.55815 0.58250
 C286 C 0.20760 0.58216 0.55864
 N287 N 0.20260 0.58922 0.54753
 C288 C 0.19148 0.58221 0.54246
 H289 H 0.16423 0.56468 0.53372
 H290 H 0.16412 0.53342 0.56479
 H291 H 0.18496 0.53335 0.58569
 H292 H 0.21617 0.56450 0.58583
 H293 H 0.21624 0.58544 0.56502
 H294 H 0.18514 0.58554 0.53381
 C295 C 0.57336 0.68679 0.05244
 C296 C 0.56303 0.67653 0.05253
 C297 C 0.55277 0.67679 0.06256
 C298 C 0.55270 0.68730 0.07262
 C299 C 0.56288 0.69742 0.07252
 C300 C 0.57328 0.69716 0.06236
 C301 C 0.58500 0.68871 0.04440
 N302 N 0.59196 0.69997 0.04922
 C303 C 0.58487 0.70522 0.06020
 C304 C 0.56068 0.70580 0.08387
 N305 N 0.54942 0.70099 0.09083
 C306 C 0.54446 0.68969 0.08402
 C307 C 0.54461 0.66523 0.06058
 N308 N 0.54969 0.65798 0.04962
 C309 C 0.56094 0.66482 0.04462
 H310 H 0.58832 0.68220 0.03586
 H311 H 0.58808 0.71406 0.06635
 H312 H 0.56700 0.71454 0.08702
 H313 H 0.53571 0.68347 0.08731
 H314 H 0.53582 0.66215 0.06685
 H315 H 0.56733 0.66136 0.03606
 C316 C 0.68718 0.19778 0.67705
 C317 C 0.67691 0.19771 0.68734
 C318 C 0.67712 0.18768 0.69761
 C319 C 0.68760 0.17759 0.69772
 C320 C 0.69773 0.17765 0.68756
 C321 C 0.69752 0.18782 0.67716
 C322 C 0.68913 0.20580 0.66540
 N323 N 0.70038 0.20092 0.65847
 C324 C 0.70558 0.18994 0.66559
 C325 C 0.70605 0.16626 0.68978
 N326 N 0.70120 0.15930 0.70101
 C327 C 0.68993 0.16615 0.70595
 C328 C 0.66555 0.18967 0.70571
 N329 N 0.65833 0.20064 0.70061
 C330 C 0.66520 0.20563 0.68938
 H331 H 0.68265 0.21434 0.66205
 H332 H 0.71440 0.18374 0.66240
 H333 H 0.71478 0.16306 0.68348
 H334 H 0.68367 0.16287 0.71466
 H335 H 0.66243 0.18339 0.71448
 H336 H 0.66177 0.21419 0.68297
 C337 C 1.07137 0.06073 0.19863
 C338 C 1.06106 0.07099 0.19860
 C339 C 1.05097 0.07099 0.18840
 C340 C 1.05107 0.06073 0.17808
 C341 C 1.06125 0.05060 0.17811
 C342 C 1.07147 0.05060 0.18845
 C343 C 1.08292 0.05868 0.20677
 N344 N 1.09000 0.04757 0.20176
 C345 C 1.08308 0.04256 0.19057
 C346 C 1.05927 0.04254 0.16649
 N347 N 1.04816 0.04755 0.15940
 C348 C 1.04306 0.05866 0.16645
 C349 C 1.04285 0.08256 0.19045
 N350 N 1.04778 0.08957 0.20163
 C351 C 1.05890 0.08256 0.20670
 H352 H 1.08612 0.06502 0.21547
 H353 H 1.08644 0.03392 0.18422
 H354 H 1.06567 0.03388 0.16327
 H355 H 1.03437 0.06500 0.16320
 H356 H 1.03422 0.08584 0.18406
 H357 H 1.06519 0.08585 0.21540
 C358 C 0.06202 0.17834 1.05188
 C359 C 0.07248 0.18846 1.05199
 C360 C 0.07258 0.19859 1.06217
 C361 C 0.06221 0.19874 1.07237
 C362 C 0.05189 0.18875 1.07225
 C363 C 0.05180 0.17849 1.06194
 C364 C 0.05980 0.16681 1.04375
 N365 N 0.04850 0.15997 1.04865
 C366 C 0.04353 0.16704 1.05976
 C367 C 0.04374 0.19095 1.08375
 N368 N 0.04888 0.20201 1.09086
 C369 C 0.06017 0.20685 1.08394
 C370 C 0.08430 0.20651 1.06019
 N371 N 0.09129 0.20141 1.04908
 C372 C 0.08414 0.19038 1.04399
 H373 H 0.06615 0.16344 1.03512
 H374 H 0.03476 0.16389 1.06602
 H375 H 0.03491 0.18474 1.08688
 H376 H 0.06663 0.21543 1.08724
 H377 H 0.08766 0.21513 1.06656
 H378 H 0.08736 0.18401 1.03532
 C379 C 0.17889 0.69974 0.68949
 C380 C 0.18915 0.69979 0.67919
 C381 C 0.19933 0.68966 0.67914
 C382 C 0.19938 0.67934 0.68939
 C383 C 0.18926 0.67929 0.69956
 C384 C 0.17895 0.68956 0.69961
 C385 C 0.16727 0.70776 0.69159
 N386 N 0.16029 0.70268 0.70271
 C387 C 0.16736 0.69156 0.70769
 C388 C 0.19137 0.66767 0.70758
 N389 N 0.20249 0.66068 0.70250
 C390 C 0.20748 0.66774 0.69139
 C391 C 0.20735 0.69176 0.66753
 N392 N 0.20227 0.70290 0.66055
 C393 C 0.19115 0.70788 0.66761
 H394 H 0.16393 0.71642 0.68527
 H395 H 0.16411 0.68517 0.71633
 H396 H 0.18504 0.66434 0.71623
 H397 H 0.21612 0.66448 0.68501
 H398 H 0.21601 0.68543 0.66420
 H399 H 0.18476 0.71653 0.66435
 C400 C 1.18863 0.17813 0.19748
 C401 C 1.17832 0.18841 0.19754
 C402 C 1.17802 0.19834 0.18720
 C403 C 1.18802 0.19814 0.17664
 C404 C 1.19819 0.18800 0.17658
 C405 C 1.19850 0.17793 0.18707
 C406 C 1.19095 0.16672 0.20574
 N407 N 1.20197 0.15962 0.20058
 C408 C 1.20666 0.16640 0.18917
 C409 C 1.20598 0.18988 0.16477
 N410 N 1.20077 0.20089 0.15766
 C411 C 1.18979 0.20602 0.16488
 C412 C 1.16648 0.20646 0.18942
 N413 N 1.15979 0.20166 0.20084
 C414 C 1.16696 0.19064 0.20589
 H415 H 1.18486 0.16362 0.21464
 H416 H 1.21516 0.16300 0.18267
 H417 H 1.21462 0.18349 0.16147
 H418 H 1.18335 0.21466 0.16167
 H419 H 1.16301 0.21499 0.18299
 H420 H 1.16393 0.18446 0.21476
 C421 C 0.67775 1.05238 0.56212
 C422 C 0.68802 1.05231 0.57241
 C423 C 0.69794 1.06269 0.57273
 C424 C 0.69772 1.07329 0.56276
 C425 C 0.68758 1.07335 0.55261
 C426 C 0.67753 1.06283 0.55228
 C427 C 0.66637 1.04408 0.55977
 N428 N 0.65927 1.04925 0.54877
 C429 C 0.66602 1.06070 0.54411
 C430 C 0.68945 1.08518 0.54482
 N431 N 0.70046 1.09230 0.55003
 C432 C 0.70560 1.08507 0.56099
 C433 C 0.70608 1.06044 0.58423
 N434 N 0.70132 1.04896 0.59089
 C435 C 0.69029 1.04392 0.58373
 H436 H 0.66329 1.03514 0.56584
 H437 H 0.66262 1.06722 0.53562
 H438 H 0.68307 1.08848 0.53619
 H439 H 0.71424 1.08828 0.56741
 H440 H 0.71461 1.06687 0.58771
 H441 H 0.68415 1.03500 0.58673
 C442 C 0.56201 0.55184 0.17703
 C443 C 0.57207 0.55166 0.18753
 C444 C 0.57185 0.56165 0.19784
 C445 C 0.56157 0.57195 0.19780
 C446 C 0.55164 0.57212 0.18744
 C447 C 0.55186 0.56200 0.17699
 C448 C 0.56016 0.54392 0.16530
 N449 N 0.54916 0.54904 0.15816
 C450 C 0.54401 0.56009 0.16523
 C451 C 0.54351 0.58367 0.18954
 N452 N 0.54827 0.59050 0.20090
 C453 C 0.55931 0.58340 0.20603
 C454 C 0.58325 0.55943 0.20614
 N455 N 0.59036 0.54836 0.20110
 C456 C 0.58360 0.54353 0.18973
 H457 H 0.56655 0.53527 0.16203
 H458 H 0.53539 0.56647 0.16189
 H459 H 0.53497 0.58706 0.18307
 H460 H 0.56546 0.58653 0.21488
 H461 H 0.58634 0.56563 0.21498
 H462 H 0.58702 0.53496 0.18332
 C463 C 0.67848 0.68877 0.19805
 C464 C 0.68876 0.67848 0.19800
 C465 C 0.69873 0.67833 0.18769
 C466 C 0.69855 0.68849 0.17728
 C467 C 0.68840 0.69865 0.17732
 C468 C 0.67829 0.69879 0.18777
 C469 C 0.66704 0.69096 0.20630
 N470 N 0.65994 0.70204 0.20127
 C471 C 0.66675 0.70691 0.18995
 C472 C 0.69029 0.70660 0.16562
 N473 N 0.70132 0.70149 0.15850
 C474 C 0.70644 0.69043 0.16555
 C475 C 0.70685 0.66677 0.18978
 N476 N 0.70203 0.65991 0.20109
 C477 C 0.69098 0.66700 0.20620
 H478 H 0.66392 0.68473 0.21510
 H479 H 0.66336 0.71550 0.18356
 H480 H 0.68391 0.71525 0.16235
 H481 H 0.71507 0.68405 0.16223
 H482 H 0.71541 0.66340 0.18334
 H483 H 0.68479 0.66383 0.21501
 C484 C 0.17853 0.06195 1.05128
 C485 C 0.18869 0.07237 1.05152
 C486 C 0.19883 0.07227 1.06167
 C487 C 0.19894 0.06176 1.07173
 C488 C 0.18891 0.05148 1.07149
 C489 C 0.17864 0.05158 1.06120
 C490 C 0.16697 0.05991 1.04315
 N491 N 0.16009 0.04858 1.04791
 C492 C 0.16715 0.04340 1.05894
 C493 C 0.19106 0.04318 1.08290
 N494 N 0.20213 0.04818 1.09003
 C495 C 0.20703 0.05953 1.08327
 C496 C 0.20679 0.08399 1.05985
 N497 N 0.20171 0.09117 1.04885
 C498 C 0.19065 0.08414 1.04368
 H499 H 0.16362 0.06641 1.03462
 H500 H 0.16396 0.03456 1.06509
 H501 H 0.18481 0.03437 1.08598
 H502 H 0.21562 0.06591 1.08670
 H503 H 0.21543 0.08723 1.06625
 H504 H 0.18429 0.08752 1.03507
 C505 C 0.57316 0.19787 0.56296
 C506 C 0.56289 0.19795 0.57326
 C507 C 0.55253 0.18801 0.57312
 C508 C 0.55230 0.17786 0.56270
 C509 C 0.56243 0.17778 0.55254
 C510 C 0.57293 0.18786 0.55268
 C511 C 0.58489 0.20578 0.56095
 N512 N 0.59175 0.20078 0.54972
 C513 C 0.58452 0.18983 0.54458
 C514 C 0.56009 0.16636 0.54429
 N515 N 0.54881 0.15951 0.54921
 C516 C 0.54396 0.16648 0.56046
 C517 C 0.54447 0.19012 0.58470
 N518 N 0.54970 0.20109 0.59184
 C519 C 0.56096 0.20595 0.58492
 H520 H 0.58834 0.21432 0.56738
 H521 H 0.58763 0.18356 0.53580
 H522 H 0.56635 0.16306 0.53558
 H523 H 0.53523 0.16329 0.56675
 H524 H 0.53565 0.18394 0.58787
 H525 H 0.56746 0.21447 0.58830
 C526 C 0.07071 0.56057 0.69952
 C527 C 0.06039 0.57083 0.69945
 C528 C 0.05027 0.57076 0.68928
 C529 C 0.05032 0.56043 0.67904
 C530 C 0.06050 0.55030 0.67910
 C531 C 0.07076 0.55037 0.68941
 C532 C 0.08229 0.55858 0.70761
 N533 N 0.08936 0.54744 0.70265
 C534 C 0.08238 0.54234 0.69153
 C535 C 0.05850 0.54217 0.66754
 N536 N 0.04737 0.54714 0.66047
 C537 C 0.04230 0.55829 0.66744
 C538 C 0.04217 0.58236 0.69128
 N539 N 0.04715 0.58945 0.70238
 C540 C 0.05828 0.58247 0.70746
 H541 H 0.08554 0.56499 0.71625
 H542 H 0.08571 0.53366 0.68522
 H543 H 0.06488 0.53351 0.66430
 H544 H 0.03363 0.56462 0.66410
 H545 H 0.03352 0.58561 0.68489
 H546 H 0.06460 0.58582 0.71612
 C547 C 0.67634 0.55265 0.06251
 C548 C 0.68675 0.55248 0.07265
 C549 C 0.69686 0.56269 0.07275
 C550 C 0.69667 0.57320 0.06270
 C551 C 0.68640 0.57337 0.05269
 C552 C 0.67616 0.56303 0.05259
 C553 C 0.66480 0.54451 0.06035
 N554 N 0.65766 0.54971 0.04939
 C555 C 0.66453 0.56102 0.04457
 C556 C 0.68837 0.58510 0.04479
 N557 N 0.69957 0.59204 0.04978
 C558 C 0.70473 0.58484 0.06073
 C559 C 0.70513 0.56036 0.08414
 N560 N 0.70028 0.54902 0.09094
 C561 C 0.68905 0.54412 0.08399
 H562 H 0.66167 0.53565 0.06650
 H563 H 0.66114 0.56751 0.03605
 H564 H 0.68194 0.58851 0.03624
 H565 H 0.71350 0.58800 0.06699
 H566 H 0.71383 0.56666 0.08743
 H567 H 0.68281 0.53532 0.08714
 C568 C 0.06030 0.69972 0.57106
 C569 C 0.07056 0.69967 0.56076
 C570 C 0.07051 0.68947 0.55065
 C571 C 0.06021 0.67919 0.55071
 C572 C 0.05009 0.67924 0.56088
 C573 C 0.05013 0.68958 0.57112
 C574 C 0.05829 0.70783 0.58264
 N575 N 0.04718 0.70284 0.58970
 C576 C 0.04211 0.69169 0.58273
 C577 C 0.04201 0.66762 0.55889
 N578 N 0.04700 0.66055 0.54778
 C579 C 0.05812 0.66755 0.54270
 C580 C 0.08210 0.69147 0.54256
 N581 N 0.08915 0.70261 0.54753
 C582 C 0.08217 0.70770 0.55865
 H583 H 0.06467 0.71650 0.58588
 H584 H 0.03346 0.68535 0.58606
 H585 H 0.03337 0.66436 0.56527
 H586 H 0.06445 0.66421 0.53405
 H587 H 0.08535 0.68507 0.53393
 H588 H 0.08550 0.71638 0.56497
 C589 C 0.56231 1.05269 0.67717
 C590 C 0.57254 1.05268 0.68752
 C591 C 0.57271 1.06304 0.69745
 C592 C 0.56266 1.07357 0.69718
 C593 C 0.55257 1.07358 0.68698
 C594 C 0.55240 1.06307 0.67691
 C595 C 0.56008 1.04437 0.66579
 N596 N 0.54906 1.04947 0.65861
 C597 C 0.54428 1.06090 0.66537
 C598 C 0.54468 1.08535 0.68882
 N599 N 0.54976 1.09249 0.69987
 C600 C 0.56075 1.08532 0.70506
 C601 C 0.58416 1.06084 0.70568
 N602 N 0.59093 1.04942 0.70096
 C603 C 0.58390 1.04434 0.68987
 H604 H 0.56622 1.03545 0.66280
 H605 H 0.53574 1.06736 0.66199
 H606 H 0.53607 1.08861 0.68239
 H607 H 0.56708 1.08856 0.71375
 H608 H 0.58751 1.06728 0.71425
 H609 H 0.58700 1.03545 0.68375
 C610 C 0.44920 0.32136 0.93913
 C611 C 0.44931 0.31101 0.92890
 C612 C 0.43925 0.30077 0.92892
 C613 C 0.42893 0.30074 0.93917
 C614 C 0.42883 0.31095 0.94926
 C615 C 0.43903 0.32133 0.94924
 C616 C 0.45718 0.33305 0.94116
 N617 N 0.45206 0.34012 0.95224
 C618 C 0.44098 0.33299 0.95727
 C619 C 0.41722 0.30885 0.95729
 N620 N 0.41030 0.29763 0.95230
 C621 C 0.41738 0.29260 0.94122
 C622 C 0.44140 0.29266 0.91737
 N623 N 0.45250 0.29775 0.91036
 C624 C 0.45742 0.30896 0.91734
 H625 H 0.46584 0.33632 0.93482
 H626 H 0.43457 0.33621 0.96590
 H627 H 0.41386 0.31523 0.96590
 H628 H 0.41417 0.28388 0.93490
 H629 H 0.43512 0.28393 0.91410
 H630 H 0.46603 0.31537 0.91404
 C631 C 0.94596 0.43572 0.32492
 C632 C 0.94603 0.42558 0.31449
 C633 C 0.93596 0.42573 0.30427
 C634 C 0.92569 0.43604 0.30434
 C635 C 0.92562 0.44605 0.31463
 C636 C 0.93582 0.44589 0.32499
 C637 C 0.95404 0.43770 0.33652
 N638 N 0.94903 0.44881 0.34363
 C639 C 0.93790 0.45390 0.33662
 C640 C 0.91413 0.45427 0.31251
 N641 N 0.90725 0.44946 0.30120
 C642 C 0.91424 0.43833 0.29613
 C643 C 0.93816 0.41432 0.29597
 N644 N 0.94929 0.40726 0.30092
 C645 C 0.95418 0.41407 0.31224
 H646 H 0.96274 0.43134 0.33968
 H647 H 0.93158 0.46261 0.33988
 H648 H 0.91086 0.46291 0.31890
 H649 H 0.91106 0.43216 0.28730
 H650 H 0.93193 0.41121 0.28716
 H651 H 0.96285 0.41072 0.31855
 C652 C 0.30491 0.93510 0.42440
 C653 C 0.30478 0.92497 0.43484
 C654 C 0.31492 0.92502 0.44499
 C655 C 0.32533 0.93519 0.44483
 C656 C 0.32545 0.94518 0.43454
 C657 C 0.31517 0.94514 0.42425
 C658 C 0.29674 0.93719 0.41289
 N659 N 0.30181 0.94825 0.40575
 C660 C 0.31308 0.95318 0.41265
 C661 C 0.33703 0.95328 0.43660
 N662 N 0.34395 0.94842 0.44789
 C663 C 0.33683 0.93737 0.45300
 C664 C 0.31262 0.91366 0.45333
 N665 N 0.30135 0.90675 0.44848
 C666 C 0.29647 0.91359 0.43718
 H667 H 0.28791 0.93096 0.40982
 H668 H 0.31947 0.96182 0.40935
 H669 H 0.34031 0.96191 0.43019
 H670 H 0.33992 0.93118 0.46184
 H671 H 0.31887 0.91050 0.46211
 H672 H 0.28771 0.91036 0.43095
 O673 O 0.24890 0.53717 0.73193
 O674 O 0.27306 0.53236 0.73396
 O675 O 0.23238 0.50071 0.71281
 O676 O 0.23174 0.47784 0.71698
 O677 O 0.21273 0.51794 0.74917
 O678 O 0.21786 0.51707 0.77326
 O679 O 0.26791 0.46391 0.75056
 O680 O 0.26527 0.46788 0.72696
 O681 O 0.28594 0.49924 0.76792
 O682 O 0.28227 0.52301 0.76595
 O683 O 0.25072 0.48245 0.78614
 O684 O 0.22592 0.48302 0.78129
 O685 O 0.25122 0.46389 0.76727
 O686 O 0.22556 0.46895 0.76591
 O687 O 0.26727 0.49929 0.78630
 O688 O 0.26553 0.52486 0.78077
 O689 O 0.28594 0.48228 0.75150
 O690 O 0.28171 0.48665 0.72649
 O691 O 0.23242 0.53732 0.74886
 O692 O 0.23359 0.53209 0.77343
 O693 O 0.21266 0.50121 0.73250
 O694 O 0.21837 0.47616 0.73464
 O695 O 0.24854 0.51798 0.71289
 O696 O 0.27344 0.51351 0.71828
 Zr697 Zr 0.25728 0.51700 0.73287
 O698 O 0.27049 0.50496 0.74542
 Zr699 Zr 0.23277 0.49267 0.73310
 O700 O 0.24526 0.47942 0.74516
 Zr701 Zr 0.23294 0.51717 0.75736
 O702 O 0.24503 0.50481 0.77070
 Zr703 Zr 0.26635 0.48386 0.74200
 O704 O 0.25388 0.49584 0.72844
 Zr705 Zr 0.26612 0.50819 0.76643
 O706 O 0.25403 0.52167 0.75400
 Zr707 Zr 0.24187 0.48367 0.76624
 O708 O 0.22827 0.49604 0.75418
 O709 O 0.23627 0.51364 0.73642
 O710 O 0.26293 0.48709 0.76307
 C711 C 0.23939 0.54317 0.73910
 C712 C 0.23916 0.51060 0.70693
 C713 C 0.20677 0.51086 0.73958
 C714 C 0.26113 0.45811 0.76045
 C715 C 0.29170 0.48918 0.76133
 C716 C 0.26051 0.48934 0.79202
 H717 H 0.28027 0.50727 0.74331
 H718 H 0.24268 0.50705 0.78042
 H719 H 0.23031 0.51954 0.73050
 H720 H 0.24320 0.46964 0.74280
 H721 H 0.26244 0.47235 0.71816
 H722 H 0.23893 0.47080 0.71897
 H723 H 0.25789 0.52308 0.78738
 H724 H 0.24259 0.53696 0.77258
 H725 H 0.28813 0.47862 0.72690
 H726 H 0.27266 0.52034 0.71064
 H727 H 0.22634 0.49177 0.78664
 H728 H 0.21358 0.50773 0.77313
 H729 H 0.27251 0.53833 0.72560
 H730 H 0.27953 0.53002 0.75897
 H731 H 0.21291 0.47776 0.74317
 H732 H 0.22728 0.46250 0.75812
 O733 O 0.21311 0.01794 0.24881
 O734 O 0.21792 0.01598 0.27297
 O735 O 0.24949 0.03708 0.23226
 O736 O 0.27235 0.03295 0.23168
 O737 O 0.23235 0.00059 0.21272
 O738 O 0.23329 -0.02353 0.21790
 O739 O 0.28633 -0.00057 0.26789
 O740 O 0.28230 0.02309 0.26517
 O741 O 0.25112 -0.01799 0.28591
 O742 O 0.22733 -0.01598 0.28226
 O743 O 0.26790 -0.03627 0.25081
 O744 O 0.26728 -0.03150 0.22597
 O745 O 0.28637 -0.01737 0.25125
 O746 O 0.28133 -0.01608 0.22560
 O747 O 0.25107 -0.03640 0.26734
 O748 O 0.22550 -0.03092 0.26556
 O749 O 0.26803 -0.00151 0.28586
 O750 O 0.26357 0.02353 0.28163
 O751 O 0.21300 0.00092 0.23238
 O752 O 0.21826 -0.02367 0.23361
 O753 O 0.24904 0.01730 0.21262
 O754 O 0.27407 0.01523 0.21833
 O755 O 0.23223 0.03703 0.24840
 O756 O 0.23673 0.03172 0.27330
 Zr757 Zr 0.23326 0.01705 0.25720
 O758 O 0.24532 0.00454 0.27044
 Zr759 Zr 0.25757 0.01677 0.23272
 O760 O 0.27084 0.00475 0.24523
 Zr761 Zr 0.23315 -0.00756 0.23294
 O762 O 0.24551 -0.02087 0.24506
 Zr763 Zr 0.26639 0.00798 0.26629
 O764 O 0.25440 0.02151 0.25380
 Zr765 Zr 0.24212 -0.01653 0.26612
 O766 O 0.22864 -0.00413 0.25400
 Zr767 Zr 0.26661 -0.01638 0.24189
 O768 O 0.25424 -0.00436 0.22826
 O769 O 0.23664 0.01343 0.23621
 O770 O 0.26319 -0.01313 0.26291
 C771 C 0.20714 0.01072 0.23931
 C772 C 0.23958 0.04297 0.23899
 C773 C 0.23941 0.01020 0.20675
 C774 C 0.29213 -0.01052 0.26115
 C775 C 0.26119 -0.01140 0.29163
 C776 C 0.26106 -0.04212 0.26062
 H777 H 0.24301 0.00667 0.28021
 H778 H 0.24330 -0.03062 0.24274
 H779 H 0.23073 0.01932 0.23024
 H780 H 0.28060 0.00712 0.24316
 H781 H 0.27781 0.03189 0.26234
 H782 H 0.27941 0.03097 0.23884
 H783 H 0.22730 -0.03757 0.25795
 H784 H 0.21341 -0.02281 0.24261
 H785 H 0.27160 0.02314 0.28805
 H786 H 0.22988 0.03936 0.27250
 H787 H 0.25858 -0.03691 0.22646
 H788 H 0.24262 -0.02340 0.21363
 H789 H 0.21194 0.02434 0.27239
 H790 H 0.22028 -0.00906 0.27947
 H791 H 0.27250 0.00665 0.21290
 H792 H 0.28776 -0.00827 0.22730
 O793 O 0.53729 0.73236 0.24890
 O794 O 0.53248 0.73436 0.27306
 O795 O 0.50091 0.71318 0.23237
 O796 O 0.47805 0.71732 0.23175
 O797 O 0.51806 0.74963 0.21281
 O798 O 0.51709 0.77377 0.21796
 O799 O 0.46407 0.75089 0.26796
 O800 O 0.46809 0.72723 0.26525
 O801 O 0.49928 0.76833 0.28597
 O802 O 0.52306 0.76635 0.28233
 O803 O 0.48248 0.78656 0.25084
 O804 O 0.48309 0.78175 0.22602
 O805 O 0.46402 0.76766 0.25131
 O806 O 0.46906 0.76631 0.22565
 O807 O 0.49930 0.78672 0.26738
 O808 O 0.52488 0.78125 0.26561
 O809 O 0.48238 0.75184 0.28594
 O810 O 0.48683 0.72680 0.28170
 O811 O 0.53740 0.74935 0.23247
 O812 O 0.53212 0.77396 0.23368
 O813 O 0.50138 0.73291 0.21271
 O814 O 0.47633 0.73502 0.21840
 O815 O 0.51817 0.71326 0.24851
 O816 O 0.51368 0.71862 0.27341
 Zr817 Zr 0.51714 0.73326 0.25730
 O818 O 0.50508 0.74579 0.27052
 Zr819 Zr 0.49283 0.73349 0.23280
 O820 O 0.47956 0.74553 0.24530
 Zr821 Zr 0.51724 0.75783 0.23301
 O822 O 0.50487 0.77116 0.24512
 Zr823 Zr 0.48401 0.74233 0.26636
 O824 O 0.49600 0.72879 0.25388
 Zr825 Zr 0.50827 0.76685 0.26618
 O826 O 0.52176 0.75444 0.25408
 Zr827 Zr 0.48377 0.76665 0.24194
 O828 O 0.49615 0.75461 0.22832
 O829 O 0.51376 0.73685 0.23631
 O830 O 0.48720 0.76344 0.26297
 C831 C 0.54325 0.73956 0.23940
 C832 C 0.51082 0.70730 0.23911
 C833 C 0.51102 0.74000 0.20684
 C834 C 0.45827 0.76082 0.26122
 C835 C 0.48923 0.76173 0.29170
 C836 C 0.48932 0.79243 0.26065
 H837 H 0.50739 0.74368 0.28029
 H838 H 0.50708 0.78090 0.24279
 H839 H 0.51967 0.73094 0.23035
 H840 H 0.46980 0.74315 0.24323
 H841 H 0.47257 0.71843 0.26242
 H842 H 0.47100 0.71929 0.23892
 H843 H 0.52307 0.78789 0.25801
 H844 H 0.53698 0.77310 0.24268
 H845 H 0.47881 0.72719 0.28812
 H846 H 0.52053 0.71098 0.27262
 H847 H 0.49181 0.78714 0.22648
 H848 H 0.50776 0.77362 0.21367
 H849 H 0.53847 0.72601 0.27250
 H850 H 0.53010 0.75942 0.27955
 H851 H 0.47792 0.74358 0.21295
 H852 H 0.46262 0.75851 0.22737
 O853 O 0.03688 0.73195 0.74915
 O854 O 0.03206 0.73392 0.77330
 O855 O 0.00048 0.71281 0.73258
 O856 O -0.02238 0.71697 0.73198
 O857 O 0.01764 0.74929 0.71304
 O858 O 0.01674 0.77340 0.71823
 O859 O -0.03633 0.75056 0.76819
 O860 O -0.03235 0.72690 0.76548
 O861 O -0.00105 0.76790 0.78624
 O862 O 0.02271 0.76593 0.78256
 O863 O -0.01787 0.78620 0.75113
 O864 O -0.01723 0.78140 0.72627
 O865 O -0.03635 0.76732 0.75153
 O866 O -0.03131 0.76602 0.72590
 O867 O -0.00105 0.78633 0.76767
 O868 O 0.02452 0.78084 0.76587
 O869 O -0.01799 0.75146 0.78619
 O870 O -0.01360 0.72641 0.78192
 O871 O 0.03701 0.74895 0.73272
 O872 O 0.03176 0.77355 0.73394
 O873 O 0.00094 0.73258 0.71293
 O874 O -0.02408 0.73468 0.71864
 O875 O 0.01773 0.71286 0.74873
 O876 O 0.01324 0.71820 0.77362
 Zr877 Zr 0.01672 0.73286 0.75752
 O878 O 0.00468 0.74539 0.77075
 Zr879 Zr -0.00758 0.73313 0.73303
 O880 O -0.02084 0.74518 0.74554
 Zr881 Zr 0.01686 0.75745 0.73326
 O882 O 0.00451 0.77078 0.74537
 Zr883 Zr -0.01640 0.74197 0.76660
 O884 O -0.00442 0.72842 0.75411
 Zr885 Zr 0.00790 0.76645 0.76643
 O886 O 0.02137 0.75403 0.75433
 Zr887 Zr -0.01660 0.76631 0.74220
 O888 O -0.00423 0.75426 0.72857
 O889 O 0.01336 0.73646 0.73653
 O890 O -0.01317 0.76308 0.76323
 C891 C 0.04286 0.73916 0.73966
 C892 C 0.01037 0.70692 0.73933
 C893 C 0.01058 0.73969 0.70706
 C894 C -0.04212 0.76048 0.76143
 C895 C -0.01111 0.76131 0.79197
 C896 C -0.01103 0.79205 0.76095
 H897 H 0.00699 0.74327 0.78052
 H898 H 0.00673 0.78052 0.74306
 H899 H 0.01926 0.73055 0.73056
 H900 H -0.03060 0.74282 0.74346
 H901 H -0.02788 0.71809 0.76264
 H902 H -0.02943 0.71896 0.73914
 H903 H 0.02271 0.78750 0.75828
 H904 H 0.03661 0.77269 0.74294
 H905 H -0.02162 0.72681 0.78834
 H906 H 0.02008 0.71056 0.77284
 H907 H -0.00855 0.78684 0.72679
 H908 H 0.00740 0.77330 0.71397
 H909 H 0.03804 0.72556 0.77273
 H910 H 0.02974 0.75898 0.77978
 H911 H -0.02250 0.74325 0.71321
 H912 H -0.03773 0.75819 0.72758
 O913 O 0.03716 0.01819 0.00093
 O914 O 0.03229 0.01616 -0.02321
 O915 O 0.00079 0.03727 0.01757
 O916 O -0.02207 0.03308 0.01819
 O917 O 0.01806 0.00087 0.03711
 O918 O 0.01719 -0.02326 0.03197
 O919 O -0.03605 -0.00060 -0.01793
 O920 O -0.03210 0.02307 -0.01526
 O921 O -0.00082 -0.01795 -0.03599
 O922 O 0.02296 -0.01587 -0.03241
 O923 O -0.01746 -0.03620 -0.00081
 O924 O -0.01681 -0.03133 0.02402
 O925 O -0.03600 -0.01736 -0.00127
 O926 O -0.03092 -0.01597 0.02436
 O927 O -0.00067 -0.03632 -0.01737
 O928 O 0.02488 -0.03074 -0.01568
 O929 O -0.01777 -0.00152 -0.03595
 O930 O -0.01339 0.02355 -0.03175
 O931 O 0.03737 0.00122 0.01740
 O932 O 0.03216 -0.02340 0.01622
 O933 O 0.00133 0.01754 0.03724
 O934 O -0.02371 0.01538 0.03158
 O935 O 0.01799 0.03722 0.00137
 O936 O 0.01344 0.03184 -0.02351
 Zr937 Zr 0.01699 0.01722 -0.00740
 O938 O 0.00494 0.00463 -0.02058
 Zr939 Zr -0.00725 0.01694 0.01715
 O940 O -0.02052 0.00484 0.00469
 Zr941 Zr 0.01724 -0.00733 0.01691
 O942 O 0.00488 -0.02071 0.00485
 Zr943 Zr -0.01613 0.00802 -0.01638
 O944 O -0.00415 0.02162 -0.00394
 Zr945 Zr 0.00821 -0.01641 -0.01622
 O946 O 0.02169 -0.00394 -0.00417
 Zr947 Zr -0.01623 -0.01627 0.00806
 O948 O -0.00385 -0.00417 0.02163
 O949 O 0.01368 0.01364 0.01361
 O950 O -0.01286 -0.01308 -0.01298
 C951 C 0.04318 0.01102 0.01043
 C952 C 0.01066 0.04317 0.01079
 C953 C 0.01100 0.01047 0.04309
 C954 C -0.04180 -0.01055 -0.01117
 C955 C -0.01091 -0.01139 -0.04171
 C956 C -0.01061 -0.04207 -0.01061
 H957 H 0.00722 0.00674 -0.03036
 H958 H 0.00713 -0.03044 0.00718
 H959 H 0.01959 0.01957 0.01955
 H960 H -0.03028 0.00719 0.00677
 H961 H -0.02763 0.03189 -0.01244
 H962 H -0.02914 0.03105 0.01106
 H963 H 0.02313 -0.03737 -0.00805
 H964 H 0.03701 -0.02253 0.00722
 H965 H -0.02143 0.02312 -0.03815
 H966 H 0.02026 0.03950 -0.02275
 H967 H -0.00810 -0.03672 0.02353
 H968 H 0.00787 -0.02316 0.03626
 H969 H 0.03825 0.02453 -0.02266
 H970 H 0.02998 -0.00891 -0.02967
 H971 H -0.02211 0.00681 0.03701
 H972 H -0.03738 -0.00817 0.02266
 O973 O 0.03696 0.51792 0.50108
 O974 O 0.03214 0.51596 0.47693
 O975 O 0.00057 0.53709 0.51764
 O976 O -0.02228 0.53293 0.51826
 O977 O 0.01772 0.50060 0.53718
 O978 O 0.01680 0.47648 0.53199
 O979 O -0.03626 0.49940 0.48202
 O980 O -0.03224 0.52305 0.48473
 O981 O -0.00103 0.48198 0.46398
 O982 O 0.02274 0.48397 0.46764
 O983 O -0.01782 0.46371 0.49909
 O984 O -0.01722 0.46850 0.52392
 O985 O -0.03630 0.48261 0.49864
 O986 O -0.03126 0.48392 0.52430
 O987 O -0.00100 0.46356 0.48256
 O988 O 0.02457 0.46906 0.48434
 O989 O -0.01795 0.49845 0.46403
 O990 O -0.01350 0.52350 0.46829
 O991 O 0.03708 0.50092 0.51750
 O992 O 0.03180 0.47632 0.51628
 O993 O 0.00104 0.51731 0.53729
 O994 O -0.02400 0.51522 0.53158
 O995 O 0.01782 0.53703 0.50150
 O996 O 0.01333 0.53169 0.47660
 Zr997 Zr 0.01681 0.51703 0.49270
 O998 O 0.00475 0.50451 0.47946
 Zr999 Zr -0.00750 0.51677 0.51719
 O1000 O -0.02077 0.50473 0.50467
 Zr1001 Zr 0.01693 0.49243 0.51696
 O1002 O 0.00456 0.47912 0.50484
 Zr1003 Zr -0.01632 0.50795 0.48362
 O1004 O -0.00433 0.52149 0.49611
 Zr1005 Zr 0.00795 0.48344 0.48378
 O1006 O 0.02143 0.49585 0.49589
 Zr1007 Zr -0.01655 0.48361 0.50801
 O1008 O -0.00417 0.49564 0.52164
 O1009 O 0.01344 0.51343 0.51369
 O1010 O -0.01312 0.48683 0.48698
 C1011 C 0.04294 0.51070 0.51056
 C1012 C 0.01046 0.54298 0.51089
 C1013 C 0.01067 0.51020 0.54316
 C1014 C -0.04206 0.48947 0.48875
 C1015 C -0.01110 0.48858 0.45826
 C1016 C -0.01097 0.45784 0.48929
 H1017 H 0.00706 0.50663 0.46969
 H1018 H 0.00677 0.46938 0.50716
 H1019 H 0.01935 0.51933 0.51966
 H1020 H -0.03052 0.50711 0.50674
 H1021 H -0.02775 0.53185 0.48757
 H1022 H -0.02932 0.53097 0.51107
 H1023 H 0.02277 0.46242 0.49194
 H1024 H 0.03666 0.47719 0.50728
 H1025 H -0.02153 0.52311 0.46187
 H1026 H 0.02017 0.53933 0.47739
 H1027 H -0.00851 0.46310 0.52345
 H1028 H 0.00746 0.47660 0.53626
 H1029 H 0.03812 0.52432 0.47750
 H1030 H 0.02977 0.49091 0.47041
 H1031 H -0.02242 0.50665 0.53701
 H1032 H -0.03769 0.49173 0.52259
 O1033 O 0.50067 0.03711 0.51829
 O1034 O 0.47650 0.03226 0.51624
 O1035 O 0.51723 0.00079 0.53753
 O1036 O 0.51781 -0.02212 0.53346
 O1037 O 0.53687 0.01786 0.50116
 O1038 O 0.53178 0.01687 0.47706
 O1039 O 0.48171 -0.03622 0.49982
 O1040 O 0.48434 -0.03216 0.52345
 O1041 O 0.46374 -0.00103 0.48230
 O1042 O 0.46735 0.02278 0.48428
 O1043 O 0.49896 -0.01783 0.46425
 O1044 O 0.52379 -0.01720 0.46915
 O1045 O 0.49842 -0.03628 0.48313
 O1046 O 0.52408 -0.03124 0.48456
 O1047 O 0.48241 -0.00101 0.46400
 O1048 O 0.48413 0.02461 0.46947
 O1049 O 0.46372 -0.01792 0.49878
 O1050 O 0.46787 -0.01340 0.52380
 O1051 O 0.51718 0.03721 0.50139
 O1052 O 0.51603 0.03188 0.47682
 O1053 O 0.53694 0.00119 0.51787
 O1054 O 0.53124 -0.02389 0.51582
 O1055 O 0.50104 0.01803 0.53738
 O1056 O 0.47614 0.01347 0.53198
 Zr1057 Zr 0.49230 0.01693 0.51740
 O1058 O 0.47911 0.00483 0.50486
 Zr1059 Zr 0.51683 -0.00737 0.51727
 O1060 O 0.50436 -0.02069 0.50523
 Zr1061 Zr 0.51667 0.01702 0.49293
 O1062 O 0.50462 0.00460 0.47961
 Zr1063 Zr 0.48327 -0.01625 0.50835
 O1064 O 0.49571 -0.00421 0.52190
 Zr1065 Zr 0.48353 0.00799 0.48384
 O1066 O 0.49558 0.02153 0.49626
 Zr1067 Zr 0.50779 -0.01651 0.48415
 O1068 O 0.52137 -0.00408 0.49619
 O1069 O 0.51332 0.01357 0.51388
 O1070 O 0.48674 -0.01309 0.48728
 C1071 C 0.51021 0.04308 0.51113
 C1072 C 0.51047 0.01072 0.54335
 C1073 C 0.54282 0.01083 0.51079
 C1074 C 0.48848 -0.04203 0.48992
 C1075 C 0.45799 -0.01110 0.48888
 C1076 C 0.48917 -0.01099 0.45834
 H1077 H 0.46932 0.00714 0.50693
 H1078 H 0.50698 0.00680 0.46989
 H1079 H 0.51927 0.01950 0.51977
 H1080 H 0.50643 -0.03046 0.50762
 H1081 H 0.48714 -0.02765 0.53224
 H1082 H 0.51067 -0.02921 0.53145
 H1083 H 0.49177 0.02280 0.46286
 H1084 H 0.50704 0.03676 0.47766
 H1085 H 0.46145 -0.02144 0.52340
 H1086 H 0.47691 0.02034 0.53960
 H1087 H 0.52333 -0.00850 0.46373
 H1088 H 0.53606 0.00754 0.47722
 H1089 H 0.47704 0.03827 0.52458
 H1090 H 0.47008 0.02983 0.49121
 H1091 H 0.53671 -0.02232 0.50727
 H1092 H 0.52234 -0.03768 0.49235
 O1093 O 0.48146 0.46279 -0.00122
 O1094 O 0.48344 0.46762 0.02294
 O1095 O 0.46238 0.49925 -0.01776
 O1096 O 0.46656 0.52213 -0.01833
 O1097 O 0.49876 0.48202 -0.03732
 O1098 O 0.52288 0.48291 -0.03216
 O1099 O 0.50014 0.53605 0.01787
 O1100 O 0.47651 0.53210 0.01516
 O1101 O 0.51744 0.50072 0.03588
 O1102 O 0.51545 0.47694 0.03219
 O1103 O 0.53573 0.51751 0.00073
 O1104 O 0.53091 0.51693 -0.02409
 O1105 O 0.51688 0.53606 0.00121
 O1106 O 0.51555 0.53102 -0.02444
 O1107 O 0.53585 0.50069 0.01727
 O1108 O 0.53031 0.47511 0.01548
 O1109 O 0.50101 0.51768 0.03586
 O1110 O 0.47599 0.51333 0.03159
 O1111 O 0.49844 0.46265 -0.01765
 O1112 O 0.52302 0.46788 -0.01646
 O1113 O 0.48211 0.49876 -0.03741
 O1114 O 0.48425 0.52381 -0.03169
 O1115 O 0.46242 0.48197 -0.00162
 O1116 O 0.46776 0.48647 0.02328
 Zr1117 Zr 0.48239 0.48297 0.00717
 O1118 O 0.49494 0.49501 0.02040
 Zr1119 Zr 0.48269 0.50730 -0.01730
 O1120 O 0.49475 0.52056 -0.00480
 Zr1121 Zr 0.50695 0.48280 -0.01711
 O1122 O 0.52029 0.49516 -0.00500
 Zr1123 Zr 0.49154 0.51611 0.01626
 O1124 O 0.47798 0.50414 0.00378
 Zr1125 Zr 0.51597 0.49177 0.01606
 O1126 O 0.50354 0.47830 0.00396
 Zr1127 Zr 0.51584 0.51629 -0.00816
 O1128 O 0.50378 0.50392 -0.02178
 O1129 O 0.48599 0.48634 -0.01382
 O1130 O 0.51263 0.51287 0.01287
 C1131 C 0.48865 0.45680 -0.01072
 C1132 C 0.45649 0.48934 -0.01102
 C1133 C 0.48917 0.48909 -0.04328
 C1134 C 0.51007 0.54184 0.01111
 C1135 C 0.51084 0.51078 0.04163
 C1136 C 0.54159 0.51065 0.01052
 H1137 H 0.49281 0.49270 0.03017
 H1138 H 0.53001 0.49292 -0.00733
 H1139 H 0.48008 0.48043 -0.01978
 H1140 H 0.49239 0.53033 -0.00686
 H1141 H 0.46770 0.52764 0.01232
 H1142 H 0.46856 0.52919 -0.01118
 H1143 H 0.53695 0.47690 0.00788
 H1144 H 0.52216 0.46302 -0.00746
 H1145 H 0.47640 0.52136 0.03801
 H1146 H 0.46011 0.47964 0.02249
 H1147 H 0.53628 0.50820 -0.02364
 H1148 H 0.52275 0.49225 -0.03644
 H1149 H 0.47508 0.46164 0.02237
 H1150 H 0.50847 0.46994 0.02943
 H1151 H 0.49281 0.52221 -0.03713
 H1152 H 0.50775 0.53747 -0.02273
 O1153 O 0.78718 0.25068 0.48221
 O1154 O 0.78230 0.22649 0.48431
 O1155 O 0.75089 0.26730 0.46307
 O1156 O 0.72802 0.26795 0.46719
 O1157 O 0.76809 0.28694 0.49941
 O1158 O 0.76715 0.28185 0.52352
 O1159 O 0.71391 0.23189 0.50082
 O1160 O 0.71793 0.23448 0.47721
 O1161 O 0.74911 0.21376 0.51825
 O1162 O 0.77288 0.21735 0.51629
 O1163 O 0.73243 0.24911 0.53638
 O1164 O 0.73311 0.27394 0.53150
 O1165 O 0.71394 0.24864 0.51750
 O1166 O 0.71908 0.27430 0.51611
 O1167 O 0.74919 0.23248 0.53659
 O1168 O 0.77477 0.23414 0.53109
 O1169 O 0.73219 0.21379 0.50180
 O1170 O 0.73662 0.21796 0.47679
 O1171 O 0.78736 0.26720 0.49913
 O1172 O 0.78212 0.26605 0.52371
 O1173 O 0.75140 0.28703 0.48272
 O1174 O 0.72634 0.28142 0.48483
 O1175 O 0.76807 0.25105 0.46318
 O1176 O 0.76350 0.22614 0.46859
 Zr1177 Zr 0.76702 0.24232 0.48317
 O1178 O 0.75492 0.22916 0.49572
 Zr1179 Zr 0.74279 0.26693 0.48334
 O1180 O 0.72949 0.25450 0.49540
 Zr1181 Zr 0.76723 0.26673 0.50764
 O1182 O 0.75482 0.25470 0.52098
 Zr1183 Zr 0.73386 0.23338 0.49227
 O1184 O 0.74589 0.24579 0.47871
 Zr1185 Zr 0.75813 0.23357 0.51674
 O1186 O 0.77166 0.24560 0.50430
 Zr1187 Zr 0.73373 0.25793 0.51648
 O1188 O 0.74615 0.27148 0.50442
 O1189 O 0.76371 0.26337 0.48670
 O1190 O 0.73707 0.23684 0.51334
 C1191 C 0.79318 0.26022 0.48936
 C1192 C 0.76077 0.26049 0.45722
 C1193 C 0.76107 0.29291 0.48978
 C1194 C 0.70814 0.23872 0.51070
 C1195 C 0.73905 0.20802 0.51166
 C1196 C 0.73925 0.23930 0.54228
 H1197 H 0.75720 0.21936 0.49363
 H1198 H 0.75705 0.25706 0.53069
 H1199 H 0.76963 0.26931 0.48078
 H1200 H 0.71974 0.25660 0.49303
 H1201 H 0.72241 0.23729 0.46841
 H1202 H 0.72092 0.26083 0.46921
 H1203 H 0.77300 0.24180 0.53769
 H1204 H 0.78696 0.25703 0.52286
 H1205 H 0.72857 0.21155 0.47720
 H1206 H 0.77035 0.22688 0.46097
 H1207 H 0.74183 0.27348 0.53688
 H1208 H 0.75784 0.28619 0.52336
 H1209 H 0.78829 0.22701 0.47597
 H1210 H 0.77990 0.22005 0.50932
 H1211 H 0.72795 0.28690 0.49336
 H1212 H 0.71264 0.27259 0.50831
 O1213 O 0.78707 0.75089 -0.01826
 O1214 O 0.78215 0.72671 -0.01632
 O1215 O 0.75079 0.76767 -0.03733
 O1216 O 0.72792 0.76835 -0.03320
 O1217 O 0.76804 0.78709 -0.00090
 O1218 O 0.76706 0.78191 0.02318
 O1219 O 0.71379 0.73209 0.00022
 O1220 O 0.71780 0.73482 -0.02337
 O1221 O 0.74894 0.71386 0.01758
 O1222 O 0.77272 0.71742 0.01563
 O1223 O 0.73233 0.74913 0.03590
 O1224 O 0.73298 0.77396 0.03114
 O1225 O 0.71382 0.74873 0.01702
 O1226 O 0.71898 0.77442 0.01572
 O1227 O 0.74907 0.73249 0.03602
 O1228 O 0.77464 0.73413 0.03050
 O1229 O 0.73204 0.71398 0.00112
 O1230 O 0.73648 0.71827 -0.02387
 O1231 O 0.78727 0.76733 -0.00125
 O1232 O 0.78200 0.76607 0.02333
 O1233 O 0.75135 0.78731 -0.01758
 O1234 O 0.72627 0.78171 -0.01547
 O1235 O 0.76796 0.75142 -0.03730
 O1236 O 0.76334 0.72648 -0.03203
 Zr1237 Zr 0.76689 0.74257 -0.01736
 O1238 O 0.75478 0.72936 -0.00488
 Zr1239 Zr 0.74270 0.76722 -0.01706
 O1240 O 0.72937 0.75473 -0.00507
 Zr1241 Zr 0.76713 0.76685 0.00724
 O1242 O 0.75470 0.75476 0.02051
 Zr1243 Zr 0.73373 0.73362 -0.00831
 O1244 O 0.74577 0.74609 -0.02180
 Zr1245 Zr 0.75800 0.73366 0.01616
 O1246 O 0.77154 0.74573 0.00379
 Zr1247 Zr 0.73361 0.75803 0.01603
 O1248 O 0.74605 0.77164 0.00405
 O1249 O 0.76361 0.76360 -0.01372
 O1250 O 0.73694 0.73696 0.01278
 C1251 C 0.79309 0.76038 -0.01105
 C1252 C 0.76067 0.76090 -0.04321
 C1253 C 0.76104 0.79312 -0.01050
 C1254 C 0.70802 0.73885 0.01015
 C1255 C 0.73887 0.70816 0.01096
 C1256 C 0.73916 0.73930 0.04175
 H1257 H 0.75705 0.71956 -0.00702
 H1258 H 0.75693 0.75708 0.03023
 H1259 H 0.76955 0.76956 -0.01960
 H1260 H 0.71962 0.75684 -0.00743
 H1261 H 0.72229 0.73767 -0.03215
 H1262 H 0.72082 0.76121 -0.03123
 H1263 H 0.77289 0.74176 0.03714
 H1264 H 0.78685 0.75706 0.02241
 H1265 H 0.72843 0.71187 -0.02350
 H1266 H 0.77019 0.72726 -0.03966
 H1267 H 0.74174 0.77353 0.03646
 H1268 H 0.75776 0.78626 0.02303
 H1269 H 0.78814 0.72727 -0.02466
 H1270 H 0.77973 0.72014 0.00866
 H1271 H 0.72790 0.78715 -0.00692
 H1272 H 0.71251 0.77272 0.00794
 O1273 O 1.03723 0.23188 0.24878
 O1274 O 1.03243 0.23388 0.27295
 O1275 O 1.00087 0.21270 0.23224
 O1276 O 0.97800 0.21684 0.23161
 O1277 O 1.01800 0.24919 0.21270
 O1278 O 1.01704 0.27332 0.21787
 O1279 O 0.96401 0.25038 0.26784
 O1280 O 0.96803 0.22674 0.26513
 O1281 O 0.99925 0.26781 0.28588
 O1282 O 1.02301 0.26586 0.28222
 O1283 O 0.98241 0.28606 0.25076
 O1284 O 0.98304 0.28127 0.22593
 O1285 O 0.96395 0.26715 0.25118
 O1286 O 0.96901 0.26584 0.22554
 O1287 O 0.99923 0.28623 0.26730
 O1288 O 1.02482 0.28076 0.26551
 O1289 O 0.98234 0.25133 0.28584
 O1290 O 0.98678 0.22629 0.28157
 O1291 O 1.03734 0.24889 0.23237
 O1292 O 1.03206 0.27349 0.23360
 O1293 O 1.00134 0.23245 0.21258
 O1294 O 0.97629 0.23455 0.21828
 O1295 O 1.01811 0.21278 0.24839
 O1296 O 1.01364 0.21812 0.27329
 Zr1297 Zr 1.01709 0.23278 0.25718
 O1298 O 1.00502 0.24530 0.27041
 Zr1299 Zr 0.99278 0.23301 0.23268
 O1300 O 0.97951 0.24504 0.24518
 Zr1301 Zr 1.01719 0.25737 0.23291
 O1302 O 1.00481 0.27068 0.24502
 Zr1303 Zr 0.98395 0.24184 0.26625
 O1304 O 0.99595 0.22831 0.25376
 Zr1305 Zr 1.00821 0.26636 0.26608
 O1306 O 1.02170 0.25396 0.25398
 Zr1307 Zr 0.98371 0.26617 0.24184
 O1308 O 0.99610 0.25414 0.22822
 O1309 O 1.01371 0.23637 0.23619
 O1310 O 0.98714 0.26295 0.26287
 C1311 C 1.04320 0.23909 0.23929
 C1312 C 1.01076 0.20682 0.23899
 C1313 C 1.01097 0.23957 0.20672
 C1314 C 0.95820 0.26030 0.26108
 C1315 C 0.98920 0.26120 0.29161
 C1316 C 0.98925 0.29193 0.26057
 H1317 H 1.00734 0.24318 0.28018
 H1318 H 1.00702 0.28042 0.24270
 H1319 H 1.01962 0.23047 0.23022
 H1320 H 0.96975 0.24266 0.24311
 H1321 H 0.97252 0.21794 0.26229
 H1322 H 0.97097 0.21880 0.23879
 H1323 H 1.02300 0.28741 0.25792
 H1324 H 1.03692 0.27262 0.24259
 H1325 H 0.97876 0.22668 0.28800
 H1326 H 1.02049 0.21049 0.27250
 H1327 H 0.99174 0.28668 0.22641
 H1328 H 1.00771 0.27318 0.21360
 H1329 H 1.03842 0.22553 0.27237
 H1330 H 1.03004 0.25892 0.27945
 H1331 H 0.97788 0.24311 0.21283
 H1332 H 0.96259 0.25801 0.22723
 O1333 O 0.71301 1.01789 0.74919
 O1334 O 0.71781 1.01585 0.77336
 O1335 O 0.74937 1.03701 0.73267
 O1336 O 0.77224 1.03287 0.73208
 O1337 O 0.73220 1.00057 0.71309
 O1338 O 0.73313 0.97643 0.71823
 O1339 O 0.78621 0.99926 0.76824
 O1340 O 0.78222 1.02292 0.76554
 O1341 O 0.75099 0.98187 0.78625
 O1342 O 0.72721 0.98386 0.78260
 O1343 O 0.76774 0.96361 0.75108
 O1344 O 0.76713 0.96844 0.72626
 O1345 O 0.78623 0.98250 0.75157
 O1346 O 0.78118 0.98385 0.72592
 O1347 O 0.75094 0.96346 0.76763
 O1348 O 0.72537 0.96896 0.76588
 O1349 O 0.76790 0.99836 0.78622
 O1350 O 0.76348 1.02340 0.78199
 O1351 O 0.71287 1.00090 0.73274
 O1352 O 0.71810 0.97628 0.73395
 O1353 O 0.74890 1.01728 0.71301
 O1354 O 0.77394 1.01516 0.71870
 O1355 O 0.73214 1.03695 0.74884
 O1356 O 0.73662 1.03158 0.77373
 Zr1357 Zr 0.73315 1.01695 0.75760
 O1358 O 0.74521 1.00441 0.77081
 Zr1359 Zr 0.75745 1.01670 0.73310
 O1360 O 0.77072 1.00464 0.74558
 Zr1361 Zr 0.73301 0.99238 0.73329
 O1362 O 0.74537 0.97904 0.74538
 Zr1363 Zr 0.76628 1.00785 0.76664
 O1364 O 0.75429 1.02140 0.75418
 Zr1365 Zr 0.74200 0.98335 0.76645
 O1366 O 0.72851 0.99577 0.75437
 Zr1367 Zr 0.76648 0.98352 0.74221
 O1368 O 0.75410 0.99558 0.72860
 O1369 O 0.73652 1.01336 0.73660
 O1370 O 0.76307 0.98673 0.76324
 C1371 C 0.70703 1.01071 0.73967
 C1372 C 0.73948 1.04289 0.73943
 C1373 C 0.73925 1.01019 0.70713
 C1374 C 0.79199 0.98932 0.76149
 C1375 C 0.76105 0.98848 0.79198
 C1376 C 0.76090 0.95774 0.76088
 H1377 H 0.74291 1.00652 0.78058
 H1378 H 0.74315 0.96930 0.74304
 H1379 H 0.73061 1.01927 0.73064
 H1380 H 0.78048 1.00701 0.74352
 H1381 H 0.77774 1.03173 0.76271
 H1382 H 0.77932 1.03085 0.73921
 H1383 H 0.72716 0.96234 0.75825
 H1384 H 0.71325 0.97715 0.74295
 H1385 H 0.77151 1.02300 0.78840
 H1386 H 0.72977 1.03922 0.77295
 H1387 H 0.75841 0.96305 0.72672
 H1388 H 0.74245 0.97658 0.71394
 H1389 H 0.71183 1.02420 0.77280
 H1390 H 0.72018 0.99080 0.77984
 H1391 H 0.77235 1.00659 0.71325
 H1392 H 0.78763 0.99165 0.72764
 O1393 O 0.71291 0.51797 0.24894
 O1394 O 0.71774 0.51600 0.27309
 O1395 O 0.74926 0.53714 0.23237
 O1396 O 0.77212 0.53302 0.23172
 O1397 O 0.73211 0.50065 0.21285
 O1398 O 0.73310 0.47651 0.21801
 O1399 O 0.78616 0.49951 0.26796
 O1400 O 0.78213 0.52316 0.26523
 O1401 O 0.75097 0.48209 0.28602
 O1402 O 0.72720 0.48402 0.28238
 O1403 O 0.76774 0.46380 0.25086
 O1404 O 0.76713 0.46858 0.22605
 O1405 O 0.78620 0.48272 0.25132
 O1406 O 0.78114 0.48403 0.22566
 O1407 O 0.75096 0.46365 0.26742
 O1408 O 0.72537 0.46911 0.26567
 O1409 O 0.76785 0.49861 0.28596
 O1410 O 0.76340 0.52363 0.28168
 O1411 O 0.71280 0.50094 0.23252
 O1412 O 0.71809 0.47634 0.23375
 O1413 O 0.74877 0.51738 0.21272
 O1414 O 0.77383 0.51529 0.21839
 O1415 O 0.73202 0.53708 0.24852
 O1416 O 0.73653 0.53176 0.27342
 Zr1417 Zr 0.73307 0.51709 0.25732
 O1418 O 0.74515 0.50459 0.27054
 Zr1419 Zr 0.75735 0.51684 0.23280
 O1420 O 0.77065 0.50483 0.24530
 Zr1421 Zr 0.73295 0.49248 0.23305
 O1422 O 0.74535 0.47918 0.24516
 Zr1423 Zr 0.76621 0.50806 0.26636
 O1424 O 0.75420 0.52157 0.25388
 Zr1425 Zr 0.74198 0.48352 0.26622
 O1426 O 0.72846 0.49590 0.25413
 Zr1427 Zr 0.76645 0.48370 0.24196
 O1428 O 0.75404 0.49570 0.22835
 O1429 O 0.73643 0.51347 0.23633
 O1430 O 0.76304 0.48693 0.26300
 C1431 C 0.70694 0.51075 0.23944
 C1432 C 0.73936 0.54302 0.23912
 C1433 C 0.73912 0.51027 0.20687
 C1434 C 0.79196 0.48958 0.26123
 C1435 C 0.76101 0.48873 0.29174
 C1436 C 0.76091 0.45793 0.26067
 H1437 H 0.74285 0.50672 0.28031
 H1438 H 0.74314 0.46944 0.24283
 H1439 H 0.73051 0.51937 0.23037
 H1440 H 0.78040 0.50721 0.24323
 H1441 H 0.77764 0.53196 0.26238
 H1442 H 0.77918 0.53106 0.23889
 H1443 H 0.72717 0.46246 0.25807
 H1444 H 0.71324 0.47722 0.24275
 H1445 H 0.77143 0.52326 0.28809
 H1446 H 0.72968 0.53939 0.27263
 H1447 H 0.75840 0.46321 0.22649
 H1448 H 0.74241 0.47668 0.21371
 H1449 H 0.71175 0.52435 0.27252
 H1450 H 0.72016 0.49097 0.27962
 H1451 H 0.77223 0.50672 0.21294
 H1452 H 0.78758 0.49184 0.22738
 O1453 O 0.46298 0.25070 0.76822
 O1454 O 0.46785 0.22652 0.76611
 O1455 O 0.49932 0.26729 0.78740
 O1456 O 0.52217 0.26799 0.78326
 O1457 O 0.48211 0.28697 0.75106
 O1458 O 0.48303 0.28188 0.72695
 O1459 O 0.53624 0.23189 0.74960
 O1460 O 0.53223 0.23448 0.77321
 O1461 O 0.50104 0.21379 0.73215
 O1462 O 0.47727 0.21738 0.73411
 O1463 O 0.51773 0.24913 0.71405
 O1464 O 0.51707 0.27396 0.71897
 O1465 O 0.53623 0.24864 0.73293
 O1466 O 0.53111 0.27431 0.73436
 O1467 O 0.50097 0.23251 0.71383
 O1468 O 0.47539 0.23418 0.71934
 O1469 O 0.51796 0.21380 0.74860
 O1470 O 0.51353 0.21796 0.77361
 O1471 O 0.46281 0.26722 0.75132
 O1472 O 0.46806 0.26609 0.72674
 O1473 O 0.49879 0.28706 0.76775
 O1474 O 0.52385 0.28142 0.76563
 O1475 O 0.48212 0.25106 0.78727
 O1476 O 0.48666 0.22616 0.78182
 Zr1477 Zr 0.48315 0.24235 0.76727
 O1478 O 0.49524 0.22918 0.75469
 Zr1479 Zr 0.50738 0.26695 0.76711
 O1480 O 0.52068 0.25451 0.75504
 Zr1481 Zr 0.48295 0.26676 0.74282
 O1482 O 0.49535 0.25472 0.72947
 Zr1483 Zr 0.51630 0.23339 0.75815
 O1484 O 0.50428 0.24581 0.77172
 Zr1485 Zr 0.49202 0.23360 0.73368
 O1486 O 0.47850 0.24562 0.74614
 Zr1487 Zr 0.51645 0.25794 0.73397
 O1488 O 0.50403 0.27150 0.74604
 O1489 O 0.48646 0.26340 0.76376
 O1490 O 0.51309 0.23685 0.73708
 C1491 C 0.45698 0.26023 0.76107
 C1492 C 0.48945 0.26047 0.79325
 C1493 C 0.48914 0.29294 0.76068
 C1494 C 0.54202 0.23872 0.73972
 C1495 C 0.51110 0.20804 0.73873
 C1496 C 0.51090 0.23932 0.70814
 H1497 H 0.49295 0.21938 0.75677
 H1498 H 0.49312 0.25709 0.71976
 H1499 H 0.48054 0.26933 0.76969
 H1500 H 0.53044 0.25660 0.75742
 H1501 H 0.52775 0.23728 0.78202
 H1502 H 0.52923 0.26083 0.78126
 H1503 H 0.47717 0.24183 0.71274
 H1504 H 0.46321 0.25707 0.72758
 H1505 H 0.52157 0.21156 0.77319
 H1506 H 0.47981 0.22689 0.78945
 H1507 H 0.50835 0.27350 0.71358
 H1508 H 0.49234 0.28620 0.72710
 H1509 H 0.46186 0.22704 0.77446
 H1510 H 0.47026 0.22008 0.74109
 H1511 H 0.52224 0.28691 0.75711
 H1512 H 0.53755 0.27259 0.74215
 O1513 O 0.21254 0.73190 0.50107
 O1514 O 0.21736 0.73389 0.47692
 O1515 O 0.24893 0.71273 0.51761
 O1516 O 0.27178 0.71689 0.51825
 O1517 O 0.23178 0.74922 0.53720
 O1518 O 0.23270 0.77334 0.53204
 O1519 O 0.28576 0.75047 0.48205
 O1520 O 0.28176 0.72680 0.48475
 O1521 O 0.25053 0.76786 0.46403
 O1522 O 0.22676 0.76587 0.46768
 O1523 O 0.26733 0.78611 0.49916
 O1524 O 0.26669 0.78131 0.52401
 O1525 O 0.28579 0.76723 0.49871
 O1526 O 0.28076 0.76591 0.52436
 O1527 O 0.25052 0.78626 0.48262
 O1528 O 0.22494 0.78079 0.48440
 O1529 O 0.26745 0.75139 0.46407
 O1530 O 0.26301 0.72634 0.46829
 O1531 O 0.21242 0.74890 0.51751
 O1532 O 0.21769 0.77350 0.51632
 O1533 O 0.24846 0.73250 0.53729
 O1534 O 0.27350 0.73459 0.53159
 O1535 O 0.23168 0.71280 0.50146
 O1536 O 0.23616 0.71815 0.47657
 Zr1537 Zr 0.23269 0.73280 0.49269
 O1538 O 0.24475 0.74533 0.47948
 Zr1539 Zr 0.25700 0.73305 0.51720
 O1540 O 0.27027 0.74509 0.50471
 Zr1541 Zr 0.23257 0.75739 0.51699
 O1542 O 0.24494 0.77071 0.50489
 Zr1543 Zr 0.26582 0.74189 0.48364
 O1544 O 0.25383 0.72835 0.49611
 Zr1545 Zr 0.24155 0.76639 0.48383
 O1546 O 0.22807 0.75398 0.49591
 Zr1547 Zr 0.26604 0.76622 0.50807
 O1548 O 0.25366 0.75418 0.52168
 O1549 O 0.23606 0.73640 0.51369
 O1550 O 0.26262 0.76300 0.48704
 C1551 C 0.20656 0.73911 0.51056
 C1552 C 0.23904 0.70685 0.51085
 C1553 C 0.23884 0.73962 0.54317
 C1554 C 0.29155 0.76040 0.48880
 C1555 C 0.26060 0.76127 0.45831
 C1556 C 0.26050 0.79198 0.48935
 H1557 H 0.24245 0.74321 0.46970
 H1558 H 0.24272 0.78045 0.50722
 H1559 H 0.23015 0.73049 0.51965
 H1560 H 0.28003 0.74272 0.50677
 H1561 H 0.27727 0.71799 0.48757
 H1562 H 0.27882 0.71885 0.51107
 H1563 H 0.22675 0.78744 0.49200
 H1564 H 0.21284 0.77264 0.50732
 H1565 H 0.27104 0.72674 0.46188
 H1566 H 0.22932 0.71051 0.47735
 H1567 H 0.25801 0.78675 0.52350
 H1568 H 0.24204 0.77323 0.53630
 H1569 H 0.21137 0.72553 0.47748
 H1570 H 0.21971 0.75894 0.47046
 H1571 H 0.27192 0.74317 0.53703
 H1572 H 0.28719 0.75809 0.52265
 O1573 O 0.26799 0.28732 0.99910
 O1574 O 0.26600 0.28252 1.02326
 O1575 O 0.28712 0.25091 0.98256
 O1576 O 0.28297 0.22803 0.98191
 O1577 O 0.25066 0.26807 0.96301
 O1578 O 0.22655 0.26712 0.96820
 O1579 O 0.24952 0.21401 1.01812
 O1580 O 0.27313 0.21806 1.01543
 O1581 O 0.23212 0.24930 1.03621
 O1582 O 0.23405 0.27308 1.03255
 O1583 O 0.21382 0.23248 1.00106
 O1584 O 0.21860 0.23306 0.97626
 O1585 O 0.23275 0.21397 1.00149
 O1586 O 0.23401 0.21904 0.97585
 O1587 O 0.21368 0.24932 1.01759
 O1588 O 0.21917 0.27491 1.01586
 O1589 O 0.24859 0.23238 1.03615
 O1590 O 0.27359 0.23682 1.03188
 O1591 O 0.25098 0.28743 0.98268
 O1592 O 0.22640 0.28215 0.98392
 O1593 O 0.26737 0.25139 0.96290
 O1594 O 0.26527 0.22632 0.96858
 O1595 O 0.28706 0.26817 0.99871
 O1596 O 0.28173 0.26371 1.02360
 Zr1597 Zr 0.26709 0.26716 1.00749
 O1598 O 0.25459 0.25508 1.02072
 Zr1599 Zr 0.26683 0.24283 0.98299
 O1600 O 0.25482 0.22954 0.99549
 Zr1601 Zr 0.24250 0.26726 0.98323
 O1602 O 0.22921 0.25487 0.99534
 Zr1603 Zr 0.25804 0.23399 1.01655
 O1604 O 0.27155 0.24600 1.00407
 Zr1605 Zr 0.23354 0.25827 1.01640
 O1606 O 0.24593 0.27178 1.00430
 Zr1607 Zr 0.23371 0.23375 0.99216
 O1608 O 0.24571 0.24615 0.97854
 O1609 O 0.26348 0.26378 0.98650
 O1610 O 0.23693 0.23717 1.01319
 C1611 C 0.26077 0.29330 0.98961
 C1612 C 0.29300 0.26081 0.98931
 C1613 C 0.26026 0.26103 0.95703
 C1614 C 0.23962 0.20819 1.01136
 C1615 C 0.23874 0.23925 1.04193
 C1616 C 0.20795 0.23935 1.01085
 H1617 H 0.25672 0.25740 1.03049
 H1618 H 0.21948 0.25709 0.99302
 H1619 H 0.26938 0.26969 0.98054
 H1620 H 0.25719 0.21978 0.99341
 H1621 H 0.28191 0.22255 1.01258
 H1622 H 0.28102 0.22098 0.98909
 H1623 H 0.21255 0.27312 1.00824
 H1624 H 0.22728 0.28703 0.99291
 H1625 H 0.27321 0.22879 1.03829
 H1626 H 0.28936 0.27056 1.02281
 H1627 H 0.21324 0.24180 0.97669
 H1628 H 0.22670 0.25778 0.96390
 H1629 H 0.27435 0.28852 1.02269
 H1630 H 0.24101 0.28011 1.02980
 H1631 H 0.25672 0.22791 0.96313
 H1632 H 0.24183 0.21261 0.97753
 N1633 N 0.27873 0.37321 0.79541
 C1634 C 0.28510 0.37951 0.78458
 N1635 N 0.29596 0.37310 0.77836
 N1636 N 0.30034 0.36078 0.78285
 C1637 C 0.29401 0.35445 0.79372
 N1638 N 0.28311 0.36089 0.79990
 C1639 C 0.28062 0.39295 0.77999
 C1640 C 0.27695 0.40432 0.77626
 C1641 C 0.27269 0.41793 0.77199
 N1642 N 0.27934 0.42451 0.76149
 N1643 N 0.27558 0.43728 0.75774
 C1644 C 0.26505 0.44390 0.76436
 N1645 N 0.25840 0.43727 0.77485
 N1646 N 0.26216 0.42450 0.77860
 N1647 N 0.29735 -0.12618 0.27986
 C1648 C 0.28635 -0.11989 0.28596
 N1649 N 0.28022 -0.12603 0.29700
 N1650 N 0.28495 -0.13809 0.30183
 C1651 C 0.29601 -0.14443 0.29579
 N1652 N 0.30209 -0.13824 0.28468
 C1653 C 0.28153 -0.10669 0.28104
 C1654 C 0.27759 -0.09549 0.27707
 C1655 C 0.27306 -0.08205 0.27254
 N1656 N 0.26236 -0.07560 0.27900
 N1657 N 0.25843 -0.06293 0.27509
 C1658 C 0.26507 -0.05629 0.26459
 N1659 N 0.27575 -0.06280 0.25812
 N1660 N 0.27968 -0.07547 0.26203
 N1661 N 0.77947 0.87330 0.79643
 C1662 C 0.78578 0.87962 0.78558
 N1663 N 0.79683 0.87339 0.77952
 N1664 N 0.80146 0.86123 0.78419
 C1665 C 0.79521 0.85486 0.79511
 N1666 N 0.78409 0.86114 0.80111
 C1667 C 0.78105 0.89291 0.78081
 C1668 C 0.77720 0.90417 0.77696
 C1669 C 0.77275 0.91769 0.77255
 N1670 N 0.77939 0.92430 0.76207
 N1671 N 0.77552 0.93702 0.75825
 C1672 C 0.76488 0.94355 0.76478
 N1673 N 0.75823 0.93687 0.77525
 N1674 N 0.76211 0.92416 0.77907
 N1675 N 0.45312 0.87659 0.27969
 C1676 C 0.46413 0.87032 0.28579
 N1677 N 0.47030 0.87652 0.29679
 N1678 N 0.46560 0.88861 0.30158
 C1679 C 0.45453 0.89493 0.29554
 N1680 N 0.44842 0.88869 0.28446
 C1681 C 0.46893 0.85709 0.28092
 C1682 C 0.47284 0.84587 0.27698
 C1683 C 0.47735 0.83241 0.27249
 N1684 N 0.48803 0.82596 0.27897
 N1685 N 0.49195 0.81327 0.27509
 C1686 C 0.48532 0.80661 0.26460
 N1687 N 0.47464 0.81312 0.25811
 N1688 N 0.47072 0.82580 0.26199
 N1689 N -0.03020 0.87590 0.79752
 C1690 C -0.03629 0.86981 0.78640
 N1691 N -0.04723 0.87615 0.78026
 N1692 N -0.05197 0.88821 0.78511
 C1693 C -0.04595 0.89434 0.79629
 N1694 N -0.03494 0.88796 0.80237
 C1695 C -0.03146 0.85661 0.78146
 C1696 C -0.02754 0.84542 0.77747
 C1697 C -0.02301 0.83198 0.77292
 N1698 N -0.02964 0.82541 0.76240
 N1699 N -0.02571 0.81274 0.75847
 C1700 C -0.01503 0.80622 0.76493
 N1701 N -0.00839 0.81285 0.77544
 N1702 N -0.01232 0.82552 0.77937
 N1703 N -0.02894 -0.12644 -0.04637
 C1704 C -0.03498 -0.12039 -0.03522
 N1705 N -0.04568 -0.12692 -0.02885
 N1706 N -0.05023 -0.13912 -0.03353
 C1707 C -0.04423 -0.14520 -0.04474
 N1708 N -0.03347 -0.13864 -0.05105
 C1709 C -0.03037 -0.10705 -0.03045
 C1710 C -0.02660 -0.09576 -0.02660
 C1711 C -0.02224 -0.08221 -0.02222
 N1712 N -0.02892 -0.07560 -0.01176
 N1713 N -0.02513 -0.06285 -0.00795
 C1714 C -0.01452 -0.05628 -0.01449
 N1715 N -0.00783 -0.06295 -0.02495
 N1716 N -0.01163 -0.07569 -0.02875
 N1717 N -0.02964 0.37366 0.45321
 C1718 C -0.03568 0.37971 0.46436
 N1719 N -0.04643 0.37322 0.47068
 N1720 N -0.05102 0.36105 0.46597
 C1721 C -0.04504 0.35495 0.45475
 N1722 N -0.03422 0.36149 0.44849
 C1723 C -0.03101 0.39301 0.46918
 C1724 C -0.02719 0.40428 0.47307
 C1725 C -0.02277 0.41779 0.47751
 N1726 N -0.02944 0.42439 0.48799
 N1727 N -0.02559 0.43710 0.49184
 C1728 C -0.01493 0.44365 0.48535
 N1729 N -0.00826 0.43699 0.47488
 N1730 N -0.01211 0.42427 0.47103
 N1731 N 0.45213 -0.12607 0.47046
 C1732 C 0.46312 -0.11974 0.46439
 N1733 N 0.46927 -0.12584 0.45332
 N1734 N 0.46456 -0.13790 0.44844
 C1735 C 0.45350 -0.14427 0.45445
 N1736 N 0.44741 -0.13812 0.46559
 C1737 C 0.46793 -0.10655 0.46935
 C1738 C 0.47186 -0.09536 0.47336
 C1739 C 0.47641 -0.08193 0.47792
 N1740 N 0.48706 -0.07545 0.47142
 N1741 N 0.49101 -0.06279 0.47536
 C1742 C 0.48444 -0.05619 0.48593
 N1743 N 0.47380 -0.06273 0.49244
 N1744 N 0.46985 -0.07539 0.48850
 N1745 N 0.45505 0.37112 -0.02744
 C1746 C 0.46592 0.37749 -0.03366
 N1747 N 0.47224 0.37119 -0.04452
 N1748 N 0.46779 0.35890 -0.04905
 C1749 C 0.45684 0.35249 -0.04290
 N1750 N 0.45059 0.35883 -0.03196
 C1751 C 0.47038 0.39096 -0.02911
 C1752 C 0.47398 0.40238 -0.02546
 C1753 C 0.47807 0.41609 -0.02133
 N1754 N 0.48859 0.42267 -0.02793
 N1755 N 0.49208 0.43559 -0.02443
 C1756 C 0.48515 0.44237 -0.01421
 N1757 N 0.47464 0.43573 -0.00759
 N1758 N 0.47116 0.42281 -0.01109
 N1759 N 0.79606 0.37779 0.47201
 C1760 C 0.78504 0.37152 0.46593
 N1761 N 0.77887 0.37769 0.45492
 N1762 N 0.78359 0.38975 0.45010
 C1763 C 0.79467 0.39606 0.45612
 N1764 N 0.80079 0.38986 0.46719
 C1765 C 0.78030 0.35825 0.47076
 C1766 C 0.77648 0.34698 0.47460
 C1767 C 0.77212 0.33341 0.47892
 N1768 N 0.76163 0.32684 0.47224
 N1769 N 0.75796 0.31401 0.47585
 C1770 C 0.76468 0.30729 0.48625
 N1771 N 0.77516 0.31392 0.49295
 N1772 N 0.77882 0.32676 0.48934
 N1773 N 0.77949 0.87770 -0.04541
 C1774 C 0.78561 0.87153 -0.03437
 N1775 N 0.79670 0.87773 -0.02834
 N1776 N 0.80153 0.88973 -0.03321
 C1777 C 0.79548 0.89595 -0.04432
 N1778 N 0.78432 0.88970 -0.05029
 C1779 C 0.78076 0.85832 -0.02950
 C1780 C 0.77683 0.84709 -0.02563
 C1781 C 0.77235 0.83356 -0.02130
 N1782 N 0.77899 0.82687 -0.01088
 N1783 N 0.77524 0.81405 -0.00728
 C1784 C 0.76472 0.80750 -0.01399
 N1785 N 0.75805 0.81427 -0.02439
 N1786 N 0.76181 0.82708 -0.02798
 N1787 N 0.77826 0.29541 0.37238
 C1788 C 0.78438 0.28439 0.37863
 N1789 N 0.79537 0.27820 0.37242
 N1790 N 0.80011 0.28289 0.36033
 C1791 C 0.79404 0.29395 0.35404
 N1792 N 0.78300 0.30010 0.36028
 C1793 C 0.77962 0.27968 0.39191
 C1794 C 0.77583 0.27587 0.40319
 C1795 C 0.77157 0.27153 0.41676
 N1796 N 0.77850 0.26126 0.42343
 N1797 N 0.77492 0.25760 0.43626
 C1798 C 0.76429 0.26410 0.44286
 N1799 N 0.75734 0.27434 0.43612
 N1800 N 0.76093 0.27800 0.42329
 N1801 N 0.77836 0.79631 -0.12782
 C1802 C 0.78442 0.78524 -0.12161
 N1803 N 0.79541 0.77905 -0.12782
 N1804 N 0.80022 0.78380 -0.13987
 C1805 C 0.79423 0.79494 -0.14612
 N1806 N 0.78317 0.80106 -0.13987
 C1807 C 0.77961 0.78046 -0.10838
 C1808 C 0.77578 0.77658 -0.09713
 C1809 C 0.77150 0.77216 -0.08360
 N1810 N 0.77841 0.76184 -0.07698
 N1811 N 0.77482 0.75811 -0.06418
 C1812 C 0.76420 0.76458 -0.05755
 N1813 N 0.75726 0.77487 -0.06423
 N1814 N 0.76086 0.77860 -0.07704
 N1815 N 0.29529 0.47175 0.87686
 C1816 C 0.28439 0.46546 0.87060
 N1817 N 0.27808 0.45464 0.87702
 N1818 N 0.28257 0.45024 0.88932
 C1819 C 0.29352 0.45649 0.89562
 N1820 N 0.29978 0.46735 0.88916
 C1821 C 0.27981 0.46995 0.85718
 C1822 C 0.27611 0.47362 0.84582
 C1823 C 0.27186 0.47787 0.83222
 N1824 N 0.26145 0.47113 0.82557
 N1825 N 0.25775 0.47486 0.81280
 C1826 C 0.26434 0.48545 0.80624
 N1827 N 0.27474 0.49219 0.81294
 N1828 N 0.27845 0.48846 0.82571
 N1829 N 0.29812 -0.03110 0.37508
 C1830 C 0.28700 -0.03717 0.36899
 N1831 N 0.28078 -0.04807 0.37534
 N1832 N 0.28557 -0.05278 0.38741
 C1833 C 0.29676 -0.04677 0.39356
 N1834 N 0.30291 -0.03581 0.38715
 C1835 C 0.28208 -0.03234 0.35581
 C1836 C 0.27808 -0.02838 0.34465
 C1837 C 0.27350 -0.02378 0.33127
 N1838 N 0.26275 -0.03019 0.32483
 N1839 N 0.25874 -0.02615 0.31225
 C1840 C 0.26533 -0.01557 0.30567
 N1841 N 0.27607 -0.00916 0.31217
 N1842 N 0.28008 -0.01320 0.32475
 N1843 N -0.03028 -0.04822 -0.12544
 C1844 C -0.03638 -0.03718 -0.11920
 N1845 N -0.04734 -0.03096 -0.12544
 N1846 N -0.05207 -0.03564 -0.13754
 C1847 C -0.04603 -0.04674 -0.14384
 N1848 N -0.03501 -0.05290 -0.13755
 C1849 C -0.03154 -0.03237 -0.10598
 C1850 C -0.02761 -0.02841 -0.09480
 C1851 C -0.02309 -0.02382 -0.08139
 N1852 N -0.02974 -0.01327 -0.07487
 N1853 N -0.02577 -0.00922 -0.06227
 C1854 C -0.01503 -0.01560 -0.05576
 N1855 N -0.00838 -0.02615 -0.06233
 N1856 N -0.01234 -0.03019 -0.07493
 N1857 N -0.04738 0.46937 0.37439
 C1858 C -0.03641 0.46315 0.38060
 N1859 N -0.03026 0.45218 0.37430
 N1860 N -0.03496 0.44755 0.36216
 C1861 C -0.04599 0.45371 0.35589
 N1862 N -0.05209 0.46474 0.36225
 C1863 C -0.03160 0.46790 0.39385
 C1864 C -0.02769 0.47179 0.40507
 C1865 C -0.02320 0.47632 0.41851
 N1866 N -0.01249 0.46989 0.42497
 N1867 N -0.00855 0.47388 0.43760
 C1868 C -0.01519 0.48443 0.44419
 N1869 N -0.02589 0.49086 0.43767
 N1870 N -0.02983 0.48687 0.42504
 N1871 N 0.47073 -0.04705 0.37407
 C1872 C 0.46460 -0.03604 0.38033
 N1873 N 0.45367 -0.02980 0.37407
 N1874 N 0.44898 -0.03445 0.36194
 C1875 C 0.45506 -0.04550 0.35564
 N1876 N 0.46604 -0.05170 0.36193
 C1877 C 0.46937 -0.03130 0.39360
 C1878 C 0.47321 -0.02742 0.40485
 C1879 C 0.47760 -0.02294 0.41834
 N1880 N 0.47106 -0.01226 0.42476
 N1881 N 0.47485 -0.00836 0.43745
 C1882 C 0.48531 -0.01500 0.44416
 N1883 N 0.49185 -0.02568 0.43769
 N1884 N 0.48806 -0.02958 0.42499
 N1885 N 0.47215 0.45508 -0.12865
 C1886 C 0.46584 0.46586 -0.12218
 N1887 N 0.45471 0.47194 -0.12824
 N1888 N 0.45000 0.46735 -0.14039
 C1889 C 0.45624 0.45649 -0.14691
 N1890 N 0.46744 0.45049 -0.14080
 C1891 C 0.47056 0.47044 -0.10884
 C1892 C 0.47431 0.47414 -0.09750
 C1893 C 0.47853 0.47836 -0.08388
 N1894 N 0.47183 0.48882 -0.07729
 N1895 N 0.47536 0.49238 -0.06441
 C1896 C 0.48570 0.48557 -0.05769
 N1897 N 0.49243 0.47512 -0.06434
 N1898 N 0.48889 0.47157 -0.07722
 N1899 N 0.45280 0.78090 0.37548
 C1900 C 0.46374 0.78718 0.36929
 N1901 N 0.46982 0.79820 0.37559
 N1902 N 0.46507 0.80281 0.38772
 C1903 C 0.45408 0.79656 0.39395
 N1904 N 0.44805 0.78550 0.38761
 C1905 C 0.46861 0.78245 0.35605
 C1906 C 0.47255 0.77856 0.34485
 C1907 C 0.47707 0.77402 0.33142
 N1908 N 0.48777 0.78046 0.32496
 N1909 N 0.49174 0.77646 0.31235
 C1910 C 0.48512 0.76589 0.30576
 N1911 N 0.47442 0.75945 0.31227
 N1912 N 0.47046 0.76345 0.32489
 N1913 N -0.02957 0.79730 0.87624
 C1914 C -0.03570 0.78628 0.87001
 N1915 N -0.04646 0.77989 0.87640
 N1916 N -0.05099 0.78440 0.88865
 C1917 C -0.04492 0.79549 0.89493
 N1918 N -0.03409 0.80183 0.88848
 C1919 C -0.03106 0.78163 0.85666
 C1920 C -0.02729 0.77782 0.84537
 C1921 C -0.02294 0.77339 0.83185
 N1922 N -0.02965 0.76290 0.82530
 N1923 N -0.02581 0.75898 0.81262
 C1924 C -0.01513 0.76542 0.80607
 N1925 N -0.00842 0.77591 0.81268
 N1926 N -0.01226 0.77983 0.82536
 N1927 N 0.37420 0.77993 0.29737
 C1928 C 0.38046 0.78601 0.28636
 N1929 N 0.37425 0.79699 0.28014
 N1930 N 0.36215 0.80176 0.28480
 C1931 C 0.35585 0.79572 0.29586
 N1932 N 0.36210 0.78469 0.30204
 C1933 C 0.39370 0.78115 0.28159
 C1934 C 0.40491 0.77722 0.27769
 C1935 C 0.41836 0.77272 0.27320
 N1936 N 0.42486 0.77928 0.26260
 N1937 N 0.43753 0.77539 0.25868
 C1938 C 0.44413 0.76480 0.26524
 N1939 N 0.43757 0.75823 0.27583
 N1940 N 0.42490 0.76213 0.27974
 N1941 N -0.12670 0.77912 0.79673
 C1942 C -0.12024 0.78538 0.78593
 N1943 N -0.12636 0.79645 0.77976
 N1944 N -0.13855 0.80113 0.78428
 C1945 C -0.14504 0.79492 0.79512
 N1946 N -0.13889 0.78381 0.80125
 C1947 C -0.10692 0.78060 0.78132
 C1948 C -0.09565 0.77672 0.77755
 C1949 C -0.08213 0.77229 0.77318
 N1950 N -0.07559 0.77886 0.76262
 N1951 N -0.06288 0.77500 0.75879
 C1952 C -0.05629 0.76445 0.76540
 N1953 N -0.06289 0.75787 0.77596
 N1954 N -0.07560 0.76173 0.77979
 N1955 N 0.87786 0.29528 0.47158
 C1956 C 0.87167 0.28425 0.46540
 N1957 N 0.87790 0.27819 0.45435
 N1958 N 0.88994 0.28303 0.44960
 C1959 C 0.89616 0.29411 0.45573
 N1960 N 0.88991 0.30012 0.46684
 C1961 C 0.85843 0.27941 0.47017
 C1962 C 0.84718 0.27553 0.47400
 C1963 C 0.83363 0.27117 0.47834
 N1964 N 0.82695 0.26082 0.47155
 N1965 N 0.81413 0.25718 0.47520
 C1966 C 0.80756 0.26377 0.48577
 N1967 N 0.81430 0.27410 0.49259
 N1968 N 0.82713 0.27774 0.48893
 N1969 N 0.87809 0.79491 -0.02844
 C1970 C 0.87178 0.78401 -0.03472
 N1971 N 0.87794 0.77799 -0.04583
 N1972 N 0.89003 0.78274 -0.05054
 C1973 C 0.89637 0.79369 -0.04431
 N1974 N 0.89019 0.79966 -0.03315
 C1975 C 0.85849 0.77926 -0.03000
 C1976 C 0.84720 0.77546 -0.02621
 C1977 C 0.83361 0.77118 -0.02193
 N1978 N 0.82690 0.76088 -0.02878
 N1979 N 0.81405 0.75730 -0.02518
 C1980 C 0.80748 0.76389 -0.01461
 N1981 N 0.81426 0.77416 -0.00773
 N1982 N 0.82711 0.77775 -0.01133
 N1983 N -0.12602 -0.04660 -0.02976
 C1984 C -0.11969 -0.03577 -0.03612
 N1985 N -0.12586 -0.02979 -0.04723
 N1986 N -0.13800 -0.03450 -0.05187
 C1987 C -0.14439 -0.04539 -0.04557
 N1988 N -0.13816 -0.05132 -0.03440
 C1989 C -0.10643 -0.03095 -0.03138
 C1990 C -0.09520 -0.02704 -0.02751
 C1991 C -0.08172 -0.02253 -0.02306
 N1992 N -0.07522 -0.01192 -0.02961
 N1993 N -0.06255 -0.00800 -0.02573
 C1994 C -0.05595 -0.01456 -0.01516
 N1995 N -0.06251 -0.02517 -0.00860
 N1996 N -0.07518 -0.02909 -0.01248
 N1997 N -0.12653 0.45399 0.47030
 C1998 C -0.12013 0.46475 0.46388
 N1999 N -0.12628 0.47073 0.45275
 N2000 N -0.13845 0.46607 0.44814
 C2001 C -0.14490 0.45525 0.45450
 N2002 N -0.13870 0.44933 0.46569
 C2003 C -0.10683 0.46949 0.46859
 C2004 C -0.09557 0.47333 0.47243
 C2005 C -0.08206 0.47774 0.47687
 N2006 N -0.07550 0.48832 0.47032
 N2007 N -0.06280 0.49215 0.47420
 C2008 C -0.05623 0.48553 0.48475
 N2009 N -0.06285 0.47495 0.49131
 N2010 N -0.07555 0.47112 0.48743
 N2011 N 0.37434 -0.04770 0.46892
 C2012 C 0.38068 -0.03681 0.46268
 N2013 N 0.37458 -0.03081 0.45153
 N2014 N 0.36251 -0.03557 0.44675
 C2015 C 0.35613 -0.04653 0.45293
 N2016 N 0.36228 -0.05247 0.46414
 C2017 C 0.39385 -0.03192 0.46760
 C2018 C 0.40500 -0.02795 0.47163
 C2019 C 0.41837 -0.02338 0.47630
 N2020 N 0.42486 -0.01264 0.46994
 N2021 N 0.43743 -0.00863 0.47404
 C2022 C 0.44395 -0.01524 0.48463
 N2023 N 0.43741 -0.02598 0.49100
 N2024 N 0.42483 -0.02998 0.48689
 N2025 N 0.37135 0.47252 -0.04574
 C2026 C 0.37753 0.46645 -0.03467
 N2027 N 0.37114 0.45566 -0.02832
 N2028 N 0.35895 0.45104 -0.03291
 C2029 C 0.35272 0.45704 -0.04405
 N2030 N 0.35916 0.46791 -0.05034
 C2031 C 0.39090 0.47106 -0.03004
 C2032 C 0.40226 0.47473 -0.02630
 C2033 C 0.41590 0.47885 -0.02201
 N2034 N 0.42256 0.47182 -0.01182
 N2035 N 0.43543 0.47529 -0.00819
 C2036 C 0.44209 0.48590 -0.01464
 N2037 N 0.43537 0.49295 -0.02481
 N2038 N 0.42249 0.48948 -0.02844
 N2039 N 0.37647 0.47131 0.79660
 C2040 C 0.37011 0.46506 0.78573
 N2041 N 0.37648 0.45427 0.77933
 N2042 N 0.38883 0.44984 0.78369
 C2043 C 0.39522 0.45606 0.79461
 N2044 N 0.38881 0.46689 0.80096
 C2045 C 0.35667 0.46959 0.78124
 C2046 C 0.34530 0.47328 0.77755
 C2047 C 0.33171 0.47752 0.77323
 N2048 N 0.32514 0.47077 0.76279
 N2049 N 0.31242 0.47455 0.75894
 C2050 C 0.30583 0.48520 0.76541
 N2051 N 0.31245 0.49195 0.77586
 N2052 N 0.32518 0.48817 0.77971
 N2053 N 0.37636 -0.02941 0.29706
 C2054 C 0.37004 -0.03556 0.28611
 N2055 N 0.37624 -0.04656 0.27990
 N2056 N 0.38837 -0.05130 0.28453
 C2057 C 0.39472 -0.04519 0.29553
 N2058 N 0.38849 -0.03414 0.30170
 C2059 C 0.35678 -0.03073 0.28138
 C2060 C 0.34555 -0.02682 0.27752
 C2061 C 0.33207 -0.02236 0.27306
 N2062 N 0.32556 -0.02894 0.26248
 N2063 N 0.31288 -0.02507 0.25859
 C2064 C 0.30628 -0.01448 0.26515
 N2065 N 0.31286 -0.00789 0.27573
 N2066 N 0.32554 -0.01176 0.27962
 N2067 N 0.12103 0.54433 0.72317
 C2068 C 0.12742 0.53344 0.71694
 N2069 N 0.12112 0.52708 0.70610
 N2070 N 0.10882 0.53149 0.70160
 C2071 C 0.10240 0.54242 0.70777
 N2072 N 0.10873 0.54874 0.71867
 C2073 C 0.14089 0.52902 0.72146
 C2074 C 0.15232 0.52545 0.72507
 C2075 C 0.16604 0.52137 0.72914
 N2076 N 0.17267 0.51097 0.72238
 N2077 N 0.18559 0.50750 0.72583
 C2078 C 0.19234 0.51434 0.73614
 N2079 N 0.18565 0.52473 0.74292
 N2080 N 0.17272 0.52819 0.73947
 N2081 N 0.12154 0.04428 0.22246
 C2082 C 0.12796 0.03344 0.21620
 N2083 N 0.12173 0.02717 0.20527
 N2084 N 0.10946 0.03162 0.20071
 C2085 C 0.10301 0.04251 0.20693
 N2086 N 0.10928 0.04873 0.21791
 C2087 C 0.14140 0.02898 0.22078
 C2088 C 0.15280 0.02538 0.22445
 C2089 C 0.16649 0.02128 0.22862
 N2090 N 0.17307 0.01074 0.22204
 N2091 N 0.18597 0.00726 0.22556
 C2092 C 0.19273 0.01421 0.23579
 N2093 N 0.18608 0.02474 0.24240
 N2094 N 0.17318 0.02822 0.23887
 N2095 N 0.62866 0.70569 0.22229
 C2096 C 0.62222 0.71649 0.21599
 N2097 N 0.62835 0.72263 0.20493
 N2098 N 0.64055 0.71808 0.20029
 C2099 C 0.64702 0.70722 0.20654
 N2100 N 0.64086 0.70114 0.21765
 C2101 C 0.60884 0.72105 0.22066
 C2102 C 0.59749 0.72471 0.22440
 C2103 C 0.58384 0.72888 0.22863
 N2104 N 0.57727 0.73944 0.22206
 N2105 N 0.56439 0.74297 0.22562
 C2106 C 0.55765 0.73605 0.23587
 N2107 N 0.56429 0.72551 0.24246
 N2108 N 0.57717 0.72198 0.23890
 N2109 N 0.12860 0.70580 0.72320
 C2110 C 0.12220 0.71666 0.71695
 N2111 N 0.12850 0.72300 0.70610
 N2112 N 0.14081 0.71861 0.70162
 C2113 C 0.14724 0.70770 0.70782
 N2114 N 0.14091 0.70140 0.71871
 C2115 C 0.10872 0.72107 0.72145
 C2116 C 0.09729 0.72462 0.72506
 C2117 C 0.08357 0.72867 0.72914
 N2118 N 0.07698 0.73919 0.72252
 N2119 N 0.06406 0.74264 0.72599
 C2120 C 0.05728 0.73568 0.73619
 N2121 N 0.06393 0.72518 0.74283
 N2122 N 0.07685 0.72173 0.73936
 N2123 N 0.62362 0.22097 0.54627
 C2124 C 0.62974 0.21477 0.53523
 N2125 N 0.62321 0.20404 0.52890
 N2126 N 0.61094 0.19962 0.53348
 C2127 C 0.60479 0.20577 0.54457
 N2128 N 0.61136 0.21655 0.55086
 C2129 C 0.64312 0.21928 0.53054
 C2130 C 0.65445 0.22296 0.52674
 C2131 C 0.66802 0.22723 0.52238
 N2132 N 0.67455 0.22053 0.51188
 N2133 N 0.68730 0.22427 0.50807
 C2134 C 0.69394 0.23483 0.51464
 N2135 N 0.68735 0.24153 0.52513
 N2136 N 0.67461 0.23778 0.52894
 N2137 N 0.62358 0.70320 0.02864
 C2138 C 0.62979 0.71429 0.03467
 N2139 N 0.62342 0.72073 0.04541
 N2140 N 0.61120 0.71620 0.05002
 C2141 C 0.60495 0.70506 0.04404
 N2142 N 0.61136 0.69866 0.03324
 C2143 C 0.64313 0.71893 0.02997
 C2144 C 0.65442 0.72272 0.02617
 C2145 C 0.66796 0.72711 0.02181
 N2146 N 0.67452 0.73764 0.02845
 N2147 N 0.68724 0.74147 0.02464
 C2148 C 0.69383 0.73489 0.01407
 N2149 N 0.68722 0.72436 0.00743
 N2150 N 0.67450 0.72053 0.01124
 N2151 N 0.12846 0.04529 0.02734
 C2152 C 0.12226 0.03420 0.03338
 N2153 N 0.12867 0.02776 0.04410
 N2154 N 0.14090 0.03229 0.04868
 C2155 C 0.14713 0.04343 0.04270
 N2156 N 0.14069 0.04982 0.03192
 C2157 C 0.10885 0.02964 0.02880
 C2158 C 0.09748 0.02597 0.02513
 C2159 C 0.08381 0.02179 0.02099
 N2160 N 0.07728 0.01124 0.02762
 N2161 N 0.06439 0.00769 0.02413
 C2162 C 0.05758 0.01457 0.01390
 N2163 N 0.06417 0.02510 0.00725
 N2164 N 0.07707 0.02865 0.01074
 N2165 N 0.12866 0.52682 0.54401
 C2166 C 0.12233 0.53317 0.53318
 N2167 N 0.12871 0.54403 0.52692
 N2168 N 0.14103 0.54843 0.53137
 C2169 C 0.14739 0.54214 0.54226
 N2170 N 0.14098 0.53123 0.54847
 C2171 C 0.10884 0.52875 0.52871
 C2172 C 0.09740 0.52520 0.52512
 C2173 C 0.08367 0.52116 0.52105
 N2174 N 0.07695 0.52810 0.51083
 N2175 N 0.06402 0.52466 0.50738
 C2176 C 0.05736 0.51417 0.51403
 N2177 N 0.06414 0.50721 0.52423
 N2178 N 0.07708 0.51065 0.52768
 N2179 N 0.62775 0.04569 0.52808
 C2180 C 0.62168 0.03448 0.53401
 N2181 N 0.62814 0.02804 0.54470
 N2182 N 0.64030 0.03270 0.54935
 C2183 C 0.64640 0.04397 0.54348
 N2184 N 0.63991 0.05035 0.53273
 C2185 C 0.60834 0.02979 0.52936
 C2186 C 0.59701 0.02602 0.52564
 C2187 C 0.58339 0.02173 0.52144
 N2188 N 0.57681 0.01130 0.52820
 N2189 N 0.56394 0.00769 0.52467
 C2190 C 0.55722 0.01440 0.51427
 N2191 N 0.56387 0.02482 0.50749
 N2192 N 0.57673 0.02842 0.51103
 N2193 N 0.62601 0.54632 0.02887
 C2194 C 0.61986 0.53520 0.03490
 N2195 N 0.62629 0.52879 0.04563
 N2196 N 0.63850 0.53338 0.05021
 C2197 C 0.64469 0.54454 0.04423
 N2198 N 0.63822 0.55091 0.03345
 C2199 C 0.60652 0.53052 0.03024
 C2200 C 0.59523 0.52671 0.02645
 C2201 C 0.58169 0.52234 0.02210
 N2202 N 0.57519 0.51172 0.02865
 N2203 N 0.56245 0.50790 0.02486
 C2204 C 0.55578 0.51458 0.01441
 N2205 N 0.56234 0.52520 0.00786
 N2206 N 0.57508 0.52901 0.01164
 N2207 N 0.02782 0.04424 0.12849
 C2208 C 0.03411 0.03335 0.12218
 N2209 N 0.04502 0.02713 0.12850
 N2210 N 0.04954 0.03169 0.14074
 C2211 C 0.04332 0.04266 0.14708
 N2212 N 0.03233 0.04880 0.14072
 C2213 C 0.02957 0.02877 0.10877
 C2214 C 0.02591 0.02512 0.09739
 C2215 C 0.02173 0.02099 0.08372
 N2216 N 0.02850 0.01063 0.07703
 N2217 N 0.02496 0.00715 0.06413
 C2218 C 0.01453 0.01392 0.05750
 N2219 N 0.00774 0.02426 0.06426
 N2220 N 0.01129 0.02774 0.07715
 N2221 N 0.02700 0.54366 0.62876
 C2222 C 0.03334 0.53279 0.62246
 N2223 N 0.04421 0.52656 0.62884
 N2224 N 0.04863 0.53108 0.64112
 C2225 C 0.04234 0.54200 0.64745
 N2226 N 0.03142 0.54818 0.64104
 C2227 C 0.02891 0.52826 0.60900
 C2228 C 0.02532 0.52465 0.59758
 C2229 C 0.02122 0.52058 0.58387
 N2230 N 0.02801 0.51024 0.57718
 N2231 N 0.02453 0.50680 0.56425
 C2232 C 0.01415 0.51361 0.55759
 N2233 N 0.00735 0.52394 0.56435
 N2234 N 0.01083 0.52737 0.57727
 N2235 N 0.52848 0.04581 0.62790
 C2236 C 0.53445 0.03459 0.62188
 N2237 N 0.54523 0.02828 0.62831
 N2238 N 0.54993 0.03306 0.64039
 C2239 C 0.54403 0.04436 0.64646
 N2240 N 0.53317 0.05060 0.63998
 C2241 C 0.52973 0.02978 0.60861
 C2242 C 0.52591 0.02595 0.59734
 C2243 C 0.52155 0.02164 0.58378
 N2244 N 0.52799 0.01095 0.57728
 N2245 N 0.52432 0.00733 0.56446
 C2246 C 0.51409 0.01429 0.55771
 N2247 N 0.50763 0.02496 0.56428
 N2248 N 0.51130 0.02857 0.57710
 N2249 N 0.52898 0.54588 0.12628
 C2250 C 0.53531 0.53502 0.11995
 N2251 N 0.54613 0.52872 0.12634
 N2252 N 0.55052 0.53315 0.13867
 C2253 C 0.54423 0.54405 0.14503
 N2254 N 0.53336 0.55032 0.13861
 C2255 C 0.53080 0.53047 0.10653
 C2256 C 0.52709 0.52676 0.09518
 C2257 C 0.52276 0.52249 0.08160
 N2258 N 0.52923 0.51183 0.07508
 N2259 N 0.52537 0.50803 0.06237
 C2260 C 0.51492 0.51478 0.05575
 N2261 N 0.50846 0.52544 0.06232
 N2262 N 0.51231 0.52923 0.07504
 N2263 N 0.20558 0.52658 0.62121
 C2264 C 0.21643 0.53286 0.62758
 N2265 N 0.22277 0.54371 0.62125
 N2266 N 0.21837 0.54816 0.60894
 C2267 C 0.20747 0.54193 0.60254
 N2268 N 0.20118 0.53104 0.60889
 C2269 C 0.22085 0.52841 0.64106
 C2270 C 0.22443 0.52485 0.65249
 C2271 C 0.22853 0.52086 0.66622
 N2272 N 0.23867 0.52794 0.67293
 N2273 N 0.24217 0.52456 0.68586
 C2274 C 0.23563 0.51399 0.69251
 N2275 N 0.22551 0.50690 0.68574
 N2276 N 0.22201 0.51029 0.67281
 N2277 N 0.20565 0.02707 0.12126
 C2278 C 0.21644 0.03334 0.12773
 N2279 N 0.22262 0.04441 0.12163
 N2280 N 0.21812 0.04909 0.10944
 C2281 C 0.20727 0.04287 0.10294
 N2282 N 0.20114 0.03174 0.10906
 C2283 C 0.22095 0.02866 0.14111
 C2284 C 0.22459 0.02493 0.15247
 C2285 C 0.22875 0.02075 0.16612
 N2286 N 0.23919 0.02748 0.17272
 N2287 N 0.24271 0.02399 0.18561
 C2288 C 0.23591 0.01364 0.19233
 N2289 N 0.22548 0.00689 0.18567
 N2290 N 0.22197 0.01039 0.17278
 N2291 N 0.72112 0.20457 0.62702
 C2292 C 0.71470 0.21531 0.62060
 N2293 N 0.70364 0.22139 0.62679
 N2294 N 0.69910 0.21685 0.63902
 C2295 C 0.70547 0.20605 0.64547
 N2296 N 0.71659 0.20002 0.63925
 C2297 C 0.71934 0.21993 0.60725
 C2298 C 0.72313 0.22367 0.59594
 C2299 C 0.72751 0.22794 0.58239
 N2300 N 0.72087 0.23840 0.57573
 N2301 N 0.72470 0.24211 0.56299
 C2302 C 0.73530 0.23548 0.55648
 N2303 N 0.74194 0.22502 0.56320
 N2304 N 0.73810 0.22131 0.57593
 N2305 N 0.70439 0.72183 0.12672
 C2306 C 0.71522 0.71553 0.12034
 N2307 N 0.72154 0.70467 0.12667
 N2308 N 0.71715 0.70023 0.13899
 C2309 C 0.70627 0.70649 0.14540
 N2310 N 0.69999 0.71740 0.13904
 C2311 C 0.71971 0.72005 0.10691
 C2312 C 0.72339 0.72373 0.09554
 C2313 C 0.72764 0.72794 0.08193
 N2314 N 0.73819 0.72131 0.07541
 N2315 N 0.74193 0.72500 0.06264
 C2316 C 0.73525 0.73546 0.05596
 N2317 N 0.72471 0.74210 0.06253
 N2318 N 0.72097 0.73840 0.07531
 N2319 N 0.52843 0.70523 0.12204
 C2320 C 0.53466 0.71624 0.12820
 N2321 N 0.54566 0.72232 0.12190
 N2322 N 0.55031 0.71751 0.10982
 C2323 C 0.54414 0.70645 0.10362
 N2324 N 0.53308 0.70042 0.10995
 C2325 C 0.52999 0.72106 0.14148
 C2326 C 0.52623 0.72489 0.15277
 C2327 C 0.52193 0.72919 0.16634
 N2328 N 0.52866 0.73961 0.17298
 N2329 N 0.52504 0.74321 0.18583
 C2330 C 0.51459 0.73649 0.19246
 N2331 N 0.50784 0.72609 0.18575
 N2332 N 0.51145 0.72250 0.17291
 N2333 N 0.02683 0.70627 0.62144
 C2334 C 0.03317 0.71714 0.62773
 N2335 N 0.04402 0.72340 0.62135
 N2336 N 0.04843 0.71890 0.60906
 C2337 C 0.04215 0.70797 0.60273
 N2338 N 0.03124 0.70176 0.60914
 C2339 C 0.02874 0.72165 0.64120
 C2340 C 0.02517 0.72526 0.65262
 C2341 C 0.02109 0.72932 0.66634
 N2342 N 0.02789 0.73965 0.67303
 N2343 N 0.02443 0.74308 0.68596
 C2344 C 0.01405 0.73628 0.69263
 N2345 N 0.00723 0.72596 0.68587
 N2346 N 0.01070 0.72253 0.67294
 N2347 N 0.52769 0.62213 0.20438
 C2348 C 0.53372 0.62826 0.21550
 N2349 N 0.54445 0.62181 0.22189
 N2350 N 0.54904 0.60960 0.21729
 C2351 C 0.54306 0.60343 0.20612
 N2352 N 0.53227 0.60991 0.19978
 C2353 C 0.52913 0.64166 0.22013
 C2354 C 0.52547 0.65302 0.22388
 C2355 C 0.52135 0.66668 0.22815
 N2356 N 0.52837 0.67337 0.23834
 N2357 N 0.52489 0.68625 0.24196
 C2358 C 0.51428 0.69290 0.23550
 N2359 N 0.50724 0.68615 0.22533
 N2360 N 0.51072 0.67326 0.22172
 N2361 N 0.04371 0.62124 0.72273
 C2362 C 0.03287 0.62755 0.71639
 N2363 N 0.02663 0.62116 0.70552
 N2364 N 0.03113 0.60885 0.70111
 C2365 C 0.04203 0.60250 0.70740
 N2366 N 0.04821 0.60892 0.71832
 C2367 C 0.02836 0.64103 0.72082
 C2368 C 0.02476 0.65246 0.72443
 C2369 C 0.02074 0.66619 0.72858
 N2370 N 0.01015 0.67279 0.72208
 N2371 N 0.00673 0.68572 0.72562
 C2372 C 0.01379 0.69249 0.73577
 N2373 N 0.02436 0.68582 0.74228
 N2374 N 0.02777 0.67290 0.73874
 N2375 N 0.02750 0.12863 0.04504
 C2376 C 0.03374 0.12222 0.03419
 N2377 N 0.04476 0.12840 0.02801
 N2378 N 0.04941 0.14061 0.03256
 C2379 C 0.04322 0.14704 0.04347
 N2380 N 0.03215 0.14083 0.04959
 C2381 C 0.02908 0.10883 0.02962
 C2382 C 0.02537 0.09747 0.02592
 C2383 C 0.02122 0.08381 0.02167
 N2384 N 0.02818 0.07713 0.01145
 N2385 N 0.02469 0.06423 0.00785
 C2386 C 0.01412 0.05758 0.01437
 N2387 N 0.00713 0.06433 0.02458
 N2388 N 0.01063 0.07722 0.02817
 N2389 N 0.02657 0.62877 0.54465
 C2390 C 0.03283 0.62240 0.53379
 N2391 N 0.04365 0.62874 0.52745
 N2392 N 0.04812 0.64107 0.53185
 C2393 C 0.04192 0.64747 0.54277
 N2394 N 0.03104 0.64110 0.54906
 C2395 C 0.02835 0.60890 0.52936
 C2396 C 0.02479 0.59746 0.52576
 C2397 C 0.02079 0.58372 0.52163
 N2398 N 0.02784 0.57701 0.51148
 N2399 N 0.02444 0.56408 0.50795
 C2400 C 0.01388 0.55741 0.51445
 N2401 N 0.00680 0.56417 0.52459
 N2402 N 0.01021 0.57711 0.52812
 N2403 N 0.54477 0.12818 0.52828
 C2404 C 0.53379 0.12198 0.53448
 N2405 N 0.52765 0.12830 0.54545
 N2406 N 0.53238 0.14044 0.55009
 C2407 C 0.54343 0.14667 0.54393
 N2408 N 0.54951 0.14033 0.53292
 C2409 C 0.52905 0.10864 0.52984
 C2410 C 0.52527 0.09732 0.52612
 C2411 C 0.52100 0.08369 0.52189
 N2412 N 0.51068 0.07701 0.52872
 N2413 N 0.50710 0.06413 0.52516
 C2414 C 0.51373 0.05749 0.51465
 N2415 N 0.52403 0.06423 0.50780
 N2416 N 0.52761 0.07711 0.51136
 N2417 N 0.52868 0.62661 0.04628
 C2418 C 0.53495 0.62009 0.03551
 N2419 N 0.54601 0.62618 0.02933
 N2420 N 0.55068 0.63842 0.03379
 C2421 C 0.54445 0.64497 0.04460
 N2422 N 0.53335 0.63884 0.05074
 C2423 C 0.53017 0.60674 0.03095
 C2424 C 0.52630 0.59544 0.02721
 C2425 C 0.52188 0.58190 0.02286
 N2426 N 0.52844 0.57533 0.01229
 N2427 N 0.52459 0.56261 0.00847
 C2428 C 0.51404 0.55602 0.01508
 N2429 N 0.50747 0.56264 0.02565
 N2430 N 0.51133 0.57536 0.02947
 N2431 N 0.72065 0.12341 0.54721
 C2432 C 0.71439 0.12981 0.53637
 N2433 N 0.70353 0.12351 0.53005
 N2434 N 0.69903 0.11120 0.53446
 C2435 C 0.70523 0.10475 0.54536
 N2436 N 0.71616 0.11110 0.55162
 C2437 C 0.71902 0.14321 0.53183
 C2438 C 0.72279 0.15454 0.52808
 C2439 C 0.72714 0.16810 0.52371
 N2440 N 0.72045 0.17466 0.51322
 N2441 N 0.72431 0.18736 0.50932
 C2442 C 0.73498 0.19392 0.51578
 N2443 N 0.74166 0.18730 0.52627
 N2444 N 0.73780 0.17460 0.53017
 N2445 N 0.72029 0.62359 0.04642
 C2446 C 0.71395 0.63005 0.03566
 N2447 N 0.70293 0.62385 0.02949
 N2448 N 0.69837 0.61159 0.03396
 C2449 C 0.70467 0.60509 0.04476
 N2450 N 0.71574 0.61132 0.05089
 C2451 C 0.71863 0.64341 0.03107
 C2452 C 0.72244 0.65472 0.02730
 C2453 C 0.72685 0.66825 0.02292
 N2454 N 0.72019 0.67485 0.01245
 N2455 N 0.72409 0.68754 0.00857
 C2456 C 0.73478 0.69406 0.01503
 N2457 N 0.74144 0.68740 0.02551
 N2458 N 0.73754 0.67471 0.02939
 N2459 N 0.22297 0.62894 0.70564
 C2460 C 0.21672 0.62257 0.71650
 N2461 N 0.20588 0.62889 0.72283
 N2462 N 0.20140 0.64121 0.71843
 C2463 C 0.20760 0.64762 0.70752
 N2464 N 0.21849 0.64126 0.70123
 C2465 C 0.22122 0.60908 0.72092
 C2466 C 0.22482 0.59764 0.72449
 C2467 C 0.22890 0.58391 0.72856
 N2468 N 0.22224 0.57733 0.73905
 N2469 N 0.22570 0.56440 0.74252
 C2470 C 0.23592 0.55760 0.73561
 N2471 N 0.24260 0.56424 0.72513
 N2472 N 0.23914 0.57717 0.72166
 N2473 N 0.22260 0.12802 0.20406
 C2474 C 0.21663 0.12193 0.21524
 N2475 N 0.20593 0.12841 0.22167
 N2476 N 0.20132 0.14059 0.21705
 C2477 C 0.20723 0.14671 0.20582
 N2478 N 0.21798 0.14021 0.19944
 C2479 C 0.22124 0.10856 0.21989
 C2480 C 0.22491 0.09721 0.22366
 C2481 C 0.22904 0.08356 0.22796
 N2482 N 0.22202 0.07690 0.23816
 N2483 N 0.22550 0.06403 0.24180
 C2484 C 0.23612 0.05737 0.23536
 N2485 N 0.24316 0.06409 0.22518
 N2486 N 0.23968 0.07697 0.22154
 N2487 N 0.70520 1.12798 0.72194
 C2488 C 0.71617 1.12175 0.71573
 N2489 N 0.72230 1.12804 0.70476
 N2490 N 0.71759 1.14019 0.70012
 C2491 C 0.70656 1.14644 0.70628
 N2492 N 0.70048 1.14012 0.71731
 C2493 C 0.72089 1.10842 0.72038
 C2494 C 0.72464 1.09709 0.72414
 C2495 C 0.72883 1.08347 0.72845
 N2496 N 0.73946 1.07690 0.72199
 N2497 N 0.74299 1.06403 0.72562
 C2498 C 0.73600 1.05729 0.73582
 N2499 N 0.72539 1.06393 0.74230
 N2500 N 0.72186 1.07680 0.73867
 N2501 N 0.72259 0.62826 0.20453
 C2502 C 0.71652 0.62209 0.21560
 N2503 N 0.70576 0.62853 0.22197
 N2504 N 0.70120 0.64075 0.21740
 C2505 C 0.70723 0.64696 0.20628
 N2506 N 0.71804 0.64049 0.19996
 C2507 C 0.72108 0.60869 0.22021
 C2508 C 0.72473 0.59731 0.22393
 C2509 C 0.72883 0.58365 0.22818
 N2510 N 0.72182 0.57697 0.23837
 N2511 N 0.72529 0.56408 0.24198
 C2512 C 0.73590 0.55743 0.23551
 N2513 N 0.74293 0.56417 0.22534
 N2514 N 0.73946 0.57706 0.22174
 N2515 N 0.54661 0.12355 0.72008
 C2516 C 0.53578 0.12990 0.71376
 N2517 N 0.52957 0.12358 0.70285
 N2518 N 0.53408 0.11130 0.69836
 C2519 C 0.54498 0.10490 0.70462
 N2520 N 0.55113 0.11127 0.71560
 C2521 C 0.53114 0.14328 0.71838
 C2522 C 0.52737 0.15459 0.72217
 C2523 C 0.52301 0.16813 0.72659
 N2524 N 0.51234 0.17464 0.72015
 N2525 N 0.50848 0.18733 0.72408
 C2526 C 0.51516 0.19394 0.73458
 N2527 N 0.52584 0.18737 0.74102
 N2528 N 0.52970 0.17468 0.73709
 N2529 N 1.04425 0.12121 0.22218
 C2530 C 1.03342 0.12756 0.21585
 N2531 N 1.02722 0.12124 0.20492
 N2532 N 1.03174 0.10896 0.20044
 C2533 C 1.04263 0.10258 0.20672
 N2534 N 1.04877 0.10893 0.21770
 C2535 C 1.02889 0.14101 0.22035
 C2536 C 1.02527 0.15242 0.22400
 C2537 C 1.02121 0.16613 0.22818
 N2538 N 1.01061 0.17272 0.22170
 N2539 N 1.00716 0.18563 0.22526
 C2540 C 1.01421 0.19240 0.23542
 N2541 N 1.02479 0.18575 0.24191
 N2542 N 1.02824 0.17283 0.23835
 N2543 N 0.20590 0.62104 0.52724
 C2544 C 0.21673 0.62739 0.53358
 N2545 N 0.22300 0.62101 0.54443
 N2546 N 0.21855 0.60868 0.54882
 C2547 C 0.20767 0.60230 0.54253
 N2548 N 0.20145 0.60871 0.53163
 C2549 C 0.22118 0.64089 0.52917
 C2550 C 0.22474 0.65234 0.52559
 C2551 C 0.22873 0.66609 0.52149
 N2552 N 0.23931 0.67269 0.52800
 N2553 N 0.24270 0.68564 0.52450
 C2554 C 0.23563 0.69241 0.51438
 N2555 N 0.22507 0.68574 0.50785
 N2556 N 0.22167 0.67280 0.51135
 N2557 N 0.22207 0.12302 1.04596
 C2558 C 0.21579 0.12945 1.03515
 N2559 N 0.20495 0.12315 1.02879
 N2560 N 0.20049 0.11079 1.03312
 C2561 C 0.20673 0.10432 1.04397
 N2562 N 0.21762 0.11066 1.05029
 C2563 C 0.22033 0.14292 1.03072
 C2564 C 0.22402 0.15431 1.02709
 C2565 C 0.22823 0.16795 1.02286
 N2566 N 0.22156 0.17452 1.01237
 N2567 N 0.22526 0.18731 1.00864
 C2568 C 0.23576 0.19397 1.01527
 N2569 N 0.24244 0.18735 1.02576
 N2570 N 0.23873 0.17456 1.02949
 N2571 N 0.22260 0.70629 0.62881
 C2572 C 0.21626 0.71714 0.62250
 N2573 N 0.20539 0.72339 0.62887
 N2574 N 0.20099 0.71891 0.64117
 C2575 C 0.20728 0.70800 0.64751
 N2576 N 0.21820 0.70180 0.64111
 C2577 C 0.22067 0.72163 0.60903
 C2578 C 0.22424 0.72522 0.59761
 C2579 C 0.22832 0.72927 0.58389
 N2580 N 0.22153 0.73961 0.57720
 N2581 N 0.22499 0.74303 0.56427
 C2582 C 0.23536 0.73621 0.55760
 N2583 N 0.24217 0.72589 0.56435
 N2584 N 0.23870 0.72247 0.57728
 N2585 N 0.20352 0.22105 1.12658
 C2586 C 0.21436 0.21478 1.12018
 N2587 N 0.22070 0.20392 1.12647
 N2588 N 0.21632 0.19944 1.13878
 C2589 C 0.20542 0.20565 1.14523
 N2590 N 0.19913 0.21657 1.13888
 C2591 C 0.21886 0.21939 1.10677
 C2592 C 0.22256 0.22313 1.09544
 C2593 C 0.22688 0.22745 1.08188
 N2594 N 0.23734 0.22075 1.07530
 N2595 N 0.24118 0.22457 1.06259
 C2596 C 0.23469 0.23522 1.05605
 N2597 N 0.22422 0.24192 1.06268
 N2598 N 0.22038 0.23810 1.07539
 N2599 N 0.70427 0.52772 0.12198
 C2600 C 0.71523 0.53388 0.12828
 N2601 N 0.72136 0.54495 0.12212
 N2602 N 0.71665 0.54972 0.11004
 C2603 C 0.70563 0.54361 0.10372
 N2604 N 0.69956 0.53249 0.10991
 C2605 C 0.71996 0.52910 0.14154
 C2606 C 0.72377 0.52529 0.15282
 C2607 C 0.72812 0.52102 0.16638
 N2608 N 0.73860 0.52773 0.17293
 N2609 N 0.74225 0.52416 0.18576
 C2610 C 0.73553 0.51376 0.19249
 N2611 N 0.72507 0.50701 0.18587
 N2612 N 0.72142 0.51059 0.17304
 N2613 N 0.70516 1.02754 0.62187
 C2614 C 0.71591 1.03386 0.62838
 N2615 N 0.72194 1.04506 0.62239
 N2616 N 0.71735 1.04983 0.61027
 C2617 C 0.70655 1.04357 0.60373
 N2618 N 0.70056 1.03231 0.60974
 C2619 C 0.72050 1.02907 0.64169
 C2620 C 0.72421 1.02525 0.65300
 C2621 C 0.72845 1.02097 0.66660
 N2622 N 0.73893 1.02765 0.67319
 N2623 N 0.74250 1.02407 0.68604
 C2624 C 0.73572 1.01370 0.69274
 N2625 N 0.72526 1.00699 0.68608
 N2626 N 0.72168 1.01057 0.67323
 N2627 N 0.54649 0.22149 0.62359
 C2628 C 0.53541 0.21542 0.62976
 N2629 N 0.52897 0.20470 0.62330
 N2630 N 0.53349 0.20017 0.61106
 C2631 C 0.54462 0.20620 0.60486
 N2632 N 0.55101 0.21697 0.61135
 C2633 C 0.53078 0.22002 0.64313
 C2634 C 0.52700 0.22374 0.65444
 C2635 C 0.52263 0.22799 0.66801
 N2636 N 0.51203 0.22136 0.67446
 N2637 N 0.50821 0.22506 0.68721
 C2638 C 0.51486 0.23551 0.69394
 N2639 N 0.52545 0.24215 0.68744
 N2640 N 0.52927 0.23845 0.67469
 N2641 N 1.02814 0.20565 0.12146
 C2642 C 1.03448 0.21647 0.12784
 N2643 N 1.04557 0.22252 0.12168
 N2644 N 1.05020 0.21788 0.10951
 C2645 C 1.04392 0.20699 0.10309
 N2646 N 1.03276 0.20101 0.10930
 C2647 C 1.02983 0.22111 0.14118
 C2648 C 1.02608 0.22482 0.15252
 C2649 C 1.02182 0.22899 0.16614
 N2650 N 1.02853 0.23940 0.17282
 N2651 N 1.02494 0.24291 0.18570
 C2652 C 1.01453 0.23611 0.19232
 N2653 N 1.00780 0.22572 0.18557
 N2654 N 1.01139 0.22222 0.17270
 N2655 N 0.62651 0.22089 0.70410
 C2656 C 0.62038 0.21469 0.71513
 N2657 N 0.62689 0.20393 0.72144
 N2658 N 0.63915 0.19949 0.71685
 C2659 C 0.64531 0.20565 0.70577
 N2660 N 0.63876 0.21645 0.69951
 C2661 C 0.60701 0.21921 0.71983
 C2662 C 0.59569 0.22291 0.72365
 C2663 C 0.58213 0.22719 0.72802
 N2664 N 0.57559 0.22050 0.73852
 N2665 N 0.56285 0.22425 0.74234
 C2666 C 0.55621 0.23482 0.73578
 N2667 N 0.56281 0.24151 0.72529
 N2668 N 0.57555 0.23775 0.72147
 N2669 N 1.12817 0.22217 0.20460
 C2670 C 1.12214 0.21609 0.21574
 N2671 N 1.12867 0.20536 0.22207
 N2672 N 1.14084 0.20082 0.21737
 C2673 C 1.14690 0.20684 0.20617
 N2674 N 1.14035 0.21763 0.19990
 C2675 C 1.10878 0.22063 0.22046
 C2676 C 1.09743 0.22429 0.22424
 C2677 C 1.08379 0.22845 0.22849
 N2678 N 1.07712 0.22153 0.23875
 N2679 N 1.06424 0.22504 0.24232
 C2680 C 1.05760 0.23559 0.23575
 N2681 N 1.06433 0.24253 0.22551
 N2682 N 1.07721 0.23901 0.22194
 N2683 N 0.12092 0.72296 0.54413
 C2684 C 0.12723 0.71661 0.53329
 N2685 N 0.12084 0.70573 0.52705
 N2686 N 0.10853 0.70132 0.53153
 C2687 C 0.10220 0.70763 0.54243
 N2688 N 0.10862 0.71856 0.54862
 C2689 C 0.14070 0.72102 0.52879
 C2690 C 0.15213 0.72458 0.52517
 C2691 C 0.16585 0.72863 0.52108
 N2692 N 0.17256 0.72169 0.51086
 N2693 N 0.18549 0.72514 0.50739
 C2694 C 0.19214 0.73564 0.51404
 N2695 N 0.18537 0.74260 0.52425
 N2696 N 0.17245 0.73915 0.52771
 N2697 N 0.12314 0.22166 1.04577
 C2698 C 0.12940 0.21536 1.03487
 N2699 N 0.12298 0.20453 1.02859
 N2700 N 0.11067 0.20012 1.03308
 C2701 C 0.10438 0.20638 1.04402
 N2702 N 0.11083 0.21725 1.05026
 C2703 C 0.14282 0.21986 1.03028
 C2704 C 0.15417 0.22354 1.02656
 C2705 C 0.16778 0.22781 1.02230
 N2706 N 0.17440 0.22109 1.01188
 N2707 N 0.18717 0.22484 1.00814
 C2708 C 0.19374 0.23544 1.01471
 N2709 N 0.18706 0.24218 1.02513
 N2710 N 0.17429 0.23842 1.02886
 N2711 N 0.62156 0.54464 0.22224
 C2712 C 0.62802 0.53385 0.21593
 N2713 N 0.62192 0.52775 0.20483
 N2714 N 0.60975 0.53232 0.20015
 C2715 C 0.60326 0.54316 0.20641
 N2716 N 0.60938 0.54921 0.21757
 C2717 C 0.64138 0.52928 0.22063
 C2718 C 0.65272 0.52560 0.22440
 C2719 C 0.66635 0.52143 0.22865
 N2720 N 0.67292 0.51085 0.22209
 N2721 N 0.68580 0.50732 0.22567
 C2722 C 0.69254 0.51425 0.23591
 N2723 N 0.68591 0.52481 0.24249
 N2724 N 0.67303 0.52834 0.23891
 N2725 N 0.62227 1.04566 0.72189
 C2726 C 0.62838 1.03449 0.71591
 N2727 N 0.62201 1.02816 0.70509
 N2728 N 0.60990 1.03286 0.70038
 C2729 C 0.60376 1.04408 0.70631
 N2730 N 0.61016 1.05037 0.71718
 C2731 C 0.64168 1.02976 0.72064
 C2732 C 0.65297 1.02596 0.72444
 C2733 C 0.66655 1.02166 0.72875
 N2734 N 0.67308 1.01107 0.72218
 N2735 N 0.68591 1.00744 0.72580
 C2736 C 0.69266 1.01429 0.73611
 N2737 N 0.68606 1.02486 0.74269
 N2738 N 0.67323 1.02849 0.73907
 N2739 N 0.87608 0.45360 0.28010
 C2740 C 0.86979 0.46450 0.28639
 N2741 N 0.87597 0.47051 0.29749
 N2742 N 0.88807 0.46576 0.30218
 C2743 C 0.89440 0.45481 0.29593
 N2744 N 0.88818 0.44884 0.28478
 C2745 C 0.85656 0.46934 0.28160
 C2746 C 0.84534 0.47326 0.27770
 C2747 C 0.83189 0.47773 0.27320
 N2748 N 0.82534 0.48833 0.27974
 N2749 N 0.81267 0.49221 0.27582
 C2750 C 0.80611 0.48562 0.26524
 N2751 N 0.81271 0.47502 0.25870
 N2752 N 0.82539 0.47114 0.26261
 N2753 N 0.87598 0.95308 0.78044
 C2754 C 0.86975 0.96404 0.78668
 N2755 N 0.87597 0.97008 0.79774
 N2756 N 0.88805 0.96530 0.80245
 C2757 C 0.89432 0.95429 0.79625
 N2758 N 0.88807 0.94829 0.78514
 C2759 C 0.85653 0.96891 0.78188
 C2760 C 0.84533 0.97286 0.77797
 C2761 C 0.83189 0.97738 0.77347
 N2762 N 0.82536 0.98798 0.78002
 N2763 N 0.81270 0.99190 0.77610
 C2764 C 0.80613 0.98533 0.76550
 N2765 N 0.81272 0.97473 0.75895
 N2766 N 0.82538 0.97082 0.76287
 N2767 N 0.37190 0.29468 0.77802
 C2768 C 0.37802 0.28362 0.78419
 N2769 N 0.37155 0.27735 0.79498
 N2770 N 0.35935 0.28203 0.79949
 C2771 C 0.35321 0.29315 0.79337
 N2772 N 0.35971 0.29936 0.78253
 C2773 C 0.39139 0.27892 0.77966
 C2774 C 0.40274 0.27517 0.77600
 C2775 C 0.41639 0.27095 0.77182
 N2776 N 0.42309 0.26065 0.77867
 N2777 N 0.43597 0.25710 0.77513
 C2778 C 0.44258 0.26374 0.76461
 N2779 N 0.43581 0.27401 0.75773
 N2780 N 0.42294 0.27756 0.76128
 N2781 N 0.87357 0.27871 0.29638
 C2782 C 0.88001 0.28500 0.28559
 N2783 N 0.87387 0.29605 0.27943
 N2784 N 0.86166 0.30069 0.28394
 C2785 C 0.85517 0.29444 0.29477
 N2786 N 0.86135 0.28334 0.30089
 C2787 C 0.89335 0.28026 0.28099
 C2788 C 0.90463 0.27641 0.27722
 C2789 C 0.91816 0.27202 0.27284
 N2790 N 0.92469 0.27861 0.26228
 N2791 N 0.93741 0.27479 0.25845
 C2792 C 0.94402 0.26424 0.26505
 N2793 N 0.93744 0.25764 0.27561
 N2794 N 0.92472 0.26147 0.27944
 N2795 N 0.37545 0.79683 0.46992
 C2796 C 0.36927 0.78584 0.46366
 N2797 N 0.37555 0.77981 0.45263
 N2798 N 0.38763 0.78464 0.44797
 C2799 C 0.39384 0.79567 0.45418
 N2800 N 0.38753 0.80166 0.46526
 C2801 C 0.35606 0.78092 0.46842
 C2802 C 0.34487 0.77694 0.47231
 C2803 C 0.33143 0.77240 0.47681
 N2804 N 0.32491 0.76179 0.47025
 N2805 N 0.31225 0.75786 0.47417
 C2806 C 0.30569 0.76441 0.48478
 N2807 N 0.31227 0.77501 0.49135
 N2808 N 0.32492 0.77893 0.48743
 N2809 N 0.37855 0.29425 0.97264
 C2810 C 0.37228 0.28333 0.96637
 N2811 N 0.37868 0.27702 0.95556
 N2812 N 0.39097 0.28152 0.95112
 C2813 C 0.39727 0.29250 0.95735
 N2814 N 0.39084 0.29876 0.96821
 C2815 C 0.35881 0.27881 0.97082
 C2816 C 0.34739 0.27522 0.97443
 C2817 C 0.33368 0.27119 0.97858
 N2818 N 0.32709 0.26059 0.97208
 N2819 N 0.31417 0.25717 0.97561
 C2820 C 0.30742 0.26424 0.98575
 N2821 N 0.31407 0.27482 0.99227
 N2822 N 0.32699 0.27824 0.98873
 N2823 N 0.79712 0.47018 0.37580
 C2824 C 0.78604 0.46402 0.36971
 N2825 N 0.77970 0.45329 0.37622
 N2826 N 0.78431 0.44883 0.38846
 C2827 C 0.79544 0.45495 0.39459
 N2828 N 0.80173 0.46572 0.38803
 C2829 C 0.78129 0.46860 0.35637
 C2830 C 0.77744 0.47236 0.34510
 C2831 C 0.77302 0.47675 0.33159
 N2832 N 0.76236 0.47024 0.32512
 N2833 N 0.75845 0.47413 0.31246
 C2834 C 0.76509 0.48465 0.30583
 N2835 N 0.77575 0.49115 0.31236
 N2836 N 0.77965 0.48726 0.32502
 N2837 N 0.78001 0.95278 0.87630
 C2838 C 0.78630 0.96355 0.86981
 N2839 N 0.79739 0.96970 0.87588
 N2840 N 0.80207 0.96521 0.88808
 C2841 C 0.79582 0.95439 0.89461
 N2842 N 0.78468 0.94828 0.88850
 C2843 C 0.78149 0.96816 0.85651
 C2844 C 0.77760 0.97196 0.84526
 C2845 C 0.77313 0.97639 0.83178
 N2846 N 0.77975 0.98692 0.82522
 N2847 N 0.77582 0.99085 0.81258
 C2848 C 0.76514 0.98437 0.80606
 N2849 N 0.75851 0.97383 0.81267
 N2850 N 0.76245 0.96991 0.82532
 N2851 N 0.27990 0.79781 0.37448
 C2852 C 0.28602 0.78680 0.38075
 N2853 N 0.29698 0.78057 0.37453
 N2854 N 0.30170 0.78521 0.36241
 C2855 C 0.29563 0.79626 0.35610
 N2856 N 0.28462 0.80245 0.36236
 C2857 C 0.28118 0.78203 0.39398
 C2858 C 0.27725 0.77812 0.40518
 C2859 C 0.27274 0.77357 0.41860
 N2860 N 0.27937 0.76302 0.42512
 N2861 N 0.27541 0.75901 0.43773
 C2862 C 0.26470 0.76543 0.44425
 N2863 N 0.25807 0.77598 0.43767
 N2864 N 0.26202 0.77999 0.42506
 N2865 N 0.27727 0.29538 0.87187
 C2866 C 0.28330 0.28430 0.87808
 N2867 N 0.29409 0.27790 0.87173
 N2868 N 0.29873 0.28245 0.85954
 C2869 C 0.29274 0.29359 0.85330
 N2870 N 0.28190 0.29994 0.85968
 C2871 C 0.27867 0.27972 0.89145
 C2872 C 0.27497 0.27602 0.90280
 C2873 C 0.27081 0.27180 0.91644
 N2874 N 0.27756 0.26136 0.92301
 N2875 N 0.27406 0.25780 0.93589
 C2876 C 0.26371 0.26457 0.94263
 N2877 N 0.25693 0.27499 0.93599
 N2878 N 0.26043 0.27855 0.92311
 N2879 N 0.47302 0.29445 0.87872
 C2880 C 0.46683 0.28349 0.87243
 N2881 N 0.45601 0.27714 0.87878
 N2882 N 0.45150 0.28163 0.89104
 C2883 C 0.45764 0.29264 0.89736
 N2884 N 0.46851 0.29895 0.89098
 C2885 C 0.47134 0.27898 0.85899
 C2886 C 0.47495 0.27534 0.84759
 C2887 C 0.47901 0.27117 0.83390
 N2888 N 0.47200 0.26099 0.82719
 N2889 N 0.47544 0.25746 0.81428
 C2890 C 0.48601 0.26400 0.80766
 N2891 N 0.49305 0.27417 0.81443
 N2892 N 0.48960 0.27769 0.82734
 N2893 N 0.95378 0.27989 0.37601
 C2894 C 0.96448 0.28633 0.36957
 N2895 N 0.97054 0.29744 0.37573
 N2896 N 0.96600 0.30199 0.38796
 C2897 C 0.95525 0.29559 0.39444
 N2898 N 0.94924 0.28443 0.38824
 C2899 C 0.96914 0.28164 0.35623
 C2900 C 0.97292 0.27780 0.34496
 C2901 C 0.97730 0.27335 0.33146
 N2902 N 0.98798 0.27978 0.32496
 N2903 N 0.99184 0.27584 0.31230
 C2904 C 0.98515 0.26533 0.30570
 N2905 N 0.97447 0.25889 0.31225
 N2906 N 0.97061 0.26283 0.32492
 N2907 N 0.45469 0.37816 0.77777
 C2908 C 0.46577 0.37198 0.78381
 N2909 N 0.47214 0.37837 0.79459
 N2910 N 0.46754 0.39056 0.79922
 C2911 C 0.45640 0.39678 0.79323
 N2912 N 0.45008 0.39036 0.78239
 C2913 C 0.47039 0.35859 0.77918
 C2914 C 0.47411 0.34723 0.77548
 C2915 C 0.47833 0.33357 0.77131
 N2916 N 0.48877 0.32698 0.77805
 N2917 N 0.49234 0.31409 0.77454
 C2918 C 0.48559 0.30735 0.76416
 N2919 N 0.47517 0.31401 0.75740
 N2920 N 0.47160 0.32690 0.76092
 N2921 N 0.95321 0.37618 0.27959
 C2922 C 0.96412 0.36982 0.28576
 N2923 N 0.97023 0.37593 0.29686
 N2924 N 0.96554 0.38803 0.30165
 C2925 C 0.95457 0.39442 0.29553
 N2926 N 0.94851 0.38827 0.28439
 C2927 C 0.96890 0.35659 0.28087
 C2928 C 0.97280 0.34537 0.27693
 C2929 C 0.97730 0.33191 0.27243
 N2930 N 0.98798 0.32545 0.27890
 N2931 N 0.99190 0.31276 0.27502
 C2932 C 0.98525 0.30611 0.26453
 N2933 N 0.97457 0.31262 0.25804
 N2934 N 0.97067 0.32531 0.26193
 N2935 N 0.29715 0.87581 0.46993
 C2936 C 0.28610 0.86958 0.46386
 N2937 N 0.28000 0.87574 0.45279
 N2938 N 0.28482 0.88775 0.44792
 C2939 C 0.29592 0.89401 0.45395
 N2940 N 0.30197 0.88782 0.46507
 C2941 C 0.28118 0.85643 0.46881
 C2942 C 0.27719 0.84527 0.47282
 C2943 C 0.27260 0.83186 0.47738
 N2944 N 0.26190 0.82542 0.47093
 N2945 N 0.25793 0.81277 0.47486
 C2946 C 0.26454 0.80613 0.48537
 N2947 N 0.27523 0.81263 0.49185
 N2948 N 0.27920 0.82529 0.48791
 N2949 N 0.29462 0.37877 0.97244
 C2950 C 0.28377 0.37235 0.96620
 N2951 N 0.27758 0.37852 0.95519
 N2952 N 0.28211 0.39073 0.95054
 C2953 C 0.29301 0.39717 0.95673
 N2954 N 0.29916 0.39098 0.96779
 C2955 C 0.27923 0.35896 0.97087
 C2956 C 0.27557 0.34760 0.97461
 C2957 C 0.27142 0.33393 0.97884
 N2958 N 0.26086 0.32735 0.97228
 N2959 N 0.25735 0.31446 0.97584
 C2960 C 0.26428 0.30771 0.98608
 N2961 N 0.27482 0.31436 0.99266
 N2962 N 0.27833 0.32725 0.98910
 N2963 N 0.79674 0.37348 0.27905
 C2964 C 0.78567 0.37969 0.28511
 N2965 N 0.77931 0.37330 0.29589
 N2966 N 0.78389 0.36108 0.30049
 C2967 C 0.79500 0.35485 0.29447
 N2968 N 0.80132 0.36127 0.28364
 C2969 C 0.78099 0.39302 0.28043
 C2970 C 0.77716 0.40431 0.27663
 C2971 C 0.77274 0.41785 0.27227
 N2972 N 0.76212 0.42433 0.27882
 N2973 N 0.75825 0.43705 0.27503
 C2974 C 0.76489 0.44374 0.26456
 N2975 N 0.77552 0.43720 0.25801
 N2976 N 0.77938 0.42447 0.26180
   
