data_POSCAR
  _audit_creation_date              2014-09-24
  _audit_creation_method            'ToBaCCo'
  _symmetry_space_group_name_H-M    'P1'
  _symmetry_Int_Tables_number       1
  _symmetry_cell_setting            triclinic
  loop_
  _symmetry_equiv_pos_as_xyz
 x,y,z
_cell_length_a 65.4378
_cell_length_b 65.4181
_cell_length_c 65.3889
_cell_angle_alpha 90.014200
_cell_angle_beta 89.976800
_cell_angle_gamma 89.984100
loop_
  _atom_site_label
  _atom_site_type_symbol
  _atom_site_fract_x
  _atom_site_fract_y
  _atom_site_fract_z
O1 O 0.87528 0.15281 0.82199
 O2 O 0.89723 0.12428 0.81594
 O3 O 0.82187 0.12377 0.84700
 O4 O 0.81422 0.10402 0.87361
 O5 O 0.84698 0.17783 0.87549
 O6 O 0.87547 0.18352 0.89760
 O7 O 0.87577 0.07166 0.90314
 O8 O 0.85173 0.06613 0.87665
 O9 O 0.92761 0.09609 0.87559
 O10 O 0.93409 0.12518 0.85235
 O11 O 0.90330 0.12369 0.92771
 O12 O 0.87435 0.14689 0.93427
 O13 O 0.87592 0.09623 0.92767
 O14 O 0.85240 0.12546 0.93398
 O15 O 0.92777 0.12354 0.90309
 O16 O 0.93399 0.14700 0.87384
 O17 O 0.90306 0.07163 0.87594
 O18 O 0.87482 0.06550 0.85221
 O19 O 0.87559 0.17745 0.84650
 O20 O 0.89815 0.18317 0.87494
 O21 O 0.82229 0.15342 0.87538
 O22 O 0.81759 0.12493 0.89940
 O23 O 0.84628 0.12415 0.82226
 O24 O 0.87465 0.10163 0.81632
 Zr25 Zr 0.87405 0.12519 0.83845
 O26 O 0.89325 0.10611 0.85583
 Zr27 Zr 0.83835 0.12552 0.87454
 O28 O 0.85586 0.10612 0.89342
 Zr29 Zr 0.87448 0.16119 0.87424
 O30 O 0.89350 0.14360 0.89336
 Zr31 Zr 0.87546 0.08806 0.87553
 O32 O 0.85599 0.10549 0.85643
 Zr33 Zr 0.91141 0.12388 0.87542
 O34 O 0.89405 0.14319 0.85610
 Zr35 Zr 0.87559 0.12398 0.91143
 O36 O 0.85641 0.14353 0.89414
 O37 O 0.85525 0.14437 0.85540
 O38 O 0.89467 0.10478 0.89464
 C39 C 0.87593 0.17161 0.82772
 C40 C 0.82754 0.12343 0.82816
 C41 C 0.82817 0.17217 0.87592
 C42 C 0.87602 0.07745 0.92191
 C43 C 0.92188 0.07728 0.87591
 C44 C 0.92206 0.12345 0.92189
 H45 H 0.90170 0.09774 0.84653
 H46 H 0.90198 0.15282 0.90180
 H47 H 0.84652 0.15308 0.84663
 H48 H 0.84671 0.09750 0.90180
 H49 H 0.84120 0.07058 0.86672
 H50 H 0.81872 0.09185 0.88136
 H51 H 0.93141 0.15680 0.88508
 H52 H 0.90885 0.17827 0.86542
 H53 H 0.88574 0.06861 0.84223
 H54 H 0.86525 0.09086 0.82126
 H55 H 0.88511 0.15705 0.93120
 H56 H 0.86631 0.17863 0.90861
 H57 H 0.90834 0.13327 0.82089
 H58 H 0.93112 0.11430 0.84229
 H59 H 0.82184 0.13583 0.90900
 H60 H 0.84269 0.11418 0.93138
 O61 O 0.84656 0.67745 0.37517
 O62 O 0.87505 0.68348 0.39718
 O63 O 0.87570 0.65243 0.32177
 O64 O 0.89549 0.62584 0.31416
 O65 O 0.82162 0.62399 0.34683
 O66 O 0.81588 0.60188 0.37534
 O67 O 0.92769 0.59629 0.37577
 O68 O 0.93323 0.62277 0.35167
 O69 O 0.90316 0.62390 0.42763
 O70 O 0.87405 0.64713 0.43404
 O71 O 0.87563 0.57179 0.40328
 O72 O 0.85246 0.56524 0.37428
 O73 O 0.90311 0.57179 0.37591
 O74 O 0.87394 0.56549 0.35235
 O75 O 0.87575 0.59640 0.42775
 O76 O 0.85227 0.62563 0.43395
 O77 O 0.92769 0.62351 0.40305
 O78 O 0.93389 0.64717 0.37483
 O79 O 0.82193 0.65295 0.37546
 O80 O 0.81616 0.62454 0.39802
 O81 O 0.84609 0.62408 0.32216
 O82 O 0.87455 0.60007 0.31749
 O83 O 0.87527 0.67716 0.34620
 O84 O 0.89771 0.68312 0.37460
 Zr85 Zr 0.87418 0.66099 0.37398
 O86 O 0.89322 0.64360 0.39321
 Zr87 Zr 0.87393 0.62491 0.33827
 O88 O 0.89329 0.60602 0.35581
 Zr89 Zr 0.83819 0.62522 0.37437
 O90 O 0.85574 0.60612 0.39343
 Zr91 Zr 0.91131 0.62390 0.37542
 O92 O 0.89392 0.64302 0.35594
 Zr93 Zr 0.87541 0.62405 0.41137
 O94 O 0.85614 0.64336 0.39398
 Zr95 Zr 0.87538 0.58805 0.37554
 O96 O 0.85588 0.60533 0.35631
 O97 O 0.85504 0.64405 0.35515
 O98 O 0.89454 0.60482 0.39464
 C99 C 0.82776 0.67172 0.37580
 C100 C 0.87601 0.67126 0.32745
 C101 C 0.82733 0.62356 0.32801
 C102 C 0.92189 0.57752 0.37602
 C103 C 0.92193 0.62357 0.42184
 C104 C 0.87585 0.57761 0.42204
 H105 H 0.90157 0.65290 0.40167
 H106 H 0.84650 0.59769 0.40191
 H107 H 0.84635 0.65281 0.34639
 H108 H 0.90191 0.59763 0.34666
 H109 H 0.92882 0.63274 0.34116
 H110 H 0.90763 0.61804 0.31866
 H111 H 0.84248 0.61440 0.43136
 H112 H 0.82104 0.63403 0.40875
 H113 H 0.93069 0.65722 0.38566
 H114 H 0.90850 0.67817 0.36521
 H115 H 0.84231 0.56830 0.38506
 H116 H 0.82078 0.59088 0.36617
 H117 H 0.86599 0.67857 0.40827
 H118 H 0.88494 0.65719 0.43107
 H119 H 0.86366 0.59047 0.32174
 H120 H 0.88522 0.56808 0.34263
 O121 O 0.37491 0.15250 0.32225
 O122 O 0.39695 0.12398 0.31627
 O123 O 0.32156 0.12338 0.34728
 O124 O 0.31398 0.10359 0.37390
 O125 O 0.34658 0.17748 0.37573
 O126 O 0.37504 0.18327 0.39783
 O127 O 0.37552 0.07142 0.40355
 O128 O 0.35146 0.06586 0.37702
 O129 O 0.42734 0.09593 0.37590
 O130 O 0.43378 0.12497 0.35268
 O131 O 0.40299 0.12352 0.42802
 O132 O 0.37398 0.14668 0.43455
 O133 O 0.37566 0.09600 0.42801
 O134 O 0.35209 0.12521 0.43429
 O135 O 0.42745 0.12340 0.40339
 O136 O 0.43361 0.14686 0.37411
 O137 O 0.40280 0.07140 0.37630
 O138 O 0.37463 0.06514 0.35266
 O139 O 0.37518 0.17716 0.34675
 O140 O 0.39775 0.18292 0.37519
 O141 O 0.32194 0.15302 0.37563
 O142 O 0.31726 0.12460 0.39966
 O143 O 0.34599 0.12377 0.32255
 O144 O 0.37439 0.10132 0.31662
 Zr145 Zr 0.37374 0.12488 0.33874
 O146 O 0.39295 0.10586 0.35617
 Zr147 Zr 0.33805 0.12516 0.37483
 O148 O 0.35556 0.10582 0.39376
 Zr149 Zr 0.37411 0.16091 0.37451
 O150 O 0.39314 0.14338 0.39365
 Zr151 Zr 0.37519 0.08778 0.37590
 O152 O 0.35572 0.10515 0.35674
 Zr153 Zr 0.41109 0.12368 0.37573
 O154 O 0.39371 0.14294 0.35638
 Zr155 Zr 0.37527 0.12374 0.41174
 O156 O 0.35607 0.14323 0.39442
 O157 O 0.35491 0.14404 0.35568
 O158 O 0.39438 0.10456 0.39498
 C159 C 0.37553 0.17131 0.32797
 C160 C 0.32725 0.12303 0.32845
 C161 C 0.32779 0.17178 0.37615
 C162 C 0.37577 0.07717 0.42236
 C163 C 0.42157 0.07716 0.37624
 C164 C 0.42174 0.12331 0.42219
 H165 H 0.40141 0.09749 0.34688
 H166 H 0.40160 0.15263 0.40208
 H167 H 0.34616 0.15272 0.34690
 H168 H 0.34643 0.09720 0.40216
 H169 H 0.34097 0.07027 0.36703
 H170 H 0.31846 0.09148 0.38175
 H171 H 0.43104 0.15664 0.38537
 H172 H 0.40844 0.17806 0.36565
 H173 H 0.38541 0.06837 0.34256
 H174 H 0.36502 0.09052 0.32157
 H175 H 0.38474 0.15684 0.43148
 H176 H 0.36591 0.17837 0.40886
 H177 H 0.40801 0.13307 0.32116
 H178 H 0.43076 0.11414 0.34257
 H179 H 0.32152 0.13548 0.40929
 H180 H 0.34239 0.11390 0.43172
 O181 O 0.12439 0.34623 0.32204
 O182 O 0.10220 0.37460 0.31603
 O183 O 0.17767 0.37574 0.34674
 O184 O 0.18528 0.39563 0.37325
 O185 O 0.15302 0.32161 0.37550
 O186 O 0.12466 0.31579 0.39774
 O187 O 0.12368 0.42768 0.40298
 O188 O 0.14761 0.43323 0.37633
 O189 O 0.07188 0.40278 0.37568
 O190 O 0.06550 0.37359 0.35259
 O191 O 0.09654 0.37557 0.42780
 O192 O 0.12566 0.35256 0.43431
 O193 O 0.12374 0.40319 0.42758
 O194 O 0.14748 0.37412 0.43385
 O195 O 0.07200 0.37546 0.40327
 O196 O 0.06584 0.35182 0.37413
 O197 O 0.09629 0.42744 0.37589
 O198 O 0.12435 0.43371 0.35206
 O199 O 0.12431 0.32168 0.34664
 O200 O 0.10188 0.31593 0.37521
 O201 O 0.17754 0.34620 0.37521
 O202 O 0.18216 0.37477 0.39911
 O203 O 0.15318 0.37510 0.32211
 O204 O 0.12465 0.39738 0.31620
 Zr205 Zr 0.12548 0.37392 0.33842
 O206 O 0.10624 0.39294 0.35584
 Zr207 Zr 0.16130 0.37398 0.37436
 O208 O 0.14375 0.39332 0.39327
 Zr209 Zr 0.12541 0.33805 0.37433
 O210 O 0.10636 0.35558 0.39348
 Zr211 Zr 0.12399 0.41119 0.37541
 O212 O 0.14347 0.39382 0.35625
 Zr213 Zr 0.08826 0.37511 0.37555
 O214 O 0.10567 0.35585 0.35621
 Zr215 Zr 0.12420 0.37539 0.41141
 O216 O 0.14344 0.35590 0.39409
 O217 O 0.14446 0.35493 0.35535
 O218 O 0.10494 0.39439 0.39464
 C219 C 0.12388 0.32745 0.32784
 C220 C 0.17193 0.37596 0.32793
 C221 C 0.17179 0.32741 0.37583
 C222 C 0.12353 0.42195 0.42178
 C223 C 0.07756 0.42158 0.37593
 C224 C 0.07777 0.37567 0.42205
 H225 H 0.09770 0.40122 0.34654
 H226 H 0.09797 0.34634 0.40198
 H227 H 0.15323 0.34625 0.34657
 H228 H 0.15288 0.40202 0.40159
 H229 H 0.15809 0.42882 0.36631
 H230 H 0.18074 0.40779 0.38101
 H231 H 0.06849 0.34212 0.38542
 H232 H 0.09113 0.32071 0.36570
 H233 H 0.11351 0.43041 0.34206
 H234 H 0.13398 0.40825 0.32108
 H235 H 0.11494 0.34233 0.43132
 H236 H 0.13380 0.32079 0.40872
 H237 H 0.09120 0.36550 0.32102
 H238 H 0.06841 0.38441 0.34244
 H239 H 0.17801 0.36389 0.40877
 H240 H 0.15710 0.38547 0.43120
 O241 O 0.62445 0.84622 0.32203
 O242 O 0.60230 0.87460 0.31598
 O243 O 0.67774 0.87566 0.34677
 O244 O 0.68527 0.89565 0.37327
 O245 O 0.65304 0.82159 0.37551
 O246 O 0.62467 0.81575 0.39771
 O247 O 0.62365 0.92764 0.40297
 O248 O 0.64759 0.93321 0.37636
 O249 O 0.57188 0.90272 0.37564
 O250 O 0.56550 0.87357 0.35257
 O251 O 0.59649 0.87552 0.42778
 O252 O 0.62564 0.85250 0.43429
 O253 O 0.62371 0.90315 0.42758
 O254 O 0.64742 0.87410 0.43389
 O255 O 0.57197 0.87540 0.40324
 O256 O 0.56589 0.85173 0.37404
 O257 O 0.59628 0.92739 0.37585
 O258 O 0.62436 0.93367 0.35205
 O259 O 0.62435 0.82167 0.34661
 O260 O 0.60190 0.81590 0.37517
 O261 O 0.67756 0.84618 0.37525
 O262 O 0.68217 0.87475 0.39914
 O263 O 0.65327 0.87504 0.32211
 O264 O 0.62474 0.89739 0.31622
 Zr265 Zr 0.62555 0.87390 0.33840
 O266 O 0.60627 0.89289 0.35582
 Zr267 Zr 0.66132 0.87395 0.37438
 O268 O 0.64374 0.89328 0.39328
 Zr269 Zr 0.62543 0.83803 0.37431
 O270 O 0.60635 0.85554 0.39346
 Zr271 Zr 0.62399 0.91115 0.37540
 O272 O 0.64351 0.89380 0.35626
 Zr273 Zr 0.58827 0.87506 0.37551
 O274 O 0.60570 0.85582 0.35617
 Zr275 Zr 0.62417 0.87535 0.41141
 O276 O 0.64343 0.85588 0.39410
 O277 O 0.64450 0.85491 0.35536
 O278 O 0.60493 0.89435 0.39462
 C279 C 0.62393 0.82744 0.32782
 C280 C 0.67202 0.87587 0.32795
 C281 C 0.67181 0.82739 0.37586
 C282 C 0.62349 0.92192 0.42177
 C283 C 0.57755 0.92153 0.37589
 C284 C 0.57772 0.87561 0.42202
 H285 H 0.59773 0.90118 0.34652
 H286 H 0.59796 0.84629 0.40195
 H287 H 0.65327 0.84622 0.34659
 H288 H 0.65285 0.90199 0.40161
 H289 H 0.65809 0.92881 0.36636
 H290 H 0.68074 0.90778 0.38108
 H291 H 0.56849 0.84207 0.38538
 H292 H 0.59116 0.82067 0.36564
 H293 H 0.61356 0.93036 0.34203
 H294 H 0.63412 0.90822 0.32108
 H295 H 0.61489 0.84230 0.43132
 H296 H 0.63378 0.82076 0.40871
 H297 H 0.59127 0.86553 0.32097
 H298 H 0.56845 0.88435 0.34238
 H299 H 0.67798 0.86389 0.40882
 H300 H 0.65707 0.88542 0.43121
 O301 O 0.62412 0.65279 0.17762
 O302 O 0.60192 0.62445 0.18363
 O303 O 0.67759 0.62329 0.15301
 O304 O 0.68501 0.60316 0.12648
 O305 O 0.65290 0.67732 0.12420
 O306 O 0.62445 0.68313 0.10194
 O307 O 0.62398 0.57147 0.09644
 O308 O 0.64796 0.56621 0.12377
 O309 O 0.57184 0.59610 0.12392
 O310 O 0.56543 0.62494 0.14720
 O311 O 0.59641 0.62354 0.07192
 O312 O 0.62562 0.64682 0.06561
 O313 O 0.62377 0.59602 0.07196
 O314 O 0.64725 0.62505 0.06567
 O315 O 0.57188 0.62359 0.09648
 O316 O 0.56573 0.64707 0.12582
 O317 O 0.59630 0.57149 0.12330
 O318 O 0.62091 0.56499 0.14678
 O319 O 0.62418 0.67736 0.15306
 O320 O 0.60178 0.68311 0.12462
 O321 O 0.67742 0.65272 0.12448
 O322 O 0.68221 0.62395 0.10086
 O323 O 0.65308 0.62435 0.17761
 O324 O 0.62353 0.60198 0.18397
 Zr325 Zr 0.62532 0.62504 0.16134
 O326 O 0.60627 0.60596 0.14379
 Zr327 Zr 0.66115 0.62495 0.12544
 O328 O 0.64366 0.60577 0.10634
 Zr329 Zr 0.62526 0.66092 0.12542
 O330 O 0.60620 0.64343 0.10628
 Zr331 Zr 0.62390 0.58783 0.12408
 O332 O 0.64333 0.60502 0.14357
 Zr333 Zr 0.58816 0.62380 0.12419
 O334 O 0.60551 0.64310 0.14352
 Zr335 Zr 0.62410 0.62375 0.08826
 O336 O 0.64336 0.64309 0.10568
 O337 O 0.64429 0.64404 0.14440
 O338 O 0.60486 0.60466 0.10494
 C339 C 0.62368 0.67157 0.17185
 C340 C 0.67183 0.62334 0.17182
 C341 C 0.67167 0.67151 0.12385
 C342 C 0.62375 0.57719 0.07763
 C343 C 0.57755 0.57730 0.12342
 C344 C 0.57763 0.62343 0.07769
 H345 H 0.59799 0.59731 0.15302
 H346 H 0.59778 0.65269 0.09783
 H347 H 0.65304 0.65276 0.15313
 H348 H 0.65283 0.59712 0.09799
 H349 H 0.65712 0.56968 0.13530
 H350 H 0.67996 0.59069 0.11960
 H351 H 0.56830 0.65680 0.11454
 H352 H 0.59096 0.67827 0.13404
 H353 H 0.62922 0.56950 0.15853
 H354 H 0.63547 0.59287 0.18214
 H355 H 0.61457 0.65676 0.06838
 H356 H 0.63374 0.67821 0.09104
 H357 H 0.59098 0.63364 0.17864
 H358 H 0.56861 0.61422 0.15738
 H359 H 0.67805 0.63469 0.09105
 H360 H 0.65709 0.61393 0.06848
 O361 O 0.37493 0.84688 0.67790
 O362 O 0.39704 0.87531 0.68387
 O363 O 0.32158 0.87622 0.65312
 O364 O 0.31395 0.89605 0.62657
 O365 O 0.34638 0.82208 0.62449
 O366 O 0.37476 0.81626 0.60226
 O367 O 0.37549 0.92814 0.59680
 O368 O 0.35153 0.93371 0.62342
 O369 O 0.42735 0.90342 0.62415
 O370 O 0.43381 0.87431 0.64727
 O371 O 0.40276 0.87599 0.57207
 O372 O 0.37368 0.85295 0.56560
 O373 O 0.37549 0.90360 0.57223
 O374 O 0.35182 0.87447 0.56602
 O375 O 0.42731 0.87600 0.59659
 O376 O 0.43348 0.85245 0.62582
 O377 O 0.40286 0.92802 0.62392
 O378 O 0.37477 0.93428 0.64771
 O379 O 0.37508 0.82227 0.65336
 O380 O 0.39755 0.81650 0.62481
 O381 O 0.32180 0.84662 0.62472
 O382 O 0.31712 0.87511 0.60075
 O383 O 0.34606 0.87569 0.67777
 O384 O 0.37455 0.89807 0.68362
 Zr385 Zr 0.37378 0.87453 0.66147
 O386 O 0.39299 0.89354 0.64401
 Zr387 Zr 0.33798 0.87443 0.62551
 O388 O 0.35549 0.89376 0.60657
 Zr389 Zr 0.37396 0.83858 0.62563
 O390 O 0.39297 0.85610 0.60644
 Zr391 Zr 0.37521 0.91171 0.62440
 O392 O 0.35575 0.89435 0.64358
 Zr393 Zr 0.41103 0.87571 0.62433
 O394 O 0.39366 0.85647 0.64371
 Zr395 Zr 0.37509 0.87583 0.58846
 O396 O 0.35590 0.85635 0.60582
 O397 O 0.35485 0.85547 0.64457
 O398 O 0.39430 0.89491 0.60519
 C399 C 0.37549 0.82808 0.67215
 C400 C 0.32730 0.87650 0.67194
 C401 C 0.32760 0.82784 0.62415
 C402 C 0.37567 0.92238 0.57801
 C403 C 0.42162 0.92221 0.62389
 C404 C 0.42153 0.87613 0.57781
 H405 H 0.40150 0.90186 0.65328
 H406 H 0.40138 0.84684 0.59796
 H407 H 0.34611 0.84679 0.65336
 H408 H 0.34635 0.90243 0.59823
 H409 H 0.34106 0.92931 0.63343
 H410 H 0.31845 0.90819 0.61877
 H411 H 0.43087 0.84272 0.61454
 H412 H 0.40828 0.82132 0.63432
 H413 H 0.38560 0.93102 0.65773
 H414 H 0.36516 0.90888 0.67874
 H415 H 0.38440 0.84272 0.56863
 H416 H 0.36561 0.82121 0.59128
 H417 H 0.40808 0.86623 0.67889
 H418 H 0.43083 0.88511 0.65744
 H419 H 0.32132 0.86422 0.59111
 H420 H 0.34217 0.88581 0.56865
 O421 O 0.87529 0.34627 0.67777
 O422 O 0.89736 0.37469 0.68386
 O423 O 0.82191 0.37566 0.65310
 O424 O 0.81421 0.39552 0.62661
 O425 O 0.84675 0.32161 0.62429
 O426 O 0.87514 0.31593 0.60201
 O427 O 0.87575 0.42780 0.59700
 O428 O 0.85179 0.43327 0.62363
 O429 O 0.92763 0.40305 0.62423
 O430 O 0.93409 0.37384 0.64729
 O431 O 0.90304 0.37579 0.57208
 O432 O 0.87402 0.35274 0.56552
 O433 O 0.87577 0.40335 0.57235
 O434 O 0.85212 0.37422 0.56602
 O435 O 0.92760 0.37573 0.59659
 O436 O 0.93385 0.35211 0.62570
 O437 O 0.90312 0.42762 0.62409
 O438 O 0.87501 0.43375 0.64794
 O439 O 0.87546 0.32175 0.65313
 O440 O 0.89790 0.31608 0.62457
 O441 O 0.82215 0.34613 0.62460
 O442 O 0.81745 0.37473 0.60072
 O443 O 0.84639 0.37506 0.67774
 O444 O 0.87486 0.39742 0.68369
 Zr445 Zr 0.87410 0.37398 0.66144
 O446 O 0.89329 0.39307 0.64407
 Zr447 Zr 0.83829 0.37396 0.62549
 O448 O 0.85578 0.39338 0.60663
 Zr449 Zr 0.87431 0.33815 0.62548
 O450 O 0.89331 0.35576 0.60636
 Zr451 Zr 0.87548 0.41128 0.62453
 O452 O 0.85604 0.39383 0.64364
 Zr453 Zr 0.91134 0.37532 0.62432
 O454 O 0.89399 0.35598 0.64362
 Zr455 Zr 0.87539 0.37552 0.58847
 O456 O 0.85622 0.35596 0.60574
 O457 O 0.85519 0.35495 0.64448
 O458 O 0.89458 0.39457 0.60527
 C459 C 0.87587 0.32750 0.67194
 C460 C 0.82764 0.37588 0.67191
 C461 C 0.82796 0.32736 0.62396
 C462 C 0.87593 0.42210 0.57819
 C463 C 0.92188 0.42184 0.62402
 C464 C 0.92182 0.37593 0.57782
 H465 H 0.90180 0.40136 0.65337
 H466 H 0.90173 0.34654 0.59785
 H467 H 0.84646 0.34623 0.65324
 H468 H 0.84663 0.40207 0.59832
 H469 H 0.84131 0.42882 0.63361
 H470 H 0.81873 0.40772 0.61892
 H471 H 0.93121 0.34239 0.61442
 H472 H 0.90865 0.32089 0.63407
 H473 H 0.88590 0.43051 0.65790
 H474 H 0.86548 0.40825 0.67884
 H475 H 0.88473 0.34250 0.56851
 H476 H 0.86595 0.32089 0.59107
 H477 H 0.90842 0.36566 0.67883
 H478 H 0.93116 0.38467 0.65744
 H479 H 0.82163 0.36384 0.59106
 H480 H 0.84247 0.38555 0.56868
 O481 O 0.82195 0.87463 0.15292
 O482 O 0.81597 0.89683 0.12451
 O483 O 0.84663 0.82128 0.12343
 O484 O 0.87308 0.81373 0.10339
 O485 O 0.87537 0.84592 0.17753
 O486 O 0.89758 0.87427 0.18339
 O487 O 0.90295 0.87530 0.07148
 O488 O 0.87629 0.85137 0.06589
 O489 O 0.87560 0.92712 0.09641
 O490 O 0.85251 0.93351 0.12559
 O491 O 0.92766 0.90241 0.12363
 O492 O 0.93411 0.87323 0.14667
 O493 O 0.92745 0.87520 0.09600
 O494 O 0.93373 0.85147 0.12504
 O495 O 0.90316 0.92697 0.12376
 O496 O 0.87400 0.93313 0.14740
 O497 O 0.87583 0.90272 0.07172
 O498 O 0.85207 0.87469 0.06537
 O499 O 0.84652 0.87467 0.17748
 O500 O 0.87506 0.89706 0.18328
 O501 O 0.87511 0.82140 0.15291
 O502 O 0.89894 0.81674 0.12433
 O503 O 0.82203 0.84582 0.12404
 O504 O 0.81615 0.87435 0.10173
 Zr505 Zr 0.83833 0.87351 0.12521
 O506 O 0.85577 0.89275 0.10621
 Zr507 Zr 0.87423 0.83766 0.12514
 O508 O 0.89316 0.85520 0.10582
 Zr509 Zr 0.87419 0.87355 0.16111
 O510 O 0.89335 0.89260 0.14361
 Zr511 Zr 0.87535 0.87500 0.08795
 O512 O 0.85617 0.85552 0.10529
 Zr513 Zr 0.87544 0.91072 0.12408
 O514 O 0.85610 0.89332 0.14332
 Zr515 Zr 0.91127 0.87475 0.12379
 O516 O 0.89394 0.85550 0.14324
 O517 O 0.85524 0.85451 0.14420
 O518 O 0.89455 0.89403 0.10478
 C519 C 0.82773 0.87514 0.17172
 C520 C 0.82783 0.82705 0.12321
 C521 C 0.87572 0.82715 0.17170
 C522 C 0.92176 0.87544 0.07718
 C523 C 0.87587 0.92146 0.07759
 C524 C 0.92192 0.92119 0.12354
 H525 H 0.84649 0.90130 0.09792
 H526 H 0.90183 0.90098 0.15287
 H527 H 0.84646 0.84575 0.15289
 H528 H 0.90150 0.84608 0.09711
 H529 H 0.86626 0.84091 0.07026
 H530 H 0.88095 0.81822 0.09129
 H531 H 0.88529 0.93048 0.15710
 H532 H 0.86558 0.90784 0.17849
 H533 H 0.84201 0.88545 0.06874
 H534 H 0.82103 0.86501 0.09086
 H535 H 0.93118 0.88402 0.15686
 H536 H 0.90855 0.86513 0.17838
 H537 H 0.82094 0.90782 0.13365
 H538 H 0.84236 0.93060 0.11477
 H539 H 0.90864 0.82093 0.13517
 H540 H 0.93106 0.84182 0.11371
 O541 O 0.37512 0.34601 0.17778
 O542 O 0.39724 0.37448 0.18375
 O543 O 0.32176 0.37532 0.15301
 O544 O 0.31409 0.39513 0.12645
 O545 O 0.34665 0.32121 0.12435
 O546 O 0.37506 0.31548 0.10209
 O547 O 0.37558 0.42735 0.09672
 O548 O 0.35159 0.43285 0.12335
 O549 O 0.42747 0.40270 0.12411
 O550 O 0.43389 0.37355 0.14731
 O551 O 0.40299 0.37529 0.07202
 O552 O 0.37397 0.35215 0.06551
 O553 O 0.37565 0.40281 0.07216
 O554 O 0.35207 0.37364 0.06589
 O555 O 0.42749 0.37532 0.09659
 O556 O 0.43376 0.35180 0.12572
 O557 O 0.40295 0.42726 0.12384
 O558 O 0.37483 0.43346 0.14764
 O559 O 0.37532 0.32143 0.15321
 O560 O 0.39781 0.31571 0.12468
 O561 O 0.32203 0.34570 0.12460
 O562 O 0.31732 0.37420 0.10063
 O563 O 0.34625 0.37483 0.17764
 O564 O 0.37469 0.39716 0.18358
 Zr565 Zr 0.37396 0.37369 0.16136
 O566 O 0.39312 0.39276 0.14394
 Zr567 Zr 0.33816 0.37355 0.12540
 O568 O 0.35565 0.39292 0.10647
 Zr569 Zr 0.37420 0.33776 0.12550
 O570 O 0.39320 0.35533 0.10636
 Zr571 Zr 0.37532 0.41091 0.12432
 O572 O 0.35590 0.39348 0.14349
 Zr573 Zr 0.41120 0.37496 0.12428
 O574 O 0.39386 0.35565 0.14361
 Zr575 Zr 0.37530 0.37503 0.08837
 O576 O 0.35612 0.35551 0.10570
 O577 O 0.35506 0.35460 0.14444
 O578 O 0.39446 0.39414 0.10514
 C579 C 0.37570 0.32722 0.17200
 C580 C 0.32750 0.37562 0.17182
 C581 C 0.32785 0.32693 0.12402
 C582 C 0.37578 0.42159 0.07793
 C583 C 0.42171 0.42148 0.12382
 C584 C 0.42175 0.37547 0.07780
 H585 H 0.40161 0.40110 0.15323
 H586 H 0.40164 0.34610 0.09788
 H587 H 0.34633 0.34591 0.15323
 H588 H 0.34650 0.40157 0.09813
 H589 H 0.34113 0.42842 0.13335
 H590 H 0.31858 0.40727 0.11865
 H591 H 0.43109 0.34200 0.11452
 H592 H 0.40854 0.32055 0.13418
 H593 H 0.38569 0.43025 0.15764
 H594 H 0.36537 0.40802 0.17866
 H595 H 0.38473 0.34197 0.06852
 H596 H 0.36587 0.32042 0.09113
 H597 H 0.40826 0.36537 0.17880
 H598 H 0.43099 0.38445 0.15738
 H599 H 0.32153 0.36332 0.09098
 H600 H 0.34236 0.38492 0.06855
 O601 O 0.37492 0.65322 0.82217
 O602 O 0.39702 0.62478 0.81610
 O603 O 0.32155 0.62386 0.84692
 O604 O 0.31387 0.60404 0.87344
 O605 O 0.34641 0.67793 0.87566
 O606 O 0.37481 0.68361 0.89791
 O607 O 0.37541 0.57171 0.90304
 O608 O 0.35144 0.56625 0.87642
 O609 O 0.42729 0.59641 0.87571
 O610 O 0.43375 0.62560 0.85263
 O611 O 0.40273 0.62374 0.92787
 O612 O 0.37371 0.64681 0.93446
 O613 O 0.37543 0.59618 0.92767
 O614 O 0.35178 0.62535 0.93397
 O615 O 0.42727 0.62376 0.90334
 O616 O 0.43351 0.64736 0.87420
 O617 O 0.40278 0.57186 0.87590
 O618 O 0.37465 0.56574 0.85208
 O619 O 0.37511 0.67775 0.84679
 O620 O 0.39758 0.68340 0.87533
 O621 O 0.32180 0.65344 0.87537
 O622 O 0.31712 0.62487 0.89931
 O623 O 0.34604 0.62442 0.82225
 O624 O 0.37450 0.60206 0.81629
 Zr625 Zr 0.37375 0.62552 0.83853
 O626 O 0.39294 0.60642 0.85591
 Zr627 Zr 0.33795 0.62559 0.87452
 O628 O 0.35544 0.60616 0.89337
 Zr629 Zr 0.37397 0.66137 0.87446
 O630 O 0.39297 0.64375 0.89358
 Zr631 Zr 0.37514 0.58822 0.87548
 O632 O 0.35570 0.60568 0.85637
 Zr633 Zr 0.41100 0.62416 0.87562
 O634 O 0.39365 0.64350 0.85632
 Zr635 Zr 0.37506 0.62400 0.91152
 O636 O 0.35589 0.64358 0.89424
 O637 O 0.35485 0.64457 0.85550
 O638 O 0.39425 0.60493 0.89471
 C639 C 0.37550 0.67200 0.82798
 C640 C 0.32729 0.62361 0.82810
 C641 C 0.32762 0.67221 0.87599
 C642 C 0.37559 0.57742 0.92184
 C643 C 0.42155 0.57763 0.87593
 C644 C 0.42150 0.62358 0.92212
 H645 H 0.40144 0.59810 0.84660
 H646 H 0.40139 0.65296 0.90208
 H647 H 0.34611 0.65328 0.84673
 H648 H 0.34629 0.59748 0.90170
 H649 H 0.34096 0.57072 0.86646
 H650 H 0.31838 0.59184 0.88116
 H651 H 0.43087 0.65709 0.88547
 H652 H 0.40832 0.67859 0.86581
 H653 H 0.38555 0.56896 0.84211
 H654 H 0.36514 0.59122 0.82117
 H655 H 0.38440 0.65704 0.93142
 H656 H 0.36562 0.67865 0.90887
 H657 H 0.40806 0.63383 0.82110
 H658 H 0.43079 0.61480 0.84247
 H659 H 0.32130 0.63577 0.90895
 H660 H 0.34213 0.61402 0.93133
 O661 O 0.12407 0.65323 0.67782
 O662 O 0.10191 0.62481 0.68375
 O663 O 0.17750 0.62385 0.65322
 O664 O 0.18522 0.60398 0.62671
 O665 O 0.15279 0.67795 0.62446
 O666 O 0.12447 0.68373 0.60215
 O667 O 0.12375 0.57185 0.59678
 O668 O 0.14765 0.56632 0.62346
 O669 O 0.07183 0.59661 0.62402
 O670 O 0.06532 0.62577 0.64710
 O671 O 0.09660 0.62395 0.57197
 O672 O 0.12571 0.64704 0.56558
 O673 O 0.12385 0.59639 0.57222
 O674 O 0.14754 0.62548 0.56602
 O675 O 0.07197 0.62398 0.59642
 O676 O 0.06567 0.64756 0.62559
 O677 O 0.09631 0.57200 0.62386
 O678 O 0.12434 0.56578 0.64772
 O679 O 0.12400 0.67779 0.65324
 O680 O 0.10164 0.68354 0.62465
 O681 O 0.17738 0.65342 0.62479
 O682 O 0.18214 0.62488 0.60086
 O683 O 0.15292 0.62440 0.67779
 O684 O 0.12441 0.60207 0.68361
 Zr685 Zr 0.12526 0.62555 0.66142
 O686 O 0.10612 0.60651 0.64393
 Zr687 Zr 0.16120 0.62560 0.62556
 O688 O 0.14375 0.60625 0.60660
 Zr689 Zr 0.12521 0.66145 0.62555
 O690 O 0.10626 0.64391 0.60634
 Zr691 Zr 0.12397 0.58831 0.62438
 O692 O 0.14335 0.60571 0.64360
 Zr693 Zr 0.08815 0.62432 0.62420
 O694 O 0.10545 0.64360 0.64360
 Zr695 Zr 0.12421 0.62416 0.58843
 O696 O 0.14335 0.64366 0.60581
 O697 O 0.14425 0.64459 0.64455
 O698 O 0.10494 0.60510 0.60512
 C699 C 0.12354 0.67202 0.67204
 C700 C 0.17169 0.62358 0.67202
 C701 C 0.17158 0.67219 0.62417
 C702 C 0.12364 0.57761 0.57799
 C703 C 0.07756 0.57782 0.62379
 C704 C 0.07781 0.62381 0.57766
 H705 H 0.09758 0.59820 0.65320
 H706 H 0.09787 0.65315 0.59783
 H707 H 0.15297 0.65328 0.65336
 H708 H 0.15292 0.59757 0.59828
 H709 H 0.15809 0.57073 0.63349
 H710 H 0.18075 0.59183 0.61890
 H711 H 0.06834 0.65729 0.61433
 H712 H 0.09086 0.67872 0.63411
 H713 H 0.11347 0.56905 0.65770
 H714 H 0.13379 0.59122 0.67876
 H715 H 0.11493 0.65722 0.56852
 H716 H 0.13368 0.67877 0.59120
 H717 H 0.09091 0.63391 0.67875
 H718 H 0.06824 0.61497 0.65727
 H719 H 0.17797 0.63576 0.59120
 H720 H 0.15720 0.61416 0.56871
 O721 O 0.12408 0.15256 0.17784
 O722 O 0.10182 0.12426 0.18377
 O723 O 0.17760 0.12300 0.15344
 O724 O 0.18514 0.10291 0.12692
 O725 O 0.15305 0.17707 0.12455
 O726 O 0.12471 0.18289 0.10216
 O727 O 0.12418 0.07123 0.09666
 O728 O 0.14807 0.06596 0.12405
 O729 O 0.07196 0.09588 0.12393
 O730 O 0.06546 0.12472 0.14716
 O731 O 0.09677 0.12333 0.07202
 O732 O 0.12602 0.14657 0.06583
 O733 O 0.12407 0.09578 0.07218
 O734 O 0.14764 0.12479 0.06599
 O735 O 0.07212 0.12337 0.09647
 O736 O 0.06587 0.14687 0.12580
 O737 O 0.09643 0.07126 0.12342
 O738 O 0.12095 0.06478 0.14700
 O739 O 0.12422 0.17713 0.15327
 O740 O 0.10194 0.18288 0.12475
 O741 O 0.17757 0.15246 0.12494
 O742 O 0.18242 0.12370 0.10129
 O743 O 0.15301 0.12408 0.17794
 O744 O 0.12338 0.10174 0.18418
 Zr745 Zr 0.12531 0.12481 0.16156
 O746 O 0.10632 0.10574 0.14393
 Zr747 Zr 0.16128 0.12470 0.12580
 O748 O 0.14386 0.10552 0.10663
 Zr749 Zr 0.12541 0.16069 0.12564
 O750 O 0.10642 0.14320 0.10642
 Zr751 Zr 0.12402 0.08760 0.12430
 O752 O 0.14338 0.10478 0.14386
 Zr753 Zr 0.08830 0.12358 0.12425
 O754 O 0.10558 0.14287 0.14366
 Zr755 Zr 0.12439 0.12351 0.08848
 O756 O 0.14358 0.14285 0.10597
 O757 O 0.14435 0.14379 0.14470
 O758 O 0.10506 0.10444 0.10508
 C759 C 0.12366 0.17135 0.17206
 C760 C 0.17178 0.12303 0.17222
 C761 C 0.17182 0.17126 0.12429
 C762 C 0.12400 0.07695 0.07785
 C763 C 0.07767 0.07708 0.12346
 C764 C 0.07797 0.12322 0.07771
 H765 H 0.09800 0.09710 0.15313
 H766 H 0.09804 0.15247 0.09794
 H767 H 0.15307 0.15251 0.15347
 H768 H 0.15306 0.09687 0.09832
 H769 H 0.15721 0.06943 0.13561
 H770 H 0.18011 0.09044 0.12003
 H771 H 0.06849 0.15658 0.11451
 H772 H 0.09108 0.17805 0.13412
 H773 H 0.12927 0.06925 0.15876
 H774 H 0.13532 0.09263 0.18241
 H775 H 0.11498 0.15654 0.06856
 H776 H 0.13405 0.17797 0.09131
 H777 H 0.09091 0.13345 0.17872
 H778 H 0.06862 0.11403 0.15738
 H779 H 0.17831 0.13446 0.09148
 H780 H 0.15744 0.11363 0.06882
 O781 O 0.67780 0.37567 0.84675
 O782 O 0.68373 0.39784 0.87516
 O783 O 0.65338 0.32220 0.87617
 O784 O 0.62695 0.31452 0.89619
 O785 O 0.62452 0.34678 0.82211
 O786 O 0.60214 0.37507 0.81633
 O787 O 0.59691 0.37597 0.92822
 O788 O 0.62363 0.35213 0.93377
 O789 O 0.62399 0.42793 0.90339
 O790 O 0.64701 0.43443 0.87418
 O791 O 0.57200 0.40303 0.87610
 O792 O 0.56569 0.37383 0.85302
 O793 O 0.57234 0.37580 0.90371
 O794 O 0.56613 0.35210 0.87467
 O795 O 0.59638 0.42771 0.87603
 O796 O 0.62551 0.43400 0.85239
 O797 O 0.62392 0.40346 0.92802
 O798 O 0.64779 0.37550 0.93428
 O799 O 0.65322 0.37565 0.82220
 O800 O 0.62460 0.39792 0.81643
 O801 O 0.62491 0.32224 0.84669
 O802 O 0.60108 0.31747 0.87527
 O803 O 0.67788 0.34682 0.87557
 O804 O 0.68363 0.37537 0.89794
 Zr805 Zr 0.66145 0.37446 0.87446
 O806 O 0.64395 0.39363 0.89349
 Zr807 Zr 0.62570 0.33847 0.87449
 O808 O 0.60672 0.35594 0.89384
 Zr809 Zr 0.62556 0.37440 0.83858
 O810 O 0.60635 0.39338 0.85612
 Zr811 Zr 0.62447 0.37578 0.91173
 O812 O 0.64371 0.35638 0.89435
 Zr813 Zr 0.62418 0.41155 0.87568
 O814 O 0.64358 0.39423 0.85640
 Zr815 Zr 0.58851 0.37544 0.87591
 O816 O 0.60590 0.35627 0.85643
 O817 O 0.64461 0.35542 0.85545
 O818 O 0.60517 0.39476 0.89495
 C819 C 0.67200 0.37617 0.82797
 C820 C 0.67216 0.32803 0.87639
 C821 C 0.62426 0.32800 0.82790
 C822 C 0.57813 0.37604 0.92248
 C823 C 0.62380 0.42222 0.92220
 C824 C 0.57765 0.42185 0.87621
 H825 H 0.65320 0.40220 0.90178
 H826 H 0.59782 0.40174 0.84687
 H827 H 0.65342 0.34670 0.84675
 H828 H 0.59844 0.34678 0.90254
 H829 H 0.63368 0.34169 0.92936
 H830 H 0.61908 0.31898 0.90831
 H831 H 0.61424 0.43131 0.84269
 H832 H 0.63399 0.40876 0.82125
 H833 H 0.65779 0.38631 0.93093
 H834 H 0.67883 0.36595 0.90877
 H835 H 0.56856 0.38466 0.84286
 H836 H 0.59124 0.36583 0.82130
 H837 H 0.67869 0.40885 0.86608
 H838 H 0.65718 0.43154 0.88499
 H839 H 0.59137 0.32163 0.86443
 H840 H 0.56890 0.34241 0.88594
 O841 O 0.12391 0.84686 0.82213
 O842 O 0.10173 0.87525 0.81621
 O843 O 0.17724 0.87627 0.84684
 O844 O 0.18482 0.89616 0.87340
 O845 O 0.15262 0.82209 0.87548
 O846 O 0.12427 0.81623 0.89776
 O847 O 0.12326 0.92808 0.90331
 O848 O 0.14713 0.93373 0.87665
 O849 O 0.07141 0.90326 0.87595
 O850 O 0.06506 0.87410 0.85278
 O851 O 0.09612 0.87588 0.92799
 O852 O 0.12527 0.85285 0.93439
 O853 O 0.12336 0.90351 0.92783
 O854 O 0.14704 0.87444 0.93402
 O855 O 0.07155 0.87584 0.90349
 O856 O 0.06538 0.85231 0.87429
 O857 O 0.09581 0.92792 0.87619
 O858 O 0.12387 0.93425 0.85239
 O859 O 0.12387 0.82224 0.84665
 O860 O 0.10149 0.81638 0.87521
 O861 O 0.17714 0.84668 0.87524
 O862 O 0.18176 0.87519 0.89921
 O863 O 0.15271 0.87573 0.82224
 O864 O 0.12417 0.89803 0.81644
 Zr865 Zr 0.12502 0.87451 0.83858
 O866 O 0.10578 0.89347 0.85607
 Zr867 Zr 0.16087 0.87446 0.87448
 O868 O 0.14331 0.89374 0.89346
 Zr869 Zr 0.12499 0.83853 0.87439
 O870 O 0.10593 0.85600 0.89360
 Zr871 Zr 0.12352 0.91167 0.87568
 O872 O 0.14301 0.89436 0.85646
 Zr873 Zr 0.08781 0.87559 0.87575
 O874 O 0.10522 0.85638 0.85634
 Zr875 Zr 0.12378 0.87576 0.91157
 O876 O 0.14302 0.85634 0.89418
 O877 O 0.14402 0.85547 0.85544
 O878 O 0.10449 0.89482 0.89489
 C879 C 0.12342 0.82806 0.82787
 C880 C 0.17147 0.87655 0.82804
 C881 C 0.17139 0.82788 0.87581
 C882 C 0.12315 0.92230 0.92209
 C883 C 0.07707 0.92207 0.87622
 C884 C 0.07733 0.87599 0.92226
 H885 H 0.09723 0.90177 0.84681
 H886 H 0.09755 0.84673 0.90207
 H887 H 0.15278 0.84681 0.84663
 H888 H 0.15244 0.90242 0.90180
 H889 H 0.15762 0.92934 0.86664
 H890 H 0.18030 0.90827 0.88125
 H891 H 0.06807 0.84254 0.88552
 H892 H 0.09070 0.82121 0.86576
 H893 H 0.11304 0.93097 0.84238
 H894 H 0.13352 0.90888 0.82133
 H895 H 0.11453 0.84264 0.93140
 H896 H 0.13344 0.82119 0.90872
 H897 H 0.09072 0.86613 0.82118
 H898 H 0.06793 0.88498 0.84268
 H899 H 0.17760 0.86429 0.90886
 H900 H 0.15672 0.88573 0.93134
 O901 O 0.67760 0.12412 0.65344
 O902 O 0.68359 0.10201 0.62497
 O903 O 0.65309 0.17761 0.62409
 O904 O 0.62664 0.18536 0.60418
 O905 O 0.62424 0.15286 0.67813
 O906 O 0.60191 0.12453 0.68383
 O907 O 0.59681 0.12391 0.57191
 O908 O 0.62349 0.14782 0.56645
 O909 O 0.62392 0.07194 0.59663
 O910 O 0.64695 0.06539 0.62582
 O911 O 0.57189 0.09670 0.62396
 O912 O 0.56544 0.12579 0.64707
 O913 O 0.57220 0.12398 0.59641
 O914 O 0.56595 0.14766 0.62554
 O915 O 0.59631 0.07206 0.62398
 O916 O 0.62542 0.06573 0.64761
 O917 O 0.62383 0.09646 0.57206
 O918 O 0.64771 0.12449 0.56591
 O919 O 0.65299 0.12403 0.67798
 O920 O 0.62438 0.10169 0.68366
 O921 O 0.62462 0.17747 0.65362
 O922 O 0.60076 0.18225 0.62505
 O923 O 0.67764 0.15303 0.62466
 O924 O 0.68349 0.12454 0.60226
 Zr925 Zr 0.66127 0.12536 0.62572
 O926 O 0.64383 0.10623 0.60663
 Zr927 Zr 0.62544 0.16131 0.62578
 O928 O 0.60653 0.14388 0.60636
 Zr929 Zr 0.62535 0.12528 0.66159
 O930 O 0.60618 0.10634 0.64398
 Zr931 Zr 0.62434 0.12411 0.58842
 O932 O 0.64351 0.14348 0.60587
 Zr933 Zr 0.62407 0.08824 0.62438
 O934 O 0.64342 0.10553 0.64372
 Zr935 Zr 0.58833 0.12431 0.62422
 O936 O 0.60566 0.14344 0.64378
 O937 O 0.64438 0.14434 0.64478
 O938 O 0.60506 0.10506 0.60515
 C939 C 0.67178 0.12356 0.67222
 C940 C 0.67187 0.17181 0.62387
 C941 C 0.62398 0.17165 0.67240
 C942 C 0.57802 0.12378 0.57763
 C943 C 0.62372 0.07769 0.57784
 C944 C 0.57757 0.07790 0.62381
 H945 H 0.65311 0.09769 0.59831
 H946 H 0.59766 0.09794 0.65320
 H947 H 0.65316 0.15304 0.65350
 H948 H 0.59824 0.15305 0.59767
 H949 H 0.63351 0.15826 0.57089
 H950 H 0.61886 0.18089 0.59201
 H951 H 0.61414 0.06839 0.65733
 H952 H 0.63384 0.09090 0.67883
 H953 H 0.65767 0.11361 0.56917
 H954 H 0.67866 0.13395 0.59142
 H955 H 0.56838 0.11502 0.65726
 H956 H 0.59099 0.13377 0.67888
 H957 H 0.67856 0.09098 0.63403
 H958 H 0.65712 0.06832 0.61502
 H959 H 0.59108 0.17808 0.63591
 H960 H 0.56865 0.15732 0.61423
 C961 C 0.37683 0.78153 0.71885
 C962 C 0.37668 0.77615 0.69804
 C963 C 0.37635 0.79123 0.68291
 C964 C 0.37617 0.81207 0.68821
 C965 C 0.37642 0.81744 0.70905
 C966 C 0.37674 0.80235 0.72417
 C967 C 0.37694 0.76549 0.73494
 C968 C 0.36498 0.76771 0.75266
 C969 C 0.36497 0.75258 0.76775
 C970 C 0.37693 0.73487 0.76547
 C971 C 0.38891 0.73265 0.74776
 C972 C 0.38891 0.74779 0.73267
 C973 C 0.37683 0.71875 0.78148
 C974 C 0.37666 0.69796 0.77606
 C975 C 0.37633 0.68280 0.79111
 C976 C 0.37619 0.68807 0.81197
 C977 C 0.37647 0.70888 0.81738
 C978 C 0.37678 0.72403 0.80231
 H979 H 0.37648 0.76025 0.69345
 H980 H 0.37609 0.78652 0.66703
 H981 H 0.37634 0.83332 0.71372
 H982 H 0.37712 0.80699 0.74006
 H983 H 0.35533 0.78100 0.75471
 H984 H 0.35532 0.75459 0.78105
 H985 H 0.39852 0.71934 0.74570
 H986 H 0.39853 0.74577 0.71934
 H987 H 0.37643 0.69340 0.76014
 H988 H 0.37606 0.66694 0.78637
 H989 H 0.37642 0.71353 0.83327
 H990 H 0.37718 0.73990 0.80698
 C991 C 0.37689 0.21780 0.28122
 C992 C 0.37677 0.19698 0.27592
 C993 C 0.37644 0.18191 0.29106
 C994 C 0.37621 0.18730 0.31189
 C995 C 0.37642 0.20814 0.31717
 C996 C 0.37676 0.22320 0.30202
 C997 C 0.37702 0.23383 0.26512
 C998 C 0.38903 0.25150 0.26737
 C999 C 0.38904 0.26663 0.25227
 C1000 C 0.37705 0.26443 0.23458
 C1001 C 0.36506 0.24674 0.23232
 C1002 C 0.36505 0.23162 0.24741
 C1003 C 0.37698 0.28053 0.21856
 C1004 C 0.37693 0.27523 0.19773
 C1005 C 0.37665 0.29036 0.18265
 C1006 C 0.37638 0.31118 0.18803
 C1007 C 0.37651 0.31647 0.20888
 C1008 C 0.37682 0.30133 0.22396
 H1009 H 0.37714 0.19233 0.26003
 H1010 H 0.37634 0.16602 0.28641
 H1011 H 0.37618 0.21288 0.33304
 H1012 H 0.37658 0.23911 0.30660
 H1013 H 0.39866 0.25351 0.28068
 H1014 H 0.39867 0.27993 0.25431
 H1015 H 0.35541 0.24475 0.21903
 H1016 H 0.35538 0.21835 0.24538
 H1017 H 0.37733 0.25935 0.19308
 H1018 H 0.37660 0.28569 0.16676
 H1019 H 0.37625 0.33234 0.21360
 H1020 H 0.37659 0.30591 0.23987
 C1021 C 0.62258 0.78078 0.28124
 C1022 C 0.62278 0.80158 0.27586
 C1023 C 0.62313 0.81671 0.29095
 C1024 C 0.62325 0.81140 0.31179
 C1025 C 0.62295 0.79058 0.31716
 C1026 C 0.62262 0.77546 0.30206
 C1027 C 0.62245 0.76470 0.26521
 C1028 C 0.63441 0.74699 0.26742
 C1029 C 0.63438 0.73189 0.25231
 C1030 C 0.62238 0.73414 0.23463
 C1031 C 0.61041 0.75185 0.23241
 C1032 C 0.61044 0.76696 0.24753
 C1033 C 0.62243 0.71812 0.21854
 C1034 C 0.62261 0.72351 0.19773
 C1035 C 0.62290 0.70843 0.18259
 C1036 C 0.62301 0.68759 0.18790
 C1037 C 0.62272 0.68222 0.20873
 C1038 C 0.62245 0.69731 0.22385
 H1039 H 0.62302 0.80616 0.25995
 H1040 H 0.62342 0.83257 0.28624
 H1041 H 0.62299 0.78591 0.33304
 H1042 H 0.62220 0.75958 0.30670
 H1043 H 0.64409 0.74496 0.28070
 H1044 H 0.64402 0.71859 0.25431
 H1045 H 0.60077 0.75389 0.21911
 H1046 H 0.60083 0.78028 0.24553
 H1047 H 0.62287 0.73941 0.19315
 H1048 H 0.62318 0.71314 0.16672
 H1049 H 0.62275 0.66634 0.21340
 H1050 H 0.62204 0.69267 0.23975
 C1051 C 0.12251 0.28073 0.28131
 C1052 C 0.12274 0.30152 0.27590
 C1053 C 0.12308 0.31667 0.29097
 C1054 C 0.12319 0.31139 0.31183
 C1055 C 0.12287 0.29057 0.31722
 C1056 C 0.12254 0.27544 0.30214
 C1057 C 0.12238 0.26462 0.26530
 C1058 C 0.13431 0.24689 0.26756
 C1059 C 0.13427 0.23176 0.25248
 C1060 C 0.12230 0.23400 0.23478
 C1061 C 0.11036 0.25172 0.23252
 C1062 C 0.11040 0.26686 0.24761
 C1063 C 0.12235 0.21795 0.21870
 C1064 C 0.12256 0.22331 0.19789
 C1065 C 0.12287 0.20822 0.18277
 C1066 C 0.12296 0.18738 0.18810
 C1067 C 0.12264 0.18204 0.20893
 C1068 C 0.12235 0.19715 0.22404
 H1069 H 0.12299 0.30608 0.25999
 H1070 H 0.12340 0.33253 0.28625
 H1071 H 0.12289 0.28592 0.33311
 H1072 H 0.12210 0.25956 0.30680
 H1073 H 0.14397 0.24487 0.28085
 H1074 H 0.14389 0.21845 0.25451
 H1075 H 0.10074 0.25376 0.21920
 H1076 H 0.10081 0.28020 0.24557
 H1077 H 0.12283 0.23921 0.19329
 H1078 H 0.12318 0.21291 0.16689
 H1079 H 0.12265 0.16617 0.21362
 H1080 H 0.12191 0.19253 0.23994
 C1081 C 0.12214 0.71873 0.71856
 C1082 C 0.12221 0.72402 0.69774
 C1083 C 0.12253 0.70888 0.68266
 C1084 C 0.12282 0.68807 0.68805
 C1085 C 0.12266 0.68279 0.70891
 C1086 C 0.12231 0.69794 0.72397
 C1087 C 0.12204 0.73485 0.73457
 C1088 C 0.11002 0.73265 0.75226
 C1089 C 0.11000 0.74779 0.76734
 C1090 C 0.12200 0.76547 0.76509
 C1091 C 0.13400 0.76767 0.74739
 C1092 C 0.13402 0.75254 0.73231
 C1093 C 0.12210 0.78151 0.78117
 C1094 C 0.12218 0.80232 0.77585
 C1095 C 0.12249 0.81742 0.79098
 C1096 C 0.12274 0.81205 0.81181
 C1097 C 0.12258 0.79121 0.81711
 C1098 C 0.12225 0.77613 0.80198
 H1099 H 0.12180 0.73990 0.69308
 H1100 H 0.12259 0.71353 0.66677
 H1101 H 0.12294 0.66693 0.71363
 H1102 H 0.12253 0.69338 0.73989
 H1103 H 0.10039 0.71935 0.75430
 H1104 H 0.10036 0.74580 0.78066
 H1105 H 0.14367 0.78095 0.74537
 H1106 H 0.14370 0.75452 0.71902
 H1107 H 0.12179 0.80696 0.75996
 H1108 H 0.12255 0.83330 0.78631
 H1109 H 0.12283 0.78650 0.83299
 H1110 H 0.12247 0.76023 0.80657
 C1111 C 0.87735 0.21806 0.78099
 C1112 C 0.87720 0.19724 0.77569
 C1113 C 0.87686 0.18218 0.79083
 C1114 C 0.87665 0.18758 0.81165
 C1115 C 0.87689 0.20842 0.81694
 C1116 C 0.87724 0.22348 0.80179
 C1117 C 0.87747 0.23407 0.76490
 C1118 C 0.88954 0.25170 0.76710
 C1119 C 0.88952 0.26682 0.75201
 C1120 C 0.87744 0.26465 0.73437
 C1121 C 0.86540 0.24700 0.73216
 C1122 C 0.86541 0.23188 0.74725
 C1123 C 0.87731 0.28076 0.71838
 C1124 C 0.87721 0.27548 0.69756
 C1125 C 0.87686 0.29062 0.68250
 C1126 C 0.87660 0.31143 0.68792
 C1127 C 0.87679 0.31670 0.70878
 C1128 C 0.87716 0.30154 0.72382
 H1129 H 0.87755 0.19259 0.75980
 H1130 H 0.87674 0.16629 0.78618
 H1131 H 0.87666 0.21316 0.83281
 H1132 H 0.87708 0.23939 0.80636
 H1133 H 0.89923 0.25368 0.78037
 H1134 H 0.89920 0.28010 0.75400
 H1135 H 0.85568 0.24504 0.71891
 H1136 H 0.85570 0.21864 0.74527
 H1137 H 0.87760 0.25960 0.69288
 H1138 H 0.87677 0.28599 0.66660
 H1139 H 0.87653 0.33256 0.71353
 H1140 H 0.87697 0.30609 0.73975
 C1141 C 0.78098 0.37755 0.71844
 C1142 C 0.77567 0.37757 0.69762
 C1143 C 0.79079 0.37717 0.68253
 C1144 C 0.81159 0.37671 0.68791
 C1145 C 0.81689 0.37678 0.70876
 C1146 C 0.80176 0.37721 0.72384
 C1147 C 0.76491 0.37770 0.73447
 C1148 C 0.76719 0.38967 0.75217
 C1149 C 0.75212 0.38968 0.76731
 C1150 C 0.73441 0.37772 0.76509
 C1151 C 0.73212 0.36577 0.74737
 C1152 C 0.74719 0.36576 0.73223
 C1153 C 0.71844 0.37763 0.78121
 C1154 C 0.69762 0.37764 0.77593
 C1155 C 0.68257 0.37730 0.79109
 C1156 C 0.68798 0.37692 0.81190
 C1157 C 0.70882 0.37700 0.81717
 C1158 C 0.72386 0.37736 0.80200
 H1159 H 0.75979 0.37809 0.69298
 H1160 H 0.78613 0.37717 0.66664
 H1161 H 0.83274 0.37637 0.71348
 H1162 H 0.80633 0.37692 0.73975
 H1163 H 0.78053 0.39926 0.75419
 H1164 H 0.75418 0.39928 0.78064
 H1165 H 0.71882 0.35614 0.74537
 H1166 H 0.74514 0.35612 0.71893
 H1167 H 0.69296 0.37812 0.76005
 H1168 H 0.66669 0.37730 0.78645
 H1169 H 0.71355 0.37664 0.83303
 H1170 H 0.73977 0.37708 0.80655
 C1171 C 0.28062 0.62194 0.78159
 C1172 C 0.27530 0.62200 0.80241
 C1173 C 0.29042 0.62241 0.81749
 C1174 C 0.31123 0.62278 0.81211
 C1175 C 0.31653 0.62262 0.79125
 C1176 C 0.30140 0.62219 0.77618
 C1177 C 0.26454 0.62179 0.76556
 C1178 C 0.26681 0.60978 0.74788
 C1179 C 0.25174 0.60978 0.73273
 C1180 C 0.23406 0.62180 0.73493
 C1181 C 0.23179 0.63378 0.75263
 C1182 C 0.24685 0.63378 0.76777
 C1183 C 0.21809 0.62192 0.71880
 C1184 C 0.19728 0.62204 0.72407
 C1185 C 0.18224 0.62244 0.70891
 C1186 C 0.18766 0.62274 0.68809
 C1187 C 0.20851 0.62250 0.68283
 C1188 C 0.22354 0.62209 0.69800
 H1189 H 0.25943 0.62155 0.80706
 H1190 H 0.28576 0.62248 0.83339
 H1191 H 0.33239 0.62296 0.78652
 H1192 H 0.30598 0.62241 0.76027
 H1193 H 0.28012 0.60015 0.74588
 H1194 H 0.25379 0.60014 0.71942
 H1195 H 0.21851 0.64347 0.75461
 H1196 H 0.24482 0.64345 0.78105
 H1197 H 0.19259 0.62164 0.73995
 H1198 H 0.16635 0.62256 0.71355
 H1199 H 0.21326 0.62279 0.66697
 H1200 H 0.23945 0.62226 0.69346
 C1201 C 0.28053 0.12138 0.28198
 C1202 C 0.27523 0.12162 0.30281
 C1203 C 0.29036 0.12201 0.31789
 C1204 C 0.31117 0.12219 0.31248
 C1205 C 0.31645 0.12185 0.29163
 C1206 C 0.30131 0.12144 0.27657
 C1207 C 0.26445 0.12125 0.26596
 C1208 C 0.26664 0.10910 0.24835
 C1209 C 0.25159 0.10914 0.23319
 C1210 C 0.23402 0.12133 0.23527
 C1211 C 0.23182 0.13344 0.25290
 C1212 C 0.24686 0.13340 0.26807
 C1213 C 0.21808 0.12150 0.21911
 C1214 C 0.19726 0.12184 0.22433
 C1215 C 0.18225 0.12222 0.20914
 C1216 C 0.18772 0.12228 0.18833
 C1217 C 0.20857 0.12185 0.18311
 C1218 C 0.22357 0.12146 0.19832
 H1219 H 0.25935 0.12132 0.30747
 H1220 H 0.28571 0.12223 0.33378
 H1221 H 0.33230 0.12204 0.28688
 H1222 H 0.30588 0.12152 0.26065
 H1223 H 0.27987 0.09935 0.24643
 H1224 H 0.25358 0.09941 0.21994
 H1225 H 0.21863 0.14325 0.25481
 H1226 H 0.24489 0.14317 0.28129
 H1227 H 0.19254 0.12160 0.24020
 H1228 H 0.16636 0.12249 0.21374
 H1229 H 0.21335 0.12196 0.16726
 H1230 H 0.23949 0.12147 0.19380
 C1231 C 0.78076 0.12184 0.78175
 C1232 C 0.77550 0.12188 0.80259
 C1233 C 0.79065 0.12225 0.81764
 C1234 C 0.81145 0.12263 0.81221
 C1235 C 0.81670 0.12249 0.79134
 C1236 C 0.80154 0.12210 0.77630
 C1237 C 0.76466 0.12172 0.76575
 C1238 C 0.76692 0.10977 0.74802
 C1239 C 0.75184 0.10981 0.73289
 C1240 C 0.73416 0.12181 0.73514
 C1241 C 0.73188 0.13373 0.75289
 C1242 C 0.74696 0.13368 0.76801
 C1243 C 0.71818 0.12198 0.71901
 C1244 C 0.69736 0.12203 0.72428
 C1245 C 0.68233 0.12242 0.70912
 C1246 C 0.68775 0.12278 0.68830
 C1247 C 0.70859 0.12264 0.68304
 C1248 C 0.72362 0.12223 0.69822
 H1249 H 0.75963 0.12142 0.80727
 H1250 H 0.78603 0.12230 0.83354
 H1251 H 0.83254 0.12284 0.78657
 H1252 H 0.80608 0.12235 0.76038
 H1253 H 0.78024 0.10015 0.74598
 H1254 H 0.75389 0.10023 0.71955
 H1255 H 0.71859 0.14338 0.75491
 H1256 H 0.74492 0.14331 0.78133
 H1257 H 0.69268 0.12156 0.74016
 H1258 H 0.66644 0.12247 0.71375
 H1259 H 0.71335 0.12298 0.66718
 H1260 H 0.73954 0.12247 0.69367
 C1261 C 0.71871 0.87723 0.28137
 C1262 C 0.72402 0.87732 0.30220
 C1263 C 0.70889 0.87704 0.31730
 C1264 C 0.68808 0.87664 0.31194
 C1265 C 0.68279 0.87665 0.29108
 C1266 C 0.69792 0.87696 0.27600
 C1267 C 0.73479 0.87723 0.26532
 C1268 C 0.73250 0.88905 0.24752
 C1269 C 0.74757 0.88891 0.23235
 C1270 C 0.76527 0.87695 0.23465
 C1271 C 0.76756 0.86515 0.25246
 C1272 C 0.75250 0.86529 0.26762
 C1273 C 0.78126 0.87671 0.21850
 C1274 C 0.80208 0.87669 0.22377
 C1275 C 0.81713 0.87628 0.20861
 C1276 C 0.81173 0.87587 0.18779
 C1277 C 0.79089 0.87597 0.18253
 C1278 C 0.77584 0.87639 0.19771
 H1279 H 0.73989 0.87780 0.30683
 H1280 H 0.71355 0.87708 0.33319
 H1281 H 0.66693 0.87628 0.28637
 H1282 H 0.69334 0.87661 0.26009
 H1283 H 0.71918 0.89864 0.24543
 H1284 H 0.74550 0.89841 0.21895
 H1285 H 0.78086 0.85551 0.25453
 H1286 H 0.75455 0.85575 0.28100
 H1287 H 0.80675 0.87721 0.23965
 H1288 H 0.83301 0.87628 0.21325
 H1289 H 0.78615 0.87559 0.16667
 H1290 H 0.75994 0.87613 0.19316
 C1291 C 0.78128 0.71841 0.37717
 C1292 C 0.77589 0.69762 0.37713
 C1293 C 0.79095 0.68248 0.37679
 C1294 C 0.81178 0.68778 0.37649
 C1295 C 0.81716 0.70860 0.37663
 C1296 C 0.80208 0.72373 0.37695
 C1297 C 0.76526 0.73448 0.37728
 C1298 C 0.76738 0.75208 0.36514
 C1299 C 0.75225 0.76715 0.36513
 C1300 C 0.73465 0.76497 0.37726
 C1301 C 0.73253 0.74738 0.38942
 C1302 C 0.74767 0.73231 0.38943
 C1303 C 0.71854 0.78095 0.37715
 C1304 C 0.69776 0.77552 0.37712
 C1305 C 0.68260 0.79056 0.37679
 C1306 C 0.68787 0.81141 0.37652
 C1307 C 0.70867 0.81682 0.37666
 C1308 C 0.72382 0.80176 0.37696
 H1309 H 0.75999 0.69304 0.37703
 H1310 H 0.78623 0.66662 0.37663
 H1311 H 0.83304 0.71326 0.37645
 H1312 H 0.80672 0.73961 0.37724
 H1313 H 0.78060 0.75403 0.35536
 H1314 H 0.75417 0.78036 0.35534
 H1315 H 0.71929 0.74541 0.39916
 H1316 H 0.74574 0.71907 0.39918
 H1317 H 0.69322 0.75960 0.37700
 H1318 H 0.66675 0.78582 0.37663
 H1319 H 0.71331 0.83271 0.37650
 H1320 H 0.73969 0.80643 0.37726
 C1321 C 0.78132 0.28082 0.62263
 C1322 C 0.77601 0.30164 0.62267
 C1323 C 0.79113 0.31671 0.62299
 C1324 C 0.81194 0.31133 0.62329
 C1325 C 0.81724 0.29049 0.62316
 C1326 C 0.80211 0.27542 0.62283
 C1327 C 0.76522 0.26482 0.62252
 C1328 C 0.76745 0.24713 0.61051
 C1329 C 0.75230 0.23208 0.61046
 C1330 C 0.73458 0.23437 0.62240
 C1331 C 0.73236 0.25206 0.63440
 C1332 C 0.74750 0.26711 0.63446
 C1333 C 0.71851 0.21834 0.62245
 C1334 C 0.69772 0.22372 0.62242
 C1335 C 0.68260 0.20864 0.62273
 C1336 C 0.68791 0.18781 0.62310
 C1337 C 0.70873 0.18244 0.62302
 C1338 C 0.72384 0.19753 0.62268
 H1339 H 0.76013 0.30629 0.62224
 H1340 H 0.78646 0.33259 0.62303
 H1341 H 0.83310 0.28578 0.62345
 H1342 H 0.80668 0.25952 0.62306
 H1343 H 0.78078 0.24507 0.60092
 H1344 H 0.75431 0.21876 0.60082
 H1345 H 0.71905 0.25411 0.64403
 H1346 H 0.74549 0.28039 0.64413
 H1347 H 0.69313 0.23961 0.62196
 H1348 H 0.66673 0.21335 0.62274
 H1349 H 0.71340 0.16657 0.62336
 H1350 H 0.73973 0.19290 0.62297
 C1351 C 0.71833 0.71803 0.12232
 C1352 C 0.69754 0.72342 0.12242
 C1353 C 0.68242 0.70835 0.12281
 C1354 C 0.68772 0.68751 0.12313
 C1355 C 0.70854 0.68214 0.12295
 C1356 C 0.72366 0.69722 0.12254
 C1357 C 0.73441 0.73407 0.12212
 C1358 C 0.75204 0.73174 0.11005
 C1359 C 0.76718 0.74681 0.10994
 C1360 C 0.76504 0.76454 0.12190
 C1361 C 0.74741 0.76685 0.13397
 C1362 C 0.73227 0.75179 0.13408
 C1363 C 0.78115 0.78054 0.12187
 C1364 C 0.77585 0.80136 0.12195
 C1365 C 0.79098 0.81642 0.12222
 C1366 C 0.81179 0.81104 0.12243
 C1367 C 0.81708 0.79019 0.12222
 C1368 C 0.80194 0.77513 0.12194
 H1369 H 0.69295 0.73932 0.12199
 H1370 H 0.66655 0.71307 0.12289
 H1371 H 0.71320 0.66626 0.12325
 H1372 H 0.73954 0.69259 0.12273
 H1373 H 0.75398 0.71840 0.10044
 H1374 H 0.78044 0.74472 0.10025
 H1375 H 0.74547 0.78017 0.14362
 H1376 H 0.71903 0.75387 0.14380
 H1377 H 0.75998 0.80602 0.12161
 H1378 H 0.78632 0.83231 0.12231
 H1379 H 0.83294 0.78547 0.12245
 H1380 H 0.80651 0.75922 0.12214
 C1381 C 0.28127 0.28033 0.12297
 C1382 C 0.27593 0.30113 0.12295
 C1383 C 0.29102 0.31623 0.12317
 C1384 C 0.31185 0.31089 0.12343
 C1385 C 0.31718 0.29005 0.12336
 C1386 C 0.30206 0.27496 0.12313
 C1387 C 0.26519 0.26430 0.12296
 C1388 C 0.26741 0.24656 0.11102
 C1389 C 0.25228 0.23149 0.11105
 C1390 C 0.23458 0.23380 0.12301
 C1391 C 0.23236 0.25153 0.13496
 C1392 C 0.24749 0.26660 0.13493
 C1393 C 0.21850 0.21777 0.12310
 C1394 C 0.19771 0.22316 0.12307
 C1395 C 0.18258 0.20809 0.12334
 C1396 C 0.18788 0.18726 0.12367
 C1397 C 0.20870 0.18188 0.12363
 C1398 C 0.22382 0.19696 0.12334
 H1399 H 0.26004 0.30576 0.12255
 H1400 H 0.28634 0.33211 0.12316
 H1401 H 0.33305 0.28536 0.12363
 H1402 H 0.30666 0.25906 0.12341
 H1403 H 0.28073 0.24448 0.10141
 H1404 H 0.25429 0.21814 0.10146
 H1405 H 0.21906 0.25361 0.14460
 H1406 H 0.24548 0.27992 0.14456
 H1407 H 0.19313 0.23906 0.12262
 H1408 H 0.16672 0.21281 0.12332
 H1409 H 0.21336 0.16600 0.12395
 H1410 H 0.23970 0.19232 0.12363
 C1411 C 0.28105 0.71889 0.87715
 C1412 C 0.27569 0.69809 0.87701
 C1413 C 0.29078 0.68297 0.87673
 C1414 C 0.31161 0.68827 0.87661
 C1415 C 0.31696 0.70910 0.87684
 C1416 C 0.30186 0.72422 0.87710
 C1417 C 0.26499 0.73496 0.87722
 C1418 C 0.26720 0.75265 0.86522
 C1419 C 0.25204 0.76771 0.86517
 C1420 C 0.23433 0.76544 0.87712
 C1421 C 0.23213 0.74776 0.88914
 C1422 C 0.24729 0.73270 0.88919
 C1423 C 0.21819 0.78143 0.87700
 C1424 C 0.19741 0.77600 0.87687
 C1425 C 0.18223 0.79104 0.87657
 C1426 C 0.18748 0.81189 0.87641
 C1427 C 0.20828 0.81730 0.87662
 C1428 C 0.22344 0.80226 0.87690
 H1429 H 0.25980 0.69349 0.87677
 H1430 H 0.28607 0.66710 0.87648
 H1431 H 0.33283 0.71377 0.87680
 H1432 H 0.30648 0.74010 0.87748
 H1433 H 0.28050 0.75469 0.85558
 H1434 H 0.25404 0.78099 0.85550
 H1435 H 0.21881 0.74571 0.89876
 H1436 H 0.24528 0.71940 0.89884
 H1437 H 0.19287 0.76008 0.87667
 H1438 H 0.16638 0.78629 0.87635
 H1439 H 0.21291 0.83320 0.87655
 H1440 H 0.23931 0.80694 0.87727
 C1441 C 0.28131 0.21848 0.37736
 C1442 C 0.27591 0.19769 0.37727
 C1443 C 0.29098 0.18256 0.37698
 C1444 C 0.31181 0.18785 0.37678
 C1445 C 0.31719 0.20867 0.37697
 C1446 C 0.30211 0.22379 0.37724
 C1447 C 0.26529 0.23455 0.37743
 C1448 C 0.26745 0.25216 0.36532
 C1449 C 0.25231 0.26722 0.36525
 C1450 C 0.23466 0.26502 0.37731
 C1451 C 0.23251 0.24742 0.38945
 C1452 C 0.24765 0.23236 0.38951
 C1453 C 0.21854 0.28099 0.37716
 C1454 C 0.19777 0.27555 0.37706
 C1455 C 0.18260 0.29059 0.37672
 C1456 C 0.18786 0.31144 0.37649
 C1457 C 0.20866 0.31685 0.37668
 C1458 C 0.22381 0.30181 0.37700
 H1459 H 0.26001 0.19312 0.37708
 H1460 H 0.28625 0.16669 0.37677
 H1461 H 0.33307 0.21332 0.37687
 H1462 H 0.30675 0.23968 0.37758
 H1463 H 0.28070 0.25413 0.35559
 H1464 H 0.25426 0.28044 0.35549
 H1465 H 0.21923 0.24544 0.39914
 H1466 H 0.24569 0.21911 0.39924
 H1467 H 0.19323 0.25963 0.37691
 H1468 H 0.16675 0.28584 0.37651
 H1469 H 0.21329 0.33275 0.37656
 H1470 H 0.23968 0.30649 0.37735
 C1471 C 0.53092 0.62247 1.03121
 C1472 C 0.52564 0.62254 1.05204
 C1473 C 0.54077 0.62282 1.06710
 C1474 C 0.56158 0.62307 1.06169
 C1475 C 0.56685 0.62290 1.04083
 C1476 C 0.55170 0.62260 1.02578
 C1477 C 0.51480 0.62237 1.01523
 C1478 C 0.51696 0.61033 0.99755
 C1479 C 0.50181 0.61032 0.98249
 C1480 C 0.48415 0.62235 0.98477
 C1481 C 0.48198 0.63436 1.00246
 C1482 C 0.49712 0.63437 1.01751
 C1483 C 0.46810 0.62246 0.96872
 C1484 C 0.44730 0.62255 0.97408
 C1485 C 0.43219 0.62288 0.95899
 C1486 C 0.43752 0.62315 0.93815
 C1487 C 0.45835 0.62297 0.93280
 C1488 C 0.47344 0.62262 0.94790
 H1489 H 0.50976 0.62214 1.05672
 H1490 H 0.53613 0.62282 1.08300
 H1491 H 0.58271 0.62309 1.03609
 H1492 H 0.55625 0.62279 1.00986
 H1493 H 0.53026 0.60069 0.99549
 H1494 H 0.50378 0.60067 0.96918
 H1495 H 0.46871 0.64404 1.00451
 H1496 H 0.49516 0.64406 1.03080
 H1497 H 0.44269 0.62214 0.98998
 H1498 H 0.41632 0.62289 0.96369
 H1499 H 0.46304 0.62317 0.91691
 H1500 H 0.48934 0.62281 0.94328
 C1501 C 0.46859 0.12235 0.46855
 C1502 C 0.44782 0.12259 0.47404
 C1503 C 0.43263 0.12288 0.45902
 C1504 C 0.43784 0.12293 0.43815
 C1505 C 0.45863 0.12259 0.43268
 C1506 C 0.47381 0.12231 0.44770
 C1507 C 0.48475 0.12228 0.48449
 C1508 C 0.50245 0.13421 0.48212
 C1509 C 0.51761 0.13425 0.49716
 C1510 C 0.51543 0.12236 0.51492
 C1511 C 0.49775 0.11038 0.51728
 C1512 C 0.48258 0.11034 0.50223
 C1513 C 0.53147 0.12255 0.53098
 C1514 C 0.52611 0.12286 0.55179
 C1515 C 0.54119 0.12325 0.56691
 C1516 C 0.56202 0.12334 0.56158
 C1517 C 0.56737 0.12294 0.54074
 C1518 C 0.55228 0.12256 0.52563
 H1519 H 0.44331 0.12286 0.48997
 H1520 H 0.41678 0.12314 0.46381
 H1521 H 0.46323 0.12251 0.41677
 H1522 H 0.48967 0.12184 0.44298
 H1523 H 0.50442 0.14382 0.46878
 H1524 H 0.53090 0.14389 0.49505
 H1525 H 0.49577 0.10081 0.53064
 H1526 H 0.46927 0.10075 0.50436
 H1527 H 0.51021 0.12311 0.55639
 H1528 H 0.53648 0.12356 0.58278
 H1529 H 0.58325 0.12288 0.53607
 H1530 H 0.55690 0.12205 0.50974
 C1531 C 0.53097 0.87673 0.46855
 C1532 C 0.52570 0.87660 0.44772
 C1533 C 0.54084 0.87626 0.43265
 C1534 C 0.56165 0.87602 0.43804
 C1535 C 0.56692 0.87623 0.45890
 C1536 C 0.55176 0.87659 0.47396
 C1537 C 0.51485 0.87689 0.48455
 C1538 C 0.51704 0.88894 0.50222
 C1539 C 0.50189 0.88902 0.51730
 C1540 C 0.48420 0.87705 0.51506
 C1541 C 0.48199 0.86502 0.49738
 C1542 C 0.49714 0.86494 0.48231
 C1543 C 0.46814 0.87700 0.53114
 C1544 C 0.44734 0.87693 0.52580
 C1545 C 0.43223 0.87669 0.54091
 C1546 C 0.43756 0.87648 0.56175
 C1547 C 0.45839 0.87664 0.56708
 C1548 C 0.47349 0.87691 0.55195
 H1549 H 0.50983 0.87700 0.44305
 H1550 H 0.53620 0.87623 0.41675
 H1551 H 0.58278 0.87605 0.46363
 H1552 H 0.55631 0.87643 0.48988
 H1553 H 0.53036 0.89856 0.50425
 H1554 H 0.50389 0.89869 0.53059
 H1555 H 0.46870 0.85537 0.49536
 H1556 H 0.49515 0.85524 0.46904
 H1557 H 0.44272 0.87729 0.50990
 H1558 H 0.41636 0.87668 0.53623
 H1559 H 0.46308 0.87648 0.58295
 H1560 H 0.48938 0.87671 0.55656
 C1561 C 1.03110 0.37681 0.46858
 C1562 C 1.02580 0.37670 0.44776
 C1563 C 1.04093 0.37636 0.43268
 C1564 C 1.06173 0.37609 0.43807
 C1565 C 1.06702 0.37630 0.45891
 C1566 C 1.05188 0.37665 0.47399
 C1567 C 1.01500 0.37696 0.48458
 C1568 C 1.01718 0.38905 0.50222
 C1569 C 1.00204 0.38910 0.51730
 C1570 C 0.98439 0.37707 0.51509
 C1571 C 0.98221 0.36500 0.49744
 C1572 C 0.99733 0.36495 0.48236
 C1573 C 0.96836 0.37699 0.53116
 C1574 C 0.94756 0.37692 0.52582
 C1575 C 0.93247 0.37662 0.54094
 C1576 C 0.93783 0.37635 0.56177
 C1577 C 0.95865 0.37653 0.56709
 C1578 C 0.97373 0.37685 0.55196
 H1579 H 1.00993 0.37711 0.44311
 H1580 H 1.03627 0.37633 0.41679
 H1581 H 1.08288 0.37610 0.46363
 H1582 H 1.05644 0.37649 0.48990
 H1583 H 1.03046 0.39871 0.50422
 H1584 H 1.00402 0.39880 0.53058
 H1585 H 0.96894 0.35531 0.49545
 H1586 H 0.99537 0.35522 0.46911
 H1587 H 0.94294 0.37732 0.50993
 H1588 H 0.91659 0.37661 0.53627
 H1589 H 0.96335 0.37633 0.58297
 H1590 H 0.98963 0.37665 0.55655
 C1591 C -0.03222 0.87665 1.03141
 C1592 C -0.02696 0.87646 1.05223
 C1593 C -0.04210 0.87610 1.06730
 C1594 C -0.06298 0.87590 1.06196
 C1595 C -0.06817 0.87620 1.04103
 C1596 C -0.05299 0.87657 1.02599
 C1597 C -0.01607 0.87680 1.01542
 C1598 C -0.01822 0.88890 0.99779
 C1599 C -0.00304 0.88897 0.98273
 C1600 C 0.01463 0.87694 0.98496
 C1601 C 0.01677 0.86487 1.00261
 C1602 C 0.00160 0.86480 1.01766
 C1603 C 0.03070 0.87688 0.96890
 C1604 C 0.05150 0.87674 0.97426
 C1605 C 0.06662 0.87649 0.95916
 C1606 C 0.06130 0.87633 0.93832
 C1607 C 0.04048 0.87655 0.93298
 C1608 C 0.02537 0.87683 0.94809
 H1609 H -0.01109 0.87682 1.05690
 H1610 H -0.03732 0.87601 1.08316
 H1611 H -0.08399 0.87606 1.03615
 H1612 H -0.05752 0.87647 1.01007
 H1613 H -0.03151 0.89856 0.99576
 H1614 H -0.00500 0.89867 0.96946
 H1615 H 0.03004 0.85518 1.00462
 H1616 H 0.00356 0.85506 1.03090
 H1617 H 0.05610 0.87707 0.99016
 H1618 H 0.08249 0.87644 0.96385
 H1619 H 0.03580 0.87643 0.91710
 H1620 H 0.00948 0.87668 0.94347
 C1621 C -0.03116 0.12229 -0.03169
 C1622 C -0.05194 0.12255 -0.02623
 C1623 C -0.06711 0.12291 -0.04127
 C1624 C -0.06186 0.12301 -0.06213
 C1625 C -0.04106 0.12265 -0.06757
 C1626 C -0.02590 0.12230 -0.05253
 C1627 C -0.01504 0.12213 -0.01571
 C1628 C 0.00269 0.13404 -0.01800
 C1629 C 0.01781 0.13402 -0.00291
 C1630 C 0.01556 0.12208 0.01481
 C1631 C -0.00215 0.11012 0.01708
 C1632 C -0.01727 0.11015 0.00199
 C1633 C 0.03155 0.12221 0.03092
 C1634 C 0.02613 0.12244 0.05171
 C1635 C 0.04117 0.12276 0.06688
 C1636 C 0.06201 0.12285 0.06161
 C1637 C 0.06742 0.12252 0.04079
 C1638 C 0.05237 0.12222 0.02563
 H1639 H -0.05647 0.12280 -0.01031
 H1640 H -0.08296 0.12319 -0.03651
 H1641 H -0.03644 0.12260 -0.08348
 H1642 H -0.01004 0.12181 -0.05722
 H1643 H 0.00471 0.14369 -0.03130
 H1644 H 0.03111 0.14364 -0.00496
 H1645 H -0.00418 0.10051 0.03041
 H1646 H -0.03060 0.10056 0.00405
 H1647 H 0.01022 0.12269 0.05627
 H1648 H 0.03642 0.12301 0.08274
 H1649 H 0.08331 0.12247 0.03615
 H1650 H 0.05704 0.12176 0.00975
 C1651 C 0.12287 1.03117 1.03185
 C1652 C 0.12300 1.05197 1.02655
 C1653 C 0.12339 1.06706 1.04167
 C1654 C 0.12365 1.06175 1.06258
 C1655 C 0.12344 1.04084 1.06780
 C1656 C 0.12307 1.02578 1.05264
 C1657 C 0.12264 1.01515 1.01576
 C1658 C 0.13464 0.99745 1.01781
 C1659 C 0.13451 0.98240 1.00264
 C1660 C 0.12237 0.98470 0.98506
 C1661 C 0.11035 1.00240 0.98300
 C1662 C 0.11049 1.01745 0.99818
 C1663 C 0.12233 0.96873 0.96890
 C1664 C 0.12231 0.97417 0.94811
 C1665 C 0.12253 0.95914 0.93292
 C1666 C 0.12277 0.93828 0.93817
 C1667 C 0.12265 0.93286 0.95899
 C1668 C 0.12244 0.94791 0.97416
 H1669 H 0.12311 1.05661 1.01065
 H1670 H 0.12354 1.08291 1.03687
 H1671 H 0.12351 1.03597 1.08364
 H1672 H 0.12269 1.00988 1.05721
 H1673 H 0.14441 0.99538 1.03101
 H1674 H 0.14419 0.96911 1.00451
 H1675 H 0.10061 1.00447 0.96979
 H1676 H 0.10084 1.03077 0.99630
 H1677 H 0.12246 0.99009 0.94357
 H1678 H 0.12261 0.96388 0.91706
 H1679 H 0.12270 0.91697 0.96362
 H1680 H 0.12216 0.94322 0.99004
 C1681 C 0.12234 0.46861 0.46837
 C1682 C 0.12240 0.47394 0.44755
 C1683 C 0.12273 0.45883 0.43244
 C1684 C 0.12305 0.43801 0.43780
 C1685 C 0.12289 0.43269 0.45864
 C1686 C 0.12253 0.44781 0.47374
 C1687 C 0.12224 0.48468 0.48442
 C1688 C 0.11024 0.48242 0.50212
 C1689 C 0.11029 0.49749 0.51728
 C1690 C 0.12232 0.51515 0.51509
 C1691 C 0.13429 0.51740 0.49738
 C1692 C 0.13425 0.50235 0.48222
 C1693 C 0.12247 0.53113 0.53123
 C1694 C 0.12258 0.55195 0.52595
 C1695 C 0.12293 0.56701 0.54110
 C1696 C 0.12320 0.56160 0.56193
 C1697 C 0.12298 0.54076 0.56720
 C1698 C 0.12262 0.52571 0.55202
 H1699 H 0.12196 0.48983 0.44293
 H1700 H 0.12273 0.46350 0.41655
 H1701 H 0.12313 0.41682 0.46335
 H1702 H 0.12274 0.44322 0.48964
 H1703 H 0.10059 0.46913 0.50411
 H1704 H 0.10066 0.49545 0.53060
 H1705 H 0.14399 0.53067 0.49540
 H1706 H 0.14391 0.50437 0.46893
 H1707 H 0.12217 0.55662 0.51007
 H1708 H 0.12297 0.58289 0.53646
 H1709 H 0.12317 0.53603 0.58307
 H1710 H 0.12278 0.50980 0.55658
 C1711 C 0.37684 0.46810 1.03118
 C1712 C 0.37678 0.44727 1.02589
 C1713 C 0.37648 0.43221 1.04103
 C1714 C 0.37620 0.43760 1.06186
 C1715 C 0.37636 0.45845 1.06715
 C1716 C 0.37669 0.47351 1.05198
 C1717 C 0.37694 0.48410 1.01505
 C1718 C 0.38891 0.50180 1.01726
 C1719 C 0.38890 0.51689 1.00212
 C1720 C 0.37692 0.51462 0.98442
 C1721 C 0.36499 0.49689 0.98220
 C1722 C 0.36500 0.48182 0.99734
 C1723 C 0.37677 0.53071 0.96838
 C1724 C 0.37671 0.52540 0.94756
 C1725 C 0.37636 0.54053 0.93247
 C1726 C 0.37604 0.56135 0.93785
 C1727 C 0.37619 0.56664 0.95870
 C1728 C 0.37656 0.55150 0.97378
 H1729 H 0.37720 0.44261 1.01001
 H1730 H 0.37648 0.41632 1.03638
 H1731 H 0.37616 0.46318 1.08302
 H1732 H 0.37649 0.48942 1.05655
 H1733 H 0.39851 0.50387 1.03058
 H1734 H 0.39849 0.53022 1.00414
 H1735 H 0.35534 0.49484 0.96891
 H1736 H 0.35536 0.46851 0.99533
 H1737 H 0.37716 0.50952 0.94290
 H1738 H 0.37638 0.53587 0.91657
 H1739 H 0.37594 0.58250 0.96343
 H1740 H 0.37635 0.55608 0.98969
 C1741 C 0.87703 0.53127 0.46888
 C1742 C 0.87676 0.52579 0.44810
 C1743 C 0.87639 0.54081 0.43290
 C1744 C 0.87629 0.56166 0.43814
 C1745 C 0.87666 0.56712 0.45895
 C1746 C 0.87701 0.55210 0.47413
 C1747 C 0.87719 0.51532 0.48503
 C1748 C 0.86525 0.51762 0.50275
 C1749 C 0.86528 0.50257 0.51790
 C1750 C 0.87725 0.48487 0.51568
 C1751 C 0.88923 0.48259 0.49798
 C1752 C 0.88920 0.49765 0.48282
 C1753 C 0.87712 0.46879 0.53170
 C1754 C 0.87685 0.44801 0.52629
 C1755 C 0.87649 0.43287 0.54135
 C1756 C 0.87639 0.43817 0.56220
 C1757 C 0.87676 0.45898 0.56760
 C1758 C 0.87711 0.47411 0.55252
 H1759 H 0.87652 0.50987 0.44358
 H1760 H 0.87611 0.53603 0.41705
 H1761 H 0.87670 0.58302 0.46356
 H1762 H 0.87750 0.55680 0.49000
 H1763 H 0.85559 0.53092 0.50475
 H1764 H 0.85564 0.50462 0.53121
 H1765 H 0.89885 0.46927 0.49597
 H1766 H 0.89880 0.49558 0.46949
 H1767 H 0.87660 0.44344 0.51037
 H1768 H 0.87620 0.41701 0.53662
 H1769 H 0.87682 0.46363 0.58350
 H1770 H 0.87760 0.48999 0.55717
 C1771 C 0.87718 1.03097 -0.03137
 C1772 C 0.87712 1.02556 -0.05217
 C1773 C 0.87676 1.04061 -0.06732
 C1774 C 0.87647 1.06145 -0.06203
 C1775 C 0.87665 1.06685 -0.04120
 C1776 C 0.87699 1.05178 -0.02607
 C1777 C 0.87730 1.01497 -0.01527
 C1778 C 0.86518 1.01714 0.00235
 C1779 C 0.86516 1.00203 0.01744
 C1780 C 0.87726 0.98441 0.01526
 C1781 C 0.88942 0.98226 -0.00233
 C1782 C 0.88944 0.99737 -0.01743
 C1783 C 0.87708 0.96828 0.03124
 C1784 C 0.87702 0.94751 0.02577
 C1785 C 0.87664 0.93233 0.04079
 C1786 C 0.87631 0.93757 0.06165
 C1787 C 0.87648 0.95836 0.06711
 C1788 C 0.87685 0.97354 0.05207
 H1789 H 0.87702 1.00965 -0.05674
 H1790 H 0.87664 1.03588 -0.08319
 H1791 H 0.87655 1.08273 -0.03655
 H1792 H 0.87732 1.05644 -0.01018
 H1793 H 0.85542 1.03036 0.00430
 H1794 H 0.85538 1.00397 0.03066
 H1795 H 0.89914 0.96901 -0.00430
 H1796 H 0.89917 0.99542 -0.03068
 H1797 H 0.87695 0.94298 0.00984
 H1798 H 0.87652 0.91648 0.03601
 H1799 H 0.87635 0.96297 0.08301
 H1800 H 0.87718 0.98941 0.05677
 C1801 C 0.62232 -0.03140 0.46833
 C1802 C 0.62228 -0.02609 0.44751
 C1803 C 0.62260 -0.04121 0.43241
 C1804 C 0.62301 -0.06202 0.43778
 C1805 C 0.62295 -0.06733 0.45863
 C1806 C 0.62260 -0.05220 0.47372
 C1807 C 0.62224 -0.01532 0.48437
 C1808 C 0.61034 -0.01760 0.50212
 C1809 C 0.61040 -0.00252 0.51727
 C1810 C 0.62236 0.01518 0.51500
 C1811 C 0.63424 0.01746 0.49724
 C1812 C 0.63418 0.00239 0.48210
 C1813 C 0.62253 0.03118 0.53112
 C1814 C 0.62251 0.05199 0.52582
 C1815 C 0.62287 0.06706 0.54096
 C1816 C 0.62328 0.06168 0.56179
 C1817 C 0.62320 0.04084 0.56708
 C1818 C 0.62282 0.02577 0.55192
 H1819 H 0.62177 -0.01021 0.44287
 H1820 H 0.62252 -0.03655 0.41652
 H1821 H 0.62326 -0.08319 0.46335
 H1822 H 0.62289 -0.05678 0.48963
 H1823 H 0.60074 -0.03093 0.50417
 H1824 H 0.60084 -0.00457 0.53064
 H1825 H 0.64387 0.03076 0.49519
 H1826 H 0.64377 0.00443 0.46875
 H1827 H 0.62199 0.05665 0.50994
 H1828 H 0.62280 0.08295 0.53631
 H1829 H 0.62350 0.03612 0.58295
 H1830 H 0.62308 0.00986 0.55648
 C1831 C 0.46807 1.03049 0.37724
 C1832 C 0.47347 1.05128 0.37699
 C1833 C 0.45840 1.06642 0.37668
 C1834 C 0.43757 1.06112 0.37663
 C1835 C 0.43220 1.04030 0.37699
 C1836 C 0.44727 1.02518 0.37728
 C1837 C 0.48407 1.01441 0.37733
 C1838 C 0.48183 0.99673 0.36532
 C1839 C 0.49694 0.98163 0.36528
 C1840 C 0.51463 0.98387 0.37725
 C1841 C 0.51685 1.00153 0.38929
 C1842 C 0.50174 1.01663 0.38933
 C1843 C 0.53075 0.96790 0.37707
 C1844 C 0.55151 0.97335 0.37684
 C1845 C 0.56669 0.95833 0.37647
 C1846 C 0.56145 0.93748 0.37631
 C1847 C 0.54065 0.93204 0.37663
 C1848 C 0.52549 0.94707 0.37699
 H1849 H 0.48937 1.05585 0.37671
 H1850 H 0.46312 1.08228 0.37640
 H1851 H 0.41632 1.03565 0.37707
 H1852 H 0.44263 1.00930 0.37776
 H1853 H 0.46854 0.99472 0.35566
 H1854 H 0.49493 0.96836 0.35559
 H1855 H 0.53016 1.00355 0.39892
 H1856 H 0.50376 1.02993 0.39898
 H1857 H 0.55604 0.98927 0.37664
 H1858 H 0.58253 0.96309 0.37622
 H1859 H 0.53605 0.91614 0.37663
 H1860 H 0.50963 0.94239 0.37744
 C1861 C -0.03158 -0.03213 0.12238
 C1862 C -0.05239 -0.02683 0.12269
 C1863 C -0.06745 -0.04195 0.12304
 C1864 C -0.06207 -0.06277 0.12312
 C1865 C -0.04124 -0.06807 0.12273
 C1866 C -0.02618 -0.05293 0.12236
 C1867 C -0.01559 -0.01603 0.12221
 C1868 C 0.00195 -0.01814 0.10997
 C1869 C 0.01702 -0.00301 0.10990
 C1870 C 0.01490 0.01458 0.12208
 C1871 C -0.00265 0.01670 0.13430
 C1872 C -0.01772 0.00157 0.13436
 C1873 C 0.03098 0.03060 0.12216
 C1874 C 0.02568 0.05141 0.12251
 C1875 C 0.04080 0.06649 0.12287
 C1876 C 0.06161 0.06110 0.12290
 C1877 C 0.06690 0.04026 0.12243
 C1878 C 0.05177 0.02520 0.12206
 H1879 H -0.05704 -0.01094 0.12242
 H1880 H -0.08333 -0.03729 0.12322
 H1881 H -0.03652 -0.08394 0.12278
 H1882 H -0.01027 -0.05750 0.12236
 H1883 H 0.00387 -0.03138 0.10021
 H1884 H 0.03021 -0.00494 0.10009
 H1885 H -0.00457 0.02990 0.14410
 H1886 H -0.03089 0.00349 0.14421
 H1887 H 0.00979 0.05607 0.12230
 H1888 H 0.03615 0.08237 0.12311
 H1889 H 0.08276 0.03553 0.12244
 H1890 H 0.05635 0.00929 0.12204
 C1891 C 0.53084 0.53084 0.12224
 C1892 C 0.52554 0.55166 0.12250
 C1893 C 0.54067 0.56672 0.12282
 C1894 C 0.56148 0.56132 0.12291
 C1895 C 0.56676 0.54048 0.12252
 C1896 C 0.55162 0.52543 0.12219
 C1897 C 0.51474 0.51483 0.12218
 C1898 C 0.51688 0.49719 0.11009
 C1899 C 0.50179 0.48206 0.11018
 C1900 C 0.48422 0.48425 0.12236
 C1901 C 0.48207 0.50190 0.13443
 C1902 C 0.49716 0.51701 0.13434
 C1903 C 0.46822 0.46815 0.12257
 C1904 C 0.44742 0.47346 0.12277
 C1905 C 0.43235 0.45834 0.12315
 C1906 C 0.43773 0.43752 0.12337
 C1907 C 0.45856 0.43222 0.12308
 C1908 C 0.47362 0.44736 0.12268
 H1909 H 0.50966 0.55632 0.12224
 H1910 H 0.53603 0.58261 0.12299
 H1911 H 0.58262 0.53574 0.12258
 H1912 H 0.55619 0.50952 0.12224
 H1913 H 0.53010 0.49520 0.10032
 H1914 H 0.50374 0.46878 0.10049
 H1915 H 0.46888 0.50388 0.14422
 H1916 H 0.49522 0.53026 0.14408
 H1917 H 0.44277 0.48935 0.12240
 H1918 H 0.41647 0.46301 0.12324
 H1919 H 0.46327 0.41635 0.12324
 H1920 H 0.48953 0.44278 0.12277
 C1921 C -0.03163 0.46853 0.62293
 C1922 C -0.05244 0.47383 0.62300
 C1923 C -0.06750 0.45870 0.62333
 C1924 C -0.06211 0.43788 0.62362
 C1925 C -0.04128 0.43259 0.62346
 C1926 C -0.02622 0.44773 0.62312
 C1927 C -0.01564 0.48463 0.62278
 C1928 C 0.00201 0.48243 0.61072
 C1929 C 0.01707 0.49757 0.61066
 C1930 C 0.01484 0.51525 0.62267
 C1931 C -0.00282 0.51747 0.63471
 C1932 C -0.01788 0.50233 0.63477
 C1933 C 0.03090 0.53129 0.62275
 C1934 C 0.02558 0.55210 0.62284
 C1935 C 0.04069 0.56719 0.62314
 C1936 C 0.06150 0.56182 0.62337
 C1937 C 0.06681 0.54098 0.62318
 C1938 C 0.05169 0.52590 0.62287
 H1939 H -0.05709 0.48971 0.62257
 H1940 H -0.08338 0.46336 0.62332
 H1941 H -0.03656 0.41672 0.62368
 H1942 H -0.01031 0.44317 0.62331
 H1943 H 0.00403 0.46911 0.60108
 H1944 H 0.03036 0.49556 0.60098
 H1945 H -0.00484 0.53075 0.64438
 H1946 H -0.03115 0.50433 0.64447
 H1947 H 0.00970 0.55674 0.62246
 H1948 H 0.03603 0.58307 0.62316
 H1949 H 0.08268 0.53626 0.62336
 H1950 H 0.05628 0.51000 0.62306
 C1951 C 0.46810 0.53094 0.87701
 C1952 C 0.47348 0.55174 0.87676
 C1953 C 0.45841 0.56688 0.87641
 C1954 C 0.43757 0.56158 0.87632
 C1955 C 0.43221 0.54076 0.87667
 C1956 C 0.44730 0.52563 0.87700
 C1957 C 0.48413 0.51484 0.87718
 C1958 C 0.48188 0.49707 0.86530
 C1959 C 0.49698 0.48196 0.86535
 C1960 C 0.51469 0.48426 0.87729
 C1961 C 0.51693 0.50201 0.88920
 C1962 C 0.50182 0.51713 0.88915
 C1963 C 0.53082 0.46826 0.87720
 C1964 C 0.55159 0.47370 0.87698
 C1965 C 0.56677 0.45866 0.87668
 C1966 C 0.56153 0.43781 0.87659
 C1967 C 0.54073 0.43238 0.87691
 C1968 C 0.52557 0.44743 0.87719
 H1969 H 0.48938 0.55632 0.87651
 H1970 H 0.46311 0.58275 0.87615
 H1971 H 0.41634 0.53609 0.87673
 H1972 H 0.44266 0.50975 0.87749
 H1973 H 0.46859 0.49500 0.85566
 H1974 H 0.49496 0.46863 0.85575
 H1975 H 0.53024 0.50409 0.89881
 H1976 H 0.50385 0.53049 0.89871
 H1977 H 0.55613 0.48961 0.87673
 H1978 H 0.58261 0.46342 0.87644
 H1979 H 0.53612 0.41649 0.87696
 H1980 H 0.50970 0.44275 0.87764
 C1981 C 0.62285 0.53139 1.03165
 C1982 C 0.62289 0.55219 1.02634
 C1983 C 0.62318 0.56729 1.04146
 C1984 C 0.62343 0.56199 1.06236
 C1985 C 0.62328 0.54107 1.06760
 C1986 C 0.62301 0.52601 1.05244
 C1987 C 0.62276 0.51535 1.01557
 C1988 C 0.63483 0.49771 1.01770
 C1989 C 0.63483 0.48264 1.00256
 C1990 C 0.62276 0.48486 0.98492
 C1991 C 0.61068 0.50250 0.98278
 C1992 C 0.61069 0.51758 0.99793
 C1993 C 0.62281 0.46883 0.96883
 C1994 C 0.62289 0.47420 0.94802
 C1995 C 0.62318 0.45910 0.93289
 C1996 C 0.62339 0.43827 0.93822
 C1997 C 0.62319 0.43293 0.95906
 C1998 C 0.62291 0.44803 0.97417
 H1999 H 0.62302 0.55682 1.01044
 H2000 H 0.62328 0.58313 1.03665
 H2001 H 0.62334 0.53622 1.08344
 H2002 H 0.62268 0.51011 1.05703
 H2003 H 0.64456 0.49570 1.03094
 H2004 H 0.64455 0.46938 1.00450
 H2005 H 0.60099 0.50451 0.96952
 H2006 H 0.60099 0.53085 0.99599
 H2007 H 0.62305 0.49010 0.94342
 H2008 H 0.62333 0.46379 0.91701
 H2009 H 0.62322 0.41706 0.96375
 H2010 H 0.62256 0.44341 0.99006
 C2011 C 0.37689 1.03149 0.46845
 C2012 C 0.37670 1.02604 0.44767
 C2013 C 0.37636 1.04106 0.43247
 C2014 C 0.37620 1.06199 0.43765
 C2015 C 0.37652 1.06735 0.45854
 C2016 C 0.37685 1.05230 0.47370
 C2017 C 0.37700 1.01551 0.48461
 C2018 C 0.36507 1.01783 0.50234
 C2019 C 0.36506 1.00278 0.51750
 C2020 C 0.37700 0.98505 0.51529
 C2021 C 0.38896 0.98274 0.49758
 C2022 C 0.38897 0.99780 0.48241
 C2023 C 0.37686 0.96899 0.53136
 C2024 C 0.37664 0.94819 0.52601
 C2025 C 0.37627 0.93308 0.54112
 C2026 C 0.37613 0.93842 0.56196
 C2027 C 0.37647 0.95925 0.56730
 C2028 C 0.37681 0.97434 0.55218
 H2029 H 0.37649 1.01012 0.44314
 H2030 H 0.37613 1.03616 0.41665
 H2031 H 0.37654 1.08321 0.46331
 H2032 H 0.37729 1.05699 0.48958
 H2033 H 0.35543 1.03114 0.50433
 H2034 H 0.35543 1.00486 0.53080
 H2035 H 0.39856 0.96940 0.49558
 H2036 H 0.39857 0.99571 0.46909
 H2037 H 0.37642 0.94357 0.51011
 H2038 H 0.37602 0.91721 0.53643
 H2039 H 0.37649 0.96394 0.58318
 H2040 H 0.37727 0.99023 0.55680
 C2041 C -0.03135 0.62258 0.46832
 C2042 C -0.05213 0.62288 0.47375
 C2043 C -0.06729 0.62319 0.45870
 C2044 C -0.06201 0.62319 0.43784
 C2045 C -0.04121 0.62279 0.43243
 C2046 C -0.02607 0.62250 0.44749
 C2047 C -0.01524 0.62249 0.48431
 C2048 C 0.00248 0.63439 0.48199
 C2049 C 0.01760 0.63441 0.49707
 C2050 C 0.01535 0.62251 0.51483
 C2051 C -0.00236 0.61057 0.51713
 C2052 C -0.01748 0.61056 0.50205
 C2053 C 0.03136 0.62267 0.53092
 C2054 C 0.02595 0.62296 0.55172
 C2055 C 0.04100 0.62332 0.56687
 C2056 C 0.06184 0.62339 0.56158
 C2057 C 0.06724 0.62301 0.54076
 C2058 C 0.05217 0.62267 0.52562
 H2059 H -0.05669 0.62319 0.48967
 H2060 H -0.08314 0.62350 0.46344
 H2061 H -0.03656 0.62267 0.41653
 H2062 H -0.01020 0.62198 0.44282
 H2063 H 0.00450 0.64400 0.46866
 H2064 H 0.03091 0.64402 0.49500
 H2065 H -0.00439 0.60100 0.53049
 H2066 H -0.03081 0.60098 0.50413
 H2067 H 0.01004 0.62323 0.55629
 H2068 H 0.03626 0.62361 0.58273
 H2069 H 0.08312 0.62294 0.53611
 H2070 H 0.05683 0.62216 0.50973
 C2071 C 0.46856 0.37671 1.03142
 C2072 C 0.47379 0.37671 1.05225
 C2073 C 0.45862 0.37633 1.06728
 C2074 C 0.43783 0.37592 1.06182
 C2075 C 0.43260 0.37602 1.04096
 C2076 C 0.44779 0.37641 1.02594
 C2077 C 0.48471 0.37690 1.01547
 C2078 C 0.48252 0.38892 0.99780
 C2079 C 0.49772 0.38903 0.98277
 C2080 C 0.51544 0.37710 0.98509
 C2081 C 0.51764 0.36511 1.00278
 C2082 C 0.50245 0.36501 1.01780
 C2083 C 0.53151 0.37705 0.96906
 C2084 C 0.55230 0.37712 0.97444
 C2085 C 0.56742 0.37684 0.95935
 C2086 C 0.56211 0.37645 0.93851
 C2087 C 0.54129 0.37648 0.93315
 C2088 C 0.52618 0.37678 0.94825
 H2089 H 0.48964 0.37724 1.05696
 H2090 H 0.46322 0.37640 1.08318
 H2091 H 0.41676 0.37571 1.03620
 H2092 H 0.44329 0.37616 1.01001
 H2093 H 0.46918 0.39849 0.99572
 H2094 H 0.49572 0.39866 0.96946
 H2095 H 0.53096 0.35551 1.00485
 H2096 H 0.50444 0.35534 1.03108
 H2097 H 0.55688 0.37761 0.99034
 H2098 H 0.58329 0.37694 0.96405
 H2099 H 0.53661 0.37618 0.91727
 H2100 H 0.51029 0.37647 0.94363
 C2101 C 0.46818 -0.03118 0.62277
 C2102 C 0.44738 -0.02584 0.62275
 C2103 C 0.43229 -0.04095 0.62308
 C2104 C 0.43765 -0.06177 0.62346
 C2105 C 0.45848 -0.06710 0.62338
 C2106 C 0.47356 -0.05197 0.62304
 C2107 C 0.48420 -0.01509 0.62264
 C2108 C 0.50189 -0.01736 0.61065
 C2109 C 0.51699 -0.00225 0.61062
 C2110 C 0.51473 0.01546 0.62258
 C2111 C 0.49703 0.01774 0.63454
 C2112 C 0.48193 0.00264 0.63457
 C2113 C 0.53083 0.03146 0.62269
 C2114 C 0.52555 0.05229 0.62270
 C2115 C 0.54069 0.06735 0.62302
 C2116 C 0.56149 0.06193 0.62337
 C2117 C 0.56676 0.04108 0.62327
 C2118 C 0.55161 0.02604 0.62293
 H2119 H 0.44275 -0.00996 0.62225
 H2120 H 0.41642 -0.03626 0.62301
 H2121 H 0.46318 -0.08297 0.62367
 H2122 H 0.48946 -0.05656 0.62330
 H2123 H 0.50393 -0.03071 0.60106
 H2124 H 0.53031 -0.00431 0.60101
 H2125 H 0.49500 0.03106 0.64417
 H2126 H 0.46864 0.00468 0.64421
 H2127 H 0.50968 0.05695 0.62223
 H2128 H 0.53605 0.08324 0.62298
 H2129 H 0.58261 0.03634 0.62354
 H2130 H 0.55616 0.01013 0.62318
 C2131 C -0.03172 0.53074 0.37721
 C2132 C -0.02627 0.55152 0.37711
 C2133 C -0.04130 0.56670 0.37674
 C2134 C -0.06214 0.56144 0.37649
 C2135 C -0.06757 0.54064 0.37672
 C2136 C -0.05254 0.52548 0.37706
 C2137 C -0.01576 0.51461 0.37733
 C2138 C -0.01797 0.49699 0.36524
 C2139 C -0.00290 0.48186 0.36523
 C2140 C 0.01472 0.48401 0.37731
 C2141 C 0.01691 0.50161 0.38945
 C2142 C 0.00184 0.51674 0.38946
 C2143 C 0.03081 0.46801 0.37714
 C2144 C 0.05159 0.47343 0.37703
 C2145 C 0.06674 0.45839 0.37665
 C2146 C 0.06147 0.43754 0.37637
 C2147 C 0.04067 0.43213 0.37658
 C2148 C 0.02553 0.44719 0.37694
 H2149 H -0.01036 0.55605 0.37698
 H2150 H -0.03655 0.58255 0.37658
 H2151 H -0.08346 0.53602 0.37665
 H2152 H -0.05722 0.50961 0.37743
 H2153 H -0.03120 0.49506 0.35548
 H2154 H -0.00487 0.46864 0.35546
 H2155 H 0.03017 0.50355 0.39916
 H2156 H 0.00382 0.53000 0.39918
 H2157 H 0.05614 0.48935 0.37692
 H2158 H 0.08259 0.46313 0.37650
 H2159 H 0.03604 0.41624 0.37649
 H2160 H 0.00965 0.44253 0.37730
 C2161 C -0.03239 1.03125 0.87705
 C2162 C -0.02698 1.05202 0.87674
 C2163 C -0.04201 1.06720 0.87637
 C2164 C -0.06293 1.06201 0.87631
 C2165 C -0.06827 1.04112 0.87671
 C2166 C -0.05320 1.02598 0.87706
 C2167 C -0.01640 1.01512 0.87724
 C2168 C -0.01866 0.99735 0.86536
 C2169 C -0.00357 0.98223 0.86542
 C2170 C 0.01414 0.98451 0.87736
 C2171 C 0.01638 1.00226 0.88928
 C2172 C 0.00129 1.01739 0.88922
 C2173 C 0.03026 0.96851 0.87727
 C2174 C 0.05104 0.97394 0.87709
 C2175 C 0.06621 0.95889 0.87678
 C2176 C 0.06096 0.93804 0.87664
 C2177 C 0.04016 0.93262 0.87692
 C2178 C 0.02500 0.94768 0.87722
 H2179 H -0.01107 1.05656 0.87647
 H2180 H -0.03713 1.08302 0.87606
 H2181 H -0.08411 1.03634 0.87680
 H2182 H -0.05786 1.01011 0.87759
 H2183 H -0.03195 0.99530 0.85572
 H2184 H -0.00560 0.96890 0.85582
 H2185 H 0.02969 1.00433 0.89889
 H2186 H 0.00333 1.03075 0.89878
 H2187 H 0.05558 0.98985 0.87686
 H2188 H 0.08205 0.96365 0.87656
 H2189 H 0.03554 0.91673 0.87694
 H2190 H 0.00914 0.94300 0.87765
 C2191 C 0.78070 0.62219 0.28146
 C2192 C 0.77536 0.62247 0.30228
 C2193 C 0.79046 0.62280 0.31738
 C2194 C 0.81128 0.62289 0.31201
 C2195 C 0.81660 0.62255 0.29117
 C2196 C 0.80149 0.62219 0.27608
 C2197 C 0.76465 0.62205 0.26540
 C2198 C 0.76685 0.60985 0.24784
 C2199 C 0.75180 0.60984 0.23267
 C2200 C 0.73423 0.62202 0.23472
 C2201 C 0.73203 0.63419 0.25230
 C2202 C 0.74706 0.63421 0.26746
 C2203 C 0.71826 0.62207 0.21858
 C2204 C 0.69744 0.62237 0.22386
 C2205 C 0.68241 0.62266 0.20871
 C2206 C 0.68782 0.62265 0.18788
 C2207 C 0.70866 0.62225 0.18261
 C2208 C 0.72369 0.62195 0.19779
 H2209 H 0.75947 0.62222 0.30690
 H2210 H 0.78579 0.62302 0.33327
 H2211 H 0.83246 0.62267 0.28645
 H2212 H 0.80609 0.62226 0.26017
 H2213 H 0.78008 0.60009 0.24595
 H2214 H 0.75379 0.60005 0.21946
 H2215 H 0.71882 0.64400 0.25417
 H2216 H 0.74509 0.64402 0.28066
 H2217 H 0.69276 0.62219 0.23975
 H2218 H 0.66652 0.62291 0.21335
 H2219 H 0.71340 0.62231 0.16674
 H2220 H 0.73960 0.62198 0.19323
 C2221 C 0.28061 0.87818 0.71850
 C2222 C 0.27530 0.87812 0.69767
 C2223 C 0.29043 0.87772 0.68258
 C2224 C 0.31124 0.87735 0.68795
 C2225 C 0.31653 0.87752 0.70880
 C2226 C 0.30139 0.87794 0.72388
 C2227 C 0.26452 0.87832 0.73454
 C2228 C 0.26677 0.89030 0.75224
 C2229 C 0.25168 0.89030 0.76738
 C2230 C 0.23399 0.87832 0.76517
 C2231 C 0.23173 0.86636 0.74745
 C2232 C 0.24681 0.86637 0.73231
 C2233 C 0.21799 0.87821 0.78130
 C2234 C 0.19717 0.87810 0.77601
 C2235 C 0.18211 0.87770 0.79115
 C2236 C 0.18748 0.87741 0.81198
 C2237 C 0.20832 0.87765 0.81726
 C2238 C 0.22338 0.87805 0.80210
 H2239 H 0.25943 0.87857 0.69303
 H2240 H 0.28578 0.87764 0.66669
 H2241 H 0.33238 0.87718 0.71353
 H2242 H 0.30596 0.87772 0.73980
 H2243 H 0.28009 0.89991 0.75426
 H2244 H 0.25373 0.89991 0.78071
 H2245 H 0.21844 0.85671 0.74544
 H2246 H 0.24478 0.85671 0.71901
 H2247 H 0.19252 0.87850 0.76012
 H2248 H 0.16623 0.87759 0.78650
 H2249 H 0.21304 0.87736 0.83313
 H2250 H 0.23929 0.87787 0.80667
 C2251 C 0.21853 0.37759 0.28135
 C2252 C 0.22387 0.37760 0.30216
 C2253 C 0.20877 0.37723 0.31727
 C2254 C 0.18796 0.37681 0.31192
 C2255 C 0.18264 0.37691 0.29108
 C2256 C 0.19775 0.37731 0.27598
 C2257 C 0.23459 0.37767 0.26530
 C2258 C 0.23232 0.38963 0.24759
 C2259 C 0.24738 0.38957 0.23243
 C2260 C 0.26504 0.37754 0.23464
 C2261 C 0.26730 0.36559 0.25236
 C2262 C 0.25225 0.36566 0.26751
 C2263 C 0.28102 0.37738 0.21852
 C2264 C 0.30182 0.37730 0.22381
 C2265 C 0.31688 0.37687 0.20867
 C2266 C 0.31149 0.37649 0.18785
 C2267 C 0.29066 0.37669 0.18256
 C2268 C 0.27560 0.37714 0.19772
 H2269 H 0.23975 0.37808 0.30678
 H2270 H 0.21345 0.37720 0.33316
 H2271 H 0.16678 0.37654 0.28637
 H2272 H 0.19316 0.37704 0.26007
 H2273 H 0.21902 0.39928 0.24559
 H2274 H 0.24534 0.39917 0.21910
 H2275 H 0.28057 0.35590 0.25435
 H2276 H 0.25428 0.35601 0.28082
 H2277 H 0.30648 0.37777 0.23969
 H2278 H 0.33276 0.37679 0.21333
 H2279 H 0.28594 0.37634 0.16669
 H2280 H 0.25970 0.37693 0.19316
 C2281 C 0.87756 0.71764 0.28067
 C2282 C 0.87750 0.69682 0.27538
 C2283 C 0.87715 0.68177 0.29054
 C2284 C 0.87683 0.68720 0.31135
 C2285 C 0.87699 0.70805 0.31662
 C2286 C 0.87736 0.72309 0.30145
 C2287 C 0.87763 0.73364 0.26456
 C2288 C 0.88964 0.75131 0.26677
 C2289 C 0.88955 0.76645 0.25169
 C2290 C 0.87744 0.76425 0.23408
 C2291 C 0.86546 0.74656 0.23186
 C2292 C 0.86556 0.73142 0.24693
 C2293 C 0.87723 0.78038 0.21811
 C2294 C 0.87709 0.77511 0.19728
 C2295 C 0.87670 0.79027 0.18224
 C2296 C 0.87643 0.81107 0.18768
 C2297 C 0.87663 0.81633 0.20854
 C2298 C 0.87704 0.80115 0.22357
 H2299 H 0.87791 0.69215 0.25950
 H2300 H 0.87707 0.66588 0.28591
 H2301 H 0.87669 0.71281 0.33248
 H2302 H 0.87713 0.73900 0.30600
 H2303 H 0.89933 0.75331 0.28003
 H2304 H 0.89918 0.77976 0.25369
 H2305 H 0.85573 0.74457 0.21862
 H2306 H 0.85589 0.71814 0.24495
 H2307 H 0.87751 0.75924 0.19259
 H2308 H 0.87661 0.78564 0.16634
 H2309 H 0.87636 0.83218 0.21330
 H2310 H 0.87687 0.80569 0.23950
 C2311 C 0.62307 0.28120 0.78146
 C2312 C 0.62318 0.30198 0.77601
 C2313 C 0.62348 0.31716 0.79105
 C2314 C 0.62366 0.31192 0.81191
 C2315 C 0.62347 0.29111 0.81734
 C2316 C 0.62318 0.27595 0.80230
 C2317 C 0.62295 0.26505 0.76549
 C2318 C 0.63493 0.24736 0.76776
 C2319 C 0.63486 0.23218 0.75272
 C2320 C 0.62282 0.23435 0.73506
 C2321 C 0.61082 0.25203 0.73280
 C2322 C 0.61088 0.26721 0.74784
 C2323 C 0.62287 0.21827 0.71902
 C2324 C 0.62301 0.22361 0.69821
 C2325 C 0.62327 0.20851 0.68310
 C2326 C 0.62338 0.18768 0.68844
 C2327 C 0.62315 0.18235 0.70928
 C2328 C 0.62290 0.19747 0.72438
 H2329 H 0.62337 0.30651 0.76009
 H2330 H 0.62370 0.33302 0.78630
 H2331 H 0.62354 0.28649 0.83324
 H2332 H 0.62282 0.26008 0.80699
 H2333 H 0.64464 0.24541 0.78102
 H2334 H 0.64453 0.21890 0.75475
 H2335 H 0.60114 0.25399 0.71952
 H2336 H 0.60124 0.28051 0.74580
 H2337 H 0.62325 0.23950 0.69359
 H2338 H 0.62352 0.21319 0.66722
 H2339 H 0.62318 0.16647 0.71397
 H2340 H 0.62254 0.19287 0.74029
 C2341 C 0.78175 0.21899 0.87744
 C2342 C 0.77633 0.19821 0.87732
 C2343 C 0.79137 0.18304 0.87691
 C2344 C 0.81221 0.18828 0.87662
 C2345 C 0.81762 0.20909 0.87682
 C2346 C 0.80257 0.22425 0.87722
 C2347 C 0.76574 0.23511 0.87767
 C2348 C 0.76789 0.25280 0.86567
 C2349 C 0.75276 0.26788 0.86575
 C2350 C 0.73513 0.26564 0.87784
 C2351 C 0.73301 0.24797 0.88988
 C2352 C 0.74814 0.23288 0.88980
 C2353 C 0.71899 0.28162 0.87779
 C2354 C 0.69821 0.27617 0.87778
 C2355 C 0.68303 0.29121 0.87746
 C2356 C 0.68825 0.31206 0.87716
 C2357 C 0.70905 0.31749 0.87729
 C2358 C 0.72423 0.30245 0.87759
 H2359 H 0.76042 0.19366 0.87721
 H2360 H 0.78661 0.16718 0.87669
 H2361 H 0.83351 0.21371 0.87666
 H2362 H 0.80724 0.24013 0.87757
 H2363 H 0.78111 0.25481 0.85591
 H2364 H 0.75469 0.28116 0.85605
 H2365 H 0.71976 0.24593 0.89959
 H2366 H 0.74619 0.21957 0.89945
 H2367 H 0.69368 0.26026 0.87766
 H2368 H 0.66718 0.28644 0.87729
 H2369 H 0.71367 0.33338 0.87711
 H2370 H 0.74009 0.30714 0.87787
 C2371 C 0.28093 0.78132 0.62302
 C2372 C 0.27563 0.80214 0.62306
 C2373 C 0.29075 0.81721 0.62332
 C2374 C 0.31156 0.81182 0.62354
 C2375 C 0.31686 0.79098 0.62342
 C2376 C 0.30172 0.77592 0.62315
 C2377 C 0.26483 0.76532 0.62295
 C2378 C 0.26702 0.74764 0.61094
 C2379 C 0.25188 0.73257 0.61093
 C2380 C 0.23420 0.73485 0.62294
 C2381 C 0.23201 0.75254 0.63494
 C2382 C 0.24715 0.76760 0.63495
 C2383 C 0.21815 0.71880 0.62302
 C2384 C 0.19736 0.72415 0.62305
 C2385 C 0.18225 0.70906 0.62331
 C2386 C 0.18759 0.68823 0.62358
 C2387 C 0.20842 0.68289 0.62348
 C2388 C 0.22351 0.69800 0.62320
 H2389 H 0.25975 0.80679 0.62269
 H2390 H 0.28609 0.83309 0.62335
 H2391 H 0.33272 0.78626 0.62366
 H2392 H 0.30629 0.76001 0.62338
 H2393 H 0.28032 0.74559 0.60129
 H2394 H 0.25387 0.71926 0.60128
 H2395 H 0.21873 0.75458 0.64461
 H2396 H 0.24516 0.78089 0.64463
 H2397 H 0.19274 0.74005 0.62265
 H2398 H 0.16638 0.71374 0.62333
 H2399 H 0.21312 0.66702 0.62375
 H2400 H 0.23940 0.69339 0.62345
   
