data_POSCAR
  _audit_creation_date              2014-09-24
  _audit_creation_method            'ToBaCCo'
  _symmetry_space_group_name_H-M    'P1'
  _symmetry_Int_Tables_number       1
  _symmetry_cell_setting            triclinic
  loop_
  _symmetry_equiv_pos_as_xyz
 x,y,z
_cell_length_a 59.4948
_cell_length_b 58.1673
_cell_length_c 58.5188
_cell_angle_alpha 89.457500
_cell_angle_beta 89.086100
_cell_angle_gamma 89.737900
loop_
  _atom_site_label
  _atom_site_type_symbol
  _atom_site_fract_x
  _atom_site_fract_y
  _atom_site_fract_z
C1 C 0.19634 0.21571 0.22190
 C2 C 0.20806 0.22334 0.20228
 C3 C 0.22540 0.21022 0.19313
 C4 C 0.23126 0.18919 0.20353
 C5 C 0.21964 0.18175 0.22284
 C6 C 0.20221 0.19510 0.23213
 C7 C 0.17871 0.22477 0.23449
 N8 N 0.17389 0.21016 0.25216
 C9 C 0.18821 0.19196 0.25080
 C10 C 0.22852 0.16089 0.22919
 N11 N 0.24532 0.15532 0.21424
 C12 C 0.24720 0.17261 0.19850
 C13 C 0.23357 0.22188 0.17417
 N14 N 0.22164 0.24175 0.17162
 C15 C 0.20599 0.24267 0.18879
 H16 H 0.17020 0.24092 0.23117
 H17 H 0.18823 0.17730 0.26233
 H18 H 0.22327 0.15064 0.24384
 H19 H 0.25902 0.17295 0.18425
 H20 H 0.24739 0.21639 0.16325
 H21 H 0.19370 0.25625 0.19116
 C22 C 0.68201 0.71176 0.72218
 C23 C 0.69430 0.71839 0.70255
 C24 C 0.71287 0.70570 0.69564
 C25 C 0.71949 0.68630 0.70829
 C26 C 0.70737 0.67977 0.72760
 C27 C 0.68852 0.69260 0.73460
 C28 C 0.66325 0.72077 0.73294
 N29 N 0.65819 0.70753 0.75160
 C30 C 0.67362 0.69024 0.75267
 C31 C 0.71752 0.66037 0.73635
 N32 N 0.73556 0.65497 0.72284
 C33 C 0.73685 0.67080 0.70562
 C34 C 0.72136 0.71592 0.67607
 N35 N 0.70842 0.73452 0.67089
 C36 C 0.69183 0.73615 0.68707
 H37 H 0.65419 0.73605 0.72769
 H38 H 0.67388 0.67669 0.76547
 H39 H 0.71230 0.65108 0.75162
 H40 H 0.74930 0.67087 0.69193
 H41 H 0.73605 0.71032 0.66646
 H42 H 0.67867 0.74905 0.68738
 C43 C 0.30771 0.78097 0.71246
 C44 C 0.29468 0.77274 0.69462
 C45 C 0.27476 0.78361 0.68920
 C46 C 0.26752 0.80277 0.70171
 C47 C 0.28042 0.81103 0.71922
 C48 C 0.30069 0.79995 0.72476
 C49 C 0.32780 0.77374 0.72126
 N50 N 0.33327 0.78778 0.73872
 C51 C 0.31674 0.80388 0.74101
 C52 C 0.26943 0.83000 0.72788
 N53 N 0.24997 0.83344 0.71621
 C54 C 0.24886 0.81663 0.70017
 C55 C 0.26596 0.77227 0.67087
 N56 N 0.28007 0.75474 0.66512
 C57 C 0.29766 0.75488 0.67964
 H58 H 0.33752 0.75902 0.71561
 H59 H 0.31647 0.81755 0.75343
 H60 H 0.27516 0.84005 0.74209
 H61 H 0.23590 0.81481 0.68758
 H62 H 0.25041 0.77645 0.66238
 H63 H 0.31187 0.74321 0.67899
 C64 C 0.82455 0.28602 0.22104
 C65 C 0.81392 0.28034 0.20064
 C66 C 0.79567 0.29311 0.19328
 C67 C 0.78810 0.31203 0.20603
 C68 C 0.79873 0.31764 0.22605
 C69 C 0.81687 0.30437 0.23372
 C70 C 0.84232 0.27644 0.23252
 N71 N 0.84557 0.28836 0.25218
 C72 C 0.82991 0.30556 0.25283
 C73 C 0.78843 0.33701 0.23452
 N74 N 0.77179 0.34340 0.22013
 C75 C 0.77135 0.32811 0.20271
 C76 C 0.78854 0.28341 0.17330
 N77 N 0.80212 0.26522 0.16834
 C78 C 0.81773 0.26327 0.18493
 H79 H 0.85150 0.26130 0.22714
 H80 H 0.82820 0.31851 0.26589
 H81 H 0.79280 0.34586 0.25001
 H82 H 0.76015 0.32900 0.18833
 H83 H 0.77459 0.28920 0.16304
 H84 H 0.83064 0.25012 0.18571
 C85 C 0.80754 0.72767 0.30042
 C86 C 0.79461 0.73447 0.31948
 C87 C 0.77439 0.72368 0.32449
 C88 C 0.76698 0.70574 0.31065
 C89 C 0.77980 0.69910 0.29194
 C90 C 0.80007 0.71025 0.28673
 C91 C 0.82776 0.73506 0.29130
 N92 N 0.83276 0.72265 0.27215
 C93 C 0.81569 0.70737 0.26947
 C94 C 0.76893 0.68117 0.28185
 N95 N 0.74980 0.67656 0.29401
 C96 C 0.74843 0.69164 0.31163
 C97 C 0.76542 0.73394 0.34370
 N98 N 0.77972 0.75060 0.35050
 C99 C 0.79764 0.75099 0.33581
 H100 H 0.83756 0.74900 0.29799
 H101 H 0.81464 0.69449 0.25634
 H102 H 0.77458 0.67217 0.26669
 H103 H 0.73524 0.69196 0.32458
 H104 H 0.74974 0.72946 0.35222
 H105 H 0.81170 0.76268 0.33672
 C106 C 0.31628 0.22331 -0.21877
 C107 C 0.30425 0.23165 -0.19975
 C108 C 0.28387 0.22192 -0.19359
 C109 C 0.27536 0.20361 -0.20614
 C110 C 0.28732 0.19521 -0.22466
 C111 C 0.30782 0.20537 -0.23124
 C112 C 0.33617 0.22987 -0.22911
 N113 N 0.34003 0.21660 -0.24789
 C114 C 0.32261 0.20148 -0.24911
 C115 C 0.27529 0.17709 -0.23309
 N116 N 0.25614 0.17430 -0.22022
 C117 C 0.25616 0.19075 -0.20376
 C118 C 0.27586 0.23337 -0.17470
 N119 N 0.29090 0.24984 -0.16916
 C120 C 0.30835 0.24889 -0.18442
 H121 H 0.34634 0.24412 -0.22370
 H122 H 0.32068 0.18829 -0.26181
 H123 H 0.28015 0.16710 -0.24788
 H124 H 0.24370 0.19280 -0.19026
 H125 H 0.26038 0.22970 -0.16543
 H126 H 0.32287 0.26004 -0.18449
 C127 C 0.68876 0.27898 -0.21490
 C128 C 0.70180 0.27065 -0.19687
 C129 C 0.72213 0.28082 -0.19231
 C130 C 0.72974 0.29932 -0.20574
 C131 C 0.71690 0.30766 -0.22344
 C132 C 0.69625 0.29720 -0.22825
 C133 C 0.66838 0.27231 -0.22315
 N134 N 0.66310 0.28579 -0.24152
 C135 C 0.68027 0.30109 -0.24467
 C136 C 0.72839 0.32606 -0.23294
 N137 N 0.74804 0.32894 -0.22154
 C138 C 0.74880 0.31241 -0.20490
 C139 C 0.73108 0.26949 -0.17383
 N140 N 0.71669 0.25259 -0.16709
 C141 C 0.69873 0.25314 -0.18115
 H142 H 0.65872 0.25794 -0.21656
 H143 H 0.68110 0.31449 -0.25758
 H144 H 0.72283 0.33615 -0.24742
 H145 H 0.76174 0.31038 -0.19226
 H146 H 0.74704 0.27314 -0.16604
 H147 H 0.68433 0.24187 -0.17983
 C148 C 0.18859 0.77402 0.26329
 C149 C 0.20174 0.76687 0.28173
 C150 C 0.22018 0.77962 0.28791
 C151 C 0.22578 0.79971 0.27566
 C152 C 0.21273 0.80684 0.25763
 C153 C 0.19405 0.79386 0.25131
 C154 C 0.16974 0.76502 0.25349
 N155 N 0.16360 0.77888 0.23580
 C156 C 0.17843 0.79659 0.23440
 C157 C 0.22185 0.82692 0.24918
 N158 N 0.24037 0.83231 0.26152
 C159 C 0.24274 0.81550 0.27779
 C160 C 0.22947 0.76885 0.30659
 N161 N 0.21709 0.74988 0.31191
 C162 C 0.20011 0.74856 0.29670
 H163 H 0.16138 0.74929 0.25869
 H164 H 0.17779 0.81065 0.22217
 H165 H 0.21555 0.83638 0.23463
 H166 H 0.25540 0.81485 0.29082
 H167 H 0.24422 0.77443 0.31556
 H168 H 0.18713 0.73558 0.29683
 C169 C 0.48176 0.46118 0.46771
 C170 C 0.48843 0.47438 0.44867
 C171 C 0.47599 0.49342 0.44235
 C172 C 0.45657 0.49936 0.45480
 C173 C 0.44972 0.48621 0.47345
 C174 C 0.46248 0.46689 0.48000
 C175 C 0.49113 0.44224 0.47803
 N176 N 0.47805 0.43615 0.49629
 C177 C 0.46038 0.45102 0.49759
 C178 C 0.43033 0.49622 0.48206
 N179 N 0.42541 0.51508 0.46909
 C180 C 0.44141 0.51701 0.45237
 C181 C 0.48638 0.50301 0.42341
 N182 N 0.50470 0.49006 0.41797
 C183 C 0.50610 0.47250 0.43335
 H184 H 0.50639 0.43348 0.47265
 H185 H 0.44729 0.45064 0.51065
 H186 H 0.42072 0.49037 0.49685
 H187 H 0.44187 0.53014 0.43914
 H188 H 0.48076 0.51801 0.41397
 H189 H 0.51907 0.45938 0.43342
 C190 C -0.03004 -0.06855 0.96159
 C191 C -0.02351 -0.05438 0.94319
 C192 C -0.03445 -0.03365 0.93938
 C193 C -0.05237 -0.02704 0.95387
 C194 C -0.05882 -0.04119 0.97185
 C195 C -0.04742 -0.06192 0.97589
 C196 C -0.02234 -0.08948 0.96941
 N197 N -0.03450 -0.09576 0.98843
 C198 C -0.04997 -0.07878 0.99231
 C199 C -0.07700 -0.03114 0.98251
 N200 N -0.08207 -0.01101 0.97156
 C201 C -0.06677 -0.00840 0.95405
 C202 C -0.02450 -0.02369 0.92028
 N203 N -0.00802 -0.03800 0.91244
 C204 C -0.00733 -0.05677 0.92639
 H205 H -0.00834 -0.09885 0.96199
 H206 H -0.06269 -0.07864 1.00571
 H207 H -0.08553 -0.03815 0.99743
 H208 H -0.06650 0.00542 0.94157
 H209 H -0.02916 -0.00747 0.91243
 H210 H 0.00423 -0.07108 0.92453
 C211 C 1.01810 0.54586 0.96834
 C212 C 1.01104 0.53394 0.94898
 C213 C 1.02273 0.51465 0.94170
 C214 C 1.04169 0.50701 0.95368
 C215 C 1.04861 0.51888 0.97258
 C216 C 1.03663 0.53823 0.98008
 C217 C 1.01007 0.56506 0.97947
 N218 N 1.02317 0.56920 0.99795
 C219 C 1.03950 0.55266 0.99820
 C220 C 1.06756 0.50817 0.98055
 N221 N 1.07257 0.48981 0.96704
 C222 C 1.05655 0.48901 0.95059
 C223 C 1.01217 0.50674 0.92255
 N224 N 0.99435 0.52072 0.91802
 C225 C 0.99360 0.53740 0.93417
 H226 H 0.99527 0.57468 0.97463
 H227 H 1.05304 0.55128 1.01024
 H228 H 1.07653 0.51333 0.99556
 H229 H 1.05595 0.47682 0.93678
 H230 H 1.01700 0.49173 0.91282
 H231 H 0.98148 0.55131 0.93493
 C232 C 0.51108 0.06459 0.46583
 C233 C 0.50418 0.05103 0.44754
 C234 C 0.51604 0.03133 0.44203
 C235 C 0.53485 0.02483 0.45471
 C236 C 0.54191 0.03831 0.47244
 C237 C 0.52994 0.05840 0.47808
 C238 C 0.50257 0.08442 0.47533
 N239 N 0.51585 0.09048 0.49293
 C240 C 0.53269 0.07473 0.49468
 C241 C 0.56062 0.02779 0.48147
 N242 N 0.56502 0.00800 0.46979
 C243 C 0.54915 0.00630 0.45331
 C244 C 0.50599 0.02182 0.42340
 N245 N 0.48833 0.03533 0.41730
 C246 C 0.48703 0.05319 0.43212
 H247 H 0.48783 0.09380 0.46982
 H248 H 0.54570 0.07490 0.50741
 H249 H 0.56970 0.03394 0.49603
 H250 H 0.54813 -0.00706 0.44066
 H251 H 0.51122 0.00620 0.41491
 H252 H 0.47492 0.06711 0.43135
 C253 C -0.03219 0.04477 0.53960
 C254 C -0.02447 0.03120 0.55781
 C255 C -0.03654 0.01213 0.56503
 C256 C -0.05667 0.00652 0.55427
 C257 C -0.06439 0.02004 0.53646
 C258 C -0.05207 0.03929 0.52907
 C259 C -0.02388 0.06422 0.52898
 N260 N -0.03831 0.07073 0.51233
 C261 C -0.05564 0.05560 0.51232
 C262 C -0.08440 0.01086 0.52959
 N263 N -0.08910 -0.00793 0.54280
 C264 C -0.07216 -0.01069 0.55793
 C265 C -0.02528 0.00250 0.58316
 N266 N -0.00684 0.01544 0.58723
 C267 C -0.00620 0.03301 0.57178
 H268 H -0.00861 0.07316 0.53325
 H269 H -0.06969 0.05626 0.50080
 H270 H -0.09467 0.01732 0.51582
 H271 H -0.07132 -0.02397 0.57098
 H272 H -0.03047 -0.01241 0.59309
 H273 H 0.00657 0.04619 0.57083
 C274 C 0.46649 0.55909 0.04133
 C275 C 0.47359 0.54511 0.05947
 C276 C 0.46157 0.52567 0.06550
 C277 C 0.44212 0.52011 0.05359
 C278 C 0.43519 0.53377 0.03549
 C279 C 0.44760 0.55342 0.02924
 C280 C 0.47494 0.57905 0.03204
 N281 N 0.46180 0.58590 0.01432
 C282 C 0.44501 0.57007 0.01255
 C283 C 0.41565 0.52430 0.02748
 N284 N 0.41052 0.50548 0.04047
 C285 C 0.42669 0.50277 0.05640
 C286 C 0.47247 0.51530 0.08345
 N287 N 0.49079 0.52807 0.08847
 C288 C 0.49153 0.54639 0.07393
 H289 H 0.49007 0.58738 0.03761
 H290 H 0.43140 0.57074 0.00054
 H291 H 0.40557 0.53099 0.01366
 H292 H 0.42716 0.48921 0.06918
 H293 H 0.46740 0.49969 0.09229
 H294 H 0.50444 0.55945 0.07358
 C295 C 0.54903 -0.06528 0.03290
 C296 C 0.54360 -0.05310 0.05281
 C297 C 0.55708 -0.03523 0.05962
 C298 C 0.57620 -0.02925 0.04658
 C299 C 0.58160 -0.04129 0.02696
 C300 C 0.56786 -0.05940 0.02003
 C301 C 0.53870 -0.08310 0.02201
 N302 N 0.55076 -0.08824 0.00279
 C303 C 0.56866 -0.07378 0.00148
 C304 C 0.60080 -0.03161 0.01773
 N305 N 0.60717 -0.01397 0.03124
 C306 C 0.59216 -0.01245 0.04893
 C307 C 0.54759 -0.02637 0.07927
 N308 N 0.52865 -0.03844 0.08457
 C309 C 0.52615 -0.05485 0.06841
 H310 H 0.52322 -0.09134 0.02746
 H311 H 0.58141 -0.07374 -0.01192
 H312 H 0.60926 -0.03679 0.00208
 H313 H 0.59288 -0.00016 0.06267
 H314 H 0.55383 -0.01189 0.08872
 H315 H 0.51275 -0.06735 0.06807
 C316 C 1.03584 0.43965 0.52797
 C317 C 1.03014 0.45286 0.54719
 C318 C 1.04305 0.47171 0.55265
 C319 C 1.06176 0.47765 0.53899
 C320 C 1.06749 0.46449 0.52031
 C321 C 1.05439 0.44550 0.51466
 C322 C 1.02636 0.42057 0.51825
 N323 N 1.03867 0.41488 0.49932
 C324 C 1.05588 0.43005 0.49712
 C325 C 1.08645 0.47391 0.51045
 N326 N 1.09247 0.49279 0.52253
 C327 C 1.07723 0.49511 0.54006
 C328 C 1.03387 0.48109 0.57218
 N329 N 1.01570 0.46843 0.57876
 C330 C 1.01327 0.45116 0.56348
 H331 H 1.01136 0.41179 0.52427
 H332 H 1.06873 0.42980 0.48382
 H333 H 1.09466 0.46767 0.49509
 H334 H 1.07753 0.50804 0.55320
 H335 H 1.03994 0.49613 0.58086
 H336 H 1.00048 0.43800 0.56441
 C337 C 0.41729 0.00047 0.20864
 H338 H 0.41792 0.01638 0.21803
 C339 C 0.43247 -0.00344 0.19064
 H340 H 0.44460 0.00971 0.18607
 C341 C 0.40049 -0.03588 0.20314
 H342 H 0.38832 -0.04869 0.20830
 C343 C 0.41530 -0.04046 0.18499
 H344 H 0.41428 -0.05678 0.17632
 N345 N 0.40145 -0.01549 0.21428
 C346 C 0.34732 0.02355 0.24694
 H347 H 0.34546 0.01391 0.26276
 C348 C 0.33350 0.04251 0.24274
 H349 H 0.32117 0.04754 0.25557
 C350 C 0.36595 0.02879 0.21119
 H351 H 0.37837 0.02318 0.19877
 C352 C 0.35250 0.04791 0.20630
 H353 H 0.35473 0.05684 0.19011
 Zn354 Zn 0.38137 -0.00861 0.23876
 N355 N 0.36336 0.01725 0.23139
 C356 C 0.39774 0.01804 0.27553
 N357 N 0.39902 -0.00250 0.26464
 C358 C 0.41360 -0.01917 0.27146
 C359 C 0.42732 -0.01571 0.29023
 C360 C 0.41116 0.02223 0.29440
 C361 C 0.34786 -0.04040 0.22805
 C362 C 0.33333 -0.05892 0.23161
 C363 C 0.34681 -0.06243 0.27021
 C364 C 0.36124 -0.04399 0.26583
 N365 N 0.36178 -0.03362 0.24489
 H366 H 0.38650 0.03132 0.26950
 H367 H 0.41446 -0.03524 0.26232
 H368 H 0.43853 -0.02936 0.29562
 H369 H 0.41009 0.03876 0.30269
 H370 H 0.34833 -0.03159 0.21169
 H371 H 0.32297 -0.06448 0.21769
 H372 H 0.34652 -0.07025 0.28706
 H373 H 0.37186 -0.03790 0.27926
 C374 C 0.33605 0.05503 0.22222
 C375 C 0.43145 -0.02406 0.17842
 C376 C 0.33273 -0.07032 0.25291
 C377 C 0.42619 0.00521 0.30200
 C378 C 0.09281 -0.00524 0.72236
 H379 H 0.09128 -0.01976 0.73396
 C380 C 0.07778 -0.00263 0.70442
 H381 H 0.06458 -0.01517 0.70253
 C382 C 0.11121 0.02935 0.71171
 H383 H 0.12389 0.04208 0.71484
 C384 C 0.09676 0.03247 0.69338
 H385 H 0.09906 0.04729 0.68228
 N386 N 0.10913 0.01063 0.72566
 C387 C 0.16076 -0.02455 0.76507
 H388 H 0.16082 -0.01388 0.78011
 C389 C 0.17576 -0.04296 0.76321
 H390 H 0.18694 -0.04662 0.77721
 C391 C 0.14591 -0.03256 0.72870
 H392 H 0.13456 -0.02812 0.71510
 C393 C 0.16086 -0.05097 0.72597
 H394 H 0.16084 -0.06045 0.71015
 Zn395 Zn 0.12774 0.00657 0.75137
 N396 N 0.14611 -0.01983 0.74806
 C397 C 0.10885 -0.01552 0.79069
 N398 N 0.10853 0.00377 0.77739
 C399 C 0.09347 0.02097 0.78145
 C400 C 0.07791 0.01915 0.79952
 C401 C 0.09373 -0.01798 0.80901
 C402 C 0.16255 0.03524 0.73683
 C403 C 0.17825 0.05289 0.73798
 C404 C 0.16347 0.06231 0.77544
 C405 C 0.14778 0.04468 0.77340
 N406 N 0.14752 0.03167 0.75423
 H407 H 0.12057 -0.02925 0.78694
 H408 H 0.09331 0.03595 0.77036
 H409 H 0.06573 0.03280 0.80212
 H410 H 0.09451 -0.03337 0.81951
 H411 H 0.16226 0.02432 0.72197
 H412 H 0.18959 0.05573 0.72360
 H413 H 0.16373 0.07206 0.79110
 H414 H 0.13613 0.04111 0.78732
 C415 C 0.17612 -0.05639 0.74337
 C416 C 0.07960 0.01647 0.68960
 C417 C 0.17899 0.06669 0.75754
 C418 C 0.07781 -0.00061 0.81353
 C419 C 0.59576 0.49623 0.21697
 H420 H 0.59408 0.48116 0.22784
 C421 C 0.58005 0.50057 0.20000
 H422 H 0.56619 0.48879 0.19812
 C423 C 0.61529 0.53045 0.20730
 H424 H 0.62883 0.54225 0.21041
 C425 C 0.60013 0.53531 0.18991
 H426 H 0.60260 0.55060 0.17951
 N427 N 0.61291 0.51112 0.22034
 C428 C 0.66700 0.47353 0.25353
 H429 H 0.66874 0.48359 0.26885
 C430 C 0.68112 0.45471 0.24967
 H431 H 0.69346 0.45020 0.26238
 C432 C 0.64839 0.46709 0.21869
 H433 H 0.63573 0.47212 0.20657
 C434 C 0.66228 0.44821 0.21406
 H435 H 0.66022 0.43898 0.19826
 Zn436 Zn 0.63221 0.50472 0.24498
 N437 N 0.65081 0.47913 0.23830
 C438 C 0.61684 0.47937 0.28406
 N439 N 0.61378 0.49852 0.27094
 C440 C 0.59696 0.51372 0.27565
 C441 C 0.58258 0.51014 0.29439
 C442 C 0.60304 0.47527 0.30315
 C443 C 0.66708 0.53570 0.23488
 C444 C 0.68183 0.55380 0.23875
 C445 C 0.66354 0.55982 0.27538
 C446 C 0.64913 0.54163 0.27079
 N447 N 0.65103 0.53008 0.25074
 H448 H 0.63003 0.46726 0.27987
 H449 H 0.59469 0.52863 0.26471
 H450 H 0.56907 0.52229 0.29755
 H451 H 0.60619 0.46025 0.31369
 H452 H 0.66843 0.52602 0.21922
 H453 H 0.69432 0.55818 0.22579
 H454 H 0.66198 0.56854 0.29159
 H455 H 0.63663 0.53659 0.28343
 C456 C 0.67886 0.44171 0.22972
 C457 C 0.58207 0.52037 0.18617
 C458 C 0.68019 0.56611 0.25926
 C459 C 0.58560 0.49077 0.30857
 C460 C 0.91197 0.50546 0.71013
 H461 H 0.91356 0.52091 0.72011
 C462 C 0.92594 0.50203 0.69103
 H463 H 0.93806 0.51511 0.68625
 C464 C 0.89399 0.46981 0.70416
 H465 H 0.88187 0.45704 0.70956
 C466 C 0.90762 0.46566 0.68500
 H467 H 0.90575 0.44971 0.67585
 N468 N 0.89610 0.48964 0.71606
 C469 C 0.84548 0.52837 0.75457
 H470 H 0.84444 0.51789 0.76992
 C471 C 0.83139 0.54745 0.75213
 H472 H 0.81979 0.55177 0.76588
 C473 C 0.86183 0.53525 0.71797
 H474 H 0.87328 0.53011 0.70445
 C475 C 0.84803 0.55448 0.71480
 H476 H 0.84911 0.56398 0.69882
 Zn477 Zn 0.87746 0.49550 0.74196
 N478 N 0.86041 0.52273 0.73769
 C479 C 0.89681 0.51763 0.78014
 N480 N 0.89634 0.49804 0.76764
 C481 C 0.91004 0.47995 0.77258
 C482 C 0.92471 0.48097 0.79094
 C483 C 0.91119 0.51938 0.79869
 C484 C 0.84170 0.46784 0.72917
 C485 C 0.82558 0.45056 0.73120
 C486 C 0.83943 0.44162 0.76885
 C487 C 0.85546 0.45893 0.76599
 N488 N 0.85646 0.47144 0.74626
 H489 H 0.88626 0.53208 0.77562
 H490 H 0.90952 0.46467 0.76220
 H491 H 0.93527 0.46626 0.79476
 H492 H 0.91151 0.53521 0.80826
 H493 H 0.84264 0.47831 0.71381
 H494 H 0.81446 0.44760 0.71708
 H495 H 0.83871 0.43212 0.78483
 H496 H 0.86688 0.46252 0.77966
 C497 C 0.83247 0.56074 0.73198
 C498 C 0.92375 0.48197 0.67808
 C499 C 0.82429 0.43709 0.75123
 C500 C 0.92540 0.50089 0.80431
 C501 C 0.21524 0.40586 0.01600
 H502 H 0.22491 0.40581 0.03150
 C503 C 0.19631 0.42002 0.01421
 H504 H 0.19132 0.43039 0.02869
 C505 C 0.21009 0.39216 -0.02152
 H506 H 0.21577 0.38164 -0.03560
 C507 C 0.19129 0.40633 -0.02420
 H508 H 0.18286 0.40653 -0.04045
 N509 N 0.22157 0.39207 -0.00160
 C510 C 0.26230 0.33727 0.02886
 H511 H 0.27672 0.33764 0.01736
 C512 C 0.26110 0.32078 0.04635
 H513 H 0.27485 0.30872 0.04842
 C514 C 0.22681 0.35247 0.03994
 H515 H 0.21319 0.36441 0.03708
 C516 C 0.22496 0.33634 0.05770
 H517 H 0.20993 0.33618 0.06837
 Zn518 Zn 0.24798 0.37398 0.00126
 N519 N 0.24542 0.35285 0.02612
 C520 C 0.28718 0.39141 0.02244
 N521 N 0.27236 0.39433 0.00519
 C522 C 0.27431 0.41223 -0.00981
 C523 C 0.29193 0.42786 -0.00807
 C524 C 0.30520 0.40650 0.02468
 C525 C 0.23749 0.33958 -0.02950
 C526 C 0.23979 0.32590 -0.04884
 C527 C 0.27322 0.34714 -0.05951
 C528 C 0.27033 0.36036 -0.03987
 N529 N 0.25254 0.35651 -0.02548
 H530 H 0.28522 0.37730 0.03441
 H531 H 0.26211 0.41434 -0.02319
 H532 H 0.29295 0.44212 -0.02005
 H533 H 0.31713 0.40343 0.03815
 H534 H 0.22366 0.33673 -0.01759
 H535 H 0.22776 0.31232 -0.05155
 H536 H 0.28722 0.35076 -0.07100
 H537 H 0.28227 0.37370 -0.03622
 C538 C 0.24226 0.32022 0.06110
 C539 C 0.18408 0.42052 -0.00618
 C540 C 0.25779 0.32966 -0.06424
 C541 C 0.30781 0.42504 0.00927
 C542 C 0.73235 0.09597 -0.00445
 H543 H 0.74191 0.09547 -0.02032
 C544 C 0.71425 0.08108 -0.00093
 H545 H 0.70981 0.06933 -0.01435
 C546 C 0.72634 0.11234 0.03208
 H547 H 0.73125 0.12437 0.04501
 C548 C 0.70816 0.09773 0.03634
 H549 H 0.69933 0.09865 0.05262
 N550 N 0.73781 0.11143 0.01182
 C551 C 0.77161 0.16672 -0.02548
 H552 H 0.78727 0.16729 -0.01635
 C553 C 0.76780 0.18206 -0.04347
 H554 H 0.78083 0.19417 -0.04834
 C555 C 0.73577 0.14997 -0.03020
 H556 H 0.72315 0.13776 -0.02467
 C557 C 0.73118 0.16511 -0.04821
 H558 H 0.71499 0.16434 -0.05635
 Zn559 Zn 0.76221 0.13142 0.00573
 N560 N 0.75581 0.15090 -0.01940
 C561 C 0.79803 0.11428 -0.02183
 N562 N 0.78795 0.11313 -0.00082
 C563 C 0.79532 0.09815 0.01541
 C564 C 0.81400 0.08412 0.01107
 C565 C 0.81659 0.10039 -0.02699
 C566 C 0.75059 0.16702 0.03487
 C567 C 0.75247 0.18241 0.05286
 C568 C 0.78760 0.16424 0.06283
 C569 C 0.78520 0.14940 0.04439
 N570 N 0.76673 0.15084 0.03105
 H571 H 0.79148 0.12563 -0.03483
 H572 H 0.78669 0.09715 0.03180
 H573 H 0.81987 0.07274 0.02447
 H574 H 0.82403 0.10131 -0.04397
 H575 H 0.73624 0.16802 0.02377
 H576 H 0.73958 0.19539 0.05521
 H577 H 0.80213 0.16232 0.07360
 H578 H 0.79809 0.13675 0.04087
 C579 C 0.74733 0.18142 -0.05510
 C580 C 0.70178 0.08194 0.01964
 C581 C 0.77109 0.18107 0.06731
 C582 C 0.82491 0.08509 -0.01041
 C583 C 0.21670 0.60052 0.48149
 H584 H 0.22573 0.59958 0.46533
 C585 C 0.19806 0.58649 0.48559
 H586 H 0.19260 0.57518 0.47221
 C587 C 0.21289 0.61666 0.51836
 H588 H 0.21903 0.62801 0.53132
 C589 C 0.19441 0.60269 0.52332
 H590 H 0.18662 0.60355 0.54014
 N591 N 0.22348 0.61553 0.49763
 C592 C 0.26286 0.66651 0.45913
 H593 H 0.27776 0.66684 0.46948
 C594 C 0.26118 0.68112 0.44017
 H595 H 0.27504 0.69243 0.43581
 C596 C 0.22665 0.65144 0.45244
 H597 H 0.21296 0.64036 0.45761
 C598 C 0.22428 0.66574 0.43331
 H599 H 0.20877 0.66536 0.42390
 Zn600 Zn 0.24926 0.63367 0.49154
 N601 N 0.24584 0.65189 0.46477
 C602 C 0.28738 0.61315 0.46958
 N603 N 0.27403 0.61332 0.48866
 C604 C 0.27769 0.59849 0.50634
 C605 C 0.29575 0.58309 0.50554
 C606 C 0.30570 0.59811 0.46811
 C607 C 0.23722 0.66989 0.52013
 C608 C 0.23924 0.68539 0.53801
 C609 C 0.27559 0.66888 0.54629
 C610 C 0.27282 0.65360 0.52831
 N611 N 0.25371 0.65417 0.51587
 H612 H 0.28387 0.62462 0.45545
 H613 H 0.26664 0.59882 0.52120
 H614 H 0.29867 0.57175 0.51997
 H615 H 0.31617 0.59820 0.45280
 H616 H 0.22232 0.67010 0.50977
 H617 H 0.22563 0.69733 0.54150
 H618 H 0.29099 0.66829 0.55589
 H619 H 0.28599 0.64140 0.52426
 C620 C 0.24169 0.68085 0.42696
 C621 C 0.18663 0.58741 0.50680
 C622 C 0.25858 0.68494 0.55146
 C623 C 0.31016 0.58294 0.48632
 C624 C 0.70140 0.91787 0.52584
 H625 H 0.71066 0.91766 0.54161
 C626 C 0.68382 0.93355 0.52287
 H627 H 0.67938 0.94501 0.53671
 C628 C 0.69598 0.90288 0.48885
 H629 H 0.70104 0.89119 0.47548
 C630 C 0.67848 0.91846 0.48504
 H631 H 0.67035 0.91856 0.46862
 N632 N 0.70693 0.90275 0.50907
 C633 C 0.74190 0.84704 0.54451
 H634 H 0.75711 0.84604 0.53418
 C635 C 0.73876 0.83199 0.56300
 H636 H 0.75183 0.81965 0.56700
 C637 C 0.70649 0.86451 0.55181
 H638 H 0.69373 0.87686 0.54714
 C639 C 0.70265 0.84978 0.57045
 H640 H 0.68693 0.85104 0.57994
 Zn641 Zn 0.73154 0.88263 0.51390
 N642 N 0.72602 0.86311 0.53948
 C643 C 0.76957 0.89910 0.53781
 N644 N 0.75707 0.90121 0.51863
 C645 C 0.76202 0.91733 0.50235
 C646 C 0.78054 0.93170 0.50469
 C647 C 0.78828 0.91311 0.54083
 C648 C 0.72021 0.84760 0.48385
 C649 C 0.72290 0.83254 0.46555
 C650 C 0.75847 0.85055 0.45642
 C651 C 0.75519 0.86511 0.47503
 N652 N 0.73620 0.86354 0.48818
 H653 H 0.76503 0.88668 0.55088
 H654 H 0.75160 0.91886 0.48742
 H655 H 0.78445 0.94409 0.49130
 H656 H 0.79798 0.91126 0.55624
 H657 H 0.70542 0.84649 0.49479
 H658 H 0.71014 0.81972 0.46271
 H659 H 0.77349 0.85247 0.44592
 H660 H 0.76791 0.87759 0.47893
 C661 C 0.71895 0.83330 0.57632
 C662 C 0.67207 0.93404 0.50222
 C663 C 0.74223 0.83390 0.45147
 C664 C 0.79402 0.92961 0.52408
 C665 C 0.01716 0.20742 0.41589
 H666 H 0.03157 0.21861 0.41710
 C667 C 0.01501 0.18850 0.43060
 H668 H 0.02779 0.18541 0.44324
 C669 C -0.01746 0.19871 0.39860
 H670 H -0.03031 0.20296 0.38644
 C671 C -0.02018 0.17946 0.41279
 H672 H -0.03487 0.16880 0.41085
 N673 N 0.00113 0.21209 0.40021
 C674 C 0.03451 0.25339 0.34740
 H675 H 0.02381 0.26848 0.34783
 C676 C 0.05217 0.25209 0.33151
 H677 H 0.05519 0.26648 0.32001
 C678 C 0.04339 0.21637 0.36200
 H679 H 0.03959 0.20231 0.37361
 C680 C 0.06121 0.21429 0.34628
 H681 H 0.07096 0.19854 0.34597
 Zn682 Zn 0.00512 0.23876 0.38182
 N683 N 0.03054 0.23575 0.36230
 C684 C 0.02784 0.27649 0.40120
 N685 N 0.00864 0.26388 0.40172
 C686 C -0.00823 0.26843 0.41699
 C687 C -0.00643 0.28671 0.43216
 C688 C 0.03033 0.29492 0.41600
 C689 C -0.02442 0.22718 0.34713
 C690 C -0.04145 0.23057 0.33133
 C691 C -0.04783 0.26841 0.34686
 C692 C -0.03091 0.26413 0.36262
 N693 N -0.01965 0.24374 0.36252
 H694 H 0.04134 0.27220 0.38943
 H695 H -0.02319 0.25791 0.41724
 H696 H -0.02021 0.29036 0.44389
 H697 H 0.04579 0.30467 0.41542
 H698 H -0.01481 0.21134 0.34705
 H699 H -0.04521 0.21691 0.31957
 H700 H -0.05603 0.28506 0.34680
 H701 H -0.02633 0.27742 0.37442
 C702 C 0.06573 0.23228 0.33069
 C703 C -0.00385 0.17414 0.42915
 C704 C -0.05331 0.25152 0.33086
 C705 C 0.01300 0.30033 0.43166
 C706 C -0.02554 0.70802 0.09194
 H707 H -0.04128 0.71725 0.09383
 C708 C -0.02360 0.69023 0.07618
 H709 H -0.03813 0.68562 0.06634
 C710 C 0.01235 0.70284 0.10281
 H711 H 0.02644 0.70814 0.11288
 C712 C 0.01511 0.68509 0.08708
 H713 H 0.03142 0.67694 0.08525
 N714 N -0.00781 0.71376 0.10507
 C715 C -0.04179 0.75009 0.16067
 H716 H -0.03276 0.76620 0.16001
 C717 C -0.05971 0.74721 0.17610
 H718 H -0.06458 0.76139 0.18697
 C719 C -0.04660 0.71237 0.14672
 H720 H -0.04120 0.69870 0.13551
 C721 C -0.06447 0.70865 0.16204
 H722 H -0.07263 0.69205 0.16241
 Zn723 Zn -0.01189 0.73871 0.12523
 N724 N -0.03594 0.73300 0.14602
 C725 C -0.03855 0.77546 0.10789
 N726 N -0.01815 0.76483 0.10686
 C727 C -0.00190 0.77196 0.09185
 C728 C -0.00547 0.79112 0.07782
 C729 C -0.04293 0.79454 0.09399
 C730 C 0.02089 0.72591 0.15665
 C731 C 0.03943 0.72857 0.17070
 C732 C 0.04345 0.76746 0.15643
 C733 C 0.02481 0.76407 0.14267
 N734 N 0.01409 0.74346 0.14284
 H735 H -0.05158 0.76901 0.11925
 H736 H 0.01400 0.76289 0.09103
 H737 H 0.00801 0.79692 0.06657
 H738 H -0.05937 0.80256 0.09491
 H739 H 0.01183 0.70983 0.15673
 H740 H 0.04475 0.71429 0.18135
 H741 H 0.05156 0.78408 0.15629
 H742 H 0.01872 0.77810 0.13223
 C743 C -0.07147 0.72631 0.17682
 C744 C -0.00305 0.67849 0.07353
 C745 C 0.05098 0.74957 0.17070
 C746 C -0.02620 0.80277 0.07883
 C747 C 0.49382 0.23172 0.58764
 H748 H 0.47864 0.24200 0.58697
 C749 C 0.49690 0.21342 0.57259
 H750 H 0.48406 0.21004 0.56019
 C751 C 0.52930 0.22450 0.60405
 H752 H 0.54207 0.22900 0.61609
 C753 C 0.53291 0.20584 0.58961
 H754 H 0.54824 0.19592 0.59127
 N755 N 0.50985 0.23683 0.60306
 C756 C 0.47594 0.27125 0.65987
 H757 H 0.48483 0.28744 0.65969
 C758 C 0.45913 0.26714 0.67626
 H759 H 0.45490 0.28055 0.68831
 C760 C 0.47058 0.23444 0.64394
 H761 H 0.47532 0.22164 0.63148
 C762 C 0.45381 0.22947 0.66023
 H763 H 0.44592 0.21275 0.66015
 Zn764 Zn 0.50439 0.26215 0.62264
 N765 N 0.48109 0.25515 0.64392
 C766 C 0.47657 0.29923 0.60778
 N767 N 0.49627 0.28775 0.60418
 C768 C 0.51059 0.29393 0.58689
 C769 C 0.50561 0.31268 0.57275
 C770 C 0.47102 0.31822 0.59419
 C771 C 0.53725 0.25274 0.65502
 C772 C 0.55578 0.25680 0.66869
 C773 C 0.55916 0.29455 0.65147
 C774 C 0.54066 0.28966 0.63793
 N775 N 0.53024 0.26893 0.63980
 H776 H 0.46511 0.29380 0.62122
 H777 H 0.52595 0.28424 0.58412
 H778 H 0.51717 0.31711 0.55895
 H779 H 0.45556 0.32746 0.59780
 H780 H 0.52841 0.23656 0.65647
 H781 H 0.56134 0.24337 0.68023
 H782 H 0.56695 0.31129 0.65000
 H783 H 0.53447 0.30257 0.62621
 C784 C 0.44777 0.24599 0.67665
 C785 C 0.51662 0.20002 0.57352
 C786 C 0.56698 0.27800 0.66713
 C787 C 0.48567 0.32529 0.57644
 C788 C 0.49829 0.71497 0.90791
 H789 H 0.51474 0.72284 0.90782
 C790 C 0.49400 0.69580 0.92179
 H791 H 0.50747 0.68878 0.93197
 C792 C 0.46097 0.71459 0.89442
 H793 H 0.44802 0.72222 0.88404
 C794 C 0.45587 0.69554 0.90824
 H795 H 0.43895 0.68879 0.90833
 N796 N 0.48196 0.72377 0.89435
 C797 C 0.51865 0.76115 0.84059
 H798 H 0.50993 0.77750 0.84132
 C799 C 0.53603 0.75786 0.82463
 H800 H 0.54079 0.77187 0.81327
 C801 C 0.52309 0.72312 0.85472
 H802 H 0.51774 0.70946 0.86613
 C803 C 0.54064 0.71912 0.83910
 H804 H 0.54866 0.70238 0.83874
 Zn805 Zn 0.48897 0.75020 0.87650
 N806 N 0.51274 0.74402 0.85544
 C807 C 0.51808 0.78340 0.89542
 N808 N 0.49738 0.77361 0.89689
 C809 C 0.48246 0.77952 0.91369
 C810 C 0.48796 0.79621 0.92962
 C811 C 0.52429 0.80016 0.91101
 C812 C 0.45697 0.74462 0.84294
 C813 C 0.43888 0.75026 0.82907
 C814 C 0.43524 0.78642 0.84882
 C815 C 0.45350 0.78010 0.86228
 N816 N 0.46381 0.75940 0.85924
 H817 H 0.52997 0.77803 0.88238
 H818 H 0.46623 0.77121 0.91468
 H819 H 0.47569 0.80093 0.94264
 H820 H 0.54094 0.80752 0.90973
 H821 H 0.46563 0.72837 0.84075
 H822 H 0.43350 0.73809 0.81641
 H823 H 0.42731 0.80302 0.85130
 H824 H 0.45951 0.79185 0.87496
 C825 C 0.54739 0.73666 0.82387
 C826 C 0.47251 0.68582 0.92217
 C827 C 0.42776 0.77142 0.83191
 C828 C 0.50913 0.80680 0.92840
 C829 C 0.15943 0.20469 0.29160
 C830 C 0.15647 0.21314 0.26926
 C831 C 0.13615 0.22410 0.26373
 C832 C 0.11888 0.22633 0.28020
 C833 C 0.12203 0.21770 0.30259
 C834 C 0.14241 0.20702 0.30814
 C835 C 0.10472 0.21980 0.31903
 C836 C 0.08417 0.23027 0.31337
 C837 C 0.08124 0.23873 0.29100
 C838 C 0.09844 0.23683 0.27459
 H839 H 0.13358 0.23042 0.24649
 H840 H 0.14515 0.20037 0.32524
 H841 H 0.10734 0.21346 0.33626
 H842 H 0.09568 0.24342 0.25748
 H843 H 0.17503 0.19643 0.29633
 H844 H 0.06547 0.24653 0.28604
 C845 C 0.64122 0.70334 0.79028
 C846 C 0.63977 0.71117 0.76753
 C847 C 0.62006 0.72255 0.76057
 C848 C 0.60212 0.72604 0.77605
 C849 C 0.60380 0.71798 0.79882
 C850 C 0.62342 0.70668 0.80576
 C851 C 0.58586 0.72141 0.81430
 C852 C 0.56623 0.73290 0.80738
 C853 C 0.56477 0.74090 0.78470
 C854 C 0.58252 0.73745 0.76916
 H855 H 0.61852 0.72843 0.74305
 H856 H 0.62504 0.70050 0.82318
 H857 H 0.58731 0.71543 0.83182
 H858 H 0.58092 0.74371 0.75176
 H859 H 0.65627 0.69486 0.79626
 H860 H 0.54974 0.74959 0.77890
 C861 C 0.37288 0.77604 0.74308
 C862 C 0.35301 0.78540 0.75252
 C863 C 0.35245 0.79147 0.77574
 C864 C 0.37125 0.78751 0.78950
 C865 C 0.39091 0.77759 0.77986
 C866 C 0.39165 0.77221 0.75660
 C867 C 0.40940 0.77284 0.79371
 C868 C 0.40856 0.77770 0.81719
 C869 C 0.38912 0.78800 0.82654
 C870 C 0.37062 0.79286 0.81282
 H871 H 0.33720 0.79852 0.78326
 H872 H 0.40665 0.76475 0.74890
 H873 H 0.42445 0.76525 0.78622
 H874 H 0.35570 0.80048 0.82053
 H875 H 0.37389 0.77163 0.72518
 H876 H 0.38801 0.79178 0.84461
 C877 C -0.14053 0.29308 0.29058
 C878 C -0.13856 0.28375 0.26842
 C879 C -0.11982 0.26952 0.26348
 C880 C -0.10356 0.26493 0.28004
 C881 C -0.10604 0.27421 0.30213
 C882 C -0.12460 0.28821 0.30722
 C883 C -0.08987 0.26948 0.31873
 C884 C -0.07083 0.25597 0.31344
 C885 C -0.06843 0.24705 0.29124
 C886 C -0.08470 0.25135 0.27478
 H887 H -0.11728 0.26252 0.24658
 H888 H -0.12679 0.29546 0.32411
 H889 H -0.09222 0.27624 0.33579
 H890 H -0.08238 0.24424 0.25785
 H891 H -0.15473 0.30364 0.29556
 H892 H -0.05377 0.23703 0.28641
 C893 C -0.12983 0.73796 0.26493
 C894 C -0.14865 0.72513 0.25808
 C895 C -0.14781 0.71496 0.23622
 C896 C -0.12897 0.71755 0.22174
 C897 C -0.11033 0.73029 0.22901
 C898 C -0.11092 0.74038 0.25064
 C899 C -0.09148 0.73286 0.21448
 C900 C -0.09113 0.72309 0.19254
 C901 C -0.10991 0.71055 0.18549
 C902 C -0.12858 0.70772 0.19996
 H903 H -0.16198 0.70552 0.22988
 H904 H -0.09674 0.75019 0.25653
 H905 H -0.07706 0.74233 0.22033
 H906 H -0.14281 0.69801 0.19403
 H907 H -0.12924 0.74579 0.28156
 H908 H -0.11037 0.70321 0.16858
 C909 C 0.35689 0.20877 0.71491
 C910 C 0.35772 0.21872 0.73683
 C911 C 0.37712 0.23130 0.74242
 C912 C 0.39480 0.23428 0.72652
 C913 C 0.39329 0.22479 0.70451
 C914 C 0.37435 0.21193 0.69896
 C915 C 0.41064 0.22848 0.68836
 C916 C 0.42973 0.24135 0.69399
 C917 C 0.43128 0.25014 0.71624
 C918 C 0.41397 0.24673 0.73229
 H919 H 0.37888 0.23853 0.75924
 H920 H 0.37292 0.20446 0.68215
 H921 H 0.40899 0.22175 0.67126
 H922 H 0.41556 0.25392 0.74920
 H923 H 0.34242 0.19924 0.70950
 H924 H 0.44596 0.25962 0.72133
 C925 C 0.62538 0.27127 0.75365
 C926 C 0.64420 0.28379 0.74545
 C927 C 0.64311 0.29374 0.72334
 C928 C 0.62420 0.29052 0.70964
 C929 C 0.60576 0.27774 0.71820
 C930 C 0.60642 0.26843 0.74028
 C931 C 0.58701 0.27419 0.70447
 C932 C 0.58653 0.28278 0.68192
 C933 C 0.60498 0.29558 0.67357
 C934 C 0.62357 0.29951 0.68732
 H935 H 0.65725 0.30315 0.71620
 H936 H 0.59232 0.25873 0.74718
 H937 H 0.57279 0.26470 0.71139
 H938 H 0.63760 0.30927 0.68037
 H939 H 0.62485 0.26393 0.77068
 H940 H 0.60527 0.30219 0.65621
 C941 C 0.14515 0.78384 0.19846
 C942 C 0.14474 0.77535 0.22106
 C943 C 0.12566 0.76331 0.22903
 C944 C 0.10732 0.75978 0.21470
 C945 C 0.10795 0.76844 0.19206
 C946 C 0.12695 0.78042 0.18411
 C947 C 0.08958 0.76499 0.17776
 C948 C 0.07052 0.75296 0.18577
 C949 C 0.07013 0.74438 0.20831
 C950 C 0.08834 0.74777 0.22265
 H951 H 0.12491 0.75694 0.24647
 H952 H 0.12776 0.78711 0.16677
 H953 H 0.09022 0.77145 0.16032
 H954 H 0.08754 0.74107 0.23998
 H955 H 0.15971 0.79286 0.19174
 H956 H 0.05554 0.73533 0.21500
 C957 C 0.24938 0.11425 0.22429
 C958 C 0.25872 0.13465 0.21530
 C959 C 0.28142 0.13474 0.20821
 C960 C 0.29478 0.11492 0.21076
 C961 C 0.28525 0.09469 0.22028
 C962 C 0.26249 0.09446 0.22671
 C963 C 0.29870 0.07512 0.22354
 C964 C 0.32168 0.07543 0.21760
 C965 C 0.33092 0.09550 0.20777
 C966 C 0.31760 0.11506 0.20437
 H967 H 0.28885 0.15039 0.20142
 H968 H 0.25488 0.07906 0.23389
 H969 H 0.29128 0.05964 0.23078
 H970 H 0.32521 0.13040 0.19707
 H971 H 0.23186 0.11360 0.22948
 H972 H 0.34862 0.09625 0.20322
 C973 C 0.74286 0.61542 0.73672
 C974 C 0.75060 0.63577 0.72616
 C975 C 0.77322 0.63710 0.71889
 C976 C 0.78788 0.61842 0.72213
 C977 C 0.77987 0.59807 0.73275
 C978 C 0.75733 0.59674 0.73996
 C979 C 0.79448 0.57936 0.73593
 C980 C 0.81711 0.58067 0.72869
 C981 C 0.82491 0.60102 0.71818
 C982 C 0.81044 0.61973 0.71494
 H983 H 0.77950 0.65277 0.71100
 H984 H 0.75088 0.58125 0.74807
 H985 H 0.78815 0.56366 0.74374
 H986 H 0.81690 0.63522 0.70683
 H987 H 0.72548 0.61381 0.74220
 H988 H 0.84230 0.60258 0.71269
 C989 C 0.78582 0.34322 0.78344
 C990 C 0.76399 0.34558 0.77448
 C991 C 0.75900 0.36571 0.76177
 C992 C 0.77506 0.38318 0.75882
 C993 C 0.79668 0.38043 0.76808
 C994 C 0.80193 0.36032 0.78015
 C995 C 0.81269 0.39790 0.76531
 C996 C 0.80733 0.41846 0.75374
 C997 C 0.78569 0.42106 0.74465
 C998 C 0.76976 0.40357 0.74707
 H999 H 0.74240 0.36842 0.75495
 H1000 H 0.81850 0.35785 0.78722
 H1001 H 0.82938 0.39538 0.77208
 H1002 H 0.75321 0.40610 0.73996
 H1003 H 0.79090 0.32792 0.79263
 H1004 H 0.78090 0.43680 0.73596
 C1005 C 0.24721 -0.13017 0.24430
 C1006 C 0.25404 -0.14891 0.25815
 C1007 C 0.27540 -0.14776 0.26834
 C1008 C 0.28945 -0.12870 0.26467
 C1009 C 0.28218 -0.11018 0.25089
 C1010 C 0.26103 -0.11107 0.24085
 C1011 C 0.29621 -0.09109 0.24728
 C1012 C 0.31768 -0.09037 0.25703
 C1013 C 0.32478 -0.10906 0.27060
 C1014 C 0.31079 -0.12797 0.27446
 H1015 H 0.28165 -0.16187 0.27861
 H1016 H 0.25514 -0.09696 0.23027
 H1017 H 0.29030 -0.07674 0.23704
 H1018 H 0.31675 -0.14210 0.28496
 H1019 H 0.23091 -0.12972 0.23645
 H1020 H 0.34134 -0.10925 0.27799
 C1021 C 0.21261 -0.15082 0.71067
 C1022 C 0.23445 -0.14933 0.71970
 C1023 C 0.23988 -0.12949 0.73221
 C1024 C 0.22418 -0.11161 0.73518
 C1025 C 0.20247 -0.11356 0.72605
 C1026 C 0.19684 -0.13327 0.71395
 C1027 C 0.18678 -0.09570 0.72903
 C1028 C 0.19260 -0.07557 0.74066
 C1029 C 0.21440 -0.07376 0.74948
 C1030 C 0.22996 -0.09164 0.74689
 H1031 H 0.25653 -0.12733 0.73899
 H1032 H 0.18021 -0.13511 0.70691
 H1033 H 0.17000 -0.09759 0.72238
 H1034 H 0.24661 -0.08972 0.75385
 H1035 H 0.20724 -0.16580 0.70150
 H1036 H 0.21962 -0.05834 0.75809
 C1037 C 0.76626 0.38350 0.23241
 C1038 C 0.75771 0.36345 0.22260
 C1039 C 0.73525 0.36319 0.21547
 C1040 C 0.72142 0.38259 0.21846
 C1041 C 0.73022 0.40260 0.22843
 C1042 C 0.75269 0.40292 0.23521
 C1043 C 0.71639 0.42192 0.23166
 C1044 C 0.69366 0.42149 0.22540
 C1045 C 0.68510 0.40150 0.21542
 C1046 C 0.69886 0.38227 0.21191
 H1047 H 0.72845 0.34775 0.20808
 H1048 H 0.75973 0.41815 0.24281
 H1049 H 0.72337 0.43730 0.23900
 H1050 H 0.69179 0.36705 0.20433
 H1051 H 0.78358 0.38422 0.23771
 H1052 H 0.66761 0.40055 0.21071
 C1053 C 0.71132 0.66057 0.29542
 C1054 C 0.73417 0.65840 0.28931
 C1055 C 0.74162 0.63821 0.27844
 C1056 C 0.72653 0.62054 0.27362
 C1057 C 0.70359 0.62293 0.27977
 C1058 C 0.69615 0.64301 0.29067
 C1059 C 0.68850 0.60520 0.27494
 C1060 C 0.69606 0.58504 0.26406
 C1061 C 0.71894 0.58291 0.25805
 C1062 C 0.73403 0.60048 0.26277
 H1063 H 0.75924 0.63608 0.27399
 H1064 H 0.67861 0.64517 0.29547
 H1065 H 0.67086 0.60719 0.27944
 H1066 H 0.75159 0.59834 0.25802
 H1067 H 0.70509 0.67600 0.30358
 H1068 H 0.72528 0.56745 0.24999
 C1069 C 0.21846 0.16014 0.78727
 C1070 C 0.24005 0.15773 0.77714
 C1071 C 0.24473 0.13759 0.76457
 C1072 C 0.22857 0.12023 0.76268
 C1073 C 0.20708 0.12309 0.77284
 C1074 C 0.20217 0.14316 0.78496
 C1075 C 0.19090 0.10576 0.77089
 C1076 C 0.19605 0.08524 0.75933
 C1077 C 0.21767 0.08250 0.74957
 C1078 C 0.23368 0.09987 0.75107
 H1079 H 0.26120 0.13477 0.75702
 H1080 H 0.18573 0.14568 0.79281
 H1081 H 0.17428 0.10839 0.77825
 H1082 H 0.25017 0.09725 0.74336
 H1083 H 0.21372 0.17542 0.79656
 H1084 H 0.22240 0.06675 0.74101
 C1085 C 0.21889 0.28196 0.15777
 C1086 C 0.22484 0.25887 0.15385
 C1087 C 0.23363 0.25274 0.13226
 C1088 C 0.23617 0.26934 0.11482
 C1089 C 0.22986 0.29240 0.11895
 C1090 C 0.22136 0.29854 0.14051
 C1091 C 0.23204 0.30893 0.10143
 C1092 C 0.24047 0.30277 0.07974
 C1093 C 0.24690 0.27982 0.07588
 C1094 C 0.24474 0.26326 0.09324
 H1095 H 0.23807 0.23502 0.12885
 H1096 H 0.21657 0.31616 0.14403
 H1097 H 0.22730 0.32662 0.10473
 H1098 H 0.24965 0.24566 0.08973
 H1099 H 0.21248 0.28729 0.17430
 H1100 H 0.25323 0.27458 0.05927
 C1101 C 0.72157 0.74160 0.63116
 C1102 C 0.71169 0.74975 0.65154
 C1103 C 0.70510 0.77298 0.65278
 C1104 C 0.70839 0.78784 0.63400
 C1105 C 0.71837 0.77943 0.61364
 C1106 C 0.72485 0.75628 0.61239
 C1107 C 0.72171 0.79429 0.59487
 C1108 C 0.71527 0.81755 0.59615
 C1109 C 0.70535 0.82571 0.61651
 C1110 C 0.70194 0.81101 0.63525
 H1111 H 0.69773 0.77957 0.66845
 H1112 H 0.73246 0.74951 0.59689
 H1113 H 0.72909 0.78768 0.57919
 H1114 H 0.69434 0.81778 0.65074
 H1115 H 0.72650 0.72375 0.62962
 H1116 H 0.70050 0.84360 0.61806
 C1117 C 0.79487 0.77246 0.38271
 C1118 C 0.77643 0.76543 0.36984
 C1119 C 0.75477 0.77324 0.37595
 C1120 C 0.75160 0.78805 0.39454
 C1121 C 0.77026 0.79489 0.40744
 C1122 C 0.79181 0.78694 0.40142
 C1123 C 0.76708 0.80963 0.42607
 C1124 C 0.74551 0.81801 0.43187
 C1125 C 0.72711 0.81118 0.41877
 C1126 C 0.73010 0.79627 0.40036
 H1127 H 0.74049 0.76815 0.36594
 H1128 H 0.80631 0.79199 0.41112
 H1129 H 0.78142 0.81438 0.43617
 H1130 H 0.71562 0.79133 0.39057
 H1131 H 0.81166 0.76648 0.37843
 H1132 H 0.71037 0.81761 0.42252
 C1133 C 0.30781 0.27263 -0.13850
 C1134 C 0.28872 0.26530 -0.15019
 C1135 C 0.26735 0.27285 -0.14281
 C1136 C 0.26502 0.28723 -0.12382
 C1137 C 0.28429 0.29420 -0.11195
 C1138 C 0.30562 0.28691 -0.11950
 C1139 C 0.28188 0.30815 -0.09262
 C1140 C 0.26043 0.31534 -0.08502
 C1141 C 0.24144 0.30857 -0.09724
 C1142 C 0.24370 0.29462 -0.11642
 H1143 H 0.25255 0.26759 -0.15191
 H1144 H 0.32059 0.29209 -0.11062
 H1145 H 0.29667 0.31300 -0.08325
 H1146 H 0.22877 0.28957 -0.12543
 H1147 H 0.32442 0.26689 -0.14374
 H1148 H 0.22477 0.31419 -0.09205
 C1149 C 0.71201 0.21426 -0.14916
 C1150 C 0.71998 0.23693 -0.14824
 C1151 C 0.73144 0.24411 -0.12875
 C1152 C 0.73508 0.22883 -0.11051
 C1153 C 0.72727 0.20597 -0.11172
 C1154 C 0.71569 0.19888 -0.13110
 C1155 C 0.73126 0.19059 -0.09361
 C1156 C 0.74285 0.19777 -0.07417
 C1157 C 0.75026 0.22066 -0.07308
 C1158 C 0.74646 0.23602 -0.09109
 H1159 H 0.73733 0.26165 -0.12772
 H1160 H 0.70957 0.18142 -0.13233
 H1161 H 0.72566 0.17295 -0.09483
 H1162 H 0.75243 0.25353 -0.08981
 H1163 H 0.70331 0.20831 -0.16407
 H1164 H 0.75884 0.22680 -0.05816
 C1165 C 0.21397 0.71116 0.32949
 C1166 C 0.22082 0.73422 0.33076
 C1167 C 0.23098 0.74187 0.35085
 C1168 C 0.23399 0.72682 0.36946
 C1169 C 0.22682 0.70375 0.36802
 C1170 C 0.21695 0.69608 0.34791
 C1171 C 0.22953 0.68879 0.38675
 C1172 C 0.23930 0.69656 0.40698
 C1173 C 0.24651 0.71951 0.40814
 C1174 C 0.24388 0.73449 0.38957
 H1175 H 0.23608 0.75964 0.35224
 H1176 H 0.21146 0.67842 0.34646
 H1177 H 0.22415 0.67107 0.38552
 H1178 H 0.24943 0.75213 0.39100
 H1179 H 0.20642 0.70471 0.31413
 H1180 H 0.25384 0.72600 0.42361
 C1181 C 0.28496 0.71627 0.64831
 C1182 C 0.27729 0.73909 0.64650
 C1183 C 0.26722 0.74654 0.62614
 C1184 C 0.26503 0.73147 0.60775
 C1185 C 0.27279 0.70855 0.60978
 C1186 C 0.28265 0.70110 0.63016
 C1187 C 0.27060 0.69347 0.59140
 C1188 C 0.26092 0.70100 0.57086
 C1189 C 0.25336 0.72388 0.56901
 C1190 C 0.25536 0.73896 0.58730
 H1191 H 0.26153 0.76419 0.62446
 H1192 H 0.28865 0.68358 0.63203
 H1193 H 0.27621 0.67580 0.59321
 H1194 H 0.24943 0.75650 0.58540
 H1195 H 0.29256 0.71011 0.66390
 H1196 H 0.24613 0.73023 0.55330
 C1197 C 0.81943 0.24233 0.13748
 C1198 C 0.80012 0.25025 0.14910
 C1199 C 0.77886 0.24305 0.14202
 C1200 C 0.77690 0.22784 0.12369
 C1201 C 0.79642 0.22015 0.11193
 C1202 C 0.81761 0.22757 0.11890
 C1203 C 0.79445 0.20510 0.09347
 C1204 C 0.77322 0.19715 0.08683
 C1205 C 0.75397 0.20470 0.09897
 C1206 C 0.75578 0.22000 0.11708
 H1207 H 0.76393 0.24887 0.15115
 H1208 H 0.83276 0.22183 0.11012
 H1209 H 0.80945 0.19979 0.08417
 H1210 H 0.74066 0.22553 0.12606
 H1211 H 0.83594 0.24781 0.14265
 H1212 H 0.73744 0.19855 0.09467
 C1213 C 0.50496 0.41259 0.51795
 C1214 C 0.48270 0.41743 0.51175
 C1215 C 0.46527 0.40338 0.52022
 C1216 C 0.47010 0.38433 0.53429
 C1217 C 0.49257 0.37962 0.54036
 C1218 C 0.50984 0.39397 0.53226
 C1219 C 0.49747 0.36054 0.55427
 C1220 C 0.48028 0.34571 0.56196
 C1221 C 0.45798 0.35053 0.55574
 C1222 C 0.45292 0.36970 0.54214
 H1223 H 0.44810 0.40690 0.51531
 H1224 H 0.52716 0.39065 0.53677
 H1225 H 0.51470 0.35736 0.55920
 H1226 H 0.43561 0.37294 0.53755
 H1227 H 0.51858 0.42337 0.51177
 H1228 H 0.44441 0.33927 0.56109
 C1229 C -0.01857 0.86603 -0.00688
 C1230 C -0.03151 0.88469 0.00143
 C1231 C -0.04111 0.88274 0.02362
 C1232 C -0.03768 0.86301 0.03710
 C1233 C -0.02477 0.84457 0.02840
 C1234 C -0.01539 0.84622 0.00637
 C1235 C -0.02133 0.82485 0.04191
 C1236 C -0.03031 0.82343 0.06428
 C1237 C -0.04304 0.84200 0.07279
 C1238 C -0.04677 0.86154 0.05931
 H1239 H -0.05064 0.89676 0.03099
 H1240 H -0.00549 0.83219 -0.00062
 H1241 H -0.01176 0.81058 0.03493
 H1242 H -0.05659 0.87560 0.06635
 H1243 H -0.01123 0.86625 -0.02388
 H1244 H -0.04984 0.84163 0.09006
 C1245 C 0.03162 0.58584 0.03468
 C1246 C 0.02047 0.58660 0.01351
 C1247 C 0.00656 0.60582 0.00888
 C1248 C 0.00412 0.62371 0.02471
 C1249 C 0.01536 0.62244 0.04574
 C1250 C 0.02898 0.60342 0.05056
 C1251 C 0.01284 0.64022 0.06163
 C1252 C -0.00054 0.65958 0.05669
 C1253 C -0.01148 0.66076 0.03556
 C1254 C -0.00926 0.64297 0.01978
 H1255 H -0.00192 0.60743 -0.00726
 H1256 H 0.03766 0.60211 0.06667
 H1257 H 0.02114 0.63882 0.07794
 H1258 H -0.01789 0.64437 0.00366
 H1259 H 0.04200 0.57138 0.03953
 H1260 H -0.02157 0.67560 0.03104
 C1261 C 0.49054 0.11607 0.51481
 C1262 C 0.51235 0.10995 0.50755
 C1263 C 0.53069 0.12302 0.51474
 C1264 C 0.52728 0.14208 0.52895
 C1265 C 0.50530 0.14785 0.53650
 C1266 C 0.48705 0.13473 0.52932
 C1267 C 0.50193 0.16664 0.55107
 C1268 C 0.52019 0.18015 0.55792
 C1269 C 0.54192 0.17443 0.54986
 C1270 C 0.54544 0.15552 0.53568
 H1271 H 0.54752 0.11853 0.50895
 H1272 H 0.47007 0.13893 0.53488
 H1273 H 0.48510 0.17047 0.55731
 H1274 H 0.56238 0.15149 0.52987
 H1275 H 0.47623 0.10610 0.50956
 H1276 H 0.55628 0.18473 0.55430
 C1277 C -0.05453 0.10300 0.49035
 C1278 C -0.03567 0.09027 0.49728
 C1279 C -0.01420 0.09679 0.48930
 C1280 C -0.01159 0.11573 0.47448
 C1281 C -0.03065 0.12856 0.46780
 C1282 C -0.05204 0.12207 0.47585
 C1283 C -0.02802 0.14763 0.45316
 C1284 C -0.00659 0.15394 0.44475
 C1285 C 0.01220 0.14085 0.45136
 C1286 C 0.00975 0.12200 0.46615
 H1287 H 0.00040 0.08686 0.49432
 H1288 H -0.06684 0.13170 0.47090
 H1289 H -0.04266 0.15770 0.44857
 H1290 H 0.02453 0.11226 0.47097
 H1291 H -0.07119 0.09838 0.49645
 H1292 H 0.02885 0.14498 0.44487
 C1293 C 0.47952 0.62289 1.00782
 C1294 C 0.46509 0.60512 1.00084
 C1295 C 0.45442 0.60764 0.97952
 C1296 C 0.45850 0.62697 0.96548
 C1297 C 0.47304 0.64440 0.97287
 C1298 C 0.48330 0.64226 0.99410
 C1299 C 0.47724 0.66364 0.95886
 C1300 C 0.46748 0.66562 0.93719
 C1301 C 0.45305 0.64811 0.92996
 C1302 C 0.44853 0.62903 0.94399
 H1303 H 0.44357 0.59430 0.97327
 H1304 H 0.49440 0.65556 1.00010
 H1305 H 0.48806 0.67714 0.96494
 H1306 H 0.43742 0.61578 0.93793
 H1307 H 0.48762 0.62235 1.02420
 H1308 H 0.44551 0.64893 0.91325
 C1309 C 0.55145 0.89693 0.96329
 C1310 C 0.54521 0.89435 0.98645
 C1311 C 0.53319 0.87464 0.99341
 C1312 C 0.52734 0.85789 0.97749
 C1313 C 0.53362 0.86075 0.95426
 C1314 C 0.54571 0.88031 0.94735
 C1315 C 0.52764 0.84405 0.93832
 C1316 C 0.51545 0.82446 0.94528
 C1317 C 0.50938 0.82178 0.96848
 C1318 C 0.51527 0.83833 0.98443
 H1319 H 0.52854 0.87223 1.01123
 H1320 H 0.55062 0.88282 0.92959
 H1321 H 0.53220 0.84648 0.92046
 H1322 H 0.51039 0.83581 1.00219
 H1323 H 0.56044 0.91204 0.95739
 H1324 H 0.50030 0.80671 0.97436
 C1325 C 0.04064 0.39807 0.46078
 C1326 C 0.03433 0.39623 0.48398
 C1327 C 0.02418 0.37583 0.49201
 C1328 C 0.02084 0.35737 0.47716
 C1329 C 0.02759 0.35937 0.45396
 C1330 C 0.03729 0.37984 0.44591
 C1331 C 0.02472 0.34081 0.43921
 C1332 C 0.01528 0.32011 0.44727
 C1333 C 0.00836 0.31837 0.47031
 C1334 C 0.01112 0.33682 0.48513
 H1335 H 0.01941 0.37412 0.50989
 H1336 H 0.04242 0.38171 0.42814
 H1337 H 0.02979 0.34251 0.42139
 H1338 H 0.00586 0.33495 0.50286
 H1339 H 0.04808 0.41371 0.45405
 H1340 H 0.00121 0.30254 0.47699
 C1341 C 0.40843 0.55370 0.46542
 C1342 C 0.40658 0.53049 0.47215
 C1343 C 0.38596 0.52250 0.48117
 C1344 C 0.36733 0.53736 0.48291
 C1345 C 0.36937 0.56052 0.47568
 C1346 C 0.39003 0.56856 0.46717
 C1347 C 0.35069 0.57527 0.47693
 C1348 C 0.32988 0.56724 0.48533
 C1349 C 0.32805 0.54425 0.49273
 C1350 C 0.34660 0.52942 0.49150
 H1351 H 0.38425 0.50463 0.48625
 H1352 H 0.39193 0.58631 0.46172
 H1353 H 0.35239 0.59306 0.47151
 H1354 H 0.34469 0.51172 0.49711
 H1355 H 0.42419 0.56042 0.45883
 H1356 H 0.31215 0.53763 0.49912
 C1357 C 0.88252 -0.00395 -0.00854
 C1358 C 0.90032 0.00346 -0.02310
 C1359 C 0.89931 0.02611 -0.03205
 C1360 C 0.88122 0.04078 -0.02657
 C1361 C 0.86358 0.03282 -0.01221
 C1362 C 0.86441 0.01047 -0.00331
 C1363 C 0.84531 0.04730 -0.00701
 C1364 C 0.84449 0.06990 -0.01572
 C1365 C 0.86235 0.07778 -0.02974
 C1366 C 0.88048 0.06335 -0.03518
 H1367 H 0.91277 0.03274 -0.04282
 H1368 H 0.85097 0.00405 0.00769
 H1369 H 0.83158 0.04077 0.00351
 H1370 H 0.89394 0.06987 -0.04609
 H1371 H 0.88195 -0.02120 -0.00158
 H1372 H 0.86243 0.09521 -0.03639
 C1373 C 0.64577 -0.00769 0.01623
 C1374 C 0.62634 0.00071 0.02739
 C1375 C 0.62589 0.02365 0.03476
 C1376 C 0.64453 0.03799 0.03109
 C1377 C 0.66398 0.02934 0.01991
 C1378 C 0.66442 0.00647 0.01256
 C1379 C 0.68263 0.04368 0.01628
 C1380 C 0.68211 0.06666 0.02360
 C1381 C 0.66260 0.07506 0.03463
 C1382 C 0.64401 0.06087 0.03836
 H1383 H 0.61093 0.03046 0.04308
 H1384 H 0.67920 -0.00049 0.00401
 H1385 H 0.69763 0.03688 0.00800
 H1386 H 0.62920 0.06782 0.04686
 H1387 H 0.64666 -0.02535 0.01061
 H1388 H 0.66159 0.09277 0.04012
 C1389 C 0.12834 0.49940 0.50341
 C1390 C 0.11050 0.50681 0.51782
 C1391 C 0.11172 0.52909 0.52715
 C1392 C 0.13001 0.54352 0.52205
 C1393 C 0.14775 0.53560 0.50786
 C1394 C 0.14676 0.51352 0.49868
 C1395 C 0.16619 0.54988 0.50304
 C1396 C 0.16700 0.57230 0.51183
 C1397 C 0.14898 0.58013 0.52562
 C1398 C 0.13076 0.56584 0.53080
 H1399 H 0.09816 0.53572 0.53775
 H1400 H 0.16026 0.50715 0.48779
 H1401 H 0.18002 0.54337 0.49268
 H1402 H 0.11719 0.57232 0.54154
 H1403 H 0.12862 0.48236 0.49622
 H1404 H 0.14883 0.59743 0.53228
 C1405 C 0.09124 0.45360 -0.04147
 C1406 C 0.09054 0.47511 -0.03046
 C1407 C 0.10895 0.48111 -0.01675
 C1408 C 0.12733 0.46620 -0.01411
 C1409 C 0.12750 0.44465 -0.02494
 C1410 C 0.10938 0.43852 -0.03857
 C1411 C 0.14584 0.42966 -0.02206
 C1412 C 0.16434 0.43614 -0.00884
 C1413 C 0.16402 0.45786 0.00156
 C1414 C 0.14567 0.47265 -0.00091
 H1415 H 0.10957 0.49769 -0.00860
 H1416 H 0.10922 0.42204 -0.04704
 H1417 H 0.14559 0.41292 -0.03000
 H1418 H 0.14592 0.48924 0.00734
 H1419 H 0.07752 0.44789 -0.05184
 H1420 H 0.17814 0.46366 0.01138
 C1421 C 0.58153 0.97016 0.46459
 C1422 C 0.58206 0.99251 0.47386
 C1423 C 0.60063 0.99841 0.48738
 C1424 C 0.61816 0.98262 0.49121
 C1425 C 0.61713 0.96039 0.48186
 C1426 C 0.59873 0.95433 0.46867
 C1427 C 0.63456 0.94457 0.48574
 C1428 C 0.65340 0.95076 0.49853
 C1429 C 0.65432 0.97306 0.50760
 C1430 C 0.63684 0.98878 0.50408
 H1431 H 0.60204 1.01546 0.49440
 H1432 H 0.59763 0.93730 0.46143
 H1433 H 0.63334 0.92738 0.47891
 H1434 H 0.63804 1.00582 0.51126
 H1435 H 0.56755 0.96438 0.45464
 H1436 H 0.66873 0.97854 0.51716
 C1437 C 0.89227 0.95433 0.54736
 C1438 C 0.89131 0.97771 0.54110
 C1439 C 0.87097 0.98688 0.53303
 C1440 C 0.85195 0.97291 0.53107
 C1441 C 0.85316 0.94942 0.53732
 C1442 C 0.87339 0.94031 0.54549
 C1443 C 0.83418 0.93541 0.53518
 C1444 C 0.81396 0.94455 0.52678
 C1445 C 0.81294 0.96798 0.52073
 C1446 C 0.83174 0.98203 0.52288
 H1447 H 0.86984 1.00493 0.52848
 H1448 H 0.87465 0.92233 0.55031
 H1449 H 0.83527 0.91731 0.53964
 H1450 H 0.83049 1.00003 0.51809
 H1451 H 0.90776 0.94676 0.55337
 H1452 H 0.79749 0.97550 0.51452
 C1453 C 0.38041 0.48197 0.05805
 C1454 C 0.39099 0.49118 0.03839
 C1455 C 0.38251 0.48594 0.01678
 C1456 C 0.36394 0.47129 0.01483
 C1457 C 0.35345 0.46213 0.03474
 C1458 C 0.36173 0.46771 0.05626
 C1459 C 0.33499 0.44739 0.03283
 C1460 C 0.32699 0.44124 0.01124
 C1461 C 0.33762 0.45044 -0.00846
 C1462 C 0.35582 0.46540 -0.00668
 H1463 H 0.39072 0.49280 0.00154
 H1464 H 0.35389 0.46088 0.07171
 H1465 H 0.32682 0.44081 0.04821
 H1466 H 0.36372 0.47214 -0.02214
 H1467 H 0.38650 0.48601 0.07486
 H1468 H 0.33212 0.44577 -0.02533
 C1469 C 0.52556 0.51640 0.39221
 C1470 C 0.51966 0.49392 0.39882
 C1471 C 0.52823 0.47526 0.38632
 C1472 C 0.54238 0.47898 0.36726
 C1473 C 0.54840 0.50165 0.36086
 C1474 C 0.53996 0.52023 0.37349
 C1475 C 0.56264 0.50536 0.34188
 C1476 C 0.57068 0.48675 0.32884
 C1477 C 0.56435 0.46429 0.33528
 C1478 C 0.55045 0.46044 0.35437
 H1479 H 0.52347 0.45790 0.39115
 H1480 H 0.54437 0.53773 0.36882
 H1481 H 0.56760 0.52276 0.33741
 H1482 H 0.54586 0.44296 0.35893
 H1483 H 0.51922 0.53097 0.40175
 H1484 H 0.56989 0.44964 0.32538
 C1485 C 0.01272 -0.05301 0.87899
 C1486 C 0.00628 -0.03433 0.89270
 C1487 C 0.01460 -0.01231 0.88735
 C1488 C 0.02971 -0.00913 0.86888
 C1489 C 0.03618 -0.02813 0.85536
 C1490 C 0.02741 -0.04993 0.86041
 C1491 C 0.05154 -0.02512 0.83717
 C1492 C 0.06096 -0.00342 0.83241
 C1493 C 0.05430 0.01540 0.84590
 C1494 C 0.03878 0.01259 0.86390
 H1495 H 0.00987 0.00214 0.89797
 H1496 H 0.03214 -0.06466 0.85018
 H1497 H 0.05610 -0.03972 0.82668
 H1498 H 0.03409 0.02735 0.87412
 H1499 H 0.00630 -0.07005 0.88267
 H1500 H 0.06143 0.03226 0.84280
 C1501 C 0.01525 -0.01063 0.61180
 C1502 C 0.00885 0.01176 0.60536
 C1503 C 0.01782 0.03057 0.61694
 C1504 C 0.03295 0.02712 0.63479
 C1505 C 0.03954 0.00456 0.64096
 C1506 C 0.03060 -0.01421 0.62933
 C1507 C 0.05488 0.00115 0.65868
 C1508 C 0.06348 0.02000 0.67065
 C1509 C 0.05645 0.04233 0.66450
 C1510 C 0.04148 0.04586 0.64668
 H1511 H 0.01269 0.04787 0.61230
 H1512 H 0.03542 -0.03163 0.63385
 H1513 H 0.06027 -0.01616 0.66295
 H1514 H 0.03643 0.06326 0.64231
 H1515 H 0.00859 -0.02533 0.60299
 H1516 H 0.06229 0.05717 0.67368
 C1517 C 0.51291 0.50000 0.11074
 C1518 C 0.50692 0.52290 0.10586
 C1519 C 0.51707 0.54073 0.11795
 C1520 C 0.53303 0.53579 0.13470
 C1521 C 0.53917 0.51272 0.13927
 C1522 C 0.52899 0.49495 0.12721
 C1523 C 0.55533 0.50780 0.15584
 C1524 C 0.56524 0.52562 0.16828
 C1525 C 0.55874 0.54848 0.16371
 C1526 C 0.54291 0.55352 0.14701
 H1527 H 0.51233 0.55841 0.11449
 H1528 H 0.53347 0.47716 0.13050
 H1529 H 0.56032 0.49011 0.15887
 H1530 H 0.53827 0.57129 0.14385
 H1531 H 0.50544 0.48603 0.10148
 H1532 H 0.56566 0.56254 0.17328
 C1533 C 0.52171 -0.02447 0.12389
 C1534 C 0.51369 -0.03438 0.10377
 C1535 C 0.49082 -0.04028 0.10267
 C1536 C 0.47622 -0.03639 0.12130
 C1537 C 0.48448 -0.02635 0.14138
 C1538 C 0.50725 -0.02048 0.14250
 C1539 C 0.46983 -0.02238 0.15999
 C1540 C 0.44700 -0.02837 0.15883
 C1541 C 0.43901 -0.03839 0.13877
 C1542 C 0.45347 -0.04233 0.12017
 H1543 H 0.48427 -0.04760 0.08720
 H1544 H 0.51390 -0.01286 0.15779
 H1545 H 0.47625 -0.01489 0.17545
 H1546 H 0.44683 -0.04999 0.10489
 H1547 H 0.53926 -0.02005 0.12538
 H1548 H 0.42145 -0.04289 0.13734
 C1549 C 1.01080 0.48238 0.61830
 C1550 C 1.00173 0.47241 0.59870
 C1551 C 0.97886 0.46636 0.59886
 C1552 C 0.96526 0.47023 0.61828
 C1553 C 0.97459 0.48023 0.63788
 C1554 C 0.99738 0.48622 0.63771
 C1555 C 0.96101 0.48403 0.65732
 C1556 C 0.93813 0.47802 0.65747
 C1557 C 0.92903 0.46817 0.63782
 C1558 C 0.94245 0.46430 0.61842
 H1559 H 0.97159 0.45894 0.58379
 H1560 H 1.00485 0.49384 0.65260
 H1561 H 0.96833 0.49137 0.67243
 H1562 H 0.93498 0.45672 0.60352
 H1563 H 1.02840 0.48690 0.61876
 H1564 H 0.91140 0.46369 0.63734
 C1565 C 0.95679 0.52674 0.90133
 C1566 C 0.97897 0.51841 0.89934
 C1567 C 0.98592 0.50795 0.87879
 C1568 C 0.97103 0.50598 0.86052
 C1569 C 0.94886 0.51457 0.86273
 C1570 C 0.94190 0.52485 0.88323
 C1571 C 0.93403 0.51279 0.84440
 C1572 C 0.94104 0.50249 0.82380
 C1573 C 0.96312 0.49391 0.82186
 C1574 C 0.97798 0.49565 0.84002
 H1575 H 1.00300 0.50169 0.87684
 H1576 H 0.92492 0.53143 0.88527
 H1577 H 0.91698 0.51921 0.84625
 H1578 H 0.99493 0.48901 0.83799
 H1579 H 0.95082 0.53453 0.91702
 H1580 H 0.96904 0.48616 0.80611
 C1581 C 0.45162 0.03940 0.39833
 C1582 C 0.47406 0.03170 0.39798
 C1583 C 0.48245 0.02043 0.37845
 C1584 C 0.46867 0.01676 0.35962
 C1585 C 0.44612 0.02449 0.36019
 C1586 C 0.43776 0.03580 0.37963
 C1587 C 0.43233 0.02073 0.34135
 C1588 C 0.44078 0.00932 0.32190
 C1589 C 0.46328 0.00182 0.32154
 C1590 C 0.47709 0.00550 0.34021
 H1591 H 0.49981 0.01476 0.37774
 H1592 H 0.42050 0.04180 0.38040
 H1593 H 0.41495 0.02638 0.34196
 H1594 H 0.49438 -0.00044 0.33945
 H1595 H 0.44467 0.04792 0.41322
 H1596 H 0.47032 -0.00669 0.30667
   
