data_POSCAR
  _audit_creation_date              2014-09-24
  _audit_creation_method            'ToBaCCo'
  _symmetry_space_group_name_H-M    'P1'
  _symmetry_Int_Tables_number       1
  _symmetry_cell_setting            triclinic
  loop_
  _symmetry_equiv_pos_as_xyz
 x,y,z
_cell_length_a 58.1123
_cell_length_b 58.1335
_cell_length_c 58.1449
_cell_angle_alpha 89.998400
_cell_angle_beta 90.046300
_cell_angle_gamma 90.010700
loop_
  _atom_site_label
  _atom_site_type_symbol
  _atom_site_fract_x
  _atom_site_fract_y
  _atom_site_fract_z
C1 C 0.13355 -0.03200 0.25259
 C2 C 0.12425 -0.01024 0.25754
 C3 C 0.11537 -0.00586 0.27958
 C4 C 0.11560 -0.02308 0.29641
 C5 C 0.12508 -0.04465 0.29143
 C6 C 0.13417 -0.04911 0.26957
 C7 C 0.12388 0.00792 0.23976
 C8 C 0.11425 0.00353 0.21802
 C9 C 0.11369 0.02087 0.20127
 C10 C 0.12316 0.04251 0.20605
 C11 C 0.13297 0.04692 0.22760
 C12 C 0.13314 0.02975 0.24448
 H13 H 0.14067 -0.03539 0.23568
 H14 H 0.10796 0.01081 0.28348
 H15 H 0.10686 -0.01321 0.21436
 H16 H 0.14083 0.03321 0.26112
 H17 H 0.12538 -0.05790 0.30458
 H18 H 0.12291 0.05592 0.19307
 C19 C 0.36705 -0.02981 0.74544
 C20 C 0.37594 -0.00778 0.74098
 C21 C 0.38543 -0.00297 0.71929
 C22 C 0.38620 -0.02005 0.70233
 C23 C 0.37712 -0.04189 0.70682
 C24 C 0.36746 -0.04676 0.72833
 C25 C 0.37523 0.01021 0.75890
 C26 C 0.38403 0.00578 0.78098
 C27 C 0.38358 0.02295 0.79789
 C28 C 0.37396 0.04447 0.79291
 C29 C 0.36498 0.04891 0.77101
 C30 C 0.36579 0.03190 0.75399
 H31 H 0.35944 -0.03359 0.76203
 H32 H 0.39254 0.01391 0.71577
 H33 H 0.39158 -0.01085 0.78479
 H34 H 0.35874 0.03539 0.73707
 H35 H 0.37755 -0.05506 0.69362
 H36 H 0.37346 0.05777 0.80600
 C37 C 0.86655 0.47026 0.24646
 C38 C 0.87543 0.49230 0.24203
 C39 C 0.88501 0.49713 0.22039
 C40 C 0.88589 0.48004 0.20344
 C41 C 0.87683 0.45819 0.20790
 C42 C 0.86707 0.45331 0.22935
 C43 C 0.87468 0.51027 0.25998
 C44 C 0.88348 0.50582 0.28205
 C45 C 0.88305 0.52298 0.29898
 C46 C 0.87343 0.54451 0.29402
 C47 C 0.86444 0.54897 0.27213
 C48 C 0.86525 0.53198 0.25509
 H49 H 0.85888 0.46645 0.26302
 H50 H 0.89213 0.51401 0.21690
 H51 H 0.89104 0.48919 0.28584
 H52 H 0.85821 0.53548 0.23817
 H53 H 0.87735 0.44501 0.19470
 H54 H 0.87294 0.55779 0.30712
 C55 C 0.63517 0.46852 0.75379
 C56 C 0.62595 0.49031 0.75872
 C57 C 0.61705 0.49473 0.78074
 C58 C 0.61715 0.47748 0.79755
 C59 C 0.62654 0.45588 0.79257
 C60 C 0.63564 0.45142 0.77074
 C61 C 0.62548 0.50835 0.74084
 C62 C 0.61585 0.50371 0.71916
 C63 C 0.61523 0.52083 0.70224
 C64 C 0.62460 0.54255 0.70676
 C65 C 0.63440 0.54725 0.72825
 C66 C 0.63465 0.53026 0.74533
 H67 H 0.64228 0.46502 0.73691
 H68 H 0.60964 0.51140 0.78461
 H69 H 0.60851 0.48692 0.71562
 H70 H 0.64234 0.53391 0.76193
 H71 H 0.62673 0.44256 0.80563
 H72 H 0.62428 0.55575 0.69358
 C73 C 0.24320 0.13252 1.03119
 C74 C 0.23846 0.12337 1.00933
 C75 C 0.21664 0.11399 1.00482
 C76 C 0.19980 0.11356 1.02207
 C77 C 0.20460 0.12291 1.04375
 C78 C 0.22624 0.13248 1.04828
 C79 C 0.25628 0.12369 0.99123
 C80 C 0.27822 0.11447 0.99555
 C81 C 0.29509 0.11470 0.97834
 C82 C 0.29022 0.12455 0.95689
 C83 C 0.26847 0.13396 0.95255
 C84 C 0.25147 0.13333 0.96960
 H85 H 0.25991 0.14003 1.03474
 H86 H 0.21296 0.10670 0.98804
 H87 H 0.28195 0.10681 1.01215
 H88 H 0.23468 0.14073 0.96621
 H89 H 0.19155 0.12279 1.05709
 H90 H 0.30330 0.12493 0.94359
 C91 C 0.75522 0.36592 1.03125
 C92 C 0.75964 0.37492 1.00927
 C93 C 0.78137 0.38434 1.00443
 C94 C 0.79842 0.38493 1.02144
 C95 C 0.79399 0.37574 1.04325
 C96 C 0.77244 0.36613 1.04815
 C97 C 0.74162 0.37439 0.99133
 C98 C 0.71967 0.38347 0.99579
 C99 C 0.70268 0.38320 0.97866
 C100 C 0.70746 0.37345 0.95716
 C101 C 0.72924 0.36418 0.95268
 C102 C 0.74634 0.36484 0.96965
 H103 H 0.73856 0.35838 1.03500
 H104 H 0.78485 0.39152 0.98758
 H105 H 0.71601 0.39110 1.01242
 H106 H 0.76316 0.35758 0.96614
 H107 H 0.80732 0.37606 1.05633
 H108 H 0.69431 0.37307 0.94390
 C109 C 0.25671 0.86688 0.53075
 C110 C 0.26118 0.87590 0.50878
 C111 C 0.28292 0.88532 0.50401
 C112 C 0.29996 0.88589 0.52108
 C113 C 0.29543 0.87666 0.54287
 C114 C 0.27387 0.86706 0.54768
 C115 C 0.24317 0.87544 0.49083
 C116 C 0.22122 0.88451 0.49531
 C117 C 0.20425 0.88430 0.47819
 C118 C 0.20902 0.87465 0.45666
 C119 C 0.23078 0.86539 0.45214
 C120 C 0.24789 0.86597 0.46910
 H121 H 0.24006 0.85934 0.53450
 H122 H 0.28639 0.89252 0.48715
 H123 H 0.21750 0.89208 0.51194
 H124 H 0.26471 0.85872 0.46557
 H125 H 0.30864 0.87690 0.55607
 H126 H 0.19583 0.87435 0.44345
 C127 C 0.74468 0.63361 0.53209
 C128 C 0.74001 0.62490 0.51003
 C129 C 0.71814 0.61577 0.50524
 C130 C 0.70121 0.61517 0.52234
 C131 C 0.70592 0.62407 0.54422
 C132 C 0.72761 0.63339 0.54908
 C133 C 0.75790 0.62535 0.49200
 C134 C 0.77980 0.61605 0.49630
 C135 C 0.79663 0.61612 0.47904
 C136 C 0.79174 0.62591 0.45756
 C137 C 0.77003 0.63540 0.45325
 C138 C 0.75309 0.63494 0.47035
 H139 H 0.76143 0.64092 0.53587
 H140 H 0.71446 0.60878 0.48834
 H141 H 0.78352 0.60836 0.51289
 H142 H 0.73630 0.64235 0.46695
 H143 H 0.69274 0.62377 0.55741
 H144 H 0.80477 0.62611 0.44420
 C145 C -0.03041 0.25386 0.13263
 C146 C -0.00844 0.25791 0.12342
 C147 C -0.00324 0.27962 0.11416
 C148 C -0.01991 0.29705 0.11394
 C149 C -0.04170 0.29293 0.12336
 C150 C -0.04693 0.27140 0.13280
 C151 C 0.00914 0.23953 0.12365
 C152 C 0.00412 0.21772 0.11450
 C153 C 0.02089 0.20038 0.11458
 C154 C 0.04257 0.20467 0.12422
 C155 C 0.04759 0.22629 0.13355
 C156 C 0.03100 0.24374 0.13308
 H157 H -0.03447 0.23725 0.14007
 H158 H 0.01363 0.28278 0.10684
 H159 H -0.01265 0.21444 0.10698
 H160 H 0.03493 0.26044 0.14041
 H161 H -0.05459 0.30644 0.12341
 H162 H 0.05554 0.19125 0.12447
 C163 C -0.03155 0.74634 0.36732
 C164 C -0.00979 0.74108 0.37645
 C165 C -0.00570 0.71903 0.38546
 C166 C -0.02323 0.70251 0.38553
 C167 C -0.04481 0.70781 0.37621
 C168 C -0.04894 0.72967 0.36702
 C169 C 0.00866 0.75856 0.37643
 C170 C 0.00466 0.78053 0.38566
 C171 C 0.02217 0.79707 0.38565
 C172 C 0.04363 0.79187 0.37607
 C173 C 0.04768 0.77008 0.36666
 C174 C 0.03031 0.75339 0.36702
 H175 H -0.03478 0.76322 0.36006
 H176 H 0.01098 0.71489 0.39274
 H177 H -0.01194 0.78460 0.39314
 H178 H 0.03347 0.73658 0.35960
 H179 H -0.05833 0.69494 0.37609
 H180 H 0.05713 0.80475 0.37589
 C181 C 0.46891 0.24631 0.86745
 C182 C 0.49065 0.24101 0.87661
 C183 C 0.49467 0.21898 0.88570
 C184 C 0.47706 0.20249 0.88582
 C185 C 0.45550 0.20786 0.87646
 C186 C 0.45146 0.22971 0.86718
 C187 C 0.50916 0.25843 0.87658
 C188 C 0.50524 0.28041 0.88583
 C189 C 0.52284 0.29690 0.88589
 C190 C 0.54431 0.29158 0.87631
 C191 C 0.54826 0.26978 0.86688
 C192 C 0.53080 0.25318 0.86720
 H193 H 0.46574 0.26318 0.86014
 H194 H 0.51135 0.21485 0.89300
 H195 H 0.48863 0.28449 0.89328
 H196 H 0.53389 0.23635 0.85978
 H197 H 0.44189 0.19507 0.87634
 H198 H 0.55792 0.30436 0.87615
 C199 C 0.47046 0.75548 0.63535
 C200 C 0.49247 0.75952 0.62620
 C201 C 0.49766 0.78119 0.61685
 C202 C 0.48095 0.79854 0.61645
 C203 C 0.45913 0.79446 0.62579
 C204 C 0.45391 0.77298 0.63532
 C205 C 0.50995 0.74108 0.62628
 C206 C 0.50472 0.71934 0.61713
 C207 C 0.52138 0.70194 0.61693
 C208 C 0.54321 0.70606 0.62626
 C209 C 0.54848 0.72762 0.63560
 C210 C 0.53197 0.74516 0.63542
 H211 H 0.46638 0.73888 0.64280
 H212 H 0.51450 0.78437 0.60949
 H213 H 0.48787 0.71612 0.60978
 H214 H 0.53608 0.76182 0.64273
 H215 H 0.44624 0.80795 0.62559
 H216 H 0.55606 0.69253 0.62623
 C217 C 0.86752 1.02952 0.75296
 C218 C 0.87706 1.00787 0.75776
 C219 C 0.88624 1.00348 0.77966
 C220 C 0.88610 1.02066 0.79656
 C221 C 0.87633 1.04219 0.79173
 C222 C 0.86693 1.04657 0.76996
 C223 C 0.87741 0.98983 0.73990
 C224 C 0.88725 0.99429 0.71832
 C225 C 0.88774 0.97713 0.70141
 C226 C 0.87791 0.95554 0.70589
 C227 C 0.86785 0.95109 0.72734
 C228 C 0.86782 0.96813 0.74436
 H229 H 0.86018 1.03294 0.73615
 H230 H 0.89383 0.98683 0.78335
 H231 H 0.89486 1.01099 0.71490
 H232 H 0.85997 0.96466 0.76091
 H233 H 0.87600 1.05548 0.80483
 H234 H 0.87805 0.94226 0.69278
 C235 C 0.36536 0.52994 0.25353
 C236 C 0.37462 0.50816 0.25836
 C237 C 0.38374 0.50370 0.28027
 C238 C 0.38384 0.52090 0.29712
 C239 C 0.37437 0.54254 0.29228
 C240 C 0.36501 0.54702 0.27050
 C241 C 0.37481 0.49010 0.24053
 C242 C 0.38468 0.49445 0.21894
 C243 C 0.38514 0.47722 0.20211
 C244 C 0.37530 0.45569 0.20665
 C245 C 0.36521 0.45133 0.22809
 C246 C 0.36518 0.46842 0.24505
 H247 H 0.35808 0.53342 0.23671
 H248 H 0.39115 0.48699 0.28403
 H249 H 0.39236 0.51108 0.21541
 H250 H 0.35733 0.46501 0.26162
 H251 H 0.37427 0.55581 0.30538
 H252 H 0.37550 0.44240 0.19356
 C253 C 0.63353 1.03257 0.24515
 C254 C 0.62383 1.01087 0.24087
 C255 C 0.61386 1.00632 0.21935
 C256 C 0.61338 1.02337 0.20235
 C257 C 0.62329 1.04493 0.20664
 C258 C 0.63347 1.04949 0.22801
 C259 C 0.62417 0.99296 0.25885
 C260 C 0.61523 0.99760 0.28079
 C261 C 0.61538 0.98055 0.29782
 C262 C 0.62492 0.95890 0.29309
 C263 C 0.63407 0.95427 0.27127
 C264 C 0.63347 0.97119 0.25415
 H265 H 0.64147 1.03612 0.26165
 H266 H 0.60615 0.98967 0.21600
 H267 H 0.60782 1.01434 0.28440
 H268 H 0.64063 0.96759 0.23732
 H269 H 0.62310 1.05808 0.19341
 H270 H 0.62523 0.94570 0.30628
 C271 C 0.13425 0.53252 0.74525
 C272 C 0.12460 0.51080 0.74098
 C273 C 0.11463 0.50623 0.71947
 C274 C 0.11411 0.52326 0.70246
 C275 C 0.12398 0.54484 0.70673
 C276 C 0.13416 0.54943 0.72810
 C277 C 0.12494 0.49290 0.75897
 C278 C 0.11607 0.49757 0.78093
 C279 C 0.11614 0.48052 0.79793
 C280 C 0.12552 0.45882 0.79318
 C281 C 0.13461 0.45414 0.77135
 C282 C 0.13411 0.47108 0.75424
 H283 H 0.14219 0.53609 0.76175
 H284 H 0.10694 0.48956 0.71613
 H285 H 0.10873 0.51432 0.78462
 H286 H 0.14120 0.46743 0.73739
 H287 H 0.12376 0.55798 0.69349
 H288 H 0.12573 0.44565 0.80638
 C289 C 0.74375 0.86635 -0.03019
 C290 C 0.73892 0.87616 -0.00867
 C291 C 0.71714 0.88575 -0.00461
 C292 C 0.70042 0.88577 -0.02196
 C293 C 0.70526 0.87574 -0.04334
 C294 C 0.72690 0.86593 -0.04742
 C295 C 0.75663 0.87643 0.00954
 C296 C 0.77842 0.88587 0.00519
 C297 C 0.79517 0.88636 0.02254
 C298 C 0.79030 0.87694 0.04421
 C299 C 0.76864 0.86729 0.04856
 C300 C 0.75178 0.86725 0.03134
 H301 H 0.76048 0.85871 -0.03337
 H302 H 0.71338 0.89356 0.01190
 H303 H 0.78215 0.89317 -0.01157
 H304 H 0.73505 0.85972 0.03474
 H305 H 0.69226 0.87559 -0.05673
 H306 H 0.80328 0.87709 0.05763
 C307 C 0.24350 0.36512 0.46940
 C308 C 0.23898 0.37494 0.49098
 C309 C 0.21724 0.38449 0.49538
 C310 C 0.20025 0.38444 0.47828
 C311 C 0.20479 0.37441 0.45685
 C312 C 0.22638 0.36464 0.45244
 C313 C 0.25697 0.37521 0.50892
 C314 C 0.27874 0.38454 0.50420
 C315 C 0.29576 0.38496 0.52124
 C316 C 0.29123 0.37561 0.54300
 C317 C 0.26960 0.36606 0.54774
 C318 C 0.25245 0.36608 0.53080
 H319 H 0.26018 0.35750 0.46597
 H320 H 0.21372 0.39231 0.51193
 H321 H 0.28227 0.39182 0.48739
 H322 H 0.23575 0.35862 0.53449
 H323 H 0.19158 0.37421 0.44366
 H324 H 0.30447 0.37574 0.55615
 C325 C 0.25587 0.63425 -0.03095
 C326 C 0.26032 0.62430 -0.00941
 C327 C 0.28202 0.61466 -0.00499
 C328 C 0.29904 0.61473 -0.02202
 C329 C 0.29458 0.62489 -0.04342
 C330 C 0.27302 0.63476 -0.04785
 C331 C 0.24232 0.62399 0.00848
 C332 C 0.22065 0.61440 0.00377
 C333 C 0.20362 0.61388 0.02082
 C334 C 0.20808 0.62342 0.04253
 C335 C 0.22962 0.63323 0.04723
 C336 C 0.24675 0.63329 0.03032
 H337 H 0.23922 0.64192 -0.03440
 H338 H 0.28549 0.60675 0.01155
 H339 H 0.21725 0.60701 -0.01302
 H340 H 0.26338 0.64092 0.03398
 H341 H 0.30781 0.62511 -0.05656
 H342 H 0.19489 0.62324 0.05573
 C343 C 0.75730 0.13473 0.46864
 C344 C 0.76175 0.12496 0.49026
 C345 C 0.78348 0.11542 0.49479
 C346 C 0.80054 0.11543 0.47777
 C347 C 0.79605 0.12543 0.45627
 C348 C 0.77446 0.13518 0.45176
 C349 C 0.74371 0.12472 0.50811
 C350 C 0.72199 0.11529 0.50334
 C351 C 0.70491 0.11488 0.52031
 C352 C 0.70935 0.12435 0.54204
 C353 C 0.73094 0.13400 0.54684
 C354 C 0.74813 0.13396 0.52998
 H355 H 0.74062 0.14232 0.46512
 H356 H 0.78690 0.10765 0.51141
 H357 H 0.71853 0.10792 0.48655
 H358 H 0.76480 0.14149 0.53370
 H359 H 0.80926 0.12563 0.44310
 H360 H 0.69608 0.12421 0.55514
 C361 C 1.03170 0.75423 0.86689
 C362 C 1.00998 0.75817 0.87665
 C363 C 1.00500 0.77975 0.88628
 C364 C 1.02167 0.79717 0.88635
 C365 C 1.04326 0.79320 0.87635
 C366 C 1.04822 0.77176 0.86651
 C367 C 0.99246 0.73980 0.87666
 C368 C 0.99751 0.71817 0.88613
 C369 C 0.98081 0.70077 0.88627
 C370 C 0.95912 0.70483 0.87647
 C371 C 0.95409 0.72633 0.86678
 C372 C 0.97065 0.74382 0.86711
 H373 H 1.03556 0.73768 0.85920
 H374 H 0.98829 0.78278 0.89401
 H375 H 1.01429 0.71508 0.89371
 H376 H 0.96673 0.76042 0.85955
 H377 H 1.05615 0.80670 0.87618
 H378 H 0.94620 0.69135 0.87637
 C379 C 0.53123 0.25590 0.36478
 C380 C 0.50934 0.25984 0.37417
 C381 C 0.50413 0.28150 0.38348
 C382 C 0.52070 0.29899 0.38360
 C383 C 0.54245 0.29502 0.37399
 C384 C 0.54768 0.27350 0.36447
 C385 C 0.49192 0.24136 0.37419
 C386 C 0.49712 0.21972 0.38356
 C387 C 0.48051 0.20227 0.38376
 C388 C 0.45874 0.20624 0.37416
 C389 C 0.45353 0.22774 0.36457
 C390 C 0.47001 0.24530 0.36480
 H391 H 0.53529 0.23929 0.35734
 H392 H 0.48733 0.28459 0.39097
 H393 H 0.51392 0.21663 0.39106
 H394 H 0.46595 0.26190 0.35731
 H395 H 0.55524 0.30861 0.37392
 H396 H 0.44592 0.19268 0.37416
 C397 C 1.03071 0.24661 0.63306
 C398 C 1.00910 0.24143 0.62359
 C399 C 1.00522 0.21961 0.61401
 C400 C 1.02286 0.20318 0.61366
 C401 C 1.04434 0.20839 0.62335
 C402 C 1.04822 0.23008 0.63315
 C403 C 0.99059 0.25881 0.62368
 C404 C 0.99447 0.28073 0.61433
 C405 C 0.97686 0.29719 0.61417
 C406 C 0.95539 0.29190 0.62383
 C407 C 0.95150 0.27011 0.63339
 C408 C 0.96899 0.25355 0.63310
 H409 H 1.03374 0.26336 0.64070
 H410 H 0.98860 0.21563 0.60648
 H411 H 1.01108 0.28477 0.60682
 H412 H 0.96595 0.23673 0.64057
 H413 H 1.05799 0.19566 0.62331
 H414 H 0.94176 0.30465 0.62393
 C415 C 0.53017 0.74621 0.13346
 C416 C 0.50858 0.74108 0.12391
 C417 C 0.50465 0.71922 0.11444
 C418 C 0.52220 0.70272 0.11429
 C419 C 0.54365 0.70787 0.12406
 C420 C 0.54759 0.72959 0.13375
 C421 C 0.49015 0.75853 0.12384
 C422 C 0.49414 0.78038 0.11438
 C423 C 0.47662 0.79690 0.11413
 C424 C 0.45513 0.79179 0.12377
 C425 C 0.45111 0.77007 0.13345
 C426 C 0.46851 0.75342 0.13326
 H427 H 0.53324 0.76298 0.14103
 H428 H 0.48808 0.71522 0.10683
 H429 H 0.51075 0.78436 0.10688
 H430 H 0.46539 0.73666 0.14082
 H431 H 0.55719 0.69503 0.12413
 H432 H 0.44161 0.80465 0.12377
 O433 O -0.01057 0.93405 0.98210
 O434 O 0.00548 0.93075 1.01815
 O435 O -0.06704 0.98146 0.99257
 O436 O -0.07196 1.01746 1.00426
 O437 O -0.01977 0.99109 0.93498
 O438 O 0.01809 1.00595 0.93207
 O439 O -0.00555 1.04337 1.05088
 O440 O -0.03933 1.02282 1.05517
 O441 O 0.04806 0.99593 1.04498
 O442 O 0.05500 0.96167 1.02122
 O443 O 0.04284 1.04919 0.99712
 O444 O 0.01908 1.05635 0.96312
 O445 O 0.00722 1.06257 1.01917
 O446 O -0.00951 1.06648 0.97953
 O447 O 0.06204 1.01740 1.00948
 O448 O 0.06527 0.97789 0.99254
 O449 O 0.01643 1.00901 1.06399
 O450 O -0.02057 0.98746 1.06578
 O451 O 0.00268 0.95323 0.95054
 O452 O 0.03568 0.97725 0.94398
 O453 O -0.05164 1.00351 0.95402
 O454 O -0.05633 1.03794 0.97855
 O455 O -0.04785 0.94932 1.00414
 O456 O -0.02391 0.94571 1.03912
 Zr457 Zr -0.01334 0.95997 1.00719
 O458 O 0.00800 0.97964 1.02893
 Zr459 Zr -0.04110 1.00640 0.98855
 O460 O -0.02137 1.02788 1.01006
 Zr461 Zr 0.00531 0.98789 0.96091
 O462 O 0.02709 1.00905 0.98076
 Zr463 Zr -0.00959 1.00955 1.03886
 O464 O -0.03194 0.98883 1.01890
 Zr465 Zr 0.03685 0.99148 1.01080
 O466 O 0.01698 0.96945 0.98975
 Zr467 Zr 0.00872 1.03783 0.99270
 O468 O -0.01221 1.01818 0.97019
 O469 O -0.02433 0.97684 0.97755
 O470 O 0.02004 1.02097 1.02218
 C471 C -0.00337 0.93485 0.96122
 C472 C -0.06627 0.96034 0.99897
 C473 C -0.04077 0.99787 0.93566
 C474 C 0.00134 1.06157 1.04044
 C475 C 0.03766 1.00304 1.06310
 C476 C 0.06107 1.03869 1.00381
 H477 H 0.01239 0.97035 1.04249
 H478 H 0.04054 1.01357 0.97141
 H479 H -0.03420 0.96703 0.96771
 H480 H -0.03075 1.04124 1.01484
 H481 H -0.05194 1.01179 1.05202
 H482 H -0.06757 1.02493 1.01888
 H483 H 0.06831 0.98809 0.97927
 H484 H 0.04343 0.96620 0.95437
 H485 H -0.01930 0.99604 1.08047
 H486 H -0.03145 0.93066 1.03627
 H487 H 0.03155 1.04755 0.95562
 H488 H 0.01091 1.02138 0.93248
 H489 H 0.02105 0.93210 1.01140
 H490 H 0.04638 0.95453 1.03403
 H491 H -0.04689 1.04419 0.96584
 H492 H -0.02280 1.06938 0.98975
 O493 O 0.54907 0.49602 0.54489
 O494 O 0.55419 0.46296 0.52265
 O495 O 0.54315 0.55054 0.49580
 O496 O 0.52107 0.55913 0.46544
 O497 O 0.49397 0.54471 0.55104
 O498 O 0.46102 0.52089 0.55708
 O499 O 0.48041 0.49159 0.43534
 O500 O 0.51538 0.50926 0.43205
 O501 O 0.48949 0.43599 0.48109
 O502 O 0.50500 0.43168 0.51966
 O503 O 0.43386 0.48165 0.49123
 O504 O 0.42958 0.51981 0.50641
 O505 O 0.44860 0.50363 0.45485
 O506 O 0.44175 0.53800 0.48010
 O507 O 0.45322 0.44989 0.50343
 O508 O 0.47820 0.44324 0.53758
 O509 O 0.50117 0.45572 0.44936
 O510 O 0.53745 0.47802 0.44746
 O511 O 0.51706 0.50751 0.56449
 O512 O 0.47878 0.49135 0.56773
 O513 O 0.50619 0.56442 0.51948
 O514 O 0.48828 0.56686 0.48088
 O515 O 0.56255 0.51895 0.50853
 O516 O 0.56427 0.48102 0.48921
 Zr517 Zr 0.53735 0.49302 0.51076
 O518 O 0.51740 0.47121 0.48985
 Zr519 Zr 0.50874 0.53944 0.49340
 O520 O 0.48811 0.51952 0.47130
 Zr521 Zr 0.49104 0.51054 0.53937
 O522 O 0.46915 0.48976 0.51932
 Zr523 Zr 0.50563 0.48964 0.46114
 O524 O 0.52754 0.51110 0.48086
 Zr525 Zr 0.48744 0.46105 0.50719
 O526 O 0.50876 0.48065 0.52931
 Zr527 Zr 0.45925 0.50742 0.48935
 O528 O 0.47871 0.52944 0.51104
 O529 O 0.52019 0.52214 0.52241
 O530 O 0.47595 0.47792 0.47769
 C531 C 0.53838 0.50170 0.56337
 C532 C 0.56154 0.54006 0.50215
 C533 C 0.50005 0.56322 0.54064
 C534 C 0.45921 0.49771 0.43639
 C535 C 0.49535 0.43721 0.45984
 C536 C 0.43482 0.46047 0.49739
 H537 H 0.52689 0.45790 0.48514
 H538 H 0.45574 0.48527 0.52875
 H539 H 0.53004 0.53193 0.53227
 H540 H 0.48376 0.52891 0.45781
 H541 H 0.52946 0.51781 0.43645
 H542 H 0.51605 0.55126 0.45123
 H543 H 0.46485 0.45124 0.54444
 H544 H 0.48744 0.47668 0.56779
 H545 H 0.53463 0.47221 0.43167
 H546 H 0.57920 0.48356 0.49711
 H547 H 0.42892 0.51225 0.52163
 H548 H 0.45307 0.53208 0.54699
 H549 H 0.54340 0.45509 0.53320
 H550 H 0.51977 0.43053 0.51129
 H551 H 0.47463 0.56790 0.49102
 H552 H 0.44951 0.54453 0.46644
 O553 O 0.45692 -0.05014 0.49611
 O554 O 0.47880 -0.05549 0.46289
 O555 O 0.50676 -0.04430 0.55011
 O556 O 0.53718 -0.02228 0.55846
 O557 O 0.45153 0.00513 0.54470
 O558 O 0.44536 0.03800 0.52085
 O559 O 0.56682 0.01792 0.49050
 O560 O 0.57011 -0.01706 0.50816
 O561 O 0.52040 0.00898 0.43534
 O562 O 0.48172 -0.00640 0.43143
 O563 O 0.51107 0.06469 0.48091
 O564 O 0.49626 0.06925 0.51911
 O565 O 0.54755 0.04984 0.50264
 O566 O 0.52258 0.05687 0.53724
 O567 O 0.49841 0.04532 0.44935
 O568 O 0.46401 0.02052 0.44312
 O569 O 0.55232 -0.00276 0.45478
 O570 O 0.55427 -0.03905 0.47709
 O571 O 0.43758 -0.01801 0.50768
 O572 O 0.43436 0.02023 0.49146
 O573 O 0.48325 -0.00720 0.56413
 O574 O 0.52199 0.01055 0.56613
 O575 O 0.49357 -0.06374 0.51874
 O576 O 0.51241 -0.06566 0.48059
 Zr577 Zr 0.49110 -0.03861 0.49276
 O578 O 0.51188 -0.01883 0.47070
 Zr579 Zr 0.50908 -0.00994 0.53891
 O580 O 0.53109 0.01049 0.51873
 Zr581 Zr 0.46286 0.00788 0.51042
 O582 O 0.48281 0.02960 0.48940
 Zr583 Zr 0.54086 -0.00716 0.48881
 O584 O 0.52125 -0.02889 0.51052
 Zr585 Zr 0.49456 0.01117 0.46064
 O586 O 0.47254 -0.00997 0.48050
 Zr587 Zr 0.51302 0.03940 0.50675
 O588 O 0.49145 0.02012 0.52901
 O589 O 0.47982 -0.02132 0.52195
 O590 O 0.52430 0.02255 0.47719
 C591 C 0.43853 -0.03933 0.50190
 C592 C 0.50026 -0.06269 0.53975
 C593 C 0.46210 -0.00093 0.56312
 C594 C 0.56592 0.03913 0.49660
 C595 C 0.54166 0.00308 0.43637
 C596 C 0.50471 0.06370 0.45980
 H597 H 0.51643 -0.02837 0.45737
 H598 H 0.47340 0.04305 0.48496
 H599 H 0.47002 -0.03110 0.53186
 H600 H 0.54469 0.01479 0.52799
 H601 H 0.56572 -0.03110 0.51676
 H602 H 0.55133 -0.01757 0.55031
 H603 H 0.45733 0.03397 0.45110
 H604 H 0.43411 0.01154 0.47682
 H605 H 0.57002 -0.03632 0.47111
 H606 H 0.50448 -0.08054 0.48327
 H607 H 0.48092 0.06990 0.51177
 H608 H 0.45563 0.04596 0.53187
 H609 H 0.46826 -0.04464 0.45505
 H610 H 0.49004 -0.02119 0.43023
 H611 H 0.51187 0.02419 0.56729
 H612 H 0.53635 0.04914 0.54361
 O613 O -0.04327 0.44911 0.99669
 O614 O -0.02135 0.44401 0.96346
 O615 O 0.00645 0.45427 1.05084
 O616 O 0.03705 0.47604 1.05930
 O617 O -0.04849 0.50406 1.04584
 O618 O -0.05460 0.53705 1.02222
 O619 O 0.06681 0.51694 0.99181
 O620 O 0.07000 0.48180 1.00921
 O621 O 0.02044 0.50864 0.93657
 O622 O -0.01825 0.49335 0.93246
 O623 O 0.01113 0.56394 0.98261
 O624 O -0.00379 0.56799 1.02108
 O625 O 0.04760 0.54882 1.00417
 O626 O 0.02284 0.55571 1.03874
 O627 O -0.00154 0.54487 0.95087
 O628 O -0.03596 0.52016 0.94439
 O629 O 0.05230 0.49661 0.95594
 O630 O 0.05416 0.46012 0.97790
 O631 O -0.06252 0.48118 1.00860
 O632 O -0.06564 0.51954 0.99272
 O633 O -0.01683 0.49144 1.06518
 O634 O 0.02194 0.50887 1.06739
 O635 O -0.00671 0.43518 1.01924
 O636 O 0.01220 0.43357 0.98113
 Zr637 Zr -0.00905 0.46056 0.99351
 O638 O 0.01181 0.48049 0.97166
 Zr639 Zr 0.00897 0.48873 1.03995
 O640 O 0.03103 0.50932 1.01998
 Zr641 Zr -0.03717 0.50697 1.01157
 O642 O -0.01716 0.52884 0.99076
 Zr643 Zr 0.04080 0.49193 0.98990
 O644 O 0.02111 0.47003 1.01138
 Zr645 Zr -0.00543 0.51063 0.96185
 O646 O -0.02752 0.48937 0.98150
 Zr647 Zr 0.01306 0.53839 1.00823
 O648 O -0.00855 0.51894 1.03030
 O649 O -0.02031 0.47761 1.02286
 O650 O 0.02432 0.52179 0.97853
 C651 C -0.06163 0.45992 1.00259
 C652 C -0.00009 0.43599 1.04028
 C653 C -0.03794 0.49785 1.06422
 C654 C 0.06595 0.53812 0.99804
 C655 C 0.04169 0.50268 0.93757
 C656 C 0.00476 0.56315 0.96150
 H657 H 0.01635 0.47107 0.95824
 H658 H -0.02655 0.54233 0.98644
 H659 H -0.03016 0.46780 1.03268
 H660 H 0.04465 0.51352 1.02927
 H661 H 0.06558 0.46768 1.01765
 H662 H 0.05122 0.48098 1.05132
 H663 H -0.04263 0.53355 0.95249
 H664 H -0.06590 0.51099 0.97800
 H665 H 0.06992 0.46287 0.97198
 H666 H 0.00422 0.41869 0.98364
 H667 H -0.01891 0.56905 1.01334
 H668 H -0.04429 0.54495 1.03324
 H669 H -0.03185 0.45496 0.95571
 H670 H -0.00995 0.47857 0.93112
 H671 H 0.01201 0.52266 1.06854
 H672 H 0.03641 0.54770 1.04519
 O673 O 0.00546 0.43474 0.51876
 O674 O -0.01095 0.43140 0.48284
 O675 O 0.06225 0.48155 0.50765
 O676 O 0.06740 0.51739 0.49554
 O677 O 0.01560 0.49198 0.56551
 O678 O -0.02213 0.50712 0.56866
 O679 O 0.00085 0.54374 0.44947
 O680 O 0.03442 0.52285 0.44500
 O681 O -0.05316 0.49687 0.45607
 O682 O -0.06019 0.46273 0.48006
 O683 O -0.04699 0.55029 0.50355
 O684 O -0.02289 0.55736 0.53739
 O685 O -0.01147 0.56320 0.48120
 O686 O 0.00565 0.56718 0.52067
 O687 O -0.06661 0.51861 0.49154
 O688 O -0.07008 0.47922 0.50875
 O689 O -0.02156 0.50958 0.43676
 O690 O 0.01519 0.48764 0.43470
 O691 O -0.00730 0.45419 0.55035
 O692 O -0.04006 0.47850 0.55705
 O693 O 0.04740 0.50401 0.54609
 O694 O 0.05224 0.53820 0.52133
 O695 O 0.04267 0.44954 0.49636
 O696 O 0.01842 0.44599 0.46156
 Zr697 Zr 0.00824 0.46050 0.49350
 O698 O -0.01310 0.48025 0.47186
 Zr699 Zr 0.03659 0.50677 0.51165
 O700 O 0.01688 0.52833 0.49022
 Zr701 Zr -0.00974 0.48881 0.53981
 O702 O -0.03150 0.51007 0.52004
 Zr703 Zr 0.00469 0.50995 0.46163
 O704 O 0.02701 0.48912 0.48148
 Zr705 Zr -0.04169 0.49244 0.49017
 O706 O -0.02183 0.47034 0.51117
 Zr707 Zr -0.01296 0.53862 0.50780
 O708 O 0.00798 0.51889 0.53021
 O709 O 0.01964 0.47742 0.52296
 O710 O -0.02468 0.52171 0.47852
 C711 C -0.00151 0.43570 0.53970
 C712 C 0.06123 0.46039 0.50139
 C713 C 0.03665 0.49859 0.56457
 C714 C -0.00579 0.56205 0.45988
 C715 C -0.04284 0.50384 0.43785
 C716 C -0.06537 0.53993 0.49704
 H717 H -0.01770 0.47094 0.45838
 H718 H -0.04483 0.51476 0.52948
 H719 H 0.02950 0.46759 0.53278
 H720 H 0.02634 0.54158 0.48530
 H721 H 0.04694 0.51171 0.44807
 H722 H 0.06294 0.52497 0.48100
 H723 H -0.07291 0.48952 0.52198
 H724 H -0.04799 0.46748 0.54677
 H725 H 0.01388 0.49617 0.41998
 H726 H 0.02584 0.43089 0.46443
 H727 H -0.03546 0.54876 0.54497
 H728 H -0.01485 0.52251 0.56809
 H729 H -0.02644 0.43293 0.48972
 H730 H -0.05177 0.45550 0.46718
 H731 H 0.04295 0.54465 0.53405
 H732 H 0.01886 0.56992 0.51031
 O733 O 0.50563 0.93561 0.01800
 O734 O 0.48933 0.93228 -0.01797
 O735 O 0.56214 0.98283 0.00716
 O736 O 0.56708 1.01878 -0.00473
 O737 O 0.51523 0.99272 0.06496
 O738 O 0.47740 1.00766 0.06804
 O739 O 0.50054 1.04481 -0.05094
 O740 O 0.53423 1.02415 -0.05537
 O741 O 0.44681 0.99749 -0.04469
 O742 O 0.43993 0.96326 -0.02081
 O743 O 0.45241 1.05083 0.00299
 O744 O 0.47636 1.05796 0.03693
 O745 O 0.48797 1.06409 -0.01920
 O746 O 0.50486 1.06805 0.02034
 O747 O 0.43307 1.01905 -0.00919
 O748 O 0.42981 0.97959 0.00786
 O749 O 0.47838 1.01051 -0.06386
 O750 O 0.51529 0.98885 -0.06585
 O751 O 0.49262 0.95487 0.04960
 O752 O 0.45969 0.97894 0.05629
 O753 O 0.54702 1.00500 0.04569
 O754 O 0.55169 1.03936 0.02110
 O755 O 0.54279 0.95072 -0.00426
 O756 O 0.51867 0.94712 -0.03911
 Zr757 Zr 0.50831 0.96146 -0.00717
 O758 O 0.48691 0.98115 -0.02882
 Zr759 Zr 0.53629 1.00786 0.01123
 O760 O 0.51650 1.02935 -0.01019
 Zr761 Zr 0.48999 0.98951 0.03917
 O762 O 0.46814 1.01067 0.01940
 Zr763 Zr 0.50454 1.01100 -0.03889
 O764 O 0.52693 0.99025 -0.01903
 Zr765 Zr 0.45818 0.99307 -0.01056
 O766 O 0.47811 0.97104 0.01044
 Zr767 Zr 0.48652 1.03939 0.00731
 O768 O 0.50754 1.01974 0.02972
 O769 O 0.51950 0.97836 0.02238
 O770 O 0.47502 1.02250 -0.02207
 C771 C 0.49858 0.93646 0.03892
 C772 C 0.56127 0.96169 0.00083
 C773 C 0.53625 0.99945 0.06412
 C774 C 0.49376 1.06304 -0.04049
 C775 C 0.45715 1.00458 -0.06286
 C776 C 0.43412 1.04035 -0.00360
 H777 H 0.48243 0.97184 -0.04234
 H778 H 0.45475 1.01524 0.02881
 H779 H 0.52940 0.96855 0.03219
 H780 H 0.52589 1.04269 -0.01503
 H781 H 0.54682 1.01310 -0.05228
 H782 H 0.56261 1.02637 -0.01927
 H783 H 0.42688 0.98981 0.02114
 H784 H 0.45185 0.96791 0.04595
 H785 H 0.51397 0.99741 -0.08054
 H786 H 0.52617 0.93204 -0.03627
 H787 H 0.46383 1.04924 0.04444
 H788 H 0.48461 1.02308 0.06755
 H789 H 0.47382 0.93365 -0.01109
 H790 H 0.44845 0.95611 -0.03368
 H791 H 0.54231 1.04569 0.03382
 H792 H 0.51814 1.07086 0.01009
 O793 O 0.43677 0.51719 0.00809
 O794 O 0.43340 0.48120 -0.00816
 O795 O 0.48362 0.50628 0.06489
 O796 O 0.51948 0.49422 0.07013
 O797 O 0.49403 0.56393 0.01795
 O798 O 0.50923 0.56690 -0.01976
 O799 O 0.54573 0.44774 0.00380
 O800 O 0.52490 0.44349 0.03743
 O801 O 0.49883 0.45414 -0.05015
 O802 O 0.46472 0.47812 -0.05733
 O803 O 0.55230 0.50174 -0.04427
 O804 O 0.55947 0.53558 -0.02030
 O805 O 0.56524 0.47939 -0.00870
 O806 O 0.56927 0.51894 0.00829
 O807 O 0.52060 0.48962 -0.06380
 O808 O 0.48120 0.50676 -0.06736
 O809 O 0.51149 0.43494 -0.01845
 O810 O 0.48961 0.43313 0.01832
 O811 O 0.45627 0.54871 -0.00485
 O812 O 0.48058 0.55522 -0.03764
 O813 O 0.50607 0.54468 0.04985
 O814 O 0.54031 0.51992 0.05480
 O815 O 0.45158 0.49494 0.04537
 O816 O 0.44797 0.46004 0.02133
 Zr817 Zr 0.46252 0.49192 0.01098
 O818 O 0.48225 0.47014 -0.01021
 Zr819 Zr 0.50884 0.51017 0.03923
 O820 O 0.53037 0.48861 0.01966
 Zr821 Zr 0.49088 0.53811 -0.00724
 O822 O 0.51212 0.51823 -0.02886
 Zr823 Zr 0.51196 0.45997 0.00763
 O824 O 0.49115 0.47996 0.02982
 Zr825 Zr 0.49445 0.48831 -0.03888
 O826 O 0.47237 0.50944 -0.01917
 Zr827 Zr 0.54068 0.50605 -0.01026
 O828 O 0.52097 0.52858 0.01054
 O829 O 0.47949 0.52142 0.02222
 O830 O 0.52373 0.47671 -0.02182
 C831 C 0.43776 0.53811 0.00102
 C832 C 0.46244 0.50004 0.06389
 C833 C 0.50062 0.56311 0.03900
 C834 C 0.56405 0.45809 -0.00293
 C835 C 0.50574 0.43595 -0.03972
 C836 C 0.54191 0.49518 -0.06260
 H837 H 0.47292 0.45665 -0.01473
 H838 H 0.51681 0.52761 -0.04223
 H839 H 0.46966 0.53128 0.03202
 H840 H 0.54363 0.48371 0.02913
 H841 H 0.51378 0.44664 0.04993
 H842 H 0.52704 0.47964 0.06576
 H843 H 0.49148 0.52001 -0.07023
 H844 H 0.46950 0.54493 -0.04549
 H845 H 0.49812 0.41839 0.01710
 H846 H 0.43285 0.46297 0.02871
 H847 H 0.55081 0.54319 -0.03282
 H848 H 0.52459 0.56640 -0.01240
 H849 H 0.43491 0.48806 -0.02367
 H850 H 0.45744 0.46532 -0.04882
 H851 H 0.54675 0.53261 0.04545
 H852 H 0.57203 0.50859 0.02152
 O853 O -0.06273 0.01901 0.50835
 O854 O -0.06630 -0.01699 0.49219
 O855 O -0.01545 0.00792 0.56485
 O856 O 0.02050 -0.00395 0.56981
 O857 O -0.00533 0.06564 0.51771
 O858 O 0.00965 0.06850 0.47991
 O859 O 0.04607 -0.05067 0.50342
 O860 O 0.02547 -0.05483 0.53718
 O861 O -0.00132 -0.04430 0.44980
 O862 O -0.03539 -0.02020 0.44283
 O863 O 0.05238 0.00309 0.45514
 O864 O 0.05976 0.03707 0.47892
 O865 O 0.06555 -0.01907 0.49075
 O866 O 0.06977 0.02052 0.50750
 O867 O 0.02049 -0.00900 0.43590
 O868 O -0.01885 0.00833 0.43257
 O869 O 0.01161 -0.06345 0.48142
 O870 O -0.00998 -0.06515 0.51836
 O871 O -0.04327 0.05043 0.49516
 O872 O -0.01916 0.05688 0.46224
 O873 O 0.00685 0.04641 0.54958
 O874 O 0.04115 0.02166 0.55427
 O875 O -0.04767 -0.00331 0.54557
 O876 O -0.05158 -0.03816 0.52157
 Zr877 Zr -0.03701 -0.00632 0.51111
 O878 O -0.01748 -0.02818 0.48981
 Zr879 Zr 0.00955 0.01189 0.53897
 O880 O 0.03090 -0.00974 0.51927
 Zr881 Zr -0.00869 0.03978 0.49259
 O882 O 0.01233 0.01981 0.47083
 Zr883 Zr 0.01234 -0.03837 0.50745
 O884 O -0.00826 -0.01830 0.52975
 Zr885 Zr -0.00547 -0.01009 0.46101
 O886 O -0.02735 0.01112 0.48085
 Zr887 Zr 0.04101 0.00760 0.48923
 O888 O 0.02152 0.03022 0.51015
 O889 O -0.01991 0.02316 0.52217
 O890 O 0.02391 -0.02172 0.47787
 C891 C -0.06175 0.03989 0.50118
 C892 C -0.03663 0.00168 0.56402
 C893 C 0.00137 0.06484 0.53873
 C894 C 0.06437 -0.04035 0.49659
 C895 C 0.00565 -0.06248 0.46021
 C896 C 0.04184 -0.00354 0.43691
 H897 H -0.02688 -0.04166 0.48539
 H898 H 0.01695 0.02914 0.45740
 H899 H -0.02966 0.03304 0.53204
 H900 H 0.04422 -0.01464 0.52866
 H901 H 0.01445 -0.05162 0.54976
 H902 H 0.02788 -0.01862 0.56543
 H903 H -0.00853 0.02152 0.42957
 H904 H -0.03025 0.04657 0.45444
 H905 H -0.00151 -0.07990 0.51710
 H906 H -0.06663 -0.03520 0.52905
 H907 H 0.05106 0.04461 0.46640
 H908 H 0.02507 0.06795 0.48713
 H909 H -0.06490 -0.01015 0.47667
 H910 H -0.04263 -0.03299 0.45141
 H911 H 0.04750 0.03435 0.54485
 H912 H 0.07255 0.01028 0.52080
 O913 O 0.73204 0.18643 0.25770
 O914 O 0.76786 0.18272 0.24117
 O915 O 0.74395 0.23309 0.31443
 O916 O 0.75628 0.26886 0.31957
 O917 O 0.68591 0.24410 0.26790
 O918 O 0.68280 0.25933 0.23021
 O919 O 0.80249 0.29472 0.25304
 O920 O 0.80688 0.27372 0.28650
 O921 O 0.79523 0.24792 0.19899
 O922 O 0.77085 0.21406 0.19199
 O923 O 0.74826 0.30182 0.20524
 O924 O 0.71461 0.30925 0.22939
 O925 O 0.77090 0.31451 0.24078
 O926 O 0.73150 0.31886 0.25789
 O927 O 0.75987 0.27003 0.18561
 O928 O 0.74229 0.23081 0.18217
 O929 O 0.81481 0.26043 0.23052
 O930 O 0.81674 0.23844 0.26725
 O931 O 0.70061 0.20621 0.24499
 O932 O 0.69405 0.23059 0.21227
 O933 O 0.70555 0.25588 0.29968
 O934 O 0.73068 0.28988 0.30444
 O935 O 0.75482 0.20098 0.29482
 O936 O 0.78944 0.19706 0.27047
 Zr937 Zr 0.75760 0.21192 0.26040
 O938 O 0.77940 0.23146 0.23904
 Zr939 Zr 0.74001 0.25835 0.28880
 O940 O 0.76162 0.27969 0.26906
 Zr941 Zr 0.71151 0.24072 0.24253
 O942 O 0.73143 0.26178 0.22075
 Zr943 Zr 0.79000 0.26104 0.25681
 O944 O 0.76999 0.24041 0.27915
 Zr945 Zr 0.76110 0.24385 0.21051
 O946 O 0.73993 0.22196 0.23039
 Zr947 Zr 0.74404 0.29019 0.23927
 O948 O 0.72148 0.27068 0.26024
 O949 O 0.72834 0.22913 0.27187
 O950 O 0.77313 0.27300 0.22749
 C951 C 0.71108 0.18762 0.25078
 C952 C 0.75003 0.21188 0.31339
 C953 C 0.68697 0.25066 0.28895
 C954 C 0.79223 0.31314 0.24647
 C955 C 0.81358 0.25469 0.20927
 C956 C 0.75457 0.29140 0.18685
 H957 H 0.79277 0.22201 0.23442
 H958 H 0.72199 0.26657 0.20745
 H959 H 0.71847 0.21938 0.28175
 H960 H 0.76670 0.29288 0.27852
 H961 H 0.80372 0.26262 0.29902
 H962 H 0.77097 0.27616 0.31510
 H963 H 0.72912 0.24122 0.17939
 H964 H 0.70418 0.21946 0.20432
 H965 H 0.83155 0.24680 0.26590
 H966 H 0.78644 0.18196 0.27787
 H967 H 0.70685 0.30070 0.21688
 H968 H 0.68353 0.27469 0.23752
 H969 H 0.76090 0.18432 0.22571
 H970 H 0.78366 0.20666 0.20040
 H971 H 0.71795 0.29642 0.29521
 H972 H 0.74190 0.32146 0.27112
 O973 O 0.75943 0.76764 0.81596
 O974 O 0.74290 0.73184 0.81954
 O975 O 0.81623 0.75575 0.76926
 O976 O 0.82130 0.74345 0.73349
 O977 O 0.76990 0.81390 0.75838
 O978 O 0.73219 0.81716 0.74313
 O979 O 0.75442 0.69753 0.70748
 O980 O 0.78804 0.69305 0.72840
 O981 O 0.70053 0.70482 0.75424
 O982 O 0.69368 0.72911 0.78823
 O983 O 0.70691 0.75189 0.70052
 O984 O 0.73123 0.78555 0.69322
 O985 O 0.74226 0.72919 0.68778
 O986 O 0.75962 0.76851 0.68348
 O987 O 0.68726 0.74021 0.73227
 O988 O 0.68389 0.75772 0.77152
 O989 O 0.73202 0.68520 0.74171
 O990 O 0.76878 0.68311 0.76368
 O991 O 0.74684 0.79915 0.79624
 O992 O 0.71421 0.80592 0.77182
 O993 O 0.80159 0.79421 0.74653
 O994 O 0.80626 0.76917 0.71251
 O995 O 0.79658 0.74489 0.80135
 O996 O 0.77215 0.71028 0.80514
 Zr997 Zr 0.76214 0.74217 0.79039
 O998 O 0.74068 0.72049 0.77078
 Zr999 Zr 0.79058 0.75980 0.74401
 O1000 O 0.77074 0.73832 0.72260
 Zr1001 Zr 0.74441 0.78838 0.76170
 O1002 O 0.72252 0.76857 0.74060
 Zr1003 Zr 0.75840 0.70993 0.74117
 O1004 O 0.78083 0.72982 0.76187
 Zr1005 Zr 0.71219 0.73888 0.75845
 O1006 O 0.73217 0.75995 0.78038
 Zr1007 Zr 0.74098 0.75601 0.71216
 O1008 O 0.76206 0.77844 0.73172
 O1009 O 0.77371 0.77144 0.77325
 O1010 O 0.72912 0.72691 0.72928
 C1011 C 0.75253 0.78861 0.81482
 C1012 C 0.81517 0.74966 0.79046
 C1013 C 0.79094 0.81280 0.75180
 C1014 C 0.74779 0.70784 0.68910
 C1015 C 0.71075 0.68648 0.74741
 C1016 C 0.68851 0.74555 0.71092
 H1017 H 0.73602 0.70710 0.78019
 H1018 H 0.70924 0.77805 0.73583
 H1019 H 0.78362 0.78127 0.78303
 H1020 H 0.78015 0.73324 0.70939
 H1021 H 0.80058 0.69612 0.73952
 H1022 H 0.81676 0.72886 0.72605
 H1023 H 0.68113 0.77090 0.76112
 H1024 H 0.70616 0.79576 0.78285
 H1025 H 0.76739 0.66834 0.75526
 H1026 H 0.77958 0.71322 0.82023
 H1027 H 0.71867 0.79324 0.70173
 H1028 H 0.73951 0.81644 0.72778
 H1029 H 0.72743 0.73876 0.81793
 H1030 H 0.70198 0.71616 0.79551
 H1031 H 0.79702 0.78189 0.70596
 H1032 H 0.77279 0.75806 0.68085
 O1033 O 0.24505 0.20062 0.79525
 O1034 O 0.21203 0.19550 0.77298
 O1035 O 0.29960 0.20664 0.74609
 O1036 O 0.30832 0.22882 0.71595
 O1037 O 0.29380 0.25576 0.80155
 O1038 O 0.26994 0.28861 0.80768
 O1039 O 0.24065 0.26939 0.68583
 O1040 O 0.25833 0.23442 0.68249
 O1041 O 0.18504 0.26028 0.73151
 O1042 O 0.18073 0.24467 0.77006
 O1043 O 0.23072 0.31583 0.74176
 O1044 O 0.26883 0.32017 0.75698
 O1045 O 0.25270 0.30117 0.70541
 O1046 O 0.28714 0.30794 0.73076
 O1047 O 0.19896 0.29647 0.75391
 O1048 O 0.19230 0.27147 0.78803
 O1049 O 0.20478 0.24866 0.69978
 O1050 O 0.22705 0.21236 0.69783
 O1051 O 0.25654 0.23258 0.81494
 O1052 O 0.24040 0.27085 0.81822
 O1053 O 0.31351 0.24359 0.76998
 O1054 O 0.31592 0.26154 0.73140
 O1055 O 0.26802 0.18720 0.75879
 O1056 O 0.23004 0.18550 0.73953
 Zr1057 Zr 0.24209 0.21238 0.76114
 O1058 O 0.22026 0.23234 0.74025
 Zr1059 Zr 0.28852 0.24104 0.74388
 O1060 O 0.26859 0.26166 0.72179
 Zr1061 Zr 0.25961 0.25863 0.78987
 O1062 O 0.23884 0.28054 0.76984
 Zr1063 Zr 0.23870 0.24415 0.71158
 O1064 O 0.26017 0.22224 0.73128
 Zr1065 Zr 0.21011 0.26226 0.75764
 O1066 O 0.22972 0.24093 0.77973
 Zr1067 Zr 0.25651 0.29048 0.73990
 O1068 O 0.27852 0.27101 0.76158
 O1069 O 0.27123 0.22951 0.77286
 O1070 O 0.22699 0.27378 0.72818
 C1071 C 0.25068 0.21128 0.81377
 C1072 C 0.28911 0.18823 0.75235
 C1073 C 0.31232 0.24974 0.79114
 C1074 C 0.24677 0.29058 0.68693
 C1075 C 0.18627 0.25448 0.71025
 C1076 C 0.20954 0.31485 0.74788
 H1077 H 0.20695 0.22286 0.73550
 H1078 H 0.23434 0.29393 0.77928
 H1079 H 0.28103 0.21965 0.78270
 H1080 H 0.27799 0.26603 0.70832
 H1081 H 0.26685 0.22033 0.68686
 H1082 H 0.30031 0.23364 0.70174
 H1083 H 0.20029 0.28483 0.79491
 H1084 H 0.22572 0.26220 0.81824
 H1085 H 0.22124 0.21520 0.68204
 H1086 H 0.23260 0.17056 0.74738
 H1087 H 0.26133 0.32077 0.77223
 H1088 H 0.28108 0.29663 0.79760
 H1089 H 0.20411 0.20630 0.78347
 H1090 H 0.17954 0.22996 0.76160
 H1091 H 0.31700 0.27513 0.74160
 H1092 H 0.29360 0.30029 0.71700
 O1093 O 0.20495 0.74537 0.30053
 O1094 O 0.22703 0.71229 0.30572
 O1095 O 0.25445 0.79963 0.29429
 O1096 O 0.28467 0.80804 0.27202
 O1097 O 0.19880 0.79406 0.24532
 O1098 O 0.19240 0.77016 0.21253
 O1099 O 0.31411 0.74009 0.23150
 O1100 O 0.31774 0.75786 0.26638
 O1101 O 0.26803 0.68484 0.24093
 O1102 O 0.22945 0.68087 0.25663
 O1103 O 0.25794 0.73041 0.18526
 O1104 O 0.24287 0.76869 0.18094
 O1105 O 0.29448 0.75219 0.19976
 O1106 O 0.26946 0.78670 0.19289
 O1107 O 0.24566 0.69878 0.20474
 O1108 O 0.21152 0.69243 0.22980
 O1109 O 0.29998 0.70440 0.25242
 O1110 O 0.30223 0.72680 0.28861
 O1111 O 0.18523 0.75690 0.26860
 O1112 O 0.18165 0.74078 0.23040
 O1113 O 0.23057 0.81360 0.25735
 O1114 O 0.26913 0.81570 0.23932
 O1115 O 0.24159 0.76819 0.31382
 O1116 O 0.26066 0.73013 0.31556
 Zr1117 Zr 0.23901 0.74221 0.28872
 O1118 O 0.25966 0.72020 0.26876
 Zr1119 Zr 0.25651 0.78844 0.25991
 O1120 O 0.27837 0.76831 0.23927
 Zr1121 Zr 0.21022 0.75979 0.24249
 O1122 O 0.23002 0.73881 0.22060
 Zr1123 Zr 0.28844 0.73841 0.25683
 O1124 O 0.26899 0.76007 0.27873
 Zr1125 Zr 0.24208 0.71007 0.23892
 O1126 O 0.22021 0.72989 0.26025
 Zr1127 Zr 0.26006 0.75625 0.21053
 O1128 O 0.23863 0.77847 0.23000
 O1129 O 0.22743 0.77138 0.27154
 O1130 O 0.27163 0.72673 0.22727
 C1131 C 0.18642 0.75107 0.28989
 C1132 C 0.24818 0.78924 0.31274
 C1133 C 0.20937 0.81253 0.25125
 C1134 C 0.31297 0.74616 0.21030
 C1135 C 0.28933 0.68594 0.24669
 C1136 C 0.25171 0.70926 0.18631
 H1137 H 0.26434 0.70689 0.27826
 H1138 H 0.22049 0.73434 0.20724
 H1139 H 0.21767 0.78125 0.28140
 H1140 H 0.29191 0.77760 0.23484
 H1141 H 0.31349 0.76647 0.28045
 H1142 H 0.29880 0.79997 0.26710
 H1143 H 0.20467 0.70041 0.21643
 H1144 H 0.18160 0.72608 0.23901
 H1145 H 0.31797 0.72087 0.28576
 H1146 H 0.25288 0.73278 0.33051
 H1147 H 0.22766 0.76109 0.18027
 H1148 H 0.20256 0.78120 0.20446
 H1149 H 0.21645 0.70438 0.29496
 H1150 H 0.23800 0.67962 0.27129
 H1151 H 0.25893 0.81677 0.22572
 H1152 H 0.28319 0.79318 0.20060
 O1153 O 0.23222 0.68666 0.75816
 O1154 O 0.26814 0.68308 0.74184
 O1155 O 0.24368 0.73338 0.81496
 O1156 O 0.25592 0.76920 0.82014
 O1157 O 0.18586 0.74410 0.76820
 O1158 O 0.18285 0.75945 0.73051
 O1159 O 0.30234 0.79516 0.75372
 O1160 O 0.30659 0.77427 0.78732
 O1161 O 0.29546 0.74837 0.69977
 O1162 O 0.27122 0.71439 0.69267
 O1163 O 0.24829 0.80210 0.70576
 O1164 O 0.21449 0.80941 0.72978
 O1165 O 0.27075 0.81485 0.74131
 O1166 O 0.23127 0.81912 0.75834
 O1167 O 0.26014 0.77034 0.68621
 O1168 O 0.24266 0.73107 0.68269
 O1169 O 0.31485 0.76092 0.73141
 O1170 O 0.31667 0.73897 0.76816
 O1171 O 0.20078 0.70635 0.74529
 O1172 O 0.19425 0.73074 0.71257
 O1173 O 0.20532 0.75598 0.80005
 O1174 O 0.23025 0.79012 0.80489
 O1175 O 0.25472 0.70129 0.79541
 O1176 O 0.28951 0.69750 0.77125
 Zr1177 Zr 0.25767 0.71224 0.76101
 O1178 O 0.27950 0.73185 0.73974
 Zr1179 Zr 0.23980 0.75862 0.78930
 O1180 O 0.26142 0.78004 0.76966
 Zr1181 Zr 0.21157 0.74089 0.74291
 O1182 O 0.23152 0.76200 0.72121
 Zr1183 Zr 0.28992 0.76147 0.75756
 O1184 O 0.26988 0.74077 0.77981
 Zr1185 Zr 0.26130 0.74417 0.71112
 O1186 O 0.24010 0.72222 0.73091
 Zr1187 Zr 0.24394 0.79047 0.73978
 O1188 O 0.22135 0.77089 0.76066
 O1189 O 0.22831 0.72937 0.77232
 O1190 O 0.27314 0.77335 0.72816
 C1191 C 0.21128 0.68779 0.75112
 C1192 C 0.24978 0.71218 0.81395
 C1193 C 0.18681 0.75062 0.78926
 C1194 C 0.29207 0.81354 0.74703
 C1195 C 0.31373 0.75520 0.71014
 C1196 C 0.25476 0.79169 0.68741
 H1197 H 0.29293 0.72245 0.73519
 H1198 H 0.22213 0.76676 0.70786
 H1199 H 0.21843 0.71957 0.78215
 H1200 H 0.26643 0.79326 0.77912
 H1201 H 0.30341 0.76316 0.79983
 H1202 H 0.27054 0.77666 0.81572
 H1203 H 0.22949 0.74146 0.67982
 H1204 H 0.20447 0.71967 0.70464
 H1205 H 0.33146 0.74739 0.76690
 H1206 H 0.28652 0.68241 0.77865
 H1207 H 0.20681 0.80083 0.71724
 H1208 H 0.18348 0.77478 0.73790
 H1209 H 0.26127 0.68465 0.72634
 H1210 H 0.28407 0.70707 0.70111
 H1211 H 0.21755 0.79661 0.79557
 H1212 H 0.24163 0.82177 0.77158
 O1213 O 0.26802 0.31353 0.25844
 O1214 O 0.23209 0.31694 0.24204
 O1215 O 0.25682 0.26669 0.31515
 O1216 O 0.24479 0.23082 0.32029
 O1217 O 0.31470 0.25627 0.26842
 O1218 O 0.31779 0.24109 0.23073
 O1219 O 0.19847 0.20466 0.25375
 O1220 O 0.19409 0.22551 0.28735
 O1221 O 0.20512 0.25156 0.19985
 O1222 O 0.22917 0.28565 0.19281
 O1223 O 0.25255 0.19805 0.20590
 O1224 O 0.28639 0.19089 0.22995
 O1225 O 0.23017 0.18514 0.24140
 O1226 O 0.26968 0.18110 0.25850
 O1227 O 0.24055 0.22976 0.18635
 O1228 O 0.25784 0.26913 0.18289
 O1229 O 0.18579 0.23887 0.23143
 O1230 O 0.18384 0.26077 0.26821
 O1231 O 0.29957 0.29404 0.24560
 O1232 O 0.30618 0.26973 0.21282
 O1233 O 0.29532 0.24425 0.30024
 O1234 O 0.27050 0.21002 0.30504
 O1235 O 0.24558 0.29873 0.29561
 O1236 O 0.21078 0.30237 0.27139
 Zr1237 Zr 0.24270 0.28781 0.26119
 O1238 O 0.22098 0.26811 0.23987
 Zr1239 Zr 0.26083 0.24150 0.28947
 O1240 O 0.23931 0.21999 0.26978
 Zr1241 Zr 0.28896 0.25944 0.24314
 O1242 O 0.26912 0.23822 0.22140
 Zr1243 Zr 0.21072 0.23842 0.25764
 O1244 O 0.23066 0.25919 0.27994
 Zr1245 Zr 0.23926 0.25591 0.21127
 O1246 O 0.26033 0.27797 0.23111
 Zr1247 Zr 0.25684 0.20968 0.23993
 O1248 O 0.27934 0.22936 0.26084
 O1249 O 0.27216 0.27084 0.27254
 O1250 O 0.22756 0.22666 0.22826
 C1251 C 0.28896 0.31254 0.25144
 C1252 C 0.25058 0.28785 0.31415
 C1253 C 0.31380 0.24967 0.28946
 C1254 C 0.20884 0.18634 0.24708
 C1255 C 0.18688 0.24463 0.21017
 C1256 C 0.24602 0.20843 0.18756
 H1257 H 0.20751 0.27745 0.23530
 H1258 H 0.27854 0.23352 0.20807
 H1259 H 0.28200 0.28066 0.28240
 H1260 H 0.23437 0.20674 0.27922
 H1261 H 0.19721 0.23662 0.29988
 H1262 H 0.23016 0.22337 0.31585
 H1263 H 0.27106 0.25880 0.18003
 H1264 H 0.29592 0.28080 0.20493
 H1265 H 0.16910 0.25228 0.26690
 H1266 H 0.21369 0.31748 0.27881
 H1267 H 0.29401 0.19951 0.21742
 H1268 H 0.31721 0.22571 0.23801
 H1269 H 0.23898 0.31543 0.22656
 H1270 H 0.21633 0.29292 0.20127
 H1271 H 0.28324 0.20360 0.29575
 H1272 H 0.25930 0.17835 0.27170
 O1273 O 0.79964 0.70691 0.24708
 O1274 O 0.80494 0.72897 0.21398
 O1275 O 0.79360 0.75644 0.30130
 O1276 O 0.77150 0.78681 0.30963
 O1277 O 0.74443 0.70109 0.29569
 O1278 O 0.71153 0.69489 0.27181
 O1279 O 0.73112 0.81645 0.24176
 O1280 O 0.76609 0.81985 0.25948
 O1281 O 0.74024 0.77031 0.18650
 O1282 O 0.75587 0.73169 0.18252
 O1283 O 0.68457 0.76052 0.23197
 O1284 O 0.68011 0.74554 0.27018
 O1285 O 0.69926 0.79700 0.25379
 O1286 O 0.69228 0.77195 0.28830
 O1287 O 0.70402 0.74808 0.20040
 O1288 O 0.72897 0.71386 0.19407
 O1289 O 0.75185 0.80220 0.20604
 O1290 O 0.78816 0.80424 0.22837
 O1291 O 0.76758 0.68739 0.25859
 O1292 O 0.72934 0.68403 0.24242
 O1293 O 0.75660 0.73280 0.31521
 O1294 O 0.73870 0.77142 0.31730
 O1295 O 0.81310 0.74346 0.26989
 O1296 O 0.81496 0.76252 0.23184
 Zr1297 Zr 0.78799 0.74104 0.24388
 O1298 O 0.76813 0.76180 0.22185
 Zr1299 Zr 0.75924 0.75871 0.29006
 O1300 O 0.73870 0.78067 0.26991
 Zr1301 Zr 0.74159 0.71252 0.26143
 O1302 O 0.71979 0.73243 0.24043
 Zr1303 Zr 0.75632 0.79064 0.24003
 O1304 O 0.77814 0.77106 0.26171
 Zr1305 Zr 0.73819 0.74437 0.21171
 O1306 O 0.75942 0.72239 0.23155
 Zr1307 Zr 0.70986 0.76252 0.25784
 O1308 O 0.72923 0.74099 0.28008
 O1309 O 0.77074 0.72957 0.27302
 O1310 O 0.72667 0.77398 0.22834
 C1311 C 0.78890 0.68845 0.25281
 C1312 C 0.81203 0.75003 0.29094
 C1313 C 0.75045 0.71162 0.31414
 C1314 C 0.70990 0.81543 0.24781
 C1315 C 0.74603 0.79159 0.18759
 C1316 C 0.68561 0.75423 0.21084
 H1317 H 0.77765 0.76644 0.20854
 H1318 H 0.70639 0.72297 0.23595
 H1319 H 0.78055 0.71977 0.28290
 H1320 H 0.73433 0.79422 0.27920
 H1321 H 0.78015 0.81550 0.26807
 H1322 H 0.76661 0.80096 0.30157
 H1323 H 0.71557 0.70707 0.20205
 H1324 H 0.73799 0.68390 0.22776
 H1325 H 0.78535 0.81999 0.22243
 H1326 H 0.82988 0.75465 0.23451
 H1327 H 0.67948 0.73026 0.26273
 H1328 H 0.70355 0.70507 0.28288
 H1329 H 0.79413 0.71844 0.20607
 H1330 H 0.77056 0.74019 0.18127
 H1331 H 0.72506 0.76127 0.31839
 H1332 H 0.70002 0.78567 0.29476
 O1333 O 0.75413 0.29886 0.79501
 O1334 O 0.78729 0.30411 0.77299
 O1335 O 0.69985 0.29310 0.74550
 O1336 O 0.69127 0.27106 0.71518
 O1337 O 0.70546 0.24365 0.80072
 O1338 O 0.72933 0.21075 0.80677
 O1339 O 0.75908 0.23072 0.68523
 O1340 O 0.74137 0.26570 0.68199
 O1341 O 0.81450 0.23963 0.73127
 O1342 O 0.81863 0.25504 0.76993
 O1343 O 0.76887 0.18397 0.74092
 O1344 O 0.73064 0.17954 0.75599
 O1345 O 0.74699 0.19882 0.70457
 O1346 O 0.71250 0.19183 0.72964
 O1347 O 0.80056 0.20332 0.75335
 O1348 O 0.80704 0.22809 0.78767
 O1349 O 0.79486 0.25139 0.69948
 O1350 O 0.77257 0.28769 0.69762
 O1351 O 0.74260 0.26676 0.81444
 O1352 O 0.75881 0.22851 0.81761
 O1353 O 0.68587 0.25602 0.76913
 O1354 O 0.68361 0.23826 0.73044
 O1355 O 0.73137 0.31247 0.75848
 O1356 O 0.76943 0.31432 0.73949
 Zr1357 Zr 0.75730 0.28730 0.76085
 O1358 O 0.77922 0.26748 0.73997
 Zr1359 Zr 0.71095 0.25871 0.74317
 O1360 O 0.73099 0.23822 0.72108
 Zr1361 Zr 0.73970 0.24086 0.78921
 O1362 O 0.76058 0.21909 0.76918
 Zr1363 Zr 0.76090 0.25582 0.71113
 O1364 O 0.73934 0.27760 0.73083
 Zr1365 Zr 0.78933 0.23748 0.75725
 O1366 O 0.76962 0.25865 0.77935
 Zr1367 Zr 0.74304 0.20930 0.73909
 O1368 O 0.72092 0.22863 0.76074
 O1369 O 0.72812 0.27007 0.77230
 O1370 O 0.77258 0.22611 0.72763
 C1371 C 0.74840 0.28808 0.81344
 C1372 C 0.71031 0.31148 0.75191
 C1373 C 0.68698 0.24974 0.79026
 C1374 C 0.75299 0.20951 0.68618
 C1375 C 0.81335 0.24552 0.71002
 C1376 C 0.79003 0.18495 0.74714
 H1377 H 0.79254 0.27700 0.73534
 H1378 H 0.76506 0.20565 0.77857
 H1379 H 0.71827 0.27987 0.78214
 H1380 H 0.72165 0.23392 0.70753
 H1381 H 0.73282 0.27976 0.68640
 H1382 H 0.69931 0.26628 0.70099
 H1383 H 0.79903 0.21469 0.79443
 H1384 H 0.77348 0.23718 0.81775
 H1385 H 0.77846 0.28495 0.68185
 H1386 H 0.76684 0.32921 0.74743
 H1387 H 0.73820 0.17879 0.77121
 H1388 H 0.71823 0.20280 0.79658
 H1389 H 0.79514 0.29326 0.78351
 H1390 H 0.81984 0.26980 0.76156
 H1391 H 0.68252 0.22459 0.74055
 H1392 H 0.70603 0.19961 0.71596
 C1393 C 0.10351 1.01694 1.18052
 C1394 C 0.09425 1.01387 1.16221
 C1395 C 0.08306 1.01076 1.14088
 C1396 C 0.07320 1.00847 1.12279
 C1397 C 0.06125 1.00621 1.10177
 C1398 C 0.05069 1.00460 1.08399
 C1399 C 0.60450 0.51629 0.68040
 C1400 C 0.59520 0.51280 0.66220
 C1401 C 0.58393 0.50915 0.64101
 C1402 C 0.57398 0.50651 0.62302
 C1403 C 0.56195 0.50404 0.60208
 C1404 C 0.55136 0.50258 0.58432
 C1405 C 0.39676 -0.01536 0.68046
 C1406 C 0.40590 -0.01179 0.66221
 C1407 C 0.41699 -0.00812 0.64095
 C1408 C 0.42679 -0.00550 0.62289
 C1409 C 0.43867 -0.00310 0.60188
 C1410 C 0.44918 -0.00171 0.58409
 C1411 C -0.10344 0.48468 1.18162
 C1412 C -0.09421 0.48810 1.16339
 C1413 C -0.08306 0.49151 1.14212
 C1414 C -0.07323 0.49389 1.12405
 C1415 C -0.06133 0.49600 1.10302
 C1416 C -0.05083 0.49720 1.08521
 C1417 C -0.10744 0.51900 0.32002
 C1418 C -0.09868 0.51579 0.33854
 C1419 C -0.08795 0.51243 0.36005
 C1420 C -0.07835 0.50991 0.37825
 C1421 C -0.06656 0.50737 0.39932
 C1422 C -0.05601 0.50555 0.41707
 C1423 C 0.39305 1.01901 -0.18104
 C1424 C 0.40175 1.01587 -0.16249
 C1425 C 0.41240 1.01263 -0.14091
 C1426 C 0.42191 1.01024 -0.12266
 C1427 C 0.43360 1.00786 -0.10152
 C1428 C 0.44407 1.00617 -0.08370
 C1429 C 0.60695 0.48162 -0.18030
 C1430 C 0.59805 0.48468 -0.16184
 C1431 C 0.58717 0.48778 -0.14038
 C1432 C 0.57747 0.49005 -0.12221
 C1433 C 0.56562 0.49227 -0.10117
 C1434 C 0.55505 0.49379 -0.08341
 C1435 C 0.10560 -0.01885 0.31866
 C1436 C 0.09690 -0.01561 0.33719
 C1437 C 0.08629 -0.01219 0.35875
 C1438 C 0.07682 -0.00962 0.37701
 C1439 C 0.06521 -0.00702 0.39817
 C1440 C 0.05482 -0.00520 0.41601
 C1441 C 0.17895 1.10363 1.01801
 C1442 C 0.16055 1.09458 1.01481
 C1443 C 0.13912 1.08363 1.01156
 C1444 C 0.12094 1.07393 1.00919
 C1445 C 0.09984 1.06214 1.00687
 C1446 C 0.08201 1.05167 1.00526
 C1447 C 0.67917 0.60490 0.51763
 C1448 C 0.66082 0.59596 0.51397
 C1449 C 0.63947 0.58505 0.51012
 C1450 C 0.62136 0.57536 0.50731
 C1451 C 0.60031 0.56354 0.50467
 C1452 C 0.58250 0.55304 0.50309
 C1453 C 0.68174 0.39295 -0.01735
 C1454 C 0.66330 0.40190 -0.01415
 C1455 C 0.64185 0.41280 -0.01084
 C1456 C 0.62369 0.42250 -0.00840
 C1457 C 0.60264 0.43436 -0.00600
 C1458 C 0.58488 0.44494 -0.00436
 C1459 C 0.18211 -0.10543 0.48243
 C1460 C 0.16367 -0.09650 0.48559
 C1461 C 0.14220 -0.08562 0.48883
 C1462 C 0.12403 -0.07593 0.49121
 C1463 C 0.10296 -0.06409 0.49355
 C1464 C 0.08519 -0.05352 0.49516
 C1465 C 0.32073 -0.10415 0.51670
 C1466 C 0.33904 -0.09507 0.51316
 C1467 C 0.36038 -0.08407 0.50950
 C1468 C 0.37850 -0.07435 0.50686
 C1469 C 0.39960 -0.06257 0.50439
 C1470 C 0.41747 -0.05216 0.50289
 C1471 C -0.17964 0.39541 1.01675
 C1472 C -0.16132 0.40447 1.01323
 C1473 C -0.13994 0.41542 1.00965
 C1474 C -0.12178 0.42509 1.00711
 C1475 C -0.10064 0.43680 1.00478
 C1476 C -0.08273 0.44716 1.00341
 C1477 C -0.18252 0.60612 0.48287
 C1478 C -0.16417 0.59695 0.48596
 C1479 C -0.14285 0.58579 0.48917
 C1480 C -0.12479 0.57588 0.49156
 C1481 C -0.10385 0.56383 0.49393
 C1482 C -0.08615 0.55314 0.49557
 C1483 C 0.31605 1.10493 -0.01777
 C1484 C 0.33453 1.09601 -0.01465
 C1485 C 0.35603 1.08519 -0.01143
 C1486 C 0.37424 1.07557 -0.00904
 C1487 C 0.39538 1.06383 -0.00668
 C1488 C 0.41321 1.05337 -0.00505
 C1489 C 0.01641 1.17954 1.10484
 C1490 C 0.01292 1.16114 1.09594
 C1491 C 0.00940 1.13967 1.08515
 C1492 C 0.00687 1.12146 1.07557
 C1493 C 0.00443 1.10033 1.06387
 C1494 C 0.00278 1.08249 1.05343
 C1495 C 0.51632 0.68006 0.60653
 C1496 C 0.51243 0.66184 0.59743
 C1497 C 0.50838 0.64064 0.58634
 C1498 C 0.50544 0.62265 0.57647
 C1499 C 0.50271 0.60175 0.56445
 C1500 C 0.50106 0.58405 0.55379
 C1501 C -0.01930 0.68025 0.39562
 C1502 C -0.01634 0.66170 0.40439
 C1503 C -0.01326 0.64013 0.41509
 C1504 C -0.01098 0.62188 0.42463
 C1505 C -0.00872 0.60073 0.43633
 C1506 C -0.00717 0.58291 0.44680
 C1507 C 0.48069 1.18143 -0.10456
 C1508 C 0.48358 1.16287 -0.09577
 C1509 C 0.48655 1.14129 -0.08508
 C1510 C 0.48874 1.12300 -0.07556
 C1511 C 0.49090 1.10182 -0.06391
 C1512 C 0.49240 1.08396 -0.05349
 C1513 C 0.51930 0.31790 -0.10435
 C1514 C 0.51644 0.33640 -0.09543
 C1515 C 0.51347 0.35792 -0.08460
 C1516 C 0.51123 0.37614 -0.07498
 C1517 C 0.50896 0.39726 -0.06323
 C1518 C 0.50732 0.41507 -0.05276
 C1519 C 0.01836 -0.18073 0.39591
 C1520 C 0.01555 -0.16222 0.40478
 C1521 C 0.01267 -0.14066 0.41555
 C1522 C 0.01056 -0.12241 0.42512
 C1523 C 0.00848 -0.10124 0.43680
 C1524 C 0.00702 -0.08339 0.44723
 C1525 C 0.48590 -0.17966 0.60584
 C1526 C 0.48958 -0.16148 0.59660
 C1527 C 0.49329 -0.14029 0.58538
 C1528 C 0.49590 -0.12229 0.57544
 C1529 C 0.49823 -0.10135 0.56341
 C1530 C 0.49956 -0.08361 0.55279
 C1531 C -0.01515 0.31782 1.10419
 C1532 C -0.01137 0.33618 1.09530
 C1533 C -0.00753 0.35760 1.08453
 C1534 C -0.00481 0.37580 1.07500
 C1535 C -0.00234 0.39698 1.06339
 C1536 C -0.00090 0.41491 1.05307
 C1537 C 0.76851 0.35642 0.06911
 C1538 C 0.76540 0.34751 0.08757
 C1539 C 0.76221 0.33664 0.10904
 C1540 C 0.75988 0.32696 0.12721
 C1541 C 0.75758 0.31511 0.14827
 C1542 C 0.75600 0.30455 0.16603
 C1543 C 0.26962 0.85681 0.56981
 C1544 C 0.26640 0.84788 0.58824
 C1545 C 0.26306 0.83699 0.60968
 C1546 C 0.26056 0.82729 0.62782
 C1547 C 0.25807 0.81543 0.64886
 C1548 C 0.25633 0.80486 0.66661
 C1549 C 0.73207 0.64332 0.57131
 C1550 C 0.73547 0.65202 0.58982
 C1551 C 0.73903 0.66269 0.61134
 C1552 C 0.74170 0.67226 0.62954
 C1553 C 0.74435 0.68402 0.65061
 C1554 C 0.74618 0.69460 0.66835
 C1555 C 0.23075 0.14286 0.07030
 C1556 C 0.23413 0.15190 0.08864
 C1557 C 0.23762 0.16291 0.10999
 C1558 C 0.24020 0.17270 0.12808
 C1559 C 0.24274 0.18464 0.14906
 C1560 C 0.24448 0.19526 0.16677
 C1561 C 0.26388 0.14483 0.93078
 C1562 C 0.26050 0.15424 0.91262
 C1563 C 0.25710 0.16560 0.89144
 C1564 C 0.25473 0.17561 0.87345
 C1565 C 0.25259 0.18769 0.85250
 C1566 C 0.25137 0.19830 0.83473
 C1567 C 0.76532 0.64603 0.43139
 C1568 C 0.76171 0.65522 0.41316
 C1569 C 0.75798 0.66634 0.39191
 C1570 C 0.75528 0.67617 0.37386
 C1571 C 0.75279 0.68809 0.35287
 C1572 C 0.75131 0.69863 0.33509
 C1573 C 0.23532 0.85480 0.43023
 C1574 C 0.23868 0.84563 0.41195
 C1575 C 0.24206 0.83452 0.39063
 C1576 C 0.24442 0.82470 0.37254
 C1577 C 0.24651 0.81278 0.35150
 C1578 C 0.24765 0.80224 0.33369
 C1579 C 0.73384 0.35353 0.93082
 C1580 C 0.73734 0.34431 0.91259
 C1581 C 0.74096 0.33316 0.89134
 C1582 C 0.74358 0.32332 0.87329
 C1583 C 0.74602 0.31143 0.85227
 C1584 C 0.74748 0.30095 0.83445
 C1585 C 0.85700 0.43108 0.23349
 C1586 C 0.84821 0.41255 0.23650
 C1587 C 0.83747 0.39100 0.23954
 C1588 C 0.82787 0.37277 0.24172
 C1589 C 0.81607 0.35166 0.24381
 C1590 C 0.80548 0.33390 0.24523
 C1591 C 0.35732 0.93106 0.73255
 C1592 C 0.34845 0.91260 0.73574
 C1593 C 0.33760 0.89114 0.73906
 C1594 C 0.32789 0.87300 0.74151
 C1595 C 0.31599 0.85198 0.74393
 C1596 C 0.30534 0.83427 0.74559
 C1597 C 0.14412 0.93015 0.26510
 C1598 C 0.15322 0.91185 0.26157
 C1599 C 0.16426 0.89051 0.25802
 C1600 C 0.17403 0.87240 0.25553
 C1601 C 0.18590 0.85134 0.25329
 C1602 C 0.19641 0.83351 0.25199
 C1603 C 0.64591 0.42942 0.76596
 C1604 C 0.65482 0.41105 0.76238
 C1605 C 0.66564 0.38964 0.75876
 C1606 C 0.67524 0.37145 0.75620
 C1607 C 0.68696 0.35033 0.75391
 C1608 C 0.69738 0.33246 0.75260
 C1609 C 0.64480 0.56932 0.73250
 C1610 C 0.65385 0.58769 0.73571
 C1611 C 0.66489 0.60906 0.73904
 C1612 C 0.67472 0.62714 0.74154
 C1613 C 0.68673 0.64810 0.74403
 C1614 C 0.69744 0.66577 0.74579
 C1615 C 0.14338 0.06893 0.23210
 C1616 C 0.15243 0.08728 0.23546
 C1617 C 0.16341 0.10866 0.23891
 C1618 C 0.17317 0.12678 0.24144
 C1619 C 0.18507 0.14779 0.24392
 C1620 C 0.19567 0.16553 0.24561
 C1621 C 0.35444 0.07079 0.76624
 C1622 C 0.34531 0.08905 0.76268
 C1623 C 0.33425 0.11034 0.75908
 C1624 C 0.32445 0.12842 0.75656
 C1625 C 0.31257 0.14945 0.75429
 C1626 C 0.30206 0.16727 0.75302
 C1627 C 0.85393 0.57087 0.26736
 C1628 C 0.84484 0.58915 0.26378
 C1629 C 0.83382 0.61046 0.26012
 C1630 C 0.82408 0.62856 0.25751
 C1631 C 0.81226 0.64962 0.25511
 C1632 C 0.80180 0.66745 0.25369
 C1633 C 0.93096 0.26760 0.14328
 C1634 C 0.91256 0.26478 0.15240
 C1635 C 0.89116 0.26189 0.16351
 C1636 C 0.87305 0.25975 0.17336
 C1637 C 0.85206 0.25763 0.18537
 C1638 C 0.83435 0.25612 0.19604
 C1639 C 0.43169 0.76911 0.64553
 C1640 C 0.41319 0.76616 0.65439
 C1641 C 0.39167 0.76307 0.66518
 C1642 C 0.37345 0.76075 0.67478
 C1643 C 0.35235 0.75841 0.68654
 C1644 C 0.33457 0.75675 0.69704
 C1645 C 0.42957 0.23478 0.85677
 C1646 C 0.41131 0.23856 0.84769
 C1647 C 0.39003 0.24238 0.83664
 C1648 C 0.37196 0.24507 0.82682
 C1649 C 0.35097 0.24750 0.81487
 C1650 C 0.33320 0.24892 0.80425
 C1651 C 0.92916 0.73473 0.35661
 C1652 C 0.91092 0.73855 0.34752
 C1653 C 0.88968 0.74246 0.33644
 C1654 C 0.87165 0.74525 0.32660
 C1655 C 0.85069 0.74778 0.31461
 C1656 C 0.83293 0.74923 0.30400
 C1657 C 0.06945 0.76518 0.35599
 C1658 C 0.08763 0.76157 0.34672
 C1659 C 0.10882 0.75796 0.33548
 C1660 C 0.12681 0.75544 0.32553
 C1661 C 0.14775 0.75317 0.31350
 C1662 C 0.16550 0.75185 0.30289
 C1663 C 0.57004 0.26474 0.85627
 C1664 C 0.58821 0.26097 0.84705
 C1665 C 0.60940 0.25714 0.83585
 C1666 C 0.62740 0.25443 0.82594
 C1667 C 0.64834 0.25197 0.81392
 C1668 C 0.66608 0.25055 0.80331
 C1669 C 0.57069 0.73155 0.64585
 C1670 C 0.58917 0.73455 0.65478
 C1671 C 0.61066 0.73771 0.66565
 C1672 C 0.62884 0.74008 0.67534
 C1673 C 0.64991 0.74245 0.68718
 C1674 C 0.66768 0.74410 0.69776
 C1675 C 0.06962 0.23033 0.14414
 C1676 C 0.08797 0.23337 0.15332
 C1677 C 0.10931 0.23653 0.16446
 C1678 C 0.12740 0.23889 0.17434
 C1679 C 0.14837 0.24128 0.18634
 C1680 C 0.16608 0.24299 0.19700
 C1681 C -0.10410 1.01653 0.81747
 C1682 C -0.09510 1.01283 0.83579
 C1683 C -0.08418 1.00862 0.85709
 C1684 C -0.07457 1.00530 0.87517
 C1685 C -0.06303 1.00192 0.89628
 C1686 C -0.05296 0.99965 0.91427
 C1687 C 0.39424 0.51639 0.31916
 C1688 C 0.40337 0.51250 0.33738
 C1689 C 0.41450 0.50806 0.35852
 C1690 C 0.42434 0.50460 0.37645
 C1691 C 0.43621 0.50118 0.39738
 C1692 C 0.44660 0.49904 0.41521
 C1693 C 0.60575 -0.01507 0.31874
 C1694 C 0.59683 -0.01114 0.33704
 C1695 C 0.58594 -0.00672 0.35828
 C1696 C 0.57627 -0.00332 0.37630
 C1697 C 0.56455 -0.00002 0.39730
 C1698 C 0.55424 0.00197 0.41518
 C1699 C 0.10599 0.48518 0.82001
 C1700 C 0.09705 0.48909 0.83830
 C1701 C 0.08611 0.49345 0.85953
 C1702 C 0.07640 0.49675 0.87754
 C1703 C 0.06464 0.49991 0.89853
 C1704 C 0.05429 0.50176 0.91640
 C1705 C 0.10299 0.51864 0.68081
 C1706 C 0.09334 0.51468 0.66289
 C1707 C 0.08172 0.51014 0.64205
 C1708 C 0.07157 0.50656 0.62432
 C1709 C 0.05949 0.50292 0.60357
 C1710 C 0.04908 0.50047 0.58580
 C1711 C 0.60228 1.01880 0.18068
 C1712 C 0.59266 1.01493 0.16272
 C1713 C 0.58109 1.01053 0.14182
 C1714 C 0.57099 1.00708 0.12403
 C1715 C 0.55898 1.00358 0.10321
 C1716 C 0.54862 1.00124 0.08540
 C1717 C 0.39622 0.48157 0.18040
 C1718 C 0.40584 0.48523 0.16241
 C1719 C 0.41743 0.48939 0.14149
 C1720 C 0.42755 0.49267 0.12371
 C1721 C 0.43961 0.49600 0.10290
 C1722 C 0.45001 0.49826 0.08512
 C1723 C -0.10188 -0.01861 0.68083
 C1724 C -0.09238 -0.01472 0.66281
 C1725 C -0.08094 -0.01020 0.64187
 C1726 C -0.07096 -0.00659 0.62406
 C1727 C -0.05908 -0.00287 0.60321
 C1728 C -0.04885 -0.00033 0.58536
 C1729 C -0.18403 0.89638 1.01839
 C1730 C -0.16581 0.90557 1.01463
 C1731 C -0.14464 0.91668 1.01031
 C1732 C -0.12665 0.92641 1.00687
 C1733 C -0.10562 0.93807 1.00333
 C1734 C -0.08767 0.94817 1.00091
 C1735 C 0.31768 0.39548 0.51646
 C1736 C 0.33583 0.40468 0.51239
 C1737 C 0.35692 0.41585 0.50779
 C1738 C 0.37483 0.42569 0.50424
 C1739 C 0.39575 0.43755 0.50076
 C1740 C 0.41360 0.44792 0.49864
 C1741 C 0.32087 0.60386 -0.01763
 C1742 C 0.33896 0.59440 -0.01394
 C1743 C 0.35999 0.58297 -0.00974
 C1744 C 0.37785 0.57295 -0.00644
 C1745 C 0.39872 0.56097 -0.00308
 C1746 C 0.41654 0.55059 -0.00079
 C1747 C -0.17876 0.10525 0.48202
 C1748 C -0.16063 0.09590 0.48582
 C1749 C -0.13957 0.08458 0.49015
 C1750 C -0.12169 0.07464 0.49356
 C1751 C -0.10080 0.06272 0.49704
 C1752 C -0.08298 0.05237 0.49937
 C1753 C 0.68305 0.10426 0.51549
 C1754 C 0.66493 0.09499 0.51141
 C1755 C 0.64387 0.08374 0.50682
 C1756 C 0.62598 0.07385 0.50330
 C1757 C 0.60505 0.06197 0.49988
 C1758 C 0.58718 0.05162 0.49779
 C1759 C 0.18298 0.60365 1.01637
 C1760 C 0.16489 0.59426 1.01242
 C1761 C 0.14386 0.58290 1.00798
 C1762 C 0.12598 0.57293 1.00457
 C1763 C 0.10508 0.56098 1.00125
 C1764 C 0.08722 0.55061 0.99922
 C1765 C 0.17837 0.39520 0.48265
 C1766 C 0.16023 0.40456 0.48634
 C1767 C 0.13916 0.41588 0.49052
 C1768 C 0.12125 0.42580 0.49382
 C1769 C 0.10033 0.43768 0.49720
 C1770 C 0.08248 0.44799 0.49951
 C1771 C 0.67850 0.89657 -0.01787
 C1772 C 0.66036 0.90598 -0.01432
 C1773 C 0.63929 0.91735 -0.01019
 C1774 C 0.62140 0.92729 -0.00688
 C1775 C 0.60048 0.93916 -0.00345
 C1776 C 0.58260 0.94941 -0.00109
 C1777 C 0.01698 0.81776 0.89654
 C1778 C 0.01285 0.83583 0.90585
 C1779 C 0.00820 0.85684 0.91710
 C1780 C 0.00458 0.87473 0.92695
 C1781 C 0.00093 0.89565 0.93872
 C1782 C -0.00151 0.91353 0.94894
 C1783 C 0.51546 0.32078 0.39414
 C1784 C 0.51106 0.33882 0.40337
 C1785 C 0.50613 0.35978 0.41461
 C1786 C 0.50237 0.37759 0.42455
 C1787 C 0.49874 0.39839 0.43656
 C1788 C 0.49656 0.41612 0.44707
 C1789 C -0.01944 0.31808 0.60421
 C1790 C -0.01603 0.33637 0.59505
 C1791 C -0.01206 0.35759 0.58393
 C1792 C -0.00887 0.37559 0.57414
 C1793 C -0.00557 0.39658 0.56238
 C1794 C -0.00331 0.41446 0.55212
 C1795 C 0.48066 0.81891 0.10353
 C1796 C 0.48416 0.83714 0.09429
 C1797 C 0.48819 0.85832 0.08311
 C1798 C 0.49139 0.87630 0.07329
 C1799 C 0.49466 0.89728 0.06152
 C1800 C 0.49687 0.91517 0.05128
 C1801 C 0.51824 0.68071 0.10365
 C1802 C 0.51482 0.66248 0.09437
 C1803 C 0.51088 0.64131 0.08316
 C1804 C 0.50774 0.62333 0.07332
 C1805 C 0.50452 0.60233 0.06154
 C1806 C 0.50233 0.58443 0.05131
 C1807 C 0.01916 0.18238 0.60349
 C1808 C 0.01577 0.16416 0.59417
 C1809 C 0.01183 0.14301 0.58291
 C1810 C 0.00868 0.12505 0.57304
 C1811 C 0.00541 0.10407 0.56124
 C1812 C 0.00317 0.08616 0.55102
 C1813 C 0.48568 0.18049 0.39437
 C1814 C 0.48992 0.16242 0.40363
 C1815 C 0.49460 0.14141 0.41488
 C1816 C 0.49813 0.12355 0.42480
 C1817 C 0.50152 0.10267 0.43674
 C1818 C 0.50356 0.08486 0.44717
 C1819 C -0.01443 0.68015 0.89638
 C1820 C -0.01023 0.66208 0.90567
 C1821 C -0.00555 0.64107 0.91693
 C1822 C -0.00197 0.62319 0.92683
 C1823 C 0.00148 0.60229 0.93871
 C1824 C 0.00357 0.58442 0.94905
 C1825 C 0.26858 0.64589 0.93047
 C1826 C 0.26485 0.65554 0.91249
 C1827 C 0.26062 0.66715 0.89158
 C1828 C 0.25730 0.67727 0.87379
 C1829 C 0.25391 0.68933 0.85298
 C1830 C 0.25161 0.69974 0.83519
 C1831 C 0.76995 0.14613 0.43000
 C1832 C 0.76610 0.15564 0.41198
 C1833 C 0.76167 0.16711 0.39104
 C1834 C 0.75815 0.17714 0.37323
 C1835 C 0.75452 0.18912 0.35241
 C1836 C 0.75203 0.19947 0.33462
 C1837 C 0.23092 0.35365 0.43073
 C1838 C 0.23477 0.34411 0.41273
 C1839 C 0.23916 0.33261 0.39180
 C1840 C 0.24264 0.32257 0.37400
 C1841 C 0.24620 0.31059 0.35319
 C1842 C 0.24863 0.30024 0.33539
 C1843 C 0.73176 0.85493 0.93093
 C1844 C 0.73588 0.84537 0.91299
 C1845 C 0.74057 0.83383 0.89214
 C1846 C 0.74427 0.82373 0.87442
 C1847 C 0.74803 0.81165 0.85369
 C1848 C 0.75057 0.80118 0.83597
 C1849 C 0.76382 0.85683 0.07049
 C1850 C 0.75983 0.84766 0.08866
 C1851 C 0.75542 0.83650 0.10978
 C1852 C 0.75209 0.82663 0.12770
 C1853 C 0.74890 0.81472 0.14863
 C1854 C 0.74702 0.80428 0.16645
 C1855 C 0.26507 0.35564 0.56975
 C1856 C 0.26121 0.34651 0.58797
 C1857 C 0.25684 0.33537 0.60910
 C1858 C 0.25345 0.32552 0.62703
 C1859 C 0.25012 0.31363 0.64795
 C1860 C 0.24805 0.30322 0.66577
 C1861 C 0.73537 0.14450 0.56884
 C1862 C 0.73914 0.15369 0.58705
 C1863 C 0.74339 0.16488 0.60819
 C1864 C 0.74667 0.17474 0.62614
 C1865 C 0.74987 0.18661 0.64709
 C1866 C 0.75183 0.19697 0.66495
 C1867 C 0.23406 0.64379 0.06921
 C1868 C 0.23781 0.65304 0.08740
 C1869 C 0.24205 0.66428 0.10851
 C1870 C 0.24532 0.67420 0.12643
 C1871 C 0.24852 0.68615 0.14734
 C1872 C 0.25051 0.69660 0.16515
 C1873 C 0.14504 0.57126 0.73236
 C1874 C 0.15453 0.58934 0.73602
 C1875 C 0.16603 0.61031 0.74022
 C1876 C 0.17612 0.62812 0.74355
 C1877 C 0.18820 0.64891 0.74697
 C1878 C 0.19868 0.66665 0.74929
 C1879 C 0.64442 0.07129 0.23228
 C1880 C 0.65396 0.08934 0.23592
 C1881 C 0.66553 0.11028 0.24009
 C1882 C 0.67568 0.12806 0.24338
 C1883 C 0.68784 0.14882 0.24675
 C1884 C 0.69839 0.16653 0.24901
 C1885 C 0.85612 0.06833 0.76516
 C1886 C 0.84670 0.08637 0.76116
 C1887 C 0.83527 0.10734 0.75673
 C1888 C 0.82522 0.12517 0.75336
 C1889 C 0.81316 0.14600 0.75012
 C1890 C 0.80268 0.16379 0.74819
 C1891 C 0.35453 0.56894 0.26564
 C1892 C 0.34535 0.58708 0.26152
 C1893 C 0.33418 0.60816 0.25689
 C1894 C 0.32432 0.62606 0.25334
 C1895 C 0.31241 0.64696 0.24990
 C1896 C 0.30199 0.66477 0.24783
 C1897 C 0.35441 0.42949 0.23259
 C1898 C 0.34502 0.41139 0.23638
 C1899 C 0.33367 0.39035 0.24065
 C1900 C 0.32372 0.37247 0.24399
 C1901 C 0.31180 0.35158 0.24738
 C1902 C 0.30144 0.33376 0.24966
 C1903 C 0.85700 0.92928 0.73181
 C1904 C 0.84752 0.91123 0.73567
 C1905 C 0.83604 0.89029 0.74011
 C1906 C 0.82597 0.87250 0.74366
 C1907 C 0.81392 0.85173 0.74731
 C1908 C 0.80348 0.83398 0.74981
 C1909 C 0.64462 0.93238 0.26652
 C1910 C 0.65386 0.91425 0.26249
 C1911 C 0.66508 0.89320 0.25795
 C1912 C 0.67498 0.87532 0.25446
 C1913 C 0.68690 0.85443 0.25107
 C1914 C 0.69731 0.83661 0.24900
 C1915 C 0.14498 0.43217 0.76658
 C1916 C 0.15405 0.41396 0.76254
 C1917 C 0.16509 0.39282 0.75800
 C1918 C 0.17486 0.37487 0.75452
 C1919 C 0.18665 0.35391 0.75114
 C1920 C 0.19698 0.33606 0.74908
 C1921 C 0.07004 0.76782 0.85548
 C1922 C 0.08811 0.76446 0.84589
 C1923 C 0.10910 0.76060 0.83430
 C1924 C 0.12693 0.75755 0.82418
 C1925 C 0.14777 0.75442 0.81211
 C1926 C 0.16557 0.75230 0.80171
 C1927 C 0.56971 0.26949 0.35387
 C1928 C 0.58793 0.26597 0.34462
 C1929 C 0.60906 0.26184 0.33339
 C1930 C 0.62699 0.25851 0.32353
 C1931 C 0.64791 0.25503 0.31169
 C1932 C 0.66575 0.25263 0.30138
 C1933 C 0.56930 0.73471 0.14456
 C1934 C 0.58727 0.73898 0.15400
 C1935 C 0.60817 0.74374 0.16546
 C1936 C 0.62594 0.74736 0.17554
 C1937 C 0.64671 0.75087 0.18764
 C1938 C 0.66447 0.75300 0.19816
 C1939 C 0.06996 0.23526 0.64387
 C1940 C 0.08797 0.23956 0.65325
 C1941 C 0.10890 0.24432 0.66465
 C1942 C 0.12669 0.24792 0.67471
 C1943 C 0.14747 0.25137 0.68683
 C1944 C 0.16520 0.25341 0.69742
 C1945 C 0.92977 0.26487 0.64408
 C1946 C 0.91177 0.26054 0.65341
 C1947 C 0.89083 0.25576 0.66475
 C1948 C 0.87302 0.25215 0.67475
 C1949 C 0.85221 0.24870 0.68679
 C1950 C 0.83446 0.24664 0.69730
 C1951 C 0.42937 0.76501 0.14416
 C1952 C 0.41135 0.76082 0.15354
 C1953 C 0.39041 0.75618 0.16493
 C1954 C 0.37262 0.75267 0.17498
 C1955 C 0.35182 0.74930 0.18705
 C1956 C 0.33408 0.74728 0.19758
 C1957 C 0.43147 0.23173 0.35402
 C1958 C 0.41320 0.23519 0.34481
 C1959 C 0.39199 0.23920 0.33365
 C1960 C 0.37399 0.24239 0.32385
 C1961 C 0.35299 0.24568 0.31208
 C1962 C 0.33509 0.24791 0.30184
 C1963 C 0.93216 0.73041 0.85599
 C1964 C 0.91401 0.73401 0.84657
 C1965 C 0.89297 0.73821 0.83517
 C1966 C 0.87510 0.74161 0.82518
 C1967 C 0.85424 0.74516 0.81323
 C1968 C 0.83642 0.74763 0.80288
   
