data_POSCAR
  _audit_creation_date              2014-09-24
  _audit_creation_method            'ToBaCCo'
  _symmetry_space_group_name_H-M    'P1'
  _symmetry_Int_Tables_number       1
  _symmetry_cell_setting            triclinic
  loop_
  _symmetry_equiv_pos_as_xyz
 x,y,z
_cell_length_a 57.0434
_cell_length_b 55.9489
_cell_length_c 56.2503
_cell_angle_alpha 90.425300
_cell_angle_beta 89.916700
_cell_angle_gamma 90.998500
loop_
  _atom_site_label
  _atom_site_type_symbol
  _atom_site_fract_x
  _atom_site_fract_y
  _atom_site_fract_z
C1 C 0.72706 0.65367 0.96255
 H2 H 0.73856 0.64353 0.95121
 C3 C 0.70865 0.66615 0.95239
 H4 H 0.70600 0.66498 0.93336
 C5 C 0.71575 0.66630 1.00108
 H6 H 0.71826 0.66602 1.02007
 C7 C 0.69713 0.67906 0.99167
 H8 H 0.68564 0.68863 1.00361
 N9 N 0.72959 0.65301 0.98659
 C10 C 0.78800 0.63112 1.03037
 H11 H 0.78235 0.61283 1.03334
 C12 C 0.80738 0.64046 1.04250
 H13 H 0.81671 0.62920 1.05474
 C14 C 0.78270 0.66792 1.01059
 H15 H 0.77287 0.67846 0.99816
 C16 C 0.80236 0.67790 1.02210
 H17 H 0.80760 0.69623 1.01859
 Zn18 Zn 0.74973 0.63008 1.00027
 N19 N 0.77602 0.64489 1.01492
 C20 C 0.78345 0.60690 0.97171
 N21 N 0.76008 0.60876 0.97609
 C22 C 0.74398 0.59691 0.96237
 C23 C 0.75114 0.58299 0.94307
 C24 C 0.79138 0.59305 0.95268
 C25 C 0.73003 0.62522 1.04530
 C26 C 0.71760 0.61476 1.06397
 C27 C 0.71167 0.57952 1.03965
 C28 C 0.72437 0.59074 1.02146
 N29 N 0.73289 0.61338 1.02440
 H30 H 0.79601 0.61667 0.98255
 H31 H 0.72548 0.59895 0.96594
 H32 H 0.73805 0.57396 0.93217
 H33 H 0.81001 0.59239 0.94908
 H34 H 0.73784 0.64281 1.04769
 H35 H 0.71711 0.62490 1.08035
 H36 H 0.70433 0.56207 1.03558
 H37 H 0.72707 0.58135 1.00489
 C38 C 0.81477 0.66411 1.03845
 C39 C 0.69277 0.67822 0.96710
 C40 C 0.70761 0.59148 1.06160
 C41 C 0.77512 0.58116 0.93786
 C42 C 0.73022 0.33836 0.50842
 H43 H 0.74789 0.33510 0.51423
 C44 C 0.71132 0.32781 0.52067
 H45 H 0.71463 0.31628 0.53562
 C46 C 0.70410 0.35923 0.48370
 H47 H 0.70098 0.37234 0.47021
 C48 C 0.68488 0.34919 0.49539
 H49 H 0.66738 0.35425 0.49018
 N50 N 0.72632 0.35412 0.49054
 C51 C 0.78185 0.36020 0.44118
 H52 H 0.77219 0.37281 0.43086
 C53 C 0.80127 0.34943 0.43091
 H54 H 0.80553 0.35336 0.41257
 C55 C 0.78853 0.34041 0.47752
 H56 H 0.78400 0.33758 0.49594
 C57 C 0.80839 0.32948 0.46800
 H58 H 0.81880 0.31823 0.47928
 Zn59 Zn 0.75121 0.37372 0.47828
 N60 N 0.77584 0.35572 0.46416
 C61 C 0.78680 0.39469 0.50748
 N62 N 0.76331 0.39172 0.50420
 C63 C 0.74763 0.40070 0.51999
 C64 C 0.75539 0.41273 0.54040
 C65 C 0.79534 0.40674 0.52762
 C66 C 0.72837 0.38501 0.43558
 C67 C 0.71754 0.39950 0.41898
 C68 C 0.72831 0.43401 0.44289
 C69 C 0.73900 0.41881 0.45908
 N70 N 0.73860 0.39476 0.45532
 H71 H 0.79895 0.38753 0.49462
 H72 H 0.72904 0.39816 0.51689
 H73 H 0.74264 0.41966 0.55282
 H74 H 0.81410 0.40849 0.53023
 H75 H 0.72827 0.36583 0.43301
 H76 H 0.70951 0.39132 0.40343
 H77 H 0.72825 0.45304 0.44649
 H78 H 0.74722 0.42623 0.47484
 C79 C 0.81523 0.33428 0.44447
 C80 C 0.68834 0.33390 0.51461
 C81 C 0.71713 0.42433 0.42266
 C82 C 0.77954 0.41568 0.54454
 C83 C 0.23538 -0.16002 0.02032
 H84 H 0.25248 -0.16121 0.02848
 C85 C 0.21611 -0.17210 0.03033
 H86 H 0.21853 -0.18257 0.04622
 C87 C 0.21109 -0.14331 -0.00913
 H88 H 0.20893 -0.13157 -0.02405
 C89 C 0.19148 -0.15511 0.00017
 H90 H 0.17459 -0.15267 -0.00814
 N91 N 0.23245 -0.14556 0.00125
 C92 C 0.29943 -0.12873 -0.03280
 H93 H 0.29882 -0.10944 -0.03161
 C94 C 0.31801 -0.13960 -0.04449
 H95 H 0.33187 -0.12848 -0.05191
 C96 C 0.28209 -0.16648 -0.02413
 H97 H 0.26787 -0.17679 -0.01636
 C98 C 0.30042 -0.17815 -0.03572
 H99 H 0.30012 -0.19747 -0.03684
 Zn100 Zn 0.25745 -0.12511 -0.00843
 N101 N 0.28204 -0.14219 -0.02282
 C102 C 0.29139 -0.10971 0.02558
 N103 N 0.26848 -0.10866 0.01905
 C104 C 0.25263 -0.09685 0.03264
 C105 C 0.25973 -0.08494 0.05339
 C106 C 0.29923 -0.09811 0.04623
 C107 C 0.24152 -0.11247 -0.05326
 C108 C 0.23124 -0.09836 -0.07058
 C109 C 0.23161 -0.06540 -0.04267
 C110 C 0.24212 -0.08018 -0.02600
 N111 N 0.24619 -0.10343 -0.03131
 H112 H 0.30361 -0.11976 0.01499
 H113 H 0.23441 -0.09671 0.02732
 H114 H 0.24689 -0.07526 0.06366
 H115 H 0.31747 -0.09944 0.05124
 H116 H 0.24498 -0.13107 -0.05704
 H117 H 0.22658 -0.10725 -0.08705
 H118 H 0.22931 -0.04695 -0.03754
 H119 H 0.24666 -0.07303 -0.00870
 C120 C 0.31868 -0.16463 -0.04617
 C121 C 0.19367 -0.16912 0.02061
 C122 C 0.22533 -0.07434 -0.06549
 C123 C 0.28334 -0.08543 0.06042
 C124 C 0.22356 0.16477 0.48137
 H125 H 0.24073 0.16525 0.47317
 C126 C 0.20447 0.17482 0.46964
 H127 H 0.20710 0.18314 0.45251
 C128 C 0.19871 0.15117 0.51241
 H129 H 0.19615 0.14121 0.52856
 C130 C 0.17930 0.16094 0.50141
 H131 H 0.16219 0.15873 0.50955
 N132 N 0.22022 0.15261 0.50201
 C133 C 0.28383 0.13652 0.54111
 H134 H 0.27948 0.11792 0.54431
 C135 C 0.30411 0.14655 0.55095
 H136 H 0.31530 0.13548 0.56163
 C137 C 0.27496 0.17301 0.52224
 H138 H 0.26358 0.18308 0.51086
 C139 C 0.29535 0.18377 0.53161
 H140 H 0.29948 0.20225 0.52752
 Zn141 Zn 0.24414 0.13258 0.51358
 N142 N 0.26981 0.14969 0.52697
 C143 C 0.27827 0.11330 0.48285
 N144 N 0.25492 0.11402 0.48765
 C145 C 0.23898 0.10254 0.47345
 C146 C 0.24638 0.08952 0.45360
 C147 C 0.28643 0.10042 0.46330
 C148 C 0.22639 0.12303 0.55886
 C149 C 0.21635 0.10961 0.57713
 C150 C 0.21810 0.07457 0.55186
 C151 C 0.22806 0.08871 0.53400
 N152 N 0.23160 0.11256 0.53765
 H153 H 0.29065 0.12290 0.49402
 H154 H 0.22048 0.10365 0.47751
 H155 H 0.23349 0.08035 0.44257
 H156 H 0.30506 0.10034 0.45963
 H157 H 0.22975 0.14197 0.56140
 H158 H 0.21222 0.11832 0.59384
 H159 H 0.21484 0.05573 0.54845
 H160 H 0.23266 0.08065 0.51716
 C161 C 0.31024 0.17041 0.54611
 C162 C 0.18186 0.17208 0.47929
 C163 C 0.21184 0.08509 0.57367
 C164 C 0.27042 0.08833 0.44836
 C165 C 0.16776 0.47240 0.22918
 H166 H 0.16942 0.46484 0.24672
 C167 C 0.17693 0.46029 0.20939
 H168 H 0.18580 0.44354 0.21184
 C169 C 0.15204 0.50200 0.20419
 H170 H 0.14146 0.51752 0.20176
 C171 C 0.16088 0.49061 0.18414
 H172 H 0.15742 0.49797 0.16676
 N173 N 0.15503 0.49254 0.22617
 C174 C 0.14044 0.53207 0.29145
 H175 H 0.12257 0.53600 0.28667
 C176 C 0.14953 0.54081 0.31275
 H177 H 0.13867 0.55191 0.32395
 C178 C 0.17589 0.51227 0.28280
 H179 H 0.18582 0.50070 0.27122
 C180 C 0.18575 0.52067 0.30421
 H181 H 0.20330 0.51549 0.30903
 Zn182 Zn 0.13621 0.50454 0.25139
 N183 N 0.15343 0.51777 0.27715
 C184 C 0.11770 0.47328 0.28627
 N185 N 0.11764 0.47865 0.26273
 C186 C 0.10524 0.46508 0.24684
 C187 C 0.09211 0.44525 0.25449
 C188 C 0.10477 0.45370 0.29469
 C189 C 0.12761 0.54942 0.23201
 C190 C 0.11461 0.56753 0.22177
 C191 C 0.07934 0.54438 0.22953
 C192 C 0.09310 0.52644 0.23913
 N193 N 0.11683 0.52903 0.23969
 H194 H 0.12784 0.48408 0.29863
 H195 H 0.10577 0.46954 0.22816
 H196 H 0.08266 0.43446 0.24150
 H197 H 0.10479 0.45002 0.31355
 H198 H 0.14650 0.55117 0.23304
 H199 H 0.12388 0.58289 0.21460
 H200 H 0.06048 0.54194 0.22947
 H201 H 0.08480 0.51042 0.24602
 C202 C 0.17220 0.53462 0.31974
 C203 C 0.17266 0.46901 0.18648
 C204 C 0.09008 0.56511 0.22015
 C205 C 0.09179 0.43931 0.27873
 C206 C -0.15227 0.02770 0.22859
 H207 H -0.15072 0.03413 0.24670
 C208 C -0.16491 0.04084 0.21203
 H209 H -0.17373 0.05665 0.21824
 C210 C -0.14206 -0.00042 0.19897
 H211 H -0.13229 -0.01577 0.19342
 C212 C -0.15477 0.01183 0.18197
 H213 H -0.15398 0.00530 0.16386
 N214 N -0.14096 0.00757 0.22182
 C215 C -0.12823 -0.04477 0.27536
 H216 H -0.11390 -0.05273 0.26579
 C217 C -0.13660 -0.05588 0.29581
 H218 H -0.12904 -0.07260 0.30124
 C219 C -0.15434 -0.01273 0.28091
 H220 H -0.16064 0.00447 0.27545
 C221 C -0.16326 -0.02330 0.30162
 H222 H -0.17645 -0.01413 0.31192
 Zn223 Zn -0.12043 -0.00722 0.24371
 N224 N -0.13685 -0.02340 0.26845
 C225 C -0.09820 0.01722 0.28162
 N226 N -0.10129 0.01699 0.25765
 C227 C -0.09151 0.03422 0.24368
 C228 C -0.07819 0.05285 0.25384
 C229 C -0.08494 0.03539 0.29247
 C230 C -0.11231 -0.04912 0.21749
 C231 C -0.09928 -0.06663 0.20605
 C232 C -0.06394 -0.04453 0.21631
 C233 C -0.07772 -0.02718 0.22724
 N234 N -0.10147 -0.02974 0.22759
 H235 H -0.10609 0.00335 0.29241
 H236 H -0.09427 0.03360 0.22466
 H237 H -0.07050 0.06643 0.24249
 H238 H -0.08303 0.03546 0.31162
 H239 H -0.13120 -0.05098 0.21841
 H240 H -0.10848 -0.08150 0.19764
 H241 H -0.04505 -0.04242 0.21680
 H242 H -0.06940 -0.01191 0.23580
 C243 C -0.15385 -0.04483 0.30961
 C244 C -0.16618 0.03320 0.18806
 C245 C -0.07469 -0.06465 0.20549
 C246 C -0.07482 0.05360 0.27858
 C247 C 0.34885 0.51765 0.73474
 H248 H 0.34600 0.52323 0.75296
 C249 C 0.33833 0.53003 0.71613
 H250 H 0.32732 0.54510 0.72017
 C251 C 0.36809 0.49239 0.70723
 H252 H 0.38026 0.47827 0.70363
 C253 C 0.35799 0.50419 0.68820
 H254 H 0.36208 0.49849 0.67025
 N255 N 0.36369 0.49944 0.72997
 C256 C 0.37644 0.45823 0.79395
 H257 H 0.39537 0.45887 0.79282
 C258 C 0.36553 0.44486 0.81166
 H259 H 0.37625 0.43553 0.82433
 C260 C 0.33968 0.46998 0.77877
 H261 H 0.32978 0.47962 0.76569
 C262 C 0.32794 0.45684 0.79644
 H263 H 0.30896 0.45641 0.79687
 Zn264 Zn 0.38181 0.48632 0.75472
 N265 N 0.36353 0.47044 0.77798
 C266 C 0.39587 0.51674 0.79260
 N267 N 0.39911 0.51173 0.76914
 C268 C 0.41376 0.52536 0.75554
 C269 C 0.42646 0.54445 0.76568
 C270 C 0.40809 0.53568 0.80341
 C271 C 0.39115 0.44268 0.73354
 C272 C 0.40424 0.42442 0.72342
 C273 C 0.43946 0.44777 0.73124
 C274 C 0.42565 0.46562 0.74129
 N275 N 0.40191 0.46292 0.74186
 H276 H 0.38358 0.50626 0.80297
 H277 H 0.41566 0.52131 0.73681
 H278 H 0.43843 0.55473 0.75467
 H279 H 0.40497 0.53948 0.82203
 H280 H 0.37227 0.44084 0.73462
 H281 H 0.39527 0.40845 0.71698
 H282 H 0.45828 0.45045 0.73039
 H283 H 0.43392 0.48160 0.74846
 C284 C 0.34097 0.44388 0.81302
 C285 C 0.34338 0.52368 0.69247
 C286 C 0.42873 0.42692 0.72192
 C287 C 0.42380 0.54974 0.78999
 C288 C 0.65699 0.96264 0.72288
 H289 H 0.64599 0.95105 0.73354
 C290 C 0.66997 0.95281 0.70427
 H291 H 0.66836 0.93382 0.70064
 C292 C 0.67146 1.00142 0.71385
 H293 H 0.67198 1.02036 0.71752
 C294 C 0.68469 0.99236 0.69502
 H295 H 0.69522 1.00452 0.68438
 N296 N 0.65706 0.98671 0.72661
 C297 C 0.63332 1.03307 0.78364
 H298 H 0.61584 1.03555 0.77677
 C299 C 0.64022 1.04480 0.80440
 H300 H 0.62799 1.05711 0.81226
 C301 C 0.67009 1.01440 0.78048
 H302 H 0.68135 1.00197 0.77133
 C303 C 0.67780 1.02577 0.80143
 H304 H 0.69499 1.02144 0.80802
 Zn305 Zn 0.63416 1.00015 0.74722
 N306 N 0.64800 1.01789 0.77239
 C307 C 0.61621 0.97240 0.78480
 N308 N 0.61527 0.97529 0.76083
 C309 C 0.60187 0.96038 0.74700
 C310 C 0.58849 0.94197 0.75729
 C311 C 0.60325 0.95423 0.79577
 C312 C 0.62617 1.04263 0.72302
 C313 C 0.61381 1.05983 0.71066
 C314 C 0.57938 1.03424 0.71247
 C315 C 0.59244 1.01746 0.72486
 N316 N 0.61553 1.02177 0.72965
 H317 H 0.62728 0.98396 0.79556
 H318 H 0.60171 0.96267 0.72792
 H319 H 0.57770 0.93055 0.74602
 H320 H 0.60471 0.95210 0.81482
 H321 H 0.64418 1.04626 0.72789
 H322 H 0.62281 1.07615 0.70539
 H323 H 0.56097 1.03062 0.70910
 H324 H 0.58394 1.00125 0.73089
 C325 C 0.66250 1.04073 0.81436
 C326 C 0.68328 0.96787 0.68943
 C327 C 0.59007 1.05580 0.70523
 C328 C 0.58903 0.93876 0.78205
 C329 C 0.01894 0.23541 -0.16001
 H330 H 0.02561 0.25350 -0.16149
 C331 C 0.03083 0.21688 -0.17128
 H332 H 0.04644 0.22104 -0.18152
 C333 C -0.00926 0.20802 -0.14477
 H334 H -0.02481 0.20452 -0.13433
 C335 C 0.00214 0.18894 -0.15564
 H336 H -0.00462 0.17097 -0.15292
 N337 N -0.00017 0.23061 -0.14623
 C338 C -0.02879 0.30077 -0.13147
 H339 H -0.02481 0.30167 -0.11269
 C340 C -0.03890 0.32019 -0.14258
 H341 H -0.04284 0.33591 -0.13208
 C342 C -0.02930 0.27856 -0.16754
 H343 H -0.02561 0.26217 -0.17703
 C344 C -0.03953 0.29765 -0.17942
 H345 H -0.04346 0.29593 -0.19818
 Zn346 Zn -0.01188 0.25520 -0.12613
 N347 N -0.02440 0.28043 -0.14393
 C348 C 0.02841 0.28326 -0.12006
 N349 N 0.01350 0.26831 -0.10821
 C350 C 0.01683 0.26340 -0.08480
 C351 C 0.03631 0.27294 -0.07274
 C352 C 0.04799 0.29320 -0.10871
 C353 C -0.05751 0.25198 -0.10695
 C354 C -0.07579 0.24281 -0.09310
 C355 C -0.04923 0.21392 -0.07723
 C356 C -0.03139 0.22392 -0.09125
 N357 N -0.03578 0.24256 -0.10583
 H358 H 0.02498 0.28767 -0.13838
 H359 H 0.00461 0.25194 -0.07545
 H360 H 0.03901 0.26831 -0.05430
 H361 H 0.05951 0.30515 -0.11852
 H362 H -0.06100 0.26634 -0.11907
 H363 H -0.09282 0.25041 -0.09590
 H364 H -0.04435 0.19967 -0.06548
 H365 H -0.01400 0.21651 -0.09075
 C366 C -0.04453 0.31879 -0.16684
 C367 C 0.02297 0.19314 -0.16841
 C368 C -0.07220 0.22319 -0.07781
 C369 C 0.05235 0.28784 -0.08481
 C370 C 0.46317 0.23004 0.16417
 H371 H 0.45642 0.24799 0.16466
 C372 C 0.45080 0.21143 0.17535
 H373 H 0.43456 0.21524 0.18450
 C374 C 0.49143 0.20292 0.14983
 H375 H 0.50676 0.19939 0.13921
 C376 C 0.47972 0.18390 0.16076
 H377 H 0.48663 0.16608 0.15889
 N378 N 0.48281 0.22539 0.15130
 C379 C 0.52019 0.29160 0.13405
 H380 H 0.52145 0.28824 0.11513
 C381 C 0.52994 0.31243 0.14369
 H382 H 0.53896 0.32492 0.13209
 C383 C 0.50697 0.27908 0.17203
 H384 H 0.49788 0.26599 0.18287
 C385 C 0.51667 0.29980 0.18253
 H386 H 0.51487 0.30267 0.20150
 Zn387 Zn 0.49556 0.24936 0.13125
 N388 N 0.50862 0.27566 0.14811
 C389 C 0.46458 0.28352 0.11325
 N390 N 0.47084 0.26020 0.11185
 C391 C 0.45859 0.24426 0.09811
 C392 C 0.43945 0.25173 0.08472
 C393 C 0.44564 0.29171 0.10021
 C394 C 0.53999 0.23121 0.12503
 C395 C 0.55934 0.22199 0.11319
 C396 C 0.53789 0.22429 0.07628
 C397 C 0.51891 0.23358 0.08887
 N398 N 0.52023 0.23658 0.11286
 H399 H 0.47389 0.29579 0.12490
 H400 H 0.46359 0.22570 0.09772
 H401 H 0.43004 0.23886 0.07370
 H402 H 0.44075 0.31025 0.10198
 H403 H 0.54061 0.23401 0.14407
 H404 H 0.57472 0.21742 0.12333
 H405 H 0.53665 0.22209 0.05718
 H406 H 0.50324 0.23846 0.07944
 C407 C 0.52798 0.31695 0.16816
 C408 C 0.45871 0.18788 0.17307
 C409 C 0.55845 0.21837 0.08849
 C410 C 0.43278 0.27578 0.08569
 C411 C 0.97006 0.72289 0.65796
 H412 H 0.96376 0.74102 0.65854
 C413 C 0.95667 0.70437 0.66803
 H414 H 0.94010 0.70841 0.67642
 C415 C 0.99836 0.69536 0.64454
 H416 H 1.01420 0.69171 0.63475
 C417 C 0.98561 0.67639 0.65436
 H418 H 0.99218 0.65843 0.65249
 N419 N 0.99027 0.71803 0.64614
 C420 C 1.03101 0.78343 0.63479
 H421 H 1.03432 0.78057 0.61605
 C422 C 1.03996 0.80381 0.64606
 H423 H 1.05047 0.81641 0.63591
 C424 C 1.01317 0.77031 0.67060
 H425 H 1.00252 0.75724 0.67994
 C426 C 1.02188 0.79059 0.68267
 H427 H 1.01775 0.79311 0.70131
 Zn428 Zn 1.00495 0.74237 0.62798
 N429 N 1.01750 0.76746 0.64696
 C430 C 0.97644 0.77849 0.60963
 N431 N 0.98179 0.75496 0.60766
 C432 C 0.96947 0.74006 0.59288
 C433 C 0.95105 0.74878 0.57922
 C434 C 0.95826 0.78793 0.59635
 C435 C 1.04929 0.72335 0.62361
 C436 C 1.06905 0.71410 0.61251
 C437 C 1.04956 0.71788 0.57464
 C438 C 1.03015 0.72724 0.58650
 N439 N 1.03031 0.72955 0.61059
 H440 H 0.98581 0.78996 0.62201
 H441 H 0.97372 0.72130 0.59201
 H442 H 0.94149 0.73669 0.56749
 H443 H 0.95400 0.80658 0.59872
 H444 H 1.04898 0.72556 0.64273
 H445 H 1.08383 0.70896 0.62326
 H446 H 1.04925 0.71623 0.55545
 H447 H 1.01507 0.73268 0.57644
 C448 C 1.03504 0.80789 0.67017
 C449 C 0.96414 0.68066 0.66571
 C450 C 1.06936 0.71124 0.58771
 C451 C 0.94520 0.77304 0.58094
 C452 C 0.52553 0.74553 0.34324
 H453 H 0.53223 0.76360 0.34184
 C454 C 0.53584 0.72743 0.32978
 H455 H 0.55033 0.73190 0.31809
 C456 C 0.49872 0.71772 0.36015
 H457 H 0.48433 0.71385 0.37205
 C458 C 0.50853 0.69908 0.34709
 H459 H 0.50181 0.68106 0.34963
 N460 N 0.50799 0.74025 0.35886
 C461 C 0.48434 0.81057 0.37964
 H462 H 0.49105 0.81061 0.39762
 C463 C 0.47453 0.83116 0.37054
 H464 H 0.47344 0.84650 0.38227
 C465 C 0.47654 0.78945 0.34384
 H466 H 0.47748 0.77306 0.33359
 C467 C 0.46609 0.80962 0.33408
 H468 H 0.45969 0.80840 0.31601
 Zn469 Zn 0.49860 0.76381 0.38139
 N470 N 0.48527 0.79033 0.36629
 C471 C 0.54050 0.78988 0.38557
 N472 N 0.52561 0.77539 0.39799
 C473 C 0.52977 0.77028 0.42121
 C474 C 0.54999 0.77917 0.43248
 C475 C 0.56082 0.79917 0.39611
 C476 C 0.45404 0.75927 0.40282
 C477 C 0.43648 0.74879 0.41675
 C478 C 0.46449 0.72017 0.43054
 C479 C 0.48153 0.73117 0.41626
 N480 N 0.47605 0.75029 0.40264
 H481 H 0.53636 0.79471 0.36752
 H482 H 0.51753 0.75934 0.43112
 H483 H 0.55324 0.77448 0.45081
 H484 H 0.57221 0.81089 0.38589
 H485 H 0.44983 0.77421 0.39166
 H486 H 0.41893 0.75581 0.41595
 H487 H 0.46924 0.70497 0.44118
 H488 H 0.49902 0.72403 0.41554
 C489 C 0.46500 0.83112 0.34739
 C490 C 0.52793 0.70367 0.33231
 C491 C 0.44151 0.72882 0.43073
 C492 C 0.56594 0.79368 0.41982
 C493 C 0.34674 -0.00527 0.22621
 C494 C 0.35605 0.00839 0.24503
 C495 C 0.36601 0.03100 0.24059
 C496 C 0.36702 0.03997 0.21736
 C497 C 0.35716 0.02631 0.19870
 C498 C 0.34692 0.00368 0.20292
 C499 C 0.35589 -0.00112 0.26938
 C500 C 0.36911 -0.02126 0.27488
 C501 C 0.37033 -0.02942 0.29840
 C502 C 0.35740 -0.01769 0.31614
 C503 C 0.34402 0.00242 0.31085
 C504 C 0.34347 0.01068 0.28736
 H505 H 0.33940 -0.02288 0.22978
 H506 H 0.37375 0.04115 0.25515
 H507 H 0.37927 -0.02982 0.26104
 H508 H 0.33368 0.02650 0.28307
 H509 H 0.35711 0.03354 0.18090
 H510 H 0.35765 -0.02432 0.33418
 C511 C 0.12900 1.00865 0.72795
 C512 C 0.11817 0.99737 0.74733
 C513 C 0.10710 0.97498 0.74421
 C514 C 0.10634 0.96408 0.72165
 C515 C 0.11751 0.97550 0.70242
 C516 C 0.12908 0.99767 0.70543
 C517 C 0.11893 1.00895 0.77093
 C518 C 0.10894 1.03141 0.77436
 C519 C 0.11038 1.04303 0.79654
 C520 C 0.12255 1.03207 0.81515
 C521 C 0.13290 1.00963 0.81186
 C522 C 0.13058 0.99802 0.78972
 H523 H 0.13805 1.02564 0.73068
 H524 H 0.09856 0.96643 0.75921
 H525 H 0.10018 1.03988 0.75964
 H526 H 0.13816 0.98060 0.78689
 H527 H 0.11722 0.96703 0.68504
 H528 H 0.12407 1.04108 0.83218
 C529 C 0.62345 0.52036 0.21669
 C530 C 0.61446 0.50799 0.23635
 C531 C 0.60475 0.48499 0.23323
 C532 C 0.60377 0.47434 0.21054
 C533 C 0.61333 0.48680 0.19105
 C534 C 0.62322 0.50980 0.19398
 C535 C 0.61571 0.51902 0.26025
 C536 C 0.60653 0.54179 0.26433
 C537 C 0.60843 0.55272 0.28681
 C538 C 0.62000 0.54072 0.30513
 C539 C 0.62944 0.51799 0.30124
 C540 C 0.62695 0.50715 0.27877
 H541 H 0.63138 0.53793 0.21927
 H542 H 0.59736 0.47572 0.24842
 H543 H 0.59804 0.55101 0.24991
 H544 H 0.63455 0.48985 0.27533
 H545 H 0.61302 0.47864 0.17353
 H546 H 0.62122 0.54886 0.32263
 C547 C 0.84433 0.49039 0.71173
 C548 C 0.85404 0.50310 0.73101
 C549 C 0.86495 0.52540 0.72725
 C550 C 0.86664 0.53492 0.70427
 C551 C 0.85660 0.52211 0.68513
 C552 C 0.84531 0.49989 0.68870
 C553 C 0.85366 0.49270 0.75502
 C554 C 0.86498 0.47110 0.75928
 C555 C 0.86611 0.46187 0.78238
 C556 C 0.85510 0.47414 0.80109
 C557 C 0.84336 0.49558 0.79699
 C558 C 0.84292 0.50487 0.77387
 H559 H 0.83614 0.47305 0.71470
 H560 H 0.87297 0.53482 0.74213
 H561 H 0.87375 0.46208 0.74475
 H562 H 0.83442 0.52168 0.77052
 H563 H 0.85720 0.52967 0.66746
 H564 H 0.85534 0.46675 0.81883
 C565 C 0.21495 0.35473 -0.00715
 C566 C 0.23415 0.36402 0.00565
 C567 C 0.23044 0.37559 0.02754
 C568 C 0.20755 0.37855 0.03621
 C569 C 0.18851 0.36900 0.02320
 C570 C 0.19203 0.35698 0.00155
 C571 C 0.25798 0.36194 -0.00436
 C572 C 0.26262 0.36985 -0.02756
 C573 C 0.28479 0.36681 -0.03781
 C574 C 0.30234 0.35566 -0.02466
 C575 C 0.29807 0.34786 -0.00133
 C576 C 0.27580 0.35122 0.00876
 H577 H 0.21799 0.34534 -0.02376
 H578 H 0.24522 0.38317 0.03724
 H579 H 0.24888 0.37815 -0.03772
 H580 H 0.27220 0.34529 0.02671
 H581 H 0.17084 0.37129 0.02983
 H582 H 0.31939 0.35305 -0.03268
 C583 C 0.71454 0.13845 1.01412
 C584 C 0.73268 0.12710 1.00186
 C585 C 0.72798 0.11543 0.98017
 C586 C 0.70509 0.11463 0.97098
 C587 C 0.68715 0.12639 0.98333
 C588 C 0.69173 0.13850 1.00482
 C589 C 0.75660 0.12789 1.01175
 C590 C 0.76096 0.11852 1.03433
 C591 C 0.78343 0.12030 1.04439
 C592 C 0.80146 0.13206 1.03177
 C593 C 0.79731 0.14164 1.00914
 C594 C 0.77483 0.13910 0.99913
 H595 H 0.71831 0.14742 1.03086
 H596 H 0.74200 0.10645 0.97088
 H597 H 0.74676 0.10998 1.04410
 H598 H 0.77131 0.14620 0.98165
 H599 H 0.66968 0.12667 0.97583
 H600 H 0.81873 0.13381 1.03962
 C601 C 0.22883 0.63442 0.51685
 C602 C 0.24734 0.62342 0.50482
 C603 C 0.24300 0.61098 0.48348
 C604 C 0.22009 0.60887 0.47459
 C605 C 0.20172 0.62016 0.48667
 C606 C 0.20594 0.63325 0.50769
 C607 C 0.27112 0.62451 0.51498
 C608 C 0.27565 0.61340 0.53670
 C609 C 0.29825 0.61426 0.54659
 C610 C 0.31619 0.62689 0.53464
 C611 C 0.31174 0.63848 0.51306
 C612 C 0.28915 0.63692 0.50319
 H613 H 0.23235 0.64386 0.53339
 H614 H 0.25726 0.60223 0.47435
 H615 H 0.26165 0.60360 0.54556
 H616 H 0.28551 0.64552 0.48642
 H617 H 0.18419 0.61915 0.47930
 H618 H 0.33348 0.62834 0.54251
 C619 C 0.73032 0.86224 0.49311
 C620 C 0.74953 0.87156 0.50587
 C621 C 0.74590 0.88318 0.52771
 C622 C 0.72309 0.88618 0.53648
 C623 C 0.70398 0.87661 0.52361
 C624 C 0.70742 0.86438 0.50200
 C625 C 0.77336 0.86976 0.49593
 C626 C 0.77887 0.88090 0.47432
 C627 C 0.80163 0.87984 0.46492
 C628 C 0.81861 0.86673 0.47703
 C629 C 0.81334 0.85536 0.49863
 C630 C 0.79063 0.85719 0.50810
 H631 H 0.73337 0.85289 0.47649
 H632 H 0.76075 0.89073 0.53733
 H633 H 0.76559 0.89105 0.46529
 H634 H 0.78631 0.84889 0.52493
 H635 H 0.68637 0.87889 0.53037
 H636 H 0.83593 0.86502 0.46935
 C637 C -0.00024 0.21588 0.35422
 C638 C 0.01134 0.23565 0.36467
 C639 C 0.03201 0.23232 0.37770
 C640 C 0.04058 0.20923 0.38102
 C641 C 0.02893 0.18966 0.37032
 C642 C 0.00856 0.19277 0.35681
 C643 C 0.00090 0.25953 0.36336
 C644 C -0.02150 0.26326 0.37290
 C645 C -0.03161 0.28595 0.37221
 C646 C -0.01912 0.30479 0.36130
 C647 C 0.00308 0.30120 0.35112
 C648 C 0.01317 0.27852 0.35261
 H649 H -0.01635 0.21850 0.34447
 H650 H 0.04062 0.24748 0.38628
 H651 H -0.03096 0.24842 0.38093
 H652 H 0.03022 0.27536 0.34481
 H653 H 0.03587 0.17190 0.37253
 H654 H -0.02644 0.32251 0.36121
 C655 C 1.01420 0.71586 0.13159
 C656 C 1.00235 0.73444 0.12044
 C657 C 0.97973 0.73031 0.11138
 C658 C 0.96905 0.70758 0.11290
 C659 C 0.98137 0.68901 0.12365
 C660 C 1.00373 0.69302 0.13360
 C661 C 1.01335 0.75845 0.11890
 C662 C 1.03494 0.76169 0.10730
 C663 C 1.04497 0.78466 0.10505
 C664 C 1.03343 0.80428 0.11514
 C665 C 1.01210 0.80126 0.12739
 C666 C 1.00210 0.77818 0.12897
 H667 H 1.03121 0.71962 0.13941
 H668 H 0.97042 0.74490 0.10332
 H669 H 1.04348 0.74643 0.09935
 H670 H 0.98583 0.77530 0.13857
 H671 H 0.97353 0.67126 0.12403
 H672 H 1.04116 0.82200 0.11340
 C673 C 0.51683 0.21253 0.62678
 C674 C 0.50496 0.23266 0.61886
 C675 C 0.48214 0.23009 0.60989
 C676 C 0.47110 0.20748 0.60856
 C677 C 0.48314 0.18743 0.61681
 C678 C 0.50590 0.18983 0.62622
 C679 C 0.51600 0.25663 0.62082
 C680 C 0.53698 0.26197 0.60875
 C681 C 0.54665 0.28521 0.60962
 C682 C 0.53571 0.30273 0.62358
 C683 C 0.51498 0.29749 0.63609
 C684 C 0.50507 0.27441 0.63436
 H685 H 0.53444 0.21468 0.63378
 H686 H 0.47293 0.24581 0.60417
 H687 H 0.54511 0.24838 0.59784
 H688 H 0.48902 0.27010 0.64387
 H689 H 0.47468 0.16996 0.61618
 H690 H 0.54315 0.32067 0.62429
 C691 C 0.49992 0.71426 0.85853
 C692 C 0.51139 0.73477 0.86761
 C693 C 0.53310 0.73262 0.87907
 C694 C 0.54305 0.71007 0.88202
 C695 C 0.53156 0.68978 0.87249
 C696 C 0.50995 0.69163 0.86074
 C697 C 0.49998 0.75825 0.86637
 C698 C 0.47711 0.76087 0.87514
 C699 C 0.46622 0.78315 0.87467
 C700 C 0.47833 0.80278 0.86481
 C701 C 0.50130 0.80055 0.85605
 C702 C 0.51205 0.77816 0.85702
 H703 H 0.48298 0.71596 0.85009
 H704 H 0.54161 0.74832 0.88675
 H705 H 0.46792 0.74557 0.88264
 H706 H 0.52986 0.77616 0.85068
 H707 H 0.53961 0.67249 0.87418
 H708 H 0.46994 0.81998 0.86431
 C709 C 0.42989 -0.10743 0.32385
 C710 C 0.44881 -0.10498 0.33959
 C711 C 0.46070 -0.12515 0.34687
 C712 C 0.45423 -0.14810 0.33837
 C713 C 0.43615 -0.14945 0.32124
 N714 N 0.42447 -0.12948 0.31484
 C715 C 0.41532 -0.08679 0.31733
 N716 N 0.40233 -0.08779 0.29702
 C717 C 0.38806 -0.06974 0.29043
 C718 C 0.38600 -0.04928 0.30486
 C719 C 0.39920 -0.04795 0.32586
 C720 C 0.41369 -0.06660 0.33221
 H721 H 0.47541 -0.12243 0.35876
 H722 H 0.43013 -0.16641 0.31400
 H723 H 0.37802 -0.07159 0.27419
 H724 H 0.39838 -0.03241 0.33741
 H725 H 0.45460 -0.08769 0.34626
 H726 H 0.42300 -0.06526 0.34890
 C727 C 0.91881 0.37790 0.80404
 C728 C 0.91256 0.35453 0.79685
 C729 C 0.92505 0.33521 0.80564
 C730 C 0.94368 0.33909 0.82156
 C731 C 0.94981 0.36277 0.82764
 N732 N 0.93728 0.38121 0.81906
 C733 C 0.90511 0.39903 0.79729
 N734 N 0.90645 0.41877 0.81154
 C735 C 0.89419 0.43883 0.80713
 C736 C 0.87950 0.43993 0.78721
 C737 C 0.87811 0.41997 0.77197
 C738 C 0.89084 0.39948 0.77695
 H739 H 0.91949 0.31724 0.80077
 H740 H 0.96430 0.36664 0.83953
 H741 H 0.89616 0.45399 0.81906
 H742 H 0.86700 0.42012 0.75639
 H743 H 0.89764 0.35098 0.78545
 H744 H 0.88967 0.38441 0.76483
 C745 C 0.06412 1.13262 0.81235
 C746 C 0.07534 1.15404 0.81950
 C747 C 0.06195 1.17394 0.82505
 C748 C 0.03740 1.17282 0.82325
 C749 C 0.02696 1.15140 0.81499
 N750 N 0.04036 1.13215 0.80993
 C751 C 0.07718 1.11033 0.80782
 N752 N 0.06660 1.09246 0.79499
 C753 C 0.07695 1.07111 0.79089
 C754 C 0.09924 1.06657 0.80024
 C755 C 0.11048 1.08471 0.81353
 C756 C 0.09955 1.10651 0.81742
 H757 H 0.07082 1.18997 0.83150
 H758 H 0.00815 1.14983 0.81285
 H759 H 0.06751 1.05751 0.78080
 H760 H 0.12774 1.08205 0.82094
 H761 H 0.09419 1.15557 0.82099
 H762 H 0.10841 1.11981 0.82834
 C763 C 0.56589 0.64330 0.30685
 C764 C 0.57814 0.66423 0.31370
 C765 C 0.56572 0.68419 0.32113
 C766 C 0.54110 0.68358 0.32156
 C767 C 0.52953 0.66274 0.31339
 N768 N 0.54202 0.64340 0.30647
 C769 C 0.57806 0.62086 0.30084
 N770 N 0.56656 0.60387 0.28764
 C771 C 0.57607 0.58231 0.28250
 C772 C 0.59832 0.57661 0.29124
 C773 C 0.61050 0.59385 0.30484
 C774 C 0.60048 0.61592 0.30971
 H775 H 0.57545 0.69978 0.32740
 H776 H 0.51058 0.66163 0.31293
 H777 H 0.56596 0.56941 0.27217
 H778 H 0.62776 0.59024 0.31180
 H779 H 0.59708 0.66524 0.31360
 H780 H 0.60999 0.62851 0.32090
 C781 C 0.55859 0.38268 0.19361
 C782 C 0.56148 0.36166 0.20687
 C783 C 0.55087 0.34026 0.19908
 C784 C 0.53756 0.33969 0.17814
 C785 C 0.53451 0.36115 0.16590
 N786 N 0.54500 0.38165 0.17374
 C787 C 0.57030 0.40591 0.19949
 N788 N 0.56768 0.42424 0.18397
 C789 C 0.57807 0.44602 0.18716
 C790 C 0.59231 0.45053 0.20704
 C791 C 0.59515 0.43206 0.22350
 C792 C 0.58421 0.40977 0.21984
 H793 H 0.55374 0.32402 0.20895
 H794 H 0.52401 0.36160 0.14990
 H795 H 0.57498 0.45984 0.17424
 H796 H 0.60610 0.43473 0.23904
 H797 H 0.57212 0.36131 0.22271
 H798 H 0.58685 0.39601 0.23287
 C799 C 0.06132 0.87346 0.70048
 C800 C 0.06228 0.85235 0.71392
 C801 C 0.05314 0.83094 0.70441
 C802 C 0.04315 0.83051 0.68163
 C803 C 0.04175 0.85210 0.66926
 N804 N 0.05082 0.87257 0.67878
 C805 C 0.07200 0.89668 0.70812
 N806 N 0.06953 0.91567 0.69338
 C807 C 0.07977 0.93732 0.69769
 C808 C 0.09381 0.94093 0.71786
 C809 C 0.09622 0.92190 0.73373
 C810 C 0.08542 0.89973 0.72894
 H811 H 0.05453 0.81464 0.71453
 H812 H 0.03368 0.85271 0.65188
 H813 H 0.07706 0.95165 0.68521
 H814 H 0.10703 0.92394 0.74945
 H815 H 0.07018 0.85199 0.73134
 H816 H 0.08815 0.88532 0.74122
 C817 C 0.92021 0.62142 0.68649
 C818 C 0.92187 0.64173 0.70139
 C819 C 0.93618 0.66112 0.69471
 C820 C 0.94897 0.66031 0.67341
 C821 C 0.94679 0.63976 0.65908
 N822 N 0.93275 0.62123 0.66589
 C823 C 0.90568 0.59988 0.69208
 N824 N 0.90705 0.58074 0.67706
 C825 C 0.89465 0.56012 0.68046
 C826 C 0.87968 0.55771 0.70011
 C827 C 0.87783 0.57716 0.71587
 C828 C 0.89069 0.59827 0.71192
 H829 H 0.93749 0.67659 0.70635
 H830 H 0.95596 0.63851 0.64227
 H831 H 0.89689 0.54549 0.66802
 H832 H 0.86626 0.57614 0.73112
 H833 H 0.91254 0.64287 0.71806
 H834 H 0.88863 0.61291 0.72431
 C835 C 0.41721 0.12780 0.19637
 C836 C 0.41900 0.14828 0.21102
 C837 C 0.43249 0.16798 0.20351
 C838 C 0.44435 0.16728 0.18165
 C839 C 0.44203 0.14654 0.16761
 N840 N 0.42880 0.12773 0.17521
 C841 C 0.40358 0.10590 0.20283
 N842 N 0.40536 0.08644 0.18830
 C843 C 0.39375 0.06551 0.19245
 C844 C 0.37918 0.06310 0.21242
 C845 C 0.37691 0.08289 0.22769
 C846 C 0.38897 0.10432 0.22296
 H847 H 0.43394 0.18359 0.21495
 H848 H 0.45045 0.14535 0.15040
 H849 H 0.39630 0.05064 0.18036
 H850 H 0.36562 0.08187 0.24316
 H851 H 0.41046 0.14928 0.22812
 H852 H 0.38657 0.11924 0.23494
 C853 C 0.31122 0.40436 -0.12914
 C854 C 0.32943 0.39453 -0.14272
 C855 C 0.33838 0.40702 -0.16213
 C856 C 0.32947 0.42939 -0.16815
 C857 C 0.31073 0.43825 -0.15473
 N858 N 0.30241 0.42584 -0.13568
 C859 C 0.30274 0.39315 -0.10677
 N860 N 0.29082 0.40681 -0.09082
 C861 C 0.28408 0.39851 -0.06914
 C862 C 0.28983 0.37532 -0.06219
 C863 C 0.30136 0.36064 -0.07857
 C864 C 0.30761 0.36933 -0.10091
 H865 H 0.35268 0.39940 -0.17217
 H866 H 0.30343 0.45549 -0.15870
 H867 H 0.27508 0.41035 -0.05700
 H868 H 0.30561 0.34244 -0.07403
 H869 H 0.33755 0.37792 -0.13808
 H870 H 0.31623 0.35741 -0.11316
 C871 C 0.82782 0.92596 0.37738
 C872 C 0.85139 0.92707 0.37019
 C873 C 0.85720 0.93668 0.34818
 C874 C 0.83968 0.94513 0.33310
 C875 C 0.81629 0.94373 0.34087
 N876 N 0.81099 0.93412 0.36245
 C877 C 0.82099 0.91535 0.40046
 N878 N 0.79969 0.90421 0.40271
 C879 C 0.79289 0.89316 0.42314
 C880 C 0.80804 0.89275 0.44281
 C881 C 0.82975 0.90479 0.44105
 C882 C 0.83624 0.91612 0.42004
 H883 H 0.87548 0.93762 0.34301
 H884 H 0.80226 0.94991 0.32967
 H885 H 0.77595 0.88417 0.42377
 H886 H 0.84168 0.90556 0.45601
 H887 H 0.86524 0.92017 0.38118
 H888 H 0.85296 0.92552 0.41929
 C889 C 0.80584 0.07430 1.13238
 C890 C 0.81255 0.08567 1.15368
 C891 C 0.82085 0.07208 1.17252
 C892 C 0.82281 0.04703 1.17028
 C893 C 0.81449 0.03642 1.14898
 N894 N 0.80650 0.05008 1.13098
 C895 C 0.79881 0.08767 1.11101
 N896 N 0.78552 0.07620 1.09423
 C897 C 0.77983 0.08653 1.07327
 C898 C 0.78816 0.10961 1.06791
 C899 C 0.80177 0.12186 1.08498
 C900 C 0.80709 0.11102 1.10655
 H901 H 0.82704 0.08161 1.18815
 H902 H 0.81403 0.01724 1.14649
 H903 H 0.76947 0.07637 1.06050
 H904 H 0.80844 0.13975 1.08156
 H905 H 0.81170 0.10487 1.15577
 H906 H 0.81826 0.12054 1.11907
 C907 C 0.31977 0.56441 0.63312
 C908 C 0.30422 0.55969 0.65206
 C909 C 0.31189 0.54661 0.67160
 C910 C 0.33484 0.53803 0.67225
 C911 C 0.34979 0.54328 0.65309
 N912 N 0.34199 0.55604 0.63437
 C913 C 0.31310 0.57764 0.61142
 N914 N 0.32830 0.57761 0.59271
 C915 C 0.32399 0.58917 0.57208
 C916 C 0.30319 0.60181 0.56922
 C917 C 0.28722 0.60223 0.58823
 C918 C 0.29211 0.59028 0.60935
 H919 H 0.29975 0.54278 0.68595
 H920 H 0.36777 0.53742 0.65302
 H921 H 0.33669 0.58813 0.55781
 H922 H 0.27112 0.61210 0.58691
 H923 H 0.28627 0.56550 0.65186
 H924 H 0.27963 0.59136 0.62376
 C925 C 0.19501 0.55863 0.38852
 C926 C 0.17232 0.54894 0.38544
 C927 C 0.16536 0.54048 0.36321
 C928 C 0.18068 0.54182 0.34373
 C929 C 0.20340 0.55108 0.34752
 N930 N 0.20982 0.55939 0.36946
 C931 C 0.20252 0.56959 0.41148
 N932 N 0.22057 0.58590 0.41167
 C933 C 0.22717 0.59801 0.43173
 C934 C 0.21491 0.59437 0.45307
 C935 C 0.19688 0.57709 0.45352
 C936 C 0.19084 0.56447 0.43294
 H937 H 0.14775 0.53319 0.36116
 H938 H 0.21572 0.55249 0.33294
 H939 H 0.24134 0.61109 0.43081
 H940 H 0.18742 0.57342 0.46984
 H941 H 0.15957 0.54856 0.39966
 H942 H 0.17710 0.55100 0.43406
 C943 C 0.68065 0.06928 0.88204
 C944 C 0.65706 0.06623 0.87576
 C945 C 0.65118 0.05692 0.85355
 C946 C 0.66866 0.05061 0.83696
 C947 C 0.69224 0.05418 0.84408
 N948 N 0.69749 0.06345 0.86595
 C949 C 0.68742 0.07936 0.90551
 N950 N 0.70775 0.09234 0.90772
 C951 C 0.71417 0.10317 0.92854
 C952 C 0.69956 0.10148 0.94862
 C953 C 0.67902 0.08746 0.94691
 C954 C 0.67296 0.07632 0.92554
 H955 H 0.63274 0.05389 0.85006
 H956 H 0.70661 0.05048 0.83215
 H957 H 0.73024 0.11372 0.92916
 H958 H 0.66760 0.08513 0.96216
 H959 H 0.64308 0.07120 0.88775
 H960 H 0.65713 0.06542 0.92481
 C961 C 0.70603 0.93808 0.62331
 C962 C 0.69742 0.96142 0.62403
 C963 C 0.69101 0.97151 0.64576
 C964 C 0.69325 0.95851 0.66687
 C965 C 0.70307 0.93568 0.66550
 N966 N 0.70905 0.92614 0.64406
 C967 C 0.71084 0.92579 0.60048
 N968 N 0.72751 0.90866 0.59951
 C969 C 0.73203 0.89609 0.57925
 C970 C 0.71900 0.90011 0.55855
 C971 C 0.70168 0.91757 0.55923
 C972 C 0.69758 0.93045 0.58007
 H973 H 0.68338 0.98909 0.64590
 H974 H 0.70547 0.92522 0.68139
 H975 H 0.74542 0.88261 0.57945
 H976 H 0.69133 0.92128 0.54359
 H977 H 0.69530 0.97170 0.60798
 H978 H 0.68372 0.94340 0.58029
 C979 C 0.18722 0.43008 0.12260
 C980 C 0.16476 0.43914 0.12672
 C981 C 0.16019 0.45149 0.14767
 C982 C 0.17772 0.45469 0.16488
 C983 C 0.19963 0.44439 0.16076
 N984 N 0.20384 0.43261 0.13990
 C985 C 0.19294 0.41777 0.09993
 N986 N 0.21045 0.40151 0.09926
 C987 C 0.21589 0.38914 0.07908
 C988 C 0.20313 0.39268 0.05810
 C989 C 0.18559 0.40988 0.05824
 C990 C 0.18058 0.42254 0.07894
 H991 H 0.14281 0.45851 0.15051
 H992 H 0.21351 0.44627 0.17378
 H993 H 0.22970 0.37613 0.07959
 H994 H 0.17582 0.41364 0.04224
 H995 H 0.15066 0.43659 0.11407
 H996 H 0.16727 0.43605 0.07828
 C997 C -0.12052 0.30821 0.41509
 C998 C -0.13358 0.29361 0.43064
 C999 C -0.15457 0.30196 0.44024
 C1000 C -0.16259 0.32480 0.43441
 C1001 C -0.14890 0.33875 0.41881
 N1002 N -0.12866 0.33019 0.40965
 C1003 C -0.09823 0.30063 0.40411
 N1004 N -0.09145 0.31091 0.38329
 C1005 C -0.07072 0.30602 0.37257
 C1006 C -0.05501 0.29019 0.38306
 C1007 C -0.06173 0.27918 0.40446
 C1008 C -0.08330 0.28430 0.41500
 H1009 H -0.16469 0.29042 0.45189
 H1010 H -0.15400 0.35664 0.41414
 H1011 H -0.06655 0.31461 0.35588
 H1012 H -0.05004 0.26720 0.41344
 H1013 H -0.12798 0.27579 0.43500
 H1014 H -0.08773 0.27622 0.43187
 C1015 C 0.37803 0.80445 0.91926
 C1016 C 0.36825 0.79319 0.93934
 C1017 C 0.34856 0.80290 0.95035
 C1018 C 0.33847 0.82368 0.94139
 C1019 C 0.34817 0.83374 0.92072
 N1020 N 0.36741 0.82411 0.91047
 C1021 C 0.39991 0.79642 0.90758
 N1022 N 0.40552 0.80558 0.88590
 C1023 C 0.42605 0.80087 0.87468
 C1024 C 0.44272 0.78637 0.88550
 C1025 C 0.43717 0.77628 0.90761
 C1026 C 0.41588 0.78127 0.91874
 H1027 H 0.34165 0.79453 0.96624
 H1028 H 0.34061 0.84940 0.91281
 H1029 H 0.42948 0.80877 0.85749
 H1030 H 0.44970 0.76532 0.91677
 H1031 H 0.37560 0.77719 0.94669
 H1032 H 0.41265 0.77405 0.93621
 C1033 C 1.13184 0.80478 0.05606
 C1034 C 1.15163 0.79012 0.05466
 C1035 C 1.17186 0.79848 0.04306
 C1036 C 1.17238 0.82122 0.03266
 C1037 C 1.15222 0.83514 0.03436
 N1038 N 1.13288 0.82671 0.04580
 C1039 C 1.10972 0.79773 0.06827
 N1040 N 1.09079 0.81189 0.06528
 C1041 C 1.07001 0.80777 0.07640
 C1042 C 1.06730 0.78841 0.09191
 C1043 C 1.08638 0.77326 0.09508
 C1044 C 1.10764 0.77787 0.08339
 H1045 H 1.18697 0.78708 0.04196
 H1046 H 1.15192 0.85296 0.02702
 H1047 H 1.05564 0.81968 0.07313
 H1048 H 1.08506 0.75827 0.10710
 H1049 H 1.15165 0.77240 0.06213
 H1050 H 1.12219 0.76630 0.08678
 C1051 C 0.62816 0.31373 0.55564
 C1052 C 0.63241 0.33783 0.55000
 C1053 C 0.65216 0.34419 0.53686
 C1054 C 0.66805 0.32679 0.52955
 C1055 C 0.66391 0.30304 0.53647
 N1056 N 0.64422 0.29714 0.54906
 C1057 C 0.60667 0.30617 0.56867
 N1058 N 0.60653 0.28550 0.58136
 C1059 C 0.58749 0.27806 0.59417
 C1060 C 0.56722 0.29194 0.59487
 C1061 C 0.56678 0.31284 0.58135
 C1062 C 0.58628 0.31989 0.56813
 H1063 H 0.65512 0.36283 0.53249
 H1064 H 0.67594 0.28917 0.53136
 H1065 H 0.58838 0.26170 0.60424
 H1066 H 0.55122 0.32366 0.58087
 H1067 H 0.62083 0.35182 0.55578
 H1068 H 0.58511 0.33582 0.55746
 C1069 C 0.37733 0.19436 0.57165
 C1070 C 0.37011 0.20080 0.54868
 C1071 C 0.34779 0.19393 0.54067
 C1072 C 0.33268 0.18056 0.55535
 C1073 C 0.34026 0.17519 0.57839
 N1074 N 0.36207 0.18194 0.58574
 C1075 C 0.40142 0.19908 0.58073
 N1076 N 0.40858 0.18679 0.60015
 C1077 C 0.43050 0.18927 0.60937
 C1078 C 0.44693 0.20491 0.59889
 C1079 C 0.43986 0.21809 0.57908
 C1080 C 0.41719 0.21532 0.57000
 H1081 H 0.34276 0.19811 0.52264
 H1082 H 0.32905 0.16517 0.59040
 H1083 H 0.43497 0.17912 0.62497
 H1084 H 0.45198 0.23031 0.57037
 H1085 H 0.38168 0.21013 0.53654
 H1086 H 0.41228 0.22593 0.55489
 C1087 C 0.87684 0.68777 0.07466
 C1088 C 0.85811 0.67759 0.08762
 C1089 C 0.83765 0.67049 0.07584
 C1090 C 0.83546 0.67392 0.05130
 C1091 C 0.85390 0.68542 0.03920
 N1092 N 0.87394 0.69172 0.05096
 C1093 C 0.89991 0.69353 0.08573
 N1094 N 0.91545 0.70788 0.07385
 C1095 C 0.93734 0.71300 0.08228
 C1096 C 0.94490 0.70315 0.10378
 C1097 C 0.92913 0.68847 0.11638
 C1098 C 0.90680 0.68352 0.10743
 H1099 H 0.82356 0.66212 0.08587
 H1100 H 0.85280 0.68845 0.02025
 H1101 H 0.94900 0.72423 0.07185
 H1102 H 0.93408 0.68070 0.13318
 H1103 H 0.85905 0.67492 0.10659
 H1104 H 0.89553 0.67144 0.11729
 C1105 C 0.62775 0.69797 0.93573
 C1106 C 0.62801 0.68888 0.95891
 C1107 C 0.64931 0.68349 0.96951
 C1108 C 0.67047 0.68724 0.95721
 C1109 C 0.66952 0.69757 0.93453
 N1110 N 0.64848 0.70251 0.92446
 C1111 C 0.60547 0.70151 0.92290
 N1112 N 0.60421 0.71873 0.90597
 C1113 C 0.58444 0.72213 0.89296
 C1114 C 0.56462 0.70729 0.89632
 C1115 C 0.56562 0.68941 0.91359
 C1116 C 0.58591 0.68647 0.92689
 H1117 H 0.64909 0.67538 0.98692
 H1118 H 0.68542 0.70116 0.92459
 H1119 H 0.58438 0.73602 0.87967
 H1120 H 0.55065 0.67769 0.91681
 H1121 H 0.61193 0.68559 0.96866
 H1122 H 0.58642 0.67212 0.93967
 C1123 C 0.12033 0.18841 0.43947
 C1124 C 0.12209 0.16633 0.45100
 C1125 C 0.14210 0.16131 0.46399
 C1126 C 0.16069 0.17796 0.46539
 C1127 C 0.15872 0.19953 0.45301
 N1128 N 0.13881 0.20420 0.44059
 C1129 C 0.09915 0.19450 0.42556
 N1130 N 0.10066 0.21169 0.40853
 C1131 C 0.08210 0.21732 0.39452
 C1132 C 0.06063 0.20498 0.39702
 C1133 C 0.05847 0.18781 0.41489
 C1134 C 0.07749 0.18273 0.42933
 H1135 H 0.14322 0.14412 0.47261
 H1136 H 0.17280 0.21273 0.45347
 H1137 H 0.08431 0.23085 0.38102
 H1138 H 0.04197 0.17836 0.41773
 H1139 H 0.10852 0.15267 0.44975
 H1140 H 0.07498 0.16977 0.44329
 C1141 C 0.55212 0.10982 0.66864
 C1142 C 0.54763 0.08558 0.66322
 C1143 C 0.55989 0.06792 0.67520
 C1144 C 0.57654 0.07426 0.69259
 C1145 C 0.58021 0.09863 0.69770
 N1146 N 0.56810 0.11546 0.68583
 C1147 C 0.53983 0.12964 0.65685
 N1148 N 0.54084 0.15169 0.66726
 C1149 C 0.53037 0.17101 0.65776
 C1150 C 0.51785 0.16886 0.63637
 C1151 C 0.51666 0.14638 0.62516
 C1152 C 0.52767 0.12677 0.63524
 H1153 H 0.55654 0.04934 0.67065
 H1154 H 0.59250 0.10436 0.71132
 H1155 H 0.53151 0.18793 0.66717
 H1156 H 0.50751 0.14404 0.60843
 H1157 H 0.53469 0.08010 0.65019
 H1158 H 0.52690 0.10984 0.62589
 C1159 C 1.05074 0.61859 0.18419
 C1160 C 1.04256 0.59483 0.18405
 C1161 C 1.05528 0.57746 0.19581
 C1162 C 1.07596 0.58369 0.20813
 C1163 C 1.08330 0.60786 0.20803
 N1164 N 1.07083 0.62437 0.19604
 C1165 C 1.03825 0.63733 0.17131
 N1166 N 1.05076 0.65424 0.15923
 C1167 C 1.04024 0.67193 0.14693
 C1168 C 1.01565 0.67355 0.14664
 C1169 C 1.00255 0.65641 0.15942
 C1170 C 1.01374 0.63821 0.17154
 H1171 H 1.04914 0.55908 0.19470
 H1172 H 1.09882 0.61376 0.21755
 H1173 H 1.05116 0.68447 0.13719
 H1174 H 0.98364 0.65723 0.16049
 H1175 H 1.02687 0.58963 0.17436
 H1176 H 1.00335 0.62531 0.18143
 C1177 C 0.96535 0.88035 0.17193
 C1178 C 0.97373 0.90407 0.17144
 C1179 C 0.96074 0.92202 0.18233
 C1180 C 0.93952 0.91642 0.19394
 C1181 C 0.93194 0.89236 0.19412
 N1182 N 0.94474 0.87527 0.18312
 C1183 C 0.97799 0.86075 0.16018
 N1184 N 0.96545 0.84227 0.15041
 C1185 C 0.97586 0.82338 0.13967
 C1186 C 1.00043 0.82210 0.13865
 C1187 C 1.01367 0.84096 0.14886
 C1188 C 1.00255 0.86033 0.15948
 H1189 H 0.96710 0.94032 0.18122
 H1190 H 0.91599 0.88699 0.20318
 H1191 H 0.96486 0.80953 0.13178
 H1192 H 1.03263 0.84055 0.14913
 H1193 H 0.98980 0.90880 0.16222
 H1194 H 1.01306 0.87444 0.16762
 C1195 C 0.46865 0.37190 0.68842
 C1196 C 0.47763 0.38357 0.70875
 C1197 C 0.46471 0.40159 0.71965
 C1198 C 0.44284 0.40796 0.71048
 C1199 C 0.43447 0.39575 0.69022
 N1200 N 0.44735 0.37829 0.67993
 C1201 C 0.48130 0.35258 0.67600
 N1202 N 0.46881 0.33698 0.66205
 C1203 C 0.47908 0.31911 0.64954
 C1204 C 0.50345 0.31633 0.65038
 C1205 C 0.51672 0.33223 0.66458
 C1206 C 0.50576 0.35035 0.67739
 H1207 H 0.47163 0.41020 0.73552
 H1208 H 0.41784 0.40023 0.68234
 H1209 H 0.46823 0.30746 0.63855
 H1210 H 0.53557 0.33065 0.66578
 H1211 H 0.49414 0.37861 0.71655
 H1212 H 0.51647 0.36270 0.68772
 C1213 C 0.46183 0.60789 0.82306
 C1214 C 0.45772 0.58659 0.83565
 C1215 C 0.44560 0.56764 0.82476
 C1216 C 0.43723 0.56973 0.80143
 C1217 C 0.44161 0.59128 0.78946
 N1218 N 0.45355 0.60950 0.80042
 C1219 C 0.47448 0.62891 0.83356
 N1220 N 0.47434 0.64999 0.82158
 C1221 C 0.48539 0.67013 0.82983
 C1222 C 0.49766 0.66984 0.85145
 C1223 C 0.49811 0.64831 0.86407
 C1224 C 0.48674 0.62788 0.85520
 H1225 H 0.44290 0.55127 0.83460
 H1226 H 0.43522 0.59386 0.77158
 H1227 H 0.48485 0.68622 0.81931
 H1228 H 0.50710 0.64727 0.88096
 H1229 H 0.46340 0.58432 0.85377
 H1230 H 0.48792 0.61163 0.86531
 C1231 C -0.03745 0.11108 0.31312
 C1232 C -0.03393 0.08743 0.32038
 C1233 C -0.04588 0.06871 0.30891
 C1234 C -0.06116 0.07334 0.29005
 C1235 C -0.06364 0.09713 0.28282
 N1236 N -0.05195 0.11512 0.29441
 C1237 C -0.02571 0.13175 0.32506
 N1238 N -0.02345 0.15279 0.31316
 C1239 C -0.01289 0.17251 0.32294
 C1240 C -0.00375 0.17173 0.34608
 C1241 C -0.00631 0.15039 0.35883
 C1242 C -0.01732 0.13047 0.34849
 H1243 H -0.04302 0.05057 0.31468
 H1244 H -0.07530 0.10150 0.26839
 H1245 H -0.01125 0.18860 0.31248
 H1246 H -0.00006 0.14920 0.37695
 H1247 H -0.02192 0.08321 0.33452
 H1248 H -0.01951 0.11450 0.35901
 C1249 C 0.05191 0.37952 0.30535
 C1250 C 0.04299 0.39299 0.28649
 C1251 C 0.05603 0.41235 0.27770
 C1252 C 0.07803 0.41830 0.28742
 C1253 C 0.08657 0.40401 0.30580
 N1254 N 0.07350 0.38534 0.31416
 C1255 C 0.03873 0.35919 0.31610
 N1256 N 0.05052 0.34356 0.32995
 C1257 C 0.03970 0.32486 0.34103
 C1258 C 0.01541 0.32114 0.33871
 C1259 C 0.00289 0.33702 0.32452
 C1260 C 0.01438 0.35604 0.31331
 H1261 H 0.04868 0.42289 0.26357
 H1262 H 0.10366 0.40756 0.31349
 H1263 H 0.05001 0.31325 0.35202
 H1264 H -0.01583 0.33471 0.32202
 H1265 H 0.02627 0.38874 0.27836
 H1266 H 0.00405 0.36826 0.30308
 C1267 C 0.55007 0.88227 0.81608
 C1268 C 0.55251 0.90471 0.82734
 C1269 C 0.56482 0.92313 0.81604
 C1270 C 0.57507 0.91941 0.79366
 C1271 C 0.57226 0.89677 0.78297
 N1272 N 0.56010 0.87908 0.79430
 C1273 C 0.53737 0.86176 0.82718
 N1274 N 0.53958 0.83960 0.81730
 C1275 C 0.52852 0.81988 0.82622
 C1276 C 0.51403 0.82176 0.84633
 C1277 C 0.51153 0.84440 0.85684
 C1278 C 0.52294 0.86437 0.84730
 H1279 H 0.56625 0.94035 0.82488
 H1280 H 0.58013 0.89294 0.76588
 H1281 H 0.53073 0.80285 0.81732
 H1282 H 0.50079 0.84672 0.87255
 H1283 H 0.54545 0.90823 0.84480
 H1284 H 0.52004 0.88150 0.85565
 C1285 C 0.66862 0.55967 0.11686
 C1286 C 0.67280 0.58439 0.11703
 C1287 C 0.68555 0.59495 0.09865
 C1288 C 0.69476 0.58116 0.07966
 C1289 C 0.68995 0.55620 0.08048
 N1290 N 0.67749 0.54644 0.09872
 C1291 C 0.65574 0.54736 0.13631
 N1292 N 0.65882 0.52349 0.13934
 C1293 C 0.64825 0.51105 0.15718
 C1294 C 0.63369 0.52274 0.17352
 C1295 C 0.62980 0.54719 0.17042
 C1296 C 0.64060 0.55951 0.15182
 H1297 H 0.68709 0.61419 0.09933
 H1298 H 0.69690 0.54392 0.06752
 H1299 H 0.65175 0.49220 0.15897
 H1300 H 0.61827 0.55675 0.18234
 H1301 H 0.66663 0.59570 0.13131
 H1302 H 0.63686 0.57824 0.14967
 C1303 C 0.17811 1.04417 0.62838
 C1304 C 0.19672 1.03419 0.61547
 C1305 C 0.20767 1.04746 0.59756
 C1306 C 0.20036 1.07070 0.59259
 C1307 C 0.18187 1.08008 0.60602
 N1308 N 0.17142 1.06680 0.62329
 C1309 C 0.16579 1.03129 0.64780
 N1310 N 0.15275 1.04417 0.66346
 C1311 C 0.14087 1.03390 0.68180
 C1312 C 0.14160 1.00911 0.68522
 C1313 C 0.15469 0.99541 0.66913
 C1314 C 0.16670 1.00636 0.65041
 H1315 H 0.22216 1.03972 0.58791
 H1316 H 0.17551 1.09784 0.60263
 H1317 H 0.13070 1.04512 0.69353
 H1318 H 0.15588 0.97624 0.67118
 H1319 H 0.20321 1.01661 0.61929
 H1320 H 0.17624 0.99523 0.63811
 C1321 C 0.18703 0.96517 0.88525
 C1322 C 0.18765 0.97247 0.90909
 C1323 C 0.20084 0.95973 0.92542
 C1324 C 0.21353 0.93929 0.91837
 C1325 C 0.21283 0.93332 0.89383
 N1326 N 0.19995 0.94618 0.87837
 C1327 C 0.17293 0.97750 0.86718
 N1328 N 0.17955 0.97596 0.84398
 C1329 C 0.16719 0.98612 0.82620
 C1330 C 0.14658 0.99858 0.83125
 C1331 C 0.13935 1.00030 0.85507
 C1332 C 0.15243 0.98982 0.87305
 H1333 H 0.19962 0.96547 0.94374
 H1334 H 0.22309 0.91907 0.88638
 H1335 H 0.17366 0.98462 0.80817
 H1336 H 0.12333 1.00931 0.85977
 H1337 H 0.17808 0.98788 0.91521
 H1338 H 0.14614 0.99083 0.89117
 C1339 C 0.68088 0.46827 0.37318
 C1340 C 0.70218 0.47654 0.38306
 C1341 C 0.71395 0.46234 0.39933
 C1342 C 0.70470 0.43988 0.40570
 C1343 C 0.68339 0.43231 0.39542
 N1344 N 0.67227 0.44643 0.37963
 C1345 C 0.66781 0.48200 0.35527
 N1346 N 0.65227 0.47003 0.34098
 C1347 C 0.63972 0.48110 0.32389
 C1348 C 0.64239 0.50581 0.32041
 C1349 C 0.65798 0.51862 0.33523
 C1350 C 0.67066 0.50685 0.35267
 H1351 H 0.73055 0.46869 0.40650
 H1352 H 0.67543 0.41527 0.40005
 H1353 H 0.62760 0.47059 0.31315
 H1354 H 0.66065 0.53769 0.33308
 H1355 H 0.71010 0.49343 0.37794
 H1356 H 0.68230 0.51724 0.36402
 C1357 C 0.80472 0.44988 0.60823
 C1358 C 0.78557 0.43373 0.60935
 C1359 C 0.77732 0.42274 0.58857
 C1360 C 0.78813 0.42750 0.56666
 C1361 C 0.80739 0.44344 0.56631
 N1362 N 0.81503 0.45406 0.58676
 C1363 C 0.81446 0.46226 0.62959
 N1364 N 0.83585 0.47332 0.62784
 C1365 C 0.84602 0.48529 0.64635
 C1366 C 0.83455 0.48667 0.66839
 C1367 C 0.81247 0.47551 0.67065
 C1368 C 0.80231 0.46343 0.65135
 H1369 H 0.76274 0.41014 0.58972
 H1370 H 0.81619 0.44770 0.54978
 H1371 H 0.86316 0.49351 0.64387
 H1372 H 0.80284 0.47654 0.68722
 H1373 H 0.77718 0.42913 0.62595
 H1374 H 0.78500 0.45565 0.65359
 C1375 C 0.30709 -0.04936 0.12380
 C1376 C 0.28491 -0.06078 0.12350
 C1377 C 0.27720 -0.07255 0.10290
 C1378 C 0.29135 -0.07296 0.08247
 C1379 C 0.31328 -0.06124 0.08344
 N1380 N 0.32042 -0.04994 0.10370
 C1381 C 0.31658 -0.03631 0.14491
 N1382 N 0.33692 -0.02346 0.14234
 C1383 C 0.34694 -0.01080 0.16048
 C1384 C 0.33641 -0.01050 0.18304
 C1385 C 0.31557 -0.02379 0.18625
 C1386 C 0.30565 -0.03673 0.16736
 H1387 H 0.26025 -0.08156 0.10308
 H1388 H 0.32465 -0.06073 0.06803
 H1389 H 0.36324 -0.00118 0.15726
 H1390 H 0.30671 -0.02391 0.20328
 H1391 H 0.27335 -0.06068 0.13870
 H1392 H 0.28972 -0.04686 0.17066
 C1393 C 0.29678 0.05108 0.38739
 C1394 C 0.27621 0.06443 0.38536
 C1395 C 0.26732 0.07620 0.40533
 C1396 C 0.27889 0.07492 0.42727
 C1397 C 0.29923 0.06127 0.42859
 N1398 N 0.30752 0.04997 0.40895
 C1399 C 0.30792 0.03876 0.36693
 N1400 N 0.33007 0.03057 0.36981
 C1401 C 0.34182 0.01905 0.35227
 C1402 C 0.33129 0.01512 0.33003
 C1403 C 0.30847 0.02336 0.32654
 C1404 C 0.29668 0.03506 0.34492
 H1405 H 0.25177 0.08686 0.40347
 H1406 H 0.30856 0.05956 0.44521
 H1407 H 0.35950 0.01325 0.35565
 H1408 H 0.29960 0.02036 0.30975
 H1409 H 0.26725 0.06640 0.36861
 H1410 H 0.27894 0.04067 0.34180
 C1411 C 0.79982 0.54439 0.87582
 C1412 C 0.77962 0.55840 0.87441
 C1413 C 0.77135 0.56998 0.89474
 C1414 C 0.78313 0.56790 0.91647
 C1415 C 0.80317 0.55375 0.91718
 N1416 N 0.81086 0.54257 0.89718
 C1417 C 0.81010 0.53200 0.85489
 N1418 N 0.83168 0.52224 0.85725
 C1419 C 0.84257 0.51062 0.83916
 C1420 C 0.83171 0.50830 0.81688
 C1421 C 0.80945 0.51811 0.81396
 C1422 C 0.79853 0.52981 0.83287
 H1423 H 0.75608 0.58112 0.89330
 H1424 H 0.81271 0.55153 0.93361
 H1425 H 0.85982 0.50348 0.84213
 H1426 H 0.80031 0.51633 0.79717
 H1427 H 0.77042 0.56102 0.85791
 H1428 H 0.78119 0.53665 0.83004
 C1429 C 0.12950 0.68130 0.55386
 C1430 C 0.13255 0.69833 0.57212
 C1431 C 0.11295 0.70828 0.58294
 C1432 C 0.09029 0.70137 0.57569
 C1433 C 0.08798 0.68438 0.55732
 N1434 N 0.10735 0.67480 0.54715
 C1435 C 0.14964 0.66959 0.54225
 N1436 N 0.14634 0.64759 0.53217
 C1437 C 0.16394 0.63565 0.52123
 C1438 C 0.18656 0.64589 0.51987
 C1439 C 0.19029 0.66867 0.52994
 C1440 C 0.17195 0.68057 0.54107
 H1441 H 0.11552 0.72141 0.59697
 H1442 H 0.07082 0.67832 0.55141
 H1443 H 0.16027 0.61806 0.51388
 H1444 H 0.20728 0.67752 0.52878
 H1445 H 0.14979 0.70356 0.57848
 H1446 H 0.17519 0.69834 0.54815
 C1447 C 0.61726 0.18803 1.05262
 C1448 C 0.62100 0.20537 1.07047
 C1449 C 0.60182 0.21551 1.08188
 C1450 C 0.57890 0.20842 1.07571
 C1451 C 0.57590 0.19113 1.05770
 N1452 N 0.59486 0.18141 1.04691
 C1453 C 0.63691 0.17602 1.04044
 N1454 N 0.63289 0.15424 1.03011
 C1455 C 0.65000 0.14197 1.01874
 C1456 C 0.67285 0.15159 1.01726
 C1457 C 0.67733 0.17414 1.02753
 C1458 C 0.65947 0.18642 1.03902
 H1459 H 0.60494 0.22889 1.09557
 H1460 H 0.55854 0.18492 1.05262
 H1461 H 0.64579 0.12459 1.01116
 H1462 H 0.69456 0.18248 1.02627
 H1463 H 0.63843 0.21073 1.07610
 H1464 H 0.66333 0.20402 1.04623
 C1465 C 0.87172 0.19227 0.96017
 C1466 C 0.87038 0.21596 0.95253
 C1467 C 0.88908 0.22631 0.94016
 C1468 C 0.90973 0.21344 0.93528
 C1469 C 0.91050 0.18990 0.94439
 N1470 N 0.89180 0.18018 0.95609
 C1471 C 0.85208 0.17994 0.97266
 N1472 N 0.85653 0.15964 0.98495
 C1473 C 0.83947 0.14713 0.99664
 C1474 C 0.81618 0.15487 0.99628
 C1475 C 0.81116 0.17562 0.98354
 C1476 C 0.82893 0.18809 0.97164
 H1477 H 0.88737 0.24492 0.93558
 H1478 H 0.92514 0.17836 0.94116
 H1479 H 0.84409 0.13102 1.00592
 H1480 H 0.79350 0.18239 0.98294
 H1481 H 0.85532 0.22679 0.95636
 H1482 H 0.82428 0.20365 0.96155
 C1483 C 0.38572 0.69305 0.46809
 C1484 C 0.38639 0.71813 0.46727
 C1485 C 0.40479 0.72981 0.45553
 C1486 C 0.42262 0.71665 0.44458
 C1487 C 0.42161 0.69161 0.44640
 N1488 N 0.40347 0.68063 0.45791
 C1489 C 0.36631 0.67970 0.47974
 N1490 N 0.37042 0.65756 0.48856
 C1491 C 0.35337 0.64414 0.49924
 C1492 C 0.33048 0.65275 0.50123
 C1493 C 0.32578 0.67537 0.49197
 C1494 C 0.34359 0.68888 0.48125
 H1495 H 0.40513 0.74916 0.45512
 H1496 H 0.43484 0.68069 0.43812
 H1497 H 0.35765 0.62665 0.50590
 H1498 H 0.30838 0.68272 0.49325
 H1499 H 0.37305 0.72871 0.47581
 H1500 H 0.33941 0.70610 0.47388
 C1501 C 0.62807 0.82299 0.45232
 C1502 C 0.62886 0.81480 0.42868
 C1503 C 0.60868 0.80505 0.41820
 C1504 C 0.58767 0.80331 0.43116
 C1505 C 0.58776 0.81121 0.45491
 N1506 N 0.60764 0.82070 0.46473
 C1507 C 0.64886 0.83371 0.46431
 N1508 N 0.65002 0.83312 0.48847
 C1509 C 0.66841 0.84274 0.50079
 C1510 C 0.68714 0.85393 0.48875
 C1511 C 0.68617 0.85498 0.46385
 C1512 C 0.66711 0.84498 0.45159
 H1513 H 0.60960 0.79862 0.40003
 H1514 H 0.57195 0.81034 0.46555
 H1515 H 0.66850 0.84132 0.51997
 H1516 H 0.69995 0.86392 0.45386
 H1517 H 0.64490 0.81547 0.41841
 H1518 H 0.66655 0.84659 0.43246
 C1519 C 0.11336 0.31715 -0.05029
 C1520 C 0.11486 0.30913 -0.07395
 C1521 C 0.09501 0.29947 -0.08509
 C1522 C 0.07363 0.29765 -0.07279
 C1523 C 0.07299 0.30541 -0.04900
 N1524 N 0.09257 0.31482 -0.03852
 C1525 C 0.13384 0.32766 -0.03764
 N1526 N 0.13457 0.32655 -0.01349
 C1527 C 0.15280 0.33580 -0.00065
 C1528 C 0.17182 0.34706 -0.01216
 C1529 C 0.17123 0.34874 -0.03703
 C1530 C 0.15233 0.33914 -0.04981
 H1531 H 0.09650 0.29312 -0.10325
 H1532 H 0.05687 0.30444 -0.03887
 H1533 H 0.15258 0.33398 0.01848
 H1534 H 0.18522 0.35781 -0.04660
 H1535 H 0.13120 0.30984 -0.08370
 H1536 H 0.15209 0.34118 -0.06891
 C1537 C 0.37312 0.30231 0.04868
 C1538 C 0.37206 0.27927 0.05851
 C1539 C 0.39161 0.27041 0.07026
 C1540 C 0.41225 0.28431 0.07216
 C1541 C 0.41276 0.30695 0.06156
 N1542 N 0.39352 0.31521 0.05032
 C1543 C 0.35307 0.31321 0.03627
 N1544 N 0.35735 0.33290 0.02274
 C1545 C 0.34016 0.34427 0.01086
 C1546 C 0.31685 0.33597 0.01221
 C1547 C 0.31189 0.31592 0.02632
 C1548 C 0.32988 0.30454 0.03841
 H1549 H 0.39041 0.25289 0.07825
 H1550 H 0.42844 0.31810 0.06217
 H1551 H 0.34474 0.35992 0.00054
 H1552 H 0.29417 0.30884 0.02776
 H1553 H 0.35653 0.26802 0.05716
 H1554 H 0.32540 0.28939 0.04941
 C1555 C 0.88672 0.80336 0.54491
 C1556 C 0.88494 0.77981 0.55343
 C1557 C 0.90414 0.76970 0.56474
 C1558 C 0.92516 0.78283 0.56750
 C1559 C 0.92642 0.80598 0.55811
 N1560 N 0.90750 0.81548 0.54732
 C1561 C 0.86703 0.81579 0.53331
 N1562 N 0.87172 0.83712 0.52265
 C1563 C 0.85496 0.85003 0.51176
 C1564 C 0.83164 0.84165 0.51112
 C1565 C 0.82623 0.81987 0.52224
 C1566 C 0.84379 0.80692 0.53337
 H1567 H 0.90233 0.75182 0.57183
 H1568 H 0.94241 0.81661 0.55938
 H1569 H 0.85990 0.86695 0.50383
 H1570 H 0.80850 0.81265 0.52205
 H1571 H 0.86909 0.76913 0.55156
 H1572 H 0.83890 0.79038 0.54197
   
