data_POSCAR
  _audit_creation_date              2014-09-24
  _audit_creation_method            'ToBaCCo'
  _symmetry_space_group_name_H-M    'P1'
  _symmetry_Int_Tables_number       1
  _symmetry_cell_setting            triclinic
  loop_
  _symmetry_equiv_pos_as_xyz
 x,y,z
_cell_length_a 59.3534
_cell_length_b 61.5431
_cell_length_c 60.0118
_cell_angle_alpha 90.157100
_cell_angle_beta 90.339600
_cell_angle_gamma 90.162400
loop_
  _atom_site_label
  _atom_site_type_symbol
  _atom_site_fract_x
  _atom_site_fract_y
  _atom_site_fract_z
O1 O 0.35204 0.32686 -0.00997
 O2 O 0.31275 0.34752 0.03171
 O3 O 0.34358 0.31842 0.03087
 O4 O 0.32023 0.35718 -0.00927
 O5 O 0.29643 0.33246 -0.02194
 O6 O 0.31857 0.29388 0.02009
 O7 O 0.28679 0.32436 0.01996
 O8 O 0.32702 0.30241 -0.02113
 Cu9 Cu 0.33465 0.34005 0.01168
 Cu10 Cu 0.30450 0.31089 -0.00174
 C11 C 0.34663 0.31063 -0.02198
 C12 C 0.29300 0.33973 0.03284
 C13 C 0.33532 0.29944 0.03220
 C14 C 0.30425 0.35171 -0.02232
 O15 O 0.65323 0.67728 -0.03174
 O16 O 0.68066 0.64921 0.01441
 O17 O 0.65152 0.67998 0.01133
 O18 O 0.68366 0.64756 -0.02894
 O19 O 0.71097 0.67188 -0.02823
 O20 O 0.67838 0.70486 0.01159
 O21 O 0.70801 0.67361 0.01508
 O22 O 0.67988 0.70238 -0.03152
 Cu23 Cu 0.66465 0.66100 -0.00881
 Cu24 Cu 0.69710 0.69064 -0.00832
 C25 C 0.66154 0.69471 -0.03937
 C26 C 0.69881 0.65655 0.02281
 C27 C 0.65939 0.69800 0.01828
 C28 C 0.70288 0.65404 -0.03546
 O29 O 0.67412 0.35935 0.98680
 O30 O 0.64576 0.32864 1.03060
 O31 O 0.67690 0.35813 1.03003
 O32 O 0.64343 0.33004 0.98729
 O33 O 0.66907 0.30422 0.98506
 O34 O 0.70341 0.33328 1.02745
 O35 O 0.67154 0.30296 1.02854
 O36 O 0.70032 0.33407 0.98428
 Cu37 Cu 0.65747 0.34654 1.00904
 Cu38 Cu 0.68871 0.31600 1.00628
 C39 C 0.69187 0.35197 0.97788
 C40 C 0.65358 0.31052 1.03698
 C41 C 0.69608 0.35090 1.03582
 C42 C 0.65056 0.31254 0.97864
 O43 O 0.35367 0.66945 1.01713
 O44 O 0.32270 0.64272 0.97157
 O45 O 0.35337 0.67245 0.97395
 O46 O 0.32405 0.63899 1.01481
 O47 O 0.29646 0.66278 1.01669
 O48 O 0.32731 0.69783 0.97673
 O49 O 0.29608 0.66759 0.97362
 O50 O 0.32683 0.69407 1.01990
 Cu51 Cu 0.34108 0.65344 0.99410
 Cu52 Cu 0.30895 0.68307 0.99700
 C53 C 0.34558 0.68630 1.02630
 C54 C 0.30413 0.65056 0.96475
 C55 C 0.34562 0.69087 0.96844
 C56 C 0.30524 0.64485 1.02273
 O57 O 0.02160 0.31971 0.35059
 O58 O -0.02117 0.35592 0.32689
 O59 O -0.02150 0.32556 0.35614
 O60 O 0.02177 0.35074 0.32136
 O61 O 0.01473 0.32706 0.29453
 O62 O -0.02821 0.30093 0.33020
 O63 O -0.02831 0.33197 0.30030
 O64 O 0.01471 0.29546 0.32424
 Cu65 Cu 0.00097 0.34032 0.34140
 Cu66 Cu -0.00740 0.31140 0.30963
 C67 C 0.02534 0.30135 0.34168
 C68 C -0.03207 0.35018 0.30958
 C69 C -0.03235 0.30899 0.34929
 C70 C 0.02541 0.34356 0.30187
 O71 O 0.01792 0.67593 0.64561
 O72 O -0.02057 0.64406 0.68027
 O73 O -0.02492 0.67197 0.64902
 O74 O 0.02324 0.64634 0.67684
 O75 O 0.02264 0.67136 0.70321
 O76 O -0.02326 0.69940 0.67267
 O77 O -0.02123 0.67057 0.70512
 O78 O 0.02036 0.70108 0.67189
 Cu79 Cu -0.00085 0.65686 0.66052
 Cu80 Cu -0.00030 0.68818 0.69085
 C81 C 0.02535 0.69406 0.65264
 C82 C -0.02790 0.65203 0.69836
 C83 C -0.03200 0.69036 0.65554
 C84 C 0.03081 0.65401 0.69507
 O85 O 1.01535 0.64912 0.32485
 O86 O 0.97907 0.68621 0.35601
 O87 O 0.97368 0.65816 0.32455
 O88 O 1.02220 0.67669 0.35764
 O89 O 1.02782 0.70374 0.33436
 O90 O 0.98143 0.68266 0.29887
 O91 O 0.98480 0.71185 0.33103
 O92 O 1.02419 0.67544 0.30145
 Cu93 Cu 0.99713 0.66514 0.34348
 Cu94 Cu 1.00529 0.69614 0.31407
 C95 C 1.02540 0.65571 0.30752
 C96 C 0.97525 0.70517 0.34863
 C97 C 0.96984 0.66657 0.30563
 C98 C 1.03308 0.69362 0.35208
 O99 O 0.98586 0.31339 0.64293
 O100 O 1.02345 0.34376 0.68029
 O101 O 1.02823 0.31432 0.65057
 O102 O 0.98007 0.34447 0.67247
 O103 O 0.97638 0.32073 0.69971
 O104 O 1.02214 0.28810 0.67478
 O105 O 1.01970 0.31846 0.70603
 O106 O 0.97883 0.28970 0.66965
 Cu107 Cu 1.00463 0.33163 0.65908
 Cu108 Cu 0.99878 0.30178 0.69025
 C109 C 0.97628 0.29619 0.64973
 C110 C 1.02841 0.33613 0.69931
 C111 C 1.03299 0.29568 0.65825
 C112 C 0.97037 0.33818 0.69012
 O113 O 0.33946 -0.02709 0.35877
 O114 O 0.36041 0.02022 0.32831
 O115 O 0.33315 0.01499 0.36047
 O116 O 0.36682 -0.02067 0.32489
 O117 O 0.33771 -0.02541 0.30225
 O118 O 0.30479 0.01300 0.33661
 O119 O 0.33298 0.01652 0.30352
 O120 O 0.31004 -0.02921 0.33625
 Cu121 Cu 0.35272 -0.00320 0.34565
 Cu122 Cu 0.31843 -0.00673 0.31735
 C123 C 0.32092 -0.03593 0.35317
 C124 C 0.35056 0.02629 0.31058
 C125 C 0.31357 0.02077 0.35429
 C126 C 0.35824 -0.02866 0.30727
 O127 O 0.67966 -0.02038 0.65413
 O128 O 0.64252 0.01750 0.68321
 O129 O 0.67181 0.02130 0.65089
 O130 O 0.65025 -0.02322 0.68528
 O131 O 0.67597 -0.01598 0.71099
 O132 O 0.69970 0.02676 0.67477
 O133 O 0.66987 0.02561 0.70700
 O134 O 0.70636 -0.01473 0.67926
 Cu135 Cu 0.65849 -0.00166 0.66572
 Cu136 Cu 0.69073 0.00610 0.69547
 C137 C 0.69916 -0.02436 0.66185
 C138 C 0.64966 0.02766 0.70028
 C139 C 0.68966 0.03133 0.65663
 C140 C 0.65895 -0.02684 0.70427
 O141 O 0.31301 1.02745 0.65711
 O142 O 0.34976 0.99323 0.69121
 O143 O 0.32196 0.98587 0.65789
 O144 O 0.34141 1.03380 0.68889
 O145 O 0.31520 1.02825 0.71424
 O146 O 0.29327 0.98205 0.68079
 O147 O 0.32167 0.98658 0.71425
 O148 O 0.28566 1.02374 0.68157
 Cu149 Cu 0.33418 1.01034 0.67119
 Cu150 Cu 0.30109 1.00465 0.70009
 C151 C 0.29325 1.03185 0.66367
 C152 C 0.34216 0.98442 0.70872
 C153 C 0.30411 0.97602 0.66365
 C154 C 0.33217 1.03885 0.70718
 O155 O 0.65414 0.97364 0.31604
 O156 O 0.68218 1.02024 0.34186
 O157 O 0.65210 1.01556 0.31095
 O158 O 0.68524 0.97821 0.34586
 O159 O 0.71160 0.97686 0.32009
 O160 O 0.67851 1.01463 0.28524
 O161 O 0.70930 1.01882 0.31699
 O162 O 0.67991 0.97248 0.28971
 Cu163 Cu 0.66581 0.99706 0.33121
 Cu164 Cu 0.69746 0.99564 0.30036
 C165 C 0.66203 0.96508 0.29852
 C166 C 0.70067 1.02741 0.33427
 C167 C 0.65959 1.02145 0.29211
 C168 C 0.70406 0.97113 0.33896
 C169 C 0.86033 0.79876 0.52667
 C170 C 0.86841 0.79054 0.50651
 C171 C 0.86012 0.79767 0.48598
 C172 C 0.84343 0.81399 0.48530
 C173 C 0.83504 0.82265 0.50557
 C174 C 0.84343 0.81495 0.52636
 C175 C 0.83403 0.82297 0.54617
 C176 C 0.81692 0.83838 0.54568
 C177 C 0.80848 0.84631 0.52536
 C178 C 0.81757 0.83838 0.50507
 C179 C 0.83433 0.82126 0.46498
 C180 C 0.81725 0.83673 0.46449
 C181 C 0.80862 0.84552 0.48431
 C182 C 0.79068 0.86063 0.48405
 C183 C 0.78209 0.86831 0.50421
 C184 C 0.79056 0.86135 0.52473
 H185 H 0.83951 0.81714 0.56229
 H186 H 0.81011 0.84374 0.56144
 H187 H 0.84015 0.81484 0.44923
 H188 H 0.81061 0.84146 0.44840
 H189 H 0.88118 0.77795 0.50680
 H190 H 0.76828 0.87984 0.50394
 C191 C 0.20228 0.13554 0.51659
 C192 C 0.20876 0.12624 0.49641
 C193 C 0.20037 0.13371 0.47602
 C194 C 0.18465 0.15095 0.47572
 C195 C 0.17763 0.16038 0.49618
 C196 C 0.18647 0.15263 0.51670
 C197 C 0.18003 0.16273 0.53668
 C198 C 0.16514 0.18013 0.53660
 C199 C 0.15609 0.18809 0.51655
 C200 C 0.16252 0.17823 0.49609
 C201 C 0.17652 0.15959 0.45559
 C202 C 0.16184 0.17721 0.45548
 C203 C 0.15465 0.18677 0.47551
 C204 C 0.14047 0.20519 0.47557
 C205 C 0.13397 0.21440 0.49584
 C206 C 0.14152 0.20625 0.51626
 H207 H 0.18670 0.15748 0.55259
 H208 H 0.16121 0.18755 0.55245
 H209 H 0.18174 0.15304 0.43969
 H210 H 0.15642 0.18346 0.43950
 H211 H 0.22109 0.11325 0.49654
 H212 H 0.12300 0.22848 0.49568
 C213 C 0.15202 0.78788 0.48445
 C214 C 0.14200 0.78143 0.50441
 C215 C 0.14815 0.79054 0.52496
 C216 C 0.16493 0.80693 0.52571
 C217 C 0.17545 0.81363 0.50565
 C218 C 0.16924 0.80385 0.48501
 C219 C 0.18073 0.80997 0.46561
 C220 C 0.19703 0.82625 0.46615
 C221 C 0.20258 0.83700 0.48614
 C222 C 0.19211 0.83028 0.50620
 C223 C 0.17122 0.81705 0.54584
 C224 C 0.18782 0.83306 0.54642
 C225 C 0.19827 0.84018 0.52678
 C226 C 0.21492 0.85673 0.52713
 C227 C 0.22480 0.86329 0.50714
 C228 C 0.21871 0.85396 0.48669
 H229 H 0.17740 0.80210 0.44979
 H230 H 0.20541 0.83016 0.45071
 H231 H 0.16333 0.81278 0.56142
 H232 H 0.19233 0.83980 0.56250
 H233 H 0.12880 0.76920 0.50393
 H234 H 0.23704 0.87642 0.50742
 C235 C 0.85104 0.20658 0.47536
 C236 C 0.86151 0.21227 0.49550
 C237 C 0.85533 0.20289 0.51576
 C238 C 0.83820 0.18684 0.51600
 C239 C 0.82726 0.18087 0.49576
 C240 C 0.83348 0.19096 0.47541
 C241 C 0.82159 0.18556 0.45583
 C242 C 0.80463 0.16991 0.45597
 C243 C 0.79884 0.15904 0.47570
 C244 C 0.80997 0.16482 0.49589
 C245 C 0.83190 0.17644 0.53584
 C246 C 0.81468 0.16109 0.53603
 C247 C 0.80364 0.15483 0.51625
 C248 C 0.78615 0.13913 0.51628
 C249 C 0.77563 0.13347 0.49619
 C250 C 0.78172 0.14300 0.47596
 H251 H 0.82506 0.19360 0.44022
 H252 H 0.79589 0.16662 0.44045
 H253 H 0.84021 0.18002 0.55150
 H254 H 0.81014 0.15423 0.55195
 H255 H 0.87488 0.22433 0.49540
 H256 H 0.76255 0.12110 0.49626
 C257 C 0.52081 0.80492 0.86989
 C258 C 0.50067 0.79781 0.87941
 C259 C 0.47992 0.80675 0.87326
 C260 C 0.47920 0.82356 0.85723
 C261 C 0.49945 0.83041 0.84686
 C262 C 0.52031 0.82098 0.85313
 C263 C 0.54004 0.82734 0.84204
 C264 C 0.53935 0.84275 0.82515
 C265 C 0.51896 0.85257 0.81888
 C266 C 0.49878 0.84636 0.82981
 C267 C 0.45879 0.83338 0.85097
 C268 C 0.45822 0.84952 0.83477
 C269 C 0.47790 0.85586 0.82355
 C270 C 0.47742 0.87159 0.80638
 C271 C 0.49744 0.87727 0.79565
 C272 C 0.51809 0.86807 0.80159
 H273 H 0.55619 0.82017 0.84601
 H274 H 0.55500 0.84673 0.81694
 H275 H 0.44303 0.82872 0.85858
 H276 H 0.44210 0.85684 0.83105
 H277 H 0.50114 0.78505 0.89184
 H278 H 0.49697 0.88913 0.78230
 C279 C 0.47531 0.13011 0.19577
 C280 C 0.49542 0.12223 0.20478
 C281 C 0.51638 0.13008 0.19795
 C282 C 0.51739 0.14614 0.18112
 C283 C 0.49704 0.15444 0.17190
 C284 C 0.47592 0.14647 0.17934
 C285 C 0.45600 0.15561 0.17081
 C286 C 0.45674 0.17249 0.15545
 C287 C 0.47741 0.18064 0.14779
 C288 C 0.49779 0.17139 0.15590
 C289 C 0.53805 0.15470 0.17392
 C290 C 0.53879 0.17105 0.15793
 C291 C 0.51889 0.17966 0.14875
 C292 C 0.51944 0.19695 0.13328
 C293 C 0.49924 0.20606 0.12573
 C294 C 0.47833 0.19837 0.13287
 H295 H 0.43962 0.15009 0.17629
 H296 H 0.44089 0.17922 0.14983
 H297 H 0.55387 0.14904 0.18076
 H298 H 0.55517 0.17723 0.15323
 H299 H 0.49472 0.10996 0.21772
 H300 H 0.49980 0.21966 0.11427
 C301 C 0.51634 0.14862 0.79146
 C302 C 0.49519 0.14292 0.78280
 C303 C 0.47533 0.15199 0.79097
 C304 C 0.47644 0.16743 0.80841
 C305 C 0.49778 0.17405 0.81691
 C306 C 0.51782 0.16455 0.80850
 C307 C 0.53868 0.17096 0.81766
 C308 C 0.53997 0.18705 0.83395
 C309 C 0.52041 0.19677 0.84239
 C310 C 0.49905 0.19009 0.83396
 C311 C 0.45683 0.17648 0.81751
 C312 C 0.45806 0.19172 0.83463
 C313 C 0.47897 0.19926 0.84269
 C314 C 0.48046 0.21537 0.85955
 C315 C 0.50170 0.22222 0.86699
 C316 C 0.52158 0.21313 0.85893
 H317 H 0.55430 0.16369 0.81233
 H318 H 0.55653 0.19175 0.83989
 H319 H 0.44028 0.17176 0.81156
 H320 H 0.44235 0.19750 0.84140
 H321 H 0.49413 0.13094 0.76952
 H322 H 0.50281 0.23473 0.87974
 C323 C 0.48562 0.85823 0.19917
 C324 C 0.50701 0.86470 0.20661
 C325 C 0.52667 0.85515 0.19852
 C326 C 0.52514 0.83815 0.18272
 C327 C 0.50364 0.83142 0.17478
 C328 C 0.48380 0.84159 0.18287
 C329 C 0.46279 0.83501 0.17424
 C330 C 0.46114 0.81816 0.15880
 C331 C 0.48048 0.80765 0.15084
 C332 C 0.50198 0.81439 0.15882
 C333 C 0.54447 0.82737 0.17509
 C334 C 0.54282 0.81048 0.15971
 C335 C 0.52179 0.80387 0.15117
 C336 C 0.51992 0.78662 0.13564
 C337 C 0.49862 0.78014 0.12812
 C338 C 0.47896 0.79028 0.13543
 H339 H 0.44734 0.84280 0.17931
 H340 H 0.44446 0.81342 0.15325
 H341 H 0.56108 0.83168 0.18122
 H342 H 0.55822 0.80250 0.15476
 H343 H 0.50842 0.87749 0.21902
 H344 H 0.49731 0.76696 0.11611
 C345 C 0.79511 0.47455 0.85788
 C346 C 0.78569 0.49437 0.86421
 C347 C 0.79195 0.51394 0.85421
 C348 C 0.80872 0.51388 0.83755
 C349 C 0.81866 0.49386 0.83102
 C350 C 0.81165 0.47410 0.84106
 C351 C 0.82071 0.45440 0.83342
 C352 C 0.83669 0.45405 0.81658
 C353 C 0.84438 0.47339 0.80680
 C354 C 0.83510 0.49351 0.81391
 C355 C 0.81523 0.53307 0.82668
 C356 C 0.83148 0.53274 0.81003
 C357 C 0.84174 0.51319 0.80350
 C358 C 0.85790 0.51263 0.78628
 C359 C 0.86698 0.49271 0.77964
 C360 C 0.86050 0.47315 0.78952
 H361 H 0.81525 0.43897 0.84013
 H362 H 0.84267 0.43835 0.81110
 H363 H 0.80764 0.54852 0.83075
 H364 H 0.83564 0.54797 0.80207
 H365 H 0.77298 0.49454 0.87715
 H366 H 0.87948 0.49245 0.76652
 C367 C 0.19568 0.51858 0.13297
 C368 C 0.20422 0.49839 0.12639
 C369 C 0.19751 0.47910 0.13661
 C370 C 0.18157 0.47969 0.15394
 C371 C 0.17249 0.49994 0.16077
 C372 C 0.17945 0.51948 0.15020
 C373 C 0.17045 0.53931 0.15759
 C374 C 0.15476 0.53998 0.17473
 C375 C 0.14816 0.52096 0.18588
 C376 C 0.15695 0.50069 0.17870
 C377 C 0.17502 0.46064 0.16502
 C378 C 0.15980 0.46137 0.18254
 C379 C 0.15047 0.48117 0.18956
 C380 C 0.13524 0.48206 0.20756
 C381 C 0.12683 0.50214 0.21445
 C382 C 0.13289 0.52155 0.20393
 H383 H 0.17546 0.55459 0.15029
 H384 H 0.14802 0.55568 0.17922
 H385 H 0.18178 0.44496 0.16040
 H386 H 0.15565 0.44623 0.19068
 H387 H 0.21674 0.49767 0.11330
 H388 H 0.11524 0.50264 0.22837
 C389 C 0.79712 0.52936 0.14102
 C390 C 0.78729 0.50997 0.13367
 C391 C 0.79319 0.48990 0.14285
 C392 C 0.81010 0.48904 0.15956
 C393 C 0.82016 0.50866 0.16733
 C394 C 0.81337 0.52892 0.15828
 C395 C 0.82234 0.54820 0.16730
 C396 C 0.83777 0.54767 0.18481
 C397 C 0.84527 0.52782 0.19363
 C398 C 0.83648 0.50810 0.18473
 C399 C 0.81658 0.46929 0.16932
 C400 C 0.83307 0.46868 0.18589
 C401 C 0.84343 0.48785 0.19368
 C402 C 0.85993 0.48743 0.21080
 C403 C 0.86805 0.50702 0.21964
 C404 C 0.86073 0.52711 0.21162
 H405 H 0.81710 0.56396 0.16125
 H406 H 0.84367 0.56305 0.19141
 H407 H 0.80886 0.45407 0.16438
 H408 H 0.83716 0.45302 0.19295
 H409 H 0.77453 0.51052 0.12065
 H410 H 0.88039 0.50667 0.23305
 C411 C 0.14513 0.47581 0.78433
 C412 C 0.13877 0.49503 0.77372
 C413 C 0.14856 0.51502 0.77929
 C414 C 0.16588 0.51576 0.79559
 C415 C 0.17221 0.49639 0.80687
 C416 C 0.16131 0.47647 0.80166
 C417 C 0.16709 0.45773 0.81368
 C418 C 0.18363 0.45840 0.83023
 C419 C 0.19606 0.47748 0.83442
 C420 C 0.18992 0.49682 0.82291
 C421 C 0.17754 0.53512 0.80036
 C422 C 0.19504 0.53553 0.81589
 C423 C 0.20142 0.51663 0.82739
 C424 C 0.21939 0.51688 0.84289
 C425 C 0.22578 0.49764 0.85339
 C426 C 0.21423 0.47801 0.84997
 H427 H 0.15867 0.44239 0.81059
 H428 H 0.18654 0.44367 0.83952
 H429 H 0.17360 0.55007 0.79176
 H430 H 0.20377 0.55078 0.81854
 H431 H 0.12609 0.49434 0.76063
 H432 H 0.23984 0.49815 0.86502
 C433 C 0.23981 0.36348 0.05702
 C434 C 0.24844 0.37642 0.07476
 C435 C 0.27164 0.37426 0.08008
 C436 C 0.28564 0.36099 0.06723
 C437 C 0.27716 0.34969 0.04873
 C438 C 0.25402 0.35036 0.04423
 C439 C 0.28107 0.38604 0.09766
 C440 C 0.26845 0.40121 0.10917
 C441 C 0.24580 0.40540 0.10337
 C442 C 0.23528 0.39208 0.08666
 C443 C 0.21222 0.39544 0.08189
 C444 C 0.20021 0.41208 0.09201
 C445 C 0.21066 0.42617 0.10711
 C446 C 0.23352 0.42287 0.11331
 C447 C 0.24344 0.43790 0.12842
 C448 C 0.23138 0.45566 0.13636
 C449 C 0.20907 0.45895 0.12980
 C450 C 0.19859 0.44401 0.11551
 H451 H 0.22236 0.36372 0.05203
 H452 H 0.30351 0.36023 0.07105
 H453 H 0.24707 0.34167 0.03004
 H454 H 0.29865 0.38397 0.10217
 H455 H 0.27716 0.40961 0.12242
 H456 H 0.20294 0.38562 0.07011
 H457 H 0.18267 0.41433 0.08745
 H458 H 0.26070 0.43693 0.13389
 H459 H 0.23967 0.46723 0.14734
 H460 H 0.18129 0.44675 0.11035
 C461 C 0.70441 0.61967 0.07242
 C462 C 0.72800 0.61851 0.07569
 C463 C 0.74192 0.63120 0.06160
 C464 C 0.73235 0.64459 0.04512
 C465 C 0.70900 0.64480 0.04169
 C466 C 0.69519 0.63245 0.05562
 C467 C 0.76531 0.62983 0.06351
 C468 C 0.77525 0.61516 0.07812
 C469 C 0.76210 0.60158 0.09185
 C470 C 0.73817 0.60434 0.09163
 C471 C 0.72516 0.59259 0.10712
 C472 C 0.73485 0.57715 0.12089
 C473 C 0.75779 0.57270 0.11971
 C474 C 0.77193 0.58505 0.10552
 C475 C 0.79510 0.57953 0.10486
 C476 C 0.80348 0.56200 0.11711
 C477 C 0.78918 0.54970 0.13054
 C478 C 0.76650 0.55541 0.13217
 H479 H 0.69259 0.61017 0.08185
 H480 H 0.74314 0.65396 0.03421
 H481 H 0.67707 0.63241 0.05329
 H482 H 0.77607 0.63970 0.05305
 H483 H 0.79340 0.61489 0.07831
 H484 H 0.70732 0.59499 0.10910
 H485 H 0.72410 0.56813 0.13214
 H486 H 0.80699 0.58779 0.09434
 H487 H 0.82105 0.55756 0.11552
 H488 H 0.75543 0.54574 0.14254
 C489 C 0.69879 0.39084 0.93001
 C490 C 0.72228 0.39049 0.92616
 C491 C 0.73571 0.37681 0.93979
 C492 C 0.72569 0.36355 0.95605
 C493 C 0.70244 0.36447 0.95978
 C494 C 0.68916 0.37817 0.94663
 C495 C 0.75909 0.37689 0.93752
 C496 C 0.76958 0.39108 0.92284
 C497 C 0.75695 0.40534 0.90928
 C498 C 0.73290 0.40398 0.90997
 C499 C 0.72024 0.41620 0.89450
 C500 C 0.73055 0.43068 0.88013
 C501 C 0.75378 0.43380 0.88081
 C502 C 0.76746 0.42109 0.89519
 C503 C 0.79093 0.42548 0.89557
 C504 C 0.80011 0.44224 0.88277
 C505 C 0.78632 0.45479 0.86894
 C506 C 0.76329 0.45015 0.86767
 H507 H 0.68744 0.40138 0.92109
 H508 H 0.73610 0.35319 0.96643
 H509 H 0.67115 0.37919 0.94926
 H510 H 0.76947 0.36631 0.94769
 H511 H 0.78770 0.39032 0.92228
 H512 H 0.70221 0.41476 0.89288
 H513 H 0.72010 0.44001 0.86881
 H514 H 0.80249 0.41698 0.90634
 H515 H 0.81792 0.44592 0.88422
 H516 H 0.75259 0.46005 0.85708
 C517 C 0.25637 0.63019 0.92824
 C518 C 0.26724 0.61473 0.91447
 C519 C 0.29100 0.61300 0.91634
 C520 C 0.30292 0.62511 0.93238
 C521 C 0.29170 0.63942 0.94664
 C522 C 0.26846 0.64231 0.94401
 C523 C 0.30277 0.59882 0.90258
 C524 C 0.29148 0.58551 0.88754
 C525 C 0.26773 0.58551 0.88595
 C526 C 0.25540 0.60054 0.89945
 C527 C 0.23162 0.60016 0.89824
 C528 C 0.22023 0.58487 0.88538
 C529 C 0.23197 0.56959 0.87286
 C530 C 0.25586 0.57020 0.87220
 C531 C 0.26685 0.55475 0.85850
 C532 C 0.25473 0.53831 0.84776
 C533 C 0.23135 0.53694 0.84990
 C534 C 0.21996 0.55303 0.86182
 H535 H 0.23853 0.63322 0.92746
 H536 H 0.32101 0.62314 0.93397
 H537 H 0.25945 0.65351 0.95465
 H538 H 0.32098 0.59770 0.90372
 H539 H 0.30196 0.57481 0.87793
 H540 H 0.22117 0.61098 0.90774
 H541 H 0.20197 0.58467 0.88567
 H542 H 0.28481 0.55448 0.85617
 H543 H 0.26375 0.52602 0.83845
 H544 H 0.20181 0.55189 0.86356
 C545 C 0.05315 0.25018 0.36292
 C546 C 0.07002 0.25854 0.37745
 C547 C 0.07340 0.28137 0.37769
 C548 C 0.05923 0.29512 0.36542
 C549 C 0.04177 0.28661 0.35226
 C550 C 0.03932 0.26405 0.35053
 C551 C 0.09052 0.29049 0.39064
 C552 C 0.10398 0.27761 0.40410
 C553 C 0.10047 0.25495 0.40562
 C554 C 0.08318 0.24523 0.39211
 C555 C 0.07887 0.22278 0.39456
 C556 C 0.09027 0.21043 0.41034
 C557 C 0.10681 0.21975 0.42393
 C558 C 0.11285 0.24191 0.42112
 C559 C 0.13055 0.25027 0.43459
 C560 C 0.14024 0.23776 0.45138
 C561 C 0.13301 0.21647 0.45509
 C562 C 0.11679 0.20726 0.44091
 H563 H 0.05007 0.23303 0.36086
 H564 H 0.06154 0.31259 0.36642
 H565 H 0.02609 0.25711 0.34021
 H566 H 0.09334 0.30791 0.39066
 H567 H 0.11641 0.28617 0.41388
 H568 H 0.06602 0.21436 0.38516
 H569 H 0.08577 0.19345 0.41221
 H570 H 0.13711 0.26650 0.43289
 H571 H 0.15299 0.24499 0.46209
 H572 H 0.11124 0.19070 0.44378
 C573 C 0.03987 0.72811 0.60305
 C574 C 0.06235 0.73459 0.60752
 C575 C 0.07289 0.72656 0.62711
 C576 C 0.06067 0.71379 0.64229
 C577 C 0.03842 0.70776 0.63750
 C578 C 0.02826 0.71474 0.61775
 C579 C 0.09562 0.73103 0.63118
 C580 C 0.10838 0.74252 0.61576
 C581 C 0.09857 0.75086 0.59608
 C582 C 0.07487 0.74807 0.59274
 C583 C 0.06438 0.75908 0.57491
 C584 C 0.07682 0.77115 0.55987
 C585 C 0.10022 0.77217 0.56158
 C586 C 0.11155 0.76198 0.57960
 C587 C 0.13543 0.76252 0.57974
 C588 C 0.14736 0.77238 0.56243
 C589 C 0.13594 0.78259 0.54489
 C590 C 0.11237 0.78277 0.54486
 H591 H 0.03107 0.73244 0.58795
 H592 H 0.06861 0.70798 0.65746
 H593 H 0.01111 0.70995 0.61378
 H594 H 0.10379 0.72509 0.64616
 H595 H 0.12585 0.74515 0.61999
 H596 H 0.04637 0.75911 0.57246
 H597 H 0.06806 0.77922 0.54633
 H598 H 0.14534 0.75448 0.59235
 H599 H 0.16559 0.77149 0.56239
 H600 H 0.10347 0.79037 0.53111
 C601 C 0.94764 0.75535 0.37284
 C602 C 0.93174 0.74630 0.38777
 C603 C 0.92941 0.72336 0.38795
 C604 C 0.94338 0.71023 0.37487
 C605 C 0.95966 0.71942 0.36098
 C606 C 0.96129 0.74206 0.35964
 C607 C 0.91342 0.71349 0.40147
 C608 C 0.89995 0.72577 0.41541
 C609 C 0.90222 0.74859 0.41675
 C610 C 0.91841 0.75905 0.40275
 C611 C 0.92133 0.78176 0.40484
 C612 C 0.90953 0.79373 0.42058
 C613 C 0.89401 0.78372 0.43458
 C614 C 0.88953 0.76114 0.43237
 C615 C 0.87296 0.75196 0.44643
 C616 C 0.86274 0.76428 0.46301
 C617 C 0.86828 0.78617 0.46593
 C618 C 0.88346 0.79602 0.45134
 H619 H 0.95003 0.77260 0.37097
 H620 H 0.94168 0.69270 0.37564
 H621 H 0.97359 0.74955 0.34881
 H622 H 0.91145 0.69597 0.40149
 H623 H 0.88839 0.71665 0.42550
 H624 H 0.93327 0.79076 0.39504
 H625 H 0.91287 0.81101 0.42203
 H626 H 0.86768 0.73525 0.44536
 H627 H 0.85086 0.75652 0.47412
 H628 H 0.88771 0.81303 0.45364
 C629 C 0.96239 0.26418 0.59816
 C630 C 0.94006 0.25709 0.60202
 C631 C 0.92937 0.26403 0.62188
 C632 C 0.94136 0.27628 0.63789
 C633 C 0.96347 0.28297 0.63368
 C634 C 0.97372 0.27710 0.61367
 C635 C 0.90672 0.25902 0.62540
 C636 C 0.89417 0.24810 0.60918
 C637 C 0.90416 0.24082 0.58922
 C638 C 0.92781 0.24407 0.58639
 C639 C 0.93854 0.23394 0.56821
 C640 C 0.92634 0.22228 0.55244
 C641 C 0.90295 0.22088 0.55373
 C642 C 0.89141 0.23027 0.57200
 C643 C 0.86755 0.22956 0.57167
 C644 C 0.85582 0.22020 0.55376
 C645 C 0.86744 0.21058 0.53607
 C646 C 0.89101 0.21069 0.53640
 H647 H 0.97125 0.26070 0.58293
 H648 H 0.93330 0.28122 0.65326
 H649 H 0.99077 0.28236 0.61013
 H650 H 0.89843 0.26413 0.64057
 H651 H 0.87673 0.24499 0.61302
 H652 H 0.95656 0.23427 0.56606
 H653 H 0.93527 0.21483 0.53870
 H654 H 0.85749 0.23713 0.58440
 H655 H 0.83759 0.22096 0.55344
 H656 H 0.90007 0.20360 0.52252
 C657 C 0.38473 0.07621 0.29775
 C658 C 0.38511 0.07626 0.27416
 C659 C 0.37205 0.06034 0.26276
 C660 C 0.35938 0.04498 0.27471
 C661 C 0.36032 0.04453 0.29802
 C662 C 0.37273 0.06047 0.30936
 C663 C 0.37254 0.05921 0.23956
 C664 C 0.38694 0.07247 0.22743
 C665 C 0.40115 0.08777 0.23810
 C666 C 0.39907 0.09068 0.26166
 C667 C 0.41147 0.10754 0.27204
 C668 C 0.42711 0.11965 0.26032
 C669 C 0.43106 0.11546 0.23788
 C670 C 0.41782 0.09988 0.22619
 C671 C 0.42277 0.09627 0.20337
 C672 C 0.44078 0.10692 0.19314
 C673 C 0.45413 0.12157 0.20519
 C674 C 0.44884 0.12623 0.22732
 H675 H 0.39444 0.08736 0.30781
 H676 H 0.34998 0.03249 0.26585
 H677 H 0.37363 0.06043 0.32740
 H678 H 0.36231 0.04735 0.23070
 H679 H 0.38661 0.07026 0.20962
 H680 H 0.40954 0.11178 0.28934
 H681 H 0.43675 0.13199 0.26915
 H682 H 0.41374 0.08465 0.19324
 H683 H 0.44486 0.10308 0.17600
 H684 H 0.45935 0.13757 0.23660
 C685 C 0.59786 0.04258 0.73227
 C686 C 0.60170 0.06460 0.73796
 C687 C 0.62168 0.07465 0.73014
 C688 C 0.63783 0.06247 0.71843
 C689 C 0.63363 0.04067 0.71315
 C690 C 0.61350 0.03096 0.71987
 C691 C 0.62517 0.09684 0.73370
 C692 C 0.60886 0.10945 0.74412
 C693 C 0.58881 0.10008 0.75234
 C694 C 0.58596 0.07708 0.75048
 C695 C 0.56768 0.06721 0.76151
 C696 C 0.55192 0.07951 0.77285
 C697 C 0.55333 0.10210 0.77306
 C698 C 0.57160 0.11283 0.76262
 C699 C 0.57136 0.13586 0.76219
 C700 C 0.55367 0.14755 0.77177
 C701 C 0.53612 0.13672 0.78263
 C702 C 0.53618 0.11402 0.78331
 H703 H 0.58254 0.03409 0.73642
 H704 H 0.65327 0.07008 0.71277
 H705 H 0.60995 0.01416 0.71565
 H706 H 0.64042 0.10465 0.72787
 H707 H 0.61271 0.12647 0.74612
 H708 H 0.56547 0.04984 0.76224
 H709 H 0.53816 0.07123 0.78110
 H710 H 0.58406 0.14523 0.75374
 H711 H 0.55349 0.16509 0.77040
 H712 H 0.52237 0.10558 0.79135
 C713 C 0.39322 0.97276 0.74369
 C714 C 0.38936 0.95127 0.75106
 C715 C 0.36950 0.94052 0.74361
 C716 C 0.35356 0.95157 0.73044
 C717 C 0.35786 0.97280 0.72334
 C718 C 0.37779 0.98318 0.72986
 C719 C 0.36600 0.91870 0.74892
 C720 C 0.38231 0.90701 0.76051
 C721 C 0.40236 0.91704 0.76814
 C722 C 0.40507 0.93986 0.76473
 C723 C 0.42330 0.95061 0.77523
 C724 C 0.43939 0.93919 0.78718
 C725 C 0.43832 0.91662 0.78858
 C726 C 0.41986 0.90512 0.77907
 C727 C 0.42033 0.88211 0.77994
 C728 C 0.43863 0.87117 0.78942
 C729 C 0.45661 0.88277 0.79892
 C730 C 0.45609 0.90547 0.79880
 H731 H 0.40843 0.98164 0.74755
 H732 H 0.33826 0.94342 0.72498
 H733 H 0.38139 0.99956 0.72430
 H734 H 0.35081 0.91040 0.74346
 H735 H 0.37852 0.89018 0.76376
 H736 H 0.42531 0.96802 0.77490
 H737 H 0.45324 0.94808 0.79480
 H738 H 0.40741 0.87214 0.77238
 H739 H 0.43908 0.85358 0.78876
 H740 H 0.47020 0.91447 0.80583
 C741 C 0.62227 0.91761 0.29267
 C742 C 0.62138 0.91419 0.26936
 C743 C 0.63565 0.92708 0.25581
 C744 C 0.65003 0.94279 0.26544
 C745 C 0.64975 0.94658 0.28846
 C746 C 0.63606 0.93362 0.30193
 C747 C 0.63484 0.92483 0.23269
 C748 C 0.61918 0.91109 0.22257
 C749 C 0.60389 0.89870 0.23528
 C750 C 0.60597 0.89929 0.25905
 C751 C 0.59221 0.88531 0.27174
 C752 C 0.57555 0.87273 0.26182
 C753 C 0.57186 0.87355 0.23891
 C754 C 0.58622 0.88612 0.22515
 C755 C 0.58150 0.88637 0.20195
 C756 C 0.56276 0.87544 0.19317
 C757 C 0.54838 0.86374 0.20709
 C758 C 0.55331 0.86242 0.22983
 H759 H 0.61179 0.90893 0.30423
 H760 H 0.66046 0.95291 0.25490
 H761 H 0.63566 0.93618 0.31979
 H762 H 0.64593 0.93435 0.22223
 H763 H 0.61946 0.91059 0.20463
 H764 H 0.59385 0.88372 0.28954
 H765 H 0.56498 0.86271 0.27232
 H766 H 0.59133 0.89559 0.19026
 H767 H 0.55897 0.87678 0.17554
 H768 H 0.54204 0.85342 0.24060
 C769 C 0.40030 0.28232 0.96326
 C770 C 0.39634 0.27549 0.94106
 C771 C 0.37639 0.28264 0.93027
 C772 C 0.35998 0.29419 0.94226
 C773 C 0.36396 0.30005 0.96450
 C774 C 0.38440 0.29458 0.97465
 C775 C 0.37301 0.27818 0.90767
 C776 C 0.38930 0.26719 0.89542
 C777 C 0.40902 0.25913 0.90571
 C778 C 0.41177 0.26215 0.92918
 C779 C 0.42938 0.25112 0.94021
 C780 C 0.44450 0.23839 0.92854
 C781 C 0.44330 0.23696 0.90539
 C782 C 0.42588 0.24768 0.89351
 C783 C 0.42663 0.24715 0.86992
 C784 C 0.44405 0.23643 0.85878
 C785 C 0.46061 0.22515 0.87074
 C786 C 0.45988 0.22529 0.89405
 H787 H 0.41577 0.27886 0.97206
 H788 H 0.34428 0.29883 0.93430
 H789 H 0.38778 0.29920 0.99179
 H790 H 0.35783 0.28360 0.89925
 H791 H 0.38556 0.26439 0.87804
 H792 H 0.43135 0.25136 0.95809
 H793 H 0.45767 0.23005 0.93770
 H794 H 0.41468 0.25583 0.85970
 H795 H 0.44484 0.23732 0.84078
 H796 H 0.47293 0.21696 0.90341
 C797 C 0.61921 0.70545 0.91518
 C798 C 0.61811 0.72842 0.91491
 C799 C 0.63374 0.74009 0.92839
 C800 C 0.64928 0.72901 0.94200
 C801 C 0.64892 0.70630 0.94313
 C802 C 0.63420 0.69468 0.92922
 C803 C 0.63309 0.76272 0.92906
 C804 C 0.61632 0.77406 0.91786
 C805 C 0.59957 0.76315 0.90526
 C806 C 0.60127 0.74008 0.90273
 C807 C 0.58568 0.72936 0.88859
 C808 C 0.56796 0.74042 0.87871
 C809 C 0.56499 0.76255 0.88250
 C810 C 0.58090 0.77441 0.89548
 C811 C 0.57686 0.79688 0.89884
 C812 C 0.55763 0.80682 0.89010
 C813 C 0.54197 0.79480 0.87769
 C814 C 0.54583 0.77277 0.87372
 H815 H 0.60802 0.69521 0.90563
 H816 H 0.66055 0.73809 0.95287
 H817 H 0.63375 0.67709 0.92973
 H818 H 0.64524 0.77176 0.93899
 H819 H 0.61688 0.79147 0.91954
 H820 H 0.58661 0.71228 0.88481
 H821 H 0.55612 0.73140 0.86840
 H822 H 0.58782 0.80712 0.90866
 H823 H 0.55470 0.82389 0.89340
 H824 H 0.53357 0.76351 0.86411
 C825 C 0.38647 0.69477 0.07383
 C826 C 0.38643 0.71763 0.07658
 C827 C 0.37186 0.72996 0.06273
 C828 C 0.35760 0.71957 0.04721
 C829 C 0.35844 0.69700 0.04433
 C830 C 0.37286 0.68475 0.05781
 C831 C 0.37218 0.75260 0.06390
 C832 C 0.38765 0.76338 0.07748
 C833 C 0.40300 0.75182 0.09101
 C834 C 0.40123 0.72865 0.09172
 C835 C 0.41447 0.71725 0.10737
 C836 C 0.43040 0.72785 0.12046
 C837 C 0.43405 0.75010 0.11817
 C838 C 0.42031 0.76255 0.10363
 C839 C 0.42536 0.78497 0.10142
 C840 C 0.44379 0.79427 0.11255
 C841 C 0.45735 0.78168 0.12657
 C842 C 0.45204 0.75977 0.12974
 H843 H 0.39758 0.68424 0.08304
 H844 H 0.34670 0.72916 0.03654
 H845 H 0.37382 0.66727 0.05579
 H846 H 0.36086 0.76213 0.05361
 H847 H 0.38703 0.78087 0.07720
 H848 H 0.41276 0.70002 0.11007
 H849 H 0.44052 0.71836 0.13194
 H850 H 0.41617 0.79550 0.09032
 H851 H 0.44799 0.81115 0.10956
 H852 H 0.46276 0.74998 0.14040
 C853 C 0.61307 0.29794 0.08331
 C854 C 0.61248 0.27494 0.08337
 C855 C 0.62708 0.26382 0.06861
 C856 C 0.64158 0.27544 0.05446
 C857 C 0.64110 0.29819 0.05401
 C858 C 0.62699 0.30925 0.06876
 C859 C 0.62652 0.24118 0.06743
 C860 C 0.61086 0.22934 0.07957
 C861 C 0.59534 0.23971 0.09380
 C862 C 0.59710 0.26274 0.09672
 C863 C 0.58315 0.27288 0.11261
 C864 C 0.56671 0.26133 0.12385
 C865 C 0.56340 0.23928 0.11969
 C866 C 0.57784 0.22796 0.10492
 C867 C 0.57341 0.20557 0.10119
 C868 C 0.55499 0.19527 0.11110
 C869 C 0.54064 0.20682 0.12518
 C870 C 0.54519 0.22867 0.12975
 H871 H 0.60228 0.30777 0.09356
 H872 H 0.65229 0.26677 0.04289
 H873 H 0.62637 0.32685 0.06874
 H874 H 0.63785 0.23254 0.05644
 H875 H 0.61137 0.21196 0.07744
 H876 H 0.58451 0.28985 0.11683
 H877 H 0.55605 0.26992 0.13553
 H878 H 0.58328 0.19575 0.09004
 H879 H 0.55148 0.17839 0.10721
 H880 H 0.53395 0.23762 0.14059
 C881 C 0.24244 0.05810 0.63654
 C882 C 0.25253 0.07199 0.62060
 C883 C 0.27637 0.07354 0.62069
 C884 C 0.28935 0.06076 0.63511
 C885 C 0.27913 0.04640 0.65000
 C886 C 0.25560 0.04557 0.65101
 C887 C 0.28730 0.08753 0.60610
 C888 C 0.27521 0.09965 0.59079
 C889 C 0.25152 0.09800 0.58913
 C890 C 0.23994 0.08402 0.60435
 C891 C 0.21631 0.08195 0.60226
 C892 C 0.20447 0.09248 0.58545
 C893 C 0.21555 0.10575 0.57023
 C894 C 0.23914 0.10923 0.57220
 C895 C 0.24944 0.12337 0.55667
 C896 C 0.23711 0.13242 0.53924
 C897 C 0.21414 0.12804 0.53685
 C898 C 0.20327 0.11510 0.55260
 H899 H 0.22447 0.05639 0.63822
 H900 H 0.30759 0.06184 0.63456
 H901 H 0.24733 0.03474 0.66259
 H902 H 0.30552 0.08893 0.60632
 H903 H 0.28517 0.10973 0.58002
 H904 H 0.20643 0.07174 0.61300
 H905 H 0.18643 0.08993 0.58415
 H906 H 0.26703 0.12760 0.55721
 H907 H 0.24565 0.14256 0.52719
 H908 H 0.18541 0.11176 0.55067
 C909 C 0.74560 0.06521 0.35438
 C910 C 0.73493 0.07546 0.37267
 C911 C 0.71172 0.07115 0.37584
 C912 C 0.70048 0.05565 0.36273
 C913 C 0.71164 0.04447 0.34562
 C914 C 0.73405 0.05013 0.34100
 C915 C 0.69984 0.08189 0.39248
 C916 C 0.71061 0.09639 0.40668
 C917 C 0.73402 0.10024 0.40528
 C918 C 0.74646 0.08940 0.38816
 C919 C 0.77013 0.09188 0.38793
 C920 C 0.78134 0.10375 0.40436
 C921 C 0.76945 0.11424 0.42120
 C922 C 0.74556 0.11352 0.42129
 C923 C 0.73425 0.12560 0.43792
 C924 C 0.74619 0.13612 0.45486
 C925 C 0.76971 0.13528 0.45567
 C926 C 0.78131 0.12483 0.43846
 H927 H 0.76285 0.06849 0.34998
 H928 H 0.68291 0.05214 0.36612
 H929 H 0.74307 0.04223 0.32759
 H930 H 0.68201 0.07883 0.39478
 H931 H 0.70019 0.10350 0.41937
 H932 H 0.78063 0.08388 0.37587
 H933 H 0.79959 0.10444 0.40404
 H934 H 0.71619 0.12712 0.43847
 H935 H 0.73697 0.14445 0.46786
 H936 H 0.79956 0.12418 0.43905
 C937 C 0.75035 0.94757 0.63801
 C938 C 0.74047 0.93189 0.62355
 C939 C 0.71668 0.92976 0.62384
 C940 C 0.70350 0.94373 0.63680
 C941 C 0.71349 0.95984 0.65006
 C942 C 0.73700 0.96125 0.65107
 C943 C 0.70599 0.91402 0.61084
 C944 C 0.71826 0.90068 0.59683
 C945 C 0.74186 0.90285 0.59488
 C946 C 0.75319 0.91867 0.60851
 C947 C 0.77668 0.92135 0.60593
 C948 C 0.78855 0.90971 0.59000
 C949 C 0.77767 0.89465 0.57627
 C950 C 0.75433 0.89042 0.57900
 C951 C 0.74431 0.87436 0.56515
 C952 C 0.75653 0.86431 0.54830
 C953 C 0.77914 0.86955 0.54490
 C954 C 0.78985 0.88429 0.55926
 H955 H 0.76829 0.94981 0.63955
 H956 H 0.68528 0.94223 0.63633
 H957 H 0.74510 0.97344 0.66144
 H958 H 0.68782 0.91217 0.61124
 H959 H 0.70847 0.88930 0.58715
 H960 H 0.78636 0.93294 0.61548
 H961 H 0.80643 0.91284 0.58816
 H962 H 0.72698 0.86937 0.56656
 H963 H 0.74810 0.85277 0.53739
 H964 H 0.80743 0.88832 0.55657
 C965 C 0.31627 0.92107 0.39779
 C966 C 0.29309 0.91557 0.39714
 C967 C 0.27950 0.92559 0.38059
 C968 C 0.28888 0.94051 0.36555
 C969 C 0.31168 0.94635 0.36705
 C970 C 0.32528 0.93627 0.38309
 C971 C 0.25647 0.92118 0.37954
 C972 C 0.24629 0.90796 0.39528
 C973 C 0.25887 0.89831 0.41265
 C974 C 0.28281 0.90123 0.41287
 C975 C 0.29563 0.88994 0.42899
 C976 C 0.28539 0.87744 0.44526
 C977 C 0.26201 0.87582 0.44633
 C978 C 0.24833 0.88603 0.42998
 C979 C 0.22464 0.88425 0.43226
 C980 C 0.21513 0.87325 0.45024
 C981 C 0.22881 0.86337 0.46630
 C982 C 0.25222 0.86449 0.46411
 H983 H 0.32781 0.91459 0.40996
 H984 H 0.27816 0.94833 0.35329
 H985 H 0.34297 0.94044 0.38460
 H986 H 0.24605 0.92851 0.36672
 H987 H 0.22841 0.90555 0.39330
 H988 H 0.31376 0.89034 0.42947
 H989 H 0.29592 0.86935 0.45749
 H990 H 0.21294 0.89188 0.42097
 H991 H 0.19697 0.87295 0.45196
 H992 H 0.26283 0.85705 0.47672
 C993 C 0.05507 0.36335 0.74955
 C994 C 0.07200 0.37639 0.73962
 C995 C 0.07568 0.37374 0.71645
 C996 C 0.06174 0.36012 0.70366
 C997 C 0.04431 0.34835 0.71354
 C998 C 0.04152 0.34948 0.73663
 C999 C 0.09288 0.38510 0.70592
 C1000 C 0.10627 0.39963 0.71770
 C1001 C 0.10260 0.40385 0.74053
 C1002 C 0.08503 0.39222 0.75166
 C1003 C 0.08037 0.39759 0.77406
 C1004 C 0.09188 0.41424 0.78499
 C1005 C 0.10891 0.42580 0.77433
 C1006 C 0.11516 0.42017 0.75226
 C1007 C 0.13341 0.43158 0.74263
 C1008 C 0.14359 0.44894 0.75370
 C1009 C 0.13629 0.45532 0.77478
 C1010 C 0.11933 0.44342 0.78534
 H1011 H 0.05181 0.36353 0.76718
 H1012 H 0.06427 0.35888 0.68581
 H1013 H 0.02827 0.34025 0.74461
 H1014 H 0.09587 0.38295 0.68825
 H1015 H 0.11878 0.40801 0.70804
 H1016 H 0.06718 0.38982 0.78339
 H1017 H 0.08716 0.41830 0.80192
 H1018 H 0.14017 0.42767 0.72651
 H1019 H 0.15693 0.45788 0.74549
 H1020 H 0.11379 0.44835 0.80177
 C1021 C 0.03503 0.60505 0.27412
 C1022 C 0.05685 0.60819 0.26536
 C1023 C 0.06889 0.62717 0.27180
 C1024 C 0.05853 0.64311 0.28515
 C1025 C 0.03682 0.63965 0.29343
 C1026 C 0.02537 0.62045 0.28807
 C1027 C 0.09123 0.62989 0.26517
 C1028 C 0.10217 0.61375 0.25307
 C1029 C 0.09076 0.59469 0.24617
 C1030 C 0.06733 0.59269 0.25111
 C1031 C 0.05500 0.57544 0.24137
 C1032 C 0.06551 0.55974 0.22856
 C1033 C 0.08876 0.56021 0.22554
 C1034 C 0.10184 0.57757 0.23437
 C1035 C 0.12554 0.57648 0.23190
 C1036 C 0.13566 0.55866 0.22147
 C1037 C 0.12249 0.54182 0.21253
 C1038 C 0.09904 0.54295 0.21430
 H1039 H 0.02532 0.59049 0.27115
 H1040 H 0.06756 0.65784 0.28965
 H1041 H 0.00860 0.61749 0.29449
 H1042 H 0.10055 0.64437 0.26991
 H1043 H 0.11948 0.61691 0.24877
 H1044 H 0.03697 0.57397 0.24289
 H1045 H 0.05540 0.54670 0.22151
 H1046 H 0.13675 0.58854 0.23889
 H1047 H 0.15387 0.55772 0.22091
 H1048 H 0.08881 0.52973 0.20773
 C1049 C 0.92603 0.39595 0.30491
 C1050 C 0.92066 0.39602 0.28189
 C1051 C 0.93095 0.38012 0.26817
 C1052 C 0.94554 0.36457 0.27742
 C1053 C 0.95099 0.36511 0.30015
 C1054 C 0.94105 0.38086 0.31375
 C1055 C 0.92712 0.38020 0.24523
 C1056 C 0.91422 0.39638 0.23536
 C1057 C 0.90410 0.41289 0.24822
 C1058 C 0.90622 0.41188 0.27196
 C1059 C 0.89389 0.42679 0.28496
 C1060 C 0.88122 0.44311 0.27517
 C1061 C 0.88065 0.44551 0.25210
 C1062 C 0.89200 0.43046 0.23821
 C1063 C 0.89154 0.43422 0.21492
 C1064 C 0.88061 0.45233 0.20603
 C1065 C 0.86942 0.46699 0.21992
 C1066 C 0.86925 0.46332 0.24290
 H1067 H 0.91964 0.40787 0.31641
 H1068 H 0.95344 0.35260 0.26673
 H1069 H 0.94507 0.38164 0.33137
 H1070 H 0.93469 0.36793 0.23467
 H1071 H 0.91222 0.39534 0.21754
 H1072 H 0.89343 0.42609 0.30289
 H1073 H 0.87224 0.45434 0.28584
 H1074 H 0.90029 0.42404 0.20320
 H1075 H 0.88138 0.45523 0.18825
 H1076 H 0.86080 0.47482 0.25371
 C1077 C 0.94016 0.62860 0.74723
 C1078 C 0.92707 0.61200 0.73696
 C1079 C 0.92786 0.61034 0.71341
 C1080 C 0.94229 0.62369 0.70104
 C1081 C 0.95585 0.63930 0.71157
 C1082 C 0.95423 0.64205 0.73466
 C1083 C 0.91458 0.59510 0.70222
 C1084 C 0.90082 0.58096 0.71386
 C1085 C 0.90014 0.58113 0.73738
 C1086 C 0.91360 0.59681 0.74916
 C1087 C 0.91386 0.59615 0.77269
 C1088 C 0.90207 0.58032 0.78432
 C1089 C 0.88911 0.56482 0.77308
 C1090 C 0.88727 0.56546 0.74950
 C1091 C 0.87305 0.54993 0.73902
 C1092 C 0.86271 0.53353 0.75126
 C1093 C 0.86580 0.53222 0.77431
 C1094 C 0.87855 0.54820 0.78525
 H1095 H 0.93994 0.63165 0.76490
 H1096 H 0.94307 0.62180 0.68309
 H1097 H 0.96437 0.65423 0.74312
 H1098 H 0.91500 0.59392 0.68420
 H1099 H 0.89152 0.56950 0.70381
 H1100 H 0.92376 0.60720 0.78270
 H1101 H 0.90338 0.58004 0.80234
 H1102 H 0.86973 0.54975 0.72137
 H1103 H 0.85269 0.52138 0.74260
 H1104 H 0.88096 0.54715 0.80314
 C1105 C 0.75043 0.63239 0.93084
 C1106 C 0.74070 0.61365 0.92093
 C1107 C 0.71745 0.60985 0.92457
 C1108 C 0.70515 0.62319 0.93904
 C1109 C 0.71522 0.64125 0.94948
 C1110 C 0.73783 0.64601 0.94467
 C1111 C 0.70654 0.59260 0.91394
 C1112 C 0.71820 0.57881 0.89985
 C1113 C 0.74159 0.58124 0.89642
 C1114 C 0.75317 0.59853 0.90767
 C1115 C 0.77691 0.59947 0.90619
 C1116 C 0.78895 0.58374 0.89462
 C1117 C 0.77784 0.56699 0.88331
 C1118 C 0.75395 0.56614 0.88314
 C1119 C 0.74341 0.54985 0.87003
 C1120 C 0.75606 0.53385 0.85950
 C1121 C 0.77955 0.53362 0.86142
 C1122 C 0.79045 0.55059 0.87279
 H1123 H 0.76766 0.63714 0.92798
 H1124 H 0.68753 0.61951 0.94198
 H1125 H 0.74609 0.66002 0.95205
 H1126 H 0.68873 0.58968 0.91658
 H1127 H 0.70853 0.56566 0.89273
 H1128 H 0.78681 0.61159 0.91480
 H1129 H 0.80720 0.58461 0.89469
 H1130 H 0.72543 0.54892 0.86768
 H1131 H 0.74739 0.52103 0.85044
 H1132 H 0.80867 0.55049 0.87423
 C1133 C 0.28630 0.40524 0.95572
 C1134 C 0.27248 0.39935 0.93745
 C1135 C 0.27154 0.37717 0.93119
 C1136 C 0.28161 0.36126 0.94479
 C1137 C 0.29471 0.36731 0.96344
 C1138 C 0.29765 0.38952 0.96809
 C1139 C 0.26070 0.37115 0.91135
 C1140 C 0.25133 0.38683 0.89736
 C1141 C 0.25090 0.40893 0.90367
 C1142 C 0.26012 0.41489 0.92484
 C1143 C 0.25591 0.43591 0.93320
 C1144 C 0.24376 0.45092 0.92083
 C1145 C 0.23676 0.44605 0.89914
 C1146 C 0.24096 0.42526 0.88990
 C1147 C 0.23599 0.42206 0.86702
 C1148 C 0.22727 0.43897 0.85399
 C1149 C 0.22176 0.45905 0.86364
 C1150 C 0.22622 0.46217 0.88643
 H1151 H 0.28918 0.42199 0.96034
 H1152 H 0.27985 0.34423 0.94040
 H1153 H 0.30793 0.39487 0.98206
 H1154 H 0.25998 0.35424 0.90630
 H1155 H 0.24343 0.38112 0.88218
 H1156 H 0.26093 0.44080 0.94979
 H1157 H 0.24053 0.46678 0.92802
 H1158 H 0.24006 0.40710 0.85854
 H1159 H 0.22529 0.43646 0.83622
 H1160 H 0.22246 0.47773 0.89407
 C1161 C 0.29592 0.59974 0.06262
 C1162 C 0.27309 0.60234 0.06852
 C1163 C 0.26080 0.61936 0.05829
 C1164 C 0.27165 0.63412 0.04393
 C1165 C 0.29438 0.63121 0.03812
 C1166 C 0.30618 0.61369 0.04753
 C1167 C 0.23766 0.62115 0.06204
 C1168 C 0.22632 0.60583 0.07489
 C1169 C 0.23796 0.58870 0.08548
 C1170 C 0.26192 0.58796 0.08349
 C1171 C 0.27403 0.57304 0.09672
 C1172 C 0.26303 0.55825 0.11023
 C1173 C 0.23958 0.55728 0.11059
 C1174 C 0.22659 0.57234 0.09815
 C1175 C 0.20285 0.56971 0.09817
 C1176 C 0.19266 0.55264 0.10983
 C1177 C 0.20571 0.53815 0.12236
 C1178 C 0.22912 0.54084 0.12290
 H1179 H 0.30607 0.58646 0.06862
 H1180 H 0.26206 0.64723 0.03648
 H1181 H 0.32365 0.61071 0.04339
 H1182 H 0.22808 0.63414 0.05438
 H1183 H 0.20843 0.60813 0.07677
 H1184 H 0.29218 0.57280 0.09742
 H1185 H 0.27302 0.54701 0.12003
 H1186 H 0.19183 0.57993 0.08847
 H1187 H 0.17458 0.55043 0.10864
 H1188 H 0.23930 0.52944 0.13232
 C1189 C 0.74559 0.37144 0.06821
 C1190 C 0.73667 0.39022 0.07859
 C1191 C 0.71325 0.39403 0.07618
 C1192 C 0.69997 0.38077 0.06231
 C1193 C 0.70926 0.36289 0.05109
 C1194 C 0.73204 0.35794 0.05488
 C1195 C 0.70316 0.41132 0.08727
 C1196 C 0.71582 0.42529 0.10049
 C1197 C 0.73939 0.42294 0.10260
 C1198 C 0.75009 0.40545 0.09102
 C1199 C 0.77387 0.40447 0.09133
 C1200 C 0.78676 0.42031 0.10205
 C1201 C 0.77654 0.43728 0.11363
 C1202 C 0.75270 0.43826 0.11492
 C1203 C 0.74315 0.45487 0.12817
 C1204 C 0.75661 0.47083 0.13802
 C1205 C 0.77997 0.47074 0.13525
 C1206 C 0.78996 0.45366 0.12344
 H1207 H 0.76294 0.36666 0.07018
 H1208 H 0.68224 0.38456 0.06022
 H1209 H 0.73973 0.34402 0.04689
 H1210 H 0.68521 0.41422 0.08558
 H1211 H 0.70667 0.43848 0.10799
 H1212 H 0.78310 0.39216 0.08246
 H1213 H 0.80497 0.41933 0.10114
 H1214 H 0.72534 0.45603 0.13129
 H1215 H 0.74865 0.48373 0.14741
 H1216 H 0.80809 0.45353 0.12133
 C1217 C 0.92379 0.69955 0.61259
 C1218 C 0.91932 0.72199 0.61480
 C1219 C 0.93107 0.73367 0.63165
 C1220 C 0.94609 0.72291 0.64615
 C1221 C 0.95096 0.70074 0.64316
 C1222 C 0.93946 0.68929 0.62629
 C1223 C 0.92841 0.75616 0.63335
 C1224 C 0.91541 0.76747 0.61787
 C1225 C 0.90379 0.75655 0.60054
 C1226 C 0.90451 0.73333 0.60004
 C1227 C 0.89049 0.72219 0.58473
 C1228 C 0.87772 0.73330 0.56909
 C1229 C 0.87871 0.75588 0.56780
 C1230 C 0.89159 0.76795 0.58354
 C1231 C 0.89257 0.79083 0.58084
 C1232 C 0.88177 0.80100 0.56289
 C1233 C 0.86927 0.78882 0.54743
 C1234 C 0.86743 0.76634 0.55031
 H1235 H 0.91634 0.68964 0.59967
 H1236 H 0.95500 0.73217 0.65886
 H1237 H 0.94269 0.67219 0.62340
 H1238 H 0.93713 0.76523 0.64630
 H1239 H 0.91452 0.78483 0.62009
 H1240 H 0.88878 0.70476 0.58461
 H1241 H 0.86749 0.72404 0.55742
 H1242 H 0.90245 0.80117 0.59167
 H1243 H 0.88374 0.81836 0.56065
 H1244 H 0.85793 0.75686 0.53820
 C1245 C 0.92822 0.30156 0.39654
 C1246 C 0.91855 0.28101 0.39198
 C1247 C 0.92599 0.26966 0.37282
 C1248 C 0.94152 0.27930 0.35817
 C1249 C 0.95115 0.29969 0.36307
 C1250 C 0.94436 0.31052 0.38253
 C1251 C 0.91831 0.24854 0.36872
 C1252 C 0.90437 0.23802 0.38386
 C1253 C 0.89670 0.24866 0.40325
 C1254 C 0.90257 0.27100 0.40641
 C1255 C 0.89221 0.28264 0.42383
 C1256 C 0.87805 0.27239 0.43882
 C1257 C 0.87422 0.25007 0.43745
 C1258 C 0.88344 0.23780 0.41969
 C1259 C 0.88002 0.21499 0.41987
 C1260 C 0.86865 0.20491 0.43741
 C1261 C 0.85966 0.21723 0.45486
 C1262 C 0.86198 0.23986 0.45438
 H1263 H 0.92439 0.31072 0.41138
 H1264 H 0.94681 0.27044 0.34346
 H1265 H 0.95146 0.32619 0.38702
 H1266 H 0.92374 0.23978 0.35401
 H1267 H 0.89941 0.22164 0.37969
 H1268 H 0.89441 0.29991 0.42604
 H1269 H 0.87067 0.28192 0.45211
 H1270 H 0.88711 0.20441 0.40742
 H1271 H 0.86762 0.18734 0.43778
 H1272 H 0.85528 0.24944 0.46801
 C1273 C 0.06561 0.24806 0.63795
 C1274 C 0.07803 0.25732 0.62023
 C1275 C 0.07755 0.28022 0.61800
 C1276 C 0.06327 0.29283 0.63125
 C1277 C 0.04958 0.28326 0.64754
 C1278 C 0.05178 0.26089 0.65148
 C1279 C 0.09074 0.29048 0.60204
 C1280 C 0.10390 0.27849 0.58756
 C1281 C 0.10380 0.25555 0.58794
 C1282 C 0.09043 0.24476 0.60436
 C1283 C 0.08881 0.22187 0.60348
 C1284 C 0.09916 0.20999 0.58667
 C1285 C 0.11218 0.22030 0.57055
 C1286 C 0.11557 0.24311 0.57158
 C1287 C 0.13015 0.25260 0.55573
 C1288 C 0.13928 0.24027 0.53854
 C1289 C 0.13447 0.21810 0.53662
 C1290 C 0.12132 0.20805 0.55296
 H1291 H 0.06612 0.23096 0.64171
 H1292 H 0.06252 0.31023 0.62846
 H1293 H 0.04192 0.25299 0.66427
 H1294 H 0.09064 0.30803 0.60048
 H1295 H 0.11306 0.28778 0.57542
 H1296 H 0.07865 0.21269 0.61494
 H1297 H 0.09670 0.19253 0.58613
 H1298 H 0.13482 0.26952 0.55606
 H1299 H 0.14975 0.24822 0.52626
 H1300 H 0.11764 0.19083 0.55155
 C1301 C 0.07446 0.69693 0.39877
 C1302 C 0.08386 0.71788 0.39599
 C1303 C 0.07614 0.73049 0.37776
 C1304 C 0.06026 0.72196 0.36257
 C1305 C 0.05059 0.70134 0.36592
 C1306 C 0.05800 0.68899 0.38418
 C1307 C 0.08377 0.75181 0.37520
 C1308 C 0.09786 0.76134 0.39105
 C1309 C 0.10560 0.74958 0.40974
 C1310 C 0.09980 0.72707 0.41131
 C1311 C 0.11010 0.71451 0.42815
 C1312 C 0.12420 0.72395 0.44399
 C1313 C 0.12806 0.74630 0.44408
 C1314 C 0.11884 0.75951 0.42700
 C1315 C 0.12225 0.78226 0.42863
 C1316 C 0.13377 0.79138 0.44679
 C1317 C 0.14288 0.77817 0.46351
 C1318 C 0.14038 0.75560 0.46173
 H1319 H 0.07868 0.68664 0.41268
 H1320 H 0.05461 0.73192 0.34875
 H1321 H 0.05095 0.67305 0.38742
 H1322 H 0.07818 0.76149 0.36116
 H1323 H 0.10280 0.77794 0.38801
 H1324 H 0.10787 0.69717 0.42929
 H1325 H 0.13153 0.71371 0.45678
 H1326 H 0.11513 0.79353 0.41684
 H1327 H 0.13486 0.80890 0.44820
 H1328 H 0.14711 0.74531 0.47481
 C1329 C 0.63730 0.94498 0.75585
 C1330 C 0.62141 0.93006 0.74679
 C1331 C 0.62053 0.92789 0.72327
 C1332 C 0.63379 0.94117 0.70962
 C1333 C 0.64823 0.95685 0.71885
 C1334 C 0.65044 0.95813 0.74204
 C1335 C 0.60588 0.91300 0.71334
 C1336 C 0.59105 0.90094 0.72610
 C1337 C 0.59001 0.90352 0.74946
 C1338 C 0.60585 0.91787 0.76007
 C1339 C 0.60500 0.92017 0.78348
 C1340 C 0.58859 0.90978 0.79598
 C1341 C 0.57240 0.89658 0.78578
 C1342 C 0.57315 0.89280 0.76245
 C1343 C 0.55637 0.87909 0.75302
 C1344 C 0.53913 0.87051 0.76601
 C1345 C 0.53813 0.87497 0.78880
 C1346 C 0.55500 0.88769 0.79872
 H1347 H 0.63964 0.94731 0.77349
 H1348 H 0.63227 0.93979 0.69165
 H1349 H 0.66162 0.97004 0.74958
 H1350 H 0.60550 0.91098 0.69539
 H1351 H 0.58023 0.89004 0.71692
 H1352 H 0.61651 0.93037 0.79270
 H1353 H 0.58826 0.91251 0.81383
 H1354 H 0.55565 0.87503 0.73558
 H1355 H 0.52615 0.86070 0.75812
 H1356 H 0.55408 0.89126 0.81640
 C1357 C 0.40633 0.95968 0.26880
 C1358 C 0.40257 0.93780 0.26246
 C1359 C 0.38383 0.92680 0.27180
 C1360 C 0.36877 0.93791 0.28585
 C1361 C 0.37293 0.95955 0.29183
 C1362 C 0.39184 0.97021 0.28342
 C1363 C 0.38054 0.90473 0.26743
 C1364 C 0.39597 0.89309 0.25477
 C1365 C 0.41486 0.90335 0.24514
 C1366 C 0.41730 0.92632 0.24785
 C1367 C 0.43421 0.93714 0.23568
 C1368 C 0.44922 0.92575 0.22246
 C1369 C 0.44842 0.90315 0.22134
 C1370 C 0.43136 0.89152 0.23276
 C1371 C 0.43220 0.86851 0.23206
 C1372 C 0.44941 0.85770 0.22073
 C1373 C 0.46588 0.86938 0.20917
 C1374 C 0.46505 0.89211 0.20933
 H1375 H 0.42081 0.96885 0.26344
 H1376 H 0.35431 0.92956 0.29276
 H1377 H 0.39537 0.98690 0.28814
 H1378 H 0.36620 0.89622 0.27437
 H1379 H 0.39235 0.87607 0.25229
 H1380 H 0.43593 0.95457 0.23561
 H1381 H 0.46200 0.93474 0.21349
 H1382 H 0.42046 0.85845 0.24102
 H1383 H 0.45019 0.84013 0.22145
 H1384 H 0.47800 0.90123 0.20072
 C1385 C 0.63440 0.04937 0.24158
 C1386 C 0.61732 0.06245 0.25111
 C1387 C 0.61576 0.06283 0.27469
 C1388 C 0.62971 0.04960 0.28784
 C1389 C 0.64591 0.03618 0.27808
 C1390 C 0.64846 0.03655 0.25491
 C1391 C 0.60010 0.07618 0.28510
 C1392 C 0.58562 0.08907 0.27270
 C1393 C 0.58582 0.08877 0.24917
 C1394 C 0.60167 0.07497 0.23816
 C1395 C 0.60073 0.07350 0.21467
 C1396 C 0.58458 0.08468 0.20238
 C1397 C 0.56909 0.09824 0.21284
 C1398 C 0.57000 0.10110 0.23631
 C1399 C 0.55465 0.11592 0.24598
 C1400 C 0.53810 0.12601 0.23314
 C1401 C 0.53641 0.12202 0.21026
 C1402 C 0.55225 0.10851 0.20005
 H1403 H 0.63742 0.04873 0.22391
 H1404 H 0.62792 0.04975 0.30582
 H1405 H 0.66104 0.02648 0.24698
 H1406 H 0.59892 0.07659 0.30312
 H1407 H 0.57383 0.09853 0.28220
 H1408 H 0.61175 0.06314 0.20525
 H1409 H 0.58410 0.08252 0.18445
 H1410 H 0.55481 0.12000 0.26344
 H1411 H 0.52608 0.13660 0.24124
 H1412 H 0.55095 0.10542 0.18229
 C1413 C 0.35528 0.07014 0.75651
 C1414 C 0.36954 0.08558 0.74608
 C1415 C 0.36824 0.08723 0.72255
 C1416 C 0.35483 0.07279 0.71011
 C1417 C 0.34230 0.05652 0.72061
 C1418 C 0.34192 0.05586 0.74390
 C1419 C 0.38100 0.10271 0.71136
 C1420 C 0.39613 0.11588 0.72280
 C1421 C 0.39949 0.11378 0.74601
 C1422 C 0.38560 0.09875 0.75796
 C1423 C 0.38903 0.09665 0.78117
 C1424 C 0.40619 0.10783 0.79214
 C1425 C 0.42050 0.12175 0.78058
 C1426 C 0.41696 0.12550 0.75749
 C1427 C 0.43175 0.14015 0.74668
 C1428 C 0.44999 0.14942 0.75798
 C1429 C 0.45394 0.14479 0.78042
 C1430 C 0.43888 0.13135 0.79182
 H1431 H 0.35447 0.06826 0.77432
 H1432 H 0.35485 0.07365 0.69205
 H1433 H 0.33219 0.04351 0.75239
 H1434 H 0.37969 0.10433 0.69341
 H1435 H 0.40548 0.12710 0.71269
 H1436 H 0.37915 0.08588 0.79133
 H1437 H 0.40862 0.10514 0.80984
 H1438 H 0.43015 0.14444 0.72938
 H1439 H 0.46151 0.15984 0.74897
 H1440 H 0.44207 0.12766 0.80922
 C1441 C 0.63565 0.74614 0.04968
 C1442 C 0.61857 0.73644 0.06278
 C1443 C 0.61648 0.71349 0.06196
 C1444 C 0.62992 0.70114 0.04756
 C1445 C 0.64612 0.71110 0.03413
 C1446 C 0.64920 0.73361 0.03568
 C1447 C 0.60081 0.70291 0.07531
 C1448 C 0.58682 0.71457 0.08935
 C1449 C 0.58754 0.73750 0.09023
 C1450 C 0.60341 0.74865 0.07645
 C1451 C 0.60299 0.77160 0.07613
 C1452 C 0.58730 0.78326 0.08837
 C1453 C 0.57179 0.77264 0.10190
 C1454 C 0.57219 0.74965 0.10368
 C1455 C 0.55682 0.73978 0.11853
 C1456 C 0.54070 0.75206 0.12968
 C1457 C 0.53951 0.77455 0.12671
 C1458 C 0.55539 0.78484 0.11318
 H1459 H 0.63909 0.76333 0.04993
 H1460 H 0.62776 0.68364 0.04681
 H1461 H 0.66182 0.74166 0.02565
 H1462 H 0.59924 0.68536 0.07483
 H1463 H 0.57498 0.70503 0.09872
 H1464 H 0.61405 0.78112 0.06585
 H1465 H 0.58718 0.80082 0.08705
 H1466 H 0.55663 0.72259 0.12184
 H1467 H 0.52864 0.74388 0.14027
 H1468 H 0.55444 0.80228 0.11082
 C1469 C 0.35949 0.24693 0.05449
 C1470 C 0.37444 0.25447 0.07139
 C1471 C 0.37366 0.27688 0.07689
 C1472 C 0.35981 0.29114 0.06488
 C1473 C 0.34635 0.28364 0.04722
 C1474 C 0.34571 0.26134 0.04264
 C1475 C 0.38727 0.28520 0.09386
 C1476 C 0.40257 0.27206 0.10492
 C1477 C 0.40519 0.24994 0.09919
 C1478 C 0.39058 0.24085 0.08247
 C1479 C 0.39318 0.21870 0.07684
 C1480 C 0.41003 0.20608 0.08643
 C1481 C 0.42490 0.21489 0.10211
 C1482 C 0.42243 0.23681 0.10911
 C1483 C 0.43787 0.24486 0.12527
 C1484 C 0.45542 0.23201 0.13328
 C1485 C 0.45812 0.21069 0.12577
 C1486 C 0.44265 0.20204 0.11043
 H1487 H 0.35838 0.23010 0.04963
 H1488 H 0.36013 0.30836 0.06879
 H1489 H 0.33534 0.25513 0.02913
 H1490 H 0.38642 0.30225 0.09838
 H1491 H 0.41248 0.28002 0.11760
 H1492 H 0.38276 0.21064 0.06460
 H1493 H 0.41167 0.18929 0.08118
 H1494 H 0.43724 0.26112 0.13186
 H1495 H 0.46728 0.23889 0.14517
 H1496 H 0.44485 0.18551 0.10454
 C1497 C 0.60949 0.30565 0.93095
 C1498 C 0.61001 0.28302 0.92676
 C1499 C 0.62433 0.27009 0.94027
 C1500 C 0.63814 0.27976 0.95671
 C1501 C 0.63714 0.30219 0.96071
 C1502 C 0.62270 0.31494 0.94771
 C1503 C 0.62437 0.24755 0.93766
 C1504 C 0.60967 0.23743 0.92272
 C1505 C 0.59478 0.24959 0.90923
 C1506 C 0.59606 0.27279 0.91029
 C1507 C 0.58330 0.28502 0.89490
 C1508 C 0.56826 0.27508 0.88032
 C1509 C 0.56509 0.25266 0.88070
 C1510 C 0.57843 0.23946 0.89491
 C1511 C 0.57394 0.21681 0.89499
 C1512 C 0.55627 0.20800 0.88230
 C1513 C 0.54295 0.22133 0.86878
 C1514 C 0.54789 0.24351 0.86758
 H1515 H 0.59842 0.31656 0.92217
 H1516 H 0.64906 0.26974 0.96693
 H1517 H 0.62159 0.33230 0.95051
 H1518 H 0.63543 0.23755 0.94773
 H1519 H 0.61056 0.21996 0.92190
 H1520 H 0.58472 0.30242 0.89354
 H1521 H 0.55847 0.28518 0.86912
 H1522 H 0.58292 0.20565 0.90559
 H1523 H 0.55235 0.19086 0.88380
 H1524 H 0.53736 0.25388 0.85731
 C1525 C 0.38578 0.70534 0.92244
 C1526 C 0.38750 0.72823 0.92418
 C1527 C 0.37399 0.73880 0.94034
 C1528 C 0.35926 0.72675 0.95391
 C1529 C 0.35848 0.70404 0.95237
 C1530 C 0.37168 0.69356 0.93642
 C1531 C 0.37584 0.76123 0.94337
 C1532 C 0.39159 0.77329 0.93155
 C1533 C 0.40587 0.76343 0.91573
 C1534 C 0.40289 0.74076 0.91115
 C1535 C 0.41554 0.73129 0.89382
 C1536 C 0.43175 0.74305 0.88248
 C1537 C 0.43615 0.76464 0.88797
 C1538 C 0.42318 0.77535 0.90446
 C1539 C 0.42875 0.79727 0.90949
 C1540 C 0.44671 0.80774 0.89892
 C1541 C 0.45943 0.79682 0.88290
 C1542 C 0.45389 0.77542 0.87731
 H1543 H 0.39579 0.69587 0.91112
 H1544 H 0.34930 0.73493 0.96648
 H1545 H 0.37137 0.67601 0.93495
 H1546 H 0.36542 0.76947 0.95551
 H1547 H 0.39209 0.79045 0.93511
 H1548 H 0.41322 0.71473 0.88843
 H1549 H 0.44131 0.73496 0.86956
 H1550 H 0.42010 0.80655 0.92203
 H1551 H 0.45105 0.82424 0.90361
 H1552 H 0.46394 0.76695 0.86500
 C1553 C 0.75338 0.94208 0.36581
 C1554 C 0.74277 0.92920 0.38227
 C1555 C 0.71888 0.92941 0.38296
 C1556 C 0.70646 0.94306 0.36881
 C1557 C 0.71729 0.95622 0.35317
 C1558 C 0.74078 0.95525 0.35147
 C1559 C 0.70744 0.91617 0.39793
 C1560 C 0.71911 0.90280 0.41251
 C1561 C 0.74290 0.90254 0.41316
 C1562 C 0.75495 0.91630 0.39812
 C1563 C 0.77867 0.91736 0.40007
 C1564 C 0.79018 0.90587 0.41646
 C1565 C 0.77870 0.89232 0.43114
 C1566 C 0.75500 0.88977 0.42913
 C1567 C 0.74433 0.87485 0.44359
 C1568 C 0.75637 0.86451 0.46049
 C1569 C 0.77943 0.86837 0.46342
 C1570 C 0.79067 0.88183 0.44833
 H1571 H 0.77135 0.94222 0.36343
 H1572 H 0.68822 0.94337 0.36989
 H1573 H 0.74951 0.96509 0.33931
 H1574 H 0.68918 0.91620 0.39845
 H1575 H 0.70887 0.89347 0.42374
 H1576 H 0.78883 0.92772 0.38973
 H1577 H 0.80831 0.90778 0.41778
 H1578 H 0.72667 0.87091 0.44246
 H1579 H 0.74748 0.85393 0.47188
 H1580 H 0.80856 0.88483 0.45058
 C1581 C 0.30280 0.93008 0.62178
 C1582 C 0.27953 0.92521 0.61999
 C1583 C 0.26450 0.93708 0.63368
 C1584 C 0.27269 0.95281 0.64875
 C1585 C 0.29573 0.95777 0.64980
 C1586 C 0.31064 0.94620 0.63628
 C1587 C 0.24132 0.93366 0.63178
 C1588 C 0.23258 0.91951 0.61582
 C1589 C 0.24679 0.90772 0.60141
 C1590 C 0.27064 0.90966 0.60446
 C1591 C 0.28483 0.89605 0.59183
 C1592 C 0.27617 0.88208 0.57573
 C1593 C 0.25312 0.88136 0.57124
 C1594 C 0.23800 0.89410 0.58399
 C1595 C 0.21485 0.89333 0.57807
 C1596 C 0.20727 0.88072 0.56009
 C1597 C 0.22234 0.86813 0.54777
 C1598 C 0.24520 0.86836 0.55361
 H1599 H 0.31534 0.92240 0.61156
 H1600 H 0.26099 0.96195 0.65892
 H1601 H 0.32852 0.94980 0.63672
 H1602 H 0.22974 0.94247 0.64236
 H1603 H 0.21450 0.91792 0.61537
 H1604 H 0.30282 0.89558 0.59420
 H1605 H 0.28775 0.87211 0.56628
 H1606 H 0.20230 0.90299 0.58635
 H1607 H 0.18962 0.88123 0.55541
 H1608 H 0.25696 0.85889 0.54382
 C1609 C 0.30253 0.06593 0.39544
 C1610 C 0.27894 0.06885 0.39390
 C1611 C 0.26668 0.05503 0.37925
 C1612 C 0.27795 0.03962 0.36600
 C1613 C 0.30137 0.03706 0.36776
 C1614 C 0.31342 0.05029 0.38266
 C1615 C 0.24323 0.05645 0.37818
 C1616 C 0.23157 0.07065 0.39201
 C1617 C 0.24302 0.08456 0.40705
 C1618 C 0.26713 0.08448 0.40704
 C1619 C 0.27870 0.10005 0.42012
 C1620 C 0.26726 0.11399 0.43421
 C1621 C 0.24392 0.11287 0.43602
 C1622 C 0.23130 0.09841 0.42232
 C1623 C 0.20759 0.09778 0.42531
 C1624 C 0.19724 0.11020 0.44193
 C1625 C 0.21008 0.12386 0.45569
 C1626 C 0.23326 0.12559 0.45219
 H1627 H 0.31304 0.07499 0.40685
 H1628 H 0.26842 0.02926 0.35471
 H1629 H 0.33151 0.04863 0.38444
 H1630 H 0.23372 0.04608 0.36690
 H1631 H 0.21349 0.07056 0.39032
 H1632 H 0.29672 0.10206 0.41969
 H1633 H 0.27690 0.12538 0.44429
 H1634 H 0.19673 0.08709 0.41587
 H1635 H 0.17931 0.10845 0.44469
 H1636 H 0.24320 0.13606 0.46303
 C1637 C 0.69369 0.07411 0.61182
 C1638 C 0.71722 0.07763 0.61022
 C1639 C 0.73149 0.06577 0.62478
 C1640 C 0.72234 0.05156 0.64067
 C1641 C 0.69905 0.04801 0.64165
 C1642 C 0.68487 0.05939 0.62713
 C1643 C 0.75484 0.06769 0.62300
 C1644 C 0.76443 0.08034 0.60640
 C1645 C 0.75096 0.09217 0.59125
 C1646 C 0.72704 0.09182 0.59409
 C1647 C 0.71374 0.10570 0.58077
 C1648 C 0.72328 0.11852 0.56434
 C1649 C 0.74633 0.11767 0.56013
 C1650 C 0.76057 0.10442 0.57339
 C1651 C 0.78367 0.10336 0.56761
 C1652 C 0.79207 0.11493 0.54942
 C1653 C 0.77792 0.12829 0.53677
 C1654 C 0.75511 0.12967 0.54233
 H1655 H 0.68168 0.08178 0.60088
 H1656 H 0.73345 0.04247 0.65159
 H1657 H 0.66682 0.05676 0.62749
 H1658 H 0.76585 0.05886 0.63422
 H1659 H 0.78258 0.08086 0.60610
 H1660 H 0.69582 0.10736 0.58294
 H1661 H 0.71238 0.12886 0.55445
 H1662 H 0.79549 0.09305 0.57620
 H1663 H 0.80962 0.11313 0.54492
 H1664 H 0.74403 0.13969 0.53227
 C1665 C 0.94156 0.64367 0.25415
 C1666 C 0.92574 0.62895 0.26338
 C1667 C 0.92250 0.62973 0.28677
 C1668 C 0.93592 0.64323 0.30028
 C1669 C 0.95273 0.65631 0.29101
 C1670 C 0.95483 0.65708 0.26781
 C1671 C 0.90651 0.61641 0.29676
 C1672 C 0.89434 0.60142 0.28429
 C1673 C 0.89800 0.59878 0.26121
 C1674 C 0.91368 0.61302 0.25048
 C1675 C 0.91752 0.61019 0.22744
 C1676 C 0.90721 0.59352 0.21547
 C1677 C 0.89245 0.57912 0.22581
 C1678 C 0.88714 0.58185 0.24869
 C1679 C 0.87167 0.56700 0.25822
 C1680 C 0.86281 0.54977 0.24585
 C1681 C 0.86875 0.54679 0.22358
 C1682 C 0.88338 0.56163 0.21351
 H1683 H 0.94453 0.64488 0.23651
 H1684 H 0.93392 0.64284 0.31823
 H1685 H 0.96761 0.66720 0.26024
 H1686 H 0.90369 0.61725 0.31458
 H1687 H 0.88262 0.59165 0.29355
 H1688 H 0.92900 0.62024 0.21819
 H1689 H 0.91115 0.59166 0.19796
 H1690 H 0.86622 0.56796 0.27526
 H1691 H 0.85145 0.53842 0.25383
 H1692 H 0.88806 0.55923 0.19624
 C1693 C 0.92470 0.38040 0.69544
 C1694 C 0.92146 0.38161 0.71877
 C1695 C 0.93413 0.36731 0.73244
 C1696 C 0.94905 0.35226 0.72290
 C1697 C 0.95250 0.35183 0.69984
 C1698 C 0.94011 0.36590 0.68625
 C1699 C 0.93242 0.36859 0.75557
 C1700 C 0.91933 0.38453 0.76557
 C1701 C 0.90690 0.39954 0.75272
 C1702 C 0.90690 0.39717 0.72899
 C1703 C 0.89244 0.41049 0.71626
 C1704 C 0.87958 0.42658 0.72616
 C1705 C 0.88090 0.43035 0.74904
 C1706 C 0.89452 0.41692 0.76274
 C1707 C 0.89587 0.42208 0.78576
 C1708 C 0.88440 0.43995 0.79454
 C1709 C 0.87091 0.45294 0.78085
 C1710 C 0.86906 0.44790 0.75817
 H1711 H 0.91636 0.39107 0.68386
 H1712 H 0.95889 0.34165 0.73357
 H1713 H 0.94260 0.36593 0.66837
 H1714 H 0.94182 0.35754 0.76612
 H1715 H 0.91907 0.38451 0.78352
 H1716 H 0.89042 0.40869 0.69850
 H1717 H 0.86889 0.43657 0.71568
 H1718 H 0.90636 0.41321 0.79725
 H1719 H 0.88647 0.44395 0.81203
 H1720 H 0.85885 0.45816 0.74748
 C1721 C 0.06696 0.63191 0.74201
 C1722 C 0.07909 0.61504 0.73133
 C1723 C 0.07659 0.61300 0.70790
 C1724 C 0.06145 0.62626 0.69614
 C1725 C 0.04866 0.64202 0.70718
 C1726 C 0.05204 0.64512 0.73008
 C1727 C 0.08877 0.59737 0.69630
 C1728 C 0.10290 0.58310 0.70744
 C1729 C 0.10514 0.58357 0.73088
 C1730 C 0.09311 0.59987 0.74305
 C1731 C 0.09478 0.59987 0.76654
 C1732 C 0.10698 0.58406 0.77784
 C1733 C 0.11836 0.56782 0.76627
 C1734 C 0.11824 0.56771 0.74262
 C1735 C 0.13074 0.55125 0.73174
 C1736 C 0.14141 0.53487 0.74382
 C1737 C 0.14036 0.53443 0.76707
 C1738 C 0.12926 0.55123 0.77826
 H1739 H 0.06840 0.63522 0.75959
 H1740 H 0.05927 0.62399 0.67833
 H1741 H 0.04254 0.65734 0.73900
 H1742 H 0.08711 0.59592 0.67835
 H1743 H 0.11129 0.57137 0.69709
 H1744 H 0.08620 0.61150 0.77686
 H1745 H 0.10718 0.58436 0.79590
 H1746 H 0.13237 0.55027 0.71392
 H1747 H 0.15008 0.52207 0.73491
 H1748 H 0.12836 0.55087 0.79630
 C1749 C 0.05387 0.36689 0.25089
 C1750 C 0.06899 0.38230 0.26036
 C1751 C 0.07105 0.38273 0.28391
 C1752 C 0.05746 0.36939 0.29720
 C1753 C 0.04167 0.35521 0.28758
 C1754 C 0.04047 0.35361 0.26434
 C1755 C 0.08621 0.39689 0.29422
 C1756 C 0.09886 0.41138 0.28181
 C1757 C 0.09659 0.41259 0.25841
 C1758 C 0.08163 0.39762 0.24744
 C1759 C 0.07919 0.39903 0.22406
 C1760 C 0.09017 0.41501 0.21190
 C1761 C 0.10424 0.43010 0.22240
 C1762 C 0.10817 0.42881 0.24571
 C1763 C 0.12300 0.44431 0.25541
 C1764 C 0.13238 0.46095 0.24273
 C1765 C 0.12765 0.46260 0.21997
 C1766 C 0.11390 0.44692 0.20978
 H1767 H 0.05168 0.36489 0.23318
 H1768 H 0.05882 0.37047 0.31521
 H1769 H 0.02853 0.34263 0.25648
 H1770 H 0.08807 0.39703 0.31221
 H1771 H 0.10988 0.42184 0.29129
 H1772 H 0.06836 0.38835 0.21461
 H1773 H 0.08729 0.41578 0.19406
 H1774 H 0.12746 0.44438 0.27282
 H1775 H 0.14304 0.47295 0.25084
 H1776 H 0.11011 0.44830 0.19213
   
