data_POSCAR
  _audit_creation_date              2014-09-24
  _audit_creation_method            'ToBaCCo'
  _symmetry_space_group_name_H-M    'P1'
  _symmetry_Int_Tables_number       1
  _symmetry_cell_setting            triclinic
  loop_
  _symmetry_equiv_pos_as_xyz
 x,y,z
_cell_length_a 57.4079
_cell_length_b 57.4162
_cell_length_c 57.5082
_cell_angle_alpha 89.940300
_cell_angle_beta 89.898900
_cell_angle_gamma 90.048700
loop_
  _atom_site_label
  _atom_site_type_symbol
  _atom_site_fract_x
  _atom_site_fract_y
  _atom_site_fract_z
C1 C 0.35789 1.35658 0.32645
 C2 C 0.33791 1.36674 0.33663
 C3 C 0.32835 1.35845 0.35779
 C4 C 0.33939 1.33940 0.36871
 C5 C 0.35932 1.32910 0.35910
 C6 C 0.36842 1.33777 0.33819
 H7 H 0.32854 1.37984 0.32697
 H8 H 0.33338 1.33308 0.38540
 H9 H 0.38414 1.32989 0.33148
 C10 C 0.35422 0.85749 0.82735
 C11 C 0.33652 0.86931 0.83943
 C12 C 0.32715 0.86048 0.86039
 C13 C 0.33676 0.83971 0.86935
 C14 C 0.35449 0.82765 0.85754
 C15 C 0.36313 0.83671 0.83657
 H16 H 0.32946 0.88491 0.83168
 H17 H 0.33113 0.83312 0.88606
 H18 H 0.37618 0.82711 0.82692
 C19 C 0.85677 1.35637 0.82682
 C20 C 0.86759 1.33763 0.83802
 C21 C 0.85914 1.32939 0.85940
 C22 C 0.83979 1.34031 0.86970
 C23 C 0.82858 1.35936 0.85888
 C24 C 0.83747 1.36710 0.83729
 H25 H 0.88247 1.32929 0.82994
 H26 H 0.83392 1.33400 0.88643
 H27 H 0.82902 1.38103 0.82787
 C28 C 0.86046 0.86119 0.33066
 C29 C 0.84047 0.87085 0.34130
 C30 C 0.83092 0.86136 0.36172
 C31 C 0.84136 0.84169 0.37167
 C32 C 0.86105 0.83147 0.36145
 C33 C 0.87043 0.84122 0.34105
 H34 H 0.83130 0.88511 0.33315
 H35 H 0.83409 0.83426 0.38741
 H36 H 0.88630 0.83376 0.33418
 C37 C 0.64320 0.64441 0.32523
 C38 C 0.66358 0.63430 0.33422
 C39 C 0.67487 0.64397 0.35365
 C40 C 0.66543 0.66394 0.36410
 C41 C 0.64498 0.67413 0.35551
 C42 C 0.63378 0.66408 0.33634
 H43 H 0.67100 0.61919 0.32576
 H44 H 0.67427 0.67194 0.37868
 H45 H 0.61808 0.67206 0.32964
 C46 C 0.64514 0.14311 0.82531
 C47 C 0.63502 0.16349 0.83464
 C48 C 0.64531 0.17540 0.85339
 C49 C 0.66594 0.16671 0.86317
 C50 C 0.67617 0.14632 0.85455
 C51 C 0.66536 0.13443 0.83620
 H52 H 0.61962 0.17093 0.82684
 H53 H 0.67456 0.17634 0.87686
 H54 H 0.67269 0.11792 0.83093
 C55 C 1.14045 0.64147 0.82706
 C56 C 1.16106 0.63213 0.83632
 C57 C 1.17329 0.64376 0.85399
 C58 C 1.16443 0.66484 0.86262
 C59 C 1.14370 0.67431 0.85378
 C60 C 1.13177 0.66249 0.83605
 H61 H 1.16784 0.61596 0.82940
 H62 H 1.17383 0.67411 0.87605
 H63 H 1.11593 0.66988 0.82898
 C64 C 1.14157 0.13921 0.32801
 C65 C 1.13223 0.15983 0.33741
 C66 C 1.14353 0.17197 0.35528
 C67 C 1.16438 0.16311 0.36441
 C68 C 1.17434 0.14241 0.35569
 C69 C 1.16247 0.13060 0.33766
 H70 H 1.11555 0.16622 0.33151
 H71 H 1.17349 0.17336 0.37727
 H72 H 1.16975 0.11473 0.33087
 C73 C 0.63875 1.36010 0.66973
 C74 C 0.62932 1.34020 0.65924
 C75 C 0.64068 1.32948 0.64045
 C76 C 0.66183 1.33887 0.63230
 C77 C 0.67184 1.35886 0.64257
 C78 C 0.65980 1.36929 0.66130
 H79 H 0.61284 1.33336 0.66541
 H80 H 0.67102 1.32957 0.61878
 H81 H 0.66637 1.38498 0.66931
 C82 C 0.64275 0.85636 1.17260
 C83 C 0.66156 0.86759 1.16171
 C84 C 0.67007 0.85970 1.14019
 C85 C 0.65933 0.84052 1.12944
 C86 C 0.64049 0.82905 1.14009
 C87 C 0.63238 0.83709 1.16171
 H88 H 0.66974 0.88237 1.17010
 H89 H 0.66582 0.83439 1.11285
 H90 H 0.61802 0.82826 1.17020
 C91 C 1.14071 1.35749 1.17224
 C92 C 1.16169 1.36695 1.16345
 C93 C 1.17283 1.35781 1.14346
 C94 C 1.16207 1.33892 1.13200
 C95 C 1.14105 1.32949 1.14010
 C96 C 1.13051 1.33886 1.15996
 H97 H 1.16957 1.38139 1.17242
 H98 H 1.17025 1.33076 1.11715
 H99 H 1.11405 1.33155 1.16550
 C100 C 1.14186 0.85728 0.67228
 C101 C 1.16059 0.86856 0.66133
 C102 C 1.16928 0.86053 0.63992
 C103 C 1.15872 0.84114 0.62935
 C104 C 1.13993 0.82963 0.64006
 C105 C 1.13168 0.83783 0.66156
 H106 H 1.16896 0.88308 0.66996
 H107 H 1.16492 0.83522 0.61258
 H108 H 1.11738 0.82895 0.67012
 C109 C 0.36238 0.63707 0.66783
 C110 C 0.34208 0.62726 0.65837
 C111 C 0.33122 0.63684 0.63850
 C112 C 0.34130 0.65701 0.62852
 C113 C 0.36159 0.66705 0.63780
 C114 C 0.37202 0.65693 0.65740
 H115 H 0.33419 0.61283 0.66755
 H116 H 0.33427 0.66444 0.61275
 H117 H 0.38766 0.66460 0.66460
 C118 C 0.35534 0.14500 1.17518
 C119 C 0.36391 0.16552 1.16494
 C120 C 0.35452 0.17395 1.14402
 C121 C 0.33640 0.16148 1.13336
 C122 C 0.32731 0.14115 1.14353
 C123 C 0.33709 0.13288 1.16434
 H124 H 0.37772 0.17510 1.17347
 H125 H 0.32941 0.16752 1.11695
 H126 H 0.32986 0.11755 1.17266
 C127 C 0.85767 0.64267 1.17464
 C128 C 0.86630 0.66353 1.16467
 C129 C 0.85406 0.67516 1.14704
 C130 C 0.83309 0.66582 1.13893
 C131 C 0.82426 0.64504 1.14811
 C132 C 0.83661 0.63348 1.16571
 H133 H 0.88169 0.67191 1.17152
 H134 H 0.82374 0.67460 1.12511
 H135 H 0.82967 0.61716 1.17209
 C136 C 0.85581 0.14498 0.67538
 C137 C 0.86432 0.16521 0.66425
 C138 C 0.85434 0.17355 0.64366
 C139 C 0.83574 0.16135 0.63369
 C140 C 0.82638 0.14124 0.64424
 C141 C 0.83682 0.13322 0.66501
 H142 H 0.87906 0.17455 0.67125
 H143 H 0.82925 0.16730 0.61707
 H144 H 0.82873 0.11901 0.67431
 C145 C 1.35568 0.35586 0.67404
 C146 C 1.33501 0.36413 0.66407
 C147 C 1.32653 0.35458 0.64333
 C148 C 1.33905 0.33655 0.63256
 C149 C 1.35961 0.32739 0.64245
 C150 C 1.36790 0.33769 0.66317
 H151 H 1.32537 0.37786 0.67267
 H152 H 1.33296 0.33031 0.61591
 H153 H 1.38297 0.33071 0.67200
 C154 C 1.35420 0.85449 1.17531
 C155 C 1.33353 0.86285 1.16542
 C156 C 1.32492 0.85339 1.14470
 C157 C 1.33730 0.83531 1.13386
 C158 C 1.35789 0.82606 1.14362
 C159 C 1.36631 0.83629 1.16434
 H160 H 1.32400 0.87664 1.17407
 H161 H 1.33111 0.82914 1.11722
 H162 H 1.38142 0.82926 1.17307
 C163 C 0.86065 0.36209 1.16942
 C164 C 0.84128 0.37190 1.15836
 C165 C 0.83152 0.36137 1.13867
 C166 C 0.84149 0.34083 1.12988
 C167 C 0.86130 0.33065 1.14042
 C168 C 0.87049 0.34162 1.16042
 H169 H 0.83332 0.38741 1.16555
 H170 H 0.83434 0.33369 1.11403
 H171 H 0.88502 0.33408 1.16967
 C172 C 0.85523 0.85776 0.67350
 C173 C 0.83733 0.86862 0.66087
 C174 C 0.82846 0.85852 0.64049
 C175 C 0.83804 0.83753 0.63242
 C176 C 0.85608 0.82651 0.64467
 C177 C 0.86452 0.83671 0.66520
 H178 H 0.82996 0.88481 0.66711
 H179 H 0.83123 0.82959 0.61675
 H180 H 0.87819 0.82805 0.67487
 C181 C 0.63979 0.63975 0.66949
 C182 C 0.62889 0.65849 0.65818
 C183 C 0.63953 0.66951 0.63909
 C184 C 0.66119 0.66138 0.63109
 C185 C 0.67232 0.64268 0.64219
 C186 C 0.66152 0.63200 0.66136
 H187 H 0.61222 0.66472 0.66443
 H188 H 0.66953 0.66980 0.61640
 H189 H 0.67022 0.61774 0.67010
 C190 C 0.63968 1.14170 1.17183
 C191 C 0.63156 1.16282 1.16253
 C192 C 0.64346 1.17412 1.14412
 C193 C 0.66390 1.16344 1.13540
 C194 C 0.67230 1.14243 1.14467
 C195 C 0.65990 1.13159 1.16268
 H196 H 0.61637 1.17065 1.17043
 H197 H 0.67337 1.17110 1.12108
 H198 H 0.66623 1.11538 1.16994
 C199 C 0.14130 0.63977 1.17175
 C200 C 0.13179 0.66055 1.16265
 C201 C 0.14164 0.67208 1.14324
 C202 C 0.16128 0.66188 1.13258
 C203 C 0.17091 0.64107 1.14096
 C204 C 0.16088 0.63019 1.16041
 H205 H 0.11553 0.66683 1.16967
 H206 H 0.17016 0.67067 1.11849
 H207 H 0.16907 0.61459 1.16699
 C208 C 0.13823 1.13828 0.66876
 C209 C 0.12776 1.15775 0.65820
 C210 C 0.13706 1.16777 0.63769
 C211 C 0.15725 1.15750 0.62806
 C212 C 0.16791 1.13812 0.63840
 C213 C 0.15840 1.12872 0.65879
 H214 H 0.11163 1.16418 0.66548
 H215 H 0.16580 1.16523 0.61317
 H216 H 0.16674 1.11387 0.66687
 C217 C 1.35761 0.64285 0.32703
 C218 C 1.33952 0.63061 0.33796
 C219 C 1.33003 0.63860 0.35894
 C220 C 1.33891 0.65898 0.36907
 C221 C 1.35699 0.67188 0.35841
 C222 C 1.36626 0.66330 0.33731
 H223 H 1.33259 0.61500 0.32996
 H224 H 1.33166 0.66443 0.38555
 H225 H 1.37966 0.67284 0.32811
 C226 C 1.35929 1.14118 0.82927
 C227 C 1.33812 1.13301 0.83834
 C228 C 1.32745 1.14426 0.85713
 C229 C 1.33826 1.16379 0.86708
 C230 C 1.35963 1.17249 0.85845
 C231 C 1.36994 1.16074 0.83943
 H232 H 1.32945 1.11836 0.83022
 H233 H 1.33023 1.17139 0.88230
 H234 H 1.38591 1.16709 0.83176
 C235 C 0.86280 0.63839 0.83074
 C236 C 0.87212 0.65892 0.84017
 C237 C 0.86219 0.66921 0.86004
 C238 C 0.84244 0.65885 0.87023
 C239 C 0.83286 0.63833 0.86097
 C240 C 0.84322 0.62820 0.84130
 H241 H 0.88719 0.66685 0.83203
 H242 H 0.83487 0.66637 0.88576
 H243 H 0.83559 0.61270 0.83375
 C244 C 0.86003 1.13911 0.33076
 C245 C 0.84111 1.12803 0.34166
 C246 C 0.82966 1.13849 0.36052
 C247 C 0.83759 1.16009 0.36873
 C248 C 0.85651 1.17146 0.35811
 C249 C 0.86762 1.16083 0.33909
 H250 H 0.83470 1.11165 0.33484
 H251 H 0.82918 1.16790 0.38368
 H252 H 0.88207 1.16953 0.33060
 C253 C 0.64478 0.35325 0.32303
 C254 C 0.63499 0.33381 0.33447
 C255 C 0.64572 0.32313 0.35381
 C256 C 0.66601 0.33361 0.36284
 C257 C 0.67580 0.35337 0.35226
 C258 C 0.66521 0.36299 0.33247
 H259 H 0.61802 0.32777 0.32913
 H260 H 0.67533 0.32572 0.37714
 H261 H 0.67367 0.37759 0.32410
 C262 C 0.63959 0.86133 0.83099
 C263 C 0.65823 0.87290 0.84184
 C264 C 0.66924 0.86321 0.86139
 C265 C 0.66130 0.84175 0.87011
 C266 C 0.64279 0.82986 0.85947
 C267 C 0.63207 0.83980 0.83992
 H268 H 0.66391 0.88968 0.83532
 H269 H 0.66974 0.83415 0.88513
 H270 H 0.61833 0.83034 0.83114
 C271 C 0.14307 0.35763 0.82647
 C272 C 0.16194 0.36869 0.83779
 C273 C 0.17034 0.36075 0.85929
 C274 C 0.15966 0.34153 0.86990
 C275 C 0.14090 0.33015 0.85922
 C276 C 0.13270 0.33827 0.83766
 H277 H 0.17007 0.38390 0.83026
 H278 H 0.16611 0.33524 0.88644
 H279 H 0.11867 0.32880 0.82945
 C280 C 0.14183 0.85748 0.32787
 C281 C 0.13148 0.83852 0.33974
 C282 C 0.13989 0.83077 0.36131
 C283 C 0.15891 0.84218 0.37140
 C284 C 0.16961 0.86105 0.36015
 C285 C 0.16104 0.86859 0.33854
 H286 H 0.11641 0.82982 0.33262
 H287 H 0.16555 0.83625 0.38800
 H288 H 0.17002 0.88273 0.32990
 O289 O 0.97641 0.91690 0.88359
 O290 O 0.97603 0.88996 0.85630
 C291 C 0.96825 0.90888 0.86469
 C292 C 0.94904 0.92137 0.85286
 C293 C 0.93974 0.91296 0.83187
 H294 H 0.94712 0.89759 0.82382
 O295 O 1.02343 1.08574 0.88534
 O296 O 1.02365 1.11309 0.85838
 C297 C 1.03138 1.09396 0.86639
 C298 C 1.05005 1.08125 0.85388
 C299 C 1.05756 1.08850 0.83175
 H300 H 1.04917 1.10315 0.82335
 O301 O 0.88412 0.97952 0.91629
 O302 O 0.85671 0.98018 0.88947
 C303 C 0.86494 0.97198 0.90826
 C304 C 0.85242 0.95312 0.92069
 C305 C 0.83011 0.94605 0.91356
 H306 H 0.82159 0.95501 0.89934
 O307 O 1.11568 1.02341 0.91595
 O308 O 1.14293 1.02355 0.88888
 C309 C 1.13461 1.03149 0.90776
 C310 C 1.14667 1.05072 0.92004
 C311 C 1.16755 1.06010 0.91121
 H312 H 1.17513 1.05294 0.89552
 O313 O 0.91473 0.88493 0.97661
 O314 O 0.88732 0.85801 0.97642
 C315 C 0.90638 0.86610 0.96856
 C316 C 0.91884 0.85384 0.94960
 C317 C 0.91156 0.83172 0.94202
 H318 H 0.89708 0.82314 0.95058
 O319 O 1.08489 1.11613 0.97885
 O320 O 1.11225 1.14311 0.97921
 C321 C 1.09326 1.13513 0.97115
 C322 C 1.08103 1.14768 0.95225
 C323 C 1.08888 1.16958 0.94457
 H324 H 1.10385 1.17753 0.95281
 O325 O 0.91660 1.02471 0.88454
 O326 O 0.88944 1.02524 0.85747
 C327 C 0.90845 1.03297 0.86573
 C328 C 0.92078 1.05233 0.85390
 C329 C 0.91229 1.06154 0.83290
 H330 H 0.89706 1.05391 0.82482
 O331 O 1.08395 0.97782 0.88409
 O332 O 1.11134 0.97759 0.85716
 C333 C 1.09233 0.96967 0.86531
 C334 C 1.08012 0.95039 0.85326
 C335 C 1.08904 0.94104 0.83246
 H336 H 1.10474 0.94830 0.82489
 O337 O 1.02173 0.88450 0.91501
 O338 O 1.02164 0.85756 0.88771
 C339 C 1.02970 0.86565 0.90661
 C340 C 1.04902 0.85350 0.91862
 C341 C 1.05839 0.83278 0.90953
 H342 H 1.05107 0.82533 0.89386
 O343 O 0.97837 1.11756 0.91782
 O344 O 0.97860 1.14518 0.89114
 C345 C 0.97060 1.13673 0.90997
 C346 C 0.95168 1.14893 0.92262
 C347 C 0.94398 1.17097 0.91529
 H348 H 0.95266 1.17956 0.90091
 O349 O 0.88490 1.08565 0.97913
 O350 O 0.85786 1.11290 0.97926
 C351 C 0.86609 1.09404 0.97114
 C352 C 0.85416 1.08218 0.95165
 C353 C 0.83339 1.09127 0.94247
 H354 H 0.82551 1.10655 0.95023
 O355 O 1.11440 0.91561 0.97757
 O356 O 1.14170 0.88861 0.97720
 C357 C 1.13348 0.90771 0.96963
 C358 C 1.14596 0.92066 0.95109
 C359 C 1.16827 0.91366 0.94386
 H360 H 1.17678 0.89923 0.95251
 O361 O 0.97801 1.08605 0.88563
 O362 O 0.97815 1.11355 0.85882
 C363 C 0.97005 1.09457 0.86686
 C364 C 0.95077 1.08260 0.85463
 C365 C 0.94196 1.09160 0.83372
 H366 H 0.94998 1.10683 0.82595
 O367 O 1.02189 0.91703 0.88389
 O368 O 1.02162 0.89017 0.85651
 C369 C 1.02982 0.90892 0.86494
 C370 C 1.04939 0.92087 0.85306
 C371 C 1.05841 0.91196 0.83221
 H372 H 1.05003 0.89716 0.82409
 O373 O 1.11508 0.97797 0.91665
 O374 O 1.14264 0.97804 0.88988
 C375 C 1.13419 0.97012 0.90876
 C376 C 1.14636 0.95123 0.92143
 C377 C 1.16869 0.94401 0.91451
 H378 H 1.17726 0.95262 0.90007
 O379 O 0.88514 1.02496 0.91685
 O380 O 0.85793 1.02559 0.88983
 C381 C 0.86635 1.03331 0.90874
 C382 C 0.85450 1.05265 0.92102
 C383 C 0.83390 1.06217 0.91200
 H384 H 0.82613 1.05474 0.89653
 O385 O 0.91699 1.11734 0.97946
 O386 O 0.89008 1.14473 0.97965
 C387 C 0.90900 1.13643 0.97167
 C388 C 0.92157 1.14877 0.95277
 C389 C 0.91407 1.17075 0.94511
 H390 H 0.89918 1.17888 0.95336
 O391 O 1.08242 0.88369 0.97686
 O392 O 1.10960 0.85659 0.97642
 C393 C 1.09071 0.86495 0.96855
 C394 C 1.07873 0.85319 0.94902
 C395 C 1.08766 0.83240 0.93983
 H396 H 1.10253 0.82424 0.94805
 O397 O 1.08350 1.02332 0.88447
 O398 O 1.11061 1.02318 0.85724
 C399 C 1.09169 1.03121 0.86550
 C400 C 1.07935 1.05034 0.85336
 C401 C 1.08649 1.05771 0.83118
 H402 H 1.10082 1.04895 0.82258
 O403 O 0.91613 0.97917 0.88450
 O404 O 0.88882 0.97968 0.85759
 C405 C 0.90764 0.97135 0.86567
 C406 C 0.91936 0.95189 0.85347
 C407 C 0.91025 0.94316 0.83258
 H408 H 0.89519 0.95140 0.82479
 O409 O 1.02380 1.11724 0.91760
 O410 O 1.02408 1.14477 0.89083
 C411 C 1.03192 1.13624 0.90965
 C412 C 1.05102 1.14820 0.92217
 C413 C 1.05902 1.17013 0.91481
 H414 H 1.05042 1.17883 0.90048
 O415 O 0.97627 0.88503 0.91553
 O416 O 0.97615 0.85792 0.88839
 C417 C 0.96828 0.86610 0.90737
 C418 C 0.94930 0.85380 0.91983
 C419 C 0.94191 0.83165 0.91262
 H420 H 0.95051 0.82325 0.89809
 O421 O 1.11607 1.08364 0.97840
 O422 O 1.14352 1.11053 0.97872
 C423 C 1.13503 1.09184 0.97046
 C424 C 1.14690 1.08002 0.95085
 C425 C 1.16784 1.08897 0.94193
 H426 H 1.17602 1.10368 0.95040
 O427 O 0.88347 0.91752 0.97701
 O428 O 0.85587 0.89079 0.97677
 C429 C 0.86433 0.90976 0.96911
 C430 C 0.85211 0.92275 0.95051
 C431 C 0.82974 0.91603 0.94325
 H432 H 0.82114 0.90146 0.95163
 Cu433 Cu 0.99906 0.90356 0.90223
 Cu434 Cu 0.99880 0.87122 0.86946
 Cu435 Cu 1.00091 1.09891 0.90427
 Cu436 Cu 1.00115 1.13191 0.87210
 Cu437 Cu 0.90325 1.00201 0.90322
 Cu438 Cu 0.87051 1.00272 0.87086
 Cu439 Cu 1.09682 1.00063 0.90296
 Cu440 Cu 1.12961 1.00057 0.87058
 C441 C 0.93887 0.94100 0.86336
 H442 H 0.94572 0.94739 0.87969
 C443 C 0.92024 0.92367 0.82172
 C444 C 1.06095 1.06205 0.86443
 H445 H 1.05550 1.05659 0.88163
 C446 C 1.07566 1.07672 0.82021
 C447 C 0.86317 0.94148 0.93928
 H448 H 0.88052 0.94661 0.94464
 C449 C 0.81860 0.92760 0.92482
 C450 C 1.13658 1.06074 0.93994
 H451 H 1.12026 1.05394 0.94657
 C452 C 1.17818 1.07934 0.92197
 C453 C 0.93782 0.86462 0.93849
 H454 H 0.94331 0.88180 0.94400
 C455 C 0.92313 0.82043 0.92365
 C456 C 1.06198 1.13725 0.94104
 H457 H 1.05605 1.12022 0.94663
 C458 C 1.07795 1.18098 0.92588
 C459 C 0.94018 1.06283 0.86447
 H460 H 0.94661 1.05606 0.88083
 C461 C 0.92270 1.08126 0.82279
 C462 C 1.06020 0.94025 0.86331
 H463 H 1.05350 0.94702 0.87958
 C464 C 1.07837 0.92171 0.82190
 C465 C 1.05924 0.86347 0.93846
 H466 H 1.05246 0.87968 0.94528
 C467 C 1.07782 0.82217 0.91995
 C468 C 0.94051 1.13810 0.94153
 H469 H 0.94616 1.12099 0.94710
 C470 C 0.92518 1.18204 0.92642
 C471 C 0.86443 1.06268 0.94096
 H472 H 0.88061 1.05576 0.94772
 C473 C 0.82333 1.08149 0.92253
 C474 C 1.13525 0.93960 0.93990
 H475 H 1.11791 0.94488 0.94515
 C476 C 1.17978 0.92527 0.92564
 O477 O 1.02198 0.91446 1.11584
 O478 O 1.02167 0.88704 1.14271
 C479 C 1.02990 0.90595 1.13462
 C480 C 1.04931 0.91782 1.14676
 C481 C 1.05817 0.90886 1.16768
 H482 H 1.05008 0.89372 1.17556
 O483 O 0.97768 1.08358 1.11729
 O484 O 0.97793 1.11030 1.14481
 C485 C 0.96987 1.09149 1.13639
 C486 C 0.95090 1.07890 1.14858
 C487 C 0.94337 1.08602 1.17070
 H488 H 0.95218 1.10025 1.17936
 O489 O 0.88457 1.02298 1.08500
 O490 O 0.85737 1.02288 1.11212
 C491 C 0.86573 1.03104 1.09333
 C492 C 0.85377 1.05054 1.08143
 C493 C 0.83275 1.05931 1.09026
 H494 H 0.82473 1.05112 1.10526
 O495 O 1.11530 0.97558 1.08461
 O496 O 1.14256 0.97518 1.11158
 C497 C 1.13417 0.96737 1.09270
 C498 C 1.14597 0.94804 1.08037
 C499 C 1.16692 0.93869 1.08890
 H500 H 1.17498 0.94615 1.10420
 O501 O 1.08249 0.88265 1.02231
 O502 O 1.10956 0.85543 1.02191
 C503 C 1.09068 0.86361 1.03005
 C504 C 1.07849 0.85142 1.04929
 C505 C 1.08721 0.83040 1.05837
 H506 H 1.10256 0.82253 1.05074
 O507 O 0.91666 1.11703 1.02484
 O508 O 0.88973 1.14440 1.02506
 C509 C 0.90859 1.13596 1.03294
 C510 C 0.92104 1.14791 1.05205
 C511 C 0.91366 1.16982 1.06001
 H512 H 0.89925 1.17851 1.05152
 O513 O 0.91585 0.97684 1.11648
 O514 O 0.88869 0.97671 1.14364
 C515 C 0.90761 0.96878 1.13537
 C516 C 0.91995 0.94969 1.14754
 C517 C 0.91260 0.94215 1.16960
 H518 H 0.89801 0.95066 1.17801
 O519 O 1.08366 1.02095 1.11671
 O520 O 1.11076 1.02064 1.14384
 C521 C 1.09184 1.02869 1.13570
 C522 C 1.07945 1.04759 1.14811
 C523 C 1.08678 1.05483 1.17024
 H524 H 1.10137 1.04622 1.17851
 O525 O 0.97603 0.88361 1.08375
 O526 O 0.97554 0.85616 1.11060
 C527 C 0.96770 0.86475 1.09180
 C528 C 0.94825 0.85309 1.07950
 C529 C 0.93879 0.83221 1.08811
 H530 H 0.94609 0.82437 1.10361
 O531 O 1.02327 1.11548 1.08564
 O532 O 1.02362 1.14243 1.11294
 C533 C 1.03140 1.13430 1.09390
 C534 C 1.05038 1.14654 1.08137
 C535 C 1.05796 1.16865 1.08858
 H536 H 1.04966 1.17694 1.10333
 O537 O 0.88342 0.91691 1.02234
 O538 O 0.85576 0.89023 1.02210
 C539 C 0.86430 0.90896 1.03020
 C540 C 0.85217 0.92140 1.04926
 C541 C 0.83002 0.91418 1.05674
 H542 H 0.82163 0.89958 1.04827
 O543 O 1.11623 1.08318 1.02383
 O544 O 1.14378 1.10996 1.02419
 C545 C 1.13529 1.09099 1.03186
 C546 C 1.14737 1.07814 1.05066
 C547 C 1.16942 1.08531 1.05846
 H548 H 1.17808 1.09983 1.05007
 O549 O 1.02304 1.08321 1.11713
 O550 O 1.02338 1.10996 1.14463
 C551 C 1.03106 1.09102 1.13616
 C552 C 1.04981 1.07814 1.14828
 C553 C 1.05742 1.08516 1.17038
 H554 H 1.04892 1.09961 1.17903
 O555 O 0.97653 0.91491 1.11611
 O556 O 0.97620 0.88759 1.14309
 C557 C 0.96851 0.90670 1.13502
 C558 C 0.94968 0.91926 1.14736
 C559 C 0.94202 0.91187 1.16939
 H560 H 0.95053 0.89733 1.17787
 O561 O 1.11551 1.02099 1.08470
 O562 O 1.14280 1.02066 1.11164
 C563 C 1.13458 1.02873 1.09278
 C564 C 1.14703 1.04763 1.08036
 C565 C 1.16910 1.05500 1.08785
 H566 H 1.17727 1.04649 1.10254
 O567 O 0.88403 0.97752 1.08452
 O568 O 0.85671 0.97740 1.11152
 C569 C 0.86492 0.96968 1.09250
 C570 C 0.85246 0.95105 1.07973
 C571 C 0.83025 0.94364 1.08691
 H572 H 0.82174 0.95229 1.10134
 O573 O 1.08458 1.11538 1.02419
 O574 O 1.11197 1.14233 1.02454
 C575 C 1.09288 1.13421 1.03229
 C576 C 1.08042 1.14648 1.05122
 C577 C 1.08769 1.16864 1.05857
 H578 H 1.10193 1.17723 1.04964
 O579 O 0.91506 0.88484 1.02201
 O580 O 0.88752 0.85804 1.02190
 C581 C 0.90655 0.86600 1.02991
 C582 C 0.91848 0.85367 1.04915
 C583 C 0.90944 0.83268 1.05789
 H584 H 0.89449 0.82480 1.04954
 O585 O 1.08351 0.97550 1.11652
 O586 O 1.11067 0.97515 1.14359
 C587 C 1.09172 0.96730 1.13532
 C588 C 1.07945 0.94793 1.14721
 C589 C 1.08800 0.93877 1.16820
 H590 H 1.10329 0.94640 1.17618
 O591 O 0.91627 1.02227 1.11692
 O592 O 0.88917 1.02212 1.14415
 C593 C 0.90817 1.03004 1.13596
 C594 C 0.92075 1.04882 1.14837
 C595 C 0.91338 1.05624 1.17045
 H596 H 0.89854 1.04791 1.17861
 O597 O 0.97785 1.11596 1.08592
 O598 O 0.97812 1.14288 1.11325
 C599 C 0.97009 1.13491 1.09427
 C600 C 0.95120 1.14744 1.08200
 C601 C 0.94364 1.16940 1.08967
 H602 H 0.95203 1.17750 1.10447
 O603 O 1.02151 0.88291 1.08372
 O604 O 1.02111 0.85541 1.11052
 C605 C 1.02925 0.86380 1.09173
 C606 C 1.04845 0.85166 1.07950
 C607 C 1.05743 0.83072 1.08832
 H608 H 1.04946 0.82279 1.10347
 O609 O 1.11423 0.91470 1.02293
 O610 O 1.14136 0.88753 1.02251
 C611 C 1.13312 0.90630 1.03079
 C612 C 1.14528 0.91809 1.05019
 C613 C 1.16612 0.90894 1.05905
 H614 H 1.17387 0.89375 1.05099
 O615 O 0.88463 1.08524 1.02450
 O616 O 0.85756 1.11246 1.02475
 C617 C 0.86571 1.09342 1.03254
 C618 C 0.85358 1.08098 1.05165
 C619 C 0.83242 1.08942 1.06068
 H620 H 0.82442 1.10476 1.05316
 Cu621 Cu 0.99904 0.90172 1.09717
 Cu622 Cu 0.99858 0.86877 1.12940
 Cu623 Cu 1.00042 1.09689 1.09875
 Cu624 Cu 1.00080 1.12909 1.13166
 Cu625 Cu 0.90194 0.90371 0.99946
 Cu626 Cu 0.86887 0.87155 0.99925
 Cu627 Cu 1.09564 0.90185 0.99995
 Cu628 Cu 1.12826 0.86929 0.99942
 Cu629 Cu 0.90349 1.09858 1.00199
 Cu630 Cu 0.87108 1.13135 1.00219
 Cu631 Cu 1.09770 1.09689 1.00132
 Cu632 Cu 1.13068 1.12914 1.00174
 Cu633 Cu 0.90291 0.99987 1.09802
 Cu634 Cu 0.87023 0.99974 1.13056
 Cu635 Cu 1.09677 0.99831 1.09794
 Cu636 Cu 1.12943 0.99794 1.13038
 C637 C 1.05996 0.93747 1.13678
 H638 H 1.05348 0.94423 1.12043
 C639 C 1.07753 0.91918 1.17849
 C640 C 0.93964 1.06013 1.13768
 H641 H 0.94520 1.05472 1.12051
 C642 C 0.92462 1.07478 1.18181
 C643 C 0.86396 1.06137 1.06200
 H644 H 0.88041 1.05495 1.05537
 C645 C 0.82202 1.07876 1.08010
 C646 C 1.13544 0.93776 1.06085
 H647 H 1.11913 0.94465 1.05437
 C648 C 1.17698 0.91903 1.07843
 C649 C 1.05895 0.86174 1.05985
 H650 H 1.05237 0.87812 1.05322
 C651 C 1.07687 0.82005 1.07800
 C652 C 0.93993 1.13697 1.06304
 H653 H 0.94549 1.11993 1.05720
 C654 C 0.92491 1.18074 1.07876
 C655 C 0.93866 0.93830 1.13669
 H656 H 0.94426 0.94387 1.11957
 C657 C 0.92356 0.92329 1.18069
 C658 C 1.06080 1.05920 1.13738
 H659 H 1.05524 1.05390 1.12019
 C660 C 1.07586 1.07359 1.18151
 C661 C 0.93806 0.86359 1.05991
 H662 H 0.94495 0.87995 1.05347
 C663 C 0.91931 0.82192 1.07749
 C664 C 1.06161 1.13570 1.06256
 H665 H 1.05608 1.11851 1.05712
 C666 C 1.07655 1.17991 1.07722
 C667 C 0.86315 0.93997 1.06074
 H668 H 0.88039 0.94542 1.05527
 C669 C 0.81885 0.92523 1.07550
 C670 C 1.13642 1.05914 1.06160
 H671 H 1.11928 1.05373 1.05592
 C672 C 1.18043 1.07381 1.07702
 O673 O 1.08467 0.52055 0.61501
 O674 O 1.11169 0.52021 0.64221
 C675 C 1.09283 0.52833 0.63399
 C676 C 1.08050 0.54740 0.64625
 C677 C 1.08787 0.55486 0.66832
 H678 H 1.10246 0.54633 0.67665
 O679 O 0.91660 0.47720 0.61521
 O680 O 0.88956 0.47741 0.64250
 C681 C 0.90833 0.46920 0.63411
 C682 C 0.92017 0.44963 0.64605
 C683 C 0.91127 0.44078 0.66702
 H684 H 0.89651 0.44925 0.67516
 O685 O 1.02425 0.61544 0.58357
 O686 O 1.02463 0.64249 0.61078
 C687 C 1.03237 0.63431 0.59175
 C688 C 1.05137 0.64653 0.57923
 C689 C 1.05877 0.66872 0.58630
 H690 H 1.05016 0.67725 0.60075
 O691 O 0.97639 0.38313 0.58299
 O692 O 0.97583 0.35574 0.60990
 C693 C 0.96801 0.36431 0.59108
 C694 C 0.94846 0.35274 0.57884
 C695 C 0.93921 0.33164 0.58718
 H696 H 0.94687 0.32330 0.60224
 O697 O 1.11746 0.58273 0.52262
 O698 O 1.14511 0.60941 0.52268
 C699 C 1.13655 0.59056 0.53056
 C700 C 1.14857 0.57784 0.54946
 C701 C 1.17056 0.58510 0.55733
 H702 H 1.17922 0.59963 0.54892
 O703 O 0.88266 0.41708 0.52212
 O704 O 0.85506 0.39034 0.52216
 C705 C 0.86364 0.40908 0.53017
 C706 C 0.85189 0.42130 0.54960
 C707 C 0.83079 0.41284 0.55879
 H708 H 0.82262 0.39768 0.55113
 O709 O 0.97874 0.58375 0.61564
 O710 O 0.97924 0.61050 0.64313
 C711 C 0.97107 0.59172 0.63479
 C712 C 0.95213 0.57924 0.64711
 C713 C 0.94473 0.58638 0.66930
 H714 H 0.95363 0.60059 0.67792
 O715 O 1.02242 0.41401 0.61494
 O716 O 1.02210 0.38672 0.64194
 C717 C 1.03036 0.40557 0.63374
 C718 C 1.04988 0.41747 0.64571
 C719 C 1.05899 0.40857 0.66660
 H720 H 1.05126 0.39324 0.67446
 O721 O 1.11623 0.47507 0.58293
 O722 O 1.14342 0.47464 0.60997
 C723 C 1.13505 0.46682 0.59107
 C724 C 1.14682 0.44739 0.57884
 C725 C 1.16786 0.43822 0.58730
 H726 H 1.17603 0.44589 0.60244
 O727 O 0.88516 0.52335 0.58376
 O728 O 0.85818 0.52357 0.61110
 C729 C 0.86639 0.53154 0.59215
 C730 C 0.85438 0.55098 0.58018
 C731 C 0.83342 0.55987 0.58908
 H732 H 0.82538 0.55157 0.60399
 O733 O 0.91700 0.61700 0.52307
 O734 O 0.89009 0.64438 0.52339
 C735 C 0.90891 0.63586 0.53130
 C736 C 0.92119 0.64753 0.55074
 C737 C 0.91255 0.66836 0.56027
 H738 H 0.89705 0.67624 0.55300
 O739 O 1.08297 0.38168 0.52153
 O740 O 1.10970 0.35411 0.52131
 C741 C 1.09083 0.36252 0.52929
 C742 C 1.07814 0.35026 0.54814
 C743 C 1.08515 0.32804 0.55557
 H744 H 1.09971 0.31953 0.54711
 O745 O 0.91704 0.52271 0.61565
 O746 O 0.89012 0.52282 0.64305
 C747 C 0.90911 0.53058 0.63472
 C748 C 0.92186 0.54929 0.64705
 C749 C 0.91467 0.55670 0.66919
 H750 H 0.89986 0.54839 0.67744
 O751 O 1.08430 0.47503 0.61473
 O752 O 1.11141 0.47466 0.64185
 C753 C 1.09247 0.46680 0.63354
 C754 C 1.08026 0.44740 0.64548
 C755 C 1.08912 0.43819 0.66627
 H756 H 1.10432 0.44604 0.67420
 O757 O 1.02183 0.38221 0.58302
 O758 O 1.02135 0.35476 0.60986
 C759 C 1.02942 0.36303 0.59099
 C760 C 1.04817 0.35056 0.57841
 C761 C 1.05551 0.32838 0.58568
 H762 H 1.04680 0.31990 0.60011
 O763 O 0.97875 0.61564 0.58376
 O764 O 0.97911 0.64249 0.61115
 C765 C 0.97092 0.63450 0.59225
 C766 C 0.95160 0.64684 0.58044
 C767 C 0.94286 0.66776 0.58955
 H768 H 0.95126 0.67557 0.60448
 O769 O 0.88504 0.58527 0.52289
 O770 O 0.85799 0.61252 0.52307
 C771 C 0.86619 0.59354 0.53099
 C772 C 0.85420 0.58133 0.55032
 C773 C 0.83329 0.59008 0.55961
 H774 H 0.82556 0.60559 0.55218
 O775 O 1.11498 0.41349 0.52179
 O776 O 1.14186 0.38607 0.52177
 C777 C 1.13378 0.40504 0.52978
 C778 C 1.14601 0.41707 0.54900
 C779 C 1.16695 0.40809 0.55781
 H780 H 1.17470 0.39285 0.54987
 O781 O 0.97693 0.41466 0.61508
 O782 O 0.97646 0.38741 0.64212
 C783 C 0.96876 0.40646 0.63393
 C784 C 0.94961 0.41889 0.64598
 C785 C 0.94029 0.41015 0.66687
 H786 H 0.94751 0.39449 0.67448
 O787 O 1.02411 0.58300 0.61497
 O788 O 1.02461 0.60987 0.64233
 C789 C 1.03220 0.59087 0.63394
 C790 C 1.05092 0.57801 0.64613
 C791 C 1.05849 0.58517 0.66819
 H792 H 1.04992 0.59964 0.67672
 O793 O 0.88434 0.47786 0.58374
 O794 O 0.85729 0.47812 0.61102
 C795 C 0.86533 0.47011 0.59205
 C796 C 0.85284 0.45110 0.57992
 C797 C 0.83179 0.44239 0.58885
 H798 H 0.82406 0.45041 0.60406
 O799 O 1.11675 0.52055 0.58322
 O800 O 1.14392 0.52015 0.61026
 C801 C 1.13579 0.52828 0.59140
 C802 C 1.14826 0.54729 0.57912
 C803 C 1.17030 0.55474 0.58667
 H804 H 1.17850 0.54619 0.60132
 O805 O 0.91446 0.38513 0.52199
 O806 O 0.88696 0.35829 0.52205
 C807 C 0.90602 0.36629 0.52996
 C808 C 0.91810 0.35388 0.54905
 C809 C 0.90907 0.33289 0.55774
 H810 H 0.89379 0.32523 0.54977
 O811 O 1.08603 0.61501 0.52274
 O812 O 1.11348 0.64190 0.52280
 C813 C 1.09439 0.63387 0.53068
 C814 C 1.08190 0.64625 0.54953
 C815 C 1.08918 0.66839 0.55697
 H816 H 1.10371 0.67689 0.54840
 Cu817 Cu 1.09778 0.49788 0.59626
 Cu818 Cu 1.13032 0.49741 0.62880
 Cu819 Cu 0.90350 0.50028 0.59685
 Cu820 Cu 0.87107 0.50052 0.62964
 Cu821 Cu 1.00143 0.59678 0.59673
 Cu822 Cu 1.00198 0.62907 0.62956
 Cu823 Cu 0.99946 0.40124 0.59633
 Cu824 Cu 0.99891 0.36843 0.62868
 C825 C 1.06188 0.55896 0.63541
 H826 H 1.05631 0.55353 0.61826
 C827 C 1.07695 0.57374 0.67943
 C828 C 0.93952 0.43873 0.63580
 H829 H 0.94628 0.44527 0.61946
 C830 C 0.92102 0.42092 0.67747
 C831 C 1.06287 0.63557 0.56067
 H832 H 1.05738 0.61835 0.55527
 C833 C 1.07760 0.67981 0.57524
 C834 C 0.93791 0.36359 0.55960
 H835 H 0.94471 0.38003 0.55327
 C836 C 0.91942 0.32172 0.57681
 C837 C 1.13766 0.55881 0.56035
 H838 H 1.12056 0.55333 0.55460
 C839 C 1.18159 0.57362 0.57587
 C840 C 0.86262 0.44058 0.56016
 H841 H 0.87907 0.44695 0.55342
 C842 C 0.82071 0.42320 0.57850
 C843 C 0.94073 0.56053 0.63626
 H844 H 0.94615 0.55510 0.61905
 C845 C 0.92605 0.57516 0.68053
 C846 C 1.06052 0.43704 0.63543
 H847 H 1.05385 0.44380 0.61917
 C848 C 1.07871 0.41873 0.67688
 C849 C 1.13618 0.43684 0.55952
 H850 H 1.11979 0.44359 0.55309
 C851 C 1.17793 0.41849 0.57697
 C852 C 0.86449 0.56166 0.56064
 H853 H 0.88084 0.55508 0.55390
 C854 C 0.82284 0.57953 0.57908
 C855 C 0.94081 0.63701 0.56087
 H856 H 0.94728 0.62072 0.55394
 C857 C 0.92322 0.67856 0.57977
 C858 C 1.05947 0.36124 0.55951
 H859 H 1.05414 0.37849 0.55404
 C860 C 1.07392 0.31695 0.57431
 O861 O 1.08397 0.47628 0.38392
 O862 O 1.11106 0.47607 0.35669
 C863 C 1.09206 0.46827 0.36497
 C864 C 1.07955 0.44921 0.35289
 C865 C 1.08779 0.44040 0.33160
 H866 H 1.10309 0.44800 0.32355
 O867 O 0.91720 0.52387 0.38434
 O868 O 0.89031 0.52439 0.35699
 C869 C 0.90932 0.53199 0.36535
 C870 C 0.92209 0.55084 0.35320
 C871 C 0.91482 0.55859 0.33122
 H872 H 0.90038 0.55003 0.32264
 O873 O 0.97885 0.61707 0.41651
 O874 O 0.97919 0.64436 0.38949
 C875 C 0.97109 0.63613 0.40838
 C876 C 0.95213 0.64847 0.42083
 C877 C 0.94466 0.67062 0.41355
 H878 H 0.95343 0.67920 0.39922
 O879 O 1.02143 0.38308 0.41550
 O880 O 1.02101 0.35613 0.38821
 C881 C 1.02920 0.36417 0.40709
 C882 C 1.04849 0.35187 0.41896
 C883 C 1.05735 0.33098 0.40989
 H884 H 1.04931 0.32320 0.39473
 O885 O 1.11533 0.41359 0.47641
 O886 O 1.14241 0.38637 0.47630
 C887 C 1.13430 0.40541 0.46847
 C888 C 1.14666 0.41798 0.44958
 C889 C 1.16863 0.41050 0.44175
 H890 H 1.17707 0.39591 0.45020
 O891 O 0.88494 0.58572 0.47750
 O892 O 0.85797 0.61305 0.47749
 C893 C 0.86613 0.59412 0.46945
 C894 C 0.85420 0.58209 0.45003
 C895 C 0.83336 0.59097 0.44070
 H896 H 0.82541 0.60632 0.44823
 O897 O 1.02424 0.58478 0.38494
 O898 O 1.02474 0.61191 0.35777
 C899 C 1.03237 0.59283 0.36601
 C900 C 1.05113 0.58002 0.35373
 C901 C 1.05891 0.58732 0.33171
 H902 H 1.05064 0.60203 0.32327
 O903 O 0.97648 0.41582 0.38389
 O904 O 0.97609 0.38901 0.35645
 C905 C 0.96849 0.40802 0.36483
 C906 C 0.94984 0.42096 0.35265
 C907 C 0.94213 0.41392 0.33056
 H908 H 0.95056 0.39944 0.32192
 O909 O 1.11639 0.52113 0.41604
 O910 O 1.14356 0.52108 0.38888
 C911 C 1.13546 0.52892 0.40790
 C912 C 1.14801 0.54763 0.42044
 C913 C 1.17030 0.55473 0.41322
 H914 H 1.17878 0.54576 0.39898
 O915 O 0.88427 0.47883 0.41592
 O916 O 0.85735 0.47936 0.38862
 C917 C 0.86530 0.47115 0.40753
 C918 C 0.85284 0.45191 0.41941
 C919 C 0.83206 0.44300 0.41016
 H920 H 0.82436 0.45129 0.39509
 O921 O 1.08609 0.61530 0.47747
 O922 O 1.11357 0.64216 0.47743
 C923 C 1.09445 0.63424 0.46963
 C924 C 1.08192 0.64687 0.45100
 C925 C 1.08911 0.66918 0.44391
 H926 H 1.10360 0.67757 0.45258
 O927 O 0.91420 0.38499 0.47661
 O928 O 0.88671 0.35814 0.47665
 C929 C 0.90573 0.36618 0.46864
 C930 C 0.91775 0.35395 0.44939
 C931 C 0.90871 0.33306 0.44050
 H932 H 0.89347 0.32527 0.44848
 O933 O 0.91643 0.47842 0.38423
 O934 O 0.88955 0.47907 0.35688
 C935 C 0.90828 0.47076 0.36518
 C936 C 0.92044 0.45169 0.35284
 C937 C 0.91292 0.44439 0.33080
 H938 H 0.89831 0.45305 0.32263
 O939 O 1.08431 0.52178 0.38441
 O940 O 1.11132 0.52162 0.35709
 C941 C 1.09251 0.52975 0.36548
 C942 C 1.08034 0.54903 0.35341
 C943 C 1.08779 0.55653 0.33136
 H944 H 1.10224 0.54782 0.32292
 O945 O 0.97590 0.38379 0.41568
 O946 O 0.97541 0.35686 0.38837
 C947 C 0.96756 0.36509 0.40733
 C948 C 0.94804 0.35329 0.41945
 C949 C 0.93879 0.33232 0.41086
 H950 H 0.94645 0.32426 0.39564
 O951 O 1.02430 0.61658 0.41685
 O952 O 1.02471 0.64392 0.38989
 C953 C 1.03243 0.63553 0.40883
 C954 C 1.05139 0.64758 0.42143
 C955 C 1.05869 0.66994 0.41470
 H956 H 1.05004 0.67870 0.40043
 O957 O 0.88275 0.41726 0.47667
 O958 O 0.85520 0.39047 0.47663
 C959 C 0.86377 0.40925 0.46862
 C960 C 0.85207 0.42153 0.44920
 C961 C 0.83139 0.41270 0.43953
 H962 H 0.82360 0.39709 0.44673
 O963 O 1.11726 0.58271 0.47728
 O964 O 1.14496 0.60934 0.47723
 C965 C 1.13638 0.59053 0.46933
 C966 C 1.14845 0.57778 0.45043
 C967 C 1.17070 0.58469 0.44291
 H968 H 1.17920 0.59933 0.45119
 O969 O 1.02185 0.41547 0.38422
 O970 O 1.02148 0.38860 0.35685
 C971 C 1.02972 0.40734 0.36524
 C972 C 1.04908 0.41942 0.35315
 C973 C 1.05757 0.41089 0.33193
 H974 H 1.04918 0.39607 0.32383
 O975 O 0.97889 0.58510 0.38475
 O976 O 0.97928 0.61219 0.35754
 C977 C 0.97120 0.59326 0.36573
 C978 C 0.95234 0.58082 0.35334
 C979 C 0.94484 0.58831 0.33133
 H980 H 0.95322 0.60310 0.32311
 O981 O 0.88527 0.52433 0.41621
 O982 O 0.85833 0.52484 0.38892
 C983 C 0.86657 0.53265 0.40787
 C984 C 0.85463 0.55207 0.41989
 C985 C 0.83395 0.56127 0.41078
 H986 H 0.82616 0.55342 0.39553
 O987 O 1.11579 0.47570 0.41581
 O988 O 1.14301 0.47565 0.38870
 C989 C 1.13469 0.46766 0.40759
 C990 C 1.14683 0.44849 0.41988
 C991 C 1.16879 0.44081 0.41234
 H992 H 1.17710 0.44925 0.39766
 O993 O 1.08305 0.38204 0.47620
 O994 O 1.10999 0.35468 0.47591
 C995 C 1.09111 0.36312 0.46807
 C996 C 1.07875 0.35128 0.44882
 C997 C 1.08727 0.33028 0.43959
 H998 H 1.10260 0.32224 0.44705
 O999 O 0.91731 0.61715 0.47769
 O1000 O 0.89053 0.64466 0.47789
 C1001 C 0.90940 0.63627 0.46989
 C1002 C 0.92203 0.64853 0.45099
 C1003 C 0.91481 0.67064 0.44346
 H1004 H 0.90007 0.67893 0.45182
 Cu1005 Cu 1.09739 0.49873 0.40274
 Cu1006 Cu 1.12994 0.49862 0.37009
 Cu1007 Cu 0.90349 0.50129 0.40292
 Cu1008 Cu 0.87115 0.50198 0.37015
 Cu1009 Cu 1.09896 0.59626 0.50002
 Cu1010 Cu 1.13208 0.62838 0.50002
 Cu1011 Cu 1.09640 0.40043 0.49898
 Cu1012 Cu 1.12870 0.36757 0.49882
 Cu1013 Cu 0.90374 0.59855 0.50025
 Cu1014 Cu 0.87143 0.63139 0.50044
 Cu1015 Cu 0.90124 0.40383 0.49935
 Cu1016 Cu 0.86822 0.37162 0.49940
 Cu1017 Cu 1.00152 0.59819 0.40348
 Cu1018 Cu 1.00203 0.63084 0.37096
 Cu1019 Cu 0.99891 0.40220 0.40259
 Cu1020 Cu 0.99844 0.36992 0.36975
 C1021 C 1.06004 0.43872 0.36340
 H1022 H 1.05380 0.44515 0.37998
 C1023 C 1.07698 0.42114 0.32110
 C1024 C 0.94099 0.56192 0.36402
 H1025 H 0.94647 0.55624 0.38112
 C1026 C 0.92608 0.57731 0.32015
 C1027 C 0.94083 0.63770 0.43969
 H1028 H 0.94630 0.62052 0.44522
 C1029 C 0.92606 0.68190 0.42484
 C1030 C 1.05919 0.36177 0.43854
 H1031 H 1.05274 0.37812 0.44536
 C1032 C 1.07676 0.32013 0.42003
 C1033 C 1.13603 0.43711 0.43865
 H1034 H 1.11896 0.44278 0.44436
 C1035 C 1.17988 0.42188 0.42320
 C1036 C 0.86453 0.56247 0.43963
 H1037 H 0.88075 0.55572 0.44646
 C1038 C 0.82330 0.58074 0.42094
 C1039 C 1.06184 0.56075 0.36434
 H1040 H 1.05617 0.55521 0.38145
 C1041 C 1.07717 0.57562 0.32036
 C1042 C 0.93903 0.44000 0.36352
 H1043 H 0.94470 0.44535 0.38066
 C1044 C 0.92370 0.42558 0.31945
 C1045 C 1.13734 0.55911 0.43921
 H1046 H 1.12005 0.55389 0.44469
 C1047 C 1.18181 0.57322 0.42437
 C1048 C 0.86254 0.44123 0.43911
 H1049 H 0.87875 0.44782 0.44614
 C1050 C 0.82132 0.42324 0.41989
 C1051 C 1.06294 0.63632 0.43977
 H1052 H 1.05753 0.61899 0.44491
 C1053 C 1.07748 0.68089 0.42588
 C1054 C 0.93753 0.36381 0.43888
 H1055 H 0.94434 0.38015 0.44539
 C1056 C 0.91905 0.32218 0.42121
 O1057 O 0.47575 0.91564 0.38441
 O1058 O 0.47531 0.88859 0.35722
 C1059 C 0.46752 0.90754 0.36559
 C1060 C 0.44825 0.91999 0.35378
 C1061 C 0.43876 0.91138 0.33297
 H1062 H 0.44591 0.89575 0.32524
 O1063 O 0.52313 1.08388 0.38520
 O1064 O 0.52345 1.11103 0.35804
 C1065 C 0.53103 1.09189 0.36615
 C1066 C 0.54959 1.07909 0.35363
 C1067 C 0.55702 1.08640 0.33151
 H1068 H 0.54835 1.10088 0.32311
 O1069 O 0.38348 0.97852 0.41695
 O1070 O 0.35613 0.97899 0.39007
 C1071 C 0.36435 0.97087 0.40891
 C1072 C 0.35192 0.95191 0.42130
 C1073 C 0.32978 0.94452 0.41394
 H1074 H 0.32127 0.95348 0.39972
 O1075 O 0.61518 1.02125 0.41626
 O1076 O 0.64246 1.02134 0.38921
 C1077 C 0.63426 1.02911 0.40822
 C1078 C 0.64683 1.04769 0.42095
 C1079 C 0.66898 1.05503 0.41356
 H1080 H 0.67697 1.04690 0.39856
 O1081 O 0.41455 0.88423 0.47755
 O1082 O 0.38699 0.85745 0.47750
 C1083 C 0.40605 0.86546 0.46954
 C1084 C 0.41812 0.85320 0.45034
 C1085 C 0.40944 0.83201 0.44183
 H1086 H 0.39447 0.82403 0.45014
 O1087 O 0.58553 1.11452 0.47879
 O1088 O 0.61317 1.14122 0.47863
 C1089 C 0.59410 1.13328 0.47073
 C1090 C 0.58212 1.14549 0.45145
 C1091 C 0.59122 1.16633 0.44232
 H1092 H 0.60669 1.17401 0.44990
 O1093 O 0.41585 1.02370 0.38505
 O1094 O 0.38869 1.02417 0.35799
 C1095 C 0.40766 1.03197 0.36626
 C1096 C 0.41996 1.05137 0.35444
 C1097 C 0.41128 1.06085 0.33362
 H1098 H 0.39575 1.05352 0.32584
 O1099 O 0.58332 0.97600 0.38410
 O1100 O 0.61058 0.97587 0.35704
 C1101 C 0.59160 0.96793 0.36526
 C1102 C 0.57934 0.94867 0.35323
 C1103 C 0.58818 0.93934 0.33240
 H1104 H 0.60384 0.94663 0.32479
 O1105 O 0.52113 0.88340 0.41585
 O1106 O 0.52100 0.85626 0.38875
 C1107 C 0.52909 0.86450 0.40759
 C1108 C 0.54844 0.85249 0.41971
 C1109 C 0.55784 0.83168 0.41083
 H1110 H 0.55055 0.82403 0.39524
 O1111 O 0.47856 1.11667 0.41744
 O1112 O 0.47914 1.14410 0.39058
 C1113 C 0.47104 1.13589 0.40945
 C1114 C 0.45226 1.14842 0.42197
 C1115 C 0.44476 1.17047 0.41447
 H1116 H 0.45314 1.17865 0.39967
 O1117 O 0.38493 1.08570 0.47836
 O1118 O 0.35812 1.11319 0.47837
 C1119 C 0.36616 1.09420 0.47035
 C1120 C 0.35402 1.08218 0.45105
 C1121 C 0.33319 1.09118 0.44188
 H1122 H 0.32550 1.10668 0.44938
 O1123 O 0.61490 0.91468 0.47738
 O1124 O 0.64192 0.88739 0.47731
 C1125 C 0.63382 0.90641 0.46943
 C1126 C 0.64620 0.91887 0.45051
 C1127 C 0.66839 0.91167 0.44310
 H1128 H 0.67695 0.89729 0.45179
 O1129 O 0.47772 1.08452 0.38583
 O1130 O 0.47807 1.11187 0.35888
 C1131 C 0.46981 1.09301 0.36703
 C1132 C 0.45037 1.08119 0.35490
 C1133 C 0.44159 1.09025 0.33401
 H1134 H 0.45000 1.10519 0.32610
 O1135 O 0.52124 0.91538 0.38414
 O1136 O 0.52093 0.88836 0.35692
 C1137 C 0.52914 0.90716 0.36520
 C1138 C 0.54866 0.91909 0.35319
 C1139 C 0.55762 0.91018 0.33230
 H1140 H 0.54923 0.89535 0.32423
 O1141 O 0.61507 0.97590 0.41602
 O1142 O 0.64248 0.97597 0.38910
 C1143 C 0.63412 0.96802 0.40799
 C1144 C 0.64636 0.94912 0.42056
 C1145 C 0.66860 0.94180 0.41349
 H1146 H 0.67709 0.95033 0.39896
 O1147 O 0.38439 1.02402 0.41728
 O1148 O 0.35717 1.02447 0.39028
 C1149 C 0.36560 1.03234 0.40911
 C1150 C 0.35386 1.05190 0.42116
 C1151 C 0.33311 1.06119 0.41225
 H1152 H 0.32506 1.05323 0.39719
 O1153 O 0.41715 1.11727 0.47856
 O1154 O 0.39049 1.14490 0.47876
 C1155 C 0.40932 1.13644 0.47079
 C1156 C 0.42199 1.14863 0.45191
 C1157 C 0.41472 1.17066 0.44417
 H1158 H 0.40029 1.17926 0.45274
 O1159 O 0.58231 0.88347 0.47739
 O1160 O 0.60922 0.85609 0.47727
 C1161 C 0.59037 0.86452 0.46936
 C1162 C 0.57820 0.85256 0.45008
 C1163 C 0.58707 0.83166 0.44117
 H1164 H 0.60193 0.82359 0.44949
 O1165 O 0.58346 1.02151 0.38423
 O1166 O 0.61055 1.02149 0.35700
 C1167 C 0.59165 1.02948 0.36529
 C1168 C 0.57926 1.04859 0.35317
 C1169 C 0.58655 1.05623 0.33110
 H1170 H 0.60117 1.04780 0.32269
 O1171 O 0.41554 0.97814 0.38513
 O1172 O 0.38828 0.97859 0.35816
 C1173 C 0.40711 0.97030 0.36628
 C1174 C 0.41885 0.95079 0.35412
 C1175 C 0.40979 0.94207 0.33321
 H1176 H 0.39500 0.95062 0.32526
 O1177 O 0.52406 1.11528 0.41755
 O1178 O 0.52463 1.14250 0.39047
 C1179 C 0.53249 1.13401 0.40930
 C1180 C 0.55208 1.14568 0.42135
 C1181 C 0.56151 1.16640 0.41243
 H1182 H 0.55374 1.17445 0.39726
 O1183 O 0.47566 0.88352 0.41603
 O1184 O 0.47539 0.85633 0.38898
 C1185 C 0.46752 0.86463 0.40789
 C1186 C 0.44821 0.85269 0.42021
 C1187 C 0.43924 0.83147 0.41192
 H1188 H 0.44692 0.82340 0.39672
 O1189 O 0.61659 1.08191 0.47867
 O1190 O 0.64438 1.10846 0.47870
 C1191 C 0.63572 1.08973 0.47071
 C1192 C 0.64763 1.07720 0.45157
 C1193 C 0.66983 1.08422 0.44398
 H1194 H 0.67874 1.09822 0.45291
 O1195 O 0.38305 0.91647 0.47771
 O1196 O 0.35535 0.88982 0.47776
 C1197 C 0.36390 0.90867 0.46986
 C1198 C 0.35175 0.92146 0.45105
 C1199 C 0.32967 0.91427 0.44339
 H1200 H 0.32137 0.89939 0.45151
 Cu1201 Cu 0.49846 0.90218 0.40282
 Cu1202 Cu 0.49812 0.86968 0.37022
 Cu1203 Cu 0.50082 1.09738 0.40423
 Cu1204 Cu 0.50137 1.13013 0.37180
 Cu1205 Cu 0.40255 1.00102 0.40378
 Cu1206 Cu 0.36985 1.00156 0.37141
 Cu1207 Cu 0.59650 0.99868 0.40282
 Cu1208 Cu 0.62923 0.99870 0.37034
 C1209 C 0.43825 0.93980 0.36412
 H1210 H 0.44514 0.94625 0.38041
 C1211 C 0.41944 0.92224 0.32259
 C1212 C 0.56064 1.06002 0.36418
 H1213 H 0.55517 1.05447 0.38135
 C1214 C 0.57549 1.07510 0.32009
 C1215 C 0.36263 0.94042 0.44002
 H1216 H 0.37980 0.94584 0.44562
 C1217 C 0.31849 0.92573 0.42490
 C1218 C 0.63639 1.05876 0.44009
 H1219 H 0.61916 1.05341 0.44567
 C1220 C 0.68066 1.07323 0.42499
 C1221 C 0.43765 0.86327 0.43957
 H1222 H 0.44421 0.87981 0.44582
 C1223 C 0.41978 0.82107 0.42258
 C1224 C 0.56240 1.13544 0.44099
 H1225 H 0.55550 1.11921 0.44770
 C1226 C 0.58112 1.17676 0.42270
 C1227 C 0.43960 1.06159 0.36483
 H1228 H 0.44611 1.05470 0.38111
 C1229 C 0.42193 1.08038 0.32332
 C1230 C 0.55948 0.93851 0.36337
 H1231 H 0.55284 0.94527 0.37966
 C1232 C 0.57750 0.92000 0.32187
 C1233 C 0.55870 0.86271 0.43942
 H1234 H 0.55196 0.87902 0.44605
 C1235 C 0.57730 0.82126 0.42136
 C1236 C 0.44091 1.13778 0.44084
 H1237 H 0.44639 1.12064 0.44651
 C1238 C 0.42601 1.18175 0.42547
 C1239 C 0.36408 1.06240 0.44069
 H1240 H 0.38032 1.05557 0.44741
 C1241 C 0.32275 1.08088 0.42236
 C1242 C 0.63543 0.93772 0.43923
 H1243 H 0.61819 0.94315 0.44463
 C1244 C 0.67978 0.92314 0.42470
 O1245 O 0.52106 0.91470 0.61647
 O1246 O 0.52066 0.88750 0.64357
 C1247 C 0.52878 0.90642 0.63544
 C1248 C 0.54778 0.91870 0.64779
 C1249 C 0.55518 0.91126 0.66986
 H1250 H 0.54655 0.89670 0.67822
 O1251 O 0.47791 1.08359 0.61691
 O1252 O 0.47813 1.11047 0.64428
 C1253 C 0.46999 1.09168 0.63589
 C1254 C 0.45079 1.07930 0.64796
 C1255 C 0.44307 1.08660 0.66998
 H1256 H 0.45174 1.10095 0.67861
 O1257 O 0.38385 1.02362 0.58450
 O1258 O 0.35653 1.02379 0.61151
 C1259 C 0.36494 1.03173 0.59265
 C1260 C 0.35292 1.05088 0.58027
 C1261 C 0.33074 1.05842 0.58738
 H1262 H 0.32193 1.04950 0.60148
 O1263 O 0.61514 0.97508 0.58465
 O1264 O 0.64235 0.97456 0.61167
 C1265 C 0.63407 0.96696 0.59266
 C1266 C 0.64632 0.94825 0.57987
 C1267 C 0.66856 0.94085 0.58676
 H1268 H 0.67694 0.94908 0.60148
 O1269 O 0.58255 0.88311 0.52276
 O1270 O 0.60933 0.85559 0.52266
 C1271 C 0.59046 0.86401 0.53061
 C1272 C 0.57784 0.85179 0.54953
 C1273 C 0.58499 0.82963 0.55700
 H1274 H 0.59923 0.82099 0.54816
 O1275 O 0.41724 1.11680 0.52386
 O1276 O 0.39051 1.14438 0.52413
 C1277 C 0.40937 1.13583 0.53192
 C1278 C 0.42207 1.14778 0.55088
 C1279 C 0.41499 1.16985 0.55866
 H1280 H 0.40065 1.17862 0.55012
 O1281 O 0.41504 0.97733 0.61584
 O1282 O 0.38774 0.97740 0.64286
 C1283 C 0.40655 0.96919 0.63458
 C1284 C 0.41829 0.94956 0.64649
 C1285 C 0.40917 0.94051 0.66727
 H1286 H 0.39404 0.94856 0.67518
 O1287 O 0.58362 1.02062 0.61664
 O1288 O 0.61073 1.02016 0.64377
 C1289 C 0.59191 1.02840 0.63556
 C1290 C 0.57994 1.04770 0.64775
 C1291 C 0.58864 1.05620 0.66888
 H1292 H 0.60356 1.04788 0.67685
 O1293 O 0.47563 0.88331 0.58418
 O1294 O 0.47540 0.85581 0.61099
 C1295 C 0.46760 0.86426 0.59211
 C1296 C 0.44871 0.85210 0.57946
 C1297 C 0.44136 0.82982 0.58637
 H1298 H 0.44983 0.82133 0.60091
 O1299 O 0.52403 1.11501 0.58548
 O1300 O 0.52431 1.14216 0.61258
 C1301 C 0.53222 1.13386 0.59367
 C1302 C 0.55141 1.14588 0.58124
 C1303 C 0.55930 1.16787 0.58853
 H1304 H 0.55079 1.17652 0.60296
 O1305 O 0.38309 0.91639 0.52303
 O1306 O 0.35548 0.88966 0.52311
 C1307 C 0.36397 0.90852 0.53095
 C1308 C 0.35175 0.92126 0.54973
 C1309 C 0.32957 0.91416 0.55727
 H1310 H 0.32096 0.89970 0.54877
 O1311 O 0.61690 1.08206 0.52406
 O1312 O 0.64455 1.10875 0.52415
 C1313 C 0.63598 1.08991 0.53202
 C1314 C 0.64794 1.07726 0.55102
 C1315 C 0.66981 1.08465 0.55911
 H1316 H 0.67848 1.09920 0.55076
 O1317 O 0.52330 1.08292 0.61711
 O1318 O 0.52366 1.10989 0.64438
 C1319 C 0.53133 1.09088 0.63608
 C1320 C 0.55028 1.07823 0.64812
 C1321 C 0.55920 1.08643 0.66934
 H1322 H 0.55173 1.10177 0.67738
 O1323 O 0.47563 0.91513 0.61603
 O1324 O 0.47513 0.88779 0.64299
 C1325 C 0.46738 0.90683 0.63480
 C1326 C 0.44810 0.91914 0.64674
 C1327 C 0.43880 0.91045 0.66766
 H1328 H 0.44624 0.89504 0.67558
 O1329 O 0.61574 1.02042 0.58500
 O1330 O 0.64294 1.01989 0.61203
 C1331 C 0.63482 1.02804 0.59317
 C1332 C 0.64738 1.04693 0.58086
 C1333 C 0.66925 1.05453 0.58869
 H1334 H 0.67721 1.04618 0.60359
 O1335 O 0.38334 0.97821 0.58394
 O1336 O 0.35592 0.97841 0.61086
 C1337 C 0.36418 0.97051 0.59193
 C1338 C 0.35175 0.95174 0.57937
 C1339 C 0.32951 0.94448 0.58659
 H1340 H 0.32111 0.95306 0.60112
 O1341 O 0.58532 1.11428 0.52415
 O1342 O 0.61280 1.14115 0.52407
 C1343 C 0.59372 1.13316 0.53202
 C1344 C 0.58137 1.14559 0.55095
 C1345 C 0.58891 1.16763 0.55837
 H1346 H 0.60363 1.17587 0.54987
 O1347 O 0.41440 0.88388 0.52291
 O1348 O 0.38698 0.85696 0.52292
 C1349 C 0.40606 0.86493 0.53077
 C1350 C 0.41853 0.85241 0.54953
 C1351 C 0.41141 0.83008 0.55668
 H1352 H 0.39714 0.82153 0.54781
 O1353 O 0.58323 0.97518 0.61659
 O1354 O 0.61027 0.97468 0.64378
 C1355 C 0.59123 0.96706 0.63552
 C1356 C 0.57845 0.94826 0.64772
 C1357 C 0.58568 0.94052 0.66972
 H1358 H 0.60024 0.94894 0.67824
 O1359 O 0.41586 1.02282 0.61625
 O1360 O 0.38869 1.02292 0.64341
 C1361 C 0.40779 1.03065 0.63527
 C1362 C 0.42051 1.04932 0.64771
 C1363 C 0.41313 1.05678 0.66976
 H1364 H 0.39829 1.04847 0.67798
 O1365 O 0.47862 1.11558 0.58515
 O1366 O 0.47883 1.14266 0.61231
 C1367 C 0.47093 1.13462 0.59331
 C1368 C 0.45225 1.14723 0.58082
 C1369 C 0.44494 1.16931 0.58832
 H1370 H 0.45335 1.17739 0.60311
 O1371 O 0.52106 0.88326 0.58420
 O1372 O 0.52085 0.85587 0.61111
 C1373 C 0.52888 0.86420 0.59224
 C1374 C 0.54778 0.85190 0.57969
 C1375 C 0.55525 0.82979 0.58699
 H1376 H 0.54694 0.82156 0.60179
 O1377 O 0.61488 0.91463 0.52274
 O1378 O 0.64183 0.88727 0.52265
 C1379 C 0.63380 0.90629 0.53058
 C1380 C 0.64622 0.91859 0.54946
 C1381 C 0.66852 0.91143 0.55653
 H1382 H 0.67712 0.89734 0.54744
 O1383 O 0.38480 1.08545 0.52371
 O1384 O 0.35787 1.11282 0.52384
 C1385 C 0.36588 1.09373 0.53164
 C1386 C 0.35340 1.08121 0.55043
 C1387 C 0.33128 1.08858 0.55784
 H1388 H 0.32320 1.10345 0.54954
 Cu1389 Cu 0.49839 0.90184 0.59754
 Cu1390 Cu 0.49799 0.86900 0.62989
 Cu1391 Cu 0.50094 1.09657 0.59845
 Cu1392 Cu 0.50124 1.12901 0.63114
 Cu1393 Cu 0.40154 0.90290 0.50033
 Cu1394 Cu 0.36844 0.87077 0.50034
 Cu1395 Cu 0.59598 0.90173 0.50011
 Cu1396 Cu 0.62824 0.86880 0.49997
 Cu1397 Cu 0.40369 1.09855 0.50111
 Cu1398 Cu 0.37154 1.13158 0.50132
 Cu1399 Cu 0.59833 1.09553 0.50145
 Cu1400 Cu 0.63150 1.12758 0.50140
 Cu1401 Cu 0.40226 1.00052 0.59743
 Cu1402 Cu 0.36951 1.00067 0.62990
 Cu1403 Cu 0.59670 0.99784 0.59801
 Cu1404 Cu 0.62927 0.99725 0.63057
 C1405 C 0.55938 0.93737 0.63700
 H1406 H 0.55394 0.94303 0.61988
 C1407 C 0.57411 0.92208 0.68095
 C1408 C 0.43951 1.06053 0.63708
 H1409 H 0.44513 1.05503 0.61995
 C1410 C 0.42431 1.07538 0.68104
 C1411 C 0.36397 1.06224 0.56163
 H1412 H 0.38116 1.05666 0.55621
 C1413 C 0.31973 1.07722 0.57622
 C1414 C 0.63540 0.93716 0.56108
 H1415 H 0.61811 0.94259 0.55587
 C1416 C 0.67988 0.92252 0.57513
 C1417 C 0.55907 0.86267 0.56083
 H1418 H 0.55362 0.87986 0.55532
 C1419 C 0.57381 0.81847 0.57571
 C1420 C 0.44086 1.13672 0.56194
 H1421 H 0.44621 1.11955 0.55626
 C1422 C 0.42634 1.18076 0.57735
 C1423 C 0.43787 0.93886 0.63644
 H1424 H 0.44472 0.94548 0.62016
 C1425 C 0.41924 0.92095 0.67791
 C1426 C 0.56061 1.05869 0.63761
 H1427 H 0.55407 1.05248 0.62108
 C1428 C 0.57849 1.07561 0.67971
 C1429 C 0.43733 0.86314 0.56090
 H1430 H 0.44274 0.88045 0.55566
 C1431 C 0.42282 0.81858 0.57502
 C1432 C 0.56246 1.13500 0.56233
 H1433 H 0.55670 1.11790 0.55683
 C1434 C 0.57796 1.17892 0.57711
 C1435 C 0.36260 0.94019 0.56077
 H1436 H 0.37986 0.94553 0.55528
 C1437 C 0.31830 0.92572 0.57563
 C1438 C 0.63699 1.05825 0.56188
 H1439 H 0.61998 1.05266 0.55596
 C1440 C 0.68061 1.07337 0.57794
 O1441 O 0.47656 0.41659 0.88396
 O1442 O 0.47619 0.38936 0.85695
 C1443 C 0.46832 0.40829 0.86522
 C1444 C 0.44897 0.42050 0.85334
 C1445 C 0.43959 0.41172 0.83253
 H1446 H 0.44685 0.39610 0.82488
 O1447 O 0.52327 0.58519 0.88395
 O1448 O 0.52356 0.61230 0.85675
 C1449 C 0.53128 0.59326 0.86497
 C1450 C 0.55005 0.58056 0.85265
 C1451 C 0.55751 0.58773 0.83049
 H1452 H 0.54898 0.60223 0.82198
 O1453 O 0.38380 0.47931 0.91580
 O1454 O 0.35660 0.47964 0.88876
 C1455 C 0.36470 0.47165 0.90771
 C1456 C 0.35215 0.45286 0.92021
 C1457 C 0.33001 0.44551 0.91285
 H1458 H 0.32175 0.45403 0.89821
 O1459 O 0.61656 0.52259 0.91480
 O1460 O 0.64361 0.52249 0.88752
 C1461 C 0.63560 0.53036 0.90657
 C1462 C 0.64825 0.54898 0.91914
 C1463 C 0.67039 0.55636 0.91174
 H1464 H 0.67841 0.54815 0.89679
 O1465 O 0.41467 0.38530 0.97659
 O1466 O 0.38737 0.35827 0.97638
 C1467 C 0.40646 0.36638 0.96861
 C1468 C 0.41913 0.35400 0.94986
 C1469 C 0.41177 0.33194 0.94223
 H1470 H 0.39707 0.32353 0.95058
 O1471 O 0.58573 0.61494 0.97623
 O1472 O 0.61319 0.64182 0.97622
 C1473 C 0.59418 0.63378 0.96825
 C1474 C 0.58210 0.64617 0.94915
 C1475 C 0.59108 0.66717 0.94042
 H1476 H 0.60641 0.67483 0.94830
 O1477 O 0.41653 0.52418 0.88383
 O1478 O 0.38969 0.52424 0.85644
 C1479 C 0.40865 0.53204 0.86475
 C1480 C 0.42141 0.55080 0.85243
 C1481 C 0.41455 0.55795 0.83012
 H1482 H 0.40009 0.54932 0.82164
 O1483 O 0.58392 0.47763 0.88311
 O1484 O 0.61080 0.47746 0.85567
 C1485 C 0.59181 0.46972 0.86404
 C1486 C 0.57894 0.45103 0.85178
 C1487 C 0.58591 0.44361 0.82957
 H1488 H 0.60064 0.45189 0.82113
 O1489 O 0.52244 0.38505 0.91554
 O1490 O 0.52236 0.35798 0.88837
 C1491 C 0.53048 0.36623 0.90719
 C1492 C 0.54993 0.35416 0.91906
 C1493 C 0.55899 0.33343 0.90986
 H1494 H 0.55106 0.32570 0.89463
 O1495 O 0.47804 0.61737 0.91579
 O1496 O 0.47817 0.64461 0.88874
 C1497 C 0.47008 0.63630 0.90760
 C1498 C 0.45067 0.64823 0.91974
 C1499 C 0.44140 0.66914 0.91099
 H1500 H 0.44901 0.67714 0.89568
 O1501 O 0.38385 0.58547 0.97704
 O1502 O 0.35679 0.61271 0.97726
 C1503 C 0.36498 0.59385 0.96912
 C1504 C 0.35303 0.58193 0.94967
 C1505 C 0.33216 0.59080 0.94044
 H1506 H 0.32415 0.60604 0.94812
 O1507 O 0.61615 0.41606 0.97655
 O1508 O 0.64331 0.38891 0.97630
 C1509 C 0.63506 0.40789 0.96847
 C1510 C 0.64722 0.42033 0.94941
 C1511 C 0.66926 0.41297 0.94173
 H1512 H 0.67788 0.39866 0.95045
 O1513 O 0.47793 0.58559 0.88387
 O1514 O 0.47816 0.61266 0.85664
 C1515 C 0.47014 0.59372 0.86487
 C1516 C 0.45131 0.58115 0.85254
 C1517 C 0.44410 0.58817 0.83026
 H1518 H 0.45285 0.60251 0.82164
 O1519 O 0.52200 0.41678 0.88350
 O1520 O 0.52165 0.38979 0.85623
 C1521 C 0.52969 0.40871 0.86441
 C1522 C 0.54855 0.42119 0.85197
 C1523 C 0.55578 0.41398 0.82976
 H1524 H 0.54682 0.39975 0.82123
 O1525 O 0.61586 0.47723 0.91492
 O1526 O 0.64292 0.47707 0.88766
 C1527 C 0.63475 0.46921 0.90667
 C1528 C 0.64705 0.45029 0.91916
 C1529 C 0.66909 0.44271 0.91175
 H1530 H 0.67733 0.45099 0.89693
 O1531 O 0.38446 0.52473 0.91559
 O1532 O 0.35754 0.52504 0.88828
 C1533 C 0.36572 0.53293 0.90721
 C1534 C 0.35364 0.55224 0.91925
 C1535 C 0.33292 0.56142 0.91020
 H1536 H 0.32518 0.55367 0.89487
 O1537 O 0.41641 0.61659 0.97691
 O1538 O 0.38944 0.64392 0.97720
 C1539 C 0.40825 0.63557 0.96903
 C1540 C 0.42036 0.64768 0.94971
 C1541 C 0.41130 0.66846 0.94061
 H1542 H 0.39600 0.67623 0.94845
 O1543 O 0.58426 0.38420 0.97658
 O1544 O 0.61126 0.35691 0.97627
 C1545 C 0.59237 0.36531 0.96841
 C1546 C 0.58009 0.35353 0.94905
 C1547 C 0.58880 0.33268 0.93964
 H1548 H 0.60417 0.32467 0.94707
 O1549 O 0.58412 0.52304 0.88353
 O1550 O 0.61099 0.52292 0.85607
 C1551 C 0.59216 0.53095 0.86451
 C1552 C 0.57969 0.54999 0.85237
 C1553 C 0.58679 0.55731 0.83016
 H1554 H 0.60123 0.54868 0.82162
 O1555 O 0.41595 0.47870 0.88414
 O1556 O 0.38883 0.47882 0.85703
 C1557 C 0.40763 0.47066 0.86533
 C1558 C 0.41946 0.45113 0.85339
 C1559 C 0.41051 0.44228 0.83250
 H1560 H 0.39573 0.45074 0.82444
 O1561 O 0.52358 0.61698 0.91575
 O1562 O 0.52391 0.64428 0.88876
 C1563 C 0.53186 0.63580 0.90756
 C1564 C 0.55148 0.64739 0.91964
 C1565 C 0.56067 0.66850 0.91125
 H1566 H 0.55286 0.67686 0.89628
 O1567 O 0.47692 0.38486 0.91597
 O1568 O 0.47685 0.35752 0.88906
 C1569 C 0.46898 0.36584 0.90797
 C1570 C 0.44995 0.35365 0.92046
 C1571 C 0.44245 0.33155 0.91319
 H1572 H 0.45108 0.32308 0.89872
 O1573 O 0.61769 0.58311 0.97650
 O1574 O 0.64526 0.60988 0.97666
 C1575 C 0.63681 0.59106 0.96867
 C1576 C 0.64891 0.57859 0.94963
 C1577 C 0.67109 0.58568 0.94206
 H1578 H 0.67993 0.59973 0.95099
 O1579 O 0.38310 0.41760 0.97675
 O1580 O 0.35561 0.39075 0.97657
 C1581 C 0.36405 0.40970 0.96880
 C1582 C 0.35191 0.42244 0.94998
 C1583 C 0.32983 0.41526 0.94231
 H1584 H 0.32118 0.40079 0.95081
 Cu1585 Cu 0.49950 0.40354 0.90245
 Cu1586 Cu 0.49926 0.37091 0.86996
 Cu1587 Cu 0.50066 0.59861 0.90258
 Cu1588 Cu 0.50097 0.63126 0.87005
 Cu1589 Cu 0.40290 0.50171 0.90257
 Cu1590 Cu 0.37046 0.50196 0.86988
 Cu1591 Cu 0.59742 0.50013 0.90182
 Cu1592 Cu 0.62978 0.49997 0.86897
 C1593 C 0.43885 0.44030 0.86354
 H1594 H 0.44566 0.44689 0.87981
 C1595 C 0.42026 0.42244 0.82204
 C1596 C 0.56115 0.56156 0.86336
 H1597 H 0.55572 0.55615 0.88059
 C1598 C 0.57578 0.57613 0.81908
 C1599 C 0.36282 0.44138 0.93895
 H1600 H 0.38000 0.44677 0.94454
 C1601 C 0.31872 0.42673 0.92381
 C1602 C 0.63777 0.56008 0.93821
 H1603 H 0.62055 0.55471 0.94380
 C1604 C 0.68202 0.57464 0.92314
 C1605 C 0.43836 0.36460 0.93897
 H1606 H 0.44391 0.38176 0.94450
 C1607 C 0.42342 0.32055 0.92398
 C1608 C 0.56219 0.63651 0.93876
 H1609 H 0.55542 0.62008 0.94514
 C1610 C 0.58055 0.67841 0.92147
 C1611 C 0.43997 0.56234 0.86337
 H1612 H 0.44520 0.55705 0.88068
 C1613 C 0.42583 0.57655 0.81887
 C1614 C 0.56010 0.43986 0.86272
 H1615 H 0.55482 0.44530 0.87997
 C1616 C 0.57440 0.42513 0.81839
 C1617 C 0.56049 0.36400 0.93877
 H1618 H 0.55387 0.38024 0.94568
 C1619 C 0.57846 0.32266 0.91993
 C1620 C 0.44016 0.63780 0.93927
 H1621 H 0.44696 0.62152 0.94592
 C1622 C 0.42160 0.67922 0.92122
 C1623 C 0.36346 0.56248 0.93910
 H1624 H 0.37970 0.55574 0.94589
 C1625 C 0.32213 0.58072 0.92058
 C1626 C 0.63637 0.43913 0.93814
 H1627 H 0.61925 0.44470 0.94378
 C1628 C 0.68036 0.42410 0.92295
 O1629 O 0.52214 0.41519 1.11445
 O1630 O 0.52190 0.38790 1.14146
 C1631 C 0.53004 0.40681 1.13330
 C1632 C 0.54939 0.41878 1.14545
 C1633 C 0.55815 0.40983 1.16639
 H1634 H 0.54998 0.39474 1.17428
 O1635 O 0.47815 0.58422 1.11455
 O1636 O 0.47851 0.61143 1.14159
 C1637 C 0.47033 0.59255 1.13347
 C1638 C 0.45102 0.58058 1.14577
 C1639 C 0.44241 0.58944 1.16683
 H1640 H 0.45089 0.60429 1.17475
 O1641 O 0.38435 0.52337 1.08402
 O1642 O 0.35713 0.52350 1.11114
 C1643 C 0.36540 0.53138 1.09218
 C1644 C 0.35322 0.55039 1.07969
 C1645 C 0.33122 0.55817 1.08710
 H1646 H 0.32265 0.54965 1.10160
 O1647 O 0.61631 0.47634 1.08353
 O1648 O 0.64345 0.47621 1.11062
 C1649 C 0.63529 0.46841 1.09163
 C1650 C 0.64767 0.44964 1.07899
 C1651 C 0.66981 0.44218 1.08617
 H1652 H 0.67802 0.45045 1.10096
 O1653 O 0.58418 0.38416 1.02198
 O1654 O 0.61123 0.35692 1.02181
 C1655 C 0.59234 0.36520 1.02989
 C1656 C 0.58013 0.35305 1.04912
 C1657 C 0.58911 0.33226 1.05829
 H1658 H 0.60448 0.32451 1.05057
 O1659 O 0.41628 0.61683 1.02224
 O1660 O 0.38936 0.64420 1.02263
 C1661 C 0.40834 0.63583 1.03029
 C1662 C 0.42110 0.64794 1.04910
 C1663 C 0.41378 0.66986 1.05711
 H1664 H 0.39917 0.67844 1.04885
 O1665 O 0.41606 0.47773 1.11576
 O1666 O 0.38910 0.47788 1.14312
 C1667 C 0.40787 0.46970 1.13468
 C1668 C 0.41987 0.45011 1.14645
 C1669 C 0.41122 0.44095 1.16746
 H1670 H 0.39608 0.44875 1.17557
 O1671 O 0.58430 0.52158 1.11547
 O1672 O 0.61115 0.52139 1.14284
 C1673 C 0.59236 0.52949 1.13444
 C1674 C 0.58018 0.54889 1.14629
 C1675 C 0.58862 0.55789 1.16740
 H1676 H 0.60366 0.55005 1.17565
 O1677 O 0.47650 0.38360 1.08258
 O1678 O 0.47625 0.35622 1.10949
 C1679 C 0.46832 0.36469 1.09069
 C1680 C 0.44884 0.35295 1.07854
 C1681 C 0.43958 0.33193 1.08709
 H1682 H 0.44724 0.32375 1.10223
 O1683 O 0.52381 0.61578 1.08242
 O1684 O 0.52407 0.64309 1.10935
 C1685 C 0.53186 0.63476 1.09042
 C1686 C 0.55083 0.64696 1.07786
 C1687 C 0.55826 0.66914 1.08499
 H1688 H 0.54970 0.67763 1.09948
 O1689 O 0.38301 0.41713 1.02216
 O1690 O 0.35553 0.39027 1.02206
 C1691 C 0.36404 0.40900 1.03019
 C1692 C 0.35226 0.42108 1.04972
 C1693 C 0.33127 0.41243 1.05896
 H1694 H 0.32314 0.39725 1.05127
 O1695 O 0.61702 0.58284 1.02195
 O1696 O 0.64435 0.60985 1.02213
 C1697 C 0.63587 0.59101 1.03012
 C1698 C 0.64761 0.57895 1.04965
 C1699 C 0.66838 0.58790 1.05890
 H1700 H 0.67654 0.60283 1.05075
 O1701 O 0.52361 0.58373 1.11425
 O1702 O 0.52395 0.61098 1.14124
 C1703 C 0.53168 0.59193 1.13309
 C1704 C 0.55066 0.57955 1.14537
 C1705 C 0.55945 0.58836 1.16633
 H1706 H 0.55167 0.60371 1.17404
 O1707 O 0.47665 0.41546 1.11448
 O1708 O 0.47641 0.38815 1.14147
 C1709 C 0.46859 0.40720 1.13335
 C1710 C 0.44947 0.41947 1.14562
 C1711 C 0.44053 0.41060 1.16657
 H1712 H 0.44840 0.39531 1.17433
 O1713 O 0.61626 0.52176 1.08373
 O1714 O 0.64323 0.52171 1.11099
 C1715 C 0.63508 0.52979 1.09209
 C1716 C 0.64721 0.54916 1.08005
 C1717 C 0.66788 0.55853 1.08919
 H1718 H 0.67526 0.55120 1.10489
 O1719 O 0.38426 0.47794 1.08394
 O1720 O 0.35719 0.47801 1.11119
 C1721 C 0.36534 0.47000 1.09225
 C1722 C 0.35307 0.45082 1.08015
 C1723 C 0.33217 0.44185 1.08916
 H1724 H 0.32444 0.44970 1.10446
 O1725 O 0.58575 0.61532 1.02156
 O1726 O 0.61298 0.64244 1.02157
 C1727 C 0.59393 0.63432 1.02940
 C1728 C 0.58133 0.64672 1.04816
 C1729 C 0.58865 0.66884 1.05565
 H1730 H 0.60322 0.67731 1.04714
 O1731 O 0.41472 0.38518 1.02189
 O1732 O 0.38734 0.35822 1.02175
 C1733 C 0.40633 0.36627 1.02975
 C1734 C 0.41841 0.35389 1.04884
 C1735 C 0.40936 0.33299 1.05772
 H1736 H 0.39402 0.32532 1.04987
 O1737 O 0.58409 0.47614 1.11515
 O1738 O 0.61106 0.47582 1.14240
 C1739 C 0.59215 0.46797 1.13402
 C1740 C 0.57974 0.44869 1.14589
 C1741 C 0.58821 0.43950 1.16690
 H1742 H 0.60357 0.44698 1.17487
 O1743 O 0.41637 0.52328 1.11568
 O1744 O 0.38932 0.52356 1.14294
 C1745 C 0.40824 0.53145 1.13453
 C1746 C 0.42058 0.55079 1.14633
 C1747 C 0.41206 0.56007 1.16731
 H1748 H 0.39659 0.55267 1.17521
 O1749 O 0.47834 0.61615 1.08266
 O1750 O 0.47873 0.64341 1.10965
 C1751 C 0.47064 0.63521 1.09082
 C1752 C 0.45169 0.64765 1.07859
 C1753 C 0.44416 0.66959 1.08633
 H1754 H 0.45264 0.67768 1.10107
 O1755 O 0.52207 0.38334 1.08262
 O1756 O 0.52185 0.35599 1.10957
 C1757 C 0.53001 0.36437 1.09079
 C1758 C 0.54953 0.35247 1.07878
 C1759 C 0.55873 0.33157 1.08761
 H1760 H 0.55098 0.32359 1.10286
 O1761 O 0.61654 0.41564 1.02192
 O1762 O 0.64372 0.38853 1.02169
 C1763 C 0.63554 0.40744 1.02972
 C1764 C 0.64784 0.41981 1.04869
 C1765 C 0.67003 0.41262 1.05606
 H1766 H 0.67870 0.39846 1.04713
 O1767 O 0.38451 0.58469 1.02242
 O1768 O 0.35741 0.61189 1.02270
 C1769 C 0.36560 0.59286 1.03047
 C1770 C 0.35331 0.58034 1.04942
 C1771 C 0.33127 0.58776 1.05699
 H1772 H 0.32298 0.60247 1.04858
 Cu1773 Cu 0.49935 0.40210 1.09580
 Cu1774 Cu 0.49906 0.36932 1.12820
 Cu1775 Cu 0.50095 0.59724 1.09575
 Cu1776 Cu 0.50137 0.62993 1.12820
 Cu1777 Cu 0.40159 0.40402 0.99931
 Cu1778 Cu 0.36869 0.37168 0.99912
 Cu1779 Cu 0.59758 0.40273 0.99929
 Cu1780 Cu 0.63006 0.37004 0.99900
 Cu1781 Cu 0.40294 0.59815 0.99966
 Cu1782 Cu 0.37054 0.63093 1.00004
 Cu1783 Cu 0.59883 0.59634 0.99905
 Cu1784 Cu 0.63172 0.62868 0.99915
 Cu1785 Cu 0.40299 0.50059 1.09716
 Cu1786 Cu 0.37049 0.50076 1.12985
 Cu1787 Cu 0.59754 0.49895 1.09676
 Cu1788 Cu 0.62992 0.49872 1.12947
 C1789 C 0.56018 0.43834 1.13543
 H1790 H 0.55377 0.44509 1.11905
 C1791 C 0.57761 0.41997 1.17716
 C1792 C 0.44016 0.56109 1.13580
 H1793 H 0.44655 0.55435 1.11940
 C1794 C 0.42281 0.57948 1.17764
 C1795 C 0.36402 0.56148 1.06071
 H1796 H 0.38113 0.55583 1.05512
 C1797 C 0.32007 0.57677 1.07577
 C1798 C 0.63694 0.43847 1.06012
 H1799 H 0.61973 0.44394 1.05470
 C1800 C 0.68123 0.42377 1.07474
 C1801 C 0.56021 0.36292 1.05937
 H1802 H 0.55345 0.37920 1.05267
 C1803 C 0.57862 0.32148 1.07758
 C1804 C 0.44021 0.63710 1.05982
 H1805 H 0.44574 0.62005 1.05397
 C1806 C 0.42523 0.68083 1.07571
 C1807 C 0.43915 0.43936 1.13581
 H1808 H 0.44569 0.44606 1.11944
 C1809 C 0.42136 0.42110 1.17754
 C1810 C 0.56101 0.55969 1.13557
 H1811 H 0.55460 0.55309 1.11914
 C1812 C 0.57845 0.57775 1.17737
 C1813 C 0.43828 0.36364 1.05924
 H1814 H 0.44509 0.38001 1.05277
 C1815 C 0.41974 0.32195 1.07687
 C1816 C 0.56229 0.63604 1.05926
 H1817 H 0.55678 0.61883 1.05384
 C1818 C 0.57712 0.68022 1.07397
 C1819 C 0.36288 0.44043 1.06031
 H1820 H 0.37923 0.44699 1.05352
 C1821 C 0.32122 0.42262 1.07877
 C1822 C 0.63730 0.55941 1.06019
 H1823 H 0.62110 0.55261 1.05333
 C1824 C 0.67852 0.57800 1.07882
 C1825 C 1.11100 1.10681 1.26924
 C1826 C 1.12399 1.09338 1.28494
 C1827 C 1.13367 1.10386 1.30456
 C1828 C 1.13068 1.12789 1.30885
 C1829 C 1.11708 1.14050 1.29273
 N1830 N 1.10804 1.12987 1.27368
 C1831 C 1.10140 1.09724 1.24731
 N1832 N 1.09514 1.11247 1.23026
 C1833 C 1.08671 1.10537 1.20939
 C1834 C 1.08424 1.08155 1.20456
 C1835 C 1.09023 1.06550 1.22195
 C1836 C 1.09868 1.07323 1.24335
 H1837 H 1.14297 1.09274 1.31654
 H1838 H 1.11461 1.15908 1.29427
 H1839 H 1.08245 1.11835 1.19641
 H1840 H 1.08815 1.04697 1.21908
 H1841 H 1.12723 1.07507 1.28207
 H1842 H 1.10272 1.06043 1.25653
 C1843 C 1.11019 0.60831 0.76760
 C1844 C 1.11735 0.59469 0.78666
 C1845 C 1.12671 0.60552 0.80627
 C1846 C 1.12887 0.62984 0.80714
 C1847 C 1.12095 0.64285 0.78808
 N1848 N 1.11211 0.63192 0.76910
 C1849 C 1.10119 0.59823 0.74556
 N1850 N 1.09484 0.61320 0.72831
 C1851 C 1.08697 0.60584 0.70731
 C1852 C 1.08519 0.58196 0.70248
 C1853 C 1.09156 0.56612 0.71994
 C1854 C 1.09952 0.57412 0.74144
 H1855 H 1.13234 0.59486 0.82075
 H1856 H 1.12249 0.66163 0.78790
 H1857 H 1.08256 0.61869 0.69427
 H1858 H 1.09020 0.54754 0.71703
 H1859 H 1.11611 0.57595 0.78669
 H1860 H 1.10432 0.56133 0.75432
 C1861 C 0.61865 1.11259 0.76364
 C1862 C 0.64183 1.10870 0.77012
 C1863 C 0.65042 1.11856 0.79046
 C1864 C 0.63603 1.13220 0.80501
 C1865 C 0.61259 1.13499 0.79805
 N1866 N 0.60472 1.12528 0.77796
 C1867 C 0.60889 1.10312 0.74175
 N1868 N 0.58536 1.10089 0.73960
 C1869 C 0.57521 1.09233 0.72002
 C1870 C 0.58901 1.08530 0.70112
 C1871 C 0.61323 1.08786 0.70279
 C1872 C 0.62321 1.09685 0.72291
 H1873 H 0.66876 1.11616 0.79390
 H1874 H 0.60017 1.14428 0.80867
 H1875 H 0.55644 1.09069 0.71936
 H1876 H 0.62444 1.08325 0.68834
 H1877 H 0.65345 1.09816 0.75974
 H1878 H 0.64188 1.09921 0.72332
 C1879 C 0.61475 0.61867 1.26128
 C1880 C 0.61455 0.64271 1.26594
 C1881 C 0.62367 0.65097 1.28679
 C1882 C 0.63267 0.63548 1.30337
 C1883 C 0.63206 0.61155 1.29833
 N1884 N 0.62329 0.60390 1.27775
 C1885 C 0.60577 0.60878 1.23918
 N1886 N 0.60210 0.58536 1.23777
 C1887 C 0.59377 0.57496 1.21822
 C1888 C 0.58837 0.58840 1.19859
 C1889 C 0.59240 0.61245 1.19946
 C1890 C 0.60122 0.62267 1.21954
 H1891 H 0.62403 0.66959 1.28969
 H1892 H 0.63845 0.59891 1.31074
 H1893 H 0.59094 0.55632 1.21817
 H1894 H 0.58896 0.62333 1.18445
 H1895 H 0.60741 0.65524 1.25391
 H1896 H 0.60461 0.64116 1.21926
 C1897 C 0.88879 0.89089 1.26916
 C1898 C 0.87565 0.90473 1.28437
 C1899 C 0.86654 0.89503 1.30466
 C1900 C 0.87012 0.87131 1.31015
 C1901 C 0.88352 0.85815 1.29426
 N1902 N 0.89213 0.86807 1.27455
 C1903 C 0.89835 0.90004 1.24694
 N1904 N 0.90432 0.88464 1.22994
 C1905 C 0.91270 0.89158 1.20891
 C1906 C 0.91537 0.91536 1.20389
 C1907 C 0.90977 0.93153 1.22128
 C1908 C 0.90143 0.92399 1.24281
 H1909 H 0.85730 0.90659 1.31628
 H1910 H 0.88640 0.83972 1.29673
 H1911 H 0.91675 0.87852 1.19596
 H1912 H 0.91207 0.95002 1.21829
 H1913 H 0.87200 0.92282 1.28069
 H1914 H 0.89776 0.93690 1.25597
 C1915 C 0.88102 0.38187 0.76112
 C1916 C 0.85719 0.37703 0.76435
 C1917 C 0.84938 0.36857 0.78571
 C1918 C 0.86515 0.36454 0.80384
 C1919 C 0.88886 0.36883 0.79977
 N1920 N 0.89605 0.37738 0.77889
 C1921 C 0.89046 0.39176 0.73913
 N1922 N 0.91399 0.39238 0.73605
 C1923 C 0.92413 0.40147 0.71667
 C1924 C 0.91036 0.41086 0.69882
 C1925 C 0.88607 0.41043 0.70161
 C1926 C 0.87609 0.40111 0.72167
 H1927 H 0.83100 0.36499 0.78804
 H1928 H 0.90157 0.36591 0.81334
 H1929 H 0.94294 0.40166 0.71540
 H1930 H 0.87471 0.41715 0.68818
 H1931 H 0.84452 0.37946 0.75073
 H1932 H 0.85737 0.40165 0.72328
 C1933 C 0.37872 0.88348 0.76176
 C1934 C 0.35483 0.88448 0.76717
 C1935 C 0.34690 0.87580 0.78839
 C1936 C 0.36259 0.86638 0.80453
 C1937 C 0.38630 0.86573 0.79855
 N1938 N 0.39363 0.87422 0.77769
 C1939 C 0.38840 0.89273 0.73962
 N1940 N 0.41190 0.89562 0.73773
 C1941 C 0.42218 0.90429 0.71823
 C1942 C 0.40855 0.91091 0.69913
 C1943 C 0.38438 0.90776 0.70048
 C1944 C 0.37426 0.89856 0.72053
 H1945 H 0.32841 0.87635 0.79207
 H1946 H 0.39905 0.85884 0.81057
 H1947 H 0.44091 0.90642 0.71783
 H1948 H 0.37332 0.91215 0.68588
 H1949 H 0.34222 0.89211 0.75555
 H1950 H 0.35564 0.89592 0.72064
 C1951 C 0.38450 0.38125 1.26205
 C1952 C 0.38876 0.35822 1.26893
 C1953 C 0.37996 0.35009 1.29003
 C1954 C 0.36691 0.36476 1.30481
 C1955 C 0.36329 0.38788 1.29716
 N1956 N 0.37212 0.39536 1.27649
 C1957 C 0.39359 0.39087 1.23986
 N1958 N 0.39592 0.41438 1.23754
 C1959 C 0.40445 0.42446 1.21785
 C1960 C 0.41139 0.41061 1.19897
 C1961 C 0.40868 0.38639 1.20079
 C1962 C 0.39972 0.37649 1.22106
 H1963 H 0.38285 0.33193 1.29407
 H1964 H 0.35430 0.40047 1.30786
 H1965 H 0.40622 0.44321 1.21714
 H1966 H 0.41321 0.37512 1.18640
 H1967 H 0.39900 0.34647 1.25839
 H1968 H 0.39736 0.35782 1.22166
 C1969 C 0.88468 1.12102 0.73895
 C1970 C 0.88693 1.14452 0.73269
 C1971 C 0.87739 1.15242 0.71187
 C1972 C 0.86565 1.13705 0.69671
 C1973 C 0.86414 1.11349 0.70369
 N1974 N 0.87358 1.10629 0.72414
 C1975 C 0.89442 1.11154 0.76090
 N1976 N 0.89716 1.08806 0.76303
 C1977 C 0.90599 1.07798 0.78253
 C1978 C 0.91282 1.09180 0.80143
 C1979 C 0.90987 1.11598 0.79979
 C1980 C 0.90059 1.12590 0.77972
 H1981 H 0.87862 1.17087 0.70838
 H1982 H 0.85631 1.10043 0.69267
 H1983 H 0.90798 1.05925 0.78311
 H1984 H 0.91438 1.12721 0.81423
 H1985 H 0.89607 1.15689 0.74348
 H1986 H 0.89798 1.14452 0.77936
 C1987 C 0.89123 0.61251 0.23299
 C1988 C 0.90424 0.62579 0.21713
 C1989 C 0.89335 0.63532 0.19765
 C1990 C 0.86931 0.63190 0.19366
 C1991 C 0.85714 0.61801 0.20994
 N1992 N 0.86817 0.60912 0.22884
 C1993 C 0.90124 0.60303 0.25480
 N1994 N 0.88633 0.59641 0.27203
 C1995 C 0.89382 0.58799 0.29278
 C1996 C 0.91773 0.58587 0.29728
 C1997 C 0.93348 0.59229 0.27972
 C1998 C 0.92535 0.60074 0.25845
 H1999 H 0.90414 0.64493 0.18556
 H2000 H 0.83859 0.61517 0.20866
 H2001 H 0.88106 0.58342 0.30589
 H2002 H 0.95207 0.59051 0.28235
 H2003 H 0.92253 0.62937 0.21977
 H2004 H 0.93791 0.60508 0.24513
 C2005 C 0.38323 1.12083 0.23989
 C2006 C 0.37790 1.14458 0.23700
 C2007 C 0.36891 1.15241 0.21589
 C2008 C 0.36488 1.13674 0.19766
 C2009 C 0.36995 1.11313 0.20133
 N2010 N 0.37892 1.10591 0.22198
 C2011 C 0.39317 1.11128 0.26176
 N2012 N 0.39395 1.08772 0.26460
 C2013 C 0.40293 1.07748 0.28394
 C2014 C 0.41198 1.09116 0.30202
 C2015 C 0.41140 1.11547 0.29947
 C2016 C 0.40222 1.12556 0.27944
 H2017 H 0.36474 1.17070 0.21393
 H2018 H 0.36711 1.10048 0.18768
 H2019 H 0.40327 1.05866 0.28501
 H2020 H 0.41788 1.12676 0.31307
 H2021 H 0.38021 1.15714 0.25076
 H2022 H 0.40260 1.14430 0.27802
 C2023 C 0.39225 0.60736 0.72944
 C2024 C 0.38396 0.59270 0.71167
 C2025 C 0.37453 0.60240 0.69153
 C2026 C 0.37320 0.62665 0.68887
 C2027 C 0.38188 0.64071 0.70683
 N2028 N 0.39092 0.63086 0.72634
 C2029 C 0.40172 0.59843 0.75181
 N2030 N 0.40728 0.61412 0.76868
 C2031 C 0.41541 0.60765 0.78992
 C2032 C 0.41814 0.58400 0.79539
 C2033 C 0.41287 0.56749 0.77825
 C2034 C 0.40479 0.57455 0.75649
 H2035 H 0.36831 0.59090 0.67798
 H2036 H 0.38098 0.65949 0.70566
 H2037 H 0.41914 0.62097 0.80269
 H2038 H 0.41511 0.54907 0.78165
 H2039 H 0.38432 0.57396 0.71305
 H2040 H 0.40108 0.56123 0.74381
 C2041 C 1.11632 0.88122 0.73808
 C2042 C 1.12007 0.85726 0.73445
 C2043 C 1.12837 0.84952 0.71301
 C2044 C 1.13325 0.86545 0.69518
 C2045 C 1.12978 0.88922 0.69958
 N2046 N 1.12144 0.89636 0.72053
 C2047 C 1.10691 0.89076 0.76023
 N2048 N 1.10635 0.91432 0.76311
 C2049 C 1.09762 0.92459 0.78256
 C2050 C 1.08852 0.91093 0.80068
 C2051 C 1.08905 0.88663 0.79819
 C2052 C 1.09804 0.87650 0.77809
 H2053 H 1.13127 0.83106 0.71046
 H2054 H 1.13330 0.90207 0.68624
 H2055 H 1.09739 0.94341 0.78363
 H2056 H 1.08258 0.87537 0.81188
 H2057 H 1.11694 0.84441 0.74780
 H2058 H 1.09762 0.85777 0.77680
 C2059 C 1.11206 0.38237 0.23555
 C2060 C 1.10725 0.35960 0.22822
 C2061 C 1.11646 0.35152 0.20731
 C2062 C 1.13049 0.36599 0.19318
 C2063 C 1.13424 0.38901 0.20105
 N2064 N 1.12507 0.39641 0.22157
 C2065 C 1.10317 0.39171 0.25789
 N2066 N 1.10160 0.41522 0.26074
 C2067 C 1.09357 0.42504 0.28072
 C2068 C 1.08642 0.41093 0.29936
 C2069 C 1.08835 0.38670 0.29697
 C2070 C 1.09677 0.37705 0.27641
 H2071 H 1.11328 0.33347 0.20302
 H2072 H 1.14375 0.40156 0.19075
 H2073 H 1.09238 0.44382 0.28188
 H2074 H 1.08363 0.37520 0.31117
 H2075 H 1.09643 0.34797 0.23835
 H2076 H 1.09858 0.35834 0.27538
 C2077 C 0.61641 0.87998 0.23822
 C2078 C 0.62031 0.85605 0.23454
 C2079 C 0.62896 0.84843 0.21320
 C2080 C 0.63406 0.86445 0.19550
 C2081 C 0.63050 0.88819 0.19997
 N2082 N 0.62180 0.89521 0.22082
 C2083 C 0.60657 0.88938 0.26025
 N2084 N 0.60587 0.91292 0.26321
 C2085 C 0.59685 0.92308 0.28260
 C2086 C 0.58763 0.90932 0.30058
 C2087 C 0.58821 0.88503 0.29797
 C2088 C 0.59749 0.87502 0.27792
 H2089 H 0.63190 0.82998 0.21059
 H2090 H 0.63416 0.90111 0.18674
 H2091 H 0.59657 0.94189 0.28374
 H2092 H 0.58165 0.87368 0.31154
 H2093 H 0.61699 0.84313 0.24777
 H2094 H 0.59715 0.85629 0.27655
 C2095 C 0.60751 0.39186 0.72956
 C2096 C 0.61556 0.40592 0.71114
 C2097 C 0.62523 0.39554 0.69144
 C2098 C 0.62692 0.37123 0.68984
 C2099 C 0.61811 0.35777 0.70822
 N2100 N 0.60894 0.36827 0.72734
 C2101 C 0.59823 0.40152 0.75173
 N2102 N 0.59174 0.38629 0.76874
 C2103 C 0.58381 0.39334 0.78987
 C2104 C 0.58221 0.41715 0.79509
 C2105 C 0.58857 0.43323 0.77783
 C2106 C 0.59651 0.42557 0.75620
 H2107 H 0.63149 0.40655 0.67746
 H2108 H 0.61918 0.33896 0.70775
 H2109 H 0.57931 0.38032 0.80273
 H2110 H 0.58728 0.45177 0.78103
 H2111 H 0.61483 0.42468 0.71168
 H2112 H 0.60125 0.43858 0.74350
 C2113 C 1.26750 1.10782 1.11373
 C2114 C 1.28555 1.09411 1.12305
 C2115 C 1.30515 1.10491 1.13260
 C2116 C 1.30691 1.12928 1.13295
 C2117 C 1.28856 1.14230 1.12346
 N2118 N 1.26969 1.13143 1.11432
 C2119 C 1.24577 1.09791 1.10378
 N2120 N 1.22865 1.11298 1.09728
 C2121 C 1.20796 1.10576 1.08840
 C2122 C 1.20335 1.08193 1.08572
 C2123 C 1.22075 1.06601 1.09205
 C2124 C 1.24196 1.07386 1.10097
 H2125 H 1.31898 1.09418 1.13958
 H2126 H 1.28894 1.16115 1.12371
 H2127 H 1.19496 1.11865 1.08396
 H2128 H 1.21800 1.04747 1.08995
 H2129 H 1.28478 1.07533 1.12332
 H2130 H 1.25493 1.06104 1.10547
 C2131 C 1.26984 0.60647 0.61073
 C2132 C 1.28532 0.59277 0.62368
 C2133 C 1.30559 0.60269 0.63261
 C2134 C 1.31077 0.62648 0.62901
 C2135 C 1.29464 0.63949 0.61579
 N2136 N 1.27496 0.62936 0.60736
 C2137 C 1.24764 0.59715 0.60135
 N2138 N 1.23058 0.61245 0.59525
 C2139 C 1.20960 0.60541 0.58688
 C2140 C 1.20467 0.58160 0.58432
 C2141 C 1.22208 0.56550 0.59014
 C2142 C 1.24357 0.57315 0.59849
 H2143 H 1.31741 0.59124 0.64171
 H2144 H 1.29686 0.65795 0.61292
 H2145 H 1.19662 0.61841 0.58270
 H2146 H 1.21916 0.54700 0.58795
 H2147 H 1.28189 0.57462 0.62733
 H2148 H 1.25676 0.56030 0.60230
 C2149 C 0.76686 1.10821 0.61559
 C2150 C 0.78233 1.09526 0.62935
 C2151 C 0.80201 1.10603 0.63870
 C2152 C 0.80660 1.12985 0.63455
 C2153 C 0.79042 1.14205 0.62063
 N2154 N 0.77138 1.13115 0.61188
 C2155 C 0.74522 1.09823 0.60565
 N2156 N 0.72826 1.11315 0.59846
 C2157 C 0.70778 1.10567 0.58932
 C2158 C 0.70330 1.08176 0.58701
 C2159 C 0.72064 1.06602 0.59398
 C2160 C 0.74161 1.07414 0.60320
 H2161 H 0.81389 1.09529 0.64857
 H2162 H 0.79205 1.16053 0.61746
 H2163 H 0.69484 1.11843 0.58436
 H2164 H 0.71805 1.04743 0.59209
 H2165 H 0.77929 1.07710 0.63326
 H2166 H 0.75478 1.06158 0.60797
 C2167 C 0.76017 0.61881 1.12076
 C2168 C 0.76179 0.64224 1.12770
 C2169 C 0.78264 0.65064 1.13680
 C2170 C 0.80181 0.63580 1.13943
 C2171 C 0.79931 0.61234 1.13314
 N2172 N 0.77889 0.60459 1.12398
 C2173 C 0.73879 0.60905 1.11003
 N2174 N 0.73624 0.58548 1.10891
 C2175 C 0.71732 0.57518 1.09909
 C2176 C 0.69947 0.58882 1.08946
 C2177 C 0.70181 0.61313 1.09030
 C2178 C 0.72139 0.62328 1.10035
 H2179 H 0.78375 0.66875 1.14194
 H2180 H 0.81372 0.60034 1.13493
 H2181 H 0.71640 0.55636 1.09856
 H2182 H 0.68838 0.62438 1.08337
 H2183 H 0.74725 0.65409 1.12642
 H2184 H 0.72280 0.64204 1.10009
 C2185 C 1.26829 0.89246 0.89147
 C2186 C 1.28376 0.90596 0.87821
 C2187 C 1.30345 0.89562 0.86843
 C2188 C 1.30803 0.87165 0.87157
 C2189 C 1.29217 0.85899 0.88551
 N2190 N 1.27303 0.86948 0.89463
 C2191 C 1.24621 0.90187 0.90102
 N2192 N 1.22911 0.88657 0.90710
 C2193 C 1.20805 0.89357 0.91531
 C2194 C 1.20308 0.91737 0.91769
 C2195 C 1.22054 0.93350 0.91194
 C2196 C 1.24213 0.92586 0.90374
 H2197 H 1.31522 0.90677 0.85883
 H2198 H 1.29395 0.84045 0.88816
 H2199 H 1.19504 0.88054 0.91941
 H2200 H 1.21757 0.95201 0.91397
 H2201 H 1.28063 0.92420 0.87480
 H2202 H 1.25534 0.93870 0.89985
 C2203 C 1.26748 0.38879 0.38675
 C2204 C 1.28195 0.40211 0.37225
 C2205 C 1.30204 0.39220 0.36283
 C2206 C 1.30804 0.36883 0.36758
 C2207 C 1.29285 0.35618 0.38230
 N2208 N 1.27332 0.36626 0.39112
 C2209 C 1.24552 0.39810 0.39671
 N2210 N 1.22866 0.38284 0.40353
 C2211 C 1.20786 0.38994 0.41236
 C2212 C 1.20294 0.41378 0.41468
 C2213 C 1.22025 0.42982 0.40824
 C2214 C 1.24153 0.42211 0.39937
 H2215 H 1.31311 0.40334 0.35242
 H2216 H 1.29569 0.33797 0.38608
 H2217 H 1.19498 0.37696 0.41701
 H2218 H 1.21739 0.44835 0.41023
 H2219 H 1.27781 0.41992 0.36779
 H2220 H 1.25465 0.43489 0.39499
 C2221 C 0.76916 0.89159 0.39107
 C2222 C 0.78694 0.90610 0.38238
 C2223 C 0.80713 0.89623 0.37315
 C2224 C 0.80982 0.87196 0.37235
 C2225 C 0.79182 0.85807 0.38139
 N2226 N 0.77227 0.86807 0.39027
 C2227 C 0.74676 0.90071 0.40044
 N2228 N 0.72971 0.88515 0.40608
 C2229 C 0.70848 0.89181 0.41419
 C2230 C 0.70321 0.91550 0.41685
 C2231 C 0.72053 0.93188 0.41147
 C2232 C 0.74228 0.92463 0.40341
 H2233 H 0.82069 0.90763 0.36663
 H2234 H 0.79300 0.83926 0.38092
 H2235 H 0.69557 0.87859 0.41801
 H2236 H 0.71729 0.95033 0.41367
 H2237 H 0.78552 0.92483 0.38227
 H2238 H 0.75513 0.93784 0.39969
 C2239 C 0.76840 0.39068 0.88808
 C2240 C 0.78289 0.40370 0.87334
 C2241 C 0.80286 0.39352 0.86401
 C2242 C 0.80872 0.37017 0.86906
 C2243 C 0.79367 0.35793 0.88423
 N2244 N 0.77422 0.36824 0.89292
 C2245 C 0.74634 0.40014 0.89762
 N2246 N 0.72947 0.38494 0.90453
 C2247 C 0.70853 0.39213 0.91292
 C2248 C 0.70348 0.41599 0.91466
 C2249 C 0.72076 0.43199 0.90805
 C2250 C 0.74219 0.42418 0.89966
 H2251 H 0.81391 0.40442 0.85333
 H2252 H 0.79646 0.33978 0.88835
 H2253 H 0.69567 0.37918 0.91770
 H2254 H 0.71777 0.45054 0.90961
 H2255 H 0.77879 0.42144 0.86855
 H2256 H 0.75531 0.43693 0.89514
 C2257 C 0.73045 0.89053 1.10884
 C2258 C 0.71087 0.88543 1.09503
 C2259 C 0.69112 0.87556 1.10528
 C2260 C 0.69059 0.87099 1.12923
 C2261 C 0.71021 0.87685 1.14250
 N2262 N 0.72933 0.88620 1.13211
 C2263 C 0.75248 0.90020 1.09920
 N2264 N 0.76931 0.90712 1.11437
 C2265 C 0.79032 0.91546 1.10729
 C2266 C 0.79559 0.91707 1.08350
 C2267 C 0.77851 0.91018 1.06749
 C2268 C 0.75705 0.90170 1.07519
 H2269 H 0.67617 0.87166 1.09450
 H2270 H 0.71059 0.87347 1.16101
 H2271 H 0.80305 0.92025 1.12028
 H2272 H 0.78174 0.91134 1.04897
 H2273 H 0.71046 0.88897 1.07661
 H2274 H 0.74461 0.89612 1.06229
 C2275 C 0.73617 0.38611 0.61825
 C2276 C 0.72909 0.39034 0.64120
 C2277 C 0.70803 0.38131 0.64923
 C2278 C 0.69347 0.36806 0.63453
 C2279 C 0.70133 0.36445 0.61150
 N2280 N 0.72196 0.37351 0.60413
 C2281 C 0.75831 0.39545 0.60871
 N2282 N 0.76071 0.39765 0.58523
 C2283 C 0.78039 0.40626 0.57518
 C2284 C 0.79920 0.41340 0.58902
 C2285 C 0.79727 0.41090 0.61322
 C2286 C 0.77700 0.40186 0.62310
 H2287 H 0.70383 0.38419 0.66732
 H2288 H 0.69082 0.35530 0.59890
 H2289 H 0.78116 0.40789 0.55645
 H2290 H 0.81162 0.41559 0.62449
 H2291 H 0.73945 0.40073 0.65296
 H2292 H 0.77634 0.39963 0.64175
 C2293 C 0.22988 0.89264 0.61017
 C2294 C 0.21266 0.90660 0.62060
 C2295 C 0.19273 0.89620 0.62991
 C2296 C 0.18984 0.87194 0.62905
 C2297 C 0.20733 0.85865 0.61834
 N2298 N 0.22659 0.86916 0.60944
 C2299 C 0.25202 0.90221 0.60074
 N2300 N 0.26928 0.88697 0.59502
 C2301 C 0.29031 0.89400 0.58672
 C2302 C 0.29512 0.91779 0.58387
 C2303 C 0.27758 0.93386 0.58935
 C2304 C 0.25601 0.92621 0.59763
 H2305 H 0.17959 0.90716 0.63782
 H2306 H 0.20604 0.83986 0.61758
 H2307 H 0.30340 0.88102 0.58285
 H2308 H 0.28048 0.95236 0.58701
 H2309 H 0.21446 0.92525 0.62211
 H2310 H 0.24283 0.93910 0.60129
 C2311 C 0.23714 0.38509 1.11904
 C2312 C 0.23104 0.38755 1.14253
 C2313 C 0.20999 0.37850 1.15058
 C2314 C 0.19443 0.36707 1.13539
 C2315 C 0.20132 0.36524 1.11185
 N2316 N 0.22199 0.37422 1.10449
 C2317 C 0.25925 0.39446 1.10938
 N2318 N 0.26121 0.39731 1.08593
 C2319 C 0.28078 0.40600 1.07573
 C2320 C 0.29990 0.41260 1.08940
 C2321 C 0.29844 0.40943 1.11353
 C2322 C 0.27831 0.40027 1.12356
 H2323 H 0.20664 0.37985 1.16903
 H2324 H 0.19005 0.35758 1.09892
 H2325 H 0.28123 0.40814 1.05704
 H2326 H 0.31305 0.41374 1.12463
 H2327 H 0.24213 0.39651 1.15476
 H2328 H 0.27807 0.39754 1.14215
 C2329 C 0.74112 1.12093 0.88105
 C2330 C 0.73653 1.12002 0.85707
 C2331 C 0.71555 1.12860 0.84856
 C2332 C 0.69878 1.13780 0.86376
 C2333 C 0.70396 1.13844 0.88760
 N2334 N 0.72464 1.13002 0.89552
 C2335 C 0.76294 1.11152 0.89118
 N2336 N 0.76382 1.10735 0.91451
 C2337 C 0.78294 1.09814 0.92500
 C2338 C 0.80260 1.09225 0.91175
 C2339 C 0.80230 1.09683 0.88783
 C2340 C 0.78269 1.10662 0.87753
 H2341 H 0.71249 1.12805 0.82999
 H2342 H 0.69145 1.14518 0.89996
 H2343 H 0.78261 1.09496 0.94355
 H2344 H 0.81739 1.09307 0.87714
 H2345 H 0.74858 1.11241 0.84482
 H2346 H 0.78337 1.11042 0.85915
 C2347 C 0.73960 0.61683 0.37910
 C2348 C 0.73511 0.61696 0.35504
 C2349 C 0.71401 0.62566 0.34681
 C2350 C 0.69711 0.63400 0.36233
 C2351 C 0.70205 0.63317 0.38623
 N2352 N 0.72281 0.62477 0.39385
 C2353 C 0.76177 0.60807 0.38914
 N2354 N 0.76318 0.60508 0.41263
 C2355 C 0.78268 0.59689 0.42326
 C2356 C 0.80228 0.59088 0.41001
 C2357 C 0.80145 0.59421 0.38589
 C2358 C 0.78140 0.60291 0.37541
 H2359 H 0.71113 0.62620 0.32821
 H2360 H 0.68939 0.63906 0.39888
 H2361 H 0.78267 0.59458 0.44194
 H2362 H 0.81643 0.59024 0.37512
 H2363 H 0.74744 0.61040 0.34248
 H2364 H 0.78168 0.60559 0.35684
 C2365 C 0.23887 1.11758 0.38154
 C2366 C 0.23205 1.11212 0.35881
 C2367 C 0.21093 1.12037 0.35028
 C2368 C 0.19604 1.13402 0.36427
 C2369 C 0.20368 1.13896 0.38710
 N2370 N 0.22439 1.13062 0.39500
 C2371 C 0.26104 1.10892 0.39151
 N2372 N 0.26313 1.10699 0.41504
 C2373 C 0.28271 1.09853 0.42533
 C2374 C 0.30163 1.09118 0.41170
 C2375 C 0.30008 1.09361 0.38749
 C2376 C 0.27997 1.10256 0.37736
 H2377 H 0.20699 1.11660 0.33230
 H2378 H 0.19292 1.14861 0.39915
 H2379 H 0.28327 1.09703 0.44408
 H2380 H 0.31454 1.08877 0.37638
 H2381 H 0.24266 1.10134 0.34761
 H2382 H 0.27952 1.10465 0.35868
 C2383 C 0.23826 0.61732 0.87954
 C2384 C 0.23287 0.61538 0.85578
 C2385 C 0.21177 0.62402 0.84751
 C2386 C 0.19574 0.63434 0.86277
 C2387 C 0.20161 0.63567 0.88644
 N2388 N 0.22236 0.62723 0.89409
 C2389 C 0.26042 0.60844 0.88945
 N2390 N 0.26202 0.60541 0.91291
 C2391 C 0.28157 0.59702 0.92331
 C2392 C 0.30100 0.59088 0.90985
 C2393 C 0.29996 0.59432 0.88574
 C2394 C 0.27986 0.60321 0.87551
 H2395 H 0.20814 0.62282 0.82908
 H2396 H 0.18964 0.64315 0.89891
 H2397 H 0.28173 0.59467 0.94199
 H2398 H 0.31481 0.59033 0.87482
 H2399 H 0.24448 0.60706 0.84355
 H2400 H 0.27993 0.60612 0.85695
 C2401 C 1.11010 1.26894 1.10965
 C2402 C 1.09624 1.28862 1.11424
 C2403 C 1.10642 1.30851 1.12377
 C2404 C 1.13037 1.30909 1.12845
 C2405 C 1.14376 1.28946 1.12286
 N2406 N 1.13342 1.27016 1.11389
 C2407 C 1.10041 1.24669 1.10069
 N2408 N 1.11557 1.22985 1.09368
 C2409 C 1.10842 1.20866 1.08596
 C2410 C 1.08460 1.20321 1.08510
 C2411 C 1.06861 1.22025 1.09222
 C2412 C 1.07638 1.24190 1.10007
 H2413 H 1.09557 1.32348 1.12750
 H2414 H 1.16228 1.28917 1.12631
 H2415 H 1.12142 1.19596 1.08099
 H2416 H 1.05006 1.21689 1.09165
 H2417 H 1.07780 1.28896 1.11063
 H2418 H 1.06352 1.25431 1.10587
 C2419 C 1.10948 0.76856 0.60973
 C2420 C 1.09511 0.78517 0.62056
 C2421 C 1.10498 0.80522 0.63007
 C2422 C 1.12914 0.80883 0.62907
 C2423 C 1.14287 0.79192 0.61800
 N2424 N 1.13287 0.77251 0.60888
 C2425 C 1.10036 0.74636 0.60006
 N2426 N 1.11583 0.72920 0.59466
 C2427 C 1.10907 0.70810 0.58633
 C2428 C 1.08536 0.70313 0.58318
 C2429 C 1.06910 0.72062 0.58821
 C2430 C 1.07647 0.74225 0.59646
 H2431 H 1.09367 0.81790 0.63824
 H2432 H 1.16161 0.79379 0.61709
 H2433 H 1.12219 0.69506 0.58274
 H2434 H 1.05066 0.71762 0.58557
 H2435 H 1.07653 0.78277 0.62226
 H2436 H 1.06344 0.75540 0.59974
 C2437 C 0.61268 1.26750 0.60948
 C2438 C 0.62308 1.28460 0.59532
 C2439 C 0.63195 1.30486 0.60538
 C2440 C 0.63074 1.30821 0.62952
 C2441 C 0.62024 1.29074 0.64306
 N2442 N 0.61170 1.27117 0.63287
 C2443 C 0.60333 1.24522 0.60016
 N2444 N 0.59746 1.22810 0.61552
 C2445 C 0.58909 1.20705 0.60865
 C2446 C 0.58633 1.20209 0.58493
 C2447 C 0.59197 1.21950 0.56876
 C2448 C 0.60031 1.24107 0.57623
 H2449 H 0.63970 1.31795 0.59422
 H2450 H 0.61921 1.29238 0.66178
 H2451 H 0.58507 1.19406 0.62171
 H2452 H 0.58968 1.21651 0.55031
 H2453 H 0.62482 1.28253 0.57675
 H2454 H 0.60404 1.25414 0.56325
 C2455 C 0.60959 0.76843 1.10929
 C2456 C 0.59534 0.78507 1.12023
 C2457 C 0.60537 0.80496 1.12992
 C2458 C 0.62955 0.80839 1.12898
 C2459 C 0.64317 0.79144 1.11781
 N2460 N 0.63301 0.77219 1.10851
 C2461 C 0.60031 0.74639 1.09940
 N2462 N 0.61567 0.72919 1.09381
 C2463 C 0.60877 0.70822 1.08526
 C2464 C 0.58503 0.70343 1.08208
 C2465 C 0.56887 0.72098 1.08731
 C2466 C 0.57639 0.74247 1.09578
 H2467 H 0.59415 0.81767 1.13817
 H2468 H 0.66192 0.79316 1.11695
 H2469 H 0.62180 0.69513 1.08154
 H2470 H 0.55042 0.71811 1.08467
 H2471 H 0.57674 0.78282 1.12188
 H2472 H 0.56345 0.75566 1.09922
 C2473 C 0.88954 1.26945 0.89181
 C2474 C 0.88436 1.28923 0.90530
 C2475 C 0.87458 1.30882 0.89473
 C2476 C 0.87017 1.30897 0.87076
 C2477 C 0.87606 1.28914 0.85781
 N2478 N 0.88534 1.27020 0.86851
 C2479 C 0.89930 1.24766 0.90178
 N2480 N 0.90677 1.23082 0.88686
 C2481 C 0.91534 1.21005 0.89426
 C2482 C 0.91665 1.20503 0.91811
 C2483 C 0.90912 1.22210 0.93387
 C2484 C 0.90040 1.24333 0.92585
 H2485 H 0.87067 1.32395 0.90527
 H2486 H 0.87281 1.28847 0.83929
 H2487 H 0.92059 1.19729 0.88144
 H2488 H 0.90999 1.21906 0.95243
 H2489 H 0.88784 1.28993 0.92373
 H2490 H 0.89433 1.25577 0.93853
 C2491 C 0.89126 0.77052 0.39229
 C2492 C 0.88461 0.78936 0.40648
 C2493 C 0.87492 0.80923 0.39641
 C2494 C 0.87193 0.81064 0.37225
 C2495 C 0.87921 0.79174 0.35863
 N2496 N 0.88841 0.77247 0.36884
 C2497 C 0.90095 0.74839 0.40170
 N2498 N 0.90794 0.73171 0.38636
 C2499 C 0.91635 0.71067 0.39325
 C2500 C 0.91796 0.70521 0.41698
 C2501 C 0.91109 0.72216 0.43315
 C2502 C 0.90259 0.74365 0.42567
 H2503 H 0.86991 0.82361 0.40752
 H2504 H 0.87711 0.79205 0.33993
 H2505 H 0.92120 0.69806 0.38014
 H2506 H 0.91232 0.71881 0.45164
 H2507 H 0.88673 0.78914 0.42511
 H2508 H 0.89721 0.75598 0.43874
 C2509 C 0.39182 1.26960 0.39039
 C2510 C 0.40567 1.28813 0.38218
 C2511 C 0.39506 1.30768 0.37242
 C2512 C 0.37072 1.30903 0.37078
 C2513 C 0.35749 1.29050 0.37966
 N2514 N 0.36820 1.27154 0.38894
 C2515 C 0.40172 1.24765 0.40000
 N2516 N 0.38667 1.23056 0.40673
 C2517 C 0.39394 1.20966 0.41511
 C2518 C 0.41781 1.20478 0.41701
 C2519 C 0.43371 1.22211 0.41036
 C2520 C 0.42582 1.24351 0.40192
 H2521 H 0.40592 1.32177 0.36611
 H2522 H 0.33867 1.29075 0.37863
 H2523 H 0.38104 1.19672 0.41980
 H2524 H 0.45228 1.21918 0.41183
 H2525 H 0.42444 1.28779 0.38290
 H2526 H 0.43869 1.25629 0.39700
 C2527 C 0.38028 0.76274 0.88402
 C2528 C 0.35647 0.76812 0.88603
 C2529 C 0.34814 0.78915 0.87729
 C2530 C 0.36337 0.80517 0.86682
 C2531 C 0.38708 0.79929 0.86536
 N2532 N 0.39480 0.77859 0.87390
 C2533 C 0.39027 0.74069 0.89310
 N2534 N 0.41377 0.73914 0.89606
 C2535 C 0.42423 0.71969 0.90463
 C2536 C 0.41078 0.70031 0.91104
 C2537 C 0.38663 0.70130 0.90771
 C2538 C 0.37633 0.72129 0.89862
 H2539 H 0.32968 0.79279 0.87860
 H2540 H 0.39952 0.81123 0.85773
 H2541 H 0.44294 0.71956 0.90689
 H2542 H 0.37572 0.68647 0.91189
 H2543 H 0.34426 0.75656 0.89449
 H2544 H 0.35774 0.72117 0.89579
 C2545 C 1.11851 0.73926 0.88027
 C2546 C 1.14216 0.73688 0.87427
 C2547 C 1.15030 0.71572 0.86564
 C2548 C 1.13501 0.69694 0.86259
 C2549 C 1.11142 0.70014 0.86812
 N2550 N 1.10391 0.72086 0.87679
 C2551 C 1.10883 0.76108 0.89022
 N2552 N 1.08526 0.76383 0.89102
 C2553 C 1.07497 0.78308 0.90021
 C2554 C 1.08862 0.80107 0.90955
 C2555 C 1.11293 0.79862 0.90890
 C2556 C 1.12306 0.77871 0.89947
 H2557 H 1.16854 0.71410 0.86105
 H2558 H 1.09906 0.68606 0.86600
 H2559 H 1.05615 0.78410 0.90057
 H2560 H 1.12419 0.81217 0.91559
 H2561 H 1.15440 0.75109 0.87583
 H2562 H 1.14181 0.77727 0.89992
 C2563 C 1.11538 0.23668 0.37978
 C2564 C 1.11440 0.23119 0.35598
 C2565 C 1.12377 0.21027 0.34808
 C2566 C 1.13386 0.19446 0.36372
 C2567 C 1.13439 0.20048 0.38737
 N2568 N 1.12524 0.22107 0.39467
 C2569 C 1.10558 0.25861 0.38937
 N2570 N 1.10256 0.26043 0.41282
 C2571 C 1.09356 0.27981 0.42301
 C2572 C 1.08678 0.29888 0.40936
 C2573 C 1.08997 0.29757 0.38524
 C2574 C 1.09947 0.27764 0.37520
 H2575 H 1.12320 0.20653 0.32963
 H2576 H 1.14174 0.18871 0.40010
 H2577 H 1.09140 0.28017 0.44171
 H2578 H 1.08548 0.31215 0.37416
 H2579 H 1.10628 0.24254 0.34341
 H2580 H 1.10221 0.27758 0.35662
 C2581 C 0.61933 0.73827 0.38338
 C2582 C 0.64326 0.73567 0.37867
 C2583 C 0.65156 0.71463 0.36993
 C2584 C 0.63621 0.69619 0.36554
 C2585 C 0.61243 0.69949 0.37010
 N2586 N 0.60473 0.72010 0.37884
 C2587 C 0.60929 0.76013 0.39290
 N2588 N 0.58567 0.76257 0.39345
 C2589 C 0.57504 0.78186 0.40215
 C2590 C 0.58838 0.80023 0.41118
 C2591 C 0.61272 0.79816 0.41065
 C2592 C 0.62321 0.77821 0.40176
 H2593 H 0.66996 0.71295 0.36610
 H2594 H 0.60003 0.68566 0.36691
 H2595 H 0.55620 0.78263 0.40239
 H2596 H 0.62376 0.81204 0.41705
 H2597 H 0.65562 0.74959 0.38119
 H2598 H 0.64196 0.77719 0.40229
 C2599 C 0.61672 0.23967 0.87846
 C2600 C 0.61667 0.23488 0.85447
 C2601 C 0.62603 0.21403 0.84635
 C2602 C 0.63519 0.19763 0.86194
 C2603 C 0.63472 0.20292 0.88577
 N2604 N 0.62563 0.22345 0.89328
 C2605 C 0.60709 0.26155 0.88835
 N2606 N 0.60408 0.26303 0.91183
 C2607 C 0.59525 0.28231 0.92234
 C2608 C 0.58861 0.30164 0.90900
 C2609 C 0.59183 0.30069 0.88486
 C2610 C 0.60115 0.28085 0.87449
 H2611 H 0.62632 0.21089 0.82779
 H2612 H 0.64134 0.19068 0.89845
 H2613 H 0.59305 0.28238 0.94104
 H2614 H 0.58742 0.31548 0.87401
 H2615 H 0.60939 0.24676 0.84188
 H2616 H 0.60382 0.28108 0.85591
 C2617 C 0.87892 0.73927 1.11817
 C2618 C 0.85543 0.73718 1.12486
 C2619 C 0.84742 0.71631 1.13433
 C2620 C 0.86269 0.69755 1.13752
 C2621 C 0.88614 0.70048 1.13129
 N2622 N 0.89352 0.72092 1.12182
 C2623 C 0.88849 0.76080 1.10750
 N2624 N 0.91205 0.76349 1.10633
 C2625 C 0.92226 0.78262 1.09678
 C2626 C 0.90854 0.80062 1.08756
 C2627 C 0.88424 0.79813 1.08838
 C2628 C 0.87417 0.77830 1.09812
 H2629 H 0.82929 0.71490 1.13943
 H2630 H 0.89847 0.68640 1.13349
 H2631 H 0.94108 0.78362 1.09623
 H2632 H 0.87292 0.81166 1.08173
 H2633 H 0.84325 0.75140 1.12319
 H2634 H 0.85542 0.77684 1.09793
 C2635 C 0.87897 0.23755 0.61387
 C2636 C 0.85501 0.23240 0.61374
 C2637 C 0.84710 0.21155 0.62335
 C2638 C 0.86287 0.19550 0.63283
 C2639 C 0.88670 0.20102 0.63216
 N2640 N 0.89400 0.22157 0.62288
 C2641 C 0.88859 0.25962 0.60436
 N2642 N 0.91207 0.26142 0.60119
 C2643 C 0.92234 0.28101 0.59264
 C2644 C 0.90874 0.30033 0.58654
 C2645 C 0.88459 0.29903 0.58991
 C2646 C 0.87447 0.27888 0.59891
 H2647 H 0.82855 0.20815 0.62364
 H2648 H 0.89956 0.18900 0.63886
 H2649 H 0.94105 0.28133 0.59030
 H2650 H 0.87355 0.31379 0.58590
 H2651 H 0.84230 0.24404 0.60628
 H2652 H 0.85589 0.27884 0.60177
 C2653 C 0.39148 0.72879 0.60812
 C2654 C 0.40599 0.71007 0.61443
 C2655 C 0.39622 0.68991 0.62390
 C2656 C 0.37205 0.68811 0.62698
 C2657 C 0.35810 0.70689 0.61999
 N2658 N 0.36803 0.72645 0.61101
 C2659 C 0.40058 0.75125 0.59881
 N2660 N 0.38498 0.76788 0.59227
 C2661 C 0.39157 0.78919 0.58427
 C2662 C 0.41527 0.79500 0.58266
 C2663 C 0.43170 0.77812 0.58906
 C2664 C 0.42452 0.75634 0.59713
 H2665 H 0.40757 0.67564 0.62870
 H2666 H 0.33938 0.70626 0.62216
 H2667 H 0.37827 0.80173 0.57976
 H2668 H 0.45018 0.78174 0.58779
 H2669 H 0.42465 0.71060 0.61226
 H2670 H 0.43781 0.74406 0.60215
 C2671 C 0.37927 0.23821 1.11490
 C2672 C 0.35543 0.23266 1.11379
 C2673 C 0.34744 0.21180 1.12331
 C2674 C 0.36304 0.19614 1.13370
 C2675 C 0.38676 0.20214 1.13416
 N2676 N 0.39413 0.22266 1.12489
 C2677 C 0.38893 0.26019 1.10522
 N2678 N 0.41241 0.26198 1.10211
 C2679 C 0.42266 0.28146 1.09330
 C2680 C 0.40904 0.30067 1.08685
 C2681 C 0.38488 0.29938 1.09020
 C2682 C 0.37478 0.27934 1.09948
 H2683 H 0.32896 0.20806 1.12275
 H2684 H 0.39948 0.19045 1.14164
 H2685 H 0.44138 0.28178 1.09100
 H2686 H 0.37382 0.31406 1.08597
 H2687 H 0.34292 0.24397 1.10551
 H2688 H 0.35619 0.27927 1.10235
 C2689 C 1.10955 1.10827 0.73098
 C2690 C 1.11849 1.09370 0.71344
 C2691 C 1.12755 1.10347 0.69313
 C2692 C 1.12799 1.12773 0.69011
 C2693 C 1.11884 1.14168 0.70795
 N2694 N 1.11009 1.13176 0.72759
 C2695 C 1.10018 1.09920 0.75338
 N2696 N 1.09513 1.11473 0.77058
 C2697 C 1.08696 1.10807 0.79178
 C2698 C 1.08361 1.08440 0.79685
 C2699 C 1.08835 1.06807 0.77937
 C2700 C 1.09646 1.07533 0.75765
 H2701 H 1.13414 1.09200 0.67972
 H2702 H 1.11906 1.16047 0.70652
 H2703 H 1.08362 1.12124 0.80482
 H2704 H 1.08559 1.04966 0.78245
 H2705 H 1.11893 1.07499 0.71517
 H2706 H 1.09956 1.06219 0.74461
 C2707 C 1.11279 0.60856 0.23243
 C2708 C 1.12504 0.59479 0.21640
 C2709 C 1.13425 0.60495 0.19633
 C2710 C 1.13154 0.62899 0.19188
 C2711 C 1.11905 0.64204 0.20858
 N2712 N 1.11037 0.63169 0.22801
 C2713 C 1.10315 0.59914 0.25449
 N2714 N 1.09726 0.61441 0.27163
 C2715 C 1.08866 0.60739 0.29253
 C2716 C 1.08562 0.58360 0.29728
 C2717 C 1.09120 0.56753 0.27978
 C2718 C 1.09982 0.57518 0.25838
 H2719 H 1.14284 0.59354 0.18409
 H2720 H 1.11702 0.66068 0.20701
 H2721 H 1.08471 0.62037 0.30558
 H2722 H 1.08867 0.54904 0.28258
 H2723 H 1.12792 0.57642 0.21925
 H2724 H 1.10349 0.56235 0.24514
 C2725 C 0.60871 1.10961 0.23164
 C2726 C 0.61438 1.09593 0.21214
 C2727 C 0.62402 1.10648 0.19247
 C2728 C 0.62781 1.13060 0.19192
 C2729 C 0.62122 1.14376 0.21137
 N2730 N 0.61214 1.13308 0.23045
 C2731 C 0.59958 1.09963 0.25373
 N2732 N 0.59282 1.11461 0.27081
 C2733 C 0.58493 1.10725 0.29186
 C2734 C 0.58359 1.08336 0.29693
 C2735 C 0.59041 1.06754 0.27964
 C2736 C 0.59843 1.07553 0.25812
 H2737 H 0.62857 1.09576 0.17765
 H2738 H 0.62400 1.16240 0.21174
 H2739 H 0.58020 1.12012 0.30476
 H2740 H 0.58945 1.04896 0.28270
 H2741 H 0.61161 1.07735 0.21176
 H2742 H 0.60385 1.06276 0.24548
 C2743 C 0.60994 0.60854 0.73043
 C2744 C 0.62078 0.59439 0.71365
 C2745 C 0.63012 0.60450 0.69362
 C2746 C 0.62891 0.62867 0.69020
 C2747 C 0.61782 0.64217 0.70727
 N2748 N 0.60889 0.63194 0.72665
 C2749 C 0.60050 0.59922 0.75263
 N2750 N 0.59507 0.61459 0.76984
 C2751 C 0.58684 0.60770 0.79092
 C2752 C 0.58381 0.58396 0.79583
 C2753 C 0.58892 0.56778 0.77831
 C2754 C 0.59709 0.57528 0.75669
 H2755 H 0.63834 0.59339 0.68081
 H2756 H 0.61678 0.66091 0.70556
 H2757 H 0.58322 0.62075 0.80400
 H2758 H 0.58638 0.54931 0.78127
 H2759 H 0.62263 0.57581 0.71590
 H2760 H 0.60044 0.56233 0.74350
 C2761 C 0.87976 0.88654 0.73782
 C2762 C 0.85596 0.88787 0.73218
 C2763 C 0.84803 0.87848 0.71130
 C2764 C 0.86365 0.86800 0.69571
 C2765 C 0.88733 0.86732 0.70180
 N2766 N 0.89463 0.87646 0.72234
 C2767 C 0.88938 0.89603 0.75984
 N2768 N 0.91292 0.89847 0.76187
 C2769 C 0.92318 0.90703 0.78138
 C2770 C 0.90952 0.91393 0.80040
 C2771 C 0.88529 0.91130 0.79887
 C2772 C 0.87518 0.90227 0.77879
 H2773 H 0.82958 0.87920 0.70750
 H2774 H 0.90007 0.85976 0.69017
 H2775 H 0.94195 0.90879 0.78187
 H2776 H 0.87417 0.91590 0.81339
 H2777 H 0.84342 0.89619 0.74344
 H2778 H 0.85651 0.89998 0.77856
 C2779 C 0.88856 0.39327 0.23111
 C2780 C 0.88263 0.40742 0.21200
 C2781 C 0.87350 0.39725 0.19194
 C2782 C 0.87040 0.37306 0.19065
 C2783 C 0.87671 0.35952 0.20995
 N2784 N 0.88542 0.36981 0.22935
 C2785 C 0.89804 0.40268 0.25326
 N2786 N 0.90483 0.38726 0.26995
 C2787 C 0.91330 0.39408 0.29092
 C2788 C 0.91526 0.41783 0.29629
 C2789 C 0.90849 0.43409 0.27937
 C2790 C 0.89987 0.42666 0.25794
 H2791 H 0.86914 0.40828 0.17729
 H2792 H 0.87439 0.34082 0.20979
 H2793 H 0.91799 0.38090 0.30354
 H2794 H 0.90995 0.45260 0.28267
 H2795 H 0.88501 0.42605 0.21213
 H2796 H 0.89460 0.43978 0.24559
 C2797 C 0.37879 0.88298 0.23957
 C2798 C 0.35509 0.87722 0.23708
 C2799 C 0.34713 0.86800 0.21613
 C2800 C 0.36263 0.86417 0.19767
 C2801 C 0.38622 0.86962 0.20096
 N2802 N 0.39356 0.87882 0.22147
 C2803 C 0.38841 0.89318 0.26127
 N2804 N 0.41197 0.89378 0.26410
 C2805 C 0.42225 0.90291 0.28334
 C2806 C 0.40861 0.91231 0.30131
 C2807 C 0.38430 0.91199 0.29873
 C2808 C 0.37417 0.90265 0.27879
 H2809 H 0.32888 0.86352 0.21447
 H2810 H 0.39873 0.86693 0.18713
 H2811 H 0.44107 0.90306 0.28442
 H2812 H 0.37303 0.91875 0.31223
 H2813 H 0.34270 0.87936 0.25106
 H2814 H 0.35544 0.90324 0.27730
 C2815 C 0.37993 0.38376 0.73866
 C2816 C 0.35624 0.37804 0.73600
 C2817 C 0.34837 0.36909 0.71490
 C2818 C 0.36395 0.36549 0.69647
 C2819 C 0.38752 0.37095 0.69990
 N2820 N 0.39477 0.37987 0.72055
 C2821 C 0.38948 0.39365 0.76052
 N2822 N 0.41303 0.39425 0.76342
 C2823 C 0.42324 0.40320 0.78278
 C2824 C 0.40953 0.41243 0.80077
 C2825 C 0.38523 0.41202 0.79816
 C2826 C 0.37517 0.40286 0.77812
 H2827 H 0.33013 0.36458 0.71312
 H2828 H 0.40009 0.36842 0.68609
 H2829 H 0.44205 0.40341 0.78390
 H2830 H 0.37391 0.41864 0.81170
 H2831 H 0.34379 0.37997 0.74995
 H2832 H 0.35644 0.40342 0.77659
 C2833 C 1.11534 0.88040 1.26291
 C2834 C 1.11192 0.85726 1.26995
 C2835 C 1.12086 0.84967 1.29115
 C2836 C 1.13316 0.86499 1.30591
 C2837 C 1.13616 0.88811 1.29797
 N2838 N 1.12720 0.89504 1.27721
 C2839 C 1.10581 0.88962 1.24076
 N2840 N 1.10341 0.91309 1.23821
 C2841 C 1.09458 0.92292 1.21858
 C2842 C 1.08739 0.90884 1.19998
 C2843 C 1.09001 0.88465 1.20206
 C2844 C 1.09930 0.87500 1.22227
 H2845 H 1.11860 0.83146 1.29534
 H2846 H 1.14464 0.90113 1.30854
 H2847 H 1.09286 0.94166 1.21767
 H2848 H 1.08524 0.87322 1.18788
 H2849 H 1.10219 0.84501 1.25952
 H2850 H 1.10163 0.85634 1.22302
 C2851 C 1.11860 0.38202 0.76123
 C2852 C 1.14169 0.38630 0.76787
 C2853 C 1.14978 0.37811 0.78918
 C2854 C 1.13500 0.36570 0.80446
 C2855 C 1.11187 0.36187 0.79695
 N2856 N 1.10444 0.37012 0.77606
 C2857 C 1.10895 0.39079 0.73895
 N2858 N 1.08543 0.39313 0.73674
 C2859 C 1.07534 0.40161 0.71708
 C2860 C 1.08918 0.40855 0.69816
 C2861 C 1.11338 0.40576 0.69984
 C2862 C 1.12330 0.39679 0.72004
 H2863 H 1.16796 0.38100 0.79305
 H2864 H 1.09923 0.35327 0.80793
 H2865 H 1.05658 0.40342 0.71645
 H2866 H 1.12463 0.41031 0.68539
 H2867 H 1.15353 0.39616 0.75702
 H2868 H 1.14196 0.39441 0.72053
 C2869 C 0.60754 0.88880 0.76948
 C2870 C 0.59369 0.87805 0.78661
 C2871 C 0.60408 0.86948 0.80679
 C2872 C 0.62824 0.87136 0.81003
 C2873 C 0.64143 0.88232 0.79261
 N2874 N 0.63093 0.89052 0.77308
 C2875 C 0.59791 0.89762 0.74719
 N2876 N 0.61308 0.90314 0.72980
 C2877 C 0.60595 0.91108 0.70872
 C2878 C 0.58213 0.91379 0.70402
 C2879 C 0.56612 0.90843 0.72168
 C2880 C 0.57388 0.90050 0.74328
 H2881 H 0.59318 0.86134 0.81987
 H2882 H 0.66015 0.88387 0.79418
 H2883 H 0.61888 0.91486 0.69553
 H2884 H 0.54761 0.91070 0.71888
 H2885 H 0.57515 0.87572 0.78453
 H2886 H 0.56106 0.89704 0.75660
 C2887 C 0.61548 0.37942 1.26060
 C2888 C 0.61122 0.35635 1.26732
 C2889 C 0.62081 0.34782 1.28783
 C2890 C 0.63459 0.36216 1.30227
 C2891 C 0.63804 0.38540 1.29491
 N2892 N 0.62849 0.39325 1.27472
 C2893 C 0.60589 0.38926 1.23878
 N2894 N 0.60370 0.41279 1.23668
 C2895 C 0.59489 0.42302 1.21724
 C2896 C 0.58754 0.40931 1.19843
 C2897 C 0.59005 0.38508 1.20005
 C2898 C 0.59930 0.37502 1.22004
 H2899 H 0.61801 0.32959 1.29162
 H2900 H 0.64759 0.39774 1.30538
 H2901 H 0.59329 0.44179 1.21664
 H2902 H 0.58521 0.37393 1.18567
 H2903 H 0.60047 0.34482 1.25706
 H2904 H 0.60158 0.35634 1.22044
 C2905 C 0.89032 1.10806 1.27015
 C2906 C 0.88571 1.09421 1.28984
 C2907 C 0.87605 1.10438 1.30966
 C2908 C 0.87121 1.12831 1.31016
 C2909 C 0.87664 1.14164 1.29042
 N2910 N 0.88579 1.13132 1.27123
 C2911 C 0.89975 1.09844 1.24808
 N2912 N 0.90702 1.11365 1.23138
 C2913 C 0.91524 1.10656 1.21038
 C2914 C 0.91638 1.08275 1.20499
 C2915 C 0.90903 1.06671 1.22191
 C2916 C 0.90066 1.07441 1.24336
 H2917 H 0.87248 1.09356 1.32470
 H2918 H 0.87305 1.16014 1.29001
 H2919 H 0.92036 1.11959 1.19776
 H2920 H 0.90978 1.04817 1.21858
 H2921 H 0.88953 1.07581 1.29027
 H2922 H 0.89467 1.06153 1.25568
 C2923 C 0.89197 0.60759 0.76936
 C2924 C 0.88574 0.59337 0.78834
 C2925 C 0.87635 0.60344 0.80835
 C2926 C 0.87331 0.62762 0.80975
 C2927 C 0.88016 0.64128 0.79068
 N2928 N 0.88906 0.63107 0.77129
 C2929 C 0.90136 0.59819 0.74713
 N2930 N 0.90854 0.61357 0.73054
 C2931 C 0.91677 0.60671 0.70945
 C2932 C 0.91800 0.58296 0.70384
 C2933 C 0.91087 0.56674 0.72068
 C2934 C 0.90252 0.57420 0.74222
 H2935 H 0.87165 0.59232 0.82284
 H2936 H 0.87798 0.66000 0.79097
 H2937 H 0.92180 0.61986 0.69692
 H2938 H 0.91177 0.54823 0.71722
 H2939 H 0.88801 0.57472 0.78814
 H2940 H 0.89687 0.56111 0.75447
 C2941 C 0.38877 1.10885 0.76877
 C2942 C 0.37917 1.09492 0.78653
 C2943 C 0.36981 1.10544 0.80633
 C2944 C 0.36985 1.12976 0.80860
 C2945 C 0.37966 1.14304 0.79056
 N2946 N 0.38863 1.13242 0.77145
 C2947 C 0.39847 1.09915 0.74683
 N2948 N 0.40488 1.11434 0.72974
 C2949 C 0.41347 1.10723 0.70890
 C2950 C 0.41590 1.08342 0.70408
 C2951 C 0.40969 1.06739 0.72144
 C2952 C 0.40111 1.07511 0.74281
 H2953 H 0.36259 1.09452 0.81991
 H2954 H 0.37973 1.16187 0.79136
 H2955 H 0.41788 1.12019 0.69594
 H2956 H 0.41165 1.04886 0.71854
 H2957 H 0.37847 1.07618 0.78536
 H2958 H 0.39676 1.06220 0.75575
 C2959 C 0.38488 0.61916 1.26184
 C2960 C 0.37915 0.64281 1.26477
 C2961 C 0.37038 0.65050 1.28604
 C2962 C 0.36696 0.63477 1.30438
 C2963 C 0.37240 0.61125 1.30068
 N2964 N 0.38115 0.60418 1.27986
 C2965 C 0.39461 0.60980 1.23978
 N2966 N 0.39535 0.58627 1.23676
 C2967 C 0.40414 0.57621 1.21723
 C2968 C 0.41305 0.59007 1.19915
 C2969 C 0.41251 0.61435 1.20189
 C2970 C 0.40351 0.62425 1.22212
 H2971 H 0.36588 0.66870 1.28804
 H2972 H 0.37003 0.59856 1.31442
 H2973 H 0.40446 0.55741 1.21601
 H2974 H 0.41889 0.62577 1.18831
 H2975 H 0.38097 0.65538 1.25091
 H2976 H 0.40395 0.64298 1.22371
 C2977 C 1.11238 1.26902 0.89127
 C2978 C 1.11649 1.28902 0.90478
 C2979 C 1.12560 1.30899 0.89429
 C2980 C 1.13039 1.30931 0.87037
 C2981 C 1.12554 1.28922 0.85739
 N2982 N 1.11689 1.26990 0.86801
 C2983 C 1.10327 1.24690 0.90122
 N2984 N 1.09591 1.23003 0.88631
 C2985 C 1.08772 1.20909 0.89372
 C2986 C 1.08663 1.20395 0.91757
 C2987 C 1.09422 1.22100 0.93331
 C2988 C 1.10259 1.24239 0.92527
 H2989 H 1.12874 1.32429 0.90484
 H2990 H 1.12913 1.28866 0.83892
 H2991 H 1.08246 1.19634 0.88091
 H2992 H 1.09355 1.21787 0.95187
 H2993 H 1.11263 1.28959 0.92315
 H2994 H 1.10871 1.25485 0.93791
 C2995 C 1.10927 0.77022 0.39264
 C2996 C 1.09484 0.78737 0.38275
 C2997 C 1.10478 0.80733 0.37305
 C2998 C 1.12903 0.81033 0.37295
 C2999 C 1.14281 0.79303 0.38329
 N3000 N 1.13275 0.77370 0.39257
 C3001 C 1.10013 0.74792 0.40213
 N3002 N 1.11561 0.73067 0.40716
 C3003 C 1.10889 0.70942 0.41516
 C3004 C 1.08519 0.70436 0.41831
 C3005 C 1.06889 0.72192 0.41366
 C3006 C 1.07623 0.74371 0.40575
 H3007 H 1.09346 0.82037 0.36550
 H3008 H 1.16161 0.79449 0.38338
 H3009 H 1.12202 0.69632 0.41847
 H3010 H 1.05046 0.71883 0.41630
 H3011 H 1.07616 0.78547 0.38187
 H3012 H 1.06317 0.75686 0.40269
 C3013 C 0.61923 1.25985 0.38134
 C3014 C 0.61436 1.26613 0.35832
 C3015 C 0.62310 1.28686 0.34936
 C3016 C 0.63660 1.30203 0.36320
 C3017 C 0.64083 1.29503 0.38639
 N3018 N 0.63207 1.27460 0.39469
 C3019 C 0.61023 1.23790 0.39156
 N3020 N 0.60759 1.23623 0.41506
 C3021 C 0.59874 1.21683 0.42547
 C3022 C 0.59170 1.19773 0.41198
 C3023 C 0.59486 1.19885 0.38784
 C3024 C 0.60423 1.21874 0.37760
 H3025 H 0.61984 1.29029 0.33117
 H3026 H 0.65035 1.30601 0.39831
 H3027 H 0.59670 1.21655 0.44418
 H3028 H 0.59028 1.18421 0.37689
 H3029 H 0.60371 1.25535 0.34718
 H3030 H 0.60692 1.21882 0.35900
 C3031 C 0.61983 0.76360 0.88542
 C3032 C 0.64375 0.76901 0.88520
 C3033 C 0.65119 0.79049 0.87663
 C3034 C 0.63500 0.80685 0.86848
 C3035 C 0.61129 0.80089 0.86913
 N3036 N 0.60444 0.77980 0.87747
 C3037 C 0.61057 0.74115 0.89442
 N3038 N 0.58713 0.73899 0.89760
 C3039 C 0.57713 0.71918 0.90593
 C3040 C 0.59099 0.69998 0.91184
 C3041 C 0.61511 0.70163 0.90844
 C3042 C 0.62496 0.72202 0.89965
 H3043 H 0.66968 0.79420 0.87622
 H3044 H 0.59814 0.81308 0.86334
 H3045 H 0.55843 0.71860 0.90832
 H3046 H 0.62636 0.68700 0.91232
 H3047 H 0.65678 0.75715 0.89171
 H3048 H 0.64355 0.72237 0.89686
 C3049 C 0.89180 1.26896 1.11346
 C3050 C 0.90533 1.28440 1.12664
 C3051 C 0.89537 1.30475 1.13533
 C3052 C 0.87171 1.31007 1.13126
 C3053 C 0.85885 1.29394 1.11787
 N3054 N 0.86901 1.27419 1.10968
 C3055 C 0.90119 1.24673 1.10421
 N3056 N 0.88593 1.22972 1.09787
 C3057 C 0.89303 1.20874 1.08953
 C3058 C 0.91687 1.20379 1.08725
 C3059 C 0.93293 1.22114 1.09336
 C3060 C 0.92522 1.24262 1.10168
 H3061 H 0.90674 1.31653 1.14458
 H3062 H 0.84046 1.29625 1.11466
 H3063 H 0.88005 1.19581 1.08514
 H3064 H 0.95146 1.21820 1.09139
 H3065 H 0.92338 1.28087 1.13062
 H3066 H 0.93805 1.25578 1.10570
 C3067 C 0.88431 0.76189 0.62041
 C3068 C 0.87873 0.76460 0.64410
 C3069 C 0.86962 0.78568 0.65197
 C3070 C 0.86572 0.80405 0.63639
 C3071 C 0.87106 0.80057 0.61284
 N3072 N 0.88014 0.77994 0.60559
 C3073 C 0.89435 0.74006 0.61082
 N3074 N 0.89522 0.73735 0.58729
 C3075 C 0.90425 0.71804 0.57701
 C3076 C 0.91329 0.69986 0.59061
 C3077 C 0.91265 0.70230 0.61489
 C3078 C 0.90341 0.72230 0.62503
 H3079 H 0.86526 0.78751 0.67021
 H3080 H 0.86836 0.81434 0.60026
 H3081 H 0.90464 0.71707 0.55822
 H3082 H 0.91912 0.68862 0.62612
 H3083 H 0.88094 0.75072 0.65657
 H3084 H 0.90374 0.72364 0.64374
 C3085 C 0.39253 1.26807 0.61334
 C3086 C 0.40562 1.28366 0.62682
 C3087 C 0.39493 1.30339 0.63617
 C3088 C 0.37106 1.30789 0.63231
 C3089 C 0.35878 1.29171 0.61847
 N3090 N 0.36959 1.27260 0.60975
 C3091 C 0.40229 1.24620 0.60374
 N3092 N 0.38717 1.22927 0.59687
 C3093 C 0.39440 1.20852 0.58817
 C3094 C 0.41826 1.20371 0.58601
 C3095 C 0.43422 1.22098 0.59266
 C3096 C 0.42635 1.24225 0.60141
 H3097 H 0.40576 1.31529 0.64591
 H3098 H 0.34028 1.29329 0.61546
 H3099 H 0.38149 1.19563 0.58345
 H3100 H 0.45278 1.21812 0.59086
 H3101 H 0.42380 1.28065 0.63059
 H3102 H 0.43906 1.25536 0.60595
 C3103 C 0.39083 0.76720 1.11351
 C3104 C 0.40392 0.78262 1.12718
 C3105 C 0.39321 0.80215 1.13693
 C3106 C 0.36931 0.80663 1.13327
 C3107 C 0.35699 0.79058 1.11931
 N3108 N 0.36783 0.77167 1.11019
 C3109 C 0.40069 0.74560 1.10338
 N3110 N 0.38569 0.72860 1.09642
 C3111 C 0.39306 0.70809 1.08725
 C3112 C 0.41694 0.70360 1.08470
 C3113 C 0.43277 0.72099 1.09139
 C3114 C 0.42476 0.74201 1.10062
 H3115 H 0.40406 0.81394 1.14678
 H3116 H 0.33847 0.79213 1.11645
 H3117 H 0.38024 0.69511 1.08251
 H3118 H 0.45134 0.71841 1.08929
 H3119 H 0.42214 0.77963 1.13078
 H3120 H 0.43737 0.75520 1.10520
 C3121 C 0.89195 0.73137 0.88900
 C3122 C 0.90660 0.71368 0.88044
 C3123 C 0.89689 0.69344 0.87119
 C3124 C 0.87263 0.69061 0.87023
 C3125 C 0.85859 0.70858 0.87900
 N3126 N 0.86845 0.72817 0.88793
 C3127 C 0.90093 0.75370 0.89863
 N3128 N 0.88531 0.77067 0.90423
 C3129 C 0.89187 0.79181 0.91263
 C3130 C 0.91554 0.79706 0.91564
 C3131 C 0.93197 0.77981 0.91034
 C3132 C 0.92482 0.75816 0.90198
 H3133 H 0.90842 0.67990 0.86494
 H3134 H 0.83980 0.70730 0.87839
 H3135 H 0.87862 0.80467 0.91639
 H3136 H 0.95039 0.78303 0.91280
 H3137 H 0.92533 0.71517 0.88052
 H3138 H 0.93807 0.74536 0.89835
 C3139 C 0.87951 0.23772 0.38382
 C3140 C 0.85553 0.23273 0.38260
 C3141 C 0.84812 0.21127 0.37403
 C3142 C 0.86436 0.19455 0.36675
 C3143 C 0.88811 0.20018 0.36815
 N3144 N 0.89494 0.22122 0.37656
 C3145 C 0.88880 0.26003 0.39316
 N3146 N 0.91229 0.26224 0.39587
 C3147 C 0.92235 0.28185 0.40453
 C3148 C 0.90852 0.30078 0.41132
 C3149 C 0.88434 0.29906 0.40849
 C3150 C 0.87442 0.27888 0.39937
 H3151 H 0.82960 0.20783 0.37296
 H3152 H 0.90128 0.18772 0.36299
 H3153 H 0.94109 0.28245 0.40648
 H3154 H 0.87308 0.31348 0.41307
 H3155 H 0.84239 0.24487 0.38830
 H3156 H 0.85577 0.27849 0.39722
 C3157 C 0.38126 0.73560 0.38675
 C3158 C 0.35877 0.72771 0.39211
 C3159 C 0.35083 0.70673 0.38290
 C3160 C 0.36517 0.69311 0.36829
 C3161 C 0.38783 0.70166 0.36378
 N3162 N 0.39512 0.72219 0.37304
 C3163 C 0.39051 0.75788 0.39590
 N3164 N 0.41400 0.76089 0.39736
 C3165 C 0.42375 0.78083 0.40563
 C3166 C 0.40958 0.79929 0.41311
 C3167 C 0.38534 0.79672 0.41134
 C3168 C 0.37576 0.77617 0.40271
 H3169 H 0.33300 0.70195 0.38664
 H3170 H 0.40023 0.69181 0.35363
 H3171 H 0.44253 0.78209 0.40671
 H3172 H 0.37377 0.81076 0.41630
 H3173 H 0.34731 0.73745 0.40343
 H3174 H 0.35704 0.77497 0.40103
 C3175 C 0.39057 0.23286 0.88781
 C3176 C 0.40455 0.21661 0.87609
 C3177 C 0.39445 0.19667 0.86658
 C3178 C 0.37026 0.19258 0.86842
 C3179 C 0.35699 0.20951 0.88036
 N3180 N 0.36729 0.22879 0.88938
 C3181 C 0.39994 0.25480 0.89778
 N3182 N 0.38466 0.27199 0.90359
 C3183 C 0.39165 0.29281 0.91237
 C3184 C 0.41541 0.29745 0.91563
 C3185 C 0.43149 0.27989 0.91019
 C3186 C 0.42388 0.25855 0.90142
 H3187 H 0.40602 0.18424 0.85848
 H3188 H 0.33827 0.20825 0.88173
 H3189 H 0.37867 0.30592 0.91623
 H3190 H 0.44996 0.28263 0.91288
 H3191 H 0.42306 0.21915 0.87387
 H3192 H 0.43673 0.24530 0.89784
 C3193 C 1.11406 0.73594 1.11825
 C3194 C 1.11023 0.72929 1.14142
 C3195 C 1.11929 0.70834 1.14963
 C3196 C 1.13216 0.69345 1.13490
 C3197 C 1.13525 0.70081 1.11162
 N3198 N 1.12621 0.72137 1.10410
 C3199 C 1.10483 0.75804 1.10855
 N3200 N 1.10264 0.76024 1.08505
 C3201 C 1.09409 0.77985 1.07487
 C3202 C 1.08695 0.79875 1.08859
 C3203 C 1.08951 0.79706 1.11278
 C3204 C 1.09852 0.77689 1.12280
 H3205 H 1.11678 0.70449 1.16786
 H3206 H 1.14403 0.69001 1.09899
 H3207 H 1.09244 0.78048 1.05613
 H3208 H 1.08481 0.81149 1.12395
 H3209 H 1.10017 0.73992 1.15325
 H3210 H 1.10077 0.77642 1.14144
 C3211 C 1.10765 0.22823 0.60706
 C3212 C 1.12054 0.21271 0.59333
 C3213 C 1.12985 0.19265 0.60330
 C3214 C 1.12671 0.18770 0.62716
 C3215 C 1.11332 0.20373 0.64015
 N3216 N 1.10456 0.22323 0.62999
 C3217 C 1.09825 0.25045 0.59777
 N3218 N 1.09239 0.26759 0.61306
 C3219 C 1.08428 0.28869 0.60605
 C3220 C 1.08182 0.29367 0.58228
 C3221 C 1.08734 0.27617 0.56620
 C3222 C 1.09538 0.25455 0.57383
 H3223 H 1.13900 0.18083 0.59186
 H3224 H 1.11069 0.20163 0.65864
 H3225 H 1.08031 0.30173 0.61903
 H3226 H 1.08521 0.27914 0.54773
 H3227 H 1.12395 0.21602 0.57514
 H3228 H 1.09901 0.24131 0.56099
 C3229 C 0.60766 0.73007 0.60949
 C3230 C 0.59396 0.71030 0.61430
 C3231 C 0.60438 0.69046 0.62373
 C3232 C 0.62840 0.69006 0.62813
 C3233 C 0.64155 0.70989 0.62254
 N3234 N 0.63100 0.72908 0.61361
 C3235 C 0.59785 0.75215 0.60025
 N3236 N 0.61295 0.76899 0.59304
 C3237 C 0.60574 0.79002 0.58496
 C3238 C 0.58190 0.79529 0.58390
 C3239 C 0.56595 0.77823 0.59120
 C3240 C 0.57379 0.75674 0.59942
 H3241 H 0.59369 0.67536 0.62744
 H3242 H 0.66010 0.71039 0.62581
 H3243 H 0.61869 0.80275 0.57987
 H3244 H 0.54739 0.78147 0.59050
 H3245 H 0.57550 0.70981 0.61084
 H3246 H 0.56099 0.74429 0.60534
 C3247 C 0.61899 0.23816 1.11643
 C3248 C 0.64260 0.23228 1.11434
 C3249 C 0.65066 0.21135 1.12358
 C3250 C 0.63537 0.19569 1.13485
 C3251 C 0.61172 0.20238 1.13637
 N3252 N 0.60435 0.22294 1.12720
 C3253 C 0.60930 0.26009 1.10673
 N3254 N 0.58582 0.26186 1.10371
 C3255 C 0.57560 0.28123 1.09469
 C3256 C 0.58927 0.30034 1.08789
 C3257 C 0.61342 0.29909 1.09121
 C3258 C 0.62347 0.27917 1.10073
 H3259 H 0.66917 0.20815 1.12245
 H3260 H 0.59872 0.19104 1.14391
 H3261 H 0.55689 0.28153 1.09245
 H3262 H 0.62451 0.31371 1.08676
 H3263 H 0.65493 0.24342 1.10549
 H3264 H 0.64206 0.27911 1.10356
 C3265 C 1.26201 1.12003 0.88375
 C3266 C 1.26557 1.14400 0.87994
 C3267 C 1.28691 1.15182 0.87134
 C3268 C 1.30471 1.13595 0.86619
 C3269 C 1.30040 1.11216 0.86975
 N3270 N 1.27953 1.10495 0.87839
 C3271 C 1.23992 1.11043 0.89337
 N3272 N 1.23697 1.08687 0.89380
 C3273 C 1.21752 1.07655 0.90261
 C3274 C 1.19947 1.09016 0.91190
 C3275 C 1.20206 1.11446 0.91156
 C3276 C 1.22217 1.12463 0.90250
 H3277 H 1.28940 1.17029 0.86839
 H3278 H 1.31371 1.09935 0.86604
 H3279 H 1.21638 1.05774 0.90271
 H3280 H 1.18845 1.12570 0.91817
 H3281 H 1.25223 1.15681 0.88324
 H3282 H 1.22354 1.14336 0.90306
 C3283 C 1.27059 0.60640 0.39055
 C3284 C 1.28995 0.61230 0.40434
 C3285 C 1.30953 0.62235 0.39397
 C3286 C 1.31011 0.62632 0.36992
 C3287 C 1.29085 0.61943 0.35664
 N3288 N 1.27185 0.60997 0.36715
 C3289 C 1.24852 0.59700 0.40035
 N3290 N 1.23160 0.59008 0.38528
 C3291 C 1.21048 0.58214 0.39247
 C3292 C 1.20516 0.58098 0.41628
 C3293 C 1.22233 0.58786 0.43220
 C3294 C 1.24392 0.59589 0.42438
 H3295 H 1.32424 0.62708 0.40476
 H3296 H 1.29055 0.62229 0.33804
 H3297 H 1.19769 0.57733 0.37954
 H3298 H 1.21907 0.58701 0.45073
 H3299 H 1.29027 0.60942 0.42288
 H3300 H 1.25643 0.60143 0.43722
 C3301 C 0.76888 1.10659 0.38998
 C3302 C 0.78849 1.09281 0.38485
 C3303 C 0.80835 1.10319 0.37533
 C3304 C 0.80892 1.12725 0.37113
 C3305 C 0.78919 1.14045 0.37689
 N3306 N 0.77000 1.12995 0.38593
 C3307 C 0.74687 1.09689 0.39957
 N3308 N 0.73034 1.11207 0.40725
 C3309 C 0.70939 1.10497 0.41569
 C3310 C 0.70385 1.08118 0.41662
 C3311 C 0.72060 1.06516 0.40886
 C3312 C 0.74202 1.07288 0.40029
 H3313 H 0.82337 1.09245 0.37147
 H3314 H 0.78881 1.15904 0.37376
 H3315 H 0.69690 1.11799 0.42112
 H3316 H 0.71715 1.04662 0.40944
 H3317 H 0.78886 1.07431 0.38822
 H3318 H 0.75422 1.06003 0.39401
 C3319 C 0.77126 0.60732 0.88975
 C3320 C 0.79028 0.59314 0.88357
 C3321 C 0.81041 0.60329 0.87442
 C3322 C 0.81190 0.62750 0.87160
 C3323 C 0.79284 0.64112 0.87852
 N3324 N 0.77331 0.63083 0.88715
 C3325 C 0.74887 0.59782 0.89878
 N3326 N 0.73235 0.61313 0.90622
 C3327 C 0.71115 0.60621 0.91422
 C3328 C 0.70535 0.58246 0.91498
 C3329 C 0.72208 0.56632 0.90748
 C3330 C 0.74373 0.57385 0.89934
 H3331 H 0.82490 0.59219 0.86967
 H3332 H 0.79322 0.65986 0.87653
 H3333 H 0.69870 0.61933 0.91950
 H3334 H 0.71846 0.54781 0.90799
 H3335 H 0.78999 0.57446 0.88567
 H3336 H 0.75590 0.56083 0.89340
 C3337 C 1.26057 0.87823 1.11607
 C3338 C 1.26599 0.85436 1.11502
 C3339 C 1.28688 0.84635 1.12439
 C3340 C 1.30268 0.86194 1.13458
 C3341 C 1.29679 0.88567 1.13502
 N3342 N 1.27625 0.89307 1.12589
 C3343 C 1.23861 0.88795 1.10651
 N3344 N 1.23682 0.91146 1.10372
 C3345 C 1.21738 0.92180 1.09502
 C3346 C 1.19821 0.90824 1.08833
 C3347 C 1.19949 0.88405 1.09133
 C3348 C 1.21949 0.87386 1.10051
 H3349 H 1.29054 0.82786 1.12385
 H3350 H 1.30859 0.89839 1.14235
 H3351 H 1.21707 0.94054 1.09299
 H3352 H 1.18483 0.87302 1.08690
 H3353 H 1.25459 0.84184 1.10690
 H3354 H 1.21953 0.85523 1.10309
 C3355 C 1.26199 0.37871 0.61460
 C3356 C 1.26764 0.35490 0.61361
 C3357 C 1.28859 0.34712 0.62302
 C3358 C 1.30423 0.36289 0.63316
 C3359 C 1.29812 0.38657 0.63353
 N3360 N 1.27751 0.39374 0.62438
 C3361 C 1.23993 0.38817 0.60501
 N3362 N 1.23798 0.41163 0.60193
 C3363 C 1.21843 0.42172 0.59320
 C3364 C 1.19930 0.40795 0.58682
 C3365 C 1.20075 0.38380 0.59012
 C3366 C 1.22087 0.37387 0.59931
 H3367 H 1.29242 0.32866 0.62254
 H3368 H 1.30979 0.39942 0.64084
 H3369 H 1.21798 0.44043 0.59093
 H3370 H 1.18614 0.37263 0.58593
 H3371 H 1.25635 0.34225 0.60551
 H3372 H 1.22106 0.35528 0.60215
 C3373 C 0.76882 0.88971 0.60844
 C3374 C 0.78781 0.90379 0.61497
 C3375 C 0.80743 0.89358 0.62501
 C3376 C 0.80844 0.86941 0.62836
 C3377 C 0.78952 0.85588 0.62094
 N3378 N 0.77047 0.86623 0.61148
 C3379 C 0.74672 0.89927 0.59895
 N3380 N 0.73002 0.88396 0.59188
 C3381 C 0.70888 0.89091 0.58387
 C3382 C 0.70330 0.91468 0.58281
 C3383 C 0.72025 0.93083 0.58979
 C3384 C 0.74188 0.92327 0.59787
 H3385 H 0.82185 0.90459 0.63019
 H3386 H 0.78951 0.83719 0.62334
 H3387 H 0.69627 0.87781 0.57893
 H3388 H 0.71680 0.94935 0.58900
 H3389 H 0.78781 0.92243 0.61262
 H3390 H 0.75422 0.93629 0.60345
 C3391 C 0.77044 0.39161 1.10830
 C3392 C 0.78938 0.40595 1.11441
 C3393 C 0.80935 0.39604 1.12404
 C3394 C 0.81078 0.37189 1.12743
 C3395 C 0.79185 0.35809 1.12051
 N3396 N 0.77245 0.36816 1.11142
 C3397 C 0.74814 0.40092 1.09896
 N3398 N 0.73160 0.38549 1.09178
 C3399 C 0.71042 0.39229 1.08371
 C3400 C 0.70464 0.41602 1.08265
 C3401 C 0.72142 0.43228 1.08979
 C3402 C 0.74305 0.42489 1.09797
 H3403 H 0.82375 0.40726 1.12876
 H3404 H 0.79221 0.33940 1.12290
 H3405 H 0.69794 0.37910 1.07866
 H3406 H 0.71784 0.45078 1.08901
 H3407 H 0.78914 0.42457 1.11191
 H3408 H 0.75522 0.43801 1.10367
 C3409 C 0.73715 1.11455 1.12010
 C3410 C 0.73160 1.11343 1.14392
 C3411 C 0.71048 1.12242 1.15181
 C3412 C 0.69457 1.13227 1.13616
 C3413 C 0.70051 1.13262 1.11245
 N3414 N 0.72130 1.12391 1.10518
 C3415 C 0.75948 1.10561 1.11054
 N3416 N 0.76162 1.10299 1.08707
 C3417 C 0.78141 1.09481 1.07691
 C3418 C 0.80056 1.08847 1.09062
 C3419 C 0.79893 1.09138 1.11476
 C3420 C 0.77860 1.10005 1.12477
 H3421 H 0.70679 1.12196 1.17028
 H3422 H 0.68861 1.13964 1.09968
 H3423 H 0.78200 1.09284 1.05820
 H3424 H 0.81355 1.08720 1.12589
 H3425 H 0.74312 1.10562 1.15652
 H3426 H 0.77829 1.10254 1.14337
 C3427 C 0.73858 0.61762 0.61876
 C3428 C 0.73471 0.62146 0.64264
 C3429 C 0.71316 0.62972 0.65018
 C3430 C 0.69545 0.63448 0.63414
 C3431 C 0.70010 0.63104 0.61045
 N3432 N 0.72116 0.62271 0.60350
 C3433 C 0.76081 0.60810 0.60945
 N3434 N 0.76377 0.60712 0.58594
 C3435 C 0.78330 0.59829 0.57586
 C3436 C 0.80144 0.58955 0.58967
 C3437 C 0.79885 0.59045 0.61391
 C3438 C 0.77866 0.59954 0.62385
 H3439 H 0.71040 0.63260 0.66859
 H3440 H 0.68686 0.63446 0.59752
 H3441 H 0.78444 0.59776 0.55708
 H3442 H 0.81254 0.58426 0.62527
 H3443 H 0.74792 0.61835 0.65559
 H3444 H 0.77732 0.59947 0.64255
 C3445 C 0.23020 1.11019 0.60821
 C3446 C 0.21106 1.11557 0.59391
 C3447 C 0.19076 1.12454 0.60380
 C3448 C 0.18922 1.12797 0.62789
 C3449 C 0.20843 1.12188 0.64165
 N3450 N 0.22812 1.11340 0.63160
 C3451 C 0.25269 1.10127 0.59893
 N3452 N 0.26916 1.09403 0.61435
 C3453 C 0.29042 1.08611 0.60759
 C3454 C 0.29633 1.08524 0.58390
 C3455 C 0.27965 1.09256 0.56766
 C3456 C 0.25795 1.10063 0.57503
 H3457 H 0.17616 1.12864 0.59263
 H3458 H 0.20800 1.12435 0.66030
 H3459 H 0.30283 1.08097 0.62077
 H3460 H 0.28335 1.09196 0.54920
 H3461 H 0.21137 1.11289 0.57534
 H3462 H 0.24584 1.10649 0.56195
 C3463 C 0.23218 0.61245 1.10907
 C3464 C 0.21430 0.62161 1.09506
 C3465 C 0.19433 0.63079 1.10546
 C3466 C 0.19200 0.63104 1.12974
 C3467 C 0.21021 0.62179 1.14311
 N3468 N 0.22949 0.61295 1.13261
 C3469 C 0.25420 0.60274 1.09946
 N3470 N 0.27134 0.59660 1.11464
 C3471 C 0.29221 0.58796 1.10758
 C3472 C 0.29700 0.58519 1.08382
 C3473 C 0.27957 0.59111 1.06781
 C3474 C 0.25819 0.59975 1.07548
 H3475 H 0.18061 0.63758 1.09447
 H3476 H 0.20937 0.62196 1.16191
 H3477 H 0.30523 0.58377 1.12052
 H3478 H 0.28244 0.58888 1.04933
 H3479 H 0.21545 0.62203 1.07634
 H3480 H 0.24521 0.60386 1.06258
 C3481 C 0.72939 0.89459 0.89254
 C3482 C 0.71204 0.88469 0.90677
 C3483 C 0.69219 0.87503 0.89665
 C3484 C 0.68946 0.87501 0.87241
 C3485 C 0.70691 0.88546 0.85883
 N3486 N 0.72615 0.89468 0.86907
 C3487 C 0.75166 0.90397 0.90186
 N3488 N 0.76885 0.90963 0.88649
 C3489 C 0.79006 0.91757 0.89333
 C3490 C 0.79517 0.92000 0.91704
 C3491 C 0.77770 0.91464 0.93325
 C3492 C 0.75594 0.90680 0.92580
 H3493 H 0.67902 0.86742 0.90782
 H3494 H 0.70568 0.88564 0.84006
 H3495 H 0.80309 0.92141 0.88025
 H3496 H 0.78082 0.91668 0.95170
 H3497 H 0.71367 0.88377 0.92543
 H3498 H 0.74289 0.90314 0.93883
 C3499 C 0.73951 0.38259 0.37776
 C3500 C 0.73687 0.37819 0.35383
 C3501 C 0.71612 0.36868 0.34560
 C3502 C 0.69798 0.36325 0.36102
 C3503 C 0.70140 0.36735 0.38480
 N3504 N 0.72171 0.37687 0.39242
 C3505 C 0.76096 0.39313 0.38775
 N3506 N 0.76319 0.39404 0.41133
 C3507 C 0.78211 0.40350 0.42197
 C3508 C 0.80037 0.41294 0.40870
 C3509 C 0.79845 0.41223 0.38439
 C3510 C 0.77885 0.40255 0.37388
 H3511 H 0.71435 0.36528 0.32716
 H3512 H 0.68781 0.36337 0.39726
 H3513 H 0.78270 0.40388 0.44077
 H3514 H 0.81225 0.41894 0.37340
 H3515 H 0.75050 0.38168 0.34137
 H3516 H 0.77802 0.40279 0.35515
 C3517 C 0.23015 0.89173 0.39103
 C3518 C 0.21023 0.88761 0.40473
 C3519 C 0.19044 0.87783 0.39460
 C3520 C 0.19020 0.87242 0.37083
 C3521 C 0.21013 0.87742 0.35760
 N3522 N 0.22931 0.88669 0.36790
 C3523 C 0.25220 0.90117 0.40074
 N3524 N 0.26901 0.90852 0.38567
 C3525 C 0.29001 0.91670 0.39292
 C3526 C 0.29528 0.91766 0.41673
 C3527 C 0.27823 0.91024 0.43260
 C3528 C 0.25679 0.90193 0.42475
 H3529 H 0.17524 0.87462 0.40532
 H3530 H 0.21071 0.87340 0.33923
 H3531 H 0.30274 0.92189 0.38001
 H3532 H 0.28145 0.91085 0.45114
 H3533 H 0.20961 0.89191 0.42299
 H3534 H 0.24438 0.89582 0.43750
 C3535 C 0.23057 0.39318 0.88923
 C3536 C 0.21296 0.40709 0.87941
 C3537 C 0.19315 0.39657 0.87007
 C3538 C 0.19073 0.37225 0.87032
 C3539 C 0.20852 0.35900 0.88052
 N3540 N 0.22768 0.36963 0.88945
 C3541 C 0.25264 0.40290 0.89863
 N3542 N 0.26989 0.38774 0.90456
 C3543 C 0.29086 0.39488 0.91285
 C3544 C 0.29563 0.41869 0.91546
 C3545 C 0.27812 0.43469 0.90971
 C3546 C 0.25662 0.42693 0.90144
 H3547 H 0.17972 0.40749 0.86262
 H3548 H 0.20754 0.34018 0.88085
 H3549 H 0.30394 0.38194 0.91691
 H3550 H 0.28099 0.45321 0.91184
 H3551 H 0.21433 0.42581 0.87841
 H3552 H 0.24351 0.43980 0.89752
   
