data_POSCAR
  _audit_creation_date              2014-09-24
  _audit_creation_method            'ToBaCCo'
  _symmetry_space_group_name_H-M    'P1'
  _symmetry_Int_Tables_number       1
  _symmetry_cell_setting            triclinic
  loop_
  _symmetry_equiv_pos_as_xyz
 x,y,z
_cell_length_a 81.2896
_cell_length_b 81.0046
_cell_length_c 81.0178
_cell_angle_alpha 90.003100
_cell_angle_beta 90.055200
_cell_angle_gamma 90.053000
loop_
  _atom_site_label
  _atom_site_type_symbol
  _atom_site_fract_x
  _atom_site_fract_y
  _atom_site_fract_z
C1 C 0.29985 0.43923 0.92672
 C2 C 0.29971 0.42728 0.93925
 C3 C 0.31184 0.42735 0.95127
 C4 C 0.32426 0.43937 0.95092
 C5 C 0.32440 0.45118 0.93854
 C6 C 0.31212 0.45111 0.92637
 C7 C 0.29029 0.44145 0.91286
 N8 N 0.29649 0.45436 0.90425
 C9 C 0.30982 0.46037 0.91230
 C10 C 0.33840 0.46055 0.94063
 N11 N 0.34661 0.45467 0.95394
 C12 C 0.33819 0.44173 0.96034
 C13 C 0.30930 0.41372 0.96112
 N14 N 0.29595 0.40554 0.95532
 C15 C 0.28998 0.41362 0.94197
 H16 H 0.27992 0.43397 0.90904
 H17 H 0.31753 0.47038 0.90797
 H18 H 0.34256 0.47055 0.93279
 H19 H 0.34214 0.43431 0.97074
 H20 H 0.31688 0.40973 0.97136
 H21 H 0.27970 0.40955 0.93450
 C22 C 0.44063 0.82176 0.45341
 C23 C 0.42839 0.80954 0.45327
 C24 C 0.42842 0.79751 0.44111
 C25 C 0.44069 0.79754 0.42895
 C26 C 0.45278 0.80961 0.42909
 C27 C 0.45275 0.82179 0.44139
 C28 C 0.44289 0.83565 0.46295
 N29 N 0.45608 0.84396 0.45698
 C30 C 0.46220 0.83571 0.44381
 C31 C 0.46228 0.80736 0.41520
 N32 N 0.45621 0.79424 0.40679
 C33 C 0.44303 0.78814 0.41498
 C34 C 0.41448 0.78807 0.44327
 N35 N 0.40615 0.79412 0.45641
 C36 C 0.41444 0.80723 0.46262
 H37 H 0.43520 0.83972 0.47308
 H38 H 0.47238 0.83983 0.43623
 H39 H 0.47246 0.81500 0.41120
 H40 H 0.43540 0.77801 0.41078
 H41 H 0.41040 0.77795 0.43555
 H42 H 0.41032 0.81484 0.47280
 C43 C 0.93808 0.92644 0.80009
 C44 C 0.92565 0.93842 0.80041
 C45 C 0.92543 0.95021 0.81281
 C46 C 0.93764 0.95015 0.82504
 C47 C 0.94993 0.93830 0.82474
 C48 C 0.95016 0.92638 0.81219
 C49 C 0.94069 0.91286 0.79021
 N50 N 0.95402 0.90471 0.79605
 C51 C 0.95992 0.91275 0.80947
 C52 C 0.95944 0.94054 0.83864
 N53 N 0.95318 0.95344 0.84722
 C54 C 0.93987 0.95941 0.83913
 C55 C 0.91144 0.95954 0.81065
 N56 N 0.90331 0.95368 0.79728
 C57 C 0.91179 0.94078 0.79091
 H58 H 0.93315 0.90890 0.77991
 H59 H 0.97017 0.90870 0.81699
 H60 H 0.96982 0.93308 0.84248
 H61 H 0.93213 0.96942 0.84341
 H62 H 0.90723 0.96952 0.81847
 H63 H 0.90789 0.93340 0.78047
 C64 C 0.43953 -0.07237 0.29743
 C65 C 0.42712 -0.06037 0.29775
 C66 C 0.42717 -0.04833 0.30991
 C67 C 0.43964 -0.04815 0.32188
 C68 C 0.45190 -0.06002 0.32157
 C69 C 0.45185 -0.07220 0.30927
 C70 C 0.44185 -0.08623 0.28785
 N71 N 0.45525 -0.09430 0.29363
 C72 C 0.46147 -0.08595 0.30671
 C73 C 0.46159 -0.05762 0.33532
 N74 N 0.45547 -0.04461 0.34382
 C75 C 0.44207 -0.03873 0.33582
 C76 C 0.41310 -0.03909 0.30793
 N77 N 0.40465 -0.04525 0.29490
 C78 C 0.41300 -0.05825 0.28858
 H79 H 0.43406 -0.09043 0.27784
 H80 H 0.47183 -0.08990 0.31414
 H81 H 0.47193 -0.06510 0.33917
 H82 H 0.43436 -0.02873 0.34015
 H83 H 0.40903 -0.02899 0.31567
 H84 H 0.40885 -0.06588 0.27842
 C85 C 0.79986 0.31126 0.32256
 C86 C 0.80020 0.32366 0.31049
 C87 C 0.81252 0.32377 0.29868
 C88 C 0.82465 0.31147 0.29879
 C89 C 0.82431 0.29921 0.31072
 C90 C 0.81184 0.29910 0.32267
 C91 C 0.79006 0.30875 0.33619
 N92 N 0.79585 0.29541 0.34442
 C93 C 0.80914 0.28940 0.33636
 C94 C 0.83812 0.28962 0.30853
 N95 N 0.84668 0.29579 0.29559
 C96 C 0.83866 0.30913 0.28954
 C97 C 0.81042 0.33777 0.28926
 N98 N 0.79716 0.34601 0.29511
 C99 C 0.79081 0.33760 0.30807
 H100 H 0.77985 0.31636 0.34015
 H101 H 0.81659 0.27911 0.34047
 H102 H 0.84193 0.27926 0.31605
 H103 H 0.84297 0.31682 0.27950
 H104 H 0.81820 0.34191 0.27924
 H105 H 0.78045 0.34159 0.31545
 C106 C -0.18953 0.82374 0.79846
 C107 C -0.17756 0.81128 0.79836
 C108 C -0.17783 0.79903 0.81030
 C109 C -0.19007 0.79909 0.82248
 C110 C -0.20190 0.81140 0.82259
 C111 C -0.20163 0.82380 0.81051
 C112 C -0.19160 0.83777 0.78908
 N113 N -0.20464 0.84618 0.79518
 C114 C -0.21087 0.83787 0.80827
 C115 C -0.21147 0.80905 0.83642
 N116 N -0.20569 0.79563 0.84454
 C117 C -0.19262 0.78944 0.83625
 C118 C -0.16415 0.78931 0.80789
 N119 N -0.15574 0.79539 0.79481
 C120 C -0.16372 0.80880 0.78888
 H121 H -0.18393 0.84180 0.77893
 H122 H -0.22103 0.84199 0.81586
 H123 H -0.22151 0.81680 0.84054
 H124 H -0.18522 0.77906 0.84022
 H125 H -0.16030 0.77895 0.81539
 H126 H -0.15948 0.81647 0.77880
 C127 C 0.95063 0.32437 0.43824
 C128 C 0.95072 0.31218 0.42594
 C129 C 0.93896 0.29978 0.42608
 C130 C 0.92697 0.29943 0.43851
 C131 C 0.92687 0.31147 0.45065
 C132 C 0.93877 0.32402 0.45052
 C133 C 0.95987 0.33845 0.44055
 N134 N 0.95386 0.34649 0.45391
 C135 C 0.94098 0.33789 0.46011
 C136 C 0.91325 0.30872 0.46037
 N137 N 0.90523 0.29534 0.45439
 C138 C 0.91340 0.28955 0.44104
 C139 C 0.94134 0.29033 0.41216
 N140 N 0.95423 0.29672 0.40372
 C141 C 0.96007 0.31006 0.41194
 H142 H 0.96986 0.34276 0.43284
 H143 H 0.93350 0.34169 0.47049
 H144 H 0.90916 0.31619 0.47066
 H145 H 0.90946 0.27928 0.43344
 H146 H 0.93398 0.27991 0.40820
 H147 H 0.97004 0.31788 0.40776
 C148 C 0.44921 0.43707 0.82512
 C149 C 0.44921 0.42488 0.81284
 C150 C 0.43715 0.42490 0.80074
 C151 C 0.42494 0.43713 0.80077
 C152 C 0.42495 0.44918 0.81291
 C153 C 0.43715 0.44916 0.82515
 C154 C 0.45877 0.43945 0.83897
 N155 N 0.45276 0.45266 0.84724
 C156 C 0.43956 0.45870 0.83902
 C157 C 0.41116 0.45876 0.81051
 N158 N 0.40294 0.45277 0.79726
 C159 C 0.41115 0.43956 0.79119
 C160 C 0.43956 0.41110 0.79111
 N161 N 0.45275 0.40285 0.79712
 C162 C 0.45876 0.41106 0.81038
 H163 H 0.46900 0.43188 0.84297
 H164 H 0.43201 0.46894 0.84308
 H165 H 0.40714 0.46899 0.81810
 H166 H 0.40713 0.43204 0.78090
 H167 H 0.43202 0.40708 0.78084
 H168 H 0.46899 0.40701 0.81793
 C169 C 0.79990 0.92689 0.93923
 C170 C 0.80003 0.93891 0.92678
 C171 C 0.81230 0.95079 0.92647
 C172 C 0.82460 0.95079 0.93862
 C173 C 0.82448 0.93891 0.95093
 C174 C 0.81206 0.92689 0.95124
 C175 C 0.79016 0.91323 0.94190
 N176 N 0.79615 0.90509 0.95521
 C177 C 0.80952 0.91321 0.96103
 C178 C 0.83840 0.94124 0.96036
 N179 N 0.84681 0.95422 0.95403
 C180 C 0.83860 0.96016 0.94075
 C181 C 0.80996 0.96013 0.91245
 N182 N 0.79661 0.95417 0.90441
 C183 C 0.79043 0.94121 0.91295
 H184 H 0.77986 0.90922 0.93442
 H185 H 0.81713 0.90918 0.97125
 H186 H 0.84236 0.93378 0.97073
 H187 H 0.84273 0.97022 0.93297
 H188 H 0.81765 0.97017 0.90816
 H189 H 0.78004 0.93375 0.90913
 C190 C 0.29828 0.82345 0.30993
 C191 C 0.29796 0.81104 0.32199
 C192 C 0.30977 0.79872 0.32192
 C193 C 0.32204 0.79865 0.30977
 C194 C 0.32237 0.81091 0.29784
 C195 C 0.31042 0.82338 0.29792
 C196 C 0.28909 0.83756 0.30771
 N197 N 0.29539 0.84589 0.29467
 C198 C 0.30842 0.83745 0.28858
 C199 C 0.33625 0.80844 0.28843
 N200 N 0.34421 0.79502 0.29439
 C201 C 0.33574 0.78893 0.30742
 C202 C 0.30718 0.78910 0.33569
 N203 N 0.29412 0.79532 0.34398
 C204 C 0.28838 0.80872 0.33582
 H205 H 0.27894 0.84170 0.31530
 H206 H 0.31615 0.84150 0.27847
 H207 H 0.34055 0.81613 0.27838
 H208 H 0.33956 0.77857 0.31494
 H209 H 0.31457 0.77873 0.33971
 H210 H 0.27837 0.81650 0.33995
 C211 C 0.79987 0.42709 0.43876
 C212 C 0.80005 0.43909 0.42629
 C213 C 0.81235 0.45094 0.42599
 C214 C 0.82462 0.45094 0.43817
 C215 C 0.82444 0.43908 0.45050
 C216 C 0.81200 0.42709 0.45080
 C217 C 0.79013 0.41343 0.44143
 N218 N 0.79608 0.40529 0.45475
 C219 C 0.80943 0.41343 0.46058
 C220 C 0.83837 0.44136 0.45994
 N221 N 0.84683 0.45430 0.45359
 C222 C 0.83865 0.46026 0.44030
 C223 C 0.81008 0.46026 0.41195
 N224 N 0.79675 0.45431 0.40387
 C225 C 0.79051 0.44139 0.41242
 H226 H 0.77985 0.40940 0.43393
 H227 H 0.81700 0.40938 0.47081
 H228 H 0.84230 0.43389 0.47030
 H229 H 0.84283 0.47027 0.43250
 H230 H 0.81782 0.47027 0.40767
 H231 H 0.78013 0.43393 0.40856
 C232 C 0.93988 0.82206 -0.04809
 C233 C 0.92787 0.80963 -0.04803
 C234 C 0.92810 0.79741 -0.06000
 C235 C 0.94036 0.79748 -0.07217
 C236 C 0.95224 0.80977 -0.07222
 C237 C 0.95199 0.82213 -0.06011
 C238 C 0.94195 0.83610 -0.03872
 N239 N 0.95498 0.84455 -0.04481
 C240 C 0.96123 0.83622 -0.05787
 C241 C 0.96178 0.80747 -0.08608
 N242 N 0.95594 0.79411 -0.09427
 C243 C 0.94286 0.78790 -0.08599
 C244 C 0.91434 0.78776 -0.05767
 N245 N 0.90592 0.79385 -0.04461
 C246 C 0.91398 0.80720 -0.03862
 H247 H 0.93425 0.84016 -0.02861
 H248 H 0.97137 0.84039 -0.06546
 H249 H 0.97182 0.81525 -0.09019
 H250 H 0.93539 0.77757 -0.09003
 H251 H 0.91043 0.77745 -0.06524
 H252 H 0.90973 0.81489 -0.02855
 C253 C 0.29991 0.32356 0.81083
 C254 C 0.29956 0.31120 0.82295
 C255 C 0.31153 0.29903 0.82310
 C256 C 0.32398 0.29906 0.81113
 C257 C 0.32432 0.31127 0.79915
 C258 C 0.31221 0.32359 0.79900
 C259 C 0.29054 0.33749 0.80836
 N260 N 0.29688 0.34585 0.79536
 C261 C 0.31012 0.33756 0.78953
 C262 C 0.33832 0.30887 0.78989
 N263 N 0.34632 0.29554 0.79599
 C264 C 0.33776 0.28944 0.80897
 C265 C 0.30882 0.28940 0.83684
 N266 N 0.29554 0.29547 0.84489
 C267 C 0.28977 0.30878 0.83660
 H268 H 0.28020 0.34153 0.81575
 H269 H 0.31790 0.34166 0.77949
 H270 H 0.34263 0.31650 0.77981
 H271 H 0.34156 0.27910 0.81653
 H272 H 0.31625 0.27912 0.84099
 H273 H 0.27958 0.31643 0.84053
 C274 C 0.17745 0.56081 0.54768
 C275 C 0.18941 0.57329 0.54805
 C276 C 0.20144 0.57322 0.56018
 C277 C 0.20167 0.56066 0.57208
 C278 C 0.18985 0.54832 0.57173
 C279 C 0.17767 0.54840 0.55946
 C280 C 0.16363 0.55846 0.53812
 N281 N 0.15561 0.54497 0.54383
 C282 C 0.16398 0.53871 0.55686
 C283 C 0.19231 0.53854 0.58541
 N284 N 0.20530 0.54466 0.59391
 C285 C 0.21112 0.55817 0.58597
 C286 C 0.21065 0.58737 0.55823
 N287 N 0.20447 0.59587 0.54524
 C288 C 0.19149 0.58748 0.53892
 H289 H 0.15941 0.56629 0.52814
 H290 H 0.16008 0.52826 0.56422
 H291 H 0.18488 0.52811 0.58922
 H292 H 0.22110 0.56591 0.59031
 H293 H 0.22075 0.59143 0.56595
 H294 H 0.18387 0.59166 0.52878
 C295 C 0.57382 0.68903 0.04943
 C296 C 0.56137 0.67703 0.04923
 C297 C 0.54931 0.67710 0.06132
 C298 C 0.54957 0.68915 0.07374
 C299 C 0.56186 0.70101 0.07393
 C300 C 0.57406 0.70095 0.06170
 C301 C 0.58767 0.69130 0.03991
 N302 N 0.59616 0.70428 0.04614
 C303 C 0.58806 0.71027 0.05945
 C304 C 0.55967 0.71040 0.08793
 N305 N 0.54637 0.70449 0.09609
 C306 C 0.54009 0.69152 0.08762
 C307 C 0.53954 0.66344 0.05875
 N308 N 0.54540 0.65524 0.04543
 C309 C 0.55872 0.66334 0.03951
 H310 H 0.59154 0.68381 0.02955
 H311 H 0.59229 0.72034 0.06716
 H312 H 0.56742 0.72044 0.09214
 H313 H 0.52973 0.68409 0.09154
 H314 H 0.52929 0.65946 0.06629
 H315 H 0.56622 0.65925 0.02926
 C316 C 0.68968 0.20222 0.67727
 C317 C 0.67772 0.20232 0.68973
 C318 C 0.67803 0.19041 0.70200
 C319 C 0.69030 0.17825 0.70196
 C320 C 0.70212 0.17815 0.68964
 C321 C 0.70181 0.19021 0.67723
 C322 C 0.69169 0.21152 0.66318
 N323 N 0.70470 0.20542 0.65474
 C324 C 0.71099 0.19240 0.66311
 C325 C 0.71167 0.16431 0.69198
 N326 N 0.70590 0.15616 0.70537
 C327 C 0.69285 0.16447 0.71157
 C328 C 0.66431 0.19275 0.71168
 N329 N 0.65584 0.20576 0.70556
 C330 C 0.66382 0.21172 0.69215
 H331 H 0.68397 0.22162 0.65910
 H332 H 0.72113 0.18480 0.65897
 H333 H 0.72167 0.16015 0.68420
 H334 H 0.68544 0.16046 0.72193
 H335 H 0.66046 0.18522 0.72203
 H336 H 0.65952 0.22174 0.68444
 C337 C 1.07172 0.05883 0.20263
 C338 C 1.05945 0.07099 0.20257
 C339 C 1.04742 0.07089 0.19044
 C340 C 1.04750 0.05862 0.17823
 C341 C 1.05962 0.04659 0.17829
 C342 C 1.07180 0.04670 0.19057
 C343 C 1.08559 0.05663 0.21215
 N344 N 1.09395 0.04349 0.20613
 C345 C 1.08573 0.03732 0.19295
 C346 C 1.05739 0.03707 0.16437
 N347 N 1.04423 0.04306 0.15604
 C348 C 1.03809 0.05622 0.16429
 C349 C 1.03792 0.08478 0.19269
 N350 N 1.04392 0.09315 0.20585
 C351 C 1.05707 0.08494 0.21199
 H352 H 1.08961 0.06431 0.22232
 H353 H 1.08989 0.02715 0.18535
 H354 H 1.06507 0.02693 0.16033
 H355 H 1.02791 0.06380 0.16016
 H356 H 1.02778 0.08881 0.18501
 H357 H 1.06465 0.08911 0.22217
 C358 C 0.06058 0.17756 1.04834
 C359 C 0.07309 0.18950 1.04854
 C360 C 0.07316 0.20165 1.06060
 C361 C 0.06074 0.20200 1.07259
 C362 C 0.04839 0.19019 1.07239
 C363 C 0.04831 0.17791 1.06020
 C364 C 0.05809 0.16366 1.03887
 N365 N 0.04464 0.15571 1.04472
 C366 C 0.03856 0.16421 1.05775
 C367 C 0.03875 0.19278 1.08612
 N368 N 0.04499 0.20585 1.09448
 C369 C 0.05842 0.21159 1.08643
 C370 C 0.08728 0.21082 1.05848
 N371 N 0.09562 0.20451 1.04547
 C372 C 0.08716 0.19149 1.03930
 H373 H 0.06578 0.15933 1.02886
 H374 H 0.02818 0.16039 1.06520
 H375 H 0.02835 0.18539 1.09004
 H376 H 0.06623 0.22159 1.09064
 H377 H 0.09144 0.22098 1.06611
 H378 H 0.09121 0.18376 1.02918
 C379 C 0.17553 0.70125 0.68867
 C380 C 0.18772 0.70138 0.67642
 C381 C 0.20002 0.68955 0.67655
 C382 C 0.20029 0.67745 0.68892
 C383 C 0.18825 0.67732 0.70102
 C384 C 0.17580 0.68929 0.70089
 C385 C 0.16153 0.71053 0.69097
 N386 N 0.15344 0.70445 0.70426
 C387 C 0.16196 0.69148 0.71043
 C388 C 0.19090 0.66359 0.71069
 N389 N 0.20422 0.65553 0.70471
 C390 C 0.21006 0.66380 0.69142
 C391 C 0.20947 0.69199 0.66266
 N392 N 0.20318 0.70498 0.65425
 C393 C 0.18989 0.71083 0.66245
 H394 H 0.15727 0.72060 0.68330
 H395 H 0.15811 0.68394 0.72076
 H396 H 0.18341 0.65945 0.72093
 H397 H 0.22030 0.65985 0.68385
 H398 H 0.21983 0.68459 0.65870
 H399 H 0.18213 0.72086 0.65829
 C400 C 1.19048 0.17806 0.20148
 C401 C 1.17826 0.19026 0.20157
 C402 C 1.17797 0.20221 0.18933
 C403 C 1.18992 0.20210 0.17686
 C404 C 1.20201 0.19004 0.17676
 C405 C 1.20229 0.17795 0.18915
 C406 C 1.19301 0.16426 0.21107
 N407 N 1.20603 0.15592 0.20483
 C408 C 1.21180 0.16408 0.19145
 C409 C 1.21118 0.19225 0.16265
 N410 N 1.20493 0.20532 0.15434
 C411 C 1.19193 0.21145 0.16280
 C412 C 1.16411 0.21165 0.19180
 N413 N 1.15612 0.20569 0.20520
 C414 C 1.16456 0.19263 0.21128
 H415 H 1.18561 0.16026 0.22143
 H416 H 1.22179 0.15991 0.18366
 H417 H 1.22130 0.18462 0.15848
 H418 H 1.18423 0.22159 0.15877
 H419 H 1.15983 0.22171 0.18412
 H420 H 1.16070 0.18508 0.22161
 C421 C 0.67594 1.04994 0.56108
 C422 C 0.68841 1.04962 0.57304
 C423 C 0.70054 1.06165 0.57303
 C424 C 0.70034 1.07414 0.56105
 C425 C 0.68801 1.07445 0.54922
 C426 C 0.67574 1.06228 0.54924
 C427 C 0.66203 1.04049 0.55880
 N428 N 0.65353 1.04683 0.54590
 C429 C 0.66170 1.06013 0.53995
 C430 C 0.69028 1.08849 0.53988
 N431 N 0.70366 1.09654 0.54580
 C432 C 0.70992 1.08799 0.55873
 C433 C 0.71032 1.05894 0.58666
 N434 N 0.70438 1.04560 0.59478
 C435 C 0.69101 1.03979 0.58667
 H436 H 0.65812 1.03010 0.56625
 H437 H 0.65748 1.06792 0.52994
 H438 H 0.68253 1.09276 0.52988
 H439 H 0.72033 1.09181 0.56616
 H440 H 0.72062 1.06642 0.59068
 H441 H 0.68344 1.02955 0.59070
 C442 C 0.56019 0.54823 0.17812
 C443 C 0.57241 0.54832 0.19035
 C444 C 0.57262 0.56069 0.20217
 C445 C 0.56061 0.57311 0.20190
 C446 C 0.54854 0.57301 0.18981
 C447 C 0.54833 0.56050 0.17785
 C448 C 0.55772 0.53847 0.16442
 N449 N 0.54467 0.54454 0.15599
 C450 C 0.53882 0.55799 0.16399
 C451 C 0.53927 0.58709 0.19185
 N452 N 0.54546 0.59558 0.20486
 C453 C 0.55849 0.58724 0.21110
 C454 C 0.58647 0.55838 0.21169
 N455 N 0.59452 0.54495 0.20591
 C456 C 0.58614 0.53870 0.19288
 H457 H 0.56517 0.52809 0.16055
 H458 H 0.52880 0.56568 0.15972
 H459 H 0.52913 0.59113 0.18418
 H460 H 0.56613 0.59142 0.22123
 H461 H 0.59069 0.56618 0.22169
 H462 H 0.59005 0.52829 0.18547
 C463 C 0.67586 0.68926 0.20047
 C464 C 0.68835 0.67732 0.20055
 C465 C 0.70030 0.67745 0.18837
 C466 C 0.69992 0.68951 0.17596
 C467 C 0.68758 0.70131 0.17588
 C468 C 0.67548 0.70118 0.18821
 C469 C 0.66208 0.69144 0.21009
 N470 N 0.65349 0.70437 0.20394
 C471 C 0.66147 0.71043 0.19058
 C472 C 0.68965 0.71073 0.16188
 N473 N 0.70290 0.70490 0.15362
 C474 C 0.70928 0.69194 0.16201
 C475 C 0.71013 0.66383 0.19085
 N476 N 0.70439 0.65558 0.20420
 C477 C 0.69109 0.66362 0.21023
 H478 H 0.65831 0.68391 0.22047
 H479 H 0.65714 0.72047 0.18291
 H480 H 0.68185 0.72074 0.15775
 H481 H 0.71964 0.68457 0.15801
 H482 H 0.72032 0.65989 0.18321
 H483 H 0.68368 0.65950 0.22054
 C484 C 0.17781 0.05998 1.04753
 C485 C 0.18986 0.07238 1.04780
 C486 C 0.20194 0.07226 1.05988
 C487 C 0.20211 0.05975 1.07184
 C488 C 0.19020 0.04750 1.07158
 C489 C 0.17798 0.04762 1.05936
 C490 C 0.16392 0.05771 1.03805
 N491 N 0.15581 0.04431 1.04386
 C492 C 0.16419 0.03803 1.05687
 C493 C 0.19263 0.03777 1.08530
 N494 N 0.20569 0.04384 1.09374
 C495 C 0.21159 0.05726 1.08572
 C496 C 0.21122 0.08635 1.05785
 N497 N 0.20504 0.09485 1.04487
 C498 C 0.19199 0.08653 1.03862
 H499 H 0.15970 0.06553 1.02807
 H500 H 0.16024 0.02765 1.06430
 H501 H 0.18512 0.02743 1.08920
 H502 H 0.22163 0.06495 1.08999
 H503 H 0.22136 0.09038 1.06554
 H504 H 0.18434 0.09073 1.02852
 C505 C 0.57359 0.20108 0.56031
 C506 C 0.56115 0.20141 0.57228
 C507 C 0.54899 0.18941 0.57224
 C508 C 0.54911 0.17695 0.56023
 C509 C 0.56140 0.17663 0.54840
 C510 C 0.57372 0.18877 0.54843
 C511 C 0.58757 0.21043 0.55808
 N512 N 0.59602 0.20406 0.54517
 C513 C 0.58777 0.19083 0.53918
 C514 C 0.55913 0.16257 0.53911
 N515 N 0.54579 0.15451 0.54505
 C516 C 0.53957 0.16309 0.55796
 C517 C 0.53930 0.19205 0.58592
 N518 N 0.54532 0.20531 0.59412
 C519 C 0.55866 0.21114 0.58599
 H520 H 0.59157 0.22076 0.56557
 H521 H 0.59195 0.18302 0.52918
 H522 H 0.56687 0.15824 0.52914
 H523 H 0.52921 0.15923 0.56543
 H524 H 0.52902 0.18455 0.58995
 H525 H 0.56630 0.22131 0.59009
 C526 C 0.07236 0.56078 0.70207
 C527 C 0.06038 0.57323 0.70173
 C528 C 0.04834 0.57312 0.68960
 C529 C 0.04814 0.56058 0.67768
 C530 C 0.05998 0.54829 0.67801
 C531 C 0.07216 0.54839 0.69028
 C532 C 0.08617 0.55846 0.71165
 N533 N 0.09421 0.54499 0.70592
 C534 C 0.08585 0.53873 0.69288
 C535 C 0.05752 0.53850 0.66433
 N536 N 0.04450 0.54458 0.65585
 C537 C 0.03866 0.55806 0.66380
 C538 C 0.03909 0.58722 0.69159
 N539 N 0.04525 0.59573 0.70460
 C540 C 0.05825 0.58738 0.71089
 H541 H 0.09037 0.56627 0.72165
 H542 H 0.08976 0.52830 0.68551
 H543 H 0.06495 0.52810 0.66050
 H544 H 0.02866 0.56576 0.65948
 H545 H 0.02897 0.59125 0.68389
 H546 H 0.06586 0.59157 0.72105
 C547 C 0.67779 0.54816 0.05918
 C548 C 0.69003 0.54815 0.07138
 C549 C 0.70188 0.56046 0.07159
 C550 C 0.70163 0.57293 0.05958
 C551 C 0.68953 0.57293 0.04751
 C552 C 0.67755 0.56048 0.04731
 C553 C 0.66406 0.53849 0.05672
 N554 N 0.65564 0.54466 0.04369
 C555 C 0.66367 0.55809 0.03783
 C556 C 0.69160 0.58705 0.03827
 N557 N 0.70462 0.59546 0.04446
 C558 C 0.71086 0.58704 0.05747
 C559 C 0.71141 0.55805 0.08545
 N560 N 0.70560 0.54461 0.09351
 C561 C 0.69254 0.53846 0.08512
 H562 H 0.66017 0.52810 0.06418
 H563 H 0.65942 0.56585 0.02782
 H564 H 0.68392 0.59117 0.02815
 H565 H 0.72100 0.59115 0.06512
 H566 H 0.72143 0.56579 0.08967
 H567 H 0.68511 0.52807 0.08905
 C568 C 0.06183 0.70130 0.57386
 C569 C 0.07401 0.70123 0.56161
 C570 C 0.07377 0.68928 0.54937
 C571 C 0.06134 0.67727 0.54922
 C572 C 0.04930 0.67734 0.56132
 C573 C 0.04955 0.68942 0.57371
 C574 C 0.05964 0.71072 0.58783
 N575 N 0.04636 0.70482 0.59602
 C576 C 0.04009 0.69182 0.58760
 C577 C 0.03955 0.66365 0.55880
 N578 N 0.04540 0.65543 0.54549
 C579 C 0.05871 0.66354 0.53953
 C580 C 0.08760 0.69153 0.53983
 N581 N 0.09610 0.70452 0.54602
 C582 C 0.08800 0.71055 0.55932
 H583 H 0.06738 0.72078 0.59201
 H584 H 0.02974 0.68438 0.59155
 H585 H 0.02931 0.65967 0.56636
 H586 H 0.06620 0.65945 0.52928
 H587 H 0.09147 0.68401 0.52949
 H588 H 0.09224 0.72064 0.56700
 C589 C 0.56081 1.04859 0.67616
 C590 C 0.57277 1.04848 0.68865
 C591 C 0.57247 1.06040 0.70092
 C592 C 0.56020 1.07256 0.70086
 C593 C 0.54837 1.07267 0.68852
 C594 C 0.54868 1.06061 0.67610
 C595 C 0.55873 1.03921 0.66212
 N596 N 0.54567 1.04529 0.65370
 C597 C 0.53942 1.05836 0.66202
 C598 C 0.53875 1.08646 0.69090
 N599 N 0.54449 1.09456 0.70436
 C600 C 0.55759 1.08628 0.71055
 C601 C 0.58612 1.05797 0.71070
 N602 N 0.59456 1.04491 0.70463
 C603 C 0.58660 1.03900 0.69117
 H604 H 0.56641 1.02906 0.65810
 H605 H 0.52923 1.06592 0.65790
 H606 H 0.52870 1.09057 0.68315
 H607 H 0.56496 1.09023 0.72097
 H608 H 0.58993 1.06545 0.72110
 H609 H 0.59086 1.02893 0.68350
 C610 C 0.45061 0.32402 0.93851
 C611 C 0.45061 0.31177 0.92627
 C612 C 0.43878 0.29945 0.92648
 C613 C 0.42682 0.29921 0.93893
 C614 C 0.42681 0.31130 0.95103
 C615 C 0.43878 0.32378 0.95082
 C616 C 0.45993 0.33806 0.94074
 N617 N 0.45399 0.34619 0.95408
 C618 C 0.44107 0.33769 0.96034
 C619 C 0.41319 0.30868 0.96078
 N620 N 0.40508 0.29532 0.95487
 C621 C 0.41320 0.28942 0.94153
 C622 C 0.44109 0.28993 0.91259
 N623 N 0.45399 0.29621 0.90410
 C624 C 0.45992 0.30955 0.91225
 H625 H 0.46993 0.34230 0.93299
 H626 H 0.43363 0.34157 0.97072
 H627 H 0.40916 0.31621 0.97105
 H628 H 0.40919 0.27914 0.93398
 H629 H 0.43366 0.27953 0.90869
 H630 H 0.46992 0.31731 0.90802
 C631 C 0.94989 0.43762 0.32467
 C632 C 0.94988 0.42542 0.31239
 C633 C 0.93779 0.42542 0.30032
 C634 C 0.92556 0.43762 0.30038
 C635 C 0.92557 0.44968 0.31251
 C636 C 0.93780 0.44969 0.32472
 C637 C 0.95947 0.44003 0.33850
 N638 N 0.95345 0.45323 0.34678
 C639 C 0.94022 0.45924 0.33858
 C640 C 0.91176 0.45923 0.31014
 N641 N 0.90352 0.45322 0.29690
 C642 C 0.91175 0.44003 0.29083
 C643 C 0.94020 0.41162 0.29070
 N644 N 0.95342 0.40339 0.29667
 C645 C 0.95944 0.41162 0.30992
 H646 H 0.96972 0.43247 0.34249
 H647 H 0.93266 0.46947 0.34265
 H648 H 0.90774 0.46946 0.31773
 H649 H 0.90772 0.43249 0.28055
 H650 H 0.93265 0.40759 0.28044
 H651 H 0.96969 0.40759 0.31744
 C652 C 0.29883 0.94048 0.42661
 C653 C 0.29860 0.92853 0.43914
 C654 C 0.31049 0.92877 0.45140
 C655 C 0.32275 0.94096 0.45129
 C656 C 0.32299 0.95277 0.43891
 C657 C 0.31095 0.95253 0.42650
 C658 C 0.28952 0.94254 0.41255
 N659 N 0.29573 0.95553 0.40406
 C660 C 0.30882 0.96173 0.41236
 C661 C 0.33687 0.96226 0.44124
 N662 N 0.34490 0.95646 0.45470
 C663 C 0.33649 0.94345 0.46095
 C664 C 0.30798 0.91509 0.46118
 N665 N 0.29489 0.90671 0.45511
 C666 C 0.28905 0.91471 0.44166
 H667 H 0.27933 0.93489 0.40855
 H668 H 0.31649 0.97184 0.40818
 H669 H 0.34110 0.97226 0.43343
 H670 H 0.34036 0.93603 0.47138
 H671 H 0.31544 0.91121 0.47156
 H672 H 0.27899 0.91047 0.43398
 O673 O 0.24870 0.54411 0.72854
 O674 O 0.27675 0.53888 0.73063
 O675 O 0.22889 0.50064 0.70582
 O676 O 0.22821 0.47351 0.71078
 O677 O 0.20583 0.52109 0.74930
 O678 O 0.21208 0.51995 0.77798
 O679 O 0.27147 0.45699 0.75036
 O680 O 0.26821 0.46174 0.72239
 O681 O 0.29290 0.49895 0.77099
 O682 O 0.28715 0.52864 0.77000
 O683 O 0.25119 0.47876 0.79299
 O684 O 0.22184 0.47937 0.78738
 O685 O 0.25179 0.45683 0.77039
 O686 O 0.22126 0.46282 0.76891
 O687 O 0.27082 0.49881 0.79313
 O688 O 0.26899 0.52915 0.78685
 O689 O 0.29282 0.47885 0.75135
 O690 O 0.28732 0.48441 0.72153
 O691 O 0.22924 0.54418 0.74883
 O692 O 0.23067 0.53790 0.77810
 O693 O 0.20568 0.50126 0.72937
 O694 O 0.21252 0.47145 0.73192
 O695 O 0.24827 0.52097 0.70584
 O696 O 0.27793 0.51745 0.71236
 Zr697 Zr 0.25857 0.52015 0.72971
 O698 O 0.27444 0.50582 0.74444
 Zr699 Zr 0.22955 0.49114 0.72998
 O700 O 0.24450 0.47538 0.74419
 Zr701 Zr 0.22985 0.52017 0.75895
 O702 O 0.24434 0.50546 0.77472
 Zr703 Zr 0.26947 0.48075 0.74028
 O704 O 0.25456 0.49501 0.72428
 Zr705 Zr 0.26933 0.50957 0.76954
 O706 O 0.25482 0.52555 0.75489
 Zr707 Zr 0.24062 0.48032 0.76933
 O708 O 0.22435 0.49505 0.75512
 O709 O 0.23366 0.51609 0.73396
 O710 O 0.26557 0.48448 0.76544
 C711 C 0.23745 0.55113 0.73717
 C712 C 0.23705 0.51228 0.69883
 C713 C 0.19877 0.51269 0.73788
 C714 C 0.26349 0.45008 0.76215
 C715 C 0.29965 0.48705 0.76304
 C716 C 0.26282 0.48696 0.79990
 H717 H 0.28599 0.50850 0.74170
 H718 H 0.24161 0.50807 0.78631
 H719 H 0.22658 0.52311 0.72692
 H720 H 0.24206 0.46376 0.74135
 H721 H 0.26462 0.46700 0.71196
 H722 H 0.23678 0.46518 0.71306
 H723 H 0.25967 0.52726 0.79445
 H724 H 0.24141 0.54358 0.77714
 H725 H 0.29514 0.47503 0.72194
 H726 H 0.27688 0.52620 0.70386
 H727 H 0.22221 0.48984 0.79364
 H728 H 0.20698 0.50885 0.77779
 H729 H 0.27658 0.54343 0.74196
 H730 H 0.29374 0.52778 0.75978
 H731 H 0.20603 0.47338 0.74207
 H732 H 0.22334 0.45511 0.75967
 O733 O 0.24901 0.04384 0.22837
 O734 O 0.27704 0.03856 0.23044
 O735 O 0.22909 0.00027 0.20589
 O736 O 0.22840 -0.02683 0.21100
 O737 O 0.20608 0.02099 0.24926
 O738 O 0.21236 0.02000 0.27795
 O739 O 0.27163 -0.04320 0.25065
 O740 O 0.26837 -0.03862 0.22268
 O741 O 0.29319 -0.00109 0.27097
 O742 O 0.28740 0.02858 0.26986
 O743 O 0.25144 -0.02114 0.29318
 O744 O 0.22209 -0.02052 0.28760
 O745 O 0.25194 -0.04323 0.27067
 O746 O 0.22145 -0.03717 0.26922
 O747 O 0.27111 -0.00114 0.29318
 O748 O 0.26932 0.02915 0.28676
 O749 O 0.29306 -0.02131 0.25144
 O750 O 0.28749 -0.01597 0.22162
 O751 O 0.22956 0.04406 0.24867
 O752 O 0.23096 0.03793 0.27795
 O753 O 0.20590 0.00104 0.22945
 O754 O 0.21270 -0.02876 0.23216
 O755 O 0.24850 0.02058 0.20579
 O756 O 0.27815 0.01703 0.21229
 Zr757 Zr 0.25881 0.01987 0.22965
 O758 O 0.27468 0.00560 0.24445
 Zr759 Zr 0.22976 -0.00910 0.23010
 O760 O 0.24470 -0.02480 0.24440
 Zr761 Zr 0.23011 0.02010 0.25891
 O762 O 0.24460 0.00546 0.27475
 Zr763 Zr 0.26967 -0.01949 0.24044
 O764 O 0.25477 -0.00530 0.22436
 Zr765 Zr 0.26960 0.00950 0.26953
 O766 O 0.25509 0.02541 0.25480
 Zr767 Zr 0.24085 -0.01970 0.26952
 O768 O 0.22459 -0.00504 0.25523
 O769 O 0.23390 0.01588 0.23394
 O770 O 0.26581 -0.01561 0.26558
 C771 C 0.23779 0.05093 0.23699
 C772 C 0.23727 0.01186 0.19884
 C773 C 0.19900 0.01251 0.23790
 C774 C 0.26362 -0.05005 0.26246
 C775 C 0.29994 -0.01301 0.26304
 C776 C 0.26309 -0.01293 0.30003
 H777 H 0.28623 0.00825 0.24167
 H778 H 0.24189 0.00814 0.28633
 H779 H 0.22683 0.02287 0.22687
 H780 H 0.24223 -0.03642 0.24162
 H781 H 0.26476 -0.03343 0.21222
 H782 H 0.23693 -0.03519 0.21334
 H783 H 0.25998 0.02732 0.29436
 H784 H 0.24173 0.04356 0.27700
 H785 H 0.29530 -0.02536 0.22207
 H786 H 0.27711 0.02574 0.20374
 H787 H 0.22247 -0.01001 0.29379
 H788 H 0.20724 0.00890 0.27782
 H789 H 0.27688 0.04320 0.24174
 H790 H 0.29399 0.02767 0.25965
 H791 H 0.20623 -0.02676 0.24231
 H792 H 0.22347 -0.04491 0.26000
 O793 O 0.45588 0.75120 0.27169
 O794 O 0.46124 0.72308 0.26959
 O795 O 0.49914 0.77124 0.29444
 O796 O 0.52616 0.77204 0.28948
 O797 O 0.47863 0.79436 0.25096
 O798 O 0.47976 0.78814 0.22228
 O799 O 0.54279 0.72877 0.24979
 O800 O 0.53811 0.73199 0.27777
 O801 O 0.50100 0.70709 0.22924
 O802 O 0.47144 0.71278 0.23017
 O803 O 0.52097 0.74914 0.20725
 O804 O 0.52020 0.77860 0.21291
 O805 O 0.54283 0.74860 0.22982
 O806 O 0.53674 0.77917 0.23135
 O807 O 0.50112 0.72931 0.20708
 O808 O 0.47086 0.73102 0.21334
 O809 O 0.52105 0.70722 0.24889
 O810 O 0.51559 0.71273 0.27869
 O811 O 0.45572 0.77075 0.25141
 O812 O 0.46195 0.76941 0.22216
 O813 O 0.49841 0.79457 0.27089
 O814 O 0.52814 0.78783 0.26836
 O815 O 0.47897 0.75169 0.29440
 O816 O 0.48262 0.72196 0.28785
 Zr817 Zr 0.47981 0.74141 0.27051
 O818 O 0.49415 0.72558 0.25577
 Zr819 Zr 0.50859 0.77065 0.27028
 O820 O 0.52435 0.75575 0.25605
 Zr821 Zr 0.47963 0.77028 0.24130
 O822 O 0.49434 0.75584 0.22552
 Zr823 Zr 0.51912 0.73066 0.25992
 O824 O 0.50486 0.74553 0.27595
 Zr825 Zr 0.49037 0.73073 0.23066
 O826 O 0.47440 0.74519 0.24534
 Zr827 Zr 0.51938 0.75968 0.23091
 O828 O 0.50465 0.77591 0.24514
 O829 O 0.48374 0.76643 0.26629
 O830 O 0.51536 0.73461 0.23477
 C831 C 0.44883 0.76246 0.26305
 C832 C 0.48760 0.76298 0.30142
 C833 C 0.48700 0.80147 0.26238
 C834 C 0.54962 0.73685 0.23801
 C835 C 0.51286 0.70033 0.23722
 C836 C 0.51288 0.73743 0.20033
 H837 H 0.49153 0.71397 0.25850
 H838 H 0.49172 0.75858 0.21393
 H839 H 0.47672 0.77349 0.27333
 H840 H 0.53592 0.75825 0.25889
 H841 H 0.53289 0.73556 0.28822
 H842 H 0.53451 0.76349 0.28719
 H843 H 0.47273 0.74038 0.20572
 H844 H 0.45637 0.75859 0.22307
 H845 H 0.52497 0.70492 0.27829
 H846 H 0.47389 0.72296 0.29635
 H847 H 0.50979 0.77814 0.20659
 H848 H 0.49080 0.79330 0.22247
 H849 H 0.45667 0.72326 0.25826
 H850 H 0.47227 0.70620 0.24041
 H851 H 0.52618 0.79435 0.25821
 H852 H 0.54443 0.77712 0.24059
 O853 O -0.04430 0.75125 0.77161
 O854 O -0.03898 0.72313 0.76934
 O855 O -0.00103 0.77109 0.79450
 O856 O 0.02600 0.77190 0.78957
 O857 O -0.02150 0.79449 0.75119
 O858 O -0.02030 0.78845 0.72244
 O859 O 0.04260 0.72883 0.74967
 O860 O 0.03790 0.73191 0.77767
 O861 O 0.00080 0.70731 0.72897
 O862 O -0.02876 0.71306 0.72989
 O863 O 0.02086 0.74945 0.70722
 O864 O 0.02013 0.77886 0.71301
 O865 O 0.04270 0.74878 0.72982
 O866 O 0.03662 0.77937 0.73151
 O867 O 0.00099 0.72965 0.70693
 O868 O -0.02928 0.73138 0.71315
 O869 O 0.02083 0.70732 0.74863
 O870 O 0.01535 0.71266 0.77846
 O871 O -0.04442 0.77092 0.75143
 O872 O -0.03814 0.76975 0.72218
 O873 O -0.00174 0.79455 0.77113
 O874 O 0.02800 0.78782 0.76853
 O875 O -0.02124 0.75159 0.79434
 O876 O -0.01762 0.72189 0.78763
 Zr877 Zr -0.02038 0.74144 0.77039
 O878 O -0.00605 0.72567 0.75558
 Zr879 Zr 0.00844 0.77064 0.77035
 O880 O 0.02419 0.75580 0.75605
 Zr881 Zr -0.02049 0.77047 0.74135
 O882 O -0.00578 0.75609 0.72550
 Zr883 Zr 0.01893 0.73070 0.75978
 O884 O 0.00467 0.74549 0.77588
 Zr885 Zr -0.00979 0.73096 0.73050
 O886 O -0.02576 0.74536 0.74523
 Zr887 Zr 0.01925 0.75988 0.73093
 O888 O 0.00453 0.77604 0.74524
 O889 O -0.01642 0.76647 0.76631
 O890 O 0.01519 0.73479 0.73465
 C891 C -0.05132 0.76258 0.76302
 C892 C -0.01260 0.76282 0.80142
 C893 C -0.01316 0.80150 0.76268
 C894 C 0.04946 0.73697 0.73796
 C895 C 0.01264 0.70049 0.73693
 C896 C 0.01277 0.73778 0.70023
 H897 H -0.00868 0.71405 0.75825
 H898 H -0.00839 0.75891 0.71392
 H899 H -0.02344 0.77349 0.77340
 H900 H 0.03576 0.75827 0.75892
 H901 H 0.03267 0.73543 0.78812
 H902 H 0.03436 0.76337 0.78722
 H903 H -0.02738 0.74077 0.70558
 H904 H -0.04374 0.75892 0.72301
 H905 H 0.02473 0.70485 0.77802
 H906 H -0.02636 0.72285 0.79613
 H907 H 0.00969 0.77850 0.70674
 H908 H -0.00926 0.79363 0.72271
 H909 H -0.04355 0.72340 0.75802
 H910 H -0.02794 0.70641 0.74010
 H911 H 0.02603 0.79442 0.75844
 H912 H 0.04431 0.77724 0.74074
 O913 O 0.04375 0.02110 0.00125
 O914 O 0.03829 0.01898 -0.02684
 O915 O 0.00055 0.04377 0.02136
 O916 O -0.02648 0.03875 0.02215
 O917 O 0.02116 0.00041 0.04450
 O918 O 0.02003 -0.02830 0.03833
 O919 O -0.04319 -0.00104 -0.02103
 O920 O -0.03852 0.02696 -0.01785
 O921 O -0.00148 -0.02156 -0.04269
 O922 O 0.02814 -0.02047 -0.03705
 O923 O -0.02123 -0.04355 -0.00061
 O924 O -0.02045 -0.03783 0.02881
 O925 O -0.04317 -0.02102 -0.00121
 O926 O -0.03701 -0.01942 0.02937
 O927 O -0.00142 -0.04367 -0.02043
 O928 O 0.02880 -0.03728 -0.01880
 O929 O -0.02153 -0.00195 -0.04257
 O930 O -0.01606 0.02789 -0.03714
 O931 O 0.04400 0.00086 0.02085
 O932 O 0.03777 -0.02841 0.01959
 O933 O 0.00134 0.02026 0.04470
 O934 O -0.02840 0.01763 0.03799
 O935 O 0.02067 0.04376 0.00179
 O936 O 0.01689 0.03719 -0.02792
 Zr937 Zr 0.01979 0.01986 -0.00847
 O938 O 0.00543 0.00505 -0.02427
 Zr939 Zr -0.00890 0.01959 0.02080
 O940 O -0.02469 0.00528 0.00593
 Zr941 Zr 0.02009 -0.00931 0.02044
 O942 O 0.00535 -0.02516 0.00603
 Zr943 Zr -0.01953 0.00914 -0.01917
 O944 O -0.00525 0.02523 -0.00434
 Zr945 Zr 0.00925 -0.02003 -0.01908
 O946 O 0.02525 -0.00529 -0.00466
 Zr947 Zr -0.01968 -0.01984 0.00988
 O948 O -0.00492 -0.00554 0.02607
 O949 O 0.01595 0.01566 0.01656
 O950 O -0.01573 -0.01600 -0.01519
 C951 C 0.05085 0.01250 0.01251
 C952 C 0.01208 0.05076 0.01309
 C953 C 0.01279 0.01180 0.05160
 C954 C -0.04999 -0.01284 -0.01295
 C955 C -0.01337 -0.01363 -0.04944
 C956 C -0.01314 -0.05046 -0.01229
 H957 H 0.00801 0.00778 -0.03589
 H958 H 0.00800 -0.03673 0.00879
 H959 H 0.02299 0.02273 0.02360
 H960 H -0.03625 0.00809 0.00843
 H961 H -0.03329 0.03742 -0.01430
 H962 H -0.03487 0.03640 0.01363
 H963 H 0.02701 -0.04486 -0.00940
 H964 H 0.04334 -0.02749 0.00877
 H965 H -0.02546 0.02744 -0.04494
 H966 H 0.02561 0.04572 -0.02695
 H967 H -0.01001 -0.04406 0.02840
 H968 H 0.00901 -0.02812 0.04351
 H969 H 0.04285 0.00766 -0.02668
 H970 H 0.02720 -0.01028 -0.04371
 H971 H -0.02643 0.00749 0.04451
 H972 H -0.04472 -0.01021 0.02730
 O973 O 0.00100 0.54396 0.52132
 O974 O -0.02705 0.53865 0.51917
 O975 O 0.02082 0.50051 0.54396
 O976 O 0.02149 0.47338 0.53895
 O977 O 0.04392 0.52108 0.50056
 O978 O 0.03770 0.52000 0.47187
 O979 O -0.02169 0.45683 0.49921
 O980 O -0.01847 0.46150 0.52720
 O981 O -0.04313 0.49884 0.47872
 O982 O -0.03734 0.52851 0.47974
 O983 O -0.00135 0.47873 0.45672
 O984 O 0.02802 0.47945 0.46238
 O985 O -0.00193 0.45676 0.47925
 O986 O 0.02856 0.46283 0.48080
 O987 O -0.02102 0.49870 0.45659
 O988 O -0.01917 0.52906 0.46291
 O989 O -0.04307 0.47868 0.49830
 O990 O -0.03758 0.48413 0.52813
 O991 O 0.02049 0.54412 0.50106
 O992 O 0.01910 0.53791 0.47178
 O993 O 0.04405 0.50121 0.52044
 O994 O 0.03722 0.47138 0.51783
 O995 O 0.00141 0.52078 0.54396
 O996 O -0.02823 0.51718 0.53739
 Zr997 Zr -0.00885 0.51998 0.52007
 O998 O -0.02469 0.50564 0.50528
 Zr999 Zr 0.02018 0.49104 0.51979
 O1000 O 0.00527 0.47527 0.50551
 Zr1001 Zr 0.01991 0.52014 0.49087
 O1002 O 0.00546 0.50542 0.47505
 Zr1003 Zr -0.01972 0.48057 0.50938
 O1004 O -0.00484 0.49483 0.52545
 Zr1005 Zr -0.01954 0.50946 0.48019
 O1006 O -0.00507 0.52544 0.49491
 Zr1007 Zr 0.00919 0.48029 0.48039
 O1008 O 0.02542 0.49502 0.49466
 O1009 O 0.01607 0.51599 0.51585
 O1010 O -0.01577 0.48437 0.48424
 C1011 C 0.01227 0.55102 0.51272
 C1012 C 0.01264 0.51211 0.55096
 C1013 C 0.05097 0.51266 0.51196
 C1014 C -0.01366 0.44996 0.48743
 C1015 C -0.04990 0.48692 0.48665
 C1016 C -0.01300 0.48687 0.44983
 H1017 H -0.03624 0.50829 0.50801
 H1018 H 0.00820 0.50806 0.46346
 H1019 H 0.02313 0.52301 0.52291
 H1020 H 0.00771 0.46366 0.50833
 H1021 H -0.01489 0.46673 0.53766
 H1022 H 0.01294 0.46502 0.53663
 H1023 H -0.00986 0.52717 0.45529
 H1024 H 0.00835 0.54355 0.47271
 H1025 H -0.04540 0.47473 0.52769
 H1026 H -0.02720 0.52592 0.54591
 H1027 H 0.02759 0.48990 0.45608
 H1028 H 0.04279 0.50891 0.47202
 H1029 H -0.02684 0.54327 0.50786
 H1030 H -0.04392 0.52765 0.48996
 H1031 H 0.04373 0.47335 0.50770
 H1032 H 0.02649 0.45511 0.49002
 O1033 O 0.49878 -0.02182 0.45609
 O1034 O 0.52679 -0.01972 0.46147
 O1035 O 0.47884 -0.04437 0.49959
 O1036 O 0.47806 -0.03925 0.52668
 O1037 O 0.45580 -0.00102 0.47879
 O1038 O 0.46199 0.02767 0.47983
 O1039 O 0.52126 0.00050 0.54320
 O1040 O 0.51805 -0.02750 0.53860
 O1041 O 0.54278 0.02090 0.50119
 O1042 O 0.53708 0.01976 0.47152
 O1043 O 0.50096 0.04297 0.52109
 O1044 O 0.47162 0.03731 0.52040
 O1045 O 0.50153 0.02049 0.54317
 O1046 O 0.47104 0.01892 0.53705
 O1047 O 0.52065 0.04302 0.50115
 O1048 O 0.51890 0.03657 0.47084
 O1049 O 0.54269 0.00136 0.52139
 O1050 O 0.53721 -0.02850 0.51602
 O1051 O 0.47930 -0.00154 0.45583
 O1052 O 0.48063 0.02775 0.46199
 O1053 O 0.45560 -0.02084 0.49872
 O1054 O 0.46236 -0.01812 0.52857
 O1055 O 0.49827 -0.04443 0.47935
 O1056 O 0.52791 -0.03787 0.48300
 Zr1057 Zr 0.50854 -0.02054 0.48010
 O1058 O 0.52436 -0.00571 0.49442
 Zr1059 Zr 0.47945 -0.02015 0.50896
 O1060 O 0.49434 -0.00583 0.52471
 Zr1061 Zr 0.47979 0.00867 0.47979
 O1062 O 0.49422 0.02454 0.49448
 Zr1063 Zr 0.51933 -0.00973 0.51949
 O1064 O 0.50448 -0.02584 0.50525
 Zr1065 Zr 0.51922 0.01937 0.49051
 O1066 O 0.50478 0.00461 0.47455
 Zr1067 Zr 0.49044 0.01928 0.51963
 O1068 O 0.47423 0.00497 0.50490
 O1069 O 0.48362 -0.01630 0.48401
 O1070 O 0.51541 0.01541 0.51560
 C1071 C 0.48756 -0.01321 0.44897
 C1072 C 0.48704 -0.05141 0.48803
 C1073 C 0.44872 -0.01240 0.48722
 C1074 C 0.51324 0.01231 0.55002
 C1075 C 0.54953 0.01300 0.51314
 C1076 C 0.51260 0.04985 0.51292
 H1077 H 0.53592 -0.00845 0.49180
 H1078 H 0.49148 0.03611 0.49180
 H1079 H 0.47657 -0.02338 0.47699
 H1080 H 0.49187 -0.00862 0.53633
 H1081 H 0.51448 -0.03797 0.53340
 H1082 H 0.48664 -0.03694 0.53502
 H1083 H 0.50959 0.04420 0.47267
 H1084 H 0.49139 0.02680 0.45637
 H1085 H 0.54501 -0.02803 0.52542
 H1086 H 0.52690 -0.04642 0.47429
 H1087 H 0.47200 0.04350 0.50989
 H1088 H 0.45685 0.02753 0.49091
 H1089 H 0.52664 -0.00841 0.45686
 H1090 H 0.54367 0.00955 0.47244
 H1091 H 0.45585 -0.00799 0.52653
 H1092 H 0.47310 0.00972 0.54480
 O1093 O 0.54379 0.52112 0.00088
 O1094 O 0.53837 0.51900 -0.02723
 O1095 O 0.50063 0.54390 0.02091
 O1096 O 0.47357 0.53897 0.02160
 O1097 O 0.52105 0.50052 0.04410
 O1098 O 0.51987 0.47180 0.03795
 O1099 O 0.45682 0.49919 -0.02153
 O1100 O 0.46158 0.52719 -0.01838
 O1101 O 0.49853 0.47855 -0.04312
 O1102 O 0.52815 0.47957 -0.03742
 O1103 O 0.47861 0.45665 -0.00111
 O1104 O 0.47941 0.46235 0.02835
 O1105 O 0.45676 0.47923 -0.00168
 O1106 O 0.46290 0.48080 0.02889
 O1107 O 0.49847 0.45647 -0.02088
 O1108 O 0.52872 0.46275 -0.01917
 O1109 O 0.47850 0.49818 -0.04303
 O1110 O 0.48406 0.52802 -0.03765
 O1111 O 0.54395 0.50090 0.02049
 O1112 O 0.53765 0.47163 0.01924
 O1113 O 0.50128 0.52042 0.04424
 O1114 O 0.47156 0.51787 0.03748
 O1115 O 0.52078 0.54383 0.00138
 O1116 O 0.51702 0.53726 -0.02835
 Zr1117 Zr 0.51984 0.51994 -0.00889
 O1118 O 0.50547 0.50515 -0.02471
 Zr1119 Zr 0.49109 0.51975 0.02032
 O1120 O 0.47530 0.50547 0.00544
 Zr1121 Zr 0.52001 0.49078 0.02004
 O1122 O 0.50527 0.47496 0.00561
 Zr1123 Zr 0.48052 0.50931 -0.01965
 O1124 O 0.49481 0.52538 -0.00481
 Zr1125 Zr 0.50922 0.48006 -0.01950
 O1126 O 0.52523 0.49477 -0.00505
 Zr1127 Zr 0.48024 0.48034 0.00942
 O1128 O 0.49500 0.49462 0.02562
 O1129 O 0.51594 0.51576 0.01613
 O1130 O 0.48425 0.48416 -0.01565
 C1131 C 0.55084 0.51251 0.01216
 C1132 C 0.51220 0.55085 0.01267
 C1133 C 0.51270 0.51194 0.05117
 C1134 C 0.44997 0.48743 -0.01344
 C1135 C 0.48664 0.48648 -0.04988
 C1136 C 0.48670 0.44972 -0.01279
 H1137 H 0.50807 0.50786 -0.03632
 H1138 H 0.50788 0.46337 0.00838
 H1139 H 0.52299 0.52281 0.02318
 H1140 H 0.46374 0.50831 0.00792
 H1141 H 0.46684 0.53764 -0.01484
 H1142 H 0.46516 0.53660 0.01310
 H1143 H 0.52687 0.45517 -0.00978
 H1144 H 0.54324 0.47252 0.00842
 H1145 H 0.47466 0.52758 -0.04545
 H1146 H 0.52576 0.54577 -0.02736
 H1147 H 0.48982 0.45606 0.02792
 H1148 H 0.50883 0.47200 0.04309
 H1149 H 0.54291 0.50766 -0.02705
 H1150 H 0.52724 0.48975 -0.04410
 H1151 H 0.47349 0.50772 0.04401
 H1152 H 0.45523 0.49004 0.02683
 O1153 O 0.75136 0.27123 0.45572
 O1154 O 0.72330 0.26914 0.46098
 O1155 O 0.77121 0.29390 0.49919
 O1156 O 0.77187 0.28893 0.52632
 O1157 O 0.79424 0.25047 0.47869
 O1158 O 0.78800 0.22176 0.47984
 O1159 O 0.72865 0.24933 0.54283
 O1160 O 0.73188 0.27730 0.53811
 O1161 O 0.70715 0.22879 0.50080
 O1162 O 0.71296 0.22974 0.47114
 O1163 O 0.74887 0.20672 0.52103
 O1164 O 0.77821 0.21227 0.52039
 O1165 O 0.74837 0.22933 0.54298
 O1166 O 0.77887 0.23078 0.53691
 O1167 O 0.72922 0.20660 0.50101
 O1168 O 0.73108 0.21287 0.47066
 O1169 O 0.70725 0.24839 0.52093
 O1170 O 0.71278 0.27820 0.51544
 O1171 O 0.77081 0.25093 0.45563
 O1172 O 0.76940 0.22165 0.46189
 O1173 O 0.79439 0.27037 0.49854
 O1174 O 0.78758 0.26778 0.52836
 O1175 O 0.75182 0.29391 0.47886
 O1176 O 0.72217 0.28741 0.48242
 Zr1177 Zr 0.74151 0.27004 0.47968
 O1178 O 0.72564 0.25530 0.49400
 Zr1179 Zr 0.77053 0.26974 0.50868
 O1180 O 0.75559 0.25551 0.52443
 Zr1181 Zr 0.77023 0.24079 0.47962
 O1182 O 0.75574 0.22501 0.49433
 Zr1183 Zr 0.73062 0.25943 0.51907
 O1184 O 0.74552 0.27545 0.50483
 Zr1185 Zr 0.73075 0.23019 0.49023
 O1186 O 0.74525 0.24486 0.47426
 Zr1187 Zr 0.75947 0.23037 0.51946
 O1188 O 0.77573 0.24459 0.50475
 O1189 O 0.76641 0.26578 0.48373
 O1190 O 0.73451 0.23427 0.51532
 C1191 C 0.76261 0.26260 0.44870
 C1192 C 0.76306 0.30089 0.48755
 C1193 C 0.80129 0.26189 0.48710
 C1194 C 0.73667 0.23757 0.54975
 C1195 C 0.70039 0.23675 0.51268
 C1196 C 0.73722 0.19983 0.51286
 H1197 H 0.71409 0.25805 0.49133
 H1198 H 0.75846 0.21341 0.49171
 H1199 H 0.77349 0.27282 0.47671
 H1200 H 0.75805 0.25835 0.53604
 H1201 H 0.73549 0.28773 0.53287
 H1202 H 0.76332 0.28662 0.53468
 H1203 H 0.74039 0.20525 0.47257
 H1204 H 0.75864 0.22259 0.45623
 H1205 H 0.70496 0.27779 0.52482
 H1206 H 0.72321 0.29591 0.47367
 H1207 H 0.77786 0.20606 0.50989
 H1208 H 0.79311 0.22196 0.49093
 H1209 H 0.72350 0.25783 0.45638
 H1210 H 0.70639 0.23998 0.47197
 H1211 H 0.79409 0.25765 0.52639
 H1212 H 0.77683 0.24001 0.54462
 O1213 O 0.75100 0.77207 -0.04453
 O1214 O 0.72296 0.77012 -0.03925
 O1215 O 0.77105 0.79449 -0.00101
 O1216 O 0.77165 0.78943 0.02610
 O1217 O 0.79383 0.75100 -0.02165
 O1218 O 0.78744 0.72235 -0.02066
 O1219 O 0.72825 0.74995 0.04251
 O1220 O 0.73163 0.77793 0.03789
 O1221 O 0.70668 0.72959 0.00049
 O1222 O 0.71240 0.73069 -0.02918
 O1223 O 0.74837 0.70732 0.02050
 O1224 O 0.77771 0.71281 0.01993
 O1225 O 0.74785 0.72982 0.04255
 O1226 O 0.77838 0.73123 0.03654
 O1227 O 0.72871 0.70734 0.00049
 O1228 O 0.73050 0.71379 -0.02982
 O1229 O 0.70687 0.74916 0.02066
 O1230 O 0.71250 0.77898 0.01524
 O1231 O 0.77039 0.75170 -0.04471
 O1232 O 0.76883 0.72241 -0.03857
 O1233 O 0.79410 0.77082 -0.00170
 O1234 O 0.78726 0.76820 0.02809
 O1235 O 0.75163 0.79467 -0.02131
 O1236 O 0.72193 0.78829 -0.01772
 Zr1237 Zr 0.74119 0.77084 -0.02056
 O1238 O 0.72526 0.75611 -0.00629
 Zr1239 Zr 0.77023 0.77030 0.00841
 O1240 O 0.75523 0.75609 0.02412
 Zr1241 Zr 0.76976 0.74146 -0.02076
 O1242 O 0.75523 0.72569 -0.00610
 Zr1243 Zr 0.73027 0.76013 0.01879
 O1244 O 0.74524 0.77614 0.00460
 Zr1245 Zr 0.73026 0.73099 -0.01015
 O1246 O 0.74480 0.74566 -0.02607
 Zr1247 Zr 0.75900 0.73095 0.01906
 O1248 O 0.77531 0.74515 0.00438
 O1249 O 0.76608 0.76645 -0.01655
 O1250 O 0.73406 0.73497 0.01495
 C1251 C 0.76221 0.76342 -0.05160
 C1252 C 0.76292 0.80156 -0.01261
 C1253 C 0.80096 0.76233 -0.01317
 C1254 C 0.73619 0.73809 0.04936
 C1255 C 0.69997 0.73754 0.01241
 C1256 C 0.73672 0.70048 0.01228
 H1257 H 0.71372 0.75891 -0.00894
 H1258 H 0.75791 0.71410 -0.00876
 H1259 H 0.77319 0.77348 -0.02355
 H1260 H 0.75770 0.75887 0.03575
 H1261 H 0.73526 0.78837 0.03268
 H1262 H 0.76309 0.78714 0.03445
 H1263 H 0.73979 0.70614 -0.02798
 H1264 H 0.75809 0.72344 -0.04425
 H1265 H 0.70469 0.77857 0.02463
 H1266 H 0.72301 0.79684 -0.02643
 H1267 H 0.77734 0.70664 0.00940
 H1268 H 0.79257 0.72246 -0.00957
 H1269 H 0.72304 0.75880 -0.04384
 H1270 H 0.70587 0.74095 -0.02829
 H1271 H 0.79370 0.75803 0.02611
 H1272 H 0.77633 0.74041 0.04432
 O1273 O 1.04438 0.22830 0.24881
 O1274 O 1.03906 0.23044 0.27692
 O1275 O 1.00107 0.20553 0.22887
 O1276 O 0.97405 0.21052 0.22809
 O1277 O 1.02159 0.24893 0.20563
 O1278 O 1.02047 0.27764 0.21179
 O1279 O 0.95751 0.25028 0.27129
 O1280 O 0.96219 0.22228 0.26815
 O1281 O 0.99935 0.27088 0.29287
 O1282 O 1.02893 0.26988 0.28714
 O1283 O 0.97932 0.29278 0.25087
 O1284 O 0.98007 0.28710 0.22140
 O1285 O 0.95745 0.27022 0.25142
 O1286 O 0.96352 0.26866 0.22085
 O1287 O 0.99921 0.29296 0.27064
 O1288 O 1.02948 0.28669 0.26887
 O1289 O 0.97926 0.25128 0.29280
 O1290 O 0.98473 0.22143 0.28739
 O1291 O 1.04453 0.24855 0.22922
 O1292 O 1.03830 0.27781 0.23048
 O1293 O 1.00179 0.22902 0.20550
 O1294 O 0.97207 0.23161 0.21227
 O1295 O 1.02128 0.20559 0.24838
 O1296 O 1.01766 0.21219 0.27809
 Zr1297 Zr 1.02046 0.22950 0.25862
 O1298 O 1.00616 0.24429 0.27444
 Zr1299 Zr 0.99164 0.22970 0.22942
 O1300 O 0.97592 0.24398 0.24431
 Zr1301 Zr 1.02062 0.25866 0.22969
 O1302 O 1.00594 0.27449 0.24413
 Zr1303 Zr 0.98118 0.24015 0.26940
 O1304 O 0.99540 0.22408 0.25455
 Zr1305 Zr 1.00995 0.26938 0.26923
 O1306 O 1.02589 0.25467 0.25478
 Zr1307 Zr 0.98090 0.26911 0.24033
 O1308 O 0.99559 0.25483 0.22411
 O1309 O 1.01650 0.23368 0.23360
 O1310 O 0.98496 0.26529 0.26539
 C1311 C 1.05142 0.23693 0.23753
 C1312 C 1.01262 0.19856 0.23712
 C1313 C 1.01320 0.23751 0.19857
 C1314 C 0.95067 0.26204 0.26319
 C1315 C 0.98747 0.26296 0.29964
 C1316 C 0.98742 0.29971 0.26256
 H1317 H 1.00879 0.24158 0.28605
 H1318 H 1.00857 0.28608 0.24136
 H1319 H 1.02351 0.22662 0.22654
 H1320 H 0.96434 0.24114 0.24184
 H1321 H 0.96742 0.21183 0.26460
 H1322 H 0.96572 0.21282 0.23667
 H1323 H 1.02758 0.29432 0.25952
 H1324 H 1.04390 0.27692 0.24130
 H1325 H 0.97536 0.22188 0.29521
 H1326 H 1.02638 0.20368 0.27710
 H1327 H 0.99048 0.29341 0.22185
 H1328 H 1.00941 0.27745 0.20666
 H1329 H 1.04362 0.24177 0.27673
 H1330 H 1.02805 0.25968 0.29378
 H1331 H 0.97403 0.24173 0.20572
 H1332 H 0.95584 0.25940 0.22291
 O1333 O 0.74890 1.04405 0.72876
 O1334 O 0.77692 1.03869 0.73092
 O1335 O 0.72898 1.00063 0.70601
 O1336 O 0.72830 0.97348 0.71099
 O1337 O 0.70583 1.02119 0.74930
 O1338 O 0.71194 1.02004 0.77804
 O1339 O 0.77129 0.95689 0.75082
 O1340 O 0.76816 0.96158 0.72283
 O1341 O 0.79277 0.99887 0.77141
 O1342 O 0.78704 1.02859 0.77035
 O1343 O 0.75093 0.97880 0.79331
 O1344 O 0.72158 0.97951 0.78759
 O1345 O 0.75150 0.95682 0.77075
 O1346 O 0.72102 0.96291 0.76916
 O1347 O 0.77062 0.99878 0.79347
 O1348 O 0.76887 1.02911 0.78717
 O1349 O 0.79271 0.97872 0.75183
 O1350 O 0.78733 0.98420 0.72198
 O1351 O 0.72935 1.04421 0.74897
 O1352 O 0.73056 1.03795 0.77823
 O1353 O 0.70572 1.00130 0.72944
 O1354 O 0.71245 0.97149 0.73207
 O1355 O 0.74842 1.02091 0.70608
 O1356 O 0.77804 1.01723 0.71268
 Zr1357 Zr 0.75865 1.02005 0.72998
 O1358 O 0.77442 1.00571 0.74480
 Zr1359 Zr 0.72956 0.99112 0.73017
 O1360 O 0.74440 0.97535 0.74449
 Zr1361 Zr 0.72980 1.02021 0.75910
 O1362 O 0.74419 1.00549 0.77496
 Zr1363 Zr 0.76940 0.98064 0.74068
 O1364 O 0.75460 0.99491 0.72458
 Zr1365 Zr 0.76921 1.00952 0.76987
 O1366 O 0.75481 1.02551 0.75513
 Zr1367 Zr 0.74043 0.98036 0.76961
 O1368 O 0.72426 0.99509 0.75529
 O1369 O 0.73371 1.01608 0.73414
 O1370 O 0.76541 0.98444 0.76581
 C1371 C 0.73765 1.05112 0.73735
 C1372 C 0.73718 1.01226 0.69905
 C1373 C 0.69880 1.01278 0.73787
 C1374 C 0.76322 0.95001 0.76258
 C1375 C 0.79954 0.98696 0.76350
 C1376 C 0.76257 0.98696 0.80023
 H1377 H 0.78599 1.00835 0.74210
 H1378 H 0.74143 1.00813 0.78653
 H1379 H 0.72669 1.02311 0.72707
 H1380 H 0.74193 0.96374 0.74167
 H1381 H 0.76462 0.96682 0.71237
 H1382 H 0.73677 0.96507 0.71338
 H1383 H 0.75951 1.02725 0.79474
 H1384 H 0.74135 1.04357 0.77736
 H1385 H 0.79513 0.97480 0.72244
 H1386 H 0.77706 1.02598 0.70417
 H1387 H 0.72197 0.98999 0.79384
 H1388 H 0.70681 1.00895 0.77782
 H1389 H 0.77672 1.04329 0.74224
 H1390 H 0.79372 1.02765 0.76019
 H1391 H 0.70594 0.97345 0.74220
 H1392 H 0.72308 0.95520 0.75992
 O1393 O 0.74921 0.54430 0.22813
 O1394 O 0.77727 0.53906 0.23025
 O1395 O 0.72940 0.50083 0.20544
 O1396 O 0.72874 0.47370 0.21041
 O1397 O 0.70632 0.52129 0.24890
 O1398 O 0.71257 0.52019 0.27758
 O1399 O 0.77195 0.45719 0.25005
 O1400 O 0.76871 0.46191 0.22207
 O1401 O 0.79338 0.49917 0.27066
 O1402 O 0.78763 0.52885 0.26964
 O1403 O 0.75164 0.47900 0.29263
 O1404 O 0.72228 0.47962 0.28699
 O1405 O 0.75224 0.45705 0.27006
 O1406 O 0.72174 0.46303 0.26855
 O1407 O 0.77128 0.49903 0.29278
 O1408 O 0.76946 0.52938 0.28647
 O1409 O 0.79331 0.47905 0.25103
 O1410 O 0.78783 0.48458 0.22120
 O1411 O 0.72973 0.54438 0.24841
 O1412 O 0.73116 0.53813 0.27768
 O1413 O 0.70618 0.50145 0.22898
 O1414 O 0.71302 0.47164 0.23153
 O1415 O 0.74880 0.52115 0.20545
 O1416 O 0.77845 0.51761 0.21199
 Zr1417 Zr 0.75908 0.52034 0.22934
 O1418 O 0.77494 0.50602 0.24408
 Zr1419 Zr 0.73006 0.49133 0.22960
 O1420 O 0.74499 0.47558 0.24384
 Zr1421 Zr 0.73034 0.52039 0.25855
 O1422 O 0.74481 0.50568 0.27434
 Zr1423 Zr 0.76996 0.48094 0.23995
 O1424 O 0.75507 0.49519 0.22391
 Zr1425 Zr 0.76981 0.50978 0.26918
 O1426 O 0.75531 0.52575 0.25451
 Zr1427 Zr 0.74109 0.48054 0.26897
 O1428 O 0.72484 0.49526 0.25474
 O1429 O 0.73416 0.51629 0.23357
 O1430 O 0.76604 0.48469 0.26509
 C1431 C 0.73795 0.55132 0.23675
 C1432 C 0.73757 0.51246 0.19845
 C1433 C 0.69927 0.51287 0.23749
 C1434 C 0.76395 0.45028 0.26184
 C1435 C 0.80014 0.48726 0.26272
 C1436 C 0.76327 0.48719 0.29954
 H1437 H 0.78649 0.50869 0.24135
 H1438 H 0.74208 0.50830 0.28593
 H1439 H 0.72709 0.52330 0.22652
 H1440 H 0.74255 0.46396 0.24100
 H1441 H 0.76514 0.46716 0.21163
 H1442 H 0.73730 0.46536 0.21270
 H1443 H 0.76013 0.52749 0.29407
 H1444 H 0.74190 0.54381 0.27673
 H1445 H 0.79565 0.47520 0.22162
 H1446 H 0.77741 0.52637 0.20349
 H1447 H 0.72269 0.49008 0.29328
 H1448 H 0.70747 0.50908 0.27741
 H1449 H 0.77708 0.54363 0.24158
 H1450 H 0.79422 0.52799 0.25942
 H1451 H 0.70654 0.47357 0.24168
 H1452 H 0.72380 0.45533 0.25931
 O1453 O 0.54397 0.22797 0.74906
 O1454 O 0.53860 0.22993 0.77718
 O1455 O 0.50075 0.20521 0.72892
 O1456 O 0.47370 0.21010 0.72825
 O1457 O 0.52116 0.24874 0.70595
 O1458 O 0.51999 0.27741 0.71223
 O1459 O 0.45705 0.24969 0.77158
 O1460 O 0.46177 0.22170 0.76831
 O1461 O 0.49883 0.27026 0.79325
 O1462 O 0.52841 0.26934 0.78755
 O1463 O 0.47880 0.29230 0.75133
 O1464 O 0.47957 0.28673 0.72184
 O1465 O 0.45697 0.26971 0.75180
 O1466 O 0.46303 0.26828 0.72123
 O1467 O 0.49868 0.29244 0.77112
 O1468 O 0.52896 0.28621 0.76934
 O1469 O 0.47879 0.25061 0.79310
 O1470 O 0.48430 0.22080 0.78756
 O1471 O 0.54409 0.24829 0.72955
 O1472 O 0.53780 0.27753 0.73093
 O1473 O 0.50138 0.22880 0.70571
 O1474 O 0.47166 0.23127 0.71248
 O1475 O 0.52094 0.20521 0.74844
 O1476 O 0.51724 0.21163 0.77821
 Zr1477 Zr 0.52004 0.22905 0.75883
 O1478 O 0.50570 0.24375 0.77472
 Zr1479 Zr 0.49123 0.22934 0.72963
 O1480 O 0.47547 0.24352 0.74458
 Zr1481 Zr 0.52016 0.25836 0.73005
 O1482 O 0.50545 0.27409 0.74454
 Zr1483 Zr 0.48073 0.23959 0.76965
 O1484 O 0.49499 0.22361 0.75473
 Zr1485 Zr 0.50945 0.26887 0.76962
 O1486 O 0.52542 0.25425 0.75512
 Zr1487 Zr 0.48042 0.26868 0.74070
 O1488 O 0.49514 0.25450 0.72443
 O1489 O 0.51609 0.23335 0.73383
 O1490 O 0.48447 0.26476 0.76575
 C1491 C 0.55100 0.23665 0.73782
 C1492 C 0.51233 0.19822 0.73712
 C1493 C 0.51279 0.23733 0.69882
 C1494 C 0.45020 0.26148 0.76353
 C1495 C 0.48696 0.26229 0.79999
 C1496 C 0.48689 0.29919 0.76305
 H1497 H 0.50833 0.24100 0.78632
 H1498 H 0.50805 0.28569 0.74182
 H1499 H 0.52312 0.22635 0.72675
 H1500 H 0.46391 0.24068 0.74208
 H1501 H 0.46701 0.21127 0.76472
 H1502 H 0.46533 0.21239 0.73678
 H1503 H 0.52705 0.29388 0.76004
 H1504 H 0.54340 0.27660 0.74175
 H1505 H 0.47492 0.22120 0.79538
 H1506 H 0.52596 0.20314 0.77718
 H1507 H 0.48996 0.29308 0.72233
 H1508 H 0.50894 0.27722 0.70708
 H1509 H 0.54314 0.24127 0.77705
 H1510 H 0.52755 0.25910 0.79415
 H1511 H 0.47359 0.24144 0.70599
 H1512 H 0.45537 0.25901 0.72325
 O1513 O 0.29383 0.75168 0.47873
 O1514 O 0.28842 0.72358 0.48087
 O1515 O 0.25059 0.77165 0.45589
 O1516 O 0.22357 0.77242 0.46082
 O1517 O 0.27112 0.79492 0.49925
 O1518 O 0.26995 0.78881 0.52797
 O1519 O 0.20689 0.72925 0.50064
 O1520 O 0.21157 0.73241 0.47265
 O1521 O 0.24866 0.70768 0.52125
 O1522 O 0.27824 0.71344 0.52033
 O1523 O 0.22870 0.74979 0.54312
 O1524 O 0.22949 0.77920 0.53740
 O1525 O 0.20684 0.74916 0.52054
 O1526 O 0.21299 0.77975 0.51891
 O1527 O 0.24852 0.72997 0.54335
 O1528 O 0.27878 0.73170 0.53713
 O1529 O 0.22862 0.70774 0.50159
 O1530 O 0.23408 0.71317 0.47178
 O1531 O 0.29401 0.77130 0.49895
 O1532 O 0.28773 0.77010 0.52819
 O1533 O 0.25133 0.79503 0.47934
 O1534 O 0.22159 0.78828 0.48190
 O1535 O 0.27076 0.75213 0.45599
 O1536 O 0.26705 0.72241 0.46261
 Zr1537 Zr 0.26988 0.74191 0.47990
 O1538 O 0.25552 0.72611 0.49469
 Zr1539 Zr 0.24113 0.77112 0.48004
 O1540 O 0.22535 0.75625 0.49431
 Zr1541 Zr 0.27008 0.77087 0.50902
 O1542 O 0.25534 0.75646 0.52484
 Zr1543 Zr 0.23056 0.73115 0.49051
 O1544 O 0.24484 0.74598 0.47444
 Zr1545 Zr 0.25929 0.73134 0.51978
 O1546 O 0.27528 0.74577 0.50507
 Zr1547 Zr 0.23032 0.76026 0.51943
 O1548 O 0.24507 0.77646 0.50516
 O1549 O 0.26598 0.76694 0.48405
 O1550 O 0.23432 0.73518 0.51565
 C1551 C 0.30089 0.76296 0.48735
 C1552 C 0.26215 0.76339 0.44894
 C1553 C 0.26276 0.80197 0.48781
 C1554 C 0.20005 0.73737 0.51238
 C1555 C 0.23681 0.70089 0.51327
 C1556 C 0.23676 0.73809 0.55007
 H1557 H 0.25814 0.71449 0.49199
 H1558 H 0.25796 0.75924 0.53643
 H1559 H 0.27302 0.77397 0.47699
 H1560 H 0.21378 0.75872 0.49145
 H1561 H 0.21680 0.73595 0.46220
 H1562 H 0.21519 0.76389 0.46315
 H1563 H 0.27691 0.74108 0.54472
 H1564 H 0.29329 0.75926 0.52734
 H1565 H 0.22469 0.70536 0.47220
 H1566 H 0.27577 0.72339 0.45410
 H1567 H 0.23992 0.77882 0.54367
 H1568 H 0.25892 0.79397 0.52774
 H1569 H 0.29298 0.72378 0.49220
 H1570 H 0.27738 0.70679 0.51012
 H1571 H 0.22357 0.79485 0.49202
 H1572 H 0.20528 0.77765 0.50969
 O1573 O 0.25107 0.27165 0.95635
 O1574 O 0.22302 0.26952 0.96163
 O1575 O 0.27094 0.29422 0.99987
 O1576 O 0.27156 0.28917 1.02700
 O1577 O 0.29400 0.25090 0.97925
 O1578 O 0.28782 0.22217 0.98029
 O1579 O 0.22844 0.24942 1.04341
 O1580 O 0.23163 0.27740 1.03878
 O1581 O 0.20696 0.22897 1.00132
 O1582 O 0.21273 0.23004 0.97168
 O1583 O 0.24879 0.20691 1.02141
 O1584 O 0.27810 0.21257 1.02082
 O1585 O 0.24819 0.22944 1.04346
 O1586 O 0.27868 0.23098 1.03743
 O1587 O 0.22912 0.20682 1.00140
 O1588 O 0.23091 0.21325 0.97109
 O1589 O 0.20703 0.24853 1.02151
 O1590 O 0.21251 0.27837 1.01613
 O1591 O 0.27056 0.25138 0.95619
 O1592 O 0.26922 0.22210 0.96236
 O1593 O 0.29414 0.27073 0.99917
 O1594 O 0.28733 0.26804 1.02897
 O1595 O 0.25154 0.29426 0.97956
 O1596 O 0.22188 0.28771 0.98314
 Zr1597 Zr 0.24124 0.27037 0.98032
 O1598 O 0.22541 0.25555 0.99460
 Zr1599 Zr 0.27028 0.27003 1.00931
 O1600 O 0.25537 0.25572 1.02501
 Zr1601 Zr 0.27001 0.24117 0.98015
 O1602 O 0.25556 0.22532 0.99480
 Zr1603 Zr 0.23039 0.25960 1.01968
 O1604 O 0.24525 0.27571 1.00548
 Zr1605 Zr 0.23056 0.23047 0.99074
 O1606 O 0.24502 0.24522 0.97482
 Zr1607 Zr 0.25929 0.23060 1.01995
 O1608 O 0.27552 0.24491 1.00529
 O1609 O 0.26616 0.26614 0.98434
 O1610 O 0.23432 0.23446 1.01584
 C1611 C 0.26233 0.26305 0.94929
 C1612 C 0.26278 0.30123 0.98825
 C1613 C 0.30105 0.26229 0.98770
 C1614 C 0.23648 0.23764 1.05027
 C1615 C 0.20019 0.23689 1.01323
 C1616 C 0.23717 0.20001 1.01319
 H1617 H 0.21385 0.25829 0.99194
 H1618 H 0.25830 0.21374 0.99214
 H1619 H 0.27322 0.27321 0.97734
 H1620 H 0.25782 0.25852 1.03663
 H1621 H 0.23522 0.28787 1.03358
 H1622 H 0.26305 0.28680 1.03537
 H1623 H 0.24024 0.20564 0.97294
 H1624 H 0.25846 0.22304 0.95669
 H1625 H 0.20470 0.27791 1.02551
 H1626 H 0.22291 0.29625 0.97442
 H1627 H 0.27777 0.20639 1.01030
 H1628 H 0.29295 0.22236 0.99138
 H1629 H 0.22322 0.25822 0.95701
 H1630 H 0.20616 0.24028 0.97254
 H1631 H 0.29384 0.25791 1.02699
 H1632 H 0.27662 0.24020 1.04516
 C1633 C 0.29141 0.36125 0.78971
 C1634 C 0.28679 0.37458 0.78501
 C1635 C 0.28153 0.39032 0.77973
 C1636 C 0.27717 0.40387 0.77541
 C1637 C 0.27222 0.41985 0.77058
 C1638 C 0.26815 0.43360 0.76663
 C1639 C 0.29042 -0.13939 0.28953
 C1640 C 0.28600 -0.12594 0.28498
 C1641 C 0.28097 -0.11007 0.27984
 C1642 C 0.27681 -0.09643 0.27562
 C1643 C 0.27208 -0.08036 0.27086
 C1644 C 0.26815 -0.06656 0.26694
 C1645 C 0.79030 0.86085 0.78998
 C1646 C 0.78580 0.87426 0.78537
 C1647 C 0.78070 0.89008 0.78015
 C1648 C 0.77649 0.90368 0.77586
 C1649 C 0.77171 0.91972 0.77103
 C1650 C 0.76776 0.93351 0.76707
 C1651 C 0.46048 0.89112 0.28837
 C1652 C 0.46510 0.87776 0.28374
 C1653 C 0.47027 0.86194 0.27862
 C1654 C 0.47447 0.84829 0.27450
 C1655 C 0.47913 0.83214 0.26996
 C1656 C 0.48286 0.81820 0.26635
 C1657 C -0.04052 0.89034 0.79047
 C1658 C -0.03571 0.87716 0.78554
 C1659 C -0.03034 0.86153 0.78004
 C1660 C -0.02600 0.84803 0.77560
 C1661 C -0.02121 0.83201 0.77073
 C1662 C -0.01738 0.81817 0.76687
 C1663 C -0.03972 -0.13991 -0.03935
 C1664 C -0.03530 -0.12646 -0.03478
 C1665 C -0.03031 -0.11058 -0.02962
 C1666 C -0.02618 -0.09693 -0.02539
 C1667 C -0.02150 -0.08083 -0.02062
 C1668 C -0.01762 -0.06701 -0.01672
 C1669 C -0.04103 0.36109 0.45928
 C1670 C -0.03649 0.37443 0.46405
 C1671 C -0.03135 0.39019 0.46945
 C1672 C -0.02710 0.40374 0.47388
 C1673 C -0.02227 0.41973 0.47884
 C1674 C -0.01827 0.43348 0.48288
 C1675 C 0.46118 -0.14138 0.46220
 C1676 C 0.46567 -0.12796 0.46679
 C1677 C 0.47069 -0.11207 0.47190
 C1678 C 0.47477 -0.09837 0.47602
 C1679 C 0.47930 -0.08216 0.48054
 C1680 C 0.48296 -0.06819 0.48412
 C1681 C 0.45917 0.36079 -0.04063
 C1682 C 0.46377 0.37414 -0.03592
 C1683 C 0.46896 0.38990 -0.03059
 C1684 C 0.47324 0.40346 -0.02622
 C1685 C 0.47809 0.41946 -0.02130
 C1686 C 0.48210 0.43322 -0.01730
 C1687 C 0.79033 0.39005 0.46055
 C1688 C 0.78554 0.37681 0.46538
 C1689 C 0.78020 0.36112 0.47074
 C1690 C 0.77588 0.34756 0.47505
 C1691 C 0.77110 0.33149 0.47977
 C1692 C 0.76728 0.31760 0.48350
 C1693 C 0.79071 0.89065 -0.03931
 C1694 C 0.78589 0.87742 -0.03451
 C1695 C 0.78047 0.86174 -0.02920
 C1696 C 0.77605 0.84819 -0.02494
 C1697 C 0.77116 0.83213 -0.02029
 C1698 C 0.76724 0.81826 -0.01661
 C1699 C 0.79000 0.28970 0.35966
 C1700 C 0.78515 0.28494 0.37288
 C1701 C 0.77975 0.27962 0.38856
 C1702 C 0.77540 0.27530 0.40210
 C1703 C 0.77061 0.27054 0.41815
 C1704 C 0.76680 0.26675 0.43202
 C1705 C 0.78898 0.79032 -0.14093
 C1706 C 0.78428 0.78563 -0.12762
 C1707 C 0.77904 0.78036 -0.11187
 C1708 C 0.77480 0.77609 -0.09827
 C1709 C 0.77012 0.77136 -0.08218
 C1710 C 0.76636 0.76758 -0.06829
 C1711 C 0.29083 0.45977 0.88883
 C1712 C 0.28609 0.46430 0.87548
 C1713 C 0.28074 0.46942 0.85971
 C1714 C 0.27634 0.47365 0.84615
 C1715 C 0.27140 0.47843 0.83014
 C1716 C 0.26737 0.48240 0.81638
 C1717 C 0.29059 -0.03946 0.38935
 C1718 C 0.28600 -0.03502 0.37591
 C1719 C 0.28079 -0.03002 0.36005
 C1720 C 0.27648 -0.02591 0.34642
 C1721 C 0.27162 -0.02124 0.33035
 C1722 C 0.26762 -0.01739 0.31655
 C1723 C -0.04152 -0.04140 -0.13818
 C1724 C -0.03681 -0.03681 -0.12483
 C1725 C -0.03149 -0.03160 -0.10908
 C1726 C -0.02710 -0.02728 -0.09554
 C1727 C -0.02213 -0.02237 -0.07958
 C1728 C -0.01805 -0.01831 -0.06586
 C1729 C -0.04116 0.45859 0.36128
 C1730 C -0.03638 0.46336 0.37454
 C1731 C -0.03100 0.46874 0.39021
 C1732 C -0.02658 0.47318 0.40370
 C1733 C -0.02162 0.47816 0.41964
 C1734 C -0.01758 0.48224 0.43336
 C1735 C 0.46110 -0.03918 0.35924
 C1736 C 0.46578 -0.03466 0.37262
 C1737 C 0.47099 -0.02962 0.38847
 C1738 C 0.47519 -0.02553 0.40213
 C1739 C 0.47982 -0.02098 0.41830
 C1740 C 0.48351 -0.01731 0.43224
 C1741 C 0.45814 0.45801 -0.13826
 C1742 C 0.46293 0.46277 -0.12500
 C1743 C 0.46834 0.46816 -0.10934
 C1744 C 0.47280 0.47260 -0.09586
 C1745 C 0.47782 0.47762 -0.07996
 C1746 C 0.48195 0.48175 -0.06628
 C1747 C 0.46172 0.78885 0.39131
 C1748 C 0.46629 0.78436 0.37789
 C1749 C 0.47138 0.77934 0.36202
 C1750 C 0.47549 0.77526 0.34832
 C1751 C 0.48003 0.77072 0.33213
 C1752 C 0.48364 0.76706 0.31818
 C1753 C -0.03880 0.78892 0.89114
 C1754 C -0.03416 0.78433 0.87777
 C1755 C -0.02900 0.77922 0.86195
 C1756 C -0.02483 0.77509 0.84829
 C1757 C -0.02025 0.77052 0.83213
 C1758 C -0.01660 0.76686 0.81818
 C1759 C 0.35955 0.78932 0.28895
 C1760 C 0.37286 0.78458 0.28443
 C1761 C 0.38861 0.77929 0.27939
 C1762 C 0.40220 0.77501 0.27531
 C1763 C 0.41829 0.77030 0.27077
 C1764 C 0.43216 0.76656 0.26712
 C1765 C -0.14044 0.78965 0.78929
 C1766 C -0.12717 0.78488 0.78470
 C1767 C -0.11145 0.77954 0.77957
 C1768 C -0.09789 0.77523 0.77542
 C1769 C -0.08183 0.77047 0.77082
 C1770 C -0.06798 0.76670 0.76712
 C1771 C 0.89006 0.28942 0.46010
 C1772 C 0.87689 0.28450 0.46485
 C1773 C 0.86128 0.27902 0.47013
 C1774 C 0.84778 0.27461 0.47441
 C1775 C 0.83177 0.26978 0.47914
 C1776 C 0.81794 0.26599 0.48292
 C1777 C 0.89053 0.78824 -0.03919
 C1778 C 0.87718 0.78361 -0.03467
 C1779 C 0.86137 0.77847 -0.02961
 C1780 C 0.84773 0.77435 -0.02549
 C1781 C 0.83159 0.76983 -0.02092
 C1782 C 0.81768 0.76625 -0.01725
 C1783 C -0.13863 -0.04053 -0.04075
 C1784 C -0.12532 -0.03587 -0.03610
 C1785 C -0.10961 -0.03061 -0.03083
 C1786 C -0.09609 -0.02628 -0.02648
 C1787 C -0.08014 -0.02140 -0.02157
 C1788 C -0.06643 -0.01739 -0.01754
 C1789 C -0.13858 0.45947 0.45879
 C1790 C -0.12524 0.46406 0.46341
 C1791 C -0.10950 0.46924 0.46866
 C1792 C -0.09596 0.47352 0.47300
 C1793 C -0.08001 0.47835 0.47792
 C1794 C -0.06631 0.48234 0.48198
 C1795 C 0.35943 -0.03831 0.46001
 C1796 C 0.37274 -0.03372 0.46474
 C1797 C 0.38850 -0.02865 0.47005
 C1798 C 0.40209 -0.02456 0.47439
 C1799 C 0.41817 -0.02004 0.47919
 C1800 C 0.43205 -0.01642 0.48302
 C1801 C 0.36119 0.45990 -0.04090
 C1802 C 0.37453 0.46455 -0.03631
 C1803 C 0.39027 0.46980 -0.03112
 C1804 C 0.40381 0.47412 -0.02684
 C1805 C 0.41978 0.47897 -0.02200
 C1806 C 0.43352 0.48293 -0.01801
 C1807 C 0.38770 0.45850 0.79155
 C1808 C 0.37451 0.46332 0.78676
 C1809 C 0.35892 0.46876 0.78135
 C1810 C 0.34550 0.47324 0.77690
 C1811 C 0.32965 0.47827 0.77188
 C1812 C 0.31601 0.48239 0.76775
 C1813 C 0.38911 -0.03991 0.28966
 C1814 C 0.37566 -0.03542 0.28527
 C1815 C 0.35981 -0.03035 0.28030
 C1816 C 0.34619 -0.02616 0.27619
 C1817 C 0.33015 -0.02142 0.27150
 C1818 C 0.31639 -0.01750 0.26759
 C1819 C 0.10952 0.53939 0.71156
 C1820 C 0.12281 0.53472 0.71624
 C1821 C 0.13854 0.52949 0.72143
 C1822 C 0.15213 0.52525 0.72562
 C1823 C 0.16821 0.52056 0.73021
 C1824 C 0.18209 0.51681 0.73387
 C1825 C 0.10938 0.03813 0.21167
 C1826 C 0.12276 0.03368 0.21630
 C1827 C 0.13859 0.02872 0.22146
 C1828 C 0.15224 0.02468 0.22564
 C1829 C 0.16839 0.02020 0.23025
 C1830 C 0.18230 0.01657 0.23391
 C1831 C 0.63815 0.70976 0.20969
 C1832 C 0.62487 0.71427 0.21451
 C1833 C 0.60918 0.71936 0.21996
 C1834 C 0.59569 0.72356 0.22443
 C1835 C 0.57975 0.72833 0.22943
 C1836 C 0.56605 0.73228 0.23348
 C1837 C 0.13808 0.70986 0.70991
 C1838 C 0.12477 0.71438 0.71466
 C1839 C 0.10907 0.71948 0.72004
 C1840 C 0.09556 0.72369 0.72445
 C1841 C 0.07961 0.72846 0.72941
 C1842 C 0.06590 0.73241 0.73343
 C1843 C 0.61149 0.20946 0.53977
 C1844 C 0.62487 0.21399 0.53525
 C1845 C 0.64066 0.21912 0.53014
 C1846 C 0.65424 0.22336 0.52592
 C1847 C 0.67023 0.22817 0.52115
 C1848 C 0.68396 0.23216 0.51721
 C1849 C 0.61152 0.70978 0.04052
 C1850 C 0.62480 0.71441 0.03580
 C1851 C 0.64049 0.71965 0.03046
 C1852 C 0.65398 0.72397 0.02606
 C1853 C 0.66989 0.72887 0.02111
 C1854 C 0.68358 0.73291 0.01704
 C1855 C 0.14041 0.03880 0.03835
 C1856 C 0.12705 0.03422 0.03379
 C1857 C 0.11123 0.02908 0.02872
 C1858 C 0.09759 0.02492 0.02463
 C1859 C 0.08146 0.02030 0.02012
 C1860 C 0.06755 0.01660 0.01651
 C1861 C 0.14028 0.53936 0.53821
 C1862 C 0.12698 0.53468 0.53356
 C1863 C 0.11123 0.52946 0.52839
 C1864 C 0.09763 0.52522 0.52422
 C1865 C 0.08154 0.52054 0.51963
 C1866 C 0.06765 0.51679 0.51598
 C1867 C 0.63812 0.04128 0.54043
 C1868 C 0.62480 0.03660 0.53587
 C1869 C 0.60907 0.03126 0.53073
 C1870 C 0.59555 0.02684 0.52650
 C1871 C 0.57961 0.02182 0.52171
 C1872 C 0.56592 0.01770 0.51773
 C1873 C 0.64028 0.53905 0.03819
 C1874 C 0.62695 0.53438 0.03362
 C1875 C 0.61116 0.52917 0.02853
 C1876 C 0.59754 0.52495 0.02441
 C1877 C 0.58143 0.52030 0.01986
 C1878 C 0.56753 0.51659 0.01621
 C1879 C 0.03912 0.03783 0.14139
 C1880 C 0.03458 0.03324 0.12798
 C1881 C 0.02949 0.02812 0.11212
 C1882 C 0.02533 0.02400 0.09844
 C1883 C 0.02070 0.01945 0.08227
 C1884 C 0.01696 0.01581 0.06834
 C1885 C 0.03898 0.53883 0.64049
 C1886 C 0.03439 0.53406 0.62717
 C1887 C 0.02927 0.52875 0.61139
 C1888 C 0.02510 0.52448 0.59776
 C1889 C 0.02049 0.51980 0.58162
 C1890 C 0.01677 0.51611 0.56770
 C1891 C 0.54057 0.04005 0.63905
 C1892 C 0.53604 0.03539 0.62566
 C1893 C 0.53089 0.03012 0.60986
 C1894 C 0.52663 0.02578 0.59628
 C1895 C 0.52180 0.02089 0.58027
 C1896 C 0.51781 0.01687 0.56650
 C1897 C 0.53913 0.53881 0.14064
 C1898 C 0.53452 0.53404 0.12732
 C1899 C 0.52939 0.52873 0.11154
 C1900 C 0.52522 0.52444 0.09792
 C1901 C 0.52059 0.51973 0.08180
 C1902 C 0.51686 0.51600 0.06789
 C1903 C 0.21080 0.53894 0.60927
 C1904 C 0.21537 0.53418 0.62260
 C1905 C 0.22047 0.52889 0.63840
 C1906 C 0.22461 0.52463 0.65203
 C1907 C 0.22921 0.51997 0.66817
 C1908 C 0.23291 0.51628 0.68210
 C1909 C 0.21116 0.03817 0.10913
 C1910 C 0.21570 0.03345 0.12249
 C1911 C 0.22076 0.02822 0.13831
 C1912 C 0.22487 0.02401 0.15197
 C1913 C 0.22944 0.01941 0.16813
 C1914 C 0.23313 0.01578 0.18208
 C1915 C 0.70995 0.21082 0.63918
 C1916 C 0.71436 0.21533 0.62572
 C1917 C 0.71937 0.22042 0.60983
 C1918 C 0.72351 0.22460 0.59618
 C1919 C 0.72822 0.22931 0.58009
 C1920 C 0.73214 0.23317 0.56627
 C1921 C 0.70836 0.71051 0.13820
 C1922 C 0.71296 0.71519 0.12485
 C1923 C 0.71821 0.72045 0.10910
 C1924 C 0.72255 0.72476 0.09555
 C1925 C 0.72748 0.72960 0.07957
 C1926 C 0.73155 0.73357 0.06582
 C1927 C 0.54082 0.71004 0.11148
 C1928 C 0.53614 0.71467 0.12482
 C1929 C 0.53084 0.71988 0.14056
 C1930 C 0.52647 0.72416 0.15411
 C1931 C 0.52153 0.72897 0.17010
 C1932 C 0.51748 0.73292 0.18385
 C1933 C 0.04081 0.71041 0.61141
 C1934 C 0.03613 0.71507 0.62473
 C1935 C 0.03082 0.72031 0.64047
 C1936 C 0.02643 0.72459 0.65401
 C1937 C 0.02147 0.72940 0.66999
 C1938 C 0.01740 0.73333 0.68375
 C1939 C 0.54007 0.61112 0.21017
 C1940 C 0.53555 0.62457 0.21464
 C1941 C 0.53043 0.64042 0.21970
 C1942 C 0.52619 0.65404 0.22390
 C1943 C 0.52140 0.67009 0.22867
 C1944 C 0.51743 0.68386 0.23264
 C1945 C 0.03985 0.61128 0.70987
 C1946 C 0.03532 0.62473 0.71430
 C1947 C 0.03019 0.64060 0.71934
 C1948 C 0.02595 0.65422 0.72352
 C1949 C 0.02115 0.67027 0.72829
 C1950 C 0.01719 0.68403 0.73228
 C1951 C 0.03891 0.14034 0.03922
 C1952 C 0.03414 0.12701 0.03465
 C1953 C 0.02882 0.11122 0.02957
 C1954 C 0.02452 0.09758 0.02544
 C1955 C 0.01982 0.08144 0.02087
 C1956 C 0.01610 0.06751 0.01719
 C1957 C 0.03961 0.64016 0.53979
 C1958 C 0.03478 0.62691 0.53503
 C1959 C 0.02940 0.61121 0.52973
 C1960 C 0.02505 0.59765 0.52543
 C1961 C 0.02026 0.58158 0.52068
 C1962 C 0.01645 0.56771 0.51689
 C1963 C 0.54021 0.13904 0.53967
 C1964 C 0.53553 0.12565 0.53518
 C1965 C 0.53025 0.10984 0.53012
 C1966 C 0.52592 0.09623 0.52597
 C1967 C 0.52106 0.08018 0.52127
 C1968 C 0.51709 0.06637 0.51739
 C1969 C 0.53957 0.63999 0.03970
 C1970 C 0.53471 0.62676 0.03493
 C1971 C 0.52929 0.61107 0.02963
 C1972 C 0.52491 0.59751 0.02534
 C1973 C 0.52011 0.58145 0.02062
 C1974 C 0.51631 0.56756 0.01684
 C1975 C 0.70901 0.11110 0.54058
 C1976 C 0.71377 0.12441 0.53595
 C1977 C 0.71915 0.14013 0.53071
 C1978 C 0.72358 0.15366 0.52638
 C1979 C 0.72856 0.16963 0.52149
 C1980 C 0.73263 0.18336 0.51747
 C1981 C 0.70994 0.61103 0.03910
 C1982 C 0.71439 0.62449 0.03461
 C1983 C 0.71942 0.64038 0.02954
 C1984 C 0.72358 0.65404 0.02535
 C1985 C 0.72830 0.67013 0.02062
 C1986 C 0.73221 0.68395 0.01673
 C1987 C 0.21003 0.64027 0.71038
 C1988 C 0.21487 0.62702 0.71510
 C1989 C 0.22026 0.61132 0.72036
 C1990 C 0.22462 0.59776 0.72461
 C1991 C 0.22942 0.58169 0.72931
 C1992 C 0.23325 0.56782 0.73305
 C1993 C 0.21159 0.14052 0.21038
 C1994 C 0.21620 0.12716 0.21501
 C1995 C 0.22133 0.11135 0.22020
 C1996 C 0.22547 0.09770 0.22442
 C1997 C 0.23004 0.08156 0.22909
 C1998 C 0.23371 0.06765 0.23284
 C1999 C 0.71148 1.14076 0.71092
 C2000 C 0.71610 1.12741 0.71554
 C2001 C 0.72124 1.11159 0.72071
 C2002 C 0.72538 1.09794 0.72491
 C2003 C 0.72995 1.08179 0.72954
 C2004 C 0.73360 1.06786 0.73326
 C2005 C 0.71028 0.64035 0.20987
 C2006 C 0.71518 0.62713 0.21459
 C2007 C 0.72064 0.61146 0.21986
 C2008 C 0.72504 0.59791 0.22413
 C2009 C 0.72989 0.58186 0.22884
 C2010 C 0.73374 0.56800 0.23260
 C2011 C 0.53909 0.10904 0.70973
 C2012 C 0.53434 0.12231 0.71449
 C2013 C 0.52906 0.13802 0.71984
 C2014 C 0.52481 0.15159 0.72419
 C2015 C 0.52012 0.16766 0.72901
 C2016 C 0.51640 0.18153 0.73287
 C2017 C 1.03841 0.10863 0.21125
 C2018 C 1.03384 0.12205 0.21575
 C2019 C 1.02876 0.13793 0.22078
 C2020 C 1.02466 0.15162 0.22487
 C2021 C 1.02015 0.16782 0.22941
 C2022 C 1.01656 0.18179 0.23306
 C2023 C 0.20981 0.61147 0.54002
 C2024 C 0.21429 0.62497 0.53563
 C2025 C 0.21936 0.64087 0.53065
 C2026 C 0.22356 0.65453 0.52652
 C2027 C 0.22832 0.67061 0.52180
 C2028 C 0.23226 0.68440 0.51786
 C2029 C 0.21041 0.11044 1.03962
 C2030 C 0.21490 0.12392 1.03522
 C2031 C 0.21997 0.13983 1.03025
 C2032 C 0.22415 0.15350 1.02614
 C2033 C 0.22886 0.16962 1.02149
 C2034 C 0.23273 0.18346 1.01763
 C2035 C 0.20872 0.71060 0.63887
 C2036 C 0.21339 0.71528 0.62555
 C2037 C 0.21871 0.72053 0.60982
 C2038 C 0.22310 0.72483 0.59628
 C2039 C 0.22806 0.72966 0.58030
 C2040 C 0.23213 0.73361 0.56655
 C2041 C 0.20988 0.21047 1.13962
 C2042 C 0.21428 0.21503 1.12617
 C2043 C 0.21926 0.22019 1.11030
 C2044 C 0.22338 0.22444 1.09666
 C2045 C 0.22807 0.22923 1.08058
 C2046 C 0.23196 0.23316 1.06678
 C2047 C 0.71116 0.53897 0.10888
 C2048 C 0.71578 0.53426 0.12221
 C2049 C 0.72093 0.52902 0.13801
 C2050 C 0.72510 0.52479 0.15164
 C2051 C 0.72972 0.52015 0.16779
 C2052 C 0.73343 0.51646 0.18171
 C2053 C 0.71015 1.03974 0.60999
 C2054 C 0.71494 1.03484 0.62320
 C2055 C 0.72025 1.02938 0.63886
 C2056 C 0.72453 1.02497 0.65241
 C2057 C 0.72925 1.02015 0.66847
 C2058 C 0.73302 1.01635 0.68234
 C2059 C 0.53967 0.21102 0.60942
 C2060 C 0.53496 0.21574 0.62271
 C2061 C 0.52970 0.22096 0.63846
 C2062 C 0.52544 0.22515 0.65206
 C2063 C 0.52072 0.22974 0.66818
 C2064 C 0.51695 0.23337 0.68210
 C2065 C 1.03973 0.21116 0.10904
 C2066 C 1.03510 0.21582 0.12237
 C2067 C 1.02992 0.22101 0.13816
 C2068 C 1.02571 0.22520 0.15179
 C2069 C 1.02106 0.22980 0.16793
 C2070 C 1.01733 0.23347 0.18184
 C2071 C 0.64046 0.21115 0.71119
 C2072 C 0.62712 0.21562 0.71588
 C2073 C 0.61133 0.22059 0.72112
 C2074 C 0.59770 0.22461 0.72535
 C2075 C 0.58159 0.22907 0.73002
 C2076 C 0.56769 0.23265 0.73374
 C2077 C 1.14077 0.21112 0.21086
 C2078 C 1.12746 0.21563 0.21558
 C2079 C 1.11169 0.22065 0.22083
 C2080 C 1.09808 0.22472 0.22507
 C2081 C 1.08198 0.22924 0.22974
 C2082 C 1.06809 0.23287 0.23346
 C2083 C 0.11146 0.71000 0.54038
 C2084 C 0.12475 0.71457 0.53564
 C2085 C 0.14045 0.71974 0.53028
 C2086 C 0.15396 0.72399 0.52587
 C2087 C 0.16991 0.72881 0.52093
 C2088 C 0.18362 0.73279 0.51690
 C2089 C 0.11115 0.20978 1.04011
 C2090 C 0.12457 0.21423 1.03562
 C2091 C 0.14040 0.21929 1.03055
 C2092 C 0.15400 0.22349 1.02637
 C2093 C 0.17002 0.22829 1.02164
 C2094 C 0.18376 0.23227 1.01773
 C2095 C 0.60987 0.53938 0.21147
 C2096 C 0.62319 0.53474 0.21608
 C2097 C 0.63896 0.52955 0.22120
 C2098 C 0.65257 0.52534 0.22533
 C2099 C 0.66868 0.52069 0.22987
 C2100 C 0.68257 0.51697 0.23350
 C2101 C 0.60983 1.03935 0.71044
 C2102 C 0.62307 1.03473 0.71529
 C2103 C 0.63875 1.02956 0.72071
 C2104 C 0.65229 1.02536 0.72509
 C2105 C 0.66832 1.02070 0.72991
 C2106 C 0.68216 1.01695 0.73373
 C2107 C 0.88826 0.45892 0.29122
 C2108 C 0.87505 0.46369 0.28645
 C2109 C 0.85944 0.46909 0.28105
 C2110 C 0.84600 0.47353 0.27660
 C2111 C 0.83014 0.47853 0.27157
 C2112 C 0.81650 0.48262 0.26743
 C2113 C 0.88796 0.95922 0.79171
 C2114 C 0.87466 0.96386 0.78703
 C2115 C 0.85898 0.96911 0.78171
 C2116 C 0.84548 0.97343 0.77732
 C2117 C 0.82958 0.97832 0.77234
 C2118 C 0.81590 0.98235 0.76822
 C2119 C 0.36166 0.28979 0.79061
 C2120 C 0.37494 0.28496 0.78611
 C2121 C 0.39063 0.27950 0.78103
 C2122 C 0.40413 0.27502 0.77683
 C2123 C 0.42006 0.27002 0.77207
 C2124 C 0.43377 0.26598 0.76811
 C2125 C 0.86205 0.29011 0.29021
 C2126 C 0.87535 0.28534 0.28571
 C2127 C 0.89106 0.27995 0.28063
 C2128 C 0.90457 0.27553 0.27644
 C2129 C 0.92052 0.27058 0.27168
 C2130 C 0.93423 0.26655 0.26774
 C2131 C 0.39067 0.78868 0.46174
 C2132 C 0.37725 0.78417 0.46619
 C2133 C 0.36138 0.77915 0.47116
 C2134 C 0.34770 0.77508 0.47521
 C2135 C 0.33153 0.77058 0.47971
 C2136 C 0.31761 0.76697 0.48332
 C2137 C 0.38989 0.28951 0.96062
 C2138 C 0.37670 0.28468 0.96541
 C2139 C 0.36107 0.27929 0.97073
 C2140 C 0.34755 0.27495 0.97503
 C2141 C 0.33154 0.27018 0.97976
 C2142 C 0.31770 0.26640 0.98354
 C2143 C 0.79113 0.45979 0.38846
 C2144 C 0.78641 0.46437 0.37511
 C2145 C 0.78110 0.46955 0.35935
 C2146 C 0.77673 0.47382 0.34579
 C2147 C 0.77182 0.47864 0.32979
 C2148 C 0.76781 0.48262 0.31603
 C2149 C 0.79089 0.95966 0.88903
 C2150 C 0.78609 0.96423 0.87571
 C2151 C 0.78064 0.96938 0.85999
 C2152 C 0.77617 0.97362 0.84645
 C2153 C 0.77116 0.97842 0.83047
 C2154 C 0.76710 0.98238 0.81672
 C2155 C 0.28849 0.78976 0.35935
 C2156 C 0.28381 0.78514 0.37269
 C2157 C 0.27861 0.77998 0.38848
 C2158 C 0.27442 0.77580 0.40212
 C2159 C 0.26982 0.77118 0.41827
 C2160 C 0.26615 0.76748 0.43220
 C2161 C 0.28970 0.28985 0.86016
 C2162 C 0.28484 0.28517 0.87341
 C2163 C 0.27944 0.27994 0.88911
 C2164 C 0.27508 0.27569 0.90267
 C2165 C 0.27029 0.27099 0.91874
 C2166 C 0.26649 0.26722 0.93261
 C2167 C 0.45948 0.29060 0.88870
 C2168 C 0.46407 0.28586 0.87537
 C2169 C 0.46924 0.28049 0.85964
 C2170 C 0.47351 0.27605 0.84611
 C2171 C 0.47835 0.27104 0.83015
 C2172 C 0.48235 0.26694 0.81643
 C2173 C 0.95980 0.29118 0.38832
 C2174 C 0.96444 0.28651 0.37499
 C2175 C 0.96968 0.28120 0.35926
 C2176 C 0.97399 0.27679 0.34573
 C2177 C 0.97885 0.27179 0.32978
 C2178 C 0.98286 0.26767 0.31607
 C2179 C 0.45845 0.38758 0.79137
 C2180 C 0.46324 0.37435 0.78656
 C2181 C 0.46866 0.35871 0.78115
 C2182 C 0.47311 0.34524 0.77671
 C2183 C 0.47813 0.32933 0.77173
 C2184 C 0.48224 0.31563 0.76766
 C2185 C 0.95912 0.38812 0.29091
 C2186 C 0.96390 0.37489 0.28608
 C2187 C 0.96929 0.35926 0.28064
 C2188 C 0.97372 0.34579 0.27618
 C2189 C 0.97871 0.32987 0.27119
 C2190 C 0.98279 0.31616 0.26713
 C2191 C 0.28931 0.89137 0.46086
 C2192 C 0.28467 0.87807 0.46564
 C2193 C 0.27950 0.86231 0.47096
 C2194 C 0.27531 0.84870 0.47526
 C2195 C 0.27067 0.83259 0.47999
 C2196 C 0.26693 0.81869 0.48373
 C2197 C 0.29021 0.39032 0.96120
 C2198 C 0.28541 0.37710 0.96606
 C2199 C 0.28004 0.36143 0.97145
 C2200 C 0.27568 0.34789 0.97578
 C2201 C 0.27086 0.33182 0.98050
 C2202 C 0.26701 0.31794 0.98422
 C2203 C 0.79168 0.36142 0.28949
 C2204 C 0.78708 0.37476 0.28480
 C2205 C 0.78185 0.39051 0.27951
 C2206 C 0.77753 0.40406 0.27517
 C2207 C 0.77263 0.42005 0.27031
 C2208 C 0.76859 0.43380 0.26633
   
