data_POSCAR
  _audit_creation_date              2014-09-24
  _audit_creation_method            'ToBaCCo'
  _symmetry_space_group_name_H-M    'P1'
  _symmetry_Int_Tables_number       1
  _symmetry_cell_setting            triclinic
  loop_
  _symmetry_equiv_pos_as_xyz
 x,y,z
_cell_length_a 77.1054
_cell_length_b 73.1098
_cell_length_c 74.7352
_cell_angle_alpha 90.206800
_cell_angle_beta 89.579100
_cell_angle_gamma 89.927500
loop_
  _atom_site_label
  _atom_site_type_symbol
  _atom_site_fract_x
  _atom_site_fract_y
  _atom_site_fract_z
C1 C 0.35091 0.33900 0.32101
 C2 C 0.36782 0.33421 0.31571
 C3 C 0.37620 0.31898 0.32325
 C4 C 0.36754 0.30886 0.33658
 C5 C 0.35076 0.31366 0.34221
 C6 C 0.34231 0.32865 0.33426
 C7 C 0.34242 0.35391 0.31316
 C8 C 0.32529 0.35846 0.31811
 C9 C 0.31681 0.34798 0.33130
 C10 C 0.32525 0.33324 0.33950
 C11 C 0.31685 0.32296 0.35280
 C12 C 0.32532 0.30823 0.36113
 C13 C 0.34227 0.30362 0.35562
 H14 H 0.37445 0.34233 0.30567
 H15 H 0.37369 0.29693 0.34232
 H16 H 0.34921 0.36202 0.30324
 H17 H 0.30353 0.35112 0.33504
 H18 H 0.30365 0.32640 0.35661
 H19 H 0.34901 0.29242 0.36201
 C20 C 0.35428 0.85441 -0.15556
 C21 C 0.36876 0.84599 -0.16356
 C22 C 0.37716 0.83092 -0.15545
 C23 C 0.37058 0.82473 -0.13880
 C24 C 0.35596 0.83286 -0.13081
 C25 C 0.34781 0.84776 -0.13922
 C26 C 0.34605 0.86927 -0.16387
 C27 C 0.33115 0.87762 -0.15621
 C28 C 0.32480 0.87048 -0.13988
 C29 C 0.33304 0.85586 -0.13139
 C30 C 0.32640 0.84897 -0.11529
 C31 C 0.33438 0.83412 -0.10679
 C32 C 0.34924 0.82616 -0.11458
 H33 H 0.37273 0.85078 -0.17663
 H34 H 0.37697 0.81386 -0.13160
 H35 H 0.35184 0.87459 -0.17601
 H36 H 0.31293 0.87563 -0.13391
 H37 H 0.31474 0.85495 -0.10955
 H38 H 0.35548 0.81472 -0.10806
 C39 C 0.84722 0.34302 -0.18913
 C40 C 0.86192 0.33581 -0.19770
 C41 C 0.87160 0.32142 -0.19008
 C42 C 0.86645 0.31515 -0.17296
 C43 C 0.85208 0.32282 -0.16399
 C44 C 0.84229 0.33668 -0.17218
 C45 C 0.83732 0.35640 -0.19757
 C46 C 0.82179 0.36319 -0.18989
 C47 C 0.81741 0.35733 -0.17235
 C48 C 0.82759 0.34415 -0.16347
 C49 C 0.82318 0.33805 -0.14617
 C50 C 0.83307 0.32433 -0.13772
 C51 C 0.84724 0.31657 -0.14701
 H52 H 0.86587 0.34189 -0.21025
 H53 H 0.87306 0.30383 -0.16670
 H54 H 0.84206 0.36163 -0.21022
 H55 H 0.80567 0.36213 -0.16584
 H56 H 0.81220 0.34414 -0.13926
 H57 H 0.85454 0.30550 -0.14108
 C58 C 0.84901 0.85124 0.32713
 C59 C 0.86596 0.84625 0.32227
 C60 C 0.87546 0.83386 0.33265
 C61 C 0.86794 0.82705 0.34849
 C62 C 0.85090 0.83181 0.35339
 C63 C 0.84132 0.84392 0.34263
 C64 C 0.83948 0.86291 0.31621
 C65 C 0.82202 0.86734 0.32009
 C66 C 0.81451 0.86019 0.33597
 C67 C 0.82397 0.84832 0.34711
 C68 C 0.81619 0.84006 0.36219
 C69 C 0.82556 0.82749 0.37265
 C70 C 0.84305 0.82395 0.36841
 H71 H 0.87141 0.85133 0.30984
 H72 H 0.87518 0.81763 0.35676
 H73 H 0.84607 0.86890 0.30481
 H74 H 0.80105 0.86292 0.33923
 H75 H 0.80269 0.84281 0.36533
 H76 H 0.85047 0.81459 0.37659
 C77 C 0.65684 0.67300 0.32392
 C78 C 0.64146 0.67745 0.31498
 C79 C 0.63092 0.69206 0.32093
 C80 C 0.63587 0.70195 0.33629
 C81 C 0.65101 0.69745 0.34557
 C82 C 0.66163 0.68307 0.33924
 C83 C 0.66757 0.65870 0.31776
 C84 C 0.68307 0.65442 0.32669
 C85 C 0.68766 0.66456 0.34193
 C86 C 0.67710 0.67880 0.34822
 C87 C 0.68182 0.68878 0.36341
 C88 C 0.67111 0.70281 0.37019
 C89 C 0.65573 0.70714 0.36107
 H90 H 0.63769 0.66945 0.30342
 H91 H 0.62815 0.71345 0.34088
 H92 H 0.66399 0.65109 0.30588
 H93 H 0.69935 0.66114 0.34916
 H94 H 0.69400 0.68567 0.36986
 H95 H 0.64728 0.71783 0.36616
 C96 C 0.65563 0.17936 -0.18630
 C97 C 0.64120 0.18816 -0.19382
 C98 C 0.63427 0.20411 -0.18591
 C99 C 0.64183 0.21113 -0.17031
 C100 C 0.65623 0.20256 -0.16273
 C101 C 0.66320 0.18665 -0.17074
 C102 C 0.66267 0.16350 -0.19420
 C103 C 0.67716 0.15443 -0.18669
 C104 C 0.68444 0.16208 -0.17098
 C105 C 0.67774 0.17809 -0.16318
 C106 C 0.68545 0.18570 -0.14789
 C107 C 0.67863 0.20164 -0.13986
 C108 C 0.66378 0.20974 -0.14726
 H109 H 0.63544 0.18272 -0.20590
 H110 H 0.63637 0.22322 -0.16398
 H111 H 0.65703 0.15879 -0.20658
 H112 H 0.69494 0.15536 -0.16411
 H113 H 0.69703 0.17942 -0.14253
 H114 H 0.65803 0.22170 -0.14099
 C115 C 0.14806 0.64792 -0.17030
 C116 C 0.13407 0.65731 -0.17799
 C117 C 0.12585 0.67183 -0.16881
 C118 C 0.13150 0.67648 -0.15150
 C119 C 0.14558 0.66740 -0.14375
 C120 C 0.15396 0.65316 -0.15325
 C121 C 0.15638 0.63354 -0.17952
 C122 C 0.17097 0.62446 -0.17223
 C123 C 0.17688 0.63043 -0.15531
 C124 C 0.16840 0.64436 -0.14579
 C125 C 0.17447 0.64984 -0.12899
 C126 C 0.16616 0.66388 -0.11933
 C127 C 0.15164 0.67258 -0.12679
 H128 H 0.13000 0.65369 -0.19138
 H129 H 0.12504 0.68730 -0.14408
 H130 H 0.15094 0.62926 -0.19214
 H131 H 0.18858 0.62491 -0.14955
 H132 H 0.18592 0.64335 -0.12356
 H133 H 0.14511 0.68342 -0.11944
 C134 C 0.13084 0.13888 0.32474
 C135 C 0.11566 0.14514 0.31651
 C136 C 0.10769 0.16176 0.32175
 C137 C 0.11548 0.17187 0.33571
 C138 C 0.13088 0.16592 0.34374
 C139 C 0.13860 0.14935 0.33826
 C140 C 0.13851 0.12243 0.31921
 C141 C 0.15376 0.11564 0.32727
 C142 C 0.16153 0.12656 0.34076
 C143 C 0.15416 0.14337 0.34614
 C144 C 0.16219 0.15442 0.35915
 C145 C 0.15473 0.17123 0.36448
 C146 C 0.13879 0.17651 0.35700
 H147 H 0.11066 0.13726 0.30542
 H148 H 0.10951 0.18426 0.34078
 H149 H 0.13270 0.11541 0.30800
 H150 H 0.17299 0.12194 0.34766
 H151 H 0.17448 0.15015 0.36470
 H152 H 0.13256 0.18907 0.36136
 C153 C 0.64359 0.33373 0.66366
 C154 C 0.62922 0.32350 0.66942
 C155 C 0.62340 0.30846 0.65937
 C156 C 0.63182 0.30393 0.64327
 C157 C 0.64591 0.31431 0.63715
 C158 C 0.65198 0.32915 0.64744
 C159 C 0.64979 0.34833 0.67398
 C160 C 0.66469 0.35814 0.66871
 C161 C 0.67284 0.35362 0.65230
 C162 C 0.66645 0.33935 0.64154
 C163 C 0.67431 0.33501 0.62500
 C164 C 0.66796 0.32052 0.61443
 C165 C 0.65397 0.31006 0.62086
 H166 H 0.62278 0.32696 0.68193
 H167 H 0.62719 0.29249 0.63537
 H168 H 0.64296 0.35198 0.68620
 H169 H 0.68437 0.36089 0.64804
 H170 H 0.68515 0.34311 0.62024
 H171 H 0.64936 0.29846 0.61318
 C172 C 0.63572 0.84418 1.15994
 C173 C 0.62262 0.83467 1.16903
 C174 C 0.61595 0.81797 1.16240
 C175 C 0.62342 0.81082 1.14645
 C176 C 0.63678 0.82012 1.13737
 C177 C 0.64283 0.83695 1.14404
 C178 C 0.64193 0.86077 1.16673
 C179 C 0.65507 0.87045 1.15775
 C180 C 0.66207 0.86324 1.14178
 C181 C 0.65607 0.84652 1.13489
 C182 C 0.66314 0.83917 1.11906
 C183 C 0.65736 0.82224 1.11235
 C184 C 0.64416 0.81283 1.12167
 H185 H 0.61821 0.84020 1.18171
 H186 H 0.61851 0.79838 1.14049
 H187 H 0.63670 0.86604 1.17923
 H188 H 0.67216 0.87066 1.13471
 H189 H 0.67306 0.84674 1.11191
 H190 H 0.63979 0.79962 1.11690
 C191 C 0.15243 0.33991 1.17324
 C192 C 0.13550 0.33546 1.17840
 C193 C 0.12576 0.32224 1.16901
 C194 C 0.13385 0.31307 1.15445
 C195 C 0.15091 0.31742 1.14913
 C196 C 0.16014 0.33102 1.15849
 C197 C 0.16176 0.35314 1.18276
 C198 C 0.17854 0.35836 1.17732
 C199 C 0.18611 0.34949 1.16241
 C200 C 0.17714 0.33570 1.15319
 C201 C 0.18496 0.32650 1.13878
 C202 C 0.17600 0.31281 1.12930
 C203 C 0.15888 0.30846 1.13453
 H204 H 0.13024 0.34201 1.19027
 H205 H 0.12676 0.30307 1.14669
 H206 H 0.15586 0.35929 1.19453
 H207 H 0.19889 0.35344 1.15776
 H208 H 0.19825 0.32976 1.13523
 H209 H 0.15171 0.29818 1.12719
 C210 C 0.15065 0.85042 0.67238
 C211 C 0.13582 0.84300 0.68035
 C212 C 0.12895 0.82605 0.67467
 C213 C 0.13660 0.81760 0.65944
 C214 C 0.15117 0.82533 0.65087
 C215 C 0.15839 0.84163 0.65762
 C216 C 0.15833 0.86606 0.67966
 C217 C 0.17440 0.87240 0.67321
 C218 C 0.18162 0.86418 0.65782
 C219 C 0.17360 0.84894 0.64990
 C220 C 0.18098 0.84044 0.63486
 C221 C 0.17396 0.82413 0.62789
 C222 C 0.15909 0.81661 0.63614
 H223 H 0.12975 0.85067 0.69110
 H224 H 0.13202 0.80448 0.65470
 H225 H 0.15221 0.87273 0.69104
 H226 H 0.19395 0.86892 0.65258
 H227 H 0.19224 0.84664 0.62863
 H228 H 0.15383 0.80378 0.63136
 C229 C 0.34611 0.65806 0.69615
 C230 C 0.36062 0.66615 0.70422
 C231 C 0.36806 0.68225 0.69717
 C232 C 0.36069 0.69013 0.68180
 C233 C 0.34648 0.68199 0.67333
 C234 C 0.33923 0.66588 0.68048
 C235 C 0.33808 0.64255 0.70367
 C236 C 0.32331 0.63481 0.69562
 C237 C 0.31724 0.64217 0.67951
 C238 C 0.32488 0.65772 0.67210
 C239 C 0.31797 0.66553 0.65667
 C240 C 0.32474 0.68186 0.64972
 C241 C 0.33915 0.68996 0.65804
 H242 H 0.36614 0.65981 0.71596
 H243 H 0.36580 0.70283 0.67652
 H244 H 0.34292 0.63695 0.71607
 H245 H 0.30624 0.63597 0.67288
 H246 H 0.30709 0.65896 0.65017
 H247 H 0.34440 0.70264 0.65287
 C248 C 0.34199 0.14169 1.19173
 C249 C 0.35686 0.14865 1.20009
 C250 C 0.36600 0.16374 1.19289
 C251 C 0.35940 0.17204 1.17726
 C252 C 0.34453 0.16532 1.16882
 C253 C 0.33600 0.14991 1.17592
 C254 C 0.33289 0.12681 1.19912
 C255 C 0.31778 0.11982 1.19087
 C256 C 0.31268 0.12772 1.17447
 C257 C 0.32134 0.14283 1.16728
 C258 C 0.31519 0.15119 1.15172
 C259 C 0.32295 0.16721 1.14505
 C260 C 0.33784 0.17403 1.15359
 H261 H 0.36163 0.14164 1.21181
 H262 H 0.36535 0.18427 1.17189
 H263 H 0.33722 0.12148 1.21181
 H264 H 0.30202 0.12209 1.16692
 H265 H 0.30408 0.14536 1.14500
 H266 H 0.34397 0.18639 1.14871
 C267 C 0.83739 0.66282 1.17807
 C268 C 0.85229 0.67095 1.18527
 C269 C 0.86063 0.68560 1.17650
 C270 C 0.85363 0.69214 1.16031
 C271 C 0.83847 0.68448 1.15315
 C272 C 0.83051 0.66962 1.16199
 C273 C 0.82891 0.64841 1.18705
 C274 C 0.81353 0.64057 1.18015
 C275 C 0.80738 0.64719 1.16365
 C276 C 0.81544 0.66174 1.15489
 C277 C 0.80813 0.66888 1.13937
 C278 C 0.81524 0.68434 1.13104
 C279 C 0.83078 0.69178 1.13764
 H280 H 0.85713 0.66610 1.19797
 H281 H 0.85990 0.70323 1.15323
 H282 H 0.83395 0.64408 1.19983
 H283 H 0.79634 0.64091 1.15722
 H284 H 0.79643 0.66277 1.13406
 H285 H 0.83642 0.70366 1.13121
 C286 C 0.85837 0.16281 0.66179
 C287 C 0.87142 0.17241 0.67091
 C288 C 0.88039 0.18679 0.66248
 C289 C 0.87627 0.19141 0.64479
 C290 C 0.86330 0.18201 0.63557
 C291 C 0.85438 0.16756 0.64401
 C292 C 0.84892 0.14890 0.67033
 C293 C 0.83564 0.13951 0.66128
 C294 C 0.83216 0.14404 0.64335
 C295 C 0.84123 0.15815 0.63477
 C296 C 0.83697 0.16340 0.61728
 C297 C 0.84542 0.17824 0.60902
 C298 C 0.85877 0.18725 0.61823
 H299 H 0.87434 0.16895 0.68465
 H300 H 0.88323 0.20235 0.63814
 H301 H 0.85159 0.14581 0.68421
 H302 H 0.82221 0.13672 0.63609
 H303 H 0.82681 0.15617 0.61024
 H304 H 0.86517 0.19893 0.61222
 C305 C 0.34031 0.34586 0.66669
 C306 C 0.33068 0.35912 0.67586
 C307 C 0.31436 0.36480 0.66967
 C308 C 0.30741 0.35615 0.65440
 C309 C 0.31671 0.34225 0.64542
 C310 C 0.33337 0.33733 0.65143
 C311 C 0.35674 0.34087 0.67279
 C312 C 0.36657 0.32749 0.66381
 C313 C 0.35962 0.31892 0.64856
 C314 C 0.34302 0.32370 0.64238
 C315 C 0.33578 0.31484 0.62754
 C316 C 0.31883 0.31901 0.62183
 C317 C 0.30951 0.33299 0.63073
 H318 H 0.33596 0.36488 0.68803
 H319 H 0.29487 0.36028 0.64938
 H320 H 0.36179 0.34722 0.68481
 H321 H 0.36709 0.30851 0.64158
 H322 H 0.34334 0.30452 0.62054
 H323 H 0.29643 0.33628 0.62667
 C324 C 0.35566 0.85841 0.16362
 C325 C 0.34804 0.87378 0.17189
 C326 C 0.33270 0.88147 0.16510
 C327 C 0.32527 0.87386 0.14968
 C328 C 0.33277 0.85862 0.14125
 C329 C 0.34792 0.85073 0.14831
 C330 C 0.37071 0.85042 0.17059
 C331 C 0.37789 0.83448 0.16282
 C332 C 0.36998 0.82693 0.14755
 C333 C 0.35518 0.83501 0.14016
 C334 C 0.34737 0.82750 0.12488
 C335 C 0.33239 0.83551 0.11766
 C336 C 0.32513 0.85099 0.12605
 H337 H 0.35397 0.87966 0.18369
 H338 H 0.31331 0.87947 0.14449
 H339 H 0.37680 0.85666 0.18211
 H340 H 0.37508 0.81449 0.14160
 H341 H 0.35306 0.81557 0.11849
 H342 H 0.31331 0.85696 0.12088
 C343 C 0.84880 0.36464 0.17093
 C344 C 0.84170 0.38044 0.17884
 C345 C 0.82563 0.38736 0.17315
 C346 C 0.81666 0.37816 0.15949
 C347 C 0.82362 0.36241 0.15146
 C348 C 0.83975 0.35561 0.15715
 C349 C 0.86478 0.35770 0.17663
 C350 C 0.87208 0.34199 0.16857
 C351 C 0.86296 0.33316 0.15475
 C352 C 0.84681 0.33976 0.14910
 C353 C 0.83756 0.33071 0.13560
 C354 C 0.82137 0.33737 0.12990
 C355 C 0.81461 0.35335 0.13785
 H356 H 0.84881 0.38752 0.18923
 H357 H 0.80409 0.38310 0.15527
 H358 H 0.87140 0.36442 0.18756
 H359 H 0.86850 0.32124 0.14821
 H360 H 0.84283 0.31828 0.12977
 H361 H 0.80236 0.35889 0.13334
 C362 C 0.84505 0.84917 0.69089
 C363 C 0.83610 0.86455 0.69749
 C364 C 0.82088 0.87082 0.68914
 C365 C 0.81471 0.86136 0.67403
 C366 C 0.82335 0.84581 0.66746
 C367 C 0.83860 0.83974 0.67585
 C368 C 0.86029 0.84301 0.69914
 C369 C 0.86908 0.82737 0.69272
 C370 C 0.86240 0.81803 0.67778
 C371 C 0.84736 0.82416 0.66925
 C372 C 0.84090 0.81485 0.65429
 C373 C 0.82556 0.82064 0.64591
 C374 C 0.81687 0.83619 0.65266
 H375 H 0.84087 0.87142 0.70934
 H376 H 0.80325 0.86618 0.66719
 H377 H 0.86537 0.85052 0.71047
 H378 H 0.86869 0.80569 0.67293
 H379 H 0.84797 0.80315 0.64907
 H380 H 0.80485 0.84065 0.64665
 C381 C 0.63562 0.65021 0.67067
 C382 C 0.64222 0.63368 0.67707
 C383 C 0.65774 0.62627 0.67015
 C384 C 0.66717 0.63627 0.65721
 C385 C 0.66086 0.65312 0.65084
 C386 C 0.64478 0.65981 0.65732
 C387 C 0.62010 0.65741 0.67768
 C388 C 0.61317 0.67386 0.67107
 C389 C 0.62203 0.68287 0.65713
 C390 C 0.63794 0.67625 0.65063
 C391 C 0.64732 0.68619 0.63790
 C392 C 0.66387 0.68045 0.63217
 C393 C 0.67038 0.66357 0.63835
 H394 H 0.63522 0.62657 0.68757
 H395 H 0.67925 0.63084 0.65190
 H396 H 0.61367 0.65035 0.68858
 H397 H 0.61672 0.69527 0.65146
 H398 H 0.64185 0.69877 0.63276
 H399 H 0.68305 0.65889 0.63392
 C400 C 0.64187 0.14199 0.15232
 C401 C 0.64754 0.12574 0.16026
 C402 C 0.66219 0.11634 0.15359
 C403 C 0.67120 0.12353 0.13871
 C404 C 0.66583 0.13994 0.13073
 C405 C 0.65113 0.14921 0.13763
 C406 C 0.62700 0.15107 0.15878
 C407 C 0.62136 0.16748 0.15089
 C408 C 0.63102 0.17482 0.13660
 C409 C 0.64566 0.16571 0.12982
 C410 C 0.65477 0.17282 0.11519
 C411 C 0.66915 0.16354 0.10787
 C412 C 0.67476 0.14717 0.11585
 H413 H 0.64065 0.12059 0.17188
 H414 H 0.68230 0.11628 0.13322
 H415 H 0.61964 0.14513 0.16971
 H416 H 0.62717 0.18770 0.13068
 H417 H 0.65059 0.18566 0.10940
 H418 H 0.68582 0.13990 0.11028
 C419 C 0.14812 0.65007 0.18176
 C420 C 0.15697 0.63664 0.19162
 C421 C 0.17138 0.62742 0.18414
 C422 C 0.17660 0.63152 0.16655
 C423 C 0.16802 0.64492 0.15664
 C424 C 0.15374 0.65425 0.16421
 C425 C 0.13402 0.65972 0.18924
 C426 C 0.12559 0.67352 0.17944
 C427 C 0.13123 0.67738 0.16194
 C428 C 0.14525 0.66794 0.15430
 C429 C 0.15115 0.67225 0.13703
 C430 C 0.16563 0.66326 0.12956
 C431 C 0.17385 0.64944 0.13942
 H432 H 0.15291 0.63368 0.20522
 H433 H 0.18743 0.62426 0.16051
 H434 H 0.12985 0.65678 0.20281
 H435 H 0.12466 0.68781 0.15423
 H436 H 0.14457 0.68277 0.12946
 H437 H 0.18523 0.64265 0.13396
 C438 C 0.14406 0.13423 0.66451
 C439 C 0.15122 0.11861 0.67238
 C440 C 0.16689 0.11120 0.66595
 C441 C 0.17514 0.11940 0.65118
 C442 C 0.16828 0.13525 0.64342
 C443 C 0.15270 0.14276 0.65012
 C444 C 0.12862 0.14170 0.67118
 C445 C 0.12149 0.15760 0.66367
 C446 C 0.13031 0.16626 0.64945
 C447 C 0.14594 0.15898 0.64268
 C448 C 0.15514 0.16782 0.62889
 C449 C 0.17090 0.16054 0.62233
 C450 C 0.17708 0.14398 0.62941
 H451 H 0.14486 0.11259 0.68392
 H452 H 0.18710 0.11364 0.64592
 H453 H 0.12232 0.13529 0.68255
 H454 H 0.12498 0.17857 0.64362
 H455 H 0.15028 0.18064 0.62369
 H456 H 0.18893 0.13794 0.62419
 C457 C 0.34992 0.64414 0.32724
 C458 C 0.34190 0.62923 0.31880
 C459 C 0.32589 0.62246 0.32509
 C460 C 0.31819 0.63065 0.34026
 C461 C 0.32618 0.64536 0.34897
 C462 C 0.34203 0.65223 0.34239
 C463 C 0.36555 0.65128 0.32056
 C464 C 0.37360 0.66631 0.32894
 C465 C 0.36568 0.67410 0.34422
 C466 C 0.34987 0.66734 0.35084
 C467 C 0.34164 0.67566 0.36559
 C468 C 0.32576 0.66890 0.37228
 C469 C 0.31833 0.65350 0.36397
 H470 H 0.34818 0.62290 0.30733
 H471 H 0.30567 0.62596 0.34505
 H472 H 0.37118 0.64537 0.30854
 H473 H 0.37181 0.68543 0.35107
 H474 H 0.34744 0.68771 0.37152
 H475 H 0.30638 0.64775 0.36917
 C476 C 0.37055 0.13779 0.83665
 C477 C 0.36155 0.12603 0.82529
 C478 C 0.34432 0.12115 0.82900
 C479 C 0.33631 0.12763 0.84479
 C480 C 0.34530 0.13936 0.85646
 C481 C 0.36246 0.14461 0.85226
 C482 C 0.38729 0.14343 0.83213
 C483 C 0.39601 0.15631 0.84266
 C484 C 0.38811 0.16294 0.85843
 C485 C 0.37139 0.15701 0.86339
 C486 C 0.36324 0.16370 0.87894
 C487 C 0.34613 0.15851 0.88336
 C488 C 0.33727 0.14635 0.87195
 H489 H 0.36793 0.12079 0.81335
 H490 H 0.32298 0.12394 0.84773
 H491 H 0.39317 0.13863 0.81974
 H492 H 0.39480 0.17299 0.86653
 H493 H 0.37028 0.17294 0.88762
 H494 H 0.32395 0.14264 0.87488
 C495 C 0.84128 0.64927 0.80902
 C496 C 0.83168 0.63495 0.80173
 C497 C 0.81641 0.62880 0.81007
 C498 C 0.81163 0.63614 0.82687
 C499 C 0.82147 0.65032 0.83463
 C500 C 0.83609 0.65721 0.82538
 C501 C 0.85569 0.65613 0.79980
 C502 C 0.86474 0.67139 0.80627
 C503 C 0.85957 0.67931 0.82266
 C504 C 0.84538 0.67220 0.83231
 C505 C 0.84017 0.68009 0.84858
 C506 C 0.82605 0.67296 0.85841
 C507 C 0.81674 0.65804 0.85122
 H508 H 0.83587 0.62892 0.78914
 H509 H 0.79996 0.63136 0.83352
 H510 H 0.85975 0.64964 0.78738
 H511 H 0.86635 0.69119 0.82775
 H512 H 0.84706 0.69199 0.85343
 H513 H 0.80589 0.65228 0.85854
 C514 C 0.84619 0.14774 0.31025
 C515 C 0.83872 0.13311 0.30096
 C516 C 0.82164 0.12748 0.30473
 C517 C 0.81228 0.13644 0.31843
 C518 C 0.81974 0.15090 0.32808
 C519 C 0.83671 0.15672 0.32385
 C520 C 0.86296 0.15366 0.30594
 C521 C 0.87051 0.16849 0.31502
 C522 C 0.86099 0.17739 0.32864
 C523 C 0.84414 0.17157 0.33313
 C524 C 0.83457 0.18041 0.34666
 C525 C 0.81773 0.17448 0.35123
 C526 C 0.81044 0.15970 0.34180
 H527 H 0.84630 0.12606 0.29079
 H528 H 0.79903 0.13246 0.32137
 H529 H 0.86999 0.14697 0.29513
 H530 H 0.86673 0.18874 0.33583
 H531 H 0.84020 0.19204 0.35351
 H532 H 0.79761 0.15482 0.34532
 C533 C 0.63799 0.35385 0.32789
 C534 C 0.64491 0.36935 0.31944
 C535 C 0.66044 0.37729 0.32548
 C536 C 0.66860 0.36991 0.34064
 C537 C 0.66165 0.35465 0.34942
 C538 C 0.64647 0.34638 0.34283
 C539 C 0.62283 0.34557 0.32148
 C540 C 0.61628 0.32956 0.32947
 C541 C 0.62498 0.32213 0.34426
 C542 C 0.63988 0.33052 0.35109
 C543 C 0.64838 0.32319 0.36596
 C544 C 0.66321 0.33171 0.37305
 C545 C 0.66978 0.34744 0.36458
 H546 H 0.63826 0.37513 0.30805
 H547 H 0.68069 0.37565 0.34534
 H548 H 0.61616 0.35162 0.31024
 H549 H 0.62032 0.30961 0.35034
 H550 H 0.64345 0.31074 0.37194
 H551 H 0.68108 0.35429 0.36990
 C552 C 0.65645 0.85970 0.81692
 C553 C 0.66235 0.87594 0.80893
 C554 C 0.67761 0.88459 0.81491
 C555 C 0.68670 0.87683 0.82929
 C556 C 0.68083 0.86080 0.83755
 C557 C 0.66571 0.85213 0.83132
 C558 C 0.64165 0.85068 0.81048
 C559 C 0.63588 0.83425 0.81834
 C560 C 0.64508 0.82708 0.83295
 C561 C 0.66003 0.83575 0.83933
 C562 C 0.66960 0.82805 0.85334
 C563 C 0.68479 0.83655 0.85957
 C564 C 0.69012 0.85310 0.85171
 H565 H 0.65505 0.88182 0.79803
 H566 H 0.69871 0.88292 0.83377
 H567 H 0.63495 0.85623 0.79903
 H568 H 0.64064 0.81468 0.83942
 H569 H 0.66547 0.81514 0.85902
 H570 H 0.70157 0.86004 0.85659
 C571 C 0.16363 0.32748 0.82888
 C572 C 0.17072 0.34246 0.81976
 C573 C 0.18654 0.35021 0.82517
 C574 C 0.19536 0.34256 0.83980
 C575 C 0.18835 0.32767 0.84917
 C576 C 0.17233 0.32024 0.84380
 C577 C 0.14812 0.31944 0.82312
 C578 C 0.14097 0.30440 0.83227
 C579 C 0.14935 0.29784 0.84763
 C580 C 0.16509 0.30542 0.85323
 C581 C 0.17387 0.29809 0.86788
 C582 C 0.19014 0.30494 0.87300
 C583 C 0.19722 0.31989 0.86364
 H584 H 0.16375 0.34827 0.80858
 H585 H 0.20778 0.34810 0.84380
 H586 H 0.14196 0.32455 0.81115
 H587 H 0.14379 0.28659 0.85511
 H588 H 0.16807 0.28685 0.87521
 H589 H 0.20981 0.32522 0.86733
 C590 C 0.14715 0.82822 0.33941
 C591 C 0.15217 0.84571 0.33329
 C592 C 0.16621 0.85491 0.34126
 C593 C 0.17566 0.84618 0.35475
 C594 C 0.17086 0.82893 0.36095
 C595 C 0.15642 0.82002 0.35355
 C596 C 0.13317 0.81871 0.33168
 C597 C 0.12829 0.80127 0.33807
 C598 C 0.13721 0.79379 0.35269
 C599 C 0.15134 0.80285 0.36026
 C600 C 0.16059 0.79486 0.37435
 C601 C 0.17535 0.80348 0.38145
 C602 C 0.18041 0.82051 0.37449
 H603 H 0.14500 0.85227 0.32266
 H604 H 0.18683 0.85294 0.36050
 H605 H 0.12638 0.82467 0.32047
 H606 H 0.13325 0.78071 0.35813
 H607 H 0.15625 0.78189 0.37972
 H608 H 0.19196 0.82723 0.37938
 O609 O 0.25520 1.00565 0.25005
 O610 O 0.22618 0.96906 0.26391
 O611 O 0.22868 1.00502 0.27258
 O612 O 0.25541 0.97108 0.24774
 O613 O 0.27076 0.96673 0.27219
 O614 O 0.24632 1.00242 0.29555
 O615 O 0.24027 0.96636 0.28935
 O616 O 0.27167 1.00157 0.27376
 Cu617 Cu 0.23944 0.98835 0.25672
 Cu618 Cu 0.25824 0.98344 0.28527
 C619 C 0.26845 1.00982 0.25913
 C620 C 0.22827 0.96122 0.27881
 C621 C 0.23365 1.01020 0.28802
 C622 C 0.26773 0.96310 0.25591
 O623 O 0.26258 0.51027 0.79588
 O624 O 0.28609 0.47507 0.76950
 O625 O 0.28788 0.51024 0.77248
 O626 O 0.26312 0.47470 0.79554
 O627 O 0.24305 0.47541 0.77463
 O628 O 0.26769 0.51204 0.75174
 O629 O 0.26571 0.47643 0.74892
 O630 O 0.24257 0.51125 0.77494
 Cu631 Cu 0.27688 0.49240 0.78545
 Cu632 Cu 0.25274 0.49392 0.76050
 C633 C 0.24855 0.51686 0.78972
 C634 C 0.27981 0.46983 0.75463
 C635 C 0.28207 0.51729 0.75826
 C636 C 0.24901 0.46885 0.78910
 O637 O 0.73648 -0.02475 0.26225
 O638 O 0.72124 0.01044 0.23080
 O639 O 0.72045 -0.02520 0.23146
 O640 O 0.73826 0.01073 0.26086
 O641 O 0.76300 0.00925 0.24584
 O642 O 0.74539 -0.02661 0.21684
 O643 O 0.74621 0.00912 0.21620
 O644 O 0.76123 -0.02639 0.24728
 Cu645 Cu 0.72658 -0.00708 0.24779
 Cu646 Cu 0.75644 -0.00886 0.23008
 C647 C 0.75149 -0.03163 0.26007
 C648 C 0.73118 0.01598 0.21831
 C649 C 0.72994 -0.03209 0.21917
 C650 C 0.75369 0.01624 0.25815
 O651 O 0.71583 0.51304 0.73926
 O652 O 0.73294 0.47582 0.76763
 O653 O 0.73370 0.51113 0.76873
 O654 O 0.71446 0.47687 0.73839
 O655 O 0.73787 0.47781 0.72122
 O656 O 0.75776 0.51043 0.75245
 O657 O 0.75627 0.47470 0.75035
 O658 O 0.74031 0.51322 0.72374
 Cu659 Cu 0.72172 0.49418 0.75501
 Cu660 Cu 0.75046 0.49382 0.73533
 C661 C 0.72545 0.51991 0.72711
 C662 C 0.74761 0.46892 0.76370
 C663 C 0.74903 0.51666 0.76562
 C664 C 0.72284 0.47159 0.72460
 O665 O 0.23294 0.47355 0.29349
 O666 O 0.20771 0.50983 0.27178
 O667 O 0.20844 0.47440 0.26950
 O668 O 0.23312 0.50905 0.29478
 O669 O 0.25231 0.51026 0.27276
 O670 O 0.22821 0.47530 0.24799
 O671 O 0.22715 0.51112 0.24999
 O672 O 0.25243 0.47461 0.27175
 Cu673 Cu 0.21860 0.49159 0.28457
 Cu674 Cu 0.24194 0.49295 0.25841
 C675 C 0.24696 0.46785 0.28639
 C676 C 0.21312 0.51672 0.25721
 C677 C 0.21427 0.46885 0.25449
 C678 C 0.24694 0.51559 0.28799
 O679 O 0.76717 1.03843 0.78345
 O680 O 0.78942 0.99921 0.76284
 O681 O 0.79183 1.03424 0.76009
 O682 O 0.76399 1.00280 0.78590
 O683 O 0.74510 1.00238 0.76387
 O684 O 0.77245 1.03455 0.73850
 O685 O 0.77030 0.99890 0.74098
 O686 O 0.74760 1.03819 0.76208
 Cu687 Cu 0.77991 1.01865 0.77534
 Cu688 Cu 0.75690 1.01852 0.74920
 C689 C 0.75380 1.04525 0.77623
 C690 C 0.78380 0.99244 0.74835
 C691 C 0.78685 1.03982 0.74488
 C692 C 0.74995 0.99694 0.77915
 O693 O 0.75887 0.52543 0.24795
 O694 O 0.73335 0.48955 0.27055
 O695 O 0.73108 0.52468 0.26772
 O696 O 0.76000 0.48986 0.24881
 O697 O 0.77627 0.49068 0.27297
 O698 O 0.74902 0.52866 0.29032
 O699 O 0.74946 0.49322 0.29457
 O700 O 0.77692 0.52623 0.27073
 Cu701 Cu 0.74418 0.50709 0.25637
 Cu702 Cu 0.76461 0.50986 0.28454
 C703 C 0.77234 0.53183 0.25544
 C704 C 0.73684 0.48561 0.28669
 C705 C 0.73523 0.53290 0.28201
 C706 C 0.77289 0.48410 0.25760
 O707 O 0.24376 0.01464 0.74015
 O708 O 0.26655 -0.02319 0.76266
 O709 O 0.26393 0.01158 0.76793
 O710 O 0.24449 -0.02074 0.73679
 O711 O 0.26594 -0.01699 0.71743
 O712 O 0.28641 0.01478 0.74972
 O713 O 0.28818 -0.02048 0.74331
 O714 O 0.26642 0.01833 0.72228
 Cu715 Cu 0.25243 -0.00473 0.75369
 Cu716 Cu 0.27899 -0.00077 0.73135
 C717 C 0.25137 0.02304 0.72745
 C718 C 0.28124 -0.02836 0.75664
 C719 C 0.27855 0.01857 0.76432
 C720 C 0.25169 -0.02450 0.72192
 O721 O 0.28361 0.23332 0.98989
 O722 O 0.25583 0.25728 1.02299
 O723 O 0.25866 0.25709 0.98820
 O724 O 0.28108 0.23388 1.02497
 O725 O 0.30066 0.25587 1.02551
 O726 O 0.27710 0.28009 0.98990
 O727 O 0.27508 0.27954 1.02441
 O728 O 0.30204 0.25636 0.99044
 Cu729 Cu 0.26796 0.24307 1.00642
 Cu730 Cu 0.29070 0.27015 1.00778
 C731 C 0.29734 0.24100 0.98414
 C732 C 0.26071 0.27258 1.02930
 C733 C 0.26395 0.27260 0.98284
 C734 C 0.29468 0.24091 1.03154
 O735 O 0.27164 0.78224 0.49069
 O736 O 0.29840 0.75919 0.52459
 O737 O 0.29693 0.75808 0.48994
 O738 O 0.27348 0.78279 0.52564
 O739 O 0.25353 0.76115 0.52622
 O740 O 0.27776 0.73571 0.49157
 O741 O 0.27850 0.73757 0.52661
 O742 O 0.25294 0.75940 0.49154
 Cu743 Cu 0.28703 0.77287 0.50744
 Cu744 Cu 0.26380 0.74617 0.50911
 C745 C 0.25781 0.77465 0.48524
 C746 C 0.29266 0.74466 0.53174
 C747 C 0.29137 0.74263 0.48473
 C748 C 0.25958 0.77614 0.53211
 O749 O 0.26717 0.73905 -0.01212
 O750 O 0.23628 0.72380 0.02249
 O751 O 0.23656 0.72408 -0.01232
 O752 O 0.26669 0.73926 0.02281
 O753 O 0.25433 0.76651 0.02256
 O754 O 0.22438 0.75142 -0.01239
 O755 O 0.22403 0.75110 0.02272
 O756 O 0.25491 0.76637 -0.01174
 Cu757 Cu 0.25287 0.72877 0.00521
 Cu758 Cu 0.23806 0.76154 0.00529
 C759 C 0.26639 0.75542 -0.01771
 C760 C 0.22499 0.73486 0.02863
 C761 C 0.22544 0.73522 -0.01847
 C762 C 0.26571 0.75562 0.02854
 O763 O 0.25712 0.25259 0.47586
 O764 O 0.23172 0.22947 0.51138
 O765 O 0.23518 0.22530 0.47705
 O766 O 0.25494 0.25512 0.51083
 O767 O 0.23350 0.27490 0.50810
 O768 O 0.21459 0.24575 0.47258
 O769 O 0.21022 0.24887 0.50703
 O770 O 0.23629 0.27316 0.47352
 Cu771 Cu 0.24690 0.23866 0.49408
 Cu772 Cu 0.22155 0.26266 0.48995
 C773 C 0.25104 0.26705 0.46884
 C774 C 0.21649 0.23513 0.51505
 C775 C 0.22154 0.23034 0.46905
 C776 C 0.24756 0.26993 0.51549
 O777 O 0.74694 0.77224 0.97110
 O778 O 0.77526 0.74989 1.00374
 O779 O 0.76914 0.74555 0.96965
 O780 O 0.75141 0.77525 1.00574
 O781 O 0.73057 0.75511 1.01043
 O782 O 0.74840 0.72553 0.97519
 O783 O 0.75444 0.73010 1.00981
 O784 O 0.72622 0.75214 0.97649
 Cu785 Cu 0.76277 0.76273 0.98704
 Cu786 Cu 0.73799 0.73853 0.99354
 C787 C 0.73186 0.76604 0.96810
 C788 C 0.76956 0.73641 1.01262
 C789 C 0.76144 0.73063 0.96604
 C790 C 0.73778 0.77023 1.01410
 O791 O 0.76290 0.28360 0.47160
 O792 O 0.78205 0.25335 0.50592
 O793 O 0.78630 0.25641 0.47255
 O794 O 0.76430 0.28249 0.50777
 O795 O 0.74090 0.26532 0.50517
 O796 O 0.76297 0.23934 0.46908
 O797 O 0.75854 0.23617 0.50461
 O798 O 0.73951 0.26626 0.47133
 Cu799 Cu 0.77577 0.27116 0.48914
 Cu800 Cu 0.74862 0.24976 0.48683
 C801 C 0.74779 0.28006 0.46572
 C802 C 0.77326 0.23963 0.51125
 C803 C 0.77856 0.24331 0.46490
 C804 C 0.74912 0.27819 0.51288
 O805 O 0.78206 0.25422 -0.02341
 O806 O 0.76673 0.22363 0.01278
 O807 O 0.76218 0.22558 -0.02170
 O808 O 0.78753 0.25187 0.01102
 O809 O 0.76474 0.26934 0.01653
 O810 O 0.74025 0.24477 -0.01808
 O811 O 0.74363 0.24123 0.01606
 O812 O 0.75987 0.27266 -0.01818
 Cu813 Cu 0.77694 0.23704 -0.00569
 Cu814 Cu 0.74996 0.25893 -0.00020
 C815 C 0.77329 0.26842 -0.02721
 C816 C 0.75220 0.22706 0.02021
 C817 C 0.74709 0.23103 -0.02584
 C818 C 0.78040 0.26493 0.01955
 O819 O 0.74954 0.73643 0.52381
 O820 O 0.76864 0.76669 0.48975
 O821 O 0.76994 0.76491 0.52504
 O822 O 0.74779 0.73892 0.48966
 O823 O 0.72538 0.75770 0.49169
 O824 O 0.74770 0.78392 0.52669
 O825 O 0.74627 0.78543 0.49199
 O826 O 0.72728 0.75529 0.52660
 Cu827 Cu 0.76136 0.75001 0.50690
 Cu828 Cu 0.73441 0.77244 0.50957
 C829 C 0.73503 0.74057 0.53085
 C830 C 0.76063 0.78096 0.48475
 C831 C 0.76257 0.77886 0.53189
 C832 C 0.73279 0.74388 0.48467
 O833 O 0.97668 0.25694 0.26019
 O834 O 1.01140 0.27095 0.22898
 O835 O 0.97768 0.27334 0.22956
 O836 O 1.01062 0.25537 0.26010
 O837 O 1.00945 0.22854 0.24655
 O838 O 0.97577 0.24635 0.21643
 O839 O 1.00992 0.24418 0.21538
 O840 O 0.97590 0.22984 0.24708
 Cu841 Cu 0.99425 0.26684 0.24604
 Cu842 Cu 0.99264 0.23457 0.22992
 C843 C 0.97034 0.24095 0.25891
 C844 C 1.01674 0.25990 0.21698
 C845 C 0.97080 0.26286 0.21806
 C846 C 1.01578 0.23894 0.25849
 O847 O 0.47766 0.25420 0.76719
 O848 O 0.50665 0.27470 0.73473
 O849 O 0.47335 0.26863 0.73546
 O850 O 0.51125 0.25125 0.76085
 O851 O 0.51020 0.22584 0.74482
 O852 O 0.47357 0.24292 0.71991
 O853 O 0.50743 0.24924 0.71875
 O854 O 0.47736 0.22831 0.75189
 Cu855 Cu 0.49227 0.26439 0.75094
 Cu856 Cu 0.49201 0.23444 0.73237
 C857 C 0.47249 0.23790 0.76533
 C858 C 0.51215 0.26578 0.72132
 C859 C 0.46698 0.25842 0.72328
 C860 C 0.51702 0.23527 0.75710
 O861 O -0.01124 0.26868 0.75461
 O862 O 0.02382 0.25158 0.72579
 O863 O -0.00969 0.24590 0.72836
 O864 O 0.02220 0.27350 0.75316
 O865 O 0.02682 0.25001 0.77097
 O866 O -0.00606 0.22317 0.74734
 O867 O 0.02708 0.22781 0.74363
 O868 O -0.00686 0.24629 0.77382
 Cu869 Cu 0.00591 0.26223 0.73861
 Cu870 Cu 0.01071 0.23455 0.76085
 C871 C -0.01518 0.26045 0.76899
 C872 C 0.03134 0.23670 0.72969
 C873 C -0.01355 0.22994 0.73384
 C874 C 0.03018 0.26627 0.76617
 O875 O 0.51908 0.24311 0.21500
 O876 O 0.48476 0.27370 0.23254
 O877 O 0.51882 0.27313 0.23361
 O878 O 0.48555 0.24450 0.21285
 O879 O 0.48341 0.22804 0.23745
 O880 O 0.51722 0.25678 0.25833
 O881 O 0.48353 0.25731 0.25726
 O882 O 0.51744 0.22671 0.23969
 Cu883 Cu 0.50223 0.26031 0.22108
 Cu884 Cu 0.50024 0.24051 0.25063
 C885 C 0.52421 0.22976 0.22445
 C886 C 0.47818 0.27058 0.24789
 C887 C 0.52390 0.26978 0.24938
 C888 C 0.47863 0.23152 0.22156
 O889 O 1.02083 0.75969 0.73562
 O890 O 0.98757 0.73936 0.76473
 O891 O 1.02086 0.73569 0.76113
 O892 O 0.98710 0.76319 0.73907
 O893 O 0.98448 0.74176 0.71836
 O894 O 1.01636 0.71327 0.74188
 O895 O 0.98279 0.71822 0.74417
 O896 O 1.01777 0.73729 0.71603
 Cu897 Cu 1.00450 0.75174 0.75208
 Cu898 Cu 1.00001 0.72537 0.72815
 C899 C 1.02518 0.75193 0.72102
 C900 C 0.97927 0.72549 0.75924
 C901 C 1.02421 0.71967 0.75542
 C902 C 0.98010 0.75716 0.72488
 O903 O 0.51005 0.78927 0.26053
 O904 O 0.47649 0.76591 0.28718
 O905 O 0.51029 0.76554 0.28684
 O906 O 0.47630 0.78958 0.26217
 O907 O 0.47585 0.76740 0.24204
 O908 O 0.51048 0.74337 0.26669
 O909 O 0.47641 0.74321 0.26762
 O910 O 0.50973 0.76682 0.24072
 Cu911 Cu 0.49351 0.77981 0.27618
 Cu912 Cu 0.49309 0.75292 0.25230
 C913 C 0.51556 0.78211 0.24603
 C914 C 0.47046 0.75073 0.28175
 C915 C 0.51624 0.75043 0.28103
 C916 C 0.47000 0.78247 0.24815
 O917 O 0.01195 0.73770 0.28510
 O918 O -0.02288 0.71195 0.26200
 O919 O 0.01079 0.71119 0.26171
 O920 O -0.02197 0.73576 0.28778
 O921 O -0.02345 0.75731 0.26724
 O922 O 0.01055 0.73273 0.24110
 O923 O -0.02367 0.73343 0.24136
 O924 O 0.01006 0.75933 0.26465
 Cu925 Cu -0.00537 0.72207 0.27621
 Cu926 Cu -0.00668 0.74778 0.25147
 C927 C 0.01676 0.75307 0.27880
 C928 C -0.02933 0.71852 0.24776
 C929 C 0.01635 0.71760 0.24705
 C930 C -0.02858 0.75045 0.28199
 O931 O 0.51756 0.77890 0.76400
 O932 O 0.48223 0.75331 0.74239
 O933 O 0.51601 0.75381 0.73935
 O934 O 0.48365 0.77867 0.76673
 O935 O 0.48144 0.79949 0.74556
 O936 O 0.51538 0.77607 0.71947
 O937 O 0.48148 0.77393 0.72091
 O938 O 0.51492 0.80096 0.74409
 Cu939 Cu 0.50001 0.76403 0.75521
 Cu940 Cu 0.49804 0.78969 0.73036
 C941 C 0.52220 0.79433 0.75782
 C942 C 0.47593 0.75917 0.72785
 C943 C 0.52156 0.76103 0.72497
 C944 C 0.47693 0.79328 0.76073
 C945 C 0.39816 0.31422 0.29854
 C946 C 0.41410 0.30734 0.29227
 C947 C 0.42574 0.29917 0.30440
 C948 C 0.42159 0.29874 0.32267
 C949 C 0.40577 0.30574 0.32883
 C950 C 0.39370 0.31317 0.31683
 C951 C 0.44116 0.29122 0.29806
 C952 C 0.44510 0.29130 0.27971
 C953 C 0.43384 0.30012 0.26763
 C954 C 0.41839 0.30807 0.27399
 C955 C 0.43805 0.30043 0.24934
 C956 C 0.45292 0.29149 0.24298
 C957 C 0.46374 0.28196 0.25478
 C958 C 0.45992 0.28225 0.27320
 H959 H 0.38899 0.31975 0.28907
 H960 H 0.43046 0.29276 0.33219
 H961 H 0.40294 0.30518 0.34302
 H962 H 0.44990 0.28461 0.30734
 H963 H 0.40957 0.31450 0.26467
 H964 H 0.42964 0.30724 0.23990
 H965 H 0.45560 0.29144 0.22873
 H966 H 0.46829 0.27509 0.28244
 C967 C 0.40184 0.83118 0.82311
 C968 C 0.41529 0.82214 0.81393
 C969 C 0.41906 0.80371 0.81790
 C970 C 0.40928 0.79464 0.83094
 C971 C 0.39566 0.80357 0.83977
 C972 C 0.39150 0.82203 0.83600
 C973 C 0.43239 0.79457 0.80861
 C974 C 0.44177 0.80357 0.79511
 C975 C 0.43790 0.82200 0.79106
 C976 C 0.42485 0.83123 0.80064
 C977 C 0.44699 0.83084 0.77729
 C978 C 0.45967 0.82146 0.76747
 C979 C 0.46368 0.80316 0.77141
 C980 C 0.45476 0.79433 0.78539
 H981 H 0.39988 0.84554 0.82034
 H982 H 0.41190 0.78043 0.83405
 H983 H 0.38798 0.79546 0.84891
 H984 H 0.43527 0.78041 0.81168
 H985 H 0.42192 0.84537 0.79750
 H986 H 0.44418 0.84495 0.77398
 H987 H 0.46641 0.82858 0.75681
 H988 H 0.45766 0.78018 0.78845
 C989 C -0.10053 0.30430 0.80946
 C990 C -0.08631 0.29698 0.79996
 C991 C -0.08538 0.29902 0.78120
 C992 C -0.09881 0.30774 0.77218
 C993 C -0.11299 0.31470 0.78159
 C994 C -0.11409 0.31353 0.80047
 C995 C -0.07105 0.29230 0.77166
 C996 C -0.05767 0.28329 0.78059
 C997 C -0.05867 0.28072 0.79930
 C998 C -0.07294 0.28774 0.80892
 C999 C -0.04537 0.27113 0.80797
 C1000 C -0.03120 0.26428 0.79818
 C1001 C -0.03000 0.26726 0.77966
 C1002 C -0.04332 0.27675 0.77099
 H1003 H -0.10044 0.30337 0.82389
 H1004 H -0.09844 0.30906 0.75773
 H1005 H -0.12333 0.32045 0.77370
 H1006 H -0.07033 0.29407 0.75726
 H1007 H -0.07365 0.28596 0.82331
 H1008 H -0.04594 0.26891 0.82229
 H1009 H -0.02108 0.25693 0.80509
 H1010 H -0.04264 0.27881 0.75663
 C1011 C -0.10351 0.80810 0.32761
 C1012 C -0.08866 0.80078 0.31935
 C1013 C -0.07762 0.81221 0.30916
 C1014 C -0.08127 0.83097 0.30811
 C1015 C -0.09606 0.83818 0.31647
 C1016 C -0.10758 0.82677 0.32594
 C1017 C -0.06337 0.80465 0.29993
 C1018 C -0.05998 0.78580 0.30086
 C1019 C -0.07069 0.77455 0.31164
 C1020 C -0.08496 0.78208 0.32073
 C1021 C -0.06709 0.75584 0.31299
 C1022 C -0.05317 0.74824 0.30357
 C1023 C -0.04274 0.75912 0.29238
 C1024 C -0.04616 0.77796 0.29112
 H1025 H -0.11232 0.79904 0.33464
 H1026 H -0.07285 0.84000 0.30057
 H1027 H -0.09865 0.85268 0.31524
 H1028 H -0.05509 0.81337 0.29186
 H1029 H -0.09333 0.77334 0.32870
 H1030 H -0.07511 0.74705 0.32125
 H1031 H -0.05081 0.73368 0.30471
 H1032 H -0.03806 0.78647 0.28265
 C1033 C 0.60038 0.70438 0.32007
 C1034 C 0.58588 0.71063 0.31063
 C1035 C 0.58557 0.70919 0.29177
 C1036 C 0.59986 0.70165 0.28269
 C1037 C 0.61448 0.69596 0.29214
 C1038 C 0.61499 0.69732 0.31093
 C1039 C 0.57118 0.71570 0.28229
 C1040 C 0.55735 0.72419 0.29140
 C1041 C 0.55780 0.72584 0.31027
 C1042 C 0.57188 0.71874 0.31977
 C1043 C 0.54435 0.73500 0.31930
 C1044 C 0.53078 0.74285 0.30973
 C1045 C 0.53015 0.74123 0.29102
 C1046 C 0.54333 0.73160 0.28193
 H1047 H 0.60032 0.70521 0.33454
 H1048 H 0.59992 0.70055 0.26823
 H1049 H 0.62555 0.69092 0.28463
 H1050 H 0.57096 0.71460 0.26782
 H1051 H 0.57219 0.72001 0.33423
 H1052 H 0.54452 0.73644 0.33373
 H1053 H 0.52072 0.75020 0.31696
 H1054 H 0.54302 0.73053 0.26746
 C1055 C 0.60453 0.20307 0.80099
 C1056 C 0.58969 0.21177 0.79438
 C1057 C 0.58921 0.23106 0.79300
 C1058 C 0.60365 0.24130 0.79833
 C1059 C 0.61836 0.23253 0.80499
 C1060 C 0.61893 0.21335 0.80639
 C1061 C 0.57438 0.23975 0.78626
 C1062 C 0.56007 0.22935 0.78073
 C1063 C 0.56061 0.21005 0.78226
 C1064 C 0.57533 0.20143 0.78915
 C1065 C 0.54653 0.19958 0.77653
 C1066 C 0.53225 0.20803 0.76882
 C1067 C 0.53161 0.22714 0.76694
 C1068 C 0.54540 0.23783 0.77328
 H1069 H 0.60475 0.18830 0.80226
 H1070 H 0.60357 0.25609 0.79737
 H1071 H 0.62937 0.24074 0.80896
 H1072 H 0.57405 0.25453 0.78514
 H1073 H 0.57569 0.18663 0.79022
 H1074 H 0.54671 0.18481 0.77766
 H1075 H 0.52170 0.19956 0.76412
 H1076 H 0.54504 0.25257 0.77172
 C1077 C 1.09976 0.67429 0.81108
 C1078 C 1.08699 0.68474 0.80249
 C1079 C 1.08610 0.70381 0.80557
 C1080 C 1.09808 0.71213 0.81698
 C1081 C 1.11089 0.70172 0.82523
 C1082 C 1.11189 0.68269 0.82248
 C1083 C 1.07336 0.71431 0.79709
 C1084 C 1.06161 0.70605 0.78534
 C1085 C 1.06260 0.68702 0.78205
 C1086 C 1.07519 0.67645 0.79075
 C1087 C 1.05104 0.67891 0.77000
 C1088 C 1.03863 0.68953 0.76128
 C1089 C 1.03741 0.70844 0.76459
 C1090 C 1.04896 0.71658 0.77672
 H1091 H 1.10019 0.65963 0.80894
 H1092 H 1.09767 0.72676 0.81937
 H1093 H 1.12024 0.70870 0.83354
 H1094 H 1.07268 0.72894 0.79953
 H1095 H 1.07590 0.66184 0.78827
 H1096 H 1.05163 0.66435 0.76726
 H1097 H 1.02988 0.68292 0.75203
 H1098 H 1.04825 0.73117 0.77930
 C1099 C 1.08863 0.18718 0.31226
 C1100 C 1.07431 0.19366 0.30266
 C1101 C 1.06361 0.18122 0.29341
 C1102 C 1.06709 0.16249 0.29434
 C1103 C 1.08128 0.15609 0.30397
 C1104 C 1.09259 0.16827 0.31288
 C1105 C 1.04971 0.18770 0.28321
 C1106 C 1.04637 0.20652 0.28216
 C1107 C 1.05682 0.21897 0.29177
 C1108 C 1.07074 0.21248 0.30192
 C1109 C 1.05328 0.23775 0.29090
 C1110 C 1.03970 0.24419 0.28036
 C1111 C 1.02951 0.23197 0.27039
 C1112 C 1.03285 0.21310 0.27148
 H1113 H 1.09711 0.19717 0.31832
 H1114 H 1.05882 0.15272 0.28758
 H1115 H 1.08295 0.14143 0.30470
 H1116 H 1.04163 0.17812 0.27595
 H1117 H 1.07888 0.22207 0.30911
 H1118 H 1.06110 0.24749 0.29824
 H1119 H 1.03741 0.25879 0.27973
 H1120 H 1.02499 0.20354 0.26396
 C1121 C 0.59313 0.30619 0.67118
 C1122 C 0.57912 0.29596 0.67772
 C1123 C 0.58046 0.27670 0.67891
 C1124 C 0.59569 0.26799 0.67301
 C1125 C 0.60957 0.27830 0.66639
 C1126 C 0.60848 0.29747 0.66568
 C1127 C 0.56671 0.26656 0.68630
 C1128 C 0.55177 0.27549 0.69272
 C1129 C 0.55035 0.29473 0.69106
 C1130 C 0.56394 0.30478 0.68344
 C1131 C 0.53563 0.30375 0.69767
 C1132 C 0.52283 0.29400 0.70674
 C1133 C 0.52433 0.27501 0.70908
 C1134 C 0.53854 0.26567 0.70151
 H1135 H 0.59215 0.32096 0.67040
 H1136 H 0.59696 0.25325 0.67374
 H1137 H 0.62133 0.27134 0.66219
 H1138 H 0.56785 0.25182 0.68751
 H1139 H 0.56291 0.31954 0.68245
 H1140 H 0.53431 0.31845 0.69642
 H1141 H 0.51191 0.30141 0.71241
 H1142 H 0.53984 0.25104 0.70346
 C1143 C 0.59083 0.81837 0.18323
 C1144 C 0.57782 0.80932 0.19296
 C1145 C 0.57556 0.79030 0.19084
 C1146 C 0.58646 0.78065 0.17909
 C1147 C 0.59965 0.78967 0.16969
 C1148 C 0.60225 0.80874 0.17161
 C1149 C 0.56254 0.78124 0.20060
 C1150 C 0.55196 0.79098 0.21269
 C1151 C 0.55439 0.81001 0.21495
 C1152 C 0.56715 0.81909 0.20492
 C1153 C 0.54412 0.81965 0.22735
 C1154 C 0.53159 0.81052 0.23752
 C1155 C 0.52891 0.79165 0.23527
 C1156 C 0.53910 0.78197 0.22273
 H1157 H 0.59151 0.83309 0.18449
 H1158 H 0.58502 0.76600 0.17740
 H1159 H 0.60819 0.78131 0.16155
 H1160 H 0.56078 0.76662 0.19892
 H1161 H 0.56894 0.83370 0.20664
 H1162 H 0.54585 0.83423 0.22928
 H1163 H 0.52387 0.81828 0.24704
 H1164 H 0.53724 0.76737 0.22100
 C1165 C 1.10104 0.30076 0.17201
 C1166 C 1.08461 0.29656 0.17923
 C1167 C 1.07517 0.31012 0.18867
 C1168 C 1.08193 0.32775 0.19019
 C1169 C 1.09827 0.33179 0.18322
 C1170 C 1.10844 0.31829 0.17448
 C1171 C 1.05931 0.30578 0.19687
 C1172 C 1.05285 0.28791 0.19605
 C1173 C 1.06195 0.27440 0.18618
 C1174 C 1.07773 0.27882 0.17773
 C1175 C 1.05533 0.25656 0.18538
 C1176 C 1.04023 0.25199 0.19484
 C1177 C 1.03149 0.26518 0.20529
 C1178 C 1.03770 0.28324 0.20547
 H1179 H 1.10841 0.28991 0.16562
 H1180 H 1.07468 0.33842 0.19704
 H1181 H 1.10271 0.34576 0.18450
 H1182 H 1.05227 0.31618 0.20435
 H1183 H 1.08487 0.26837 0.17043
 H1184 H 1.06205 0.24603 0.17780
 H1185 H 1.03572 0.23798 0.19444
 H1186 H 1.03103 0.29358 0.21337
 C1187 C 1.10391 0.80471 0.67669
 C1188 C 1.09047 0.79661 0.68675
 C1189 C 1.08816 0.80149 0.70492
 C1190 C 1.09937 0.81402 0.71284
 C1191 C 1.11275 0.82184 0.70292
 C1192 C 1.11524 0.81765 0.68456
 C1193 C 1.07473 0.79371 0.71501
 C1194 C 1.06359 0.78092 0.70725
 C1195 C 1.06591 0.77574 0.68915
 C1196 C 1.07928 0.78372 0.67895
 C1197 C 1.05483 0.76262 0.68164
 C1198 C 1.04161 0.75474 0.69199
 C1199 C 1.03913 0.76003 0.70994
 C1200 C 1.05020 0.77316 0.71743
 H1201 H 1.10497 0.80131 0.66263
 H1202 H 1.09796 0.81763 0.72685
 H1203 H 1.12152 0.83064 0.71016
 H1204 H 1.07300 0.79758 0.72894
 H1205 H 1.08101 0.77983 0.66503
 H1206 H 1.05641 0.75841 0.66781
 H1207 H 1.03323 0.74464 0.68591
 H1208 H 1.04854 0.77723 0.73131
 C1209 C 0.39580 0.70051 0.69572
 C1210 C 0.40959 0.70972 0.70399
 C1211 C 0.41129 0.70906 0.72279
 C1212 C 0.39902 0.69945 0.73299
 C1213 C 0.38507 0.69074 0.72470
 C1214 C 0.38325 0.69113 0.70597
 C1215 C 0.42507 0.71821 0.73110
 C1216 C 0.43694 0.72841 0.72088
 C1217 C 0.43502 0.72938 0.70210
 C1218 C 0.42151 0.71981 0.69375
 C1219 C 0.44652 0.74010 0.69199
 C1220 C 0.45974 0.74988 0.70040
 C1221 C 0.46194 0.74880 0.71901
 C1222 C 0.45054 0.73791 0.72916
 H1223 H 0.39489 0.70072 0.68126
 H1224 H 0.40004 0.69893 0.74743
 H1225 H 0.37552 0.68402 0.73306
 H1226 H 0.42641 0.71762 0.74552
 H1227 H 0.42011 0.72049 0.67934
 H1228 H 0.44520 0.74105 0.67760
 H1229 H 0.46840 0.75814 0.69233
 H1230 H 0.45202 0.73717 0.74356
 C1231 C 0.39423 0.17949 0.19087
 C1232 C 0.40914 0.18668 0.19891
 C1233 C 0.41150 0.18493 0.21753
 C1234 C 0.39901 0.17571 0.22775
 C1235 C 0.38417 0.16855 0.21967
 C1236 C 0.38133 0.17049 0.20110
 C1237 C 0.42620 0.19260 0.22564
 C1238 C 0.43849 0.20213 0.21531
 C1239 C 0.43619 0.20359 0.19661
 C1240 C 0.42163 0.19576 0.18853
 C1241 C 0.44831 0.21323 0.18629
 C1242 C 0.46231 0.22185 0.19444
 C1243 C 0.46461 0.22085 0.21306
 C1244 C 0.45282 0.21062 0.22341
 H1245 H 0.39310 0.18050 0.17648
 H1246 H 0.40056 0.17429 0.24207
 H1247 H 0.37459 0.16230 0.22833
 H1248 H 0.42792 0.19141 0.23998
 H1249 H 0.41985 0.19705 0.17420
 H1250 H 0.44676 0.21443 0.17194
 H1251 H 0.47125 0.22954 0.18615
 H1252 H 0.45441 0.20983 0.23778
 C1253 C -0.11176 0.68422 0.19465
 C1254 C -0.09748 0.69275 0.20281
 C1255 C -0.09480 0.71171 0.20046
 C1256 C -0.10658 0.72186 0.19032
 C1257 C -0.12096 0.71339 0.18264
 C1258 C -0.12375 0.69446 0.18458
 C1259 C -0.08053 0.72029 0.20845
 C1260 C -0.06906 0.71024 0.21912
 C1261 C -0.07190 0.69135 0.22180
 C1262 C -0.08596 0.68267 0.21345
 C1263 C -0.06070 0.68151 0.23297
 C1264 C -0.04689 0.69032 0.24146
 C1265 C -0.04381 0.70903 0.23867
 C1266 C -0.05494 0.71888 0.22737
 H1267 H -0.11345 0.66960 0.19615
 H1268 H -0.10482 0.73645 0.18855
 H1269 H -0.13007 0.72183 0.17544
 H1270 H -0.07846 0.73483 0.20654
 H1271 H -0.08807 0.66815 0.21543
 H1272 H -0.06272 0.66704 0.23526
 H1273 H -0.03852 0.68246 0.25011
 H1274 H -0.05285 0.73338 0.22530
 C1275 C -0.09358 0.18824 0.68246
 C1276 C -0.08015 0.19814 0.69060
 C1277 C -0.07922 0.21732 0.68833
 C1278 C -0.09185 0.22631 0.67826
 C1279 C -0.10514 0.21638 0.67023
 C1280 C -0.10604 0.19726 0.67204
 C1281 C -0.06565 0.22723 0.69609
 C1282 C -0.05304 0.21824 0.70622
 C1283 C -0.05407 0.19910 0.70872
 C1284 C -0.06758 0.18916 0.70082
 C1285 C -0.04162 0.19025 0.71918
 C1286 C -0.02835 0.20028 0.72721
 C1287 C -0.02715 0.21929 0.72471
 C1288 C -0.03949 0.22816 0.71407
 H1289 H -0.09408 0.17350 0.68385
 H1290 H -0.09141 0.24101 0.67651
 H1291 H -0.11476 0.22369 0.66255
 H1292 H -0.06492 0.24192 0.69427
 H1293 H -0.06831 0.17446 0.70266
 H1294 H -0.04222 0.17561 0.72128
 H1295 H -0.01900 0.19314 0.73537
 H1296 H -0.03881 0.24285 0.71224
 C1297 C 0.30489 0.38537 0.31925
 C1298 C 0.29602 0.39978 0.31093
 C1299 C 0.29869 0.40313 0.29250
 C1300 C 0.31005 0.39191 0.28268
 C1301 C 0.31864 0.37745 0.29099
 C1302 C 0.31620 0.37400 0.30936
 C1303 C 0.28985 0.41752 0.28415
 C1304 C 0.27816 0.42844 0.29394
 C1305 C 0.27535 0.42494 0.31234
 C1306 C 0.28441 0.41076 0.32075
 C1307 C 0.26337 0.43559 0.32199
 C1308 C 0.25415 0.44949 0.31351
 C1309 C 0.25692 0.45320 0.29527
 C1310 C 0.26906 0.44267 0.28558
 H1311 H 0.30304 0.38311 0.33346
 H1312 H 0.31217 0.39420 0.26851
 H1313 H 0.32699 0.36876 0.28293
 H1314 H 0.29194 0.42011 0.27001
 H1315 H 0.28228 0.40813 0.33487
 H1316 H 0.26103 0.43307 0.33609
 H1317 H 0.24492 0.45745 0.32128
 H1318 H 0.27118 0.44531 0.27147
 C1319 C 0.32412 -0.10446 0.81666
 C1320 C 0.31532 -0.08999 0.80835
 C1321 C 0.30455 -0.07832 0.81863
 C1322 C 0.30314 -0.08095 0.83708
 C1323 C 0.31212 -0.09513 0.84533
 C1324 C 0.32261 -0.10744 0.83533
 C1325 C 0.29541 -0.06414 0.81035
 C1326 C 0.29715 -0.06126 0.79190
 C1327 C 0.30827 -0.07264 0.78163
 C1328 C 0.31712 -0.08707 0.78988
 C1329 C 0.31045 -0.06930 0.76329
 C1330 C 0.30172 -0.05479 0.75521
 C1331 C 0.29039 -0.04365 0.76524
 C1332 C 0.28808 -0.04702 0.78358
 H1333 H 0.33147 -0.11373 0.80823
 H1334 H 0.29520 -0.07189 0.84523
 H1335 H 0.31114 -0.09587 0.85974
 H1336 H 0.28703 -0.05529 0.81827
 H1337 H 0.32551 -0.09590 0.78196
 H1338 H 0.31899 -0.07781 0.75523
 H1339 H 0.30366 -0.05240 0.74104
 H1340 H 0.27953 -0.03830 0.79144
 C1341 C 0.79966 0.38802 0.80837
 C1342 C 0.79030 0.40074 0.79805
 C1343 C 0.79229 0.40075 0.77924
 C1344 C 0.80279 0.38767 0.77096
 C1345 C 0.81187 0.37507 0.78115
 C1346 C 0.81112 0.37533 0.80009
 C1347 C 0.78389 0.41394 0.76889
 C1348 C 0.77335 0.42717 0.77704
 C1349 C 0.77065 0.42684 0.79577
 C1350 C 0.77923 0.41368 0.80620
 C1351 C 0.75956 0.43985 0.80369
 C1352 C 0.75159 0.45325 0.79320
 C1353 C 0.75484 0.45405 0.77469
 C1354 C 0.76561 0.44084 0.76670
 H1355 H 0.79862 0.38884 0.82279
 H1356 H 0.80403 0.38716 0.75650
 H1357 H 0.81920 0.36482 0.77385
 H1358 H 0.78574 0.41404 0.75448
 H1359 H 0.77744 0.41364 0.82061
 H1360 H 0.75719 0.43977 0.81800
 H1361 H 0.74331 0.46334 0.79961
 H1362 H 0.76799 0.44123 0.75238
 C1363 C 0.79890 -0.10985 0.31392
 C1364 C 0.79099 -0.09751 0.30200
 C1365 C 0.79649 -0.09699 0.28393
 C1366 C 0.80920 -0.10914 0.27785
 C1367 C 0.81704 -0.12119 0.28966
 C1368 C 0.81256 -0.12143 0.30806
 C1369 C 0.78943 -0.08418 0.27217
 C1370 C 0.77689 -0.07173 0.27819
 C1371 C 0.77087 -0.07246 0.29609
 C1372 C 0.77798 -0.08535 0.30792
 C1373 C 0.75799 -0.06014 0.30183
 C1374 C 0.75139 -0.04705 0.29003
 C1375 C 0.75775 -0.04590 0.27240
 C1376 C 0.77041 -0.05841 0.26655
 H1377 H 0.79509 -0.10947 0.32788
 H1378 H 0.81325 -0.10923 0.26393
 H1379 H 0.82646 -0.13063 0.28406
 H1380 H 0.79390 -0.08371 0.25838
 H1381 H 0.77358 -0.08573 0.32173
 H1382 H 0.75312 -0.06053 0.31546
 H1383 H 0.74159 -0.03756 0.29481
 H1384 H 0.77522 -0.05780 0.25289
 C1385 C 0.32216 0.60484 0.71224
 C1386 C 0.31266 0.59015 0.71944
 C1387 C 0.29434 0.59018 0.71842
 C1388 C 0.28581 0.60503 0.71067
 C1389 C 0.29529 0.61960 0.70372
 C1390 C 0.31355 0.61958 0.70413
 C1391 C 0.28480 0.57542 0.72522
 C1392 C 0.29329 0.56073 0.73336
 C1393 C 0.31158 0.56083 0.73474
 C1394 C 0.32117 0.57544 0.72760
 C1395 C 0.31997 0.54641 0.74345
 C1396 C 0.31032 0.53218 0.75096
 C1397 C 0.29216 0.53190 0.74951
 C1398 C 0.28372 0.54610 0.74048
 H1399 H 0.33621 0.60462 0.71262
 H1400 H 0.27178 0.60538 0.70998
 H1401 H 0.28827 0.63098 0.69800
 H1402 H 0.27076 0.57545 0.72432
 H1403 H 0.33520 0.57543 0.72855
 H1404 H 0.33396 0.54627 0.74471
 H1405 H 0.31706 0.52133 0.75788
 H1406 H 0.26969 0.54608 0.73955
 C1407 C 0.31470 1.09311 0.21130
 C1408 C 0.30441 1.07920 0.21890
 C1409 C 0.28683 1.07763 0.21398
 C1410 C 0.27969 1.09008 0.20201
 C1411 C 0.28982 1.10393 0.19472
 C1412 C 0.30763 1.10567 0.19887
 C1413 C 0.27654 1.06366 0.22108
 C1414 C 0.28351 1.05121 0.23324
 C1415 C 0.30098 1.05281 0.23859
 C1416 C 0.31140 1.06676 0.23128
 C1417 C 0.30762 1.04040 0.25113
 C1418 C 0.29708 1.02648 0.25813
 C1419 C 0.27982 1.02464 0.25249
 C1420 C 0.27317 1.03716 0.24010
 H1421 H 0.32831 1.09352 0.21468
 H1422 H 0.26612 1.08924 0.19840
 H1423 H 0.28320 1.11366 0.18631
 H1424 H 0.26307 1.06247 0.21713
 H1425 H 0.32485 1.06794 0.23523
 H1426 H 0.32096 1.04143 0.25550
 H1427 H 0.30248 1.01699 0.26769
 H1428 H 0.25979 1.03606 0.23583
 C1429 C 0.81240 0.61465 0.20151
 C1430 C 0.80305 0.60053 0.20994
 C1431 C 0.78521 0.59830 0.20633
 C1432 C 0.77691 0.61041 0.19483
 C1433 C 0.78616 0.62443 0.18664
 C1434 C 0.80419 0.62667 0.18941
 C1435 C 0.77587 0.58404 0.21428
 C1436 C 0.78406 0.57203 0.22606
 C1437 C 0.80182 0.57439 0.23005
 C1438 C 0.81125 0.58853 0.22185
 C1439 C 0.80977 0.56261 0.24230
 C1440 C 0.80018 0.54874 0.25056
 C1441 C 0.78259 0.54618 0.24644
 C1442 C 0.77465 0.55782 0.23407
 H1443 H 0.82620 0.61556 0.20388
 H1444 H 0.76315 0.60913 0.19224
 H1445 H 0.77879 0.63385 0.17856
 H1446 H 0.76220 0.58234 0.21136
 H1447 H 0.82491 0.59024 0.22479
 H1448 H 0.82334 0.56423 0.24560
 H1449 H 0.80656 0.53991 0.26009
 H1450 H 0.76102 0.55610 0.23102
 C1451 C 0.83233 1.11384 0.68355
 C1452 C 0.82205 1.10110 0.69283
 C1453 C 0.80417 1.09970 0.68900
 C1454 C 0.79684 1.11120 0.67615
 C1455 C 0.80707 1.12405 0.66722
 C1456 C 0.82493 1.12551 0.67072
 C1457 C 0.79385 1.08698 0.69820
 C1458 C 0.80111 1.07585 0.71144
 C1459 C 0.81894 1.07743 0.71547
 C1460 C 0.82933 1.08990 0.70602
 C1461 C 0.82604 1.06661 0.72903
 C1462 C 0.81558 1.05443 0.73859
 C1463 C 0.79788 1.05263 0.73460
 C1464 C 0.79075 1.06333 0.72089
 H1465 H 0.84609 1.11459 0.68629
 H1466 H 0.78312 1.11043 0.67317
 H1467 H 0.80085 1.13309 0.65778
 H1468 H 0.78015 1.08589 0.69519
 H1469 H 0.84302 1.09105 0.70908
 H1470 H 0.83967 1.06767 0.73233
 H1471 H 0.82139 1.04631 0.74906
 H1472 H 0.77708 1.06218 0.71780
 C1473 C 0.68738 0.62262 0.31450
 C1474 C 0.69821 0.60793 0.30968
 C1475 C 0.71642 0.60981 0.31092
 C1476 C 0.72349 0.62649 0.31652
 C1477 C 0.71264 0.64107 0.32116
 C1478 C 0.69449 0.63925 0.32046
 C1479 C 0.72728 0.59504 0.30651
 C1480 C 0.72018 0.57848 0.30054
 C1481 C 0.70198 0.57672 0.29894
 C1482 C 0.69111 0.59137 0.30371
 C1483 C 0.69494 0.56040 0.29232
 C1484 C 0.70584 0.54608 0.28703
 C1485 C 0.72390 0.54764 0.28873
 C1486 C 0.73101 0.56377 0.29574
 H1487 H 0.67342 0.62095 0.31403
 H1488 H 0.73741 0.62825 0.31737
 H1489 H 0.71849 0.65383 0.32534
 H1490 H 0.74123 0.59648 0.30757
 H1491 H 0.67716 0.58994 0.30260
 H1492 H 0.68105 0.55883 0.29094
 H1493 H 0.70016 0.53372 0.28160
 H1494 H 0.74498 0.56512 0.29678
 C1495 C 0.70146 1.13253 0.80888
 C1496 C 0.70827 1.11628 0.80164
 C1497 C 0.69810 1.10546 0.79011
 C1498 C 0.68114 1.11095 0.78632
 C1499 C 0.67424 1.12691 0.79393
 C1500 C 0.68421 1.13815 0.80540
 C1501 C 0.70504 1.08932 0.78266
 C1502 C 0.72194 1.08371 0.78691
 C1503 C 0.73194 1.09440 0.79880
 C1504 C 0.72514 1.11068 0.80589
 C1505 C 0.74861 1.08862 0.80347
 C1506 C 0.75544 1.07247 0.79636
 C1507 C 0.74585 1.06186 0.78422
 C1508 C 0.72904 1.06758 0.77954
 H1509 H 0.71007 1.14093 0.81674
 H1510 H 0.67304 1.10270 0.77767
 H1511 H 0.66078 1.12982 0.79119
 H1512 H 0.69726 1.08110 0.77366
 H1513 H 0.73292 1.11891 0.81488
 H1514 H 0.75640 1.09661 0.81264
 H1515 H 0.76842 1.06845 0.80015
 H1516 H 0.72148 1.05946 0.77027
 C1517 C 0.19029 0.59728 0.82758
 C1518 C 0.19960 0.58365 0.81838
 C1519 C 0.19786 0.58189 0.79968
 C1520 C 0.18708 0.59398 0.79049
 C1521 C 0.17824 0.60789 0.79964
 C1522 C 0.17966 0.60997 0.81841
 C1523 C 0.20702 0.56816 0.79047
 C1524 C 0.21819 0.55640 0.79971
 C1525 C 0.22023 0.55839 0.81839
 C1526 C 0.21075 0.57185 0.82765
 C1527 C 0.23182 0.54695 0.82747
 C1528 C 0.24125 0.53358 0.81814
 C1529 C 0.23903 0.53126 0.79964
 C1530 C 0.22746 0.54275 0.79052
 H1531 H 0.19116 0.59742 0.84200
 H1532 H 0.18574 0.59293 0.77610
 H1533 H 0.17093 0.61736 0.79159
 H1534 H 0.20558 0.56674 0.77610
 H1535 H 0.21223 0.57330 0.84200
 H1536 H 0.23361 0.54836 0.84178
 H1537 H 0.25008 0.52487 0.82543
 H1538 H 0.22580 0.54121 0.77620
 C1539 C 0.17874 1.09421 0.32409
 C1540 C 0.18589 1.07781 0.31739
 C1541 C 0.17537 1.06546 0.30779
 C1542 C 0.15774 1.06921 0.30585
 C1543 C 0.15063 1.08529 0.31281
 C1544 C 0.16100 1.09853 0.32157
 C1545 C 0.18262 1.04957 0.30021
 C1546 C 0.20028 1.04568 0.30237
 C1547 C 0.21068 1.05762 0.31266
 C1548 C 0.20348 1.07368 0.31993
 C1549 C 0.22817 1.05335 0.31540
 C1550 C 0.23537 1.03760 0.30778
 C1551 C 0.22533 1.02599 0.29698
 C1552 C 0.20774 1.03008 0.29435
 H1553 H 0.18741 1.10382 0.33043
 H1554 H 0.14936 1.05963 0.29897
 H1555 H 0.13676 1.08689 0.31155
 H1556 H 0.17453 1.04030 0.29258
 H1557 H 0.21158 1.08298 0.32751
 H1558 H 0.23632 1.06226 0.32333
 H1559 H 0.24899 1.03476 0.30989
 H1560 H 0.19989 1.02110 0.28615
 C1561 C 0.68002 0.38840 0.67352
 C1562 C 0.68656 0.40209 0.68490
 C1563 C 0.68452 0.40040 0.70364
 C1564 C 0.67650 0.38483 0.71070
 C1565 C 0.67041 0.37110 0.69936
 C1566 C 0.67180 0.37277 0.68063
 C1567 C 0.69066 0.41418 0.71505
 C1568 C 0.69926 0.42947 0.70802
 C1569 C 0.70180 0.43094 0.68932
 C1570 C 0.69521 0.41739 0.67786
 C1571 C 0.71109 0.44585 0.68241
 C1572 C 0.71795 0.45906 0.69393
 C1573 C 0.71520 0.45788 0.71248
 C1574 C 0.70569 0.44314 0.71945
 H1575 H 0.68116 0.39008 0.65917
 H1576 H 0.67507 0.38317 0.72504
 H1577 H 0.66474 0.35905 0.70538
 H1578 H 0.68893 0.41290 0.72941
 H1579 H 0.69702 0.41862 0.66351
 H1580 H 0.71325 0.44716 0.66813
 H1581 H 0.72528 0.47033 0.68834
 H1582 H 0.70378 0.44202 0.73379
 C1583 C 0.67969 -0.10894 0.16625
 C1584 C 0.68610 -0.09359 0.17539
 C1585 C 0.67442 -0.08134 0.18389
 C1586 C 0.65653 -0.08432 0.18260
 C1587 C 0.65027 -0.09964 0.17353
 C1588 C 0.66176 -0.11229 0.16560
 C1589 C 0.68079 -0.06655 0.19385
 C1590 C 0.69871 -0.06385 0.19546
 C1591 C 0.71038 -0.07577 0.18652
 C1592 C 0.70401 -0.09056 0.17655
 C1593 C 0.72828 -0.07284 0.18790
 C1594 C 0.73457 -0.05842 0.19829
 C1595 C 0.72310 -0.04680 0.20762
 C1596 C 0.70515 -0.04953 0.20605
 H1597 H 0.68868 -0.11866 0.16032
 H1598 H 0.64739 -0.07498 0.18886
 H1599 H 0.63638 -0.10174 0.17292
 H1600 H 0.67182 -0.05733 0.20058
 H1601 H 0.71299 -0.09986 0.16994
 H1602 H 0.73741 -0.08178 0.18108
 H1603 H 0.74847 -0.05660 0.19930
 H1604 H 0.69619 -0.04052 0.21306
 C1605 C 0.17887 0.38744 0.19563
 C1606 C 0.18763 0.40088 0.20547
 C1607 C 0.20592 0.40051 0.20631
 C1608 C 0.21509 0.38639 0.19775
 C1609 C 0.20623 0.37267 0.18851
 C1610 C 0.18802 0.37303 0.18720
 C1611 C 0.21473 0.41417 0.21582
 C1612 C 0.20544 0.42785 0.22498
 C1613 C 0.18710 0.42783 0.22469
 C1614 C 0.17832 0.41454 0.21468
 C1615 C 0.17786 0.44105 0.23455
 C1616 C 0.18671 0.45421 0.24455
 C1617 C 0.20490 0.45465 0.24445
 C1618 C 0.21420 0.44146 0.23460
 H1619 H 0.16490 0.38833 0.19452
 H1620 H 0.22911 0.38577 0.19844
 H1621 H 0.21373 0.36164 0.18262
 H1622 H 0.22879 0.41401 0.21628
 H1623 H 0.16426 0.41466 0.21428
 H1624 H 0.16381 0.44114 0.23459
 H1625 H 0.17935 0.46430 0.25207
 H1626 H 0.22827 0.44161 0.23471
 C1627 C 0.19515 -0.10083 0.67547
 C1628 C 0.20468 -0.08835 0.68587
 C1629 C 0.20297 -0.08869 0.70473
 C1630 C 0.19226 -0.10163 0.71291
 C1631 C 0.18318 -0.11416 0.70257
 C1632 C 0.18423 -0.11380 0.68375
 C1633 C 0.21206 -0.07618 0.71523
 C1634 C 0.22310 -0.06341 0.70723
 C1635 C 0.22531 -0.06320 0.68845
 C1636 C 0.21595 -0.07562 0.67782
 C1637 C 0.23683 -0.05055 0.68073
 C1638 C 0.24584 -0.03810 0.69155
 C1639 C 0.24323 -0.03800 0.71017
 C1640 C 0.23193 -0.05081 0.71786
 H1641 H 0.19616 -0.10035 0.66101
 H1642 H 0.19106 -0.10222 0.72735
 H1643 H 0.17552 -0.12438 0.70946
 H1644 H 0.21056 -0.07639 0.72968
 H1645 H 0.21746 -0.07541 0.66339
 H1646 H 0.23881 -0.05022 0.66637
 H1647 H 0.25451 -0.02831 0.68535
 H1648 H 0.23003 -0.05102 0.73226
 C1649 C 0.30611 0.30696 0.38843
 C1650 C 0.29787 0.29727 0.40225
 C1651 C 0.30028 0.27816 0.40367
 C1652 C 0.31078 0.26906 0.39108
 C1653 C 0.31878 0.27878 0.37722
 C1654 C 0.31659 0.29783 0.37574
 C1655 C 0.29206 0.26847 0.41754
 C1656 C 0.28121 0.27762 0.42981
 C1657 C 0.27866 0.29672 0.42820
 C1658 C 0.28714 0.30643 0.41458
 C1659 C 0.26746 0.30580 0.44010
 C1660 C 0.25862 0.29605 0.45331
 C1661 C 0.26107 0.27711 0.45514
 C1662 C 0.27258 0.26797 0.44348
 H1663 H 0.30451 0.32167 0.38768
 H1664 H 0.31270 0.25440 0.39188
 H1665 H 0.32653 0.27131 0.36752
 H1666 H 0.29395 0.25382 0.41864
 H1667 H 0.28520 0.32108 0.41343
 H1668 H 0.26535 0.32041 0.43903
 H1669 H 0.24987 0.30338 0.46221
 H1670 H 0.27439 0.25332 0.44470
 C1671 C 0.32434 0.80759 -0.08822
 C1672 C 0.31483 0.80062 -0.07368
 C1673 C 0.30760 0.81281 -0.06091
 C1674 C 0.31055 0.83163 -0.06247
 C1675 C 0.31993 0.83844 -0.07700
 C1676 C 0.32653 0.82657 -0.09023
 C1677 C 0.29713 0.80608 -0.04704
 C1678 C 0.29373 0.78732 -0.04580
 C1679 C 0.30143 0.77500 -0.05815
 C1680 C 0.31197 0.78174 -0.07202
 C1681 C 0.29819 0.75619 -0.05656
 C1682 C 0.28708 0.74971 -0.04313
 C1683 C 0.27889 0.76196 -0.03126
 C1684 C 0.28246 0.78073 -0.03255
 H1685 H 0.32928 0.79832 -0.09841
 H1686 H 0.30525 0.84113 -0.05269
 H1687 H 0.32174 0.85308 -0.07810
 H1688 H 0.29134 0.81549 -0.03745
 H1689 H 0.31762 0.77235 -0.08172
 H1690 H 0.30407 0.74653 -0.06581
 H1691 H 0.28455 0.73516 -0.04231
 H1692 H 0.27638 0.79024 -0.02326
 C1693 C 0.81134 0.31623 -0.11352
 C1694 C 0.80733 0.30847 -0.09680
 C1695 C 0.82080 0.30175 -0.08588
 C1696 C 0.83806 0.30381 -0.09138
 C1697 C 0.84196 0.31186 -0.10782
 C1698 C 0.82869 0.31766 -0.11937
 C1699 C 0.81681 0.29287 -0.06976
 C1700 C 0.79951 0.29088 -0.06423
 C1701 C 0.78608 0.29845 -0.07469
 C1702 C 0.79006 0.30704 -0.09097
 C1703 C 0.76885 0.29708 -0.06880
 C1704 C 0.76489 0.28789 -0.05296
 C1705 C 0.77804 0.27960 -0.04289
 C1706 C 0.79538 0.28126 -0.04851
 H1707 H 0.80090 0.32055 -0.12216
 H1708 H 0.84857 0.29906 -0.08304
 H1709 H 0.85547 0.31337 -0.11154
 H1710 H 0.82716 0.28735 -0.06161
 H1711 H 0.77971 0.31246 -0.09917
 H1712 H 0.75840 0.30292 -0.07656
 H1713 H 0.75142 0.28668 -0.04891
 H1714 H 0.80559 0.27502 -0.04071
 C1715 C 0.80582 0.82528 0.39981
 C1716 C 0.79882 0.81510 0.41413
 C1717 C 0.80314 0.79636 0.41585
 C1718 C 0.81394 0.78801 0.40311
 C1719 C 0.82077 0.79815 0.38898
 C1720 C 0.81710 0.81692 0.38730
 C1721 C 0.79666 0.78621 0.43029
 C1722 C 0.78575 0.79443 0.44304
 C1723 C 0.78106 0.81303 0.44123
 C1724 C 0.78772 0.82330 0.42684
 C1725 C 0.76974 0.82099 0.45383
 C1726 C 0.76309 0.81060 0.46802
 C1727 C 0.76790 0.79217 0.47004
 C1728 C 0.77932 0.78422 0.45750
 H1729 H 0.80287 0.83972 0.39865
 H1730 H 0.81720 0.77363 0.40412
 H1731 H 0.82902 0.79123 0.37931
 H1732 H 0.80012 0.77189 0.43159
 H1733 H 0.78425 0.83761 0.42554
 H1734 H 0.76593 0.83520 0.45266
 H1735 H 0.75428 0.81701 0.47749
 H1736 H 0.78292 0.76995 0.45878
 C1737 C 0.69388 0.31642 0.59408
 C1738 C 0.70123 0.31042 0.57783
 C1739 C 0.69039 0.30379 0.56407
 C1740 C 0.67237 0.30405 0.56646
 C1741 C 0.66516 0.31016 0.58257
 C1742 C 0.67580 0.31595 0.59673
 C1743 C 0.69770 0.29670 0.54827
 C1744 C 0.71575 0.29622 0.54600
 C1745 C 0.72659 0.30356 0.55941
 C1746 C 0.71927 0.31055 0.57527
 C1747 C 0.74461 0.30350 0.55686
 C1748 C 0.75186 0.29578 0.54140
 C1749 C 0.74124 0.28776 0.52835
 C1750 C 0.72315 0.28822 0.53063
 H1751 H 0.70226 0.32077 0.60486
 H1752 H 0.66385 0.29928 0.55596
 H1753 H 0.65118 0.31015 0.58402
 H1754 H 0.68936 0.29130 0.53789
 H1755 H 0.72762 0.31582 0.58571
 H1756 H 0.75312 0.30919 0.56692
 H1757 H 0.76584 0.29556 0.53993
 H1758 H 0.71486 0.28224 0.52053
 C1759 C 0.68291 0.81625 1.09174
 C1760 C 0.69024 0.80804 1.07640
 C1761 C 0.67966 0.79748 1.06497
 C1762 C 0.66190 0.79585 1.06867
 C1763 C 0.65469 0.80423 1.08378
 C1764 C 0.66509 0.81425 1.09570
 C1765 C 0.68699 0.78852 1.05014
 C1766 C 0.70478 0.79005 1.04647
 C1767 C 0.71532 0.80115 1.05744
 C1768 C 0.70799 0.81002 1.07241
 C1769 C 0.73305 0.80295 1.05333
 C1770 C 0.74034 0.79342 1.03881
 C1771 C 0.73006 0.78177 1.02834
 C1772 C 0.71223 0.78039 1.03212
 H1773 H 0.69119 0.82378 1.10081
 H1774 H 0.65358 0.78800 1.05991
 H1775 H 0.64088 0.80286 1.08611
 H1776 H 0.67889 0.78017 1.04157
 H1777 H 0.71612 0.81829 1.08103
 H1778 H 0.74131 0.81151 1.06150
 H1779 H 0.75411 0.79468 1.03612
 H1780 H 0.70415 0.77161 1.02395
 C1781 C 0.19671 0.31209 1.10310
 C1782 C 0.20628 0.30257 1.09002
 C1783 C 0.20357 0.28363 1.08751
 C1784 C 0.19128 0.27457 1.09819
 C1785 C 0.18211 0.28407 1.11152
 C1786 C 0.18482 0.30290 1.11428
 C1787 C 0.21338 0.27404 1.07461
 C1788 C 0.22615 0.28310 1.06449
 C1789 C 0.22892 0.30204 1.06717
 C1790 C 0.21883 0.31168 1.07972
 C1791 C 0.24194 0.31101 1.05744
 C1792 C 0.25226 0.30135 1.04525
 C1793 C 0.24962 0.28256 1.04233
 C1794 C 0.23641 0.27352 1.05193
 H1795 H 0.19871 0.32667 1.10470
 H1796 H 0.18905 0.26003 1.09651
 H1797 H 0.17325 0.27651 1.12001
 H1798 H 0.21129 0.25950 1.07268
 H1799 H 0.22100 0.32620 1.08174
 H1800 H 0.24425 0.32550 1.05937
 H1801 H 0.26226 0.30865 1.03796
 H1802 H 0.23432 0.25901 1.04987
 C1803 C 0.20053 0.81603 0.60969
 C1804 C 0.20855 0.80801 0.59471
 C1805 C 0.19855 0.79791 0.58239
 C1806 C 0.18059 0.79644 0.58505
 C1807 C 0.17260 0.80501 0.59970
 C1808 C 0.18244 0.81486 0.61227
 C1809 C 0.20666 0.78954 0.56759
 C1810 C 0.22458 0.79157 0.56475
 C1811 C 0.23444 0.80222 0.57680
 C1812 C 0.22642 0.81014 0.59181
 C1813 C 0.25220 0.80480 0.57362
 C1814 C 0.26021 0.79671 0.55877
 C1815 C 0.25068 0.78563 0.54702
 C1816 C 0.23282 0.78315 0.55006
 H1817 H 0.20850 0.82310 0.61936
 H1818 H 0.17268 0.78889 0.57565
 H1819 H 0.15864 0.80410 0.60100
 H1820 H 0.19903 0.78158 0.55824
 H1821 H 0.23405 0.81812 0.60115
 H1822 H 0.25991 0.81302 0.58265
 H1823 H 0.27400 0.79873 0.55672
 H1824 H 0.22535 0.77476 0.54095
 C1825 C 0.32610 0.69863 0.62035
 C1826 C 0.31787 0.70605 0.60531
 C1827 C 0.29959 0.70523 0.60402
 C1828 C 0.28982 0.69751 0.61790
 C1829 C 0.29806 0.69037 0.63285
 C1830 C 0.31625 0.69054 0.63413
 C1831 C 0.29129 0.71216 0.58891
 C1832 C 0.30096 0.72025 0.57516
 C1833 C 0.31920 0.72155 0.57653
 C1834 C 0.32758 0.71425 0.59153
 C1835 C 0.32867 0.73032 0.56294
 C1836 C 0.32010 0.73786 0.54824
 C1837 C 0.30202 0.73630 0.54673
 C1838 C 0.29257 0.72735 0.56018
 H1839 H 0.34013 0.69880 0.62114
 H1840 H 0.27580 0.69699 0.61721
 H1841 H 0.29013 0.68468 0.64346
 H1842 H 0.27727 0.71137 0.58792
 H1843 H 0.34158 0.71507 0.59254
 H1844 H 0.34264 0.73154 0.56377
 H1845 H 0.32759 0.74480 0.53801
 H1846 H 0.27857 0.72641 0.55924
 C1847 C 0.32517 0.18628 1.11689
 C1848 C 0.31736 0.19536 1.10244
 C1849 C 0.29913 0.19486 1.10057
 C1850 C 0.28899 0.18584 1.11336
 C1851 C 0.29678 0.17722 1.12784
 C1852 C 0.31495 0.17702 1.12968
 C1853 C 0.29126 0.20344 1.08599
 C1854 C 0.30132 0.21291 1.07341
 C1855 C 0.31951 0.21397 1.07549
 C1856 C 0.32745 0.20498 1.08988
 C1857 C 0.32939 0.22410 1.06318
 C1858 C 0.32132 0.23307 1.04896
 C1859 C 0.30332 0.23168 1.04658
 C1860 C 0.29341 0.22152 1.05885
 H1861 H 0.33917 0.18626 1.11800
 H1862 H 0.27498 0.18557 1.11226
 H1863 H 0.28845 0.17082 1.13771
 H1864 H 0.27728 0.20286 1.08451
 H1865 H 0.34142 0.20561 1.09138
 H1866 H 0.34332 0.22517 1.06461
 H1867 H 0.32917 0.24086 1.03965
 H1868 H 0.27947 0.22064 1.05725
 C1869 C 0.81351 0.69846 1.10026
 C1870 C 0.80348 0.70493 1.08590
 C1871 C 0.78522 0.70601 1.08775
 C1872 C 0.77732 0.70126 1.10397
 C1873 C 0.78731 0.69494 1.11810
 C1874 C 0.80540 0.69302 1.11631
 C1875 C 0.77505 0.71171 1.07335
 C1876 C 0.78285 0.71668 1.05713
 C1877 C 0.80112 0.71617 1.05532
 C1878 C 0.81133 0.71012 1.06966
 C1879 C 0.80883 0.72191 1.03923
 C1880 C 0.79855 0.72831 1.02522
 C1881 C 0.78039 0.72856 1.02686
 C1882 C 0.77261 0.72252 1.04279
 H1883 H 0.82744 0.69709 1.09877
 H1884 H 0.76338 0.70225 1.10568
 H1885 H 0.78079 0.69127 1.13046
 H1886 H 0.76105 0.71234 1.07481
 H1887 H 0.82532 0.70952 1.06821
 H1888 H 0.82280 0.72175 1.03760
 H1889 H 0.80478 0.73304 1.01305
 H1890 H 0.75862 0.72305 1.04427
 C1891 C 0.82162 0.18636 0.58776
 C1892 C 0.81571 0.19531 0.57240
 C1893 C 0.82774 0.20356 0.56057
 C1894 C 0.84554 0.20194 0.56389
 C1895 C 0.85133 0.19293 0.57919
 C1896 C 0.83944 0.18546 0.59153
 C1897 C 0.82177 0.21362 0.54588
 C1898 C 0.80391 0.21546 0.54286
 C1899 C 0.79194 0.20655 0.55430
 C1900 C 0.79790 0.19659 0.56901
 C1901 C 0.77413 0.20797 0.55101
 C1902 C 0.76818 0.21842 0.53674
 C1903 C 0.77990 0.22786 0.52566
 C1904 C 0.79780 0.22623 0.52870
 H1905 H 0.81225 0.18089 0.59720
 H1906 H 0.85497 0.20796 0.55486
 H1907 H 0.86515 0.19210 0.58152
 H1908 H 0.83099 0.22024 0.53701
 H1909 H 0.78867 0.19009 0.57798
 H1910 H 0.76479 0.20114 0.55958
 H1911 H 0.75434 0.21950 0.53464
 H1912 H 0.80692 0.23331 0.52007
 C1913 C 0.68510 0.70363 0.40041
 C1914 C 0.69147 0.71316 0.41525
 C1915 C 0.68826 0.73211 0.41701
 C1916 C 0.67878 0.74119 0.40378
 C1917 C 0.67297 0.73169 0.38869
 C1918 C 0.67622 0.71284 0.38673
 C1919 C 0.69494 0.74172 0.43173
 C1920 C 0.70529 0.73269 0.44433
 C1921 C 0.70866 0.71376 0.44236
 C1922 C 0.70145 0.70406 0.42805
 C1923 C 0.71957 0.70490 0.45450
 C1924 C 0.72736 0.71475 0.46828
 C1925 C 0.72402 0.73351 0.47044
 C1926 C 0.71275 0.74237 0.45858
 H1927 H 0.68734 0.68903 0.39942
 H1928 H 0.67626 0.75574 0.40486
 H1929 H 0.66636 0.73924 0.37834
 H1930 H 0.69249 0.75627 0.43310
 H1931 H 0.70406 0.68954 0.42656
 H1932 H 0.72233 0.69042 0.45313
 H1933 H 0.73596 0.70768 0.47734
 H1934 H 0.71030 0.75691 0.46007
 C1935 C 0.69522 0.19928 -0.11097
 C1936 C 0.70339 0.20742 -0.09622
 C1937 C 0.70304 0.22665 -0.09420
 C1938 C 0.69495 0.23743 -0.10712
 C1939 C 0.68727 0.22929 -0.12197
 C1940 C 0.68712 0.21013 -0.12403
 C1941 C 0.71096 0.23486 -0.07941
 C1942 C 0.71969 0.22413 -0.06686
 C1943 C 0.72049 0.20493 -0.06907
 C1944 C 0.71208 0.19666 -0.08359
 C1945 C 0.72995 0.19439 -0.05686
 C1946 C 0.73868 0.20285 -0.04273
 C1947 C 0.73763 0.22186 -0.04031
 C1948 C 0.72798 0.23240 -0.05232
 H1949 H 0.69509 0.18451 -0.11217
 H1950 H 0.69476 0.25221 -0.10589
 H1951 H 0.68162 0.23810 -0.13197
 H1952 H 0.71058 0.24961 -0.07783
 H1953 H 0.71256 0.18191 -0.08523
 H1954 H 0.73080 0.17968 -0.05840
 H1955 H 0.74613 0.19454 -0.03358
 H1956 H 0.72743 0.24714 -0.05067
 C1957 C 0.17449 0.68847 -0.09748
 C1958 C 0.18282 0.69410 -0.08176
 C1959 C 0.18996 0.68086 -0.07018
 C1960 C 0.18807 0.66224 -0.07414
 C1961 C 0.17975 0.65676 -0.08978
 C1962 C 0.17322 0.66979 -0.10180
 C1963 C 0.19921 0.68643 -0.05504
 C1964 C 0.20146 0.70508 -0.05133
 C1965 C 0.19381 0.71833 -0.06255
 C1966 C 0.18454 0.71276 -0.07770
 C1967 C 0.19584 0.73695 -0.05859
 C1968 C 0.20575 0.74242 -0.04394
 C1969 C 0.21391 0.72936 -0.03310
 C1970 C 0.21151 0.71068 -0.03675
 H1971 H 0.16965 0.69867 -0.10668
 H1972 H 0.19329 0.65191 -0.06531
 H1973 H 0.17862 0.64228 -0.09260
 H1974 H 0.20494 0.67626 -0.04634
 H1975 H 0.17895 0.72293 -0.08648
 H1976 H 0.18999 0.74729 -0.06697
 H1977 H 0.20740 0.75690 -0.04138
 H1978 H 0.21761 0.70050 -0.02836
 C1979 C 0.17317 0.17673 0.39188
 C1980 C 0.18105 0.18866 0.40420
 C1981 C 0.17911 0.20779 0.40225
 C1982 C 0.16983 0.21468 0.38773
 C1983 C 0.16233 0.20278 0.37538
 C1984 C 0.16359 0.18367 0.37742
 C1985 C 0.18648 0.21975 0.41479
 C1986 C 0.19611 0.21288 0.42913
 C1987 C 0.19852 0.19377 0.43079
 C1988 C 0.19084 0.18179 0.41845
 C1989 C 0.20865 0.18697 0.44477
 C1990 C 0.21626 0.19894 0.45702
 C1991 C 0.21364 0.21792 0.45574
 C1992 C 0.20347 0.22481 0.44176
 H1993 H 0.17426 0.16209 0.39376
 H1994 H 0.16842 0.22930 0.38587
 H1995 H 0.15557 0.20865 0.36412
 H1996 H 0.18479 0.23440 0.41335
 H1997 H 0.19254 0.16713 0.41988
 H1998 H 0.21073 0.17239 0.44621
 H1999 H 0.22401 0.19331 0.46770
 H2000 H 0.20153 0.23944 0.44056
 C2001 C 0.31401 0.39333 0.68861
 C2002 C 0.30540 0.40609 0.69951
 C2003 C 0.28710 0.40598 0.70050
 C2004 C 0.27779 0.39284 0.69080
 C2005 C 0.28655 0.37959 0.68061
 C2006 C 0.30478 0.37956 0.67949
 C2007 C 0.27847 0.41881 0.71138
 C2008 C 0.28797 0.43129 0.72174
 C2009 C 0.30630 0.43097 0.72116
 C2010 C 0.31488 0.41861 0.70978
 C2011 C 0.31575 0.44294 0.73210
 C2012 C 0.30712 0.45524 0.74342
 C2013 C 0.28894 0.45603 0.74366
 C2014 C 0.27943 0.44400 0.73280
 H2015 H 0.32800 0.39405 0.68750
 H2016 H 0.26376 0.39248 0.69150
 H2017 H 0.27899 0.36912 0.67403
 H2018 H 0.26441 0.41889 0.71201
 H2019 H 0.32895 0.41848 0.70921
 H2020 H 0.32980 0.44278 0.73189
 H2021 H 0.31465 0.46448 0.75164
 H2022 H 0.26537 0.44444 0.73310
 C2023 C 0.32213 0.89688 0.19320
 C2024 C 0.31227 0.91042 0.20195
 C2025 C 0.30402 0.92421 0.19186
 C2026 C 0.30619 0.92451 0.17323
 C2027 C 0.31600 0.91098 0.16462
 C2028 C 0.32383 0.89686 0.17446
 C2029 C 0.29357 0.93731 0.20050
 C2030 C 0.29130 0.93685 0.21914
 C2031 C 0.29990 0.92331 0.22926
 C2032 C 0.31026 0.91016 0.22061
 C2033 C 0.29795 0.92309 0.24790
 C2034 C 0.28754 0.93611 0.25647
 C2035 C 0.27868 0.94944 0.24656
 C2036 C 0.28059 0.94971 0.22785
 H2037 H 0.32792 0.88598 0.20094
 H2038 H 0.30011 0.93506 0.16529
 H2039 H 0.31734 0.91145 0.15020
 H2040 H 0.28711 0.94777 0.19272
 H2041 H 0.31667 0.89966 0.22838
 H2042 H 0.30448 0.91286 0.25587
 H2043 H 0.28624 0.93562 0.27091
 H2044 H 0.27396 0.96007 0.22012
 C2045 C 0.81908 0.40724 0.19999
 C2046 C 0.81094 0.42255 0.20783
 C2047 C 0.80163 0.43485 0.19693
 C2048 C 0.80104 0.43200 0.17841
 C2049 C 0.80921 0.41684 0.17074
 C2050 C 0.81804 0.40412 0.18142
 C2051 C 0.79282 0.44967 0.20470
 C2052 C 0.79318 0.45240 0.22325
 C2053 C 0.80289 0.44049 0.23418
 C2054 C 0.81170 0.42559 0.22639
 C2055 C 0.80338 0.44359 0.25272
 C2056 C 0.79401 0.45809 0.26040
 C2057 C 0.78387 0.46957 0.24966
 C2058 C 0.78372 0.46675 0.23105
 H2059 H 0.82574 0.39750 0.20842
 H2060 H 0.79412 0.44142 0.16986
 H2061 H 0.80856 0.41504 0.15637
 H2062 H 0.78548 0.45893 0.19633
 H2063 H 0.81895 0.41626 0.23478
 H2064 H 0.81084 0.43467 0.26131
 H2065 H 0.79433 0.46002 0.27476
 H2066 H 0.77612 0.47569 0.22261
 C2067 C 0.82038 0.90198 0.70377
 C2068 C 0.81140 0.91729 0.71051
 C2069 C 0.79313 0.91809 0.70926
 C2070 C 0.78414 0.90339 0.70166
 C2071 C 0.79312 0.88803 0.69536
 C2072 C 0.81135 0.88716 0.69619
 C2073 C 0.78413 0.93346 0.71579
 C2074 C 0.79314 0.94784 0.72402
 C2075 C 0.81140 0.94682 0.72563
 C2076 C 0.82042 0.93171 0.71863
 C2077 C 0.82032 0.96083 0.73448
 C2078 C 0.81126 0.97562 0.74185
 C2079 C 0.79317 0.97692 0.74011
 C2080 C 0.78418 0.96307 0.73099
 H2081 H 0.83441 0.90174 0.70433
 H2082 H 0.77012 0.90367 0.70076
 H2083 H 0.78570 0.87673 0.69003
 H2084 H 0.77012 0.93410 0.71472
 H2085 H 0.83442 0.93103 0.71978
 H2086 H 0.83428 0.96024 0.73593
 H2087 H 0.81841 0.98618 0.74882
 H2088 H 0.77019 0.96389 0.72982
 C2089 C 0.68151 0.60471 0.67991
 C2090 C 0.68684 0.58812 0.68765
 C2091 C 0.67432 0.57482 0.69242
 C2092 C 0.65683 0.57797 0.68865
 C2093 C 0.65167 0.59436 0.68080
 C2094 C 0.66382 0.60815 0.67676
 C2095 C 0.67944 0.55869 0.70104
 C2096 C 0.69698 0.55550 0.70478
 C2097 C 0.70958 0.56845 0.69936
 C2098 C 0.70443 0.58472 0.69097
 C2099 C 0.72716 0.56496 0.70255
 C2100 C 0.73220 0.54895 0.71121
 C2101 C 0.71977 0.53626 0.71716
 C2102 C 0.70213 0.53961 0.71389
 H2103 H 0.69106 0.61514 0.67693
 H2104 H 0.64709 0.56783 0.69193
 H2105 H 0.63803 0.59632 0.67803
 H2106 H 0.66977 0.54867 0.70494
 H2107 H 0.71410 0.59476 0.68714
 H2108 H 0.73701 0.57466 0.69841
 H2109 H 0.74586 0.54669 0.71367
 H2110 H 0.69249 0.52980 0.71830
 C2111 C 0.68589 0.09535 0.16432
 C2112 C 0.69140 0.07973 0.17361
 C2113 C 0.67897 0.06784 0.18128
 C2114 C 0.66128 0.07140 0.17897
 C2115 C 0.65591 0.08683 0.16955
 C2116 C 0.66809 0.09919 0.16241
 C2117 C 0.68440 0.05272 0.19131
 C2118 C 0.70212 0.04920 0.19363
 C2119 C 0.71457 0.06070 0.18542
 C2120 C 0.70913 0.07594 0.17556
 C2121 C 0.73227 0.05685 0.18739
 C2122 C 0.73761 0.04198 0.19768
 C2123 C 0.72537 0.03085 0.20640
 C2124 C 0.70761 0.03446 0.20420
 H2125 H 0.69548 0.10476 0.15906
 H2126 H 0.65158 0.06231 0.18455
 H2127 H 0.64214 0.08910 0.16791
 H2128 H 0.67483 0.04379 0.19742
 H2129 H 0.71870 0.08492 0.16952
 H2130 H 0.74199 0.06543 0.18110
 H2131 H 0.75137 0.03948 0.19922
 H2132 H 0.69806 0.02584 0.21073
 C2133 C 0.17289 0.60068 0.20536
 C2134 C 0.18244 0.58689 0.21396
 C2135 C 0.20066 0.58611 0.21170
 C2136 C 0.20908 0.59939 0.20139
 C2137 C 0.19954 0.61306 0.19298
 C2138 C 0.18135 0.61367 0.19453
 C2139 C 0.21020 0.57200 0.21964
 C2140 C 0.20181 0.55871 0.23002
 C2141 C 0.18365 0.55974 0.23274
 C2142 C 0.17406 0.57374 0.22460
 C2143 C 0.17541 0.54671 0.24357
 C2144 C 0.18504 0.53280 0.25161
 C2145 C 0.20302 0.53146 0.24869
 C2146 C 0.21132 0.54446 0.23781
 H2147 H 0.15888 0.60095 0.20665
 H2148 H 0.22305 0.59913 0.19970
 H2149 H 0.20646 0.62315 0.18513
 H2150 H 0.22414 0.57133 0.21770
 H2151 H 0.16012 0.57438 0.22651
 H2152 H 0.16153 0.54730 0.24588
 H2153 H 0.17838 0.52292 0.25995
 H2154 H 0.22523 0.54366 0.23568
 C2155 C 0.19317 0.09543 0.67796
 C2156 C 0.20104 0.08130 0.68756
 C2157 C 0.19076 0.06717 0.69493
 C2158 C 0.17278 0.06727 0.69223
 C2159 C 0.16506 0.08133 0.68249
 C2160 C 0.17514 0.09563 0.67538
 C2161 C 0.19861 0.05320 0.70485
 C2162 C 0.21664 0.05304 0.70721
 C2163 C 0.22692 0.06704 0.69953
 C2164 C 0.21904 0.08115 0.68993
 C2165 C 0.24497 0.06659 0.70141
 C2166 C 0.25283 0.05229 0.71061
 C2167 C 0.24277 0.03840 0.71842
 C2168 C 0.22464 0.03895 0.71687
 H2169 H 0.20109 0.10651 0.67285
 H2170 H 0.16470 0.05649 0.69767
 H2171 H 0.15116 0.08101 0.68051
 H2172 H 0.19072 0.04241 0.71059
 H2173 H 0.22693 0.09193 0.68415
 H2174 H 0.25303 0.07717 0.69556
 H2175 H 0.26683 0.05211 0.71169
 H2176 H 0.21683 0.02814 0.72268
 C2177 C 0.30666 0.59460 0.32508
 C2178 C 0.29718 0.58111 0.31603
 C2179 C 0.29837 0.57980 0.29719
 C2180 C 0.30882 0.59214 0.28772
 C2181 C 0.31783 0.60585 0.29678
 C2182 C 0.31687 0.60730 0.31555
 C2183 C 0.28892 0.56636 0.28808
 C2184 C 0.27798 0.55445 0.29755
 C2185 C 0.27651 0.55596 0.31636
 C2186 C 0.28630 0.56913 0.32551
 C2187 C 0.26515 0.54436 0.32568
 C2188 C 0.25534 0.53137 0.31645
 C2189 C 0.25694 0.52958 0.29779
 C2190 C 0.26833 0.54117 0.28844
 H2191 H 0.30598 0.59522 0.33955
 H2192 H 0.30976 0.59142 0.27326
 H2193 H 0.32523 0.61559 0.28899
 H2194 H 0.28990 0.56531 0.27363
 H2195 H 0.28524 0.57023 0.33996
 H2196 H 0.26381 0.54537 0.34009
 H2197 H 0.24668 0.52254 0.32393
 H2198 H 0.26953 0.54001 0.27401
 C2199 C 0.32469 0.09477 0.82185
 C2200 C 0.31719 0.08281 0.80937
 C2201 C 0.31991 0.08569 0.79084
 C2202 C 0.32959 0.10076 0.78509
 C2203 C 0.33696 0.11258 0.79755
 C2204 C 0.33491 0.10951 0.81602
 C2205 C 0.31306 0.07338 0.77834
 C2206 C 0.30335 0.05830 0.78409
 C2207 C 0.30020 0.05569 0.80259
 C2208 C 0.30724 0.06788 0.81511
 C2209 C 0.29001 0.04093 0.80826
 C2210 C 0.28298 0.02890 0.79573
 C2211 C 0.28633 0.03119 0.77737
 C2212 C 0.29661 0.04587 0.77162
 H2213 H 0.32309 0.09224 0.83605
 H2214 H 0.33163 0.10330 0.77095
 H2215 H 0.34446 0.12409 0.79273
 H2216 H 0.31532 0.07551 0.76415
 H2217 H 0.30501 0.06573 0.82930
 H2218 H 0.28738 0.03877 0.82235
 H2219 H 0.27504 0.01765 0.80041
 H2220 H 0.29899 0.04784 0.75744
 C2221 C 0.79726 0.60069 0.80921
 C2222 C 0.78827 0.58732 0.79931
 C2223 C 0.78745 0.58881 0.78045
 C2224 C 0.79476 0.60392 0.77189
 C2225 C 0.80343 0.61716 0.78176
 C2226 C 0.80532 0.61545 0.80040
 C2227 C 0.77953 0.57508 0.77034
 C2228 C 0.77211 0.55993 0.77877
 C2229 C 0.77209 0.55870 0.79766
 C2230 C 0.78034 0.57235 0.80783
 C2231 C 0.76388 0.54378 0.80594
 C2232 C 0.75600 0.53015 0.79558
 C2233 C 0.75667 0.53104 0.77683
 C2234 C 0.76468 0.54597 0.76853
 H2235 H 0.79850 0.59927 0.82357
 H2236 H 0.79396 0.60542 0.75749
 H2237 H 0.80894 0.62871 0.77469
 H2238 H 0.77925 0.57613 0.75586
 H2239 H 0.78067 0.57126 0.82229
 H2240 H 0.76357 0.54266 0.82039
 H2241 H 0.74975 0.51872 0.80215
 H2242 H 0.76490 0.54681 0.75403
 C2243 C 0.80192 0.10010 0.30210
 C2244 C 0.79446 0.08595 0.29200
 C2245 C 0.79904 0.08388 0.27375
 C2246 C 0.81054 0.09625 0.26578
 C2247 C 0.81760 0.11049 0.27579
 C2248 C 0.81360 0.11248 0.29411
 C2249 C 0.79202 0.06952 0.26371
 C2250 C 0.78019 0.05739 0.27156
 C2251 C 0.77513 0.05973 0.28965
 C2252 C 0.78247 0.07389 0.29983
 C2253 C 0.76277 0.04790 0.29718
 C2254 C 0.75556 0.03385 0.28690
 C2255 C 0.76089 0.03118 0.26908
 C2256 C 0.77322 0.04301 0.26151
 H2257 H 0.79879 0.10127 0.31621
 H2258 H 0.81400 0.09499 0.25175
 H2259 H 0.82611 0.12007 0.26908
 H2260 H 0.79571 0.06784 0.24976
 H2261 H 0.77876 0.07558 0.31377
 H2262 H 0.75865 0.04956 0.31099
 H2263 H 0.74604 0.02486 0.29294
 H2264 H 0.77718 0.04119 0.24766
 C2265 C 0.67778 0.40643 0.32487
 C2266 C 0.68677 0.42011 0.31553
 C2267 C 0.68612 0.42061 0.29664
 C2268 C 0.67651 0.40738 0.28744
 C2269 C 0.66796 0.39352 0.29681
 C2270 C 0.66858 0.39278 0.31562
 C2271 C 0.69536 0.43408 0.28726
 C2272 C 0.70559 0.44679 0.29652
 C2273 C 0.70632 0.44617 0.31542
 C2274 C 0.69673 0.43301 0.32481
 C2275 C 0.71687 0.45857 0.32463
 C2276 C 0.72678 0.47133 0.31524
 C2277 C 0.72615 0.47212 0.29646
 C2278 C 0.71537 0.45990 0.28718
 H2279 H 0.67815 0.40633 0.33936
 H2280 H 0.67593 0.40749 0.27295
 H2281 H 0.66127 0.38307 0.28924
 H2282 H 0.69487 0.43445 0.27276
 H2283 H 0.69734 0.43255 0.33930
 H2284 H 0.71759 0.45827 0.33911
 H2285 H 0.73489 0.48068 0.32270
 H2286 H 0.71485 0.46033 0.27270
 C2287 C 0.69370 0.91463 0.81546
 C2288 C 0.70178 0.92930 0.80666
 C2289 C 0.70016 0.93108 0.78793
 C2290 C 0.69053 0.91814 0.77834
 C2291 C 0.68298 0.90327 0.78712
 C2292 C 0.68457 0.90120 0.80576
 C2293 C 0.70854 0.94549 0.77902
 C2294 C 0.71898 0.95780 0.78855
 C2295 C 0.72073 0.95592 0.80727
 C2296 C 0.71188 0.94188 0.81625
 C2297 C 0.73165 0.96786 0.81665
 C2298 C 0.74104 0.98131 0.80753
 C2299 C 0.73939 0.98332 0.78893
 C2300 C 0.72811 0.97166 0.77956
 H2301 H 0.69478 0.91356 0.82986
 H2302 H 0.68924 0.91924 0.76396
 H2303 H 0.67634 0.89310 0.77917
 H2304 H 0.70731 0.94682 0.76464
 H2305 H 0.71325 0.94043 0.83061
 H2306 H 0.73318 0.96659 0.83099
 H2307 H 0.74962 0.99014 0.81502
 H2308 H 0.72690 0.97295 0.76517
 C2309 C 0.20187 0.38050 0.82517
 C2310 C 0.20868 0.39576 0.81622
 C2311 C 0.20720 0.39706 0.79742
 C2312 C 0.19904 0.38299 0.78790
 C2313 C 0.19247 0.36775 0.79688
 C2314 C 0.19376 0.36633 0.81560
 C2315 C 0.21405 0.41230 0.78845
 C2316 C 0.22270 0.42605 0.79801
 C2317 C 0.22431 0.42462 0.81680
 C2318 C 0.21711 0.40961 0.82580
 C2319 C 0.23341 0.43804 0.82628
 C2320 C 0.24121 0.45254 0.81721
 C2321 C 0.23971 0.45412 0.79856
 C2322 C 0.23017 0.44099 0.78904
 H2323 H 0.20274 0.37976 0.83961
 H2324 H 0.19788 0.38370 0.77347
 H2325 H 0.18654 0.35693 0.78912
 H2326 H 0.21291 0.41329 0.77403
 H2327 H 0.21835 0.40856 0.84021
 H2328 H 0.23480 0.43714 0.84067
 H2329 H 0.24848 0.46255 0.82479
 H2330 H 0.22916 0.44202 0.77461
 C2331 C 0.17476 0.87806 0.31793
 C2332 C 0.18302 0.89464 0.31350
 C2333 C 0.18788 0.90694 0.32724
 C2334 C 0.18358 0.90299 0.34503
 C2335 C 0.17548 0.88653 0.34931
 C2336 C 0.17154 0.87364 0.33593
 C2337 C 0.19741 0.92273 0.32310
 C2338 C 0.20216 0.92646 0.30535
 C2339 C 0.19660 0.91464 0.29150
 C2340 C 0.18712 0.89879 0.29565
 C2341 C 0.20087 0.91872 0.27371
 C2342 C 0.21083 0.93413 0.26970
 C2343 C 0.21700 0.94557 0.28341
 C2344 C 0.21254 0.94171 0.30125
 H2345 H 0.17179 0.86820 0.30753
 H2346 H 0.18698 0.91236 0.35571
 H2347 H 0.17286 0.88353 0.36326
 H2348 H 0.20144 0.93190 0.33373
 H2349 H 0.18325 0.88953 0.28504
 H2350 H 0.19664 0.90992 0.26289
 H2351 H 0.21413 0.93685 0.25585
 H2352 H 0.21708 0.95061 0.31186
 C2353 C 0.38817 0.30354 0.67266
 C2354 C 0.40335 0.29837 0.68161
 C2355 C 0.41427 0.31192 0.68902
 C2356 C 0.41012 0.33043 0.68682
 C2357 C 0.39499 0.33546 0.67793
 C2358 C 0.38368 0.32209 0.67111
 C2359 C 0.42899 0.30676 0.69874
 C2360 C 0.43298 0.28820 0.70108
 C2361 C 0.42230 0.27469 0.69324
 C2362 C 0.40754 0.27984 0.68363
 C2363 C 0.42650 0.25618 0.69519
 C2364 C 0.44109 0.25105 0.70488
 C2365 C 0.45165 0.26430 0.71304
 C2366 C 0.44750 0.28291 0.71112
 H2367 H 0.37949 0.29311 0.66761
 H2368 H 0.41841 0.34101 0.69224
 H2369 H 0.39196 0.34986 0.67665
 H2370 H 0.43722 0.31717 0.70460
 H2371 H 0.39925 0.26944 0.67786
 H2372 H 0.41851 0.24565 0.68921
 H2373 H 0.44401 0.23663 0.70619
 H2374 H 0.45567 0.29323 0.71720
 C2375 C 0.39556 0.82554 0.18961
 C2376 C 0.40991 0.81694 0.19736
 C2377 C 0.42207 0.80760 0.18642
 C2378 C 0.41987 0.80747 0.16782
 C2379 C 0.40573 0.81643 0.16015
 C2380 C 0.39330 0.82545 0.17093
 C2381 C 0.43622 0.79861 0.19425
 C2382 C 0.43856 0.79923 0.21286
 C2383 C 0.42663 0.80907 0.22369
 C2384 C 0.41229 0.81763 0.21592
 C2385 C 0.42925 0.81029 0.24217
 C2386 C 0.44354 0.80183 0.24992
 C2387 C 0.45529 0.79167 0.23941
 C2388 C 0.45271 0.79032 0.22085
 H2389 H 0.38602 0.83207 0.19822
 H2390 H 0.42914 0.80054 0.15919
 H2391 H 0.40464 0.81640 0.14572
 H2392 H 0.44545 0.79127 0.18587
 H2393 H 0.40306 0.82499 0.22430
 H2394 H 0.42027 0.81784 0.25064
 H2395 H 0.44524 0.80295 0.26426
 H2396 H 0.46182 0.78262 0.21266
 C2397 C 0.89225 0.31578 0.17539
 C2398 C 0.90798 0.30897 0.18200
 C2399 C 0.92067 0.32126 0.18839
 C2400 C 0.91770 0.34013 0.18742
 C2401 C 0.90213 0.34680 0.18059
 C2402 C 0.88908 0.33475 0.17480
 C2403 C 0.93599 0.31451 0.19590
 C2404 C 0.93884 0.29561 0.19705
 C2405 C 0.92649 0.28330 0.19002
 C2406 C 0.91111 0.29005 0.18257
 C2407 C 0.92959 0.26441 0.19091
 C2408 C 0.94445 0.25776 0.19931
 C2409 C 0.95638 0.26987 0.20708
 C2410 C 0.95365 0.28882 0.20556
 H2411 H 0.88232 0.30624 0.17121
 H2412 H 0.92738 0.34974 0.19204
 H2413 H 0.90035 0.36146 0.17985
 H2414 H 0.94556 0.32396 0.20112
 H2415 H 0.90148 0.28060 0.17749
 H2416 H 0.92034 0.25478 0.18546
 H2417 H 0.94626 0.24311 0.20034
 H2418 H 0.96286 0.29829 0.21137
 C2419 C 0.89838 0.81212 0.69165
 C2420 C 0.91278 0.80431 0.70011
 C2421 C 0.91427 0.80541 0.71891
 C2422 C 0.90127 0.81426 0.72892
 C2423 C 0.88673 0.82157 0.72043
 C2424 C 0.88502 0.82049 0.70171
 C2425 C 0.92851 0.79730 0.72743
 C2426 C 0.94098 0.78761 0.71739
 C2427 C 0.93934 0.78636 0.69858
 C2428 C 0.92543 0.79499 0.69005
 C2429 C 0.95139 0.77609 0.68863
 C2430 C 0.96473 0.76677 0.69724
 C2431 C 0.96654 0.76794 0.71589
 C2432 C 0.95479 0.77865 0.72589
 H2433 H 0.89754 0.81149 0.67719
 H2434 H 0.90214 0.81516 0.74336
 H2435 H 0.87661 0.82764 0.72862
 H2436 H 0.92964 0.79812 0.74186
 H2437 H 0.92420 0.79400 0.67562
 H2438 H 0.95028 0.77495 0.67422
 H2439 H 0.97367 0.75861 0.68931
 H2440 H 0.95599 0.77938 0.74032
 C2441 C 0.59771 0.31976 0.30360
 C2442 C 0.58326 0.31061 0.29663
 C2443 C 0.57160 0.30160 0.30832
 C2444 C 0.57435 0.30237 0.32682
 C2445 C 0.58863 0.31172 0.33367
 C2446 C 0.60061 0.32034 0.32217
 C2447 C 0.55746 0.29191 0.30133
 C2448 C 0.55474 0.29128 0.28279
 C2449 C 0.56615 0.30073 0.27116
 C2450 C 0.58038 0.31023 0.27813
 C2451 C 0.56320 0.30046 0.25269
 C2452 C 0.54923 0.29070 0.24574
 C2453 C 0.53805 0.28084 0.25709
 C2454 C 0.54085 0.28126 0.27566
 H2455 H 0.60689 0.32608 0.29449
 H2456 H 0.56545 0.29571 0.33600
 H2457 H 0.59026 0.31225 0.34804
 H2458 H 0.54864 0.28482 0.31029
 H2459 H 0.58923 0.31728 0.26917
 H2460 H 0.57176 0.30769 0.24360
 H2461 H 0.54739 0.29054 0.23139
 H2462 H 0.53223 0.27382 0.28454
 C2463 C 0.60632 0.83374 0.80390
 C2464 C 0.59212 0.82420 0.79675
 C2465 C 0.59196 0.80487 0.79709
 C2466 C 0.60610 0.79542 0.80422
 C2467 C 0.62031 0.80497 0.81094
 C2468 C 0.62060 0.82423 0.81102
 C2469 C 0.57777 0.79527 0.79013
 C2470 C 0.56389 0.80473 0.78240
 C2471 C 0.56419 0.82406 0.78169
 C2472 C 0.57819 0.83368 0.78909
 C2473 C 0.55059 0.83342 0.77335
 C2474 C 0.53693 0.82373 0.76561
 C2475 C 0.53640 0.80455 0.76645
 C2476 C 0.54985 0.79513 0.77505
 H2477 H 0.60616 0.84856 0.80399
 H2478 H 0.60627 0.78060 0.80440
 H2479 H 0.63122 0.79717 0.81583
 H2480 H 0.57764 0.78044 0.79049
 H2481 H 0.57836 0.84851 0.78863
 H2482 H 0.55064 0.84822 0.77260
 H2483 H 0.52668 0.83124 0.75905
 H2484 H 0.54966 0.78031 0.77553
 C2485 C 0.11198 0.30471 0.81682
 C2486 C 0.09776 0.29551 0.80938
 C2487 C 0.09660 0.27627 0.81084
 C2488 C 0.10969 0.26656 0.81954
 C2489 C 0.12397 0.27574 0.82653
 C2490 C 0.12532 0.29490 0.82530
 C2491 C 0.08256 0.26697 0.80330
 C2492 C 0.06984 0.27659 0.79390
 C2493 C 0.07102 0.29581 0.79223
 C2494 C 0.08486 0.30519 0.80019
 C2495 C 0.05849 0.30525 0.78233
 C2496 C 0.04510 0.29569 0.77393
 C2497 C 0.04384 0.27660 0.77557
 C2498 C 0.05617 0.26718 0.78577
 H2499 H 0.11266 0.31948 0.81593
 H2500 H 0.10907 0.25179 0.82064
 H2501 H 0.13417 0.26771 0.83253
 H2502 H 0.08171 0.25221 0.80445
 H2503 H 0.08578 0.31993 0.79892
 H2504 H 0.05920 0.31997 0.78086
 H2505 H 0.03572 0.30324 0.76615
 H2506 H 0.05544 0.25243 0.78697
 C2507 C 0.09891 0.79874 0.32334
 C2508 C 0.08542 0.78808 0.31614
 C2509 C 0.08720 0.76884 0.31520
 C2510 C 0.10256 0.76063 0.32097
 C2511 C 0.11595 0.77128 0.32787
 C2512 C 0.11422 0.79040 0.32948
 C2513 C 0.07366 0.75808 0.30844
 C2514 C 0.05844 0.76631 0.30220
 C2515 C 0.05680 0.78559 0.30273
 C2516 C 0.07018 0.79633 0.30989
 C2517 C 0.04187 0.79384 0.29583
 C2518 C 0.02884 0.78314 0.28822
 C2519 C 0.03025 0.76399 0.28780
 C2520 C 0.04499 0.75560 0.29505
 H2521 H 0.09733 0.81343 0.32450
 H2522 H 0.10425 0.74593 0.32013
 H2523 H 0.12773 0.76446 0.33197
 H2524 H 0.07505 0.74332 0.30786
 H2525 H 0.06882 0.81109 0.31040
 H2526 H 0.04040 0.80858 0.29603
 H2527 H 0.01757 0.78985 0.28267
 H2528 H 0.04626 0.74084 0.29450
 C2529 C 0.59536 0.70123 0.68028
 C2530 C 0.58068 0.70916 0.68830
 C2531 C 0.56780 0.69789 0.69603
 C2532 C 0.56953 0.67883 0.69492
 C2533 C 0.58399 0.67102 0.68645
 C2534 C 0.59723 0.68209 0.67924
 C2535 C 0.55348 0.70588 0.70479
 C2536 C 0.55173 0.72499 0.70553
 C2537 C 0.56428 0.73619 0.69707
 C2538 C 0.57876 0.72822 0.68872
 C2539 C 0.56220 0.75522 0.69717
 C2540 C 0.54797 0.76316 0.70582
 C2541 C 0.53578 0.75225 0.71484
 C2542 C 0.53768 0.73313 0.71462
 H2543 H 0.60549 0.71010 0.67521
 H2544 H 0.55967 0.66996 0.70055
 H2545 H 0.58474 0.65626 0.68553
 H2546 H 0.54374 0.69724 0.71101
 H2547 H 0.58853 0.73685 0.68253
 H2548 H 0.57162 0.76397 0.69063
 H2549 H 0.54675 0.77793 0.70590
 H2550 H 0.52820 0.72464 0.72142
 C2551 C 0.60087 0.17730 0.17563
 C2552 C 0.58607 0.18680 0.18164
 C2553 C 0.57569 0.19633 0.16924
 C2554 C 0.57994 0.19571 0.15101
 C2555 C 0.59451 0.18602 0.14511
 C2556 C 0.60534 0.17697 0.15733
 C2557 C 0.56129 0.20643 0.17524
 C2558 C 0.55700 0.20697 0.19349
 C2559 C 0.56703 0.19696 0.20585
 C2560 C 0.58156 0.18703 0.19987
 C2561 C 0.56242 0.19719 0.22403
 C2562 C 0.54822 0.20749 0.22996
 C2563 C 0.53849 0.21794 0.21788
 C2564 C 0.54289 0.21749 0.19960
 H2565 H 0.60909 0.17054 0.18528
 H2566 H 0.57201 0.20273 0.14129
 H2567 H 0.59726 0.18560 0.13089
 H2568 H 0.55350 0.21394 0.16572
 H2569 H 0.58938 0.17958 0.20940
 H2570 H 0.56989 0.18952 0.23368
 H2571 H 0.54510 0.20763 0.24412
 H2572 H 0.53537 0.22537 0.19014
 C2573 C 0.09786 0.67539 0.19724
 C2574 C 0.08386 0.68543 0.20433
 C2575 C 0.08297 0.70455 0.20164
 C2576 C 0.09616 0.71330 0.19193
 C2577 C 0.11004 0.70321 0.18491
 C2578 C 0.11102 0.68417 0.18742
 C2579 C 0.06900 0.71463 0.20877
 C2580 C 0.05598 0.70585 0.21874
 C2581 C 0.05692 0.68671 0.22142
 C2582 C 0.07075 0.67663 0.21411
 C2583 C 0.04415 0.67797 0.23165
 C2584 C 0.03081 0.68810 0.23957
 C2585 C 0.02978 0.70713 0.23719
 C2586 C 0.04224 0.71593 0.22645
 H2587 H 0.09838 0.66070 0.19910
 H2588 H 0.09576 0.72794 0.18979
 H2589 H 0.12013 0.71035 0.17760
 H2590 H 0.06838 0.72930 0.20673
 H2591 H 0.07143 0.66198 0.21621
 H2592 H 0.04465 0.66333 0.23383
 H2593 H 0.02131 0.68101 0.24774
 H2594 H 0.04163 0.73063 0.22470
 C2595 C 0.10315 0.18420 0.67397
 C2596 C 0.08863 0.19110 0.68325
 C2597 C 0.07601 0.17889 0.69007
 C2598 C 0.07762 0.16013 0.68667
 C2599 C 0.09199 0.15340 0.67732
 C2600 C 0.10517 0.16525 0.67135
 C2601 C 0.06215 0.18555 0.70044
 C2602 C 0.06060 0.20432 0.70392
 C2603 C 0.07272 0.21666 0.69640
 C2604 C 0.08674 0.20997 0.68622
 C2605 C 0.07070 0.23550 0.69934
 C2606 C 0.05696 0.24202 0.70988
 C2607 C 0.04531 0.22979 0.71796
 C2608 C 0.04714 0.21095 0.71489
 H2609 H 0.11320 0.19351 0.66949
 H2610 H 0.06791 0.15061 0.69152
 H2611 H 0.09295 0.13880 0.67505
 H2612 H 0.05269 0.17611 0.70596
 H2613 H 0.09625 0.21940 0.68080
 H2614 H 0.07976 0.24518 0.69357
 H2615 H 0.05569 0.25661 0.71210
 H2616 H 0.03799 0.20150 0.72091
 C2617 C 0.39318 0.69308 0.32235
 C2618 C 0.40835 0.70056 0.31493
 C2619 C 0.42039 0.68907 0.30600
 C2620 C 0.41734 0.67020 0.30524
 C2621 C 0.40239 0.66279 0.31301
 C2622 C 0.38998 0.67413 0.32143
 C2623 C 0.43521 0.69665 0.29790
 C2624 C 0.43826 0.71555 0.29887
 C2625 C 0.42653 0.72691 0.30841
 C2626 C 0.41159 0.71938 0.31623
 C2627 C 0.42985 0.74569 0.30985
 C2628 C 0.44448 0.75324 0.30163
 C2629 C 0.45591 0.74222 0.29159
 C2630 C 0.45279 0.72331 0.29035
 H2631 H 0.38373 0.70214 0.32849
 H2632 H 0.42653 0.66114 0.29866
 H2633 H 0.40060 0.64812 0.31244
 H2634 H 0.44430 0.68786 0.29080
 H2635 H 0.40246 0.72818 0.32328
 H2636 H 0.42106 0.75458 0.31720
 H2637 H 0.44656 0.76785 0.30269
 H2638 H 0.46162 0.71469 0.28273
 C2639 C 0.41319 0.18329 0.83284
 C2640 C 0.42609 0.19066 0.82168
 C2641 C 0.43848 0.17895 0.81350
 C2642 C 0.43827 0.16021 0.81738
 C2643 C 0.42516 0.15295 0.82820
 C2644 C 0.41220 0.16434 0.83550
 C2645 C 0.45035 0.18602 0.80100
 C2646 C 0.44988 0.20461 0.79647
 C2647 C 0.43794 0.21642 0.80520
 C2648 C 0.42617 0.20938 0.81777
 C2649 C 0.43774 0.23506 0.80099
 C2650 C 0.44910 0.24194 0.78808
 C2651 C 0.46065 0.23027 0.77893
 C2652 C 0.46103 0.21159 0.78320
 H2653 H 0.40309 0.19211 0.83822
 H2654 H 0.44773 0.15105 0.81137
 H2655 H 0.42461 0.13829 0.83017
 H2656 H 0.45959 0.17697 0.79445
 H2657 H 0.41675 0.21838 0.82412
 H2658 H 0.42875 0.24431 0.80762
 H2659 H 0.44867 0.25640 0.78502
 H2660 H 0.47013 0.20259 0.77638
 C2661 C 0.89439 0.68565 0.80390
 C2662 C 0.90836 0.69216 0.79358
 C2663 C 0.90731 0.69193 0.77469
 C2664 C 0.89217 0.68574 0.76645
 C2665 C 0.87827 0.67953 0.77678
 C2666 C 0.87930 0.67910 0.79557
 C2667 C 0.92137 0.69790 0.76430
 C2668 C 0.93639 0.70446 0.77253
 C2669 C 0.93732 0.70520 0.79142
 C2670 C 0.92338 0.69885 0.80183
 C2671 C 0.95215 0.71246 0.79955
 C2672 C 0.96585 0.71905 0.78907
 C2673 C 0.96511 0.71805 0.77032
 C2674 C 0.95041 0.71060 0.76213
 H2675 H 0.89542 0.68533 0.81835
 H2676 H 0.89105 0.68570 0.75200
 H2677 H 0.86665 0.67506 0.77000
 H2678 H 0.92058 0.69756 0.74981
 H2679 H 0.92415 0.69924 0.81632
 H2680 H 0.95307 0.71323 0.81400
 H2681 H 0.97709 0.72481 0.79560
 H2682 H 0.94967 0.71008 0.74765
 C2683 C 0.89172 0.19369 0.30813
 C2684 C 0.90763 0.19961 0.30092
 C2685 C 0.92007 0.18655 0.29523
 C2686 C 0.91678 0.16789 0.29763
 C2687 C 0.90097 0.16213 0.30481
 C2688 C 0.88808 0.17489 0.30965
 C2689 C 0.93538 0.19230 0.28676
 C2690 C 0.93841 0.21094 0.28382
 C2691 C 0.92639 0.22409 0.29023
 C2692 C 0.91106 0.21833 0.29876
 C2693 C 0.92972 0.24274 0.28756
 C2694 C 0.94445 0.24829 0.27801
 C2695 C 0.95599 0.23527 0.27082
 C2696 C 0.95306 0.21662 0.27410
 H2697 H 0.88190 0.20368 0.31172
 H2698 H 0.92628 0.15772 0.29359
 H2699 H 0.89869 0.14760 0.30628
 H2700 H 0.94472 0.18223 0.28203
 H2701 H 0.90163 0.22839 0.30328
 H2702 H 0.92073 0.25302 0.29250
 H2703 H 0.94647 0.26274 0.27565
 H2704 H 0.96202 0.20649 0.26877
 C2705 C 0.29894 0.31624 0.59509
 C2706 C 0.29102 0.30572 0.58161
 C2707 C 0.29515 0.28694 0.57992
 C2708 C 0.30679 0.27892 0.59185
 C2709 C 0.31432 0.28935 0.60538
 C2710 C 0.31067 0.30815 0.60714
 C2711 C 0.28749 0.27639 0.56641
 C2712 C 0.27551 0.28426 0.55470
 C2713 C 0.27107 0.30294 0.55654
 C2714 C 0.27898 0.31361 0.56989
 C2715 C 0.25874 0.31058 0.54503
 C2716 C 0.25092 0.29983 0.53180
 C2717 C 0.25548 0.28133 0.52968
 C2718 C 0.26782 0.27366 0.54123
 H2719 H 0.29603 0.33070 0.59609
 H2720 H 0.30993 0.26450 0.59085
 H2721 H 0.32284 0.28252 0.61467
 H2722 H 0.29078 0.26201 0.56510
 H2723 H 0.27566 0.32797 0.57123
 H2724 H 0.25511 0.32485 0.54627
 H2725 H 0.24147 0.30607 0.52306
 H2726 H 0.27133 0.25936 0.53987
 C2727 C 0.32190 0.80871 0.09955
 C2728 C 0.31251 0.80157 0.08509
 C2729 C 0.30518 0.81363 0.07244
 C2730 C 0.30786 0.83249 0.07408
 C2731 C 0.31719 0.83946 0.08847
 C2732 C 0.32398 0.82773 0.10154
 C2733 C 0.29500 0.80672 0.05856
 C2734 C 0.29197 0.78790 0.05712
 C2735 C 0.29972 0.77571 0.06935
 C2736 C 0.30995 0.78263 0.08329
 C2737 C 0.29686 0.75683 0.06754
 C2738 C 0.28609 0.75016 0.05400
 C2739 C 0.27789 0.76229 0.04223
 C2740 C 0.28107 0.78113 0.04376
 H2741 H 0.32699 0.79953 0.10959
 H2742 H 0.30250 0.84189 0.06439
 H2743 H 0.31895 0.85412 0.08948
 H2744 H 0.28917 0.81603 0.04905
 H2745 H 0.31567 0.77333 0.09287
 H2746 H 0.30277 0.74726 0.07670
 H2747 H 0.28385 0.73557 0.05301
 H2748 H 0.27500 0.79057 0.03456
 C2749 C 0.81996 0.31948 0.10107
 C2750 C 0.81051 0.31052 0.08765
 C2751 C 0.79220 0.30996 0.08875
 C2752 C 0.78369 0.31803 0.10339
 C2753 C 0.79319 0.32668 0.11680
 C2754 C 0.81140 0.32767 0.11575
 C2755 C 0.78269 0.30127 0.07525
 C2756 C 0.79125 0.29286 0.06079
 C2757 C 0.80958 0.29310 0.05986
 C2758 C 0.81908 0.30208 0.07319
 C2759 C 0.81811 0.28421 0.04566
 C2760 C 0.80859 0.27505 0.03257
 C2761 C 0.79038 0.27491 0.03325
 C2762 C 0.78178 0.28397 0.04736
 H2763 H 0.83396 0.32027 0.09992
 H2764 H 0.76968 0.31758 0.10454
 H2765 H 0.78623 0.33247 0.12811
 H2766 H 0.76864 0.30095 0.07606
 H2767 H 0.83314 0.30236 0.07240
 H2768 H 0.83214 0.28419 0.04476
 H2769 H 0.81549 0.26817 0.02180
 H2770 H 0.76773 0.28375 0.04811
 C2771 C 0.80996 0.81957 0.61639
 C2772 C 0.80298 0.80984 0.60190
 C2773 C 0.80503 0.79065 0.60093
 C2774 C 0.81373 0.78149 0.61464
 C2775 C 0.82025 0.79120 0.62923
 C2776 C 0.81855 0.81036 0.63028
 C2777 C 0.79817 0.78089 0.58642
 C2778 C 0.78883 0.79003 0.57312
 C2779 C 0.78643 0.80919 0.57431
 C2780 C 0.79376 0.81900 0.58852
 C2781 C 0.77647 0.81817 0.56141
 C2782 C 0.76874 0.80825 0.54760
 C2783 C 0.77123 0.78928 0.54618
 C2784 C 0.78148 0.78025 0.55886
 H2785 H 0.80873 0.83433 0.61676
 H2786 H 0.81526 0.76675 0.61422
 H2787 H 0.82640 0.78360 0.63985
 H2788 H 0.79983 0.76617 0.58565
 H2789 H 0.79200 0.83371 0.58935
 H2790 H 0.77443 0.83282 0.56215
 H2791 H 0.76089 0.81544 0.53792
 H2792 H 0.78323 0.76555 0.55795
 C2793 C 0.32614 0.68680 0.40127
 C2794 C 0.31754 0.69571 0.41545
 C2795 C 0.29923 0.69539 0.41641
 C2796 C 0.28983 0.68666 0.40291
 C2797 C 0.29844 0.67834 0.38855
 C2798 C 0.31670 0.67808 0.38760
 C2799 C 0.29058 0.70397 0.43070
 C2800 C 0.29998 0.71343 0.44378
 C2801 C 0.31827 0.71429 0.44254
 C2802 C 0.32696 0.70515 0.42857
 C2803 C 0.32755 0.72449 0.45519
 C2804 C 0.31877 0.73384 0.46887
 C2805 C 0.30065 0.73271 0.47040
 C2806 C 0.29133 0.72235 0.45789
 H2807 H 0.34019 0.68660 0.40099
 H2808 H 0.27577 0.68650 0.40330
 H2809 H 0.29069 0.67232 0.37807
 H2810 H 0.27653 0.70355 0.43150
 H2811 H 0.34100 0.70566 0.42772
 H2812 H 0.34155 0.72541 0.45439
 H2813 H 0.32615 0.74178 0.47841
 H2814 H 0.27730 0.72168 0.45887
 C2815 C 0.34020 0.18434 0.90497
 C2816 C 0.33172 0.19165 0.92007
 C2817 C 0.31994 0.18073 0.92989
 C2818 C 0.31718 0.16254 0.92467
 C2819 C 0.32585 0.15529 0.90975
 C2820 C 0.33734 0.16611 0.89961
 C2821 C 0.31106 0.18818 0.94470
 C2822 C 0.31392 0.20640 0.94989
 C2823 C 0.32604 0.21716 0.94031
 C2824 C 0.33478 0.20976 0.92543
 C2825 C 0.32914 0.23523 0.94569
 C2826 C 0.32011 0.24272 0.96022
 C2827 C 0.30768 0.23237 0.96960
 C2828 C 0.30475 0.21411 0.96441
 H2829 H 0.34878 0.19301 0.89720
 H2830 H 0.30832 0.15390 0.93212
 H2831 H 0.32362 0.14111 0.90623
 H2832 H 0.30187 0.17985 0.95210
 H2833 H 0.34391 0.21812 0.91798
 H2834 H 0.33844 0.24363 0.93855
 H2835 H 0.32261 0.25682 0.96387
 H2836 H 0.29526 0.20595 0.97158
 C2837 C 0.80354 0.68199 0.88164
 C2838 C 0.79882 0.69065 0.89779
 C2839 C 0.81162 0.69938 0.90821
 C2840 C 0.82902 0.69850 0.90279
 C2841 C 0.83367 0.68943 0.88700
 C2842 C 0.82100 0.68142 0.87595
 C2843 C 0.80684 0.70890 0.92384
 C2844 C 0.78944 0.70944 0.92943
 C2845 C 0.77676 0.69993 0.91946
 C2846 C 0.78148 0.69081 0.90360
 C2847 C 0.75950 0.69981 0.92545
 C2848 C 0.75476 0.70931 0.94097
 C2849 C 0.76709 0.71943 0.95057
 C2850 C 0.78447 0.71938 0.94478
 H2851 H 0.79350 0.67611 0.87337
 H2852 H 0.83905 0.70482 0.91078
 H2853 H 0.84729 0.68873 0.88349
 H2854 H 0.81664 0.71590 0.93162
 H2855 H 0.77167 0.68385 0.89579
 H2856 H 0.74965 0.69247 0.91808
 H2857 H 0.74128 0.70922 0.94516
 H2858 H 0.79408 0.72702 0.95222
 C2859 C 0.81630 0.18990 0.38132
 C2860 C 0.80700 0.19851 0.39519
 C2861 C 0.78882 0.20057 0.39388
 C2862 C 0.78031 0.19422 0.37857
 C2863 C 0.78970 0.18594 0.36468
 C2864 C 0.80778 0.18360 0.36591
 C2865 C 0.77949 0.20910 0.40779
 C2866 C 0.78818 0.21597 0.42281
 C2867 C 0.80642 0.21416 0.42394
 C2868 C 0.81567 0.20524 0.41025
 C2869 C 0.81518 0.22157 0.43862
 C2870 C 0.80601 0.23095 0.45195
 C2871 C 0.78790 0.23273 0.45104
 C2872 C 0.77900 0.22499 0.43655
 H2873 H 0.83016 0.18796 0.38266
 H2874 H 0.76640 0.19581 0.37727
 H2875 H 0.78279 0.18156 0.35287
 H2876 H 0.76554 0.21062 0.40681
 H2877 H 0.82964 0.20380 0.41119
 H2878 H 0.82914 0.22036 0.43967
 H2879 H 0.81310 0.23679 0.46305
 H2880 H 0.76504 0.22652 0.43568
 C2881 C 0.68989 0.32499 0.39132
 C2882 C 0.69787 0.31751 0.40647
 C2883 C 0.68759 0.30877 0.41964
 C2884 C 0.66955 0.30825 0.41780
 C2885 C 0.66171 0.31600 0.40287
 C2886 C 0.67174 0.32417 0.38928
 C2887 C 0.69551 0.30048 0.43435
 C2888 C 0.71358 0.30088 0.43613
 C2889 C 0.72387 0.31021 0.42338
 C2890 C 0.71595 0.31842 0.40857
 C2891 C 0.74195 0.31082 0.42553
 C2892 C 0.74978 0.30170 0.43980
 C2893 C 0.73966 0.29169 0.45201
 C2894 C 0.72153 0.29168 0.45028
 H2895 H 0.69790 0.33105 0.38095
 H2896 H 0.66148 0.30182 0.42790
 H2897 H 0.64770 0.31562 0.40204
 H2898 H 0.68762 0.29349 0.44426
 H2899 H 0.72385 0.32530 0.39860
 H2900 H 0.75004 0.31803 0.41598
 H2901 H 0.76378 0.30187 0.44090
 H2902 H 0.71360 0.28418 0.45978
 C2903 C 0.68757 0.81833 0.88805
 C2904 C 0.69771 0.81005 0.90131
 C2905 C 0.71597 0.81170 0.90059
 C2906 C 0.72379 0.82125 0.88648
 C2907 C 0.71365 0.82913 0.87319
 C2908 C 0.69543 0.82794 0.87384
 C2909 C 0.72617 0.80367 0.91388
 C2910 C 0.71838 0.79370 0.92775
 C2911 C 0.70014 0.79170 0.92833
 C2912 C 0.68990 0.80006 0.91521
 C2913 C 0.69249 0.78125 0.94196
 C2914 C 0.70280 0.77282 0.95486
 C2915 C 0.72090 0.77496 0.95453
 C2916 C 0.72859 0.78551 0.94095
 H2917 H 0.67356 0.81740 0.88890
 H2918 H 0.73778 0.82247 0.88562
 H2919 H 0.72016 0.83598 0.86222
 H2920 H 0.74017 0.80504 0.91334
 H2921 H 0.67591 0.79863 0.91572
 H2922 H 0.67854 0.77950 0.94259
 H2923 H 0.69660 0.76476 0.96521
 H2924 H 0.74257 0.78705 0.94045
 C2925 C 0.20956 0.30643 0.89998
 C2926 C 0.21848 0.29786 0.91400
 C2927 C 0.21749 0.27866 0.91595
 C2928 C 0.20793 0.26832 0.90370
 C2929 C 0.19930 0.27689 0.88970
 C2930 C 0.19983 0.29602 0.88776
 C2931 C 0.22609 0.27005 0.93007
 C2932 C 0.23589 0.28034 0.94217
 C2933 C 0.23720 0.29951 0.94007
 C2934 C 0.22836 0.30818 0.92609
 C2935 C 0.24740 0.30965 0.95198
 C2936 C 0.25622 0.30089 0.96582
 C2937 C 0.25476 0.28189 0.96816
 C2938 C 0.24452 0.27171 0.95628
 H2939 H 0.21001 0.32118 0.89877
 H2940 H 0.20719 0.25357 0.90490
 H2941 H 0.19231 0.26845 0.88027
 H2942 H 0.22520 0.25532 0.93159
 H2943 H 0.22926 0.32290 0.92456
 H2944 H 0.24861 0.32434 0.95056
 H2945 H 0.26402 0.30902 0.97484
 H2946 H 0.24347 0.25702 0.95784
 C2947 C 0.19457 0.80543 0.40852
 C2948 C 0.20525 0.79731 0.42135
 C2949 C 0.20653 0.77806 0.42217
 C2950 C 0.19744 0.76729 0.40986
 C2951 C 0.18733 0.77551 0.39670
 C2952 C 0.18572 0.79468 0.39585
 C2953 C 0.21700 0.76988 0.43514
 C2954 C 0.22660 0.78075 0.44697
 C2955 C 0.22577 0.80003 0.44579
 C2956 C 0.21489 0.80819 0.43316
 C2957 C 0.23592 0.81081 0.45722
 C2958 C 0.24669 0.80256 0.46982
 C2959 C 0.24719 0.78345 0.47141
 C2960 C 0.23712 0.77262 0.45992
 H2961 H 0.19324 0.82018 0.40846
 H2962 H 0.19842 0.75251 0.41018
 H2963 H 0.18108 0.76678 0.38697
 H2964 H 0.21784 0.75509 0.43590
 H2965 H 0.21411 0.82298 0.43236
 H2966 H 0.23553 0.82560 0.45641
 H2967 H 0.25434 0.81112 0.47860
 H2968 H 0.23763 0.75783 0.46093
 C2969 C 0.68450 0.68585 0.60615
 C2970 C 0.69314 0.69790 0.59441
 C2971 C 0.69143 0.71703 0.59687
 C2972 C 0.68179 0.72379 0.61137
 C2973 C 0.67346 0.71180 0.62304
 C2974 C 0.67427 0.69274 0.62036
 C2975 C 0.69928 0.72914 0.58478
 C2976 C 0.70911 0.72245 0.57034
 C2977 C 0.71141 0.70336 0.56819
 C2978 C 0.70329 0.69120 0.58013
 C2979 C 0.72180 0.69678 0.55409
 C2980 C 0.72969 0.70896 0.54218
 C2981 C 0.72704 0.72791 0.54389
 C2982 C 0.71671 0.73458 0.55801
 H2983 H 0.68533 0.67123 0.60392
 H2984 H 0.68060 0.73839 0.61364
 H2985 H 0.66621 0.71754 0.63419
 H2986 H 0.69771 0.74378 0.58659
 H2987 H 0.70483 0.67657 0.57829
 H2988 H 0.72382 0.68222 0.55228
 H2989 H 0.73760 0.70353 0.53136
 H2990 H 0.71479 0.74920 0.55954
 C2991 C 0.69610 0.17191 0.09032
 C2992 C 0.70403 0.18104 0.07586
 C2993 C 0.69356 0.18934 0.06270
 C2994 C 0.67551 0.18774 0.06370
 C2995 C 0.66777 0.17866 0.07801
 C2996 C 0.67788 0.17112 0.09173
 C2997 C 0.70122 0.19948 0.04891
 C2998 C 0.71925 0.20145 0.04800
 C2999 C 0.72988 0.19257 0.06062
 C3000 C 0.72220 0.18244 0.07455
 C3001 C 0.74800 0.19425 0.05919
 C3002 C 0.75542 0.20502 0.04568
 C3003 C 0.74482 0.21450 0.03365
 C3004 C 0.72676 0.21244 0.03476
 H3005 H 0.70403 0.16614 0.10080
 H3006 H 0.66734 0.19380 0.05358
 H3007 H 0.65376 0.17781 0.07851
 H3008 H 0.69311 0.20613 0.03906
 H3009 H 0.73030 0.17594 0.08448
 H3010 H 0.75639 0.18744 0.06863
 H3011 H 0.76939 0.20641 0.04498
 H3012 H 0.71853 0.21950 0.02531
 C3013 C 0.17391 0.68765 0.10761
 C3014 C 0.18227 0.69329 0.09185
 C3015 C 0.18976 0.68010 0.08026
 C3016 C 0.18822 0.66148 0.08432
 C3017 C 0.17984 0.65598 0.10002
 C3018 C 0.17290 0.66899 0.11200
 C3019 C 0.19902 0.68575 0.06504
 C3020 C 0.20092 0.70443 0.06131
 C3021 C 0.19293 0.71760 0.07257
 C3022 C 0.18364 0.71195 0.08776
 C3023 C 0.19466 0.73624 0.06863
 C3024 C 0.20466 0.74183 0.05398
 C3025 C 0.21319 0.72888 0.04311
 C3026 C 0.21103 0.71016 0.04671
 H3027 H 0.16882 0.69787 0.11680
 H3028 H 0.19373 0.65118 0.07550
 H3029 H 0.17896 0.64150 0.10291
 H3030 H 0.20503 0.67564 0.05633
 H3031 H 0.17778 0.72207 0.09658
 H3032 H 0.18854 0.74652 0.07705
 H3033 H 0.20613 0.75633 0.05148
 H3034 H 0.21741 0.70005 0.03829
 C3035 C 0.17333 0.17993 0.59451
 C3036 C 0.18335 0.18900 0.58151
 C3037 C 0.20166 0.18834 0.58239
 C3038 C 0.20962 0.17900 0.59644
 C3039 C 0.19959 0.17027 0.60943
 C3040 C 0.18135 0.17039 0.60855
 C3041 C 0.21175 0.19705 0.56928
 C3042 C 0.20379 0.20671 0.55541
 C3043 C 0.18548 0.20775 0.55472
 C3044 C 0.17538 0.19875 0.56767
 C3045 C 0.17759 0.21786 0.54111
 C3046 C 0.18772 0.22687 0.52832
 C3047 C 0.20591 0.22567 0.52871
 C3048 C 0.21386 0.21549 0.54228
 H3049 H 0.15931 0.18008 0.59354
 H3050 H 0.22363 0.17853 0.59743
 H3051 H 0.20619 0.16352 0.62031
 H3052 H 0.22579 0.19640 0.56993
 H3053 H 0.16134 0.19942 0.56703
 H3054 H 0.16359 0.21887 0.54039
 H3055 H 0.18130 0.23460 0.51795
 H3056 H 0.22789 0.21466 0.54280
   
