data_POSCAR
  _audit_creation_date              2014-09-24
  _audit_creation_method            'ToBaCCo'
  _symmetry_space_group_name_H-M    'P1'
  _symmetry_Int_Tables_number       1
  _symmetry_cell_setting            triclinic
  loop_
  _symmetry_equiv_pos_as_xyz
 x,y,z
_cell_length_a 78.7920
_cell_length_b 78.7844
_cell_length_c 78.8078
_cell_angle_alpha 90.031400
_cell_angle_beta 89.998600
_cell_angle_gamma 90.007700
loop_
  _atom_site_label
  _atom_site_type_symbol
  _atom_site_fract_x
  _atom_site_fract_y
  _atom_site_fract_z
C1 C 0.19549 0.21132 0.21935
 N2 N 0.19812 0.22194 0.20606
 C3 C 0.21139 0.21929 0.19541
 N4 N 0.22203 0.20601 0.19805
 C5 C 0.21941 0.19539 0.21134
 N6 N 0.20613 0.19804 0.22199
 C7 C 0.69547 0.71161 0.71930
 N8 N 0.69814 0.72227 0.70605
 C9 C 0.71141 0.71963 0.69540
 N10 N 0.72202 0.70631 0.69800
 C11 C 0.71936 0.69565 0.71125
 N12 N 0.70608 0.69830 0.72190
 C13 C 0.30407 0.78899 0.71958
 N14 N 0.29345 0.80229 0.72220
 C15 C 0.28016 0.80492 0.71156
 N16 N 0.27750 0.79424 0.69830
 C17 C 0.28813 0.78094 0.69568
 N18 N 0.30141 0.77831 0.70632
 C19 C 0.80501 0.28850 0.21959
 N20 N 0.80239 0.27783 0.20632
 C21 C 0.78911 0.28044 0.19566
 N22 N 0.77846 0.29373 0.19828
 C23 C 0.78108 0.30439 0.21155
 N24 N 0.79436 0.30178 0.22220
 C25 C 0.80461 0.71174 0.28052
 N26 N 0.79396 0.69846 0.27792
 C27 C 0.78069 0.69584 0.28857
 N28 N 0.77807 0.70651 0.30184
 C29 C 0.78872 0.71980 0.30445
 N30 N 0.80199 0.72241 0.29379
 C31 C 0.30465 0.21107 -0.21980
 N32 N 0.30198 0.22173 -0.20653
 C33 C 0.28867 0.21910 -0.19592
 N34 N 0.27804 0.20581 -0.19857
 C35 C 0.28070 0.19515 -0.21184
 N36 N 0.29401 0.19778 -0.22245
 C37 C 0.69584 0.28858 -0.21928
 N38 N 0.69850 0.27794 -0.20602
 C39 C 0.71181 0.28057 -0.19540
 N40 N 0.72244 0.29386 -0.19804
 C41 C 0.71978 0.30451 -0.21131
 N42 N 0.70647 0.30187 -0.22192
 C43 C 0.19574 0.78879 0.28041
 N44 N 0.20639 0.80207 0.27781
 C45 C 0.21965 0.80471 0.28848
 N46 N 0.22225 0.79407 0.30177
 C47 C 0.21159 0.78079 0.30437
 N48 N 0.19834 0.77816 0.29370
 C49 C 0.46138 0.44535 0.46969
 N50 N 0.44810 0.45600 0.47230
 C51 C 0.44548 0.46928 0.46166
 N52 N 0.45615 0.47191 0.44840
 C53 C 0.46943 0.46126 0.44578
 N54 N 0.47205 0.44798 0.45643
 C55 C -0.03863 -0.05423 0.96917
 N56 N -0.02795 -0.05156 0.95592
 C57 C -0.03057 -0.03827 0.94530
 N58 N -0.04387 -0.02764 0.94793
 C59 C -0.05455 -0.03030 0.96118
 N60 N -0.05192 -0.04360 0.97179
 C61 C 1.03831 0.55485 0.96948
 N62 N 1.02766 0.55220 0.95621
 C63 C 1.03027 0.53890 0.94558
 N64 N 1.04355 0.52825 0.94821
 C65 C 1.05421 0.53090 0.96148
 N66 N 1.05159 0.54420 0.97211
 C67 C 0.53889 0.05416 0.46959
 N68 N 0.52824 0.05150 0.45632
 C69 C 0.53090 0.03822 0.44566
 N70 N 0.54421 0.02761 0.44828
 C71 C 0.55486 0.03028 0.46155
 N72 N 0.55220 0.04355 0.47221
 C73 C -0.03882 0.05459 0.53065
 N74 N -0.05211 0.04394 0.52804
 C75 C -0.05473 0.03065 0.53867
 N76 N -0.04405 0.02801 0.55192
 C77 C -0.03076 0.03865 0.55454
 N78 N -0.02814 0.05194 0.54390
 C79 C 0.46134 0.55463 0.03067
 N80 N 0.44806 0.54399 0.02801
 C81 C 0.44541 0.53069 0.03862
 N82 N 0.45605 0.52803 0.05189
 C83 C 0.46934 0.53867 0.05456
 N84 N 0.47198 0.55197 0.04395
 C85 C 0.53863 -0.05489 0.03053
 N86 N 0.52801 -0.05226 0.04383
 C87 C 0.53067 -0.03900 0.05450
 N88 N 0.54396 -0.02836 0.05187
 C89 C 0.55458 -0.03098 0.03858
 N90 N 0.55192 -0.04425 0.02791
 C91 C 1.03827 0.44510 0.53026
 N92 N 1.05155 0.45576 0.52763
 C93 C 1.05418 0.46904 0.53829
 N94 N 1.04354 0.47165 0.55158
 C95 C 1.03027 0.46099 0.55421
 N96 N 1.02764 0.44771 0.54355
 C97 C 0.40089 0.00754 0.22732
 H98 H 0.40158 0.01905 0.23478
 C99 C 0.41196 0.00514 0.21369
 H100 H 0.42118 0.01485 0.21057
 C101 C 0.38821 -0.01933 0.22239
 H102 H 0.37914 -0.02895 0.22597
 C103 C 0.39905 -0.02223 0.20866
 H104 H 0.39817 -0.03401 0.20161
 N105 N 0.38919 -0.00454 0.23128
 C106 C 0.34902 0.02252 0.25815
 H107 H 0.34833 0.01507 0.26966
 C108 C 0.33798 0.03618 0.25577
 H109 H 0.32877 0.03932 0.26548
 C110 C 0.36169 0.02740 0.23129
 H111 H 0.37074 0.02379 0.22166
 C112 C 0.35088 0.04115 0.22840
 H113 H 0.35176 0.04819 0.21662
 Zn114 Zn 0.37493 -0.00041 0.25018
 N115 N 0.36070 0.01852 0.24607
 C116 C 0.38826 0.01848 0.27797
 N117 N 0.38919 0.00368 0.26909
 C118 C 0.40084 -0.00843 0.27306
 C119 C 0.41192 -0.00607 0.28669
 C120 C 0.39911 0.02135 0.29170
 C121 C 0.34896 -0.02326 0.24217
 C122 C 0.33787 -0.03689 0.24454
 C123 C 0.35071 -0.04189 0.27194
 C124 C 0.36157 -0.02817 0.26906
 N125 N 0.36064 -0.01930 0.25427
 H126 H 0.37922 0.02813 0.27438
 H127 H 0.40149 -0.01995 0.26560
 H128 H 0.42111 -0.01581 0.28982
 H129 H 0.39827 0.03314 0.29874
 H130 H 0.34831 -0.01581 0.23066
 H131 H 0.32868 -0.04002 0.23481
 H132 H 0.35155 -0.04893 0.28371
 H133 H 0.37062 -0.02459 0.27870
 C134 C 0.33896 0.04559 0.24077
 C135 C 0.41099 -0.00986 0.20426
 C136 C 0.33880 -0.04631 0.25954
 C137 C 0.41100 0.00895 0.29611
 C138 C 0.09945 -0.00779 0.72704
 H139 H 0.09877 -0.01928 0.73452
 C140 C 0.08836 -0.00544 0.71341
 H141 H 0.07913 -0.01516 0.71033
 C142 C 0.11211 0.01906 0.72203
 H143 H 0.12119 0.02870 0.72558
 C144 C 0.10125 0.02192 0.70831
 H145 H 0.10212 0.03368 0.70124
 N146 N 0.11115 0.00430 0.73095
 C147 C 0.15135 -0.02265 0.75784
 H148 H 0.15205 -0.01518 0.76934
 C149 C 0.16240 -0.03632 0.75548
 H150 H 0.17160 -0.03944 0.76519
 C151 C 0.13868 -0.02761 0.73099
 H152 H 0.12962 -0.02403 0.72136
 C153 C 0.14949 -0.04137 0.72811
 H154 H 0.14861 -0.04844 0.71635
 Zn155 Zn 0.12543 0.00023 0.74985
 N156 N 0.13966 -0.01870 0.74576
 C157 C 0.11214 -0.01859 0.77768
 N158 N 0.11118 -0.00382 0.76877
 C159 C 0.09950 0.00828 0.77272
 C160 C 0.08843 0.00594 0.78636
 C161 C 0.10130 -0.02144 0.79142
 C162 C 0.15138 0.02308 0.74181
 C163 C 0.16246 0.03672 0.74416
 C164 C 0.14960 0.04180 0.77154
 C165 C 0.13875 0.02807 0.76868
 N166 N 0.13970 0.01915 0.75391
 H167 H 0.12119 -0.02824 0.77411
 H168 H 0.09883 0.01978 0.76524
 H169 H 0.07923 0.01567 0.78947
 H170 H 0.10216 -0.03320 0.79849
 H171 H 0.15204 0.01560 0.73031
 H172 H 0.17166 0.03983 0.73443
 H173 H 0.14874 0.04888 0.78330
 H174 H 0.12970 0.02450 0.77832
 C175 C 0.16142 -0.04578 0.74049
 C176 C 0.08931 0.00954 0.70395
 C177 C 0.16152 0.04619 0.75914
 C178 C 0.08938 -0.00904 0.79582
 C179 C 0.59917 0.49191 0.22726
 H180 H 0.59850 0.48041 0.23472
 C181 C 0.58809 0.49428 0.21363
 H182 H 0.57889 0.48455 0.21051
 C183 C 0.61180 0.51879 0.22233
 H184 H 0.62086 0.52843 0.22591
 C185 C 0.60096 0.52167 0.20860
 H186 H 0.60182 0.53344 0.20156
 N187 N 0.61085 0.50401 0.23122
 C188 C 0.65110 0.47710 0.25808
 H189 H 0.65178 0.48458 0.26958
 C190 C 0.66218 0.46347 0.25570
 H191 H 0.67141 0.46038 0.26541
 C192 C 0.63842 0.47212 0.23124
 H193 H 0.62935 0.47568 0.22161
 C194 C 0.64927 0.45840 0.22835
 H195 H 0.64840 0.45133 0.21658
 Zn196 Zn 0.62512 0.49993 0.25012
 N197 N 0.63939 0.48103 0.24601
 C198 C 0.61187 0.48105 0.27793
 N199 N 0.61088 0.49583 0.26903
 C200 C 0.59917 0.50790 0.27299
 C201 C 0.58811 0.50551 0.28664
 C202 C 0.60104 0.47816 0.29167
 C203 C 0.65105 0.52281 0.24213
 C204 C 0.66210 0.53647 0.24449
 C205 C 0.64920 0.54153 0.27185
 C206 C 0.63838 0.52778 0.26898
 N207 N 0.63936 0.51886 0.25421
 H208 H 0.62094 0.47143 0.27435
 H209 H 0.59847 0.51940 0.26553
 H210 H 0.57889 0.51522 0.28976
 H211 H 0.60194 0.46640 0.29872
 H212 H 0.65174 0.51533 0.23063
 H213 H 0.67131 0.53959 0.23477
 H214 H 0.64832 0.54860 0.28361
 H215 H 0.62932 0.52420 0.27861
 C216 C 0.66122 0.45402 0.24071
 C217 C 0.58904 0.50928 0.20420
 C218 C 0.66113 0.54593 0.25947
 C219 C 0.58910 0.49053 0.29608
 C220 C 0.90059 0.50759 0.72710
 H221 H 0.90125 0.51912 0.73453
 C222 C 0.91166 0.50520 0.71346
 H223 H 0.92086 0.51493 0.71032
 C224 C 0.88797 0.48069 0.72221
 H225 H 0.87892 0.47106 0.72580
 C226 C 0.89881 0.47779 0.70848
 H227 H 0.89795 0.46600 0.70145
 N228 N 0.88891 0.49550 0.73107
 C229 C 0.84867 0.52251 0.75788
 H230 H 0.84798 0.51508 0.76940
 C231 C 0.83762 0.53616 0.75548
 H232 H 0.82841 0.53931 0.76519
 C233 C 0.86135 0.52739 0.73102
 H234 H 0.87042 0.52379 0.72140
 C235 C 0.85053 0.54113 0.72811
 H236 H 0.85141 0.54817 0.71634
 Zn237 Zn 0.87464 0.49964 0.74996
 N238 N 0.86037 0.51853 0.74581
 C239 C 0.88790 0.51861 0.77772
 N240 N 0.88888 0.50380 0.76886
 C241 C 0.90057 0.49173 0.77286
 C242 C 0.91163 0.49415 0.78650
 C243 C 0.89872 0.52154 0.79146
 C244 C 0.84872 0.47670 0.74200
 C245 C 0.83767 0.46305 0.74440
 C246 C 0.85053 0.45813 0.77180
 C247 C 0.86135 0.47188 0.76889
 N248 N 0.86039 0.48072 0.75409
 H249 H 0.87883 0.52823 0.77411
 H250 H 0.90126 0.48020 0.76543
 H251 H 0.92084 0.48445 0.78965
 H252 H 0.89784 0.53333 0.79848
 H253 H 0.84805 0.48413 0.73047
 H254 H 0.82848 0.45988 0.73467
 H255 H 0.85139 0.45112 0.78359
 H256 H 0.87039 0.47550 0.77853
 C257 C 0.83860 0.54557 0.74048
 C258 C 0.91072 0.49018 0.70405
 C259 C 0.83863 0.45366 0.75942
 C260 C 0.91065 0.50918 0.79590
 C261 C 0.22691 0.40088 0.00773
 H262 H 0.23438 0.40155 0.01923
 C263 C 0.21327 0.41196 0.00537
 H264 H 0.21016 0.42116 0.01510
 C265 C 0.22194 0.38824 -0.01915
 H266 H 0.22551 0.37918 -0.02879
 C267 C 0.20821 0.39909 -0.02201
 H268 H 0.20115 0.39823 -0.03377
 N269 N 0.23085 0.38919 -0.00437
 C270 C 0.25776 0.34897 0.02253
 H271 H 0.26926 0.34829 0.01505
 C272 C 0.25539 0.33790 0.03616
 H273 H 0.26512 0.32869 0.03927
 C274 C 0.23090 0.36162 0.02750
 H275 H 0.22126 0.37069 0.02394
 C276 C 0.22803 0.35079 0.04123
 H277 H 0.21626 0.35166 0.04830
 Zn278 Zn 0.24976 0.37493 -0.00030
 N279 N 0.24567 0.36066 0.01859
 C280 C 0.27757 0.38822 0.01858
 N281 N 0.26867 0.38919 0.00380
 C282 C 0.27262 0.40090 -0.00827
 C283 C 0.28625 0.41197 -0.00588
 C284 C 0.29130 0.39906 0.02147
 C285 C 0.24177 0.34899 -0.02320
 C286 C 0.24414 0.33793 -0.03684
 C287 C 0.27152 0.35083 -0.04187
 C288 C 0.26863 0.36166 -0.02812
 N289 N 0.25385 0.36069 -0.01923
 H290 H 0.27400 0.37915 0.02820
 H291 H 0.26515 0.40158 -0.01976
 H292 H 0.28937 0.42119 -0.01559
 H293 H 0.29836 0.39818 0.03323
 H294 H 0.23026 0.34830 -0.01573
 H295 H 0.23443 0.32871 -0.03997
 H296 H 0.28328 0.35171 -0.04892
 H297 H 0.27826 0.37073 -0.02454
 C298 C 0.24041 0.33886 0.04561
 C299 C 0.20382 0.41101 -0.00961
 C300 C 0.25914 0.33890 -0.04628
 C301 C 0.29570 0.41100 0.00911
 C302 C 0.72752 0.09869 -0.00801
 H303 H 0.73497 0.09802 -0.01952
 C304 C 0.71387 0.08763 -0.00564
 H305 H 0.71073 0.07843 -0.01537
 C306 C 0.72262 0.11132 0.01888
 H307 H 0.72622 0.12036 0.02853
 C308 C 0.70888 0.10049 0.02176
 H309 H 0.70183 0.10135 0.03354
 N310 N 0.73150 0.11036 0.00409
 C311 C 0.75840 0.15058 -0.02284
 H312 H 0.76992 0.15124 -0.01539
 C313 C 0.75603 0.16166 -0.03646
 H314 H 0.76575 0.17087 -0.03957
 C315 C 0.73151 0.13795 -0.02776
 H316 H 0.72188 0.12890 -0.02418
 C317 C 0.72863 0.14880 -0.04147
 H318 H 0.71685 0.14795 -0.04851
 Zn319 Zn 0.75041 0.12462 0.00000
 N320 N 0.74631 0.13890 -0.01888
 C321 C 0.77819 0.11133 -0.01892
 N322 N 0.76932 0.11036 -0.00413
 C323 C 0.77329 0.09866 0.00794
 C324 C 0.78693 0.08760 0.00554
 C325 C 0.79193 0.10050 -0.02183
 C326 C 0.74244 0.15055 0.02291
 C327 C 0.74483 0.16161 0.03655
 C328 C 0.77222 0.14873 0.04154
 C329 C 0.76932 0.13790 0.02780
 N330 N 0.75453 0.13886 0.01892
 H331 H 0.77460 0.12040 -0.02854
 H332 H 0.76584 0.09798 0.01945
 H333 H 0.79007 0.07839 0.01524
 H334 H 0.79897 0.10138 -0.03360
 H335 H 0.73093 0.15123 0.01546
 H336 H 0.73511 0.17081 0.03970
 H337 H 0.78399 0.14786 0.04858
 H338 H 0.77895 0.12884 0.02420
 C339 C 0.74102 0.16072 -0.04588
 C340 C 0.70445 0.08858 0.00937
 C341 C 0.75984 0.16065 0.04597
 C342 C 0.79635 0.08857 -0.00947
 C343 C 0.22690 0.59908 0.49196
 H344 H 0.23437 0.59843 0.48047
 C345 C 0.21326 0.58800 0.49430
 H346 H 0.21015 0.57880 0.48456
 C347 C 0.22193 0.61170 0.51885
 H348 H 0.22549 0.62075 0.52850
 C349 C 0.20820 0.60085 0.52170
 H350 H 0.20113 0.60169 0.53346
 N351 N 0.23084 0.61076 0.50407
 C352 C 0.25777 0.65099 0.47718
 H353 H 0.26927 0.65165 0.48465
 C354 C 0.25541 0.66206 0.46355
 H355 H 0.26514 0.67126 0.46044
 C356 C 0.23089 0.63835 0.47223
 H357 H 0.22124 0.62930 0.47579
 C358 C 0.22802 0.64920 0.45850
 H359 H 0.21625 0.64834 0.45144
 Zn360 Zn 0.24975 0.62503 0.50002
 N361 N 0.24567 0.63930 0.48113
 C362 C 0.27757 0.61174 0.48116
 N363 N 0.26867 0.61079 0.49594
 C364 C 0.27262 0.59910 0.50803
 C365 C 0.28627 0.58804 0.50566
 C366 C 0.29131 0.60091 0.47829
 C367 C 0.24170 0.65096 0.52291
 C368 C 0.24405 0.66202 0.53656
 C369 C 0.27145 0.64918 0.54159
 C370 C 0.26859 0.63834 0.52785
 N371 N 0.25381 0.63929 0.51895
 H372 H 0.27399 0.62080 0.47153
 H373 H 0.26515 0.59843 0.51953
 H374 H 0.28938 0.57884 0.51538
 H375 H 0.29837 0.60177 0.46652
 H376 H 0.23020 0.65162 0.51545
 H377 H 0.23431 0.67121 0.53969
 H378 H 0.28322 0.64833 0.54865
 H379 H 0.27824 0.62930 0.52426
 C380 C 0.24042 0.66111 0.45411
 C381 C 0.20381 0.58893 0.50929
 C382 C 0.25904 0.66108 0.54601
 C383 C 0.29571 0.58899 0.49067
 C384 C 0.72728 0.90160 0.50808
 H385 H 0.73473 0.90229 0.51959
 C386 C 0.71363 0.91265 0.50570
 H387 H 0.71048 0.92184 0.51543
 C388 C 0.72240 0.88895 0.48120
 H389 H 0.72600 0.87990 0.47156
 C390 C 0.70865 0.89976 0.47831
 H391 H 0.70161 0.89889 0.46653
 N392 N 0.73127 0.88992 0.49599
 C393 C 0.75816 0.84971 0.52293
 H394 H 0.76967 0.84904 0.51548
 C395 C 0.75578 0.83863 0.53655
 H396 H 0.76550 0.82942 0.53967
 C397 C 0.73129 0.86236 0.52787
 H398 H 0.72166 0.87142 0.52430
 C399 C 0.72840 0.85151 0.54159
 H400 H 0.71663 0.85237 0.54864
 Zn401 Zn 0.75019 0.87567 0.50009
 N402 N 0.74608 0.86140 0.51898
 C403 C 0.77798 0.88896 0.51900
 N404 N 0.76909 0.88993 0.50422
 C405 C 0.77306 0.90163 0.49215
 C406 C 0.78671 0.91269 0.49454
 C407 C 0.79172 0.89979 0.52190
 C408 C 0.74222 0.84972 0.47721
 C409 C 0.74460 0.83866 0.46357
 C410 C 0.77198 0.85155 0.45855
 C411 C 0.76909 0.86239 0.47229
 N412 N 0.75430 0.86142 0.48118
 H413 H 0.77439 0.87990 0.52862
 H414 H 0.76561 0.90231 0.48064
 H415 H 0.78984 0.92190 0.48483
 H416 H 0.79877 0.89891 0.53367
 H417 H 0.73071 0.84904 0.48467
 H418 H 0.73488 0.82945 0.46044
 H419 H 0.78375 0.85243 0.45150
 H420 H 0.77872 0.87145 0.47588
 C421 C 0.74078 0.83958 0.54598
 C422 C 0.70421 0.91168 0.49070
 C423 C 0.75960 0.83962 0.45414
 C424 C 0.79614 0.91172 0.50953
 C425 C 0.00772 0.22737 0.40090
 H426 H 0.01924 0.23481 0.40156
 C427 C 0.00533 0.21374 0.41197
 H428 H 0.01505 0.21061 0.42117
 C429 C -0.01917 0.22246 0.38826
 H430 H -0.02880 0.22605 0.37921
 C431 C -0.02207 0.20874 0.39911
 H432 H -0.03385 0.20170 0.39825
 N433 N -0.00437 0.23134 0.38921
 C434 C 0.02267 0.25818 0.34904
 H435 H 0.01523 0.26971 0.34836
 C436 C 0.03632 0.25578 0.33799
 H437 H 0.03947 0.26550 0.32879
 C438 C 0.02753 0.23129 0.36167
 H439 H 0.02392 0.22166 0.37071
 C440 C 0.04127 0.22839 0.35085
 H441 H 0.04830 0.21660 0.35171
 Zn442 Zn -0.00024 0.25023 0.37495
 N443 N 0.01867 0.24610 0.36071
 C444 C 0.01866 0.27802 0.38826
 N445 N 0.00386 0.26915 0.38920
 C446 C -0.00824 0.27314 0.40086
 C447 C -0.00587 0.28679 0.41193
 C448 C 0.02155 0.29176 0.39910
 C449 C -0.02311 0.24221 0.34901
 C450 C -0.03674 0.24458 0.33794
 C451 C -0.04173 0.27200 0.35076
 C452 C -0.02801 0.26912 0.36161
 N453 N -0.01914 0.25432 0.36068
 H454 H 0.02830 0.27441 0.37922
 H455 H -0.01977 0.26570 0.40152
 H456 H -0.01560 0.28993 0.42112
 H457 H 0.03333 0.29879 0.39825
 H458 H -0.01567 0.23069 0.34836
 H459 H -0.03988 0.23484 0.32875
 H460 H -0.04877 0.28378 0.35160
 H461 H -0.02442 0.27878 0.37065
 C462 C 0.04572 0.24077 0.33894
 C463 C -0.00968 0.20432 0.41102
 C464 C -0.04616 0.25959 0.33886
 C465 C 0.00915 0.29620 0.41100
 C466 C -0.00786 0.72706 0.09866
 H467 H -0.01937 0.73451 0.09801
 C468 C -0.00551 0.71341 0.08760
 H469 H -0.01525 0.71027 0.07842
 C470 C 0.01905 0.72216 0.11124
 H471 H 0.02871 0.72576 0.12027
 C472 C 0.02191 0.70842 0.10040
 H473 H 0.03369 0.70137 0.10124
 N474 N 0.00426 0.73104 0.11031
 C475 C -0.02266 0.75796 0.15055
 H476 H -0.01519 0.76947 0.15121
 C477 C -0.03628 0.75559 0.16163
 H478 H -0.03940 0.76532 0.17083
 C479 C -0.02760 0.73107 0.13792
 H480 H -0.02403 0.72142 0.12886
 C481 C -0.04132 0.72819 0.14877
 H482 H -0.04838 0.71642 0.14791
 Zn483 Zn 0.00018 0.74996 0.12458
 N484 N -0.01871 0.74586 0.13886
 C485 C -0.01874 0.77774 0.11132
 N486 N -0.00395 0.76886 0.11033
 C487 C 0.00812 0.77284 0.09864
 C488 C 0.00572 0.78648 0.08759
 C489 C -0.02165 0.79147 0.10050
 C490 C 0.02310 0.74198 0.15047
 C491 C 0.03674 0.74437 0.16153
 C492 C 0.04172 0.77177 0.14868
 C493 C 0.02798 0.76887 0.13785
 N494 N 0.01911 0.75407 0.13881
 H495 H -0.02837 0.77414 0.12038
 H496 H 0.01963 0.76539 0.09795
 H497 H 0.01543 0.78962 0.07838
 H498 H -0.03343 0.79852 0.10139
 H499 H 0.01565 0.73046 0.15115
 H500 H 0.03989 0.73465 0.17072
 H501 H 0.04875 0.78355 0.14781
 H502 H 0.02437 0.77850 0.12881
 C503 C -0.04572 0.74059 0.16069
 C504 C 0.00950 0.70399 0.08851
 C505 C 0.04616 0.75939 0.16058
 C506 C -0.00928 0.79590 0.08857
 C507 C 0.49189 0.22684 0.59951
 H508 H 0.48036 0.23427 0.59883
 C509 C 0.49429 0.21320 0.58844
 H510 H 0.48458 0.21005 0.57923
 C511 C 0.51877 0.22197 0.61216
 H512 H 0.52839 0.22558 0.62121
 C513 C 0.52168 0.20824 0.60132
 H514 H 0.53347 0.20121 0.60219
 N515 N 0.50396 0.23083 0.61119
 C516 C 0.47693 0.25771 0.65138
 H517 H 0.48438 0.26923 0.65207
 C518 C 0.46328 0.25532 0.66244
 H519 H 0.46014 0.26504 0.67164
 C520 C 0.47205 0.23082 0.63873
 H521 H 0.47565 0.22119 0.62967
 C522 C 0.45831 0.22792 0.64955
 H523 H 0.45127 0.21614 0.64867
 Zn524 Zn 0.49983 0.24974 0.62545
 N525 N 0.48092 0.24562 0.63970
 C526 C 0.48092 0.27752 0.61215
 N527 N 0.49571 0.26864 0.61119
 C528 C 0.50779 0.27260 0.59951
 C529 C 0.50541 0.28624 0.58844
 C530 C 0.47803 0.29125 0.60132
 C531 C 0.52272 0.24181 0.65138
 C532 C 0.53638 0.24421 0.66243
 C533 C 0.54134 0.27160 0.64956
 C534 C 0.52759 0.26869 0.63874
 N535 N 0.51873 0.25388 0.63970
 H536 H 0.47129 0.27394 0.62121
 H537 H 0.51931 0.26515 0.59883
 H538 H 0.51513 0.28937 0.57924
 H539 H 0.46625 0.29830 0.60219
 H540 H 0.51529 0.23028 0.65206
 H541 H 0.53953 0.23449 0.67162
 H542 H 0.54837 0.28339 0.64868
 H543 H 0.52398 0.27832 0.62969
 C544 C 0.45387 0.24030 0.66147
 C545 C 0.50931 0.20379 0.58940
 C546 C 0.54579 0.25923 0.66147
 C547 C 0.49041 0.29566 0.58940
 C548 C 0.50788 0.72752 0.90103
 H549 H 0.51938 0.73498 0.90171
 C550 C 0.50550 0.71388 0.91209
 H551 H 0.51523 0.71075 0.92129
 C552 C 0.48100 0.72258 0.88840
 H553 H 0.47136 0.72616 0.87934
 C554 C 0.47812 0.70885 0.89923
 H555 H 0.46634 0.70180 0.89836
 N556 N 0.49578 0.73148 0.88936
 C557 C 0.52276 0.75836 0.84917
 H558 H 0.51532 0.76988 0.84850
 C559 C 0.53639 0.75597 0.83810
 H560 H 0.53953 0.76570 0.82890
 C561 C 0.52765 0.73147 0.86178
 H562 H 0.52406 0.72184 0.87083
 C563 C 0.54138 0.72858 0.85094
 H564 H 0.54841 0.71679 0.85180
 Zn565 Zn 0.49988 0.75039 0.87511
 N566 N 0.51878 0.74627 0.86084
 C567 C 0.51879 0.77818 0.88841
 N568 N 0.50400 0.76930 0.88937
 C569 C 0.49192 0.77326 0.90107
 C570 C 0.49431 0.78690 0.91214
 C571 C 0.52169 0.79191 0.89925
 C572 C 0.47700 0.74240 0.84917
 C573 C 0.46335 0.74478 0.83812
 C574 C 0.45833 0.77216 0.85103
 C575 C 0.47207 0.76927 0.86185
 N576 N 0.48097 0.75449 0.86087
 H577 H 0.52842 0.77459 0.87935
 H578 H 0.48041 0.76580 0.90174
 H579 H 0.48460 0.79002 0.92136
 H580 H 0.53347 0.79895 0.89839
 H581 H 0.48446 0.73090 0.84848
 H582 H 0.46022 0.73506 0.82891
 H583 H 0.45127 0.78393 0.85191
 H584 H 0.47566 0.77891 0.87091
 C585 C 0.54580 0.74096 0.83903
 C586 C 0.49050 0.70444 0.91114
 C587 C 0.45391 0.75977 0.83910
 C588 C 0.50932 0.79632 0.91119
 C589 C 0.18144 0.21411 0.23060
 C590 C 0.16964 0.21645 0.24004
 C591 C 0.15554 0.21924 0.25131
 C592 C 0.15292 0.20842 0.26514
 C593 C 0.13922 0.21110 0.27609
 C594 C 0.12794 0.22468 0.27334
 C595 C 0.13069 0.23549 0.25940
 C596 C 0.14440 0.23278 0.24847
 C597 C 0.11337 0.22753 0.28496
 C598 C 0.10880 0.24408 0.28991
 C599 C 0.09509 0.24676 0.30085
 C600 C 0.08575 0.23295 0.30697
 C601 C 0.09018 0.21644 0.30213
 C602 C 0.10389 0.21374 0.29120
 C603 C 0.07164 0.23571 0.31823
 C604 C 0.05982 0.23802 0.32767
 H605 H 0.16150 0.19793 0.26749
 H606 H 0.13757 0.20269 0.28683
 H607 H 0.12211 0.24591 0.25682
 H608 H 0.14628 0.24120 0.23777
 H609 H 0.11598 0.25494 0.28550
 H610 H 0.09180 0.25958 0.30456
 H611 H 0.08300 0.20567 0.30676
 H612 H 0.10695 0.20087 0.28745
 C613 C 0.68143 0.71440 0.73055
 C614 C 0.66963 0.71673 0.74000
 C615 C 0.65553 0.71951 0.75128
 C616 C 0.65293 0.70867 0.76511
 C617 C 0.63923 0.71134 0.77606
 C618 C 0.62795 0.72492 0.77334
 C619 C 0.63069 0.73575 0.75941
 C620 C 0.64439 0.73304 0.74846
 C621 C 0.61339 0.72777 0.78497
 C622 C 0.60884 0.74431 0.78994
 C623 C 0.59514 0.74698 0.80090
 C624 C 0.58580 0.73316 0.80702
 C625 C 0.59022 0.71666 0.80216
 C626 C 0.60393 0.71397 0.79121
 C627 C 0.57171 0.73592 0.81830
 C628 C 0.55990 0.73822 0.82775
 H629 H 0.66151 0.69818 0.76744
 H630 H 0.63760 0.70292 0.78680
 H631 H 0.62211 0.74616 0.75684
 H632 H 0.64626 0.74148 0.73777
 H633 H 0.61601 0.75518 0.78554
 H634 H 0.59185 0.75980 0.80462
 H635 H 0.58305 0.70588 0.80679
 H636 H 0.60697 0.70110 0.78745
 C637 C 0.31813 0.78622 0.73082
 C638 C 0.32994 0.78390 0.74025
 C639 C 0.34406 0.78113 0.75151
 C640 C 0.34198 0.77129 0.76614
 C641 C 0.35568 0.76861 0.77708
 C642 C 0.37167 0.77573 0.77352
 C643 C 0.37362 0.78560 0.75877
 C644 C 0.35990 0.78828 0.74785
 C645 C 0.38624 0.77288 0.78514
 C646 C 0.40258 0.76977 0.77862
 C647 C 0.41628 0.76710 0.78956
 C648 C 0.41385 0.76751 0.80715
 C649 C 0.39766 0.77059 0.81376
 C650 C 0.38393 0.77325 0.80284
 C651 C 0.42797 0.76477 0.81840
 C652 C 0.43980 0.76249 0.82783
 H653 H 0.32978 0.76566 0.76907
 H654 H 0.35382 0.76077 0.78822
 H655 H 0.38570 0.79143 0.75579
 H656 H 0.36164 0.79595 0.73658
 H657 H 0.40472 0.76919 0.76506
 H658 H 0.42876 0.76468 0.78431
 H659 H 0.39565 0.77097 0.82736
 H660 H 0.37157 0.77583 0.80825
 C661 C -0.18170 0.28589 0.23024
 C662 C -0.16990 0.28358 0.23970
 C663 C -0.15581 0.28083 0.25099
 C664 C -0.15872 0.27674 0.26802
 C665 C -0.14504 0.27407 0.27900
 C666 C -0.12825 0.27548 0.27308
 C667 C -0.12547 0.27961 0.25593
 C668 C -0.13917 0.28226 0.24497
 C669 C -0.11370 0.27266 0.28473
 C670 C -0.09925 0.28312 0.28392
 C671 C -0.08557 0.28046 0.29490
 C672 C -0.08614 0.26731 0.30682
 C673 C -0.10045 0.25683 0.30773
 C674 C -0.11415 0.25947 0.29677
 C675 C -0.07205 0.26458 0.31811
 C676 C -0.06025 0.26230 0.32757
 H677 H -0.17156 0.27565 0.27283
 H678 H -0.14760 0.27113 0.29217
 H679 H -0.11270 0.28056 0.25093
 H680 H -0.13677 0.28538 0.23180
 H681 H -0.09861 0.29351 0.27495
 H682 H -0.07457 0.28868 0.29412
 H683 H -0.10100 0.24658 0.31688
 H684 H -0.12499 0.25107 0.29756
 C685 C -0.18135 0.71450 0.26926
 C686 C -0.16955 0.71680 0.25980
 C687 C -0.15546 0.71954 0.24851
 C688 C -0.15645 0.71424 0.23159
 C689 C -0.14276 0.71687 0.22061
 C690 C -0.12788 0.72485 0.22643
 C691 C -0.12701 0.73014 0.24347
 C692 C -0.14071 0.72748 0.25443
 C693 C -0.11332 0.72764 0.21478
 C694 C -0.10408 0.74292 0.21530
 C695 C -0.09038 0.74553 0.20433
 C696 C -0.08573 0.73292 0.19272
 C697 C -0.09483 0.71768 0.19210
 C698 C -0.10854 0.71505 0.20305
 C699 C -0.07162 0.73562 0.18144
 C700 C -0.05981 0.73788 0.17198
 H701 H -0.16783 0.70812 0.22686
 H702 H -0.14391 0.71286 0.20752
 H703 H -0.11565 0.73611 0.24839
 H704 H -0.13979 0.73159 0.26752
 H705 H -0.10758 0.75294 0.22403
 H706 H -0.08344 0.75739 0.20488
 H707 H -0.09130 0.70782 0.18319
 H708 H -0.11526 0.70307 0.20249
 C709 C 0.31797 0.21369 0.76959
 C710 C 0.32980 0.21603 0.76017
 C711 C 0.34393 0.21882 0.74894
 C712 C 0.36052 0.21592 0.75459
 C713 C 0.37425 0.21862 0.74369
 C714 C 0.37157 0.22426 0.72697
 C715 C 0.35484 0.22714 0.72141
 C716 C 0.34113 0.22444 0.73234
 C717 C 0.38615 0.22712 0.71537
 C718 C 0.38519 0.22225 0.69821
 C719 C 0.39893 0.22494 0.68731
 C720 C 0.41379 0.23252 0.69339
 C721 C 0.41488 0.23742 0.71042
 C722 C 0.40116 0.23474 0.72135
 C723 C 0.42792 0.23527 0.68215
 C724 C 0.43975 0.23757 0.67272
 H725 H 0.36283 0.21152 0.76741
 H726 H 0.38695 0.21608 0.74828
 H727 H 0.35237 0.23170 0.70869
 H728 H 0.32834 0.22677 0.72785
 H729 H 0.37390 0.21616 0.69327
 H730 H 0.39797 0.22105 0.67415
 H731 H 0.42631 0.24335 0.71525
 H732 H 0.40222 0.23882 0.73443
 C733 C 0.68176 0.28581 0.76951
 C734 C 0.66992 0.28349 0.76010
 C735 C 0.65579 0.28072 0.74887
 C736 C 0.64079 0.28998 0.75099
 C737 C 0.62704 0.28731 0.74009
 C738 C 0.62813 0.27530 0.72691
 C739 C 0.64327 0.26604 0.72489
 C740 C 0.65700 0.26875 0.73580
 C741 C 0.61353 0.27244 0.71532
 C742 C 0.60917 0.25592 0.71010
 C743 C 0.59542 0.25325 0.69920
 C744 C 0.58587 0.26704 0.69337
 C745 C 0.59011 0.28352 0.69847
 C746 C 0.60384 0.28622 0.70938
 C747 C 0.57174 0.26428 0.68213
 C748 C 0.55990 0.26197 0.67272
 H749 H 0.63969 0.29925 0.76110
 H750 H 0.61549 0.29447 0.74212
 H751 H 0.64458 0.25687 0.71474
 H752 H 0.66857 0.26154 0.73401
 H753 H 0.61624 0.24505 0.71463
 H754 H 0.59222 0.24044 0.69536
 H755 H 0.58283 0.29428 0.69399
 H756 H 0.60701 0.29910 0.71299
 C757 C 0.18171 0.78601 0.26914
 C758 C 0.16992 0.78368 0.25967
 C759 C 0.15584 0.78090 0.24837
 C760 C 0.14971 0.76446 0.24565
 C761 C 0.13603 0.76175 0.23468
 C762 C 0.12828 0.77548 0.22629
 C763 C 0.13455 0.79197 0.22912
 C764 C 0.14824 0.79465 0.24009
 C765 C 0.11373 0.77262 0.21465
 C766 C 0.09983 0.78383 0.21458
 C767 C 0.08614 0.78112 0.20362
 C768 C 0.08616 0.76720 0.19259
 C769 C 0.09992 0.75598 0.19256
 C770 C 0.11362 0.75865 0.20351
 C771 C 0.07206 0.76444 0.18131
 C772 C 0.06025 0.76213 0.17186
 H773 H 0.15547 0.75373 0.25204
 H774 H 0.13136 0.74894 0.23294
 H775 H 0.12901 0.80277 0.22269
 H776 H 0.15292 0.80743 0.24207
 H777 H 0.09944 0.79457 0.22315
 H778 H 0.07552 0.78987 0.20378
 H779 H 0.10008 0.74518 0.18403
 H780 H 0.12422 0.74992 0.20311
 C781 C 0.23065 0.18134 0.21412
 C782 C 0.24009 0.16953 0.21646
 C783 C 0.25135 0.15542 0.21925
 C784 C 0.26827 0.15830 0.22382
 C785 C 0.27922 0.14461 0.22652
 C786 C 0.27338 0.12783 0.22471
 C787 C 0.25634 0.12507 0.22012
 C788 C 0.24541 0.13878 0.21741
 C789 C 0.28500 0.11326 0.22758
 C790 C 0.27932 0.09868 0.23617
 C791 C 0.29027 0.08497 0.23886
 C792 C 0.30702 0.08565 0.23299
 C793 C 0.31279 0.10010 0.22443
 C794 C 0.30187 0.11382 0.22174
 C795 C 0.31827 0.07153 0.23574
 C796 C 0.32770 0.05971 0.23804
 H797 H 0.27299 0.17114 0.22532
 H798 H 0.29221 0.14715 0.23025
 H799 H 0.25151 0.11231 0.21841
 H800 H 0.23235 0.13641 0.21383
 H801 H 0.26648 0.09795 0.24102
 H802 H 0.28568 0.07387 0.24554
 H803 H 0.32572 0.10074 0.21979
 H804 H 0.30656 0.12477 0.21489
 C805 C 0.73056 0.68156 0.71400
 C806 C 0.73997 0.66972 0.71631
 C807 C 0.75120 0.65558 0.71907
 C808 C 0.76853 0.65837 0.72175
 C809 C 0.77945 0.64464 0.72443
 C810 C 0.77315 0.62792 0.72447
 C811 C 0.75570 0.62526 0.72177
 C812 C 0.74481 0.63901 0.71908
 C813 C 0.78474 0.61333 0.72731
 C814 C 0.77968 0.59957 0.73751
 C815 C 0.79060 0.58584 0.74018
 C816 C 0.80670 0.58566 0.73269
 C817 C 0.81186 0.59928 0.72253
 C818 C 0.80097 0.61303 0.71985
 C819 C 0.81793 0.57153 0.73544
 C820 C 0.82735 0.55969 0.73774
 H821 H 0.77360 0.67115 0.72182
 H822 H 0.79278 0.64712 0.72669
 H823 H 0.75050 0.61254 0.72151
 H824 H 0.73142 0.63671 0.71697
 H825 H 0.76736 0.59952 0.74360
 H826 H 0.78649 0.57538 0.74811
 H827 H 0.82429 0.59925 0.71664
 H828 H 0.80515 0.62331 0.71177
 C829 C 0.73041 0.31782 0.78606
 C830 C 0.73983 0.32964 0.78373
 C831 C 0.75108 0.34377 0.78095
 C832 C 0.76553 0.34178 0.77082
 C833 C 0.77646 0.35550 0.76810
 C834 C 0.77307 0.37140 0.77551
 C835 C 0.75851 0.37326 0.78568
 C836 C 0.74759 0.35953 0.78837
 C837 C 0.78468 0.38598 0.77265
 C838 C 0.78874 0.39712 0.78601
 C839 C 0.79967 0.41083 0.78331
 C840 C 0.80668 0.41361 0.76723
 C841 C 0.80272 0.40261 0.75386
 C842 C 0.79180 0.38888 0.75653
 C843 C 0.81793 0.42773 0.76447
 C844 C 0.82736 0.43955 0.76216
 H845 H 0.76838 0.32962 0.76505
 H846 H 0.78768 0.35361 0.76040
 H847 H 0.75543 0.38538 0.79138
 H848 H 0.73641 0.36121 0.79619
 H849 H 0.78364 0.39510 0.79861
 H850 H 0.80269 0.41924 0.79376
 H851 H 0.80804 0.40467 0.74135
 H852 H 0.78876 0.38067 0.74594
 C853 C 0.23030 -0.18199 0.28588
 C854 C 0.23976 -0.17018 0.28357
 C855 C 0.25103 -0.15608 0.28082
 C856 C 0.26059 -0.14956 0.29429
 C857 C 0.27154 -0.13584 0.29164
 C858 C 0.27308 -0.12847 0.27545
 C859 C 0.26341 -0.13514 0.26199
 C860 C 0.25246 -0.14884 0.26467
 C861 C 0.28471 -0.11391 0.27262
 C862 C 0.29462 -0.11296 0.25780
 C863 C 0.30557 -0.09925 0.25515
 C864 C 0.30676 -0.08631 0.26726
 C865 C 0.29695 -0.08712 0.28204
 C866 C 0.28599 -0.10082 0.28472
 C867 C 0.31804 -0.07221 0.26454
 C868 C 0.32750 -0.06040 0.26226
 H869 H 0.25962 -0.15509 0.30684
 H870 H 0.27897 -0.13115 0.30221
 H871 H 0.26414 -0.12961 0.24943
 H872 H 0.24508 -0.15377 0.25416
 H873 H 0.29408 -0.12293 0.24835
 H874 H 0.31315 -0.09877 0.24369
 H875 H 0.29773 -0.07714 0.29148
 H876 H 0.27837 -0.10107 0.29615
 C877 C 0.26954 -0.18176 0.71416
 C878 C 0.26012 -0.16992 0.71647
 C879 C 0.24889 -0.15578 0.71922
 C880 C 0.25256 -0.13996 0.71204
 C881 C 0.24165 -0.12622 0.71469
 C882 C 0.22691 -0.12813 0.72459
 C883 C 0.22334 -0.14409 0.73176
 C884 C 0.23426 -0.15782 0.72908
 C885 C 0.21531 -0.11353 0.72742
 C886 C 0.20792 -0.11077 0.74344
 C887 C 0.19701 -0.09703 0.74609
 C888 C 0.19333 -0.08588 0.73277
 C889 C 0.20060 -0.08851 0.71678
 C890 C 0.21153 -0.10224 0.71411
 C891 C 0.18209 -0.07174 0.73550
 C892 C 0.17267 -0.05990 0.73778
 H893 H 0.26388 -0.13824 0.70443
 H894 H 0.24487 -0.11405 0.70919
 H895 H 0.21198 -0.14602 0.73925
 H896 H 0.23127 -0.17002 0.73466
 H897 H 0.21075 -0.11910 0.75399
 H898 H 0.19149 -0.09507 0.75852
 H899 H 0.19780 -0.07999 0.70637
 H900 H 0.21683 -0.10415 0.70158
 C901 C 0.76982 0.31844 0.21431
 C902 C 0.76037 0.33024 0.21663
 C903 C 0.74909 0.34434 0.21940
 C904 C 0.73358 0.34184 0.22768
 C905 C 0.72260 0.35553 0.23036
 C906 C 0.72701 0.37191 0.22479
 C907 C 0.74265 0.37429 0.21649
 C908 C 0.75360 0.36058 0.21381
 C909 C 0.71536 0.38646 0.22763
 C910 C 0.72176 0.40241 0.23251
 C911 C 0.71078 0.41610 0.23517
 C912 C 0.69327 0.41404 0.23298
 C913 C 0.68678 0.39823 0.22812
 C914 C 0.69773 0.38452 0.22547
 C915 C 0.68199 0.42813 0.23570
 C916 C 0.67252 0.43994 0.23798
 H917 H 0.72998 0.32933 0.23210
 H918 H 0.71076 0.35333 0.23698
 H919 H 0.74631 0.38670 0.21186
 H920 H 0.76556 0.36265 0.20735
 H921 H 0.73523 0.40425 0.23449
 H922 H 0.71594 0.42827 0.23897
 H923 H 0.67325 0.39651 0.22634
 H924 H 0.69244 0.37248 0.22151
 C925 C 0.76945 0.68178 0.28582
 C926 C 0.76001 0.66996 0.28351
 C927 C 0.74874 0.65584 0.28075
 C928 C 0.75439 0.63925 0.28363
 C929 C 0.74347 0.62552 0.28095
 C930 C 0.72672 0.62822 0.27536
 C931 C 0.72117 0.64496 0.27251
 C932 C 0.73212 0.65866 0.27519
 C933 C 0.71510 0.61365 0.27252
 C934 C 0.69795 0.61462 0.27744
 C935 C 0.68703 0.60088 0.27479
 C936 C 0.69308 0.58602 0.26717
 C937 C 0.71010 0.58492 0.26222
 C938 C 0.72105 0.59864 0.26488
 C939 C 0.68183 0.57189 0.26445
 C940 C 0.67239 0.56005 0.26218
 H941 H 0.76723 0.63693 0.28799
 H942 H 0.74805 0.61282 0.28347
 H943 H 0.70843 0.64744 0.26799
 H944 H 0.72763 0.67145 0.27287
 H945 H 0.69304 0.62591 0.28355
 H946 H 0.67389 0.60184 0.27871
 H947 H 0.71490 0.57349 0.25628
 H948 H 0.73411 0.59758 0.26075
 C949 C 0.27006 0.18186 0.78551
 C950 C 0.26061 0.17005 0.78317
 C951 C 0.24933 0.15595 0.78038
 C952 C 0.23176 0.15851 0.78020
 C953 C 0.22078 0.14482 0.77753
 C954 C 0.22726 0.12837 0.77499
 C955 C 0.24495 0.12593 0.77518
 C956 C 0.25590 0.13964 0.77787
 C957 C 0.21561 0.11381 0.77216
 C958 C 0.21952 0.10126 0.76007
 C959 C 0.20855 0.08756 0.75742
 C960 C 0.19354 0.08621 0.76683
 C961 C 0.18954 0.09862 0.77889
 C962 C 0.20048 0.11234 0.78155
 C963 C 0.18226 0.07210 0.76411
 C964 C 0.17281 0.06029 0.76184
 H965 H 0.22654 0.17109 0.78209
 H966 H 0.20724 0.14714 0.77724
 H967 H 0.25032 0.11340 0.77348
 H968 H 0.26948 0.13751 0.77803
 H969 H 0.23095 0.10215 0.75249
 H970 H 0.21174 0.07805 0.74802
 H971 H 0.17797 0.09768 0.78627
 H972 H 0.19722 0.12167 0.79110
 C973 C 0.21416 0.23052 0.18135
 C974 C 0.21648 0.23995 0.16953
 C975 C 0.21924 0.25121 0.15543
 C976 C 0.22000 0.26876 0.15806
 C977 C 0.22265 0.27971 0.14436
 C978 C 0.22459 0.27324 0.12782
 C979 C 0.22382 0.25557 0.12532
 C980 C 0.22115 0.24464 0.13904
 C981 C 0.22740 0.28486 0.11326
 C982 C 0.23907 0.28065 0.10040
 C983 C 0.24170 0.29160 0.08670
 C984 C 0.23272 0.30688 0.08565
 C985 C 0.22109 0.31119 0.09835
 C986 C 0.21844 0.30027 0.11208
 C987 C 0.23544 0.31814 0.07153
 C988 C 0.23771 0.32758 0.05971
 H989 H 0.21858 0.27398 0.17070
 H990 H 0.22341 0.29323 0.14673
 H991 H 0.22504 0.25021 0.11273
 H992 H 0.22053 0.23107 0.13685
 H993 H 0.24632 0.26900 0.10106
 H994 H 0.25078 0.28817 0.07695
 H995 H 0.21403 0.32297 0.09764
 H996 H 0.20922 0.30376 0.12165
 C997 C 0.71422 0.73089 0.68138
 C998 C 0.71657 0.74036 0.66960
 C999 C 0.71937 0.75165 0.65552
 C1000 C 0.72573 0.76799 0.65835
 C1001 C 0.72843 0.77898 0.64469
 C1002 C 0.72481 0.77375 0.62800
 C1003 C 0.71843 0.75728 0.62530
 C1004 C 0.71572 0.74632 0.63898
 C1005 C 0.72767 0.78542 0.61347
 C1006 C 0.73456 0.77933 0.59816
 C1007 C 0.73723 0.79032 0.58450
 C1008 C 0.73304 0.80752 0.58594
 C1009 C 0.72618 0.81370 0.60110
 C1010 C 0.72351 0.80274 0.61479
 C1011 C 0.73576 0.81881 0.57185
 C1012 C 0.73805 0.82828 0.56005
 H1013 H 0.72864 0.77223 0.67110
 H1014 H 0.73357 0.79149 0.64716
 H1015 H 0.71531 0.75296 0.61263
 H1016 H 0.71075 0.73371 0.63666
 H1017 H 0.73810 0.76611 0.59683
 H1018 H 0.74259 0.78541 0.57282
 H1019 H 0.72284 0.82699 0.60234
 H1020 H 0.71798 0.80777 0.62633
 C1021 C 0.78596 0.73107 0.31848
 C1022 C 0.78364 0.74053 0.33028
 C1023 C 0.78089 0.75183 0.34437
 C1024 C 0.77063 0.74678 0.35795
 C1025 C 0.76795 0.75774 0.37165
 C1026 C 0.77552 0.77391 0.37195
 C1027 C 0.78582 0.77887 0.35823
 C1028 C 0.78847 0.76789 0.34453
 C1029 C 0.77269 0.78556 0.38650
 C1030 C 0.78612 0.79538 0.39302
 C1031 C 0.78344 0.80633 0.40673
 C1032 C 0.76734 0.80763 0.41410
 C1033 C 0.75390 0.79792 0.40771
 C1034 C 0.75654 0.78696 0.39401
 C1035 C 0.76460 0.81890 0.42821
 C1036 C 0.76231 0.82834 0.44003
 H1037 H 0.76473 0.73435 0.35798
 H1038 H 0.76014 0.75347 0.38212
 H1039 H 0.79164 0.79131 0.35797
 H1040 H 0.79640 0.77195 0.33406
 H1041 H 0.79874 0.79443 0.38767
 H1042 H 0.79395 0.81375 0.41161
 H1043 H 0.74137 0.79887 0.41329
 H1044 H 0.74591 0.77974 0.38915
 C1045 C 0.28586 0.23036 -0.18188
 C1046 C 0.28350 0.23982 -0.17008
 C1047 C 0.28069 0.25110 -0.15599
 C1048 C 0.27513 0.26772 -0.15885
 C1049 C 0.27241 0.27870 -0.14517
 C1050 C 0.27522 0.27317 -0.12843
 C1051 C 0.28080 0.25643 -0.12569
 C1052 C 0.28352 0.24548 -0.13939
 C1053 C 0.27234 0.28482 -0.11388
 C1054 C 0.26465 0.27889 -0.09889
 C1055 C 0.26196 0.28987 -0.08520
 C1056 C 0.26692 0.30689 -0.08630
 C1057 C 0.27457 0.31291 -0.10115
 C1058 C 0.27726 0.30196 -0.11485
 C1059 C 0.26416 0.31816 -0.07220
 C1060 C 0.26187 0.32761 -0.06038
 H1061 H 0.27286 0.27219 -0.17165
 H1062 H 0.26791 0.29143 -0.14768
 H1063 H 0.28328 0.25186 -0.11297
 H1064 H 0.28787 0.23265 -0.13704
 H1065 H 0.26052 0.26583 -0.09783
 H1066 H 0.25598 0.28509 -0.07379
 H1067 H 0.27850 0.32605 -0.10211
 H1068 H 0.28341 0.30685 -0.12613
 C1069 C 0.71461 0.26932 -0.18136
 C1070 C 0.71695 0.25988 -0.16956
 C1071 C 0.71972 0.24860 -0.15547
 C1072 C 0.72973 0.23408 -0.15753
 C1073 C 0.73242 0.22311 -0.14385
 C1074 C 0.72511 0.22653 -0.12791
 C1075 C 0.71506 0.24118 -0.12599
 C1076 C 0.71240 0.25213 -0.13968
 C1077 C 0.72793 0.21488 -0.11338
 C1078 C 0.71458 0.21091 -0.10220
 C1079 C 0.71725 0.19993 -0.08852
 C1080 C 0.73328 0.19279 -0.08583
 C1081 C 0.74665 0.19665 -0.09686
 C1082 C 0.74400 0.20761 -0.11055
 C1083 C 0.73601 0.18149 -0.07174
 C1084 C 0.73829 0.17203 -0.05995
 H1085 H 0.73542 0.23120 -0.16971
 H1086 H 0.74003 0.21183 -0.14579
 H1087 H 0.70945 0.24428 -0.11384
 H1088 H 0.70467 0.26337 -0.13794
 H1089 H 0.70201 0.21611 -0.10416
 H1090 H 0.70680 0.19699 -0.08009
 H1091 H 0.75912 0.19122 -0.09486
 H1092 H 0.75459 0.21059 -0.11880
 C1093 C 0.21433 0.76955 0.31843
 C1094 C 0.21662 0.76011 0.33024
 C1095 C 0.21934 0.74883 0.34434
 C1096 C 0.23467 0.74931 0.35329
 C1097 C 0.23733 0.73837 0.36700
 C1098 C 0.22465 0.72679 0.37194
 C1099 C 0.20928 0.72641 0.36285
 C1100 C 0.20666 0.73736 0.34914
 C1101 C 0.22745 0.71516 0.38650
 C1102 C 0.21430 0.71185 0.39813
 C1103 C 0.21695 0.70091 0.41183
 C1104 C 0.23275 0.69312 0.41410
 C1105 C 0.24591 0.69632 0.40262
 C1106 C 0.24329 0.70727 0.38891
 C1107 C 0.23545 0.68185 0.42821
 C1108 C 0.23771 0.67240 0.44002
 H1109 H 0.24456 0.75818 0.34971
 H1110 H 0.24920 0.73912 0.37387
 H1111 H 0.19937 0.71750 0.36619
 H1112 H 0.19477 0.73685 0.34226
 H1113 H 0.20204 0.71790 0.39675
 H1114 H 0.20669 0.69856 0.42068
 H1115 H 0.25817 0.69032 0.40423
 H1116 H 0.25359 0.70938 0.38006
 C1117 C 0.28533 0.76967 0.68165
 C1118 C 0.28300 0.76020 0.66986
 C1119 C 0.28023 0.74889 0.65578
 C1120 C 0.28931 0.73367 0.65466
 C1121 C 0.28666 0.72269 0.64098
 C1122 C 0.27487 0.72680 0.62821
 C1123 C 0.26580 0.74214 0.62946
 C1124 C 0.26848 0.75310 0.64316
 C1125 C 0.27205 0.71515 0.61365
 C1126 C 0.25558 0.71227 0.60738
 C1127 C 0.25295 0.70130 0.59367
 C1128 C 0.26673 0.69309 0.58605
 C1129 C 0.28316 0.69587 0.59218
 C1130 C 0.28582 0.70682 0.60589
 C1131 C 0.26401 0.68181 0.57193
 C1132 C 0.26174 0.67237 0.56011
 H1133 H 0.29841 0.73026 0.66439
 H1134 H 0.29368 0.71088 0.64049
 H1135 H 0.25680 0.74576 0.61974
 H1136 H 0.26142 0.76488 0.64388
 H1137 H 0.24470 0.71831 0.61321
 H1138 H 0.24017 0.69920 0.58905
 H1139 H 0.29392 0.68961 0.58634
 H1140 H 0.29867 0.70895 0.61028
 C1141 C 0.78635 0.26918 0.18162
 C1142 C 0.78403 0.25971 0.16982
 C1143 C 0.78126 0.24842 0.15573
 C1144 C 0.76970 0.25278 0.14297
 C1145 C 0.76700 0.24183 0.12927
 C1146 C 0.77586 0.22635 0.12815
 C1147 C 0.78745 0.22210 0.14105
 C1148 C 0.79012 0.23306 0.15474
 C1149 C 0.77301 0.21471 0.11359
 C1150 C 0.78673 0.20615 0.10599
 C1151 C 0.78403 0.19520 0.09229
 C1152 C 0.76762 0.19266 0.08600
 C1153 C 0.75390 0.20110 0.09346
 C1154 C 0.75656 0.21206 0.10716
 C1155 C 0.76487 0.18138 0.07189
 C1156 C 0.76257 0.17193 0.06007
 H1157 H 0.76281 0.26467 0.14359
 H1158 H 0.75816 0.24557 0.11944
 H1159 H 0.79429 0.21018 0.14066
 H1160 H 0.79906 0.22955 0.16457
 H1161 H 0.79956 0.20809 0.11050
 H1162 H 0.79476 0.18876 0.08657
 H1163 H 0.74113 0.19918 0.08872
 H1164 H 0.74572 0.21829 0.11287
 C1165 C 0.46414 0.43130 0.48094
 C1166 C 0.46644 0.41950 0.49038
 C1167 C 0.46918 0.40540 0.50166
 C1168 C 0.45535 0.39611 0.50781
 C1169 C 0.45799 0.38241 0.51877
 C1170 C 0.47453 0.37782 0.52372
 C1171 C 0.48835 0.38725 0.51746
 C1172 C 0.48567 0.40095 0.50651
 C1173 C 0.47735 0.36327 0.53536
 C1174 C 0.49089 0.35195 0.53262
 C1175 C 0.49353 0.33824 0.54358
 C1176 C 0.48268 0.33568 0.55741
 C1177 C 0.46919 0.34687 0.56025
 C1178 C 0.46652 0.36057 0.54930
 C1179 C 0.48540 0.32157 0.56867
 C1180 C 0.48768 0.30976 0.57812
 H1181 H 0.44253 0.39942 0.50410
 H1182 H 0.44712 0.37527 0.52319
 H1183 H 0.50121 0.38418 0.52120
 H1184 H 0.49647 0.40809 0.50186
 H1185 H 0.49931 0.35355 0.52189
 H1186 H 0.50399 0.32963 0.54124
 H1187 H 0.46075 0.34502 0.57094
 H1188 H 0.45613 0.36918 0.55188
 C1189 C -0.03587 0.93170 -0.01961
 C1190 C -0.03354 0.91988 -0.01019
 C1191 C -0.03077 0.90576 0.00106
 C1192 C -0.01427 0.90137 0.00593
 C1193 C -0.01156 0.88765 0.01684
 C1194 C -0.02535 0.87814 0.02305
 C1195 C -0.04190 0.88267 0.01807
 C1196 C -0.04457 0.89639 0.00714
 C1197 C -0.02249 0.86357 0.03465
 C1198 C -0.03334 0.86079 0.04856
 C1199 C -0.03064 0.84707 0.05948
 C1200 C -0.01709 0.83595 0.05664
 C1201 C -0.00623 0.83860 0.04285
 C1202 C -0.00890 0.85231 0.03192
 C1203 C -0.01433 0.82183 0.06788
 C1204 C -0.01202 0.81001 0.07731
 H1205 H -0.00350 0.90857 0.00133
 H1206 H 0.00130 0.88462 0.02061
 H1207 H -0.05275 0.87547 0.02244
 H1208 H -0.05740 0.89965 0.00341
 H1209 H -0.04378 0.86935 0.05114
 H1210 H -0.03910 0.84516 0.07015
 H1211 H 0.00428 0.83003 0.04051
 H1212 H -0.00046 0.85398 0.02120
 C1213 C 0.03570 0.56817 -0.01990
 C1214 C 0.03339 0.58000 -0.01046
 C1215 C 0.03064 0.59412 0.00080
 C1216 C 0.02413 0.59138 0.01709
 C1217 C 0.02147 0.60509 0.02804
 C1218 C 0.02530 0.62174 0.02283
 C1219 C 0.03185 0.62435 0.00642
 C1220 C 0.03449 0.61062 -0.00451
 C1221 C 0.02249 0.63632 0.03446
 C1222 C 0.03438 0.64962 0.03539
 C1223 C 0.03173 0.66333 0.04635
 C1224 C 0.01718 0.66394 0.05651
 C1225 C 0.00528 0.65078 0.05569
 C1226 C 0.00791 0.63705 0.04475
 C1227 C 0.01446 0.67805 0.06778
 C1228 C 0.01220 0.68988 0.07723
 H1229 H 0.02116 0.57865 0.02134
 H1230 H 0.01662 0.60265 0.04066
 H1231 H 0.03471 0.63703 0.00196
 H1232 H 0.03949 0.61289 -0.01711
 H1233 H 0.04584 0.64932 0.02781
 H1234 H 0.04105 0.67343 0.04692
 H1235 H -0.00605 0.65115 0.06346
 H1236 H -0.00158 0.62712 0.04416
 C1237 C 0.53608 0.06821 0.48084
 C1238 C 0.53373 0.08001 0.49030
 C1239 C 0.53094 0.09410 0.50158
 C1240 C 0.54398 0.10577 0.50466
 C1241 C 0.54128 0.11946 0.51563
 C1242 C 0.52548 0.12167 0.52366
 C1243 C 0.51245 0.10987 0.52047
 C1244 C 0.51518 0.09618 0.50951
 C1245 C 0.52261 0.13622 0.53531
 C1246 C 0.50712 0.14512 0.53507
 C1247 C 0.50444 0.15882 0.54603
 C1248 C 0.51716 0.16379 0.55738
 C1249 C 0.53260 0.15502 0.55773
 C1250 C 0.53532 0.14133 0.54677
 C1251 C 0.51438 0.17789 0.56866
 C1252 C 0.51207 0.18970 0.57811
 H1253 H 0.55621 0.10430 0.49855
 H1254 H 0.55149 0.12844 0.51765
 H1255 H 0.50023 0.11110 0.52662
 H1256 H 0.50502 0.08719 0.50725
 H1257 H 0.49718 0.14164 0.52625
 H1258 H 0.49245 0.16555 0.54563
 H1259 H 0.54252 0.15874 0.56649
 H1260 H 0.54728 0.13460 0.54741
 C1261 C -0.03606 0.06864 0.51942
 C1262 C -0.03374 0.08046 0.50998
 C1263 C -0.03098 0.09457 0.49873
 C1264 C -0.02563 0.09172 0.48204
 C1265 C -0.02294 0.10542 0.47109
 C1266 C -0.02559 0.12217 0.47671
 C1267 C -0.03098 0.12489 0.49352
 C1268 C -0.03364 0.11117 0.50444
 C1269 C -0.02277 0.13674 0.46508
 C1270 C -0.03399 0.15063 0.46504
 C1271 C -0.03133 0.16432 0.45409
 C1272 C -0.01743 0.16433 0.44304
 C1273 C -0.00618 0.15059 0.44298
 C1274 C -0.00882 0.13687 0.45392
 C1275 C -0.01470 0.17843 0.43176
 C1276 C -0.01242 0.19024 0.42231
 H1277 H -0.02358 0.07891 0.47746
 H1278 H -0.01902 0.10290 0.45817
 H1279 H -0.03291 0.13764 0.49829
 H1280 H -0.03774 0.11352 0.51736
 H1281 H -0.04496 0.15081 0.47332
 H1282 H -0.04014 0.17488 0.45420
 H1283 H 0.00465 0.15049 0.43452
 H1284 H 0.00016 0.12648 0.45381
 C1285 C 0.46413 0.56869 1.01945
 C1286 C 0.46647 0.58051 1.01002
 C1287 C 0.46925 0.59461 0.99876
 C1288 C 0.47702 0.60941 1.00477
 C1289 C 0.47970 0.62314 0.99385
 C1290 C 0.47465 0.62222 0.97675
 C1291 C 0.46686 0.60727 0.97083
 C1292 C 0.46418 0.59357 0.98178
 C1293 C 0.47748 0.63679 0.96514
 C1294 C 0.48291 0.63408 0.94834
 C1295 C 0.48556 0.64781 0.93741
 C1296 C 0.48281 0.66441 0.94311
 C1297 C 0.47740 0.66724 0.95979
 C1298 C 0.47476 0.65353 0.97074
 C1299 C 0.48551 0.67852 0.93185
 C1300 C 0.48779 0.69034 0.92241
 H1301 H 0.48104 0.61034 1.01789
 H1302 H 0.48593 0.63438 0.99873
 H1303 H 0.46263 0.60625 0.95780
 H1304 H 0.45811 0.58219 0.97701
 H1305 H 0.48532 0.62137 0.94371
 H1306 H 0.48978 0.64548 0.92454
 H1307 H 0.47519 0.68004 0.96432
 H1308 H 0.47037 0.65602 0.98352
 C1309 C 0.53598 0.93184 1.01987
 C1310 C 0.53363 0.92005 1.01040
 C1311 C 0.53083 0.90597 0.99909
 C1312 C 0.52520 0.89039 1.00549
 C1313 C 0.52248 0.87670 0.99453
 C1314 C 0.52539 0.87842 0.97699
 C1315 C 0.53106 0.89414 0.97069
 C1316 C 0.53375 0.90781 0.98168
 C1317 C 0.52253 0.86388 0.96533
 C1318 C 0.53389 0.86061 0.95194
 C1319 C 0.53119 0.84691 0.94098
 C1320 C 0.51712 0.83631 0.94324
 C1321 C 0.50574 0.83945 0.95651
 C1322 C 0.50842 0.85313 0.96749
 C1323 C 0.51436 0.82222 0.93195
 C1324 C 0.51206 0.81041 0.92248
 H1325 H 0.52294 0.88881 1.01896
 H1326 H 0.51833 0.86470 0.99979
 H1327 H 0.53319 0.89593 0.95724
 H1328 H 0.53807 0.91983 0.97659
 H1329 H 0.54498 0.86850 0.95007
 H1330 H 0.54010 0.84456 0.93077
 H1331 H 0.49478 0.83135 0.95834
 H1332 H 0.49933 0.85544 0.97754
 C1333 C 0.03565 0.43181 0.51960
 C1334 C 0.03332 0.42000 0.51014
 C1335 C 0.03056 0.40591 0.49885
 C1336 C 0.01518 0.40438 0.49010
 C1337 C 0.01248 0.39069 0.47914
 C1338 C 0.02516 0.37833 0.47677
 C1339 C 0.04058 0.37999 0.48562
 C1340 C 0.04325 0.39368 0.49659
 C1341 C 0.02231 0.36379 0.46511
 C1342 C 0.03540 0.35803 0.45440
 C1343 C 0.03271 0.34434 0.44344
 C1344 C 0.01692 0.33621 0.44303
 C1345 C 0.00382 0.34183 0.45362
 C1346 C 0.00648 0.35552 0.46459
 C1347 C 0.01417 0.32211 0.43174
 C1348 C 0.01188 0.31030 0.42229
 H1349 H 0.00529 0.41380 0.49173
 H1350 H 0.00056 0.38989 0.47234
 H1351 H 0.05050 0.37057 0.48424
 H1352 H 0.05518 0.39472 0.50334
 H1353 H 0.04765 0.36426 0.45435
 H1354 H 0.04292 0.34012 0.43525
 H1355 H -0.00843 0.33559 0.45344
 H1356 H -0.00377 0.35951 0.47283
 C1357 C 0.43143 0.48053 0.46442
 C1358 C 0.41962 0.48997 0.46673
 C1359 C 0.40551 0.50124 0.46949
 C1360 C 0.40823 0.51874 0.47092
 C1361 C 0.39453 0.52970 0.47360
 C1362 C 0.37790 0.52329 0.47485
 C1363 C 0.37531 0.50567 0.47339
 C1364 C 0.38903 0.49474 0.47073
 C1365 C 0.36334 0.53492 0.47767
 C1366 C 0.34789 0.53237 0.46906
 C1367 C 0.33420 0.54333 0.47171
 C1368 C 0.33573 0.55697 0.48298
 C1369 C 0.35103 0.55962 0.49161
 C1370 C 0.36475 0.54868 0.48898
 C1371 C 0.32163 0.56825 0.48569
 C1372 C 0.30981 0.57770 0.48796
 H1373 H 0.42093 0.52391 0.46993
 H1374 H 0.39692 0.54320 0.47444
 H1375 H 0.36270 0.50033 0.47453
 H1376 H 0.38679 0.48121 0.46969
 H1377 H 0.34648 0.52203 0.46011
 H1378 H 0.32243 0.54119 0.46493
 H1379 H 0.35234 0.57011 0.50041
 H1380 H 0.37639 0.55085 0.49596
 C1381 C 0.93214 -0.01968 -0.03620
 C1382 C 0.92032 -0.01025 -0.03386
 C1383 C 0.90621 0.00100 -0.03106
 C1384 C 0.90634 0.01735 -0.03800
 C1385 C 0.89263 0.02829 -0.03528
 C1386 C 0.87859 0.02300 -0.02560
 C1387 C 0.87858 0.00653 -0.01869
 C1388 C 0.89231 -0.00438 -0.02141
 C1389 C 0.86402 0.03461 -0.02272
 C1390 C 0.84726 0.02846 -0.02329
 C1391 C 0.83355 0.03940 -0.02060
 C1392 C 0.83640 0.05662 -0.01728
 C1393 C 0.85301 0.06286 -0.01667
 C1394 C 0.86674 0.05195 -0.01937
 C1395 C 0.82228 0.06787 -0.01452
 C1396 C 0.81046 0.07730 -0.01221
 H1397 H 0.91701 0.02163 -0.04553
 H1398 H 0.89292 0.04080 -0.04095
 H1399 H 0.86807 0.00217 -0.01100
 H1400 H 0.89210 -0.01699 -0.01594
 H1401 H 0.84474 0.01523 -0.02605
 H1402 H 0.82073 0.03444 -0.02114
 H1403 H 0.85536 0.07616 -0.01406
 H1404 H 0.87949 0.05703 -0.01863
 C1405 C 0.56864 -0.01974 0.03580
 C1406 C 0.58046 -0.01031 0.03348
 C1407 C 0.59457 0.00095 0.03071
 C1408 C 0.60862 -0.00452 0.02132
 C1409 C 0.62235 0.00640 0.01863
 C1410 C 0.62219 0.02297 0.02530
 C1411 C 0.60800 0.02836 0.03472
 C1412 C 0.59429 0.01741 0.03740
 C1413 C 0.63677 0.03459 0.02246
 C1414 C 0.63404 0.05186 0.01883
 C1415 C 0.64777 0.06279 0.01616
 C1416 C 0.66439 0.05661 0.01709
 C1417 C 0.66724 0.03945 0.02069
 C1418 C 0.65354 0.02850 0.02335
 C1419 C 0.67851 0.06787 0.01436
 C1420 C 0.69034 0.07730 0.01208
 H1421 H 0.60895 -0.01722 0.01604
 H1422 H 0.63298 0.00196 0.01114
 H1423 H 0.60759 0.04095 0.04020
 H1424 H 0.58350 0.02176 0.04473
 H1425 H 0.62128 0.05688 0.01784
 H1426 H 0.64541 0.07604 0.01333
 H1427 H 0.68007 0.03455 0.02148
 H1428 H 0.65606 0.01533 0.02634
 C1429 C 0.06822 0.48030 0.53552
 C1430 C 0.08001 0.48976 0.53320
 C1431 C 0.09410 0.50105 0.53044
 C1432 C 0.09256 0.51833 0.53427
 C1433 C 0.10624 0.52931 0.53160
 C1434 C 0.12168 0.52314 0.52507
 C1435 C 0.12310 0.50574 0.52126
 C1436 C 0.10939 0.49479 0.52393
 C1437 C 0.13623 0.53479 0.52225
 C1438 C 0.15287 0.52967 0.52626
 C1439 C 0.16655 0.54065 0.52362
 C1440 C 0.16381 0.55687 0.51694
 C1441 C 0.14732 0.56208 0.51290
 C1442 C 0.13361 0.55113 0.51554
 C1443 C 0.17791 0.56817 0.51423
 C1444 C 0.18972 0.57763 0.51198
 H1445 H 0.08079 0.52331 0.53936
 H1446 H 0.10482 0.54259 0.53487
 H1447 H 0.13473 0.50064 0.51601
 H1448 H 0.11071 0.48144 0.52087
 H1449 H 0.15527 0.51726 0.53165
 H1450 H 0.17926 0.53651 0.52683
 H1451 H 0.14506 0.57460 0.50768
 H1452 H 0.12099 0.55536 0.51213
 C1453 C 0.06825 0.51965 -0.03574
 C1454 C 0.08005 0.51019 -0.03342
 C1455 C 0.09414 0.49890 -0.03066
 C1456 C 0.09201 0.48137 -0.03257
 C1457 C 0.10569 0.47039 -0.02991
 C1458 C 0.12171 0.47682 -0.02531
 C1459 C 0.12371 0.49447 -0.02342
 C1460 C 0.11001 0.50542 -0.02607
 C1461 C 0.13626 0.46517 -0.02251
 C1462 C 0.15258 0.46946 -0.02836
 C1463 C 0.16627 0.45848 -0.02574
 C1464 C 0.16384 0.44307 -0.01725
 C1465 C 0.14766 0.43869 -0.01137
 C1466 C 0.13395 0.44965 -0.01399
 C1467 C 0.17793 0.43178 -0.01457
 C1468 C 0.18974 0.42231 -0.01231
 H1469 H 0.07978 0.47619 -0.03617
 H1470 H 0.10379 0.45689 -0.03169
 H1471 H 0.13582 0.49979 -0.01967
 H1472 H 0.11178 0.51897 -0.02451
 H1473 H 0.15472 0.48121 -0.03516
 H1474 H 0.17873 0.46198 -0.03038
 H1475 H 0.14565 0.42681 -0.00474
 H1476 H 0.12160 0.44608 -0.00915
 C1477 C 0.56819 1.01967 0.46417
 C1478 C 0.58003 1.01026 0.46649
 C1479 C 0.59417 0.99904 0.46927
 C1480 C 0.59212 0.98150 0.46738
 C1481 C 0.60585 0.97059 0.47008
 C1482 C 0.62183 0.97709 0.47470
 C1483 C 0.62375 0.99476 0.47656
 C1484 C 0.61000 1.00564 0.47387
 C1485 C 0.63643 0.96552 0.47755
 C1486 C 0.65275 0.96987 0.47174
 C1487 C 0.66648 0.95896 0.47442
 C1488 C 0.66410 0.94357 0.48295
 C1489 C 0.64793 0.93912 0.48878
 C1490 C 0.63418 0.95000 0.48611
 C1491 C 0.67824 0.93234 0.48569
 C1492 C 0.69008 0.92292 0.48798
 H1493 H 0.57993 0.97626 0.46378
 H1494 H 0.60402 0.95708 0.46832
 H1495 H 0.63583 1.00014 0.48032
 H1496 H 0.61171 1.01920 0.47541
 H1497 H 0.65486 0.98161 0.46492
 H1498 H 0.67894 0.96251 0.46980
 H1499 H 0.64596 0.92725 0.49544
 H1500 H 0.62183 0.94639 0.49092
 C1501 C 0.93197 1.02001 0.53606
 C1502 C 0.92015 1.01057 0.53374
 C1503 C 0.90604 0.99931 0.53096
 C1504 C 0.90636 0.98283 0.53755
 C1505 C 0.89265 0.97188 0.53486
 C1506 C 0.87842 0.97730 0.52554
 C1507 C 0.87822 0.99390 0.51897
 C1508 C 0.89195 1.00482 0.52167
 C1509 C 0.86384 0.96569 0.52269
 C1510 C 0.84707 0.97175 0.52370
 C1511 C 0.83335 0.96081 0.52102
 C1512 C 0.83620 0.94368 0.51730
 C1513 C 0.85283 0.93751 0.51627
 C1514 C 0.86656 0.94843 0.51895
 C1515 C 0.82208 0.93242 0.51456
 C1516 C 0.81025 0.92299 0.51227
 H1517 H 0.91719 0.97845 0.54481
 H1518 H 0.89309 0.95926 0.54027
 H1519 H 0.86755 0.99838 0.51156
 H1520 H 0.89159 1.01755 0.51647
 H1521 H 0.84455 0.98491 0.52677
 H1522 H 0.82053 0.96570 0.52190
 H1523 H 0.85518 0.92428 0.51335
 H1524 H 0.87931 0.94343 0.51787
 C1525 C 0.43137 0.51945 0.03580
 C1526 C 0.41956 0.51001 0.03344
 C1527 C 0.40546 0.49874 0.03064
 C1528 C 0.39051 0.50484 0.02324
 C1529 C 0.37680 0.49391 0.02052
 C1530 C 0.37787 0.47670 0.02517
 C1531 C 0.39296 0.47069 0.03259
 C1532 C 0.40665 0.48165 0.03531
 C1533 C 0.36330 0.46507 0.02229
 C1534 C 0.36600 0.44840 0.01644
 C1535 C 0.35229 0.43747 0.01375
 C1536 C 0.33571 0.44302 0.01688
 C1537 C 0.33289 0.45956 0.02270
 C1538 C 0.34658 0.47053 0.02538
 C1539 C 0.32161 0.43174 0.01413
 C1540 C 0.30979 0.42229 0.01184
 H1541 H 0.38947 0.51804 0.01953
 H1542 H 0.36545 0.49887 0.01458
 H1543 H 0.39409 0.45756 0.03651
 H1544 H 0.41814 0.47680 0.04110
 H1545 H 0.37870 0.44390 0.01374
 H1546 H 0.35461 0.42470 0.00920
 H1547 H 0.32010 0.46398 0.02520
 H1548 H 0.34410 0.48320 0.03010
 C1549 C 0.48070 0.46403 0.43175
 C1550 C 0.49015 0.46636 0.41995
 C1551 C 0.50143 0.46914 0.40586
 C1552 C 0.49721 0.48094 0.39328
 C1553 C 0.50815 0.48364 0.37958
 C1554 C 0.52348 0.47456 0.37828
 C1555 C 0.52761 0.46274 0.39101
 C1556 C 0.51665 0.46005 0.40470
 C1557 C 0.53510 0.47741 0.36372
 C1558 C 0.55278 0.47800 0.36619
 C1559 C 0.56371 0.48068 0.35247
 C1560 C 0.55713 0.48278 0.33611
 C1561 C 0.53957 0.48221 0.33352
 C1562 C 0.52862 0.47955 0.34722
 C1563 C 0.56839 0.48551 0.32200
 C1564 C 0.57783 0.48780 0.31018
 H1565 H 0.48549 0.48808 0.39409
 H1566 H 0.50472 0.49298 0.37011
 H1567 H 0.53920 0.45540 0.39026
 H1568 H 0.52001 0.45085 0.41434
 H1569 H 0.55815 0.47662 0.37876
 H1570 H 0.57728 0.48114 0.35462
 H1571 H 0.53435 0.48377 0.32090
 H1572 H 0.51509 0.47894 0.34487
 C1573 C -0.01929 -0.03546 0.93129
 C1574 C -0.00982 -0.03311 0.91951
 C1575 C 0.00149 -0.03032 0.90545
 C1576 C -0.00269 -0.01851 0.89287
 C1577 C 0.00828 -0.01581 0.87919
 C1578 C 0.02360 -0.02490 0.87791
 C1579 C 0.02769 -0.03674 0.89064
 C1580 C 0.01670 -0.03942 0.90431
 C1581 C 0.03525 -0.02206 0.86338
 C1582 C 0.05293 -0.02149 0.86588
 C1583 C 0.06389 -0.01883 0.85218
 C1584 C 0.05734 -0.01671 0.83581
 C1585 C 0.03979 -0.01726 0.83318
 C1586 C 0.02880 -0.01990 0.84686
 C1587 C 0.06863 -0.01400 0.82172
 C1588 C 0.07809 -0.01174 0.80991
 H1589 H -0.01441 -0.01136 0.89366
 H1590 H 0.00487 -0.00646 0.86972
 H1591 H 0.03928 -0.04409 0.88991
 H1592 H 0.02004 -0.04863 0.91395
 H1593 H 0.05827 -0.02288 0.87846
 H1594 H 0.07746 -0.01838 0.85436
 H1595 H 0.03459 -0.01568 0.82055
 H1596 H 0.01528 -0.02050 0.84449
 C1597 C -0.01948 0.03587 0.56855
 C1598 C -0.01000 0.03353 0.58033
 C1599 C 0.00131 0.03076 0.59440
 C1600 C 0.01845 0.03521 0.59306
 C1601 C 0.02945 0.03253 0.60672
 C1602 C 0.02343 0.02536 0.62193
 C1603 C 0.00616 0.02093 0.62314
 C1604 C -0.00481 0.02361 0.60946
 C1605 C 0.03509 0.02254 0.63646
 C1606 C 0.02976 0.02590 0.65317
 C1607 C 0.04075 0.02326 0.66684
 C1608 C 0.05721 0.01721 0.66400
 C1609 C 0.06264 0.01381 0.64744
 C1610 C 0.05167 0.01646 0.63375
 C1611 C 0.06852 0.01450 0.67808
 C1612 C 0.07800 0.01223 0.68987
 H1613 H 0.02331 0.04080 0.58148
 H1614 H 0.04261 0.03628 0.60547
 H1615 H 0.00119 0.01519 0.63459
 H1616 H -0.01804 0.02007 0.61061
 H1617 H 0.01716 0.03080 0.65566
 H1618 H 0.03644 0.02598 0.67961
 H1619 H 0.07534 0.00908 0.64511
 H1620 H 0.05608 0.01354 0.62107
 C1621 C 0.48058 0.53586 0.06860
 C1622 C 0.49002 0.53351 0.08040
 C1623 C 0.50130 0.53071 0.09449
 C1624 C 0.49514 0.52356 0.10953
 C1625 C 0.50607 0.52086 0.12323
 C1626 C 0.52334 0.52527 0.12207
 C1627 C 0.52941 0.53245 0.10688
 C1628 C 0.51844 0.53515 0.09320
 C1629 C 0.53497 0.52241 0.13662
 C1630 C 0.55154 0.51631 0.13394
 C1631 C 0.56248 0.51363 0.14765
 C1632 C 0.55702 0.51701 0.16420
 C1633 C 0.54057 0.52308 0.16701
 C1634 C 0.52960 0.52576 0.15332
 C1635 C 0.56830 0.51427 0.17830
 C1636 C 0.57775 0.51199 0.19011
 H1637 H 0.48189 0.52004 0.11065
 H1638 H 0.50107 0.51511 0.13466
 H1639 H 0.54258 0.53618 0.10566
 H1640 H 0.52333 0.54074 0.08163
 H1641 H 0.55598 0.51340 0.12126
 H1642 H 0.57518 0.50888 0.14534
 H1643 H 0.53623 0.52579 0.17977
 H1644 H 0.51701 0.53068 0.15578
 C1645 C 0.51944 -0.03623 0.06857
 C1646 C 0.51000 -0.03392 0.08038
 C1647 C 0.49874 -0.03117 0.09449
 C1648 C 0.49727 -0.04346 0.10723
 C1649 C 0.48632 -0.04081 0.12094
 C1650 C 0.47669 -0.02581 0.12209
 C1651 C 0.47827 -0.01353 0.10922
 C1652 C 0.48922 -0.01621 0.09552
 C1653 C 0.46505 -0.02298 0.13665
 C1654 C 0.46379 -0.00688 0.14429
 C1655 C 0.45284 -0.00424 0.15799
 C1656 C 0.44300 -0.01763 0.16425
 C1657 C 0.44414 -0.03369 0.15674
 C1658 C 0.45510 -0.03636 0.14304
 C1659 C 0.43173 -0.01490 0.17835
 C1660 C 0.42228 -0.01260 0.19016
 H1661 H 0.50462 -0.05506 0.10659
 H1662 H 0.48555 -0.05039 0.13075
 H1663 H 0.47086 -0.00196 0.10963
 H1664 H 0.49022 -0.00664 0.08570
 H1665 H 0.47145 0.00362 0.13980
 H1666 H 0.45209 0.00824 0.16374
 H1667 H 0.43654 -0.04413 0.16145
 H1668 H 0.45561 -0.04884 0.13730
 C1669 C 1.01903 0.46375 0.56827
 C1670 C 1.00960 0.46606 0.58009
 C1671 C 0.99834 0.46882 0.59420
 C1672 C 0.98230 0.46120 0.59442
 C1673 C 0.97136 0.46386 0.60814
 C1674 C 0.97633 0.47421 0.62183
 C1675 C 0.99248 0.48182 0.62147
 C1676 C 1.00341 0.47914 0.60775
 C1677 C 0.96472 0.47704 0.63640
 C1678 C 0.96330 0.49320 0.64388
 C1679 C 0.95235 0.49586 0.65760
 C1680 C 0.94270 0.48241 0.66403
 C1681 C 0.94403 0.46628 0.65669
 C1682 C 0.95495 0.46360 0.64297
 C1683 C 0.93144 0.48515 0.67814
 C1684 C 0.92200 0.48744 0.68996
 H1685 H 0.97823 0.45323 0.58398
 H1686 H 0.95893 0.45800 0.60793
 H1687 H 0.99676 0.48967 0.63191
 H1688 H 1.01582 0.48506 0.60773
 H1689 H 0.97047 0.50385 0.63898
 H1690 H 0.95139 0.50840 0.66315
 H1691 H 0.93665 0.45577 0.66160
 H1692 H 0.95593 0.45097 0.63764
 C1693 C 1.01902 0.53610 0.93154
 C1694 C 1.00957 0.53374 0.91974
 C1695 C 0.99830 0.53093 0.90564
 C1696 C 0.98086 0.53369 0.90750
 C1697 C 0.96990 0.53097 0.89381
 C1698 C 0.97627 0.52543 0.87806
 C1699 C 0.99383 0.52268 0.87634
 C1700 C 1.00476 0.52543 0.89004
 C1701 C 0.96464 0.52254 0.86351
 C1702 C 0.96693 0.50850 0.85270
 C1703 C 0.95598 0.50579 0.83901
 C1704 C 0.94261 0.51707 0.83592
 C1705 C 0.94023 0.53107 0.84659
 C1706 C 0.95115 0.53380 0.86030
 C1707 C 0.93136 0.51428 0.82181
 C1708 C 0.92192 0.51195 0.81000
 H1709 H 0.97572 0.53791 0.91954
 H1710 H 0.95643 0.53298 0.89561
 H1711 H 0.99914 0.51864 0.86433
 H1712 H 1.01826 0.52329 0.88845
 H1713 H 0.97705 0.49949 0.85497
 H1714 H 0.95791 0.49488 0.83085
 H1715 H 0.92995 0.53991 0.84428
 H1716 H 0.94919 0.54484 0.86825
 C1717 C 0.51965 0.03542 0.43162
 C1718 C 0.51020 0.03307 0.41982
 C1719 C 0.49892 0.03029 0.40573
 C1720 C 0.48364 0.02157 0.40813
 C1721 C 0.47266 0.01887 0.39446
 C1722 C 0.47684 0.02488 0.37817
 C1723 C 0.49224 0.03364 0.37589
 C1724 C 0.50320 0.03631 0.38958
 C1725 C 0.46518 0.02205 0.36363
 C1726 C 0.46240 0.03494 0.35159
 C1727 C 0.45141 0.03226 0.33791
 C1728 C 0.44307 0.01669 0.33608
 C1729 C 0.44575 0.00378 0.34797
 C1730 C 0.45672 0.00643 0.36167
 C1731 C 0.43177 0.01395 0.32199
 C1732 C 0.42230 0.01166 0.31020
 H1733 H 0.48018 0.01689 0.42059
 H1734 H 0.46080 0.01228 0.39667
 H1735 H 0.49592 0.03822 0.36347
 H1736 H 0.51503 0.04303 0.38757
 H1737 H 0.46854 0.04717 0.35287
 H1738 H 0.44939 0.04236 0.32880
 H1739 H 0.43940 -0.00834 0.34665
 H1740 H 0.45876 -0.00381 0.37059
   
