data_POSCAR
  _audit_creation_date              2014-09-24
  _audit_creation_method            'ToBaCCo'
  _symmetry_space_group_name_H-M    'P1'
  _symmetry_Int_Tables_number       1
  _symmetry_cell_setting            triclinic
  loop_
  _symmetry_equiv_pos_as_xyz
 x,y,z
_cell_length_a 66.5300
_cell_length_b 65.8260
_cell_length_c 70.0887
_cell_angle_alpha 89.488500
_cell_angle_beta 90.248800
_cell_angle_gamma 89.824500
loop_
  _atom_site_label
  _atom_site_type_symbol
  _atom_site_fract_x
  _atom_site_fract_y
  _atom_site_fract_z
C1 C 0.39512 -0.03016 0.24385
 C2 C 0.40326 -0.01145 0.23795
 C3 C 0.41220 -0.00961 0.21998
 C4 C 0.41354 -0.02643 0.20794
 C5 C 0.40562 -0.04516 0.21412
 C6 C 0.39568 -0.04737 0.23188
 C7 C 0.40219 0.00636 0.25060
 C8 C 0.41268 0.00614 0.26802
 C9 C 0.41171 0.02276 0.28063
 C10 C 0.39952 0.03950 0.27511
 C11 C 0.38850 0.03969 0.25794
 C12 C 0.39029 0.02321 0.24551
 H13 H 0.38746 -0.03061 0.25742
 H14 H 0.41801 0.00498 0.21538
 H15 H 0.42102 -0.00746 0.27177
 H16 H 0.38180 0.02309 0.23228
 H17 H 0.40800 -0.05813 0.20508
 H18 H 0.39889 0.05302 0.28372
 C19 C 0.10942 -0.02149 0.75231
 C20 C 0.09726 -0.00541 0.75845
 C21 C 0.08802 -0.00650 0.77636
 C22 C 0.09039 -0.02381 0.78810
 C23 C 0.10234 -0.04003 0.78155
 C24 C 0.11213 -0.03883 0.76384
 C25 C 0.09368 0.01236 0.74589
 C26 C 0.08134 0.01038 0.72976
 C27 C 0.07733 0.02707 0.71746
 C28 C 0.08651 0.04584 0.72201
 C29 C 0.09959 0.04786 0.73778
 C30 C 0.10275 0.03103 0.74987
 H31 H 0.11672 -0.02053 0.73853
 H32 H 0.07906 0.00624 0.78112
 H33 H 0.07554 -0.00458 0.72675
 H34 H 0.11280 0.03215 0.76201
 H35 H 0.10431 -0.05354 0.79031
 H36 H 0.08312 0.05936 0.71375
 C37 C 0.60322 0.47370 0.25426
 C38 C 0.59233 0.49123 0.25891
 C39 C 0.58051 0.49148 0.27538
 C40 C 0.57899 0.47420 0.28719
 C41 C 0.59016 0.45674 0.28245
 C42 C 0.60261 0.45646 0.26623
 C43 C 0.59338 0.50958 0.24676
 C44 C 0.58447 0.50967 0.22863
 C45 C 0.58423 0.52743 0.21738
 C46 C 0.59335 0.54510 0.22456
 C47 C 0.60302 0.54511 0.24252
 C48 C 0.60268 0.52719 0.25361
 H49 H 0.61279 0.47383 0.24179
 H50 H 0.57261 0.50533 0.27898
 H51 H 0.57768 0.49585 0.22337
 H52 H 0.61000 0.52665 0.26744
 H53 H 0.58912 0.44321 0.29128
 H54 H 0.59261 0.55900 0.21622
 C55 C 0.90024 0.47118 0.75401
 C56 C 0.91144 0.48811 0.74825
 C57 C 0.92386 0.48688 0.73226
 C58 C 0.92555 0.46868 0.72201
 C59 C 0.91439 0.45162 0.72812
 C60 C 0.90148 0.45285 0.74396
 C61 C 0.91049 0.50708 0.75918
 C62 C 0.92245 0.50917 0.77557
 C63 C 0.92166 0.52697 0.78669
 C64 C 0.90829 0.54253 0.78064
 C65 C 0.89599 0.54042 0.76444
 C66 C 0.89739 0.52274 0.75355
 H67 H 0.89057 0.47230 0.76637
 H68 H 0.93195 0.50032 0.72770
 H69 H 0.93166 0.49634 0.77983
 H70 H 0.88788 0.52088 0.74110
 H71 H 0.91540 0.43749 0.72038
 H72 H 0.90765 0.55687 0.78802
 C73 C 0.26162 0.35233 1.01915
 C74 C 0.26323 0.36650 1.00413
 C75 C 0.28072 0.37833 1.00237
 C76 C 0.29660 0.37609 1.01561
 C77 C 0.29447 0.36204 1.03070
 C78 C 0.27730 0.34966 1.03261
 C79 C 0.24717 0.36748 0.98942
 C80 C 0.23134 0.38165 0.99075
 C81 C 0.21563 0.38177 0.97717
 C82 C 0.21588 0.36736 0.96249
 C83 C 0.23137 0.35290 0.96115
 C84 C 0.24707 0.35319 0.97464
 H85 H 0.24843 0.34276 1.01957
 H86 H 0.28214 0.38878 0.99043
 H87 H 0.23127 0.39250 1.00228
 H88 H 0.25901 0.34198 0.97396
 H89 H 0.30608 0.36152 1.04154
 H90 H 0.20380 0.36733 0.95208
 C91 C 0.74082 0.14317 1.02807
 C92 C 0.74137 0.13014 1.01224
 C93 C 0.72624 0.11549 1.00983
 C94 C 0.71059 0.11376 1.02314
 C95 C 0.71031 0.12686 1.03880
 C96 C 0.72552 0.14139 1.04191
 C97 C 0.75830 0.13136 0.99862
 C98 C 0.77467 0.11790 1.00037
 C99 C 0.79108 0.11919 0.98776
 C100 C 0.79075 0.13418 0.97334
 C101 C 0.77443 0.14765 0.97126
 C102 C 0.75822 0.14614 0.98404
 H103 H 0.75303 0.15381 1.02996
 H104 H 0.72680 0.10536 0.99774
 H105 H 0.77454 0.10641 1.01153
 H106 H 0.74561 0.15652 0.98275
 H107 H 0.69746 0.12616 1.04819
 H108 H 0.80328 0.13537 0.96359
 C109 C 0.24032 0.64305 0.52635
 C110 C 0.23845 0.63133 0.50977
 C111 C 0.22122 0.61923 0.50707
 C112 C 0.20590 0.61881 0.52093
 C113 C 0.20836 0.63031 0.53755
 C114 C 0.22537 0.64243 0.54039
 C115 C 0.25465 0.63193 0.49536
 C116 C 0.27184 0.61963 0.49762
 C117 C 0.28791 0.62105 0.48464
 C118 C 0.28654 0.63515 0.46951
 C119 C 0.26958 0.64774 0.46716
 C120 C 0.25357 0.64587 0.48011
 H121 H 0.25358 0.65228 0.52848
 H122 H 0.21969 0.61041 0.49417
 H123 H 0.27263 0.60899 0.50948
 H124 H 0.24053 0.65569 0.47872
 H125 H 0.19696 0.62975 0.54855
 H126 H 0.29890 0.63653 0.45958
 C127 C 0.75360 0.85373 0.52243
 C128 C 0.75653 0.86766 0.50751
 C129 C 0.77350 0.88039 0.50768
 C130 C 0.78765 0.87947 0.52289
 C131 C 0.78419 0.86515 0.53769
 C132 C 0.76738 0.85231 0.53755
 C133 C 0.74176 0.86842 0.49167
 C134 C 0.72603 0.88276 0.49169
 C135 C 0.71100 0.88235 0.47748
 C136 C 0.71191 0.86738 0.46337
 C137 C 0.72730 0.85274 0.46332
 C138 C 0.74230 0.85346 0.47750
 H139 H 0.74062 0.84382 0.52214
 H140 H 0.77511 0.89135 0.49619
 H141 H 0.72538 0.89401 0.50287
 H142 H 0.75407 0.84205 0.47788
 H143 H 0.79485 0.86335 0.54927
 H144 H 0.70030 0.86691 0.45249
 C145 C -0.02210 0.23374 0.33425
 C146 C -0.00421 0.23015 0.34417
 C147 C 0.00170 0.21033 0.34874
 C148 C -0.01067 0.19376 0.34413
 C149 C -0.02836 0.19763 0.33354
 C150 C -0.03454 0.21755 0.32885
 C151 C 0.00780 0.24734 0.35079
 C152 C -0.00045 0.26161 0.36325
 C153 C 0.01098 0.27829 0.36895
 C154 C 0.03059 0.28077 0.36214
 C155 C 0.03890 0.26648 0.34979
 C156 C 0.02749 0.24962 0.34434
 H157 H -0.02663 0.24936 0.33178
 H158 H 0.01506 0.20832 0.35743
 H159 H -0.01570 0.25982 0.36837
 H160 H 0.03380 0.23835 0.33489
 H161 H -0.03703 0.18493 0.32838
 H162 H 0.03925 0.29392 0.36635
 C163 C -0.02790 0.74108 0.16034
 C164 C -0.00915 0.74729 0.15338
 C165 C -0.00797 0.76417 0.14119
 C166 C -0.02528 0.77486 0.13586
 C167 C -0.04393 0.76865 0.14291
 C168 C -0.04565 0.75161 0.15517
 C169 C 0.00910 0.73512 0.15722
 C170 C 0.00884 0.71415 0.15391
 C171 C 0.02681 0.70272 0.15377
 C172 C 0.04483 0.71271 0.15839
 C173 C 0.04525 0.73367 0.16155
 C174 C 0.02734 0.74478 0.16127
 H175 H -0.02849 0.72749 0.16910
 H176 H 0.00639 0.76849 0.13517
 H177 H -0.00517 0.70745 0.14928
 H178 H 0.02771 0.76108 0.16326
 H179 H -0.05691 0.77794 0.13945
 H180 H 0.05881 0.70433 0.15940
 C181 C 0.47583 0.25148 0.66531
 C182 C 0.49462 0.25736 0.65829
 C183 C 0.49760 0.27740 0.65212
 C184 C 0.48192 0.29153 0.65281
 C185 C 0.46333 0.28575 0.66026
 C186 C 0.46005 0.26560 0.66617
 C187 C 0.51059 0.24227 0.65535
 C188 C 0.50664 0.22472 0.64485
 C189 C 0.52237 0.21167 0.63979
 C190 C 0.54195 0.21586 0.64598
 C191 C 0.54607 0.23341 0.65643
 C192 C 0.53028 0.24656 0.66109
 H193 H 0.47330 0.23577 0.66937
 H194 H 0.51180 0.28173 0.64575
 H195 H 0.49157 0.22197 0.63955
 H196 H 0.53334 0.26050 0.66866
 H197 H 0.45109 0.29665 0.66042
 H198 H 0.55404 0.20550 0.64247
 C199 C 0.48170 0.73686 0.82758
 C200 C 0.49940 0.73664 0.83829
 C201 C 0.50626 0.71855 0.84661
 C202 C 0.49529 0.70041 0.84471
 C203 C 0.47784 0.70071 0.83319
 C204 C 0.47082 0.71893 0.82493
 C205 C 0.51015 0.75559 0.84200
 C206 C 0.50119 0.77068 0.85304
 C207 C 0.51195 0.78821 0.85759
 C208 C 0.53156 0.79080 0.85079
 C209 C 0.54076 0.77558 0.84000
 C210 C 0.52992 0.75793 0.83571
 H211 H 0.47610 0.75115 0.82183
 H212 H 0.52014 0.71886 0.85473
 H213 H 0.48610 0.76856 0.85848
 H214 H 0.53695 0.74571 0.82788
 H215 H 0.46871 0.68723 0.83174
 H216 H 0.53980 0.80442 0.85439
 C217 C -0.27250 0.64224 1.00558
 C218 C -0.25560 0.65363 1.01100
 C219 C -0.25522 0.66332 1.02870
 C220 C -0.27170 0.66209 1.04102
 C221 C -0.28841 0.65044 1.03556
 C222 C -0.28898 0.63988 1.01807
 C223 C -0.23818 0.65565 0.99815
 C224 C -0.24020 0.66643 0.98094
 C225 C -0.22356 0.66971 0.96883
 C226 C -0.20481 0.66127 0.97458
 C227 C -0.20269 0.64979 0.99158
 C228 C -0.21953 0.64734 1.00339
 H229 H -0.27204 0.63435 0.99211
 H230 H -0.24202 0.67189 1.03278
 H231 H -0.25505 0.67179 0.97708
 H232 H -0.21838 0.63858 1.01650
 H233 H -0.30144 0.65044 1.04473
 H234 H -0.19143 0.66433 0.96639
 C235 C -0.28148 0.35699 0.50145
 C236 C -0.26270 0.34903 0.49613
 C237 C -0.26053 0.33944 0.47850
 C238 C -0.27709 0.33723 0.46629
 C239 C -0.29588 0.34490 0.47196
 C240 C -0.29841 0.35559 0.48925
 C241 C -0.24518 0.35116 0.50895
 C242 C -0.24560 0.34238 0.52726
 C243 C -0.22930 0.34465 0.53985
 C244 C -0.21269 0.35622 0.53394
 C245 C -0.21220 0.36546 0.51580
 C246 C -0.22835 0.36247 0.50316
 H247 H -0.28224 0.36525 0.51469
 H248 H -0.24589 0.33381 0.47429
 H249 H -0.25876 0.33394 0.53171
 H250 H -0.22826 0.36967 0.48920
 H251 H -0.30863 0.34180 0.46286
 H252 H -0.19995 0.35798 0.54345
 C253 C 0.22489 -0.14268 0.00186
 C254 C 0.24264 -0.15237 -0.00379
 C255 C 0.24358 -0.16201 -0.02152
 C256 C 0.22683 -0.16216 -0.03398
 C257 C 0.20913 -0.15214 -0.02794
 C258 C 0.20816 -0.14213 -0.01033
 C259 C 0.26072 -0.15124 0.00840
 C260 C 0.26097 -0.16080 0.02634
 C261 C 0.27776 -0.15920 0.03866
 C262 C 0.29415 -0.14723 0.03234
 C263 C 0.29384 -0.13721 0.01452
 C264 C 0.27720 -0.13967 0.00246
 H265 H 0.22449 -0.13470 0.01531
 H266 H 0.25782 -0.16853 -0.02573
 H267 H 0.24754 -0.16876 0.03073
 H268 H 0.27661 -0.13180 -0.01118
 H269 H 0.19563 -0.15242 -0.03658
 H270 H 0.30767 -0.14604 0.04085
 C271 C 0.22143 1.14537 0.49978
 C272 C 0.23836 1.15697 0.50473
 C273 C 0.23873 1.16746 0.52208
 C274 C 0.22223 1.16671 0.53450
 C275 C 0.20540 1.15509 0.52930
 C276 C 0.20504 1.14395 0.51229
 C277 C 0.25624 1.15726 0.49233
 C278 C 0.25531 1.16655 0.47424
 C279 C 0.27232 1.16707 0.46222
 C280 C 0.29025 1.15790 0.46911
 C281 C 0.29121 1.14796 0.48696
 C282 C 0.27413 1.14802 0.49861
 H283 H 0.22149 1.13671 0.48671
 H284 H 0.25207 1.17587 0.52602
 H285 H 0.24103 1.17275 0.46957
 H286 H 0.27445 1.14036 0.51235
 H287 H 0.19246 1.15455 0.53861
 H288 H 0.30397 1.15909 0.46098
 C289 C 0.10370 0.50831 0.22681
 C290 C 0.11476 0.51092 0.24368
 C291 C 0.12446 0.52953 0.24699
 C292 C 0.12337 0.54548 0.23343
 C293 C 0.11190 0.54260 0.21675
 C294 C 0.10193 0.52417 0.21333
 C295 C 0.11460 0.49472 0.25849
 C296 C 0.12432 0.47597 0.25553
 C297 C 0.12307 0.46021 0.26928
 C298 C 0.11163 0.46353 0.28582
 C299 C 0.10147 0.48195 0.28871
 C300 C 0.10335 0.49762 0.27513
 H301 H 0.09577 0.49416 0.22460
 H302 H 0.13301 0.53141 0.26004
 H303 H 0.13259 0.47364 0.24245
 H304 H 0.09539 0.51184 0.27709
 H305 H 0.11058 0.55483 0.20638
 H306 H 0.11088 0.45185 0.29677
 C307 C -0.10362 0.99513 0.23026
 C308 C -0.11479 0.99447 0.24723
 C309 C -0.12791 0.97817 0.25077
 C310 C -0.13031 0.96243 0.23737
 C311 C -0.11910 0.96372 0.22035
 C312 C -0.10594 0.97996 0.21635
 C313 C -0.11268 1.01088 0.26140
 C314 C -0.12605 1.02750 0.26134
 C315 C -0.12444 1.04310 0.27510
 C316 C -0.10873 1.04141 0.28872
 C317 C -0.09531 1.02486 0.28894
 C318 C -0.09744 1.00964 0.27520
 H319 H -0.09388 1.00801 0.22769
 H320 H -0.13656 0.97828 0.26381
 H321 H -0.13809 1.02756 0.25092
 H322 H -0.08719 0.99681 0.27515
 H323 H -0.11916 0.95097 0.21075
 H324 H -0.10642 1.05315 0.29915
 C325 C 0.40002 0.49594 -0.26979
 C326 C 0.38671 0.49555 -0.25429
 C327 C 0.37360 0.47905 -0.25192
 C328 C 0.37383 0.46282 -0.26485
 C329 C 0.38745 0.46336 -0.28014
 C330 C 0.40073 0.47983 -0.28297
 C331 C 0.38793 0.51157 -0.23963
 C332 C 0.37370 0.52741 -0.23900
 C333 C 0.37511 0.54294 -0.22512
 C334 C 0.39136 0.54187 -0.21204
 C335 C 0.40558 0.52608 -0.21251
 C336 C 0.40375 0.51101 -0.22639
 H337 H 0.41049 0.50845 -0.27081
 H338 H 0.36342 0.47880 -0.23990
 H339 H 0.36135 0.52708 -0.24908
 H340 H 0.41473 0.49883 -0.22700
 H341 H 0.38726 0.45092 -0.29009
 H342 H 0.39352 0.55361 -0.20157
 C343 C 0.60374 0.00794 -0.27979
 C344 C 0.61590 0.00946 -0.26349
 C345 C 0.62645 0.02746 -0.26005
 C346 C 0.62499 0.04406 -0.27279
 C347 C 0.61245 0.04240 -0.28896
 C348 C 0.60164 0.02437 -0.29284
 C349 C 0.61674 -0.00752 -0.24952
 C350 C 0.62939 -0.02437 -0.25255
 C351 C 0.63029 -0.04044 -0.23911
 C352 C 0.61803 -0.03945 -0.22286
 C353 C 0.60540 -0.02271 -0.21960
 C354 C 0.60478 -0.00680 -0.23307
 H355 H 0.59514 -0.00585 -0.28151
 H356 H 0.63600 0.02836 -0.24753
 H357 H 0.63875 -0.02472 -0.26514
 H358 H 0.59522 0.00629 -0.23065
 H359 H 0.61166 0.05515 -0.29875
 H360 H 0.61803 -0.05198 -0.21274
 C361 C 0.00563 0.22601 0.91018
 C362 C -0.00065 0.24502 0.90322
 C363 C -0.01931 0.24691 0.89402
 C364 C -0.03159 0.22991 0.89156
 C365 C -0.02528 0.21104 0.89875
 C366 C -0.00665 0.20894 0.90799
 C367 C 0.01280 0.26265 0.90437
 C368 C 0.03275 0.26090 0.89825
 C369 C 0.04515 0.27803 0.89737
 C370 C 0.03763 0.29681 0.90330
 C371 C 0.01765 0.29878 0.90926
 C372 C 0.00532 0.28160 0.90993
 H373 H 0.02018 0.22450 0.91707
 H374 H -0.02384 0.26144 0.88798
 H375 H 0.03817 0.24648 0.89295
 H376 H -0.01024 0.28306 0.91423
 H377 H -0.03506 0.19799 0.89733
 H378 H 0.04730 0.31003 0.90292
 C379 C 0.49778 0.21723 0.10162
 C380 C 0.49774 0.23701 0.10873
 C381 C 0.51226 0.24279 0.12213
 C382 C 0.52697 0.22891 0.12810
 C383 C 0.52722 0.20925 0.12067
 C384 C 0.51269 0.20333 0.10735
 C385 C 0.48276 0.25173 0.10179
 C386 C 0.46228 0.24764 0.10399
 C387 C 0.44787 0.26227 0.09881
 C388 C 0.45414 0.28058 0.09045
 C389 C 0.47463 0.28490 0.08841
 C390 C 0.48892 0.27035 0.09403
 H391 H 0.48646 0.21283 0.09129
 H392 H 0.51232 0.25813 0.12763
 H393 H 0.45774 0.23368 0.11103
 H394 H 0.50481 0.27370 0.09291
 H395 H 0.53908 0.19880 0.12489
 H396 H 0.44304 0.29186 0.08626
 C397 C 0.00934 0.71814 0.59084
 C398 C 0.00872 0.73734 0.59916
 C399 C 0.02532 0.74442 0.60941
 C400 C 0.04259 0.73237 0.61124
 C401 C 0.04331 0.71329 0.60257
 C402 C 0.02667 0.70605 0.59240
 C403 C -0.00931 0.75002 0.59712
 C404 C -0.02765 0.74342 0.60455
 C405 C -0.04493 0.75578 0.60320
 C406 C -0.04346 0.77459 0.59351
 C407 C -0.02495 0.78144 0.58647
 C408 C -0.00795 0.76903 0.58830
 H409 H -0.00374 0.71263 0.58322
 H410 H 0.02474 0.75921 0.61608
 H411 H -0.02831 0.72860 0.61135
 H412 H 0.00652 0.77430 0.58324
 H413 H 0.05671 0.70399 0.60399
 H414 H -0.05628 0.78471 0.59259
 C415 C 0.49771 0.72064 0.40085
 C416 C 0.48759 0.73867 0.39588
 C417 C 0.46704 0.73808 0.39149
 C418 C 0.45663 0.71964 0.39167
 C419 C 0.46684 0.70175 0.39669
 C420 C 0.48740 0.70211 0.40121
 C421 C 0.49865 0.75790 0.39378
 C422 C 0.51658 0.75841 0.38337
 C423 C 0.52650 0.77683 0.38010
 C424 C 0.51852 0.79475 0.38754
 C425 C 0.50062 0.79447 0.39804
 C426 C 0.49073 0.77598 0.40112
 H427 H 0.51364 0.72100 0.40410
 H428 H 0.45943 0.75185 0.38684
 H429 H 0.52239 0.74456 0.37718
 H430 H 0.47681 0.77565 0.40909
 H431 H 0.45870 0.68752 0.39712
 H432 H 0.52657 0.80889 0.38555
 Zr433 Zr 0.01491 -0.03001 1.03396
 O434 O 0.03485 -0.01829 1.05473
 O435 O 0.00979 -0.05933 1.04439
 O436 O 0.00072 -0.02743 1.06094
 O437 O 0.05203 -0.04164 1.00156
 O438 O -0.02880 -0.01131 1.05377
 O439 O 0.04353 -0.04440 1.03298
 O440 O -0.01343 -0.07218 1.02378
 O441 O -0.01575 -0.03399 1.02817
 O442 O 0.01298 -0.04662 1.00869
 O443 O 0.00265 -0.00057 1.03182
 O444 O 0.03055 -0.01282 1.01327
 Zr445 Zr -0.01546 -0.00361 0.97847
 Zr446 Zr -0.02758 -0.00475 1.02450
 Zr447 Zr 0.02689 -0.02899 0.98783
 Zr448 Zr -0.01744 -0.04960 1.00249
 O449 O 0.05354 -0.01446 0.97860
 O450 O -0.04625 -0.05703 1.01327
 O451 O -0.00335 -0.03329 0.98036
 O452 O -0.03082 -0.02092 0.99912
 O453 O -0.01366 0.01319 1.00366
 O454 O 0.01512 0.00011 0.98449
 C455 C -0.00216 -0.07336 1.03876
 C456 C 0.05579 -0.04687 1.01893
 C457 C -0.01657 -0.02000 1.06554
 O458 O -0.05568 -0.01822 1.03072
 O459 O -0.05073 0.01211 1.01143
 O460 O -0.04297 0.01278 0.97980
 C461 C -0.05436 0.01737 0.99404
 O462 O 0.03779 0.02127 1.03239
 Zr463 Zr 0.01686 0.01580 1.01004
 O464 O -0.00999 0.02573 0.96794
 O465 O -0.03112 0.02275 1.03955
 O466 O 0.00586 0.04100 1.02552
 O467 O 0.04489 0.02490 0.99854
 O468 O 0.01105 0.03925 0.99019
 C469 C 0.00064 0.04030 0.97470
 O470 O -0.03663 -0.01458 0.95844
 O471 O 0.03190 -0.05783 0.97559
 O472 O -0.00236 -0.00803 0.95126
 O473 O 0.02589 -0.02649 0.95797
 O474 O -0.00678 -0.07598 0.98858
 O475 O -0.03610 -0.05622 0.97867
 C476 C 0.01373 -0.01760 0.94624
 H477 H 0.01951 -0.06012 1.00969
 H478 H -0.04514 -0.02251 0.99557
 H479 H 0.02244 0.00744 0.97429
 H480 H 0.00406 0.00677 1.04402
 H481 H -0.04777 -0.07197 1.01248
 H482 H -0.06303 -0.00867 1.03906
 H483 H -0.04464 0.02239 1.04541
 H484 H 0.01408 0.05295 1.02191
 H485 H -0.01545 -0.08745 0.99257
 H486 H 0.04535 -0.05736 0.96958
 H487 H 0.06094 -0.02435 0.97066
 H488 H 0.04589 0.03984 0.99994
 H489 H -0.04250 -0.06964 0.98061
 H490 H -0.03885 -0.00361 0.94885
 H491 H 0.03732 -0.02929 1.06423
 H492 H 0.04171 0.03577 1.03219
 Zr493 Zr 0.51114 0.47271 0.53320
 O494 O 0.53423 0.48281 0.55165
 O495 O 0.50186 0.44607 0.54694
 O496 O 0.49937 0.47986 0.56039
 O497 O 0.54183 0.44988 0.49999
 O498 O 0.47417 0.50249 0.55377
 O499 O 0.53698 0.45362 0.53198
 O500 O 0.47507 0.43563 0.52916
 O501 O 0.47986 0.47412 0.52977
 O502 O 0.50396 0.45415 0.51009
 O503 O 0.50423 0.50363 0.52878
 O504 O 0.52764 0.48436 0.50991
 Zr505 Zr 0.48105 0.49847 0.47733
 Zr506 Zr 0.47318 0.50462 0.52386
 Zr507 Zr 0.51881 0.46653 0.48668
 Zr508 Zr 0.47308 0.45642 0.50612
 O509 O 0.54691 0.47461 0.47482
 O510 O 0.44459 0.45567 0.51955
 O511 O 0.48775 0.46734 0.48157
 O512 O 0.46488 0.48662 0.50065
 O513 O 0.48805 0.51732 0.50038
 O514 O 0.51223 0.49691 0.48106
 C515 C 0.48720 0.43398 0.54347
 C516 C 0.54658 0.44641 0.51751
 C517 C 0.48496 0.49184 0.56542
 O518 O 0.44421 0.49712 0.53407
 O519 O 0.45142 0.52314 0.51051
 O520 O 0.45624 0.51877 0.47863
 C521 C 0.44673 0.52643 0.49292
 O522 O 0.54263 0.51816 0.52480
 Zr523 Zr 0.51904 0.51464 0.50456
 O524 O 0.49042 0.52531 0.46379
 O525 O 0.47583 0.53420 0.53515
 O526 O 0.51425 0.54297 0.51801
 O527 O 0.54708 0.51709 0.49044
 O528 O 0.51582 0.53669 0.48280
 C529 C 0.50414 0.53821 0.46817
 O530 O 0.45702 0.48932 0.45949
 O531 O 0.51716 0.43625 0.47687
 O532 O 0.49116 0.48940 0.44999
 O533 O 0.51569 0.46618 0.45693
 O534 O 0.47754 0.42725 0.49421
 O535 O 0.45128 0.45112 0.48449
 C536 C 0.50467 0.47633 0.44510
 H537 H 0.50801 0.43980 0.51209
 H538 H 0.45022 0.48720 0.49825
 H539 H 0.51982 0.50168 0.46977
 H540 H 0.50807 0.51179 0.54001
 H541 H 0.44036 0.44126 0.52036
 H542 H 0.43941 0.50887 0.54155
 H543 H 0.46314 0.53707 0.54198
 H544 H 0.52413 0.55270 0.51268
 H545 H 0.46739 0.41804 0.49988
 H546 H 0.52984 0.43347 0.46999
 H547 H 0.55161 0.46280 0.46738
 H548 H 0.55092 0.53163 0.49036
 H549 H 0.44284 0.43937 0.48820
 H550 H 0.45586 0.49954 0.44905
 H551 H 0.53555 0.47253 0.56202
 H552 H 0.54898 0.53162 0.52299
 Zr553 Zr 0.48632 1.03416 0.52071
 O554 O 0.46323 1.02579 0.53989
 O555 O 0.49389 1.06300 0.53035
 O556 O 0.49789 1.03192 0.54896
 O557 O 0.45560 1.05028 0.48379
 O558 O 0.52418 1.00978 0.54627
 O559 O 0.45985 1.05186 0.51604
 O560 O 0.52124 1.07160 0.51257
 O561 O 0.51769 1.03367 0.51831
 O562 O 0.49336 1.04940 0.49530
 O563 O 0.49461 1.00328 0.52114
 O564 O 0.47092 1.01844 0.49902
 Zr565 Zr 0.51888 1.00182 0.47007
 Zr566 Zr 0.52577 1.00297 0.51714
 Zr567 Zr 0.47964 1.03300 0.47364
 Zr568 Zr 0.52439 1.04800 0.49252
 O569 O 0.45221 1.02204 0.46237
 O570 O 0.55262 1.05188 0.50617
 O571 O 0.51082 1.03291 0.46948
 O572 O 0.53397 1.01769 0.49176
 O573 O 0.51204 0.98629 0.49546
 O574 O 0.48759 1.00247 0.47278
 C575 C 0.50846 1.07489 0.52598
 C576 C 0.45032 1.05632 0.50042
 C577 C 0.51276 1.02157 0.55599
 O578 O 0.55432 1.01300 0.52653
 O579 O 0.54817 0.98319 0.50727
 O580 O 0.54431 0.98289 0.47493
 C581 C 0.55343 0.97750 0.49050
 O582 O 0.45698 0.98653 0.51844
 Zr583 Zr 0.48089 0.98811 0.49848
 O584 O 0.51086 0.97294 0.46035
 O585 O 0.52391 0.97553 0.53297
 O586 O 0.48657 0.96236 0.51610
 O587 O 0.45335 0.98229 0.48421
 O588 O 0.48560 0.96325 0.48031
 C589 C 0.49755 0.96024 0.46623
 O590 O 0.54301 1.00937 0.45175
 O591 O 0.48034 1.06154 0.45949
 O592 O 0.50912 1.00618 0.44145
 O593 O 0.48343 1.02896 0.44424
 O594 O 0.51901 1.07507 0.47665
 O595 O 0.54633 1.05113 0.47074
 C596 C 0.49515 1.01766 0.43433
 H597 H 0.48870 1.06369 0.49504
 H598 H 0.54870 1.01734 0.48984
 H599 H 0.48047 0.99575 0.46215
 H600 H 0.49085 0.99675 0.53339
 H601 H 0.55624 1.06643 0.50500
 H602 H 0.55937 1.00274 0.53583
 H603 H 0.53658 0.97424 0.54038
 H604 H 0.47725 0.95148 0.51205
 H605 H 0.52865 1.08540 0.48126
 H606 H 0.46774 1.06270 0.45195
 H607 H 0.44722 1.03244 0.45318
 H608 H 0.45014 0.96773 0.48619
 H609 H 0.55416 1.06369 0.47284
 H610 H 0.54488 0.99781 0.44294
 H611 H 0.46125 1.03741 0.54859
 H612 H 0.45127 0.97265 0.51850
 Zr613 Zr -0.00673 0.53748 1.02443
 O614 O -0.03154 0.52861 1.04133
 O615 O 0.00156 0.56462 1.03722
 O616 O 0.00256 0.53221 1.05304
 O617 O -0.03378 0.55852 0.98698
 O618 O 0.02818 0.50929 1.05036
 O619 O -0.03218 0.55658 1.01945
 O620 O 0.03153 0.57213 1.02325
 O621 O 0.02469 0.53541 1.02402
 O622 O 0.00298 0.55470 1.00102
 O623 O 0.00016 0.50630 1.02297
 O624 O -0.02109 0.52472 1.00053
 Zr625 Zr 0.02818 0.50816 0.97370
 Zr626 Zr 0.03154 0.50464 1.02097
 Zr627 Zr -0.00969 0.54108 0.97712
 Zr628 Zr 0.03407 0.55178 1.00019
 O629 O -0.03667 0.53294 0.96304
 O630 O 0.06207 0.55281 1.01473
 O631 O 0.02169 0.53959 0.97508
 O632 O 0.04230 0.52120 0.99754
 O633 O 0.01869 0.49077 0.99717
 O634 O -0.00318 0.51032 0.97441
 C635 C 0.01788 0.57489 1.03599
 C636 C -0.04034 0.56291 1.00367
 C637 C 0.01660 0.52084 1.06018
 O638 O 0.05972 0.51224 1.03306
 O639 O 0.05396 0.48485 1.01096
 O640 O 0.05246 0.48776 0.97856
 C641 C 0.06030 0.48060 0.99413
 O642 O -0.03802 0.49234 1.01639
 Zr643 Zr -0.01252 0.49410 0.99829
 O644 O 0.01979 0.48055 0.96133
 O645 O 0.02716 0.47605 1.03430
 O646 O -0.00959 0.46664 1.01411
 O647 O -0.03909 0.49087 0.98178
 O648 O -0.00757 0.47078 0.97857
 C649 C 0.00546 0.46815 0.96531
 O650 O 0.05381 0.51622 0.95754
 O651 O -0.00622 0.57067 0.96558
 O652 O 0.02057 0.51508 0.94500
 O653 O -0.00397 0.53912 0.94776
 O654 O 0.03068 0.58103 0.98764
 O655 O 0.05692 0.55612 0.97947
 C656 C 0.00766 0.52771 0.93785
 H657 H -0.00101 0.56917 1.00188
 H658 H 0.05711 0.52027 0.99651
 H659 H -0.00982 0.50487 0.96288
 H660 H -0.00482 0.49894 1.03438
 H661 H 0.06641 0.56720 1.01499
 H662 H 0.06357 0.50094 1.04179
 H663 H 0.03912 0.47348 1.04245
 H664 H -0.01911 0.45674 1.00856
 H665 H 0.04049 0.59008 0.99397
 H666 H -0.01808 0.57329 0.95732
 H667 H -0.04036 0.54443 0.95447
 H668 H -0.04318 0.47642 0.98256
 H669 H 0.06488 0.56832 0.98268
 H670 H 0.05589 0.50538 0.94799
 H671 H -0.03367 0.53950 1.05082
 H672 H -0.04434 0.47882 1.01514
 Zr673 Zr -0.01584 0.47071 0.47302
 O674 O -0.03544 0.48620 0.45394
 O675 O -0.01433 0.44197 0.46089
 O676 O -0.00272 0.47347 0.44560
 O677 O -0.05232 0.46042 0.50655
 O678 O 0.02777 0.48788 0.45167
 O679 O -0.04547 0.45902 0.47471
 O680 O 0.00783 0.42473 0.48001
 O681 O 0.01452 0.46311 0.47686
 O682 O -0.01427 0.45203 0.49728
 O683 O -0.00076 0.49852 0.47602
 O684 O -0.02875 0.48771 0.49527
 Zr685 Zr 0.01975 0.48943 0.52806
 Zr686 Zr 0.02927 0.49068 0.48140
 Zr687 Zr -0.02535 0.46929 0.51962
 Zr688 Zr 0.01595 0.44541 0.50164
 O689 O -0.04954 0.48601 0.53123
 O690 O 0.04295 0.43587 0.48844
 O691 O 0.00469 0.46137 0.52516
 O692 O 0.03221 0.47228 0.50576
 O693 O 0.01820 0.50816 0.50379
 O694 O -0.01061 0.49674 0.52400
 C695 C -0.00412 0.42609 0.46552
 C696 C -0.05725 0.45666 0.48916
 C697 C 0.01438 0.48079 0.44028
 O698 O 0.05500 0.47454 0.47227
 O699 O 0.05505 0.50312 0.49400
 O700 O 0.04830 0.50364 0.52590
 C701 C 0.05962 0.50736 0.51135
 O702 O -0.03415 0.52349 0.47880
 Zr703 Zr -0.01219 0.51442 0.49931
 O704 O 0.01826 0.51847 0.54008
 O705 O 0.03506 0.51924 0.46849
 O706 O -0.00047 0.53961 0.48394
 O707 O -0.03802 0.52557 0.51348
 O708 O -0.00196 0.53575 0.51919
 C709 C 0.00957 0.53476 0.53395
 O710 O 0.04100 0.47485 0.54613
 O711 O -0.03316 0.44025 0.53043
 O712 O 0.00789 0.48358 0.55569
 O713 O -0.02201 0.46812 0.54929
 O714 O 0.00369 0.41950 0.51545
 O715 O 0.03556 0.43499 0.52369
 C716 C -0.00839 0.47439 0.56086
 H717 H -0.02216 0.43939 0.49604
 H718 H 0.04647 0.46892 0.50843
 H719 H -0.01641 0.50396 0.53503
 H720 H -0.00217 0.50698 0.46433
 H721 H 0.04293 0.42081 0.48831
 H722 H 0.06288 0.48399 0.46417
 H723 H 0.04802 0.51798 0.46168
 H724 H -0.00735 0.55197 0.48859
 H725 H 0.01072 0.40739 0.51043
 H726 H -0.04611 0.44179 0.53721
 H727 H -0.05751 0.47635 0.53902
 H728 H -0.03747 0.54060 0.51294
 H729 H 0.04050 0.42121 0.52060
 H730 H 0.04481 0.48477 0.55608
 H731 H -0.03949 0.47631 0.44405
 H732 H -0.03721 0.53812 0.48030
 Zr733 Zr 0.47990 -0.02057 -0.03882
 O734 O 0.46077 -0.00603 -0.05895
 O735 O 0.48101 -0.05007 -0.04904
 O736 O 0.49340 -0.02041 -0.06625
 O737 O 0.44290 -0.02782 -0.00510
 O738 O 0.52509 -0.00895 -0.06012
 O739 O 0.45015 -0.03193 -0.03662
 O740 O 0.50268 -0.06643 -0.02876
 O741 O 0.50993 -0.02880 -0.03386
 O742 O 0.48064 -0.03730 -0.01330
 O743 O 0.49590 0.00688 -0.03775
 O744 O 0.46718 -0.00140 -0.01811
 Zr745 Zr 0.51528 0.00141 0.01518
 Zr746 Zr 0.52552 -0.00149 -0.03117
 Zr747 Zr 0.46971 -0.01789 0.00754
 Zr748 Zr 0.51053 -0.04454 -0.00799
 O749 O 0.44552 0.00036 0.01692
 O750 O 0.53770 -0.05576 -0.01963
 O751 O 0.49939 -0.02634 0.01416
 O752 O 0.52759 -0.01791 -0.00555
 O753 O 0.51468 0.01815 -0.01036
 O754 O 0.48525 0.00936 0.01000
 C755 C 0.49111 -0.06572 -0.04358
 C756 C 0.43825 -0.03325 -0.02214
 C757 C 0.51152 -0.01598 -0.07135
 O758 O 0.55177 -0.01836 -0.03748
 O759 O 0.55066 0.01282 -0.01932
 O760 O 0.54445 0.01430 0.01258
 C761 C 0.55552 0.01776 -0.00221
 O762 O 0.46325 0.03297 -0.03734
 Zr763 Zr 0.48462 0.02504 -0.01589
 O764 O 0.51422 0.03135 0.02505
 O765 O 0.53176 0.02500 -0.04740
 O766 O 0.49755 0.04834 -0.03290
 O767 O 0.45901 0.03838 -0.00308
 O768 O 0.49521 0.04771 0.00249
 C769 C 0.50617 0.04739 0.01766
 O770 O 0.53566 -0.01232 0.03470
 O771 O 0.46137 -0.04562 0.02080
 O772 O 0.50273 -0.00141 0.04292
 O773 O 0.47215 -0.01575 0.03725
 O774 O 0.49716 -0.06920 0.00687
 O775 O 0.52903 -0.05375 0.01535
 C776 C 0.48580 -0.00894 0.04853
 H777 H 0.47255 -0.04988 -0.01377
 H778 H 0.54172 -0.02136 -0.00238
 H779 H 0.47943 0.01771 0.02029
 H780 H 0.49502 0.01423 -0.05011
 H781 H 0.53728 -0.07079 -0.01873
 H782 H 0.55986 -0.00996 -0.04638
 H783 H 0.54490 0.02276 -0.05366
 H784 H 0.49100 0.06132 -0.02939
 H785 H 0.50406 -0.08177 0.00276
 H786 H 0.44832 -0.04323 0.02717
 H787 H 0.43716 -0.00831 0.02534
 H788 H 0.46005 0.05329 -0.00492
 H789 H 0.53373 -0.06785 0.01333
 H790 H 0.53962 -0.00172 0.04395
 H791 H 0.45660 -0.01653 -0.06822
 H792 H 0.46084 0.04782 -0.03719
 Zr793 Zr 0.52288 0.52266 -0.03028
 O794 O 0.54434 0.50911 -0.04844
 O795 O 0.51936 0.55131 -0.04278
 O796 O 0.51107 0.51936 -0.05825
 O797 O 0.55703 0.53530 0.00483
 O798 O 0.48168 0.50225 -0.05348
 O799 O 0.55154 0.53648 -0.02731
 O800 O 0.49510 0.56634 -0.02480
 O801 O 0.49193 0.52787 -0.02770
 O802 O 0.51906 0.54073 -0.00617
 O803 O 0.50972 0.49373 -0.02791
 O804 O 0.53607 0.50617 -0.00747
 Zr805 Zr 0.48670 0.50026 0.02316
 Zr806 Zr 0.47902 0.49921 -0.02380
 Zr807 Zr 0.53046 0.52384 0.01670
 Zr808 Zr 0.48833 0.54499 -0.00306
 O809 O 0.55571 0.50897 0.02895
 O810 O 0.46092 0.55280 -0.01689
 O811 O 0.49977 0.52943 0.02102
 O812 O 0.47393 0.51694 0.00035
 O813 O 0.49040 0.48204 -0.00093
 O814 O 0.51761 0.49528 0.02032
 C815 C 0.50744 0.56607 -0.03892
 C816 C 0.56247 0.53960 -0.01233
 C817 C 0.49492 0.51062 -0.06427
 O818 O 0.45289 0.51385 -0.03449
 O819 O 0.45335 0.48539 -0.01221
 O820 O 0.45888 0.48483 0.01996
 C821 C 0.44819 0.48095 0.00499
 O822 O 0.54439 0.47103 -0.02395
 Zr823 Zr 0.52135 0.47818 -0.00417
 O824 O 0.48985 0.47113 0.03514
 O825 O 0.47549 0.47038 -0.03648
 O826 O 0.51161 0.45249 -0.01971
 O827 O 0.54768 0.46882 0.01068
 O828 O 0.51265 0.45585 0.01574
 C829 C 0.50044 0.45579 0.02992
 O830 O 0.46423 0.51311 0.04066
 O831 O 0.53513 0.55311 0.02813
 O832 O 0.49745 0.50550 0.05124
 O833 O 0.52646 0.52313 0.04634
 O834 O 0.49840 0.57168 0.01072
 O835 O 0.46763 0.55352 0.01849
 C836 C 0.51313 0.51509 0.05727
 H837 H 0.52599 0.55399 -0.00719
 H838 H 0.45940 0.51933 0.00243
 H839 H 0.52363 0.48822 0.03149
 H840 H 0.51218 0.48559 -0.03949
 H841 H 0.45981 0.56781 -0.01694
 H842 H 0.44591 0.50396 -0.04277
 H843 H 0.46279 0.47089 -0.04392
 H844 H 0.51915 0.44054 -0.01478
 H845 H 0.49055 0.58324 0.00538
 H846 H 0.54794 0.55253 0.03539
 H847 H 0.56258 0.51901 0.03715
 H848 H 0.54838 0.45380 0.01006
 H849 H 0.46189 0.56704 0.01535
 H850 H 0.46073 0.50271 0.05042
 H851 H 0.54798 0.51946 -0.05819
 H852 H 0.54813 0.45652 -0.02255
 Zr853 Zr 0.01670 1.02112 0.47321
 O854 O 0.04005 1.00847 0.45663
 O855 O 0.01134 1.04856 0.45902
 O856 O 0.00637 1.01568 0.44506
 O857 O 0.04751 1.03948 0.50876
 O858 O -0.02131 0.99581 0.44948
 O859 O 0.04382 1.03759 0.47646
 O860 O -0.01671 1.06079 0.47360
 O861 O -0.01468 1.02308 0.47416
 O862 O 0.00969 1.04034 0.49583
 O863 O 0.00652 0.99112 0.47671
 O864 O 0.03020 1.00769 0.49754
 Zr865 Zr -0.02002 0.99860 0.52626
 Zr866 Zr -0.02473 0.99352 0.47916
 Zr867 Zr 0.02145 1.02629 0.52019
 Zr868 Zr -0.02148 1.04138 0.49733
 O869 O 0.04717 1.01499 0.53470
 O870 O -0.04927 1.04526 0.48280
 O871 O -0.00986 1.02884 0.52281
 O872 O -0.03307 1.01220 0.50185
 O873 O -0.01304 0.97932 0.50357
 O874 O 0.01136 0.99674 0.52507
 C875 C -0.00320 1.06130 0.46048
 C876 C 0.05358 1.04281 0.49160
 C877 C -0.00874 1.00537 0.43883
 O878 O -0.05205 1.00408 0.46703
 O879 O -0.04875 0.97696 0.49058
 O880 O -0.04649 0.98087 0.52279
 C881 C -0.05518 0.97394 0.50764
 O882 O 0.04337 0.97298 0.48407
 Zr883 Zr 0.01825 0.97854 0.50193
 O884 O -0.01522 0.97043 0.53967
 O885 O -0.02402 0.96395 0.46757
 O886 O 0.01258 0.95110 0.48724
 O887 O 0.04411 0.97268 0.51895
 O888 O 0.01005 0.95642 0.52226
 C889 C -0.00322 0.95577 0.53555
 O890 O -0.04425 1.01045 0.54222
 O891 O 0.02262 1.05671 0.52966
 O892 O -0.01102 1.00633 0.55442
 O893 O 0.01565 1.02747 0.54951
 O894 O -0.01462 1.07030 0.50872
 O895 O -0.04348 1.04927 0.51790
 C896 C 0.00296 1.01835 0.56038
 H897 H 0.01530 1.05415 0.49414
 H898 H -0.04786 1.01312 0.50310
 H899 H 0.01735 0.99099 0.53690
 H900 H 0.01042 0.98267 0.46570
 H901 H -0.05194 1.06005 0.48178
 H902 H -0.05738 0.99295 0.45905
 H903 H -0.03635 0.96250 0.45972
 H904 H 0.02099 0.94035 0.49326
 H905 H -0.02341 1.08035 0.50214
 H906 H 0.03494 1.05797 0.53754
 H907 H 0.05257 1.02632 0.54239
 H908 H 0.04625 0.95777 0.51920
 H909 H -0.05016 1.06213 0.51401
 H910 H -0.04733 1.00035 0.55238
 H911 H 0.04319 1.01850 0.44644
 H912 H 0.04861 0.95910 0.48654
 Zr913 Zr 0.72313 0.26720 0.22205
 O914 O 0.73513 0.28776 0.20172
 O915 O 0.69363 0.26396 0.21247
 O916 O 0.72369 0.25405 0.19448
 O917 O 0.71445 0.30367 0.25619
 O918 O 0.73745 0.22275 0.20010
 O919 O 0.70994 0.29648 0.22469
 O920 O 0.67995 0.24111 0.23331
 O921 O 0.71744 0.23630 0.22700
 O922 O 0.70770 0.26506 0.24793
 O923 O 0.75146 0.25295 0.22250
 O924 O 0.74193 0.28112 0.24242
 Zr925 Zr 0.74950 0.23250 0.27532
 Zr926 Zr 0.74566 0.22241 0.22898
 Zr927 Zr 0.72683 0.27721 0.26839
 Zr928 Zr 0.70302 0.23437 0.25326
 O929 O 0.74343 0.30275 0.27750
 O930 O 0.69342 0.20641 0.24158
 O931 O 0.72095 0.24667 0.27504
 O932 O 0.73060 0.21896 0.25494
 O933 O 0.76502 0.23449 0.24944
 O934 O 0.75496 0.26337 0.27023
 C935 C 0.67912 0.25285 0.21851
 C936 C 0.70824 0.30824 0.23928
 C937 C 0.72932 0.23620 0.18911
 O938 O 0.73055 0.19502 0.22261
 O939 O 0.76167 0.19764 0.24051
 O940 O 0.76418 0.20397 0.27234
 C941 C 0.76754 0.19295 0.25750
 O942 O 0.77488 0.28760 0.22254
 Zr943 Zr 0.76940 0.26534 0.24404
 O944 O 0.77939 0.23506 0.28428
 O945 O 0.77182 0.21799 0.21244
 O946 O 0.79277 0.25411 0.22652
 O947 O 0.78103 0.29199 0.25674
 O948 O 0.79326 0.25608 0.26195
 C949 C 0.79437 0.24437 0.27672
 O950 O 0.73806 0.21096 0.29503
 O951 O 0.69939 0.28364 0.28233
 O952 O 0.74707 0.24474 0.30317
 O953 O 0.73023 0.27452 0.29801
 O954 O 0.67836 0.24596 0.26890
 O955 O 0.69631 0.21478 0.27663
 C956 C 0.73849 0.26117 0.30904
 H957 H 0.69468 0.27237 0.24781
 H958 H 0.72832 0.20445 0.25808
 H959 H 0.76319 0.26965 0.28038
 H960 H 0.75824 0.25447 0.21003
 H961 H 0.67861 0.20577 0.24291
 H962 H 0.73912 0.18749 0.21354
 H963 H 0.77035 0.20465 0.20614
 H964 H 0.80521 0.26154 0.22985
 H965 H 0.66630 0.23813 0.26514
 H966 H 0.70106 0.29687 0.28878
 H967 H 0.73462 0.31047 0.28622
 H968 H 0.79576 0.29200 0.25466
 H969 H 0.68269 0.20903 0.27489
 H970 H 0.74916 0.20751 0.30401
 H971 H 0.72408 0.29134 0.19274
 H972 H 0.78934 0.29111 0.22249
 Zr973 Zr 0.77517 0.73011 0.72030
 O974 O 0.76262 0.70864 0.70140
 O975 O 0.80348 0.73475 0.70844
 O976 O 0.77176 0.74283 0.69259
 O977 O 0.78894 0.69504 0.75485
 O978 O 0.75384 0.77189 0.69764
 O979 O 0.78983 0.70153 0.72284
 O980 O 0.81735 0.75935 0.72700
 O981 O 0.77887 0.76149 0.72347
 O982 O 0.79292 0.73407 0.74467
 O983 O 0.74597 0.74211 0.72254
 O984 O 0.75961 0.71551 0.74269
 Zr985 Zr 0.75151 0.76435 0.77415
 Zr986 Zr 0.74990 0.77320 0.72728
 Zr987 Zr 0.77685 0.72130 0.76714
 Zr988 Zr 0.79570 0.76522 0.74832
 O989 O 0.76318 0.69523 0.77924
 O990 O 0.80209 0.79331 0.73463
 O991 O 0.78095 0.75241 0.77200
 O992 O 0.76727 0.77852 0.75170
 O993 O 0.73366 0.76039 0.74979
 O994 O 0.74802 0.73301 0.77077
 C995 C 0.81769 0.74703 0.71281
 C996 C 0.79326 0.69014 0.73761
 C997 C 0.76287 0.75921 0.68673
 O998 O 0.76257 0.80100 0.71796
 O999 O 0.73381 0.79748 0.73915
 O1000 O 0.73520 0.79199 0.77128
 C1001 C 0.72970 0.80241 0.75643
 O1002 O 0.72545 0.70582 0.72587
 Zr1003 Zr 0.73128 0.72910 0.74596
 O1004 O 0.72269 0.76001 0.78552
 O1005 O 0.72155 0.77536 0.71358
 O1006 O 0.70542 0.73793 0.73011
 O1007 O 0.72322 0.70197 0.76054
 O1008 O 0.70874 0.73687 0.76546
 C1009 C 0.70796 0.74904 0.77969
 O1010 O 0.76319 0.78709 0.79223
 O1011 O 0.80615 0.71699 0.77842
 O1012 O 0.75752 0.75310 0.80212
 O1013 O 0.77689 0.72507 0.79676
 O1014 O 0.82243 0.75597 0.76258
 O1015 O 0.80314 0.78627 0.77004
 C1016 C 0.76840 0.73792 0.80786
 H1017 H 0.80630 0.72755 0.74371
 H1018 H 0.76883 0.79324 0.75402
 H1019 H 0.74135 0.72648 0.78183
 H1020 H 0.73811 0.73961 0.71077
 H1021 H 0.81688 0.79505 0.73474
 H1022 H 0.75247 0.80767 0.70954
 H1023 H 0.72130 0.78850 0.70657
 H1024 H 0.69400 0.72965 0.73476
 H1025 H 0.83355 0.76439 0.75752
 H1026 H 0.80607 0.70390 0.78553
 H1027 H 0.77351 0.68843 0.78730
 H1028 H 0.70840 0.70070 0.75972
 H1029 H 0.81620 0.79271 0.76704
 H1030 H 0.75276 0.78998 0.80193
 H1031 H 0.77304 0.70558 0.69174
 H1032 H 0.71136 0.70123 0.72714
 Zr1033 Zr 0.22079 0.23952 0.77713
 O1034 O 0.22993 0.21560 0.79562
 O1035 O 0.19384 0.24862 0.78957
 O1036 O 0.22653 0.25058 0.80499
 O1037 O 0.20064 0.20912 0.74201
 O1038 O 0.24895 0.27629 0.80006
 O1039 O 0.20211 0.21348 0.77421
 O1040 O 0.18483 0.27675 0.77233
 O1041 O 0.22209 0.27122 0.77433
 O1042 O 0.20360 0.24730 0.75307
 O1043 O 0.25149 0.24677 0.77471
 O1044 O 0.23373 0.22349 0.75428
 Zr1045 Zr 0.24887 0.27143 0.72351
 Zr1046 Zr 0.25242 0.27829 0.77038
 Zr1047 Zr 0.21730 0.23294 0.73014
 Zr1048 Zr 0.20574 0.27861 0.74981
 O1049 O 0.22609 0.20485 0.71825
 O1050 O 0.20404 0.30751 0.76285
 O1051 O 0.21797 0.26445 0.72566
 O1052 O 0.23576 0.28719 0.74631
 O1053 O 0.26632 0.26384 0.74751
 O1054 O 0.24756 0.23984 0.72657
 C1055 C 0.18253 0.26413 0.78630
 C1056 C 0.19618 0.20387 0.75918
 C1057 C 0.23814 0.26494 0.81092
 O1058 O 0.24397 0.30716 0.78075
 O1059 O 0.27116 0.30074 0.75853
 O1060 O 0.26855 0.29649 0.72637
 C1061 C 0.27532 0.30581 0.74121
 O1062 O 0.26618 0.20788 0.77081
 Zr1063 Zr 0.26382 0.23241 0.75099
 O1064 O 0.27645 0.26278 0.71173
 O1065 O 0.28114 0.27555 0.78325
 O1066 O 0.29088 0.23666 0.76653
 O1067 O 0.26754 0.20466 0.73625
 O1068 O 0.28696 0.23676 0.73104
 C1069 C 0.28928 0.24912 0.71691
 O1070 O 0.24031 0.29602 0.70553
 O1071 O 0.18794 0.23494 0.71854
 O1072 O 0.24192 0.26174 0.69551
 O1073 O 0.21899 0.23658 0.70040
 O1074 O 0.17719 0.27405 0.73698
 O1075 O 0.20116 0.30055 0.72778
 C1076 C 0.22974 0.24796 0.68947
 H1077 H 0.18937 0.24314 0.75425
 H1078 H 0.23629 0.30206 0.74417
 H1079 H 0.25311 0.23250 0.71550
 H1080 H 0.25901 0.24260 0.78633
 H1081 H 0.18972 0.31172 0.76284
 H1082 H 0.25515 0.31193 0.78894
 H1083 H 0.28342 0.28818 0.79052
 H1084 H 0.30088 0.22683 0.76163
 H1085 H 0.16788 0.28426 0.74238
 H1086 H 0.18566 0.22230 0.71128
 H1087 H 0.21484 0.20027 0.71004
 H1088 H 0.28196 0.20091 0.73703
 H1089 H 0.18911 0.30882 0.73067
 H1090 H 0.25098 0.29763 0.69578
 H1091 H 0.21924 0.21401 0.80535
 H1092 H 0.27956 0.20139 0.76965
 Zr1093 Zr 0.27521 0.76526 0.28386
 O1094 O 0.26861 0.78845 0.30362
 O1095 O 0.30147 0.75285 0.29554
 O1096 O 0.26906 0.75279 0.31123
 O1097 O 0.29774 0.79585 0.24975
 O1098 O 0.24445 0.72949 0.30549
 O1099 O 0.29581 0.78994 0.28183
 O1100 O 0.30758 0.72521 0.27706
 O1101 O 0.27101 0.73407 0.27968
 O1102 O 0.29125 0.75764 0.25932
 O1103 O 0.24395 0.76099 0.28155
 O1104 O 0.26342 0.78396 0.26190
 Zr1105 Zr 0.24337 0.73988 0.22931
 Zr1106 Zr 0.24009 0.73004 0.27582
 Zr1107 Zr 0.27850 0.77473 0.23718
 Zr1108 Zr 0.28623 0.72694 0.25471
 O1109 O 0.27209 0.80433 0.22674
 O1110 O 0.28552 0.69712 0.26641
 O1111 O 0.27484 0.74379 0.23138
 O1112 O 0.25550 0.72143 0.25120
 O1113 O 0.22709 0.74732 0.25382
 O1114 O 0.24766 0.77093 0.23372
 C1115 C 0.31125 0.73660 0.29152
 C1116 C 0.30263 0.79968 0.26710
 C1117 C 0.25648 0.73901 0.31668
 O1118 O 0.24606 0.69985 0.28487
 O1119 O 0.21944 0.70996 0.26323
 O1120 O 0.22187 0.71626 0.23130
 C1121 C 0.21476 0.70634 0.24574
 O1122 O 0.23294 0.80118 0.27968
 Zr1123 Zr 0.23258 0.77810 0.25867
 O1124 O 0.21650 0.75213 0.21835
 O1125 O 0.21194 0.73452 0.28907
 O1126 O 0.20548 0.77523 0.27427
 O1127 O 0.23120 0.80714 0.24534
 O1128 O 0.20881 0.77768 0.23885
 C1129 C 0.20515 0.76666 0.22419
 O1130 O 0.24906 0.71600 0.20998
 O1131 O 0.30731 0.77073 0.22506
 O1132 O 0.25094 0.75064 0.20171
 O1133 O 0.27602 0.77334 0.20734
 O1134 O 0.31486 0.72981 0.24178
 O1135 O 0.28844 0.70629 0.23167
 C1136 C 0.26424 0.76358 0.19609
 H1137 H 0.30582 0.76038 0.26053
 H1138 H 0.25366 0.70684 0.24840
 H1139 H 0.24264 0.77952 0.22305
 H1140 H 0.23705 0.76497 0.29344
 H1141 H 0.29939 0.69161 0.26600
 H1142 H 0.23467 0.69557 0.29302
 H1143 H 0.20868 0.72168 0.29585
 H1144 H 0.19640 0.78637 0.27006
 H1145 H 0.32331 0.71844 0.24661
 H1146 H 0.31063 0.78357 0.21830
 H1147 H 0.28353 0.80840 0.21855
 H1148 H 0.21726 0.81227 0.24667
 H1149 H 0.29976 0.69679 0.23403
 H1150 H 0.23808 0.71620 0.20034
 H1151 H 0.27962 0.78838 0.31322
 H1152 H 0.22016 0.80892 0.27911
 Zr1153 Zr 0.22538 0.76744 0.72158
 O1154 O 0.23707 0.78690 0.70018
 O1155 O 0.19549 0.76441 0.71305
 O1156 O 0.22472 0.75314 0.69453
 O1157 O 0.21904 0.80600 0.75426
 O1158 O 0.23808 0.72186 0.70095
 O1159 O 0.21257 0.79687 0.72349
 O1160 O 0.18196 0.74302 0.73528
 O1161 O 0.21901 0.73699 0.72797
 O1162 O 0.21091 0.76701 0.74801
 O1163 O 0.25334 0.75247 0.72174
 O1164 O 0.24534 0.78182 0.74065
 Zr1165 Zr 0.25280 0.73454 0.77532
 Zr1166 Zr 0.24692 0.72246 0.72963
 Zr1167 Zr 0.23113 0.77968 0.76723
 Zr1168 Zr 0.20558 0.73675 0.75477
 O1169 O 0.24891 0.80501 0.77471
 O1170 O 0.19478 0.70847 0.74480
 O1171 O 0.22469 0.74961 0.77532
 O1172 O 0.23276 0.72063 0.75617
 O1173 O 0.26737 0.73487 0.74891
 O1174 O 0.25893 0.76501 0.76882
 C1175 C 0.18092 0.75399 0.71998
 C1176 C 0.21184 0.80951 0.73747
 C1177 C 0.22996 0.73501 0.68965
 O1178 O 0.23066 0.69540 0.72469
 O1179 O 0.26239 0.69768 0.74163
 O1180 O 0.26641 0.70537 0.77305
 C1181 C 0.26873 0.69355 0.75858
 O1182 O 0.27764 0.78660 0.71973
 Zr1183 Zr 0.27243 0.76531 0.74213
 O1184 O 0.28311 0.73654 0.78319
 O1185 O 0.27245 0.71638 0.71268
 O1186 O 0.29474 0.75289 0.72408
 O1187 O 0.28539 0.79196 0.75363
 O1188 O 0.29678 0.75567 0.75931
 C1189 C 0.29813 0.74467 0.77455
 O1190 O 0.24162 0.71425 0.79631
 O1191 O 0.20444 0.78774 0.78170
 O1192 O 0.25136 0.74801 0.80269
 O1193 O 0.23536 0.77813 0.79682
 O1194 O 0.18178 0.74980 0.77059
 O1195 O 0.19936 0.71867 0.77930
 C1196 C 0.24337 0.76490 0.80814
 H1197 H 0.19805 0.77462 0.74801
 H1198 H 0.23018 0.70636 0.75999
 H1199 H 0.26772 0.77143 0.77847
 H1200 H 0.25971 0.75324 0.70901
 H1201 H 0.18004 0.70832 0.74673
 H1202 H 0.23870 0.68716 0.71573
 H1203 H 0.27037 0.70283 0.70694
 H1204 H 0.30749 0.76012 0.72670
 H1205 H 0.16942 0.74204 0.76763
 H1206 H 0.20680 0.80119 0.78755
 H1207 H 0.24068 0.81342 0.78337
 H1208 H 0.30003 0.79136 0.75110
 H1209 H 0.18557 0.71315 0.77832
 H1210 H 0.25297 0.71090 0.80502
 H1211 H 0.22580 0.79033 0.69140
 H1212 H 0.29214 0.78992 0.71923
 Zr1213 Zr 0.26865 0.23168 0.21518
 O1214 O 0.25690 0.20971 0.19633
 O1215 O 0.29700 0.23689 0.20366
 O1216 O 0.26560 0.24403 0.18725
 O1217 O 0.28235 0.19722 0.25036
 O1218 O 0.24690 0.27277 0.19162
 O1219 O 0.28380 0.20338 0.21832
 O1220 O 0.30915 0.26298 0.22144
 O1221 O 0.27190 0.26313 0.21828
 O1222 O 0.28574 0.23603 0.23991
 O1223 O 0.23929 0.24351 0.21657
 O1224 O 0.25257 0.21712 0.23726
 Zr1225 Zr 0.24323 0.26613 0.26810
 Zr1226 Zr 0.24282 0.27470 0.22120
 Zr1227 Zr 0.26913 0.22324 0.26208
 Zr1228 Zr 0.28804 0.26722 0.24348
 O1229 O 0.25561 0.19676 0.27353
 O1230 O 0.29448 0.29602 0.23118
 O1231 O 0.27282 0.25441 0.26691
 O1232 O 0.25947 0.28030 0.24601
 O1233 O 0.22604 0.26193 0.24335
 O1234 O 0.24008 0.23475 0.26477
 C1235 C 0.31013 0.25056 0.20737
 C1236 C 0.28721 0.19223 0.23327
 C1237 C 0.25633 0.26006 0.18105
 O1238 O 0.25602 0.30202 0.21132
 O1239 O 0.22739 0.29965 0.23265
 O1240 O 0.22686 0.29370 0.26477
 C1241 C 0.22263 0.30451 0.24980
 O1242 O 0.21917 0.20693 0.21970
 Zr1243 Zr 0.22403 0.23057 0.23964
 O1244 O 0.21421 0.26171 0.27873
 O1245 O 0.21447 0.27696 0.20754
 O1246 O 0.19866 0.23890 0.22285
 O1247 O 0.21546 0.20367 0.25432
 O1248 O 0.20076 0.23865 0.25828
 C1249 C 0.19962 0.25084 0.27248
 O1250 O 0.25443 0.28888 0.28643
 O1251 O 0.29802 0.21992 0.27451
 O1252 O 0.24793 0.25488 0.29623
 O1253 O 0.26727 0.22666 0.29176
 O1254 O 0.31514 0.25787 0.25701
 O1255 O 0.29485 0.28736 0.26612
 C1256 C 0.25811 0.23944 0.30249
 H1257 H 0.29926 0.22978 0.23914
 H1258 H 0.26098 0.29502 0.24835
 H1259 H 0.23304 0.22819 0.27560
 H1260 H 0.23173 0.24081 0.20467
 H1261 H 0.30924 0.29791 0.23173
 H1262 H 0.24602 0.30874 0.20282
 H1263 H 0.21442 0.28993 0.20025
 H1264 H 0.18717 0.23058 0.22727
 H1265 H 0.32601 0.26667 0.25202
 H1266 H 0.29801 0.20687 0.28167
 H1267 H 0.26573 0.19018 0.28198
 H1268 H 0.20069 0.20235 0.25299
 H1269 H 0.30810 0.29374 0.26383
 H1270 H 0.24373 0.29184 0.29583
 H1271 H 0.26755 0.20676 0.18687
 H1272 H 0.20507 0.20223 0.22054
 Zr1273 Zr 0.72021 0.73722 0.28143
 O1274 O 0.72925 0.71285 0.29943
 O1275 O 0.69305 0.74584 0.29370
 O1276 O 0.72564 0.74769 0.30953
 O1277 O 0.69979 0.70808 0.24552
 O1278 O 0.74812 0.77348 0.30529
 O1279 O 0.70124 0.71147 0.27788
 O1280 O 0.68360 0.77387 0.27652
 O1281 O 0.72143 0.76899 0.27928
 O1282 O 0.70332 0.74553 0.25733
 O1283 O 0.75091 0.74460 0.27946
 O1284 O 0.73341 0.72165 0.25844
 Zr1285 Zr 0.74880 0.77022 0.22866
 Zr1286 Zr 0.75181 0.77621 0.27569
 Zr1287 Zr 0.71724 0.73163 0.23430
 Zr1288 Zr 0.70534 0.77686 0.25474
 O1289 O 0.72614 0.70355 0.22246
 O1290 O 0.70349 0.80512 0.26892
 O1291 O 0.71788 0.76322 0.23042
 O1292 O 0.73538 0.78552 0.25160
 O1293 O 0.76602 0.76223 0.25270
 O1294 O 0.74751 0.73859 0.23119
 C1295 C 0.68122 0.76087 0.29019
 C1296 C 0.69495 0.70267 0.26254
 C1297 C 0.73720 0.76189 0.31583
 O1298 O 0.74318 0.80479 0.28661
 O1299 O 0.77043 0.79912 0.26440
 O1300 O 0.76835 0.79523 0.23217
 C1301 C 0.77476 0.80446 0.24719
 O1302 O 0.76579 0.70591 0.27514
 Zr1303 Zr 0.76354 0.73074 0.25564
 O1304 O 0.77646 0.76175 0.21691
 O1305 O 0.78047 0.77334 0.28864
 O1306 O 0.79046 0.73489 0.27142
 O1307 O 0.76750 0.70320 0.24060
 O1308 O 0.78682 0.73535 0.23585
 C1309 C 0.78916 0.74787 0.22184
 O1310 O 0.74034 0.79508 0.21098
 O1311 O 0.68820 0.73405 0.22204
 O1312 O 0.74234 0.76094 0.20041
 O1313 O 0.71948 0.73560 0.20466
 O1314 O 0.67719 0.77280 0.24099
 O1315 O 0.70104 0.79968 0.23345
 C1316 C 0.73037 0.74714 0.19403
 H1317 H 0.68905 0.74142 0.25818
 H1318 H 0.73588 0.80043 0.24973
 H1319 H 0.75320 0.73141 0.22010
 H1320 H 0.75832 0.74022 0.29107
 H1321 H 0.68916 0.80928 0.26899
 H1322 H 0.75426 0.80938 0.29501
 H1323 H 0.78262 0.78580 0.29620
 H1324 H 0.80054 0.72518 0.26647
 H1325 H 0.66769 0.78278 0.24647
 H1326 H 0.68599 0.72155 0.21455
 H1327 H 0.71508 0.69915 0.21394
 H1328 H 0.78192 0.69945 0.24151
 H1329 H 0.68915 0.80804 0.23668
 H1330 H 0.75113 0.79691 0.20138
 H1331 H 0.71850 0.71102 0.30905
 H1332 H 0.77926 0.69958 0.27411
 Zr1333 Zr 0.78059 0.26174 0.78495
 O1334 O 0.77190 0.28298 0.80588
 O1335 O 0.80862 0.25235 0.79515
 O1336 O 0.77647 0.24734 0.81188
 O1337 O 0.79652 0.29820 0.75252
 O1338 O 0.75516 0.22118 0.80526
 O1339 O 0.79864 0.28835 0.78381
 O1340 O 0.81827 0.22777 0.77439
 O1341 O 0.78043 0.23057 0.77914
 O1342 O 0.79650 0.25808 0.75953
 O1343 O 0.75011 0.25352 0.78308
 O1344 O 0.76566 0.28016 0.76453
 Zr1345 Zr 0.75057 0.23593 0.72981
 Zr1346 Zr 0.75014 0.22274 0.77572
 Zr1347 Zr 0.78088 0.27483 0.73887
 Zr1348 Zr 0.79547 0.22730 0.75331
 O1349 O 0.77006 0.30368 0.72992
 O1350 O 0.79916 0.19720 0.76381
 O1351 O 0.78123 0.24405 0.73135
 O1352 O 0.76562 0.21782 0.75024
 O1353 O 0.73435 0.23953 0.75509
 O1354 O 0.75078 0.26697 0.73588
 C1355 C 0.82086 0.23861 0.78942
 C1356 C 0.80240 0.30070 0.76983
 C1357 C 0.76570 0.23188 0.81685
 O1358 O 0.76031 0.19307 0.78261
 O1359 O 0.73121 0.20141 0.76245
 O1360 O 0.73161 0.21018 0.73093
 C1361 C 0.72590 0.19876 0.74495
 O1362 O 0.73364 0.29195 0.78388
 Zr1363 Zr 0.73580 0.27039 0.76158
 O1364 O 0.72213 0.24506 0.72000
 O1365 O 0.72222 0.22239 0.79007
 O1366 O 0.70988 0.26290 0.77765
 O1367 O 0.73024 0.29973 0.74993
 O1368 O 0.71168 0.26770 0.74233
 C1369 C 0.70909 0.25731 0.72707
 O1370 O 0.75881 0.21399 0.70933
 O1371 O 0.80971 0.27605 0.72629
 O1372 O 0.75584 0.24916 0.70268
 O1373 O 0.77770 0.27485 0.70902
 O1374 O 0.82273 0.23459 0.73928
 O1375 O 0.79930 0.20828 0.72924
 C1376 C 0.76703 0.26418 0.69750
 H1377 H 0.81060 0.26275 0.76043
 H1378 H 0.76543 0.20332 0.74663
 H1379 H 0.74431 0.27540 0.72582
 H1380 H 0.74311 0.25585 0.79531
 H1381 H 0.81360 0.19367 0.76276
 H1382 H 0.74986 0.18679 0.79077
 H1383 H 0.72087 0.20875 0.79603
 H1384 H 0.69925 0.27288 0.77423
 H1385 H 0.83278 0.22413 0.74301
 H1386 H 0.81092 0.28966 0.72026
 H1387 H 0.78065 0.30989 0.72187
 H1388 H 0.71575 0.30272 0.75161
 H1389 H 0.81159 0.19993 0.73097
 H1390 H 0.74769 0.21324 0.69989
 H1391 H 0.78309 0.28377 0.81525
 H1392 H 0.72002 0.29805 0.78383
 C1393 C 0.41601 1.03497 0.31368
 C1394 C 0.42657 1.03530 0.33090
 C1395 C 0.44362 1.02326 0.33367
 C1396 C 0.45013 1.01066 0.31890
 C1397 C 0.43968 1.01038 0.30146
 C1398 C 0.42238 1.02267 0.29838
 N1399 N 0.45379 1.02437 0.35169
 N1400 N 0.46833 1.01291 0.35684
 C1401 C 0.47731 1.01524 0.37538
 C1402 C 0.48982 0.99997 0.38301
 C1403 C 0.49672 1.00108 0.40197
 C1404 C 0.49121 1.01759 0.41347
 C1405 C 0.47971 1.03342 0.40530
 C1406 C 0.47283 1.03225 0.38656
 H1407 H 0.40239 1.04392 0.31292
 H1408 H 0.42125 1.04488 0.34232
 H1409 H 0.46341 1.00129 0.32072
 H1410 H 0.44584 1.00107 0.29028
 H1411 H 0.49350 0.98680 0.37456
 H1412 H 0.50550 0.98863 0.40786
 H1413 H 0.47540 1.04650 0.41364
 H1414 H 0.46350 1.04446 0.38099
 C1415 C -0.07223 0.54257 0.81817
 C1416 C -0.06078 0.54456 0.83475
 C1417 C -0.04340 0.53302 0.83756
 C1418 C -0.03731 0.51948 0.82338
 C1419 C -0.04862 0.51757 0.80658
 C1420 C -0.06647 0.52904 0.80358
 N1421 N -0.03276 0.53510 0.85522
 N1422 N -0.01805 0.52386 0.86035
 C1423 C -0.00875 0.52651 0.87868
 C1424 C 0.00375 0.51123 0.88624
 C1425 C 0.01039 0.51215 0.90525
 C1426 C 0.00463 0.52846 0.91688
 C1427 C -0.00664 0.54446 0.90873
 C1428 C -0.01329 0.54348 0.88989
 H1429 H -0.08610 0.55113 0.81749
 H1430 H -0.06576 0.55486 0.84575
 H1431 H -0.02378 0.51048 0.82522
 H1432 H -0.04282 0.50750 0.79581
 H1433 H 0.00745 0.49809 0.87775
 H1434 H 0.01900 0.49956 0.91112
 H1435 H -0.01115 0.55738 0.91719
 H1436 H -0.02265 0.55567 0.88433
 C1437 C 0.09121 -0.03348 0.82290
 C1438 C 0.08260 -0.03385 0.84105
 C1439 C 0.06362 -0.02533 0.84414
 C1440 C 0.05310 -0.01656 0.82871
 C1441 C 0.06165 -0.01628 0.81045
 C1442 C 0.08088 -0.02466 0.80733
 N1443 N 0.05567 -0.02573 0.86313
 N1444 N 0.03916 -0.01733 0.86786
 C1445 C 0.03222 -0.01818 0.88725
 C1446 C 0.01501 -0.00727 0.89257
 C1447 C 0.00859 -0.00726 0.91165
 C1448 C 0.01932 -0.01826 0.92571
 C1449 C 0.03631 -0.02953 0.92012
 C1450 C 0.04268 -0.02947 0.90120
 H1451 H 0.10615 -0.03974 0.82116
 H1452 H 0.09089 -0.04059 0.85285
 H1453 H 0.03835 -0.00997 0.83074
 H1454 H 0.05314 -0.00963 0.79877
 H1455 H 0.00675 0.00150 0.88198
 H1456 H -0.00452 0.00160 0.91543
 H1457 H 0.04496 -0.03829 0.93043
 H1458 H 0.05594 -0.03815 0.89754
 C1459 C 0.54818 0.48603 0.30493
 C1460 C 0.53669 0.48725 0.32157
 C1461 C 0.54268 0.47684 0.33813
 C1462 C 0.56042 0.46517 0.33786
 C1463 C 0.57209 0.46421 0.32135
 C1464 C 0.56618 0.47467 0.30463
 N1465 N 0.53104 0.47880 0.35522
 N1466 N 0.53374 0.46671 0.36927
 C1467 C 0.52361 0.46850 0.38717
 C1468 C 0.52671 0.45321 0.40079
 C1469 C 0.51942 0.45532 0.41926
 C1470 C 0.50890 0.47295 0.42461
 C1471 C 0.50479 0.48789 0.41064
 C1472 C 0.51214 0.48571 0.39199
 H1473 H 0.54289 0.49397 0.29228
 H1474 H 0.52306 0.49628 0.32155
 H1475 H 0.56553 0.45717 0.35054
 H1476 H 0.58601 0.45567 0.32188
 H1477 H 0.53547 0.43988 0.39724
 H1478 H 0.52270 0.44341 0.42958
 H1479 H 0.49684 0.50168 0.41435
 H1480 H 0.50961 0.49777 0.38165
 C1481 C 0.58382 0.53827 0.18292
 C1482 C 0.57528 0.53819 0.16469
 C1483 C 0.55768 0.52729 0.16106
 C1484 C 0.54852 0.51648 0.17602
 C1485 C 0.55701 0.51662 0.19436
 C1486 C 0.57483 0.52749 0.19803
 N1487 N 0.54985 0.52737 0.14198
 N1488 N 0.53460 0.51717 0.13666
 C1489 C 0.52796 0.51783 0.11712
 C1490 C 0.51266 0.50479 0.11089
 C1491 C 0.50714 0.50425 0.09152
 C1492 C 0.51690 0.51679 0.07811
 C1493 C 0.53166 0.53037 0.08464
 C1494 C 0.53713 0.53088 0.10383
 H1495 H 0.59770 0.54650 0.18509
 H1496 H 0.58254 0.54650 0.15324
 H1497 H 0.53486 0.50798 0.17354
 H1498 H 0.54954 0.50837 0.20571
 H1499 H 0.50540 0.49467 0.12096
 H1500 H 0.49574 0.49361 0.08697
 H1501 H 0.53938 0.54044 0.07482
 H1502 H 0.54883 0.54126 0.10819
 C1503 C 0.05076 1.00892 0.69924
 C1504 C 0.03918 1.00648 0.68266
 C1505 C 0.04100 1.02003 0.66733
 C1506 C 0.05461 1.03619 0.66880
 C1507 C 0.06638 1.03858 0.68521
 C1508 C 0.06487 1.02494 0.70088
 N1509 N 0.02964 1.01671 0.65014
 N1510 N 0.02908 1.03008 0.63691
 C1511 C 0.01922 1.02735 0.61887
 C1512 C 0.01988 1.04338 0.60571
 C1513 C 0.01323 1.04072 0.58702
 C1514 C 0.00564 1.02189 0.58106
 C1515 C 0.00370 1.00610 0.59458
 C1516 C 0.01057 1.00877 0.61341
 H1517 H 0.04802 0.99840 0.71084
 H1518 H 0.02868 0.99398 0.68181
 H1519 H 0.05659 1.04675 0.65703
 H1520 H 0.07732 1.05066 0.68490
 H1521 H 0.02647 1.05776 0.60973
 H1522 H 0.01485 1.05318 0.57694
 H1523 H -0.00190 0.99139 0.59030
 H1524 H 0.00993 0.99614 0.62338
 C1525 C -0.04375 0.47914 0.70335
 C1526 C -0.03296 0.48023 0.68626
 C1527 C -0.03978 0.47006 0.67005
 C1528 C -0.05742 0.45838 0.67128
 C1529 C -0.06834 0.45745 0.68827
 C1530 C -0.06182 0.46806 0.70448
 N1531 N -0.02926 0.47254 0.65232
 N1532 N -0.03405 0.46209 0.63782
 C1533 C -0.02517 0.46447 0.61935
 C1534 C -0.03150 0.45138 0.60502
 C1535 C -0.02523 0.45425 0.58628
 C1536 C -0.01240 0.47041 0.58135
 C1537 C -0.00517 0.48308 0.59590
 C1538 C -0.01160 0.48019 0.61485
 H1539 H -0.03805 0.48720 0.71562
 H1540 H -0.01938 0.48923 0.68559
 H1541 H -0.06314 0.45044 0.65894
 H1542 H -0.08229 0.44903 0.68847
 H1543 H -0.04189 0.43921 0.60831
 H1544 H -0.03087 0.44402 0.57551
 H1545 H 0.00468 0.49566 0.59252
 H1546 H -0.00654 0.49054 0.62576
 C1547 C 0.41364 -0.03427 0.17300
 C1548 C 0.42200 -0.03278 0.15482
 C1549 C 0.43947 -0.02151 0.15170
 C1550 C 0.44858 -0.01153 0.16712
 C1551 C 0.44018 -0.01300 0.18544
 C1552 C 0.42264 -0.02451 0.18859
 N1553 N 0.44729 -0.02061 0.13268
 N1554 N 0.46297 -0.01088 0.12769
 C1555 C 0.46937 -0.01095 0.10809
 C1556 C 0.48610 0.00048 0.10229
 C1557 C 0.49194 0.00098 0.08300
 C1558 C 0.48103 -0.00994 0.06925
 C1559 C 0.46456 -0.02168 0.07532
 C1560 C 0.45882 -0.02219 0.09439
 H1561 H 0.39994 -0.04292 0.17480
 H1562 H 0.41478 -0.04044 0.14303
 H1563 H 0.46211 -0.00271 0.16502
 H1564 H 0.44755 -0.00541 0.19717
 H1565 H 0.49445 0.00920 0.11266
 H1566 H 0.50467 0.01018 0.07882
 H1567 H 0.45586 -0.03049 0.06527
 H1568 H 0.44595 -0.03128 0.09835
 C1569 C 0.33417 0.37886 0.01909
 C1570 C 0.35194 0.39011 0.01928
 C1571 C 0.35188 0.41063 0.01401
 C1572 C 0.33365 0.41978 0.00824
 C1573 C 0.31570 0.40855 0.00829
 C1574 C 0.31569 0.38797 0.01398
 N1575 N 0.37050 0.42164 0.01474
 N1576 N 0.37253 0.43937 0.00761
 C1577 C 0.39126 0.45019 0.00827
 C1578 C 0.39402 0.46661 -0.00421
 C1579 C 0.41243 0.47674 -0.00492
 C1580 C 0.42838 0.47100 0.00724
 C1581 C 0.42540 0.45505 0.02038
 C1582 C 0.40703 0.44453 0.02074
 H1583 H 0.33493 0.36294 0.02306
 H1584 H 0.36587 0.38278 0.02354
 H1585 H 0.33321 0.43565 0.00407
 H1586 H 0.30179 0.41612 0.00439
 H1587 H 0.38203 0.47121 -0.01383
 H1588 H 0.41428 0.48905 -0.01513
 H1589 H 0.43747 0.45026 0.02983
 H1590 H 0.40520 0.43195 0.03063
 C1591 C -0.18558 0.89724 0.54085
 C1592 C -0.16782 0.90856 0.54134
 C1593 C -0.15872 0.91509 0.52448
 C1594 C -0.16809 0.91072 0.50696
 C1595 C -0.18602 0.89957 0.50640
 C1596 C -0.19495 0.89213 0.52334
 N1597 N -0.13993 0.92579 0.52550
 N1598 N -0.13000 0.93025 0.51056
 C1599 C -0.11112 0.94079 0.51079
 C1600 C -0.10145 0.94402 0.49341
 C1601 C -0.08324 0.95440 0.49263
 C1602 C -0.07413 0.96198 0.50930
 C1603 C -0.08374 0.95852 0.52691
 C1604 C -0.10212 0.94797 0.52766
 H1605 H -0.19214 0.89306 0.55441
 H1606 H -0.16100 0.91208 0.55497
 H1607 H -0.16141 0.91566 0.49366
 H1608 H -0.19211 0.89593 0.49252
 H1609 H -0.10816 0.93853 0.48033
 H1610 H -0.07644 0.95662 0.47876
 H1611 H -0.07720 0.96412 0.54001
 H1612 H -0.10933 0.94560 0.54131
 C1613 C -0.18354 0.09995 1.00777
 C1614 C -0.16618 0.08797 1.00951
 C1615 C -0.15607 0.08114 0.99328
 C1616 C -0.16383 0.08608 0.97515
 C1617 C -0.18125 0.09797 0.97339
 C1618 C -0.19121 0.10530 0.98968
 N1619 N -0.13794 0.06949 0.99572
 N1620 N -0.12705 0.06368 0.98185
 C1621 C -0.10891 0.05212 0.98495
 C1622 C -0.09701 0.04654 0.96935
 C1623 C -0.07921 0.03532 0.97211
 C1624 C -0.07304 0.02945 0.99060
 C1625 C -0.08509 0.03516 1.00617
 C1626 C -0.10275 0.04634 1.00339
 H1627 H -0.19062 0.10548 1.02061
 H1628 H -0.16038 0.08427 1.02358
 H1629 H -0.15640 0.08084 0.96239
 H1630 H -0.18692 0.10145 0.95922
 H1631 H -0.10153 0.05090 0.95503
 H1632 H -0.07034 0.03121 0.95981
 H1633 H -0.08092 0.03101 1.02064
 H1634 H -0.11158 0.05042 1.01572
 C1635 C 0.31505 0.60533 0.50524
 C1636 C 0.33332 0.59487 0.50731
 C1637 C 0.34344 0.58741 0.49133
 C1638 C 0.33480 0.59015 0.47317
 C1639 C 0.31651 0.60056 0.47107
 C1640 C 0.30651 0.60852 0.48706
 N1641 N 0.36246 0.57736 0.49402
 N1642 N 0.37298 0.57063 0.48026
 C1643 C 0.39197 0.56062 0.48343
 C1644 C 0.40244 0.55246 0.46793
 C1645 C 0.42057 0.54186 0.47078
 C1646 C 0.42859 0.53927 0.48927
 C1647 C 0.41826 0.54802 0.50469
 C1648 C 0.40019 0.55852 0.50183
 H1649 H 0.30793 0.61143 0.51782
 H1650 H 0.33978 0.59286 0.52141
 H1651 H 0.34222 0.58439 0.46060
 H1652 H 0.31022 0.60245 0.45689
 H1653 H 0.39634 0.55400 0.45364
 H1654 H 0.42805 0.53532 0.45858
 H1655 H 0.42391 0.54644 0.51915
 H1656 H 0.39254 0.56476 0.51406
 C1657 C 0.16865 0.61427 0.52463
 C1658 C 0.15148 0.60212 0.52484
 C1659 C 0.15236 0.58193 0.51891
 C1660 C 0.17073 0.57412 0.51221
 C1661 C 0.18806 0.58628 0.51210
 C1662 C 0.18730 0.60641 0.51868
 N1663 N 0.13445 0.56982 0.52010
 N1664 N 0.13341 0.55183 0.51365
 C1665 C 0.11536 0.53996 0.51481
 C1666 C 0.11362 0.52276 0.50337
 C1667 C 0.09569 0.51175 0.50286
 C1668 C 0.07926 0.51743 0.51420
 C1669 C 0.08129 0.53408 0.52646
 C1670 C 0.09916 0.54542 0.52663
 H1671 H 0.16741 0.62981 0.52943
 H1672 H 0.13742 0.60843 0.52984
 H1673 H 0.17179 0.55855 0.50747
 H1674 H 0.20218 0.57973 0.50755
 H1675 H 0.12595 0.51830 0.49427
 H1676 H 0.09451 0.49898 0.49328
 H1677 H 0.06878 0.53889 0.53519
 H1678 H 0.10019 0.55859 0.53572
 C1679 C 0.68704 0.08802 0.03725
 C1680 C 0.66992 0.07583 0.03616
 C1681 C 0.65951 0.07381 0.01891
 C1682 C 0.66698 0.08363 0.00247
 C1683 C 0.68417 0.09590 0.00355
 C1684 C 0.69412 0.09861 0.02108
 N1685 N 0.64111 0.06242 0.01869
 N1686 N 0.63108 0.05975 0.00342
 C1687 C 0.61239 0.04891 0.00281
 C1688 C 0.60373 0.04526 -0.01498
 C1689 C 0.58543 0.03511 -0.01643
 C1690 C 0.57513 0.02840 -0.00001
 C1691 C 0.58380 0.03216 0.01798
 C1692 C 0.60236 0.04227 0.01939
 H1693 H 0.69454 0.08954 0.05091
 H1694 H 0.66447 0.06828 0.04890
 H1695 H 0.65926 0.08228 -0.01108
 H1696 H 0.68917 0.10393 -0.00910
 H1697 H 0.61121 0.05036 -0.02785
 H1698 H 0.57929 0.03268 -0.03056
 H1699 H 0.57630 0.02726 0.03090
 H1700 H 0.60873 0.04503 0.03336
 C1701 C 0.68670 0.90564 0.46054
 C1702 C 0.66895 0.91708 0.46014
 C1703 C 0.65766 0.91967 0.47674
 C1704 C 0.66484 0.91126 0.49403
 C1705 C 0.68270 0.89991 0.49447
 C1706 C 0.69362 0.89663 0.47764
 N1707 N 0.63884 0.93040 0.47557
 N1708 N 0.62721 0.93194 0.48987
 C1709 C 0.60830 0.94250 0.48911
 C1710 C 0.59721 0.94412 0.50591
 C1711 C 0.57913 0.95494 0.50612
 C1712 C 0.57162 0.96436 0.48943
 C1713 C 0.58246 0.96219 0.47236
 C1714 C 0.60072 0.95140 0.47221
 H1715 H 0.69489 0.90352 0.44738
 H1716 H 0.66371 0.92356 0.44675
 H1717 H 0.65646 0.91312 0.50711
 H1718 H 0.68754 0.89301 0.50781
 H1719 H 0.60279 0.93725 0.51900
 H1720 H 0.57118 0.95615 0.51952
 H1721 H 0.57716 0.96932 0.45929
 H1722 H 0.60899 0.95025 0.45899
 C1723 C 0.19140 0.40612 0.96156
 C1724 C 0.17392 0.41797 0.96188
 C1725 C 0.16305 0.42025 0.97877
 C1726 C 0.17038 0.41104 0.99565
 C1727 C 0.18801 0.39926 0.99537
 C1728 C 0.19849 0.39633 0.97822
 N1729 N 0.14451 0.43155 0.97822
 N1730 N 0.13310 0.43312 0.99269
 C1731 C 0.11449 0.44429 0.99224
 C1732 C 0.10341 0.44586 1.00906
 C1733 C 0.08558 0.45714 1.00948
 C1734 C 0.07830 0.46712 0.99296
 C1735 C 0.08919 0.46509 0.97589
 C1736 C 0.10715 0.45382 0.97553
 H1737 H 0.19925 0.40431 0.94817
 H1738 H 0.16857 0.42506 0.94881
 H1739 H 0.16232 0.41264 1.00894
 H1740 H 0.19301 0.39179 1.00839
 H1741 H 0.10879 0.43854 1.02201
 H1742 H 0.07764 0.45826 1.02289
 H1743 H 0.08410 0.47261 0.96293
 H1744 H 0.11539 0.45276 0.96229
 C1745 C -0.00103 0.28848 0.40100
 C1746 C -0.00574 0.30378 0.41394
 C1747 C -0.00710 0.32400 0.40773
 C1748 C -0.00459 0.32873 0.38828
 C1749 C 0.00041 0.31354 0.37546
 C1750 C 0.00264 0.29346 0.38184
 N1751 N -0.00882 0.33974 0.42151
 N1752 N -0.01122 0.35812 0.41630
 C1753 C -0.01083 0.37450 0.42943
 C1754 C -0.01618 0.39384 0.42283
 C1755 C -0.01422 0.41058 0.43468
 C1756 C -0.00653 0.40821 0.45329
 C1757 C -0.00132 0.38871 0.45997
 C1758 C -0.00356 0.37191 0.44814
 H1759 H 0.00081 0.27299 0.40608
 H1760 H -0.00754 0.30001 0.42890
 H1761 H -0.00548 0.34427 0.38315
 H1762 H 0.00326 0.31754 0.36069
 H1763 H -0.02158 0.39597 0.40834
 H1764 H -0.01832 0.42543 0.42911
 H1765 H 0.00450 0.38645 0.47429
 H1766 H 0.00088 0.35705 0.45341
 C1767 C 0.49857 -0.20242 -0.11062
 C1768 C 0.49361 -0.18759 -0.09730
 C1769 C 0.49319 -0.16710 -0.10272
 C1770 C 0.49710 -0.16159 -0.12178
 C1771 C 0.50240 -0.17632 -0.13497
 C1772 C 0.50351 -0.19675 -0.12937
 N1773 N 0.49056 -0.15195 -0.08849
 N1774 N 0.48777 -0.13352 -0.09330
 C1775 C 0.48702 -0.11744 -0.07987
 C1776 C 0.48098 -0.09831 -0.08640
 C1777 C 0.48196 -0.08166 -0.07439
 C1778 C 0.48929 -0.08384 -0.05562
 C1779 C 0.49512 -0.10317 -0.04895
 C1780 C 0.49388 -0.11995 -0.06100
 H1781 H 0.49958 -0.21817 -0.10607
 H1782 H 0.49073 -0.19198 -0.08264
 H1783 H 0.49698 -0.14581 -0.12629
 H1784 H 0.50623 -0.17176 -0.14938
 H1785 H 0.47590 -0.09624 -0.10099
 H1786 H 0.47748 -0.06695 -0.08005
 H1787 H 0.50076 -0.10527 -0.03455
 H1788 H 0.49885 -0.13467 -0.05580
 C1789 C -0.03780 -0.20512 1.10770
 C1790 C -0.03631 -0.18860 1.09518
 C1791 C -0.02099 -0.17435 1.09749
 C1792 C -0.00708 -0.17672 1.11250
 C1793 C -0.00854 -0.19321 1.12501
 C1794 C -0.02390 -0.20756 1.12271
 N1795 N -0.01993 -0.15749 1.08460
 N1796 N -0.00636 -0.14408 1.08624
 C1797 C -0.00520 -0.12696 1.07369
 C1798 C 0.00959 -0.11242 1.07704
 C1799 C 0.01073 -0.09510 1.06555
 C1800 C -0.00295 -0.09211 1.05041
 C1801 C -0.01760 -0.10697 1.04686
 C1802 C -0.01875 -0.12427 1.05845
 H1803 H -0.04963 -0.21612 1.10551
 H1804 H -0.04708 -0.18690 1.08364
 H1805 H 0.00486 -0.16582 1.11462
 H1806 H 0.00221 -0.19463 1.13659
 H1807 H 0.02011 -0.11442 1.08875
 H1808 H 0.02227 -0.08401 1.06861
 H1809 H -0.02835 -0.10511 1.03533
 H1810 H -0.03030 -0.13540 1.05560
 C1811 C 0.47940 0.32945 0.65176
 C1812 C 0.47982 0.34767 0.64134
 C1813 C 0.48400 0.34746 0.62179
 C1814 C 0.48866 0.32905 0.61287
 C1815 C 0.48870 0.31101 0.62329
 C1816 C 0.48381 0.31105 0.64272
 N1817 N 0.48340 0.36593 0.61102
 N1818 N 0.47996 0.36556 0.59317
 C1819 C 0.48059 0.38336 0.58150
 C1820 C 0.47237 0.38266 0.56314
 C1821 C 0.47400 0.39935 0.55086
 C1822 C 0.48434 0.41681 0.55673
 C1823 C 0.49246 0.41749 0.57526
 C1824 C 0.49043 0.40096 0.58764
 H1825 H 0.47552 0.32966 0.66675
 H1826 H 0.47632 0.36184 0.64834
 H1827 H 0.49218 0.32863 0.59781
 H1828 H 0.49192 0.29689 0.61606
 H1829 H 0.46489 0.36905 0.55828
 H1830 H 0.46771 0.39838 0.53662
 H1831 H 0.50055 0.43072 0.58013
 H1832 H 0.49707 0.40167 0.60175
 C1833 C 0.50197 1.18207 0.62877
 C1834 C 0.49852 1.16643 0.61585
 C1835 C 0.51170 1.16338 0.60064
 C1836 C 0.52843 1.17607 0.59840
 C1837 C 0.53191 1.19164 0.61127
 C1838 C 0.51875 1.19475 0.62659
 N1839 N 0.50796 1.14714 0.58779
 N1840 N 0.51932 1.14379 0.57362
 C1841 C 0.51577 1.12723 0.56108
 C1842 C 0.52927 1.12363 0.54624
 C1843 C 0.52675 1.10684 0.53445
 C1844 C 0.51061 1.09344 0.53742
 C1845 C 0.49684 1.09746 0.55209
 C1846 C 0.49939 1.11418 0.56381
 H1847 H 0.49166 1.18417 0.64051
 H1848 H 0.48561 1.15664 0.61770
 H1849 H 0.53880 1.17400 0.58671
 H1850 H 0.54474 1.20147 0.60907
 H1851 H 0.54194 1.13366 0.54405
 H1852 H 0.53760 1.10416 0.52327
 H1853 H 0.48421 1.08751 0.55477
 H1854 H 0.48873 1.11671 0.57518
 C1855 C 0.00968 0.67036 1.14718
 C1856 C 0.00851 0.65274 1.13633
 C1857 C 0.02450 0.64711 1.12469
 C1858 C 0.04254 0.65796 1.12550
 C1859 C 0.04388 0.67545 1.13642
 C1860 C 0.02702 0.68270 1.14656
 N1861 N 0.02122 0.63214 1.11045
 N1862 N 0.03351 0.62968 1.09681
 C1863 C 0.02943 0.61597 1.08166
 C1864 C 0.04359 0.61367 1.06715
 C1865 C 0.03967 0.60082 1.05183
 C1866 C 0.02141 0.59018 1.05086
 C1867 C 0.00710 0.59289 1.06535
 C1868 C 0.01109 0.60560 1.08062
 H1869 H -0.00325 0.67452 1.15561
 H1870 H -0.00537 0.64419 1.13606
 H1871 H 0.05521 0.65368 1.11674
 H1872 H 0.05755 0.68417 1.13508
 H1873 H 0.05770 0.62180 1.06776
 H1874 H 0.05105 0.59896 1.04098
 H1875 H -0.00710 0.58489 1.06513
 H1876 H -0.00019 0.60733 1.09158
 C1877 C 0.49576 0.66323 -0.15083
 C1878 C 0.49901 0.64630 -0.13906
 C1879 C 0.50651 0.64874 -0.12060
 C1880 C 0.51208 0.66808 -0.11437
 C1881 C 0.50936 0.68494 -0.12621
 C1882 C 0.50052 0.68295 -0.14446
 N1883 N 0.50741 0.63163 -0.10800
 N1884 N 0.50697 0.63392 -0.09002
 C1885 C 0.50784 0.61700 -0.07720
 C1886 C 0.50133 0.61946 -0.05840
 C1887 C 0.50112 0.60290 -0.04582
 C1888 C 0.50793 0.58379 -0.05184
 C1889 C 0.51500 0.58156 -0.07057
 C1890 C 0.51477 0.59799 -0.08322
 H1891 H 0.48970 0.66076 -0.16497
 H1892 H 0.49492 0.63135 -0.14406
 H1893 H 0.51808 0.67021 -0.10014
 H1894 H 0.51282 0.69965 -0.12028
 H1895 H 0.49601 0.63413 -0.05366
 H1896 H 0.49574 0.60504 -0.03141
 H1897 H 0.52038 0.56702 -0.07558
 H1898 H 0.52002 0.59584 -0.09766
 C1899 C -0.02271 1.16118 0.35675
 C1900 C -0.01938 1.14405 0.36810
 C1901 C 0.00005 1.13930 0.37453
 C1902 C 0.01632 1.15075 0.36810
 C1903 C 0.01304 1.16814 0.35696
 C1904 C -0.00668 1.17423 0.35187
 N1905 N 0.00318 1.12441 0.38915
 N1906 N -0.01127 1.11897 0.39983
 C1907 C -0.00874 1.10477 0.41511
 C1908 C -0.02485 1.10135 0.42745
 C1909 C -0.02288 1.08773 0.44268
 C1910 C -0.00473 1.07718 0.44563
 C1911 C 0.01151 1.08083 0.43329
 C1912 C 0.00955 1.09459 0.41818
 H1913 H -0.03819 1.16502 0.35359
 H1914 H -0.03215 1.13514 0.37270
 H1915 H 0.03143 1.14694 0.37272
 H1916 H 0.02599 1.17695 0.35269
 H1917 H -0.03897 1.10926 0.42520
 H1918 H -0.03570 1.08509 0.45183
 H1919 H 0.02569 1.07292 0.43520
 H1920 H 0.02222 1.09710 0.40882
 C1921 C 0.75850 0.69521 0.94861
 C1922 C 0.75618 0.70580 0.93132
 C1923 C 0.76961 0.70280 0.91637
 C1924 C 0.78558 0.68903 0.91895
 C1925 C 0.78789 0.67830 0.93613
 C1926 C 0.77435 0.68101 0.95142
 N1927 N 0.76647 0.71326 0.89851
 N1928 N 0.77934 0.71207 0.88518
 C1929 C 0.77680 0.72116 0.86667
 C1930 C 0.79202 0.71818 0.85334
 C1931 C 0.78951 0.72460 0.83449
 C1932 C 0.77166 0.73429 0.82853
 C1933 C 0.75671 0.73832 0.84212
 C1934 C 0.75921 0.73167 0.86113
 H1935 H 0.74808 0.69884 0.95986
 H1936 H 0.74386 0.71647 0.92961
 H1937 H 0.79608 0.68618 0.90752
 H1938 H 0.79987 0.66719 0.93681
 H1939 H 0.80563 0.71018 0.85743
 H1940 H 0.80138 0.72144 0.82440
 H1941 H 0.74279 0.74566 0.83788
 H1942 H 0.74723 0.73414 0.87125
 C1943 C 0.28484 0.17002 0.42916
 C1944 C 0.28424 0.17891 0.41103
 C1945 C 0.27039 0.19421 0.40664
 C1946 C 0.25689 0.20060 0.42069
 C1947 C 0.25739 0.19170 0.43897
 C1948 C 0.27151 0.17623 0.44368
 N1949 N 0.27038 0.20250 0.38766
 N1950 N 0.25847 0.21640 0.38172
 C1951 C 0.25934 0.22345 0.36226
 C1952 C 0.24534 0.23779 0.35545
 C1953 C 0.24524 0.24374 0.33614
 C1954 C 0.25916 0.23531 0.32335
 C1955 C 0.27359 0.22148 0.33046
 C1956 C 0.27369 0.21564 0.34962
 H1957 H 0.29532 0.15762 0.43130
 H1958 H 0.29454 0.17365 0.40020
 H1959 H 0.24605 0.21248 0.41760
 H1960 H 0.24714 0.19763 0.44948
 H1961 H 0.23421 0.24401 0.36501
 H1962 H 0.23391 0.25437 0.33111
 H1963 H 0.28467 0.21481 0.32111
 H1964 H 0.28481 0.20468 0.35443
 C1965 C 0.71504 0.33599 0.43137
 C1966 C 0.71648 0.32697 0.41352
 C1967 C 0.72806 0.30946 0.41101
 C1968 C 0.73847 0.30102 0.42668
 C1969 C 0.73701 0.31007 0.44470
 C1970 C 0.72511 0.32759 0.44726
 N1971 N 0.72858 0.30081 0.39234
 N1972 N 0.73888 0.28530 0.38764
 C1973 C 0.73806 0.27811 0.36833
 C1974 C 0.75105 0.26262 0.36224
 C1975 C 0.75100 0.25644 0.34306
 C1976 C 0.73793 0.26576 0.32975
 C1977 C 0.72450 0.28073 0.33618
 C1978 C 0.72456 0.28682 0.35513
 H1979 H 0.70611 0.34968 0.43271
 H1980 H 0.70849 0.33366 0.40151
 H1981 H 0.74752 0.28746 0.42503
 H1982 H 0.74487 0.30318 0.45669
 H1983 H 0.76149 0.25566 0.37224
 H1984 H 0.76151 0.24486 0.33856
 H1985 H 0.71398 0.28807 0.32648
 H1986 H 0.71415 0.29860 0.35935
 C1987 C 0.21539 0.83519 0.93257
 C1988 C 0.21658 0.82639 0.91459
 C1989 C 0.23017 0.81071 0.91108
 C1990 C 0.24271 0.80373 0.92587
 C1991 C 0.24163 0.81255 0.94398
 C1992 C 0.22790 0.82853 0.94776
 N1993 N 0.23098 0.80271 0.89217
 N1994 N 0.24250 0.78832 0.88696
 C1995 C 0.24236 0.78181 0.86744
 C1996 C 0.25483 0.76581 0.86156
 C1997 C 0.25512 0.75985 0.84234
 C1998 C 0.24301 0.76999 0.82874
 C1999 C 0.23036 0.78579 0.83486
 C2000 C 0.23002 0.79159 0.85388
 H2001 H 0.20522 0.84791 0.93404
 H2002 H 0.20700 0.83205 0.90319
 H2003 H 0.25330 0.79151 0.92345
 H2004 H 0.25117 0.80622 0.95508
 H2005 H 0.26442 0.75809 0.87184
 H2006 H 0.26501 0.74763 0.83808
 H2007 H 0.22063 0.79384 0.82492
 H2008 H 0.22016 0.80393 0.85791
 C2009 C 0.29018 0.83837 0.07197
 C2010 C 0.29014 0.82905 0.08994
 C2011 C 0.27790 0.81231 0.09363
 C2012 C 0.26574 0.80470 0.07899
 C2013 C 0.26580 0.81390 0.06090
 C2014 C 0.27796 0.83108 0.05695
 N2015 N 0.27799 0.80368 0.11247
 N2016 N 0.26640 0.78933 0.11770
 C2017 C 0.26691 0.78161 0.13692
 C2018 C 0.25232 0.76769 0.14301
 C2019 C 0.25171 0.76119 0.16212
 C2020 C 0.26579 0.76850 0.17542
 C2021 C 0.28085 0.78187 0.16900
 C2022 C 0.28138 0.78837 0.15003
 H2023 H 0.29922 0.85188 0.07039
 H2024 H 0.29945 0.83517 0.10121
 H2025 H 0.25628 0.79160 0.08148
 H2026 H 0.25671 0.80693 0.04996
 H2027 H 0.24109 0.76231 0.13305
 H2028 H 0.23990 0.75091 0.16656
 H2029 H 0.29204 0.78775 0.17875
 H2030 H 0.29294 0.79898 0.14572
 C2031 C 0.77814 0.34604 0.57495
 C2032 C 0.77839 0.33723 0.59314
 C2033 C 0.77072 0.31773 0.59616
 C2034 C 0.76260 0.30703 0.58069
 C2035 C 0.76242 0.31580 0.56239
 C2036 C 0.77032 0.33538 0.55930
 N2037 N 0.77165 0.30928 0.61504
 N2038 N 0.76412 0.29218 0.61967
 C2039 C 0.76570 0.28458 0.63889
 C2040 C 0.75500 0.26719 0.64435
 C2041 C 0.75567 0.26015 0.66330
 C2042 C 0.76722 0.27038 0.67706
 C2043 C 0.77836 0.28751 0.67131
 C2044 C 0.77757 0.29455 0.65250
 H2045 H 0.78396 0.36127 0.57319
 H2046 H 0.78459 0.34566 0.60498
 H2047 H 0.75662 0.29189 0.58270
 H2048 H 0.75647 0.30711 0.55062
 H2049 H 0.74583 0.25931 0.63400
 H2050 H 0.74690 0.24694 0.66722
 H2051 H 0.78747 0.29580 0.68143
 H2052 H 0.78613 0.30793 0.64868
 C2053 C 0.21415 0.16785 0.56940
 C2054 C 0.21402 0.17767 0.58694
 C2055 C 0.22270 0.19684 0.58891
 C2056 C 0.23167 0.20621 0.57302
 C2057 C 0.23164 0.19645 0.55529
 C2058 C 0.22274 0.17718 0.55326
 N2059 N 0.22190 0.20621 0.60724
 N2060 N 0.23097 0.22257 0.61153
 C2061 C 0.22925 0.23071 0.63040
 C2062 C 0.24282 0.24549 0.63671
 C2063 C 0.24256 0.25195 0.65575
 C2064 C 0.22855 0.24379 0.66870
 C2065 C 0.21427 0.22984 0.66194
 C2066 C 0.21465 0.22334 0.64308
 H2067 H 0.20763 0.15284 0.56855
 H2068 H 0.20719 0.17025 0.59914
 H2069 H 0.23843 0.22108 0.57424
 H2070 H 0.23825 0.20413 0.54313
 H2071 H 0.25411 0.25140 0.62708
 H2072 H 0.25378 0.26271 0.66048
 H2073 H 0.20310 0.22335 0.67137
 H2074 H 0.20377 0.21216 0.63856
 C2075 C 0.71949 0.66384 0.07578
 C2076 C 0.71873 0.67415 0.09307
 C2077 C 0.72703 0.69353 0.09477
 C2078 C 0.73629 0.70260 0.07889
 C2079 C 0.73688 0.69237 0.06143
 C2080 C 0.72836 0.67288 0.05964
 N2081 N 0.72548 0.70351 0.11278
 N2082 N 0.73435 0.72005 0.11684
 C2083 C 0.73185 0.72892 0.13533
 C2084 C 0.74560 0.74339 0.14193
 C2085 C 0.74464 0.75033 0.16080
 C2086 C 0.72973 0.74299 0.17325
 C2087 C 0.71522 0.72950 0.16609
 C2088 C 0.71630 0.72250 0.14743
 H2089 H 0.71318 0.64873 0.07510
 H2090 H 0.71166 0.66697 0.10527
 H2091 H 0.74274 0.71763 0.07988
 H2092 H 0.74362 0.69989 0.04925
 H2093 H 0.75761 0.74858 0.13273
 H2094 H 0.75607 0.76068 0.16586
 H2095 H 0.70336 0.72368 0.17514
 H2096 H 0.70525 0.71163 0.14262
 C2097 C 0.13468 0.57395 0.25489
 C2098 C 0.14400 0.59278 0.25767
 C2099 C 0.15258 0.60337 0.24233
 C2100 C 0.15193 0.59473 0.22408
 C2101 C 0.14272 0.57586 0.22129
 C2102 C 0.13383 0.56525 0.23663
 N2103 N 0.16206 0.62263 0.24573
 N2104 N 0.16916 0.63368 0.23234
 C2105 C 0.17907 0.65268 0.23588
 C2106 C 0.18671 0.66391 0.22046
 C2107 C 0.19760 0.68182 0.22352
 C2108 C 0.20111 0.68884 0.24215
 C2109 C 0.19281 0.67783 0.25755
 C2110 C 0.18193 0.65998 0.25446
 H2111 H 0.12780 0.56641 0.26699
 H2112 H 0.14440 0.59922 0.27183
 H2113 H 0.15862 0.60247 0.21200
 H2114 H 0.14272 0.56951 0.20710
 H2115 H 0.18460 0.65852 0.20604
 H2116 H 0.20377 0.68980 0.21131
 H2117 H 0.19515 0.68272 0.27211
 H2118 H 0.17614 0.65167 0.26664
 C2119 C 0.63879 0.07067 0.74938
 C2120 C 0.64967 0.08848 0.75272
 C2121 C 0.65849 0.09922 0.73761
 C2122 C 0.65632 0.09183 0.71896
 C2123 C 0.64551 0.07395 0.71559
 C2124 C 0.63656 0.06312 0.73076
 N2125 N 0.66973 0.11732 0.74168
 N2126 N 0.67734 0.12856 0.72871
 C2127 C 0.68884 0.14643 0.73306
 C2128 C 0.69617 0.15855 0.71811
 C2129 C 0.70790 0.17574 0.72189
 C2130 C 0.71263 0.18111 0.74078
 C2131 C 0.70502 0.16899 0.75576
 C2132 C 0.69325 0.15188 0.75196
 H2133 H 0.63191 0.06295 0.76137
 H2134 H 0.65119 0.09398 0.76717
 H2135 H 0.66310 0.09975 0.70703
 H2136 H 0.64443 0.06844 0.70112
 H2137 H 0.69291 0.15457 0.70347
 H2138 H 0.71348 0.18465 0.70999
 H2139 H 0.70828 0.17260 0.77050
 H2140 H 0.68780 0.14281 0.76380
 C2141 C 0.85856 0.07111 0.29231
 C2142 C 0.84599 0.08819 0.29245
 C2143 C 0.83624 0.09478 0.27583
 C2144 C 0.83900 0.08374 0.25896
 C2145 C 0.85160 0.06661 0.25873
 C2146 C 0.86197 0.06001 0.27537
 N2147 N 0.82395 0.11279 0.27643
 N2148 N 0.81433 0.11927 0.26184
 C2149 C 0.80223 0.13739 0.26177
 C2150 C 0.79206 0.14268 0.24498
 C2151 C 0.78062 0.16046 0.24385
 C2152 C 0.77905 0.17356 0.25958
 C2153 C 0.78907 0.16811 0.27663
 C2154 C 0.80060 0.15016 0.27773
 H2155 H 0.86498 0.06642 0.30583
 H2156 H 0.84381 0.09634 0.30564
 H2157 H 0.83169 0.08854 0.24584
 H2158 H 0.85381 0.05928 0.24516
 H2159 H 0.79315 0.13302 0.23259
 H2160 H 0.77312 0.16398 0.23047
 H2161 H 0.78827 0.17784 0.28898
 H2162 H 0.80836 0.14640 0.29090
 C2163 C 0.35789 0.57029 0.79273
 C2164 C 0.34531 0.58734 0.79320
 C2165 C 0.33524 0.59401 0.77681
 C2166 C 0.33752 0.58298 0.75986
 C2167 C 0.35015 0.56590 0.75928
 C2168 C 0.36104 0.55939 0.77563
 N2169 N 0.32327 0.61220 0.77763
 N2170 N 0.31314 0.61855 0.76332
 C2171 C 0.30147 0.63693 0.76333
 C2172 C 0.29030 0.64174 0.74702
 C2173 C 0.27943 0.65985 0.74581
 C2174 C 0.27949 0.67379 0.76097
 C2175 C 0.29045 0.66880 0.77761
 C2176 C 0.30139 0.65048 0.77879
 H2177 H 0.36465 0.56555 0.80609
 H2178 H 0.34346 0.59545 0.80646
 H2179 H 0.32990 0.58783 0.74691
 H2180 H 0.35208 0.55865 0.74563
 H2181 H 0.29020 0.63147 0.73503
 H2182 H 0.27112 0.66298 0.73279
 H2183 H 0.29089 0.67918 0.78950
 H2184 H 0.30999 0.64709 0.79158
 C2185 C 0.35749 0.43613 0.75591
 C2186 C 0.34638 0.41820 0.75804
 C2187 C 0.33810 0.40854 0.74211
 C2188 C 0.34058 0.41740 0.72397
 C2189 C 0.35158 0.43537 0.72183
 C2190 C 0.36048 0.44480 0.73773
 N2191 N 0.32753 0.38972 0.74475
 N2192 N 0.32076 0.37937 0.73085
 C2193 C 0.31020 0.36056 0.73364
 C2194 C 0.30292 0.35005 0.71774
 C2195 C 0.29203 0.33198 0.72005
 C2196 C 0.28819 0.32408 0.73840
 C2197 C 0.29591 0.33451 0.75431
 C2198 C 0.30677 0.35252 0.75196
 H2199 H 0.36427 0.44284 0.76842
 H2200 H 0.34456 0.41158 0.77212
 H2201 H 0.33416 0.41038 0.71145
 H2202 H 0.35323 0.44182 0.70766
 H2203 H 0.30550 0.35601 0.70352
 H2204 H 0.28632 0.32443 0.70749
 H2205 H 0.29331 0.32895 0.76867
 H2206 H 0.31227 0.36025 0.76450
 C2207 C 0.85256 0.93843 0.25948
 C2208 C 0.84160 0.92050 0.26250
 C2209 C 0.83459 0.90911 0.24708
 C2210 C 0.83802 0.91630 0.22850
 C2211 C 0.84888 0.93413 0.22541
 C2212 C 0.85697 0.94534 0.24079
 N2213 N 0.82432 0.89025 0.25052
 N2214 N 0.81889 0.87874 0.23691
 C2215 C 0.80865 0.85982 0.23989
 C2216 C 0.80288 0.84841 0.22401
 C2217 C 0.79233 0.83017 0.22631
 C2218 C 0.78734 0.82295 0.24464
 C2219 C 0.79355 0.83429 0.26058
 C2220 C 0.80407 0.85253 0.25824
 H2221 H 0.85846 0.94605 0.27189
 H2222 H 0.83898 0.91520 0.27695
 H2223 H 0.83235 0.90809 0.21630
 H2224 H 0.85048 0.93921 0.21078
 H2225 H 0.80637 0.85381 0.20977
 H2226 H 0.78781 0.82192 0.21371
 H2227 H 0.78999 0.82927 0.27493
 H2228 H 0.80842 0.86101 0.27076
 C2229 C 0.64643 0.93279 0.74028
 C2230 C 0.65795 0.91505 0.73831
 C2231 C 0.66702 0.90575 0.75425
 C2232 C 0.66491 0.91480 0.77220
 C2233 C 0.65353 0.93257 0.77417
 C2234 C 0.64382 0.94163 0.75831
 N2235 N 0.67803 0.88712 0.75185
 N2236 N 0.68521 0.87692 0.76588
 C2237 C 0.69615 0.85826 0.76333
 C2238 C 0.70291 0.84729 0.77938
 C2239 C 0.71367 0.82907 0.77731
 C2240 C 0.71795 0.82151 0.75904
 C2241 C 0.71103 0.83259 0.74298
 C2242 C 0.70026 0.85070 0.74509
 H2243 H 0.63908 0.93922 0.72780
 H2244 H 0.65949 0.90829 0.72436
 H2245 H 0.67194 0.90809 0.78471
 H2246 H 0.65226 0.93918 0.78820
 H2247 H 0.69983 0.85290 0.79356
 H2248 H 0.71871 0.82098 0.78998
 H2249 H 0.71395 0.82731 0.72867
 H2250 H 0.69523 0.85882 0.73244
 C2251 C 0.12476 0.42214 0.27343
 C2252 C 0.13510 0.40364 0.27252
 C2253 C 0.15433 0.40267 0.26460
 C2254 C 0.16306 0.42058 0.25734
 C2255 C 0.15280 0.43921 0.25845
 C2256 C 0.13358 0.44028 0.26672
 N2257 N 0.16461 0.38343 0.26428
 N2258 N 0.18071 0.38074 0.25487
 C2259 C 0.19118 0.36162 0.25445
 C2260 C 0.20565 0.35863 0.24036
 C2261 C 0.21580 0.34010 0.23900
 C2262 C 0.21203 0.32421 0.25205
 C2263 C 0.19788 0.32735 0.26660
 C2264 C 0.18734 0.34586 0.26767
 H2265 H 0.10980 0.42219 0.27945
 H2266 H 0.12809 0.38997 0.27801
 H2267 H 0.17794 0.42025 0.25116
 H2268 H 0.16017 0.45283 0.25333
 H2269 H 0.20884 0.37063 0.23015
 H2270 H 0.22673 0.33823 0.22774
 H2271 H 0.19465 0.31537 0.27681
 H2272 H 0.17630 0.34788 0.27880
 C2273 C 0.07780 0.26020 0.89125
 C2274 C 0.09527 0.25802 0.88047
 C2275 C 0.09992 0.27229 0.86627
 C2276 C 0.08751 0.28935 0.86355
 C2277 C 0.07015 0.29159 0.87431
 C2278 C 0.06491 0.27682 0.88798
 N2279 N 0.11648 0.26850 0.85392
 N2280 N 0.11963 0.27965 0.83934
 C2281 C 0.13557 0.27564 0.82638
 C2282 C 0.13775 0.28822 0.81036
 C2283 C 0.15286 0.28438 0.79712
 C2284 C 0.16600 0.26782 0.79978
 C2285 C 0.16370 0.25521 0.81593
 C2286 C 0.14861 0.25908 0.82912
 H2287 H 0.07411 0.24870 0.90180
 H2288 H 0.10480 0.24483 0.88269
 H2289 H 0.09084 0.30062 0.85268
 H2290 H 0.06034 0.30439 0.87130
 H2291 H 0.12767 0.30097 0.80812
 H2292 H 0.15427 0.29442 0.78488
 H2293 H 0.17364 0.24241 0.81850
 H2294 H 0.14714 0.24912 0.84141
 C2295 C 0.54779 0.79252 0.35466
 C2296 C 0.56528 0.79292 0.34376
 C2297 C 0.58031 0.77836 0.34683
 C2298 C 0.57773 0.76334 0.36099
 C2299 C 0.56023 0.76287 0.37182
 C2300 C 0.54510 0.77743 0.36872
 N2301 N 0.59786 0.77882 0.33519
 N2302 N 0.61216 0.76628 0.33791
 C2303 C 0.62962 0.76596 0.32619
 C2304 C 0.64458 0.75168 0.33032
 C2305 C 0.66145 0.75021 0.31874
 C2306 C 0.66360 0.76307 0.30273
 C2307 C 0.64867 0.77770 0.29880
 C2308 C 0.63176 0.77913 0.31045
 H2309 H 0.53621 0.80378 0.35189
 H2310 H 0.56710 0.80449 0.33283
 H2311 H 0.58917 0.75190 0.36361
 H2312 H 0.55857 0.75123 0.38272
 H2313 H 0.64303 0.74150 0.34245
 H2314 H 0.67272 0.73887 0.32228
 H2315 H 0.64991 0.78784 0.28661
 H2316 H 0.62030 0.79030 0.30703
 C2317 C 0.53889 0.24047 0.15994
 C2318 C 0.55464 0.24505 0.17243
 C2319 C 0.57450 0.24486 0.16594
 C2320 C 0.57852 0.24017 0.14680
 C2321 C 0.56290 0.23524 0.13448
 C2322 C 0.54306 0.23524 0.14101
 N2323 N 0.59057 0.24830 0.17906
 N2324 N 0.60818 0.25179 0.17294
 C2325 C 0.62516 0.25358 0.18523
 C2326 C 0.64320 0.26031 0.17737
 C2327 C 0.66065 0.26049 0.18837
 C2328 C 0.66032 0.25359 0.20740
 C2329 C 0.64209 0.24709 0.21539
 C2330 C 0.62454 0.24719 0.20438
 H2331 H 0.52358 0.24043 0.16512
 H2332 H 0.55142 0.24854 0.18718
 H2333 H 0.59377 0.23975 0.14150
 H2334 H 0.56627 0.23124 0.11987
 H2335 H 0.64380 0.26508 0.16255
 H2336 H 0.67450 0.26547 0.18178
 H2337 H 0.64143 0.24179 0.23005
 H2338 H 0.61070 0.24173 0.21063
 C2339 C 0.07902 0.73961 0.61536
 C2340 C 0.09531 0.74463 0.62695
 C2341 C 0.09236 0.74881 0.64626
 C2342 C 0.07284 0.74889 0.65379
 C2343 C 0.05649 0.74428 0.64211
 C2344 C 0.05956 0.73921 0.62294
 N2345 N 0.10954 0.75189 0.65808
 N2346 N 0.10864 0.75092 0.67618
 C2347 C 0.12629 0.75342 0.68755
 C2348 C 0.12618 0.74704 0.70664
 C2349 C 0.14388 0.74743 0.71744
 C2350 C 0.16182 0.75453 0.70926
 C2351 C 0.16161 0.76167 0.69030
 C2352 C 0.14405 0.76104 0.67952
 H2353 H 0.08158 0.73580 0.60056
 H2354 H 0.11033 0.74456 0.62107
 H2355 H 0.07029 0.75220 0.66868
 H2356 H 0.04154 0.74393 0.64817
 H2357 H 0.11253 0.74115 0.71294
 H2358 H 0.14359 0.74197 0.73206
 H2359 H 0.17517 0.76723 0.68356
 H2360 H 0.14444 0.76617 0.66481
 C2361 C 0.91826 0.75692 0.60591
 C2362 C 0.90099 0.75402 0.61679
 C2363 C 0.90237 0.74527 0.63495
 C2364 C 0.92089 0.73785 0.64160
 C2365 C 0.93809 0.74010 0.63052
 C2366 C 0.93722 0.75048 0.61282
 N2367 N 0.88507 0.74509 0.64685
 N2368 N 0.88674 0.74579 0.66491
 C2369 C 0.86947 0.74568 0.67689
 C2370 C 0.87118 0.75272 0.69560
 C2371 C 0.85429 0.75349 0.70735
 C2372 C 0.83560 0.74672 0.70058
 C2373 C 0.83409 0.73926 0.68190
 C2374 C 0.85083 0.73893 0.67009
 H2375 H 0.91668 0.76417 0.59206
 H2376 H 0.88664 0.75950 0.61145
 H2377 H 0.92213 0.73081 0.65558
 H2378 H 0.95224 0.73517 0.63670
 H2379 H 0.88555 0.75794 0.70095
 H2380 H 0.85588 0.75914 0.72174
 H2381 H 0.81991 0.73383 0.67634
 H2382 H 0.84925 0.73328 0.65570
 C2383 C 0.41726 0.24107 0.10503
 C2384 C 0.39938 0.23817 0.11507
 C2385 C 0.39123 0.25406 0.12570
 C2386 C 0.40004 0.27338 0.12483
 C2387 C 0.41774 0.27632 0.11477
 C2388 C 0.42696 0.26001 0.10542
 N2389 N 0.37544 0.24990 0.13884
 N2390 N 0.37187 0.26213 0.15236
 C2391 C 0.35678 0.25849 0.16629
 C2392 C 0.35471 0.27227 0.18120
 C2393 C 0.34000 0.26934 0.19504
 C2394 C 0.32707 0.25254 0.19404
 C2395 C 0.32950 0.23849 0.17920
 C2396 C 0.34426 0.24142 0.16543
 H2397 H 0.42401 0.22832 0.09776
 H2398 H 0.39260 0.22324 0.11557
 H2399 H 0.39382 0.28595 0.13275
 H2400 H 0.42494 0.29103 0.11553
 H2401 H 0.36442 0.28541 0.18198
 H2402 H 0.33845 0.28049 0.20621
 H2403 H 0.31977 0.22539 0.17801
 H2404 H 0.34574 0.23052 0.15405
 C2405 C 0.42173 0.73378 0.39028
 C2406 C 0.40287 0.73479 0.38156
 C2407 C 0.39781 0.72111 0.36718
 C2408 C 0.41128 0.70552 0.36241
 C2409 C 0.43007 0.70440 0.37121
 C2410 C 0.43568 0.71890 0.38479
 N2411 N 0.37994 0.72467 0.35633
 N2412 N 0.37596 0.71462 0.34138
 C2413 C 0.35892 0.71939 0.32972
 C2414 C 0.35583 0.70854 0.31291
 C2415 C 0.34030 0.71402 0.30041
 C2416 C 0.32768 0.73056 0.30460
 C2417 C 0.33065 0.74118 0.32170
 C2418 C 0.34612 0.73565 0.33415
 H2419 H 0.42569 0.74500 0.40086
 H2420 H 0.39256 0.74686 0.38532
 H2421 H 0.40764 0.69475 0.35134
 H2422 H 0.44062 0.69289 0.36662
 H2423 H 0.36571 0.69605 0.30934
 H2424 H 0.33833 0.70547 0.28741
 H2425 H 0.32109 0.75385 0.32548
 H2426 H 0.34825 0.74430 0.34706
 C2427 C 0.93622 0.24789 0.88383
 C2428 C 0.91860 0.24971 0.87309
 C2429 C 0.91409 0.23544 0.85906
 C2430 C 0.92723 0.21909 0.85597
 C2431 C 0.94478 0.21719 0.86675
 C2432 C 0.94946 0.23163 0.88070
 N2433 N 0.89625 0.23807 0.84797
 N2434 N 0.89186 0.22642 0.83421
 C2435 C 0.87397 0.22943 0.82322
 C2436 C 0.87024 0.21694 0.80757
 C2437 C 0.85297 0.21984 0.79645
 C2438 C 0.83919 0.23529 0.80095
 C2439 C 0.84301 0.24770 0.81678
 C2440 C 0.86023 0.24482 0.82779
 H2441 H 0.93947 0.25911 0.89461
 H2442 H 0.90850 0.26234 0.87557
 H2443 H 0.92401 0.20789 0.84517
 H2444 H 0.95490 0.20466 0.86392
 H2445 H 0.88078 0.20502 0.80396
 H2446 H 0.85043 0.21000 0.78438
 H2447 H 0.83273 0.25975 0.82069
 H2448 H 0.86278 0.25466 0.83985
 C2449 C 0.58514 1.00365 0.68234
 C2450 C 0.57324 1.00203 0.66594
 C2451 C 0.56475 1.01926 0.65734
 C2452 C 0.56823 1.03834 0.66542
 C2453 C 0.58029 1.04009 0.68180
 C2454 C 0.58910 1.02274 0.69064
 N2455 N 0.55353 1.01684 0.63997
 N2456 N 0.54414 1.03125 0.63151
 C2457 C 0.53408 1.02804 0.61357
 C2458 C 0.52362 1.04409 0.60465
 C2459 C 0.51545 1.04177 0.58627
 C2460 C 0.51788 1.02337 0.57650
 C2461 C 0.52761 1.00708 0.58585
 C2462 C 0.53554 1.00933 0.60417
 H2463 H 0.59196 0.98983 0.68781
 H2464 H 0.57089 0.98723 0.65970
 H2465 H 0.56178 1.05191 0.65903
 H2466 H 0.58202 1.05508 0.68775
 H2467 H 0.52236 1.05861 0.61169
 H2468 H 0.50820 1.05463 0.57934
 H2469 H 0.52964 0.99268 0.57872
 H2470 H 0.54343 0.99662 0.61067
 C2471 C 0.09005 0.50331 1.18564
 C2472 C 0.07870 0.50105 1.16896
 C2473 C 0.06652 0.51691 1.16214
 C2474 C 0.06562 0.53515 1.17235
 C2475 C 0.07701 0.53746 1.18905
 C2476 C 0.08947 0.52161 1.19582
 N2477 N 0.05603 0.51430 1.14442
 N2478 N 0.04452 0.52777 1.13705
 C2479 C 0.03519 0.52482 1.11876
 C2480 C 0.02364 0.54048 1.11050
 C2481 C 0.01637 0.53880 1.09175
 C2482 C 0.02071 0.52142 1.08097
 C2483 C 0.03139 0.50534 1.08970
 C2484 C 0.03852 0.50699 1.10836
 H2485 H 0.09963 0.49090 1.19034
 H2486 H 0.07962 0.48696 1.16115
 H2487 H 0.05632 0.54765 1.16735
 H2488 H 0.07598 0.55163 1.19672
 H2489 H 0.02093 0.55432 1.11833
 H2490 H 0.00831 0.55148 1.08538
 H2491 H 0.03487 0.49169 1.08184
 H2492 H 0.04725 0.49458 1.11439
 C2493 C -0.10420 -0.02804 1.18223
 C2494 C -0.09390 -0.02855 1.16501
 C2495 C -0.07448 -0.02084 1.16356
 C2496 C -0.06555 -0.01181 1.17957
 C2497 C -0.07606 -0.01084 1.19692
 C2498 C -0.09545 -0.01946 1.19870
 N2499 N -0.06485 -0.02197 1.14537
 N2500 N -0.04621 -0.01903 1.14237
 C2501 C -0.03850 -0.02025 1.12326
 C2502 C -0.01770 -0.02000 1.11992
 C2503 C -0.01022 -0.02074 1.10118
 C2504 C -0.02354 -0.02136 1.08556
 C2505 C -0.04431 -0.02197 1.08906
 C2506 C -0.05169 -0.02151 1.10760
 H2507 H -0.11939 -0.03388 1.18235
 H2508 H -0.10111 -0.03513 1.15263
 H2509 H -0.05057 -0.00551 1.17865
 H2510 H -0.06854 -0.00425 1.20909
 H2511 H -0.00731 -0.01910 1.13181
 H2512 H 0.00586 -0.02015 1.09888
 H2513 H -0.05498 -0.02263 1.07736
 H2514 H -0.06781 -0.02177 1.10962
 C2515 C 0.42144 0.46173 0.69334
 C2516 C 0.43385 0.46189 0.67731
 C2517 C 0.43941 0.48018 0.66864
 C2518 C 0.43303 0.49854 0.67672
 C2519 C 0.42082 0.49849 0.69296
 C2520 C 0.41432 0.48004 0.70137
 N2521 N 0.45062 0.47960 0.65120
 N2522 N 0.45382 0.49546 0.64116
 C2523 C 0.46405 0.49481 0.62320
 C2524 C 0.46329 0.51197 0.61132
 C2525 C 0.47088 0.51123 0.59279
 C2526 C 0.47976 0.49334 0.58588
 C2527 C 0.48159 0.47645 0.59819
 C2528 C 0.47362 0.47710 0.61667
 H2529 H 0.41796 0.44711 0.69964
 H2530 H 0.43885 0.44761 0.67137
 H2531 H 0.43712 0.51294 0.67026
 H2532 H 0.41560 0.51301 0.69812
 H2533 H 0.45601 0.52572 0.61616
 H2534 H 0.46934 0.52451 0.58366
 H2535 H 0.48825 0.46246 0.59321
 H2536 H 0.47446 0.46364 0.62563
 C2537 C 0.43225 0.54293 -0.19264
 C2538 C 0.44606 0.54250 -0.17752
 C2539 C 0.44987 0.52441 -0.16750
 C2540 C 0.44029 0.50646 -0.17335
 C2541 C 0.42651 0.50686 -0.18849
 C2542 C 0.42197 0.52520 -0.19800
 N2543 N 0.46211 0.52494 -0.15059
 N2544 N 0.46480 0.50916 -0.14027
 C2545 C 0.47548 0.50932 -0.12247
 C2546 C 0.47501 0.49177 -0.11114
 C2547 C 0.48240 0.49202 -0.09250
 C2548 C 0.49075 0.50980 -0.08493
 C2549 C 0.49246 0.52711 -0.09667
 C2550 C 0.48470 0.52695 -0.11533
 H2551 H 0.42931 0.55723 -0.19990
 H2552 H 0.45333 0.55643 -0.17321
 H2553 H 0.44293 0.49225 -0.16585
 H2554 H 0.41875 0.49300 -0.19220
 H2555 H 0.46795 0.47813 -0.11645
 H2556 H 0.48093 0.47848 -0.08371
 H2557 H 0.49864 0.54103 -0.09105
 H2558 H 0.48521 0.54073 -0.12386
 C2559 C -0.06864 1.04055 0.30967
 C2560 C -0.05527 1.03950 0.32513
 C2561 C -0.05253 1.02128 0.33525
 C2562 C -0.06280 1.00380 0.32921
 C2563 C -0.07614 1.00481 0.31373
 C2564 C -0.07954 1.02330 0.30403
 N2565 N -0.04051 1.02123 0.35232
 N2566 N -0.03843 1.00529 0.36257
 C2567 C -0.02788 1.00499 0.38045
 C2568 C -0.02878 0.98732 0.39161
 C2569 C -0.02144 0.98717 0.41029
 C2570 C -0.01273 1.00467 0.41809
 C2571 C -0.01058 1.02206 0.40650
 C2572 C -0.01827 1.02230 0.38781
 H2573 H -0.07068 1.05493 0.30230
 H2574 H -0.04747 1.05308 0.32959
 H2575 H -0.06100 0.98950 0.33679
 H2576 H -0.08442 0.99131 0.30985
 H2577 H -0.03613 0.97391 0.38613
 H2578 H -0.02325 0.97356 0.41891
 H2579 H -0.00412 1.03581 0.41227
 H2580 H -0.01740 1.03615 0.37942
 C2581 C 0.08955 0.50256 0.31648
 C2582 C 0.07817 0.50458 0.33310
 C2583 C 0.06563 0.48882 0.33930
 C2584 C 0.06436 0.47100 0.32852
 C2585 C 0.07584 0.46889 0.31197
 C2586 C 0.08871 0.48458 0.30587
 N2587 N 0.05538 0.49091 0.35712
 N2588 N 0.04294 0.47786 0.36350
 C2589 C 0.03404 0.47995 0.38201
 C2590 C 0.01998 0.46561 0.38841
 C2591 C 0.01263 0.46631 0.40715
 C2592 C 0.01954 0.48124 0.41977
 C2593 C 0.03305 0.49601 0.41303
 C2594 C 0.04016 0.49544 0.39437
 H2595 H 0.09942 0.51483 0.31222
 H2596 H 0.07938 0.51835 0.34137
 H2597 H 0.05482 0.45858 0.33305
 H2598 H 0.07469 0.45497 0.30393
 H2599 H 0.01514 0.45356 0.37905
 H2600 H 0.00231 0.45469 0.41200
 H2601 H 0.03851 0.50783 0.42237
 H2602 H 0.05095 0.50675 0.38984
 C2603 C 0.60275 -0.02727 -0.18432
 C2604 C 0.59174 -0.02757 -0.16746
 C2605 C 0.57131 -0.02259 -0.16753
 C2606 C 0.56192 -0.01688 -0.18477
 C2607 C 0.57304 -0.01645 -0.20178
 C2608 C 0.59354 -0.02189 -0.20171
 N2609 N 0.56094 -0.02333 -0.14968
 N2610 N 0.54219 -0.02016 -0.14745
 C2611 C 0.53374 -0.02099 -0.12859
 C2612 C 0.51329 -0.01662 -0.12566
 C2613 C 0.50544 -0.01591 -0.10705
 C2614 C 0.51808 -0.01935 -0.09122
 C2615 C 0.53828 -0.02459 -0.09434
 C2616 C 0.54599 -0.02545 -0.11271
 H2617 H 0.61856 -0.03123 -0.18376
 H2618 H 0.59916 -0.03181 -0.15422
 H2619 H 0.54614 -0.01286 -0.18510
 H2620 H 0.56556 -0.01231 -0.21502
 H2621 H 0.50360 -0.01325 -0.13773
 H2622 H 0.48982 -0.01182 -0.10501
 H2623 H 0.54833 -0.02762 -0.08244
 H2624 H 0.56175 -0.02912 -0.11440
 C2625 C 0.68343 0.61754 0.02838
 C2626 C 0.66724 0.60488 0.02436
 C2627 C 0.66129 0.60134 0.00559
 C2628 C 0.67205 0.61041 -0.00940
 C2629 C 0.68862 0.62293 -0.00545
 C2630 C 0.69449 0.62700 0.01361
 N2631 N 0.64436 0.58833 0.00260
 N2632 N 0.63552 0.58559 -0.01333
 C2633 C 0.61845 0.57225 -0.01430
 C2634 C 0.60551 0.57277 -0.03019
 C2635 C 0.58760 0.56142 -0.03018
 C2636 C 0.58249 0.54936 -0.01425
 C2637 C 0.59614 0.54804 0.00110
 C2638 C 0.61381 0.55931 0.00110
 H2639 H 0.68767 0.61909 0.04321
 H2640 H 0.65922 0.59774 0.03603
 H2641 H 0.66768 0.60782 -0.02407
 H2642 H 0.69621 0.63000 -0.01738
 H2643 H 0.60888 0.58257 -0.04223
 H2644 H 0.57741 0.56277 -0.04222
 H2645 H 0.59291 0.53868 0.01350
 H2646 H 0.62362 0.55828 0.01344
 C2647 C 0.18133 1.11719 0.52362
 C2648 C 0.16496 1.10435 0.52097
 C2649 C 0.15497 1.10368 0.50342
 C2650 C 0.16188 1.11580 0.48818
 C2651 C 0.17849 1.12868 0.49079
 C2652 C 0.18814 1.12973 0.50867
 N2653 N 0.13756 1.09101 0.50207
 N2654 N 0.12654 1.08924 0.48727
 C2655 C 0.10896 1.07656 0.48784
 C2656 C 0.09646 1.07494 0.47174
 C2657 C 0.07865 1.06352 0.47258
 C2658 C 0.07304 1.05366 0.48965
 C2659 C 0.08592 1.05495 0.50555
 C2660 C 0.10361 1.06619 0.50467
 H2661 H 0.18867 1.11736 0.53744
 H2662 H 0.15983 1.09503 0.53279
 H2663 H 0.15435 1.11550 0.47447
 H2664 H 0.18345 1.13817 0.47903
 H2665 H 0.10034 1.08282 0.45864
 H2666 H 0.06904 1.06286 0.46009
 H2667 H 0.08225 1.04742 0.51889
 H2668 H 0.11293 1.06701 0.51733
 C2669 C 0.18185 -0.11666 0.98065
 C2670 C 0.16524 -0.10460 0.98491
 C2671 C 0.15641 -0.10548 1.00295
 C2672 C 0.16454 -0.11856 1.01696
 C2673 C 0.18145 -0.13055 1.01277
 C2674 C 0.19017 -0.12979 0.99450
 N2675 N 0.13930 -0.09276 1.00630
 N2676 N 0.12839 -0.09335 1.02119
 C2677 C 0.11140 -0.07990 1.02266
 C2678 C 0.09633 -0.08360 1.03623
 C2679 C 0.07847 -0.07208 1.03601
 C2680 C 0.07557 -0.05673 1.02217
 C2681 C 0.09131 -0.05225 1.00950
 C2682 C 0.10895 -0.06366 1.00973
 H2683 H 0.18843 -0.11547 0.96658
 H2684 H 0.15914 -0.09450 0.97404
 H2685 H 0.15796 -0.11942 1.03103
 H2686 H 0.18758 -0.14055 1.02370
 H2687 H 0.09802 -0.09599 1.04638
 H2688 H 0.06657 -0.07588 1.04590
 H2689 H 0.08968 -0.04032 0.99886
 H2690 H 0.12042 -0.06015 0.99932
 C2691 C 0.66880 0.36996 0.47914
 C2692 C 0.65047 0.37921 0.48323
 C2693 C 0.64545 0.38430 0.50187
 C2694 C 0.65906 0.37988 0.51667
 C2695 C 0.67748 0.37031 0.51268
 C2696 C 0.68280 0.36504 0.49375
 N2697 N 0.62635 0.39384 0.50489
 N2698 N 0.62044 0.40160 0.52050
 C2699 C 0.60084 0.41090 0.52136
 C2700 C 0.59579 0.42396 0.53637
 C2701 C 0.57756 0.43493 0.53594
 C2702 C 0.56425 0.43290 0.52043
 C2703 C 0.56889 0.41882 0.50612
 C2704 C 0.58687 0.40800 0.50656
 H2705 H 0.67204 0.36760 0.46424
 H2706 H 0.64017 0.38279 0.47166
 H2707 H 0.65536 0.38356 0.53127
 H2708 H 0.68707 0.36654 0.52469
 H2709 H 0.60631 0.42629 0.54797
 H2710 H 0.57436 0.44565 0.54716
 H2711 H 0.55880 0.41659 0.49415
 H2712 H 0.59009 0.39777 0.49495
 C2713 C -0.18880 0.39365 0.52400
 C2714 C -0.17242 0.40610 0.51999
 C2715 C -0.16203 0.40430 0.50280
 C2716 C -0.16860 0.39013 0.48924
 C2717 C -0.18526 0.37771 0.49317
 C2718 C -0.19529 0.37915 0.51076
 N2719 N -0.14450 0.41658 0.50015
 N2720 N -0.13279 0.41556 0.48586
 C2721 C -0.11500 0.42791 0.48511
 C2722 C -0.10075 0.42493 0.47068
 C2723 C -0.08222 0.43515 0.47119
 C2724 C -0.07774 0.44841 0.48625
 C2725 C -0.09255 0.45217 0.50004
 C2726 C -0.11092 0.44210 0.49947
 H2727 H -0.19642 0.39532 0.53753
 H2728 H -0.16752 0.41699 0.53052
 H2729 H -0.16077 0.38849 0.47584
 H2730 H -0.18996 0.36664 0.48274
 H2731 H -0.10365 0.41409 0.45948
 H2732 H -0.07108 0.43190 0.46042
 H2733 H -0.08968 0.46247 0.51170
 H2734 H -0.12167 0.44493 0.51070
 C2735 C 0.31785 -0.10936 0.02252
 C2736 C 0.33306 -0.09577 0.01761
 C2737 C 0.34132 -0.09577 -0.00071
 C2738 C 0.33402 -0.10954 -0.01427
 C2739 C 0.31856 -0.12309 -0.00941
 C2740 C 0.31041 -0.12320 0.00911
 N2741 N 0.35721 -0.08175 -0.00475
 N2742 N 0.36716 -0.08132 -0.02025
 C2743 C 0.38327 -0.06704 -0.02272
 C2744 C 0.39720 -0.06961 -0.03750
 C2745 C 0.41460 -0.05759 -0.03834
 C2746 C 0.41822 -0.04280 -0.02437
 C2747 C 0.40344 -0.03930 -0.01048
 C2748 C 0.38622 -0.05127 -0.00964
 H2749 H 0.31166 -0.10883 0.03678
 H2750 H 0.33855 -0.08520 0.02817
 H2751 H 0.34020 -0.10981 -0.02853
 H2752 H 0.31313 -0.13362 -0.02002
 H2753 H 0.39510 -0.08162 -0.04776
 H2754 H 0.42576 -0.06071 -0.04914
 H2755 H 0.40563 -0.02788 0.00036
 H2756 H 0.37558 -0.04867 0.00173
 C2757 C 0.31662 1.13672 0.51208
 C2758 C 0.33450 1.12663 0.51726
 C2759 C 0.34613 1.11687 0.50343
 C2760 C 0.33930 1.11689 0.48441
 C2761 C 0.32145 1.12671 0.47928
 C2762 C 0.30997 1.13705 0.49294
 N2763 N 0.36485 1.10724 0.50862
 N2764 N 0.37717 1.10235 0.49558
 C2765 C 0.39604 1.09221 0.49841
 C2766 C 0.40822 1.09003 0.48245
 C2767 C 0.42603 1.07900 0.48354
 C2768 C 0.43218 1.06960 0.50073
 C2769 C 0.42031 1.07237 0.51712
 C2770 C 0.40223 1.08361 0.51596
 H2771 H 0.30824 1.14459 0.52298
 H2772 H 0.33948 1.12675 0.53199
 H2773 H 0.34774 1.10921 0.47343
 H2774 H 0.31657 1.12607 0.46454
 H2775 H 0.40365 1.09663 0.46889
 H2776 H 0.43483 1.07757 0.47065
 H2777 H 0.42464 1.06535 0.53055
 H2778 H 0.39295 1.08513 0.52852
 C2779 C -0.17663 0.63815 1.01591
 C2780 C -0.15828 0.62870 1.02054
 C2781 C -0.14574 0.62130 1.00616
 C2782 C -0.15199 0.62327 0.98703
 C2783 C -0.17038 0.63243 0.98241
 C2784 C -0.18296 0.64013 0.99674
 N2785 N -0.12688 0.61177 1.01107
 N2786 N -0.11385 0.60843 0.99822
 C2787 C -0.09489 0.59845 1.00127
 C2788 C -0.08163 0.59791 0.98593
 C2789 C -0.06369 0.58707 0.98722
 C2790 C -0.05849 0.57622 1.00395
 C2791 C -0.07146 0.57735 1.01976
 C2792 C -0.08963 0.58841 1.01842
 H2793 H -0.18573 0.64410 1.02735
 H2794 H -0.15372 0.62735 1.03534
 H2795 H -0.14277 0.61748 0.97560
 H2796 H -0.17486 0.63316 0.96755
 H2797 H -0.08546 0.60562 0.97268
 H2798 H -0.05406 0.58685 0.97480
 H2799 H -0.06792 0.56917 1.03282
 H2800 H -0.09973 0.58862 1.03048
 C2801 C 0.01909 0.68285 0.56545
 C2802 C 0.01784 0.66342 0.55790
 C2803 C 0.02452 0.64663 0.56850
 C2804 C 0.03313 0.64941 0.58660
 C2805 C 0.03440 0.66889 0.59420
 C2806 C 0.02704 0.68571 0.58380
 N2807 N 0.02118 0.62694 0.56090
 N2808 N 0.02675 0.61062 0.56923
 C2809 C 0.02188 0.59146 0.56102
 C2810 C 0.03102 0.57369 0.56797
 C2811 C 0.02679 0.55498 0.55951
 C2812 C 0.01319 0.55393 0.54411
 C2813 C 0.00363 0.57179 0.53767
 C2814 C 0.00796 0.59032 0.54598
 H2815 H 0.01359 0.69562 0.55707
 H2816 H 0.01121 0.66134 0.54391
 H2817 H 0.03833 0.63655 0.59502
 H2818 H 0.04044 0.67073 0.60845
 H2819 H 0.04168 0.57440 0.57965
 H2820 H 0.03440 0.54148 0.56478
 H2821 H -0.00701 0.57159 0.52593
 H2822 H 0.00045 0.60379 0.54052
 C2823 C 0.51790 0.16568 0.10954
 C2824 C 0.51911 0.14669 0.10089
 C2825 C 0.51636 0.14499 0.08118
 C2826 C 0.51254 0.16249 0.07011
 C2827 C 0.51131 0.18139 0.07870
 C2828 C 0.51385 0.18316 0.09849
 N2829 N 0.51687 0.12539 0.07267
 N2830 N 0.51363 0.12345 0.05490
 C2831 C 0.51325 0.10425 0.04575
 C2832 C 0.50758 0.10368 0.02658
 C2833 C 0.50558 0.08517 0.01738
 C2834 C 0.50940 0.06688 0.02726
 C2835 C 0.51575 0.06750 0.04640
 C2836 C 0.51756 0.08610 0.05565
 H2837 H 0.51984 0.16670 0.12485
 H2838 H 0.52199 0.13327 0.10954
 H2839 H 0.51042 0.16159 0.05482
 H2840 H 0.50859 0.19469 0.06983
 H2841 H 0.50427 0.11765 0.01888
 H2842 H 0.50087 0.08519 0.00257
 H2843 H 0.51879 0.05363 0.05434
 H2844 H 0.52202 0.08629 0.07052
 C2845 C 0.00867 0.18714 0.93359
 C2846 C 0.01275 0.16800 0.94138
 C2847 C 0.00784 0.15051 0.93125
 C2848 C -0.00016 0.15223 0.91274
 C2849 C -0.00409 0.17132 0.90487
 C2850 C -0.00026 0.18892 0.91545
 N2851 N 0.00954 0.13129 0.94062
 N2852 N 0.00218 0.11529 0.93342
 C2853 C 0.00285 0.09635 0.94340
 C2854 C -0.00712 0.07965 0.93569
 C2855 C -0.00793 0.06133 0.94583
 C2856 C 0.00136 0.05953 0.96383
 C2857 C 0.01165 0.07630 0.97135
 C2858 C 0.01237 0.09455 0.96124
 H2859 H 0.01166 0.20047 0.94207
 H2860 H 0.01890 0.16677 0.95568
 H2861 H -0.00387 0.13885 0.90459
 H2862 H -0.01054 0.17231 0.89067
 H2863 H -0.01457 0.08096 0.92196
 H2864 H -0.01585 0.04865 0.93960
 H2865 H 0.01902 0.07543 0.98514
 H2866 H 0.02015 0.10730 0.96749
 C2867 C 0.51049 0.68195 0.42237
 C2868 C 0.51768 0.66316 0.42888
 C2869 C 0.51227 0.64534 0.41946
 C2870 C 0.50094 0.64656 0.40253
 C2871 C 0.49383 0.66528 0.39599
 C2872 C 0.49784 0.68301 0.40630
 N2873 N 0.51594 0.62626 0.42867
 N2874 N 0.50797 0.61002 0.42256
 C2875 C 0.50949 0.59126 0.43281
 C2876 C 0.49797 0.57483 0.42669
 C2877 C 0.49652 0.55733 0.43796
 C2878 C 0.50673 0.55604 0.45554
 C2879 C 0.51909 0.57222 0.46118
 C2880 C 0.52041 0.58974 0.44995
 H2881 H 0.51379 0.69542 0.43055
 H2882 H 0.52637 0.66236 0.44197
 H2883 H 0.49675 0.63298 0.39489
 H2884 H 0.48451 0.66580 0.38328
 H2885 H 0.48943 0.57593 0.41353
 H2886 H 0.48707 0.54503 0.43310
 H2887 H 0.52726 0.57166 0.47458
 H2888 H 0.52940 0.60230 0.45496
 C2889 C 0.48604 0.81413 0.42510
 C2890 C 0.48172 0.83274 0.43360
 C2891 C 0.48429 0.85085 0.42335
 C2892 C 0.48967 0.85019 0.40402
 C2893 C 0.49380 0.83166 0.39547
 C2894 C 0.49282 0.81354 0.40615
 N2895 N 0.48350 0.86967 0.43327
 N2896 N 0.49057 0.88579 0.42582
 C2897 C 0.49123 0.90454 0.43581
 C2898 C 0.50158 0.92083 0.42761
 C2899 C 0.50380 0.93894 0.43755
 C2900 C 0.49548 0.94102 0.45582
 C2901 C 0.48475 0.92472 0.46388
 C2902 C 0.48272 0.90657 0.45398
 H2903 H 0.48520 0.80039 0.43365
 H2904 H 0.47755 0.83312 0.44852
 H2905 H 0.49144 0.86402 0.39574
 H2906 H 0.49849 0.83154 0.38069
 H2907 H 0.50824 0.91934 0.41362
 H2908 H 0.51195 0.95131 0.43088
 H2909 H 0.47814 0.92590 0.47792
 H2910 H 0.47468 0.89410 0.46059
 C2911 C -0.00245 0.32172 0.93016
 C2912 C -0.00827 0.34122 0.93554
 C2913 C -0.00203 0.35811 0.92489
 C2914 C 0.00901 0.35533 0.90810
 C2915 C 0.01470 0.33590 0.90266
 C2916 C 0.00960 0.31899 0.91398
 N2917 N -0.00512 0.37787 0.93249
 N2918 N 0.00359 0.39335 0.92542
 C2919 C 0.00203 0.41280 0.93404
 C2920 C 0.01473 0.42836 0.92779
 C2921 C 0.01565 0.44661 0.93771
 C2922 C 0.00371 0.44952 0.95397
 C2923 C -0.00972 0.43418 0.95962
 C2924 C -0.01051 0.41594 0.94978
 H2925 H -0.00657 0.30891 0.93910
 H2926 H -0.01674 0.34327 0.94854
 H2927 H 0.01381 0.36819 0.89956
 H2928 H 0.02352 0.33411 0.88982
 H2929 H 0.02448 0.42601 0.91568
 H2930 H 0.02597 0.45825 0.93288
 H2931 H -0.01923 0.43597 0.97200
 H2932 H -0.02048 0.40411 0.95482
 C2933 C 0.49666 0.30760 0.06880
 C2934 C 0.50229 0.32698 0.06265
 C2935 C 0.49242 0.34415 0.06964
 C2936 C 0.47707 0.34186 0.08315
 C2937 C 0.47144 0.32256 0.08929
 C2938 C 0.48100 0.30525 0.08200
 N2939 N 0.49755 0.36366 0.06217
 N2940 N 0.48842 0.37966 0.06738
 C2941 C 0.49283 0.39903 0.05918
 C2942 C 0.48108 0.41577 0.06419
 C2943 C 0.48382 0.43448 0.05506
 C2944 C 0.49844 0.43661 0.04075
 C2945 C 0.51069 0.41989 0.03628
 C2946 C 0.50791 0.40126 0.04539
 H2947 H 0.50423 0.29446 0.06299
 H2948 H 0.51411 0.32864 0.05218
 H2949 H 0.46928 0.35494 0.08880
 H2950 H 0.45963 0.32115 0.09981
 H2951 H 0.46940 0.41415 0.07481
 H2952 H 0.47416 0.44708 0.05885
 H2953 H 0.52220 0.42103 0.02544
 H2954 H 0.51723 0.38851 0.04135
 C2955 C -0.01090 0.80604 0.56274
 C2956 C -0.00729 0.82592 0.55670
 C2957 C -0.01556 0.84223 0.56661
 C2958 C -0.02796 0.83857 0.58241
 C2959 C -0.03155 0.81870 0.58850
 C2960 C -0.02284 0.80228 0.57885
 N2961 N -0.01076 0.86234 0.56055
 N2962 N -0.01800 0.87801 0.56849
 C2963 C -0.01272 0.89786 0.56194
 C2964 C -0.02417 0.91456 0.56765
 C2965 C -0.02057 0.93377 0.55975
 C2966 C -0.00528 0.93644 0.54615
 C2967 C 0.00695 0.91981 0.54139
 C2968 C 0.00322 0.90069 0.54915
 H2969 H -0.00416 0.79361 0.55499
 H2970 H 0.00221 0.82865 0.54444
 H2971 H -0.03449 0.85102 0.59027
 H2972 H -0.04053 0.81623 0.60116
 H2973 H -0.03641 0.91253 0.57762
 H2974 H -0.03021 0.94629 0.56376
 H2975 H 0.01896 0.92133 0.53111
 H2976 H 0.01249 0.88803 0.54477
 C2977 C 0.29366 0.32640 0.05585
 C2978 C 0.29264 0.31296 0.07135
 C2979 C 0.27414 0.30772 0.07926
 C2980 C 0.25644 0.31553 0.07094
 C2981 C 0.25737 0.32886 0.05527
 C2982 C 0.27606 0.33503 0.04768
 N2983 N 0.27386 0.29556 0.09635
 N2984 N 0.25765 0.29188 0.10529
 C2985 C 0.25723 0.28097 0.12309
 C2986 C 0.23936 0.28095 0.13347
 C2987 C 0.23892 0.27315 0.15203
 C2988 C 0.25632 0.26480 0.16044
 C2989 C 0.27400 0.26358 0.14962
 C2990 C 0.27453 0.27180 0.13108
 H2991 H 0.30840 0.32956 0.05010
 H2992 H 0.30640 0.30690 0.07748
 H2993 H 0.24190 0.31174 0.07683
 H2994 H 0.24336 0.33515 0.04997
 H2995 H 0.22595 0.28794 0.12750
 H2996 H 0.22510 0.27423 0.16009
 H2997 H 0.28765 0.25738 0.15589
 H2998 H 0.28853 0.27161 0.12328
 C2999 C 0.74517 0.83606 0.56210
 C3000 C 0.74246 0.82344 0.57802
 C3001 C 0.75851 0.81206 0.58550
 C3002 C 0.77735 0.81308 0.57657
 C3003 C 0.78013 0.82581 0.56071
 C3004 C 0.76413 0.83765 0.55347
 N3005 N 0.75559 0.80092 0.60291
 N3006 N 0.76893 0.78929 0.61024
 C3007 C 0.76600 0.77970 0.62849
 C3008 C 0.78062 0.76627 0.63572
 C3009 C 0.77914 0.75856 0.65439
 C3010 C 0.76315 0.76448 0.66615
 C3011 C 0.74810 0.77727 0.65855
 C3012 C 0.74945 0.78472 0.63991
 H3013 H 0.73263 0.84512 0.55694
 H3014 H 0.72790 0.82290 0.58486
 H3015 H 0.79000 0.80448 0.58213
 H3016 H 0.79485 0.82657 0.55419
 H3017 H 0.79348 0.76228 0.62710
 H3018 H 0.79096 0.74878 0.65989
 H3019 H 0.73550 0.78198 0.66721
 H3020 H 0.73792 0.79503 0.63471
 C3021 C 0.22449 0.64351 0.57586
 C3022 C 0.22443 0.65412 0.59297
 C3023 C 0.22709 0.67517 0.59310
 C3024 C 0.23049 0.68558 0.57581
 C3025 C 0.23076 0.67487 0.55856
 C3026 C 0.22739 0.65377 0.55846
 N3027 N 0.22610 0.68518 0.61112
 N3028 N 0.22677 0.70434 0.61346
 C3029 C 0.22572 0.71251 0.63241
 C3030 C 0.22754 0.73351 0.63539
 C3031 C 0.22793 0.74131 0.65402
 C3032 C 0.22667 0.72809 0.66984
 C3033 C 0.22396 0.70723 0.66669
 C3034 C 0.22346 0.69955 0.64828
 H3035 H 0.22200 0.62726 0.57617
 H3036 H 0.22195 0.64594 0.60622
 H3037 H 0.23271 0.70187 0.57563
 H3038 H 0.23293 0.68309 0.54527
 H3039 H 0.22917 0.74374 0.62332
 H3040 H 0.23007 0.75745 0.65606
 H3041 H 0.22266 0.69667 0.67856
 H3042 H 0.22176 0.68332 0.64653
 C3043 C 0.71623 0.14570 0.07557
 C3044 C 0.71534 0.15722 0.09209
 C3045 C 0.72333 0.17673 0.09258
 C3046 C 0.73274 0.18466 0.07625
 C3047 C 0.73389 0.17300 0.05954
 C3048 C 0.72528 0.15335 0.05877
 N3049 N 0.72216 0.18738 0.11027
 N3050 N 0.72705 0.20584 0.11287
 C3051 C 0.72569 0.21431 0.13170
 C3052 C 0.73041 0.23480 0.13488
 C3053 C 0.73052 0.24262 0.15352
 C3054 C 0.72619 0.22986 0.16915
 C3055 C 0.72073 0.20963 0.16579
 C3056 C 0.72038 0.20197 0.14736
 H3057 H 0.71044 0.13039 0.07644
 H3058 H 0.70846 0.15078 0.10474
 H3059 H 0.73920 0.19973 0.07642
 H3060 H 0.74080 0.17981 0.04710
 H3061 H 0.73447 0.24456 0.12300
 H3062 H 0.73490 0.25824 0.15580
 H3063 H 0.71720 0.19950 0.17757
 H3064 H 0.71652 0.18615 0.14548
 C3065 C 0.79186 0.17331 0.95032
 C3066 C 0.79234 0.18578 0.93405
 C3067 C 0.77532 0.18788 0.92239
 C3068 C 0.75746 0.17793 0.92770
 C3069 C 0.75694 0.16552 0.94402
 C3070 C 0.77427 0.16271 0.95529
 N3071 N 0.77684 0.19905 0.90475
 N3072 N 0.76220 0.19996 0.89302
 C3073 C 0.76320 0.20990 0.87476
 C3074 C 0.74671 0.20811 0.86253
 C3075 C 0.74749 0.21579 0.84395
 C3076 C 0.76480 0.22569 0.83721
 C3077 C 0.78115 0.22831 0.84974
 C3078 C 0.78043 0.22031 0.86840
 H3079 H 0.80538 0.17169 0.95887
 H3080 H 0.80618 0.19337 0.93020
 H3081 H 0.74405 0.17929 0.91897
 H3082 H 0.74322 0.15746 0.94736
 H3083 H 0.73336 0.20018 0.86725
 H3084 H 0.73456 0.21371 0.83473
 H3085 H 0.79468 0.23582 0.84489
 H3086 H 0.79339 0.22188 0.87765
 C3087 C 0.28622 0.67398 0.44628
 C3088 C 0.28609 0.68714 0.43050
 C3089 C 0.26871 0.68958 0.41941
 C3090 C 0.25117 0.67903 0.42464
 C3091 C 0.25128 0.66584 0.44043
 C3092 C 0.26891 0.66290 0.45125
 N3093 N 0.26957 0.70189 0.40241
 N3094 N 0.25427 0.70443 0.39167
 C3095 C 0.25487 0.71557 0.37401
 C3096 C 0.23751 0.71612 0.36274
 C3097 C 0.23790 0.72464 0.34446
 C3098 C 0.25571 0.73300 0.33708
 C3099 C 0.27294 0.73345 0.34877
 C3100 C 0.27257 0.72467 0.36711
 H3101 H 0.29994 0.67236 0.45453
 H3102 H 0.29969 0.69518 0.42669
 H3103 H 0.23753 0.68060 0.41628
 H3104 H 0.23776 0.65745 0.44380
 H3105 H 0.22379 0.70920 0.36789
 H3106 H 0.22434 0.72417 0.33586
 H3107 H 0.28689 0.73966 0.34339
 H3108 H 0.28620 0.72443 0.37559
 C3109 C 0.70924 0.82735 0.44295
 C3110 C 0.70887 0.81361 0.42786
 C3111 C 0.72650 0.80885 0.41805
 C3112 C 0.74478 0.81750 0.42402
 C3113 C 0.74518 0.83125 0.43916
 C3114 C 0.72734 0.83667 0.44852
 N3115 N 0.72521 0.79650 0.40131
 N3116 N 0.74065 0.79231 0.39143
 C3117 C 0.73966 0.78142 0.37383
 C3118 C 0.75719 0.77980 0.36304
 C3119 C 0.75648 0.77226 0.34453
 C3120 C 0.73819 0.76588 0.33651
 C3121 C 0.72076 0.76616 0.34776
 C3122 C 0.72144 0.77405 0.36630
 H3123 H 0.69530 0.83092 0.45011
 H3124 H 0.69469 0.80706 0.42345
 H3125 H 0.75864 0.81412 0.41666
 H3126 H 0.75932 0.83823 0.44305
 H3127 H 0.77130 0.78541 0.36866
 H3128 H 0.77014 0.77215 0.33617
 H3129 H 0.70646 0.76150 0.34181
 H3130 H 0.70768 0.77514 0.37440
 C3131 C 0.21268 0.32847 0.94017
 C3132 C 0.21186 0.31539 0.92456
 C3133 C 0.22918 0.31116 0.91405
 C3134 C 0.24759 0.31973 0.91977
 C3135 C 0.24844 0.33280 0.93542
 C3136 C 0.23091 0.33764 0.94558
 N3137 N 0.22747 0.29928 0.89703
 N3138 N 0.24264 0.29556 0.88661
 C3139 C 0.24135 0.28498 0.86884
 C3140 C 0.25865 0.28373 0.85769
 C3141 C 0.25768 0.27614 0.83920
 C3142 C 0.23937 0.26934 0.83154
 C3143 C 0.22216 0.26938 0.84312
 C3144 C 0.22310 0.27732 0.86165
 H3145 H 0.19898 0.33158 0.94791
 H3146 H 0.19759 0.30890 0.92037
 H3147 H 0.26122 0.31676 0.91188
 H3148 H 0.26266 0.33970 0.93913
 H3149 H 0.27278 0.28955 0.86305
 H3150 H 0.27118 0.27622 0.83061
 H3151 H 0.20784 0.26440 0.83746
 H3152 H 0.20950 0.27812 0.87004
 C3153 C 0.86785 0.43857 0.75243
 C3154 C 0.85534 0.42234 0.75734
 C3155 C 0.86322 0.40277 0.75988
 C3156 C 0.88394 0.39954 0.75731
 C3157 C 0.89647 0.41576 0.75201
 C3158 C 0.88852 0.43546 0.74957
 N3159 N 0.84957 0.38642 0.76379
 N3160 N 0.85507 0.36896 0.76989
 C3161 C 0.84079 0.35276 0.77224
 C3162 C 0.84652 0.33466 0.78157
 C3163 C 0.83341 0.31796 0.78222
 C3164 C 0.81455 0.31908 0.77317
 C3165 C 0.80860 0.33745 0.76446
 C3166 C 0.82146 0.35416 0.76415
 H3167 H 0.86129 0.45353 0.75046
 H3168 H 0.83938 0.42500 0.75907
 H3169 H 0.89032 0.38448 0.75897
 H3170 H 0.91236 0.41298 0.74994
 H3171 H 0.86137 0.33330 0.78783
 H3172 H 0.83844 0.30385 0.78874
 H3173 H 0.79418 0.33862 0.75726
 H3174 H 0.81661 0.36787 0.75680
 C3175 C 0.38065 0.91961 0.22308
 C3176 C 0.37138 0.90132 0.22794
 C3177 C 0.36690 0.89658 0.24687
 C3178 C 0.37199 0.91044 0.26116
 C3179 C 0.38159 0.92881 0.25639
 C3180 C 0.38621 0.93386 0.23715
 N3181 N 0.35720 0.87756 0.25072
 N3182 N 0.34995 0.87204 0.26676
 C3183 C 0.34030 0.85256 0.26856
 C3184 C 0.32774 0.84823 0.28416
 C3185 C 0.31622 0.83029 0.28460
 C3186 C 0.31721 0.81651 0.26941
 C3187 C 0.33088 0.82031 0.25456
 C3188 C 0.34223 0.83804 0.25412
 H3189 H 0.38253 0.92263 0.20802
 H3190 H 0.36729 0.89084 0.21675
 H3191 H 0.36880 0.90700 0.27597
 H3192 H 0.38586 0.93855 0.26803
 H3193 H 0.32614 0.85918 0.29549
 H3194 H 0.30578 0.82778 0.29619
 H3195 H 0.33224 0.80986 0.24278
 H3196 H 0.35205 0.84068 0.24208
 C3197 C 0.14605 0.94882 0.75388
 C3198 C 0.15932 0.93311 0.74919
 C3199 C 0.15246 0.91309 0.74771
 C3200 C 0.13206 0.90892 0.75109
 C3201 C 0.11887 0.92456 0.75629
 C3202 C 0.12577 0.94464 0.75773
 N3203 N 0.16670 0.89717 0.74409
 N3204 N 0.16153 0.87993 0.73758
 C3205 C 0.17568 0.86359 0.73549
 C3206 C 0.17048 0.84674 0.72444
 C3207 C 0.18305 0.82962 0.72388
 C3208 C 0.20082 0.82891 0.73479
 C3209 C 0.20633 0.84610 0.74536
 C3210 C 0.19401 0.86336 0.74555
 H3211 H 0.15172 0.96417 0.75504
 H3212 H 0.17502 0.93653 0.74679
 H3213 H 0.12648 0.89352 0.75028
 H3214 H 0.10329 0.92101 0.75922
 H3215 H 0.15637 0.84664 0.71668
 H3216 H 0.17828 0.81648 0.71585
 H3217 H 0.21989 0.84592 0.75398
 H3218 H 0.19832 0.87611 0.75429
 C3219 C 0.62663 0.42965 0.27774
 C3220 C 0.63971 0.41343 0.27451
 C3221 C 0.64228 0.40573 0.25614
 C3222 C 0.63154 0.41454 0.24084
 C3223 C 0.61852 0.43099 0.24404
 C3224 C 0.61590 0.43868 0.26256
 N3225 N 0.65602 0.38913 0.25373
 N3226 N 0.65851 0.37955 0.23819
 C3227 C 0.67261 0.36297 0.23729
 C3228 C 0.67228 0.34964 0.22177
 C3229 C 0.68460 0.33224 0.22174
 C3230 C 0.69752 0.32802 0.23725
 C3231 C 0.69857 0.34211 0.25222
 C3232 C 0.68627 0.35929 0.25227
 H3233 H 0.62523 0.43541 0.29210
 H3234 H 0.64796 0.40682 0.28640
 H3235 H 0.63332 0.40884 0.22651
 H3236 H 0.61040 0.43761 0.23208
 H3237 H 0.66192 0.35230 0.21005
 H3238 H 0.68338 0.32169 0.21003
 H3239 H 0.70847 0.33956 0.26431
 H3240 H 0.68713 0.36945 0.26431
 C3241 C 0.61474 0.56849 0.26893
 C3242 C 0.62498 0.58587 0.27509
 C3243 C 0.63406 0.59895 0.26186
 C3244 C 0.63325 0.59409 0.24238
 C3245 C 0.62341 0.57660 0.23625
 C3246 C 0.61376 0.56363 0.24937
 N3247 N 0.64391 0.61713 0.26816
 N3248 N 0.64639 0.63177 0.25643
 C3249 C 0.65675 0.65030 0.26045
 C3250 C 0.65529 0.66581 0.24685
 C3251 C 0.66692 0.68321 0.24841
 C3252 C 0.68057 0.68553 0.26361
 C3253 C 0.68132 0.67048 0.27799
 C3254 C 0.66945 0.65283 0.27640
 H3255 H 0.60733 0.55907 0.27948
 H3256 H 0.62546 0.58937 0.29015
 H3257 H 0.64044 0.60373 0.23186
 H3258 H 0.62362 0.57317 0.22118
 H3259 H 0.64553 0.66408 0.23456
 H3260 H 0.66572 0.69464 0.23724
 H3261 H 0.69174 0.67186 0.28981
 H3262 H 0.67083 0.64092 0.28707
 C3263 C 0.11455 0.07476 0.75936
 C3264 C 0.12532 0.09291 0.76189
 C3265 C 0.13229 0.10385 0.74594
 C3266 C 0.12842 0.09645 0.72766
 C3267 C 0.11784 0.07841 0.72512
 C3268 C 0.11064 0.06731 0.74089
 N3269 N 0.14330 0.12247 0.74746
 N3270 N 0.14893 0.13066 0.76300
 C3271 C 0.15998 0.14945 0.76248
 C3272 C 0.16806 0.15773 0.77926
 C3273 C 0.17958 0.17567 0.77856
 C3274 C 0.18317 0.18554 0.76099
 C3275 C 0.17455 0.17734 0.74437
 C3276 C 0.16321 0.15964 0.74508
 H3277 H 0.10912 0.06670 0.77183
 H3278 H 0.12810 0.09839 0.77617
 H3279 H 0.13381 0.10470 0.71527
 H3280 H 0.11560 0.07298 0.71073
 H3281 H 0.16568 0.15014 0.79283
 H3282 H 0.18594 0.18156 0.79163
 H3283 H 0.17668 0.18450 0.73055
 H3284 H 0.15708 0.15385 0.73188
 C3285 C 0.36163 0.06372 0.26830
 C3286 C 0.34875 0.08016 0.26508
 C3287 C 0.34830 0.09015 0.24740
 C3288 C 0.36072 0.08316 0.23264
 C3289 C 0.37359 0.06645 0.23580
 C3290 C 0.37437 0.05677 0.25380
 N3291 N 0.33539 0.10753 0.24538
 N3292 N 0.33426 0.11889 0.23059
 C3293 C 0.32116 0.13636 0.23039
 C3294 C 0.32128 0.15001 0.21487
 C3295 C 0.30970 0.16792 0.21527
 C3296 C 0.29787 0.17246 0.23130
 C3297 C 0.29726 0.15831 0.24646
 C3298 C 0.30871 0.14055 0.24602
 H3299 H 0.36164 0.05639 0.28220
 H3300 H 0.33921 0.08535 0.27654
 H3301 H 0.36060 0.09066 0.21883
 H3302 H 0.38327 0.06141 0.22438
 H3303 H 0.33075 0.14702 0.20268
 H3304 H 0.31053 0.17851 0.20339
 H3305 H 0.28818 0.16112 0.25895
 H3306 H 0.30809 0.13030 0.25816
 C3307 C 0.86831 0.56365 0.77417
 C3308 C 0.85481 0.57945 0.77046
 C3309 C 0.85382 0.58858 0.75240
 C3310 C 0.86618 0.58127 0.73773
 C3311 C 0.87960 0.56515 0.74137
 C3312 C 0.88100 0.55647 0.75976
 N3313 N 0.84055 0.60558 0.74991
 N3314 N 0.83952 0.61667 0.73494
 C3315 C 0.82618 0.63391 0.73434
 C3316 C 0.82715 0.64796 0.71919
 C3317 C 0.81576 0.66598 0.71960
 C3318 C 0.80328 0.67015 0.73526
 C3319 C 0.80162 0.65549 0.74988
 C3320 C 0.81288 0.63764 0.74944
 H3321 H 0.86894 0.55708 0.78839
 H3322 H 0.84533 0.58492 0.78185
 H3323 H 0.86562 0.58811 0.72363
 H3324 H 0.88927 0.55986 0.73005
 H3325 H 0.83728 0.64531 0.70742
 H3326 H 0.81736 0.67700 0.70814
 H3327 H 0.79195 0.65805 0.76203
 H3328 H 0.81157 0.62701 0.76124
 C3329 C 0.93344 0.73529 0.17990
 C3330 C 0.91452 0.73122 0.18755
 C3331 C 0.89716 0.73728 0.17780
 C3332 C 0.89874 0.74636 0.15973
 C3333 C 0.91755 0.75034 0.15198
 C3334 C 0.93533 0.74557 0.16220
 N3335 N 0.87822 0.73558 0.18712
 N3336 N 0.86253 0.74402 0.18029
 C3337 C 0.84380 0.74353 0.19010
 C3338 C 0.82786 0.75534 0.18308
 C3339 C 0.80996 0.75667 0.19329
 C3340 C 0.80776 0.74604 0.21064
 C3341 C 0.82364 0.73371 0.21733
 C3342 C 0.84154 0.73252 0.20718
 H3343 H 0.94638 0.73154 0.18864
 H3344 H 0.91340 0.72423 0.20155
 H3345 H 0.88544 0.75076 0.15173
 H3346 H 0.91794 0.75699 0.13782
 H3347 H 0.82952 0.76391 0.16993
 H3348 H 0.79794 0.76614 0.18767
 H3349 H 0.82241 0.72529 0.23062
 H3350 H 0.85370 0.72329 0.21286
 C3351 C 0.43666 0.24614 0.68734
 C3352 C 0.41722 0.24049 0.69254
 C3353 C 0.40068 0.24754 0.68199
 C3354 C 0.40373 0.25982 0.66579
 C3355 C 0.42309 0.26544 0.66058
 C3356 C 0.43969 0.25897 0.67151
 N3357 N 0.38094 0.24336 0.68876
 N3358 N 0.36551 0.25111 0.68076
 C3359 C 0.34586 0.24827 0.68833
 C3360 C 0.33003 0.25993 0.68090
 C3361 C 0.31131 0.25975 0.68977
 C3362 C 0.30822 0.24773 0.70618
 C3363 C 0.32387 0.23516 0.71292
 C3364 C 0.34257 0.23548 0.70411
 H3365 H 0.44925 0.24096 0.69595
 H3366 H 0.41497 0.23108 0.70510
 H3367 H 0.39116 0.26537 0.65737
 H3368 H 0.42508 0.27491 0.64802
 H3369 H 0.33248 0.26984 0.66871
 H3370 H 0.29949 0.26946 0.68413
 H3371 H 0.32196 0.22562 0.72544
 H3372 H 0.35461 0.22625 0.71002
 C3373 C 0.44825 0.73132 0.79866
 C3374 C 0.42901 0.73429 0.79111
 C3375 C 0.41230 0.72598 0.80031
 C3376 C 0.41503 0.71388 0.81672
 C3377 C 0.43424 0.71084 0.82423
 C3378 C 0.45097 0.71987 0.81548
 N3379 N 0.39269 0.73093 0.79332
 N3380 N 0.37690 0.72517 0.80194
 C3381 C 0.35732 0.73065 0.79522
 C3382 C 0.35469 0.74369 0.77944
 C3383 C 0.33543 0.74867 0.77306
 C3384 C 0.31844 0.74067 0.78230
 C3385 C 0.32118 0.72787 0.79830
 C3386 C 0.34050 0.72296 0.80469
 H3387 H 0.46096 0.73834 0.79162
 H3388 H 0.42703 0.74359 0.77842
 H3389 H 0.40230 0.70727 0.82405
 H3390 H 0.43590 0.70220 0.83737
 H3391 H 0.36750 0.74994 0.77198
 H3392 H 0.33388 0.75855 0.76070
 H3393 H 0.30843 0.72138 0.80570
 H3394 H 0.34240 0.71297 0.81693
 C3395 C 0.94319 0.23892 0.30890
 C3396 C 0.92406 0.24343 0.30182
 C3397 C 0.90794 0.23068 0.30594
 C3398 C 0.91117 0.21281 0.31654
 C3399 C 0.93025 0.20811 0.32348
 C3400 C 0.94658 0.22133 0.32017
 N3401 N 0.88832 0.23636 0.29961
 N3402 N 0.87284 0.22672 0.30511
 C3403 C 0.85318 0.23219 0.29876
 C3404 C 0.83682 0.22087 0.30526
 C3405 C 0.81750 0.22522 0.29858
 C3406 C 0.81437 0.24100 0.28523
 C3407 C 0.83082 0.25270 0.27914
 C3408 C 0.85008 0.24834 0.28587
 H3409 H 0.95530 0.24913 0.30520
 H3410 H 0.92172 0.25711 0.29338
 H3411 H 0.89886 0.20266 0.31982
 H3412 H 0.93170 0.19475 0.33248
 H3413 H 0.83912 0.20841 0.31524
 H3414 H 0.80515 0.21588 0.30347
 H3415 H 0.82888 0.26500 0.26893
 H3416 H 0.86255 0.25737 0.28074
 C3417 C 0.07534 0.27471 0.35418
 C3418 C 0.09491 0.27544 0.34706
 C3419 C 0.09857 0.27055 0.32802
 C3420 C 0.08240 0.26602 0.31584
 C3421 C 0.06295 0.26540 0.32287
 C3422 C 0.05931 0.26918 0.34219
 N3423 N 0.11876 0.26900 0.32143
 N3424 N 0.12235 0.26002 0.30585
 C3425 C 0.14199 0.25765 0.29829
 C3426 C 0.14418 0.24598 0.28193
 C3427 C 0.16301 0.24340 0.27380
 C3428 C 0.17999 0.25268 0.28190
 C3429 C 0.17777 0.26432 0.29850
 C3430 C 0.15885 0.26674 0.30670
 H3431 H 0.07284 0.27769 0.36916
 H3432 H 0.10728 0.27901 0.35653
 H3433 H 0.08483 0.26254 0.30096
 H3434 H 0.05075 0.26162 0.31325
 H3435 H 0.13119 0.23892 0.27542
 H3436 H 0.16415 0.23442 0.26098
 H3437 H 0.19057 0.27165 0.30505
 H3438 H 0.15736 0.27584 0.31941
 C3439 C 0.57657 0.78520 0.84670
 C3440 C 0.59691 0.78472 0.84186
 C3441 C 0.60291 0.77617 0.82462
 C3442 C 0.58832 0.76932 0.81165
 C3443 C 0.56805 0.77006 0.81632
 C3444 C 0.56200 0.77740 0.83413
 N3445 N 0.62379 0.77348 0.82076
 N3446 N 0.62924 0.75993 0.80907
 C3447 C 0.64960 0.75650 0.80380
 C3448 C 0.65369 0.74011 0.79196
 C3449 C 0.67293 0.73716 0.78488
 C3450 C 0.68846 0.75074 0.78945
 C3451 C 0.68453 0.76676 0.80207
 C3452 C 0.66516 0.76964 0.80922
 H3453 H 0.57236 0.79082 0.86060
 H3454 H 0.60805 0.79011 0.85191
 H3455 H 0.59264 0.76305 0.79803
 H3456 H 0.55713 0.76446 0.80616
 H3457 H 0.64174 0.72990 0.78780
 H3458 H 0.67546 0.72456 0.77534
 H3459 H 0.69618 0.77749 0.80580
 H3460 H 0.66220 0.78244 0.81840
 C3461 C 0.58281 0.23489 0.64910
 C3462 C 0.60253 0.23922 0.65442
 C3463 C 0.60659 0.24736 0.67235
 C3464 C 0.59073 0.25129 0.68497
 C3465 C 0.57106 0.24677 0.67976
 C3466 C 0.56691 0.23841 0.66183
 N3467 N 0.62696 0.25024 0.67801
 N3468 N 0.63129 0.25925 0.69343
 C3469 C 0.65142 0.26068 0.70023
 C3470 C 0.65496 0.27106 0.71717
 C3471 C 0.67394 0.27056 0.72559
 C3472 C 0.68964 0.25947 0.71717
 C3473 C 0.68621 0.24974 0.69970
 C3474 C 0.66722 0.25035 0.69126
 H3475 H 0.58000 0.22883 0.63503
 H3476 H 0.61470 0.23609 0.64464
 H3477 H 0.59358 0.25736 0.69902
 H3478 H 0.55915 0.24940 0.68994
 H3479 H 0.64281 0.27899 0.72418
 H3480 H 0.67610 0.27829 0.73901
 H3481 H 0.69803 0.24122 0.69279
 H3482 H 0.66474 0.24217 0.67814
 C3483 C 0.08048 0.73931 0.15110
 C3484 C 0.09961 0.74713 0.15417
 C3485 C 0.10327 0.75968 0.16973
 C3486 C 0.08729 0.76550 0.18158
 C3487 C 0.06806 0.75773 0.17847
 C3488 C 0.06473 0.74399 0.16362
 N3489 N 0.12364 0.76366 0.17478
 N3490 N 0.12832 0.77379 0.18947
 C3491 C 0.14865 0.77494 0.19590
 C3492 C 0.15281 0.78549 0.21264
 C3493 C 0.17156 0.78355 0.22143
 C3494 C 0.18638 0.77083 0.21360
 C3495 C 0.18255 0.76125 0.19615
 C3496 C 0.16384 0.76332 0.18733
 H3497 H 0.07810 0.72907 0.13929
 H3498 H 0.11185 0.74253 0.14501
 H3499 H 0.08985 0.77516 0.19377
 H3500 H 0.05608 0.76158 0.18822
 H3501 H 0.14116 0.79438 0.21940
 H3502 H 0.17408 0.79125 0.23482
 H3503 H 0.19375 0.75159 0.18963
 H3504 H 0.16095 0.75499 0.17436
   
