data_POSCAR
  _audit_creation_date              2014-09-24
  _audit_creation_method            'ToBaCCo'
  _symmetry_space_group_name_H-M    'P1'
  _symmetry_Int_Tables_number       1
  _symmetry_cell_setting            triclinic
  loop_
  _symmetry_equiv_pos_as_xyz
 x,y,z
_cell_length_a 65.9035
_cell_length_b 65.5800
_cell_length_c 65.3167
_cell_angle_alpha 87.477200
_cell_angle_beta 87.355500
_cell_angle_gamma 88.262300
loop_
  _atom_site_label
  _atom_site_type_symbol
  _atom_site_fract_x
  _atom_site_fract_y
  _atom_site_fract_z
C1 C 0.79065 0.64191 1.00293
 C2 C 0.79204 0.62415 0.98836
 C3 C 0.77415 0.61477 0.98628
 C4 C 0.75638 0.62381 0.99933
 C5 C 0.77357 0.65603 0.99435
 C6 C 0.75565 0.64651 0.99256
 C7 C 0.78143 0.63279 1.02312
 C8 C 0.76355 0.62333 1.02140
 H9 H 0.80548 0.62096 0.97872
 H10 H 0.74188 0.61600 0.99770
 H11 H 0.77529 0.67183 0.98946
 H12 H 0.78866 0.63378 1.03758
 C13 C 0.78914 0.35330 0.48352
 C14 C 0.79264 0.36979 0.49891
 C15 C 0.77607 0.38206 0.50301
 C16 C 0.75728 0.37678 0.49146
 C17 C 0.77071 0.34186 0.49287
 C18 C 0.75396 0.35401 0.49694
 C19 C 0.78110 0.36524 0.46474
 C20 C 0.76437 0.37734 0.46870
 H21 H 0.80632 0.37110 0.50713
 H22 H 0.74392 0.38691 0.49495
 H23 H 0.77081 0.32541 0.49521
 H24 H 0.78818 0.36406 0.44953
 C25 C 0.29140 -0.12843 -0.02392
 C26 C 0.29526 -0.11266 -0.00977
 C27 C 0.27775 -0.10054 -0.00379
 C28 C 0.25941 -0.10645 -0.01365
 C29 C 0.27492 -0.14030 -0.01397
 C30 C 0.25705 -0.12827 -0.00822
 C31 C 0.28195 -0.11782 -0.04124
 C32 C 0.26429 -0.10547 -0.03587
 H33 H 0.30964 -0.11190 -0.00245
 H34 H 0.24620 -0.09680 -0.00914
 H35 H 0.27406 -0.15660 -0.01513
 H36 H 0.28827 -0.11879 -0.05676
 C37 C 0.28370 0.13529 0.50577
 C38 C 0.29042 0.12019 0.48930
 C39 C 0.27558 0.10768 0.48405
 C40 C 0.25522 0.11117 0.49608
 C41 C 0.26483 0.14649 0.49740
 C42 C 0.24972 0.13404 0.49233
 C43 C 0.27553 0.12141 0.52366
 C44 C 0.26045 0.10910 0.51875
 H45 H 0.30558 0.11936 0.48228
 H46 H 0.24353 0.10030 0.49243
 H47 H 0.26411 0.16293 0.49513
 H48 H 0.28068 0.12182 0.53912
 C49 C 0.13994 0.50082 0.28935
 C50 C 0.12182 0.48671 0.29299
 C51 C 0.11088 0.48440 0.27611
 C52 C 0.11902 0.49649 0.25693
 C53 C 0.15223 0.49139 0.27135
 C54 C 0.14135 0.48921 0.25435
 C55 C 0.13077 0.52077 0.28034
 C56 C 0.11999 0.51873 0.26331
 H57 H 0.11958 0.47684 0.30654
 H58 H 0.11005 0.49448 0.24324
 H59 H 0.16808 0.48671 0.27214
 H60 H 0.13272 0.53531 0.28713
 C61 C -0.13057 -0.02207 0.28682
 C62 C -0.11379 -0.00684 0.28959
 C63 C -0.10228 -0.00247 0.27222
 C64 C -0.10867 -0.01378 0.25345
 C65 C -0.14274 -0.01208 0.26928
 C66 C -0.13146 -0.00807 0.25156
 C67 C -0.12028 -0.03972 0.27811
 C68 C -0.10814 -0.03551 0.25973
 H69 H -0.11201 0.00080 0.30374
 H70 H -0.09944 -0.00985 0.23939
 H71 H -0.15854 -0.00738 0.27101
 H72 H -0.12075 -0.05461 0.28593
 C73 C 0.36569 0.48155 0.78903
 C74 C 0.37733 0.50070 0.79338
 C75 C 0.38738 0.50931 0.77667
 C76 C 0.38551 0.49759 0.75701
 C77 C 0.35223 0.48821 0.77121
 C78 C 0.36247 0.49669 0.75446
 C79 C 0.38213 0.46729 0.77957
 C80 C 0.39223 0.47551 0.76274
 H81 H 0.37842 0.50665 0.80844
 H82 H 0.39417 0.50442 0.74358
 H83 H 0.33598 0.48614 0.77189
 H84 H 0.38462 0.45155 0.78480
 C85 C 0.64008 1.00859 0.78747
 C86 C 0.62278 0.99333 0.79054
 C87 C 0.61219 0.99101 0.77340
 C88 C 0.61977 1.00429 0.75478
 C89 C 0.65301 1.00028 0.76930
 C90 C 0.64243 0.99807 0.75211
 C91 C 0.63052 1.02730 0.77957
 C92 C 0.61929 1.02532 0.76153
 H93 H 0.62108 0.98282 0.80369
 H94 H 0.61139 1.00171 0.74090
 H95 H 0.66892 0.99588 0.77027
 H96 H 0.63048 1.04115 0.78799
 C97 C -0.03114 0.29269 -0.14102
 C98 C -0.01166 0.29720 -0.13026
 C99 C -0.00418 0.28126 -0.11856
 C100 C -0.01691 0.26201 -0.11868
 C101 C -0.02514 0.27372 -0.15323
 C102 C -0.01783 0.25768 -0.14155
 C103 C -0.04592 0.28497 -0.12383
 C104 C -0.03866 0.26898 -0.11198
 H105 H -0.00412 0.31163 -0.13228
 H106 H -0.01041 0.24905 -0.10943
 H107 H -0.02518 0.27330 -0.16976
 H108 H -0.06130 0.29111 -0.12213
 C109 C 0.50377 0.28491 0.13287
 C110 C 0.48529 0.29024 0.12005
 C111 C 0.47961 0.27496 0.10832
 C112 C 0.49317 0.25563 0.11019
 C113 C 0.49772 0.26516 0.14523
 C114 C 0.49201 0.24993 0.13327
 C115 C 0.52043 0.27779 0.11746
 C116 C 0.51507 0.26243 0.10570
 H117 H 0.47621 0.30415 0.12186
 H118 H 0.48877 0.24333 0.10027
 H119 H 0.49626 0.26368 0.16175
 H120 H 0.53587 0.28300 0.11752
 C121 C 1.00186 0.78727 0.64146
 C122 C 0.98975 0.79165 0.62366
 C123 C 0.98581 0.77426 0.61213
 C124 C 0.99555 0.75550 0.62049
 C125 C 0.99113 0.77109 0.65335
 C126 C 0.98762 0.75335 0.64185
 C127 C 1.02039 0.77717 0.63360
 C128 C 1.01726 0.75970 0.62177
 H129 H 0.98160 0.80615 0.62148
 H130 H 0.99277 0.74235 0.61124
 H131 H 0.98916 0.77051 0.66984
 H132 H 1.03522 0.78319 0.63570
 C133 C 0.47895 0.77984 0.36694
 C134 C 0.49813 0.78464 0.37809
 C135 C 0.50586 0.76871 0.38960
 C136 C 0.49326 0.74937 0.38956
 C137 C 0.48474 0.76075 0.35507
 C138 C 0.49249 0.74479 0.36664
 C139 C 0.46419 0.77242 0.38433
 C140 C 0.47143 0.75641 0.39611
 H141 H 0.50475 0.79955 0.37764
 H142 H 0.49956 0.73671 0.39935
 H143 H 0.48280 0.76019 0.33874
 H144 H 0.44907 0.77899 0.38677
 C145 C 0.38737 -0.01195 0.25439
 H146 H 0.38864 0.00256 0.26143
 C147 C 0.39767 -0.02925 0.26231
 H148 H 0.40687 -0.02793 0.27547
 C149 C 0.37279 -0.03148 0.22946
 H150 H 0.36270 -0.03240 0.21699
 C151 C 0.38272 -0.04918 0.23696
 H152 H 0.38050 -0.06351 0.22986
 N153 N 0.37522 -0.01335 0.23828
 C154 C 0.36654 0.04863 0.21304
 H155 H 0.35013 0.04898 0.21286
 C156 C 0.37734 0.06551 0.20554
 H157 H 0.36908 0.07892 0.19977
 C158 C 0.39711 0.03069 0.22110
 H159 H 0.40474 0.01698 0.22695
 C160 C 0.40855 0.04735 0.21381
 H161 H 0.42497 0.04630 0.21408
 Zn162 Zn 0.35968 0.01008 0.23021
 N163 N 0.37648 0.03174 0.22075
 C164 C 0.34860 0.03569 0.26238
 N165 N 0.34409 0.01797 0.25375
 C166 C 0.33097 0.00465 0.26337
 C167 C 0.32220 0.00874 0.28274
 C168 C 0.34039 0.04024 0.28172
 C169 C 0.35441 0.00059 0.19039
 C170 C 0.34454 -0.00329 0.17266
 C171 C 0.31234 0.00036 0.19160
 C172 C 0.32291 0.00432 0.20907
 N173 N 0.34359 0.00422 0.20812
 H174 H 0.35945 0.04583 0.25483
 H175 H 0.32806 -0.00959 0.25642
 H176 H 0.31239 -0.00230 0.29061
 H177 H 0.34467 0.05410 0.28864
 H178 H 0.37083 0.00073 0.19008
 H179 H 0.35353 -0.00644 0.15880
 H180 H 0.29589 0.00055 0.19246
 H181 H 0.31461 0.00758 0.22326
 C182 C 0.39863 0.06502 0.20585
 C183 C 0.39519 -0.04822 0.25373
 C184 C 0.32323 -0.00337 0.17305
 C185 C 0.32742 0.02646 0.29233
 C186 C 0.08080 1.03854 0.78183
 H187 H 0.08071 1.02414 0.79057
 C188 C 0.07046 1.05566 0.78964
 H189 H 0.06252 1.05429 0.80450
 C190 C 0.09232 1.05804 0.75241
 H191 H 0.10113 1.05908 0.73808
 C192 C 0.08208 1.07541 0.75952
 H193 H 0.08279 1.08948 0.75023
 N194 N 0.09159 1.04007 0.76360
 C195 C 0.10120 0.98175 0.73541
 H196 H 0.11752 0.98238 0.73291
 C197 C 0.09071 0.96613 0.72728
 H198 H 0.09906 0.95464 0.71864
 C199 C 0.07054 0.99617 0.74959
 H200 H 0.06279 1.00813 0.75805
 C201 C 0.05940 0.98058 0.74189
 H202 H 0.04304 0.98058 0.74443
 Zn203 Zn 0.10745 1.01738 0.75459
 N204 N 0.09107 0.99642 0.74620
 C205 C 0.12246 0.98721 0.78246
 N206 N 0.12345 1.00727 0.77638
 C207 C 0.13528 1.02018 0.78601
 C208 C 0.14719 1.01286 0.80209
 C209 C 0.13418 0.97925 0.79829
 C210 C 0.11437 1.02869 0.71344
 C211 C 0.12533 1.03388 0.69530
 C212 C 0.15610 1.03203 0.71409
 C213 C 0.14452 1.02668 0.73190
 N214 N 0.12401 1.02532 0.73128
 H215 H 0.11260 0.97726 0.77504
 H216 H 0.13554 1.03615 0.78109
 H217 H 0.15682 1.02321 0.80937
 H218 H 0.13322 0.96322 0.80284
 H219 H 0.09807 1.02715 0.71332
 H220 H 0.11730 1.03612 0.68125
 H221 H 0.17236 1.03344 0.71497
 H222 H 0.15195 1.02365 0.74616
 C223 C 0.06954 0.96551 0.73033
 C224 C 0.07122 1.07451 0.77854
 C225 C 0.14650 1.03573 0.69544
 C226 C 0.14689 0.99207 0.80820
 C227 C 0.60033 0.53258 0.28641
 H228 H 0.60936 0.52282 0.29638
 C229 C 0.58890 0.54878 0.29464
 H230 H 0.58971 0.55151 0.31081
 C231 C 0.58861 0.54112 0.25331
 H232 H 0.58847 0.53810 0.23723
 C233 C 0.57693 0.55748 0.26091
 H234 H 0.56784 0.56679 0.25052
 N235 N 0.60045 0.52937 0.26596
 C236 C 0.61341 0.47550 0.23095
 H237 H 0.62939 0.47769 0.22728
 C238 C 0.60345 0.45982 0.22224
 H239 H 0.61189 0.44988 0.21190
 C240 C 0.58310 0.48575 0.24916
 H241 H 0.57532 0.49597 0.25965
 C242 C 0.57256 0.47003 0.24095
 H243 H 0.55658 0.46830 0.24503
 Zn244 Zn 0.61822 0.50900 0.25457
 N245 N 0.60316 0.48813 0.24403
 C246 C 0.63427 0.47701 0.27978
 N247 N 0.63513 0.49740 0.27515
 C248 C 0.64723 0.50948 0.28547
 C249 C 0.65909 0.50111 0.30111
 C250 C 0.64592 0.46801 0.29520
 C251 C 0.62447 0.52473 0.21440
 C252 C 0.63509 0.53268 0.19703
 C253 C 0.66547 0.53201 0.21638
 C254 C 0.65426 0.52394 0.23338
 N255 N 0.63406 0.52069 0.23220
 H256 H 0.62435 0.46766 0.27172
 H257 H 0.64745 0.52571 0.28175
 H258 H 0.66869 0.51093 0.30911
 H259 H 0.64475 0.45181 0.29883
 H260 H 0.60861 0.52134 0.21351
 H261 H 0.62708 0.53595 0.18310
 H262 H 0.68155 0.53436 0.21756
 H263 H 0.66184 0.52015 0.24739
 C264 C 0.58277 0.45695 0.22718
 C265 C 0.57731 0.56175 0.28176
 C266 C 0.65587 0.53646 0.19788
 C267 C 0.65853 0.48008 0.30612
 C268 C 0.86080 0.50166 0.76173
 H269 H 0.85675 0.51447 0.77113
 C270 C 0.87220 0.48518 0.76979
 H271 H 0.87665 0.48538 0.78552
 C272 C 0.85894 0.48555 0.73012
 H273 H 0.85370 0.48580 0.71467
 C274 C 0.87044 0.46880 0.73752
 H275 H 0.87409 0.45633 0.72754
 N276 N 0.85419 0.50143 0.74234
 C277 C 0.84366 0.56415 0.71924
 H278 H 0.82739 0.56480 0.71763
 C279 C 0.85510 0.58127 0.71372
 H280 H 0.84752 0.59504 0.70784
 C281 C 0.87338 0.54516 0.72810
 H282 H 0.88048 0.53104 0.73363
 C283 C 0.88541 0.56187 0.72262
 H284 H 0.90168 0.56050 0.72420
 Zn285 Zn 0.83697 0.52327 0.73332
 N286 N 0.85288 0.54655 0.72636
 C287 C 0.81570 0.54794 0.76259
 N288 N 0.81819 0.52874 0.75558
 C289 C 0.80967 0.51251 0.76606
 C290 C 0.79884 0.51514 0.78471
 C291 C 0.80474 0.55129 0.78098
 C292 C 0.82776 0.52505 0.69138
 C293 C 0.82014 0.51802 0.67351
 C294 C 0.80371 0.49106 0.69376
 C295 C 0.81150 0.49877 0.71134
 N296 N 0.82358 0.51529 0.70984
 H297 H 0.82299 0.56062 0.75457
 H298 H 0.81235 0.49729 0.76063
 H299 H 0.79285 0.50196 0.79326
 H300 H 0.80370 0.56655 0.78671
 H301 H 0.83768 0.53787 0.69027
 H302 H 0.82387 0.52597 0.65901
 H303 H 0.79495 0.47733 0.69521
 H304 H 0.80865 0.49096 0.72604
 C305 C 0.87628 0.58023 0.71531
 C306 C 0.87700 0.46832 0.75772
 C307 C 0.80837 0.50048 0.67444
 C308 C 0.79661 0.53470 0.79255
 C309 C 0.25689 0.37475 -0.00199
 H310 H 0.26310 0.37439 0.01307
 C311 C 0.26675 0.38540 -0.01839
 H312 H 0.28058 0.39324 -0.01584
 C313 C 0.23191 0.36405 -0.02384
 H314 H 0.21864 0.35532 -0.02611
 C315 C 0.24130 0.37439 -0.04063
 H316 H 0.23480 0.37389 -0.05552
 N317 N 0.23975 0.36443 -0.00496
 C318 C 0.20985 0.35504 0.05570
 H319 H 0.20740 0.33882 0.05545
 C320 C 0.20363 0.36578 0.07296
 H321 H 0.19623 0.35774 0.08593
 C322 C 0.22229 0.38521 0.03889
 H323 H 0.22948 0.39273 0.02554
 C324 C 0.21618 0.39659 0.05582
 H325 H 0.21903 0.41278 0.05545
 Zn326 Zn 0.22810 0.34841 0.01716
 N327 N 0.21939 0.36474 0.03930
 C328 C 0.25528 0.32966 0.04489
 N329 N 0.24855 0.32933 0.02554
 C330 C 0.25798 0.31737 0.01127
 C331 C 0.27520 0.30544 0.01614
 C332 C 0.27232 0.31794 0.05042
 C333 C 0.18929 0.34861 0.00339
 C334 C 0.17235 0.34144 -0.00568
 C335 C 0.18721 0.30731 -0.00328
 C336 C 0.20406 0.31521 0.00564
 N337 N 0.20499 0.33564 0.00821
 H338 H 0.24810 0.33972 0.05584
 H339 H 0.25259 0.31772 -0.00414
 H340 H 0.28278 0.29634 0.00449
 H341 H 0.27788 0.31917 0.06565
 H342 H 0.19039 0.36475 0.00580
 H343 H 0.16030 0.35212 -0.01007
 H344 H 0.18693 0.29116 -0.00607
 H345 H 0.21663 0.30515 0.00984
 C346 C 0.20698 0.38680 0.07326
 C347 C 0.25904 0.38511 -0.03807
 C348 C 0.17141 0.32065 -0.00959
 C349 C 0.28275 0.30590 0.03588
 C350 C 0.77869 0.09030 1.03589
 H351 H 0.78619 0.09035 1.02080
 C352 C 0.78726 0.07918 1.05219
 H353 H 0.80123 0.07040 1.04947
 C354 C 0.75156 0.10209 1.05778
 H355 H 0.73796 0.11149 1.06000
 C356 C 0.75958 0.09115 1.07452
 H357 H 0.75199 0.09224 1.08951
 N358 N 0.76123 0.10153 1.03895
 C359 C 0.73816 0.11289 0.97804
 H360 H 0.73710 0.12939 0.97790
 C361 C 0.73242 0.10263 0.96110
 H362 H 0.72679 0.11133 0.94797
 C363 C 0.74632 0.08154 0.99566
 H364 H 0.75158 0.07343 1.00926
 C365 C 0.74052 0.07061 0.97907
 H366 H 0.74159 0.05409 0.97990
 Zn367 Zn 0.75225 0.11819 1.01664
 N368 N 0.74521 0.10231 0.99473
 C369 C 0.78339 0.13280 0.98923
 N370 N 0.77405 0.13518 1.00801
 C371 C 0.78112 0.14838 1.02134
 C372 C 0.79798 0.16018 1.01574
 C373 C 0.80036 0.14409 0.98311
 C374 C 0.71159 0.12273 1.02893
 C375 C 0.69314 0.13272 1.03385
 C376 C 0.70994 0.16494 1.02934
 C377 C 0.72807 0.15431 1.02432
 N378 N 0.72859 0.13356 1.02439
 H379 H 0.77803 0.12179 0.97908
 H380 H 0.77379 0.14957 1.03642
 H381 H 0.80352 0.17054 1.02653
 H382 H 0.80755 0.14201 0.96807
 H383 H 0.71236 0.10625 1.02846
 H384 H 0.67975 0.12374 1.03700
 H385 H 0.70993 0.18144 1.02955
 H386 H 0.74161 0.16269 1.02022
 C387 C 0.73361 0.08122 0.96145
 C388 C 0.77781 0.07970 1.07189
 C389 C 0.69211 0.15413 1.03416
 C390 C 0.80789 0.15795 0.99645
 C391 C 0.24562 0.60157 0.55673
 H392 H 0.23144 0.61022 0.55757
 C393 C 0.25233 0.59100 0.57428
 H394 H 0.24285 0.59127 0.58825
 C395 C 0.27518 0.59091 0.53763
 H396 H 0.28415 0.59130 0.52333
 C397 C 0.28261 0.58036 0.55489
 H398 H 0.29742 0.57282 0.55369
 N399 N 0.25708 0.60139 0.53888
 C400 C 0.23619 0.61135 0.47686
 H401 H 0.23506 0.62786 0.47624
 C402 C 0.23085 0.60056 0.46010
 H403 H 0.22543 0.60887 0.44664
 C404 C 0.24418 0.58052 0.49548
 H405 H 0.24930 0.57284 0.50936
 C406 C 0.23880 0.56908 0.47909
 H407 H 0.23999 0.55257 0.48039
 Zn408 Zn 0.24956 0.61766 0.51564
 N409 N 0.24291 0.60128 0.49398
 C410 C 0.28179 0.63086 0.48876
 N411 N 0.27224 0.63369 0.50737
 C412 C 0.27978 0.64643 0.52087
 C413 C 0.29749 0.65711 0.51572
 C414 C 0.29956 0.64108 0.48307
 C415 C 0.20856 0.62399 0.52627
 C416 C 0.19071 0.63470 0.53194
 C417 C 0.20916 0.66603 0.52834
 C418 C 0.22668 0.65469 0.52269
 N419 N 0.22616 0.63400 0.52222
 H420 H 0.27600 0.62026 0.47844
 H421 H 0.27223 0.64799 0.53580
 H422 H 0.30345 0.66698 0.52672
 H423 H 0.30691 0.63859 0.46818
 H424 H 0.20852 0.60754 0.52550
 H425 H 0.17705 0.62634 0.53579
 H426 H 0.20988 0.68247 0.52883
 H427 H 0.24066 0.66244 0.51888
 C428 C 0.23215 0.57914 0.46107
 C429 C 0.27124 0.58049 0.57365
 C430 C 0.19092 0.65600 0.53331
 C431 C 0.30771 0.65429 0.49667
 C432 C 0.76207 0.88085 0.50161
 H433 H 0.76757 0.88086 0.51696
 C434 C 0.77159 0.89257 0.48580
 H435 H 0.78421 0.90184 0.48921
 C436 C 0.73904 0.86851 0.47858
 H437 H 0.72677 0.85866 0.47565
 C438 C 0.74816 0.87992 0.46231
 H439 H 0.74267 0.87871 0.44705
 N440 N 0.74602 0.86925 0.49781
 C441 C 0.71683 0.85849 0.55851
 H442 H 0.71620 0.84201 0.55895
 C443 C 0.70974 0.86929 0.57546
 H444 H 0.70348 0.86102 0.58889
 C445 C 0.72556 0.88926 0.54028
 H446 H 0.73159 0.89700 0.52650
 C447 C 0.71855 0.90068 0.55686
 H448 H 0.71963 0.91714 0.55578
 Zn449 Zn 0.73507 0.85247 0.51970
 N450 N 0.72493 0.86852 0.54154
 C451 C 0.76474 0.83815 0.54688
 N452 N 0.75684 0.83518 0.52841
 C453 C 0.76638 0.82263 0.51473
 C454 C 0.78501 0.81302 0.51915
 C455 C 0.78338 0.82906 0.55181
 C456 C 0.69707 0.84982 0.50449
 C457 C 0.68070 0.84117 0.49572
 C458 C 0.69679 0.80787 0.50104
 C459 C 0.71308 0.81723 0.50956
 N460 N 0.71311 0.83792 0.51059
 H461 H 0.75735 0.84865 0.55730
 H462 H 0.76009 0.82101 0.49990
 H463 H 0.79295 0.80387 0.50775
 H464 H 0.78991 0.83233 0.56618
 H465 H 0.69740 0.86619 0.50578
 H466 H 0.66833 0.85097 0.49037
 H467 H 0.69717 0.79147 0.49962
 H468 H 0.72583 0.80804 0.51487
 C469 C 0.71074 0.89067 0.57485
 C470 C 0.76472 0.89211 0.46578
 C471 C 0.68062 0.82000 0.49352
 C472 C 0.79399 0.81680 0.53762
 C473 C -0.00403 0.25398 0.37846
 H474 H 0.00989 0.26236 0.37781
 C475 C -0.02086 0.26092 0.39021
 H476 H -0.01978 0.27478 0.39845
 C477 C -0.02252 0.22628 0.36762
 H478 H -0.02324 0.21297 0.35855
 C479 C -0.03969 0.23263 0.37922
 H480 H -0.05334 0.22384 0.37924
 N481 N -0.00510 0.23690 0.36754
 C482 C 0.05677 0.21326 0.35778
 H483 H 0.05725 0.21231 0.34127
 C484 C 0.07343 0.20639 0.36885
 H485 H 0.08681 0.20031 0.36073
 C486 C 0.03867 0.22240 0.38838
 H487 H 0.02498 0.22836 0.39595
 C488 C 0.05508 0.21587 0.40005
 H489 H 0.05386 0.21683 0.41657
 Zn490 Zn 0.01802 0.22934 0.35104
 N491 N 0.03987 0.22111 0.36762
 C492 C 0.04277 0.26198 0.33827
 N493 N 0.02521 0.25271 0.33451
 C494 C 0.01161 0.26160 0.32154
 C495 C 0.01526 0.28084 0.31217
 C496 C 0.04683 0.28126 0.32951
 C497 C 0.00938 0.18898 0.34675
 C498 C 0.00475 0.17123 0.33722
 C499 C 0.00643 0.19003 0.30455
 C500 C 0.01113 0.20751 0.31477
 N501 N 0.01221 0.20669 0.33554
 H502 H 0.05314 0.25500 0.34901
 H503 H -0.00251 0.25420 0.31927
 H504 H 0.00401 0.28815 0.30251
 H505 H 0.06047 0.28881 0.33334
 H506 H 0.01047 0.18875 0.36323
 H507 H 0.00201 0.15746 0.34657
 H508 H 0.00551 0.19088 0.28803
 H509 H 0.01381 0.22166 0.30611
 C510 C 0.07270 0.20764 0.39027
 C511 C -0.03904 0.25023 0.39066
 C512 C 0.00312 0.17159 0.31585
 C513 C 0.03279 0.29106 0.31667
 C514 C 1.04018 0.77851 0.08332
 H515 H 1.02500 0.78492 0.08166
 C516 C 1.05666 0.78749 0.07252
 H517 H 1.05394 0.80058 0.06224
 C518 C 1.06212 0.75381 0.09900
 H519 H 1.06430 0.74101 0.10971
 C520 C 1.07899 0.76235 0.08862
 H521 H 1.09396 0.75595 0.09158
 N522 N 1.04316 0.76191 0.09617
 C523 C 0.98666 0.72939 0.10539
 H524 H 0.98687 0.72714 0.12189
 C525 C 0.97159 0.72062 0.09470
 H526 H 0.96010 0.71176 0.10309
 C527 C 1.00141 0.74383 0.07449
 H528 H 1.01322 0.75264 0.06667
 C529 C 0.98639 0.73551 0.06317
 H530 H 0.98672 0.73801 0.04666
 Zn531 Zn 1.02081 0.75115 0.11195
 N532 N 1.00113 0.74079 0.09525
 C533 C 0.98880 0.77716 0.12649
 N534 N 1.00894 0.77236 0.12770
 C535 C 1.02100 0.78304 0.13947
 C536 C 1.01276 0.79909 0.15091
 C537 C 0.97994 0.79294 0.13776
 C538 C 1.03586 0.71164 0.11956
 C539 C 1.04195 0.69424 0.13099
 C540 C 1.03532 0.71271 0.16192
 C541 C 1.02919 0.72974 0.14987
 N542 N 1.02972 0.72894 0.12908
 H543 H 0.97953 0.76886 0.11669
 H544 H 1.03703 0.77909 0.13995
 H545 H 1.02251 0.80730 0.16039
 H546 H 0.96389 0.79659 0.13650
 H547 H 1.03594 0.71138 0.10300
 H548 H 1.04700 0.68069 0.12310
 H549 H 1.03472 0.71353 0.17846
 H550 H 1.02389 0.74351 0.15716
 C551 C 0.97131 0.72366 0.07333
 C552 C 1.07644 0.77946 0.07519
 C553 C 1.04175 0.69464 0.15246
 C554 C 0.99193 0.80410 0.15021
 C555 C 0.52925 0.27655 0.58583
 H556 H 0.51433 0.28290 0.58262
 C557 C 0.54632 0.28332 0.57426
 H558 H 0.54433 0.29463 0.56189
 C559 C 0.54991 0.25429 0.60610
 H560 H 0.55136 0.24348 0.61893
 C561 C 0.56734 0.26070 0.59505
 H562 H 0.58199 0.25463 0.59960
 N563 N 0.53132 0.26222 0.60135
 C564 C 0.46979 0.24122 0.61426
 H565 H 0.46918 0.24336 0.63061
 C566 C 0.45300 0.23391 0.60505
 H567 H 0.43940 0.23088 0.61447
 C568 C 0.48833 0.24317 0.58232
 H569 H 0.50228 0.24652 0.57363
 C570 C 0.47189 0.23555 0.57245
 H571 H 0.47343 0.23304 0.55618
 Zn572 Zn 0.50832 0.25493 0.61818
 N573 N 0.48692 0.24588 0.60287
 C574 C 0.48187 0.28821 0.62677
 N575 N 0.49931 0.27837 0.63244
 C576 C 0.51063 0.28568 0.64725
 C577 C 0.50382 0.30283 0.65788
 C578 C 0.47469 0.30554 0.63672
 C579 C 0.52143 0.21526 0.62676
 C580 C 0.52724 0.19783 0.63826
 C581 C 0.51969 0.21610 0.66913
 C582 C 0.51392 0.23323 0.65699
 N583 N 0.51528 0.23261 0.63618
 H584 H 0.47358 0.28283 0.61429
 H585 H 0.52482 0.27801 0.65100
 H586 H 0.51268 0.30790 0.67015
 H587 H 0.46091 0.31319 0.63166
 H588 H 0.52210 0.21511 0.61018
 H589 H 0.53265 0.18439 0.63038
 H590 H 0.51863 0.21684 0.68568
 H591 H 0.50834 0.24690 0.66425
 C592 C 0.45391 0.23073 0.58389
 C593 C 0.56575 0.27548 0.57893
 C594 C 0.52660 0.19814 0.65974
 C595 C 0.48546 0.31291 0.65281
 C596 C 0.50458 0.76869 0.88139
 H597 H 0.51935 0.77546 0.87934
 C598 C 0.48921 0.77827 0.89322
 H599 H 0.49237 0.79226 0.90052
 C600 C 0.48246 0.74246 0.87393
 H601 H 0.47964 0.72887 0.86589
 C602 C 0.46666 0.75151 0.88563
 H603 H 0.45188 0.74468 0.88645
 N604 N 0.50099 0.75112 0.87203
 C605 C 0.56106 0.72346 0.85881
 H606 H 0.56042 0.72153 0.84249
 C607 C 0.57844 0.71713 0.86906
 H608 H 0.59112 0.71019 0.86052
 C609 C 0.54502 0.73437 0.88981
 H610 H 0.53189 0.74089 0.89791
 C611 C 0.56205 0.72817 0.90068
 H612 H 0.56197 0.73036 0.91702
 Zn613 Zn 0.52188 0.74045 0.85431
 N614 N 0.54492 0.73218 0.86921
 C615 C 0.54745 0.76892 0.83252
 N616 N 0.52830 0.76172 0.83481
 C617 C 0.51255 0.77121 0.82515
 C618 C 0.51560 0.78911 0.81317
 C619 C 0.55122 0.78664 0.82049
 C620 C 0.50842 0.70086 0.85428
 C621 C 0.49976 0.68378 0.84669
 C622 C 0.50115 0.70030 0.81285
 C623 C 0.50967 0.71722 0.82116
 N624 N 0.51261 0.71736 0.84164
 H625 H 0.55967 0.76153 0.84072
 H626 H 0.49741 0.76534 0.82752
 H627 H 0.50279 0.79685 0.80610
 H628 H 0.56638 0.79263 0.81953
 H629 H 0.51118 0.70132 0.87045
 H630 H 0.49598 0.67101 0.85710
 H631 H 0.49815 0.70064 0.79668
 H632 H 0.51340 0.73040 0.81135
 C633 C 0.57910 0.71953 0.89027
 C634 C 0.46987 0.76977 0.89530
 C635 C 0.49562 0.68355 0.82583
 C636 C 0.53508 0.79723 0.81106
 C637 C 0.45499 -0.17086 0.32716
 C638 C 0.47571 -0.17202 0.33133
 C639 C 0.48349 -0.18795 0.34380
 C640 C 0.47065 -0.20288 0.35299
 C641 C 0.45014 -0.20234 0.34774
 C642 C 0.44236 -0.18644 0.33518
 C643 C 0.44661 -0.15338 0.31475
 N644 N 0.42693 -0.15286 0.30937
 N645 N 0.41925 -0.13680 0.29883
 C646 C 0.43090 -0.12056 0.29326
 N647 N 0.45060 -0.12113 0.29855
 N648 N 0.45829 -0.13720 0.30905
 C649 C 0.42213 -0.10235 0.28224
 C650 C 0.43339 -0.08453 0.27892
 C651 C 0.42476 -0.06705 0.26941
 C652 C 0.40475 -0.06704 0.26288
 C653 C 0.39364 -0.08497 0.26582
 C654 C 0.40221 -0.10241 0.27543
 H655 H 0.48601 -0.16061 0.32492
 H656 H 0.49965 -0.18850 0.34601
 H657 H 0.44000 -0.21421 0.35336
 H658 H 0.42640 -0.18628 0.33191
 H659 H 0.44878 -0.08395 0.28395
 H660 H 0.43374 -0.05351 0.26717
 H661 H 0.37810 -0.08534 0.26117
 H662 H 0.39311 -0.11586 0.27771
 C663 C 0.94266 0.34567 0.82601
 C664 C 0.95111 0.34750 0.84516
 C665 C 0.95936 0.33040 0.85562
 C666 C 0.95996 0.31108 0.84700
 C667 C 0.95087 0.30919 0.82808
 C668 C 0.94246 0.32629 0.81768
 C669 C 0.93382 0.36384 0.81501
 N670 N 0.92235 0.36180 0.79849
 N671 N 0.91416 0.37814 0.78883
 C672 C 0.91717 0.39722 0.79520
 N673 N 0.92874 0.39925 0.81163
 N674 N 0.93686 0.38291 0.82134
 C675 C 0.90764 0.41539 0.78482
 C676 C 0.91315 0.43516 0.78940
 C677 C 0.90356 0.45231 0.78027
 C678 C 0.88812 0.45011 0.76644
 C679 C 0.88287 0.43032 0.76159
 C680 C 0.89256 0.41317 0.77061
 H681 H 0.95113 0.36211 0.85225
 H682 H 0.96525 0.33233 0.87060
 H683 H 0.94981 0.29455 0.82133
 H684 H 0.93575 0.32429 0.80311
 H685 H 0.92484 0.43742 0.80013
 H686 H 0.90825 0.46731 0.78406
 H687 H 0.87084 0.42804 0.75125
 H688 H 0.88789 0.39816 0.76679
 C689 C 0.00707 1.20229 0.83334
 C690 C 0.01202 1.22141 0.82416
 C691 C 0.00370 1.23940 0.83214
 C692 C -0.00956 1.23865 0.84958
 C693 C -0.01458 1.21962 0.85871
 C694 C -0.00645 1.20160 0.85063
 C695 C 0.01616 1.18324 0.82508
 N696 N 0.00905 1.16470 0.83154
 N697 N 0.01743 1.14759 0.82427
 C698 C 0.03334 1.14829 0.81030
 N699 N 0.04043 1.16683 0.80384
 N700 N 0.03200 1.18393 0.81104
 C701 C 0.04293 1.12932 0.80236
 C702 C 0.06167 1.12998 0.79123
 C703 C 0.07084 1.11220 0.78371
 C704 C 0.06141 1.09330 0.78690
 C705 C 0.04269 1.09260 0.79811
 C706 C 0.03358 1.11041 0.80581
 H707 H 0.02234 1.22251 0.81079
 H708 H 0.00794 1.25393 0.82493
 H709 H -0.02503 1.21863 0.87191
 H710 H -0.01061 1.18715 0.85806
 H711 H 0.06941 1.14424 0.78848
 H712 H 0.08548 1.11327 0.77558
 H713 H 0.03491 1.07834 0.80066
 H714 H 0.01910 1.10939 0.81427
 C715 C 0.51599 0.68894 0.34034
 C716 C 0.51564 0.70738 0.32855
 C717 C 0.50809 0.72541 0.33706
 C718 C 0.50058 0.72552 0.35760
 C719 C 0.50124 0.70709 0.36942
 C720 C 0.50874 0.68904 0.36090
 C721 C 0.52405 0.66981 0.33131
 N722 N 0.52397 0.65185 0.34252
 N723 N 0.53143 0.63472 0.33447
 C724 C 0.53927 0.63479 0.31487
 N725 N 0.53928 0.65273 0.30365
 N726 N 0.53182 0.66986 0.31168
 C727 C 0.54810 0.61584 0.30606
 C728 C 0.55736 0.61632 0.28623
 C729 C 0.56647 0.59869 0.27824
 C730 C 0.56650 0.58013 0.28986
 C731 C 0.55688 0.57954 0.30953
 C732 C 0.54779 0.59719 0.31754
 H733 H 0.52128 0.70795 0.31270
 H734 H 0.50851 0.73932 0.32753
 H735 H 0.49584 0.70637 0.38524
 H736 H 0.50888 0.67515 0.37049
 H737 H 0.55792 0.63040 0.27696
 H738 H 0.57400 0.59975 0.26316
 H739 H 0.55640 0.56542 0.31875
 H740 H 0.54068 0.59623 0.33282
 C741 C 0.52327 0.33821 0.16349
 C742 C 0.51772 0.32063 0.17526
 C743 C 0.51137 0.30329 0.16582
 C744 C 0.51031 0.30320 0.14432
 C745 C 0.51570 0.32096 0.13269
 C746 C 0.52211 0.33815 0.14209
 C747 C 0.53067 0.35642 0.17322
 N748 N 0.53881 0.37197 0.16147
 N749 N 0.54594 0.38818 0.17001
 C750 C 0.54519 0.38961 0.19070
 N751 N 0.53691 0.37413 0.20250
 N752 N 0.52982 0.35785 0.19394
 C753 C 0.55386 0.40740 0.20006
 C754 C 0.55065 0.41074 0.22111
 C755 C 0.55958 0.42718 0.22989
 C756 C 0.57208 0.44039 0.21784
 C757 C 0.57500 0.43725 0.19678
 C758 C 0.56593 0.42102 0.18797
 H759 H 0.51851 0.32015 0.19180
 H760 H 0.50752 0.29015 0.17555
 H761 H 0.51504 0.32145 0.11613
 H762 H 0.52619 0.35142 0.13249
 H763 H 0.54137 0.40059 0.23083
 H764 H 0.55719 0.42923 0.24619
 H765 H 0.58439 0.44736 0.18711
 H766 H 0.56872 0.41894 0.17172
 C767 C 0.01495 0.84363 0.66886
 C768 C 0.00323 0.82911 0.68010
 C769 C -0.00136 0.81065 0.67155
 C770 C 0.00599 0.80604 0.65152
 C771 C 0.01734 0.82108 0.64030
 C772 C 0.02177 0.83942 0.64880
 C773 C 0.02045 0.86298 0.67783
 N774 N 0.03123 0.87696 0.66630
 N775 N 0.03709 0.89399 0.67432
 C776 C 0.03242 0.89786 0.69425
 N777 N 0.02142 0.88401 0.70580
 N778 N 0.01554 0.86692 0.69775
 C779 C 0.04030 0.91624 0.70327
 C780 C 0.03529 0.92103 0.72372
 C781 C 0.04417 0.93756 0.73242
 C782 C 0.05836 0.94939 0.72088
 C783 C 0.06281 0.94503 0.70030
 C784 C 0.05384 0.92873 0.69157
 H785 H -0.00249 0.83202 0.69554
 H786 H -0.01085 0.80045 0.68084
 H787 H 0.02288 0.81858 0.62470
 H788 H 0.03072 0.85026 0.63956
 H789 H 0.02485 0.91177 0.73311
 H790 H 0.04056 0.94063 0.74835
 H791 H 0.07350 0.95412 0.69101
 H792 H 0.05800 0.92563 0.67576
 C793 C 0.95718 0.70096 0.66699
 C794 C 0.95445 0.71990 0.67610
 C795 C 0.96478 0.73700 0.66809
 C796 C 0.97794 0.73575 0.65049
 C797 C 0.98087 0.71655 0.64168
 C798 C 0.97069 0.69945 0.64985
 C799 C 0.94580 0.68295 0.67507
 N800 N 0.95042 0.66409 0.66808
 N801 N 0.93991 0.64796 0.67494
 C802 C 0.92425 0.65000 0.68903
 N803 N 0.91965 0.66886 0.69607
 N804 N 0.93022 0.68498 0.68926
 C805 C 0.91222 0.63211 0.69624
 C806 C 0.89404 0.63468 0.70809
 C807 C 0.88241 0.61785 0.71434
 C808 C 0.88879 0.59806 0.70903
 C809 C 0.90708 0.59545 0.69741
 C810 C 0.91863 0.61229 0.69102
 H811 H 0.94417 0.72160 0.68937
 H812 H 0.96161 0.75135 0.67531
 H813 H 0.99151 0.71422 0.62886
 H814 H 0.97336 0.68504 0.64257
 H815 H 0.88864 0.64973 0.71238
 H816 H 0.86847 0.62029 0.72346
 H817 H 0.91227 0.58041 0.69291
 H818 H 0.93256 0.60974 0.68194
 C819 C 0.46618 0.19336 0.15609
 C820 C 0.45867 0.20401 0.13876
 C821 C 0.46699 0.22240 0.13161
 C822 C 0.48309 0.23065 0.14155
 C823 C 0.49050 0.22026 0.15906
 C824 C 0.48214 0.20175 0.16625
 C825 C 0.45723 0.17369 0.16330
 N826 N 0.46371 0.16326 0.18034
 N827 N 0.45538 0.14567 0.18671
 C828 C 0.44026 0.13779 0.17628
 N829 N 0.43389 0.14820 0.15923
 N830 N 0.44219 0.16574 0.15289
 C831 C 0.43047 0.11853 0.18346
 C832 C 0.41447 0.11109 0.17266
 C833 C 0.40448 0.09353 0.17975
 C834 C 0.41021 0.08293 0.19780
 C835 C 0.42655 0.08998 0.20837
 C836 C 0.43655 0.10765 0.20129
 H837 H 0.44627 0.19817 0.13063
 H838 H 0.46057 0.23027 0.11840
 H839 H 0.50296 0.22627 0.16696
 H840 H 0.48826 0.19397 0.17967
 H841 H 0.40945 0.11895 0.15879
 H842 H 0.39217 0.08826 0.17109
 H843 H 0.43121 0.08217 0.22240
 H844 H 0.44884 0.11292 0.20995
 C845 C 0.33079 0.45333 -0.15945
 C846 C 0.33599 0.44246 -0.17710
 C847 C 0.34696 0.45171 -0.19364
 C848 C 0.35340 0.47193 -0.19285
 C849 C 0.34713 0.48309 -0.17559
 C850 C 0.33623 0.47383 -0.15905
 C851 C 0.31982 0.44338 -0.14156
 N852 N 0.31629 0.45337 -0.12390
 N853 N 0.30675 0.44433 -0.10769
 C854 C 0.30032 0.42491 -0.10844
 N855 N 0.30380 0.41494 -0.12611
 N856 N 0.31337 0.42397 -0.14231
 C857 C 0.28980 0.41478 -0.09036
 C858 C 0.28189 0.39525 -0.09173
 C859 C 0.27194 0.38567 -0.07476
 C860 C 0.26972 0.39536 -0.05599
 C861 C 0.27773 0.41482 -0.05453
 C862 C 0.28761 0.42446 -0.07155
 H863 H 0.33170 0.42675 -0.17812
 H864 H 0.35048 0.44294 -0.20706
 H865 H 0.35029 0.49907 -0.17473
 H866 H 0.33199 0.48285 -0.14594
 H867 H 0.28334 0.38731 -0.10594
 H868 H 0.26619 0.37054 -0.07626
 H869 H 0.27610 0.42270 -0.04030
 H870 H 0.29354 0.43949 -0.06995
 C871 C 0.83642 0.95798 0.34323
 C872 C 0.82600 0.96201 0.32514
 C873 C 0.83636 0.96874 0.30706
 C874 C 0.85740 0.97209 0.30666
 C875 C 0.86778 0.96781 0.32480
 C876 C 0.85744 0.96100 0.34285
 C877 C 0.82559 0.94984 0.36211
 N878 N 0.83601 0.94354 0.37882
 N879 N 0.82638 0.93552 0.39551
 C880 C 0.80591 0.93350 0.39625
 N881 N 0.79546 0.93996 0.37961
 N882 N 0.80510 0.94794 0.36290
 C883 C 0.79529 0.92382 0.41452
 C884 C 0.77398 0.92294 0.41581
 C885 C 0.76405 0.91299 0.43260
 C886 C 0.77518 0.90363 0.44847
 C887 C 0.79647 0.90482 0.44734
 C888 C 0.80640 0.91482 0.43059
 H889 H 0.80986 0.95948 0.32478
 H890 H 0.82780 0.97060 0.29337
 H891 H 0.88409 0.96936 0.32495
 H892 H 0.86602 0.95783 0.35642
 H893 H 0.76493 0.92982 0.40378
 H894 H 0.74762 0.91264 0.43316
 H895 H 0.80553 0.89752 0.45914
 H896 H 0.82283 0.91514 0.43008
 C897 C 0.84174 0.01621 1.19603
 C898 C 0.83020 0.00482 1.21082
 C899 C 0.83892 -0.00306 1.22869
 C900 C 0.85940 0.00034 1.23238
 C901 C 0.87100 0.01148 1.21739
 C902 C 0.86228 0.01935 1.19949
 C903 C 0.83237 0.02484 1.17721
 N904 N 0.84368 0.03512 1.16246
 N905 N 0.83520 0.04311 1.14569
 C906 C 0.81505 0.04119 1.14294
 N907 N 0.80375 0.03086 1.15767
 N908 N 0.81224 0.02286 1.17443
 C909 C 0.80555 0.05045 1.12446
 C910 C 0.78447 0.04960 1.12225
 C911 C 0.77547 0.05888 1.10510
 C912 C 0.78736 0.06915 1.08974
 C913 C 0.80846 0.06977 1.09181
 C914 C 0.81745 0.06056 1.10897
 H915 H 0.81438 0.00191 1.20859
 H916 H 0.82957 -0.01210 1.23945
 H917 H 0.88677 0.01445 1.21940
 H918 H 0.87166 0.02801 1.18841
 H919 H 0.77484 0.04191 1.13384
 H920 H 0.75921 0.05796 1.10382
 H921 H 0.81800 0.07781 1.08039
 H922 H 0.83372 0.06154 1.11016
 C923 C 0.33315 0.51997 0.70016
 C924 C 0.35293 0.51141 0.69879
 C925 C 0.36246 0.50403 0.71640
 C926 C 0.35232 0.50465 0.73577
 C927 C 0.33250 0.51323 0.73714
 C928 C 0.32307 0.52090 0.71955
 C929 C 0.32323 0.52813 0.68150
 N930 N 0.30690 0.54121 0.68293
 N931 N 0.29826 0.54888 0.66612
 C932 C 0.30549 0.54368 0.64719
 N933 N 0.32172 0.53047 0.64577
 N934 N 0.33044 0.52290 0.66257
 C935 C 0.29619 0.55260 0.62849
 C936 C 0.29992 0.54373 0.60944
 C937 C 0.29154 0.55251 0.59173
 C938 C 0.27943 0.57052 0.59261
 C939 C 0.27566 0.57930 0.61174
 C940 C 0.28381 0.57037 0.62947
 H941 H 0.36118 0.51063 0.68411
 H942 H 0.37774 0.49768 0.71468
 H943 H 0.32437 0.51437 0.75184
 H944 H 0.30783 0.52746 0.72113
 H945 H 0.30926 0.52993 0.60822
 H946 H 0.29449 0.54511 0.57736
 H947 H 0.26680 0.59339 0.61300
 H948 H 0.28078 0.57769 0.64388
 C949 C 0.17463 0.51589 0.34157
 C950 C 0.15644 0.50535 0.34473
 C951 C 0.14539 0.50002 0.32813
 C952 C 0.15245 0.50468 0.30781
 C953 C 0.17081 0.51505 0.30473
 C954 C 0.18178 0.52053 0.32136
 C955 C 0.18536 0.52303 0.35927
 N956 N 0.20071 0.53636 0.35641
 N957 N 0.20946 0.54379 0.37237
 C958 C 0.20328 0.53817 0.39188
 N959 N 0.18813 0.52461 0.39474
 N960 N 0.17934 0.51722 0.37878
 C961 C 0.21203 0.54751 0.40964
 C962 C 0.20667 0.54068 0.42983
 C963 C 0.21371 0.55055 0.44656
 C964 C 0.22612 0.56754 0.44345
 C965 C 0.23195 0.57400 0.42331
 C966 C 0.22506 0.56406 0.40659
 H967 H 0.15032 0.50179 0.36010
 H968 H 0.13099 0.49295 0.33157
 H969 H 0.17644 0.51938 0.28936
 H970 H 0.19569 0.52874 0.31835
 H971 H 0.19672 0.52794 0.43273
 H972 H 0.20887 0.54533 0.46193
 H973 H 0.24173 0.58690 0.42048
 H974 H 0.22955 0.56970 0.39127
 C975 C 0.67426 0.02266 0.84041
 C976 C 0.65616 0.01191 0.84317
 C977 C 0.64523 0.00698 0.82632
 C978 C 0.65234 0.01230 0.80616
 C979 C 0.67053 0.02303 0.80351
 C980 C 0.68138 0.02805 0.82036
 C981 C 0.68503 0.02915 0.85835
 N982 N 0.70066 0.04219 0.85583
 N983 N 0.70961 0.04895 0.87199
 C984 C 0.70336 0.04292 0.89137
 N985 N 0.68791 0.02967 0.89388
 N986 N 0.67892 0.02295 0.87772
 C987 C 0.71243 0.05152 0.90934
 C988 C 0.70715 0.04419 0.92939
 C989 C 0.71455 0.05340 0.94635
 C990 C 0.72723 0.07022 0.94360
 C991 C 0.73300 0.07715 0.92359
 C992 C 0.72575 0.06786 0.90665
 H993 H 0.65005 0.00780 0.85842
 H994 H 0.63091 -0.00036 0.82941
 H995 H 0.67617 0.02791 0.78830
 H996 H 0.69520 0.03647 0.81765
 H997 H 0.69698 0.03158 0.93201
 H998 H 0.70978 0.04783 0.96162
 H999 H 0.74298 0.08992 0.92105
 H1000 H 0.73020 0.07387 0.89145
 C1001 C 0.66589 0.96852 0.69803
 C1002 C 0.67263 0.96225 0.71750
 C1003 C 0.66540 0.97215 0.73500
 C1004 C 0.65124 0.98853 0.73345
 C1005 C 0.64474 0.99504 0.71400
 C1006 C 0.65202 0.98518 0.69647
 C1007 C 0.67295 0.95742 0.67960
 N1008 N 0.66716 0.96381 0.66062
 N1009 N 0.67317 0.95354 0.64415
 C1010 C 0.68520 0.93642 0.64596
 N1011 N 0.69102 0.93007 0.66493
 N1012 N 0.68503 0.94034 0.68138
 C1013 C 0.69170 0.92478 0.62770
 C1014 C 0.70284 0.90624 0.62994
 C1015 C 0.70890 0.89518 0.61281
 C1016 C 0.70404 0.90240 0.59301
 C1017 C 0.69296 0.92094 0.59073
 C1018 C 0.68681 0.93199 0.60788
 H1019 H 0.68330 0.94949 0.71930
 H1020 H 0.67045 0.96656 0.74981
 H1021 H 0.63401 1.00777 0.71233
 H1022 H 0.64656 0.99047 0.68173
 H1023 H 0.70689 0.90023 0.64495
 H1024 H 0.71766 0.88109 0.61503
 H1025 H 0.68883 0.92679 0.57568
 H1026 H 0.67823 0.94618 0.60559
 C1027 C 0.16439 0.46098 0.19938
 C1028 C 0.15076 0.47786 0.19832
 C1029 C 0.14353 0.48718 0.21617
 C1030 C 0.14985 0.47991 0.23545
 C1031 C 0.16376 0.46329 0.23653
 C1032 C 0.17091 0.45389 0.21870
 C1033 C 0.17142 0.45054 0.18053
 N1034 N 0.18279 0.43294 0.18174
 N1035 N 0.18870 0.42328 0.16488
 C1036 C 0.18354 0.43080 0.14606
 N1037 N 0.17225 0.44846 0.14483
 N1038 N 0.16630 0.45811 0.16171
 C1039 C 0.18981 0.41977 0.12735
 C1040 C 0.18603 0.42835 0.10772
 C1041 C 0.19172 0.41775 0.09013
 C1042 C 0.20117 0.39829 0.09181
 C1043 C 0.20502 0.38977 0.11140
 C1044 C 0.19946 0.40039 0.12895
 H1045 H 0.14546 0.48377 0.18371
 H1046 H 0.13304 0.50016 0.21485
 H1047 H 0.16871 0.45719 0.25120
 H1048 H 0.18142 0.44094 0.22010
 H1049 H 0.17863 0.44324 0.10591
 H1050 H 0.18842 0.42462 0.07523
 H1051 H 0.21254 0.37492 0.11315
 H1052 H 0.20264 0.39332 0.14380
 C1053 C -0.16007 0.31429 0.46243
 C1054 C -0.17983 0.31170 0.45600
 C1055 C -0.19603 0.32389 0.46348
 C1056 C -0.19297 0.33910 0.47750
 C1057 C -0.17318 0.34123 0.48434
 C1058 C -0.15703 0.32892 0.47696
 C1059 C -0.14256 0.30263 0.45327
 N1060 N -0.12370 0.30399 0.46056
 N1061 N -0.10774 0.29451 0.45157
 C1062 C -0.10994 0.28331 0.43485
 N1063 N -0.12883 0.28178 0.42768
 N1064 N -0.14480 0.29122 0.43670
 C1065 C -0.09198 0.27379 0.42412
 C1066 C -0.09384 0.26480 0.40518
 C1067 C -0.07672 0.25692 0.39448
 C1068 C -0.05735 0.25775 0.40250
 C1069 C -0.05555 0.26633 0.42165
 C1070 C -0.07266 0.27428 0.43233
 H1071 H -0.18277 0.30050 0.44489
 H1072 H -0.21101 0.32182 0.45786
 H1073 H -0.16965 0.35259 0.49493
 H1074 H -0.14199 0.33134 0.48225
 H1075 H -0.10847 0.26423 0.39836
 H1076 H -0.07861 0.25067 0.37964
 H1077 H -0.04090 0.26690 0.42842
 H1078 H -0.07068 0.28097 0.44694
 C1079 C 0.34738 0.84079 0.95737
 C1080 C 0.33284 0.83029 0.96982
 C1081 C 0.31462 0.84005 0.97629
 C1082 C 0.31016 0.86059 0.97008
 C1083 C 0.32536 0.87116 0.95827
 C1084 C 0.34351 0.86142 0.95192
 C1085 C 0.36639 0.83035 0.94985
 N1086 N 0.38070 0.84088 0.93852
 N1087 N 0.39748 0.83148 0.93114
 C1088 C 0.40071 0.81112 0.93474
 N1089 N 0.38646 0.80058 0.94619
 N1090 N 0.36967 0.80999 0.95360
 C1091 C 0.41902 0.80059 0.92571
 C1092 C 0.42184 0.77931 0.92829
 C1093 C 0.43855 0.76933 0.91877
 C1094 C 0.45283 0.78041 0.90651
 C1095 C 0.45025 0.80173 0.90432
 C1096 C 0.43356 0.81169 0.91380
 H1097 H 0.33555 0.81448 0.97467
 H1098 H 0.30445 0.83128 0.98638
 H1099 H 0.32309 0.88715 0.95380
 H1100 H 0.35447 0.87011 0.94259
 H1101 H 0.41099 0.77028 0.93742
 H1102 H 0.44026 0.75291 0.92095
 H1103 H 0.46083 0.81068 0.89476
 H1104 H 0.43190 0.82809 0.91147
 C1105 C 1.20233 0.84461 0.01558
 C1106 C 1.22105 0.83392 0.01651
 C1107 C 1.23896 0.84291 0.00887
 C1108 C 1.23876 0.86290 -0.00013
 C1109 C 1.21981 0.87353 -0.00095
 C1110 C 1.20194 0.86454 0.00686
 C1111 C 1.18332 0.83499 0.02359
 N1112 N 1.16580 0.84625 0.02603
 N1113 N 1.14876 0.83759 0.03334
 C1114 C 1.14851 0.81728 0.03841
 N1115 N 1.16602 0.80602 0.03589
 N1116 N 1.18306 0.81469 0.02867
 C1117 C 1.12967 0.80764 0.04688
 C1118 C 1.12863 0.78628 0.04907
 C1119 C 1.11119 0.77717 0.05777
 C1120 C 1.09442 0.78918 0.06466
 C1121 C 1.09532 0.81054 0.06211
 C1122 C 1.11272 0.81967 0.05326
 H1123 H 1.22194 0.81860 0.02336
 H1124 H 1.25299 0.83416 0.01063
 H1125 H 1.21820 0.88850 -0.00832
 H1126 H 1.18772 0.87314 0.00569
 H1127 H 1.14132 0.77655 0.04411
 H1128 H 1.11088 0.76067 0.05912
 H1129 H 1.08281 0.82027 0.06749
 H1130 H 1.11303 0.83617 0.05185
 C1131 C 0.69644 0.33013 0.51933
 C1132 C 0.71478 0.32034 0.52484
 C1133 C 0.73343 0.32818 0.51778
 C1134 C 0.73418 0.34589 0.50486
 C1135 C 0.71584 0.35566 0.49933
 C1136 C 0.69718 0.34793 0.50657
 C1137 C 0.67669 0.32179 0.52687
 N1138 N 0.65920 0.33318 0.52543
 N1139 N 0.64150 0.32575 0.53248
 C1140 C 0.64052 0.30657 0.54114
 N1141 N 0.65799 0.29515 0.54246
 N1142 N 0.67569 0.30261 0.53551
 C1143 C 0.62095 0.29844 0.54952
 C1144 C 0.61931 0.27758 0.55501
 C1145 C 0.60122 0.27005 0.56394
 C1146 C 0.58437 0.28322 0.56780
 C1147 C 0.58586 0.30402 0.56182
 C1148 C 0.60391 0.31152 0.55271
 H1149 H 0.71476 0.30669 0.53480
 H1150 H 0.74724 0.32044 0.52263
 H1151 H 0.71579 0.36904 0.48904
 H1152 H 0.68333 0.35575 0.50191
 H1153 H 0.63207 0.26704 0.55253
 H1154 H 0.60049 0.25389 0.56793
 H1155 H 0.57330 0.31466 0.56480
 H1156 H 0.60468 0.32768 0.54870
 C1157 C 0.33148 0.17377 0.52498
 C1158 C 0.33204 0.16698 0.50487
 C1159 C 0.31635 0.15530 0.49829
 C1160 C 0.29987 0.14988 0.51177
 C1161 C 0.29844 0.15857 0.53115
 C1162 C 0.31419 0.17001 0.53780
 C1163 C 0.34919 0.18366 0.53303
 N1164 N 0.35132 0.18407 0.55357
 N1165 N 0.36780 0.19168 0.56104
 C1166 C 0.38284 0.19929 0.54829
 N1167 N 0.38064 0.19916 0.52771
 N1168 N 0.36418 0.19139 0.52023
 C1169 C 0.40141 0.20701 0.55683
 C1170 C 0.41386 0.22085 0.54550
 C1171 C 0.43103 0.22847 0.55412
 C1172 C 0.43622 0.22216 0.57414
 C1173 C 0.42403 0.20781 0.58512
 C1174 C 0.40677 0.20050 0.57666
 H1175 H 0.34491 0.17009 0.49442
 H1176 H 0.31741 0.15042 0.48268
 H1177 H 0.28535 0.15610 0.54147
 H1178 H 0.31297 0.17563 0.55317
 H1179 H 0.41006 0.22615 0.53018
 H1180 H 0.43993 0.23963 0.54528
 H1181 H 0.42784 0.20210 0.60030
 H1182 H 0.39770 0.18957 0.58565
 C1183 C 0.84957 0.66628 0.01488
 C1184 C 0.84591 0.64531 0.01724
 C1185 C 0.82709 0.63780 0.01286
 C1186 C 0.81131 0.65096 0.00598
 C1187 C 0.81515 0.67196 0.00326
 C1188 C 0.83407 0.67947 0.00758
 C1189 C 0.86907 0.67437 0.02099
 N1190 N 0.87334 0.69443 0.01772
 N1191 N 0.89040 0.70181 0.02426
 C1192 C 0.90388 0.68946 0.03438
 N1193 N 0.89970 0.66938 0.03744
 N1194 N 0.88269 0.66200 0.03087
 C1195 C 0.92217 0.69784 0.04296
 C1196 C 0.93357 0.68592 0.05696
 C1197 C 0.94982 0.69420 0.06641
 C1198 C 0.95518 0.71452 0.06194
 C1199 C 0.94434 0.72625 0.04737
 C1200 C 0.92790 0.71803 0.03806
 H1201 H 0.85749 0.63467 0.02279
 H1202 H 0.82466 0.62158 0.01523
 H1203 H 0.80368 0.68289 -0.00171
 H1204 H 0.83635 0.69574 0.00567
 H1205 H 0.92964 0.67032 0.06109
 H1206 H 0.95810 0.68477 0.07741
 H1207 H 0.94812 0.74199 0.04375
 H1208 H 0.91949 0.72759 0.02728
 C1209 C 0.70260 0.67295 0.96460
 C1210 C 0.72215 0.67834 0.95710
 C1211 C 0.73942 0.67023 0.96651
 C1212 C 0.73750 0.65650 0.98356
 C1213 C 0.71800 0.65144 0.99132
 C1214 C 0.70074 0.65960 0.98199
 C1215 C 0.68428 0.68069 0.95403
 N1216 N 0.66538 0.67617 0.96175
 N1217 N 0.64894 0.68260 0.95196
 C1218 C 0.65068 0.69378 0.93399
 N1219 N 0.66958 0.69836 0.92631
 N1220 N 0.68603 0.69196 0.93612
 C1221 C 0.63236 0.70055 0.92288
 C1222 C 0.63423 0.71071 0.90350
 C1223 C 0.61697 0.71682 0.89292
 C1224 C 0.59744 0.71300 0.90150
 C1225 C 0.59555 0.70292 0.92089
 C1226 C 0.61281 0.69674 0.93145
 H1227 H 0.72415 0.68859 0.94376
 H1228 H 0.75427 0.67419 0.96003
 H1229 H 0.71608 0.64109 1.00461
 H1230 H 0.68594 0.65518 0.98825
 H1231 H 0.64905 0.71392 0.89644
 H1232 H 0.61889 0.72478 0.87811
 H1233 H 0.58071 0.69955 0.92779
 H1234 H 0.61078 0.68891 0.94632
 C1235 C 0.19371 0.15651 0.46596
 C1236 C 0.20029 0.13609 0.46422
 C1237 C 0.21811 0.12884 0.47304
 C1238 C 0.23012 0.14178 0.48376
 C1239 C 0.22315 0.16215 0.48601
 C1240 C 0.20520 0.16942 0.47720
 C1241 C 0.17520 0.16415 0.45566
 N1242 N 0.16744 0.18332 0.45846
 N1243 N 0.15104 0.19013 0.44874
 C1244 C 0.14179 0.17809 0.43578
 N1245 N 0.14955 0.15894 0.43305
 N1246 N 0.16586 0.15213 0.44279
 C1247 C 0.12387 0.18565 0.42449
 C1248 C 0.11660 0.17426 0.40876
 C1249 C 0.09999 0.18140 0.39775
 C1250 C 0.09013 0.20005 0.40228
 C1251 C 0.09717 0.21136 0.41816
 C1252 C 0.11394 0.20429 0.42909
 H1253 H 0.19174 0.12561 0.45587
 H1254 H 0.22234 0.11308 0.47100
 H1255 H 0.23140 0.17258 0.49466
 H1256 H 0.20045 0.18521 0.47902
 H1257 H 0.12385 0.15984 0.40479
 H1258 H 0.09473 0.17224 0.38576
 H1259 H 0.08992 0.22586 0.42186
 H1260 H 0.11913 0.21343 0.44113
 C1261 C 0.58838 0.07619 0.73267
 C1262 C 0.60376 0.07904 0.74630
 C1263 C 0.61388 0.06237 0.75561
 C1264 C 0.60895 0.04212 0.75172
 C1265 C 0.59350 0.03938 0.73786
 C1266 C 0.58340 0.05616 0.72851
 C1267 C 0.57784 0.09410 0.72282
 N1268 N 0.56414 0.09175 0.70823
 N1269 N 0.55505 0.10796 0.69918
 C1270 C 0.55923 0.12719 0.70436
 N1271 N 0.57281 0.12951 0.71903
 N1272 N 0.58191 0.11332 0.72805
 C1273 C 0.54974 0.14532 0.69379
 C1274 C 0.55387 0.16514 0.69957
 C1275 C 0.54591 0.18226 0.68887
 C1276 C 0.53369 0.17998 0.67211
 C1277 C 0.52912 0.16019 0.66666
 C1278 C 0.53702 0.14305 0.67739
 H1279 H 0.60822 0.09424 0.74969
 H1280 H 0.62607 0.06571 0.76533
 H1281 H 0.58842 0.02441 0.73461
 H1282 H 0.57151 0.05341 0.71815
 H1283 H 0.56356 0.16747 0.71215
 H1284 H 0.54987 0.19730 0.69331
 H1285 H 0.51950 0.15795 0.65399
 H1286 H 0.53343 0.12804 0.67259
 C1287 C 1.09449 0.57096 0.23003
 C1288 C 1.08503 0.55199 0.23029
 C1289 C 1.09329 0.53496 0.24101
 C1290 C 1.11121 0.53655 0.25162
 C1291 C 1.12082 0.55544 0.25100
 C1292 C 1.11252 0.57241 0.24045
 C1293 C 1.08577 0.58922 0.21907
 N1294 N 1.09308 0.60801 0.22181
 N1295 N 1.08552 0.62449 0.21190
 C1296 C 1.07034 0.62293 0.19875
 N1297 N 1.06297 0.60414 0.19601
 N1298 N 1.07049 0.58764 0.20600
 C1299 C 1.06235 0.64130 0.18739
 C1300 C 1.04927 0.63945 0.17121
 C1301 C 1.04244 0.65678 0.16000
 C1302 C 1.04840 0.67633 0.16483
 C1303 C 1.06114 0.67823 0.18124
 C1304 C 1.06811 0.66091 0.19234
 H1305 H 1.07109 0.55036 0.22243
 H1306 H 1.08541 0.52071 0.24133
 H1307 H 1.13494 0.55713 0.25849
 H1308 H 1.12038 0.58668 0.24037
 H1309 H 1.04452 0.62460 0.16700
 H1310 H 1.03243 0.65489 0.14757
 H1311 H 1.06612 0.69309 0.18518
 H1312 H 1.07812 0.66291 0.20474
 C1313 C 0.92376 0.91733 0.22747
 C1314 C 0.90731 0.91291 0.24117
 C1315 C 0.89698 0.92838 0.25172
 C1316 C 0.90264 0.94895 0.24891
 C1317 C 0.91919 0.95330 0.23503
 C1318 C 0.92963 0.93770 0.22456
 C1319 C 0.93448 0.90066 0.21631
 N1320 N 0.95172 0.90409 0.20458
 N1321 N 0.96117 0.88897 0.19458
 C1322 C 0.95375 0.86982 0.19586
 N1323 N 0.93654 0.86643 0.20759
 N1324 N 0.92714 0.88150 0.21760
 C1325 C 0.96392 0.85295 0.18454
 C1326 C 0.95452 0.83404 0.18385
 C1327 C 0.96372 0.81821 0.17286
 C1328 C 0.98261 0.82082 0.16238
 C1329 C 0.99222 0.83958 0.16330
 C1330 C 0.98293 0.85552 0.17419
 H1331 H 0.90225 0.89742 0.24374
 H1332 H 0.88402 0.92399 0.26148
 H1333 H 0.92482 0.96856 0.23265
 H1334 H 0.94233 0.94163 0.21417
 H1335 H 0.93991 0.83147 0.19165
 H1336 H 0.95608 0.80383 0.17264
 H1337 H 1.00672 0.84206 0.15523
 H1338 H 0.99061 0.86986 0.17444
 C1339 C 0.42645 0.43337 0.72565
 C1340 C 0.43406 0.43927 0.74421
 C1341 C 0.42334 0.45368 0.75603
 C1342 C 0.40515 0.46269 0.74923
 C1343 C 0.39796 0.45741 0.73040
 C1344 C 0.40849 0.44289 0.71871
 C1345 C 0.43619 0.41636 0.71428
 N1346 N 0.42543 0.40633 0.70084
 N1347 N 0.43358 0.39032 0.69132
 C1348 C 0.45289 0.38370 0.69474
 N1349 N 0.46379 0.39385 0.70800
 N1350 N 0.45557 0.40981 0.71766
 C1351 C 0.46150 0.36549 0.68450
 C1352 C 0.48260 0.36216 0.68187
 C1353 C 0.49047 0.34511 0.67165
 C1354 C 0.47738 0.33088 0.66413
 C1355 C 0.45628 0.33407 0.66729
 C1356 C 0.44846 0.35122 0.67716
 H1357 H 0.44778 0.43212 0.75003
 H1358 H 0.42891 0.45740 0.77072
 H1359 H 0.38360 0.46365 0.72527
 H1360 H 0.40221 0.43869 0.70450
 H1361 H 0.49301 0.37295 0.68732
 H1362 H 0.50678 0.34332 0.66931
 H1363 H 0.44571 0.32321 0.66228
 H1364 H 0.43213 0.35318 0.67923
 C1365 C 0.41846 0.56531 0.78264
 C1366 C 0.42703 0.55020 0.76994
 C1367 C 0.41673 0.53213 0.76739
 C1368 C 0.39783 0.52886 0.77765
 C1369 C 0.38898 0.54430 0.78961
 C1370 C 0.39913 0.56227 0.79207
 C1371 C 0.42972 0.58373 0.78713
 N1372 N 0.42190 0.59666 0.80131
 N1373 N 0.43218 0.61265 0.80643
 C1374 C 0.45076 0.61651 0.79757
 N1375 N 0.45857 0.60375 0.78316
 N1376 N 0.44827 0.58764 0.77806
 C1377 C 0.46235 0.63385 0.80427
 C1378 C 0.47970 0.64082 0.79303
 C1379 C 0.49051 0.65714 0.79983
 C1380 C 0.48432 0.66649 0.81813
 C1381 C 0.46699 0.65954 0.82926
 C1382 C 0.45610 0.64350 0.82239
 H1383 H 0.44187 0.55211 0.76240
 H1384 H 0.42383 0.52044 0.75805
 H1385 H 0.37419 0.54241 0.79728
 H1386 H 0.39189 0.57362 0.80173
 H1387 H 0.48487 0.63374 0.77899
 H1388 H 0.50386 0.66224 0.79100
 H1389 H 0.46172 0.66668 0.84325
 H1390 H 0.44284 0.63855 0.83146
 C1391 C -0.05950 0.04543 0.27390
 C1392 C -0.05903 0.02882 0.28827
 C1393 C -0.07245 0.01286 0.28723
 C1394 C -0.08640 0.01299 0.27164
 C1395 C -0.08626 0.02901 0.25670
 C1396 C -0.07300 0.04514 0.25785
 C1397 C -0.04713 0.06355 0.27665
 N1398 N -0.05102 0.08152 0.26621
 N1399 N -0.04120 0.09829 0.27012
 C1400 C -0.02701 0.09777 0.28460
 N1401 N -0.02286 0.07971 0.29474
 N1402 N -0.03272 0.06298 0.29088
 C1403 C -0.01746 0.11673 0.29050
 C1404 C -0.00230 0.11579 0.30499
 C1405 C 0.00500 0.13363 0.31251
 C1406 C -0.00270 0.15287 0.30579
 C1407 C -0.01707 0.15389 0.29051
 C1408 C -0.02437 0.13600 0.28293
 H1409 H -0.04885 0.02851 0.30083
 H1410 H -0.07228 0.00061 0.29891
 H1411 H -0.09712 0.02965 0.24480
 H1412 H -0.07375 0.05767 0.24653
 H1413 H 0.00356 0.10124 0.31099
 H1414 H 0.01639 0.13236 0.32396
 H1415 H -0.02337 0.16848 0.28510
 H1416 H -0.03601 0.13730 0.27174
 C1417 C 0.07167 0.43330 0.27928
 C1418 C 0.08398 0.43741 0.26148
 C1419 C 0.09579 0.45486 0.25975
 C1420 C 0.09553 0.46842 0.27582
 C1421 C 0.08217 0.46508 0.29290
 C1422 C 0.07033 0.44777 0.29460
 C1423 C 0.06199 0.41325 0.28303
 N1424 N 0.05324 0.40831 0.30174
 N1425 N 0.04661 0.38961 0.30617
 C1426 C 0.04837 0.37499 0.29207
 N1427 N 0.05666 0.38000 0.27315
 N1428 N 0.06340 0.39875 0.26874
 C1429 C 0.04295 0.35370 0.29797
 C1430 C 0.04014 0.33924 0.28312
 C1431 C 0.03625 0.31887 0.28909
 C1432 C 0.03558 0.31263 0.30994
 C1433 C 0.03808 0.32710 0.32472
 C1434 C 0.04155 0.34742 0.31883
 H1435 H 0.08531 0.42664 0.24936
 H1436 H 0.10607 0.45702 0.24647
 H1437 H 0.08151 0.47547 0.30537
 H1438 H 0.06083 0.44529 0.30840
 H1439 H 0.04109 0.34365 0.26694
 H1440 H 0.03432 0.30789 0.27748
 H1441 H 0.03744 0.32262 0.34090
 H1442 H 0.04372 0.35810 0.33067
 C1443 C 0.57637 0.93763 0.77236
 C1444 C 0.58983 0.94281 0.75575
 C1445 C 0.60060 0.96087 0.75548
 C1446 C 0.59831 0.97390 0.77196
 C1447 C 0.58420 0.96923 0.78810
 C1448 C 0.57319 0.95136 0.78821
 C1449 C 0.56716 0.91727 0.77417
 N1450 N 0.55162 0.91344 0.78804
 N1451 N 0.54476 0.89462 0.79123
 C1452 C 0.55323 0.87881 0.78077
 N1453 N 0.56854 0.88270 0.76664
 N1454 N 0.57533 0.90155 0.76337
 C1455 C 0.54715 0.85760 0.78610
 C1456 C 0.55987 0.84096 0.78051
 C1457 C 0.55555 0.82117 0.78796
 C1458 C 0.53830 0.81760 0.80090
 C1459 C 0.52501 0.83406 0.80557
 C1460 C 0.52943 0.85387 0.79833
 H1461 H 0.59253 0.93259 0.74327
 H1462 H 0.61154 0.96403 0.74295
 H1463 H 0.58216 0.97912 0.80093
 H1464 H 0.56295 0.94783 0.80124
 H1465 H 0.57363 0.84331 0.77112
 H1466 H 0.56596 0.80871 0.78401
 H1467 H 0.51170 0.83178 0.81567
 H1468 H 0.51927 0.86633 0.80284
 C1469 C 0.73035 0.59683 0.07392
 C1470 C 0.72974 0.58817 0.05463
 C1471 C 0.74041 0.59683 0.03752
 C1472 C 0.75188 0.61430 0.03935
 C1473 C 0.75223 0.62310 0.05857
 C1474 C 0.74165 0.61445 0.07563
 C1475 C 0.71944 0.58757 0.09224
 N1476 N 0.72151 0.59503 0.11108
 N1477 N 0.71182 0.58677 0.12760
 C1478 C 0.69959 0.57067 0.12601
 N1479 N 0.69750 0.56319 0.10717
 N1480 N 0.70723 0.57144 0.09064
 C1481 C 0.68868 0.56162 0.14444
 C1482 C 0.67468 0.54612 0.14261
 C1483 C 0.66413 0.53789 0.15996
 C1484 C 0.66740 0.54490 0.17953
 C1485 C 0.68156 0.56022 0.18141
 C1486 C 0.69204 0.56852 0.16406
 H1487 H 0.72121 0.57458 0.05277
 H1488 H 0.74000 0.58957 0.02299
 H1489 H 0.76053 0.63684 0.06043
 H1490 H 0.74232 0.62166 0.09017
 H1491 H 0.67175 0.54040 0.12777
 H1492 H 0.65351 0.52591 0.15806
 H1493 H 0.68425 0.56606 0.19626
 H1494 H 0.70272 0.58042 0.16605
 C1495 C 0.22590 1.07796 0.56728
 C1496 C 0.21618 1.08720 0.55038
 C1497 C 0.22751 1.09646 0.53410
 C1498 C 0.24877 1.09683 0.53449
 C1499 C 0.25855 1.08688 0.55093
 C1500 C 0.24725 1.07744 0.56711
 C1501 C 0.21387 1.07006 0.58550
 N1502 N 0.22297 1.05912 0.60086
 N1503 N 0.21235 1.05311 0.61779
 C1504 C 0.19221 1.05790 0.62014
 N1505 N 0.18308 1.06869 0.60472
 N1506 N 0.19367 1.07463 0.58776
 C1507 C 0.18054 1.05203 0.63934
 C1508 C 0.16109 1.06066 0.64348
 C1509 C 0.15019 1.05551 0.66172
 C1510 C 0.15837 1.04143 0.67621
 C1511 C 0.17783 1.03278 0.67205
 C1512 C 0.18882 1.03807 0.65386
 H1513 H 0.19976 1.08775 0.54996
 H1514 H 0.21957 1.10418 0.52170
 H1515 H 0.27496 1.08675 0.55148
 H1516 H 0.25524 1.07039 0.57982
 H1517 H 0.15434 1.07163 0.63274
 H1518 H 0.13543 1.06278 0.66457
 H1519 H 0.18447 1.02166 0.68271
 H1520 H 0.20374 1.03109 0.65111
 C1521 C 0.22958 0.92637 0.91870
 C1522 C 0.24261 0.90987 0.91369
 C1523 C 0.25390 0.89956 0.92859
 C1524 C 0.25260 0.90530 0.94920
 C1525 C 0.23934 0.92186 0.95421
 C1526 C 0.22807 0.93229 0.93913
 C1527 C 0.21766 0.93701 0.90251
 N1528 N 0.20614 0.95410 0.90630
 N1529 N 0.19546 0.96339 0.89153
 C1530 C 0.19585 0.95595 0.87240
 N1531 N 0.20739 0.93891 0.86868
 N1532 N 0.21806 0.92968 0.88338
 C1533 C 0.18374 0.96578 0.85591
 C1534 C 0.18236 0.95614 0.83724
 C1535 C 0.17059 0.96485 0.82178
 C1536 C 0.15997 0.98348 0.82451
 C1537 C 0.16162 0.99341 0.84296
 C1538 C 0.17333 0.98459 0.85858
 H1539 H 0.24408 0.90473 0.89815
 H1540 H 0.26301 0.88652 0.92375
 H1541 H 0.23806 0.92752 0.96951
 H1542 H 0.21820 0.94502 0.94350
 H1543 H 0.19020 0.94169 0.83458
 H1544 H 0.16982 0.95701 0.80759
 H1545 H 0.15350 1.00775 0.84548
 H1546 H 0.17413 0.99244 0.87275
 C1547 C 0.73303 0.41014 0.42042
 C1548 C 0.73392 0.41847 0.43984
 C1549 C 0.74399 0.40781 0.45563
 C1550 C 0.75344 0.38870 0.45225
 C1551 C 0.75234 0.38032 0.43292
 C1552 C 0.74230 0.39089 0.41722
 C1553 C 0.72255 0.42123 0.40347
 N1554 N 0.72182 0.41281 0.38491
 N1555 N 0.71240 0.42253 0.36960
 C1556 C 0.70329 0.44115 0.37213
 N1557 N 0.70404 0.44964 0.39069
 N1558 N 0.71348 0.43989 0.40604
 C1559 C 0.69248 0.45164 0.35506
 C1560 C 0.68296 0.47093 0.35740
 C1561 C 0.67223 0.48038 0.34140
 C1562 C 0.67076 0.47069 0.32277
 C1563 C 0.68057 0.45159 0.32033
 C1564 C 0.69131 0.44219 0.33625
 H1565 H 0.72692 0.43325 0.44284
 H1566 H 0.74470 0.41471 0.47033
 H1567 H 0.75904 0.36540 0.42995
 H1568 H 0.74182 0.38389 0.40255
 H1569 H 0.68357 0.47865 0.37166
 H1570 H 0.66467 0.49502 0.34378
 H1571 H 0.67997 0.44389 0.30604
 H1572 H 0.69854 0.42740 0.33383
 C1573 C 0.77888 0.42599 0.54965
 C1574 C 0.76136 0.41446 0.54827
 C1575 C 0.76002 0.40073 0.53257
 C1576 C 0.77626 0.39816 0.51815
 C1577 C 0.79338 0.41023 0.51906
 C1578 C 0.79465 0.42403 0.53455
 C1579 C 0.78142 0.43914 0.56722
 N1580 N 0.79824 0.45049 0.56793
 N1581 N 0.80143 0.46123 0.58423
 C1582 C 0.78797 0.46110 0.60060
 N1583 N 0.77097 0.44997 0.59983
 N1584 N 0.76776 0.43920 0.58347
 C1585 C 0.79241 0.47209 0.61920
 C1586 C 0.77866 0.47233 0.63632
 C1587 C 0.78360 0.48183 0.65417
 C1588 C 0.80239 0.49127 0.65527
 C1589 C 0.81595 0.49121 0.63802
 C1590 C 0.81101 0.48184 0.62023
 H1591 H 0.74891 0.41566 0.55959
 H1592 H 0.74669 0.39152 0.53223
 H1593 H 0.80598 0.40874 0.50792
 H1594 H 0.80832 0.43273 0.53499
 H1595 H 0.76418 0.46501 0.63604
 H1596 H 0.77272 0.48177 0.66711
 H1597 H 0.83073 0.49793 0.63842
 H1598 H 0.82204 0.48189 0.60742
 C1599 C 0.28129 -0.05973 0.04456
 C1600 C 0.26280 -0.06878 0.04105
 C1601 C 0.26122 -0.08152 0.02456
 C1602 C 0.27834 -0.08601 0.01155
 C1603 C 0.29664 -0.07634 0.01489
 C1604 C 0.29801 -0.06326 0.03099
 C1605 C 0.28378 -0.04769 0.06287
 N1606 N 0.29941 -0.03474 0.06332
 N1607 N 0.30308 -0.02539 0.08037
 C1608 C 0.29136 -0.02866 0.09778
 N1609 N 0.27548 -0.04136 0.09727
 N1610 N 0.27172 -0.05064 0.08013
 C1611 C 0.29711 -0.01997 0.11721
 C1612 C 0.28893 -0.02738 0.13629
 C1613 C 0.29671 -0.02127 0.15459
 C1614 C 0.31280 -0.00764 0.15411
 C1615 C 0.32003 0.00072 0.13509
 C1616 C 0.31231 -0.00538 0.11688
 H1617 H 0.24964 -0.06630 0.05129
 H1618 H 0.24691 -0.08884 0.02306
 H1619 H 0.31002 -0.07861 0.00492
 H1620 H 0.31248 -0.05645 0.03319
 H1621 H 0.27719 -0.03863 0.13708
 H1622 H 0.29087 -0.02799 0.16903
 H1623 H 0.33210 0.01162 0.13428
 H1624 H 0.31876 0.00089 0.10249
 C1625 C 0.28699 0.06933 0.43276
 C1626 C 0.26772 0.07860 0.43633
 C1627 C 0.26374 0.09033 0.45350
 C1628 C 0.27887 0.09300 0.46749
 C1629 C 0.29776 0.08279 0.46453
 C1630 C 0.30179 0.07112 0.44736
 C1631 C 0.29221 0.05937 0.41319
 N1632 N 0.31179 0.05396 0.40816
 N1633 N 0.31694 0.04683 0.38982
 C1634 C 0.30273 0.04474 0.37571
 N1635 N 0.28305 0.04975 0.38085
 N1636 N 0.27791 0.05696 0.39920
 C1637 C 0.30890 0.03859 0.35471
 C1638 C 0.29441 0.03326 0.34085
 C1639 C 0.30038 0.02879 0.32063
 C1640 C 0.32087 0.02996 0.31389
 C1641 C 0.33534 0.03487 0.32784
 C1642 C 0.32946 0.03902 0.34803
 H1643 H 0.25595 0.07756 0.42541
 H1644 H 0.24919 0.09816 0.45515
 H1645 H 0.30963 0.08421 0.47527
 H1646 H 0.31673 0.06399 0.44524
 H1647 H 0.27846 0.03273 0.34556
 H1648 H 0.28898 0.02499 0.31011
 H1649 H 0.35128 0.03557 0.32306
 H1650 H 0.34102 0.04307 0.35825
 C1651 C 0.76912 0.57794 0.93413
 C1652 C 0.75346 0.59193 0.93969
 C1653 C 0.75457 0.60309 0.95733
 C1654 C 0.77146 0.60063 0.96964
 C1655 C 0.78664 0.58598 0.96465
 C1656 C 0.78543 0.57464 0.94715
 C1657 C 0.76940 0.56824 0.91404
 N1658 N 0.78295 0.55285 0.90965
 N1659 N 0.78461 0.54554 0.89093
 C1660 C 0.77287 0.55336 0.87576
 N1661 N 0.75907 0.56850 0.88024
 N1662 N 0.75734 0.57575 0.89900
 C1663 C 0.77643 0.54686 0.85441
 C1664 C 0.76899 0.55888 0.83788
 C1665 C 0.77479 0.55441 0.81767
 C1666 C 0.78792 0.53768 0.81357
 C1667 C 0.79439 0.52496 0.83002
 C1668 C 0.78878 0.52955 0.85023
 H1669 H 0.74065 0.59476 0.93005
 H1670 H 0.74274 0.61443 0.96067
 H1671 H 0.79975 0.58372 0.97400
 H1672 H 0.79774 0.56396 0.94335
 H1673 H 0.75942 0.57231 0.84055
 H1674 H 0.76948 0.56437 0.80525
 H1675 H 0.80467 0.51206 0.82731
 H1676 H 0.79469 0.51991 0.86260
 C1677 C 0.06744 0.72684 0.59413
 C1678 C 0.04783 0.72507 0.58692
 C1679 C 0.03115 0.73552 0.59612
 C1680 C 0.03366 0.74812 0.61278
 C1681 C 0.05337 0.74921 0.62020
 C1682 C 0.06989 0.73884 0.61102
 C1683 C 0.08545 0.71658 0.58419
 N1684 N 0.10438 0.72042 0.59014
 N1685 N 0.12072 0.71142 0.58140
 C1686 C 0.11890 0.69814 0.56628
 N1687 N 0.09996 0.69427 0.56025
 N1688 N 0.08357 0.70334 0.56900
 C1689 C 0.13726 0.68793 0.55696
 C1690 C 0.13563 0.67262 0.54276
 C1691 C 0.15304 0.66249 0.53478
 C1692 C 0.17245 0.66749 0.54074
 C1693 C 0.17408 0.68307 0.55461
 C1694 C 0.15672 0.69314 0.56263
 H1695 H 0.04542 0.71594 0.57388
 H1696 H 0.01662 0.73431 0.58933
 H1697 H 0.05631 0.75761 0.63356
 H1698 H 0.08467 0.74027 0.61731
 H1699 H 0.12091 0.66827 0.53801
 H1700 H 0.15132 0.65070 0.52394
 H1701 H 0.18877 0.68710 0.55973
 H1702 H 0.15859 0.70486 0.57349
 C1703 C 0.56282 0.22869 1.07416
 C1704 C 0.54669 0.21848 1.08460
 C1705 C 0.53056 0.22950 1.09391
 C1706 C 0.53033 0.25092 1.09312
 C1707 C 0.54594 0.26114 1.08191
 C1708 C 0.56197 0.25014 1.07243
 C1709 C 0.58106 0.21712 1.06641
 N1710 N 0.59567 0.22652 1.05441
 N1711 N 0.61268 0.21643 1.04862
 C1712 C 0.61585 0.19655 1.05469
 N1713 N 0.60116 0.18711 1.06653
 N1714 N 0.58412 0.19717 1.07226
 C1715 C 0.63519 0.18560 1.04912
 C1716 C 0.64025 0.16678 1.05899
 C1717 C 0.65872 0.15669 1.05423
 C1718 C 0.67254 0.16505 1.03933
 C1719 C 0.66740 0.18382 1.02936
 C1720 C 0.64899 0.19401 1.03426
 H1721 H 0.54681 0.20197 1.08611
 H1722 H 0.51885 0.22122 1.10263
 H1723 H 0.54600 0.27767 1.08094
 H1724 H 0.57408 0.25849 1.06444
 H1725 H 0.63007 0.15995 1.07066
 H1726 H 0.66230 0.14245 1.06249
 H1727 H 0.67750 0.19054 1.01756
 H1728 H 0.64552 0.20844 1.02629
 C1729 C 0.92202 0.23769 0.93299
 C1730 C 0.93908 0.22755 0.92406
 C1731 C 0.95230 0.23790 0.91018
 C1732 C 0.94874 0.25862 0.90469
 C1733 C 0.93235 0.26905 0.91462
 C1734 C 0.91914 0.25871 0.92855
 C1735 C 0.90670 0.22612 0.94569
 N1736 N 0.89012 0.23574 0.95439
 N1737 N 0.87554 0.22510 0.96434
 C1738 C 0.87690 0.20438 0.96596
 N1739 N 0.89362 0.19480 0.95754
 N1740 N 0.90820 0.20543 0.94764
 C1741 C 0.85994 0.19238 0.97542
 C1742 C 0.85978 0.17114 0.97335
 C1743 C 0.84304 0.15996 0.98057
 C1744 C 0.82615 0.16971 0.99019
 C1745 C 0.82657 0.19080 0.99301
 C1746 C 0.84327 0.20205 0.98560
 H1747 H 0.94194 0.21142 0.92732
 H1748 H 0.96482 0.22929 0.90332
 H1749 H 0.92948 0.28518 0.91146
 H1750 H 0.90633 0.26709 0.93537
 H1751 H 0.87236 0.16316 0.96565
 H1752 H 0.84322 0.14366 0.97847
 H1753 H 0.81370 0.19867 1.00034
 H1754 H 0.84294 0.21837 0.98752
 C1755 C 0.43008 0.72588 0.43936
 C1756 C 0.44560 0.71481 0.42887
 C1757 C 0.45969 0.72483 0.41565
 C1758 C 0.45858 0.74613 0.41253
 C1759 C 0.44384 0.75731 0.42398
 C1760 C 0.42975 0.74731 0.43724
 C1761 C 0.41352 0.71509 0.45111
 N1762 N 0.39797 0.72567 0.46054
 N1763 N 0.38221 0.71600 0.46953
 C1764 C 0.38131 0.69533 0.46944
 N1765 N 0.39701 0.68475 0.46030
 N1766 N 0.41276 0.69441 0.45133
 C1767 C 0.36305 0.68462 0.47791
 C1768 C 0.36110 0.66366 0.47504
 C1769 C 0.34328 0.65381 0.48147
 C1770 C 0.32701 0.66463 0.49102
 C1771 C 0.32917 0.68541 0.49455
 C1772 C 0.34698 0.69534 0.48798
 H1773 H 0.44644 0.69829 0.43024
 H1774 H 0.47071 0.71575 0.40711
 H1775 H 0.44285 0.77380 0.42232
 H1776 H 0.41817 0.75637 0.44525
 H1777 H 0.37316 0.65488 0.46743
 H1778 H 0.34217 0.63770 0.47886
 H1779 H 0.31684 0.69413 0.50182
 H1780 H 0.34799 0.71148 0.49049
 C1781 C 0.56202 0.77482 0.41964
 C1782 C 0.55939 0.78314 0.39971
 C1783 C 0.54131 0.78077 0.38998
 C1784 C 0.52533 0.76997 0.39985
 C1785 C 0.52809 0.76091 0.41945
 C1786 C 0.54627 0.76339 0.42932
 C1787 C 0.58077 0.77904 0.43028
 N1788 N 0.58384 0.77166 0.44972
 N1789 N 0.60027 0.77663 0.45942
 C1790 C 0.61424 0.78921 0.45009
 N1791 N 0.61124 0.79633 0.43061
 N1792 N 0.59491 0.79135 0.42094
 C1793 C 0.63186 0.79607 0.46104
 C1794 C 0.64308 0.81263 0.45277
 C1795 C 0.65899 0.82009 0.46330
 C1796 C 0.66428 0.81110 0.48226
 C1797 C 0.65357 0.79416 0.49036
 C1798 C 0.63735 0.78680 0.47991
 H1799 H 0.57120 0.79185 0.39163
 H1800 H 0.53981 0.78750 0.37466
 H1801 H 0.51599 0.75250 0.42738
 H1802 H 0.54782 0.75673 0.44465
 H1803 H 0.63933 0.82016 0.43830
 H1804 H 0.66720 0.83301 0.45661
 H1805 H 0.65740 0.78700 0.50499
 H1806 H 0.62906 0.77398 0.48664
 C1807 C 0.05175 0.28537 -0.08760
 C1808 C 0.04946 0.29466 -0.10720
 C1809 C 0.03143 0.29305 -0.11729
 C1810 C 0.01520 0.28212 -0.10806
 C1811 C 0.01760 0.27229 -0.08875
 C1812 C 0.03571 0.27393 -0.07858
 C1813 C 0.07049 0.28846 -0.07653
 N1814 N 0.07348 0.27931 -0.05777
 N1815 N 0.08997 0.28306 -0.04759
 C1816 C 0.10408 0.29616 -0.05573
 N1817 N 0.10114 0.30510 -0.07453
 N1818 N 0.08475 0.30132 -0.08470
 C1819 C 0.12184 0.30152 -0.04413
 C1820 C 0.13339 0.31840 -0.05083
 C1821 C 0.14952 0.32435 -0.03964
 C1822 C 0.15467 0.31348 -0.02154
 C1823 C 0.14358 0.29625 -0.01502
 C1824 C 0.12716 0.29040 -0.02615
 H1825 H 0.06153 0.30341 -0.11475
 H1826 H 0.03025 0.30036 -0.13239
 H1827 H 0.00529 0.26383 -0.08125
 H1828 H 0.03697 0.26657 -0.06350
 H1829 H 0.12977 0.32733 -0.06459
 H1830 H 0.15804 0.33752 -0.04514
 H1831 H 0.14730 0.28764 -0.00110
 H1832 H 0.11860 0.27727 -0.02063
 C1833 C 0.42040 0.27404 0.08353
 C1834 C 0.43768 0.26788 0.07165
 C1835 C 0.45704 0.26810 0.07967
 C1836 C 0.45942 0.27501 0.09942
 C1837 C 0.44216 0.28112 0.11124
 C1838 C 0.42288 0.28052 0.10345
 C1839 C 0.39982 0.27422 0.07535
 N1840 N 0.38318 0.27440 0.08838
 N1841 N 0.36459 0.27604 0.08127
 C1842 C 0.36180 0.27765 0.06080
 N1843 N 0.37844 0.27719 0.04770
 N1844 N 0.39709 0.27542 0.05483
 C1845 C 0.34114 0.28171 0.05322
 C1846 C 0.33840 0.28934 0.03306
 C1847 C 0.31917 0.29619 0.02702
 C1848 C 0.30230 0.29545 0.04100
 C1849 C 0.30484 0.28652 0.06070
 C1850 C 0.32403 0.27977 0.06675
 H1851 H 0.43619 0.26272 0.05628
 H1852 H 0.47017 0.26312 0.07041
 H1853 H 0.44356 0.28605 0.12672
 H1854 H 0.40992 0.28542 0.11298
 H1855 H 0.35126 0.29101 0.02225
 H1856 H 0.31776 0.30312 0.01178
 H1857 H 0.29206 0.28536 0.07168
 H1858 H 0.32554 0.27368 0.08230
 C1859 C 0.93585 0.78007 0.57357
 C1860 C 0.94920 0.79618 0.57493
 C1861 C 0.96630 0.79381 0.58665
 C1862 C 0.97074 0.77519 0.59733
 C1863 C 0.95845 0.75842 0.59426
 C1864 C 0.94108 0.76092 0.58267
 C1865 C 0.91577 0.78409 0.56455
 N1866 N 0.90184 0.76924 0.56417
 N1867 N 0.88304 0.77367 0.55823
 C1868 C 0.87741 0.79316 0.55258
 N1869 N 0.89147 0.80784 0.55257
 N1870 N 0.91020 0.80341 0.55841
 C1871 C 0.85611 0.79881 0.54800
 C1872 C 0.84930 0.81923 0.54946
 C1873 C 0.82912 0.82485 0.54618
 C1874 C 0.81528 0.81026 0.54109
 C1875 C 0.82204 0.78989 0.53916
 C1876 C 0.84228 0.78415 0.54283
 H1877 H 0.94601 0.81103 0.56769
 H1878 H 0.97587 0.80684 0.58758
 H1879 H 0.96098 0.74379 0.60216
 H1880 H 0.93121 0.74812 0.58177
 H1881 H 0.85948 0.83091 0.55351
 H1882 H 0.82433 0.84070 0.54748
 H1883 H 0.81159 0.77842 0.53516
 H1884 H 0.84711 0.76831 0.54157
   
