data_POSCAR
  _audit_creation_date              2014-09-24
  _audit_creation_method            'ToBaCCo'
  _symmetry_space_group_name_H-M    'P1'
  _symmetry_Int_Tables_number       1
  _symmetry_cell_setting            triclinic
  loop_
  _symmetry_equiv_pos_as_xyz
 x,y,z
_cell_length_a 49.6185
_cell_length_b 50.2634
_cell_length_c 50.0482
_cell_angle_alpha 89.593200
_cell_angle_beta 89.764400
_cell_angle_gamma 90.174000
loop_
  _atom_site_label
  _atom_site_type_symbol
  _atom_site_fract_x
  _atom_site_fract_y
  _atom_site_fract_z
C1 C 0.31405 0.43721 0.92026
 N2 N 0.33381 0.44261 0.93815
 C3 C 0.33595 0.42822 0.96114
 N4 N 0.31828 0.40798 0.96601
 C5 C 0.29831 0.40259 0.94829
 N6 N 0.29619 0.41733 0.92551
 C7 C 0.46318 0.83902 0.43126
 N8 N 0.44266 0.83613 0.44902
 C9 C 0.42854 0.81307 0.45062
 N10 N 0.43524 0.79246 0.43446
 C11 C 0.45613 0.79507 0.41689
 N12 N 0.46984 0.81846 0.41517
 C13 C 0.94106 0.92642 0.81688
 N14 N 0.94071 0.94188 0.83894
 C15 C 0.92322 0.96241 0.84082
 N16 N 0.90613 0.96762 0.82035
 C17 C 0.90651 0.95245 0.79802
 N18 N 0.92388 0.93164 0.79640
 C19 C 0.44329 -0.09673 0.30513
 N20 N 0.45035 -0.07586 0.32084
 C21 C 0.43596 -0.05286 0.32010
 N22 N 0.41414 -0.05091 0.30382
 C23 C 0.40711 -0.07162 0.28798
 N24 N 0.42182 -0.09436 0.28859
 C25 C 0.81129 0.30655 0.33134
 N26 N 0.83377 0.29133 0.32977
 C27 C 0.85249 0.29611 0.31043
 N28 N 0.84871 0.31641 0.29271
 C29 C 0.82619 0.33168 0.29438
 N30 N 0.80766 0.32668 0.31371
 C31 C -0.19919 0.83945 0.79431
 N32 N -0.17557 0.82586 0.79333
 C33 C -0.17083 0.80546 0.81050
 N34 N -0.19014 0.79824 0.82850
 C35 C -0.21406 0.81141 0.82955
 N36 N -0.21839 0.83227 0.81257
 C37 C 0.96878 0.34145 0.44784
 N38 N 0.94397 0.33911 0.45906
 C39 C 0.92856 0.31723 0.45446
 N40 N 0.93825 0.29747 0.43874
 C41 C 0.96319 0.29988 0.42753
 N42 N 0.97816 0.32196 0.43189
 C43 C 0.43438 0.45115 0.83824
 N44 N 0.41627 0.45925 0.81975
 C45 C 0.41515 0.44722 0.79560
 N46 N 0.43185 0.42656 0.79017
 C47 C 0.45009 0.41856 0.80870
 N48 N 0.45138 0.43097 0.83254
 C49 C 0.77144 0.92055 0.94152
 N50 N 0.78928 0.92821 0.96048
 C51 C 0.80665 0.94852 0.95551
 N52 N 0.80678 0.96049 0.93121
 C53 C 0.78925 0.95276 0.91210
 N54 N 0.77130 0.93300 0.91735
 C55 C 0.30106 0.81159 0.29663
 N56 N 0.28781 0.81260 0.32041
 C57 C 0.29587 0.79717 0.34121
 N58 N 0.31728 0.78077 0.33827
 C59 C 0.33071 0.77981 0.31469
 N60 N 0.32267 0.79531 0.29390
 C61 C 0.79880 0.42212 0.45036
 N62 N 0.81886 0.42949 0.46702
 C63 C 0.83954 0.44468 0.45811
 N64 N 0.84010 0.45280 0.43227
 C65 C 0.82016 0.44565 0.41521
 N66 N 0.79942 0.42998 0.42419
 C67 C 0.93850 0.84658 -0.04776
 N68 N 0.95657 0.83123 -0.06113
 C69 C 0.94825 0.81256 -0.07870
 N70 N 0.92159 0.80854 -0.08219
 C71 C 0.90322 0.82252 -0.06798
 N72 N 0.91154 0.84203 -0.05096
 C73 C 0.30466 0.33347 0.79654
 N74 N 0.28620 0.32460 0.81465
 C75 C 0.29122 0.30244 0.82951
 N76 N 0.31507 0.28949 0.82650
 C77 C 0.33364 0.29839 0.80844
 N78 N 0.32826 0.32026 0.79341
 C79 C 0.17111 0.57446 0.55380
 N80 N 0.19319 0.58831 0.54598
 C81 C 0.21417 0.59155 0.56293
 N82 N 0.21299 0.58107 0.58810
 C83 C 0.19083 0.56686 0.59585
 N84 N 0.17009 0.56363 0.57861
 C85 C 0.58542 0.68598 0.06566
 N86 N 0.56926 0.70040 0.08179
 C87 C 0.54258 0.69502 0.08360
 N88 N 0.53189 0.67450 0.06953
 C89 C 0.54814 0.66013 0.05308
 N90 N 0.57477 0.66620 0.05084
 C91 C 0.71510 0.20367 0.67051
 N92 N 0.69399 0.22034 0.67352
 C93 C 0.67595 0.21625 0.69343
 N94 N 0.67887 0.19519 0.71027
 C95 C 0.70009 0.17852 0.70730
 N96 N 0.71805 0.18266 0.68725
 C97 C 1.07101 0.03594 0.19868
 N98 N 1.07479 0.05890 0.21238
 C99 C 1.05925 0.08045 0.20706
 N100 N 1.04007 0.07903 0.18805
 C101 C 1.03672 0.05649 0.17378
 N102 N 1.05225 0.03493 0.17904
 C103 C 0.03327 0.17712 1.06310
 N104 N 0.02870 0.19658 1.08114
 C105 C 0.04943 0.21033 1.09214
 N106 N 0.07519 0.20532 1.08414
 C107 C 0.07988 0.18688 1.06484
 N108 N 0.05894 0.17244 1.05487
 C109 C 0.17620 0.71497 0.70997
 N110 N 0.19404 0.71858 0.68967
 C111 C 0.21497 0.70162 0.68655
 N112 N 0.21795 0.68089 0.70366
 C113 C 0.20022 0.67715 0.72403
 N114 N 0.17922 0.69413 0.72712
 C115 C 1.19594 0.14209 0.19676
 N116 N 1.18163 0.16292 0.20661
 C117 C 1.18185 0.18686 0.19383
 N118 N 1.19603 0.18982 0.17072
 C119 C 1.21049 0.16922 0.16070
 N120 N 1.21057 0.14543 0.17392
 C121 C 0.67003 1.06385 0.53120
 N122 N 0.69126 1.07854 0.52258
 C123 C 0.70993 1.08781 0.54000
 N124 N 0.70773 1.08150 0.56654
 C125 C 0.68706 1.06540 0.57500
 N126 N 0.66814 1.05720 0.55733
 C127 C 0.56979 0.53612 0.16677
 N128 N 0.58786 0.52920 0.18578
 C129 C 0.59000 0.54369 0.20847
 N130 N 0.57429 0.56557 0.21190
 C131 C 0.55618 0.57255 0.19280
 N132 N 0.55395 0.55770 0.17040
 C133 C 0.67001 0.69843 0.18757
 N134 N 0.67627 0.67757 0.20371
 C135 C 0.69933 0.66363 0.19966
 N136 N 0.71626 0.67071 0.17937
 C137 C 0.71020 0.69177 0.16330
 N138 N 0.68703 0.70547 0.16741
 C139 C 0.14354 0.05557 1.04190
 N140 N 0.14721 0.03798 1.06227
 C141 C 0.17145 0.03626 1.07477
 N142 N 0.19223 0.05198 1.06653
 C143 C 0.18880 0.06909 1.04573
 N144 N 0.16444 0.07101 1.03369
 C145 C 0.58690 0.19489 0.54969
 N146 N 0.57079 0.17486 0.54107
 C147 C 0.54436 0.17412 0.54750
 N148 N 0.53381 0.19359 0.56271
 C149 C 0.54940 0.21371 0.57186
 N150 N 0.57629 0.21449 0.56546
 C151 C 0.08225 0.56461 0.71661
 N152 N 0.06903 0.58815 0.71882
 C153 C 0.05273 0.59673 0.69879
 N154 N 0.04962 0.58163 0.67656
 C155 C 0.06296 0.55824 0.67409
 N156 N 0.07939 0.54990 0.69409
 C157 C 0.67112 0.55158 0.03983
 N158 N 0.67405 0.53838 0.06343
 C159 C 0.69363 0.54561 0.08091
 N160 N 0.71038 0.56614 0.07467
 C161 C 0.70751 0.57962 0.05124
 N162 N 0.68777 0.57238 0.03391
 C163 C 0.05894 0.71529 0.59452
 N164 N 0.08442 0.71630 0.58425
 C165 C 0.09341 0.69637 0.56828
 N166 N 0.07666 0.67583 0.56228
 C167 C 0.05126 0.67487 0.57237
 N168 N 0.04262 0.69444 0.58876
 C169 C 0.55465 1.05222 0.64715
 N170 N 0.54177 1.07588 0.64993
 C171 C 0.54576 1.09095 0.67204
 N172 N 0.56239 1.08210 0.69161
 C173 C 0.57528 1.05845 0.68912
 N174 N 0.57159 1.04369 0.66675
 C175 C 0.44348 0.32562 0.94339
 N176 N 0.46225 0.31675 0.92541
 C177 C 0.45723 0.29397 0.91150
 N178 N 0.43368 0.28084 0.91521
 C179 C 0.41491 0.28977 0.93252
 N180 N 0.41997 0.31191 0.94684
 C181 C 0.94833 0.45643 0.33901
 N182 N 0.93043 0.46182 0.31921
 C183 C 0.92747 0.44490 0.29832
 N184 N 0.94219 0.42211 0.29749
 C185 C 0.95991 0.41636 0.31734
 N186 N 0.96302 0.43367 0.33792
 C187 C 0.29505 0.92932 0.40551
 N188 N 0.31921 0.94172 0.40721
 C189 C 0.33316 0.94161 0.43062
 N190 N 0.32268 0.92897 0.45255
 C191 C 0.29800 0.91717 0.45094
 N192 N 0.28451 0.91733 0.42747
 O193 O 0.23566 0.57801 0.73683
 O194 O 0.28395 0.56973 0.73107
 O195 O 0.19811 0.51142 0.69964
 O196 O 0.19780 0.46646 0.70391
 O197 O 0.17664 0.53630 0.77941
 O198 O 0.19710 0.52579 0.82264
 O199 O 0.28191 0.43637 0.74442
 O200 O 0.26411 0.44879 0.70323
 O201 O 0.32334 0.49862 0.77592
 O202 O 0.31140 0.54996 0.77851
 O203 O 0.26689 0.46344 0.82462
 O204 O 0.21534 0.46393 0.82504
 O205 O 0.26016 0.43111 0.78426
 O206 O 0.21443 0.43525 0.79622
 O207 O 0.29774 0.49658 0.81940
 O208 O 0.29579 0.54287 0.81586
 O209 O 0.31546 0.47161 0.74058
 O210 O 0.29439 0.48609 0.69785
 O211 O 0.21342 0.57283 0.77645
 O212 O 0.22616 0.55679 0.81994
 O213 O 0.16914 0.50918 0.74408
 O214 O 0.17900 0.46084 0.74262
 O215 O 0.22828 0.54553 0.69590
 O216 O 0.27633 0.54128 0.69391
 Zr217 Zr 0.25301 0.54045 0.72964
 O218 O 0.28406 0.51525 0.74286
 Zr219 Zr 0.20701 0.49208 0.73600
 O220 O 0.23634 0.46505 0.74963
 Zr221 Zr 0.21837 0.53250 0.78651
 O222 O 0.24849 0.50759 0.80235
 Zr223 Zr 0.27409 0.47583 0.73391
 O224 O 0.24434 0.50106 0.71798
 Zr225 Zr 0.28592 0.51655 0.78458
 O226 O 0.25641 0.54382 0.77143
 Zr227 Zr 0.24089 0.46798 0.79129
 O228 O 0.20867 0.49265 0.77802
 O229 O 0.21524 0.53133 0.74522
 O230 O 0.27854 0.47698 0.77533
 C231 C 0.22126 0.58686 0.75631
 C232 C 0.20834 0.53165 0.68729
 C233 C 0.16135 0.52647 0.76125
 C234 C 0.27528 0.42261 0.76512
 C235 C 0.33087 0.48147 0.75845
 C236 C 0.28788 0.47656 0.83214
 H237 H 0.30135 0.52051 0.73440
 H238 H 0.24885 0.50983 0.82195
 H239 H 0.20170 0.54371 0.73779
 H240 H 0.23141 0.44674 0.74440
 H241 H 0.25399 0.45905 0.68963
 H242 H 0.21089 0.45169 0.70440
 H243 H 0.28036 0.54283 0.82843
 H244 H 0.24291 0.56678 0.81581
 H245 H 0.30666 0.47126 0.69325
 H246 H 0.27253 0.55798 0.68394
 H247 H 0.22067 0.47776 0.83798
 H248 H 0.18672 0.50912 0.82037
 H249 H 0.27919 0.58473 0.71902
 H250 H 0.32430 0.54564 0.76406
 H251 H 0.17235 0.46259 0.76121
 H252 H 0.20502 0.43290 0.77904
 O253 O 0.16026 -0.00433 0.24009
 O254 O 0.17299 -0.01317 0.28577
 O255 O 0.22482 0.03899 0.20640
 O256 O 0.27134 0.03195 0.19917
 O257 O 0.19135 -0.03067 0.16746
 O258 O 0.19808 -0.07683 0.17236
 O259 O 0.30649 -0.03602 0.26354
 O260 O 0.29813 0.00861 0.26200
 O261 O 0.24155 -0.07356 0.30081
 O262 O 0.19626 -0.07622 0.29620
 O263 O 0.27289 -0.10119 0.22661
 O264 O 0.26598 -0.08790 0.17991
 O265 O 0.30566 -0.06322 0.22743
 O266 O 0.29149 -0.05653 0.17968
 O267 O 0.24517 -0.10568 0.26258
 O268 O 0.19286 -0.10004 0.26176
 O269 O 0.27251 -0.04018 0.30165
 O270 O 0.26254 0.00856 0.29470
 O271 O 0.15883 -0.03609 0.20791
 O272 O 0.17272 -0.08257 0.20570
 O273 O 0.22090 0.00400 0.16571
 O274 O 0.27123 0.00266 0.17096
 O275 O 0.19568 0.03402 0.24129
 O276 O 0.20736 0.01951 0.28700
 Zr277 Zr 0.20040 -0.00578 0.25384
 O278 O 0.22734 -0.03023 0.27500
 Zr279 Zr 0.24258 0.00098 0.20234
 O280 O 0.27193 -0.02197 0.22249
 Zr281 Zr 0.19875 -0.04920 0.20400
 O282 O 0.22652 -0.07475 0.22239
 Zr283 Zr 0.26710 -0.02032 0.26431
 O284 O 0.24019 0.00596 0.24422
 Zr285 Zr 0.22294 -0.07010 0.26374
 O286 O 0.19321 -0.04627 0.24543
 Zr287 Zr 0.26590 -0.06218 0.21322
 O288 O 0.23798 -0.03909 0.19128
 O289 O 0.20348 -0.00904 0.21265
 O290 O 0.26266 -0.06024 0.25468
 C291 C 0.14789 -0.01785 0.22211
 C292 C 0.20719 0.04808 0.22293
 C293 C 0.20149 -0.01011 0.15596
 C294 C 0.31762 -0.05264 0.24747
 C295 C 0.26017 -0.06026 0.31234
 C296 C 0.26374 -0.11419 0.24686
 H297 H 0.22395 -0.02784 0.29434
 H298 H 0.22316 -0.09329 0.21686
 H299 H 0.19043 0.00262 0.20341
 H300 H 0.29013 -0.01568 0.21731
 H301 H 0.28943 0.02552 0.25674
 H302 H 0.27356 0.03919 0.21734
 H303 H 0.19884 -0.11359 0.24880
 H304 H 0.16409 -0.08251 0.22356
 H305 H 0.27828 0.00717 0.30676
 H306 H 0.19275 0.03288 0.28811
 H307 H 0.25034 -0.10002 0.18180
 H308 H 0.21524 -0.07448 0.16246
 H309 H 0.16002 0.00178 0.28680
 H310 H 0.18378 -0.06093 0.29602
 H311 H 0.26788 -0.01299 0.15954
 H312 H 0.30289 -0.04074 0.18304
 O313 O 0.57127 0.71029 0.23370
 O314 O 0.57046 0.70566 0.27945
 O315 O 0.49695 0.67283 0.20895
 O316 O 0.45270 0.67843 0.21464
 O317 O 0.51982 0.75052 0.17725
 O318 O 0.51799 0.79460 0.19505
 O319 O 0.43476 0.72649 0.29679
 O320 O 0.44496 0.68359 0.28312
 O321 O 0.50255 0.76198 0.32582
 O322 O 0.55177 0.76222 0.31052
 O323 O 0.46181 0.80388 0.27065
 O324 O 0.45447 0.80197 0.22324
 O325 O 0.42782 0.76369 0.27154
 O326 O 0.42948 0.77083 0.22158
 O327 O 0.49968 0.80184 0.29589
 O328 O 0.54772 0.79443 0.28639
 O329 O 0.47408 0.72653 0.32564
 O330 O 0.48601 0.68151 0.30869
 O331 O 0.56375 0.74715 0.20811
 O332 O 0.55192 0.79209 0.21908
 O333 O 0.49166 0.71480 0.17710
 O334 O 0.44477 0.71552 0.19517
 O335 O 0.53515 0.67043 0.23379
 O336 O 0.53792 0.67384 0.28326
 Zr337 Zr 0.53514 0.70616 0.25587
 O338 O 0.51479 0.72347 0.28857
 Zr339 Zr 0.48056 0.71019 0.21743
 O340 O 0.45798 0.72700 0.24857
 Zr341 Zr 0.52460 0.75975 0.21796
 O342 O 0.50375 0.77918 0.24882
 Zr343 Zr 0.47357 0.71481 0.28556
 O344 O 0.49409 0.69519 0.25439
 Zr345 Zr 0.51707 0.76508 0.28615
 O346 O 0.54022 0.74784 0.25515
 Zr347 Zr 0.46276 0.76860 0.24783
 O348 O 0.48315 0.75193 0.21460
 O349 O 0.52151 0.71857 0.21860
 O350 O 0.47615 0.75628 0.28514
 C351 C 0.57863 0.72782 0.21618
 C352 C 0.51823 0.66076 0.21698
 C353 C 0.50685 0.73194 0.16528
 C354 C 0.42042 0.74631 0.28916
 C355 C 0.48562 0.74609 0.33729
 C356 C 0.47821 0.81361 0.28793
 H357 H 0.52211 0.71666 0.30563
 H358 H 0.50652 0.79857 0.24670
 H359 H 0.53161 0.70988 0.20398
 H360 H 0.43892 0.72157 0.24674
 H361 H 0.45398 0.66872 0.27381
 H362 H 0.44152 0.67876 0.23101
 H363 H 0.54340 0.80756 0.27224
 H364 H 0.56397 0.78882 0.23447
 H365 H 0.47252 0.67866 0.32312
 H366 H 0.55217 0.66151 0.27701
 H367 H 0.47122 0.81262 0.22190
 H368 H 0.49896 0.79397 0.18923
 H369 H 0.57473 0.72443 0.28354
 H370 H 0.54955 0.74668 0.32257
 H371 H 0.44591 0.73334 0.18669
 H372 H 0.41894 0.75420 0.22362
 O373 O 0.07600 0.73393 0.74566
 O374 O 0.07083 0.72797 0.79218
 O375 O 0.00154 0.70121 0.71481
 O376 O -0.04290 0.71057 0.71632
 O377 O 0.03352 0.77773 0.68675
 O378 O 0.03141 0.82086 0.70328
 O379 O -0.06292 0.75682 0.80003
 O380 O -0.05362 0.71375 0.78853
 O381 O 0.01084 0.78634 0.83364
 O382 O 0.05459 0.78798 0.82107
 O383 O -0.03120 0.83208 0.77613
 O384 O -0.03643 0.83253 0.73042
 O385 O -0.06731 0.79393 0.77419
 O386 O -0.05997 0.80014 0.72304
 O387 O 0.00418 0.82774 0.80449
 O388 O 0.05410 0.81969 0.79334
 O389 O -0.02456 0.75770 0.83162
 O390 O -0.01477 0.71046 0.81599
 O391 O 0.07314 0.77204 0.72097
 O392 O 0.06116 0.81827 0.73254
 O393 O 0.00331 0.74389 0.68331
 O394 O -0.04629 0.74778 0.69813
 O395 O 0.03825 0.69607 0.74141
 O396 O 0.03430 0.69801 0.79130
 Zr397 Zr 0.03828 0.73113 0.76490
 O398 O 0.01755 0.75004 0.79628
 Zr399 Zr -0.01269 0.73949 0.72269
 O400 O -0.03650 0.75626 0.75327
 Zr401 Zr 0.03384 0.78632 0.72748
 O402 O 0.01122 0.80646 0.75643
 Zr403 Zr -0.02388 0.74385 0.79151
 O404 O -0.00319 0.72336 0.76064
 Zr405 Zr 0.02231 0.79146 0.79392
 O406 O 0.04644 0.77249 0.76505
 Zr407 Zr -0.03014 0.79745 0.75306
 O408 O -0.00775 0.78096 0.72093
 O409 O 0.02832 0.74532 0.72720
 O410 O -0.01912 0.78495 0.79117
 C411 C 0.08599 0.75160 0.72971
 C412 C 0.02173 0.68780 0.72342
 C413 C 0.02133 0.75976 0.67337
 C414 C -0.07639 0.77683 0.79140
 C415 C -0.00892 0.77376 0.84434
 C416 C -0.01622 0.84041 0.79518
 H417 H 0.02396 0.74304 0.81365
 H418 H 0.01465 0.82578 0.75469
 H419 H 0.03919 0.73620 0.71344
 H420 H -0.05558 0.75149 0.75019
 H421 H -0.04513 0.69875 0.77898
 H422 H -0.05027 0.70606 0.73417
 H423 H 0.04788 0.83561 0.78342
 H424 H 0.07379 0.81296 0.74686
 H425 H -0.02841 0.70967 0.83052
 H426 H 0.04703 0.68387 0.78584
 H427 H -0.01841 0.83974 0.72589
 H428 H 0.01262 0.82178 0.69677
 H429 H 0.08210 0.71248 0.78722
 H430 H 0.06563 0.77293 0.81471
 H431 H -0.04204 0.76430 0.68805
 H432 H -0.07309 0.78558 0.72615
 O433 O -0.03684 0.08823 0.04499
 O434 O -0.08353 0.07347 0.04372
 O435 O 0.00573 0.02330 0.07704
 O436 O 0.01113 -0.02048 0.06826
 O437 O 0.03318 0.05900 0.00163
 O438 O 0.01564 0.05849 -0.04322
 O439 O -0.05895 -0.05658 0.01078
 O440 O -0.04909 -0.04827 0.05535
 O441 O -0.10712 0.00530 -0.01620
 O442 O -0.10333 0.05684 -0.01121
 O443 O -0.04136 -0.01416 -0.06080
 O444 O 0.00864 -0.00547 -0.05666
 O445 O -0.03047 -0.05090 -0.02459
 O446 O 0.01482 -0.03498 -0.03109
 O447 O -0.07614 0.01471 -0.05625
 O448 O -0.08191 0.05865 -0.04619
 O449 O -0.09886 -0.02623 0.01545
 O450 O -0.08542 -0.01710 0.06160
 O451 O -0.00672 0.09221 0.01071
 O452 O -0.01622 0.08510 -0.03623
 O453 O 0.04023 0.02854 0.03462
 O454 O 0.03582 -0.01896 0.03201
 O455 O -0.03010 0.05129 0.07988
 O456 O -0.07722 0.04061 0.07510
 Zr457 Zr -0.04953 0.04800 0.04341
 O458 O -0.07441 0.02091 0.02319
 Zr459 Zr 0.00348 0.00782 0.03775
 O460 O -0.01907 -0.02021 0.01618
 Zr461 Zr -0.00785 0.05472 -0.00805
 O462 O -0.03171 0.02891 -0.03111
 Zr463 Zr -0.05964 -0.01806 0.02764
 O464 O -0.03673 0.00853 0.05105
 Zr465 Zr -0.07192 0.02915 -0.01765
 O466 O -0.04876 0.05801 0.00267
 Zr467 Zr -0.01921 -0.01050 -0.02484
 O468 O 0.00660 0.01562 -0.00369
 O469 O -0.00897 0.04671 0.03260
 O470 O -0.05951 -0.01025 -0.01341
 C471 C -0.01934 0.10151 0.03112
 C472 C -0.00914 0.04019 0.08958
 C473 C 0.04830 0.04714 0.01874
 C474 C -0.04550 -0.06542 -0.00936
 C475 C -0.11390 -0.01518 -0.00206
 C476 C -0.06253 -0.00222 -0.06959
 H477 H -0.09307 0.02233 0.03003
 H478 H -0.03031 0.03438 -0.05008
 H479 H 0.00269 0.05874 0.04305
 H480 H -0.01167 -0.03815 0.01959
 H481 H -0.04296 -0.03915 0.07172
 H482 H 0.00199 -0.03721 0.06322
 H483 H -0.06467 0.06555 -0.05346
 H484 H -0.03386 0.09277 -0.03116
 H485 H -0.09529 -0.03427 0.06265
 H486 H -0.07686 0.05590 0.08755
 H487 H 0.00185 0.00888 -0.06844
 H488 H 0.02658 0.04212 -0.04443
 H489 H -0.08290 0.08429 0.02712
 H490 H -0.11563 0.04939 0.00255
 H491 H 0.04263 -0.01594 0.01361
 H492 H 0.01845 -0.04445 -0.01409
 O493 O -0.01365 0.43615 0.49473
 O494 O -0.00147 0.43818 0.54082
 O495 O -0.06923 0.49845 0.48283
 O496 O -0.07118 0.54275 0.48886
 O497 O -0.00324 0.48727 0.42986
 O498 O 0.04297 0.50179 0.43107
 O499 O -0.00167 0.57313 0.55165
 O500 O -0.04429 0.55503 0.55314
 O501 O 0.05221 0.50992 0.56740
 O502 O 0.05814 0.46747 0.55124
 O503 O 0.06700 0.56047 0.50020
 O504 O 0.04835 0.56636 0.45761
 O505 O 0.02556 0.58540 0.51700
 O506 O 0.01239 0.58369 0.46676
 O507 O 0.07909 0.52618 0.52736
 O508 O 0.07973 0.47701 0.51529
 O509 O 0.01586 0.53502 0.57838
 O510 O -0.03084 0.51571 0.57672
 O511 O 0.01420 0.44808 0.46039
 O512 O 0.05715 0.47047 0.45498
 O513 O -0.03986 0.51234 0.44010
 O514 O -0.04373 0.55821 0.45953
 O515 O -0.05658 0.46310 0.50851
 O516 O -0.03806 0.46508 0.55411
 Zr517 Zr -0.01608 0.47081 0.51794
 O518 O 0.00738 0.49466 0.54320
 Zr519 Zr -0.03469 0.52276 0.48070
 O520 O -0.01310 0.54894 0.50556
 Zr521 Zr 0.02035 0.48920 0.46477
 O522 O 0.04463 0.51456 0.48780
 Zr523 Zr -0.00915 0.53294 0.54428
 O524 O -0.03420 0.50856 0.52049
 Zr525 Zr 0.04606 0.49999 0.52720
 O526 O 0.02389 0.47307 0.50353
 Zr527 Zr 0.02656 0.55218 0.49121
 O528 O 0.00422 0.52790 0.46464
 O529 O -0.01876 0.48480 0.47886
 O530 O 0.03007 0.53803 0.53020
 C531 C -0.00010 0.43101 0.47343
 C532 C -0.07394 0.47614 0.49472
 C533 C -0.02601 0.49791 0.42391
 C534 C 0.01329 0.59003 0.53922
 C535 C 0.03871 0.52422 0.58385
 C536 C 0.08383 0.54838 0.51537
 H537 H 0.00813 0.48642 0.56121
 H538 H 0.06271 0.51579 0.47951
 H539 H -0.02973 0.47277 0.46771
 H540 H -0.02225 0.56637 0.50608
 H541 H -0.05983 0.54356 0.54855
 H542 H -0.06797 0.55366 0.50489
 H543 H 0.08915 0.48667 0.50070
 H544 H 0.06191 0.45908 0.47045
 H545 H -0.03045 0.52846 0.59174
 H546 H -0.04954 0.44898 0.55266
 H547 H 0.05828 0.55101 0.45027
 H548 H 0.03534 0.51907 0.42529
 H549 H -0.01473 0.42338 0.54009
 H550 H 0.04655 0.45232 0.54613
 H551 H -0.02959 0.56049 0.44567
 H552 H -0.00158 0.59342 0.47687
 O553 O 0.47584 -0.06272 0.46462
 O554 O 0.48005 -0.06130 0.51172
 O555 O 0.42731 0.00658 0.44777
 O556 O 0.42963 0.05078 0.45537
 O557 O 0.49454 -0.01199 0.40115
 O558 O 0.54165 -0.00155 0.40534
 O559 O 0.49414 0.07219 0.52372
 O560 O 0.45086 0.05727 0.52276
 O561 O 0.54193 0.00391 0.54266
 O562 O 0.54175 -0.03912 0.52727
 O563 O 0.56680 0.05243 0.47823
 O564 O 0.55339 0.06185 0.43571
 O565 O 0.52557 0.08248 0.49201
 O566 O 0.51810 0.08183 0.44059
 O567 O 0.57386 0.01621 0.50472
 O568 O 0.57085 -0.02903 0.49147
 O569 O 0.50766 0.03248 0.55135
 O570 O 0.45964 0.01702 0.54646
 O571 O 0.50631 -0.05288 0.43187
 O572 O 0.55227 -0.03295 0.42919
 O573 O 0.46035 0.01695 0.40898
 O574 O 0.46114 0.06326 0.42873
 O575 O 0.43345 -0.03227 0.47060
 O576 O 0.44578 -0.02992 0.51982
 Zr577 Zr 0.47289 -0.02762 0.48691
 O578 O 0.49696 -0.00701 0.51464
 Zr579 Zr 0.46402 0.02673 0.44981
 O580 O 0.48580 0.04982 0.47716
 Zr581 Zr 0.51601 -0.01244 0.43749
 O582 O 0.54056 0.00984 0.46319
 Zr583 Zr 0.48469 0.03270 0.51563
 O584 O 0.45907 0.01185 0.48906
 Zr585 Zr 0.53736 -0.00537 0.50218
 O586 O 0.51430 -0.02946 0.47611
 Zr587 Zr 0.52656 0.04918 0.46615
 O588 O 0.50435 0.02786 0.43702
 O589 O 0.47577 -0.01275 0.44829
 O590 O 0.52533 0.03416 0.50496
 C591 C 0.49034 -0.06897 0.44429
 C592 C 0.41953 -0.01660 0.45545
 C593 C 0.47312 0.00050 0.39398
 C594 C 0.51106 0.08814 0.51265
 C595 C 0.52896 0.01954 0.55824
 C596 C 0.58170 0.03794 0.49329
 H597 H 0.49533 -0.01551 0.53248
 H598 H 0.55933 0.00903 0.45649
 H599 H 0.46506 -0.02388 0.43606
 H600 H 0.47835 0.06803 0.47716
 H601 H 0.43483 0.04727 0.51665
 H602 H 0.43199 0.05978 0.47269
 H603 H 0.56366 -0.04595 0.48441
 H604 H 0.55320 -0.04832 0.44158
 H605 H 0.46031 0.02945 0.56174
 H606 H 0.43209 -0.04384 0.51628
 H607 H 0.55985 0.04555 0.42680
 H608 H 0.53598 0.01638 0.39933
 H609 H 0.46513 -0.07425 0.50934
 H610 H 0.53041 -0.05325 0.51943
 H611 H 0.47577 0.06345 0.41521
 H612 H 0.50385 0.09260 0.44912
 O613 O 0.50990 0.55934 0.03774
 O614 O 0.46651 0.54824 0.04888
 O615 O 0.55309 0.48628 0.06169
 O616 O 0.55600 0.44400 0.04797
 O617 O 0.56929 0.52819 -0.01372
 O618 O 0.54720 0.52463 -0.05692
 O619 O 0.46901 0.41889 0.00749
 O620 O 0.48830 0.42416 0.05010
 O621 O 0.42469 0.48249 -0.01257
 O622 O 0.43104 0.53253 -0.00544
 O623 O 0.47954 0.46096 -0.06628
 O624 O 0.53137 0.46347 -0.06877
 O625 O 0.48897 0.42166 -0.03347
 O626 O 0.53366 0.42928 -0.04550
 O627 O 0.44836 0.49187 -0.05473
 O628 O 0.45101 0.53854 -0.04055
 O629 O 0.43477 0.45064 0.01817
 O630 O 0.45683 0.45844 0.06260
 O631 O 0.52912 0.56193 -0.00360
 O632 O 0.51828 0.55271 -0.04860
 O633 O 0.57990 0.49598 0.01646
 O634 O 0.57145 0.44708 0.00877
 O635 O 0.52358 0.51934 0.07159
 O636 O 0.47414 0.51233 0.07542
 Zr637 Zr 0.49610 0.51948 0.03955
 O638 O 0.46483 0.49602 0.02351
 Zr639 Zr 0.54313 0.47526 0.02263
 O640 O 0.51371 0.44980 0.00616
 Zr641 Zr 0.52742 0.52352 -0.01941
 O642 O 0.49743 0.50057 -0.03792
 Zr643 Zr 0.47631 0.45593 0.02487
 O644 O 0.50642 0.47893 0.04367
 Zr645 Zr 0.46067 0.50464 -0.01721
 O646 O 0.48995 0.53013 -0.00076
 Zr647 Zr 0.50705 0.45996 -0.03409
 O648 O 0.53910 0.48333 -0.01843
 O649 O 0.53326 0.51536 0.02086
 O650 O 0.47003 0.46446 -0.01535
 C651 C 0.52149 0.57230 0.01853
 C652 C 0.54370 0.50425 0.07724
 C653 C 0.58609 0.51620 0.00170
 C654 C 0.47458 0.40946 -0.01568
 C655 C 0.41852 0.46198 0.00177
 C656 C 0.45827 0.47488 -0.07087
 H657 H 0.44783 0.49879 0.03347
 H658 H 0.49622 0.50647 -0.05676
 H659 H 0.54650 0.52725 0.02949
 H660 H 0.51940 0.43103 0.00797
 H661 H 0.49841 0.43222 0.06504
 H662 H 0.54127 0.43075 0.04856
 H663 H 0.46253 0.53823 -0.05672
 H664 H 0.50065 0.56036 -0.04351
 H665 H 0.44508 0.44257 0.06469
 H666 H 0.47974 0.52554 0.08897
 H667 H 0.52460 0.47882 -0.07922
 H668 H 0.55824 0.50830 -0.05805
 H669 H 0.45872 0.55413 0.03167
 H670 H 0.42119 0.52521 0.01020
 H671 H 0.57800 0.45349 -0.00886
 H672 H 0.54506 0.42536 -0.02982
 O673 O 0.77552 0.33037 0.50150
 O674 O 0.77229 0.31597 0.54842
 O675 O 0.82736 0.27273 0.46625
 O676 O 0.82821 0.22814 0.46147
 O677 O 0.74866 0.29093 0.43043
 O678 O 0.70294 0.27858 0.44293
 O679 O 0.77079 0.18263 0.52984
 O680 O 0.81455 0.19922 0.52111
 O681 O 0.72913 0.23954 0.57069
 O682 O 0.72183 0.29119 0.56138
 O683 O 0.69548 0.20680 0.50242
 O684 O 0.70310 0.21501 0.45244
 O685 O 0.73889 0.17910 0.49754
 O686 O 0.73465 0.19066 0.45136
 O687 O 0.68930 0.23629 0.53605
 O688 O 0.68800 0.28034 0.54013
 O689 O 0.76710 0.21472 0.56630
 O690 O 0.81149 0.23301 0.55558
 O691 O 0.74396 0.32553 0.46896
 O692 O 0.69948 0.30727 0.47342
 O693 O 0.78820 0.26833 0.42812
 O694 O 0.79485 0.22111 0.43421
 O695 O 0.81959 0.30285 0.49914
 O696 O 0.81312 0.29128 0.54547
 Zr697 Zr 0.78267 0.29128 0.51569
 O698 O 0.76605 0.26102 0.53990
 Zr699 Zr 0.79159 0.24926 0.46534
 O700 O 0.77419 0.21756 0.48721
 Zr701 Zr 0.73510 0.28457 0.46984
 O702 O 0.71563 0.25503 0.49291
 Zr703 Zr 0.78054 0.22362 0.52799
 O704 O 0.80007 0.25416 0.50602
 Zr705 Zr 0.72442 0.25964 0.53369
 O706 O 0.74062 0.29158 0.51086
 Zr707 Zr 0.73197 0.21785 0.48332
 O708 O 0.74972 0.24720 0.45814
 O709 O 0.77655 0.28634 0.47497
 O710 O 0.73870 0.22199 0.52401
 C711 C 0.76004 0.33966 0.48307
 C712 C 0.83435 0.29277 0.48074
 C713 C 0.76986 0.28319 0.41794
 C714 C 0.75404 0.16910 0.51576
 C715 C 0.74697 0.22320 0.57966
 C716 C 0.68180 0.21632 0.52208
 H717 H 0.77065 0.26477 0.55872
 H718 H 0.69601 0.25588 0.48963
 H719 H 0.78529 0.30043 0.46404
 H720 H 0.78202 0.20047 0.48141
 H721 H 0.82955 0.21130 0.51605
 H722 H 0.82595 0.21096 0.47098
 H723 H 0.68166 0.28616 0.52232
 H724 H 0.69997 0.31561 0.49128
 H725 H 0.81551 0.21677 0.56619
 H726 H 0.82213 0.30893 0.54565
 H727 H 0.68731 0.22579 0.45765
 H728 H 0.70757 0.26271 0.43227
 H729 H 0.78364 0.33224 0.54783
 H730 H 0.73450 0.28734 0.57611
 H731 H 0.77692 0.21999 0.42569
 H732 H 0.75389 0.18607 0.44914
 O733 O 0.72363 0.78286 -0.07578
 O734 O 0.68106 0.76685 -0.05697
 O735 O 0.76122 0.82547 -0.01581
 O736 O 0.77367 0.81959 0.02741
 O737 O 0.80349 0.76332 -0.05650
 O738 O 0.80294 0.71456 -0.05160
 O739 O 0.72687 0.74310 0.06975
 O740 O 0.72345 0.78983 0.06148
 O741 O 0.68230 0.70428 0.01357
 O742 O 0.68086 0.70768 -0.03824
 O743 O 0.76195 0.68197 0.02743
 O744 O 0.80696 0.70026 0.01213
 O745 O 0.76379 0.71764 0.06156
 O746 O 0.80832 0.72825 0.04102
 O747 O 0.72306 0.67505 0.00467
 O748 O 0.71190 0.68039 -0.04057
 O749 O 0.68692 0.73585 0.04551
 O750 O 0.68332 0.78416 0.03462
 O751 O 0.76031 0.75682 -0.08343
 O752 O 0.76733 0.70979 -0.07485
 O753 O 0.80539 0.79610 -0.02542
 O754 O 0.80782 0.79202 0.02280
 O755 O 0.72288 0.81763 -0.03937
 O756 O 0.68056 0.79835 -0.02353
 Zr757 Zr 0.71568 0.77692 -0.03447
 O758 O 0.70114 0.75050 -0.00484
 Zr759 Zr 0.77232 0.78788 -0.00014
 O760 O 0.76040 0.76133 0.03044
 Zr761 Zr 0.76966 0.74007 -0.04585
 O762 O 0.75706 0.71144 -0.01736
 Zr763 Zr 0.71830 0.76007 0.03220
 O764 O 0.73009 0.78874 0.00342
 Zr765 Zr 0.71482 0.71206 -0.01316
 O766 O 0.72732 0.73802 -0.04451
 Zr767 Zr 0.77165 0.72232 0.02040
 O768 O 0.78681 0.74942 -0.00868
 O769 O 0.75741 0.77844 -0.03740
 O770 O 0.73001 0.72125 0.02424
 C771 C 0.74258 0.77391 -0.09102
 C772 C 0.74160 0.83297 -0.03091
 C773 C 0.81416 0.78436 -0.04644
 C774 C 0.74506 0.72636 0.07701
 C775 C 0.67547 0.71530 0.03577
 C776 C 0.74202 0.66727 0.02024
 H777 H 0.68124 0.75140 -0.00405
 H778 H 0.76347 0.69364 -0.02269
 H779 H 0.76378 0.79172 -0.05065
 H780 H 0.76802 0.76685 0.04777
 H781 H 0.72316 0.80712 0.05187
 H782 H 0.76847 0.81231 0.04510
 H783 H 0.72981 0.67852 -0.04904
 H784 H 0.74818 0.70856 -0.08019
 H785 H 0.67558 0.78195 0.05281
 H786 H 0.67558 0.81037 -0.03853
 H787 H 0.80249 0.68703 -0.00171
 H788 H 0.81599 0.71869 -0.03730
 H789 H 0.68569 0.75115 -0.06788
 H790 H 0.66633 0.71906 -0.03109
 H791 H 0.81928 0.77646 0.01874
 H792 H 0.80608 0.74393 0.05264
 O793 O 1.03485 0.18431 0.22592
 O794 O 0.98657 0.18939 0.23307
 O795 O 1.05421 0.26417 0.19338
 O796 O 1.05597 0.30598 0.20880
 O797 O 1.10154 0.22373 0.25616
 O798 O 1.09428 0.22465 0.30549
 O799 O 0.98654 0.31736 0.27740
 O800 O 0.99058 0.31521 0.23085
 O801 O 0.95774 0.24153 0.30149
 O802 O 0.97547 0.19325 0.28820
 O803 O 1.02052 0.27507 0.33954
 O804 O 1.07280 0.27651 0.32835
 O805 O 1.01994 0.31535 0.30835
 O806 O 1.06622 0.31173 0.30786
 O807 O 0.99462 0.23793 0.33615
 O808 O 0.99802 0.19533 0.32245
 O809 O 0.95403 0.27853 0.27545
 O810 O 0.96164 0.27728 0.22633
 O811 O 1.06767 0.18478 0.25758
 O812 O 1.06972 0.19033 0.30395
 O813 O 1.09679 0.25877 0.22766
 O814 O 1.08400 0.30496 0.24048
 O815 O 1.02932 0.22606 0.19181
 O816 O 0.98249 0.22573 0.20328
 Zr817 Zr 1.01469 0.22133 0.23089
 O818 O 0.98730 0.23960 0.25726
 Zr819 Zr 1.05727 0.27261 0.23472
 O820 O 1.03201 0.29217 0.26236
 Zr821 Zr 1.06401 0.22153 0.27602
 O822 O 1.03798 0.23774 0.30486
 Zr823 Zr 0.99167 0.28130 0.25614
 O824 O 1.01670 0.26331 0.22704
 Zr825 Zr 0.99769 0.22835 0.29604
 O826 O 1.02408 0.20867 0.26986
 Zr827 Zr 1.03987 0.27927 0.30170
 O828 O 1.06818 0.26301 0.27430
 O829 O 1.05477 0.23148 0.23670
 O830 O 0.99967 0.26977 0.29529
 C831 C 1.05450 0.17346 0.23890
 C832 C 1.04257 0.24513 0.18067
 C833 C 1.11027 0.23917 0.23741
 C834 C 0.99981 0.32698 0.29728
 C835 C 0.94446 0.26148 0.29224
 C836 C 1.00370 0.25778 0.34912
 H837 H 0.96869 0.23419 0.25275
 H838 H 1.04315 0.23131 0.32283
 H839 H 1.06597 0.22238 0.22319
 H840 H 1.03457 0.31161 0.26045
 H841 H 0.99659 0.30925 0.21297
 H842 H 1.04154 0.31775 0.21544
 H843 H 1.01676 0.19334 0.32880
 H844 H 1.05271 0.17999 0.30438
 H845 H 0.94786 0.29119 0.22938
 H846 H 0.98427 0.21233 0.18893
 H847 H 1.06822 0.26309 0.34221
 H848 H 1.10349 0.24194 0.30259
 H849 H 0.98882 0.17791 0.21718
 H850 H 0.95823 0.19852 0.27985
 H851 H 1.09628 0.29985 0.25518
 H852 H 1.07018 0.31934 0.29000
 O853 O 0.73203 1.07713 0.71680
 O854 O 0.77814 1.07010 0.70996
 O855 O 0.69607 1.00943 0.67794
 O856 O 0.69953 0.96405 0.68174
 O857 O 0.66910 1.03417 0.75429
 O858 O 0.68615 1.02546 0.79937
 O859 O 0.77909 0.93603 0.73226
 O860 O 0.76481 0.94684 0.68852
 O861 O 0.81605 0.99992 0.76514
 O862 O 0.80614 1.04922 0.76572
 O863 O 0.75581 0.96599 0.80917
 O864 O 0.70404 0.96514 0.80428
 O865 O 0.75383 0.93186 0.77014
 O866 O 0.70787 0.93456 0.77706
 O867 O 0.78683 0.99909 0.80491
 O868 O 0.78176 1.04766 0.79810
 O869 O 0.81200 0.97129 0.73048
 O870 O 0.79532 0.98422 0.68496
 O871 O 0.70612 1.07176 0.75417
 O872 O 0.71363 1.05698 0.79829
 O873 O 0.66488 1.00599 0.71926
 O874 O 0.67628 0.95815 0.71913
 O875 O 0.72592 1.04383 0.67560
 O876 O 0.77530 1.03914 0.67696
 Zr877 Zr 0.74907 1.03916 0.71060
 O878 O 0.77955 1.01514 0.72721
 Zr879 Zr 0.70389 0.99007 0.71450
 O880 O 0.73249 0.96405 0.73161
 Zr881 Zr 0.71014 1.03176 0.76485
 O882 O 0.73928 1.00826 0.78393
 Zr883 Zr 0.77140 0.97501 0.71906
 O884 O 0.74255 0.99919 0.69948
 Zr885 Zr 0.77783 1.01771 0.76884
 O886 O 0.74901 1.04366 0.75239
 Zr887 Zr 0.73315 0.96832 0.77340
 O888 O 0.70178 0.99167 0.75652
 O889 O 0.71036 1.02977 0.72349
 O890 O 0.77186 0.97772 0.76055
 C891 C 0.71616 1.08594 0.73520
 C892 C 0.70626 1.03006 0.66628
 C893 C 0.65536 1.02333 0.73552
 C894 C 0.77103 0.92303 0.75306
 C895 C 0.82541 0.98188 0.74958
 C896 C 0.77588 0.97981 0.81774
 H897 H 0.79740 1.02041 0.72004
 H898 H 0.73773 1.01121 0.80339
 H899 H 0.69719 1.04200 0.71521
 H900 H 0.72845 0.94545 0.72667
 H901 H 0.75602 0.95654 0.67365
 H902 H 0.71160 0.94874 0.68483
 H903 H 0.76868 1.04364 0.81256
 H904 H 0.73118 1.06623 0.79646
 H905 H 0.80821 0.96942 0.68236
 H906 H 0.77114 1.05474 0.66544
 H907 H 0.70851 0.97867 0.81783
 H908 H 0.67577 1.00889 0.79647
 H909 H 0.78127 1.07516 0.72876
 H910 H 0.81705 1.04654 0.74937
 H911 H 0.66809 0.95986 0.73711
 H912 H 0.69898 0.93228 0.75959
 O913 O 0.74618 0.56760 0.21735
 O914 O 0.79112 0.56360 0.20919
 O915 O 0.71189 0.49497 0.18609
 O916 O 0.71275 0.45141 0.19455
 O917 O 0.68966 0.52502 0.26513
 O918 O 0.71032 0.52168 0.30759
 O919 O 0.80045 0.42946 0.23441
 O920 O 0.78375 0.43965 0.19242
 O921 O 0.83742 0.49463 0.26633
 O922 O 0.82711 0.54313 0.26654
 O923 O 0.78079 0.45912 0.31384
 O924 O 0.73496 0.45386 0.31544
 O925 O 0.77895 0.42555 0.27453
 O926 O 0.72650 0.43107 0.28273
 O927 O 0.81010 0.49349 0.30784
 O928 O 0.80297 0.54274 0.29941
 O929 O 0.83202 0.46520 0.23255
 O930 O 0.81262 0.47808 0.18738
 O931 O 0.72406 0.56379 0.25716
 O932 O 0.73929 0.55179 0.30223
 O933 O 0.68338 0.49556 0.23149
 O934 O 0.69777 0.44669 0.23321
 O935 O 0.73984 0.53035 0.17935
 O936 O 0.79048 0.52975 0.17919
 Zr937 Zr 0.76524 0.53030 0.21353
 O938 O 0.79791 0.50849 0.22954
 Zr939 Zr 0.72223 0.48005 0.22374
 O940 O 0.75342 0.45563 0.23817
 Zr941 Zr 0.73147 0.52482 0.27093
 O942 O 0.76170 0.50160 0.28875
 Zr943 Zr 0.79085 0.46806 0.22264
 O944 O 0.75916 0.48978 0.20484
 Zr945 Zr 0.79900 0.51165 0.27140
 O946 O 0.76888 0.53668 0.25507
 Zr947 Zr 0.75644 0.46106 0.27955
 O948 O 0.72349 0.48404 0.26547
 O949 O 0.72800 0.52040 0.22985
 O950 O 0.79383 0.47140 0.26399
 C951 C 0.73099 0.57687 0.23602
 C952 C 0.72069 0.51459 0.17201
 C953 C 0.67472 0.51302 0.24816
 C954 C 0.79470 0.41676 0.25598
 C955 C 0.84617 0.47619 0.25091
 C956 C 0.80072 0.47359 0.32131
 H957 H 0.81512 0.51422 0.22125
 H958 H 0.76123 0.50471 0.30824
 H959 H 0.71361 0.53128 0.22165
 H960 H 0.74967 0.43689 0.23351
 H961 H 0.77393 0.44898 0.17796
 H962 H 0.72986 0.44243 0.19006
 H963 H 0.79139 0.53826 0.31495
 H964 H 0.75433 0.56335 0.29616
 H965 H 0.82622 0.46397 0.18445
 H966 H 0.78399 0.54336 0.16631
 H967 H 0.73156 0.47144 0.32351
 H968 H 0.70240 0.50358 0.30820
 H969 H 0.79910 0.56665 0.22699
 H970 H 0.83574 0.54132 0.24881
 H971 H 0.68913 0.45028 0.25067
 H972 H 0.73083 0.41704 0.26964
 O973 O 0.49687 0.19570 0.69246
 O974 O 0.45239 0.20306 0.70342
 O975 O 0.52916 0.26932 0.66654
 O976 O 0.52456 0.31164 0.68114
 O977 O 0.57343 0.22737 0.72296
 O978 O 0.57039 0.21565 0.76731
 O979 O 0.46924 0.32445 0.76168
 O980 O 0.46489 0.32628 0.71643
 O981 O 0.43909 0.24911 0.78625
 O982 O 0.44712 0.20457 0.77551
 O983 O 0.51099 0.27944 0.81507
 O984 O 0.55828 0.27753 0.79873
 O985 O 0.50727 0.31903 0.78635
 O986 O 0.55562 0.30981 0.77457
 O987 O 0.48136 0.24493 0.81497
 O988 O 0.48293 0.19781 0.79334
 O989 O 0.43341 0.28750 0.76272
 O990 O 0.43404 0.28984 0.71280
 O991 O 0.53374 0.18858 0.71848
 O992 O 0.53907 0.18860 0.76752
 O993 O 0.56930 0.26596 0.69936
 O994 O 0.55706 0.31134 0.71134
 O995 O 0.49489 0.23929 0.66447
 O996 O 0.44738 0.24346 0.68358
 Zr997 Zr 0.48270 0.23275 0.70478
 O998 O 0.46151 0.24895 0.73745
 Zr999 Zr 0.53004 0.27892 0.70730
 O1000 O 0.50998 0.29829 0.73867
 Zr1001 Zr 0.53646 0.22295 0.74303
 O1002 O 0.51836 0.24065 0.77669
 Zr1003 Zr 0.46831 0.29011 0.73806
 O1004 O 0.48795 0.27421 0.70383
 Zr1005 Zr 0.47671 0.23494 0.77413
 O1006 O 0.49491 0.21540 0.74139
 Zr1007 Zr 0.52329 0.28223 0.77507
 O1008 O 0.54498 0.26415 0.74377
 O1009 O 0.52419 0.23802 0.70650
 O1010 O 0.48181 0.27598 0.77486
 C1011 C 0.51684 0.18151 0.70023
 C1012 C 0.51383 0.25339 0.65363
 C1013 C 0.58279 0.24584 0.70761
 C1014 C 0.48638 0.33222 0.77920
 C1015 C 0.42550 0.26983 0.77989
 C1016 C 0.49469 0.26341 0.82686
 H1017 H 0.44209 0.24492 0.73555
 H1018 H 0.52582 0.23289 0.79326
 H1019 H 0.53434 0.22927 0.69197
 H1020 H 0.51350 0.31761 0.73717
 H1021 H 0.46801 0.32196 0.69739
 H1022 H 0.51320 0.32462 0.69071
 H1023 H 0.49793 0.19991 0.80612
 H1024 H 0.52185 0.17883 0.76556
 H1025 H 0.42146 0.30377 0.71909
 H1026 H 0.44730 0.23386 0.66633
 H1027 H 0.55664 0.26056 0.80874
 H1028 H 0.57621 0.23325 0.77396
 H1029 H 0.45459 0.19200 0.71970
 H1030 H 0.43598 0.20653 0.75928
 H1031 H 0.57019 0.30634 0.72532
 H1032 H 0.55010 0.32533 0.76364
 O1033 O 0.25233 0.79574 0.45087
 O1034 O 0.20927 0.78426 0.46241
 O1035 O 0.28674 0.83136 0.51971
 O1036 O 0.28896 0.82092 0.56352
 O1037 O 0.33163 0.77254 0.47953
 O1038 O 0.33011 0.72634 0.47648
 O1039 O 0.23452 0.74129 0.58926
 O1040 O 0.23025 0.78644 0.58672
 O1041 O 0.20136 0.70866 0.52086
 O1042 O 0.20648 0.71536 0.47325
 O1043 O 0.27674 0.68466 0.54726
 O1044 O 0.32249 0.70229 0.54233
 O1045 O 0.27301 0.71720 0.58479
 O1046 O 0.32041 0.72978 0.57149
 O1047 O 0.24396 0.68084 0.51595
 O1048 O 0.24092 0.69583 0.46747
 O1049 O 0.19626 0.73753 0.55522
 O1050 O 0.19731 0.78699 0.55187
 O1051 O 0.28930 0.76967 0.44489
 O1052 O 0.29764 0.72213 0.45096
 O1053 O 0.32898 0.80043 0.51498
 O1054 O 0.32135 0.79169 0.56333
 O1055 O 0.25085 0.82852 0.49176
 O1056 O 0.20522 0.80861 0.50017
 Zr1057 Zr 0.24098 0.78768 0.49037
 O1058 O 0.22183 0.75717 0.51230
 Zr1059 Zr 0.29152 0.79197 0.53319
 O1060 O 0.27352 0.76281 0.55795
 Zr1061 Zr 0.29570 0.75037 0.48202
 O1062 O 0.27948 0.71889 0.50501
 Zr1063 Zr 0.23144 0.76162 0.55273
 O1064 O 0.24906 0.79378 0.53107
 Zr1065 Zr 0.23740 0.71984 0.50189
 O1066 O 0.25372 0.74998 0.47705
 Zr1067 Zr 0.28693 0.72520 0.54582
 O1068 O 0.30680 0.75456 0.52240
 O1069 O 0.28282 0.78795 0.49291
 O1070 O 0.24509 0.72385 0.54247
 C1071 C 0.27136 0.78620 0.43644
 C1072 C 0.26950 0.84167 0.50367
 C1073 C 0.34126 0.79085 0.49454
 C1074 C 0.25234 0.72498 0.59810
 C1075 C 0.18818 0.71792 0.54082
 C1076 C 0.25954 0.67113 0.53396
 H1077 H 0.20216 0.75827 0.50942
 H1078 H 0.28701 0.70183 0.49880
 H1079 H 0.29139 0.80187 0.48164
 H1080 H 0.27807 0.76646 0.57679
 H1081 H 0.23306 0.80487 0.58015
 H1082 H 0.27780 0.81312 0.57799
 H1083 H 0.25791 0.68566 0.46888
 H1084 H 0.27949 0.72141 0.44285
 H1085 H 0.18563 0.78240 0.56737
 H1086 H 0.20353 0.82417 0.48798
 H1087 H 0.32166 0.69260 0.52523
 H1088 H 0.33861 0.72455 0.49426
 H1089 H 0.21122 0.76661 0.45398
 H1090 H 0.19320 0.72969 0.47622
 H1091 H 0.33477 0.77807 0.55827
 H1092 H 0.31532 0.74244 0.58567
 O1093 O 0.23088 0.27108 0.92529
 O1094 O 0.18744 0.26191 0.94278
 O1095 O 0.27585 0.30401 0.98706
 O1096 O 0.28456 0.29180 1.03288
 O1097 O 0.30913 0.23843 0.94436
 O1098 O 0.30117 0.19288 0.94138
 O1099 O 0.22583 0.21852 1.06652
 O1100 O 0.22704 0.26393 1.06449
 O1101 O 0.18103 0.18940 1.00504
 O1102 O 0.17888 0.19424 0.95801
 O1103 O 0.25823 0.15893 1.01963
 O1104 O 0.30431 0.17406 1.00836
 O1105 O 0.26038 0.19054 1.05674
 O1106 O 0.30710 0.20062 1.03864
 O1107 O 0.21897 0.15824 0.99647
 O1108 O 0.21171 0.17225 0.94675
 O1109 O 0.18377 0.21942 1.03866
 O1110 O 0.19045 0.26966 1.03401
 O1111 O 0.26509 0.24254 0.91569
 O1112 O 0.26442 0.19341 0.92100
 O1113 O 0.31525 0.26831 0.97773
 O1114 O 0.31374 0.26331 1.02648
 O1115 O 0.23632 0.30356 0.96424
 O1116 O 0.19098 0.28831 0.97976
 Zr1117 Zr 0.22290 0.26382 0.96612
 O1118 O 0.20449 0.23584 0.99201
 Zr1119 Zr 0.27962 0.26446 1.00134
 O1120 O 0.26289 0.23746 1.02946
 Zr1121 Zr 0.27162 0.22126 0.95166
 O1122 O 0.25641 0.19193 0.97782
 Zr1123 Zr 0.22052 0.23998 1.03052
 O1124 O 0.23752 0.26994 1.00515
 Zr1125 Zr 0.21462 0.19696 0.98072
 O1126 O 0.22957 0.22483 0.95247
 Zr1127 Zr 0.27075 0.19860 1.01669
 O1128 O 0.28931 0.22545 0.98968
 O1129 O 0.26453 0.26014 0.96317
 O1130 O 0.22898 0.20114 1.01934
 C1131 C 0.24873 0.26141 0.90935
 C1132 C 0.25749 0.31542 0.97295
 C1133 C 0.32313 0.25594 0.95657
 C1134 C 0.24215 0.19953 1.07257
 C1135 C 0.17208 0.20000 1.02654
 C1136 C 0.23688 0.14726 1.01140
 H1137 H 0.18477 0.23873 0.99205
 H1138 H 0.26132 0.17411 0.97119
 H1139 H 0.27321 0.27309 0.95087
 H1140 H 0.27038 0.24094 1.04738
 H1141 H 0.23334 0.28139 1.05769
 H1142 H 0.26716 0.30113 1.03503
 H1143 H 0.22627 0.15889 0.94778
 H1144 H 0.24584 0.19650 0.91456
 H1145 H 0.17980 0.26575 1.05039
 H1146 H 0.18856 0.30317 0.96685
 H1147 H 0.29968 0.16293 0.99280
 H1148 H 0.31262 0.19056 0.95737
 H1149 H 0.18823 0.24508 0.93266
 H1150 H 0.16940 0.21141 0.95975
 H1151 H 0.32365 0.24687 1.02199
 H1152 H 0.30442 0.21309 1.05361
 N1153 N 0.30491 0.38740 0.75035
 N1154 N 0.31347 0.36371 0.75817
 C1155 C 0.29968 0.35747 0.78060
 C1156 C 0.28235 0.37812 0.78641
 N1157 N 0.28633 0.39641 0.76702
 H1158 H 0.26912 0.38014 0.80352
 N1159 N 0.29524 -0.15027 0.23859
 N1160 N 0.30619 -0.17041 0.25183
 C1161 C 0.29357 -0.17174 0.27572
 C1162 C 0.27428 -0.15211 0.27660
 N1163 N 0.27607 -0.13909 0.25314
 H1164 H 0.26167 -0.14654 0.29337
 N1165 N 0.80538 0.88957 0.74593
 N1166 N 0.81431 0.86731 0.75701
 C1167 C 0.79705 0.86095 0.77697
 C1168 C 0.77707 0.88009 0.77773
 N1169 N 0.78314 0.89763 0.75808
 H1170 H 0.76070 0.88188 0.79198
 N1171 N 0.48796 0.85096 0.31712
 N1172 N 0.47928 0.87535 0.32208
 C1173 C 0.45788 0.87957 0.30611
 C1174 C 0.45358 0.85680 0.29124
 N1175 N 0.47282 0.83947 0.29872
 H1176 H 0.43841 0.85339 0.27614
 N1177 N -0.01072 0.87539 0.82812
 N1178 N -0.02158 0.89857 0.83441
 C1179 C -0.04091 0.90345 0.81616
 C1180 C -0.04174 0.88257 0.79857
 N1181 N -0.02264 0.86549 0.80676
 H1182 H -0.05523 0.87978 0.78186
 N1183 N -0.02143 -0.10597 -0.01680
 N1184 N -0.02491 -0.12959 -0.02764
 C1185 C -0.05146 -0.13242 -0.03246
 C1186 C -0.06440 -0.10948 -0.02371
 N1187 N -0.04471 -0.09349 -0.01418
 H1188 H -0.08521 -0.10383 -0.02674
 N1189 N 0.01532 0.39518 0.44494
 N1190 N 0.00763 0.37106 0.43766
 C1191 C -0.01504 0.36544 0.45157
 C1192 C -0.02099 0.38667 0.46773
 N1193 N -0.00157 0.40476 0.46297
 H1194 H -0.03823 0.38918 0.48080
 N1195 N 0.50308 -0.10581 0.41526
 N1196 N 0.49630 -0.13104 0.41134
 C1197 C 0.47656 -0.13677 0.42911
 C1198 C 0.47143 -0.11445 0.44400
 N1199 N 0.48833 -0.09562 0.43476
 H1200 H 0.45674 -0.11203 0.45986
 N1201 N 0.44034 0.37602 -0.00938
 N1202 N 0.43110 0.35397 -0.02025
 C1203 C 0.44769 0.34797 -0.04072
 C1204 C 0.46766 0.36741 -0.04215
 N1205 N 0.46216 0.38453 -0.02212
 H1206 H 0.48395 0.36929 -0.05650
 N1207 N 0.75756 0.38620 0.49497
 N1208 N 0.76701 0.40925 0.48600
 C1209 C 0.77755 0.40499 0.46148
 C1210 C 0.77443 0.37830 0.45585
 N1211 N 0.76177 0.36741 0.47713
 H1212 H 0.78388 0.36728 0.43984
 N1213 N 0.72760 0.86690 -0.06228
 N1214 N 0.73562 0.89058 -0.07090
 C1215 C 0.75522 0.89850 -0.05417
 C1216 C 0.75889 0.87912 -0.03490
 N1217 N 0.74146 0.85962 -0.04089
 H1218 H 0.77440 0.87812 -0.01976
 N1219 N 0.75776 0.30922 0.37858
 N1220 N 0.76829 0.31590 0.35510
 C1221 C 0.79180 0.30266 0.35297
 C1222 C 0.79545 0.28771 0.37571
 N1223 N 0.77385 0.29240 0.39120
 H1224 H 0.81271 0.27569 0.38107
 N1225 N 0.73065 0.80480 -0.12706
 N1226 N 0.74231 0.81599 -0.14829
 C1227 C 0.76636 0.80393 -0.15159
 C1228 C 0.76879 0.78465 -0.13194
 N1229 N 0.74615 0.78582 -0.11701
 H1230 H 0.78620 0.77241 -0.12768
 N1231 N 0.32332 0.48122 0.86494
 N1232 N 0.33079 0.47155 0.88841
 C1233 C 0.31271 0.45260 0.89519
 C1234 C 0.29382 0.45084 0.87491
 N1235 N 0.30125 0.46912 0.85644
 H1236 H 0.27634 0.43796 0.87391
 N1237 N 0.25165 -0.08669 0.35182
 N1238 N 0.25992 -0.08973 0.37669
 C1239 C 0.28056 -0.07270 0.38009
 C1240 C 0.28483 -0.05895 0.35627
 N1241 N 0.26620 -0.06837 0.33918
 H1242 H 0.29956 -0.04356 0.35196
 N1243 N -0.09151 0.00597 -0.10756
 N1244 N -0.09582 -0.00286 -0.13202
 C1245 C -0.07800 -0.02261 -0.13606
 C1246 C -0.06253 -0.02566 -0.11333
 N1247 N -0.07170 -0.00744 -0.09606
 H1248 H -0.04651 -0.03977 -0.10961
 N1249 N -0.05696 0.50645 0.38706
 N1250 N -0.06436 0.49570 0.36409
 C1251 C -0.04899 0.47390 0.36052
 C1252 C -0.03164 0.47179 0.38204
 N1253 N -0.03727 0.49250 0.39810
 H1254 H -0.01700 0.45635 0.38605
 N1255 N 0.44086 0.00687 0.35795
 N1256 N 0.42995 -0.00716 0.33840
 C1257 C 0.44354 -0.03032 0.33722
 C1258 C 0.46341 -0.02987 0.35645
 N1259 N 0.46110 -0.00632 0.36893
 H1260 H 0.47674 -0.04592 0.36222
 N1261 N 0.42450 0.48715 -0.10358
 N1262 N 0.41772 0.48165 -0.12849
 C1263 C 0.43487 0.46264 -0.13676
 C1264 C 0.45226 0.45650 -0.11625
 N1265 N 0.44508 0.47224 -0.09595
 H1266 H 0.46871 0.44238 -0.11618
 N1267 N 0.46073 0.73620 0.37813
 N1268 N 0.45179 0.74890 0.39951
 C1269 C 0.46311 0.77329 0.39882
 C1270 C 0.47951 0.77508 0.37656
 N1271 N 0.47744 0.75155 0.36415
 H1272 H 0.48996 0.79250 0.36891
 N1273 N 0.00477 0.78955 0.88759
 N1274 N -0.00623 0.80141 0.90847
 C1275 C -0.03310 0.79896 0.90575
 C1276 C -0.03824 0.78461 0.88278
 N1277 N -0.01401 0.77937 0.87188
 H1278 H -0.05751 0.78153 0.87316
 N1279 N 0.38619 0.73603 0.32264
 N1280 N 0.36205 0.74444 0.33009
 C1281 C 0.35496 0.76358 0.31250
 C1282 C 0.37541 0.76684 0.29415
 N1283 N 0.39452 0.74934 0.30122
 H1284 H 0.37673 0.78114 0.27791
 N1285 N -0.11350 0.76410 0.82065
 N1286 N -0.13865 0.77093 0.82624
 C1287 C -0.14467 0.79171 0.81022
 C1288 C -0.12223 0.79754 0.79462
 N1289 N -0.10324 0.77980 0.80180
 H1290 H -0.11997 0.81302 0.77962
 N1291 N 0.86664 0.32785 0.48845
 N1292 N 0.89158 0.33487 0.48225
 C1293 C 0.90127 0.31603 0.46585
 C1294 C 0.88126 0.29712 0.46195
 N1295 N 0.85997 0.30538 0.47649
 H1296 H 0.88216 0.27923 0.45007
 N1297 N 0.84262 0.79033 -0.08542
 N1298 N 0.86590 0.80135 -0.09218
 C1299 C 0.87493 0.81461 -0.07063
 C1300 C 0.85636 0.81125 -0.05021
 N1301 N 0.83667 0.79579 -0.06028
 H1302 H 0.85830 0.81704 -0.02951
 N1303 N -0.15032 -0.04540 0.00966
 N1304 N -0.17199 -0.05600 -0.00141
 C1305 C -0.17466 -0.04411 -0.02547
 C1306 C -0.15432 -0.02562 -0.02871
 N1307 N -0.13954 -0.02719 -0.00641
 H1308 H -0.14960 -0.01364 -0.04620
 N1309 N -0.11064 0.44707 0.50878
 N1310 N -0.13407 0.43838 0.49968
 C1311 C -0.13814 0.45077 0.47606
 C1312 C -0.11666 0.46747 0.47096
 N1313 N -0.10002 0.46456 0.49186
 H1314 H -0.11289 0.47955 0.45333
 N1315 N 0.38905 -0.01842 0.41856
 N1316 N 0.36627 -0.02954 0.41097
 C1317 C 0.35755 -0.04471 0.43154
 C1318 C 0.37612 -0.04279 0.45222
 N1319 N 0.39538 -0.02599 0.44312
 H1320 H 0.37551 -0.05216 0.47175
 N1321 N 0.38292 0.43020 0.01297
 N1322 N 0.36076 0.42018 0.00218
 C1323 C 0.35643 0.43387 -0.02069
 C1324 C 0.37647 0.45289 -0.02336
 N1325 N 0.39257 0.44993 -0.00196
 H1326 H 0.37992 0.46644 -0.03996
 N1327 N 0.36821 0.45444 0.74271
 N1328 N 0.39094 0.44440 0.75219
 C1329 C 0.39466 0.45542 0.77637
 C1330 C 0.37380 0.47267 0.78134
 N1331 N 0.35770 0.47145 0.75993
 H1332 H 0.36952 0.48323 0.79966
 N1333 N 0.35652 -0.08025 0.23869
 N1334 N 0.38028 -0.08611 0.24904
 C1335 C 0.38380 -0.06991 0.27007
 C1336 C 0.36133 -0.05381 0.27235
 N1337 N 0.34477 -0.06100 0.25235
 H1338 H 0.35693 -0.03932 0.28766
 N1339 N 0.12511 0.55685 0.77310
 N1340 N 0.10408 0.56813 0.76137
 C1341 C 0.10074 0.55578 0.73777
 C1342 C 0.12016 0.53636 0.73558
 N1343 N 0.13502 0.53767 0.75797
 H1344 H 0.12467 0.52435 0.71826
 N1345 N 0.10597 -0.02385 0.19821
 N1346 N 0.08509 -0.00931 0.19069
 C1347 C 0.08718 0.01402 0.20364
 C1348 C 0.10960 0.01317 0.21978
 N1349 N 0.12087 -0.01072 0.21563
 H1350 H 0.11835 0.02924 0.23119
 N1351 N 0.61370 0.74206 0.18525
 N1352 N 0.63800 0.73489 0.17705
 C1353 C 0.64474 0.71310 0.19133
 C1354 C 0.62374 0.70705 0.20861
 N1355 N 0.60477 0.72564 0.20412
 H1356 H 0.62219 0.69060 0.22262
 N1357 N 0.12503 0.76376 0.70272
 N1358 N 0.14938 0.75464 0.69702
 C1359 C 0.15279 0.73246 0.71193
 C1360 C 0.12983 0.72815 0.72689
 N1361 N 0.11301 0.74808 0.72050
 H1362 H 0.12541 0.71170 0.74032
 N1363 N 0.65002 0.17989 0.51936
 N1364 N 0.62513 0.17367 0.52658
 C1365 C 0.61534 0.19421 0.54084
 C1366 C 0.63538 0.21345 0.54227
 N1367 N 0.65663 0.20363 0.52848
 H1368 H 0.63422 0.23296 0.55121
 N1369 N 0.65121 0.70993 0.07709
 N1370 N 0.62718 0.70261 0.08588
 C1371 C 0.61417 0.69205 0.06492
 C1372 C 0.63104 0.69291 0.04285
 N1373 N 0.65393 0.70443 0.05140
 H1374 H 0.62620 0.68830 0.02232
 N1375 N 0.08709 0.07367 0.00472
 N1376 N 0.11304 0.07622 0.01034
 C1377 C 0.11843 0.05857 0.03003
 C1378 C 0.09497 0.04513 0.03640
 N1379 N 0.07593 0.05517 0.02018
 H1380 H 0.09199 0.02966 0.05129
 N1381 N 0.12019 0.57938 0.50420
 N1382 N 0.14395 0.58669 0.51377
 C1383 C 0.14811 0.57180 0.53590
 C1384 C 0.12641 0.55515 0.53961
 N1385 N 0.10950 0.56046 0.51946
 H1386 H 0.12296 0.54099 0.55568
 N1387 N 0.62215 0.06108 0.47880
 N1388 N 0.64612 0.06798 0.48799
 C1389 C 0.64811 0.05745 0.51274
 C1390 C 0.62457 0.04368 0.51845
 N1391 N 0.60895 0.04654 0.49673
 H1392 H 0.61875 0.03399 0.53699
 N1393 N 0.62231 0.54618 -0.01213
 N1394 N 0.64484 0.55643 -0.00237
 C1395 C 0.64945 0.54408 0.02118
 C1396 C 0.62907 0.52563 0.02538
 N1397 N 0.61257 0.52756 0.00413
 H1398 H 0.62558 0.51343 0.04298
 N1399 N -0.01114 0.07112 0.12591
 N1400 N 0.00094 0.07638 0.14871
 C1401 C 0.01864 0.05656 0.15291
 C1402 C 0.01717 0.03885 0.13197
 N1403 N -0.00156 0.04892 0.11549
 H1404 H 0.02939 0.02142 0.12832
 N1405 N 0.06996 0.51346 0.61959
 N1406 N 0.07683 0.52176 0.64368
 C1407 C 0.06074 0.54250 0.64947
 C1408 C 0.04359 0.54664 0.62808
 N1409 N 0.05004 0.52805 0.60989
 H1410 H 0.02840 0.56189 0.62576
 N1411 N 0.55709 0.00597 0.59548
 N1412 N 0.56452 0.01417 0.61945
 C1413 C 0.55115 0.03697 0.62417
 C1414 C 0.53496 0.04241 0.60224
 N1415 N 0.53934 0.02252 0.58482
 H1416 H 0.52199 0.05940 0.59894
 N1417 N 0.57659 0.49262 0.11138
 N1418 N 0.58403 0.50040 0.13550
 C1419 C 0.56799 0.52100 0.14197
 C1420 C 0.55054 0.52568 0.12116
 N1421 N 0.55656 0.50758 0.10250
 H1422 H 0.53509 0.54079 0.11967
 N1423 N 0.17308 0.52960 0.65399
 N1424 N 0.16781 0.53864 0.62969
 C1425 C 0.18872 0.55429 0.62234
 C1426 C 0.20704 0.55476 0.64304
 N1427 N 0.19646 0.53904 0.66236
 H1428 H 0.22637 0.56478 0.64370
 N1429 N 0.16460 -0.01142 0.12488
 N1430 N 0.15551 0.00089 0.10334
 C1431 C 0.17443 0.01885 0.09620
 C1432 C 0.19560 0.01723 0.11418
 N1433 N 0.18848 -0.00193 0.13180
 H1434 H 0.21370 0.02929 0.11496
 N1435 N 0.76123 0.19614 0.61724
 N1436 N 0.75375 0.19072 0.64209
 C1437 C 0.73202 0.20596 0.64695
 C1438 C 0.72617 0.22068 0.62450
 N1439 N 0.74477 0.21385 0.60643
 H1440 H 0.70944 0.23409 0.62122
 N1441 N 0.76121 0.69820 0.11330
 N1442 N 0.75236 0.68807 0.13625
 C1443 C 0.72817 0.69924 0.14105
 C1444 C 0.72255 0.71672 0.12043
 N1445 N 0.74366 0.71549 0.10353
 H1446 H 0.70418 0.72785 0.11716
 N1447 N 0.51939 0.74884 0.12152
 N1448 N 0.52863 0.73931 0.09870
 C1449 C 0.52598 0.71260 0.09990
 C1450 C 0.51490 0.70602 0.12438
 N1451 N 0.51110 0.72917 0.13722
 H1452 H 0.51362 0.68642 0.13343
 N1453 N 0.04841 0.77213 0.63494
 N1454 N 0.05994 0.76059 0.61414
 C1455 C 0.04929 0.73600 0.61264
 C1456 C 0.03058 0.73291 0.63300
 N1457 N 0.03071 0.75592 0.64656
 H1458 H 0.02019 0.71484 0.63902
 N1459 N 0.50882 0.62499 0.18622
 N1460 N 0.51825 0.60144 0.17931
 C1461 C 0.53938 0.59634 0.19537
 C1462 C 0.54278 0.61764 0.21236
 N1463 N 0.52327 0.63509 0.20588
 H1464 H 0.55813 0.62044 0.22740
 N1465 N 0.01231 0.65439 0.69013
 N1466 N 0.01989 0.63027 0.68297
 C1467 C 0.03888 0.62246 0.70046
 C1468 C 0.04289 0.64275 0.71866
 N1469 N 0.02585 0.66232 0.71140
 H1470 H 0.05678 0.64329 0.73527
 N1471 N -0.02736 0.14244 0.05570
 N1472 N -0.01350 0.16307 0.06473
 C1473 C 0.01182 0.16098 0.05497
 C1474 C 0.01287 0.13850 0.03919
 N1475 N -0.01196 0.12751 0.04026
 H1476 H 0.03041 0.12981 0.02975
 N1477 N 0.00019 0.62517 0.56964
 N1478 N 0.00973 0.64787 0.57905
 C1479 C 0.03334 0.65247 0.56639
 C1480 C 0.03792 0.63202 0.54870
 N1481 N 0.01673 0.61546 0.55135
 H1482 H 0.05534 0.62892 0.53600
 N1483 N 0.49415 0.12457 0.53916
 N1484 N 0.50218 0.14773 0.54870
 C1485 C 0.52739 0.15179 0.53940
 C1486 C 0.53460 0.13047 0.52366
 N1487 N 0.51325 0.11397 0.52412
 H1488 H 0.55373 0.12677 0.51391
 N1489 N 0.53491 0.61519 0.00107
 N1490 N 0.54170 0.63915 0.00944
 C1491 C 0.53725 0.63940 0.03597
 C1492 C 0.52778 0.61463 0.04383
 N1493 N 0.52668 0.60013 0.02134
 H1494 H 0.52444 0.60723 0.06395
 N1495 N 0.75132 0.12511 0.49842
 N1496 N 0.73825 0.10284 0.50405
 C1497 C 0.73034 0.10417 0.52977
 C1498 C 0.73929 0.12830 0.53988
 N1499 N 0.75212 0.14089 0.51945
 H1500 H 0.73285 0.13762 0.55827
 N1501 N 0.75660 0.63155 0.04991
 N1502 N 0.74782 0.60821 0.05892
 C1503 C 0.72507 0.60258 0.04540
 C1504 C 0.72017 0.62320 0.02775
 N1505 N 0.74029 0.64089 0.03122
 H1506 H 0.70289 0.62583 0.01487
 N1507 N 0.19438 0.62439 0.77140
 N1508 N 0.18801 0.64875 0.76334
 C1509 C 0.20264 0.65357 0.74107
 C1510 C 0.21811 0.63158 0.73567
 N1511 N 0.21235 0.61383 0.75499
 H1512 H 0.23124 0.62832 0.71867
 N1513 N 0.18305 0.08721 0.23813
 N1514 N 0.17975 0.11262 0.23181
 C1515 C 0.19479 0.11741 0.20978
 C1516 C 0.20752 0.09392 0.20275
 N1517 N 0.19959 0.07559 0.22100
 H1518 H 0.22101 0.09048 0.18608
 N1519 N 0.69078 1.12379 0.75127
 N1520 N 0.68603 1.14889 0.74468
 C1521 C 0.70156 1.15421 0.72316
 C1522 C 0.71586 1.13175 0.71660
 N1523 N 0.70846 1.11323 0.73456
 H1524 H 0.72919 1.12876 0.69970
 N1525 N 0.70191 0.61306 0.24964
 N1526 N 0.69278 0.63609 0.24052
 C1527 C 0.70537 0.64079 0.21705
 C1528 C 0.72263 0.61984 0.21200
 N1529 N 0.71978 0.60295 0.23285
 H1530 H 0.73501 0.61663 0.19446
 N1531 N 0.50661 0.14978 0.66543
 N1532 N 0.51363 0.12579 0.65727
 C1533 C 0.53254 0.11694 0.67435
 C1534 C 0.53707 0.13642 0.69329
 N1535 N 0.52043 0.15658 0.68693
 H1536 H 0.55095 0.13597 0.70992
 N1537 N 1.08296 0.13494 0.24497
 N1538 N 1.08466 0.10979 0.23758
 C1539 C 1.06430 0.10568 0.22042
 C1540 C 1.05013 0.12912 0.21723
 N1541 N 1.06249 0.14686 0.23294
 H1542 H 1.03243 0.13275 0.20518
 N1543 N 0.26134 0.62463 0.52223
 N1544 N 0.24958 0.60220 0.53002
 C1545 C 0.23730 0.60706 0.55358
 C1546 C 0.24166 0.63338 0.55980
 N1547 N 0.25693 0.64353 0.53994
 H1548 H 0.23137 0.64493 0.57490
 N1549 N 0.24828 0.10764 1.03707
 N1550 N 0.23584 0.08648 1.04723
 C1551 C 0.21070 0.08666 1.03715
 C1552 C 0.20814 0.10823 1.02035
 N1553 N 0.23195 0.12086 1.02088
 H1554 H 0.19005 0.11534 1.01062
 N1555 N 0.26446 0.69617 0.63543
 N1556 N 0.25512 0.68944 0.65939
 C1557 C 0.23296 0.70434 0.66356
 C1558 C 0.22888 0.72030 0.64156
 N1559 N 0.24889 0.71457 0.62447
 H1560 H 0.21246 0.73398 0.63790
 N1561 N 0.24978 0.16270 1.10318
 N1562 N 0.24122 0.15355 1.12661
 C1563 C 0.22455 0.17212 1.13667
 C1564 C 0.22318 0.19307 1.11858
 N1565 N 0.23919 0.18631 1.09793
 H1566 H 0.21090 0.21081 1.11975
 N1567 N 0.68751 0.50385 0.13835
 N1568 N 0.67981 0.51129 0.11415
 C1569 C 0.69598 0.53161 0.10670
 C1570 C 0.71394 0.53652 0.12727
 N1571 N 0.70790 0.51869 0.14664
 H1572 H 0.72975 0.55138 0.12803
 N1573 N 0.66971 1.03050 0.63452
 N1574 N 0.66375 1.04015 0.61066
 C1575 C 0.68495 1.05501 0.60248
 C1576 C 0.70432 1.05421 0.62231
 N1577 N 0.69396 1.03853 0.64185
 H1578 H 0.72437 1.06277 0.62194
 N1579 N 0.50039 0.25025 0.60719
 N1580 N 0.50997 0.24055 0.58455
 C1581 C 0.53593 0.23365 0.58872
 C1582 C 0.54188 0.23941 0.61507
 N1583 N 0.51922 0.24980 0.62577
 H1584 H 0.55948 0.23330 0.62624
 N1585 N 1.01853 0.24953 0.13985
 N1586 N 1.01901 0.23891 0.11579
 C1587 C 1.04361 0.22818 0.11249
 C1588 C 1.05837 0.23273 0.13549
 N1589 N 1.04183 0.24607 0.15216
 H1590 H 1.07726 0.22357 0.14112
 N1591 N 0.62200 0.26087 0.68244
 N1592 N 0.64743 0.25393 0.67866
 C1593 C 0.65162 0.23226 0.69410
 C1594 C 0.62813 0.22587 0.70723
 N1595 N 0.61016 0.24410 0.69931
 H1596 H 0.62422 0.20918 0.72050
 N1597 N 1.14699 0.24751 0.20604
 N1598 N 1.16597 0.23389 0.19345
 C1599 C 1.16604 0.20925 0.20429
 C1600 C 1.14671 0.20830 0.22419
 N1601 N 1.13526 0.23256 0.22465
 H1602 H 1.14004 0.19105 0.23553
 N1603 N 0.15569 0.68239 0.53589
 N1604 N 0.13059 0.67620 0.54239
 C1605 C 0.12120 0.69602 0.55778
 C1606 C 0.14166 0.71466 0.56078
 N1607 N 0.16284 0.70529 0.54671
 H1608 H 0.14094 0.73340 0.57128
 N1609 N 0.13783 0.16577 1.02894
 N1610 N 0.11341 0.16147 1.03875
 C1611 C 0.10715 0.18264 1.05388
 C1612 C 0.12883 0.20023 1.05309
 N1613 N 0.14749 0.18889 1.03713
 H1614 H 0.13003 0.21999 1.06149
 N1615 N 0.63621 0.53918 0.26240
 N1616 N 0.61351 0.54848 0.25212
 C1617 C 0.61037 0.53646 0.22835
 C1618 C 0.63160 0.51927 0.22452
 N1619 N 0.64733 0.52159 0.24616
 H1620 H 0.63649 0.50822 0.20665
 N1621 N 0.61670 1.05075 0.74656
 N1622 N 0.59538 1.06105 0.73450
 C1623 C 0.59386 1.04967 0.71023
 C1624 C 0.61483 1.03182 0.70789
 N1625 N 0.62866 1.03314 0.73097
 H1626 H 0.62089 1.02095 0.69026
 N1627 N 0.88343 0.44598 0.24215
 N1628 N 0.90499 0.43659 0.25459
 C1629 C 0.90774 0.45077 0.27720
 C1630 C 0.88732 0.46934 0.27808
 N1631 N 0.87256 0.46571 0.25587
 H1632 H 0.88244 0.48268 0.29429
 N1633 N 0.86373 0.95282 0.74094
 N1634 N 0.88547 0.94404 0.75354
 C1635 C 0.88715 0.95779 0.77651
 C1636 C 0.86594 0.97540 0.77750
 N1637 N 0.85178 0.97170 0.75498
 H1638 H 0.86026 0.98824 0.79387
 N1639 N 0.39105 0.25622 0.81173
 N1640 N 0.36659 0.26297 0.81980
 C1641 C 0.35960 0.28467 0.80554
 C1642 C 0.38070 0.29115 0.78843
 N1643 N 0.39991 0.27284 0.79297
 H1644 H 0.38183 0.30729 0.77403
 N1645 N 0.90577 0.24968 0.31996
 N1646 N 0.88116 0.25834 0.32532
 C1647 C 0.87705 0.27988 0.30965
 C1648 C 0.89997 0.28423 0.29449
 N1649 N 0.91738 0.26496 0.30157
 H1650 H 0.90381 0.30011 0.28023
 N1651 N 0.37765 0.82280 0.49981
 N1652 N 0.40105 0.82920 0.48868
 C1653 C 0.40557 0.81143 0.46911
 C1654 C 0.38410 0.79393 0.46845
 N1655 N 0.36711 0.80180 0.48790
 H1656 H 0.38073 0.77773 0.45471
 N1657 N 0.35884 0.24677 0.92541
 N1658 N 0.38321 0.25494 0.91858
 C1659 C 0.38933 0.27533 0.93475
 C1660 C 0.36778 0.27953 0.95194
 N1661 N 0.34918 0.26115 0.94531
 H1662 H 0.36580 0.29429 0.96746
 N1663 N 0.83651 0.47816 0.35379
 N1664 N 0.84223 0.47108 0.37862
 C1665 C 0.82174 0.45563 0.38749
 C1666 C 0.80318 0.45327 0.36706
 N1667 N 0.81322 0.46771 0.34642
 H1668 H 0.78391 0.44311 0.36750
 N1669 N 0.80792 0.98721 0.85297
 N1670 N 0.81172 0.98116 0.87839
 C1671 C 0.79178 0.96426 0.88540
 C1672 C 0.77570 0.95976 0.86343
 N1673 N 0.78654 0.97455 0.84364
 H1674 H 0.75763 0.94773 0.86217
 N1675 N 0.25578 0.81197 0.39819
 N1676 N 0.26148 0.81527 0.37249
 C1677 C 0.28254 0.79925 0.36719
 C1678 C 0.28972 0.78614 0.39031
 N1679 N 0.27256 0.79465 0.40916
 H1680 H 0.30577 0.77187 0.39317
 N1681 N 0.23594 0.29272 0.87431
 N1682 N 0.24693 0.30454 0.85314
 C1683 C 0.27120 0.29314 0.84927
 C1684 C 0.27460 0.27371 0.86858
 N1685 N 0.25216 0.27408 0.88381
 H1686 H 0.29244 0.26194 0.87241
 N1687 N 0.49144 0.24697 0.87253
 N1688 N 0.48302 0.25535 0.89614
 C1689 C 0.47701 0.28147 0.89369
 C1690 C 0.48174 0.28870 0.86735
 N1691 N 0.49076 0.26668 0.85497
 H1692 H 0.47592 0.30702 0.85744
 N1693 N 0.97560 0.24419 0.38640
 N1694 N 0.96349 0.25492 0.40730
 C1695 C 0.97343 0.27975 0.40933
 C1696 C 0.99217 0.28390 0.38928
 N1697 N 0.99284 0.26123 0.37533
 H1698 H 1.00226 0.30231 0.38386
 N1699 N 0.49730 0.36600 0.81166
 N1700 N 0.48840 0.38933 0.81988
 C1701 C 0.46724 0.39555 0.80426
 C1702 C 0.46319 0.37532 0.78631
 N1703 N 0.48234 0.35726 0.79171
 H1704 H 0.44743 0.37345 0.77154
 N1705 N 1.00380 0.36185 0.33011
 N1706 N 0.99394 0.38551 0.33603
 C1707 C 0.97548 0.39140 0.31727
 C1708 C 0.97422 0.37027 0.29952
 N1709 N 0.99231 0.35225 0.30835
 H1710 H 0.96161 0.36827 0.28204
 N1711 N 0.25126 0.88497 0.49300
 N1712 N 0.25864 0.90618 0.47896
 C1713 C 0.28524 0.90384 0.47384
 C1714 C 0.29393 0.88032 0.48525
 N1715 N 0.27215 0.86921 0.49706
 H1716 H 0.31285 0.87029 0.48155
 N1717 N 0.24504 0.35507 0.94806
 N1718 N 0.25541 0.37829 0.94067
 C1719 C 0.27928 0.38063 0.95319
 C1720 C 0.28324 0.35804 0.96861
 N1721 N 0.26139 0.34257 0.96477
 H1722 H 0.30091 0.35269 0.98005
 N1723 N 0.82723 0.38247 0.24454
 N1724 N 0.83662 0.35974 0.25429
 C1725 C 0.82210 0.35442 0.27650
 C1726 C 0.80359 0.37447 0.28013
 N1727 N 0.80744 0.39156 0.25979
 H1728 H 0.78931 0.37681 0.29636
   
