data_POSCAR
  _audit_creation_date              2014-09-24
  _audit_creation_method            'ToBaCCo'
  _symmetry_space_group_name_H-M    'P1'
  _symmetry_Int_Tables_number       1
  _symmetry_cell_setting            triclinic
  loop_
  _symmetry_equiv_pos_as_xyz
 x,y,z
_cell_length_a 62.3506
_cell_length_b 35.6436
_cell_length_c 41.9796
_cell_angle_alpha 90.064200
_cell_angle_beta 90.027300
_cell_angle_gamma 90.075800
loop_
  _atom_site_label
  _atom_site_type_symbol
  _atom_site_fract_x
  _atom_site_fract_y
  _atom_site_fract_z
C1 C 0.00386 -0.00292 0.10319
 C2 C -0.00209 -0.00621 -0.10553
 C3 C -0.04793 -0.06384 0.05080
 C4 C -0.04791 0.05926 0.05028
 C5 C -0.05072 -0.06473 -0.04505
 C6 C 0.04852 -0.06043 -0.05508
 C7 C 0.04889 0.05441 -0.05568
 C8 C 0.05073 -0.06037 0.04821
 C9 C -0.05074 0.05761 -0.04697
 C10 C 0.05072 0.05614 0.04773
 O11 O -0.03137 -0.07277 -0.05415
 O12 O -0.05564 -0.03906 -0.02472
 O13 O -0.03136 0.06521 -0.05634
 O14 O -0.05560 0.03282 -0.02580
 O15 O 0.03122 0.06457 0.05516
 O16 O 0.05613 0.03194 0.02625
 O17 O -0.00173 0.02641 -0.09189
 O18 O -0.00222 -0.03733 -0.09005
 O19 O 0.00296 0.02933 0.08918
 O20 O 0.00307 -0.03459 0.08862
 O21 O 0.02863 -0.06906 -0.06071
 O22 O 0.05452 -0.03673 -0.03352
 O23 O -0.02810 -0.07216 0.05648
 O24 O -0.05413 -0.03804 0.03129
 O25 O 0.03124 -0.06887 0.05569
 O26 O 0.05613 -0.03636 0.02659
 O27 O 0.02895 0.06217 -0.06192
 O28 O 0.05481 0.03130 -0.03365
 O29 O 0.00210 0.10274 0.04717
 O30 O -0.00017 0.10138 -0.05130
 O31 O 0.00018 -0.10898 -0.04700
 O32 O 0.00190 -0.10750 0.04815
 O33 O -0.01842 -0.05230 0.00057
 O34 O -0.01810 0.04668 -0.00044
 O35 O 0.01855 -0.05192 -0.00157
 O36 O -0.01821 -0.00241 0.04291
 O37 O -0.05413 0.03345 0.03073
 O38 O -0.02808 0.06742 0.05614
 O39 O 0.02083 -0.00235 0.04073
 O40 O 0.01871 -0.00355 -0.04456
 O41 O 0.01827 0.04638 -0.00246
 O42 O -0.02043 -0.00354 -0.04214
 Zr43 Zr 0.00119 0.04414 0.04026
 Zr44 Zr -0.00092 -0.05015 -0.04163
 Zr45 Zr -0.03626 -0.00262 0.00147
 Zr46 Zr 0.00119 -0.04902 0.04050
 Zr47 Zr -0.00086 0.04299 -0.04327
 Zr48 Zr 0.03680 -0.00253 -0.00275
 H49 H 0.02729 -0.07508 -0.00204
 H50 H -0.02728 -0.00227 0.06225
 H51 H 0.02697 0.06960 -0.00317
 H52 H -0.03057 -0.00393 -0.06028
 H53 H 0.00037 0.11372 0.02569
 H54 H -0.00238 0.11293 -0.03012
 H55 H 0.00361 -0.11889 0.02682
 H56 H -0.00534 -0.11934 -0.02674
 C57 C 0.24950 0.24530 0.14526
 C58 C 0.25166 0.24626 0.35413
 C59 C 0.19892 0.30706 0.20282
 C60 C 0.20062 0.18410 0.20246
 C61 C 0.20029 0.30776 0.29971
 C62 C 0.29913 0.30734 0.30056
 C63 C 0.29999 0.19062 0.30034
 C64 C 0.29842 0.30667 0.19754
 C65 C 0.20149 0.18457 0.29947
 C66 C 0.29938 0.19070 0.19774
 O67 O 0.22001 0.31627 0.30605
 O68 O 0.19444 0.28175 0.27998
 O69 O 0.22127 0.17708 0.30615
 O70 O 0.19529 0.20986 0.27952
 O71 O 0.27970 0.18187 0.19138
 O72 O 0.30515 0.21484 0.21908
 O73 O 0.25153 0.21468 0.33935
 O74 O 0.25060 0.27859 0.34029
 O75 O 0.24929 0.21412 0.16064
 O76 O 0.24922 0.27782 0.15905
 O77 O 0.27943 0.31493 0.30759
 O78 O 0.30501 0.28354 0.27902
 O79 O 0.21837 0.31517 0.19408
 O80 O 0.19392 0.28177 0.22344
 O81 O 0.27861 0.31419 0.19064
 O82 O 0.30445 0.28332 0.21922
 O83 O 0.28047 0.18176 0.30731
 O84 O 0.30552 0.21488 0.27902
 O85 O 0.25116 0.14210 0.20167
 O86 O 0.25208 0.14218 0.29738
 O87 O 0.25008 0.35235 0.29881
 O88 O 0.24900 0.35211 0.20051
 O89 O 0.23095 0.29612 0.25010
 O90 O 0.23159 0.19731 0.25036
 O91 O 0.26741 0.29695 0.24933
 O92 O 0.22979 0.24648 0.20782
 O93 O 0.19467 0.20994 0.22222
 O94 O 0.22034 0.17617 0.19573
 O95 O 0.26903 0.24772 0.20687
 O96 O 0.26981 0.24795 0.29222
 O97 O 0.26863 0.19880 0.24965
 O98 O 0.23062 0.24679 0.29285
 Zr99 Zr 0.24985 0.20063 0.20897
 Zr100 Zr 0.24973 0.29381 0.29139
 Zr101 Zr 0.21310 0.24632 0.25077
 Zr102 Zr 0.24887 0.29359 0.20790
 Zr103 Zr 0.25054 0.20084 0.29101
 Zr104 Zr 0.28648 0.24861 0.24929
 H105 H 0.27585 0.32048 0.24917
 H106 H 0.22003 0.24602 0.18922
 H107 H 0.27750 0.17580 0.24948
 H108 H 0.22126 0.24653 0.31189
 H109 H 0.25313 0.13101 0.22304
 H110 H 0.24693 0.13116 0.27713
 H111 H 0.24625 0.36327 0.22170
 H112 H 0.24869 0.36354 0.27737
 C113 C 0.50382 -0.00457 0.10474
 C114 C 0.49632 -0.00568 -0.10335
 C115 C 0.55149 0.05784 0.04634
 C116 C 0.55132 -0.06513 0.04660
 C117 C 0.54919 0.05651 -0.05226
 C118 C 0.44928 0.05431 -0.04680
 C119 C 0.44917 -0.06149 -0.04587
 C120 C 0.45295 0.05537 0.05534
 C121 C 0.54866 -0.06476 -0.05135
 C122 C 0.45256 -0.06122 0.05597
 O123 O 0.52920 0.06453 -0.05808
 O124 O 0.55518 0.03159 -0.03169
 O125 O 0.52870 -0.07286 -0.05714
 O126 O 0.55477 -0.03962 -0.03106
 O127 O 0.47246 -0.06978 0.06111
 O128 O 0.44646 -0.03698 0.03496
 O129 O 0.49708 -0.03716 -0.08855
 O130 O 0.49734 0.02679 -0.08972
 O131 O 0.50364 -0.03616 0.09002
 O132 O 0.50323 0.02777 0.09091
 O133 O 0.46864 0.06225 -0.05611
 O134 O 0.44468 0.03086 -0.02446
 O135 O 0.53203 0.06612 0.05423
 O136 O 0.55677 0.03225 0.02596
 O137 O 0.47281 0.06353 0.06099
 O138 O 0.44662 0.03130 0.03437
 O139 O 0.46844 -0.06975 -0.05517
 O140 O 0.44456 -0.03771 -0.02382
 O141 O 0.50091 -0.10861 0.04952
 O142 O 0.49792 -0.10941 -0.04599
 O143 O 0.49855 0.10123 -0.04840
 O144 O 0.50156 0.10156 0.04969
 O145 O 0.51911 0.04582 -0.00073
 O146 O 0.51914 -0.05319 -0.00044
 O147 O 0.48268 0.04572 0.00179
 O148 O 0.52138 -0.00360 0.04185
 O149 O 0.55666 -0.03896 0.02669
 O150 O 0.53167 -0.07388 0.05325
 O151 O 0.48238 -0.00342 0.04508
 O152 O 0.47968 -0.00384 -0.04037
 O153 O 0.48218 -0.05276 0.00214
 O154 O 0.51874 -0.00403 -0.04286
 Zr155 Zr 0.50175 -0.05014 0.04183
 Zr156 Zr 0.49941 0.04270 -0.04119
 Zr157 Zr 0.53729 -0.00360 -0.00156
 Zr158 Zr 0.50198 0.04305 0.04216
 Zr159 Zr 0.49919 -0.05063 -0.04028
 Zr160 Zr 0.46425 -0.00325 0.00363
 H161 H 0.47405 0.06900 0.00232
 H162 H 0.53156 -0.00362 0.05993
 H163 H 0.47344 -0.07593 0.00290
 H164 H 0.52765 -0.00426 -0.06235
 H165 H 0.49905 -0.11998 0.02819
 H166 H 0.50447 -0.11991 -0.02648
 H167 H 0.50179 0.11281 0.02816
 H168 H 0.50290 0.11238 -0.02780
 C169 C 0.74949 0.24535 0.14628
 C170 C 0.75211 0.24599 0.35451
 C171 C 0.69938 0.30649 0.20282
 C172 C 0.70103 0.18414 0.20267
 C173 C 0.70068 0.30714 0.30041
 C174 C 0.79955 0.30682 0.30125
 C175 C 0.80044 0.19122 0.30218
 C176 C 0.79885 0.30547 0.19741
 C177 C 0.70181 0.18505 0.30051
 C178 C 0.79981 0.19057 0.19810
 O179 O 0.72039 0.31590 0.30664
 O180 O 0.69485 0.28126 0.28058
 O181 O 0.72158 0.17728 0.30706
 O182 O 0.69564 0.20998 0.28023
 O183 O 0.78013 0.18176 0.19178
 O184 O 0.80563 0.21442 0.21965
 O185 O 0.75193 0.21437 0.33980
 O186 O 0.75107 0.27831 0.34066
 O187 O 0.74958 0.21393 0.16122
 O188 O 0.74939 0.27785 0.15992
 O189 O 0.77985 0.31452 0.30818
 O190 O 0.80547 0.28316 0.27962
 O191 O 0.71884 0.31464 0.19419
 O192 O 0.69437 0.28150 0.22373
 O193 O 0.77903 0.31313 0.19070
 O194 O 0.80493 0.28262 0.21946
 O195 O 0.78081 0.18202 0.30834
 O196 O 0.80593 0.21509 0.28041
 O197 O 0.75159 0.14170 0.20245
 O198 O 0.75249 0.14180 0.29733
 O199 O 0.75047 0.35213 0.29930
 O200 O 0.74973 0.35202 0.20197
 O201 O 0.73129 0.29596 0.25065
 O202 O 0.73193 0.19699 0.25088
 O203 O 0.76794 0.29667 0.24990
 O204 O 0.73028 0.24620 0.20850
 O205 O 0.69508 0.20984 0.22256
 O206 O 0.72075 0.17601 0.19610
 O207 O 0.76943 0.24740 0.20759
 O208 O 0.77015 0.24766 0.29267
 O209 O 0.76913 0.19840 0.25024
 O210 O 0.73107 0.24657 0.29327
 Zr211 Zr 0.75029 0.20026 0.20957
 Zr212 Zr 0.75015 0.29360 0.29184
 Zr213 Zr 0.71350 0.24608 0.25126
 Zr214 Zr 0.74931 0.29338 0.20862
 Zr215 Zr 0.75092 0.20053 0.29148
 Zr216 Zr 0.78697 0.24822 0.24991
 H217 H 0.77644 0.32014 0.24964
 H218 H 0.72051 0.24575 0.18993
 H219 H 0.77807 0.17548 0.25021
 H220 H 0.72176 0.24639 0.31234
 H221 H 0.75428 0.13076 0.22371
 H222 H 0.74646 0.13100 0.27754
 H223 H 0.74515 0.36281 0.22259
 H224 H 0.74998 0.36336 0.27778
 C225 C 0.00497 0.49964 0.10353
 C226 C -0.00387 0.49432 -0.10518
 C227 C -0.04677 0.43622 0.05334
 C228 C -0.04838 0.55910 0.05177
 C229 C -0.05131 0.43485 -0.04320
 C230 C 0.04747 0.44247 -0.05614
 C231 C 0.04639 0.55745 -0.05738
 C232 C 0.05255 0.44429 0.04608
 C233 C -0.05290 0.55613 -0.04556
 C234 C 0.05017 0.56009 0.04570
 O235 O -0.03201 0.42738 -0.05280
 O236 O -0.05615 0.46009 -0.02241
 O237 O -0.03377 0.56453 -0.05551
 O238 O -0.05706 0.53156 -0.02385
 O239 O 0.03071 0.56776 0.05391
 O240 O 0.05545 0.53592 0.02411
 O241 O -0.00379 0.52704 -0.09170
 O242 O -0.00368 0.46328 -0.08953
 O243 O 0.00327 0.53165 0.08927
 O244 O 0.00466 0.46773 0.08929
 O245 O 0.02772 0.43271 -0.06102
 O246 O 0.05363 0.46689 -0.03535
 O247 O -0.02673 0.42878 0.05878
 O248 O -0.05347 0.46134 0.03359
 O249 O 0.03346 0.43520 0.05570
 O250 O 0.05657 0.46768 0.02349
 O251 O 0.02636 0.56472 -0.06311
 O252 O 0.05301 0.53474 -0.03562
 O253 O 0.00096 0.60454 0.04700
 O254 O -0.00327 0.60245 -0.05144
 O255 O -0.00006 0.39198 -0.04580
 O256 O 0.00415 0.39423 0.04902
 O257 O -0.01815 0.44830 0.00206
 O258 O -0.01930 0.54732 0.00027
 O259 O 0.01861 0.45030 -0.00165
 O260 O -0.01789 0.49846 0.04386
 O261 O -0.05454 0.53279 0.03268
 O262 O -0.02859 0.56815 0.05691
 O263 O 0.02108 0.50033 0.04026
 O264 O 0.01729 0.49828 -0.04505
 O265 O 0.01693 0.54868 -0.00315
 O266 O -0.02164 0.49672 -0.04114
 Zr267 Zr 0.00072 0.54589 0.04029
 Zr268 Zr -0.00163 0.45085 -0.04100
 Zr269 Zr -0.03668 0.49724 0.00304
 Zr270 Zr 0.00225 0.45261 0.04135
 Zr271 Zr -0.00278 0.54410 -0.04322
 Zr272 Zr 0.03601 0.50055 -0.00402
 H273 H 0.02770 0.42758 -0.00231
 H274 H -0.02666 0.49849 0.06349
 H275 H 0.02531 0.57224 -0.00428
 H276 H -0.03202 0.49580 -0.05897
 H277 H -0.00107 0.61535 0.02552
 H278 H -0.00538 0.61397 -0.03022
 H279 H 0.00557 0.38290 0.02762
 H280 H -0.00536 0.38177 -0.02536
 C281 C 0.25055 0.74778 0.14552
 C282 C 0.25040 0.74715 0.35363
 C283 C 0.20135 0.81163 0.20025
 C284 C 0.20049 0.68861 0.19996
 C285 C 0.20048 0.81097 0.29849
 C286 C 0.29930 0.80705 0.30193
 C287 C 0.29849 0.69020 0.30183
 C288 C 0.30017 0.80655 0.19880
 C289 C 0.19981 0.68838 0.29721
 C290 C 0.29942 0.69035 0.19906
 O291 O 0.22022 0.81860 0.30552
 O292 O 0.19455 0.78578 0.27807
 O293 O 0.21941 0.68004 0.30439
 O294 O 0.19420 0.71408 0.27722
 O295 O 0.27973 0.68249 0.19196
 O296 O 0.30526 0.71417 0.22060
 O297 O 0.24974 0.71571 0.33874
 O298 O 0.25012 0.77962 0.33998
 O299 O 0.25011 0.71631 0.16033
 O300 O 0.25083 0.78018 0.15933
 O301 O 0.27958 0.81518 0.30848
 O302 O 0.30522 0.78307 0.28055
 O303 O 0.22113 0.81927 0.19361
 O304 O 0.19516 0.78632 0.22027
 O305 O 0.28054 0.81473 0.19167
 O306 O 0.30576 0.78287 0.22056
 O307 O 0.27873 0.68198 0.30799
 O308 O 0.30466 0.71421 0.28068
 O309 O 0.25037 0.64397 0.20128
 O310 O 0.24997 0.64354 0.29613
 O311 O 0.25081 0.85379 0.29891
 O312 O 0.25191 0.85396 0.20087
 O313 O 0.23174 0.79880 0.24946
 O314 O 0.23087 0.70000 0.24919
 O315 O 0.26840 0.79796 0.25002
 O316 O 0.23064 0.74939 0.20705
 O317 O 0.19457 0.71457 0.21964
 O318 O 0.22021 0.67971 0.19405
 O319 O 0.26991 0.74873 0.20728
 O320 O 0.26927 0.74859 0.29246
 O321 O 0.26811 0.69981 0.24978
 O322 O 0.23006 0.74916 0.29174
 Zr323 Zr 0.24991 0.70255 0.20857
 Zr324 Zr 0.24987 0.79531 0.29128
 Zr325 Zr 0.21306 0.74988 0.24913
 Zr326 Zr 0.25051 0.79546 0.20818
 Zr327 Zr 0.24934 0.70234 0.29038
 Zr328 Zr 0.28674 0.74883 0.25021
 H329 H 0.27714 0.82116 0.25014
 H330 H 0.22118 0.74955 0.18813
 H331 H 0.27664 0.67642 0.24991
 H332 H 0.22047 0.74914 0.31052
 H333 H 0.25278 0.63280 0.22253
 H334 H 0.24432 0.63305 0.27597
 H335 H 0.24995 0.86527 0.22219
 H336 H 0.24874 0.86516 0.27765
 C337 C 0.50490 0.49787 0.10432
 C338 C 0.49434 0.49586 -0.10377
 C339 C 0.55076 0.56216 0.04346
 C340 C 0.55287 0.44029 0.04398
 C341 C 0.54664 0.56020 -0.05444
 C342 C 0.44718 0.55361 -0.04600
 C343 C 0.44845 0.43862 -0.04457
 C344 C 0.45259 0.55545 0.05637
 C345 C 0.54764 0.43832 -0.05274
 C346 C 0.45381 0.43956 0.05734
 O347 O 0.52658 0.56764 -0.05992
 O348 O 0.55328 0.53559 -0.03421
 O349 O 0.52781 0.42913 -0.05777
 O350 O 0.55388 0.46443 -0.03354
 O351 O 0.47381 0.43157 0.06242
 O352 O 0.44712 0.46309 0.03626
 O353 O 0.49556 0.46446 -0.08887
 O354 O 0.49508 0.52841 -0.09025
 O355 O 0.50497 0.46611 0.08984
 O356 O 0.50367 0.53007 0.09029
 O357 O 0.46628 0.56233 -0.05587
 O358 O 0.44322 0.53036 -0.02322
 O359 O 0.53137 0.56971 0.05216
 O360 O 0.55596 0.53659 0.02303
 O361 O 0.47239 0.56449 0.06130
 O362 O 0.44624 0.53110 0.03567
 O363 O 0.46767 0.43088 -0.05435
 O364 O 0.44396 0.46210 -0.02223
 O365 O 0.50275 0.39303 0.04778
 O366 O 0.49787 0.39240 -0.04716
 O367 O 0.49556 0.60293 -0.04897
 O368 O 0.50038 0.60363 0.04914
 O369 O 0.51773 0.54860 -0.00209
 O370 O 0.51911 0.44952 -0.00145
 O371 O 0.48147 0.54700 0.00178
 O372 O 0.52151 0.49940 0.04056
 O373 O 0.55696 0.46527 0.02261
 O374 O 0.53378 0.43138 0.05372
 O375 O 0.48266 0.49782 0.04517
 O376 O 0.47839 0.49713 -0.04022
 O377 O 0.48239 0.44846 0.00265
 O378 O 0.51731 0.49843 -0.04420
 Zr379 Zr 0.50272 0.45180 0.04176
 Zr380 Zr 0.49748 0.54447 -0.04184
 Zr381 Zr 0.53641 0.49992 -0.00359
 Zr382 Zr 0.50147 0.54516 0.04150
 Zr383 Zr 0.49842 0.45108 -0.04058
 Zr384 Zr 0.46382 0.49728 0.00436
 H385 H 0.47250 0.56987 0.00254
 H386 H 0.53203 0.50013 0.05820
 H387 H 0.47389 0.42504 0.00378
 H388 H 0.52599 0.49835 -0.06393
 H389 H 0.50827 0.38266 0.02751
 H390 H 0.49746 0.38157 -0.02550
 H391 H 0.49982 0.61490 0.02764
 H392 H 0.50008 0.61429 -0.02852
 C393 C 0.75042 0.74665 0.14541
 C394 C 0.74994 0.74717 0.35346
 C395 C 0.70086 0.80988 0.19875
 C396 C 0.70023 0.68792 0.19982
 C397 C 0.70007 0.81045 0.29805
 C398 C 0.79892 0.80643 0.30184
 C399 C 0.79816 0.69049 0.30227
 C400 C 0.79961 0.80562 0.19829
 C401 C 0.69948 0.68846 0.29750
 C402 C 0.79913 0.69019 0.19867
 O403 O 0.71979 0.81829 0.30501
 O404 O 0.69415 0.78526 0.27763
 O405 O 0.71908 0.67999 0.30459
 O406 O 0.69384 0.71388 0.27726
 O407 O 0.77945 0.68197 0.19182
 O408 O 0.80496 0.71389 0.22032
 O409 O 0.74934 0.71564 0.33868
 O410 O 0.74964 0.77956 0.33968
 O411 O 0.74988 0.71524 0.16032
 O412 O 0.75067 0.77913 0.15910
 O413 O 0.77920 0.81475 0.30822
 O414 O 0.80486 0.78255 0.28040
 O415 O 0.72066 0.81767 0.19232
 O416 O 0.69469 0.78516 0.21935
 O417 O 0.78000 0.81388 0.19120
 O418 O 0.80527 0.78217 0.22018
 O419 O 0.77841 0.68207 0.30830
 O420 O 0.80435 0.71418 0.28087
 O421 O 0.75010 0.64306 0.20178
 O422 O 0.74967 0.64321 0.29609
 O423 O 0.75042 0.85353 0.29841
 O424 O 0.75134 0.85326 0.20080
 O425 O 0.73127 0.79835 0.24906
 O426 O 0.73052 0.69944 0.24918
 O427 O 0.76800 0.79747 0.24967
 O428 O 0.73033 0.74850 0.20688
 O429 O 0.69428 0.71382 0.21951
 O430 O 0.71994 0.67889 0.19403
 O431 O 0.76950 0.74800 0.20722
 O432 O 0.76886 0.74833 0.29226
 O433 O 0.76785 0.69922 0.24983
 O434 O 0.72971 0.74884 0.29145
 Zr435 Zr 0.74962 0.70172 0.20863
 Zr436 Zr 0.74946 0.79503 0.29090
 Zr437 Zr 0.71268 0.74933 0.24884
 Zr438 Zr 0.75006 0.79471 0.20785
 Zr439 Zr 0.74900 0.70202 0.29036
 Zr440 Zr 0.78638 0.74833 0.25007
 H441 H 0.77676 0.82066 0.24973
 H442 H 0.72095 0.74843 0.18788
 H443 H 0.77646 0.67592 0.25006
 H444 H 0.72014 0.74896 0.31024
 H445 H 0.75305 0.63213 0.22296
 H446 H 0.74366 0.63273 0.27616
 H447 H 0.74765 0.86446 0.22165
 H448 H 0.74937 0.86482 0.27696
 C449 C 0.00094 0.00500 0.39580
 C450 C -0.00130 0.00456 0.60427
 C451 C -0.04872 0.06543 0.45031
 C452 C -0.04934 -0.05811 0.44951
 C453 C -0.05023 0.06477 0.54707
 C454 C 0.04852 0.05962 0.55395
 C455 C 0.04810 -0.05582 0.55320
 C456 C 0.04994 0.06015 0.45021
 C457 C -0.05064 -0.05832 0.54684
 C458 C 0.04958 -0.05549 0.44931
 O459 O -0.03059 0.07266 0.55458
 O460 O -0.05591 0.03918 0.52693
 O461 O -0.03106 -0.06639 0.55440
 O462 O -0.05617 -0.03262 0.52677
 O463 O 0.02991 -0.06322 0.44201
 O464 O 0.05533 -0.03205 0.47127
 O465 O -0.00143 -0.02785 0.59037
 O466 O -0.00137 0.03602 0.58940
 O467 O 0.00078 -0.02751 0.40942
 O468 O 0.00076 0.03635 0.41087
 O469 O 0.02878 0.06841 0.55970
 O470 O 0.05464 0.03597 0.53241
 O471 O -0.02890 0.07358 0.44442
 O472 O -0.05498 0.03955 0.46977
 O473 O 0.03041 0.06882 0.44310
 O474 O 0.05551 0.03634 0.47182
 O475 O 0.02829 -0.06377 0.55929
 O476 O 0.05439 -0.03228 0.53175
 O477 O 0.00085 -0.10166 0.45067
 O478 O -0.00059 -0.10188 0.54897
 O479 O 0.00069 0.10830 0.54702
 O480 O 0.00154 0.10836 0.45249
 O481 O -0.01887 0.05258 0.49961
 O482 O -0.01895 -0.04618 0.49926
 O483 O 0.01837 0.05179 0.50079
 O484 O -0.01936 0.00345 0.45703
 O485 O -0.05539 -0.03253 0.46944
 O486 O -0.02956 -0.06613 0.44314
 O487 O 0.01990 0.00304 0.45801
 O488 O 0.01871 0.00281 0.54315
 O489 O 0.01765 -0.04635 0.50039
 O490 O -0.02051 0.00320 0.54178
 Zr491 Zr 0.00002 -0.04316 0.45822
 Zr492 Zr -0.00075 0.04954 0.54110
 Zr493 Zr -0.03715 0.00318 0.49884
 Zr494 Zr 0.00038 0.04973 0.45927
 Zr495 Zr -0.00110 -0.04338 0.54145
 Zr496 Zr 0.03650 0.00228 0.50115
 H497 H 0.02719 0.07488 0.50125
 H498 H -0.02873 0.00369 0.43800
 H499 H 0.02620 -0.06972 0.50056
 H500 H -0.03033 0.00327 0.56029
 H501 H -0.00160 -0.11298 0.47186
 H502 H -0.00187 -0.11320 0.52754
 H503 H 0.00421 0.11925 0.47379
 H504 H -0.00499 0.11903 0.52700
 C505 C 0.25471 0.25403 0.85517
 C506 C 0.24501 0.25043 0.64658
 C507 C 0.20318 0.18838 0.80540
 C508 C 0.20210 0.31155 0.80272
 C509 C 0.19917 0.18614 0.70781
 C510 C 0.29735 0.19324 0.69504
 C511 C 0.29610 0.30919 0.69357
 C512 C 0.30271 0.19571 0.79731
 C513 C 0.19697 0.30853 0.70712
 C514 C 0.30130 0.31064 0.79551
 O515 O 0.21858 0.17881 0.69905
 O516 O 0.19393 0.21179 0.72817
 O517 O 0.21607 0.31744 0.69740
 O518 O 0.19286 0.28330 0.72827
 O519 O 0.28207 0.31831 0.80528
 O520 O 0.30584 0.28711 0.77323
 O521 O 0.24486 0.28224 0.66100
 O522 O 0.24630 0.21830 0.66076
 O523 O 0.25360 0.28523 0.83995
 O524 O 0.25438 0.22135 0.84177
 O525 O 0.27756 0.18411 0.69011
 O526 O 0.30365 0.21775 0.71564
 O527 O 0.22326 0.18123 0.81104
 O528 O 0.19652 0.21310 0.78526
 O529 O 0.28362 0.18716 0.80737
 O530 O 0.30663 0.21879 0.77439
 O531 O 0.27608 0.31705 0.68842
 O532 O 0.30277 0.28578 0.71476
 O533 O 0.25211 0.35678 0.79789
 O534 O 0.24710 0.35551 0.70254
 O535 O 0.24961 0.14499 0.70248
 O536 O 0.25447 0.14647 0.80098
 O537 O 0.23221 0.20030 0.75340
 O538 O 0.23072 0.29922 0.75224
 O539 O 0.26836 0.20204 0.74960
 O540 O 0.23241 0.25075 0.79529
 O541 O 0.19589 0.28479 0.78414
 O542 O 0.22193 0.32073 0.80776
 O543 O 0.27145 0.25215 0.79143
 O544 O 0.26724 0.25086 0.70589
 O545 O 0.26740 0.30049 0.74823
 O546 O 0.22833 0.24920 0.71043
 Zr547 Zr 0.25134 0.29808 0.79145
 Zr548 Zr 0.24844 0.20352 0.70973
 Zr549 Zr 0.21341 0.24883 0.75460
 Zr550 Zr 0.25236 0.20481 0.79329
 Zr551 Zr 0.24713 0.29682 0.70905
 Zr552 Zr 0.28602 0.25173 0.74678
 H553 H 0.27735 0.17919 0.74895
 H554 H 0.22360 0.25097 0.81489
 H555 H 0.27588 0.32393 0.74703
 H556 H 0.21781 0.24838 0.69278
 H557 H 0.25206 0.36754 0.77619
 H558 H 0.24200 0.36614 0.72295
 H559 H 0.25067 0.13483 0.78032
 H560 H 0.24978 0.13390 0.72407
 C561 C 0.50024 0.00433 0.39655
 C562 C 0.49932 0.00382 0.60462
 C563 C 0.55009 -0.05887 0.45182
 C564 C 0.55052 0.06333 0.45348
 C565 C 0.54900 -0.05946 0.55050
 C566 C 0.45028 -0.05563 0.55052
 C567 C 0.45071 0.06062 0.55111
 C568 C 0.45130 -0.05556 0.44779
 C569 C 0.54955 0.06248 0.55099
 C570 C 0.45189 0.06132 0.44834
 O571 O 0.52922 -0.06747 0.55682
 O572 O 0.55520 -0.03424 0.53041
 O573 O 0.52983 0.07123 0.55701
 O574 O 0.55555 0.03704 0.53092
 O575 O 0.47164 0.06973 0.44232
 O576 O 0.44572 0.03714 0.46933
 O577 O 0.49975 0.03533 0.58985
 O578 O 0.49920 -0.02858 0.59075
 O579 O 0.50082 0.03576 0.41148
 O580 O 0.50052 -0.02813 0.41018
 O581 O 0.46986 -0.06371 0.55788
 O582 O 0.44469 -0.03174 0.52896
 O583 O 0.53040 -0.06672 0.44470
 O584 O 0.55592 -0.03379 0.47238
 O585 O 0.47104 -0.06369 0.44139
 O586 O 0.44530 -0.03162 0.46915
 O587 O 0.47036 0.06861 0.55834
 O588 O 0.44498 0.03691 0.52940
 O589 O 0.50091 0.10790 0.45291
 O590 O 0.49922 0.10774 0.54757
 O591 O 0.49866 -0.10247 0.54934
 O592 O 0.49981 -0.10225 0.45126
 O593 O 0.51871 -0.04728 0.50075
 O594 O 0.51939 0.05163 0.50115
 O595 O 0.48207 -0.04650 0.49994
 O596 O 0.52038 0.00253 0.45853
 O597 O 0.55611 0.03751 0.47334
 O598 O 0.53095 0.07205 0.44650
 O599 O 0.48122 0.00292 0.45752
 O600 O 0.48034 0.00263 0.54270
 O601 O 0.48215 0.05170 0.50032
 O602 O 0.51953 0.00220 0.54319
 Zr603 Zr 0.50104 0.04927 0.45982
 Zr604 Zr 0.49984 -0.04399 0.54190
 Zr605 Zr 0.53723 0.00178 0.50128
 Zr606 Zr 0.50067 -0.04375 0.45883
 Zr607 Zr 0.50021 0.04897 0.54160
 Zr608 Zr 0.46366 0.00257 0.49968
 H609 H 0.47338 -0.06975 0.49967
 H610 H 0.53002 0.00267 0.43981
 H611 H 0.47357 0.07504 0.50031
 H612 H 0.52888 0.00200 0.56223
 H613 H 0.49790 0.11893 0.47406
 H614 H 0.50546 0.11836 0.52788
 H615 H 0.50217 -0.11357 0.47248
 H616 H 0.50035 -0.11382 0.52798
 C617 C 0.75563 0.25284 0.85456
 C618 C 0.74477 0.25127 0.64648
 C619 C 0.70304 0.18887 0.80560
 C620 C 0.70234 0.31080 0.80377
 C621 C 0.69897 0.18691 0.70762
 C622 C 0.79707 0.19408 0.69376
 C623 C 0.79613 0.30892 0.69307
 C624 C 0.80256 0.19514 0.79649
 C625 C 0.69703 0.30891 0.70709
 C626 C 0.80152 0.30959 0.79576
 O627 O 0.71833 0.17939 0.69876
 O628 O 0.69381 0.21247 0.72808
 O629 O 0.71612 0.31778 0.69732
 O630 O 0.69291 0.28390 0.72844
 O631 O 0.78232 0.31747 0.80553
 O632 O 0.80594 0.28646 0.77313
 O633 O 0.74475 0.28302 0.66100
 O634 O 0.74594 0.21905 0.66050
 O635 O 0.75438 0.28428 0.83972
 O636 O 0.75484 0.22032 0.84100
 O637 O 0.77727 0.18481 0.68911
 O638 O 0.80349 0.21814 0.71465
 O639 O 0.72313 0.18138 0.81093
 O640 O 0.69641 0.21352 0.78536
 O641 O 0.78349 0.18657 0.80656
 O642 O 0.80652 0.21824 0.77361
 O643 O 0.77611 0.31706 0.68814
 O644 O 0.80281 0.28564 0.71435
 O645 O 0.75222 0.35647 0.79801
 O646 O 0.74727 0.35604 0.70326
 O647 O 0.74938 0.14543 0.70161
 O648 O 0.75417 0.14586 0.79949
 O649 O 0.73201 0.20037 0.75291
 O650 O 0.73079 0.29944 0.75240
 O651 O 0.76829 0.20192 0.74891
 O652 O 0.73255 0.25051 0.79512
 O653 O 0.69604 0.28473 0.78458
 O654 O 0.72220 0.31988 0.80877
 O655 O 0.77145 0.25164 0.79091
 O656 O 0.76709 0.25116 0.70561
 O657 O 0.76754 0.30052 0.74818
 O658 O 0.72826 0.24971 0.71038
 Zr659 Zr 0.75152 0.29779 0.79146
 Zr660 Zr 0.74824 0.20389 0.70928
 Zr661 Zr 0.71339 0.24912 0.75460
 Zr662 Zr 0.75229 0.20436 0.79259
 Zr663 Zr 0.74715 0.29725 0.70912
 Zr664 Zr 0.78600 0.25161 0.74632
 H665 H 0.77725 0.17905 0.74801
 H666 H 0.72391 0.25060 0.81487
 H667 H 0.77612 0.32386 0.74706
 H668 H 0.71772 0.24901 0.69277
 H669 H 0.75272 0.36728 0.77635
 H670 H 0.74163 0.36637 0.72347
 H671 H 0.74921 0.13462 0.77922
 H672 H 0.75004 0.13414 0.72310
 C673 C -0.00169 0.50417 0.39588
 C674 C 0.00124 0.50446 0.60462
 C675 C -0.05083 0.56312 0.45362
 C676 C -0.04963 0.43959 0.45232
 C677 C -0.04985 0.56258 0.54966
 C678 C 0.04895 0.56230 0.55068
 C679 C 0.05100 0.44656 0.54946
 C680 C 0.04782 0.56191 0.44699
 C681 C -0.04864 0.43995 0.55043
 C682 C 0.04906 0.44611 0.44692
 O683 O -0.03017 0.57134 0.55609
 O684 O -0.05562 0.53653 0.53002
 O685 O -0.02876 0.43259 0.55721
 O686 O -0.05478 0.46492 0.53012
 O687 O 0.02935 0.43736 0.44084
 O688 O 0.05496 0.47030 0.46820
 O689 O 0.00134 0.47197 0.59087
 O690 O 0.00048 0.53585 0.58964
 O691 O -0.00082 0.47178 0.40966
 O692 O -0.00225 0.53564 0.41078
 O693 O 0.02928 0.57013 0.55763
 O694 O 0.05485 0.53860 0.52904
 O695 O -0.03131 0.57218 0.44668
 O696 O -0.05625 0.53665 0.47306
 O697 O 0.02801 0.56986 0.44094
 O698 O 0.05413 0.53854 0.46848
 O699 O 0.03160 0.43810 0.55818
 O700 O 0.05577 0.47008 0.52728
 O701 O 0.00100 0.39793 0.45105
 O702 O 0.00264 0.39783 0.54918
 O703 O 0.00021 0.60808 0.54756
 O704 O -0.00099 0.60795 0.45180
 O705 O -0.01948 0.55144 0.50067
 O706 O -0.01810 0.45265 0.50079
 O707 O 0.01758 0.55258 0.49966
 O708 O -0.02040 0.50219 0.45822
 O709 O -0.05552 0.46483 0.47264
 O710 O -0.02993 0.43222 0.44502
 O711 O 0.01878 0.50355 0.45680
 O712 O 0.01993 0.50362 0.54223
 O713 O 0.01836 0.45434 0.49968
 O714 O -0.01928 0.50209 0.54308
 Zr715 Zr -0.00036 0.45641 0.45854
 Zr716 Zr -0.00034 0.54936 0.54120
 Zr717 Zr -0.03701 0.50123 0.50108
 Zr718 Zr -0.00131 0.54940 0.45914
 Zr719 Zr 0.00086 0.45630 0.54205
 Zr720 Zr 0.03636 0.50396 0.49896
 H721 H 0.02606 0.57608 0.49945
 H722 H -0.03028 0.50199 0.43977
 H723 H 0.02728 0.43139 0.49936
 H724 H -0.02865 0.50199 0.56210
 H725 H -0.00004 0.38663 0.47250
 H726 H -0.00069 0.38652 0.52822
 H727 H 0.00063 0.61922 0.47320
 H728 H -0.00523 0.61875 0.52738
 C729 C 0.25461 0.75493 0.85365
 C730 C 0.24596 0.75427 0.64556
 C731 C 0.20189 0.69200 0.80228
 C732 C 0.20208 0.81417 0.80199
 C733 C 0.19885 0.69110 0.70481
 C734 C 0.29726 0.69461 0.69436
 C735 C 0.29708 0.81101 0.69404
 C736 C 0.30153 0.69568 0.79665
 C737 C 0.19867 0.81472 0.70523
 C738 C 0.30140 0.81115 0.79567
 O739 O 0.21828 0.68306 0.69662
 O740 O 0.19360 0.71685 0.72508
 O741 O 0.21812 0.82324 0.69738
 O742 O 0.19347 0.78855 0.72511
 O743 O 0.28217 0.81928 0.80521
 O744 O 0.30592 0.78751 0.77347
 O745 O 0.24610 0.78583 0.66033
 O746 O 0.24671 0.72191 0.65935
 O747 O 0.25375 0.78644 0.83890
 O748 O 0.25352 0.72249 0.83998
 O749 O 0.27740 0.68634 0.68889
 O750 O 0.30365 0.71866 0.71531
 O751 O 0.22183 0.68410 0.80822
 O752 O 0.19562 0.71722 0.78230
 O753 O 0.28224 0.68751 0.80605
 O754 O 0.30597 0.71908 0.77418
 O755 O 0.27725 0.81963 0.68893
 O756 O 0.30350 0.78688 0.71483
 O757 O 0.25267 0.85877 0.79666
 O758 O 0.24881 0.85827 0.70107
 O759 O 0.24884 0.64810 0.70033
 O760 O 0.25255 0.64820 0.79863
 O761 O 0.23148 0.70364 0.75120
 O762 O 0.23118 0.80254 0.75112
 O763 O 0.26784 0.70387 0.74823
 O764 O 0.23191 0.75329 0.79348
 O765 O 0.19575 0.78875 0.78216
 O766 O 0.22198 0.82235 0.80777
 O767 O 0.27098 0.75338 0.79050
 O768 O 0.26772 0.75320 0.70505
 O769 O 0.26803 0.80235 0.74801
 O770 O 0.22870 0.75304 0.70869
 Zr771 Zr 0.25137 0.80003 0.79069
 Zr772 Zr 0.24829 0.70658 0.70808
 Zr773 Zr 0.21316 0.75286 0.75237
 Zr774 Zr 0.25138 0.70672 0.79143
 Zr775 Zr 0.24819 0.79975 0.70852
 Zr776 Zr 0.28610 0.75297 0.74630
 H777 H 0.27654 0.68067 0.74758
 H778 H 0.22307 0.75338 0.81304
 H779 H 0.27672 0.82559 0.74722
 H780 H 0.21837 0.75304 0.69079
 H781 H 0.24622 0.86941 0.77713
 H782 H 0.25064 0.86953 0.72243
 H783 H 0.24873 0.63698 0.77782
 H784 H 0.24873 0.63674 0.72182
 C785 C 0.49822 0.50288 0.39614
 C786 C 0.50083 0.50294 0.60441
 C787 C 0.54965 0.44158 0.45006
 C788 C 0.54863 0.56406 0.45060
 C789 C 0.55087 0.44175 0.54755
 C790 C 0.45137 0.44232 0.55248
 C791 C 0.45064 0.55816 0.55252
 C792 C 0.45078 0.44188 0.44929
 C793 C 0.54940 0.56399 0.54839
 C794 C 0.45003 0.55884 0.44991
 O795 O 0.53140 0.43359 0.55612
 O796 O 0.55594 0.46683 0.52676
 O797 O 0.52968 0.57187 0.55521
 O798 O 0.55534 0.53856 0.52823
 O799 O 0.46958 0.56772 0.44314
 O800 O 0.44443 0.53437 0.47104
 O801 O 0.50078 0.53443 0.58957
 O802 O 0.50085 0.47049 0.59066
 O803 O 0.49841 0.53441 0.41095
 O804 O 0.49927 0.47052 0.40987
 O805 O 0.47118 0.43474 0.55933
 O806 O 0.44536 0.46569 0.53078
 O807 O 0.52994 0.43292 0.44379
 O808 O 0.55550 0.46738 0.46996
 O809 O 0.47049 0.43422 0.44232
 O810 O 0.44490 0.46566 0.47084
 O811 O 0.47032 0.56671 0.55908
 O812 O 0.44483 0.53425 0.53102
 O813 O 0.49855 0.60684 0.45217
 O814 O 0.49843 0.60677 0.54764
 O815 O 0.50064 0.39641 0.54869
 O816 O 0.49988 0.39671 0.45102
 O817 O 0.51901 0.45266 0.49984
 O818 O 0.51847 0.55161 0.49993
 O819 O 0.48241 0.45197 0.50055
 O820 O 0.51933 0.50223 0.45730
 O821 O 0.55481 0.53870 0.47051
 O822 O 0.52885 0.57203 0.44432
 O823 O 0.48018 0.50120 0.45786
 O824 O 0.48088 0.50103 0.54312
 O825 O 0.48136 0.55016 0.50058
 O826 O 0.52007 0.50212 0.54212
 Zr827 Zr 0.49950 0.54827 0.45926
 Zr828 Zr 0.50096 0.45504 0.54190
 Zr829 Zr 0.53687 0.50249 0.49936
 Zr830 Zr 0.50019 0.45522 0.45862
 Zr831 Zr 0.50012 0.54811 0.54125
 Zr832 Zr 0.46342 0.50043 0.50073
 H833 H 0.47393 0.42848 0.50067
 H834 H 0.52866 0.50255 0.43824
 H835 H 0.47253 0.57321 0.50090
 H836 H 0.52982 0.50242 0.56071
 H837 H 0.49649 0.61790 0.47355
 H838 H 0.50360 0.61780 0.52744
 H839 H 0.50072 0.38541 0.47249
 H840 H 0.50461 0.38556 0.52781
 C841 C 0.75475 0.75437 0.85363
 C842 C 0.74582 0.75519 0.64559
 C843 C 0.70187 0.69216 0.80258
 C844 C 0.70198 0.81326 0.80295
 C845 C 0.69867 0.69184 0.70439
 C846 C 0.79708 0.69571 0.69364
 C847 C 0.79694 0.81113 0.69384
 C848 C 0.80146 0.69579 0.79639
 C849 C 0.69855 0.81490 0.70571
 C850 C 0.80130 0.81068 0.79621
 O851 O 0.71810 0.68375 0.69619
 O852 O 0.69346 0.71729 0.72493
 O853 O 0.71796 0.82369 0.69788
 O854 O 0.69340 0.78867 0.72551
 O855 O 0.78208 0.81875 0.80583
 O856 O 0.80581 0.78753 0.77364
 O857 O 0.74592 0.78666 0.66052
 O858 O 0.74655 0.72275 0.65925
 O859 O 0.75381 0.78599 0.83906
 O860 O 0.75364 0.72201 0.83981
 O861 O 0.77723 0.68722 0.68835
 O862 O 0.80351 0.71942 0.71482
 O863 O 0.72182 0.68418 0.80839
 O864 O 0.69557 0.71715 0.78241
 O865 O 0.78219 0.68754 0.80582
 O866 O 0.80588 0.71914 0.77388
 O867 O 0.77710 0.82000 0.68903
 O868 O 0.80341 0.78709 0.71467
 O869 O 0.75253 0.85870 0.79678
 O870 O 0.74867 0.85884 0.70180
 O871 O 0.74872 0.64860 0.69990
 O872 O 0.75254 0.64795 0.79783
 O873 O 0.73136 0.70365 0.75103
 O874 O 0.73104 0.80266 0.75146
 O875 O 0.76777 0.70405 0.74794
 O876 O 0.73190 0.75310 0.79352
 O877 O 0.69567 0.78830 0.78270
 O878 O 0.72188 0.82163 0.80864
 O879 O 0.77089 0.75328 0.79040
 O880 O 0.76754 0.75370 0.70508
 O881 O 0.76796 0.80261 0.74825
 O882 O 0.72859 0.75349 0.70881
 Zr883 Zr 0.75129 0.79992 0.79095
 Zr884 Zr 0.74814 0.70702 0.70789
 Zr885 Zr 0.71308 0.75289 0.75252
 Zr886 Zr 0.75133 0.70656 0.79119
 Zr887 Zr 0.74805 0.80024 0.70882
 Zr888 Zr 0.78600 0.75323 0.74621
 H889 H 0.77651 0.68091 0.74712
 H890 H 0.72313 0.75301 0.81316
 H891 H 0.77670 0.82580 0.74755
 H892 H 0.71826 0.75362 0.69090
 H893 H 0.74537 0.86923 0.77776
 H894 H 0.75098 0.86987 0.72315
 H895 H 0.74794 0.63700 0.77727
 H896 H 0.74878 0.63712 0.72134
 C897 C 0.01218 -0.04213 0.18593
 C898 C 0.00688 -0.01166 0.20601
 C899 C 0.00157 0.02295 0.19122
 C900 C 0.00107 0.02622 0.15777
 C901 C 0.00567 -0.00473 0.13839
 C902 C 0.01150 -0.03865 0.15292
 C903 C -0.00344 0.05405 0.20985
 C904 C -0.00350 0.05173 0.24286
 C905 C 0.00136 0.01786 0.25882
 C906 C 0.00657 -0.01442 0.24008
 C907 C 0.01105 -0.04846 0.25603
 C908 C 0.01055 -0.05098 0.28903
 C909 C 0.00566 -0.01982 0.30767
 C910 C 0.00106 0.01511 0.29290
 C911 C -0.00364 0.04588 0.31297
 C912 C -0.00371 0.04207 0.34595
 C913 C 0.00084 0.00756 0.36051
 C914 C 0.00541 -0.02342 0.34111
 H915 H 0.01689 -0.06921 0.19481
 H916 H -0.00338 0.05266 0.14688
 H917 H 0.01555 -0.06300 0.13867
 H918 H -0.00747 0.08060 0.19878
 H919 H -0.00765 0.07721 0.25513
 H920 H 0.01485 -0.07408 0.24371
 H921 H 0.01406 -0.07776 0.30009
 H922 H -0.00726 0.07348 0.30413
 H923 H -0.00746 0.06661 0.36014
 H924 H 0.00903 -0.05024 0.35201
 C925 C 0.25062 0.20408 1.06487
 C926 C 0.25146 0.23592 1.04496
 C927 C 0.25186 0.27167 1.05987
 C928 C 0.25093 0.27504 1.09337
 C929 C 0.25000 0.24299 1.11294
 C930 C 0.24992 0.20757 1.09785
 C931 C 0.25327 0.30395 1.04127
 C932 C 0.25450 0.30166 1.00826
 C933 C 0.25410 0.26674 0.99224
 C934 C 0.25210 0.23336 1.01088
 C935 C 0.25052 0.19855 0.99482
 C936 C 0.25105 0.19629 0.96182
 C937 C 0.25340 0.22840 0.94330
 C938 C 0.25524 0.26407 0.95817
 C939 C 0.25817 0.29558 0.93819
 C940 C 0.25840 0.29186 0.90512
 C941 C 0.25584 0.25671 0.89048
 C942 C 0.25367 0.22496 0.90987
 H943 H 0.25079 0.17579 1.05590
 H944 H 0.25119 0.30278 1.10403
 H945 H 0.24936 0.18177 1.11147
 H946 H 0.25353 0.33143 1.05238
 H947 H 0.25541 0.32807 0.99593
 H948 H 0.24843 0.17226 1.00700
 H949 H 0.24957 0.16895 0.95067
 H950 H 0.26041 0.32358 0.94723
 H951 H 0.26048 0.31699 0.89095
 H952 H 0.25181 0.19755 0.89897
 C953 C 0.07837 0.12531 0.10220
 C954 C 0.09913 0.10987 0.10564
 C955 C 0.10408 0.07730 0.08762
 C956 C 0.08854 0.06049 0.06792
 C957 C 0.06783 0.07549 0.06585
 C958 C 0.06306 0.10825 0.08285
 C959 C 0.12443 0.06136 0.08962
 C960 C 0.14015 0.07713 0.10890
 C961 C 0.13608 0.10951 0.12739
 C962 C 0.11509 0.12570 0.12621
 C963 C 0.11065 0.15691 0.14590
 C964 C 0.12627 0.17259 0.16529
 C965 C 0.14698 0.15809 0.16586
 C966 C 0.15226 0.12629 0.14707
 C967 C 0.17366 0.11312 0.14843
 C968 C 0.18906 0.13129 0.16702
 C969 C 0.18377 0.16300 0.18514
 C970 C 0.16255 0.17580 0.18482
 H971 H 0.07331 0.15059 0.11404
 H972 H 0.09242 0.03511 0.05488
 H973 H 0.04728 0.12083 0.08137
 H974 H 0.12829 0.03637 0.07605
 H975 H 0.15534 0.06285 0.10899
 H976 H 0.09512 0.16993 0.14721
 H977 H 0.12210 0.19669 0.17981
 H978 H 0.17923 0.08936 0.13494
 H979 H 0.20533 0.12063 0.16680
 H980 H 0.15823 0.20045 0.19855
 C981 C 0.32661 0.37200 0.13977
 C982 C 0.34851 0.36231 0.14368
 C983 C 0.35346 0.33371 0.16592
 C984 C 0.33714 0.31604 0.18342
 C985 C 0.31554 0.32603 0.17927
 C986 C 0.31051 0.35411 0.15722
 C987 C 0.37466 0.32265 0.17057
 C988 C 0.39125 0.33926 0.15361
 C989 C 0.38732 0.36793 0.13119
 C990 C 0.36558 0.37979 0.12626
 C991 C 0.36165 0.40875 0.10411
 C992 C 0.37818 0.42530 0.08712
 C993 C 0.39934 0.41386 0.09138
 C994 C 0.40436 0.38517 0.11348
 C995 C 0.42627 0.37504 0.11675
 C996 C 0.44227 0.39260 0.09873
 C997 C 0.43708 0.42074 0.07680
 C998 C 0.41550 0.43120 0.07345
 H999 H 0.32123 0.39313 0.12332
 H1000 H 0.34135 0.29414 0.20021
 H1001 H 0.29401 0.36242 0.15335
 H1002 H 0.37852 0.30073 0.18752
 H1003 H 0.40707 0.32885 0.15874
 H1004 H 0.34587 0.41952 0.09925
 H1005 H 0.37431 0.44740 0.07033
 H1006 H 0.43166 0.35364 0.13293
 H1007 H 0.45878 0.38394 0.10194
 H1008 H 0.41113 0.45310 0.05677
 C1009 C 0.32681 0.12574 0.13912
 C1010 C 0.34873 0.13547 0.14232
 C1011 C 0.35407 0.16390 0.16464
 C1012 C 0.33803 0.18163 0.18273
 C1013 C 0.31640 0.17165 0.17912
 C1014 C 0.31104 0.14355 0.15714
 C1015 C 0.37538 0.17466 0.16882
 C1016 C 0.39167 0.15778 0.15145
 C1017 C 0.38731 0.12925 0.12897
 C1018 C 0.36546 0.11803 0.12422
 C1019 C 0.36105 0.08980 0.10148
 C1020 C 0.37729 0.07302 0.08404
 C1021 C 0.39861 0.08343 0.08847
 C1022 C 0.40405 0.11157 0.11099
 C1023 C 0.42607 0.12063 0.11454
 C1024 C 0.44179 0.10256 0.09650
 C1025 C 0.43624 0.07490 0.07422
 C1026 C 0.41454 0.06557 0.07040
 H1027 H 0.32115 0.10449 0.12294
 H1028 H 0.34246 0.20343 0.19953
 H1029 H 0.29450 0.13512 0.15372
 H1030 H 0.37955 0.19646 0.18577
 H1031 H 0.40760 0.16798 0.15624
 H1032 H 0.34512 0.07988 0.09637
 H1033 H 0.37307 0.05149 0.06686
 H1034 H 0.43179 0.14140 0.13113
 H1035 H 0.45841 0.11035 0.10012
 H1036 H 0.40995 0.04409 0.05339
 C1037 C 0.14273 0.34312 0.18918
 C1038 C 0.14365 0.35769 0.15787
 C1039 C 0.16394 0.35792 0.14247
 C1040 C 0.18220 0.34294 0.15759
 C1041 C 0.18065 0.32708 0.18800
 C1042 C 0.16084 0.32801 0.20375
 C1043 C 0.16583 0.37240 0.11180
 C1044 C 0.14805 0.38626 0.09574
 C1045 C 0.12741 0.38605 0.10967
 C1046 C 0.12518 0.37161 0.14131
 C1047 C 0.10451 0.37109 0.15515
 C1048 C 0.08666 0.38421 0.13885
 C1049 C 0.08852 0.39846 0.10811
 C1050 C 0.10889 0.39967 0.09301
 C1051 C 0.10982 0.41462 0.06182
 C1052 C 0.09149 0.42818 0.04674
 C1053 C 0.07145 0.42724 0.06187
 C1054 C 0.07006 0.41189 0.09250
 H1055 H 0.12826 0.34251 0.20312
 H1056 H 0.19745 0.34238 0.14517
 H1057 H 0.15921 0.31653 0.22752
 H1058 H 0.18126 0.37280 0.09991
 H1059 H 0.15112 0.39673 0.07215
 H1060 H 0.10143 0.36047 0.17869
 H1061 H 0.07116 0.38322 0.15055
 H1062 H 0.12446 0.41663 0.04835
 H1063 H 0.09310 0.43968 0.02298
 H1064 H 0.05469 0.41126 0.10457
 C1065 C 0.32768 0.12231 0.35516
 C1066 C 0.34905 0.13570 0.35566
 C1067 C 0.35405 0.16727 0.33647
 C1068 C 0.33816 0.18472 0.31805
 C1069 C 0.31704 0.17139 0.31840
 C1070 C 0.31204 0.13997 0.33696
 C1071 C 0.37484 0.18155 0.33592
 C1072 C 0.39095 0.16518 0.35392
 C1073 C 0.38687 0.13370 0.37344
 C1074 C 0.36552 0.11891 0.37454
 C1075 C 0.36131 0.08800 0.39464
 C1076 C 0.37732 0.07186 0.41287
 C1077 C 0.39820 0.08560 0.41181
 C1078 C 0.40340 0.11658 0.39205
 C1079 C 0.42500 0.12886 0.39167
 C1080 C 0.44057 0.11112 0.41008
 C1081 C 0.43522 0.08069 0.42961
 C1082 C 0.41395 0.06819 0.43040
 H1083 H 0.32235 0.09829 0.36849
 H1084 H 0.34220 0.20913 0.30386
 H1085 H 0.29587 0.12882 0.33753
 H1086 H 0.37873 0.20578 0.32141
 H1087 H 0.40646 0.17825 0.35209
 H1088 H 0.34570 0.07548 0.39713
 H1089 H 0.37329 0.04817 0.42793
 H1090 H 0.43056 0.15183 0.37725
 H1091 H 0.45691 0.12137 0.40892
 H1092 H 0.40964 0.04439 0.44516
 C1093 C 0.17350 0.37850 0.35435
 C1094 C 0.15166 0.36757 0.35362
 C1095 C 0.14606 0.33690 0.33367
 C1096 C 0.16177 0.31807 0.31563
 C1097 C 0.18339 0.32889 0.31715
 C1098 C 0.18896 0.35946 0.33655
 C1099 C 0.12484 0.32481 0.33204
 C1100 C 0.10896 0.34209 0.34998
 C1101 C 0.11362 0.37252 0.37049
 C1102 C 0.13531 0.38571 0.37213
 C1103 C 0.13991 0.41647 0.39232
 C1104 C 0.12405 0.43351 0.41051
 C1105 C 0.10292 0.42077 0.40950
 C1106 C 0.09734 0.39018 0.38945
 C1107 C 0.07562 0.37855 0.38932
 C1108 C 0.06028 0.39658 0.40805
 C1109 C 0.06585 0.42680 0.42782
 C1110 C 0.08731 0.43866 0.42844
 H1111 H 0.17933 0.40141 0.36866
 H1112 H 0.15716 0.29444 0.30082
 H1113 H 0.20547 0.36873 0.33826
 H1114 H 0.12042 0.30145 0.31680
 H1115 H 0.09308 0.33070 0.34715
 H1116 H 0.15572 0.42828 0.39470
 H1117 H 0.12843 0.45699 0.42563
 H1118 H 0.06980 0.35560 0.37504
 H1119 H 0.04389 0.38657 0.40697
 H1120 H 0.09189 0.46214 0.44344
 C1121 C 0.17431 0.11545 0.35456
 C1122 C 0.15266 0.12739 0.35361
 C1123 C 0.14749 0.15789 0.33336
 C1124 C 0.16333 0.17536 0.31504
 C1125 C 0.18472 0.16372 0.31681
 C1126 C 0.19002 0.13344 0.33651
 C1127 C 0.12659 0.17138 0.33178
 C1128 C 0.11065 0.15609 0.35064
 C1129 C 0.11497 0.12630 0.37182
 C1130 C 0.13612 0.11077 0.37248
 C1131 C 0.13998 0.07913 0.39188
 C1132 C 0.12392 0.06376 0.41063
 C1133 C 0.10350 0.07953 0.41121
 C1134 C 0.09873 0.11122 0.39207
 C1135 C 0.07790 0.12672 0.39426
 C1136 C 0.06235 0.11046 0.41356
 C1137 C 0.06700 0.07856 0.43167
 C1138 C 0.08772 0.06351 0.43072
 H1139 H 0.17983 0.09295 0.36955
 H1140 H 0.15900 0.19893 0.30003
 H1141 H 0.20645 0.12384 0.33838
 H1142 H 0.12255 0.19442 0.31603
 H1143 H 0.09496 0.16813 0.34764
 H1144 H 0.15523 0.06506 0.39283
 H1145 H 0.12758 0.03932 0.42500
 H1146 H 0.07304 0.15156 0.38165
 H1147 H 0.04654 0.12302 0.41422
 H1148 H 0.09148 0.03878 0.44467
 C1149 C 0.32619 0.37639 0.35638
 C1150 C 0.34781 0.36423 0.35652
 C1151 C 0.35313 0.33307 0.33699
 C1152 C 0.33739 0.31510 0.31837
 C1153 C 0.31603 0.32732 0.31889
 C1154 C 0.31069 0.35818 0.33802
 C1155 C 0.37411 0.31969 0.33630
 C1156 C 0.39006 0.33644 0.35452
 C1157 C 0.38571 0.36757 0.37437
 C1158 C 0.36422 0.38172 0.37539
 C1159 C 0.35987 0.41283 0.39526
 C1160 C 0.37581 0.42957 0.41350
 C1161 C 0.39679 0.41621 0.41279
 C1162 C 0.40212 0.38507 0.39323
 C1163 C 0.42374 0.37294 0.39334
 C1164 C 0.43924 0.39114 0.41172
 C1165 C 0.43390 0.42196 0.43089
 C1166 C 0.41253 0.43416 0.43142
 H1167 H 0.32058 0.39976 0.37030
 H1168 H 0.34176 0.29109 0.30389
 H1169 H 0.29435 0.36843 0.33891
 H1170 H 0.37827 0.29582 0.32152
 H1171 H 0.40573 0.32407 0.35245
 H1172 H 0.34419 0.42517 0.39736
 H1173 H 0.37164 0.45341 0.42831
 H1174 H 0.42936 0.34962 0.37937
 H1175 H 0.45558 0.38091 0.41080
 H1176 H 0.40816 0.45814 0.44594
 C1177 C 0.51162 -0.04354 0.18747
 C1178 C 0.50555 -0.01332 0.20734
 C1179 C 0.49975 0.02095 0.19242
 C1180 C 0.49961 0.02417 0.15903
 C1181 C 0.50509 -0.00649 0.13987
 C1182 C 0.51130 -0.04011 0.15448
 C1183 C 0.49392 0.05177 0.21083
 C1184 C 0.49363 0.04953 0.24381
 C1185 C 0.49909 0.01604 0.25990
 C1186 C 0.50503 -0.01600 0.24135
 C1187 C 0.51006 -0.04971 0.25741
 C1188 C 0.50963 -0.05204 0.29037
 C1189 C 0.50419 -0.02102 0.30882
 C1190 C 0.49881 0.01348 0.29393
 C1191 C 0.49345 0.04407 0.31386
 C1192 C 0.49376 0.04057 0.34685
 C1193 C 0.49931 0.00656 0.36142
 C1194 C 0.50428 -0.02431 0.34220
 H1195 H 0.51671 -0.07035 0.19646
 H1196 H 0.49481 0.05033 0.14797
 H1197 H 0.51597 -0.06419 0.14033
 H1198 H 0.48947 0.07802 0.19961
 H1199 H 0.48889 0.07479 0.25595
 H1200 H 0.51435 -0.07519 0.24524
 H1201 H 0.51368 -0.07850 0.30156
 H1202 H 0.48909 0.07129 0.30493
 H1203 H 0.48959 0.06490 0.36104
 H1204 H 0.50863 -0.05075 0.35320
 C1205 C 0.74384 0.20550 1.06336
 C1206 C 0.75041 0.23553 1.04364
 C1207 C 0.75595 0.26992 1.05867
 C1208 C 0.75525 0.27350 1.09205
 C1209 C 0.74920 0.24306 1.11109
 C1210 C 0.74335 0.20928 1.09633
 C1211 C 0.76230 0.30053 1.04036
 C1212 C 0.76321 0.29802 1.00739
 C1213 C 0.75787 0.26447 0.99121
 C1214 C 0.75156 0.23258 1.00967
 C1215 C 0.74669 0.19878 0.99356
 C1216 C 0.74738 0.19633 0.96061
 C1217 C 0.75296 0.22730 0.94223
 C1218 C 0.75847 0.26177 0.95716
 C1219 C 0.76408 0.29222 0.93723
 C1220 C 0.76356 0.28877 0.90419
 C1221 C 0.75761 0.25491 0.88963
 C1222 C 0.75272 0.22404 0.90886
 H1223 H 0.73892 0.17860 1.05427
 H1224 H 0.75982 0.29978 1.10322
 H1225 H 0.73829 0.18535 1.11036
 H1226 H 0.76660 0.32686 1.05166
 H1227 H 0.76825 0.32313 0.99532
 H1228 H 0.74226 0.17334 1.00566
 H1229 H 0.74331 0.16985 0.94938
 H1230 H 0.76869 0.31934 0.94623
 H1231 H 0.76772 0.31305 0.88995
 H1232 H 0.74809 0.19769 0.89788
 C1233 C 0.57964 0.12924 0.09815
 C1234 C 0.60027 0.11339 0.10222
 C1235 C 0.60502 0.08011 0.08503
 C1236 C 0.58941 0.06298 0.06568
 C1237 C 0.56878 0.07821 0.06322
 C1238 C 0.56422 0.11177 0.07920
 C1239 C 0.62519 0.06363 0.08770
 C1240 C 0.64084 0.07923 0.10716
 C1241 C 0.63690 0.11206 0.12514
 C1242 C 0.61620 0.12923 0.12283
 C1243 C 0.61201 0.16135 0.14156
 C1244 C 0.62751 0.17664 0.16140
 C1245 C 0.64786 0.16080 0.16341
 C1246 C 0.65294 0.12828 0.14541
 C1247 C 0.67398 0.11373 0.14827
 C1248 C 0.68927 0.13126 0.16750
 C1249 C 0.68419 0.16365 0.18484
 C1250 C 0.66329 0.17787 0.18304
 H1251 H 0.57472 0.15496 0.10939
 H1252 H 0.59312 0.03695 0.05346
 H1253 H 0.54849 0.12447 0.07740
 H1254 H 0.62891 0.03818 0.07465
 H1255 H 0.65587 0.06445 0.10780
 H1256 H 0.59676 0.17544 0.14173
 H1257 H 0.62353 0.20140 0.17520
 H1258 H 0.67937 0.08925 0.13557
 H1259 H 0.70528 0.11955 0.16843
 H1260 H 0.65918 0.20312 0.19611
 C1261 C -0.17347 0.36708 0.13626
 C1262 C -0.15158 0.35712 0.13970
 C1263 C -0.14639 0.33010 0.16321
 C1264 C -0.16252 0.31376 0.18204
 C1265 C -0.18413 0.32378 0.17813
 C1266 C -0.18936 0.35062 0.15508
 C1267 C -0.12512 0.31936 0.16786
 C1268 C -0.10870 0.33513 0.14997
 C1269 C -0.11289 0.36235 0.12636
 C1270 C -0.13474 0.37309 0.12081
 C1271 C -0.13903 0.39936 0.09649
 C1272 C -0.12266 0.41520 0.07866
 C1273 C -0.10132 0.40580 0.08429
 C1274 C -0.09600 0.37923 0.10809
 C1275 C -0.07393 0.37116 0.11273
 C1276 C -0.05803 0.38908 0.09475
 C1277 C -0.06348 0.41554 0.07149
 C1278 C -0.08526 0.42335 0.06627
 H1279 H -0.17898 0.38760 0.11936
 H1280 H -0.15815 0.29290 0.19967
 H1281 H -0.20587 0.35902 0.15143
 H1282 H -0.12108 0.29853 0.18568
 H1283 H -0.09281 0.32512 0.15521
 H1284 H -0.15497 0.40835 0.09038
 H1285 H -0.12679 0.43537 0.06034
 H1286 H -0.06831 0.35154 0.13033
 H1287 H -0.04137 0.38244 0.09942
 H1288 H -0.08985 0.44371 0.04836
 C1289 C 0.92519 0.12767 0.10684
 C1290 C 0.90328 0.11728 0.10476
 C1291 C 0.89783 0.08789 0.08342
 C1292 C 0.91367 0.06990 0.06524
 C1293 C 0.93531 0.08011 0.06801
 C1294 C 0.94084 0.10932 0.08884
 C1295 C 0.87662 0.07615 0.08051
 C1296 C 0.86057 0.09236 0.09872
 C1297 C 0.86507 0.12136 0.12071
 C1298 C 0.88671 0.13457 0.12334
 C1299 C 0.89102 0.16457 0.14442
 C1300 C 0.87493 0.18073 0.16269
 C1301 C 0.85390 0.16762 0.16098
 C1302 C 0.84861 0.13771 0.14005
 C1303 C 0.82703 0.12531 0.13956
 C1304 C 0.81147 0.14227 0.15855
 C1305 C 0.81673 0.17204 0.17893
 C1306 C 0.83807 0.18445 0.18009
 H1307 H 0.93091 0.14944 0.12248
 H1308 H 0.90909 0.04729 0.04931
 H1309 H 0.95741 0.11791 0.09158
 H1310 H 0.87235 0.05384 0.06408
 H1311 H 0.84470 0.08146 0.09475
 H1312 H 0.90675 0.17658 0.14731
 H1313 H 0.87905 0.20374 0.17848
 H1314 H 0.82151 0.10244 0.12494
 H1315 H 0.79517 0.13183 0.15720
 H1316 H 0.84240 0.20757 0.19564
 C1317 C 0.64306 0.34132 0.18788
 C1318 C 0.64395 0.35449 0.15611
 C1319 C 0.66425 0.35444 0.14079
 C1320 C 0.68259 0.34042 0.15645
 C1321 C 0.68108 0.32587 0.18737
 C1322 C 0.66123 0.32716 0.20298
 C1323 C 0.66610 0.36771 0.10970
 C1324 C 0.64827 0.38083 0.09324
 C1325 C 0.62762 0.38098 0.10715
 C1326 C 0.62541 0.36741 0.13908
 C1327 C 0.60471 0.36673 0.15277
 C1328 C 0.58684 0.37932 0.13622
 C1329 C 0.58872 0.39319 0.10535
 C1330 C 0.60909 0.39422 0.09025
 C1331 C 0.61000 0.40886 0.05892
 C1332 C 0.59167 0.42262 0.04384
 C1333 C 0.57167 0.42205 0.05910
 C1334 C 0.57029 0.40665 0.08972
 H1335 H 0.62859 0.34120 0.20181
 H1336 H 0.69786 0.33954 0.14411
 H1337 H 0.65962 0.31668 0.22709
 H1338 H 0.68154 0.36783 0.09782
 H1339 H 0.65128 0.39040 0.06935
 H1340 H 0.60160 0.35637 0.17639
 H1341 H 0.57133 0.37835 0.14787
 H1342 H 0.62465 0.41072 0.04546
 H1343 H 0.59324 0.43418 0.02009
 H1344 H 0.55496 0.40637 0.10191
 C1345 C -0.17386 0.13284 0.36324
 C1346 C -0.15202 0.14285 0.36031
 C1347 C -0.14646 0.16918 0.33639
 C1348 C -0.16227 0.18482 0.31654
 C1349 C -0.18404 0.17506 0.32009
 C1350 C -0.18942 0.14864 0.34371
 C1351 C -0.12515 0.18002 0.33245
 C1352 C -0.10909 0.16503 0.35146
 C1353 C -0.11371 0.13845 0.37545
 C1354 C -0.13558 0.12749 0.38018
 C1355 C -0.14030 0.10149 0.40459
 C1356 C -0.12428 0.08595 0.42319
 C1357 C -0.10289 0.09559 0.41842
 C1358 C -0.09721 0.12219 0.39475
 C1359 C -0.07517 0.13090 0.39120
 C1360 C -0.05961 0.11319 0.40973
 C1361 C -0.06537 0.08632 0.43254
 C1362 C -0.08713 0.07816 0.43703
 H1363 H -0.17966 0.11286 0.38038
 H1364 H -0.15748 0.20511 0.29864
 H1365 H -0.20587 0.13987 0.34752
 H1366 H -0.12079 0.20031 0.31434
 H1367 H -0.09313 0.17501 0.34662
 H1368 H -0.15630 0.09227 0.41010
 H1369 H -0.12870 0.06584 0.44141
 H1370 H -0.06929 0.15084 0.37406
 H1371 H -0.04293 0.12022 0.40569
 H1372 H -0.09187 0.05753 0.45465
 C1373 C 0.67348 0.37792 0.35440
 C1374 C 0.65209 0.36460 0.35594
 C1375 C 0.64688 0.33238 0.33759
 C1376 C 0.66255 0.31438 0.31892
 C1377 C 0.68374 0.32758 0.31824
 C1378 C 0.68892 0.35964 0.33602
 C1379 C 0.62611 0.31793 0.33821
 C1380 C 0.61028 0.33458 0.35666
 C1381 C 0.61454 0.36665 0.37546
 C1382 C 0.63580 0.38194 0.37510
 C1383 C 0.64008 0.41395 0.39398
 C1384 C 0.62425 0.43058 0.41244
 C1385 C 0.60347 0.41620 0.41298
 C1386 C 0.59824 0.38403 0.39458
 C1387 C 0.57683 0.37083 0.39600
 C1388 C 0.56138 0.38914 0.41435
 C1389 C 0.56658 0.42112 0.43222
 C1390 C 0.58780 0.43423 0.43164
 H1391 H 0.67897 0.40224 0.36726
 H1392 H 0.65828 0.28949 0.30544
 H1393 H 0.70511 0.37071 0.33594
 H1394 H 0.62203 0.29327 0.32430
 H1395 H 0.59477 0.32136 0.35561
 H1396 H 0.65561 0.42709 0.39510
 H1397 H 0.62835 0.45518 0.42641
 H1398 H 0.57131 0.34660 0.38304
 H1399 H 0.54517 0.37816 0.41434
 H1400 H 0.59208 0.45907 0.44517
 C1401 C 0.67425 0.11649 0.35553
 C1402 C 0.65322 0.13136 0.35747
 C1403 C 0.64852 0.16363 0.33904
 C1404 C 0.66422 0.18003 0.31976
 C1405 C 0.68501 0.16537 0.31867
 C1406 C 0.68985 0.13340 0.33656
 C1407 C 0.62826 0.17989 0.34019
 C1408 C 0.61239 0.16507 0.35947
 C1409 C 0.61613 0.13304 0.37843
 C1410 C 0.63682 0.11566 0.37719
 C1411 C 0.64040 0.08315 0.39563
 C1412 C 0.62441 0.06802 0.41456
 C1413 C 0.60425 0.08464 0.41608
 C1414 C 0.59978 0.11754 0.39831
 C1415 C 0.57901 0.13329 0.40105
 C1416 C 0.56328 0.11620 0.41958
 C1417 C 0.56771 0.08322 0.43634
 C1418 C 0.58836 0.06798 0.43494
 H1419 H 0.67938 0.09219 0.36867
 H1420 H 0.66034 0.20506 0.30627
 H1421 H 0.70582 0.12151 0.33613
 H1422 H 0.62463 0.20459 0.32611
 H1423 H 0.59725 0.17948 0.35872
 H1424 H 0.65541 0.06827 0.39582
 H1425 H 0.62785 0.04281 0.42806
 H1426 H 0.57421 0.15859 0.38907
 H1427 H 0.54748 0.12877 0.42052
 H1428 H 0.59196 0.04233 0.44774
 C1429 C -0.17345 0.37557 0.35725
 C1430 C -0.15214 0.36201 0.35891
 C1431 C -0.14692 0.33020 0.34010
 C1432 C -0.16251 0.31283 0.32081
 C1433 C -0.18360 0.32636 0.31994
 C1434 C -0.18881 0.35794 0.33825
 C1435 C -0.12621 0.31559 0.34079
 C1436 C -0.11039 0.33189 0.35956
 C1437 C -0.11464 0.36371 0.37866
 C1438 C -0.13591 0.37885 0.37851
 C1439 C -0.14027 0.41027 0.39802
 C1440 C -0.12444 0.42672 0.41663
 C1441 C -0.10359 0.41277 0.41666
 C1442 C -0.09832 0.38102 0.39781
 C1443 C -0.07681 0.36829 0.39870
 C1444 C -0.06130 0.38681 0.41688
 C1445 C -0.06657 0.41846 0.43508
 C1446 C -0.08788 0.43092 0.43516
 H1447 H -0.17892 0.39969 0.37035
 H1448 H -0.15828 0.28822 0.30697
 H1449 H -0.20494 0.36921 0.33799
 H1450 H -0.12214 0.29116 0.32661
 H1451 H -0.09492 0.31861 0.35856
 H1452 H -0.15584 0.42308 0.39956
 H1453 H -0.12857 0.45094 0.43103
 H1454 H -0.07125 0.34444 0.38532
 H1455 H -0.04500 0.37636 0.41638
 H1456 H -0.09220 0.45551 0.44896
 C1457 C 0.01613 0.46263 0.18621
 C1458 C 0.00794 0.49111 0.20628
 C1459 C -0.00002 0.52413 0.19151
 C1460 C -0.00028 0.52765 0.15807
 C1461 C 0.00708 0.49839 0.13869
 C1462 C 0.01558 0.46625 0.15318
 C1463 C -0.00803 0.55325 0.21013
 C1464 C -0.00860 0.55038 0.24310
 C1465 C -0.00123 0.51792 0.25904
 C1466 C 0.00723 0.48780 0.24033
 C1467 C 0.01448 0.45525 0.25626
 C1468 C 0.01360 0.45216 0.28921
 C1469 C 0.00551 0.48123 0.30783
 C1470 C -0.00205 0.51454 0.29307
 C1471 C -0.01009 0.54316 0.31312
 C1472 C -0.01018 0.53909 0.34611
 C1473 C -0.00244 0.50637 0.36062
 C1474 C 0.00513 0.47726 0.34125
 H1475 H 0.02293 0.43695 0.19508
 H1476 H -0.00687 0.55266 0.14714
 H1477 H 0.02174 0.44337 0.13885
 H1478 H -0.01408 0.57860 0.19907
 H1479 H -0.01510 0.57431 0.25537
 H1480 H 0.02090 0.43127 0.24396
 H1481 H 0.01940 0.42662 0.30026
 H1482 H -0.01633 0.56928 0.30428
 H1483 H -0.01638 0.56198 0.36038
 H1484 H 0.01123 0.45187 0.35219
 C1485 C 0.24421 0.70805 1.06270
 C1486 C 0.25090 0.73786 1.04287
 C1487 C 0.25688 0.77211 1.05778
 C1488 C 0.25647 0.77574 1.09119
 C1489 C 0.25025 0.74551 1.11033
 C1490 C 0.24398 0.71188 1.09565
 C1491 C 0.26333 0.80252 1.03932
 C1492 C 0.26387 0.79997 1.00633
 C1493 C 0.25805 0.76657 0.99027
 C1494 C 0.25170 0.73484 1.00888
 C1495 C 0.24644 0.70112 0.99290
 C1496 C 0.24675 0.69864 0.95994
 C1497 C 0.25233 0.72949 0.94142
 C1498 C 0.25823 0.76385 0.95622
 C1499 C 0.26381 0.79419 0.93617
 C1500 C 0.26296 0.79073 0.90316
 C1501 C 0.25667 0.75697 0.88872
 C1502 C 0.25174 0.72621 0.90805
 H1503 H 0.23894 0.68129 1.05372
 H1504 H 0.26133 0.80191 1.10227
 H1505 H 0.23875 0.68811 1.10973
 H1506 H 0.26797 0.82873 1.05051
 H1507 H 0.26902 0.82493 0.99413
 H1508 H 0.24200 0.67577 1.00511
 H1509 H 0.24240 0.67224 0.94882
 H1510 H 0.26866 0.82124 0.94505
 H1511 H 0.26717 0.81492 0.88885
 H1512 H 0.24687 0.69994 0.89716
 C1513 C 0.07806 0.63100 0.09843
 C1514 C 0.09908 0.61637 0.10115
 C1515 C 0.10398 0.58353 0.08344
 C1516 C 0.08828 0.56599 0.06444
 C1517 C 0.06739 0.58031 0.06295
 C1518 C 0.06258 0.61315 0.07985
 C1519 C 0.12443 0.56793 0.08515
 C1520 C 0.14018 0.58390 0.10425
 C1521 C 0.13613 0.61637 0.12264
 C1522 C 0.11525 0.63295 0.12097
 C1523 C 0.11118 0.66541 0.13936
 C1524 C 0.12685 0.68124 0.15861
 C1525 C 0.14725 0.66555 0.16046
 C1526 C 0.15227 0.63290 0.14260
 C1527 C 0.17332 0.61837 0.14541
 C1528 C 0.18866 0.63600 0.16450
 C1529 C 0.18364 0.66850 0.18175
 C1530 C 0.16276 0.68282 0.17987
 H1531 H 0.07285 0.65597 0.11057
 H1532 H 0.09218 0.54047 0.05161
 H1533 H 0.04663 0.62510 0.07896
 H1534 H 0.12829 0.54287 0.07168
 H1535 H 0.15543 0.56982 0.10408
 H1536 H 0.09594 0.67954 0.13954
 H1537 H 0.12294 0.70623 0.17216
 H1538 H 0.17863 0.59365 0.13299
 H1539 H 0.20463 0.62415 0.16552
 H1540 H 0.15867 0.70813 0.19288
 C1541 C 0.42698 0.87690 0.11525
 C1542 C 0.40495 0.88531 0.11134
 C1543 C 0.39945 0.91241 0.08806
 C1544 C 0.41534 0.92989 0.06954
 C1545 C 0.43725 0.92138 0.07362
 C1546 C 0.44271 0.89455 0.09685
 C1547 C 0.37807 0.92220 0.08329
 C1548 C 0.36187 0.90583 0.10114
 C1549 C 0.36635 0.87862 0.12465
 C1550 C 0.38824 0.86795 0.12969
 C1551 C 0.39266 0.84020 0.15280
 C1552 C 0.37638 0.82355 0.17044
 C1553 C 0.35503 0.83382 0.16601
 C1554 C 0.34966 0.86156 0.14315
 C1555 C 0.32772 0.87100 0.13981
 C1556 C 0.31196 0.85338 0.15801
 C1557 C 0.31731 0.82576 0.18037
 C1558 C 0.33898 0.81626 0.18430
 H1559 H 0.43274 0.85696 0.13247
 H1560 H 0.41043 0.95047 0.05197
 H1561 H 0.45928 0.88693 0.10113
 H1562 H 0.37376 0.94292 0.06551
 H1563 H 0.34589 0.91517 0.09565
 H1564 H 0.40862 0.83038 0.15782
 H1565 H 0.38060 0.80230 0.18780
 H1566 H 0.32204 0.89191 0.12338
 H1567 H 0.29541 0.86154 0.15437
 H1568 H 0.34342 0.79488 0.20143
 C1569 C 0.32687 0.62303 0.14258
 C1570 C 0.34876 0.63322 0.14535
 C1571 C 0.35403 0.66275 0.16666
 C1572 C 0.33799 0.68094 0.18430
 C1573 C 0.31641 0.67054 0.18110
 C1574 C 0.31108 0.64142 0.16010
 C1575 C 0.37526 0.67422 0.17017
 C1576 C 0.39153 0.65724 0.15289
 C1577 C 0.38723 0.62777 0.13128
 C1578 C 0.36550 0.61538 0.12760
 C1579 C 0.36121 0.58561 0.10628
 C1580 C 0.37742 0.56881 0.08884
 C1581 C 0.39858 0.58079 0.09184
 C1582 C 0.40392 0.61028 0.11313
 C1583 C 0.42577 0.62099 0.11522
 C1584 C 0.44144 0.60325 0.09688
 C1585 C 0.43597 0.57432 0.07577
 C1586 C 0.41445 0.56324 0.07350
 H1587 H 0.32125 0.60116 0.12698
 H1588 H 0.34235 0.70360 0.20032
 H1589 H 0.29456 0.63268 0.15706
 H1590 H 0.37936 0.69679 0.18642
 H1591 H 0.40740 0.66805 0.15713
 H1592 H 0.34540 0.57437 0.10239
 H1593 H 0.37330 0.54611 0.07272
 H1594 H 0.43141 0.64299 0.13069
 H1595 H 0.45793 0.61241 0.09925
 H1596 H 0.40996 0.54070 0.05744
 C1597 C 0.07851 0.87070 0.10236
 C1598 C 0.09945 0.88574 0.10503
 C1599 C 0.10434 0.91825 0.08692
 C1600 C 0.08865 0.93520 0.06769
 C1601 C 0.06785 0.92045 0.06623
 C1602 C 0.06306 0.88791 0.08347
 C1603 C 0.12479 0.93397 0.08835
 C1604 C 0.14065 0.91808 0.10718
 C1605 C 0.13666 0.88573 0.12569
 C1606 C 0.11561 0.86963 0.12495
 C1607 C 0.11134 0.83814 0.14436
 C1608 C 0.12711 0.82231 0.16327
 C1609 C 0.14780 0.83698 0.16364
 C1610 C 0.15297 0.86888 0.14496
 C1611 C 0.17439 0.88215 0.14611
 C1612 C 0.18988 0.86407 0.16453
 C1613 C 0.18461 0.83239 0.18264
 C1614 C 0.16343 0.81935 0.18236
 H1615 H 0.07340 0.84566 0.11448
 H1616 H 0.09253 0.96044 0.05448
 H1617 H 0.04718 0.87558 0.08250
 H1618 H 0.12860 0.95892 0.07469
 H1619 H 0.15591 0.93222 0.10686
 H1620 H 0.09585 0.82493 0.14579
 H1621 H 0.12307 0.79803 0.17762
 H1622 H 0.17989 0.90600 0.13268
 H1623 H 0.20613 0.87483 0.16429
 H1624 H 0.15915 0.79466 0.19605
 C1625 C 0.32516 0.62263 0.35878
 C1626 C 0.34685 0.63448 0.35824
 C1627 C 0.35219 0.66522 0.33830
 C1628 C 0.33649 0.68282 0.31967
 C1629 C 0.31514 0.67072 0.32060
 C1630 C 0.30967 0.64053 0.34034
 C1631 C 0.37316 0.67853 0.33710
 C1632 C 0.38911 0.66218 0.35535
 C1633 C 0.38475 0.63148 0.37561
 C1634 C 0.36330 0.61713 0.37686
 C1635 C 0.35907 0.58584 0.39653
 C1636 C 0.37511 0.56923 0.41453
 C1637 C 0.39600 0.58308 0.41384
 C1638 C 0.40116 0.61445 0.39450
 C1639 C 0.42262 0.62741 0.39489
 C1640 C 0.43818 0.60954 0.41311
 C1641 C 0.43304 0.57830 0.43183
 C1642 C 0.41182 0.56540 0.43228
 H1643 H 0.31949 0.59988 0.37336
 H1644 H 0.34091 0.70642 0.30475
 H1645 H 0.29327 0.63058 0.34165
 H1646 H 0.37731 0.70203 0.32191
 H1647 H 0.40480 0.67436 0.35275
 H1648 H 0.34348 0.57308 0.39847
 H1649 H 0.37110 0.54516 0.42915
 H1650 H 0.42806 0.65126 0.38144
 H1651 H 0.45441 0.62040 0.41243
 H1652 H 0.40764 0.54115 0.44659
 C1653 C 0.17353 -0.11830 0.35296
 C1654 C 0.15193 -0.13070 0.35361
 C1655 C 0.14654 -0.16221 0.33449
 C1656 C 0.16220 -0.18039 0.31591
 C1657 C 0.18359 -0.16814 0.31611
 C1658 C 0.18897 -0.13678 0.33467
 C1659 C 0.12560 -0.17585 0.33428
 C1660 C 0.10979 -0.15925 0.35280
 C1661 C 0.11424 -0.12799 0.37249
 C1662 C 0.13563 -0.11327 0.37272
 C1663 C 0.14000 -0.08171 0.39211
 C1664 C 0.12419 -0.06526 0.41078
 C1665 C 0.10334 -0.07940 0.41106
 C1666 C 0.09801 -0.11093 0.39192
 C1667 C 0.07656 -0.12399 0.39308
 C1668 C 0.06121 -0.10624 0.41195
 C1669 C 0.06650 -0.07497 0.43066
 C1670 C 0.08773 -0.06189 0.43025
 H1671 H 0.17918 -0.09465 0.36656
 H1672 H 0.15777 -0.20475 0.30187
 H1673 H 0.20531 -0.12648 0.33532
 H1674 H 0.12136 -0.19990 0.31972
 H1675 H 0.09414 -0.17184 0.35106
 H1676 H 0.15559 -0.06879 0.39345
 H1677 H 0.12837 -0.04107 0.42520
 H1678 H 0.07097 -0.14779 0.37964
 H1679 H 0.04500 -0.11721 0.41179
 H1680 H 0.09206 -0.03756 0.44441
 C1681 C 0.17162 0.61781 0.34973
 C1682 C 0.15026 0.63125 0.35019
 C1683 C 0.14546 0.66327 0.33147
 C1684 C 0.16149 0.68101 0.31352
 C1685 C 0.18264 0.66783 0.31405
 C1686 C 0.18746 0.63592 0.33207
 C1687 C 0.12478 0.67793 0.33110
 C1688 C 0.10865 0.66198 0.34933
 C1689 C 0.11256 0.63041 0.36878
 C1690 C 0.13364 0.61446 0.36889
 C1691 C 0.13745 0.58243 0.38784
 C1692 C 0.12144 0.56688 0.40650
 C1693 C 0.10098 0.58244 0.40712
 C1694 C 0.09611 0.61428 0.38822
 C1695 C 0.07495 0.62861 0.38973
 C1696 C 0.05944 0.61183 0.40896
 C1697 C 0.06444 0.58046 0.42754
 C1698 C 0.08530 0.56601 0.42654
 H1699 H 0.17684 0.59372 0.36306
 H1700 H 0.15755 0.70582 0.29978
 H1701 H 0.20365 0.62495 0.33282
 H1702 H 0.12103 0.70234 0.31674
 H1703 H 0.09323 0.67532 0.34760
 H1704 H 0.15271 0.56845 0.38890
 H1705 H 0.12516 0.54233 0.42071
 H1706 H 0.06972 0.65270 0.37641
 H1707 H 0.04343 0.62360 0.40928
 H1708 H 0.08932 0.54145 0.44054
 C1709 C 0.32620 -0.12469 0.35858
 C1710 C 0.34801 -0.13566 0.35748
 C1711 C 0.35346 -0.16604 0.33717
 C1712 C 0.33767 -0.18433 0.31889
 C1713 C 0.31615 -0.17315 0.32046
 C1714 C 0.31067 -0.14316 0.34048
 C1715 C 0.37463 -0.17824 0.33526
 C1716 C 0.39066 -0.16105 0.35301
 C1717 C 0.38618 -0.13062 0.37357
 C1718 C 0.36449 -0.11769 0.37584
 C1719 C 0.36002 -0.08725 0.39638
 C1720 C 0.37604 -0.07007 0.41415
 C1721 C 0.39720 -0.08231 0.41228
 C1722 C 0.40266 -0.11268 0.39196
 C1723 C 0.42447 -0.12367 0.39091
 C1724 C 0.43999 -0.10526 0.40908
 C1725 C 0.43449 -0.07530 0.42913
 C1726 C 0.41297 -0.06408 0.43062
 H1727 H 0.32046 -0.10205 0.37323
 H1728 H 0.34216 -0.20764 0.30369
 H1729 H 0.29420 -0.13372 0.34225
 H1730 H 0.37890 -0.20151 0.31985
 H1731 H 0.40648 -0.17249 0.34998
 H1732 H 0.34420 -0.07577 0.39939
 H1733 H 0.37177 -0.04680 0.42955
 H1734 H 0.43021 -0.14631 0.37626
 H1735 H 0.45645 -0.11471 0.40736
 H1736 H 0.40846 -0.04078 0.44584
 C1737 C 0.51525 0.46050 0.18697
 C1738 C 0.50681 0.48888 0.20690
 C1739 C 0.49888 0.52188 0.19207
 C1740 C 0.49889 0.52546 0.15868
 C1741 C 0.50654 0.49633 0.13943
 C1742 C 0.51498 0.46420 0.15397
 C1743 C 0.49069 0.55094 0.21057
 C1744 C 0.49004 0.54813 0.24352
 C1745 C 0.49748 0.51576 0.25952
 C1746 C 0.50592 0.48555 0.24089
 C1747 C 0.51296 0.45288 0.25683
 C1748 C 0.51212 0.44991 0.28975
 C1749 C 0.50428 0.47923 0.30830
 C1750 C 0.49678 0.51257 0.29353
 C1751 C 0.48902 0.54145 0.31356
 C1752 C 0.48921 0.53762 0.34655
 C1753 C 0.49696 0.50490 0.36100
 C1754 C 0.50415 0.47550 0.34168
 H1755 H 0.52211 0.43491 0.19591
 H1756 H 0.49235 0.55046 0.14766
 H1757 H 0.52137 0.44145 0.13970
 H1758 H 0.48463 0.57623 0.19943
 H1759 H 0.48340 0.57199 0.25572
 H1760 H 0.51918 0.42871 0.24457
 H1761 H 0.51780 0.42431 0.30084
 H1762 H 0.48289 0.56765 0.30470
 H1763 H 0.48329 0.56070 0.36087
 H1764 H 0.51023 0.45010 0.35262
 C1765 C 0.74457 0.70670 1.06257
 C1766 C 0.75116 0.73661 1.04277
 C1767 C 0.75702 0.77090 1.05773
 C1768 C 0.75650 0.77454 1.09112
 C1769 C 0.75030 0.74426 1.11022
 C1770 C 0.74424 0.71053 1.09552
 C1771 C 0.76345 0.80137 1.03932
 C1772 C 0.76408 0.79885 1.00634
 C1773 C 0.75835 0.76544 0.99023
 C1774 C 0.75198 0.73368 1.00878
 C1775 C 0.74665 0.70003 0.99272
 C1776 C 0.74694 0.69766 0.95976
 C1777 C 0.75259 0.72852 0.94131
 C1778 C 0.75858 0.76279 0.95618
 C1779 C 0.76429 0.79312 0.93621
 C1780 C 0.76339 0.78979 0.90319
 C1781 C 0.75694 0.75617 0.88868
 C1782 C 0.75195 0.72537 0.90793
 H1783 H 0.73950 0.67985 1.05357
 H1784 H 0.76123 0.80076 1.10222
 H1785 H 0.73908 0.68669 1.10958
 H1786 H 0.76800 0.82761 1.05055
 H1787 H 0.76919 0.82387 0.99420
 H1788 H 0.74211 0.67469 1.00488
 H1789 H 0.74252 0.67132 0.94858
 H1790 H 0.76929 0.82006 0.94514
 H1791 H 0.76767 0.81400 0.88895
 H1792 H 0.74698 0.69920 0.89697
 C1793 C 0.57906 0.63494 0.09371
 C1794 C 0.59991 0.61975 0.09705
 C1795 C 0.60463 0.58632 0.08005
 C1796 C 0.58891 0.56870 0.06126
 C1797 C 0.56811 0.58333 0.05946
 C1798 C 0.56349 0.61686 0.07542
 C1799 C 0.62486 0.57006 0.08246
 C1800 C 0.64050 0.58564 0.10194
 C1801 C 0.63655 0.61841 0.11995
 C1802 C 0.61602 0.63612 0.11707
 C1803 C 0.61223 0.66938 0.13451
 C1804 C 0.62776 0.68468 0.15431
 C1805 C 0.64768 0.66757 0.15772
 C1806 C 0.65244 0.63419 0.14070
 C1807 C 0.67298 0.61809 0.14522
 C1808 C 0.68816 0.63504 0.16498
 C1809 C 0.68343 0.66832 0.18127
 C1810 C 0.66301 0.68412 0.17783
 H1811 H 0.57398 0.66030 0.10537
 H1812 H 0.59264 0.54262 0.04914
 H1813 H 0.54759 0.62900 0.07423
 H1814 H 0.62860 0.54464 0.06939
 H1815 H 0.65559 0.57105 0.10232
 H1816 H 0.59737 0.68460 0.13342
 H1817 H 0.62409 0.71032 0.16712
 H1818 H 0.67799 0.59254 0.13376
 H1819 H 0.70379 0.62208 0.16729
 H1820 H 0.65920 0.71008 0.19009
 C1821 C 0.92511 0.86797 0.10736
 C1822 C 0.90324 0.87844 0.10531
 C1823 C 0.89785 0.90786 0.08405
 C1824 C 0.91370 0.92577 0.06588
 C1825 C 0.93530 0.91546 0.06861
 C1826 C 0.94078 0.88624 0.08937
 C1827 C 0.87668 0.91972 0.08119
 C1828 C 0.86061 0.90364 0.09944
 C1829 C 0.86506 0.87466 0.12139
 C1830 C 0.88664 0.86122 0.12386
 C1831 C 0.89086 0.83103 0.14472
 C1832 C 0.87472 0.81494 0.16296
 C1833 C 0.85377 0.82837 0.16148
 C1834 C 0.84860 0.85849 0.14080
 C1835 C 0.82712 0.87130 0.14060
 C1836 C 0.81152 0.85439 0.15950
 C1837 C 0.81665 0.82430 0.17952
 C1838 C 0.83790 0.81160 0.18054
 H1839 H 0.93079 0.84622 0.12299
 H1840 H 0.90917 0.94838 0.04999
 H1841 H 0.95733 0.87760 0.09205
 H1842 H 0.87246 0.94202 0.06479
 H1843 H 0.84476 0.91458 0.09548
 H1844 H 0.90652 0.81879 0.14739
 H1845 H 0.87875 0.79175 0.17855
 H1846 H 0.82172 0.89447 0.12629
 H1847 H 0.79528 0.86508 0.15833
 H1848 H 0.84210 0.78825 0.19585
 C1849 C 0.92458 0.62740 0.10815
 C1850 C 0.90274 0.61652 0.10635
 C1851 C 0.89740 0.58668 0.08541
 C1852 C 0.91328 0.56880 0.06727
 C1853 C 0.93483 0.57959 0.06968
 C1854 C 0.94026 0.60917 0.09018
 C1855 C 0.87627 0.57441 0.08282
 C1856 C 0.86018 0.59059 0.10095
 C1857 C 0.86456 0.62010 0.12249
 C1858 C 0.88612 0.63380 0.12480
 C1859 C 0.89031 0.66432 0.14539
 C1860 C 0.87417 0.68055 0.16348
 C1861 C 0.85322 0.66699 0.16207
 C1862 C 0.84806 0.63652 0.14167
 C1863 C 0.82655 0.62371 0.14147
 C1864 C 0.81093 0.64089 0.16018
 C1865 C 0.81609 0.67124 0.17998
 C1866 C 0.83735 0.68398 0.18092
 H1867 H 0.93022 0.64949 0.12353
 H1868 H 0.90878 0.54589 0.05160
 H1869 H 0.95678 0.61817 0.09264
 H1870 H 0.87210 0.55174 0.06670
 H1871 H 0.84437 0.57930 0.09724
 H1872 H 0.90596 0.67672 0.14799
 H1873 H 0.87817 0.70400 0.17887
 H1874 H 0.82115 0.60039 0.12728
 H1875 H 0.79468 0.63020 0.15906
 H1876 H 0.84157 0.70756 0.19604
 C1877 C 0.57725 0.86940 0.10211
 C1878 C 0.59902 0.88028 0.10048
 C1879 C 0.60451 0.90933 0.07890
 C1880 C 0.58874 0.92640 0.05976
 C1881 C 0.56697 0.91617 0.06245
 C1882 C 0.56168 0.88700 0.08370
 C1883 C 0.62567 0.92182 0.07699
 C1884 C 0.64147 0.90682 0.09654
 C1885 C 0.63681 0.87810 0.11867
 C1886 C 0.61535 0.86385 0.11998
 C1887 C 0.61093 0.83358 0.14070
 C1888 C 0.62669 0.81832 0.16002
 C1889 C 0.64748 0.83261 0.15980
 C1890 C 0.65291 0.86280 0.13930
 C1891 C 0.67425 0.87637 0.14047
 C1892 C 0.68954 0.85982 0.16030
 C1893 C 0.68415 0.82944 0.17991
 C1894 C 0.66296 0.81635 0.17977
 H1895 H 0.57146 0.84803 0.11803
 H1896 H 0.59347 0.94878 0.04372
 H1897 H 0.54525 0.87767 0.08670
 H1898 H 0.63005 0.94392 0.06049
 H1899 H 0.65732 0.91824 0.09343
 H1900 H 0.59543 0.82044 0.14235
 H1901 H 0.62251 0.79500 0.17539
 H1902 H 0.67974 0.89974 0.12643
 H1903 H 0.70575 0.87079 0.16001
 H1904 H 0.65853 0.79276 0.19470
 C1905 C -0.17499 0.62329 0.35928
 C1906 C -0.15388 0.63780 0.36143
 C1907 C -0.14890 0.66999 0.34298
 C1908 C -0.16442 0.68653 0.32332
 C1909 C -0.18523 0.67188 0.32172
 C1910 C -0.19033 0.64018 0.33987
 C1911 C -0.12848 0.68575 0.34432
 C1912 C -0.11266 0.67013 0.36331
 C1913 C -0.11661 0.63779 0.38185
 C1914 C -0.13762 0.62151 0.38110
 C1915 C -0.14163 0.58942 0.39992
 C1916 C -0.12566 0.57328 0.41833
 C1917 C -0.10505 0.58831 0.41885
 C1918 C -0.10019 0.62093 0.40087
 C1919 C -0.07895 0.63491 0.40237
 C1920 C -0.06324 0.61660 0.42007
 C1921 C -0.06805 0.58394 0.43716
 C1922 C -0.08913 0.57034 0.43687
 H1923 H -0.18033 0.59901 0.37227
 H1924 H -0.16034 0.71135 0.30965
 H1925 H -0.20630 0.62822 0.33912
 H1926 H -0.12465 0.71052 0.33045
 H1927 H -0.09741 0.68425 0.36274
 H1928 H -0.15700 0.57572 0.40093
 H1929 H -0.12947 0.54842 0.43210
 H1930 H -0.07373 0.65960 0.38985
 H1931 H -0.04712 0.62799 0.42002
 H1932 H -0.09307 0.54501 0.44994
 C1933 C 0.67290 -0.11860 0.35184
 C1934 C 0.65174 -0.13282 0.35443
 C1935 C 0.64664 -0.16553 0.33667
 C1936 C 0.66218 -0.18313 0.31752
 C1937 C 0.68317 -0.16911 0.31588
 C1938 C 0.68825 -0.13657 0.33306
 C1939 C 0.62613 -0.18095 0.33840
 C1940 C 0.61045 -0.16483 0.35745
 C1941 C 0.61462 -0.13230 0.37574
 C1942 C 0.63560 -0.11596 0.37415
 C1943 C 0.63975 -0.08339 0.39239
 C1944 C 0.62406 -0.06725 0.41143
 C1945 C 0.60356 -0.08271 0.41320
 C1946 C 0.59848 -0.11547 0.39548
 C1947 C 0.57735 -0.12978 0.39815
 C1948 C 0.56199 -0.11184 0.41692
 C1949 C 0.56704 -0.07923 0.43402
 C1950 C 0.58801 -0.06511 0.43234
 H1951 H 0.67830 -0.09389 0.36423
 H1952 H 0.65803 -0.20849 0.30459
 H1953 H 0.70431 -0.12494 0.33222
 H1954 H 0.62214 -0.20599 0.32494
 H1955 H 0.59515 -0.17878 0.35727
 H1956 H 0.65505 -0.06939 0.39252
 H1957 H 0.62803 -0.04216 0.42484
 H1958 H 0.57199 -0.15458 0.38585
 H1959 H 0.54596 -0.12356 0.41782
 H1960 H 0.59211 -0.03971 0.44523
 C1961 C 0.67133 0.61851 0.35042
 C1962 C 0.65052 0.63404 0.35333
 C1963 C 0.64590 0.66693 0.33563
 C1964 C 0.66168 0.68377 0.31662
 C1965 C 0.68237 0.66867 0.31498
 C1966 C 0.68694 0.63573 0.33173
 C1967 C 0.62567 0.68331 0.33733
 C1968 C 0.60975 0.66787 0.35627
 C1969 C 0.61347 0.63528 0.37455
 C1970 C 0.63426 0.61824 0.37325
 C1971 C 0.63817 0.58623 0.39216
 C1972 C 0.62236 0.57101 0.41135
 C1973 C 0.60198 0.58683 0.41247
 C1974 C 0.59713 0.61913 0.39416
 C1975 C 0.57600 0.63357 0.39607
 C1976 C 0.56046 0.61621 0.41487
 C1977 C 0.56542 0.58417 0.43264
 C1978 C 0.58632 0.56996 0.43159
 H1979 H 0.67624 0.59323 0.36233
 H1980 H 0.65798 0.70939 0.30384
 H1981 H 0.70275 0.62324 0.33063
 H1982 H 0.62210 0.70853 0.32391
 H1983 H 0.59469 0.68255 0.35619
 H1984 H 0.65340 0.57212 0.39293
 H1985 H 0.62612 0.54632 0.42535
 H1986 H 0.57075 0.65785 0.38301
 H1987 H 0.54441 0.62780 0.41524
 H1988 H 0.59033 0.54492 0.44498
 C1989 C -0.17409 -0.12595 0.35893
 C1990 C -0.15254 -0.13843 0.35925
 C1991 C -0.14721 -0.16936 0.33947
 C1992 C -0.16293 -0.18690 0.32052
 C1993 C -0.18423 -0.17433 0.32081
 C1994 C -0.18955 -0.14367 0.34017
 C1995 C -0.12625 -0.18282 0.33878
 C1996 C -0.11027 -0.16610 0.35697
 C1997 C -0.11460 -0.13503 0.37689
 C1998 C -0.13616 -0.12125 0.37835
 C1999 C -0.14063 -0.09082 0.39890
 C2000 C -0.12466 -0.07397 0.41696
 C2001 C -0.10353 -0.08648 0.41534
 C2002 C -0.09812 -0.11720 0.39539
 C2003 C -0.07633 -0.12840 0.39458
 C2004 C -0.06076 -0.10961 0.41244
 C2005 C -0.06620 -0.07911 0.43191
 C2006 C -0.08774 -0.06799 0.43343
 H2007 H -0.17967 -0.10252 0.37281
 H2008 H -0.15857 -0.21073 0.30582
 H2009 H -0.20583 -0.13312 0.34087
 H2010 H -0.12210 -0.20661 0.32389
 H2011 H -0.09460 -0.17847 0.35490
 H2012 H -0.15642 -0.07918 0.40175
 H2013 H -0.12890 -0.05060 0.43225
 H2014 H -0.07064 -0.15126 0.38013
 H2015 H -0.04428 -0.11900 0.41074
 H2016 H -0.09224 -0.04434 0.44825
 C2017 C -0.00314 -0.04727 0.81398
 C2018 C -0.00274 -0.01533 0.79414
 C2019 C -0.00218 0.02035 0.80917
 C2020 C -0.00211 0.02355 0.84266
 C2021 C -0.00244 -0.00856 0.86216
 C2022 C -0.00298 -0.04393 0.84702
 C2023 C -0.00164 0.05278 0.79072
 C2024 C -0.00146 0.05078 0.75768
 C2025 C -0.00190 0.01597 0.74148
 C2026 C -0.00277 -0.01765 0.76002
 C2027 C -0.00370 -0.05244 0.74380
 C2028 C -0.00362 -0.05444 0.71076
 C2029 C -0.00253 -0.02205 0.69233
 C2030 C -0.00158 0.01364 0.70737
 C2031 C -0.00026 0.04556 0.68753
 C2032 C -0.00013 0.04212 0.65449
 C2033 C -0.00128 0.00686 0.63964
 C2034 C -0.00239 -0.02521 0.65884
 H2035 H -0.00343 -0.07551 0.80491
 H2036 H -0.00166 0.05126 0.85337
 H2037 H -0.00325 -0.06975 0.86063
 H2038 H -0.00127 0.08019 0.80195
 H2039 H -0.00109 0.07735 0.74556
 H2040 H -0.00463 -0.07897 0.75591
 H2041 H -0.00439 -0.08181 0.69951
 H2042 H 0.00080 0.07375 0.69659
 H2043 H 0.00091 0.06761 0.64054
 H2044 H -0.00321 -0.05268 0.64778
 C2045 C 0.26089 0.20755 0.43682
 C2046 C 0.25309 0.23630 0.45695
 C2047 C 0.24553 0.26965 0.44225
 C2048 C 0.24565 0.27351 0.40882
 C2049 C 0.25290 0.24423 0.38937
 C2050 C 0.26069 0.21150 0.40381
 C2051 C 0.23765 0.29885 0.46092
 C2052 C 0.23684 0.29575 0.49387
 C2053 C 0.24396 0.26308 0.50975
 C2054 C 0.25242 0.23298 0.49101
 C2055 C 0.25989 0.20058 0.50694
 C2056 C 0.25925 0.19764 0.53991
 C2057 C 0.25106 0.22661 0.55855
 C2058 C 0.24311 0.25964 0.54378
 C2059 C 0.23470 0.28794 0.56382
 C2060 C 0.23497 0.28413 0.59683
 C2061 C 0.24339 0.25195 0.61136
 C2062 C 0.25105 0.22290 0.59199
 H2063 H 0.26707 0.18136 0.44562
 H2064 H 0.23953 0.29892 0.39794
 H2065 H 0.26666 0.18849 0.38945
 H2066 H 0.23191 0.32445 0.44991
 H2067 H 0.23057 0.31983 0.50620
 H2068 H 0.26652 0.17678 0.49465
 H2069 H 0.26533 0.17231 0.55097
 H2070 H 0.22787 0.31358 0.55493
 H2071 H 0.22857 0.30684 0.61113
 H2072 H 0.25761 0.19786 0.60294
 C2073 C 0.07517 0.12537 0.61277
 C2074 C 0.09620 0.11070 0.61519
 C2075 C 0.10131 0.07904 0.59613
 C2076 C 0.08592 0.06301 0.57576
 C2077 C 0.06513 0.07772 0.57400
 C2078 C 0.05998 0.10904 0.59267
 C2079 C 0.12172 0.06333 0.59755
 C2080 C 0.13743 0.07858 0.61709
 C2081 C 0.13336 0.11044 0.63622
 C2082 C 0.11231 0.12645 0.63561
 C2083 C 0.10809 0.15773 0.65535
 C2084 C 0.12396 0.17364 0.67421
 C2085 C 0.14470 0.15919 0.67430
 C2086 C 0.14971 0.12715 0.65564
 C2087 C 0.17106 0.11371 0.65675
 C2088 C 0.18675 0.13220 0.67450
 C2089 C 0.18184 0.16449 0.69209
 C2090 C 0.16061 0.17729 0.69246
 H2091 H 0.06981 0.14945 0.62602
 H2092 H 0.09008 0.03858 0.56164
 H2093 H 0.04407 0.12114 0.59180
 H2094 H 0.12567 0.03895 0.58324
 H2095 H 0.15270 0.06457 0.61652
 H2096 H 0.09261 0.17093 0.65676
 H2097 H 0.11999 0.19793 0.68860
 H2098 H 0.17639 0.08945 0.64372
 H2099 H 0.20298 0.12136 0.67397
 H2100 H 0.15657 0.20229 0.70592
 C2101 C 0.32354 0.37329 0.63361
 C2102 C 0.34550 0.36364 0.63714
 C2103 C 0.35062 0.33544 0.65965
 C2104 C 0.33448 0.31810 0.67770
 C2105 C 0.31283 0.32806 0.67405
 C2106 C 0.30757 0.35574 0.65173
 C2107 C 0.37184 0.32448 0.66419
 C2108 C 0.38833 0.34101 0.64706
 C2109 C 0.38430 0.36947 0.62447
 C2110 C 0.36251 0.38087 0.61929
 C2111 C 0.35849 0.40910 0.59649
 C2112 C 0.37504 0.42567 0.57939
 C2113 C 0.39630 0.41503 0.58424
 C2114 C 0.40133 0.38688 0.60687
 C2115 C 0.42327 0.37756 0.61094
 C2116 C 0.43933 0.39536 0.59331
 C2117 C 0.43423 0.42303 0.57089
 C2118 C 0.41259 0.43264 0.56655
 H2119 H 0.31808 0.39430 0.61710
 H2120 H 0.33892 0.29658 0.69470
 H2121 H 0.29103 0.36403 0.64827
 H2122 H 0.37579 0.30279 0.68130
 H2123 H 0.40415 0.33064 0.65218
 H2124 H 0.34263 0.41917 0.59118
 H2125 H 0.37111 0.44723 0.56215
 H2126 H 0.42871 0.35677 0.62765
 H2127 H 0.45585 0.38734 0.59736
 H2128 H 0.40832 0.45418 0.54948
 C2129 C 0.32431 0.12758 0.63639
 C2130 C 0.34612 0.13863 0.63826
 C2131 C 0.35138 0.16832 0.65939
 C2132 C 0.33548 0.18574 0.67779
 C2133 C 0.31401 0.17436 0.67570
 C2134 C 0.30862 0.14521 0.65476
 C2135 C 0.37248 0.18069 0.66214
 C2136 C 0.38871 0.16414 0.64455
 C2137 C 0.38450 0.13424 0.62333
 C2138 C 0.36283 0.12133 0.62002
 C2139 C 0.35863 0.09155 0.59867
 C2140 C 0.37493 0.07483 0.58123
 C2141 C 0.39608 0.08692 0.58429
 C2142 C 0.40124 0.11675 0.60535
 C2143 C 0.42305 0.12761 0.60763
 C2144 C 0.43886 0.10955 0.58992
 C2145 C 0.43365 0.08010 0.56919
 C2146 C 0.41215 0.06905 0.56644
 H2147 H 0.31873 0.10545 0.62101
 H2148 H 0.33992 0.20845 0.69370
 H2149 H 0.29215 0.13582 0.65253
 H2150 H 0.37654 0.20352 0.67816
 H2151 H 0.40446 0.17567 0.64827
 H2152 H 0.34283 0.08025 0.59480
 H2153 H 0.37089 0.05200 0.56520
 H2154 H 0.42859 0.14982 0.62294
 H2155 H 0.45532 0.11882 0.59259
 H2156 H 0.40788 0.04613 0.55064
 C2157 C 0.13984 0.34035 0.69248
 C2158 C 0.14100 0.35707 0.66194
 C2159 C 0.16150 0.35915 0.64730
 C2160 C 0.17981 0.34470 0.66257
 C2161 C 0.17820 0.32729 0.69237
 C2162 C 0.15807 0.32568 0.70722
 C2163 C 0.16364 0.37513 0.61722
 C2164 C 0.14590 0.38862 0.60092
 C2165 C 0.12505 0.38676 0.61408
 C2166 C 0.12259 0.37129 0.64533
 C2167 C 0.10182 0.37054 0.65884
 C2168 C 0.08409 0.38424 0.64250
 C2169 C 0.08614 0.39899 0.61192
 C2170 C 0.10662 0.40019 0.59713
 C2171 C 0.10775 0.41479 0.56587
 C2172 C 0.08961 0.42873 0.55062
 C2173 C 0.06951 0.42853 0.56560
 C2174 C 0.06782 0.41298 0.59615
 H2175 H 0.12508 0.33752 0.70554
 H2176 H 0.19524 0.34591 0.65070
 H2177 H 0.15630 0.31261 0.73036
 H2178 H 0.17926 0.37701 0.60597
 H2179 H 0.14921 0.40061 0.57794
 H2180 H 0.09865 0.35973 0.68230
 H2181 H 0.06853 0.38324 0.65400
 H2182 H 0.12239 0.41597 0.55233
 H2183 H 0.09144 0.43998 0.52680
 H2184 H 0.05238 0.41264 0.60801
 C2185 C 0.39239 0.08699 0.93784
 C2186 C 0.39350 0.10316 0.90712
 C2187 C 0.41396 0.10476 0.89231
 C2188 C 0.43229 0.08987 0.90754
 C2189 C 0.43066 0.07292 0.93759
 C2190 C 0.41054 0.07216 0.95256
 C2191 C 0.41601 0.12082 0.86220
 C2192 C 0.39827 0.13525 0.84629
 C2193 C 0.37750 0.13410 0.85979
 C2194 C 0.37506 0.11762 0.89067
 C2195 C 0.35425 0.11584 0.90395
 C2196 C 0.33648 0.12985 0.88793
 C2197 C 0.33855 0.14635 0.85802
 C2198 C 0.35906 0.14878 0.84344
 C2199 C 0.36019 0.16604 0.81313
 C2200 C 0.34192 0.18049 0.79836
 C2201 C 0.32170 0.17827 0.81293
 C2202 C 0.32016 0.16075 0.84274
 H2203 H 0.37774 0.08513 0.95129
 H2204 H 0.44770 0.09068 0.89562
 H2205 H 0.40870 0.05979 0.97597
 H2206 H 0.43155 0.12219 0.85068
 H2207 H 0.40146 0.14699 0.82316
 H2208 H 0.35099 0.10352 0.92683
 H2209 H 0.32088 0.12782 0.89921
 H2210 H 0.37497 0.16922 0.80016
 H2211 H 0.34373 0.19365 0.77527
 H2212 H 0.30469 0.15899 0.85443
 C2213 C 0.07506 0.38031 0.88324
 C2214 C 0.09681 0.39156 0.88585
 C2215 C 0.10186 0.41988 0.90838
 C2216 C 0.08575 0.43614 0.92711
 C2217 C 0.06432 0.42470 0.92417
 C2218 C 0.05917 0.39670 0.90204
 C2219 C 0.12296 0.43191 0.91226
 C2220 C 0.13943 0.41595 0.89474
 C2221 C 0.13542 0.38726 0.87229
 C2222 C 0.11369 0.37548 0.86723
 C2223 C 0.10956 0.34809 0.84370
 C2224 C 0.12603 0.33188 0.82638
 C2225 C 0.14729 0.34201 0.83185
 C2226 C 0.15241 0.36988 0.85474
 C2227 C 0.17438 0.37865 0.85937
 C2228 C 0.19041 0.36020 0.84224
 C2229 C 0.18517 0.33248 0.81989
 C2230 C 0.16351 0.32390 0.81464
 H2231 H 0.06970 0.35871 0.86717
 H2232 H 0.09003 0.45790 0.94405
 H2233 H 0.04276 0.38724 0.89921
 H2234 H 0.12684 0.45382 0.92927
 H2235 H 0.15519 0.42703 0.89932
 H2236 H 0.09367 0.33851 0.83783
 H2237 H 0.12206 0.31079 0.80869
 H2238 H 0.17985 0.39913 0.87640
 H2239 H 0.20700 0.36742 0.84688
 H2240 H 0.15914 0.30257 0.79737
 C2241 C 0.07554 0.11395 0.88409
 C2242 C 0.09757 0.10616 0.88923
 C2243 C 0.10272 0.08039 0.91372
 C2244 C 0.08647 0.06343 0.93207
 C2245 C 0.06454 0.07132 0.92676
 C2246 C 0.05949 0.09692 0.90237
 C2247 C 0.12412 0.07151 0.91987
 C2248 C 0.14066 0.08777 0.90246
 C2249 C 0.13653 0.11382 0.87790
 C2250 C 0.11459 0.12302 0.87106
 C2251 C 0.11042 0.14879 0.84631
 C2252 C 0.12692 0.16526 0.82905
 C2253 C 0.14832 0.15694 0.83558
 C2254 C 0.15356 0.13109 0.85998
 C2255 C 0.17567 0.12394 0.86541
 C2256 C 0.19167 0.14199 0.84759
 C2257 C 0.18633 0.16776 0.82368
 C2258 C 0.16450 0.17475 0.81780
 H2259 H 0.07004 0.13314 0.86609
 H2260 H 0.09114 0.04378 0.95052
 H2261 H 0.04297 0.10406 0.89711
 H2262 H 0.12819 0.05170 0.93849
 H2263 H 0.15663 0.07922 0.90893
 H2264 H 0.09447 0.15704 0.83954
 H2265 H 0.12283 0.18497 0.81036
 H2266 H 0.18122 0.10476 0.88339
 H2267 H 0.20832 0.13594 0.85284
 H2268 H 0.15994 0.19453 0.79940
 C2269 C 0.39211 0.40379 0.94111
 C2270 C 0.39260 0.39270 0.90873
 C2271 C 0.41262 0.39452 0.89268
 C2272 C 0.43108 0.40782 0.90835
 C2273 C 0.42997 0.42010 0.93996
 C2274 C 0.41042 0.41741 0.95624
 C2275 C 0.41409 0.38375 0.86087
 C2276 C 0.39612 0.37147 0.84434
 C2277 C 0.37574 0.36953 0.85900
 C2278 C 0.37395 0.38024 0.89177
 C2279 C 0.35356 0.37839 0.90641
 C2280 C 0.33560 0.36610 0.88989
 C2281 C 0.33708 0.35519 0.85812
 C2282 C 0.35710 0.35697 0.84207
 C2283 C 0.35761 0.34571 0.80974
 C2284 C 0.33931 0.33196 0.79465
 C2285 C 0.31976 0.32931 0.81092
 C2286 C 0.31864 0.34177 0.84248
 H2287 H 0.37784 0.40284 0.95548
 H2288 H 0.44612 0.41000 0.89551
 H2289 H 0.40918 0.42634 0.98086
 H2290 H 0.42933 0.38502 0.84847
 H2291 H 0.39886 0.36375 0.81990
 H2292 H 0.35081 0.38623 0.93082
 H2293 H 0.32035 0.36490 0.90227
 H2294 H 0.37189 0.34656 0.79538
 H2295 H 0.34058 0.32289 0.77007
 H2296 H 0.30359 0.33963 0.85532
 C2297 C 0.48807 -0.04511 0.81391
 C2298 C 0.49292 -0.01427 0.79398
 C2299 C 0.49805 0.02037 0.80893
 C2300 C 0.49866 0.02345 0.84232
 C2301 C 0.49443 -0.00773 0.86153
 C2302 C 0.48888 -0.04181 0.84694
 C2303 C 0.50279 0.05175 0.79054
 C2304 C 0.50292 0.04960 0.75757
 C2305 C 0.49834 0.01569 0.74142
 C2306 C 0.49305 -0.01672 0.75991
 C2307 C 0.48823 -0.05051 0.74372
 C2308 C 0.48867 -0.05275 0.71071
 C2309 C 0.49397 -0.02158 0.69234
 C2310 C 0.49890 0.01309 0.70739
 C2311 C 0.50429 0.04376 0.68764
 C2312 C 0.50448 0.04020 0.65466
 C2313 C 0.49941 0.00603 0.63985
 C2314 C 0.49431 -0.02492 0.65891
 H2315 H 0.48375 -0.07237 0.80491
 H2316 H 0.50292 0.04999 0.85330
 H2317 H 0.48521 -0.06636 0.86112
 H2318 H 0.50659 0.07834 0.80179
 H2319 H 0.50676 0.07534 0.74549
 H2320 H 0.48403 -0.07607 0.75583
 H2321 H 0.48485 -0.07931 0.69942
 H2322 H 0.50852 0.07104 0.69669
 H2323 H 0.50875 0.06463 0.64070
 H2324 H 0.49035 -0.05150 0.64776
 C2325 C 0.76140 0.20782 0.43725
 C2326 C 0.75337 0.23655 0.45720
 C2327 C 0.74574 0.26974 0.44234
 C2328 C 0.74592 0.27341 0.40895
 C2329 C 0.75334 0.24411 0.38968
 C2330 C 0.76128 0.21159 0.40424
 C2331 C 0.73768 0.29895 0.46083
 C2332 C 0.73680 0.29603 0.49377
 C2333 C 0.74398 0.26351 0.50980
 C2334 C 0.75255 0.23335 0.49123
 C2335 C 0.75994 0.20100 0.50728
 C2336 C 0.75916 0.19817 0.54024
 C2337 C 0.75093 0.22725 0.55870
 C2338 C 0.74306 0.26025 0.54380
 C2339 C 0.73467 0.28871 0.56372
 C2340 C 0.73487 0.28503 0.59673
 C2341 C 0.74319 0.25283 0.61133
 C2342 C 0.75083 0.22367 0.59210
 H2343 H 0.76774 0.18181 0.44618
 H2344 H 0.73971 0.29868 0.39793
 H2345 H 0.76741 0.18863 0.38997
 H2346 H 0.73188 0.32442 0.44968
 H2347 H 0.73038 0.32009 0.50596
 H2348 H 0.76658 0.17711 0.49512
 H2349 H 0.76518 0.17287 0.55142
 H2350 H 0.72795 0.31440 0.55474
 H2351 H 0.72852 0.30784 0.61097
 H2352 H 0.75732 0.19864 0.60315
 C2353 C 0.57671 0.13161 0.60620
 C2354 C 0.59721 0.11537 0.61069
 C2355 C 0.60197 0.08214 0.59346
 C2356 C 0.58668 0.06586 0.57317
 C2357 C 0.56630 0.08180 0.56976
 C2358 C 0.56156 0.11492 0.58626
 C2359 C 0.62186 0.06490 0.59683
 C2360 C 0.63737 0.07997 0.61676
 C2361 C 0.63360 0.11313 0.63436
 C2362 C 0.61309 0.13090 0.63157
 C2363 C 0.60914 0.16352 0.64979
 C2364 C 0.62479 0.17897 0.66929
 C2365 C 0.64502 0.16271 0.67152
 C2366 C 0.64972 0.12936 0.65440
 C2367 C 0.67058 0.11415 0.65760
 C2368 C 0.68618 0.13219 0.67580
 C2369 C 0.68160 0.16570 0.69181
 C2370 C 0.66079 0.18029 0.69022
 H2371 H 0.57171 0.15707 0.61780
 H2372 H 0.59048 0.04003 0.56073
 H2373 H 0.54595 0.12797 0.58395
 H2374 H 0.62552 0.03937 0.58387
 H2375 H 0.65221 0.06468 0.61780
 H2376 H 0.59404 0.17809 0.64955
 H2377 H 0.62107 0.20430 0.68249
 H2378 H 0.67563 0.08881 0.64586
 H2379 H 0.70210 0.12007 0.67686
 H2380 H 0.65708 0.20633 0.70242
 C2381 C -0.17630 0.37259 0.63288
 C2382 C -0.15452 0.36121 0.63499
 C2383 C -0.14957 0.33197 0.65662
 C2384 C -0.16569 0.31534 0.67521
 C2385 C -0.18714 0.32708 0.67302
 C2386 C -0.19224 0.35573 0.65153
 C2387 C -0.12853 0.31935 0.65974
 C2388 C -0.11203 0.33543 0.64226
 C2389 C -0.11589 0.36504 0.62070
 C2390 C -0.13754 0.37781 0.61667
 C2391 C -0.14145 0.40679 0.59452
 C2392 C -0.12491 0.42310 0.57725
 C2393 C -0.10373 0.41152 0.58134
 C2394 C -0.09881 0.38236 0.60306
 C2395 C -0.07693 0.37219 0.60640
 C2396 C -0.06080 0.39042 0.58914
 C2397 C -0.06579 0.41930 0.56780
 C2398 C -0.08742 0.42941 0.56394
 H2399 H -0.18162 0.39456 0.61720
 H2400 H -0.16139 0.29297 0.69149
 H2401 H -0.20863 0.36539 0.64918
 H2402 H -0.12471 0.29676 0.67606
 H2403 H -0.09634 0.32379 0.64624
 H2404 H -0.15724 0.41765 0.58984
 H2405 H -0.12875 0.44536 0.56062
 H2406 H -0.07159 0.35058 0.62243
 H2407 H -0.04430 0.38195 0.59275
 H2408 H -0.09164 0.45183 0.54767
 C2409 C 0.92173 0.13524 0.60005
 C2410 C 0.90003 0.12351 0.59859
 C2411 C 0.89503 0.09257 0.57864
 C2412 C 0.91116 0.07431 0.56124
 C2413 C 0.93260 0.08582 0.56357
 C2414 C 0.93764 0.11662 0.58292
 C2415 C 0.87402 0.07950 0.57648
 C2416 C 0.85778 0.09585 0.59425
 C2417 C 0.86188 0.12629 0.61494
 C2418 C 0.88327 0.14089 0.61662
 C2419 C 0.88723 0.17223 0.63641
 C2420 C 0.87109 0.18811 0.65465
 C2421 C 0.85037 0.17352 0.65405
 C2422 C 0.84533 0.14260 0.63411
 C2423 C 0.82392 0.12916 0.63452
 C2424 C 0.80839 0.14577 0.65384
 C2425 C 0.81358 0.17615 0.67357
 C2426 C 0.83465 0.18989 0.67344
 H2427 H 0.92713 0.15826 0.61460
 H2428 H 0.90700 0.05040 0.54646
 H2429 H 0.95405 0.12629 0.58517
 H2430 H 0.87010 0.05599 0.56112
 H2431 H 0.84209 0.08377 0.59112
 H2432 H 0.90269 0.18544 0.63840
 H2433 H 0.87495 0.21203 0.66958
 H2434 H 0.81857 0.10573 0.62039
 H2435 H 0.79224 0.13455 0.65340
 H2436 H 0.83888 0.21364 0.68835
 C2437 C 0.63998 0.34044 0.69204
 C2438 C 0.64092 0.35477 0.66062
 C2439 C 0.66130 0.35565 0.64554
 C2440 C 0.67970 0.34231 0.66127
 C2441 C 0.67828 0.32717 0.69196
 C2442 C 0.65829 0.32678 0.70723
 C2443 C 0.66322 0.36923 0.61459
 C2444 C 0.64538 0.38164 0.59791
 C2445 C 0.62466 0.38107 0.61157
 C2446 C 0.62242 0.36782 0.64359
 C2447 C 0.60176 0.36810 0.65747
 C2448 C 0.58396 0.38107 0.64089
 C2449 C 0.58584 0.39403 0.60972
 C2450 C 0.60615 0.39380 0.59441
 C2451 C 0.60707 0.40662 0.56255
 C2452 C 0.58893 0.42073 0.54735
 C2453 C 0.56909 0.42227 0.56298
 C2454 C 0.56754 0.40797 0.59396
 H2455 H 0.62533 0.33872 0.70550
 H2456 H 0.69504 0.34245 0.64909
 H2457 H 0.65670 0.31540 0.73104
 H2458 H 0.67874 0.37010 0.60297
 H2459 H 0.64850 0.39179 0.57424
 H2460 H 0.59873 0.35877 0.68142
 H2461 H 0.56851 0.38109 0.65274
 H2462 H 0.62154 0.40653 0.54861
 H2463 H 0.59055 0.43101 0.52318
 H2464 H 0.55228 0.40905 0.60630
 C2465 C 0.89299 0.09372 0.93942
 C2466 C 0.89383 0.10795 0.90798
 C2467 C 0.91406 0.10787 0.89243
 C2468 C 0.93236 0.09297 0.90757
 C2469 C 0.93092 0.07750 0.93816
 C2470 C 0.91114 0.07869 0.95401
 C2471 C 0.91587 0.12200 0.86162
 C2472 C 0.89808 0.13588 0.84559
 C2473 C 0.87748 0.13605 0.85969
 C2474 C 0.87532 0.12186 0.89143
 C2475 C 0.85469 0.12159 0.90539
 C2476 C 0.83683 0.13481 0.88915
 C2477 C 0.83863 0.14894 0.85835
 C2478 C 0.85896 0.14984 0.84310
 C2479 C 0.85983 0.16470 0.81187
 C2480 C 0.84149 0.17849 0.79689
 C2481 C 0.82149 0.17788 0.81216
 C2482 C 0.82017 0.16259 0.84284
 H2483 H 0.87856 0.09336 0.95345
 H2484 H 0.94756 0.09220 0.89503
 H2485 H 0.90956 0.06749 0.97788
 H2486 H 0.93126 0.12213 0.84961
 H2487 H 0.90108 0.14605 0.82189
 H2488 H 0.85166 0.11109 0.92898
 H2489 H 0.82137 0.13400 0.90095
 H2490 H 0.87443 0.16650 0.79830
 H2491 H 0.84306 0.18993 0.77310
 H2492 H 0.80484 0.16218 0.85505
 C2493 C 0.57534 0.37460 0.88787
 C2494 C 0.59723 0.38461 0.89160
 C2495 C 0.60234 0.41167 0.91517
 C2496 C 0.58618 0.42820 0.93358
 C2497 C 0.56456 0.41862 0.92906
 C2498 C 0.55936 0.39144 0.90625
 C2499 C 0.62354 0.42255 0.92015
 C2500 C 0.63999 0.40736 0.90213
 C2501 C 0.63588 0.38051 0.87814
 C2502 C 0.61414 0.36891 0.87278
 C2503 C 0.61002 0.34218 0.84871
 C2504 C 0.62647 0.32702 0.83066
 C2505 C 0.64767 0.33777 0.83574
 C2506 C 0.65280 0.36474 0.85938
 C2507 C 0.67471 0.37453 0.86325
 C2508 C 0.69068 0.35764 0.84489
 C2509 C 0.68545 0.33059 0.82197
 C2510 C 0.66382 0.32121 0.81734
 H2511 H 0.56989 0.35409 0.87086
 H2512 H 0.59054 0.44909 0.95124
 H2513 H 0.54282 0.38337 0.90225
 H2514 H 0.62749 0.44323 0.93820
 H2515 H 0.65582 0.41747 0.90768
 H2516 H 0.59418 0.33218 0.84306
 H2517 H 0.62250 0.30643 0.81254
 H2518 H 0.68018 0.39487 0.88040
 H2519 H 0.70724 0.36553 0.84900
 H2520 H 0.65944 0.30042 0.79960
 C2521 C 0.57573 0.11905 0.88943
 C2522 C 0.59774 0.11026 0.89349
 C2523 C 0.60296 0.08334 0.91703
 C2524 C 0.58677 0.06603 0.93535
 C2525 C 0.56482 0.07453 0.93083
 C2526 C 0.55973 0.10159 0.90761
 C2527 C 0.62435 0.07350 0.92214
 C2528 C 0.64080 0.08963 0.90442
 C2529 C 0.63660 0.11655 0.88058
 C2530 C 0.61469 0.12707 0.87504
 C2531 C 0.61047 0.15398 0.85118
 C2532 C 0.62687 0.17009 0.83344
 C2533 C 0.64825 0.16025 0.83853
 C2534 C 0.65354 0.13337 0.86209
 C2535 C 0.67561 0.12469 0.86608
 C2536 C 0.69154 0.14219 0.84768
 C2537 C 0.68618 0.16890 0.82452
 C2538 C 0.66436 0.17752 0.82013
 H2539 H 0.57019 0.13923 0.87225
 H2540 H 0.59150 0.04541 0.95299
 H2541 H 0.54322 0.10939 0.90306
 H2542 H 0.62848 0.05289 0.94011
 H2543 H 0.65676 0.08024 0.91005
 H2544 H 0.59452 0.16339 0.84551
 H2545 H 0.62273 0.19066 0.81546
 H2546 H 0.68120 0.10462 0.88333
 H2547 H 0.70816 0.13488 0.85183
 H2548 H 0.65977 0.19813 0.80243
 C2549 C 0.89263 0.39815 0.94334
 C2550 C 0.89320 0.38643 0.91111
 C2551 C 0.91328 0.38790 0.89518
 C2552 C 0.93168 0.40152 0.91077
 C2553 C 0.93046 0.41475 0.94210
 C2554 C 0.91089 0.41225 0.95835
 C2555 C 0.91483 0.37673 0.86348
 C2556 C 0.89684 0.36495 0.84678
 C2557 C 0.87635 0.36382 0.86117
 C2558 C 0.87456 0.37407 0.89405
 C2559 C 0.85417 0.37190 0.90866
 C2560 C 0.83616 0.36030 0.89186
 C2561 C 0.83757 0.35061 0.85979
 C2562 C 0.85763 0.35248 0.84384
 C2563 C 0.85805 0.34279 0.81114
 C2564 C 0.83965 0.33023 0.79558
 C2565 C 0.82007 0.32732 0.81173
 C2566 C 0.81903 0.33835 0.84370
 H2567 H 0.87827 0.39773 0.95754
 H2568 H 0.94673 0.40360 0.89794
 H2569 H 0.90956 0.42200 0.98273
 H2570 H 0.93014 0.37752 0.85125
 H2571 H 0.89964 0.35682 0.82245
 H2572 H 0.85150 0.37880 0.93329
 H2573 H 0.82091 0.35886 0.90421
 H2574 H 0.87231 0.34424 0.79678
 H2575 H 0.84085 0.32230 0.77072
 H2576 H 0.80395 0.33602 0.85644
 C2577 C -0.00420 0.45303 0.81435
 C2578 C -0.00333 0.48492 0.79446
 C2579 C -0.00289 0.52063 0.80944
 C2580 C -0.00346 0.52390 0.84292
 C2581 C -0.00410 0.49184 0.86250
 C2582 C -0.00454 0.45645 0.84740
 C2583 C -0.00173 0.55301 0.79096
 C2584 C -0.00071 0.55091 0.75795
 C2585 C -0.00095 0.51607 0.74181
 C2586 C -0.00269 0.48254 0.76034
 C2587 C -0.00387 0.44779 0.74411
 C2588 C -0.00318 0.44572 0.71108
 C2589 C -0.00109 0.47801 0.69268
 C2590 C 0.00026 0.51364 0.70773
 C2591 C 0.00285 0.54539 0.68794
 C2592 C 0.00343 0.54192 0.65489
 C2593 C 0.00155 0.50678 0.64000
 C2594 C -0.00048 0.47481 0.65920
 H2595 H -0.00434 0.42478 0.80529
 H2596 H -0.00305 0.55164 0.85358
 H2597 H -0.00506 0.43068 0.86107
 H2598 H -0.00149 0.58043 0.80216
 H2599 H 0.00003 0.57742 0.74577
 H2600 H -0.00560 0.42136 0.75621
 H2601 H -0.00426 0.41840 0.69981
 H2602 H 0.00460 0.57345 0.69709
 H2603 H 0.00532 0.56725 0.64093
 H2604 H -0.00183 0.44741 0.64813
 C2605 C 0.25777 0.70746 0.43624
 C2606 C 0.25181 0.73761 0.45626
 C2607 C 0.24595 0.77194 0.44147
 C2608 C 0.24593 0.77543 0.40809
 C2609 C 0.25143 0.74492 0.38878
 C2610 C 0.25751 0.71114 0.40325
 C2611 C 0.23995 0.80255 0.46002
 C2612 C 0.23940 0.79997 0.49298
 C2613 C 0.24488 0.76640 0.50893
 C2614 C 0.25136 0.73478 0.49028
 C2615 C 0.25717 0.70139 0.50627
 C2616 C 0.25674 0.69890 0.53924
 C2617 C 0.25043 0.72935 0.55776
 C2618 C 0.24425 0.76348 0.54294
 C2619 C 0.23774 0.79332 0.56291
 C2620 C 0.23802 0.78970 0.59590
 C2621 C 0.24461 0.75625 0.61042
 C2622 C 0.25049 0.72591 0.59115
 H2623 H 0.26259 0.68043 0.44509
 H2624 H 0.24118 0.80169 0.39715
 H2625 H 0.26213 0.68712 0.38898
 H2626 H 0.23552 0.82888 0.44892
 H2627 H 0.23464 0.82514 0.50522
 H2628 H 0.26227 0.67641 0.49405
 H2629 H 0.26147 0.67274 0.55037
 H2630 H 0.23237 0.82000 0.55401
 H2631 H 0.23304 0.81353 0.61013
 H2632 H 0.25561 0.69989 0.60212
 C2633 C 0.07581 0.63133 0.60636
 C2634 C 0.09687 0.61689 0.60911
 C2635 C 0.10196 0.58436 0.59111
 C2636 C 0.08655 0.56732 0.57138
 C2637 C 0.06572 0.58174 0.56943
 C2638 C 0.06059 0.61394 0.58700
 C2639 C 0.12235 0.56864 0.59311
 C2640 C 0.13791 0.58432 0.61264
 C2641 C 0.13376 0.61671 0.63107
 C2642 C 0.11293 0.63343 0.62913
 C2643 C 0.10890 0.66620 0.64714
 C2644 C 0.12463 0.68237 0.66609
 C2645 C 0.14500 0.66659 0.66814
 C2646 C 0.14985 0.63331 0.65100
 C2647 C 0.17074 0.61832 0.65432
 C2648 C 0.18625 0.63654 0.67257
 C2649 C 0.18156 0.67005 0.68854
 C2650 C 0.16071 0.68447 0.68679
 H2651 H 0.07038 0.65578 0.61905
 H2652 H 0.09065 0.54218 0.55815
 H2653 H 0.04461 0.62580 0.58594
 H2654 H 0.12633 0.54378 0.57944
 H2655 H 0.15318 0.57029 0.61249
 H2656 H 0.09372 0.68053 0.64694
 H2657 H 0.12082 0.70778 0.67914
 H2658 H 0.17582 0.59278 0.64293
 H2659 H 0.20216 0.62444 0.67382
 H2660 H 0.15688 0.71044 0.69901
 C2661 C 0.42251 0.87678 0.60621
 C2662 C 0.40076 0.88789 0.60425
 C2663 C 0.39563 0.91799 0.58352
 C2664 C 0.41171 0.93597 0.56576
 C2665 C 0.43316 0.92473 0.56830
 C2666 C 0.43832 0.89494 0.58861
 C2667 C 0.37451 0.93024 0.58073
 C2668 C 0.35822 0.91342 0.59812
 C2669 C 0.36240 0.88340 0.61916
 C2670 C 0.38403 0.87038 0.62223
 C2671 C 0.38825 0.84035 0.64325
 C2672 C 0.37205 0.82376 0.66084
 C2673 C 0.35098 0.83618 0.65827
 C2674 C 0.34571 0.86601 0.63737
 C2675 C 0.32391 0.87706 0.63567
 C2676 C 0.30824 0.85929 0.65400
 C2677 C 0.31367 0.83003 0.67471
 C2678 C 0.33512 0.81866 0.67663
 H2679 H 0.42802 0.85428 0.62117
 H2680 H 0.40749 0.95914 0.55025
 H2681 H 0.45474 0.88548 0.59106
 H2682 H 0.37051 0.95327 0.56496
 H2683 H 0.34244 0.92485 0.59450
 H2684 H 0.40399 0.82880 0.64685
 H2685 H 0.37611 0.80085 0.67671
 H2686 H 0.31832 0.89926 0.62043
 H2687 H 0.29178 0.86868 0.65193
 H2688 H 0.33957 0.79585 0.69238
 C2689 C 0.32404 0.62901 0.63537
 C2690 C 0.34604 0.63836 0.63860
 C2691 C 0.35149 0.66691 0.66075
 C2692 C 0.33559 0.68486 0.67878
 C2693 C 0.31391 0.67518 0.67534
 C2694 C 0.30835 0.64716 0.65340
 C2695 C 0.37279 0.67760 0.66486
 C2696 C 0.38901 0.66060 0.64756
 C2697 C 0.38460 0.63189 0.62527
 C2698 C 0.36276 0.62054 0.62071
 C2699 C 0.35838 0.59174 0.59847
 C2700 C 0.37466 0.57466 0.58124
 C2701 C 0.39598 0.58541 0.58534
 C2702 C 0.40133 0.61412 0.60741
 C2703 C 0.42327 0.62373 0.61065
 C2704 C 0.43902 0.60564 0.59284
 C2705 C 0.43364 0.57735 0.57105
 C2706 C 0.41201 0.56742 0.56745
 H2707 H 0.31831 0.60789 0.61911
 H2708 H 0.34019 0.70664 0.69551
 H2709 H 0.29174 0.63909 0.65009
 H2710 H 0.37701 0.69949 0.68171
 H2711 H 0.40493 0.67080 0.65239
 H2712 H 0.34245 0.58152 0.59375
 H2713 H 0.37049 0.55267 0.56446
 H2714 H 0.42895 0.64506 0.62674
 H2715 H 0.45557 0.61402 0.59624
 H2716 H 0.40757 0.54546 0.55080
 C2717 C 0.07467 0.87612 0.61003
 C2718 C 0.09585 0.89031 0.61236
 C2719 C 0.10097 0.92264 0.59416
 C2720 C 0.08554 0.93950 0.57444
 C2721 C 0.06465 0.92516 0.57263
 C2722 C 0.05942 0.89338 0.59063
 C2723 C 0.12142 0.93824 0.59582
 C2724 C 0.13710 0.92246 0.61500
 C2725 C 0.13301 0.89003 0.63337
 C2726 C 0.11204 0.87365 0.63203
 C2727 C 0.10802 0.84103 0.65020
 C2728 C 0.12392 0.82462 0.66866
 C2729 C 0.14445 0.83997 0.66999
 C2730 C 0.14930 0.87309 0.65267
 C2731 C 0.17039 0.88755 0.65514
 C2732 C 0.18604 0.86909 0.67288
 C2733 C 0.18132 0.83580 0.68915
 C2734 C 0.16032 0.82181 0.68811
 H2735 H 0.06920 0.85191 0.62300
 H2736 H 0.08975 0.96435 0.56092
 H2737 H 0.04339 0.88165 0.58978
 H2738 H 0.12538 0.96304 0.58207
 H2739 H 0.15240 0.93644 0.61461
 H2740 H 0.09273 0.82702 0.65049
 H2741 H 0.12010 0.79934 0.68186
 H2742 H 0.17554 0.91283 0.64341
 H2743 H 0.20207 0.88086 0.67350
 H2744 H 0.15645 0.79602 0.70055
 C2745 C 0.38968 0.58239 0.93706
 C2746 C 0.39110 0.60055 0.90715
 C2747 C 0.41178 0.60388 0.89328
 C2748 C 0.43006 0.58942 0.90880
 C2749 C 0.42825 0.57102 0.93820
 C2750 C 0.40786 0.56792 0.95209
 C2751 C 0.41415 0.62134 0.86381
 C2752 C 0.39651 0.63548 0.84756
 C2753 C 0.37553 0.63285 0.86015
 C2754 C 0.37278 0.61528 0.89055
 C2755 C 0.35183 0.61308 0.90330
 C2756 C 0.33421 0.62752 0.88714
 C2757 C 0.33656 0.64468 0.85752
 C2758 C 0.35722 0.64742 0.84346
 C2759 C 0.35864 0.66481 0.81325
 C2760 C 0.34055 0.67954 0.79825
 C2761 C 0.32021 0.67747 0.81245
 C2762 C 0.31833 0.65947 0.84203
 H2763 H 0.37476 0.57853 0.94952
 H2764 H 0.44567 0.59189 0.89761
 H2765 H 0.40583 0.55405 0.97485
 H2766 H 0.42988 0.62404 0.85305
 H2767 H 0.39999 0.64853 0.82505
 H2768 H 0.34840 0.60044 0.92600
 H2769 H 0.31851 0.62528 0.89807
 H2770 H 0.37348 0.66775 0.80043
 H2771 H 0.34262 0.69284 0.77526
 H2772 H 0.30274 0.65767 0.85338
 C2773 C 0.07487 0.88096 0.88417
 C2774 C 0.09678 0.89037 0.88833
 C2775 C 0.10193 0.91659 0.91253
 C2776 C 0.08581 0.93248 0.93152
 C2777 C 0.06402 0.92317 0.92706
 C2778 C 0.05890 0.89706 0.90306
 C2779 C 0.12318 0.92712 0.91773
 C2780 C 0.13963 0.91203 0.89961
 C2781 C 0.13551 0.88556 0.87532
 C2782 C 0.11370 0.87469 0.86946
 C2783 C 0.10955 0.84847 0.84499
 C2784 C 0.12602 0.83298 0.82715
 C2785 C 0.14730 0.84286 0.83284
 C2786 C 0.15246 0.86940 0.85681
 C2787 C 0.17444 0.87827 0.86133
 C2788 C 0.19043 0.86094 0.84326
 C2789 C 0.18517 0.83431 0.81998
 C2790 C 0.16348 0.82582 0.81474
 H2791 H 0.06938 0.86129 0.86649
 H2792 H 0.09047 0.95256 0.94970
 H2793 H 0.04243 0.88887 0.89855
 H2794 H 0.12718 0.94732 0.93614
 H2795 H 0.15549 0.92181 0.90539
 H2796 H 0.09367 0.83904 0.83891
 H2797 H 0.12201 0.81276 0.80876
 H2798 H 0.17994 0.89818 0.87882
 H2799 H 0.20703 0.86817 0.84788
 H2800 H 0.15906 0.80535 0.79675
 C2801 C 0.07403 0.62130 0.88255
 C2802 C 0.09596 0.61126 0.88581
 C2803 C 0.10102 0.58284 0.90815
 C2804 C 0.08484 0.56570 0.92634
 C2805 C 0.06322 0.57611 0.92301
 C2806 C 0.05804 0.60396 0.90080
 C2807 C 0.12222 0.57152 0.91237
 C2808 C 0.13875 0.58802 0.89521
 C2809 C 0.13478 0.61677 0.87288
 C2810 C 0.11300 0.62838 0.86788
 C2811 C 0.10900 0.65674 0.84520
 C2812 C 0.12556 0.67343 0.82821
 C2813 C 0.14683 0.66281 0.83305
 C2814 C 0.15185 0.63437 0.85539
 C2815 C 0.17383 0.62507 0.85936
 C2816 C 0.18992 0.64339 0.84206
 C2817 C 0.18482 0.67155 0.82008
 C2818 C 0.16312 0.68087 0.81569
 H2819 H 0.06862 0.64251 0.86620
 H2820 H 0.08921 0.54396 0.94317
 H2821 H 0.04153 0.61259 0.89753
 H2822 H 0.12614 0.54961 0.92930
 H2823 H 0.15457 0.57743 0.90009
 H2824 H 0.09314 0.66684 0.83990
 H2825 H 0.12163 0.69515 0.81112
 H2826 H 0.17924 0.60398 0.87583
 H2827 H 0.20647 0.63551 0.84610
 H2828 H 0.15879 0.70265 0.79888
 C2829 C 0.39303 0.90284 0.94052
 C2830 C 0.39328 0.89233 0.90801
 C2831 C 0.41314 0.89480 0.89155
 C2832 C 0.43165 0.90821 0.90697
 C2833 C 0.43073 0.91996 0.93872
 C2834 C 0.41138 0.91658 0.95539
 C2835 C 0.41437 0.88457 0.85960
 C2836 C 0.39632 0.87225 0.84332
 C2837 C 0.37609 0.86974 0.85839
 C2838 C 0.37455 0.87985 0.89131
 C2839 C 0.35432 0.87744 0.90636
 C2840 C 0.33626 0.86517 0.89008
 C2841 C 0.33749 0.85487 0.85816
 C2842 C 0.35736 0.85721 0.84171
 C2843 C 0.35763 0.84653 0.80924
 C2844 C 0.33926 0.83282 0.79437
 C2845 C 0.31989 0.82963 0.81102
 C2846 C 0.31897 0.84150 0.84274
 H2847 H 0.37892 0.90132 0.95520
 H2848 H 0.44657 0.91090 0.89389
 H2849 H 0.41032 0.92502 0.98016
 H2850 H 0.42948 0.88631 0.84690
 H2851 H 0.39887 0.86498 0.81874
 H2852 H 0.35175 0.88482 0.93092
 H2853 H 0.32114 0.86353 0.90276
 H2854 H 0.37176 0.84785 0.79460
 H2855 H 0.34033 0.82424 0.76965
 H2856 H 0.30404 0.83893 0.85582
 C2857 C 0.48612 0.45626 0.81355
 C2858 C 0.49181 0.48665 0.79359
 C2859 C 0.49731 0.52114 0.80849
 C2860 C 0.49746 0.52449 0.84186
 C2861 C 0.49247 0.49370 0.86114
 C2862 C 0.48654 0.45981 0.84660
 C2863 C 0.50296 0.55204 0.79008
 C2864 C 0.50371 0.54953 0.75715
 C2865 C 0.49883 0.51570 0.74106
 C2866 C 0.49247 0.48387 0.75955
 C2867 C 0.48712 0.45031 0.74338
 C2868 C 0.48804 0.44776 0.71041
 C2869 C 0.49442 0.47832 0.69207
 C2870 C 0.50000 0.51271 0.70709
 C2871 C 0.50663 0.54268 0.68736
 C2872 C 0.50710 0.53890 0.65439
 C2873 C 0.50116 0.50515 0.63962
 C2874 C 0.49509 0.47474 0.65867
 H2875 H 0.48152 0.42913 0.80458
 H2876 H 0.50208 0.55086 0.85283
 H2877 H 0.48232 0.43558 0.86086
 H2878 H 0.50703 0.57854 0.80129
 H2879 H 0.50818 0.57493 0.74502
 H2880 H 0.48205 0.42523 0.75548
 H2881 H 0.48371 0.42143 0.69913
 H2882 H 0.51161 0.56955 0.69644
 H2883 H 0.51219 0.56280 0.64037
 H2884 H 0.49047 0.44848 0.64751
 C2885 C 0.75712 0.70772 0.43623
 C2886 C 0.75127 0.73801 0.45618
 C2887 C 0.74562 0.77239 0.44131
 C2888 C 0.74559 0.77576 0.40790
 C2889 C 0.75093 0.74508 0.38865
 C2890 C 0.75688 0.71129 0.40323
 C2891 C 0.73984 0.80319 0.45981
 C2892 C 0.73939 0.80078 0.49279
 C2893 C 0.74470 0.76718 0.50883
 C2894 C 0.75079 0.73528 0.49022
 C2895 C 0.75613 0.70169 0.50626
 C2896 C 0.75569 0.69929 0.53923
 C2897 C 0.74989 0.73007 0.55773
 C2898 C 0.74420 0.76444 0.54287
 C2899 C 0.73833 0.79470 0.56285
 C2900 C 0.73860 0.79112 0.59586
 C2901 C 0.74458 0.75733 0.61041
 C2902 C 0.74995 0.72669 0.59113
 H2903 H 0.76190 0.68072 0.44515
 H2904 H 0.74098 0.80205 0.39690
 H2905 H 0.76141 0.68716 0.38904
 H2906 H 0.73555 0.82955 0.44865
 H2907 H 0.73476 0.82606 0.50499
 H2908 H 0.76079 0.67643 0.49407
 H2909 H 0.76002 0.67294 0.55039
 H2910 H 0.73353 0.82169 0.55393
 H2911 H 0.73411 0.81525 0.61007
 H2912 H 0.75463 0.70041 0.60210
 C2913 C 0.57636 0.63489 0.60240
 C2914 C 0.59739 0.62036 0.60547
 C2915 C 0.60248 0.58757 0.58783
 C2916 C 0.58708 0.57027 0.56826
 C2917 C 0.56622 0.58453 0.56622
 C2918 C 0.56111 0.61713 0.58326
 C2919 C 0.62281 0.57171 0.59014
 C2920 C 0.63826 0.58722 0.60994
 C2921 C 0.63405 0.61963 0.62830
 C2922 C 0.61340 0.63688 0.62563
 C2923 C 0.60948 0.67009 0.64310
 C2924 C 0.62511 0.68596 0.66247
 C2925 C 0.64521 0.66935 0.66557
 C2926 C 0.64994 0.63571 0.64887
 C2927 C 0.67049 0.61974 0.65337
 C2928 C 0.68588 0.63743 0.67221
 C2929 C 0.68137 0.67133 0.68768
 C2930 C 0.66079 0.68671 0.68484
 H2931 H 0.57094 0.65950 0.61488
 H2932 H 0.59120 0.54485 0.55544
 H2933 H 0.54511 0.62886 0.58213
 H2934 H 0.62681 0.54674 0.57662
 H2935 H 0.65350 0.57310 0.61001
 H2936 H 0.59451 0.68501 0.64208
 H2937 H 0.62140 0.71170 0.67511
 H2938 H 0.67537 0.59373 0.64256
 H2939 H 0.70156 0.62461 0.67434
 H2940 H 0.65712 0.71299 0.69667
 C2941 C 0.92117 0.87039 0.59880
 C2942 C 0.89960 0.88282 0.59832
 C2943 C 0.89468 0.91450 0.57924
 C2944 C 0.91079 0.93285 0.56180
 C2945 C 0.93212 0.92063 0.56322
 C2946 C 0.93705 0.88908 0.58165
 C2947 C 0.87378 0.92818 0.57802
 C2948 C 0.85758 0.91166 0.59579
 C2949 C 0.86162 0.88044 0.61560
 C2950 C 0.88291 0.86538 0.61647
 C2951 C 0.88683 0.83354 0.63561
 C2952 C 0.87076 0.81749 0.65388
 C2953 C 0.85012 0.83234 0.65392
 C2954 C 0.84511 0.86383 0.63470
 C2955 C 0.82376 0.87742 0.63566
 C2956 C 0.80826 0.86043 0.65483
 C2957 C 0.81343 0.82950 0.67387
 C2958 C 0.83444 0.81563 0.67321
 H2959 H 0.92650 0.84670 0.61253
 H2960 H 0.90673 0.95735 0.54775
 H2961 H 0.95337 0.87882 0.58314
 H2962 H 0.86992 0.95229 0.56338
 H2963 H 0.84200 0.92427 0.59344
 H2964 H 0.90223 0.82010 0.63711
 H2965 H 0.87460 0.79318 0.66831
 H2966 H 0.81842 0.90119 0.62202
 H2967 H 0.79215 0.87177 0.65481
 H2968 H 0.83864 0.79145 0.68757
 C2969 C 0.92232 0.63253 0.60348
 C2970 C 0.90055 0.62130 0.60167
 C2971 C 0.89546 0.59061 0.58149
 C2972 C 0.91156 0.57215 0.56416
 C2973 C 0.93306 0.58333 0.56667
 C2974 C 0.93819 0.61380 0.58634
 C2975 C 0.87436 0.57810 0.57891
 C2976 C 0.85808 0.59491 0.59630
 C2977 C 0.86224 0.62527 0.61707
 C2978 C 0.88378 0.63905 0.61944
 C2979 C 0.88786 0.67001 0.63960
 C2980 C 0.87168 0.68643 0.65738
 C2981 C 0.85075 0.67283 0.65591
 C2982 C 0.84560 0.64226 0.63564
 C2983 C 0.82398 0.62993 0.63507
 C2984 C 0.80836 0.64721 0.65383
 C2985 C 0.81366 0.67718 0.67393
 C2986 C 0.83494 0.68985 0.67473
 H2987 H 0.92780 0.65536 0.61818
 H2988 H 0.90731 0.54853 0.54911
 H2989 H 0.95464 0.62321 0.58877
 H2990 H 0.87037 0.55472 0.56343
 H2991 H 0.84233 0.58323 0.59285
 H2992 H 0.90348 0.68247 0.64228
 H2993 H 0.87564 0.71004 0.67262
 H2994 H 0.81850 0.60695 0.62053
 H2995 H 0.79204 0.63681 0.65264
 H2996 H 0.83927 0.71328 0.68995
 C2997 C 0.57609 0.87010 0.60442
 C2998 C 0.59684 0.88570 0.60837
 C2999 C 0.60162 0.91918 0.59156
 C3000 C 0.58624 0.93602 0.57185
 C3001 C 0.56569 0.92059 0.56880
 C3002 C 0.56082 0.88743 0.58512
 C3003 C 0.62161 0.93617 0.59477
 C3004 C 0.63713 0.92085 0.61444
 C3005 C 0.63332 0.88754 0.63176
 C3006 C 0.61289 0.86949 0.62851
 C3007 C 0.60924 0.83580 0.64539
 C3008 C 0.62496 0.82005 0.66453
 C3009 C 0.64493 0.83718 0.66786
 C3010 C 0.64938 0.87136 0.65185
 C3011 C 0.66988 0.88765 0.65638
 C3012 C 0.68546 0.86982 0.67468
 C3013 C 0.68116 0.83549 0.68953
 C3014 C 0.66067 0.81975 0.68662
 H3015 H 0.57093 0.84486 0.61621
 H3016 H 0.59013 0.96195 0.55964
 H3017 H 0.54504 0.87489 0.58319
 H3018 H 0.62531 0.96180 0.58199
 H3019 H 0.65208 0.93591 0.61528
 H3020 H 0.59439 0.82045 0.64412
 H3021 H 0.62148 0.79393 0.67670
 H3022 H 0.67462 0.91391 0.64590
 H3023 H 0.70110 0.88285 0.67686
 H3024 H 0.65719 0.79309 0.69795
 C3025 C 0.88998 0.58781 0.93902
 C3026 C 0.89127 0.60465 0.90854
 C3027 C 0.91183 0.60685 0.89414
 C3028 C 0.93009 0.59228 0.90957
 C3029 C 0.92835 0.57475 0.93933
 C3030 C 0.90814 0.57309 0.95393
 C3031 C 0.91409 0.62309 0.86416
 C3032 C 0.89643 0.63689 0.84780
 C3033 C 0.87553 0.63507 0.86078
 C3034 C 0.87292 0.61901 0.89180
 C3035 C 0.85206 0.61775 0.90497
 C3036 C 0.83440 0.63161 0.88857
 C3037 C 0.83661 0.64718 0.85830
 C3038 C 0.85718 0.64898 0.84385
 C3039 C 0.85846 0.66475 0.81298
 C3040 C 0.84033 0.67894 0.79775
 C3041 C 0.82011 0.67784 0.81234
 C3042 C 0.81834 0.66136 0.84255
 H3043 H 0.87517 0.58503 0.95197
 H3044 H 0.94558 0.59362 0.89789
 H3045 H 0.90625 0.56000 0.97704
 H3046 H 0.92975 0.62499 0.85305
 H3047 H 0.89982 0.64895 0.82487
 H3048 H 0.84875 0.60629 0.92815
 H3049 H 0.81876 0.63013 0.89980
 H3050 H 0.87321 0.66680 0.79982
 H3051 H 0.84226 0.69108 0.77427
 H3052 H 0.80283 0.66039 0.85420
 C3053 C 0.57509 0.87361 0.89011
 C3054 C 0.59698 0.88343 0.89388
 C3055 C 0.60212 0.91013 0.91768
 C3056 C 0.58600 0.92639 0.93641
 C3057 C 0.56417 0.91731 0.93188
 C3058 C 0.55909 0.89024 0.90865
 C3059 C 0.62334 0.92103 0.92258
 C3060 C 0.63974 0.90639 0.90410
 C3061 C 0.63560 0.87996 0.87981
 C3062 C 0.61388 0.86800 0.87479
 C3063 C 0.60979 0.84109 0.85084
 C3064 C 0.62620 0.82640 0.83240
 C3065 C 0.64735 0.83789 0.83685
 C3066 C 0.65246 0.86492 0.86045
 C3067 C 0.67429 0.87560 0.86361
 C3068 C 0.69023 0.85945 0.84465
 C3069 C 0.68505 0.83232 0.82176
 C3070 C 0.66347 0.82205 0.81786
 H3071 H 0.56962 0.85348 0.87278
 H3072 H 0.59067 0.94694 0.95421
 H3073 H 0.54261 0.88199 0.90428
 H3074 H 0.62735 0.94140 0.94085
 H3075 H 0.65558 0.91648 0.90964
 H3076 H 0.59399 0.83050 0.84568
 H3077 H 0.62224 0.80567 0.81439
 H3078 H 0.67972 0.89621 0.88055
 H3079 H 0.70673 0.86806 0.84822
 H3080 H 0.65911 0.80109 0.80026
 C3081 C 0.57422 0.62472 0.88584
 C3082 C 0.59621 0.61535 0.88959
 C3083 C 0.60137 0.58789 0.91272
 C3084 C 0.58522 0.57080 0.93099
 C3085 C 0.56349 0.58009 0.92683
 C3086 C 0.55823 0.60731 0.90409
 C3087 C 0.62264 0.57725 0.91750
 C3088 C 0.63910 0.59313 0.89980
 C3089 C 0.63501 0.62061 0.87639
 C3090 C 0.61320 0.63201 0.87125
 C3091 C 0.60914 0.65967 0.84797
 C3092 C 0.62564 0.67565 0.83036
 C3093 C 0.64691 0.66486 0.83504
 C3094 C 0.65200 0.63717 0.85801
 C3095 C 0.67394 0.62744 0.86160
 C3096 C 0.68996 0.64479 0.84346
 C3097 C 0.68482 0.67236 0.82097
 C3098 C 0.66313 0.68199 0.81686
 H3099 H 0.56873 0.64519 0.86887
 H3100 H 0.58970 0.54972 0.94836
 H3101 H 0.54165 0.61510 0.90018
 H3102 H 0.62665 0.55622 0.93516
 H3103 H 0.65497 0.58312 0.90518
 H3104 H 0.59328 0.66982 0.84274
 H3105 H 0.62167 0.69687 0.81284
 H3106 H 0.67939 0.60663 0.87830
 H3107 H 0.70650 0.63668 0.84728
 H3108 H 0.65876 0.70331 0.79965
 C3109 C 0.89344 0.89759 0.94263
 C3110 C 0.89375 0.88625 0.91031
 C3111 C 0.91362 0.88834 0.89386
 C3112 C 0.93210 0.90214 0.90909
 C3113 C 0.93109 0.91501 0.94051
 C3114 C 0.91176 0.91191 0.95726
 C3115 C 0.91488 0.87767 0.86202
 C3116 C 0.89674 0.86597 0.84565
 C3117 C 0.87644 0.86439 0.86056
 C3118 C 0.87500 0.87378 0.89364
 C3119 C 0.85485 0.87064 0.90885
 C3120 C 0.83671 0.85907 0.89239
 C3121 C 0.83775 0.85048 0.86007
 C3122 C 0.85756 0.85334 0.84356
 C3123 C 0.85759 0.84499 0.81060
 C3124 C 0.83910 0.83252 0.79533
 C3125 C 0.81982 0.82843 0.81205
 C3126 C 0.81909 0.83831 0.84428
 H3127 H 0.87925 0.89681 0.95718
 H3128 H 0.94700 0.90470 0.89592
 H3129 H 0.91066 0.92137 0.98175
 H3130 H 0.93004 0.87885 0.84942
 H3131 H 0.89931 0.85816 0.82119
 H3132 H 0.85248 0.87663 0.93373
 H3133 H 0.82165 0.85683 0.90517
 H3134 H 0.87161 0.84755 0.79580
 H3135 H 0.83998 0.82559 0.77022
 H3136 H 0.80422 0.83511 0.85738
   
