data_POSCAR
  _audit_creation_date              2014-09-24
  _audit_creation_method            'ToBaCCo'
  _symmetry_space_group_name_H-M    'P1'
  _symmetry_Int_Tables_number       1
  _symmetry_cell_setting            triclinic
  loop_
  _symmetry_equiv_pos_as_xyz
 x,y,z
_cell_length_a 89.7178
_cell_length_b 89.9790
_cell_length_c 89.9982
_cell_angle_alpha 89.907400
_cell_angle_beta 90.024300
_cell_angle_gamma 89.869700
loop_
  _atom_site_label
  _atom_site_type_symbol
  _atom_site_fract_x
  _atom_site_fract_y
  _atom_site_fract_z
N1 N 0.35622 0.31495 0.32513
 N2 N 0.35605 0.32535 0.31485
 C3 C 0.36785 0.32353 0.30584
 C4 C 0.37591 0.31134 0.31066
 C5 C 0.36816 0.30610 0.32292
 H6 H 0.37036 0.33051 0.29639
 H7 H 0.37111 0.29674 0.32988
 Cu8 Cu 0.34058 0.34039 0.31427
 Cu9 Cu 0.34109 0.31406 0.34074
 Cu10 Cu 0.31355 0.34134 0.33983
 N11 N 0.32514 0.35547 0.31368
 N12 N 0.31470 0.35595 0.32390
 C13 C 0.30557 0.36751 0.32108
 C14 C 0.31053 0.37461 0.30834
 C15 C 0.32298 0.36666 0.30397
 H16 H 0.29593 0.37037 0.32768
 H17 H 0.33004 0.36896 0.29452
 N18 N 0.31429 0.32557 0.35501
 N19 N 0.32475 0.31523 0.35546
 C20 C 0.32203 0.30612 0.36705
 C21 C 0.30920 0.31090 0.37416
 C22 C 0.30464 0.32327 0.36621
 H23 H 0.32874 0.29656 0.36995
 H24 H 0.29502 0.33014 0.36848
 H25 H 0.32434 0.32425 0.32876
 H26 H 0.33612 0.33643 0.34068
 N27 N 0.35395 0.81393 -0.17447
 N28 N 0.35455 0.82457 -0.18447
 C29 C 0.36620 0.82198 -0.19358
 C30 C 0.37325 0.80891 -0.18911
 C31 C 0.36504 0.80418 -0.17692
 H32 H 0.36917 0.82902 -0.20284
 H33 H 0.36702 0.79449 -0.17010
 Cu34 Cu 0.33992 0.84067 -0.18452
 Cu35 Cu 0.33907 0.81344 -0.15874
 Cu36 Cu 0.31296 0.84176 -0.15864
 N37 N 0.32465 0.85620 -0.18466
 N38 N 0.31450 0.85667 -0.17417
 C39 C 0.30559 0.86847 -0.17635
 C40 C 0.31021 0.87592 -0.18904
 C41 C 0.32239 0.86771 -0.19406
 H42 H 0.29623 0.87114 -0.16930
 H43 H 0.32923 0.87001 -0.20366
 N44 N 0.31312 0.82570 -0.14382
 N45 N 0.32311 0.81493 -0.14375
 C46 C 0.32011 0.80563 -0.13239
 C47 C 0.30756 0.81075 -0.12503
 C48 C 0.30346 0.82350 -0.13260
 H49 H 0.32640 0.79569 -0.12984
 H50 H 0.29414 0.83068 -0.13008
 H51 H 0.32299 0.82476 -0.17055
 H52 H 0.33534 0.83599 -0.15820
 N53 N 0.85570 0.31389 -0.17357
 N54 N 0.85643 0.32432 -0.18376
 C55 C 0.86795 0.32140 -0.19290
 C56 C 0.87479 0.30840 -0.18819
 C57 C 0.86668 0.30395 -0.17588
 H58 H 0.87095 0.32807 -0.20243
 H59 H 0.86860 0.29422 -0.16909
 Cu60 Cu 0.84216 0.34060 -0.18429
 Cu61 Cu 0.84032 0.31367 -0.15833
 Cu62 Cu 0.81188 0.33947 -0.16232
 N63 N 0.82689 0.35596 -0.18510
 N64 N 0.81501 0.35538 -0.17662
 C65 C 0.80605 0.36696 -0.17981
 C66 C 0.81268 0.37539 -0.19095
 C67 C 0.82595 0.36799 -0.19396
 H68 H 0.79552 0.36900 -0.17436
 H69 H 0.83422 0.37089 -0.20217
 N70 N 0.81253 0.32484 -0.14603
 N71 N 0.82355 0.31526 -0.14433
 C72 C 0.82093 0.30696 -0.13216
 C73 C 0.80761 0.31152 -0.12586
 C74 C 0.80262 0.32291 -0.13497
 H75 H 0.82807 0.29805 -0.12834
 H76 H 0.79258 0.32942 -0.13358
 H77 H 0.82517 0.32317 -0.17237
 H78 H 0.83438 0.33605 -0.15888
 N79 N 0.85408 0.81311 0.32589
 N80 N 0.85417 0.82326 0.31539
 C81 C 0.86546 0.82034 0.30595
 C82 C 0.87278 0.80765 0.31080
 C83 C 0.86522 0.80340 0.32350
 H84 H 0.86803 0.82682 0.29616
 H85 H 0.86770 0.79400 0.33058
 Cu86 Cu 0.83934 0.83909 0.31508
 Cu87 Cu 0.83958 0.81315 0.34188
 Cu88 Cu 0.81277 0.84096 0.34153
 N89 N 0.82398 0.85438 0.31472
 N90 N 0.81384 0.85528 0.32521
 C91 C 0.80490 0.86700 0.32240
 C92 C 0.80958 0.87382 0.30933
 C93 C 0.82174 0.86537 0.30481
 H94 H 0.79556 0.87012 0.32931
 H95 H 0.82862 0.86715 0.29513
 N96 N 0.81369 0.82536 0.35704
 N97 N 0.82405 0.81493 0.35714
 C98 C 0.82198 0.80608 0.36900
 C99 C 0.80969 0.81106 0.37680
 C100 C 0.80466 0.82331 0.36886
 H101 H 0.82881 0.79654 0.37167
 H102 H 0.79525 0.83031 0.37161
 H103 H 0.82272 0.82380 0.33008
 H104 H 0.83508 0.83578 0.34166
 N105 N 0.64548 0.68444 0.32436
 N106 N 0.64589 0.67395 0.31423
 C107 C 0.63435 0.67583 0.30483
 C108 C 0.62628 0.68818 0.30929
 C109 C 0.63366 0.69332 0.32179
 H110 H 0.63207 0.66882 0.29537
 H111 H 0.63097 0.70311 0.32822
 Cu112 Cu 0.66177 0.65916 0.31385
 Cu113 Cu 0.66114 0.68656 0.33922
 Cu114 Cu 0.68778 0.65875 0.34078
 N115 N 0.67733 0.64403 0.31448
 N116 N 0.68741 0.64401 0.32506
 C117 C 0.69699 0.63273 0.32282
 C118 C 0.69271 0.62519 0.31014
 C119 C 0.68012 0.63264 0.30516
 H120 H 0.70637 0.63019 0.32993
 H121 H 0.67366 0.63013 0.29535
 N122 N 0.68636 0.67468 0.35562
 N123 N 0.67617 0.68528 0.35519
 C124 C 0.67849 0.69463 0.36665
 C125 C 0.69086 0.68976 0.37451
 C126 C 0.69548 0.67707 0.36721
 H127 H 0.67197 0.70450 0.36885
 H128 H 0.70489 0.67013 0.37009
 H129 H 0.67818 0.67530 0.32831
 H130 H 0.66527 0.66413 0.34015
 N131 N 0.64435 0.18492 -0.17516
 N132 N 0.64447 0.17439 -0.18527
 C133 C 0.63304 0.17672 -0.19477
 C134 C 0.62547 0.18944 -0.19035
 C135 C 0.63298 0.19426 -0.17785
 H136 H 0.63065 0.16996 -0.20439
 H137 H 0.63040 0.20391 -0.17118
 Cu138 Cu 0.66029 0.15944 -0.18517
 Cu139 Cu 0.65913 0.18628 -0.15943
 Cu140 Cu 0.68754 0.16014 -0.15956
 N141 N 0.67611 0.14449 -0.18507
 N142 N 0.68692 0.14522 -0.17525
 C143 C 0.69672 0.13420 -0.17777
 C144 C 0.69185 0.12591 -0.18984
 C145 C 0.67863 0.13283 -0.19414
 H146 H 0.70654 0.13233 -0.17108
 H147 H 0.67151 0.12982 -0.20333
 N148 N 0.68606 0.17608 -0.14458
 N149 N 0.67508 0.18586 -0.14445
 C150 C 0.67688 0.19502 -0.13279
 C151 C 0.68962 0.19087 -0.12518
 C152 C 0.69518 0.17882 -0.13300
 H153 H 0.66953 0.20415 -0.13011
 H154 H 0.70499 0.17237 -0.13029
 H155 H 0.67622 0.17630 -0.17119
 H156 H 0.66494 0.16399 -0.15888
 N157 N 0.14346 0.68486 -0.17383
 N158 N 0.14323 0.67410 -0.18369
 C159 C 0.13128 0.67582 -0.19254
 C160 C 0.12353 0.68833 -0.18808
 C161 C 0.13163 0.69385 -0.17617
 H162 H 0.12850 0.66859 -0.20170
 H163 H 0.12902 0.70354 -0.16957
 Cu164 Cu 0.15851 0.65886 -0.18414
 Cu165 Cu 0.15910 0.68609 -0.15870
 Cu166 Cu 0.18664 0.65878 -0.15970
 N167 N 0.17380 0.64361 -0.18461
 N168 N 0.18492 0.64365 -0.17511
 C169 C 0.19387 0.63194 -0.17792
 C170 C 0.18798 0.62411 -0.18980
 C171 C 0.17525 0.63188 -0.19374
 H172 H 0.20378 0.62922 -0.17164
 H173 H 0.16769 0.62926 -0.20270
 N174 N 0.18641 0.67499 -0.14497
 N175 N 0.17591 0.68529 -0.14444
 C176 C 0.17885 0.69454 -0.13304
 C177 C 0.19186 0.68989 -0.12611
 C178 C 0.19629 0.67746 -0.13400
 H179 H 0.17211 0.70406 -0.13009
 H180 H 0.20593 0.67058 -0.13178
 H181 H 0.17536 0.67548 -0.17095
 H182 H 0.16413 0.66372 -0.15811
 N183 N 0.14519 0.18559 0.32457
 N184 N 0.14509 0.17498 0.31455
 C185 C 0.13378 0.17752 0.30498
 C186 C 0.12650 0.19047 0.30923
 C187 C 0.13407 0.19520 0.32173
 H188 H 0.13122 0.17066 0.29547
 H189 H 0.13166 0.20491 0.32836
 Cu190 Cu 0.16010 0.15920 0.31485
 Cu191 Cu 0.15971 0.18651 0.34046
 Cu192 Cu 0.18758 0.16001 0.34061
 N193 N 0.17642 0.14479 0.31485
 N194 N 0.18712 0.14533 0.32481
 C195 C 0.19698 0.13439 0.32215
 C196 C 0.19229 0.12647 0.30984
 C197 C 0.17915 0.13339 0.30551
 H198 H 0.20679 0.13227 0.32882
 H199 H 0.17221 0.13049 0.29613
 N200 N 0.18611 0.17577 0.35571
 N201 N 0.17533 0.18574 0.35570
 C202 C 0.17715 0.19487 0.36737
 C203 C 0.18972 0.19050 0.37512
 C204 C 0.19515 0.17834 0.36739
 H205 H 0.16996 0.20418 0.36993
 H206 H 0.20484 0.17176 0.37018
 H207 H 0.17643 0.17600 0.32847
 H208 H 0.16498 0.16405 0.34110
 N209 N 0.64381 0.31482 0.67472
 N210 N 0.64401 0.32552 0.68462
 C211 C 0.63245 0.32377 0.69397
 C212 C 0.62456 0.31127 0.68975
 C213 C 0.63214 0.30584 0.67748
 H214 H 0.63004 0.33096 0.70327
 H215 H 0.62927 0.29621 0.67091
 Cu216 Cu 0.65934 0.34068 0.68433
 Cu217 Cu 0.65861 0.31361 0.65889
 Cu218 Cu 0.68634 0.34063 0.65847
 N219 N 0.67468 0.35582 0.68406
 N220 N 0.68538 0.35575 0.67409
 C221 C 0.69437 0.36751 0.67651
 C222 C 0.68890 0.37540 0.68859
 C223 C 0.67643 0.36759 0.69307
 H224 H 0.70397 0.37027 0.66980
 H225 H 0.66922 0.37024 0.70230
 N226 N 0.68517 0.32438 0.64367
 N227 N 0.67452 0.31427 0.64380
 C228 C 0.67639 0.30509 0.63216
 C229 C 0.68882 0.30955 0.62424
 C230 C 0.69414 0.32181 0.63191
 H231 H 0.66924 0.29579 0.62964
 H232 H 0.70364 0.32855 0.62894
 H233 H 0.67565 0.32416 0.67028
 H234 H 0.66383 0.33607 0.65802
 N235 N 0.64426 0.81473 1.17446
 N236 N 0.64429 0.82484 1.18499
 C237 C 0.63260 0.82240 1.19410
 C238 C 0.62480 0.81015 1.18892
 C239 C 0.63258 0.80560 1.17644
 H240 H 0.62981 0.82916 1.20362
 H241 H 0.63004 0.79625 1.16937
 Cu242 Cu 0.65945 0.84038 1.18534
 Cu243 Cu 0.65938 0.81386 1.15893
 Cu244 Cu 0.68678 0.84082 1.15986
 N245 N 0.67507 0.85549 1.18575
 N246 N 0.68558 0.85551 1.17559
 C247 C 0.69471 0.86707 1.17789
 C248 C 0.68974 0.87486 1.19016
 C249 C 0.67723 0.86713 1.19494
 H250 H 0.70431 0.86959 1.17111
 H251 H 0.67010 0.86997 1.20420
 N252 N 0.68620 0.82509 1.14477
 N253 N 0.67570 0.81487 1.14426
 C254 C 0.67845 0.80574 1.13270
 C255 C 0.69136 0.81042 1.12566
 C256 C 0.69591 0.82273 1.13363
 H257 H 0.67173 0.79623 1.12979
 H258 H 0.70556 0.82954 1.13142
 H259 H 0.67581 0.82403 1.17118
 H260 H 0.66420 0.83622 1.15896
 N261 N 0.14607 0.31411 1.17463
 N262 N 0.14566 0.32458 1.18480
 C263 C 0.13430 0.32175 1.19420
 C264 C 0.12728 0.30878 1.18970
 C265 C 0.13509 0.30430 1.17722
 H266 H 0.13151 0.32848 1.20375
 H267 H 0.13293 0.29464 1.17045
 Cu268 Cu 0.16026 0.34068 1.18482
 Cu269 Cu 0.16092 0.31359 1.15890
 Cu270 Cu 0.18763 0.34121 1.15925
 N271 N 0.17573 0.35596 1.18499
 N272 N 0.18628 0.35600 1.17487
 C273 C 0.19535 0.36762 1.17718
 C274 C 0.19032 0.37540 1.18944
 C275 C 0.17784 0.36762 1.19418
 H276 H 0.20498 0.37014 1.17044
 H277 H 0.17071 0.37039 1.20347
 N278 N 0.18722 0.32535 1.14426
 N279 N 0.17691 0.31493 1.14395
 C280 C 0.17966 0.30578 1.13242
 C281 C 0.19238 0.31063 1.12519
 C282 C 0.19684 0.32307 1.13301
 H283 H 0.17308 0.29612 1.12968
 H284 H 0.20635 0.33001 1.13062
 H285 H 0.17706 0.32444 1.17101
 H286 H 0.16515 0.33610 1.15852
 N287 N 0.14324 0.81494 0.67605
 N288 N 0.14357 0.82560 0.68600
 C289 C 0.13194 0.82400 0.69529
 C290 C 0.12388 0.81164 0.69097
 C291 C 0.13142 0.80614 0.67871
 H292 H 0.12959 0.83119 0.70460
 H293 H 0.12838 0.79663 0.67205
 Cu294 Cu 0.15935 0.84029 0.68596
 Cu295 Cu 0.15785 0.81367 0.66007
 Cu296 Cu 0.18410 0.84198 0.65819
 N297 N 0.17513 0.85500 0.68591
 N298 N 0.18492 0.85564 0.67506
 C299 C 0.19442 0.86691 0.67769
 C300 C 0.19040 0.87366 0.69097
 C301 C 0.17810 0.86576 0.69582
 H302 H 0.20357 0.86993 0.67049
 H303 H 0.17163 0.86785 0.70572
 N304 N 0.18353 0.82526 0.64395
 N305 N 0.17350 0.81457 0.64473
 C306 C 0.17561 0.80511 0.63337
 C307 C 0.18757 0.80997 0.62501
 C308 C 0.19239 0.82276 0.63210
 H309 H 0.16890 0.79537 0.63131
 H310 H 0.20145 0.82988 0.62867
 H311 H 0.17522 0.82490 0.67046
 H312 H 0.16172 0.83608 0.65929
 N313 N 0.35674 0.68529 0.67535
 N314 N 0.35670 0.67445 0.68513
 C315 C 0.36832 0.67614 0.69441
 C316 C 0.37607 0.68876 0.69027
 C317 C 0.36837 0.69431 0.67811
 H318 H 0.37086 0.66885 0.70363
 H319 H 0.37110 0.70406 0.67164
 Cu320 Cu 0.34133 0.65934 0.68485
 Cu321 Cu 0.34184 0.68669 0.65967
 Cu322 Cu 0.31410 0.65972 0.65922
 N323 N 0.32598 0.64424 0.68458
 N324 N 0.31516 0.64446 0.67472
 C325 C 0.30614 0.63274 0.67717
 C326 C 0.31170 0.62473 0.68914
 C327 C 0.32426 0.63242 0.69354
 H328 H 0.29644 0.63009 0.67054
 H329 H 0.33156 0.62965 0.70269
 N330 N 0.31518 0.67611 0.64454
 N331 N 0.32583 0.68621 0.64471
 C332 C 0.32398 0.69545 0.63310
 C333 C 0.31157 0.69103 0.62516
 C334 C 0.30622 0.67875 0.63278
 H335 H 0.33116 0.70474 0.63058
 H336 H 0.29673 0.67202 0.62975
 H337 H 0.32490 0.67601 0.67110
 H338 H 0.33660 0.66425 0.65865
 N339 N 0.35621 0.18385 1.17547
 N340 N 0.35553 0.17311 1.18536
 C341 C 0.36703 0.17449 1.19487
 C342 C 0.37532 0.18679 1.19076
 C343 C 0.36809 0.19246 1.17839
 H344 H 0.36910 0.16721 1.20422
 H345 H 0.37132 0.20203 1.17188
 Cu346 Cu 0.33948 0.15861 1.18495
 Cu347 Cu 0.34178 0.18579 1.15941
 Cu348 Cu 0.31331 0.15979 1.15827
 N349 N 0.32357 0.14398 1.18412
 N350 N 0.31332 0.14459 1.17370
 C351 C 0.30353 0.13348 1.17577
 C352 C 0.30783 0.12541 1.18818
 C353 C 0.32064 0.13241 1.19317
 H354 H 0.29402 0.13142 1.16871
 H355 H 0.32720 0.12945 1.20280
 N356 N 0.31525 0.17600 1.14367
 N357 N 0.32612 0.18584 1.14405
 C358 C 0.32452 0.19528 1.13252
 C359 C 0.31200 0.19122 1.12451
 C360 C 0.30640 0.17896 1.13193
 H361 H 0.33186 0.20449 1.13018
 H362 H 0.29674 0.17251 1.12886
 H363 H 0.32425 0.17583 1.17048
 H364 H 0.33603 0.16357 1.15855
 N365 N 0.85405 0.68629 1.17463
 N366 N 0.85425 0.67602 1.18504
 C367 C 0.86575 0.67871 1.19431
 C368 C 0.87307 0.69141 1.18948
 C369 C 0.86532 0.69584 1.17693
 H370 H 0.86839 0.67216 1.20404
 H371 H 0.86765 0.70535 1.16997
 Cu372 Cu 0.83894 0.66062 1.18562
 Cu373 Cu 0.83902 0.68701 1.15904
 Cu374 Cu 0.81204 0.65960 1.15969
 N375 N 0.82379 0.64504 1.18569
 N376 N 0.81336 0.64486 1.17544
 C377 C 0.80403 0.63350 1.17804
 C378 C 0.80874 0.62606 1.19066
 C379 C 0.82141 0.63367 1.19520
 H380 H 0.79448 0.63090 1.17122
 H381 H 0.82815 0.63132 1.20489
 N382 N 0.81250 0.67542 1.14462
 N383 N 0.82283 0.68582 1.14425
 C384 C 0.81997 0.69506 1.13280
 C385 C 0.80716 0.69029 1.12567
 C386 C 0.80278 0.67780 1.13348
 H387 H 0.82653 0.70474 1.13003
 H388 H 0.79321 0.67091 1.13118
 H389 H 0.82250 0.67666 1.17107
 H390 H 0.83455 0.66459 1.15919
 N391 N 0.85632 0.18510 0.67500
 N392 N 0.85613 0.17434 0.68488
 C393 C 0.86781 0.17595 0.69413
 C394 C 0.87576 0.18842 0.68987
 C395 C 0.86810 0.19396 0.67766
 H396 H 0.87021 0.16873 0.70343
 H397 H 0.87095 0.20363 0.67112
 Cu398 Cu 0.84047 0.15942 0.68501
 Cu399 Cu 0.84128 0.18680 0.65938
 Cu400 Cu 0.81340 0.16019 0.65931
 N401 N 0.82465 0.14466 0.68482
 N402 N 0.81414 0.14508 0.67467
 C403 C 0.80441 0.13404 0.67716
 C404 C 0.80899 0.12621 0.68960
 C405 C 0.82193 0.13326 0.69416
 H406 H 0.79469 0.13191 0.67040
 H407 H 0.82868 0.13050 0.70373
 N408 N 0.81444 0.17631 0.64466
 N409 N 0.82502 0.18647 0.64456
 C410 C 0.82239 0.19602 0.63328
 C411 C 0.80947 0.19167 0.62604
 C412 C 0.80480 0.17913 0.63357
 H413 H 0.82918 0.20558 0.63070
 H414 H 0.79509 0.17250 0.63111
 H415 H 0.82457 0.17652 0.67117
 H416 H 0.83616 0.16454 0.65875
 N417 N 0.31421 0.35566 0.67487
 N418 N 0.32486 0.35579 0.68489
 C419 C 0.32227 0.36703 0.69446
 C420 C 0.30925 0.37423 0.69021
 C421 C 0.30451 0.36669 0.67770
 H422 H 0.32916 0.36960 0.70397
 H423 H 0.29475 0.36906 0.67108
 Cu424 Cu 0.34077 0.34094 0.68459
 Cu425 Cu 0.31334 0.34120 0.65899
 Cu426 Cu 0.34001 0.31349 0.65893
 N427 N 0.35531 0.32476 0.68462
 N428 N 0.35477 0.31405 0.67473
 C429 C 0.36582 0.30429 0.67741
 C430 C 0.37380 0.30908 0.68965
 C431 C 0.36681 0.32215 0.69394
 H432 H 0.36799 0.29451 0.67079
 H433 H 0.36974 0.32912 0.70326
 N434 N 0.32418 0.31489 0.64383
 N435 N 0.31415 0.32563 0.64378
 C436 C 0.30499 0.32378 0.63210
 C437 C 0.30940 0.31125 0.62440
 C438 C 0.32160 0.30587 0.63217
 H439 H 0.29565 0.33093 0.62951
 H440 H 0.32823 0.29621 0.62943
 H441 H 0.32399 0.32456 0.67103
 H442 H 0.33590 0.33599 0.65836
 N443 N 0.31573 0.85630 0.17487
 N444 N 0.32662 0.85613 0.18463
 C445 C 0.32511 0.86783 0.19380
 C446 C 0.31257 0.87579 0.18962
 C447 C 0.30686 0.86810 0.17756
 H448 H 0.33249 0.87030 0.20295
 H449 H 0.29711 0.87098 0.17109
 Cu450 Cu 0.34166 0.84059 0.18445
 Cu451 Cu 0.31417 0.84130 0.15929
 Cu452 Cu 0.34100 0.81327 0.15913
 N453 N 0.35667 0.82502 0.18435
 N454 N 0.35632 0.81419 0.17458
 C455 C 0.36794 0.80498 0.17709
 C456 C 0.37603 0.81041 0.18905
 C457 C 0.36849 0.82312 0.19335
 H458 H 0.37046 0.79523 0.17053
 H459 H 0.37135 0.83039 0.20245
 N460 N 0.32459 0.81441 0.14446
 N461 N 0.31453 0.82515 0.14447
 C462 C 0.30522 0.82317 0.13291
 C463 C 0.30954 0.81056 0.12523
 C464 C 0.32185 0.80527 0.13292
 H465 H 0.29592 0.83036 0.13029
 H466 H 0.32851 0.79567 0.13010
 H467 H 0.32470 0.82439 0.17088
 H468 H 0.33659 0.83578 0.15829
 N469 N 0.81461 0.35507 0.17575
 N470 N 0.82607 0.35560 0.18485
 C471 C 0.82403 0.36684 0.19453
 C472 C 0.81048 0.37350 0.19139
 C473 C 0.80480 0.36575 0.17944
 H474 H 0.83152 0.36966 0.20351
 H475 H 0.79431 0.36777 0.17386
 Cu476 Cu 0.84151 0.34045 0.18367
 Cu477 Cu 0.81311 0.34060 0.15971
 Cu478 Cu 0.84048 0.31323 0.15846
 N479 N 0.85650 0.32481 0.18369
 N480 N 0.85583 0.31406 0.17383
 C481 C 0.86692 0.30431 0.17643
 C482 C 0.87500 0.30916 0.18861
 C483 C 0.86805 0.32224 0.19292
 H484 H 0.86892 0.29443 0.16992
 H485 H 0.87097 0.32915 0.20229
 N486 N 0.82399 0.31450 0.14396
 N487 N 0.81370 0.32500 0.14438
 C488 C 0.80427 0.32311 0.13290
 C489 C 0.80877 0.31079 0.12489
 C490 C 0.82130 0.30559 0.13225
 H491 H 0.79475 0.33013 0.13060
 H492 H 0.82811 0.29618 0.12912
 H493 H 0.82441 0.32396 0.17080
 H494 H 0.83554 0.33562 0.15777
 N495 N 0.81400 0.85618 0.67475
 N496 N 0.82446 0.85594 0.68499
 C497 C 0.82215 0.86732 0.69447
 C498 C 0.80950 0.87501 0.68994
 C499 C 0.80470 0.86760 0.67737
 H500 H 0.82891 0.86963 0.70413
 H501 H 0.79512 0.87030 0.67059
 Cu502 Cu 0.83949 0.84022 0.68504
 Cu503 Cu 0.81285 0.84158 0.65889
 Cu504 Cu 0.83945 0.81361 0.65884
 N505 N 0.85462 0.82461 0.68479
 N506 N 0.85430 0.81415 0.67461
 C507 C 0.86548 0.80449 0.67711
 C508 C 0.87331 0.80908 0.68952
 C509 C 0.86611 0.82195 0.69409
 H510 H 0.86778 0.79486 0.67031
 H511 H 0.86886 0.82867 0.70365
 N512 N 0.82352 0.81505 0.64381
 N513 N 0.81351 0.82581 0.64376
 C514 C 0.80434 0.82394 0.63208
 C515 C 0.80873 0.81137 0.62440
 C516 C 0.82093 0.80600 0.63218
 H517 H 0.79505 0.83113 0.62944
 H518 H 0.82756 0.79636 0.62943
 H519 H 0.82292 0.82443 0.67051
 H520 H 0.83527 0.83614 0.65862
 N521 N 0.68442 0.64349 0.67534
 N522 N 0.67367 0.64322 0.68525
 C523 C 0.67557 0.63138 0.69419
 C524 C 0.68821 0.62378 0.68973
 C525 C 0.69358 0.63182 0.67771
 H526 H 0.66840 0.62861 0.70343
 H527 H 0.70330 0.62930 0.67108
 Cu528 Cu 0.65828 0.65839 0.68563
 Cu529 Cu 0.68554 0.65899 0.66012
 Cu530 Cu 0.65810 0.68637 0.66106
 N531 N 0.64289 0.67358 0.68604
 N532 N 0.64294 0.68464 0.67649
 C533 C 0.63120 0.69358 0.67926
 C534 C 0.62332 0.68776 0.69116
 C535 C 0.63110 0.67506 0.69516
 H536 H 0.62849 0.70344 0.67293
 H537 H 0.62845 0.66756 0.70415
 N538 N 0.67435 0.68613 0.64630
 N539 N 0.68466 0.67564 0.64578
 C540 C 0.69392 0.67850 0.63433
 C541 C 0.68926 0.69144 0.62736
 C542 C 0.67683 0.69593 0.63527
 H543 H 0.70345 0.67176 0.63139
 H544 H 0.66995 0.70555 0.63301
 H545 H 0.67488 0.67520 0.67233
 H546 H 0.66307 0.66393 0.65957
 N547 N 0.68489 0.14322 0.17454
 N548 N 0.67411 0.14341 0.18443
 C549 C 0.67568 0.13166 0.19358
 C550 C 0.68815 0.12366 0.18927
 C551 C 0.69374 0.13137 0.17714
 H552 H 0.66841 0.12921 0.20283
 H553 H 0.70342 0.12851 0.17059
 Cu554 Cu 0.65924 0.15917 0.18461
 Cu555 Cu 0.68656 0.15832 0.15896
 Cu556 Cu 0.65990 0.18634 0.15920
 N557 N 0.64430 0.17488 0.18458
 N558 N 0.64479 0.18554 0.17461
 C559 C 0.63370 0.19526 0.17718
 C560 C 0.62576 0.19048 0.18945
 C561 C 0.63278 0.17745 0.19385
 H562 H 0.63158 0.20507 0.17056
 H563 H 0.62990 0.17056 0.20327
 N564 N 0.67600 0.18533 0.14449
 N565 N 0.68615 0.17468 0.14423
 C566 C 0.69555 0.17727 0.13282
 C567 C 0.69113 0.19022 0.12568
 C568 C 0.67870 0.19496 0.13339
 H569 H 0.70503 0.17039 0.13004
 H570 H 0.67201 0.20466 0.13098
 H571 H 0.67639 0.17501 0.17082
 H572 H 0.66428 0.16366 0.15837
 N573 N 0.18446 0.64372 0.17440
 N574 N 0.17380 0.64351 0.18440
 C575 C 0.17569 0.63165 0.19330
 C576 C 0.18820 0.62396 0.18868
 C577 C 0.19356 0.63199 0.17666
 H578 H 0.16857 0.62889 0.20258
 H579 H 0.20319 0.62938 0.16993
 Cu580 Cu 0.15844 0.65865 0.18487
 Cu581 Cu 0.18549 0.65919 0.15917
 Cu582 Cu 0.15800 0.68654 0.16025
 N583 N 0.14309 0.67381 0.18539
 N584 N 0.14298 0.68481 0.17580
 C585 C 0.13121 0.69367 0.17859
 C586 C 0.12347 0.68784 0.19057
 C587 C 0.13137 0.67525 0.19460
 H588 H 0.12835 0.70347 0.17222
 H589 H 0.12885 0.66777 0.20365
 N590 N 0.17413 0.68629 0.14541
 N591 N 0.18447 0.67583 0.14484
 C592 C 0.19368 0.67874 0.13338
 C593 C 0.18895 0.69167 0.12646
 C594 C 0.17654 0.69612 0.13440
 H595 H 0.20324 0.67205 0.13041
 H596 H 0.16964 0.70574 0.13220
 H597 H 0.17488 0.67543 0.17138
 H598 H 0.16300 0.66411 0.15875
 N599 N 0.18654 0.14454 0.67344
 N600 N 0.17598 0.14368 0.68352
 C601 C 0.17885 0.13208 0.69257
 C602 C 0.19194 0.12532 0.68795
 C603 C 0.19649 0.13356 0.67576
 H604 H 0.17210 0.12898 0.70201
 H605 H 0.20629 0.13171 0.66903
 Cu606 Cu 0.15972 0.15800 0.68413
 Cu607 Cu 0.18675 0.15997 0.65825
 Cu608 Cu 0.15870 0.18646 0.65979
 N609 N 0.14421 0.17311 0.68492
 N610 N 0.14398 0.18430 0.67552
 C611 C 0.13226 0.19311 0.67863
 C612 C 0.12466 0.18712 0.69062
 C613 C 0.13261 0.17442 0.69431
 H614 H 0.12936 0.20302 0.67246
 H615 H 0.13021 0.16680 0.70328
 N616 N 0.17455 0.18669 0.64465
 N617 N 0.18507 0.17645 0.64391
 C618 C 0.19400 0.17948 0.63227
 C619 C 0.18891 0.19229 0.62537
 C620 C 0.17656 0.19655 0.63355
 H621 H 0.20363 0.17296 0.62916
 H622 H 0.16944 0.20603 0.63144
 H623 H 0.17566 0.17558 0.67101
 H624 H 0.16408 0.16420 0.65809
 N625 N 0.31490 0.64442 0.32425
 N626 N 0.32599 0.64473 0.31471
 C627 C 0.32466 0.63315 0.30534
 C628 C 0.31204 0.62517 0.30917
 C629 C 0.30613 0.63269 0.32123
 H630 H 0.33219 0.63082 0.29626
 H631 H 0.29628 0.62976 0.32748
 Cu632 Cu 0.34084 0.66047 0.31530
 Cu633 Cu 0.31276 0.65913 0.33998
 Cu634 Cu 0.33932 0.68705 0.34146
 N635 N 0.35556 0.67631 0.31609
 N636 N 0.35482 0.68673 0.32628
 C637 C 0.36595 0.69650 0.32409
 C638 C 0.37417 0.69198 0.31187
 C639 C 0.36724 0.67908 0.30711
 H640 H 0.36791 0.70617 0.33092
 H641 H 0.37029 0.67241 0.29761
 N642 N 0.32276 0.68548 0.35578
 N643 N 0.31254 0.67498 0.35509
 C644 C 0.30264 0.67706 0.36616
 C645 C 0.30684 0.68944 0.37425
 C646 C 0.31967 0.69446 0.36734
 H647 H 0.29317 0.66997 0.36828
 H648 H 0.32616 0.70409 0.37038
 H649 H 0.32341 0.67624 0.32891
 H650 H 0.33510 0.66448 0.34146
 N651 N 0.31438 0.14343 0.82499
 N652 N 0.32503 0.14325 0.81496
 C653 C 0.32309 0.13149 0.80596
 C654 C 0.31055 0.12382 0.81054
 C655 C 0.30526 0.13178 0.82264
 H656 H 0.33024 0.12873 0.79671
 H657 H 0.29567 0.12913 0.82941
 Cu658 Cu 0.34047 0.15831 0.81452
 Cu659 Cu 0.31366 0.15851 0.84061
 Cu660 Cu 0.34155 0.18530 0.84007
 N661 N 0.35597 0.17333 0.81428
 N662 N 0.35623 0.18402 0.82420
 C663 C 0.36792 0.19296 0.82144
 C664 C 0.37546 0.18754 0.80915
 C665 C 0.36753 0.17506 0.80491
 H666 H 0.37083 0.20257 0.82802
 H667 H 0.36992 0.16786 0.79561
 N668 N 0.32574 0.18474 0.85521
 N669 N 0.31502 0.17471 0.85540
 C670 C 0.30616 0.17731 0.86723
 C671 C 0.31165 0.18948 0.87488
 C672 C 0.32403 0.19390 0.86689
 H673 H 0.29664 0.17063 0.87026
 H674 H 0.33127 0.20314 0.86939
 H675 H 0.32439 0.17488 0.82875
 H676 H 0.33623 0.16285 0.84088
 N677 N 0.81339 0.64384 0.82555
 N678 N 0.82385 0.64353 0.81534
 C679 C 0.82124 0.63207 0.80608
 C680 C 0.80840 0.62488 0.81072
 C681 C 0.80376 0.63268 0.82312
 H682 H 0.82798 0.62933 0.79652
 H683 H 0.79413 0.63039 0.82995
 Cu684 Cu 0.83948 0.65850 0.81503
 Cu685 Cu 0.81286 0.65870 0.84115
 Cu686 Cu 0.84029 0.68578 0.84068
 N687 N 0.85496 0.67362 0.81499
 N688 N 0.85508 0.68438 0.82485
 C689 C 0.86677 0.69335 0.82214
 C690 C 0.87445 0.68789 0.80995
 C691 C 0.86661 0.67534 0.80573
 H692 H 0.86958 0.70299 0.82871
 H693 H 0.86911 0.66812 0.79648
 N694 N 0.82432 0.68511 0.85579
 N695 N 0.81407 0.67461 0.85602
 C696 C 0.80511 0.67674 0.86779
 C697 C 0.80986 0.68918 0.87540
 C698 C 0.82205 0.69426 0.86744
 H699 H 0.79572 0.66978 0.87059
 H700 H 0.82895 0.70372 0.87014
 H701 H 0.82353 0.67529 0.82917
 H702 H 0.83553 0.66344 0.84135
 N703 N 0.81530 0.14372 0.32404
 N704 N 0.82623 0.14369 0.31434
 C705 C 0.82466 0.13195 0.30523
 C706 C 0.81202 0.12419 0.30940
 C707 C 0.80633 0.13203 0.32137
 H708 H 0.83206 0.12931 0.29614
 H709 H 0.79653 0.12933 0.32781
 Cu710 Cu 0.84146 0.15899 0.31452
 Cu711 Cu 0.81376 0.15880 0.33950
 Cu712 Cu 0.84123 0.18604 0.34019
 N713 N 0.85673 0.17422 0.31488
 N714 N 0.85664 0.18488 0.32485
 C715 C 0.86840 0.19388 0.32241
 C716 C 0.87633 0.18848 0.31032
 C717 C 0.86853 0.17602 0.30585
 H718 H 0.87106 0.20353 0.32904
 H719 H 0.87116 0.16887 0.29658
 N720 N 0.82465 0.18522 0.35467
 N721 N 0.81416 0.17495 0.35426
 C722 C 0.80439 0.17746 0.36533
 C723 C 0.80891 0.18988 0.37315
 C724 C 0.82182 0.19449 0.36608
 H725 H 0.79478 0.17063 0.36764
 H726 H 0.82855 0.20401 0.36893
 H727 H 0.82476 0.17554 0.32813
 H728 H 0.83626 0.16366 0.34068
 N729 N 0.68579 0.35574 0.32556
 N730 N 0.67560 0.35609 0.31507
 C731 C 0.67833 0.36769 0.30598
 C732 C 0.69085 0.37507 0.31109
 C733 C 0.69528 0.36714 0.32355
 H734 H 0.67158 0.37068 0.29648
 H735 H 0.70477 0.36938 0.33058
 Cu736 Cu 0.65963 0.34147 0.31447
 Cu737 Cu 0.68604 0.34055 0.34103
 Cu738 Cu 0.65815 0.31397 0.33976
 N739 N 0.64417 0.32634 0.31380
 N740 N 0.64377 0.31553 0.32363
 C741 C 0.63212 0.30663 0.32065
 C742 C 0.62472 0.31216 0.30831
 C743 C 0.63271 0.32470 0.30427
 H744 H 0.62912 0.29698 0.32716
 H745 H 0.63041 0.33201 0.29500
 N746 N 0.67369 0.31425 0.35523
 N747 N 0.68438 0.32429 0.35567
 C748 C 0.69319 0.32148 0.36748
 C749 C 0.68775 0.30913 0.37489
 C750 C 0.67537 0.30486 0.36678
 H751 H 0.70273 0.32809 0.37061
 H752 H 0.66818 0.29552 0.36907
 H753 H 0.67537 0.32444 0.32865
 H754 H 0.66343 0.33629 0.34084
 N755 N 0.68478 0.85759 0.82454
 N756 N 0.67403 0.85740 0.81465
 C757 C 0.67571 0.86896 0.80531
 C758 C 0.68821 0.87686 0.80956
 C759 C 0.69373 0.86928 0.82181
 H760 H 0.66847 0.87137 0.79602
 H761 H 0.70339 0.87215 0.82838
 Cu762 Cu 0.65885 0.84213 0.81485
 Cu763 Cu 0.68611 0.84281 0.84031
 Cu764 Cu 0.65928 0.81497 0.84054
 N765 N 0.64399 0.82656 0.81501
 N766 N 0.64420 0.81583 0.82492
 C767 C 0.63255 0.80672 0.82246
 C768 C 0.62460 0.81213 0.81038
 C769 C 0.63224 0.82469 0.80594
 H770 H 0.62989 0.79709 0.82915
 H771 H 0.62948 0.83190 0.79674
 N772 N 0.67548 0.81618 0.85535
 N773 N 0.68553 0.82687 0.85531
 C774 C 0.69471 0.82497 0.86699
 C775 C 0.69028 0.81248 0.87477
 C776 C 0.67807 0.80715 0.86703
 H777 H 0.70400 0.83213 0.86962
 H778 H 0.67137 0.79760 0.86990
 H779 H 0.67563 0.82591 0.82872
 H780 H 0.66365 0.83748 0.84111
 N781 N 0.18717 0.35539 0.82531
 N782 N 0.17683 0.35611 0.81498
 C783 C 0.17976 0.36769 0.80594
 C784 C 0.19268 0.37456 0.81084
 C785 C 0.19704 0.36642 0.82317
 H786 H 0.17315 0.37074 0.79636
 H787 H 0.20663 0.36839 0.83016
 Cu788 Cu 0.16086 0.34153 0.81422
 Cu789 Cu 0.18717 0.34021 0.84076
 Cu790 Cu 0.15859 0.31434 0.83970
 N791 N 0.14479 0.32704 0.81379
 N792 N 0.14415 0.31629 0.82367
 C793 C 0.13230 0.30764 0.82076
 C794 C 0.12503 0.31328 0.80840
 C795 C 0.13328 0.32562 0.80428
 H796 H 0.12912 0.29806 0.82727
 H797 H 0.13118 0.33289 0.79493
 N798 N 0.17425 0.31426 0.85503
 N799 N 0.18519 0.32403 0.85539
 C800 C 0.19401 0.32103 0.86715
 C801 C 0.18830 0.30883 0.87459
 C802 C 0.17578 0.30485 0.86657
 H803 H 0.20371 0.32742 0.87024
 H804 H 0.16836 0.29570 0.86893
 H805 H 0.17610 0.32424 0.82858
 H806 H 0.16443 0.33654 0.84058
 N807 N 0.18455 0.85627 0.32426
 N808 N 0.17360 0.85622 0.31457
 C809 C 0.17512 0.86791 0.30536
 C810 C 0.18771 0.87574 0.30947
 C811 C 0.19346 0.86798 0.32151
 H812 H 0.16768 0.87048 0.29627
 H813 H 0.20323 0.87077 0.32794
 Cu814 Cu 0.15837 0.84096 0.31498
 Cu815 Cu 0.18612 0.84127 0.33984
 Cu816 Cu 0.15872 0.81397 0.34079
 N817 N 0.14316 0.82570 0.31543
 N818 N 0.14328 0.81506 0.32545
 C819 C 0.13147 0.80610 0.32313
 C820 C 0.12350 0.81152 0.31105
 C821 C 0.13130 0.82394 0.30647
 H822 H 0.12878 0.79651 0.32985
 H823 H 0.12861 0.83109 0.29720
 N824 N 0.17534 0.81489 0.35526
 N825 N 0.18579 0.82520 0.35474
 C826 C 0.19558 0.82280 0.36582
 C827 C 0.19115 0.81040 0.37377
 C828 C 0.17823 0.80570 0.36676
 H829 H 0.20517 0.82969 0.36806
 H830 H 0.17153 0.79617 0.36971
 H831 H 0.17507 0.82447 0.32863
 H832 H 0.16358 0.83637 0.34116
 C833 C 0.25621 1.01356 0.24491
 C834 C 0.24371 1.01359 0.25450
 C835 C 0.23790 0.99999 0.25946
 C836 C 0.24408 0.98641 0.25490
 C837 C 0.25597 0.98639 0.24459
 C838 C 0.26210 0.99997 0.24000
 H839 H 0.27125 0.99998 0.23214
 H840 H 0.22874 1.00000 0.26733
 C841 C 0.25630 0.51386 0.74442
 C842 C 0.24452 0.51385 0.75485
 C843 C 0.23852 0.50027 0.75958
 C844 C 0.24447 0.48668 0.75475
 C845 C 0.25696 0.48670 0.74515
 C846 C 0.26261 0.50030 0.74000
 H847 H 0.27173 0.50030 0.73209
 H848 H 0.22941 0.50026 0.76750
 C849 C 0.75381 -0.01380 0.25858
 C850 C 0.74324 -0.01421 0.24692
 C851 C 0.73861 -0.00085 0.24026
 C852 C 0.74410 0.01291 0.24510
 C853 C 0.75446 0.01331 0.25694
 C854 C 0.75925 -0.00005 0.26345
 H855 H 0.76725 0.00027 0.27249
 H856 H 0.73055 -0.00115 0.23128
 C857 C 0.75674 0.48562 0.75441
 C858 C 0.74544 0.48588 0.74346
 C859 C 0.74014 0.49960 0.73821
 C860 C 0.74631 0.51305 0.74316
 C861 C 0.75793 0.51274 0.75378
 C862 C 0.76293 0.49904 0.75932
 H863 H 0.77155 0.49882 0.76777
 H864 H 0.73160 0.49981 0.72968
 C865 C 0.25403 0.48710 0.25786
 C866 C 0.24345 0.48668 0.24622
 C867 C 0.23893 0.50004 0.23952
 C868 C 0.24452 0.51377 0.24433
 C869 C 0.25485 0.51419 0.25619
 C870 C 0.25957 0.50084 0.26271
 H871 H 0.26758 0.50113 0.27173
 H872 H 0.23090 0.49976 0.23052
 C873 C 0.75776 1.01459 0.74658
 C874 C 0.74456 1.01422 0.75517
 C875 C 0.73880 1.00044 0.75964
 C876 C 0.74595 0.98707 0.75586
 C877 C 0.75885 0.98744 0.74683
 C878 C 0.76464 1.00121 0.74244
 H879 H 0.77446 1.00153 0.73542
 H880 H 0.72900 1.00015 0.76668
 C881 C 0.75752 0.51322 0.24583
 C882 C 0.74458 0.51277 0.25476
 C883 C 0.73844 0.49897 0.25861
 C884 C 0.74465 0.48559 0.25349
 C885 C 0.75733 0.48602 0.24410
 C886 C 0.76372 0.49987 0.24070
 H887 H 0.77360 0.50032 0.23378
 H888 H 0.72869 0.49863 0.26572
 C889 C 0.25679 -0.01388 0.75354
 C890 C 0.24578 -0.01382 0.74230
 C891 C 0.23923 -0.00031 0.73798
 C892 C 0.24344 0.01316 0.74457
 C893 C 0.25453 0.01315 0.75574
 C894 C 0.26103 -0.00039 0.76010
 H895 H 0.26949 -0.00042 0.76870
 H896 H 0.23077 -0.00029 0.72938
 C897 C 0.24281 0.25389 1.01280
 C898 C 0.25444 0.24325 1.01312
 C899 C 0.26056 0.23818 0.99970
 C900 C 0.25526 0.24337 0.98598
 C901 C 0.24400 0.25439 0.98570
 C902 C 0.23782 0.25939 0.99910
 H903 H 0.22925 0.26790 0.99888
 H904 H 0.26912 0.22964 0.99992
 C905 C 0.24350 0.75567 0.51388
 C906 C 0.25525 0.74518 0.51387
 C907 C 0.26128 0.74047 0.50029
 C908 C 0.25539 0.74542 0.48669
 C909 C 0.24300 0.75519 0.48670
 C910 C 0.23731 0.76027 0.50031
 H911 H 0.22824 0.76826 0.50031
 H912 H 0.27035 0.73248 0.50028
 C913 C 0.25628 0.75414 -0.01294
 C914 C 0.24415 0.74413 -0.01323
 C915 C 0.23870 0.73838 0.00020
 C916 C 0.24491 0.74249 0.01389
 C917 C 0.25659 0.75301 0.01423
 C918 C 0.26218 0.75861 0.00079
 H919 H 0.27132 0.76648 0.00102
 H920 H 0.22958 0.73049 -0.00001
 C921 C 0.25863 0.25404 0.48656
 C922 C 0.24742 0.24305 0.48577
 C923 C 0.24135 0.23731 0.49894
 C924 C 0.24628 0.24216 0.51289
 C925 C 0.25739 0.25325 0.51368
 C926 C 0.26336 0.25909 0.50052
 H927 H 0.27193 0.26755 0.50114
 H928 H 0.23282 0.22881 0.49832
 C929 C 0.74308 0.75535 1.01304
 C930 C 0.75583 0.74607 1.01310
 C931 C 0.76205 0.74153 0.99954
 C932 C 0.75593 0.74611 0.98595
 C933 C 0.74331 0.75550 0.98589
 C934 C 0.73702 0.75998 0.99942
 H935 H 0.72731 0.76718 0.99935
 H936 H 0.77176 0.73433 0.99956
 C937 C 0.74675 0.25710 0.51296
 C938 C 0.75905 0.24721 0.51295
 C939 C 0.76486 0.24221 0.49939
 C940 C 0.75885 0.24690 0.48578
 C941 C 0.74655 0.25679 0.48574
 C942 C 0.74049 0.26153 0.49934
 H943 H 0.73130 0.26938 0.49930
 H944 H 0.77411 0.23443 0.49942
 C945 C 0.75821 0.25409 -0.01332
 C946 C 0.74725 0.24286 -0.01413
 C947 C 0.74152 0.23677 -0.00097
 C948 C 0.74655 0.24152 0.01298
 C949 C 0.75736 0.25291 0.01379
 C950 C 0.76300 0.25907 0.00063
 H951 H 0.77138 0.26772 0.00125
 H952 H 0.73318 0.22809 -0.00160
 C953 C 0.75276 0.75607 0.48713
 C954 C 0.74156 0.74503 0.48717
 C955 C 0.73731 0.73845 0.50065
 C956 C 0.74384 0.74271 0.51414
 C957 C 0.75489 0.75389 0.51415
 C958 C 0.75924 0.76037 0.50063
 H959 H 0.76776 0.76890 0.50064
 H960 H 0.72878 0.72993 0.50065
 C961 C 1.01416 0.24426 0.25448
 C962 C 1.01452 0.25739 0.24579
 C963 C 1.00105 0.26426 0.24176
 C964 C 0.98727 0.25853 0.24634
 C965 C 0.98692 0.24578 0.25554
 C966 C 1.00036 0.23863 0.25921
 H967 H 1.00013 0.22893 0.26637
 H968 H 1.00130 0.27402 0.23468
 C969 C 0.51317 0.24231 0.75385
 C970 C 0.51378 0.25464 0.74410
 C971 C 0.50052 0.26193 0.74009
 C972 C 0.48664 0.25709 0.74536
 C973 C 0.48604 0.24478 0.75514
 C974 C 0.49930 0.23751 0.75917
 H975 H 0.49886 0.22826 0.76690
 H976 H 0.50096 0.27117 0.73235
 C977 C -0.01319 0.25763 0.75408
 C978 C -0.01346 0.24590 0.74364
 C979 C 0.00005 0.23966 0.73881
 C980 C 0.01379 0.24498 0.74400
 C981 C 0.01402 0.25649 0.75468
 C982 C 0.00054 0.26272 0.75949
 H983 H 0.00071 0.27143 0.76781
 H984 H -0.00012 0.23100 0.73044
 C985 C 0.48649 0.25433 0.25605
 C986 C 0.48628 0.24289 0.24530
 C987 C 0.49977 0.23669 0.24048
 C988 C 0.51348 0.24180 0.24591
 C989 C 0.51373 0.25363 0.25624
 C990 C 0.50021 0.25978 0.26113
 H991 H 0.50036 0.26847 0.26947
 H992 H 0.49962 0.22796 0.23218
 C993 C 1.01261 0.74512 0.75698
 C994 C 1.01283 0.75633 0.74596
 C995 C 0.99936 0.76256 0.74106
 C996 C 0.98563 0.75766 0.74664
 C997 C 0.98536 0.74603 0.75724
 C998 C 0.99887 0.73987 0.76223
 H999 H 0.99870 0.73135 0.77076
 H1000 H 0.99954 0.77112 0.73256
 C1001 C 0.51400 0.74485 0.25753
 C1002 C 0.51402 0.75581 0.24625
 C1003 C 0.50043 0.76018 0.23982
 C1004 C 0.48686 0.75386 0.24433
 C1005 C 0.48689 0.74281 0.25551
 C1006 C 0.50045 0.73847 0.26197
 H1007 H 0.50046 0.73002 0.27057
 H1008 H 0.50041 0.76863 0.23121
 C1009 C -0.01465 0.75615 0.25501
 C1010 C -0.01460 0.74366 0.24547
 C1011 C -0.00093 0.73783 0.24063
 C1012 C 0.01264 0.74394 0.24532
 C1013 C 0.01259 0.75574 0.25567
 C1014 C -0.00105 0.76194 0.26008
 H1015 H -0.00112 0.77106 0.26794
 H1016 H -0.00087 0.72871 0.23276
 C1017 C 0.48594 0.75879 0.75517
 C1018 C 0.48569 0.74711 0.74468
 C1019 C 0.49917 0.74081 0.73987
 C1020 C 0.51290 0.74594 0.74522
 C1021 C 0.51312 0.75725 0.75610
 C1022 C 0.49965 0.76366 0.76079
 H1023 H 0.49982 0.77230 0.76918
 H1024 H 0.49900 0.73223 0.73142
 C1025 C 0.39864 0.31460 0.29490
 C1026 C 0.41161 0.30909 0.28835
 C1027 C 0.41598 0.29436 0.29069
 C1028 C 0.40732 0.28516 0.29990
 C1029 C 0.39437 0.29071 0.30658
 C1030 C 0.38983 0.30546 0.30405
 N1031 N 0.42921 0.28910 0.28353
 N1032 N 0.43323 0.27555 0.28398
 C1033 C 0.44655 0.27050 0.27680
 C1034 C 0.44984 0.25530 0.27682
 C1035 C 0.46277 0.25003 0.26998
 C1036 C 0.47262 0.25994 0.26299
 C1037 C 0.46940 0.27521 0.26305
 C1038 C 0.45641 0.28046 0.26984
 H1039 H 0.39561 0.32607 0.29286
 H1040 H 0.41823 0.31629 0.28133
 H1041 H 0.41053 0.27373 0.30190
 H1042 H 0.38780 0.28338 0.31350
 H1043 H 0.44237 0.24753 0.28219
 H1044 H 0.46520 0.23824 0.27025
 H1045 H 0.47690 0.28302 0.25778
 H1046 H 0.45413 0.29228 0.26971
 C1047 C 0.39085 0.78799 0.80980
 C1048 C 0.40338 0.78112 0.80365
 C1049 C 0.41145 0.78807 0.79236
 C1050 C 0.40672 0.80199 0.78707
 C1051 C 0.39405 0.80883 0.79306
 C1052 C 0.38592 0.80198 0.80462
 N1053 N 0.42438 0.78075 0.78652
 N1054 N 0.43340 0.78717 0.77771
 C1055 C 0.44630 0.77974 0.77192
 C1056 C 0.45707 0.78807 0.76439
 C1057 C 0.46997 0.78125 0.75896
 C1058 C 0.47214 0.76589 0.76076
 C1059 C 0.46127 0.75748 0.76818
 C1060 C 0.44845 0.76435 0.77377
 H1061 H 0.38505 0.78212 0.81852
 H1062 H 0.40690 0.77037 0.80780
 H1063 H 0.41277 0.80756 0.77828
 H1064 H 0.39085 0.81957 0.78869
 H1065 H 0.45554 0.79993 0.76289
 H1066 H 0.47824 0.78791 0.75327
 H1067 H 0.46281 0.74564 0.76977
 H1068 H 0.44026 0.75767 0.77952
 C1069 C -0.10915 0.28581 0.80819
 C1070 C -0.09690 0.27869 0.80173
 C1071 C -0.08742 0.28644 0.79214
 C1072 C -0.09039 0.30145 0.78895
 C1073 C -0.10268 0.30856 0.79532
 C1074 C -0.11219 0.30083 0.80503
 N1075 N -0.07482 0.27890 0.78590
 N1076 N -0.06522 0.28567 0.77800
 C1077 C -0.05253 0.27829 0.77177
 C1078 C -0.04173 0.28679 0.76448
 C1079 C -0.02900 0.28004 0.75863
 C1080 C -0.02698 0.26461 0.75986
 C1081 C -0.03788 0.25603 0.76702
 C1082 C -0.05058 0.26282 0.77297
 H1083 H -0.11629 0.27948 0.81552
 H1084 H -0.09473 0.26711 0.80426
 H1085 H -0.08322 0.30769 0.78157
 H1086 H -0.10459 0.32016 0.79276
 H1087 H -0.04312 0.29871 0.76348
 H1088 H -0.02070 0.28683 0.75314
 H1089 H -0.03645 0.24413 0.76819
 H1090 H -0.05879 0.25601 0.77855
 C1091 C -0.11076 0.78534 0.30770
 C1092 C -0.09840 0.77827 0.30145
 C1093 C -0.08920 0.78583 0.29147
 C1094 C -0.09256 0.80063 0.28768
 C1095 C -0.10498 0.80771 0.29386
 C1096 C -0.11419 0.80015 0.30399
 N1097 N -0.07649 0.77828 0.28551
 N1098 N -0.06719 0.78472 0.27702
 C1099 C -0.05440 0.77716 0.27121
 C1100 C -0.04394 0.78528 0.26306
 C1101 C -0.03107 0.77838 0.25768
 C1102 C -0.02859 0.76318 0.26026
 C1103 C -0.03915 0.75498 0.26831
 C1104 C -0.05199 0.76191 0.27376
 H1105 H -0.11766 0.77912 0.31534
 H1106 H -0.09592 0.76687 0.30445
 H1107 H -0.08557 0.80673 0.28001
 H1108 H -0.10722 0.81915 0.29087
 H1109 H -0.04567 0.79702 0.26104
 H1110 H -0.02302 0.78488 0.25153
 H1111 H -0.03734 0.74328 0.27056
 H1112 H -0.05993 0.75540 0.28005
 C1113 C 0.61004 0.69164 0.28685
 C1114 C 0.59778 0.69808 0.27973
 C1115 C 0.58835 0.70778 0.28740
 C1116 C 0.59136 0.71108 0.30237
 C1117 C 0.60370 0.70472 0.30948
 C1118 C 0.61315 0.69489 0.30181
 N1119 N 0.57578 0.71403 0.27978
 N1120 N 0.56611 0.72200 0.28638
 C1121 C 0.55348 0.72813 0.27879
 C1122 C 0.54233 0.73513 0.28712
 C1123 C 0.52955 0.74069 0.28016
 C1124 C 0.52787 0.73952 0.26470
 C1125 C 0.53915 0.73274 0.25629
 C1126 C 0.55187 0.72705 0.26327
 H1127 H 0.61717 0.68427 0.28054
 H1128 H 0.59559 0.69547 0.26819
 H1129 H 0.58422 0.71855 0.30855
 H1130 H 0.60572 0.70740 0.32103
 H1131 H 0.54344 0.73604 0.29906
 H1132 H 0.52095 0.74587 0.28682
 H1133 H 0.53797 0.73164 0.24436
 H1134 H 0.56037 0.72172 0.25659
 C1135 C 0.60956 0.21190 0.80526
 C1136 C 0.59725 0.21890 0.79884
 C1137 C 0.58758 0.21099 0.78963
 C1138 C 0.59048 0.19591 0.78670
 C1139 C 0.60291 0.18888 0.79304
 C1140 C 0.61252 0.19680 0.80249
 N1141 N 0.57488 0.21856 0.78361
 N1142 N 0.56491 0.21201 0.77601
 C1143 C 0.55224 0.21986 0.77025
 C1144 C 0.54099 0.21188 0.76304
 C1145 C 0.52831 0.21918 0.75764
 C1146 C 0.52679 0.23464 0.75925
 C1147 C 0.53810 0.24265 0.76644
 C1148 C 0.55073 0.23534 0.77190
 H1149 H 0.61681 0.21840 0.81231
 H1150 H 0.59516 0.23053 0.80115
 H1151 H 0.58313 0.18956 0.77959
 H1152 H 0.60484 0.17723 0.79075
 H1153 H 0.54199 0.19996 0.76174
 H1154 H 0.51969 0.21279 0.75218
 H1155 H 0.53705 0.25454 0.76799
 H1156 H 0.55924 0.24176 0.77747
 C1157 C 1.10062 0.68503 0.79638
 C1158 C 1.08768 0.69053 0.78976
 C1159 C 1.08346 0.70535 0.79173
 C1160 C 1.09232 0.71466 0.80062
 C1161 C 1.10527 0.70913 0.80738
 C1162 C 1.10962 0.69426 0.80523
 N1163 N 1.07016 0.71054 0.78460
 N1164 N 1.06615 0.72411 0.78481
 C1165 C 1.05275 0.72908 0.77767
 C1166 C 1.04950 0.74429 0.77744
 C1167 C 1.03650 0.74950 0.77063
 C1168 C 1.02651 0.73953 0.76395
 C1169 C 1.02969 0.72425 0.76428
 C1170 C 1.04276 0.71905 0.77101
 H1171 H 1.10349 0.67348 0.79463
 H1172 H 1.08092 0.68324 0.78298
 H1173 H 1.08925 0.72618 0.80234
 H1174 H 1.11198 0.71654 0.81405
 H1175 H 1.05707 0.75211 0.78257
 H1176 H 1.03415 0.76131 0.77069
 H1177 H 1.02210 0.71639 0.75923
 H1178 H 1.04500 0.70722 0.77107
 C1179 C 1.11054 0.21296 0.30521
 C1180 C 1.09821 0.22004 0.29892
 C1181 C 1.08865 0.21232 0.28944
 C1182 C 1.09167 0.19734 0.28612
 C1183 C 1.10410 0.19023 0.29237
 C1184 C 1.11360 0.19795 0.30210
 N1185 N 1.07593 0.21997 0.28359
 N1186 N 1.06621 0.21370 0.27546
 C1187 C 1.05349 0.22166 0.26996
 C1188 C 1.04268 0.21401 0.26179
 C1189 C 1.02995 0.22140 0.25665
 C1190 C 1.02792 0.23661 0.25951
 C1191 C 1.03877 0.24429 0.26768
 C1192 C 1.05148 0.23690 0.27284
 H1193 H 1.11768 0.21934 0.31247
 H1194 H 1.09601 0.23158 0.30153
 H1195 H 1.08441 0.19114 0.27881
 H1196 H 1.10610 0.17865 0.28980
 H1197 H 1.04407 0.20227 0.25954
 H1198 H 1.02166 0.21526 0.25044
 H1199 H 1.03730 0.25596 0.27024
 H1200 H 1.05963 0.24306 0.27919
 C1201 C 0.60230 0.31422 0.70628
 C1202 C 0.58954 0.30856 0.71309
 C1203 C 0.58520 0.29386 0.71069
 C1204 C 0.59373 0.28480 0.70123
 C1205 C 0.60649 0.29047 0.69432
 C1206 C 0.61095 0.30523 0.69683
 N1207 N 0.57203 0.28853 0.71789
 N1208 N 0.56767 0.27513 0.71687
 C1209 C 0.55434 0.27012 0.72404
 C1210 C 0.55028 0.25516 0.72288
 C1211 C 0.53716 0.25004 0.72951
 C1212 C 0.52795 0.25986 0.73746
 C1213 C 0.53205 0.27485 0.73864
 C1214 C 0.54516 0.27995 0.73203
 H1215 H 0.60526 0.32568 0.70832
 H1216 H 0.58300 0.31567 0.72029
 H1217 H 0.59056 0.27339 0.69918
 H1218 H 0.61293 0.28323 0.68718
 H1219 H 0.55724 0.24749 0.71672
 H1220 H 0.53410 0.23847 0.72829
 H1221 H 0.52508 0.28260 0.74470
 H1222 H 0.54803 0.29158 0.73308
 C1223 C 0.60220 0.79404 0.18625
 C1224 C 0.58933 0.78750 0.19200
 C1225 C 0.58508 0.79001 0.20672
 C1226 C 0.59384 0.79933 0.21569
 C1227 C 0.60670 0.80600 0.20991
 C1228 C 0.61107 0.80336 0.19512
 N1229 N 0.57183 0.78299 0.21214
 N1230 N 0.56758 0.78383 0.22561
 C1231 C 0.55419 0.77671 0.23062
 C1232 C 0.55050 0.77717 0.24573
 C1233 C 0.53748 0.77033 0.25090
 C1234 C 0.52796 0.76294 0.24097
 C1235 C 0.53162 0.76257 0.22581
 C1236 C 0.54465 0.76933 0.22067
 H1237 H 0.60508 0.79188 0.17478
 H1238 H 0.58265 0.78039 0.18496
 H1239 H 0.59075 0.80146 0.22712
 H1240 H 0.61332 0.81303 0.21707
 H1241 H 0.55772 0.78284 0.25351
 H1242 H 0.53478 0.77091 0.26261
 H1243 H 0.52443 0.75693 0.21798
 H1244 H 0.54721 0.76883 0.20893
 C1245 C 1.11107 0.28632 0.19308
 C1246 C 1.09880 0.27916 0.19941
 C1247 C 1.08952 0.28667 0.20937
 C1248 C 1.09276 0.30149 0.21310
 C1249 C 1.10509 0.30866 0.20682
 C1250 C 1.11435 0.30118 0.19666
 N1251 N 1.07682 0.27907 0.21532
 N1252 N 1.06752 0.28541 0.22391
 C1253 C 1.05467 0.27791 0.22967
 C1254 C 1.04447 0.28598 0.23822
 C1255 C 1.03154 0.27922 0.24357
 C1256 C 1.02864 0.26420 0.24055
 C1257 C 1.03896 0.25602 0.23211
 C1258 C 1.05189 0.26282 0.22670
 H1259 H 1.11801 0.28012 0.18545
 H1260 H 1.09645 0.26774 0.19646
 H1261 H 1.08574 0.30755 0.22077
 H1262 H 1.10721 0.32012 0.20976
 H1263 H 1.04647 0.29760 0.24058
 H1264 H 1.02373 0.28573 0.25006
 H1265 H 1.03687 0.24446 0.22952
 H1266 H 1.05962 0.25634 0.22011
 C1267 C 1.10145 0.81492 0.70717
 C1268 C 1.08855 0.80944 0.71384
 C1269 C 1.08413 0.79475 0.71153
 C1270 C 1.09271 0.78552 0.70228
 C1271 C 1.10560 0.79103 0.69548
 C1272 C 1.11014 0.80577 0.69792
 N1273 N 1.07086 0.78959 0.71866
 N1274 N 1.06667 0.77611 0.71817
 C1275 C 1.05325 0.77133 0.72532
 C1276 C 1.04970 0.75619 0.72545
 C1277 C 1.03662 0.75126 0.73228
 C1278 C 1.02689 0.76146 0.73904
 C1279 C 1.03041 0.77664 0.73886
 C1280 C 1.04352 0.78155 0.73212
 H1281 H 1.10449 0.82637 0.70915
 H1282 H 1.08197 0.81665 0.72090
 H1283 H 1.08947 0.77412 0.70029
 H1284 H 1.11207 0.78368 0.68849
 H1285 H 1.05707 0.74823 0.72022
 H1286 H 1.03400 0.73952 0.73215
 H1287 H 1.02304 0.78467 0.74400
 H1288 H 1.04600 0.79332 0.73214
 C1289 C 0.39846 0.68593 0.70666
 C1290 C 0.41116 0.69172 0.71348
 C1291 C 0.41519 0.70654 0.71124
 C1292 C 0.40643 0.71559 0.70195
 C1293 C 0.39376 0.70979 0.69503
 C1294 C 0.38960 0.69491 0.69737
 N1295 N 0.42828 0.71203 0.71844
 N1296 N 0.43223 0.72558 0.71764
 C1297 C 0.44547 0.73083 0.72477
 C1298 C 0.44897 0.74595 0.72395
 C1299 C 0.46198 0.75134 0.73055
 C1300 C 0.47164 0.74161 0.73810
 C1301 C 0.46813 0.72645 0.73891
 C1302 C 0.45511 0.72108 0.73236
 H1303 H 0.39572 0.67438 0.70857
 H1304 H 0.41788 0.68463 0.72056
 H1305 H 0.40936 0.72709 0.70003
 H1306 H 0.38714 0.71703 0.68803
 H1307 H 0.44166 0.75355 0.71810
 H1308 H 0.46462 0.76304 0.72961
 H1309 H 0.47548 0.71878 0.74465
 H1310 H 0.45267 0.70933 0.73312
 C1311 C 0.39750 0.18345 0.20740
 C1312 C 0.41038 0.18890 0.21418
 C1313 C 0.41489 0.20358 0.21183
 C1314 C 0.40638 0.21282 0.20249
 C1315 C 0.39355 0.20735 0.19559
 C1316 C 0.38894 0.19261 0.19801
 N1317 N 0.42818 0.20873 0.21894
 N1318 N 0.43236 0.22222 0.21827
 C1319 C 0.44579 0.22719 0.22527
 C1320 C 0.44919 0.24236 0.22512
 C1321 C 0.46229 0.24752 0.23174
 C1322 C 0.47220 0.23751 0.23858
 C1323 C 0.46882 0.22229 0.23867
 C1324 C 0.45569 0.21716 0.23213
 H1325 H 0.39438 0.17201 0.20938
 H1326 H 0.41688 0.18167 0.22131
 H1327 H 0.40966 0.22421 0.20047
 H1328 H 0.38717 0.21473 0.18852
 H1329 H 0.44169 0.25018 0.21983
 H1330 H 0.46478 0.25928 0.23139
 H1331 H 0.47633 0.21441 0.24388
 H1332 H 0.45333 0.20537 0.23235
 C1333 C -0.11070 0.71383 0.19276
 C1334 C -0.09842 0.72097 0.19906
 C1335 C -0.08908 0.71343 0.20897
 C1336 C -0.09226 0.69858 0.21267
 C1337 C -0.10462 0.69143 0.20644
 C1338 C -0.11393 0.69895 0.19634
 N1339 N -0.07642 0.72108 0.21493
 N1340 N -0.06692 0.71470 0.22330
 C1341 C -0.05419 0.72237 0.22910
 C1342 C -0.04358 0.71432 0.23719
 C1343 C -0.03079 0.72131 0.24260
 C1344 C -0.02850 0.73655 0.24012
 C1345 C -0.03921 0.74469 0.23212
 C1346 C -0.05198 0.73765 0.22664
 H1347 H -0.11770 0.72006 0.18518
 H1348 H -0.09612 0.73242 0.19614
 H1349 H -0.08519 0.69251 0.22033
 H1350 H -0.10672 0.67995 0.20937
 H1351 H -0.04514 0.70255 0.23915
 H1352 H -0.02265 0.71484 0.24872
 H1353 H -0.03757 0.75641 0.22994
 H1354 H -0.06002 0.74412 0.22040
 C1355 C -0.10188 0.18548 0.70636
 C1356 C -0.08906 0.19113 0.71309
 C1357 C -0.08473 0.20584 0.71064
 C1358 C -0.09336 0.21491 0.70122
 C1359 C -0.10615 0.20923 0.69439
 C1360 C -0.11059 0.19446 0.69692
 N1361 N -0.07149 0.21119 0.71773
 N1362 N -0.06731 0.22467 0.71684
 C1363 C -0.05393 0.22980 0.72385
 C1364 C -0.05034 0.24491 0.72309
 C1365 C -0.03724 0.25021 0.72961
 C1366 C -0.02754 0.24042 0.73703
 C1367 C -0.03112 0.22526 0.73778
 C1368 C -0.04425 0.21998 0.73130
 H1369 H -0.10484 0.17402 0.70846
 H1370 H -0.08248 0.18403 0.72028
 H1371 H -0.09021 0.22633 0.69913
 H1372 H -0.11264 0.21648 0.68728
 H1373 H -0.05767 0.25258 0.71735
 H1374 H -0.03459 0.26191 0.72874
 H1375 H -0.02377 0.21753 0.74343
 H1376 H -0.04675 0.20824 0.73204
 C1377 C 0.30723 0.39093 0.28599
 C1378 C 0.30101 0.40335 0.27901
 C1379 C 0.29151 0.41287 0.28683
 C1380 C 0.28818 0.40978 0.30177
 C1381 C 0.29431 0.39731 0.30875
 C1382 C 0.30394 0.38777 0.30094
 N1383 N 0.28545 0.42557 0.27938
 N1384 N 0.27759 0.43520 0.28615
 C1385 C 0.27152 0.44792 0.27875
 C1386 C 0.26426 0.45877 0.28720
 C1387 C 0.25850 0.47150 0.28038
 C1388 C 0.25979 0.47343 0.26496
 C1389 C 0.26697 0.46250 0.25645
 C1390 C 0.27282 0.44982 0.26329
 H1391 H 0.31447 0.38374 0.27961
 H1392 H 0.30363 0.40561 0.26748
 H1393 H 0.28085 0.41699 0.30805
 H1394 H 0.29164 0.39527 0.32029
 H1395 H 0.26321 0.45742 0.29911
 H1396 H 0.25301 0.47984 0.28711
 H1397 H 0.26820 0.46389 0.24456
 H1398 H 0.27840 0.44157 0.25653
 C1399 C 0.29249 -0.10337 0.81242
 C1400 C 0.28604 -0.09060 0.80641
 C1401 C 0.29048 -0.08529 0.79254
 C1402 C 0.30171 -0.09284 0.78470
 C1403 C 0.30839 -0.10558 0.79080
 C1404 C 0.30379 -0.11113 0.80475
 N1405 N 0.28346 -0.07214 0.78692
 N1406 N 0.28535 -0.06730 0.77376
 C1407 C 0.27812 -0.05394 0.76880
 C1408 C 0.27888 -0.04992 0.75378
 C1409 C 0.27188 -0.03695 0.74872
 C1410 C 0.26407 -0.02778 0.75867
 C1411 C 0.26341 -0.03175 0.77373
 C1412 C 0.27030 -0.04475 0.77876
 H1413 H 0.28862 -0.10689 0.82323
 H1414 H 0.27746 -0.08480 0.81259
 H1415 H 0.30537 -0.08887 0.77395
 H1416 H 0.31696 -0.11112 0.78442
 H1417 H 0.28488 -0.05688 0.74599
 H1418 H 0.27264 -0.03399 0.73707
 H1419 H 0.25746 -0.02482 0.78158
 H1420 H 0.26957 -0.04756 0.79044
 C1421 C 0.81565 0.39609 0.79150
 C1422 C 0.81011 0.40888 0.78463
 C1423 C 0.79590 0.41420 0.78805
 C1424 C 0.78724 0.40667 0.79862
 C1425 C 0.79280 0.39394 0.80565
 C1426 C 0.80710 0.38837 0.80215
 N1427 N 0.79065 0.42736 0.78077
 N1428 N 0.77728 0.43195 0.78196
 C1429 C 0.77232 0.44529 0.77479
 C1430 C 0.75713 0.44887 0.77501
 C1431 C 0.75200 0.46190 0.76823
 C1432 C 0.76205 0.47158 0.76121
 C1433 C 0.77729 0.46802 0.76106
 C1434 C 0.78239 0.45494 0.76772
 H1435 H 0.82671 0.39245 0.78843
 H1436 H 0.81690 0.41465 0.77652
 H1437 H 0.77621 0.41064 0.80150
 H1438 H 0.78573 0.38850 0.81370
 H1439 H 0.74928 0.44155 0.78046
 H1440 H 0.74022 0.46454 0.76860
 H1441 H 0.78521 0.47536 0.75572
 H1442 H 0.79419 0.45244 0.76745
 C1443 C 0.80871 -0.10882 0.28822
 C1444 C 0.80267 -0.09630 0.28123
 C1445 C 0.79144 -0.08802 0.28809
 C1446 C 0.78613 -0.09252 0.30206
 C1447 C 0.79199 -0.10517 0.30901
 C1448 C 0.80347 -0.11352 0.30225
 N1449 N 0.78565 -0.07514 0.28066
 N1450 N 0.77691 -0.06600 0.28705
 C1451 C 0.77107 -0.05316 0.27960
 C1452 C 0.76355 -0.04238 0.28794
 C1453 C 0.75794 -0.02958 0.28109
 C1454 C 0.75957 -0.02751 0.26572
 C1455 C 0.76700 -0.03836 0.25731
 C1456 C 0.77276 -0.05109 0.26419
 H1457 H 0.81738 -0.11481 0.28241
 H1458 H 0.80684 -0.09295 0.27044
 H1459 H 0.77741 -0.08630 0.30760
 H1460 H 0.78760 -0.10817 0.31978
 H1461 H 0.76218 -0.04384 0.29980
 H1462 H 0.75226 -0.02132 0.28776
 H1463 H 0.76847 -0.03689 0.24545
 H1464 H 0.77852 -0.05928 0.25750
 C1465 C 0.31521 0.60189 0.70465
 C1466 C 0.30979 0.58897 0.71129
 C1467 C 0.29495 0.58477 0.70935
 C1468 C 0.28551 0.59359 0.70049
 C1469 C 0.29096 0.60652 0.69373
 C1470 C 0.30586 0.61086 0.69584
 N1471 N 0.28987 0.57150 0.71651
 N1472 N 0.27633 0.56736 0.71621
 C1473 C 0.27157 0.55399 0.72343
 C1474 C 0.25640 0.55041 0.72345
 C1475 C 0.25143 0.53742 0.73035
 C1476 C 0.26160 0.52779 0.73736
 C1477 C 0.27682 0.53132 0.73727
 C1478 C 0.28178 0.54435 0.73041
 H1479 H 0.32679 0.60474 0.70637
 H1480 H 0.31718 0.58223 0.71804
 H1481 H 0.27398 0.59052 0.69881
 H1482 H 0.28346 0.61322 0.68708
 H1483 H 0.24843 0.55770 0.71807
 H1484 H 0.23966 0.53479 0.73011
 H1485 H 0.28484 0.52403 0.74258
 H1486 H 0.29358 0.54685 0.73052
 C1487 C 0.28556 1.10874 0.19071
 C1488 C 0.27841 1.09646 0.19697
 C1489 C 0.28579 1.08748 0.20733
 C1490 C 0.30048 1.09098 0.21146
 C1491 C 0.30763 1.10330 0.20526
 C1492 C 0.30026 1.11233 0.19478
 N1493 N 0.27819 1.07487 0.21337
 N1494 N 0.28457 1.06576 0.22215
 C1495 C 0.27704 1.05307 0.22812
 C1496 C 0.28521 1.04278 0.23649
 C1497 C 0.27836 1.03001 0.24205
 C1498 C 0.26316 1.02744 0.23945
 C1499 C 0.25489 1.03784 0.23122
 C1500 C 0.26178 1.05058 0.22556
 H1501 H 0.27948 1.11548 0.18279
 H1502 H 0.26709 1.09388 0.19371
 H1503 H 0.30643 1.08420 0.21945
 H1504 H 0.31897 1.10563 0.20858
 H1505 H 0.29696 1.04458 0.23854
 H1506 H 0.28492 1.02209 0.24838
 H1507 H 0.24318 1.03598 0.22899
 H1508 H 0.25523 1.05839 0.21913
 C1509 C 0.78670 0.60930 0.19390
 C1510 C 0.77977 0.59699 0.20029
 C1511 C 0.78733 0.58816 0.21061
 C1512 C 0.80199 0.59189 0.21466
 C1513 C 0.80896 0.60430 0.20831
 C1514 C 0.80141 0.61309 0.19776
 N1515 N 0.77989 0.57540 0.21656
 N1516 N 0.78622 0.56624 0.22531
 C1517 C 0.77860 0.55341 0.23091
 C1518 C 0.76345 0.55084 0.22780
 C1519 C 0.75649 0.53791 0.23290
 C1520 C 0.76456 0.52736 0.24115
 C1521 C 0.77964 0.53001 0.24435
 C1522 C 0.78657 0.54299 0.23933
 H1523 H 0.78042 0.61586 0.18599
 H1524 H 0.76847 0.59424 0.19710
 H1525 H 0.80807 0.58520 0.22264
 H1526 H 0.82030 0.60684 0.21150
 H1527 H 0.75704 0.55872 0.22131
 H1528 H 0.74489 0.53599 0.23017
 H1529 H 0.78605 0.52199 0.25068
 H1530 H 0.79823 0.54482 0.24179
 C1531 C 0.78659 1.10992 0.69284
 C1532 C 0.77944 1.09777 0.69931
 C1533 C 0.78690 1.08883 0.70960
 C1534 C 0.80168 1.09222 0.71350
 C1535 C 0.80885 1.10442 0.70707
 C1536 C 0.80141 1.11337 0.69661
 N1537 N 0.77932 1.07625 0.71570
 N1538 N 0.78567 1.06728 0.72463
 C1539 C 0.77819 1.05455 0.73052
 C1540 C 0.78626 1.04457 0.73933
 C1541 C 0.77953 1.03168 0.74471
 C1542 C 0.76454 1.02866 0.74144
 C1543 C 0.75634 1.03878 0.73279
 C1544 C 0.76311 1.05166 0.72735
 H1545 H 0.78042 1.11662 0.68496
 H1546 H 0.76805 1.09526 0.69622
 H1547 H 0.80770 1.08543 0.72144
 H1548 H 0.82028 1.10668 0.71017
 H1549 H 0.79787 1.04669 0.74182
 H1550 H 0.78602 1.02399 0.75137
 H1551 H 0.74480 1.03656 0.73003
 H1552 H 0.75664 1.05922 0.72055
 C1553 C 0.71511 0.60887 0.30693
 C1554 C 0.72216 0.59647 0.30079
 C1555 C 0.71448 0.58712 0.29108
 C1556 C 0.69960 0.59040 0.28738
 C1557 C 0.69254 0.60286 0.29345
 C1558 C 0.70020 0.61217 0.30338
 N1559 N 0.72200 0.57434 0.28530
 N1560 N 0.71553 0.56493 0.27699
 C1561 C 0.72313 0.55210 0.27139
 C1562 C 0.71512 0.54177 0.26299
 C1563 C 0.72213 0.52899 0.25759
 C1564 C 0.73731 0.52644 0.26042
 C1565 C 0.74535 0.53679 0.26886
 C1566 C 0.73833 0.54956 0.27429
 H1567 H 0.72142 0.61590 0.31436
 H1568 H 0.73364 0.59408 0.30368
 H1569 H 0.69343 0.58331 0.27988
 H1570 H 0.68103 0.60505 0.29056
 H1571 H 0.70341 0.54359 0.26071
 H1572 H 0.71572 0.52112 0.25113
 H1573 H 0.75702 0.53493 0.27135
 H1574 H 0.74475 0.55737 0.28079
 C1575 C 0.71313 1.10878 0.80865
 C1576 C 0.72012 1.09639 0.80243
 C1577 C 0.71306 1.08810 0.79140
 C1578 C 0.69887 1.09248 0.78642
 C1579 C 0.69189 1.10502 0.79250
 C1580 C 0.69887 1.11336 0.80380
 N1581 N 0.72058 1.07531 0.78557
 N1582 N 0.71448 1.06629 0.77656
 C1583 C 0.72231 1.05355 0.77099
 C1584 C 0.71456 1.04304 0.76254
 C1585 C 0.72182 1.03029 0.75732
 C1586 C 0.73701 1.02796 0.76035
 C1587 C 0.74480 1.03855 0.76874
 C1588 C 0.73752 1.05124 0.77402
 H1589 H 0.71914 1.11479 0.81713
 H1590 H 0.73109 1.09316 0.80631
 H1591 H 0.69320 1.08623 0.77786
 H1592 H 0.68093 1.10796 0.78841
 H1593 H 0.70284 1.04465 0.76014
 H1594 H 0.71560 1.02223 0.75090
 H1595 H 0.75646 1.03689 0.77137
 H1596 H 0.74377 1.05920 0.78052
 C1597 C 0.18446 0.60158 0.79429
 C1598 C 0.18992 0.58873 0.78750
 C1599 C 0.20478 0.58449 0.78937
 C1600 C 0.21421 0.59320 0.79828
 C1601 C 0.20874 0.60602 0.80518
 C1602 C 0.19381 0.61039 0.80319
 N1603 N 0.20994 0.57129 0.78215
 N1604 N 0.22354 0.56725 0.78246
 C1605 C 0.22852 0.55394 0.77529
 C1606 C 0.24374 0.55055 0.77535
 C1607 C 0.24895 0.53758 0.76860
 C1608 C 0.23896 0.52778 0.76167
 C1609 C 0.22368 0.53113 0.76166
 C1610 C 0.21848 0.54416 0.76836
 H1611 H 0.17287 0.60448 0.79264
 H1612 H 0.18254 0.58208 0.78071
 H1613 H 0.22576 0.59010 0.79992
 H1614 H 0.21626 0.61260 0.81188
 H1615 H 0.25157 0.55797 0.78069
 H1616 H 0.26076 0.53508 0.76892
 H1617 H 0.21580 0.52370 0.75641
 H1618 H 0.20665 0.54652 0.76820
 C1619 C 0.21483 1.11035 0.30615
 C1620 C 0.22189 1.09800 0.29989
 C1621 C 0.21412 1.08850 0.29039
 C1622 C 0.19912 1.09159 0.28705
 C1623 C 0.19203 1.10400 0.29324
 C1624 C 0.19979 1.11348 0.30294
 N1625 N 0.22167 1.07576 0.28450
 N1626 N 0.21511 1.06618 0.27644
 C1627 C 0.22267 1.05335 0.27072
 C1628 C 0.21446 1.04275 0.26287
 C1629 C 0.22136 1.02989 0.25753
 C1630 C 0.23666 1.02751 0.25984
 C1631 C 0.24495 1.03818 0.26763
 C1632 C 0.23801 1.05103 0.27303
 H1633 H 0.22123 1.11746 0.31342
 H1634 H 0.23346 1.09576 0.30254
 H1635 H 0.19285 1.08440 0.27972
 H1636 H 0.18043 1.10601 0.29061
 H1637 H 0.20264 1.04440 0.26103
 H1638 H 0.21477 1.02178 0.25157
 H1639 H 0.25672 1.03647 0.26969
 H1640 H 0.24461 1.05906 0.27909
 C1641 C 0.68540 0.39818 0.70417
 C1642 C 0.69083 0.41112 0.71077
 C1643 C 0.70564 0.41539 0.70873
 C1644 C 0.71503 0.40664 0.69977
 C1645 C 0.70957 0.39371 0.69304
 C1646 C 0.69472 0.38928 0.69528
 N1647 N 0.71079 0.42864 0.71588
 N1648 N 0.72438 0.43263 0.71564
 C1649 C 0.72936 0.44596 0.72278
 C1650 C 0.74460 0.44916 0.72295
 C1651 C 0.74982 0.46209 0.72976
 C1652 C 0.73983 0.47203 0.73652
 C1653 C 0.72452 0.46890 0.73625
 C1654 C 0.71930 0.45591 0.72951
 H1655 H 0.67385 0.39527 0.70597
 H1656 H 0.68347 0.41781 0.71758
 H1657 H 0.72653 0.40977 0.69799
 H1658 H 0.71704 0.38709 0.68631
 H1659 H 0.75245 0.44164 0.71775
 H1660 H 0.76166 0.46442 0.72963
 H1661 H 0.71663 0.47647 0.74135
 H1662 H 0.70745 0.45370 0.72949
 C1663 C 0.69322 -0.10675 0.21096
 C1664 C 0.69990 -0.09394 0.21675
 C1665 C 0.70975 -0.08554 0.20797
 C1666 C 0.71275 -0.09006 0.19344
 C1667 C 0.70620 -0.10286 0.18769
 C1668 C 0.69639 -0.11141 0.19638
 N1669 N 0.71682 -0.07236 0.21336
 N1670 N 0.71570 -0.06794 0.22674
 C1671 C 0.72289 -0.05460 0.23165
 C1672 C 0.72207 -0.05064 0.24666
 C1673 C 0.72882 -0.03759 0.25171
 C1674 C 0.73649 -0.02831 0.24176
 C1675 C 0.73731 -0.03227 0.22671
 C1676 C 0.73063 -0.04534 0.22169
 H1677 H 0.68577 -0.11311 0.21796
 H1678 H 0.69738 -0.09060 0.22803
 H1679 H 0.72027 -0.08364 0.18656
 H1680 H 0.70878 -0.10593 0.17637
 H1681 H 0.71612 -0.05765 0.25444
 H1682 H 0.72791 -0.03463 0.26333
 H1683 H 0.74317 -0.02526 0.21887
 H1684 H 0.73143 -0.04814 0.21003
 C1685 C 0.20678 0.39772 0.18707
 C1686 C 0.21326 0.41055 0.19284
 C1687 C 0.21017 0.41510 0.20734
 C1688 C 0.20030 0.40668 0.21608
 C1689 C 0.19368 0.39383 0.21026
 C1690 C 0.19693 0.38916 0.19570
 N1691 N 0.21717 0.42833 0.21273
 N1692 N 0.21601 0.43279 0.22609
 C1693 C 0.22312 0.44619 0.23099
 C1694 C 0.22233 0.45016 0.24600
 C1695 C 0.22905 0.46325 0.25103
 C1696 C 0.23665 0.47258 0.24106
 C1697 C 0.23741 0.46861 0.22601
 C1698 C 0.23077 0.45550 0.22101
 H1699 H 0.20942 0.39464 0.17576
 H1700 H 0.22080 0.41698 0.18598
 H1701 H 0.19770 0.41002 0.22733
 H1702 H 0.18621 0.38747 0.21723
 H1703 H 0.21647 0.44312 0.25381
 H1704 H 0.22818 0.46619 0.26266
 H1705 H 0.24321 0.47565 0.21814
 H1706 H 0.23155 0.45271 0.20934
 C1707 C 0.19406 -0.11011 0.71331
 C1708 C 0.20035 -0.09777 0.72027
 C1709 C 0.21004 -0.08843 0.71252
 C1710 C 0.21354 -0.09165 0.69765
 C1711 C 0.20731 -0.10407 0.69066
 C1712 C 0.19741 -0.11339 0.69839
 N1713 N 0.21602 -0.07573 0.72000
 N1714 N 0.22385 -0.06600 0.71337
 C1715 C 0.22968 -0.05328 0.72095
 C1716 C 0.23665 -0.04212 0.71266
 C1717 C 0.24198 -0.02933 0.71964
 C1718 C 0.24059 -0.02763 0.73507
 C1719 C 0.23377 -0.03890 0.74344
 C1720 C 0.22831 -0.05163 0.73644
 H1721 H 0.18662 -0.11708 0.71970
 H1722 H 0.19757 -0.09540 0.73174
 H1723 H 0.22104 -0.08458 0.69143
 H1724 H 0.21009 -0.10620 0.67916
 H1725 H 0.23777 -0.04326 0.70074
 H1726 H 0.24720 -0.02073 0.71301
 H1727 H 0.23248 -0.03770 0.75535
 H1728 H 0.22296 -0.06011 0.74309
 C1729 C 0.28674 0.30743 0.39037
 C1730 C 0.27975 0.30126 0.40279
 C1731 C 0.28763 0.29191 0.41242
 C1732 C 0.30266 0.28863 0.40940
 C1733 C 0.30965 0.29470 0.39690
 C1734 C 0.30179 0.30424 0.38729
 N1735 N 0.28015 0.28595 0.42515
 N1736 N 0.28697 0.27837 0.43498
 C1737 C 0.27954 0.27236 0.44772
 C1738 C 0.28806 0.26529 0.45868
 C1739 C 0.28123 0.25941 0.47132
 C1740 C 0.26572 0.26036 0.47311
 C1741 C 0.25714 0.26746 0.46212
 C1742 C 0.26400 0.27345 0.44951
 H1743 H 0.28029 0.31458 0.38313
 H1744 H 0.26816 0.30384 0.40497
 H1745 H 0.30899 0.28140 0.41667
 H1746 H 0.32126 0.29209 0.39491
 H1747 H 0.30003 0.26442 0.45744
 H1748 H 0.28803 0.25398 0.47968
 H1749 H 0.24517 0.26844 0.46338
 H1750 H 0.25718 0.27889 0.44119
 C1751 C 0.28507 0.80765 -0.10881
 C1752 C 0.27792 0.80142 -0.09651
 C1753 C 0.28552 0.79157 -0.08716
 C1754 C 0.30041 0.78786 -0.09033
 C1755 C 0.30755 0.79400 -0.10271
 C1756 C 0.29998 0.80402 -0.11204
 N1757 N 0.27793 0.78563 -0.07449
 N1758 N 0.28449 0.77734 -0.06506
 C1759 C 0.27702 0.77145 -0.05230
 C1760 C 0.28532 0.76338 -0.04189
 C1761 C 0.27851 0.75774 -0.02914
 C1762 C 0.26322 0.75998 -0.02667
 C1763 C 0.25484 0.76802 -0.03714
 C1764 C 0.26168 0.77373 -0.04989
 H1765 H 0.27883 0.81519 -0.11584
 H1766 H 0.26644 0.80434 -0.09420
 H1767 H 0.30655 0.78028 -0.08324
 H1768 H 0.31907 0.79107 -0.10480
 H1769 H 0.29713 0.76158 -0.04361
 H1770 H 0.28516 0.75157 -0.02118
 H1771 H 0.24306 0.77000 -0.03536
 H1772 H 0.25504 0.77995 -0.05779
 C1773 C 0.78510 0.30829 -0.10958
 C1774 C 0.77813 0.30224 -0.09708
 C1775 C 0.78613 0.29325 -0.08719
 C1776 C 0.80128 0.29036 -0.08994
 C1777 C 0.80825 0.29634 -0.10246
 C1778 C 0.80024 0.30535 -0.11246
 N1779 N 0.77866 0.28715 -0.07452
 N1780 N 0.78561 0.27961 -0.06475
 C1781 C 0.77838 0.27333 -0.05204
 C1782 C 0.78712 0.26622 -0.04129
 C1783 C 0.78052 0.26002 -0.02870
 C1784 C 0.76502 0.26070 -0.02676
 C1785 C 0.75621 0.26783 -0.03753
 C1786 C 0.76284 0.27413 -0.05011
 H1787 H 0.77856 0.31510 -0.11707
 H1788 H 0.76645 0.30455 -0.09508
 H1789 H 0.80773 0.28346 -0.08244
 H1790 H 0.81994 0.29395 -0.10421
 H1791 H 0.79909 0.26556 -0.04267
 H1792 H 0.78750 0.25456 -0.02050
 H1793 H 0.74424 0.26859 -0.03614
 H1794 H 0.75586 0.27958 -0.05829
 C1795 C 0.81242 0.79519 0.39949
 C1796 C 0.80666 0.78865 0.41232
 C1797 C 0.79187 0.79115 0.41649
 C1798 C 0.78284 0.80048 0.40773
 C1799 C 0.78865 0.80715 0.39490
 C1800 C 0.80348 0.80449 0.39059
 N1801 N 0.78646 0.78403 0.42966
 N1802 N 0.77294 0.78475 0.43387
 C1803 C 0.76803 0.77746 0.44718
 C1804 C 0.75290 0.77789 0.45098
 C1805 C 0.74784 0.77089 0.46392
 C1806 C 0.75790 0.76335 0.47325
 C1807 C 0.77307 0.76299 0.46947
 C1808 C 0.77810 0.76992 0.45653
 H1809 H 0.82393 0.79300 0.39665
 H1810 H 0.81373 0.78153 0.41901
 H1811 H 0.77136 0.80258 0.41078
 H1812 H 0.78145 0.81417 0.38823
 H1813 H 0.74503 0.78367 0.44390
 H1814 H 0.73612 0.77145 0.46673
 H1815 H 0.78100 0.75724 0.47652
 H1816 H 0.78986 0.76942 0.45387
 C1817 C 0.68580 0.29340 0.60174
 C1818 C 0.69138 0.28691 0.58879
 C1819 C 0.70604 0.28954 0.58427
 C1820 C 0.71512 0.29892 0.59286
 C1821 C 0.70952 0.30552 0.60580
 C1822 C 0.69481 0.30278 0.61043
 N1823 N 0.71134 0.28262 0.57093
 N1824 N 0.72478 0.28377 0.56656
 C1825 C 0.72999 0.27690 0.55316
 C1826 C 0.74509 0.27805 0.54946
 C1827 C 0.75055 0.27158 0.53644
 C1828 C 0.74096 0.26380 0.52689
 C1829 C 0.72577 0.26274 0.53051
 C1830 C 0.72032 0.26918 0.54359
 H1831 H 0.67437 0.29116 0.60482
 H1832 H 0.68425 0.27976 0.58224
 H1833 H 0.72651 0.30115 0.58959
 H1834 H 0.71679 0.31260 0.61226
 H1835 H 0.75264 0.28400 0.55670
 H1836 H 0.76225 0.27275 0.53374
 H1837 H 0.71818 0.25685 0.52327
 H1838 H 0.70858 0.26818 0.54617
 C1839 C 0.71380 0.80714 1.10939
 C1840 C 0.72087 0.80098 1.09702
 C1841 C 0.71318 0.79137 1.08758
 C1842 C 0.69824 0.78784 1.09071
 C1843 C 0.69116 0.79394 1.10314
 C1844 C 0.69885 0.80372 1.11259
 N1845 N 0.72075 0.78550 1.07487
 N1846 N 0.71427 0.77723 1.06541
 C1847 C 0.72187 0.77152 1.05264
 C1848 C 0.71378 0.76338 1.04217
 C1849 C 0.72073 0.75802 1.02936
 C1850 C 0.73595 0.76064 1.02690
 C1851 C 0.74412 0.76873 1.03745
 C1852 C 0.73714 0.77412 1.05025
 H1853 H 0.72014 0.81448 1.11648
 H1854 H 0.73239 0.80376 1.09474
 H1855 H 0.69205 0.78044 1.08354
 H1856 H 0.67962 0.79116 1.10520
 H1857 H 0.70201 0.76132 1.04388
 H1858 H 0.71424 0.75182 1.02134
 H1859 H 0.75583 0.77102 1.03567
 H1860 H 0.74364 0.78040 1.05818
 C1861 C 0.21477 0.30716 1.10887
 C1862 C 0.22177 0.30087 1.09651
 C1863 C 0.21395 0.29131 1.08710
 C1864 C 0.19898 0.28798 1.09026
 C1865 C 0.19198 0.29418 1.10268
 C1866 C 0.19979 0.30390 1.11210
 N1867 N 0.22142 0.28524 1.07442
 N1868 N 0.21464 0.27742 1.06480
 C1869 C 0.22205 0.27138 1.05207
 C1870 C 0.21354 0.26421 1.04121
 C1871 C 0.22032 0.25849 1.02848
 C1872 C 0.23579 0.25970 1.02651
 C1873 C 0.24437 0.26680 1.03744
 C1874 C 0.23756 0.27262 1.05014
 H1875 H 0.22117 0.31446 1.11595
 H1876 H 0.23331 0.30351 1.09421
 H1877 H 0.19268 0.28062 1.08313
 H1878 H 0.18042 0.29151 1.10477
 H1879 H 0.20159 0.26321 1.04257
 H1880 H 0.21352 0.25306 1.02016
 H1881 H 0.25630 0.26797 1.03604
 H1882 H 0.24437 0.27811 1.05839
 C1883 C 0.18439 0.79363 0.60276
 C1884 C 0.18983 0.78707 0.58981
 C1885 C 0.20443 0.78971 0.58512
 C1886 C 0.21358 0.79921 0.59350
 C1887 C 0.20809 0.80593 0.60643
 C1888 C 0.19345 0.80313 0.61124
 N1889 N 0.20957 0.78264 0.57183
 N1890 N 0.22304 0.78337 0.56747
 C1891 C 0.22791 0.77628 0.55407
 C1892 C 0.24308 0.77642 0.55049
 C1893 C 0.24816 0.76964 0.53748
 C1894 C 0.23809 0.76262 0.52781
 C1895 C 0.22286 0.76259 0.53133
 C1896 C 0.21779 0.76930 0.54439
 H1897 H 0.17300 0.79138 0.60601
 H1898 H 0.18266 0.77983 0.58341
 H1899 H 0.22492 0.80145 0.59006
 H1900 H 0.21537 0.81312 0.61275
 H1901 H 0.25098 0.78180 0.55781
 H1902 H 0.25994 0.76998 0.53487
 H1903 H 0.21491 0.75728 0.52400
 H1904 H 0.20599 0.76908 0.54688
 C1905 C 0.31495 0.70691 0.60252
 C1906 C 0.30953 0.71344 0.58951
 C1907 C 0.29479 0.71114 0.58505
 C1908 C 0.28549 0.70204 0.59371
 C1909 C 0.29095 0.69538 0.60670
 C1910 C 0.30573 0.69781 0.61129
 N1911 N 0.28965 0.71818 0.57171
 N1912 N 0.27612 0.71763 0.56750
 C1913 C 0.27117 0.72468 0.55408
 C1914 C 0.25597 0.72460 0.55064
 C1915 C 0.25078 0.73135 0.53763
 C1916 C 0.26078 0.73829 0.52782
 C1917 C 0.27605 0.73828 0.53120
 C1918 C 0.28122 0.73159 0.54427
 H1919 H 0.32644 0.70888 0.60557
 H1920 H 0.31682 0.72038 0.58289
 H1921 H 0.27405 0.70007 0.59046
 H1922 H 0.28354 0.68850 0.61324
 H1923 H 0.24812 0.71928 0.55807
 H1924 H 0.23898 0.73104 0.53513
 H1925 H 0.28394 0.74353 0.52377
 H1926 H 0.29305 0.73177 0.54666
 C1927 C 0.31504 0.20766 1.10219
 C1928 C 0.30943 0.21424 1.08927
 C1929 C 0.29472 0.21171 1.08485
 C1930 C 0.28559 0.20246 1.09352
 C1931 C 0.29121 0.19579 1.10640
 C1932 C 0.30600 0.19832 1.11089
 N1933 N 0.28941 0.21855 1.07148
 N1934 N 0.27593 0.21742 1.06722
 C1935 C 0.27076 0.22412 1.05373
 C1936 C 0.25561 0.22317 1.05012
 C1937 C 0.25024 0.22944 1.03694
 C1938 C 0.26000 0.23677 1.02719
 C1939 C 0.27520 0.23765 1.03076
 C1940 C 0.28055 0.23143 1.04396
 H1941 H 0.32652 0.20975 1.10522
 H1942 H 0.31658 0.22132 1.08265
 H1943 H 0.27416 0.20033 1.09032
 H1944 H 0.28390 0.18877 1.11288
 H1945 H 0.24798 0.21753 1.05753
 H1946 H 0.23851 0.22848 1.03428
 H1947 H 0.28288 0.24323 1.02335
 H1948 H 0.29231 0.23227 1.04648
 C1949 C 0.78463 0.69378 1.10955
 C1950 C 0.77752 0.70007 1.09724
 C1951 C 0.78521 0.70973 1.08781
 C1952 C 0.80016 0.71320 1.09092
 C1953 C 0.80727 0.70699 1.10329
 C1954 C 0.79961 0.69713 1.11270
 N1955 N 0.77765 0.71568 1.07511
 N1956 N 0.78418 0.72398 1.06570
 C1957 C 0.77668 0.72976 1.05289
 C1958 C 0.78487 0.73792 1.04249
 C1959 C 0.77804 0.74332 1.02962
 C1960 C 0.76283 0.74072 1.02703
 C1961 C 0.75456 0.73263 1.03751
 C1962 C 0.76142 0.72720 1.05037
 H1963 H 0.77831 0.68639 1.11664
 H1964 H 0.76599 0.69734 1.09497
 H1965 H 0.80635 0.72065 1.08377
 H1966 H 0.81883 0.70973 1.10533
 H1967 H 0.79663 0.73995 1.04429
 H1968 H 0.78460 0.74953 1.02165
 H1969 H 0.74286 0.73036 1.03562
 H1970 H 0.75486 0.72091 1.05826
 C1971 C 0.78696 0.19583 0.61012
 C1972 C 0.77997 0.20216 0.59778
 C1973 C 0.78789 0.21146 0.58819
 C1974 C 0.80294 0.21457 0.59120
 C1975 C 0.80994 0.20832 0.60363
 C1976 C 0.80205 0.19877 0.61315
 N1977 N 0.78044 0.21738 0.57541
 N1978 N 0.78721 0.22505 0.56565
 C1979 C 0.77979 0.23080 0.55278
 C1980 C 0.78822 0.23813 0.54196
 C1981 C 0.78144 0.24352 0.52906
 C1982 C 0.76605 0.24178 0.52686
 C1983 C 0.75754 0.23450 0.53775
 C1984 C 0.76436 0.22903 0.55063
 H1985 H 0.78047 0.18868 0.61729
 H1986 H 0.76836 0.19971 0.59559
 H1987 H 0.80931 0.22174 0.58392
 H1988 H 0.82159 0.21072 0.60559
 H1989 H 0.80010 0.23952 0.54348
 H1990 H 0.78819 0.24910 0.52079
 H1991 H 0.74568 0.23289 0.53618
 H1992 H 0.75760 0.22336 0.55883
 C1993 C 0.71318 0.69382 0.39066
 C1994 C 0.72009 0.70027 0.40294
 C1995 C 0.71210 0.70970 0.41235
 C1996 C 0.69706 0.71283 0.40922
 C1997 C 0.69015 0.70649 0.39682
 C1998 C 0.69812 0.69681 0.38748
 N1999 N 0.71951 0.71574 0.42506
 N2000 N 0.71269 0.72331 0.43487
 C2001 C 0.72024 0.72912 0.44762
 C2002 C 0.71184 0.73580 0.45888
 C2003 C 0.71881 0.74105 0.47172
 C2004 C 0.73432 0.73986 0.47336
 C2005 C 0.74279 0.73334 0.46199
 C2006 C 0.73580 0.72798 0.44920
 H2007 H 0.71972 0.68660 0.38359
 H2008 H 0.73169 0.69781 0.40522
 H2009 H 0.69067 0.72012 0.41636
 H2010 H 0.67853 0.70896 0.39470
 H2011 H 0.69986 0.73673 0.45779
 H2012 H 0.71211 0.74605 0.48040
 H2013 H 0.75476 0.73222 0.46313
 H2014 H 0.74254 0.72287 0.44063
 C2015 C 0.68668 0.20682 -0.10258
 C2016 C 0.69240 0.21342 -0.08977
 C2017 C 0.70728 0.21124 -0.08573
 C2018 C 0.71646 0.20223 -0.09463
 C2019 C 0.71071 0.19552 -0.10742
 C2020 C 0.69576 0.19779 -0.11156
 N2021 N 0.71267 0.21816 -0.07248
 N2022 N 0.72629 0.21756 -0.06855
 C2023 C 0.73140 0.22437 -0.05511
 C2024 C 0.74661 0.22391 -0.05167
 C2025 C 0.75186 0.23011 -0.03844
 C2026 C 0.74190 0.23686 -0.02847
 C2027 C 0.72667 0.23738 -0.03194
 C2028 C 0.72144 0.23125 -0.04518
 H2029 H 0.67508 0.20868 -0.10531
 H2030 H 0.68521 0.22028 -0.08296
 H2031 H 0.72801 0.20036 -0.09170
 H2032 H 0.71804 0.18871 -0.11413
 H2033 H 0.75438 0.21863 -0.05921
 H2034 H 0.76363 0.22946 -0.03586
 H2035 H 0.71884 0.24255 -0.02436
 H2036 H 0.70962 0.23175 -0.04758
 C2037 C 0.21445 0.69319 -0.11000
 C2038 C 0.22163 0.69938 -0.09771
 C2039 C 0.21402 0.70905 -0.08822
 C2040 C 0.19906 0.71262 -0.09126
 C2041 C 0.19187 0.70650 -0.10363
 C2042 C 0.19947 0.69664 -0.11311
 N2043 N 0.22169 0.71489 -0.07553
 N2044 N 0.21525 0.72304 -0.06592
 C2045 C 0.22291 0.72869 -0.05315
 C2046 C 0.21477 0.73643 -0.04238
 C2047 C 0.22174 0.74158 -0.02950
 C2048 C 0.23705 0.73920 -0.02726
 C2049 C 0.24530 0.73162 -0.03814
 C2050 C 0.23828 0.72638 -0.05100
 H2051 H 0.22073 0.68579 -0.11711
 H2052 H 0.23317 0.69655 -0.09550
 H2053 H 0.19292 0.72008 -0.08407
 H2054 H 0.18031 0.70933 -0.10561
 H2055 H 0.20293 0.73827 -0.04389
 H2056 H 0.21519 0.74740 -0.02123
 H2057 H 0.25709 0.72955 -0.03655
 H2058 H 0.24483 0.72044 -0.05916
 C2059 C 0.18687 0.20660 0.39760
 C2060 C 0.19264 0.21326 0.41035
 C2061 C 0.20750 0.21099 0.41441
 C2062 C 0.21661 0.20184 0.40560
 C2063 C 0.21082 0.19506 0.39287
 C2064 C 0.19589 0.19743 0.38870
 N2065 N 0.21294 0.21801 0.42758
 N2066 N 0.22654 0.21734 0.43154
 C2067 C 0.23165 0.22426 0.44491
 C2068 C 0.24683 0.22367 0.44845
 C2069 C 0.25206 0.22996 0.46165
 C2070 C 0.24212 0.23696 0.47146
 C2071 C 0.22692 0.23761 0.46788
 C2072 C 0.22171 0.23137 0.45468
 H2073 H 0.17529 0.20854 0.39484
 H2074 H 0.18550 0.22024 0.41710
 H2075 H 0.22815 0.19990 0.40856
 H2076 H 0.21810 0.18815 0.38621
 H2077 H 0.25459 0.21820 0.44103
 H2078 H 0.26381 0.22919 0.46432
 H2079 H 0.21909 0.24295 0.47534
 H2080 H 0.20991 0.23197 0.45221
 C2081 C 0.28665 0.39009 0.69426
 C2082 C 0.27955 0.40235 0.70059
 C2083 C 0.28733 0.41186 0.71006
 C2084 C 0.30236 0.40885 0.71334
 C2085 C 0.30949 0.39650 0.70706
 C2086 C 0.30173 0.38705 0.69735
 N2087 N 0.27973 0.42457 0.71593
 N2088 N 0.28623 0.43425 0.72390
 C2089 C 0.27852 0.44703 0.72948
 C2090 C 0.28657 0.45778 0.73729
 C2091 C 0.27950 0.47062 0.74245
 C2092 C 0.26420 0.47282 0.73999
 C2093 C 0.25608 0.46201 0.73224
 C2094 C 0.26317 0.44918 0.72702
 H2095 H 0.28024 0.38298 0.68699
 H2096 H 0.26796 0.40454 0.69800
 H2097 H 0.30861 0.41607 0.72065
 H2098 H 0.32112 0.39454 0.70960
 H2099 H 0.29839 0.45627 0.73922
 H2100 H 0.28597 0.47887 0.74837
 H2101 H 0.24430 0.46359 0.73006
 H2102 H 0.25670 0.44104 0.72098
 C2103 C 0.31600 0.89828 0.20565
 C2104 C 0.31055 0.91117 0.21236
 C2105 C 0.29575 0.91555 0.21028
 C2106 C 0.28639 0.90693 0.20121
 C2107 C 0.29187 0.89406 0.19437
 C2108 C 0.30673 0.88955 0.19659
 N2109 N 0.29058 0.92879 0.21746
 N2110 N 0.27702 0.93293 0.21701
 C2111 C 0.27202 0.94626 0.22414
 C2112 C 0.25681 0.94973 0.22395
 C2113 C 0.25159 0.96271 0.23068
 C2114 C 0.26154 0.97245 0.23775
 C2115 C 0.27682 0.96903 0.23787
 C2116 C 0.28203 0.95600 0.23118
 H2117 H 0.32754 0.89527 0.20747
 H2118 H 0.31788 0.91776 0.21927
 H2119 H 0.27489 0.91012 0.19939
 H2120 H 0.28440 0.88756 0.18754
 H2121 H 0.24900 0.94236 0.21851
 H2122 H 0.23979 0.96525 0.23025
 H2123 H 0.28468 0.97642 0.24321
 H2124 H 0.29385 0.95359 0.23145
 C2125 C 0.78785 0.38540 0.20219
 C2126 C 0.78090 0.39712 0.20965
 C2127 C 0.78910 0.40963 0.21384
 C2128 C 0.80448 0.41011 0.21100
 C2129 C 0.81156 0.39815 0.20403
 C2130 C 0.80324 0.38581 0.19938
 N2131 N 0.78163 0.42185 0.22071
 N2132 N 0.78488 0.43515 0.21725
 C2133 C 0.77778 0.44755 0.22419
 C2134 C 0.77493 0.46029 0.21576
 C2135 C 0.76792 0.47255 0.22221
 C2136 C 0.76412 0.47248 0.23738
 C2137 C 0.76741 0.45978 0.24592
 C2138 C 0.77392 0.44728 0.23930
 H2139 H 0.78125 0.37596 0.19872
 H2140 H 0.76903 0.39666 0.21178
 H2141 H 0.81098 0.41969 0.21428
 H2142 H 0.82343 0.39868 0.20191
 H2143 H 0.77790 0.46061 0.20410
 H2144 H 0.76551 0.48214 0.21532
 H2145 H 0.76516 0.45955 0.25772
 H2146 H 0.77634 0.43758 0.24602
 C2147 C 0.78733 0.89148 0.69395
 C2148 C 0.78052 0.90385 0.70040
 C2149 C 0.78852 0.91310 0.70996
 C2150 C 0.80349 0.90974 0.71317
 C2151 C 0.81031 0.89726 0.70680
 C2152 C 0.80232 0.88805 0.69703
 N2153 N 0.78116 0.92584 0.71608
 N2154 N 0.78786 0.93535 0.72410
 C2155 C 0.78030 0.94809 0.73001
 C2156 C 0.78854 0.95880 0.73770
 C2157 C 0.78156 0.97155 0.74325
 C2158 C 0.76617 0.97370 0.74131
 C2159 C 0.75789 0.96290 0.73367
 C2160 C 0.76488 0.95020 0.72806
 H2161 H 0.78076 0.88455 0.68665
 H2162 H 0.76897 0.90630 0.69786
 H2163 H 0.80991 0.91675 0.72053
 H2164 H 0.82189 0.89499 0.70933
 H2165 H 0.80042 0.95733 0.73926
 H2166 H 0.78816 0.97975 0.74909
 H2167 H 0.74604 0.96442 0.73187
 H2168 H 0.75826 0.94209 0.72214
 C2169 C 0.68550 0.60110 0.70566
 C2170 C 0.69131 0.58830 0.71227
 C2171 C 0.70615 0.58421 0.70995
 C2172 C 0.71520 0.59305 0.70076
 C2173 C 0.70936 0.60586 0.69404
 C2174 C 0.69445 0.61006 0.69649
 N2175 N 0.71162 0.57099 0.71699
 N2176 N 0.72518 0.56690 0.71625
 C2177 C 0.73030 0.55352 0.72328
 C2178 C 0.74546 0.54987 0.72262
 C2179 C 0.75072 0.53676 0.72916
 C2180 C 0.74086 0.52713 0.73649
 C2181 C 0.72566 0.53076 0.73713
 C2182 C 0.72041 0.54389 0.73064
 H2183 H 0.67393 0.60386 0.70767
 H2184 H 0.68422 0.58154 0.71928
 H2185 H 0.72672 0.59008 0.69878
 H2186 H 0.71658 0.61255 0.68711
 H2187 H 0.75318 0.55717 0.71696
 H2188 H 0.76246 0.53406 0.72837
 H2189 H 0.71787 0.52345 0.74271
 H2190 H 0.70863 0.54644 0.73130
 C2191 C 0.68496 0.10117 0.20541
 C2192 C 0.69050 0.08826 0.21206
 C2193 C 0.70527 0.08385 0.20979
 C2194 C 0.71451 0.09249 0.20061
 C2195 C 0.70895 0.10539 0.19383
 C2196 C 0.69411 0.10990 0.19621
 N2197 N 0.71045 0.07052 0.21686
 N2198 N 0.72399 0.06628 0.21639
 C2199 C 0.72881 0.05283 0.22351
 C2200 C 0.74405 0.04944 0.22395
 C2201 C 0.74907 0.03646 0.23095
 C2202 C 0.73887 0.02665 0.23757
 C2203 C 0.72359 0.02994 0.23696
 C2204 C 0.71858 0.04296 0.23006
 H2205 H 0.67345 0.10418 0.20737
 H2206 H 0.68326 0.08167 0.21907
 H2207 H 0.72598 0.08928 0.19867
 H2208 H 0.71632 0.11190 0.18690
 H2209 H 0.75204 0.05690 0.21892
 H2210 H 0.76090 0.03404 0.23118
 H2211 H 0.71555 0.02251 0.24199
 H2212 H 0.70674 0.04528 0.22983
 C2213 C 0.18511 0.60108 0.20417
 C2214 C 0.19075 0.58818 0.21069
 C2215 C 0.20561 0.58408 0.20855
 C2216 C 0.21485 0.59297 0.19961
 C2217 C 0.20917 0.60588 0.19296
 C2218 C 0.19426 0.61012 0.19528
 N2219 N 0.21093 0.57086 0.21562
 N2220 N 0.22453 0.56685 0.21532
 C2221 C 0.22937 0.55348 0.22252
 C2222 C 0.24461 0.55011 0.22300
 C2223 C 0.24960 0.53719 0.23009
 C2224 C 0.23937 0.52746 0.23677
 C2225 C 0.22410 0.53075 0.23615
 C2226 C 0.21913 0.54369 0.22915
 H2227 H 0.17352 0.60387 0.20603
 H2228 H 0.18354 0.58137 0.21752
 H2229 H 0.22639 0.58997 0.19778
 H2230 H 0.21651 0.61263 0.18622
 H2231 H 0.25260 0.55753 0.21791
 H2232 H 0.26142 0.53474 0.23034
 H2233 H 0.21605 0.52338 0.24125
 H2234 H 0.20729 0.54601 0.22891
 C2235 C 0.21459 0.10930 0.69163
 C2236 C 0.22174 0.09707 0.69809
 C2237 C 0.21397 0.08757 0.70764
 C2238 C 0.19891 0.09049 0.71076
 C2239 C 0.19177 0.10277 0.70439
 C2240 C 0.19952 0.11231 0.69472
 N2241 N 0.22157 0.07500 0.71387
 N2242 N 0.21483 0.06531 0.72167
 C2243 C 0.22234 0.05265 0.72782
 C2244 C 0.21389 0.04154 0.73467
 C2245 C 0.22078 0.02875 0.74024
 C2246 C 0.23629 0.02701 0.73922
 C2247 C 0.24483 0.03827 0.73258
 C2248 C 0.23791 0.05100 0.72688
 H2249 H 0.22095 0.11645 0.68434
 H2250 H 0.23336 0.09495 0.69560
 H2251 H 0.19265 0.08329 0.71810
 H2252 H 0.18012 0.10464 0.70691
 H2253 H 0.20190 0.04270 0.73548
 H2254 H 0.21402 0.02018 0.74534
 H2255 H 0.25680 0.03707 0.73160
 H2256 H 0.24468 0.05946 0.72166
 C2257 C 0.31543 0.60278 0.29292
 C2258 C 0.30994 0.58990 0.28622
 C2259 C 0.29510 0.58564 0.28827
 C2260 C 0.28575 0.59442 0.29722
 C2261 C 0.29126 0.60723 0.30405
 C2262 C 0.30617 0.61158 0.30195
 N2263 N 0.28989 0.57231 0.28133
 N2264 N 0.27626 0.56845 0.28163
 C2265 C 0.27114 0.55496 0.27492
 C2266 C 0.25583 0.55204 0.27455
 C2267 C 0.25049 0.53886 0.26831
 C2268 C 0.26045 0.52837 0.26239
 C2269 C 0.27581 0.53126 0.26280
 C2270 C 0.28114 0.54449 0.26894
 H2271 H 0.32700 0.60569 0.29118
 H2272 H 0.31727 0.58320 0.27940
 H2273 H 0.27423 0.59133 0.29901
 H2274 H 0.28379 0.61379 0.31083
 H2275 H 0.24802 0.55998 0.27917
 H2276 H 0.23861 0.53676 0.26826
 H2277 H 0.28366 0.52328 0.25831
 H2278 H 0.29303 0.54646 0.26913
 C2279 C 0.31349 0.10112 0.79475
 C2280 C 0.30782 0.08828 0.78821
 C2281 C 0.29303 0.08408 0.79056
 C2282 C 0.28389 0.09286 0.79973
 C2283 C 0.28959 0.10573 0.80639
 C2284 C 0.30444 0.11004 0.80388
 N2285 N 0.28773 0.07085 0.78352
 N2286 N 0.27424 0.06656 0.78425
 C2287 C 0.26945 0.05318 0.77706
 C2288 C 0.25434 0.04934 0.77736
 C2289 C 0.24940 0.03635 0.77041
 C2290 C 0.25956 0.02701 0.76305
 C2291 C 0.27472 0.03081 0.76284
 C2292 C 0.27963 0.04381 0.76973
 H2293 H 0.32503 0.10394 0.79273
 H2294 H 0.31498 0.08156 0.78122
 H2295 H 0.27240 0.08980 0.80173
 H2296 H 0.28231 0.11238 0.81330
 H2297 H 0.24638 0.05643 0.78300
 H2298 H 0.23768 0.03352 0.77084
 H2299 H 0.28273 0.02376 0.75723
 H2300 H 0.29138 0.04649 0.76935
 C2301 C 0.78599 0.60872 0.80700
 C2302 C 0.77901 0.59642 0.80063
 C2303 C 0.78690 0.58697 0.79114
 C2304 C 0.80192 0.59004 0.78793
 C2305 C 0.80889 0.60242 0.79421
 C2306 C 0.80102 0.61186 0.80387
 N2307 N 0.77944 0.57432 0.78502
 N2308 N 0.78624 0.56464 0.77726
 C2309 C 0.77880 0.55195 0.77120
 C2310 C 0.78729 0.54103 0.76408
 C2311 C 0.78046 0.52833 0.75836
 C2312 C 0.76498 0.52646 0.75953
 C2313 C 0.75642 0.53746 0.76658
 C2314 C 0.76327 0.55013 0.77240
 H2315 H 0.77954 0.61582 0.81426
 H2316 H 0.76743 0.59418 0.80317
 H2317 H 0.80826 0.58289 0.78061
 H2318 H 0.82050 0.60445 0.79166
 H2319 H 0.79925 0.54230 0.76310
 H2320 H 0.78725 0.51994 0.75299
 H2321 H 0.74448 0.53615 0.76773
 H2322 H 0.75648 0.55843 0.77788
 C2323 C 0.81526 0.10144 0.29368
 C2324 C 0.80966 0.08854 0.28714
 C2325 C 0.79477 0.08449 0.28918
 C2326 C 0.78549 0.09345 0.29802
 C2327 C 0.79111 0.10630 0.30468
 C2328 C 0.80605 0.11048 0.30253
 N2329 N 0.78945 0.07119 0.28229
 N2330 N 0.77578 0.06748 0.28250
 C2331 C 0.77065 0.05401 0.27576
 C2332 C 0.75534 0.05109 0.27538
 C2333 C 0.75003 0.03793 0.26911
 C2334 C 0.76001 0.02747 0.26317
 C2335 C 0.77536 0.03037 0.26357
 C2336 C 0.78066 0.04358 0.26975
 H2337 H 0.82686 0.10420 0.29192
 H2338 H 0.81694 0.08168 0.28042
 H2339 H 0.77394 0.09049 0.29982
 H2340 H 0.78370 0.11304 0.31136
 H2341 H 0.74752 0.05901 0.28001
 H2342 H 0.73815 0.03580 0.26904
 H2343 H 0.78323 0.02242 0.25906
 H2344 H 0.79256 0.04556 0.26995
 C2345 C 0.70758 0.39723 0.31345
 C2346 C 0.71418 0.41000 0.30757
 C2347 C 0.71135 0.41434 0.29291
 C2348 C 0.70169 0.40577 0.28413
 C2349 C 0.69496 0.39304 0.29005
 C2350 C 0.69788 0.38859 0.30477
 N2351 N 0.71829 0.42757 0.28739
 N2352 N 0.71740 0.43171 0.27388
 C2353 C 0.72433 0.44517 0.26884
 C2354 C 0.72439 0.44857 0.25363
 C2355 C 0.73107 0.46167 0.24849
 C2356 C 0.73771 0.47155 0.25856
 C2357 C 0.73752 0.46820 0.27379
 C2358 C 0.73097 0.45510 0.27889
 H2359 H 0.70994 0.39428 0.32487
 H2360 H 0.72155 0.41656 0.31447
 H2361 H 0.69928 0.40895 0.27277
 H2362 H 0.68761 0.38662 0.28303
 H2363 H 0.71927 0.44105 0.24577
 H2364 H 0.73101 0.46414 0.23670
 H2365 H 0.74257 0.47571 0.28171
 H2366 H 0.73103 0.45279 0.29070
 C2367 C 0.68515 0.89908 0.79305
 C2368 C 0.69078 0.91185 0.78627
 C2369 C 0.70550 0.91621 0.78873
 C2370 C 0.71461 0.90770 0.79820
 C2371 C 0.70897 0.89495 0.80507
 C2372 C 0.69419 0.89047 0.80251
 N2373 N 0.71087 0.92934 0.78154
 N2374 N 0.72431 0.93363 0.78274
 C2375 C 0.72953 0.94687 0.77564
 C2376 C 0.74452 0.95080 0.77717
 C2377 C 0.74990 0.96380 0.77063
 C2378 C 0.74033 0.97304 0.76238
 C2379 C 0.72528 0.96910 0.76084
 C2380 C 0.71991 0.95608 0.76738
 H2381 H 0.67367 0.89610 0.79097
 H2382 H 0.68364 0.91837 0.77905
 H2383 H 0.72605 0.91088 0.80030
 H2384 H 0.71625 0.88853 0.81222
 H2385 H 0.75201 0.94382 0.78355
 H2386 H 0.76149 0.96677 0.77216
 H2387 H 0.71772 0.97610 0.75456
 H2388 H 0.70826 0.95328 0.76606
 C2389 C 0.21523 0.39072 0.80781
 C2390 C 0.22242 0.40300 0.80158
 C2391 C 0.21486 0.41241 0.79176
 C2392 C 0.19994 0.40937 0.78812
 C2393 C 0.19274 0.39704 0.79429
 C2394 C 0.20030 0.38759 0.80423
 N2395 N 0.22251 0.42503 0.78577
 N2396 N 0.21605 0.43442 0.77737
 C2397 C 0.22359 0.44713 0.77146
 C2398 C 0.21539 0.45756 0.76330
 C2399 C 0.22226 0.47034 0.75777
 C2400 C 0.23751 0.47280 0.76021
 C2401 C 0.24580 0.46228 0.76828
 C2402 C 0.23890 0.44951 0.77388
 H2403 H 0.22145 0.38363 0.81530
 H2404 H 0.23393 0.40522 0.80445
 H2405 H 0.19383 0.41650 0.78057
 H2406 H 0.18121 0.39506 0.79138
 H2407 H 0.20360 0.45586 0.76137
 H2408 H 0.21567 0.47834 0.75159
 H2409 H 0.25754 0.46405 0.77042
 H2410 H 0.24547 0.44160 0.78017
 C2411 C 0.18426 0.89826 0.29344
 C2412 C 0.18970 0.91115 0.28674
 C2413 C 0.20449 0.91549 0.28889
 C2414 C 0.21384 0.90682 0.29797
 C2415 C 0.20839 0.89394 0.30477
 C2416 C 0.19354 0.88948 0.30251
 N2417 N 0.20963 0.92876 0.28177
 N2418 N 0.22316 0.93291 0.28235
 C2419 C 0.22813 0.94627 0.27528
 C2420 C 0.24331 0.94972 0.27555
 C2421 C 0.24851 0.96272 0.26884
 C2422 C 0.23854 0.97248 0.26174
 C2423 C 0.22328 0.96909 0.26157
 C2424 C 0.21810 0.95604 0.26822
 H2425 H 0.17273 0.89530 0.29160
 H2426 H 0.18238 0.91779 0.27982
 H2427 H 0.22533 0.90999 0.29982
 H2428 H 0.21584 0.88741 0.31163
 H2429 H 0.25113 0.94232 0.28101
 H2430 H 0.26030 0.96524 0.26931
 H2431 H 0.21542 0.97651 0.25620
 H2432 H 0.20629 0.95365 0.26791
 C2433 C 0.38998 0.28667 0.69361
 C2434 C 0.40241 0.27971 0.69990
 C2435 C 0.41207 0.28762 0.70914
 C2436 C 0.40907 0.30265 0.71219
 C2437 C 0.39655 0.30962 0.70598
 C2438 C 0.38691 0.30172 0.69655
 N2439 N 0.42483 0.28013 0.71514
 N2440 N 0.43471 0.28676 0.72280
 C2441 C 0.44745 0.27907 0.72862
 C2442 C 0.45857 0.28720 0.73587
 C2443 C 0.47130 0.28006 0.74137
 C2444 C 0.47299 0.26461 0.73983
 C2445 C 0.46183 0.25645 0.73259
 C2446 C 0.44915 0.26361 0.72703
 H2447 H 0.38274 0.28018 0.68655
 H2448 H 0.40459 0.26812 0.69749
 H2449 H 0.41639 0.30900 0.71932
 H2450 H 0.39459 0.32124 0.70839
 H2451 H 0.45743 0.29911 0.73714
 H2452 H 0.47982 0.28655 0.74686
 H2453 H 0.46302 0.24457 0.73109
 H2454 H 0.44073 0.25707 0.72145
 C2455 C 0.39887 0.81332 0.20478
 C2456 C 0.41173 0.80762 0.21140
 C2457 C 0.41582 0.79279 0.20930
 C2458 C 0.40692 0.78363 0.20031
 C2459 C 0.39404 0.78936 0.19357
 C2460 C 0.38982 0.80426 0.19581
 N2461 N 0.42907 0.78745 0.21643
 N2462 N 0.43325 0.77393 0.21590
 C2463 C 0.44665 0.76905 0.22314
 C2464 C 0.45044 0.75395 0.22286
 C2465 C 0.46348 0.74892 0.22978
 C2466 C 0.47292 0.75899 0.23709
 C2467 C 0.46915 0.77412 0.23731
 C2468 C 0.45610 0.77913 0.23045
 H2469 H 0.39613 0.82489 0.20661
 H2470 H 0.41854 0.81479 0.21826
 H2471 H 0.40989 0.77211 0.19851
 H2472 H 0.38729 0.78207 0.18680
 H2473 H 0.44328 0.74608 0.21725
 H2474 H 0.46628 0.73722 0.22935
 H2475 H 0.47628 0.78205 0.24290
 H2476 H 0.45345 0.79086 0.23083
 C2477 C 0.89107 0.28670 0.19282
 C2478 C 0.90336 0.27974 0.19938
 C2479 C 0.91287 0.28769 0.20875
 C2480 C 0.90987 0.30275 0.21164
 C2481 C 0.89752 0.30971 0.20516
 C2482 C 0.88801 0.30178 0.19562
 N2483 N 0.92553 0.28026 0.21503
 N2484 N 0.93510 0.28701 0.22296
 C2485 C 0.94782 0.27957 0.22910
 C2486 C 0.95849 0.28791 0.23675
 C2487 C 0.97126 0.28106 0.24248
 C2488 C 0.97346 0.26570 0.24075
 C2489 C 0.96269 0.25731 0.23318
 C2490 C 0.94995 0.26418 0.22739
 H2491 H 0.88392 0.28020 0.18568
 H2492 H 0.90554 0.26812 0.19710
 H2493 H 0.91707 0.30913 0.21885
 H2494 H 0.89557 0.32135 0.20747
 H2495 H 0.95698 0.29977 0.23812
 H2496 H 0.97944 0.28773 0.24828
 H2497 H 0.96425 0.24549 0.23155
 H2498 H 0.94187 0.25749 0.22150
 C2499 C 0.88943 0.78660 0.69338
 C2500 C 0.90174 0.77954 0.69979
 C2501 C 0.91126 0.78733 0.70927
 C2502 C 0.90826 0.80235 0.71241
 C2503 C 0.89586 0.80941 0.70609
 C2504 C 0.88634 0.80162 0.69644
 N2505 N 0.92391 0.77977 0.71543
 N2506 N 0.93365 0.78644 0.72323
 C2507 C 0.94634 0.77887 0.72931
 C2508 C 0.95734 0.78721 0.73647
 C2509 C 0.97006 0.78026 0.74217
 C2510 C 0.97187 0.76481 0.74095
 C2511 C 0.96079 0.75641 0.73388
 C2512 C 0.94810 0.76338 0.72807
 H2513 H 0.88227 0.78020 0.68615
 H2514 H 0.90392 0.76797 0.69730
 H2515 H 0.91547 0.80861 0.71972
 H2516 H 0.89388 0.82100 0.70859
 H2517 H 0.95613 0.79914 0.73748
 H2518 H 0.97852 0.78694 0.74756
 H2519 H 0.96207 0.74450 0.73267
 H2520 H 0.93975 0.75670 0.72256
 C2521 C 0.60247 0.31497 0.29160
 C2522 C 0.58960 0.30927 0.28498
 C2523 C 0.58520 0.29461 0.28767
 C2524 C 0.59384 0.28565 0.29716
 C2525 C 0.60666 0.29135 0.30386
 C2526 C 0.61115 0.30608 0.30115
 N2527 N 0.57188 0.28919 0.28079
 N2528 N 0.56768 0.27575 0.28207
 C2529 C 0.55424 0.27042 0.27534
 C2530 C 0.55075 0.25531 0.27648
 C2531 C 0.53763 0.24978 0.27021
 C2532 C 0.52781 0.25934 0.26267
 C2533 C 0.53126 0.27452 0.26159
 C2534 C 0.54441 0.28002 0.26781
 H2535 H 0.60548 0.32640 0.28938
 H2536 H 0.58301 0.31631 0.27774
 H2537 H 0.59065 0.27427 0.29944
 H2538 H 0.61312 0.28415 0.31106
 H2539 H 0.55820 0.24781 0.28231
 H2540 H 0.53506 0.23808 0.27136
 H2541 H 0.52379 0.28207 0.25586
 H2542 H 0.54682 0.29176 0.26682
 C2543 C 0.60172 0.81543 0.79486
 C2544 C 0.58877 0.80993 0.78834
 C2545 C 0.58460 0.79514 0.79046
 C2546 C 0.59349 0.78582 0.79937
 C2547 C 0.60645 0.79135 0.80601
 C2548 C 0.61075 0.80620 0.80373
 N2549 N 0.57128 0.79001 0.78346
 N2550 N 0.56710 0.77653 0.78390
 C2551 C 0.55361 0.77187 0.77681
 C2552 C 0.54991 0.75678 0.77676
 C2553 C 0.53678 0.75197 0.76996
 C2554 C 0.52716 0.76225 0.76311
 C2555 C 0.53083 0.77739 0.76322
 C2556 C 0.54398 0.78218 0.76996
 H2557 H 0.60453 0.82697 0.79303
 H2558 H 0.58195 0.81721 0.78155
 H2559 H 0.59043 0.77434 0.80119
 H2560 H 0.61319 0.78395 0.81274
 H2561 H 0.55721 0.74874 0.78203
 H2562 H 0.53404 0.74025 0.77014
 H2563 H 0.52356 0.78548 0.75799
 H2564 H 0.54657 0.79392 0.76986
 C2565 C 0.10282 0.31645 0.79177
 C2566 C 0.08994 0.31091 0.78505
 C2567 C 0.08549 0.29623 0.78750
 C2568 C 0.09407 0.28707 0.79685
 C2569 C 0.10690 0.29262 0.80367
 C2570 C 0.11144 0.30738 0.80118
 N2571 N 0.07218 0.29099 0.78048
 N2572 N 0.06802 0.27750 0.78130
 C2573 C 0.05457 0.27244 0.77440
 C2574 C 0.05116 0.25728 0.77476
 C2575 C 0.03804 0.25204 0.76826
 C2576 C 0.02810 0.26195 0.76132
 C2577 C 0.03148 0.27717 0.76105
 C2578 C 0.04464 0.28239 0.76747
 H2579 H 0.10589 0.32790 0.78973
 H2580 H 0.08338 0.31809 0.77791
 H2581 H 0.09083 0.27567 0.79894
 H2582 H 0.11333 0.28530 0.81076
 H2583 H 0.05868 0.24952 0.78012
 H2584 H 0.03554 0.24027 0.76877
 H2585 H 0.02394 0.28499 0.75579
 H2586 H 0.04699 0.29418 0.76710
 C2587 C 0.10071 0.81488 0.29535
 C2588 C 0.08779 0.80943 0.28869
 C2589 C 0.08350 0.79468 0.29080
 C2590 C 0.09222 0.78536 0.29989
 C2591 C 0.10515 0.79084 0.30668
 C2592 C 0.10959 0.80565 0.30437
 N2593 N 0.07025 0.78955 0.28358
 N2594 N 0.06609 0.77605 0.28395
 C2595 C 0.05273 0.77123 0.27668
 C2596 C 0.04922 0.75609 0.27669
 C2597 C 0.03624 0.75105 0.26976
 C2598 C 0.02654 0.76112 0.26271
 C2599 C 0.03001 0.77633 0.26276
 C2600 C 0.04304 0.78135 0.26963
 H2601 H 0.10362 0.82640 0.29349
 H2602 H 0.08113 0.81673 0.28177
 H2603 H 0.08908 0.77390 0.30172
 H2604 H 0.11177 0.78344 0.31351
 H2605 H 0.05656 0.74820 0.28211
 H2606 H 0.03368 0.73930 0.27003
 H2607 H 0.02267 0.78427 0.25741
 H2608 H 0.04549 0.79313 0.26949
 C2609 C 0.60065 0.68450 0.70711
 C2610 C 0.58774 0.69006 0.71378
 C2611 C 0.58354 0.70489 0.71171
 C2612 C 0.59238 0.71415 0.70274
 C2613 C 0.60526 0.70857 0.69597
 C2614 C 0.60957 0.69369 0.69813
 N2615 N 0.57025 0.71019 0.71877
 N2616 N 0.56637 0.72379 0.71832
 C2617 C 0.55300 0.72904 0.72527
 C2618 C 0.54999 0.74430 0.72522
 C2619 C 0.53700 0.74979 0.73179
 C2620 C 0.52680 0.74006 0.73851
 C2621 C 0.52974 0.72474 0.73846
 C2622 C 0.54279 0.71925 0.73196
 H2623 H 0.60352 0.67295 0.70891
 H2624 H 0.58100 0.68280 0.72062
 H2625 H 0.58933 0.72566 0.70094
 H2626 H 0.61191 0.71598 0.68921
 H2627 H 0.55773 0.75194 0.72005
 H2628 H 0.53483 0.76164 0.73152
 H2629 H 0.52197 0.71705 0.74354
 H2630 H 0.54485 0.70739 0.73209
 C2631 C 0.60994 0.21308 0.19354
 C2632 C 0.59769 0.22016 0.19997
 C2633 C 0.58807 0.21232 0.20931
 C2634 C 0.59092 0.19724 0.21233
 C2635 C 0.60324 0.19015 0.20597
 C2636 C 0.61284 0.19797 0.19643
 N2637 N 0.57542 0.21987 0.21539
 N2638 N 0.56564 0.21316 0.22310
 C2639 C 0.55291 0.22069 0.22904
 C2640 C 0.55103 0.23614 0.22753
 C2641 C 0.53828 0.24308 0.23315
 C2642 C 0.52726 0.23467 0.24034
 C2643 C 0.52919 0.21926 0.24185
 C2644 C 0.54197 0.21235 0.23630
 H2645 H 0.61718 0.21950 0.18640
 H2646 H 0.59562 0.23179 0.19759
 H2647 H 0.58362 0.19094 0.21954
 H2648 H 0.60509 0.17850 0.20835
 H2649 H 0.55934 0.24282 0.22193
 H2650 H 0.53690 0.25496 0.23174
 H2651 H 0.52079 0.21259 0.24735
 H2652 H 0.54329 0.20044 0.23750
 C2653 C 0.10089 0.68427 0.20652
 C2654 C 0.08795 0.68968 0.21322
 C2655 C 0.08361 0.70446 0.21119
 C2656 C 0.09230 0.71384 0.20221
 C2657 C 0.10521 0.70843 0.19540
 C2658 C 0.10969 0.69359 0.19755
 N2659 N 0.07035 0.70960 0.21835
 N2660 N 0.06625 0.72313 0.21788
 C2661 C 0.05288 0.72809 0.22499
 C2662 C 0.04941 0.74325 0.22478
 C2663 C 0.03637 0.74842 0.23150
 C2664 C 0.02662 0.73845 0.23854
 C2665 C 0.03006 0.72323 0.23870
 C2666 C 0.04314 0.71808 0.23203
 H2667 H 0.10388 0.67275 0.20827
 H2668 H 0.08130 0.68234 0.22007
 H2669 H 0.08912 0.72533 0.20045
 H2670 H 0.11177 0.71591 0.18864
 H2671 H 0.05680 0.75105 0.21934
 H2672 H 0.03380 0.76018 0.23108
 H2673 H 0.02266 0.71538 0.24404
 H2674 H 0.04558 0.70630 0.23230
 C2675 C 0.10228 0.18372 0.70697
 C2676 C 0.08931 0.18917 0.71364
 C2677 C 0.08486 0.20390 0.71139
 C2678 C 0.09353 0.21319 0.70230
 C2679 C 0.10645 0.20774 0.69554
 C2680 C 0.11098 0.19293 0.69781
 N2681 N 0.07148 0.20910 0.71836
 N2682 N 0.06738 0.22263 0.71757
 C2683 C 0.05395 0.22790 0.72436
 C2684 C 0.05082 0.24313 0.72394
 C2685 C 0.03779 0.24869 0.73037
 C2686 C 0.02767 0.23904 0.73733
 C2687 C 0.03071 0.22373 0.73761
 C2688 C 0.04381 0.21818 0.73124
 H2689 H 0.10533 0.17223 0.70886
 H2690 H 0.08270 0.18189 0.72059
 H2691 H 0.09030 0.22464 0.70037
 H2692 H 0.11292 0.21518 0.68865
 H2693 H 0.05850 0.25071 0.71859
 H2694 H 0.03554 0.26050 0.72984
 H2695 H 0.02300 0.21611 0.74286
 H2696 H 0.04595 0.20635 0.73163
 C2697 C 0.39035 0.71445 0.30833
 C2698 C 0.40265 0.72151 0.30194
 C2699 C 0.41219 0.71374 0.29241
 C2700 C 0.40921 0.69875 0.28922
 C2701 C 0.39685 0.69170 0.29551
 C2702 C 0.38728 0.69945 0.30518
 N2703 N 0.42483 0.72127 0.28624
 N2704 N 0.43459 0.71453 0.27850
 C2705 C 0.44730 0.72197 0.27240
 C2706 C 0.45845 0.71349 0.26558
 C2707 C 0.47127 0.72030 0.25999
 C2708 C 0.47301 0.73577 0.26096
 C2709 C 0.46174 0.74433 0.26760
 C2710 C 0.44898 0.73749 0.27332
 H2711 H 0.38318 0.72081 0.31561
 H2712 H 0.40482 0.73307 0.30448
 H2713 H 0.41643 0.69249 0.28189
 H2714 H 0.39491 0.68012 0.29294
 H2715 H 0.45730 0.70154 0.26480
 H2716 H 0.47985 0.71352 0.25491
 H2717 H 0.46295 0.75627 0.26855
 H2718 H 0.44050 0.74429 0.27852
 C2719 C 0.39767 0.18477 0.79251
 C2720 C 0.41040 0.19051 0.78572
 C2721 C 0.41471 0.20521 0.78823
 C2722 C 0.40614 0.21419 0.79774
 C2723 C 0.39342 0.20843 0.80462
 C2724 C 0.38902 0.19366 0.80204
 N2725 N 0.42786 0.21063 0.78108
 N2726 N 0.43217 0.22404 0.78220
 C2727 C 0.44549 0.22913 0.77506
 C2728 C 0.44947 0.24411 0.77624
 C2729 C 0.46258 0.24930 0.76964
 C2730 C 0.47187 0.23952 0.76173
 C2731 C 0.46784 0.22451 0.76053
 C2732 C 0.45475 0.21935 0.76710
 H2733 H 0.39473 0.17331 0.79040
 H2734 H 0.41696 0.18348 0.77847
 H2735 H 0.40928 0.22560 0.79986
 H2736 H 0.38697 0.21561 0.81181
 H2737 H 0.44246 0.25175 0.78237
 H2738 H 0.46557 0.26089 0.77085
 H2739 H 0.47485 0.21680 0.75448
 H2740 H 0.45193 0.20771 0.76604
 C2741 C 0.89692 0.68509 0.79362
 C2742 C 0.90978 0.69081 0.78703
 C2743 C 0.91404 0.70552 0.78954
 C2744 C 0.90529 0.71453 0.79886
 C2745 C 0.89246 0.70879 0.80555
 C2746 C 0.88810 0.69400 0.80298
 N2747 N 0.92733 0.71094 0.78260
 N2748 N 0.93145 0.72443 0.78360
 C2749 C 0.94487 0.72965 0.77673
 C2750 C 0.94838 0.74477 0.77757
 C2751 C 0.96149 0.75018 0.77114
 C2752 C 0.97127 0.74047 0.76377
 C2753 C 0.96778 0.72530 0.76297
 C2754 C 0.95465 0.71992 0.76933
 H2755 H 0.89402 0.67362 0.79151
 H2756 H 0.91646 0.68375 0.77991
 H2757 H 0.90838 0.72595 0.80098
 H2758 H 0.88588 0.71600 0.81260
 H2759 H 0.94097 0.75237 0.78327
 H2760 H 0.96408 0.76189 0.77206
 H2761 H 0.97521 0.71764 0.75735
 H2762 H 0.95221 0.70817 0.76855
 C2763 C 0.89886 0.18553 0.29410
 C2764 C 0.91166 0.19118 0.28735
 C2765 C 0.91598 0.20589 0.28973
 C2766 C 0.90738 0.21495 0.29915
 C2767 C 0.89457 0.20928 0.30600
 C2768 C 0.89010 0.19452 0.30346
 N2769 N 0.92913 0.21125 0.28245
 N2770 N 0.93344 0.22468 0.28336
 C2771 C 0.94669 0.22977 0.27606
 C2772 C 0.95065 0.24475 0.27718
 C2773 C 0.96364 0.24999 0.27039
 C2774 C 0.97286 0.24029 0.26230
 C2775 C 0.96888 0.22525 0.26116
 C2776 C 0.95587 0.22003 0.26794
 H2777 H 0.89593 0.17406 0.29204
 H2778 H 0.91824 0.18407 0.28019
 H2779 H 0.91054 0.22637 0.30119
 H2780 H 0.88807 0.21652 0.31308
 H2781 H 0.94371 0.25237 0.28343
 H2782 H 0.96660 0.26159 0.27162
 H2783 H 0.97582 0.21758 0.25499
 H2784 H 0.95306 0.20838 0.26690
 C2785 C 0.29325 0.31401 0.60187
 C2786 C 0.28661 0.30822 0.58911
 C2787 C 0.28895 0.29341 0.58510
 C2788 C 0.29814 0.28436 0.59398
 C2789 C 0.30489 0.29017 0.60672
 C2790 C 0.30247 0.30505 0.61082
 N2791 N 0.28199 0.28794 0.57190
 N2792 N 0.28272 0.27437 0.56802
 C2793 C 0.27588 0.26921 0.55461
 C2794 C 0.27648 0.25404 0.55120
 C2795 C 0.27027 0.24876 0.53799
 C2796 C 0.26338 0.25862 0.52800
 C2797 C 0.26272 0.27380 0.53145
 C2798 C 0.26886 0.27907 0.54468
 H2799 H 0.29127 0.32555 0.60458
 H2800 H 0.27960 0.31530 0.58231
 H2801 H 0.30013 0.27286 0.59107
 H2802 H 0.31183 0.28295 0.61343
 H2803 H 0.28187 0.24635 0.55876
 H2804 H 0.27103 0.23702 0.53543
 H2805 H 0.25744 0.28156 0.52387
 H2806 H 0.26825 0.29085 0.54705
 C2807 C 0.29344 0.81332 0.10260
 C2808 C 0.28693 0.80757 0.08974
 C2809 C 0.28937 0.79279 0.08561
 C2810 C 0.29856 0.78376 0.09450
 C2811 C 0.30520 0.78953 0.10735
 C2812 C 0.30266 0.80437 0.11157
 N2813 N 0.28248 0.78739 0.07231
 N2814 N 0.28322 0.77385 0.06827
 C2815 C 0.27635 0.76878 0.05480
 C2816 C 0.27660 0.75359 0.05141
 C2817 C 0.27011 0.74837 0.03827
 C2818 C 0.26327 0.75831 0.02833
 C2819 C 0.26307 0.77354 0.03170
 C2820 C 0.26948 0.77874 0.04485
 H2821 H 0.29138 0.82483 0.10538
 H2822 H 0.27993 0.81467 0.08294
 H2823 H 0.30064 0.77229 0.09152
 H2824 H 0.31217 0.78231 0.11403
 H2825 H 0.28188 0.74581 0.05895
 H2826 H 0.27052 0.73660 0.03580
 H2827 H 0.25786 0.78138 0.02416
 H2828 H 0.26915 0.79054 0.04717
 C2829 C 0.79234 0.31358 0.10254
 C2830 C 0.78576 0.30785 0.08972
 C2831 C 0.78834 0.29312 0.08550
 C2832 C 0.79772 0.28413 0.09422
 C2833 C 0.80443 0.28989 0.10700
 C2834 C 0.80178 0.30467 0.11132
 N2835 N 0.78146 0.28769 0.07224
 N2836 N 0.78248 0.27419 0.06818
 C2837 C 0.77575 0.26899 0.05474
 C2838 C 0.77668 0.25387 0.05121
 C2839 C 0.77055 0.24855 0.03797
 C2840 C 0.76337 0.25832 0.02810
 C2841 C 0.76241 0.27347 0.03165
 C2842 C 0.76849 0.27878 0.04490
 H2843 H 0.79019 0.32505 0.10543
 H2844 H 0.77860 0.31490 0.08303
 H2845 H 0.79991 0.27270 0.09115
 H2846 H 0.81154 0.28270 0.11356
 H2847 H 0.78226 0.24624 0.05868
 H2848 H 0.77157 0.23685 0.03532
 H2849 H 0.75695 0.28117 0.02415
 H2850 H 0.76765 0.29052 0.04736
 C2851 C 0.79258 0.81406 0.60185
 C2852 C 0.78607 0.80828 0.58902
 C2853 C 0.78862 0.79352 0.58490
 C2854 C 0.79789 0.78453 0.59374
 C2855 C 0.80451 0.79034 0.60655
 C2856 C 0.80189 0.80517 0.61077
 N2857 N 0.78168 0.78806 0.57168
 N2858 N 0.78267 0.77459 0.56753
 C2859 C 0.77564 0.76953 0.55417
 C2860 C 0.77631 0.75443 0.55048
 C2861 C 0.76955 0.74925 0.53748
 C2862 C 0.76201 0.75915 0.52801
 C2863 C 0.76142 0.77429 0.53167
 C2864 C 0.76812 0.77945 0.54466
 H2865 H 0.79042 0.82555 0.60464
 H2866 H 0.77898 0.81531 0.58225
 H2867 H 0.80003 0.77307 0.59075
 H2868 H 0.81152 0.78315 0.61323
 H2869 H 0.78209 0.74669 0.55770
 H2870 H 0.77028 0.73755 0.53475
 H2871 H 0.75566 0.78209 0.52449
 H2872 H 0.76746 0.79118 0.54723
 C2873 C 0.28431 0.69232 0.39057
 C2874 C 0.27712 0.69849 0.40289
 C2875 C 0.28466 0.70830 0.41228
 C2876 C 0.29955 0.71197 0.40915
 C2877 C 0.30674 0.70588 0.39678
 C2878 C 0.29921 0.69595 0.38735
 N2879 N 0.27702 0.71426 0.42493
 N2880 N 0.28352 0.72260 0.43431
 C2881 C 0.27605 0.72852 0.44707
 C2882 C 0.28435 0.73655 0.45748
 C2883 C 0.27757 0.74212 0.47028
 C2884 C 0.26229 0.73989 0.47279
 C2885 C 0.25390 0.73195 0.46230
 C2886 C 0.26073 0.72629 0.44951
 H2887 H 0.27811 0.68483 0.38350
 H2888 H 0.26564 0.69558 0.40517
 H2889 H 0.30565 0.71952 0.41625
 H2890 H 0.31824 0.70883 0.39474
 H2891 H 0.29615 0.73833 0.45573
 H2892 H 0.28423 0.74819 0.47826
 H2893 H 0.24214 0.72996 0.46412
 H2894 H 0.25408 0.72011 0.44162
 C2895 C 0.31519 0.20518 0.89758
 C2896 C 0.30983 0.21165 0.91062
 C2897 C 0.29510 0.20939 0.91510
 C2898 C 0.28574 0.20038 0.90642
 C2899 C 0.29113 0.19378 0.89341
 C2900 C 0.30590 0.19620 0.88879
 N2901 N 0.28999 0.21637 0.92846
 N2902 N 0.27644 0.21588 0.93260
 C2903 C 0.27145 0.22284 0.94601
 C2904 C 0.25620 0.22292 0.94925
 C2905 C 0.25093 0.22965 0.96221
 C2906 C 0.26089 0.23640 0.97216
 C2907 C 0.27621 0.23617 0.96903
 C2908 C 0.28147 0.22951 0.95600
 H2909 H 0.32668 0.20713 0.89450
 H2910 H 0.31717 0.21852 0.91725
 H2911 H 0.27430 0.19843 0.90969
 H2912 H 0.28367 0.18698 0.88687
 H2913 H 0.24838 0.21777 0.94168
 H2914 H 0.23909 0.22950 0.96454
 H2915 H 0.28407 0.24125 0.97661
 H2916 H 0.29332 0.22954 0.95378
 C2917 C 0.79455 0.68629 0.89844
 C2918 C 0.78817 0.69201 0.91136
 C2919 C 0.79031 0.70687 0.91526
 C2920 C 0.79914 0.71601 0.90616
 C2921 C 0.80568 0.71025 0.89326
 C2922 C 0.80335 0.69534 0.88921
 N2923 N 0.78342 0.71225 0.92855
 N2924 N 0.78356 0.72588 0.93231
 C2925 C 0.77661 0.73079 0.94577
 C2926 C 0.77579 0.74604 0.94880
 C2927 C 0.76901 0.75110 0.96184
 C2928 C 0.76302 0.74092 0.97205
 C2929 C 0.76395 0.72566 0.96909
 C2930 C 0.77062 0.72061 0.95602
 H2931 H 0.79268 0.67472 0.89580
 H2932 H 0.78145 0.68485 0.91833
 H2933 H 0.80098 0.72754 0.90902
 H2934 H 0.81234 0.71751 0.88636
 H2935 H 0.78038 0.75399 0.94101
 H2936 H 0.76850 0.76292 0.96403
 H2937 H 0.75939 0.71766 0.97686
 H2938 H 0.77113 0.70877 0.95398
 C2939 C 0.78649 0.19341 0.38946
 C2940 C 0.77947 0.19974 0.40179
 C2941 C 0.78725 0.20936 0.41117
 C2942 C 0.80222 0.21271 0.40799
 C2943 C 0.80923 0.20647 0.39559
 C2944 C 0.80146 0.19669 0.38621
 N2945 N 0.77977 0.21544 0.42386
 N2946 N 0.78651 0.22344 0.43337
 C2947 C 0.77918 0.22949 0.44616
 C2948 C 0.78771 0.23705 0.45672
 C2949 C 0.78106 0.24279 0.46952
 C2950 C 0.76568 0.24118 0.47189
 C2951 C 0.75705 0.23370 0.46124
 C2952 C 0.76375 0.22787 0.44845
 H2953 H 0.78010 0.18605 0.38242
 H2954 H 0.76793 0.19708 0.40410
 H2955 H 0.80850 0.22011 0.41509
 H2956 H 0.82080 0.20915 0.39350
 H2957 H 0.79959 0.23834 0.45509
 H2958 H 0.78791 0.24851 0.47759
 H2959 H 0.74520 0.23219 0.46293
 H2960 H 0.75691 0.22204 0.44045
 C2961 C 0.68477 0.29255 0.39715
 C2962 C 0.69038 0.28595 0.41007
 C2963 C 0.70503 0.28864 0.41462
 C2964 C 0.71405 0.29816 0.40612
 C2965 C 0.70843 0.30485 0.39324
 C2966 C 0.69373 0.30210 0.38858
 N2967 N 0.71041 0.28168 0.42792
 N2968 N 0.72388 0.28291 0.43217
 C2969 C 0.72928 0.27609 0.44553
 C2970 C 0.74441 0.27734 0.44904
 C2971 C 0.75005 0.27099 0.46206
 C2972 C 0.74059 0.26324 0.47178
 C2973 C 0.72538 0.26207 0.46833
 C2974 C 0.71975 0.26838 0.45526
 H2975 H 0.67336 0.29029 0.39401
 H2976 H 0.68329 0.27869 0.41656
 H2977 H 0.72542 0.30044 0.40942
 H2978 H 0.71567 0.31204 0.38687
 H2979 H 0.75185 0.28330 0.44168
 H2980 H 0.76177 0.27225 0.46464
 H2981 H 0.71789 0.25621 0.47573
 H2982 H 0.70799 0.26731 0.45281
 C2983 C 0.70588 0.81551 0.89763
 C2984 C 0.71226 0.80987 0.91062
 C2985 C 0.70999 0.79507 0.91473
 C2986 C 0.70109 0.78590 0.90575
 C2987 C 0.69458 0.79158 0.89280
 C2988 C 0.69698 0.80643 0.88855
 N2989 N 0.71678 0.78973 0.92811
 N2990 N 0.71644 0.77612 0.93197
 C2991 C 0.72320 0.77112 0.94550
 C2992 C 0.72387 0.75587 0.94852
 C2993 C 0.73047 0.75070 0.96164
 C2994 C 0.73640 0.76080 0.97193
 C2995 C 0.73560 0.77608 0.96898
 C2996 C 0.72913 0.78123 0.95584
 H2997 H 0.70780 0.82705 0.89482
 H2998 H 0.71903 0.81705 0.91750
 H2999 H 0.69914 0.77442 0.90876
 H3000 H 0.68784 0.78428 0.88603
 H3001 H 0.71931 0.74798 0.94068
 H3002 H 0.73088 0.73887 0.96382
 H3003 H 0.74013 0.78401 0.97682
 H3004 H 0.72870 0.79308 0.95379
 C3005 C 0.18490 0.29260 0.89697
 C3006 C 0.19035 0.28593 0.90988
 C3007 C 0.20513 0.28808 0.91427
 C3008 C 0.21448 0.29713 0.90561
 C3009 C 0.20900 0.30393 0.89273
 C3010 C 0.19415 0.30171 0.88825
 N3011 N 0.21027 0.28104 0.92759
 N3012 N 0.22381 0.28154 0.93175
 C3013 C 0.22868 0.27455 0.94521
 C3014 C 0.24387 0.27452 0.94871
 C3015 C 0.24891 0.26788 0.96184
 C3016 C 0.23876 0.26119 0.97165
 C3017 C 0.22351 0.26130 0.96818
 C3018 C 0.21850 0.26787 0.95503
 H3019 H 0.17338 0.29076 0.89395
 H3020 H 0.18305 0.27902 0.91651
 H3021 H 0.22596 0.29897 0.90881
 H3022 H 0.21645 0.31078 0.88622
 H3023 H 0.25181 0.27968 0.94126
 H3024 H 0.26070 0.26808 0.96443
 H3025 H 0.21552 0.25622 0.97563
 H3026 H 0.20668 0.26778 0.95260
 C3027 C 0.21365 0.80717 0.39005
 C3028 C 0.22077 0.80103 0.40244
 C3029 C 0.21312 0.79139 0.41194
 C3030 C 0.19819 0.78783 0.40883
 C3031 C 0.19107 0.79391 0.39637
 C3032 C 0.19870 0.80371 0.38687
 N3033 N 0.22074 0.78553 0.42468
 N3034 N 0.21425 0.77737 0.43425
 C3035 C 0.22185 0.77161 0.44705
 C3036 C 0.21367 0.76376 0.45769
 C3037 C 0.22060 0.75835 0.47052
 C3038 C 0.23591 0.76058 0.47281
 C3039 C 0.24418 0.76837 0.46210
 C3040 C 0.23721 0.77386 0.44929
 H3041 H 0.21995 0.81454 0.38293
 H3042 H 0.23228 0.80384 0.40470
 H3043 H 0.19203 0.78041 0.41603
 H3044 H 0.17953 0.79108 0.39433
 H3045 H 0.20184 0.76197 0.45611
 H3046 H 0.21403 0.75240 0.47867
 H3047 H 0.25596 0.77037 0.46375
 H3048 H 0.24378 0.77991 0.44123
 C3049 C 0.69284 0.71390 0.61122
 C3050 C 0.69906 0.72093 0.59884
 C3051 C 0.70845 0.71312 0.58921
 C3052 C 0.71171 0.69812 0.59220
 C3053 C 0.70559 0.69109 0.60467
 C3054 C 0.69601 0.69889 0.61428
 N3055 N 0.71435 0.72063 0.57646
 N3056 N 0.72192 0.71393 0.56656
 C3057 C 0.72770 0.72147 0.55377
 C3058 C 0.73448 0.71311 0.54253
 C3059 C 0.73980 0.72004 0.52969
 C3060 C 0.73859 0.73551 0.52799
 C3061 C 0.73196 0.74394 0.53932
 C3062 C 0.72652 0.73698 0.55212
 H3063 H 0.68565 0.72031 0.61844
 H3064 H 0.69648 0.73250 0.59668
 H3065 H 0.71896 0.69183 0.58492
 H3066 H 0.70819 0.67950 0.60662
 H3067 H 0.73545 0.70116 0.54367
 H3068 H 0.74489 0.71336 0.52106
 H3069 H 0.73082 0.75587 0.53814
 H3070 H 0.72134 0.74370 0.56066
 C3071 C 0.69517 0.21274 0.10983
 C3072 C 0.70128 0.21972 0.09740
 C3073 C 0.71027 0.21177 0.08753
 C3074 C 0.71329 0.19668 0.09034
 C3075 C 0.70727 0.18968 0.10287
 C3076 C 0.69803 0.19762 0.11267
 N3077 N 0.71604 0.21927 0.07473
 N3078 N 0.72331 0.21252 0.06466
 C3079 C 0.72901 0.22008 0.05187
 C3080 C 0.73601 0.21177 0.04074
 C3081 C 0.74163 0.21877 0.02808
 C3082 C 0.74044 0.23424 0.02642
 C3083 C 0.73336 0.24260 0.03754
 C3084 C 0.72768 0.23558 0.05019
 H3085 H 0.68828 0.21925 0.11723
 H3086 H 0.69892 0.23136 0.09537
 H3087 H 0.72024 0.19031 0.08285
 H3088 H 0.70962 0.17802 0.10470
 H3089 H 0.73705 0.19984 0.04189
 H3090 H 0.74703 0.21213 0.01961
 H3091 H 0.73219 0.25453 0.03638
 H3092 H 0.72227 0.24225 0.05862
 C3093 C 0.19252 0.71422 0.11047
 C3094 C 0.19873 0.72130 0.09812
 C3095 C 0.20804 0.71348 0.08843
 C3096 C 0.21122 0.69844 0.09129
 C3097 C 0.20511 0.69137 0.10371
 C3098 C 0.19564 0.69917 0.11341
 N3099 N 0.21401 0.72102 0.07574
 N3100 N 0.22147 0.71423 0.06582
 C3101 C 0.22743 0.72167 0.05308
 C3102 C 0.23413 0.71316 0.04193
 C3103 C 0.23981 0.71998 0.02920
 C3104 C 0.23901 0.73548 0.02753
 C3105 C 0.23238 0.74406 0.03874
 C3106 C 0.22658 0.73720 0.05144
 H3107 H 0.18539 0.72060 0.11777
 H3108 H 0.19622 0.73289 0.09604
 H3109 H 0.21839 0.69215 0.08394
 H3110 H 0.20763 0.67975 0.10557
 H3111 H 0.23483 0.70120 0.04306
 H3112 H 0.24489 0.71320 0.02065
 H3113 H 0.23157 0.75602 0.03758
 H3114 H 0.22145 0.74401 0.05993
 C3115 C 0.19194 0.21472 0.60902
 C3116 C 0.19804 0.22175 0.59656
 C3117 C 0.20745 0.21396 0.58693
 C3118 C 0.21078 0.19898 0.58994
 C3119 C 0.20479 0.19197 0.60244
 C3120 C 0.19528 0.19975 0.61213
 N3121 N 0.21345 0.22144 0.57420
 N3122 N 0.22111 0.21458 0.56447
 C3123 C 0.22727 0.22184 0.55171
 C3124 C 0.23444 0.21320 0.54096
 C3125 C 0.24057 0.21983 0.52833
 C3126 C 0.23974 0.23529 0.52635
 C3127 C 0.23254 0.24400 0.53713
 C3128 C 0.22632 0.23733 0.54974
 H3129 H 0.18476 0.22109 0.61629
 H3130 H 0.19540 0.23330 0.59438
 H3131 H 0.21801 0.19269 0.58265
 H3132 H 0.20748 0.18040 0.60440
 H3133 H 0.23523 0.20126 0.54235
 H3134 H 0.24608 0.21293 0.52015
 H3135 H 0.23167 0.25593 0.53572
 H3136 H 0.22081 0.24424 0.55790
   
