data_POSCAR
  _audit_creation_date              2014-09-24
  _audit_creation_method            'ToBaCCo'
  _symmetry_space_group_name_H-M    'P1'
  _symmetry_Int_Tables_number       1
  _symmetry_cell_setting            triclinic
  loop_
  _symmetry_equiv_pos_as_xyz
 x,y,z
_cell_length_a 60.4361
_cell_length_b 60.4359
_cell_length_c 60.4078
_cell_angle_alpha 89.991100
_cell_angle_beta 89.992000
_cell_angle_gamma 89.990500
loop_
  _atom_site_label
  _atom_site_type_symbol
  _atom_site_fract_x
  _atom_site_fract_y
  _atom_site_fract_z
C1 C 0.33936 1.36872 0.33958
 C2 C 0.34882 1.37800 0.32050
 C3 C 0.36781 1.36857 0.31069
 C4 C 0.37730 1.34968 0.32061
 C5 C 0.36800 1.34025 0.33968
 C6 C 0.34896 1.34977 0.34919
 C7 C 0.32026 1.37799 0.34902
 C8 C 0.31043 1.36854 0.36799
 C9 C 0.32033 1.34965 0.37750
 C10 C 0.33941 1.34023 0.36823
 C11 C 0.34894 1.32123 0.37758
 C12 C 0.36788 1.31151 0.36813
 C13 C 0.37735 1.32125 0.34921
 H14 H 0.34118 1.39252 0.31324
 H15 H 0.39189 1.34208 0.31344
 H16 H 0.31301 1.39251 0.34136
 H17 H 0.31315 1.34204 0.39208
 H18 H 0.34143 1.31392 0.39214
 H19 H 0.39192 1.31395 0.34172
 C20 C 0.33932 0.86869 0.84023
 C21 C 0.34883 0.87800 0.82119
 C22 C 0.36778 0.86855 0.81149
 C23 C 0.37728 0.84967 0.82127
 C24 C 0.36796 0.84019 0.84031
 C25 C 0.34889 0.84971 0.84982
 C26 C 0.32022 0.87796 0.84965
 C27 C 0.31035 0.86847 0.86858
 C28 C 0.32021 0.84955 0.87807
 C29 C 0.33931 0.84013 0.86881
 C30 C 0.34881 0.82109 0.87813
 C31 C 0.36776 0.81139 0.86868
 C32 C 0.37727 0.82116 0.84980
 H33 H 0.34131 0.89253 0.81383
 H34 H 0.39186 0.84217 0.81399
 H35 H 0.31300 0.89250 0.84201
 H36 H 0.31299 0.84191 0.89262
 H37 H 0.34128 0.81375 0.89266
 H38 H 0.39185 0.81387 0.84231
 C39 C 0.83995 1.36869 0.83940
 C40 C 0.84935 1.37795 0.82029
 C41 C 0.86830 1.36848 0.81043
 C42 C 0.87781 1.34959 0.82032
 C43 C 0.86857 1.34018 0.83943
 C44 C 0.84957 1.34973 0.84901
 C45 C 0.82090 1.37798 0.84891
 C46 C 0.81122 1.36853 0.86788
 C47 C 0.82103 1.34968 0.87741
 C48 C 0.84007 1.34022 0.86809
 C49 C 0.84959 1.32122 0.87743
 C50 C 0.86848 1.31147 0.86792
 C51 C 0.87791 1.32117 0.84896
 H52 H 0.84170 1.39247 0.81305
 H53 H 0.89237 1.34197 0.81311
 H54 H 0.81352 1.39248 0.84137
 H55 H 0.81377 1.34219 0.89200
 H56 H 0.84212 1.31393 0.89202
 H57 H 0.89245 1.31384 0.84143
 C58 C 0.84026 0.86887 0.33960
 C59 C 0.84969 0.87815 0.32051
 C60 C 0.86862 0.86867 0.31065
 C61 C 0.87810 0.84974 0.32051
 C62 C 0.86883 0.84031 0.33960
 C63 C 0.84983 0.84987 0.34917
 C64 C 0.82121 0.87816 0.34909
 C65 C 0.81148 0.86869 0.36802
 C66 C 0.82125 0.84980 0.37753
 C67 C 0.84029 0.84033 0.36822
 C68 C 0.84977 0.82129 0.37753
 C69 C 0.86866 0.81153 0.36803
 C70 C 0.87813 0.82126 0.34909
 H71 H 0.84206 0.89269 0.31330
 H72 H 0.89265 0.84212 0.31329
 H73 H 0.81387 0.89269 0.34157
 H74 H 0.81395 0.84229 0.39209
 H75 H 0.84226 0.81399 0.39210
 H76 H 0.89266 0.81392 0.34157
 C77 C 0.65980 0.63123 0.33958
 C78 C 0.65036 0.62196 0.32049
 C79 C 0.63141 0.63143 0.31065
 C80 C 0.62193 0.65035 0.32054
 C81 C 0.63121 0.65977 0.33962
 C82 C 0.65022 0.65021 0.34917
 C83 C 0.67886 0.62194 0.34905
 C84 C 0.68859 0.63141 0.36798
 C85 C 0.67881 0.65028 0.37750
 C86 C 0.65976 0.65975 0.36821
 C87 C 0.65028 0.67877 0.37753
 C88 C 0.63138 0.68853 0.36805
 C89 C 0.62190 0.67881 0.34912
 H90 H 0.65799 0.60742 0.31326
 H91 H 0.60737 0.65797 0.31334
 H92 H 0.68621 0.60742 0.34151
 H93 H 0.68612 0.65778 0.39206
 H94 H 0.65779 0.68607 0.39210
 H95 H 0.60736 0.68614 0.34162
 C96 C 0.66082 0.13157 0.83995
 C97 C 0.65132 0.12226 0.82090
 C98 C 0.63234 0.13169 0.81123
 C99 C 0.62281 0.15054 0.82104
 C100 C 0.63212 0.16001 0.84007
 C101 C 0.65121 0.15052 0.84957
 C102 C 0.67994 0.12233 0.84935
 C103 C 0.68980 0.13181 0.86829
 C104 C 0.67989 0.15071 0.87781
 C105 C 0.66078 0.16010 0.86856
 C106 C 0.65124 0.17910 0.87791
 C107 C 0.63226 0.18877 0.86848
 C108 C 0.62277 0.17900 0.84959
 H109 H 0.65887 0.10776 0.81353
 H110 H 0.60821 0.15801 0.81378
 H111 H 0.68719 0.10782 0.84170
 H112 H 0.68710 0.15834 0.89236
 H113 H 0.65875 0.18644 0.89244
 H114 H 0.60817 0.18626 0.84212
 C115 C 1.16065 0.63131 0.84012
 C116 C 1.15115 0.62200 0.82108
 C117 C 1.13220 0.63145 0.81138
 C118 C 1.12270 0.65033 0.82115
 C119 C 1.13202 0.65982 0.84018
 C120 C 1.15108 0.65030 0.84970
 C121 C 1.17975 0.62205 0.84954
 C122 C 1.18962 0.63154 0.86847
 C123 C 1.17975 0.65047 0.87795
 C124 C 1.16066 0.65989 0.86868
 C125 C 1.15115 0.67893 0.87799
 C126 C 1.13220 0.68863 0.86853
 C127 C 1.12270 0.67885 0.84965
 H128 H 1.15867 0.60747 0.81374
 H129 H 1.10812 0.65782 0.81387
 H130 H 1.18696 0.60751 0.84191
 H131 H 1.18697 0.65810 0.89249
 H132 H 1.15867 0.68628 0.89252
 H133 H 1.10812 0.68612 0.84216
 C134 C 1.16090 0.13159 0.33919
 C135 C 1.15145 0.12231 0.32010
 C136 C 1.13247 0.13175 0.31029
 C137 C 1.12297 0.15064 0.32020
 C138 C 1.13226 0.16007 0.33927
 C139 C 1.15130 0.15054 0.34879
 C140 C 1.17999 0.12232 0.34864
 C141 C 1.18980 0.13176 0.36762
 C142 C 1.17990 0.15065 0.37712
 C143 C 1.16083 0.16007 0.36783
 C144 C 1.15130 0.17907 0.37719
 C145 C 1.13237 0.18879 0.36773
 C146 C 1.12291 0.17907 0.34880
 H147 H 1.15909 0.10779 0.31285
 H148 H 1.10838 0.15824 0.31303
 H149 H 1.18724 0.10779 0.34100
 H150 H 1.18706 0.15825 0.39171
 H151 H 1.15879 0.18637 0.39176
 H152 H 1.10834 0.18637 0.34131
 C153 C 0.66068 1.36862 0.66000
 C154 C 0.65116 1.37793 0.67905
 C155 C 0.63219 1.36850 0.68873
 C156 C 0.62268 1.34964 0.67893
 C157 C 0.63201 1.34016 0.65990
 C158 C 0.65109 1.34966 0.65040
 C159 C 0.67979 1.37786 0.65060
 C160 C 0.68966 1.36838 0.63167
 C161 C 0.67978 1.34948 0.62216
 C162 C 0.66067 1.34008 0.63141
 C163 C 0.65116 1.32106 0.62208
 C164 C 0.63219 1.31138 0.63151
 C165 C 0.62268 1.32116 0.65039
 H166 H 0.65869 1.39244 0.68642
 H167 H 0.60808 1.34216 0.68619
 H168 H 0.68702 1.39239 0.65825
 H169 H 0.68700 1.34185 0.60762
 H170 H 0.65868 1.31371 0.60755
 H171 H 0.60808 1.31389 0.65787
 C172 C 0.65983 0.86874 1.16055
 C173 C 0.65038 0.87802 1.17963
 C174 C 0.63144 0.86856 1.18948
 C175 C 0.62197 0.84963 1.17962
 C176 C 0.63126 0.84019 1.16055
 C177 C 0.65026 0.84975 1.15098
 C178 C 0.67888 0.87803 1.15106
 C179 C 0.68861 0.86856 1.13213
 C180 C 0.67885 0.84967 1.12263
 C181 C 0.65981 0.84020 1.13194
 C182 C 0.65033 0.82116 1.12263
 C183 C 0.63144 0.81141 1.13213
 C184 C 0.62196 0.82114 1.15106
 H185 H 0.65800 0.89257 1.18684
 H186 H 0.60742 0.84200 1.18683
 H187 H 0.68621 0.89257 1.15858
 H188 H 0.68616 0.84216 1.10807
 H189 H 0.65784 0.81386 1.10807
 H190 H 0.60742 0.81382 1.15858
 C191 C 1.16015 1.36912 1.15939
 C192 C 1.15064 1.37845 1.17841
 C193 C 1.13167 1.36901 1.18811
 C194 C 1.12216 1.35015 1.17832
 C195 C 1.13149 1.34065 1.15930
 C196 C 1.15058 1.35015 1.14980
 C197 C 1.17927 1.37835 1.15000
 C198 C 1.18918 1.36884 1.13110
 C199 C 1.17931 1.34993 1.12160
 C200 C 1.16018 1.34054 1.13083
 C201 C 1.15068 1.32150 1.12153
 C202 C 1.13172 1.31183 1.13097
 C203 C 1.12218 1.32163 1.14982
 H204 H 1.15817 1.39296 1.18577
 H205 H 1.10757 1.34267 1.18560
 H206 H 1.18649 1.39289 1.15764
 H207 H 1.18656 1.34227 1.10708
 H208 H 1.15823 1.31413 1.10702
 H209 H 1.10759 1.31437 1.15731
 C210 C 1.16061 0.86870 0.65980
 C211 C 1.15109 0.87802 0.67884
 C212 C 1.13214 0.86858 0.68853
 C213 C 1.12263 0.84970 0.67875
 C214 C 1.13196 0.84021 0.65973
 C215 C 1.15104 0.84971 0.65022
 C216 C 1.17972 0.87794 0.65040
 C217 C 1.18960 0.86845 0.63148
 C218 C 1.17974 0.84952 0.62199
 C219 C 1.16063 0.84012 0.63124
 C220 C 1.15113 0.82108 0.62193
 C221 C 1.13217 0.81140 0.63138
 C222 C 1.12265 0.82119 0.65025
 H223 H 1.15862 0.89254 0.68619
 H224 H 1.10805 0.84222 0.68603
 H225 H 1.18693 0.89248 0.65803
 H226 H 1.18697 0.84188 0.60745
 H227 H 1.15866 0.81372 0.60741
 H228 H 1.10806 0.81392 0.65774
 C229 C 0.34091 0.63046 0.65905
 C230 C 0.35036 0.62117 0.67812
 C231 C 0.36923 0.63068 0.68790
 C232 C 0.37873 0.64959 0.67816
 C233 C 0.36946 0.65905 0.65909
 C234 C 0.35047 0.64948 0.64950
 C235 C 0.32187 0.62117 0.64957
 C236 C 0.31211 0.63068 0.63067
 C237 C 0.32186 0.64959 0.62118
 C238 C 0.34091 0.65905 0.63048
 C239 C 0.35035 0.67813 0.62121
 C240 C 0.36923 0.68789 0.63074
 C241 C 0.37873 0.67813 0.64964
 H242 H 0.34283 0.60663 0.68544
 H243 H 0.39324 0.65712 0.68551
 H244 H 0.31454 0.60663 0.65709
 H245 H 0.31453 0.65712 0.60664
 H246 H 0.34283 0.68546 0.60668
 H247 H 0.39325 0.68546 0.65719
 C248 C 0.34030 0.13096 1.16032
 C249 C 0.34971 0.12170 1.17943
 C250 C 0.36864 0.13118 1.18929
 C251 C 0.37814 0.15008 1.17941
 C252 C 0.36889 0.15950 1.16030
 C253 C 0.34990 0.14993 1.15072
 C254 C 0.32126 0.12167 1.15082
 C255 C 0.31156 0.13114 1.13187
 C256 C 0.32135 0.15000 1.12235
 C257 C 0.34039 0.15946 1.13166
 C258 C 0.34988 0.17848 1.12234
 C259 C 0.36876 0.18824 1.13185
 C260 C 0.37821 0.17852 1.15080
 H261 H 0.34206 0.10718 1.18666
 H262 H 0.39268 0.15771 1.18662
 H263 H 0.31389 0.10716 1.15836
 H264 H 0.31407 0.15750 1.10777
 H265 H 0.34239 0.18578 1.10776
 H266 H 0.39274 0.18586 1.15832
 C267 C 0.84092 0.63051 1.15900
 C268 C 0.85042 0.62120 1.17804
 C269 C 0.86934 0.63069 1.18776
 C270 C 0.87882 0.64959 1.17800
 C271 C 0.86950 0.65907 1.15897
 C272 C 0.85047 0.64953 1.14943
 C273 C 0.82184 0.62125 1.14958
 C274 C 0.81204 0.63079 1.13071
 C275 C 0.82177 0.64969 1.12120
 C276 C 0.84086 0.65913 1.13045
 C277 C 0.85030 0.67820 1.12117
 C278 C 0.86921 0.68794 1.13065
 C279 C 0.87876 0.67814 1.14951
 H280 H 0.84291 0.60666 1.18537
 H281 H 0.89337 0.65710 1.18531
 H282 H 0.81452 0.60671 1.15711
 H283 H 0.81440 0.65724 1.10670
 H284 H 0.84274 0.68556 1.10667
 H285 H 0.89331 0.68545 1.15702
 C286 C 0.83875 0.13194 0.66115
 C287 C 0.84822 0.12266 0.68024
 C288 C 0.86721 0.13208 0.69003
 C289 C 0.87671 0.15096 0.68011
 C290 C 0.86741 0.16039 0.66104
 C291 C 0.84836 0.15088 0.65153
 C292 C 0.81967 0.12267 0.65171
 C293 C 0.80986 0.13210 0.63271
 C294 C 0.81976 0.15099 0.62320
 C295 C 0.83884 0.16041 0.63249
 C296 C 0.84838 0.17939 0.62311
 C297 C 0.86733 0.18910 0.63255
 C298 C 0.87678 0.17938 0.65149
 H299 H 0.84058 0.10814 0.68751
 H300 H 0.89131 0.15855 0.68726
 H301 H 0.81241 0.10815 0.65936
 H302 H 0.81260 0.15859 0.60861
 H303 H 0.84089 0.18670 0.60854
 H304 H 0.89136 0.18666 0.65897
 C305 C 1.36809 0.33873 0.66130
 C306 C 1.37736 0.34817 0.68040
 C307 C 1.36793 0.36716 0.69021
 C308 C 1.34905 0.37667 0.68029
 C309 C 1.33963 0.36739 0.66121
 C310 C 1.34916 0.34835 0.65168
 C311 C 1.37738 0.31965 0.65183
 C312 C 1.36796 0.30987 0.63282
 C313 C 1.34908 0.31979 0.62332
 C314 C 1.33965 0.33885 0.63262
 C315 C 1.32067 0.34840 0.62324
 C316 C 1.31095 0.36734 0.63270
 C317 C 1.32065 0.37677 0.65166
 H318 H 1.39187 0.34052 0.68766
 H319 H 1.34145 0.39125 0.68746
 H320 H 1.39189 0.31239 0.65948
 H321 H 1.34149 0.31264 0.60871
 H322 H 1.31339 0.34093 0.60865
 H323 H 1.31335 0.39134 0.65914
 C324 C 1.36877 0.83952 1.15971
 C325 C 1.37810 0.84905 1.17873
 C326 C 1.36868 0.86805 1.18839
 C327 C 1.34983 0.87757 1.17859
 C328 C 1.34033 0.86822 1.15958
 C329 C 1.34980 0.84912 1.15011
 C330 C 1.37798 0.82038 1.15034
 C331 C 1.36847 0.81048 1.13144
 C332 C 1.34956 0.82037 1.12194
 C333 C 1.34019 0.83951 1.13115
 C334 C 1.32117 0.84903 1.12183
 C335 C 1.31151 0.86802 1.13124
 C336 C 1.32132 0.87755 1.15009
 H337 H 1.39260 0.84152 1.18611
 H338 H 1.34236 0.89218 1.18583
 H339 H 1.39251 0.81315 1.15799
 H340 H 1.34190 0.81313 1.10742
 H341 H 1.31379 0.84148 1.10732
 H342 H 1.31407 0.89216 1.15755
 C343 C 0.86881 0.33952 1.15974
 C344 C 0.87816 0.34905 1.17875
 C345 C 0.86872 0.36800 1.18846
 C346 C 0.84982 0.37749 1.17871
 C347 C 0.84030 0.36815 1.15971
 C348 C 0.84981 0.34908 1.15019
 C349 C 0.87806 0.32042 1.15033
 C350 C 0.86854 0.31052 1.13144
 C351 C 0.84959 0.32037 1.12198
 C352 C 0.84019 0.33948 1.13123
 C353 C 0.82112 0.34897 1.12196
 C354 C 0.81143 0.36792 1.13141
 C355 C 0.82125 0.37745 1.15026
 H356 H 0.89270 0.34153 1.18608
 H357 H 0.84234 0.39207 1.18600
 H358 H 0.89262 0.31322 1.15795
 H359 H 0.84193 0.31313 1.10746
 H360 H 0.81374 0.34142 1.10745
 H361 H 0.81399 0.39203 1.15776
 C362 C 0.86932 0.84075 0.65925
 C363 C 0.87860 0.85022 0.67831
 C364 C 0.86910 0.86912 0.68805
 C365 C 0.85020 0.87862 0.67829
 C366 C 0.84075 0.86933 0.65923
 C367 C 0.85032 0.85031 0.64967
 C368 C 0.87860 0.82168 0.64980
 C369 C 0.86910 0.81192 0.63090
 C370 C 0.85021 0.82167 0.62139
 C371 C 0.84075 0.84074 0.63066
 C372 C 0.82170 0.85019 0.62137
 C373 C 0.81194 0.86909 0.63086
 C374 C 0.82169 0.87860 0.64976
 H375 H 0.89313 0.84269 0.68565
 H376 H 0.84268 0.89315 0.68561
 H377 H 0.89314 0.81435 0.65733
 H378 H 0.84269 0.81433 0.60685
 H379 H 0.81437 0.84266 0.60683
 H380 H 0.81436 0.89314 0.65727
 C381 C 0.63073 0.65936 0.65935
 C382 C 0.62145 0.64991 0.67842
 C383 C 0.63094 0.63101 0.68818
 C384 C 0.64984 0.62151 0.67843
 C385 C 0.65931 0.63078 0.65936
 C386 C 0.64975 0.64979 0.64979
 C387 C 0.62146 0.67842 0.64988
 C388 C 0.63096 0.68818 0.63098
 C389 C 0.64986 0.67842 0.62148
 C390 C 0.65932 0.65936 0.63077
 C391 C 0.67838 0.64990 0.62149
 C392 C 0.68813 0.63100 0.63100
 C393 C 0.67837 0.62150 0.64990
 H394 H 0.60691 0.65744 0.68574
 H395 H 0.65736 0.60697 0.68577
 H396 H 0.60692 0.68575 0.65741
 H397 H 0.65739 0.68575 0.60694
 H398 H 0.68571 0.65742 0.60695
 H399 H 0.68570 0.60697 0.65743
 C400 C 0.63110 1.16047 1.15964
 C401 C 0.62175 1.15093 1.17865
 C402 C 0.63120 1.13197 1.18835
 C403 C 0.65010 1.12249 1.17859
 C404 C 0.65962 1.13185 1.15959
 C405 C 0.65011 1.15092 1.15008
 C406 C 0.62185 1.17957 1.15025
 C407 C 0.63136 1.18949 1.13136
 C408 C 0.65031 1.17966 1.12189
 C409 C 0.65972 1.16054 1.13113
 C410 C 0.67879 1.15107 1.12184
 C411 C 0.68849 1.13211 1.13129
 C412 C 0.67867 1.12256 1.15013
 H413 H 0.60721 1.15843 1.18598
 H414 H 0.65758 1.10791 1.18587
 H415 H 0.60728 1.18676 1.15787
 H416 H 0.65797 1.18692 1.10737
 H417 H 0.68617 1.15863 1.10734
 H418 H 0.68595 1.10798 1.15762
 C419 C 0.13159 0.66102 1.16095
 C420 C 0.12230 0.65155 1.18003
 C421 C 0.13172 0.63254 1.18981
 C422 C 0.15059 0.62303 1.17987
 C423 C 0.16002 0.63233 1.16081
 C424 C 0.15052 0.65140 1.15131
 C425 C 0.12234 0.68013 1.15152
 C426 C 0.13178 0.68995 1.13254
 C427 C 0.15066 0.68004 1.12302
 C428 C 0.16006 0.66094 1.13228
 C429 C 0.17905 0.65139 1.12290
 C430 C 0.18873 0.63242 1.13234
 C431 C 0.17899 0.62296 1.15126
 H432 H 0.10780 0.65920 1.18730
 H433 H 0.15817 0.60842 1.18701
 H434 H 0.10783 0.68739 1.15918
 H435 H 0.15826 0.68722 1.10843
 H436 H 0.18636 0.65888 1.10834
 H437 H 0.18626 0.60836 1.15873
 C438 C 0.13084 1.15951 0.66018
 C439 C 0.12161 1.15011 0.67931
 C440 C 0.13110 1.13118 0.68917
 C441 C 0.14999 1.12167 0.67926
 C442 C 0.15938 1.13091 0.66014
 C443 C 0.14980 1.14990 0.65057
 C444 C 0.12155 1.17856 0.65069
 C445 C 0.13099 1.18825 0.63172
 C446 C 0.14983 1.17844 0.62218
 C447 C 0.15930 1.15940 0.63148
 C448 C 0.17830 1.14991 0.62214
 C449 C 0.18808 1.13103 0.63164
 C450 C 0.17840 1.12158 0.65061
 H451 H 0.10710 1.15776 0.68656
 H452 H 0.15763 1.10712 0.68648
 H453 H 0.10705 1.18594 0.65824
 H454 H 0.15731 1.18571 0.60758
 H455 H 0.18558 1.15739 0.60754
 H456 H 0.18575 1.10706 0.65814
 C457 C 1.36845 0.66097 0.33928
 C458 C 1.37774 0.65149 0.32021
 C459 C 1.36833 0.63248 0.31044
 C460 C 1.34946 0.62298 0.32038
 C461 C 1.34002 0.63229 0.33943
 C462 C 1.34952 0.65136 0.34891
 C463 C 1.37770 0.68009 0.34869
 C464 C 1.36825 0.68992 0.36766
 C465 C 1.34937 0.68002 0.37719
 C466 C 1.33997 0.66092 0.36794
 C467 C 1.32099 0.65138 0.37731
 C468 C 1.31130 0.63241 0.36789
 C469 C 1.32104 0.62294 0.34898
 H470 H 1.39225 0.65913 0.31293
 H471 H 1.34188 0.60837 0.31324
 H472 H 1.39221 0.68734 0.34103
 H473 H 1.34176 0.68720 0.39176
 H474 H 1.31367 0.65888 0.39187
 H475 H 1.31377 0.60834 0.34152
 C476 C 1.36878 1.16055 0.84024
 C477 C 1.37808 1.15106 0.82117
 C478 C 1.36864 1.13211 0.81148
 C479 C 1.34979 1.12258 0.82128
 C480 C 1.34032 1.13188 0.84032
 C481 C 1.34982 1.15094 0.84984
 C482 C 1.37802 1.17965 0.84965
 C483 C 1.36854 1.18950 0.86860
 C484 C 1.34964 1.17960 0.87810
 C485 C 1.34024 1.16050 0.86884
 C486 C 1.32123 1.15097 0.87817
 C487 C 1.31154 1.13202 0.86872
 C488 C 1.32131 1.12253 0.84983
 H489 H 1.39259 1.15860 0.81380
 H490 H 1.34231 1.10800 0.81400
 H491 H 1.39255 1.18689 0.84200
 H492 H 1.34201 1.18680 0.89266
 H493 H 1.31388 1.15848 0.89271
 H494 H 1.31404 1.10795 0.84233
 C495 C 0.86887 0.65965 0.84048
 C496 C 0.87817 0.65017 0.82143
 C497 C 0.86868 0.63127 0.81168
 C498 C 0.84977 0.62178 0.82143
 C499 C 0.84030 0.63108 0.84048
 C500 C 0.84985 0.65009 0.85004
 C501 C 0.87814 0.67871 0.84993
 C502 C 0.86863 0.68848 0.86883
 C503 C 0.84973 0.67873 0.87833
 C504 C 0.84027 0.65967 0.86905
 C505 C 0.82121 0.65022 0.87833
 C506 C 0.81147 0.63131 0.86884
 C507 C 0.82123 0.62180 0.84995
 H508 H 0.89271 0.65769 0.81410
 H509 H 0.84226 0.60724 0.81411
 H510 H 0.89269 0.68603 0.84241
 H511 H 0.84220 0.68607 0.89286
 H512 H 0.81387 0.65775 0.89287
 H513 H 0.81391 0.60726 0.84243
 C514 C 0.86904 1.15961 0.33988
 C515 C 0.87832 1.15019 0.32079
 C516 C 0.86884 1.13128 0.31091
 C517 C 0.84990 1.12180 0.32076
 C518 C 0.84047 1.13107 0.33985
 C519 C 0.85004 1.15005 0.34944
 C520 C 0.87834 1.17864 0.34938
 C521 C 0.86887 1.18837 0.36831
 C522 C 0.84997 1.17861 0.37781
 C523 C 0.84049 1.15958 0.36849
 C524 C 0.82144 1.15012 0.37778
 C525 C 0.81168 1.13124 0.36826
 C526 C 0.82141 1.12178 0.34933
 H527 H 0.89287 1.15781 0.31358
 H528 H 0.84227 1.10727 0.31353
 H529 H 0.89288 1.18598 0.34187
 H530 H 0.84246 1.18591 0.39237
 H531 H 0.81413 1.15762 0.39234
 H532 H 0.81407 1.10726 0.34179
 C533 C 0.63100 0.34049 0.33998
 C534 C 0.62171 0.34993 0.32091
 C535 C 0.63120 0.36885 0.31103
 C536 C 0.65013 0.37832 0.32088
 C537 C 0.65957 0.36903 0.33996
 C538 C 0.65000 0.35005 0.34954
 C539 C 0.62170 0.32145 0.34948
 C540 C 0.63118 0.31171 0.36840
 C541 C 0.65008 0.32146 0.37789
 C542 C 0.65955 0.34050 0.36858
 C543 C 0.67860 0.34995 0.37787
 C544 C 0.68837 0.36883 0.36835
 C545 C 0.67863 0.37832 0.34943
 H546 H 0.60716 0.34231 0.31370
 H547 H 0.65777 0.39286 0.31365
 H548 H 0.60716 0.31412 0.34197
 H549 H 0.65759 0.31415 0.39245
 H550 H 0.68591 0.34244 0.39242
 H551 H 0.68598 0.39284 0.34190
 C552 C 0.63078 0.84066 0.84067
 C553 C 0.62150 0.85013 0.82161
 C554 C 0.63099 0.86903 0.81186
 C555 C 0.64989 0.87852 0.82161
 C556 C 0.65935 0.86923 0.84067
 C557 C 0.64979 0.85022 0.85024
 C558 C 0.62150 0.82160 0.85014
 C559 C 0.63100 0.81184 0.86903
 C560 C 0.64990 0.82158 0.87854
 C561 C 0.65936 0.84064 0.86925
 C562 C 0.67842 0.85010 0.87853
 C563 C 0.68817 0.86900 0.86903
 C564 C 0.67841 0.87850 0.85013
 H565 H 0.60696 0.84261 0.81428
 H566 H 0.65741 0.89306 0.81428
 H567 H 0.60696 0.81428 0.84261
 H568 H 0.65742 0.81424 0.89307
 H569 H 0.68576 0.84257 0.89307
 H570 H 0.68573 0.89304 0.84261
 C571 C 0.13123 0.33936 0.84024
 C572 C 0.12194 0.34887 0.82119
 C573 C 0.13138 0.36784 0.81150
 C574 C 0.15024 0.37735 0.82131
 C575 C 0.15971 0.36802 0.84035
 C576 C 0.15019 0.34895 0.84985
 C577 C 0.12198 0.32025 0.84964
 C578 C 0.13146 0.31038 0.86857
 C579 C 0.15036 0.32026 0.87809
 C580 C 0.15976 0.33937 0.86884
 C581 C 0.17878 0.34887 0.87818
 C582 C 0.18847 0.36783 0.86875
 C583 C 0.17871 0.37735 0.84986
 H584 H 0.10743 0.34134 0.81382
 H585 H 0.15772 0.39193 0.81404
 H586 H 0.10746 0.31303 0.84198
 H587 H 0.15798 0.31304 0.89263
 H588 H 0.18612 0.34134 0.89271
 H589 H 0.18599 0.39193 0.84238
 C590 C 0.13158 0.83916 0.33927
 C591 C 0.12228 0.84863 0.32020
 C592 C 0.13168 0.86762 0.31039
 C593 C 0.15057 0.87713 0.32030
 C594 C 0.16002 0.86783 0.33935
 C595 C 0.15052 0.84877 0.34887
 C596 C 0.12232 0.82006 0.34871
 C597 C 0.13178 0.81023 0.36768
 C598 C 0.15067 0.82014 0.37718
 C599 C 0.16007 0.83923 0.36790
 C600 C 0.17907 0.84876 0.37725
 C601 C 0.18876 0.86772 0.36780
 C602 C 0.17901 0.87718 0.34888
 H603 H 0.10776 0.84098 0.31295
 H604 H 0.15815 0.89173 0.31314
 H605 H 0.10781 0.81281 0.34107
 H606 H 0.15829 0.81296 0.39175
 H607 H 0.18639 0.84126 0.39181
 H608 H 0.18629 0.89177 0.34140
 O609 O 0.97855 0.92028 0.88990
 O610 O 0.97848 0.89457 0.86401
 C611 C 0.97098 0.91257 0.87186
 C612 C 0.95293 0.92443 0.86024
 C613 C 0.94550 0.91723 0.83942
 H614 H 0.95355 0.90328 0.83156
 O615 O 1.02162 1.07983 0.88966
 O616 O 1.02169 1.10558 0.86378
 C617 C 1.02920 1.08757 0.87164
 C618 C 1.04730 1.07576 0.86005
 C619 C 1.05481 1.08302 0.83927
 H620 H 1.04677 1.09697 0.83141
 O621 O 0.88985 0.97870 0.92015
 O622 O 0.86396 0.97864 0.89443
 C623 C 0.87182 0.97114 0.91244
 C624 C 0.86019 0.95310 0.92431
 C625 C 0.83939 0.94565 0.91710
 H626 H 0.83153 0.95367 0.90313
 O627 O 1.11030 1.02160 0.92019
 O628 O 1.13621 1.02160 0.89448
 C629 C 1.12834 1.02913 0.91248
 C630 C 1.13995 1.04719 0.92432
 C631 C 1.16073 1.05469 0.91708
 H632 H 1.16859 1.04669 0.90310
 O633 O 0.92013 0.89009 0.97852
 O634 O 0.89439 0.86423 0.97850
 C635 C 0.91239 0.87207 0.97096
 C636 C 0.92422 0.86043 0.95289
 C637 C 0.91696 0.83965 0.94544
 H638 H 0.90298 0.83182 0.95347
 O639 O 1.07988 1.11014 0.97844
 O640 O 1.10563 1.13599 0.97843
 C641 C 1.08764 1.12815 0.97087
 C642 C 1.07588 1.13975 0.95274
 C643 C 1.08319 1.16049 0.94521
 H644 H 1.09717 1.16832 0.95324
 O645 O 0.92011 1.02184 0.88973
 O646 O 0.89436 1.02180 0.86387
 C647 C 0.91235 1.02936 0.87170
 C648 C 0.92412 1.04746 0.86005
 C649 C 0.91669 1.05506 0.83937
 H650 H 0.90264 1.04710 0.83161
 O651 O 1.07998 0.97847 0.88987
 O652 O 1.10574 0.97843 0.86401
 C653 C 1.08773 0.97091 0.87184
 C654 C 1.07592 0.95285 0.86022
 C655 C 1.08320 0.94537 0.83945
 H656 H 1.09718 0.95339 0.83162
 O657 O 1.02166 0.88985 0.92016
 O658 O 1.02164 0.86399 0.89442
 C659 C 1.02919 0.87181 0.91243
 C660 C 1.04724 0.86016 0.92426
 C661 C 1.05477 0.83941 0.91697
 H662 H 1.04680 0.83159 0.90295
 O663 O 0.97851 1.11019 0.91999
 O664 O 0.97854 1.13609 0.89427
 C665 C 0.97100 1.12824 0.91227
 C666 C 0.95296 1.13990 0.92412
 C667 C 0.94548 1.16067 0.91683
 H668 H 0.95348 1.16847 0.90282
 O669 O 0.88991 1.08014 0.97842
 O670 O 0.86407 1.10591 0.97841
 C671 C 0.87189 1.08791 0.97086
 C672 C 0.86027 1.07613 0.95276
 C673 C 0.83955 1.08348 0.94519
 H674 H 0.83174 1.09749 0.95318
 O675 O 1.11014 0.92003 0.97854
 O676 O 1.13602 0.89430 0.97853
 C677 C 1.12817 0.91229 0.97098
 C678 C 1.13979 0.92410 0.95289
 C679 C 1.16054 0.91679 0.94536
 H680 H 1.16835 0.90278 0.95335
 O681 O 0.97844 1.08000 0.88956
 O682 O 0.97846 1.10576 0.86370
 C683 C 0.97088 1.08778 0.87154
 C684 C 0.95273 1.07603 0.85996
 C685 C 0.94507 1.08342 0.83927
 H686 H 0.95301 1.09745 0.83144
 O687 O 1.02171 0.92018 0.88986
 O688 O 1.02169 0.89446 0.86397
 C689 C 1.02925 0.91245 0.87182
 C690 C 1.04733 0.92425 0.86020
 C691 C 1.05484 0.91699 0.83943
 H692 H 1.04684 0.90301 0.83158
 O693 O 1.11024 0.97842 0.92021
 O694 O 1.13614 0.97838 0.89450
 C695 C 1.12826 0.97085 0.91249
 C696 C 1.13984 0.95273 0.92430
 C697 C 1.16058 0.94519 0.91700
 H698 H 1.16842 0.95319 0.90301
 O699 O 0.88988 1.02187 0.92012
 O700 O 0.86399 1.02184 0.89439
 C701 C 0.87185 1.02941 0.91238
 C702 C 0.86025 1.04752 0.92416
 C703 C 0.83953 1.05509 0.91683
 H704 H 0.83171 1.04710 0.90282
 O705 O 0.92031 1.11035 0.97844
 O706 O 0.89461 1.13626 0.97843
 C707 C 0.91260 1.12839 0.97089
 C708 C 0.92441 1.13998 0.95278
 C709 C 0.91716 1.16075 0.94527
 H710 H 0.90320 1.16861 0.95329
 O711 O 1.07979 0.88976 0.97858
 O712 O 1.10554 0.86390 0.97858
 C713 C 1.08754 0.87174 0.97103
 C714 C 1.07576 0.86014 0.95294
 C715 C 1.08306 0.83939 0.94543
 H716 H 1.09703 0.83155 0.95347
 O717 O 1.08003 1.02163 0.88982
 O718 O 1.10579 1.02163 0.86397
 C719 C 1.08779 1.02917 0.87179
 C720 C 1.07597 1.04722 0.86013
 C721 C 1.08325 1.05471 0.83935
 H722 H 1.09726 1.04672 0.83153
 O723 O 0.92021 0.97867 0.88988
 O724 O 0.89447 0.97860 0.86400
 C725 C 0.91248 0.97109 0.87186
 C726 C 0.92433 0.95303 0.86024
 C727 C 0.91713 0.94560 0.83942
 H728 H 0.90318 0.95364 0.83155
 O729 O 1.02166 1.11014 0.91995
 O730 O 1.02174 1.13604 0.89423
 C731 C 1.02925 1.12816 0.91223
 C732 C 1.04733 1.13975 0.92407
 C733 C 1.05488 1.16050 0.91678
 H734 H 1.04690 1.16832 0.90277
 O735 O 0.97850 0.88997 0.92020
 O736 O 0.97843 0.86411 0.89446
 C737 C 0.97092 0.87196 0.91247
 C738 C 0.95283 0.86038 0.92430
 C739 C 0.94535 0.83960 0.91707
 H740 H 0.95338 0.83173 0.90311
 O741 O 1.11020 1.07984 0.97853
 O742 O 1.13608 1.10556 0.97854
 C743 C 1.12825 1.08757 0.97100
 C744 C 1.13990 1.07575 0.95295
 C745 C 1.16068 1.08302 0.94549
 H746 H 1.16849 1.09700 0.95354
 O747 O 0.88986 0.92043 0.97856
 O748 O 0.86398 0.89471 0.97854
 C749 C 0.87183 0.91271 0.97101
 C750 C 0.86020 0.92454 0.95295
 C751 C 0.83939 0.91731 0.94552
 H752 H 0.83155 0.90336 0.95358
 Cu753 Cu 1.00011 0.90765 0.90761
 Cu754 Cu 1.00005 0.87669 0.87662
 Cu755 Cu 1.00005 1.09245 0.90736
 Cu756 Cu 1.00012 1.12346 0.87640
 Cu757 Cu 0.90759 1.00027 0.90755
 Cu758 Cu 0.87660 1.00021 0.87658
 Cu759 Cu 1.09256 1.00004 0.90760
 Cu760 Cu 1.12357 1.00001 0.87665
 C761 C 0.94237 0.94247 0.87040
 H762 H 0.94782 0.94792 0.88659
 C763 C 0.92761 0.92771 0.82884
 C764 C 1.05786 1.05772 0.87022
 H765 H 1.05234 1.05223 0.88638
 C766 C 1.07278 1.07261 0.82875
 C767 C 0.87035 0.94257 0.94237
 H768 H 0.88652 0.94803 0.94783
 C769 C 0.82882 0.92776 0.92760
 C770 C 1.12979 1.05769 0.94239
 H771 H 1.11363 1.05219 0.94787
 C772 C 1.17126 1.07261 0.92756
 C773 C 0.94229 0.87055 0.94235
 H774 H 0.94778 0.88671 0.94782
 C775 C 0.92742 0.82906 0.92753
 C776 C 1.05781 1.12963 0.94219
 H777 H 1.05227 1.11350 0.94771
 C778 C 1.07281 1.17104 0.92723
 C779 C 0.94227 1.05791 0.87009
 H780 H 0.94789 1.05232 0.88617
 C781 C 0.92704 1.07305 0.82881
 C782 C 1.05785 0.94232 0.87035
 H783 H 1.05234 0.94782 0.88650
 C784 C 1.07278 0.92744 0.82888
 C785 C 1.05771 0.87027 0.94238
 H786 H 1.05219 0.88641 0.94789
 C787 C 1.07268 0.82885 0.92745
 C788 C 0.94245 1.12980 0.94223
 H789 H 0.94794 1.11365 0.94774
 C790 C 0.92758 1.17126 0.92729
 C791 C 0.87037 1.05802 0.94226
 H792 H 0.88648 1.05246 0.94781
 C793 C 0.82901 1.07307 0.92723
 C794 C 1.12969 0.94221 0.94238
 H795 H 1.11356 0.94775 0.94791
 C796 C 1.17110 0.92721 0.92741
 O797 O 1.02163 0.92013 1.11050
 O798 O 1.02156 0.89438 1.13637
 C799 C 1.02914 0.91237 1.12854
 C800 C 1.04723 0.92413 1.14019
 C801 C 1.05479 0.91675 1.16090
 H802 H 1.04680 0.90272 1.16869
 O803 O 0.97853 1.07999 1.11049
 O804 O 0.97851 1.10574 1.13635
 C805 C 0.97098 1.08774 1.12852
 C806 C 0.95290 1.07593 1.14014
 C807 C 0.94540 1.08320 1.16091
 H808 H 0.95342 1.09716 1.16876
 O809 O 0.88991 1.02182 1.08006
 O810 O 0.86402 1.02186 1.10578
 C811 C 0.87189 1.02939 1.08778
 C812 C 0.86029 1.04746 1.07593
 C813 C 0.83951 1.05498 1.08317
 H814 H 0.83166 1.04700 1.09716
 O815 O 1.11008 0.97837 1.08019
 O816 O 1.13601 0.97834 1.10587
 C817 C 1.12813 0.97081 1.08788
 C818 C 1.13974 0.95276 1.07601
 C819 C 1.16054 0.94527 1.08322
 H820 H 1.16840 0.95326 1.09720
 O821 O 1.07988 0.88970 1.02179
 O822 O 1.10564 0.86385 1.02182
 C823 C 1.08765 0.87170 1.02937
 C824 C 1.07588 0.86011 1.04752
 C825 C 1.08324 0.83942 1.05515
 H826 H 1.09726 0.83159 1.04718
 O827 O 0.92027 1.11035 1.02165
 O828 O 0.89457 1.13625 1.02167
 C829 C 0.91255 1.12837 1.02922
 C830 C 0.92434 1.13996 1.04735
 C831 C 0.91703 1.16070 1.05487
 H832 H 0.90306 1.16854 1.04683
 O833 O 0.92017 0.97860 1.11038
 O834 O 0.89442 0.97860 1.13625
 C835 C 0.91241 0.97104 1.12840
 C836 C 0.92420 0.95294 1.14001
 C837 C 0.91690 0.94541 1.16077
 H838 H 0.90291 0.95343 1.16861
 O839 O 1.07984 1.02156 1.11054
 O840 O 1.10562 1.02157 1.13637
 C841 C 1.08762 1.02913 1.12854
 C842 C 1.07588 1.04727 1.14014
 C843 C 1.08328 1.05486 1.16084
 H844 H 1.09727 1.04684 1.16864
 O845 O 0.97851 0.88993 1.08005
 O846 O 0.97840 0.86403 1.10577
 C847 C 0.97093 0.87190 1.08775
 C848 C 0.95289 0.86031 1.07587
 C849 C 0.94548 0.83946 1.08301
 H850 H 0.95353 0.83156 1.09694
 O851 O 1.02165 1.11027 1.08011
 O852 O 1.02168 1.13618 1.10581
 C853 C 1.02920 1.12831 1.08780
 C854 C 1.04723 1.13992 1.07592
 C855 C 1.05470 1.16073 1.08310
 H856 H 1.04671 1.16860 1.09708
 O857 O 0.88984 0.92037 1.02174
 O858 O 0.86397 0.89464 1.02177
 C859 C 0.87182 0.91263 1.02931
 C860 C 0.86020 0.92444 1.04740
 C861 C 0.83945 0.91715 1.05493
 H862 H 0.83161 0.90316 1.04692
 O863 O 1.11010 1.07984 1.02172
 O864 O 1.13598 1.10556 1.02175
 C865 C 1.12812 1.08757 1.02929
 C866 C 1.13972 1.07574 1.04738
 C867 C 1.16051 1.08297 1.05487
 H868 H 1.16836 1.09694 1.04684
 O869 O 1.02170 1.08002 1.11050
 O870 O 1.02174 1.10578 1.13635
 C871 C 1.02927 1.08778 1.12852
 C872 C 1.04737 1.07597 1.14013
 C873 C 1.05500 1.08332 1.16084
 H874 H 1.04707 1.09738 1.16864
 O875 O 0.97846 0.92021 1.11039
 O876 O 0.97835 0.89446 1.13626
 C877 C 0.97086 0.91247 1.12841
 C878 C 0.95277 0.92430 1.14001
 C879 C 0.94524 0.91701 1.16077
 H880 H 0.95323 0.90301 1.16860
 O881 O 1.11006 1.02153 1.08015
 O882 O 1.13598 1.02154 1.10584
 C883 C 1.12810 1.02907 1.08784
 C884 C 1.13971 1.04714 1.07599
 C885 C 1.16049 1.05460 1.08324
 H886 H 1.16833 1.04656 1.09721
 O887 O 0.88986 0.97865 1.08008
 O888 O 0.86397 0.97865 1.10581
 C889 C 0.87182 0.97111 1.08781
 C890 C 0.86020 0.95304 1.07600
 C891 C 0.83945 0.94553 1.08329
 H892 H 0.83162 0.95354 1.09729
 O893 O 1.07983 1.11020 1.02164
 O894 O 1.10558 1.13605 1.02166
 C895 C 1.08757 1.12822 1.02918
 C896 C 1.07575 1.13987 1.04724
 C897 C 1.08300 1.16068 1.05464
 H898 H 1.09695 1.16851 1.04656
 O899 O 0.92018 0.89009 1.02170
 O900 O 0.89445 0.86422 1.02171
 C901 C 0.91246 0.87205 1.02923
 C902 C 0.92430 0.86038 1.04726
 C903 C 0.91712 0.83954 1.05462
 H904 H 0.90318 0.83169 1.04655
 O905 O 1.07985 0.97838 1.11060
 O906 O 1.10564 0.97834 1.13643
 C907 C 1.08763 0.97081 1.12861
 C908 C 1.07584 0.95271 1.14023
 C909 C 1.08318 0.94509 1.16094
 H910 H 1.09721 0.95304 1.16877
 O911 O 0.92018 1.02177 1.11043
 O912 O 0.89443 1.02181 1.13630
 C913 C 0.91244 1.02932 1.12846
 C914 C 0.92427 1.04737 1.14010
 C915 C 0.91700 1.05486 1.16088
 H916 H 0.90301 1.04685 1.16871
 O917 O 0.97850 1.11027 1.08015
 O918 O 0.97847 1.13617 1.10586
 C919 C 0.97094 1.12831 1.08787
 C920 C 0.95286 1.13992 1.07603
 C921 C 0.94532 1.16067 1.08332
 H922 H 0.95329 1.16849 1.09734
 O923 O 1.02167 0.88985 1.08017
 O924 O 1.02160 0.86396 1.10591
 C925 C 1.02919 0.87181 1.08792
 C926 C 1.04730 0.86018 1.07615
 C927 C 1.05488 0.83949 1.08355
 H928 H 1.04691 0.83171 1.09760
 O929 O 1.11006 0.92013 1.02173
 O930 O 1.13595 0.89441 1.02175
 C931 C 1.12809 0.91241 1.02928
 C932 C 1.13971 0.92423 1.04735
 C933 C 1.16051 0.91697 1.05478
 H934 H 1.16834 0.90302 1.04671
 O935 O 0.88997 1.08005 1.02162
 O936 O 0.86413 1.10582 1.02164
 C937 C 0.87196 1.08781 1.02918
 C938 C 0.86033 1.07601 1.04726
 C939 C 0.83955 1.08330 1.05473
 H940 H 0.83173 1.09727 1.04667
 Cu941 Cu 1.00008 0.90761 1.09270
 Cu942 Cu 0.99996 0.87662 1.12367
 Cu943 Cu 1.00010 1.09256 1.09274
 Cu944 Cu 1.00010 1.12356 1.12369
 Cu945 Cu 0.90758 0.90782 1.00013
 Cu946 Cu 0.87660 0.87686 1.00013
 Cu947 Cu 1.09238 0.90748 1.00016
 Cu948 Cu 1.12338 0.87653 1.00017
 Cu949 Cu 0.90769 1.09264 1.00003
 Cu950 Cu 0.87676 1.12366 1.00004
 Cu951 Cu 1.09242 1.09243 1.00008
 Cu952 Cu 1.12341 1.12338 1.00010
 Cu953 Cu 0.90761 1.00021 1.09266
 Cu954 Cu 0.87662 1.00024 1.12363
 Cu955 Cu 1.09237 0.99995 1.09280
 Cu956 Cu 1.12341 0.99995 1.12372
 C957 C 1.05773 0.94225 1.13011
 H958 H 1.05217 0.94783 1.11400
 C959 C 1.07277 0.92711 1.17145
 C960 C 0.94236 1.05788 1.12998
 H961 H 0.94786 1.05239 1.11382
 C962 C 0.92745 1.07277 1.17146
 C963 C 0.87044 1.05796 1.05784
 H964 H 0.88660 1.05244 1.05236
 C965 C 0.82897 1.07290 1.07268
 C966 C 1.12958 0.94226 1.05793
 H967 H 1.11341 0.94775 1.05248
 C968 C 1.17109 0.92738 1.07271
 C969 C 1.05777 0.87024 1.05800
 H970 H 1.05220 0.88633 1.05240
 C971 C 1.07286 0.82894 1.07317
 C972 C 0.94239 1.12981 1.05790
 H973 H 0.94792 1.11368 1.05238
 C974 C 0.92740 1.17123 1.07286
 C975 C 0.94228 0.94240 1.12988
 H976 H 0.94781 0.94792 1.11374
 C977 C 0.92730 0.92745 1.17132
 C978 C 1.05779 1.05781 1.13004
 H979 H 1.05220 1.05224 1.11394
 C980 C 1.07296 1.07288 1.17136
 C981 C 0.94233 0.87052 1.05785
 H982 H 0.94776 0.88672 1.05245
 C983 C 0.92760 0.82891 1.07249
 C984 C 1.05773 1.12975 1.05785
 H985 H 1.05225 1.11357 1.05241
 C986 C 1.07259 1.17128 1.07257
 C987 C 0.87033 0.94251 1.05791
 H988 H 0.88647 0.94802 1.05239
 C989 C 0.82890 0.92759 1.07287
 C990 C 1.12957 1.05768 1.05793
 H991 H 1.11341 1.05221 1.05244
 C992 C 1.17106 1.07251 1.07279
 O993 O 0.97865 0.42006 0.38980
 O994 O 0.97865 0.39434 0.36391
 C995 C 0.97111 0.41233 0.37176
 C996 C 0.95305 0.42415 0.36013
 C997 C 0.94558 0.41687 0.33935
 H998 H 0.95362 0.40290 0.33152
 O999 O 1.02187 0.57996 0.38975
 O1000 O 1.02182 0.60567 0.36384
 C1001 C 1.02940 0.58770 0.37170
 C1002 C 1.04750 0.57593 0.36009
 C1003 C 1.05505 0.58330 0.33937
 H1004 H 1.04704 0.59731 0.33157
 O1005 O 0.88998 0.47837 0.42005
 O1006 O 0.86415 0.47836 0.39427
 C1007 C 0.87196 0.47083 0.41229
 C1008 C 0.86031 0.45278 0.42411
 C1009 C 0.83952 0.44534 0.41684
 H1010 H 0.83170 0.45339 0.40286
 O1011 O 1.11044 0.52163 0.42002
 O1012 O 1.13631 0.52163 0.39427
 C1013 C 1.12847 0.52918 0.41228
 C1014 C 1.14006 0.54727 0.42408
 C1015 C 1.16081 0.55481 0.41679
 H1016 H 1.16866 0.54681 0.40280
 O1017 O 0.92018 0.38979 0.47840
 O1018 O 0.89447 0.36390 0.47831
 C1019 C 0.91248 0.37176 0.47082
 C1020 C 0.92435 0.36015 0.45276
 C1021 C 0.91712 0.33937 0.44527
 H1022 H 0.90314 0.33152 0.45327
 O1023 O 1.08005 0.61034 0.47823
 O1024 O 1.10580 0.63618 0.47827
 C1025 C 1.08781 0.62836 0.47069
 C1026 C 1.07604 0.63999 0.45258
 C1027 C 1.08339 0.66069 0.44498
 H1028 H 1.09742 0.66850 0.45294
 O1029 O 0.92038 0.52150 0.38979
 O1030 O 0.89470 0.52152 0.36385
 C1031 C 0.91269 0.52904 0.37173
 C1032 C 0.92455 0.54707 0.36009
 C1033 C 0.91739 0.55445 0.33924
 H1034 H 0.90346 0.54638 0.33137
 O1035 O 1.08006 0.47852 0.38976
 O1036 O 1.10577 0.47847 0.36386
 C1037 C 1.08777 0.47096 0.37173
 C1038 C 1.07594 0.45290 0.36012
 C1039 C 1.08315 0.44547 0.33930
 H1040 H 1.09708 0.45354 0.33143
 O1041 O 1.02182 0.38973 0.42009
 O1042 O 1.02185 0.36388 0.39432
 C1043 C 1.02938 0.37171 0.41233
 C1044 C 1.04746 0.36009 0.42413
 C1045 C 1.05499 0.33935 0.41681
 H1046 H 1.04699 0.33153 0.40281
 O1047 O 0.97864 0.61022 0.42004
 O1048 O 0.97857 0.63606 0.39426
 C1049 C 0.97105 0.62822 0.41228
 C1050 C 0.95296 0.63983 0.42408
 C1051 C 0.94547 0.66059 0.41680
 H1052 H 0.95351 0.66843 0.40283
 O1053 O 0.88992 0.57985 0.47825
 O1054 O 0.86405 0.60559 0.47823
 C1055 C 0.87190 0.58759 0.47069
 C1056 C 0.86030 0.57578 0.45260
 C1057 C 0.83953 0.58305 0.44508
 H1058 H 0.83169 0.59703 0.45308
 O1059 O 1.11040 0.42008 0.47832
 O1060 O 1.13627 0.39434 0.47832
 C1061 C 1.12842 0.41233 0.47076
 C1062 C 1.14003 0.42414 0.45265
 C1063 C 1.16076 0.41682 0.44508
 H1064 H 1.16858 0.40280 0.45305
 O1065 O 0.97870 0.57987 0.38976
 O1066 O 0.97863 0.60557 0.36384
 C1067 C 0.97114 0.58757 0.37171
 C1068 C 0.95312 0.57568 0.36009
 C1069 C 0.94573 0.58284 0.33923
 H1070 H 0.95378 0.59678 0.33135
 O1071 O 1.02181 0.42011 0.38983
 O1072 O 1.02184 0.39440 0.36393
 C1073 C 1.02935 0.41240 0.37179
 C1074 C 1.04739 0.42426 0.36014
 C1075 C 1.05483 0.41706 0.33932
 H1076 H 1.04682 0.40309 0.33147
 O1077 O 1.11041 0.47846 0.42002
 O1078 O 1.13627 0.47841 0.39426
 C1079 C 1.12842 0.47088 0.41227
 C1080 C 1.14002 0.45277 0.42406
 C1081 C 1.16075 0.44522 0.41672
 H1082 H 1.16856 0.45322 0.40272
 O1083 O 0.88997 0.52153 0.42000
 O1084 O 0.86415 0.52156 0.39421
 C1085 C 0.87197 0.52909 0.41223
 C1086 C 0.86034 0.54717 0.42402
 C1087 C 0.83958 0.55466 0.41672
 H1088 H 0.83176 0.54663 0.40273
 O1089 O 0.92023 0.61015 0.47827
 O1090 O 0.89450 0.63603 0.47826
 C1091 C 0.91250 0.62819 0.47072
 C1092 C 0.92433 0.63981 0.45265
 C1093 C 0.91706 0.66058 0.44514
 H1094 H 0.90306 0.66842 0.45314
 O1095 O 1.08015 0.38973 0.47833
 O1096 O 1.10587 0.36384 0.47834
 C1097 C 1.08788 0.37170 0.47079
 C1098 C 1.07607 0.36009 0.45271
 C1099 C 1.08338 0.33934 0.44517
 H1100 H 1.09738 0.33152 0.45316
 O1101 O 1.08018 0.52168 0.38967
 O1102 O 1.10591 0.52169 0.36378
 C1103 C 1.08792 0.52924 0.37164
 C1104 C 1.07613 0.54736 0.36004
 C1105 C 1.08346 0.55497 0.33931
 H1106 H 1.09748 0.54702 0.33148
 O1107 O 0.92031 0.47834 0.38975
 O1108 O 0.89462 0.47832 0.36383
 C1109 C 0.91260 0.47079 0.37170
 C1110 C 0.92443 0.45272 0.36010
 C1111 C 0.91719 0.44522 0.33931
 H1112 H 0.90321 0.45322 0.33146
 O1113 O 1.02181 0.61032 0.42000
 O1114 O 1.02178 0.63616 0.39422
 C1115 C 1.02934 0.62834 0.41222
 C1116 C 1.04743 0.63997 0.42399
 C1117 C 1.05500 0.66068 0.41662
 H1118 H 1.04701 0.66847 0.40260
 O1119 O 0.97865 0.38979 0.42015
 O1120 O 0.97864 0.36393 0.39440
 C1121 C 0.97110 0.37177 0.41241
 C1122 C 0.95301 0.36016 0.42421
 C1123 C 0.94556 0.33938 0.41695
 H1124 H 0.95362 0.33153 0.40299
 O1125 O 1.11030 0.57997 0.47823
 O1126 O 1.13619 0.60567 0.47829
 C1127 C 1.12834 0.58769 0.47072
 C1128 C 1.13999 0.57589 0.45266
 C1129 C 1.16074 0.58320 0.44514
 H1130 H 1.16853 0.59721 0.45314
 O1131 O 0.88985 0.42006 0.47839
 O1132 O 0.86398 0.39433 0.47830
 C1133 C 0.87183 0.41234 0.47080
 C1134 C 0.86024 0.42418 0.45272
 C1135 C 0.83946 0.41697 0.44522
 H1136 H 0.83159 0.40301 0.45325
 Cu1137 Cu 1.00024 0.40750 0.40755
 Cu1138 Cu 1.00024 0.37654 0.37655
 Cu1139 Cu 1.00026 0.59252 0.40747
 Cu1140 Cu 1.00019 0.62346 0.37644
 Cu1141 Cu 0.90773 0.49993 0.40748
 Cu1142 Cu 0.87682 0.49995 0.37644
 Cu1143 Cu 1.09270 0.50008 0.40745
 Cu1144 Cu 1.12366 0.50004 0.37645
 C1145 C 0.94250 0.44221 0.37026
 H1146 H 0.94798 0.44771 0.38642
 C1147 C 0.92766 0.42729 0.32877
 C1148 C 1.05802 0.55782 0.37017
 H1149 H 1.05247 0.55224 0.38628
 C1150 C 1.07303 0.57295 0.32881
 C1151 C 0.87042 0.44223 0.44219
 H1152 H 0.88658 0.44768 0.44768
 C1153 C 0.82892 0.42744 0.42729
 C1154 C 1.12991 0.55778 0.44215
 H1155 H 1.11378 0.55225 0.44767
 C1156 C 1.17131 0.57278 0.42721
 C1157 C 0.94243 0.37030 0.44226
 H1158 H 0.94790 0.38646 0.44775
 C1159 C 0.92762 0.32881 0.42736
 C1160 C 1.05793 0.62989 0.44211
 H1161 H 1.05236 0.61378 0.44769
 C1162 C 1.07298 0.67121 0.42699
 C1163 C 0.94256 0.55766 0.37027
 H1164 H 0.94798 0.55225 0.38648
 C1165 C 0.92787 0.57233 0.32864
 C1166 C 1.05792 0.44232 0.37029
 H1167 H 1.05246 0.44777 0.38648
 C1168 C 1.07271 0.42756 0.32873
 C1169 C 1.05798 0.37021 0.44221
 H1170 H 1.05245 0.38634 0.44775
 C1171 C 1.07295 0.32881 0.42722
 C1172 C 0.94241 0.62969 0.44214
 H1173 H 0.94792 0.61354 0.44765
 C1174 C 0.92752 0.67114 0.42722
 C1175 C 0.87045 0.55771 0.44210
 H1176 H 0.88659 0.55221 0.44762
 C1177 C 0.82900 0.57259 0.42714
 C1178 C 1.12991 0.44225 0.44216
 H1179 H 1.11380 0.44779 0.44772
 C1180 C 1.17129 0.42724 0.42711
 O1181 O 1.02152 0.42005 0.61014
 O1182 O 1.02157 0.39430 0.63601
 C1183 C 1.02909 0.41230 0.62817
 C1184 C 1.04717 0.42410 0.63978
 C1185 C 1.05466 0.41682 0.66055
 H1186 H 1.04662 0.40285 0.66839
 O1187 O 0.97855 0.57977 0.61008
 O1188 O 0.97850 0.60548 0.63598
 C1189 C 0.97098 0.58749 0.62811
 C1190 C 0.95290 0.57566 0.63972
 C1191 C 0.94543 0.58289 0.66053
 H1192 H 0.95347 0.59685 0.66838
 O1193 O 0.88986 0.52144 0.57976
 O1194 O 0.86398 0.52152 0.60550
 C1195 C 0.87184 0.52902 0.58749
 C1196 C 0.86023 0.54708 0.57563
 C1197 C 0.83942 0.55452 0.58284
 H1198 H 0.83156 0.54648 0.59679
 O1199 O 1.11031 0.47824 0.57987
 O1200 O 1.13617 0.47825 0.60563
 C1201 C 1.12834 0.47070 0.58763
 C1202 C 1.13997 0.45262 0.57584
 C1203 C 1.16068 0.44505 0.58321
 H1204 H 1.16847 0.45302 0.59725
 O1205 O 1.08004 0.38982 0.52151
 O1206 O 1.10575 0.36392 0.52156
 C1207 C 1.08774 0.37178 0.52908
 C1208 C 1.07587 0.36017 0.54714
 C1209 C 1.08308 0.33937 0.55463
 H1210 H 1.09707 0.33151 0.54664
 O1211 O 0.92024 0.61010 0.52144
 O1212 O 0.89451 0.63598 0.52148
 C1213 C 0.91251 0.62813 0.52901
 C1214 C 0.92435 0.63974 0.54707
 C1215 C 0.91715 0.66055 0.55450
 H1216 H 0.90320 0.66842 0.54645
 O1217 O 0.92009 0.47827 0.61016
 O1218 O 0.89436 0.47832 0.63604
 C1219 C 0.91235 0.47075 0.62820
 C1220 C 0.92413 0.45266 0.63983
 C1221 C 0.91680 0.44512 0.66057
 H1222 H 0.90280 0.45312 0.66839
 O1223 O 1.07996 0.52143 0.61013
 O1224 O 1.10569 0.52146 0.63601
 C1225 C 1.08769 0.52899 0.62816
 C1226 C 1.07589 0.54707 0.63978
 C1227 C 1.08318 0.55456 0.66054
 H1228 H 1.09716 0.54653 0.66837
 O1229 O 0.97836 0.38970 0.57987
 O1230 O 0.97837 0.36382 0.60561
 C1231 C 0.97082 0.37167 0.58762
 C1232 C 0.95272 0.36006 0.57583
 C1233 C 0.94513 0.33935 0.58319
 H1234 H 0.95311 0.33154 0.59721
 O1235 O 1.02173 0.61014 0.57984
 O1236 O 1.02172 0.63600 0.60559
 C1237 C 1.02926 0.62817 0.58758
 C1238 C 1.04733 0.63980 0.57576
 C1239 C 1.05484 0.66056 0.58304
 H1240 H 1.04686 0.66839 0.59705
 O1241 O 0.88978 0.42001 0.52157
 O1242 O 0.86391 0.39428 0.52154
 C1243 C 0.87175 0.41226 0.52911
 C1244 C 0.86013 0.42405 0.54721
 C1245 C 0.83940 0.41672 0.55478
 H1246 H 0.83159 0.40272 0.54680
 O1247 O 1.11019 0.57986 0.52141
 O1248 O 1.13610 0.60555 0.52150
 C1249 C 1.12822 0.58755 0.52899
 C1250 C 1.13983 0.57566 0.54703
 C1251 C 1.16066 0.58281 0.55444
 H1252 H 1.16853 0.59676 0.54639
 O1253 O 1.02171 0.57980 0.61013
 O1254 O 1.02171 0.60551 0.63603
 C1255 C 1.02925 0.58752 0.62817
 C1256 C 1.04732 0.57570 0.63979
 C1257 C 1.05485 0.58297 0.66056
 H1258 H 1.04686 0.59696 0.66840
 O1259 O 0.97835 0.42001 0.61019
 O1260 O 0.97837 0.39426 0.63606
 C1261 C 0.97081 0.41226 0.62822
 C1262 C 0.95272 0.42405 0.63985
 C1263 C 0.94516 0.41673 0.66059
 H1264 H 0.95315 0.40273 0.66842
 O1265 O 1.11019 0.52141 0.57974
 O1266 O 1.13606 0.52145 0.60548
 C1267 C 1.12821 0.52897 0.58746
 C1268 C 1.13983 0.54703 0.57561
 C1269 C 1.16067 0.55442 0.58279
 H1270 H 1.16854 0.54634 0.59672
 O1271 O 0.88979 0.47827 0.57985
 O1272 O 0.86392 0.47831 0.60560
 C1273 C 0.87176 0.47074 0.58760
 C1274 C 0.86014 0.45265 0.57582
 C1275 C 0.83941 0.44510 0.58316
 H1276 H 0.83160 0.45309 0.59717
 O1277 O 1.07994 0.61022 0.52142
 O1278 O 1.10570 0.63606 0.52151
 C1279 C 1.08769 0.62822 0.52901
 C1280 C 1.07588 0.63982 0.54711
 C1281 C 1.08316 0.66057 0.55461
 H1282 H 1.09713 0.66841 0.54657
 O1283 O 0.92009 0.38972 0.52158
 O1284 O 0.89436 0.36384 0.52155
 C1285 C 0.91234 0.37169 0.52912
 C1286 C 0.92413 0.36007 0.54722
 C1287 C 0.91677 0.33936 0.55481
 H1288 H 0.90275 0.33156 0.54682
 O1289 O 1.07992 0.47826 0.61011
 O1290 O 1.10564 0.47826 0.63601
 C1291 C 1.08764 0.47072 0.62816
 C1292 C 1.07581 0.45265 0.63978
 C1293 C 1.08307 0.44513 0.66056
 H1294 H 1.09707 0.45312 0.66840
 O1295 O 0.92017 0.52144 0.61008
 O1296 O 0.89444 0.52153 0.63596
 C1297 C 0.91245 0.52902 0.62810
 C1298 C 0.92429 0.54708 0.63972
 C1299 C 0.91705 0.55455 0.66052
 H1300 H 0.90308 0.54653 0.66837
 O1301 O 0.97856 0.61009 0.57978
 O1302 O 0.97851 0.63595 0.60553
 C1303 C 0.97100 0.62811 0.58751
 C1304 C 0.95295 0.63974 0.57567
 C1305 C 0.94552 0.66055 0.58288
 H1306 H 0.95356 0.66841 0.59683
 O1307 O 1.02153 0.38980 0.57977
 O1308 O 1.02158 0.36392 0.60550
 C1309 C 1.02911 0.37178 0.58750
 C1310 C 1.04719 0.36018 0.57568
 C1311 C 1.05463 0.33938 0.58293
 H1312 H 1.04655 0.33154 0.59688
 O1313 O 1.11044 0.42002 0.52152
 O1314 O 1.13629 0.39427 0.52157
 C1315 C 1.12845 0.41227 0.52910
 C1316 C 1.14003 0.42405 0.54721
 C1317 C 1.16074 0.41670 0.55481
 H1318 H 1.16857 0.40270 0.54683
 O1319 O 0.88992 0.57981 0.52143
 O1320 O 0.86405 0.60554 0.52146
 C1321 C 0.87189 0.58753 0.52898
 C1322 C 0.86026 0.57569 0.54704
 C1323 C 0.83945 0.58291 0.55447
 H1324 H 0.83160 0.59687 0.54643
 Cu1325 Cu 0.99993 0.40747 0.59241
 Cu1326 Cu 0.99998 0.37648 0.62339
 Cu1327 Cu 1.00015 0.59237 0.59238
 Cu1328 Cu 1.00010 0.62333 0.62338
 Cu1329 Cu 0.90755 0.40747 0.49999
 Cu1330 Cu 0.87659 0.37649 0.49991
 Cu1331 Cu 1.09269 0.40750 0.49992
 Cu1332 Cu 1.12364 0.37650 0.49995
 Cu1333 Cu 0.90766 0.59240 0.49985
 Cu1334 Cu 0.87668 0.62338 0.49986
 Cu1335 Cu 1.09253 0.59253 0.49981
 Cu1336 Cu 1.12354 0.62346 0.49991
 Cu1337 Cu 0.90756 0.49985 0.59238
 Cu1338 Cu 0.87658 0.49993 0.62337
 Cu1339 Cu 1.09252 0.49983 0.59238
 Cu1340 Cu 1.12348 0.49986 0.62338
 C1341 C 1.05772 0.44216 0.62965
 H1342 H 1.05223 0.44767 0.61349
 C1343 C 1.07260 0.42721 0.67111
 C1344 C 0.94235 0.55761 0.62957
 H1345 H 0.94783 0.55214 0.61340
 C1346 C 0.92751 0.57245 0.67109
 C1347 C 0.87040 0.55764 0.55759
 H1348 H 0.88658 0.55218 0.55214
 C1349 C 0.82886 0.57243 0.57237
 C1350 C 1.12990 0.44215 0.55770
 H1351 H 1.11380 0.44770 0.55212
 C1352 C 1.17123 0.42709 0.57282
 C1353 C 1.05779 0.37032 0.55764
 H1354 H 1.05233 0.38649 0.55216
 C1355 C 1.07257 0.32881 0.57252
 C1356 C 0.94239 0.62958 0.55763
 H1357 H 0.94784 0.61340 0.55217
 C1358 C 0.92762 0.67113 0.57240
 C1359 C 0.94222 0.44215 0.62972
 H1360 H 0.94777 0.44768 0.61359
 C1361 C 0.92720 0.42716 0.67113
 C1362 C 1.05782 0.55761 0.62965
 H1363 H 1.05231 0.55211 0.61350
 C1364 C 1.07278 0.57251 0.67110
 C1365 C 0.94224 0.37017 0.55771
 H1366 H 0.94780 0.38627 0.55214
 C1367 C 0.92716 0.32884 0.57279
 C1368 C 1.05783 0.62968 0.55765
 H1369 H 1.05232 0.61354 0.55214
 C1370 C 1.07276 0.67112 0.57257
 C1371 C 0.87024 0.44215 0.55771
 H1372 H 0.88636 0.44769 0.55216
 C1373 C 0.82887 0.42714 0.57276
 C1374 C 1.12966 0.55762 0.55759
 H1375 H 1.11346 0.55221 0.55216
 C1376 C 1.17125 0.57230 0.57231
 O1377 O 0.47829 0.92024 0.38978
 O1378 O 0.47828 0.89454 0.36387
 C1379 C 0.47075 0.91253 0.37174
 C1380 C 0.45268 0.92436 0.36013
 C1381 C 0.44523 0.91710 0.33934
 H1382 H 0.45328 0.90314 0.33150
 O1383 O 0.52133 1.08000 0.38981
 O1384 O 0.52136 1.10575 0.36394
 C1385 C 0.52888 1.08774 0.37177
 C1386 C 0.54692 1.07591 0.36012
 C1387 C 0.55437 1.08318 0.33932
 H1388 H 0.54634 1.09716 0.33150
 O1389 O 0.38957 0.97852 0.42008
 O1390 O 0.36372 0.97850 0.39431
 C1391 C 0.37155 0.97096 0.41232
 C1392 C 0.35995 0.95286 0.42412
 C1393 C 0.33921 0.94531 0.41680
 H1394 H 0.33138 0.95331 0.40281
 O1395 O 0.61005 1.02166 0.41993
 O1396 O 0.63589 1.02170 0.39415
 C1397 C 0.62807 1.02920 0.41218
 C1398 C 0.63974 1.04723 0.42401
 C1399 C 0.66052 1.05468 0.41674
 H1400 H 0.66833 1.04666 0.40274
 O1401 O 0.41991 0.88979 0.47822
 O1402 O 0.39418 0.86392 0.47824
 C1403 C 0.41216 0.87177 0.47067
 C1404 C 0.42395 0.86017 0.45254
 C1405 C 0.41660 0.83947 0.44493
 H1406 H 0.40257 0.83165 0.45288
 O1407 O 0.57995 1.11016 0.47837
 O1408 O 0.60565 1.13606 0.47827
 C1409 C 0.58765 1.12819 0.47078
 C1410 C 0.57577 1.13981 0.45274
 C1411 C 0.58299 1.16060 0.44526
 H1412 H 0.59698 1.16844 0.45324
 O1413 O 0.41991 1.02169 0.38980
 O1414 O 0.39420 1.02171 0.36389
 C1415 C 0.41219 1.02925 0.37176
 C1416 C 0.42400 1.04733 0.36016
 C1417 C 0.41674 1.05483 0.33938
 H1418 H 0.40278 1.04680 0.33152
 O1419 O 0.57971 0.97851 0.38963
 O1420 O 0.60541 0.97851 0.36371
 C1421 C 0.58743 0.97096 0.37159
 C1422 C 0.57564 0.95287 0.35999
 C1423 C 0.58294 0.94534 0.33923
 H1424 H 0.59692 0.95335 0.33139
 O1425 O 0.52143 0.88986 0.42004
 O1426 O 0.52145 0.86401 0.39427
 C1427 C 0.52899 0.87184 0.41229
 C1428 C 0.54706 0.86022 0.42409
 C1429 C 0.55454 0.83944 0.41682
 H1430 H 0.54650 0.83161 0.40285
 O1431 O 0.47822 1.11036 0.42016
 O1432 O 0.47821 1.13624 0.39442
 C1433 C 0.47068 1.12840 0.41242
 C1434 C 0.45262 1.14003 0.42425
 C1435 C 0.44511 1.16080 0.41697
 H1436 H 0.45312 1.16863 0.40297
 O1437 O 0.38959 1.08011 0.47837
 O1438 O 0.36370 1.10583 0.47836
 C1439 C 0.37157 1.08785 0.47080
 C1440 C 0.35998 1.07605 0.45268
 C1441 C 0.33927 1.08339 0.44506
 H1442 H 0.33145 1.09742 0.45301
 O1443 O 0.61009 0.92020 0.47820
 O1444 O 0.63597 0.89447 0.47818
 C1445 C 0.62812 0.91246 0.47064
 C1446 C 0.63972 0.92428 0.45255
 C1447 C 0.66049 0.91703 0.44504
 H1448 H 0.66835 0.90305 0.45306
 O1449 O 0.47817 1.08003 0.38986
 O1450 O 0.47816 1.10578 0.36398
 C1451 C 0.47062 1.08778 0.37182
 C1452 C 0.45256 1.07596 0.36019
 C1453 C 0.44507 1.08323 0.33941
 H1454 H 0.45308 1.09722 0.33157
 O1455 O 0.52146 0.92014 0.38969
 O1456 O 0.52147 0.89444 0.36379
 C1457 C 0.52901 0.91242 0.37165
 C1458 C 0.54708 0.92424 0.36002
 C1459 C 0.55461 0.91694 0.33926
 H1460 H 0.54662 0.90294 0.33144
 O1461 O 0.61004 0.97850 0.41992
 O1462 O 0.63587 0.97850 0.39414
 C1463 C 0.62805 0.97096 0.41215
 C1464 C 0.63969 0.95289 0.42395
 C1465 C 0.66046 0.94541 0.41667
 H1466 H 0.66829 0.95344 0.40269
 O1467 O 0.38961 1.02170 0.42011
 O1468 O 0.36376 1.02173 0.39434
 C1469 C 0.37160 1.02927 0.41235
 C1470 C 0.36000 1.04740 0.42412
 C1471 C 0.33930 1.05497 0.41674
 H1472 H 0.33150 1.04696 0.40273
 O1473 O 0.41992 1.11038 0.47846
 O1474 O 0.39418 1.13625 0.47846
 C1475 C 0.41219 1.12841 0.47092
 C1476 C 0.42401 1.14004 0.45286
 C1477 C 0.41674 1.16080 0.44535
 H1478 H 0.40275 1.16863 0.45336
 O1479 O 0.57981 0.88988 0.47824
 O1480 O 0.60554 0.86401 0.47823
 C1481 C 0.58754 0.87185 0.47070
 C1482 C 0.57570 0.86022 0.45265
 C1483 C 0.58296 0.83944 0.44515
 H1484 H 0.59695 0.83161 0.45315
 O1485 O 0.57967 1.02168 0.38969
 O1486 O 0.60536 1.02172 0.36376
 C1487 C 0.58737 1.02924 0.37165
 C1488 C 0.57552 1.04732 0.36005
 C1489 C 0.58274 1.05481 0.33926
 H1490 H 0.59671 1.04680 0.33139
 O1491 O 0.41991 0.97852 0.38978
 O1492 O 0.39420 0.97851 0.36388
 C1493 C 0.41220 0.97098 0.37174
 C1494 C 0.42404 0.95292 0.36011
 C1495 C 0.41681 0.94542 0.33932
 H1496 H 0.40282 0.95342 0.33146
 O1497 O 0.52140 1.11025 0.42017
 O1498 O 0.52142 1.13613 0.39444
 C1499 C 0.52897 1.12827 0.41243
 C1500 C 0.54707 1.13985 0.42423
 C1501 C 0.55453 1.16064 0.41697
 H1502 H 0.54645 1.16851 0.40304
 O1503 O 0.47826 0.88981 0.41997
 O1504 O 0.47825 0.86398 0.39419
 C1505 C 0.47070 0.87181 0.41220
 C1506 C 0.45258 0.86019 0.42396
 C1507 C 0.44501 0.83950 0.41658
 H1508 H 0.45301 0.83170 0.40256
 O1509 O 0.61025 1.07986 0.47837
 O1510 O 0.63610 1.10560 0.47828
 C1511 C 0.62826 1.08759 0.47077
 C1512 C 0.63983 1.07577 0.45267
 C1513 C 0.66062 1.08299 0.44517
 H1514 H 0.66850 1.09693 0.45321
 O1515 O 0.38965 0.92015 0.47830
 O1516 O 0.36379 0.89442 0.47832
 C1517 C 0.37162 0.91242 0.47077
 C1518 C 0.35998 0.92424 0.45270
 C1519 C 0.33925 0.91691 0.44517
 H1520 H 0.33145 0.90290 0.45316
 Cu1521 Cu 0.49986 0.90759 0.40746
 Cu1522 Cu 0.49986 0.87665 0.37643
 Cu1523 Cu 0.49977 1.09258 0.40758
 Cu1524 Cu 0.49979 1.12357 0.37660
 Cu1525 Cu 0.40732 1.00010 0.40752
 Cu1526 Cu 0.37638 1.00011 0.37652
 Cu1527 Cu 0.59229 1.00009 0.40738
 Cu1528 Cu 0.62322 1.00011 0.37634
 C1529 C 0.44212 0.94241 0.37027
 H1530 H 0.44759 0.94790 0.38643
 C1531 C 0.42730 0.92751 0.32876
 C1532 C 0.55747 1.05784 0.37023
 H1533 H 0.55201 1.05234 0.38640
 C1534 C 0.57228 1.07274 0.32872
 C1535 C 0.37008 0.94235 0.44221
 H1536 H 0.38620 0.94788 0.44774
 C1537 C 0.32870 0.92734 0.42721
 C1538 C 0.62964 1.05775 0.44211
 H1539 H 0.61348 1.05229 0.44762
 C1540 C 0.67113 1.07256 0.42721
 C1541 C 0.44207 0.87028 0.44208
 H1542 H 0.44764 0.88637 0.44767
 C1543 C 0.42702 0.82896 0.42694
 C1544 C 0.55767 1.12968 0.44225
 H1545 H 0.55220 1.11352 0.44774
 C1546 C 0.57248 1.17119 0.42738
 C1547 C 0.44205 1.05788 0.37032
 H1548 H 0.44754 1.05237 0.38647
 C1549 C 0.42717 1.07278 0.32883
 C1550 C 0.55757 0.94234 0.37013
 H1551 H 0.55204 0.94787 0.38627
 C1552 C 0.57254 0.92738 0.32870
 C1553 C 0.55762 0.87035 0.44214
 H1554 H 0.55213 0.88650 0.44764
 C1555 C 0.57248 0.82889 0.42723
 C1556 C 0.44209 1.12991 0.44233
 H1557 H 0.44759 1.11376 0.44784
 C1558 C 0.42717 1.17135 0.42740
 C1559 C 0.37009 1.05792 0.44222
 H1560 H 0.38619 1.05235 0.44781
 C1561 C 0.32876 1.07296 0.42709
 C1562 C 0.62957 0.94234 0.44203
 H1563 H 0.61342 0.94783 0.44754
 C1564 C 0.67104 0.92749 0.42710
 O1565 O 0.52146 0.92030 0.61006
 O1566 O 0.52151 0.89457 0.63594
 C1567 C 0.52903 0.91258 0.62809
 C1568 C 0.54708 0.92441 0.63970
 C1569 C 0.55451 0.91720 0.66052
 H1570 H 0.54645 0.90326 0.66839
 O1571 O 0.47840 1.07997 0.61003
 O1572 O 0.47840 1.10567 0.63594
 C1573 C 0.47086 1.08768 0.62808
 C1574 C 0.45278 1.07587 0.63970
 C1575 C 0.44530 1.08315 0.66048
 H1576 H 0.45334 1.09712 0.66830
 O1577 O 0.38969 1.02160 0.57981
 O1578 O 0.36384 1.02162 0.60557
 C1579 C 0.37166 1.02914 0.58755
 C1580 C 0.36001 1.04718 0.57572
 C1581 C 0.33920 1.05458 0.58296
 H1582 H 0.33136 1.04651 0.59692
 O1583 O 0.61017 0.97859 0.57967
 O1584 O 0.63602 0.97849 0.60543
 C1585 C 0.62818 0.97100 0.58741
 C1586 C 0.63980 0.95295 0.57556
 C1587 C 0.66061 0.94552 0.58276
 H1588 H 0.66848 0.95357 0.59671
 O1589 O 0.57979 0.88996 0.52142
 O1590 O 0.60552 0.86407 0.52145
 C1591 C 0.58752 0.87193 0.52898
 C1592 C 0.57569 0.86032 0.54705
 C1593 C 0.58289 0.83950 0.55449
 H1594 H 0.59684 0.83164 0.54644
 O1595 O 0.41984 1.11036 0.52164
 O1596 O 0.39409 1.13621 0.52170
 C1597 C 0.41209 1.12837 0.52924
 C1598 C 0.42389 1.13995 0.54736
 C1599 C 0.41651 1.16063 0.55503
 H1600 H 0.40245 1.16843 0.54713
 O1601 O 0.42004 0.97849 0.61016
 O1602 O 0.39432 0.97849 0.63607
 C1603 C 0.41231 0.97096 0.62821
 C1604 C 0.42412 0.95289 0.63984
 C1605 C 0.41683 0.94539 0.66061
 H1606 H 0.40285 0.95342 0.66844
 O1607 O 0.57988 1.02175 0.61000
 O1608 O 0.60558 1.02169 0.63591
 C1609 C 0.58760 1.02926 0.62805
 C1610 C 0.57581 1.04734 0.63968
 C1611 C 0.58312 1.05484 0.66043
 H1612 H 0.59712 1.04682 0.66824
 O1613 O 0.47832 0.88996 0.57978
 O1614 O 0.47834 0.86407 0.60551
 C1615 C 0.47080 0.87191 0.58750
 C1616 C 0.45278 0.86026 0.57566
 C1617 C 0.44539 0.83942 0.58285
 H1618 H 0.45344 0.83158 0.59681
 O1619 O 0.52153 1.11034 0.57973
 O1620 O 0.52157 1.13620 0.60549
 C1621 C 0.52910 1.12836 0.58748
 C1622 C 0.54720 1.13995 0.57567
 C1623 C 0.55473 1.16071 0.58294
 H1624 H 0.54671 1.16857 0.59691
 O1625 O 0.38971 0.92011 0.52149
 O1626 O 0.36385 0.89437 0.52156
 C1627 C 0.37170 0.91237 0.52909
 C1628 C 0.36012 0.92416 0.54721
 C1629 C 0.33939 0.91685 0.55477
 H1630 H 0.33156 0.90285 0.54678
 O1631 O 0.61039 1.08000 0.52157
 O1632 O 0.63623 1.10576 0.52153
 C1633 C 0.62841 1.08777 0.52911
 C1634 C 0.64001 1.07601 0.54725
 C1635 C 0.66067 1.08341 0.55492
 H1636 H 0.66848 1.09746 0.54699
 O1637 O 0.52157 1.08006 0.61008
 O1638 O 0.52160 1.10577 0.63598
 C1639 C 0.52914 1.08778 0.62812
 C1640 C 0.54723 1.07596 0.63972
 C1641 C 0.55478 1.08324 0.66048
 H1642 H 0.54680 1.09724 0.66833
 O1643 O 0.47830 0.92019 0.61017
 O1644 O 0.47831 0.89445 0.63605
 C1645 C 0.47076 0.91245 0.62821
 C1646 C 0.45269 0.92426 0.63984
 C1647 C 0.44517 0.91698 0.66061
 H1648 H 0.45316 0.90298 0.66845
 O1649 O 0.61031 1.02176 0.57980
 O1650 O 0.63613 1.02170 0.60559
 C1651 C 0.62832 1.02928 0.58759
 C1652 C 0.63995 1.04740 0.57584
 C1653 C 0.66062 1.05501 0.58329
 H1654 H 0.66838 1.04704 0.59734
 O1655 O 0.38974 0.97843 0.57985
 O1656 O 0.36389 0.97842 0.60561
 C1657 C 0.37173 0.97087 0.58761
 C1658 C 0.36013 0.95276 0.57582
 C1659 C 0.33939 0.94521 0.58316
 H1660 H 0.33158 0.95320 0.59717
 O1661 O 0.57996 1.11018 0.52154
 O1662 O 0.60566 1.13608 0.52149
 C1663 C 0.58767 1.12823 0.52905
 C1664 C 0.57584 1.13987 0.54710
 C1665 C 0.58314 1.16063 0.55460
 H1666 H 0.59715 1.16843 0.54659
 O1667 O 0.42005 0.88985 0.52141
 O1668 O 0.39434 0.86396 0.52147
 C1669 C 0.41235 0.87182 0.52897
 C1670 C 0.42421 0.86021 0.54703
 C1671 C 0.41705 0.83937 0.55445
 H1672 H 0.40312 0.83149 0.54639
 O1673 O 0.57987 0.97858 0.61001
 O1674 O 0.60558 0.97850 0.63592
 C1675 C 0.58757 0.97101 0.62805
 C1676 C 0.57571 0.95297 0.63968
 C1677 C 0.58291 0.94554 0.66050
 H1678 H 0.59686 0.95357 0.66836
 O1679 O 0.42004 1.02166 0.61010
 O1680 O 0.39432 1.02170 0.63600
 C1681 C 0.41231 1.02923 0.62813
 C1682 C 0.42415 1.04731 0.63973
 C1683 C 0.41689 1.05483 0.66051
 H1684 H 0.40291 1.04685 0.66837
 O1685 O 0.47834 1.11035 0.57980
 O1686 O 0.47834 1.13619 0.60557
 C1687 C 0.47077 1.12835 0.58758
 C1688 C 0.45260 1.13995 0.57586
 C1689 C 0.44500 1.16062 0.58330
 H1690 H 0.45301 1.16840 0.59731
 O1691 O 0.52147 0.88996 0.57979
 O1692 O 0.52153 0.86409 0.60553
 C1693 C 0.52904 0.87194 0.58752
 C1694 C 0.54710 0.86032 0.57567
 C1695 C 0.55453 0.83951 0.58288
 H1696 H 0.54649 0.83165 0.59684
 O1697 O 0.61012 0.92023 0.52138
 O1698 O 0.63599 0.89450 0.52141
 C1699 C 0.62815 0.91250 0.52892
 C1700 C 0.63978 0.92435 0.54697
 C1701 C 0.66060 0.91714 0.55439
 H1702 H 0.66845 0.90318 0.54635
 O1703 O 0.38960 1.07999 0.52155
 O1704 O 0.36370 1.10569 0.52160
 C1705 C 0.37156 1.08769 0.52910
 C1706 C 0.35995 1.07581 0.54715
 C1707 C 0.33914 1.08299 0.55461
 H1708 H 0.33126 1.09695 0.54660
 Cu1709 Cu 0.49988 0.90769 0.59237
 Cu1710 Cu 0.49993 0.87670 0.62335
 Cu1711 Cu 0.49997 1.09261 0.59233
 Cu1712 Cu 0.49998 1.12355 0.62334
 Cu1713 Cu 0.40741 0.90755 0.49985
 Cu1714 Cu 0.37645 0.87658 0.49991
 Cu1715 Cu 0.59237 0.90765 0.49981
 Cu1716 Cu 0.62335 0.87667 0.49982
 Cu1717 Cu 0.40732 1.09264 0.50000
 Cu1718 Cu 0.37633 1.12359 0.50003
 Cu1719 Cu 0.59257 1.09246 0.49997
 Cu1720 Cu 0.62351 1.12347 0.49988
 Cu1721 Cu 0.40745 1.00005 0.59240
 Cu1722 Cu 0.37650 1.00007 0.62341
 Cu1723 Cu 0.59249 1.00017 0.59228
 Cu1724 Cu 0.62342 1.00008 0.62331
 C1725 C 0.55766 0.94243 0.62952
 H1726 H 0.55221 0.94789 0.61333
 C1727 C 0.57242 0.92766 0.67110
 C1728 C 0.44223 1.05781 0.62957
 H1729 H 0.44772 1.05230 0.61342
 C1730 C 0.42736 1.07275 0.67105
 C1731 C 0.37013 1.05776 0.55767
 H1732 H 0.38632 1.05233 0.55220
 C1733 C 0.32859 1.07248 0.57252
 C1734 C 0.62963 0.94239 0.55753
 H1735 H 0.61345 0.94784 0.55208
 C1736 C 0.67119 0.92762 0.57228
 C1737 C 0.55765 0.87048 0.55762
 H1738 H 0.55220 0.88666 0.55216
 C1739 C 0.57242 0.82893 0.57240
 C1740 C 0.44207 1.12987 0.55776
 H1741 H 0.44766 1.11379 0.55213
 C1742 C 0.42695 1.17113 0.57301
 C1743 C 0.44219 0.94235 0.62971
 H1744 H 0.44770 0.94786 0.61356
 C1745 C 0.42724 0.92744 0.67117
 C1746 C 0.55772 1.05788 0.62957
 H1747 H 0.55219 1.05237 0.61343
 C1748 C 0.57273 1.07279 0.67100
 C1749 C 0.44221 0.87040 0.55761
 H1750 H 0.44763 0.88660 0.55216
 C1751 C 0.42753 0.82881 0.57235
 C1752 C 0.55774 1.12979 0.55761
 H1753 H 0.55222 1.11365 0.55211
 C1754 C 0.57270 1.17122 0.57251
 C1755 C 0.37024 0.94225 0.55771
 H1756 H 0.38635 0.94779 0.55216
 C1757 C 0.32886 0.92725 0.57275
 C1758 C 0.62991 1.05787 0.55769
 H1759 H 0.61384 1.05228 0.55206
 C1760 C 0.67115 1.07302 0.57295
 O1761 O 0.57973 0.52157 1.11049
 O1762 O 0.60548 0.52163 1.13634
 C1763 C 0.58748 0.52915 1.12850
 C1764 C 0.57566 0.54724 1.14011
 C1765 C 0.58297 0.55478 1.16085
 H1766 H 0.59697 0.54679 1.16867
 O1767 O 0.41996 0.47840 1.11061
 O1768 O 0.39420 0.47835 1.13647
 C1769 C 0.41221 0.47083 1.12864
 C1770 C 0.42402 0.45275 1.14026
 C1771 C 0.41668 0.44521 1.16100
 H1772 H 0.40267 0.45321 1.16880
 O1773 O 0.52132 0.61017 1.08018
 O1774 O 0.52132 0.63605 1.10591
 C1775 C 0.52886 0.62820 1.08791
 C1776 C 0.54693 0.63983 1.07609
 C1777 C 0.55443 0.66058 1.08338
 H1778 H 0.54642 0.66841 1.09737
 O1779 O 0.47836 0.38985 1.08030
 O1780 O 0.47836 0.36395 1.10603
 C1781 C 0.47084 0.37180 1.08802
 C1782 C 0.45282 0.36015 1.07616
 C1783 C 0.44538 0.33935 1.08340
 H1784 H 0.45341 0.33152 1.09738
 O1785 O 0.60989 0.57986 1.02182
 O1786 O 0.63577 0.60559 1.02181
 C1787 C 0.62793 0.58758 1.02934
 C1788 C 0.63959 0.57573 1.04737
 C1789 C 0.66043 0.58291 1.05474
 H1790 H 0.66827 0.59686 1.04667
 O1791 O 0.38982 0.42000 1.02187
 O1792 O 0.36396 0.39425 1.02194
 C1793 C 0.37180 0.41226 1.02945
 C1794 C 0.36018 0.42408 1.04753
 C1795 C 0.33939 0.41682 1.05500
 H1796 H 0.33157 0.40284 1.04697
 O1797 O 0.47818 0.57984 1.11053
 O1798 O 0.47816 0.60559 1.13639
 C1799 C 0.47062 0.58759 1.12856
 C1800 C 0.45253 0.57581 1.14019
 C1801 C 0.44498 0.58319 1.16090
 H1802 H 0.45299 0.59720 1.16869
 O1803 O 0.52146 0.42016 1.11067
 O1804 O 0.52150 0.39442 1.13654
 C1805 C 0.52902 0.41242 1.12870
 C1806 C 0.54709 0.42425 1.14031
 C1807 C 0.55460 0.41698 1.16109
 H1808 H 0.54658 0.40301 1.16894
 O1809 O 0.61004 0.47837 1.08022
 O1810 O 0.63594 0.47837 1.10593
 C1811 C 0.62808 0.47083 1.08794
 C1812 C 0.63969 0.45276 1.07610
 C1813 C 0.66047 0.44523 1.08335
 H1814 H 0.66831 0.45321 1.09735
 O1815 O 0.38961 0.52152 1.08027
 O1816 O 0.36371 0.52152 1.10599
 C1817 C 0.37156 0.52905 1.08799
 C1818 C 0.35993 0.54711 1.07614
 C1819 C 0.33918 0.55466 1.08345
 H1820 H 0.33137 0.54670 1.09748
 O1821 O 0.41983 0.61004 1.02184
 O1822 O 0.39407 0.63588 1.02185
 C1823 C 0.41207 0.62805 1.02940
 C1824 C 0.42386 0.63968 1.04749
 C1825 C 0.41655 0.66043 1.05501
 H1826 H 0.40255 0.66825 1.04700
 O1827 O 0.57973 0.38985 1.02185
 O1828 O 0.60547 0.36398 1.02188
 C1829 C 0.58748 0.37183 1.02942
 C1830 C 0.57569 0.36023 1.04754
 C1831 C 0.58299 0.33947 1.05504
 H1832 H 0.59695 0.33163 1.04699
 O1833 O 0.41988 0.52157 1.11063
 O1834 O 0.39413 0.52158 1.13649
 C1835 C 0.41212 0.52913 1.12865
 C1836 C 0.42391 0.54725 1.14025
 C1837 C 0.41657 0.55486 1.16097
 H1838 H 0.40255 0.54691 1.16880
 O1839 O 0.57976 0.47841 1.11057
 O1840 O 0.60551 0.47842 1.13643
 C1841 C 0.58751 0.47088 1.12861
 C1842 C 0.57569 0.45282 1.14026
 C1843 C 0.58298 0.44534 1.16104
 H1844 H 0.59697 0.45335 1.16886
 O1845 O 0.52152 0.38987 1.08034
 O1846 O 0.52156 0.36398 1.10607
 C1847 C 0.52909 0.37184 1.08807
 C1848 C 0.54716 0.36024 1.07622
 C1849 C 0.55469 0.33947 1.08349
 H1850 H 0.54671 0.33164 1.09750
 O1851 O 0.47815 0.61011 1.08018
 O1852 O 0.47811 0.63599 1.10590
 C1853 C 0.47057 0.62813 1.08791
 C1854 C 0.45247 0.63972 1.07609
 C1855 C 0.44493 0.66047 1.08338
 H1856 H 0.45294 0.66831 1.09736
 O1857 O 0.38955 0.57971 1.02181
 O1858 O 0.36366 0.60542 1.02182
 C1859 C 0.37152 0.58743 1.02936
 C1860 C 0.35991 0.57564 1.04747
 C1861 C 0.33917 0.58296 1.05499
 H1862 H 0.33135 0.59694 1.04696
 O1863 O 0.61002 0.42015 1.02181
 O1864 O 0.63589 0.39442 1.02183
 C1865 C 0.62804 0.41242 1.02936
 C1866 C 0.63967 0.42422 1.04745
 C1867 C 0.66043 0.41693 1.05491
 H1868 H 0.66826 0.40296 1.04686
 O1869 O 0.47829 0.42010 1.11067
 O1870 O 0.47828 0.39436 1.13654
 C1871 C 0.47072 0.41235 1.12869
 C1872 C 0.45261 0.42414 1.14030
 C1873 C 0.44504 0.41682 1.16104
 H1874 H 0.45301 0.40282 1.16887
 O1875 O 0.52136 0.57985 1.11050
 O1876 O 0.52137 0.60560 1.13636
 C1877 C 0.52892 0.58760 1.12852
 C1878 C 0.54703 0.57582 1.14012
 C1879 C 0.55457 0.58313 1.16087
 H1880 H 0.54657 0.59712 1.16870
 O1881 O 0.38971 0.47836 1.08026
 O1882 O 0.36380 0.47831 1.10597
 C1883 C 0.37169 0.47078 1.08797
 C1884 C 0.36011 0.45269 1.07614
 C1885 C 0.33933 0.44519 1.08337
 H1886 H 0.33146 0.45321 1.09734
 O1887 O 0.61001 0.52153 1.08015
 O1888 O 0.63591 0.52158 1.10585
 C1889 C 0.62804 0.52909 1.08785
 C1890 C 0.63965 0.54713 1.07597
 C1891 C 0.66049 0.55454 1.08312
 H1892 H 0.66838 0.54648 1.09705
 O1893 O 0.42015 0.38971 1.02184
 O1894 O 0.39443 0.36382 1.02192
 C1895 C 0.41243 0.37168 1.02943
 C1896 C 0.42427 0.36009 1.04751
 C1897 C 0.41706 0.33929 1.05497
 H1898 H 0.40313 0.33141 1.04692
 O1899 O 0.57960 0.61019 1.02185
 O1900 O 0.60534 0.63606 1.02186
 C1901 C 0.58734 0.62821 1.02940
 C1902 C 0.57553 0.63983 1.04749
 C1903 C 0.58281 0.66059 1.05500
 H1904 H 0.59680 0.66842 1.04699
 Cu1905 Cu 0.59230 0.49996 1.09278
 Cu1906 Cu 0.62331 0.50001 1.12373
 Cu1907 Cu 0.40737 0.49997 1.09287
 Cu1908 Cu 0.37637 0.49993 1.12382
 Cu1909 Cu 0.49975 0.59241 1.09277
 Cu1910 Cu 0.49974 0.62340 1.12373
 Cu1911 Cu 0.49990 0.40758 1.09292
 Cu1912 Cu 0.49992 0.37659 1.12389
 C1913 C 0.55756 0.55774 1.12999
 H1914 H 0.55203 0.55220 1.11386
 C1915 C 0.57254 0.57272 1.17140
 C1916 C 0.44212 0.44224 1.13016
 H1917 H 0.44767 0.44778 1.11404
 C1918 C 0.42707 0.42725 1.17155
 C1919 C 0.55745 0.62970 1.05801
 H1920 H 0.55195 0.61356 1.05250
 C1921 C 0.57237 0.67114 1.07295
 C1922 C 0.44228 0.37027 1.05808
 H1923 H 0.44773 0.38645 1.05260
 C1924 C 0.42751 0.32875 1.07291
 C1925 C 0.62945 0.55770 1.05796
 H1926 H 0.61325 0.55227 1.05255
 C1927 C 0.67105 0.57242 1.07261
 C1928 C 0.37029 0.44215 1.05808
 H1929 H 0.38644 0.44765 1.05260
 C1930 C 0.32880 0.42726 1.07291
 C1931 C 0.44202 0.55770 1.13011
 H1932 H 0.44757 0.55213 1.11400
 C1933 C 0.42700 0.57284 1.17146
 C1934 C 0.55761 0.44230 1.13015
 H1935 H 0.55211 0.44779 1.11399
 C1936 C 0.57254 0.42742 1.17162
 C1937 C 0.62954 0.44227 1.05801
 H1938 H 0.61340 0.44778 1.05253
 C1939 C 0.67101 0.42732 1.07286
 C1940 C 0.37004 0.55758 1.05802
 H1941 H 0.38617 0.55204 1.05249
 C1942 C 0.32864 0.57259 1.07298
 C1943 C 0.44196 0.62957 1.05801
 H1944 H 0.44749 0.61344 1.05250
 C1945 C 0.42697 0.67100 1.07295
 C1946 C 0.55764 0.37036 1.05811
 H1947 H 0.55212 0.38651 1.05260
 C1948 C 0.57260 0.32892 1.07301
 O1949 O 0.57965 0.47836 0.89001
 O1950 O 0.60538 0.47839 0.86412
 C1951 C 0.58739 0.47083 0.87197
 C1952 C 0.57561 0.45275 0.86033
 C1953 C 0.58294 0.44527 0.83957
 H1954 H 0.59692 0.45330 0.83176
 O1955 O 0.41999 0.52131 0.88995
 O1956 O 0.39427 0.52134 0.86407
 C1957 C 0.41227 0.52886 0.87192
 C1958 C 0.42410 0.54693 0.86030
 C1959 C 0.41695 0.55433 0.83945
 H1960 H 0.40304 0.54625 0.83156
 O1961 O 0.47812 0.61014 0.92032
 O1962 O 0.47807 0.63600 0.89456
 C1963 C 0.47055 0.62815 0.91257
 C1964 C 0.45247 0.63976 0.92440
 C1965 C 0.44495 0.66052 0.91714
 H1966 H 0.45295 0.66837 0.90315
 O1967 O 0.52144 0.38973 0.92025
 O1968 O 0.52152 0.36383 0.89453
 C1969 C 0.52903 0.37171 0.91253
 C1970 C 0.54711 0.36012 0.92438
 C1971 C 0.55466 0.33937 0.91711
 H1972 H 0.54669 0.33152 0.90311
 O1973 O 0.61005 0.42009 0.97862
 O1974 O 0.63593 0.39436 0.97861
 C1975 C 0.62808 0.41235 0.97106
 C1976 C 0.63968 0.42417 0.95296
 C1977 C 0.66043 0.41689 0.94541
 H1978 H 0.66828 0.40290 0.95340
 O1979 O 0.38960 0.57970 0.97861
 O1980 O 0.36370 0.60542 0.97858
 C1981 C 0.37158 0.58743 0.97103
 C1982 C 0.35999 0.57564 0.95291
 C1983 C 0.33927 0.58297 0.94535
 H1984 H 0.33144 0.59697 0.95334
 O1985 O 0.52132 0.57986 0.89004
 O1986 O 0.52132 0.60558 0.86413
 C1987 C 0.52886 0.58759 0.87199
 C1988 C 0.54692 0.57576 0.86036
 C1989 C 0.55436 0.58297 0.83954
 H1990 H 0.54633 0.59693 0.83169
 O1991 O 0.47822 0.41993 0.88989
 O1992 O 0.47826 0.39418 0.86404
 C1993 C 0.47067 0.41216 0.87187
 C1994 C 0.45254 0.42390 0.86026
 C1995 C 0.44493 0.41647 0.83958
 H1996 H 0.45292 0.40245 0.83180
 O1997 O 0.60991 0.52154 0.92033
 O1998 O 0.63578 0.52160 0.89458
 C1999 C 0.62793 0.52911 0.91259
 C2000 C 0.63953 0.54718 0.92442
 C2001 C 0.66032 0.55465 0.91718
 H2002 H 0.66818 0.54661 0.90321
 O2003 O 0.38966 0.47820 0.92030
 O2004 O 0.36377 0.47819 0.89459
 C2005 C 0.37163 0.47066 0.91259
 C2006 C 0.36003 0.45259 0.92444
 C2007 C 0.33926 0.44507 0.91720
 H2008 H 0.33140 0.45307 0.90322
 O2009 O 0.57956 0.61018 0.97867
 O2010 O 0.60528 0.63606 0.97863
 C2011 C 0.58728 0.62821 0.97111
 C2012 C 0.57545 0.63984 0.95305
 C2013 C 0.58267 0.66063 0.94559
 H2014 H 0.59663 0.66848 0.95363
 O2015 O 0.42006 0.38965 0.97865
 O2016 O 0.39434 0.36377 0.97868
 C2017 C 0.41232 0.37162 0.97111
 C2018 C 0.42411 0.36000 0.95299
 C2019 C 0.41679 0.33926 0.94545
 H2020 H 0.40280 0.33144 0.95346
 O2021 O 0.41986 0.47814 0.88987
 O2022 O 0.39411 0.47812 0.86401
 C2023 C 0.41210 0.47057 0.87185
 C2024 C 0.42388 0.45244 0.86025
 C2025 C 0.41650 0.44479 0.83956
 H2026 H 0.40245 0.45271 0.83176
 O2027 O 0.57961 0.52153 0.89001
 O2028 O 0.60534 0.52158 0.86413
 C2029 C 0.58734 0.52909 0.87198
 C2030 C 0.57550 0.54715 0.86036
 C2031 C 0.58272 0.55459 0.83954
 H2032 H 0.59667 0.54654 0.83168
 O2033 O 0.47828 0.38968 0.92024
 O2034 O 0.47831 0.36378 0.89453
 C2035 C 0.47075 0.37163 0.91253
 C2036 C 0.45268 0.36001 0.92435
 C2037 C 0.44514 0.33928 0.91704
 H2038 H 0.45313 0.33146 0.90303
 O2039 O 0.52128 0.61016 0.92035
 O2040 O 0.52128 0.63603 0.89459
 C2041 C 0.52882 0.62819 0.91261
 C2042 C 0.54686 0.63983 0.92444
 C2043 C 0.55432 0.66063 0.91720
 H2044 H 0.54629 0.66848 0.90322
 O2045 O 0.38977 0.41997 0.97868
 O2046 O 0.36391 0.39423 0.97872
 C2047 C 0.37173 0.41222 0.97116
 C2048 C 0.36009 0.42402 0.95308
 C2049 C 0.33932 0.41673 0.94562
 H2050 H 0.33151 0.40275 0.95366
 O2051 O 0.60987 0.57989 0.97864
 O2052 O 0.63574 0.60562 0.97860
 C2053 C 0.62789 0.58762 0.97107
 C2054 C 0.63951 0.57579 0.95301
 C2055 C 0.66030 0.58303 0.94554
 H2056 H 0.66814 0.59700 0.95356
 O2057 O 0.52140 0.42001 0.88990
 O2058 O 0.52148 0.39426 0.86404
 C2059 C 0.52898 0.41228 0.87188
 C2060 C 0.54706 0.42412 0.86027
 C2061 C 0.55462 0.41685 0.83951
 H2062 H 0.54665 0.40286 0.83166
 O2063 O 0.47818 0.57977 0.89007
 O2064 O 0.47813 0.60548 0.86416
 C2065 C 0.47063 0.58747 0.87202
 C2066 C 0.45263 0.57559 0.86036
 C2067 C 0.44525 0.58276 0.83951
 H2068 H 0.45329 0.59671 0.83166
 O2069 O 0.38963 0.52137 0.92022
 O2070 O 0.36376 0.52141 0.89448
 C2071 C 0.37161 0.52895 0.91248
 C2072 C 0.36001 0.54705 0.92429
 C2073 C 0.33929 0.55462 0.91695
 H2074 H 0.33147 0.54664 0.90294
 O2075 O 0.60996 0.47838 0.92031
 O2076 O 0.63583 0.47840 0.89456
 C2077 C 0.62799 0.47085 0.91257
 C2078 C 0.63963 0.45278 0.92437
 C2079 C 0.66038 0.44528 0.91705
 H2080 H 0.66818 0.45330 0.90305
 O2081 O 0.57971 0.38983 0.97865
 O2082 O 0.60545 0.36396 0.97865
 C2083 C 0.58745 0.37180 0.97110
 C2084 C 0.57566 0.36017 0.95302
 C2085 C 0.58299 0.33942 0.94553
 H2086 H 0.59697 0.33161 0.95357
 O2087 O 0.41984 0.61006 0.97865
 O2088 O 0.39409 0.63591 0.97863
 C2089 C 0.41209 0.62808 0.97110
 C2090 C 0.42390 0.63972 0.95303
 C2091 C 0.41661 0.66049 0.94554
 H2092 H 0.40262 0.66831 0.95358
 Cu2093 Cu 0.59220 0.49995 0.90775
 Cu2094 Cu 0.62318 0.50000 0.87676
 Cu2095 Cu 0.40737 0.49975 0.90766
 Cu2096 Cu 0.37638 0.49977 0.87670
 Cu2097 Cu 0.59215 0.59245 1.00025
 Cu2098 Cu 0.62312 0.62343 1.00022
 Cu2099 Cu 0.59230 0.40756 1.00023
 Cu2100 Cu 0.62328 0.37658 1.00024
 Cu2101 Cu 0.40728 0.59230 1.00023
 Cu2102 Cu 0.37628 0.62324 1.00022
 Cu2103 Cu 0.40753 0.40741 1.00025
 Cu2104 Cu 0.37657 0.37642 1.00032
 Cu2105 Cu 0.49973 0.59241 0.90778
 Cu2106 Cu 0.49970 0.62337 0.87677
 Cu2107 Cu 0.49983 0.40742 0.90764
 Cu2108 Cu 0.49990 0.37642 0.87669
 C2109 C 0.55754 0.44220 0.87043
 H2110 H 0.55199 0.44770 0.88657
 C2111 C 0.57256 0.42732 0.82899
 C2112 C 0.44209 0.55753 0.87051
 H2113 H 0.44750 0.55211 0.88672
 C2114 C 0.42742 0.57223 0.82889
 C2115 C 0.44197 0.62961 0.94248
 H2116 H 0.44748 0.61346 0.94798
 C2117 C 0.42702 0.67106 0.92760
 C2118 C 0.55759 0.37027 0.94247
 H2119 H 0.55205 0.38641 0.94797
 C2120 C 0.57260 0.32885 0.92758
 C2121 C 0.62953 0.44225 0.94246
 H2122 H 0.61340 0.44775 0.94800
 C2123 C 0.67095 0.42734 0.92745
 C2124 C 0.37012 0.55754 0.94240
 H2125 H 0.38623 0.55199 0.94795
 C2126 C 0.32875 0.57258 0.92737
 C2127 C 0.55747 0.55771 0.87052
 H2128 H 0.55201 0.55225 0.88670
 C2129 C 0.57226 0.57249 0.82896
 C2130 C 0.44204 0.44202 0.87034
 H2131 H 0.44762 0.44763 0.88642
 C2132 C 0.42691 0.42680 0.82906
 C2133 C 0.62938 0.55773 0.94247
 H2134 H 0.61322 0.55225 0.94795
 C2135 C 0.67088 0.57257 0.92763
 C2136 C 0.37019 0.44209 0.94252
 H2137 H 0.38634 0.44761 0.94800
 C2138 C 0.32873 0.42714 0.92768
 C2139 C 0.55741 0.62969 0.94250
 H2140 H 0.55194 0.61352 0.94797
 C2141 C 0.57222 0.67120 0.92767
 C2142 C 0.44218 0.37013 0.94246
 H2143 H 0.44772 0.38625 0.94799
 C2144 C 0.42720 0.32873 0.92748
 C2145 C 1.10620 1.10571 1.25278
 N2146 N 1.12420 1.09634 1.26238
 N2147 N 1.13258 1.10465 1.28100
 C2148 C 1.12335 1.12269 1.29081
 N2149 N 1.10524 1.13193 1.28114
 N2150 N 1.09684 1.12364 1.26252
 C2151 C 1.09726 1.09688 1.23196
 N2152 N 1.07953 1.10654 1.22213
 N2153 N 1.07172 1.09883 1.20300
 C2154 C 1.08132 1.08116 1.19293
 N2155 N 1.09902 1.07148 1.20289
 N2156 N 1.10684 1.07918 1.22201
 C2157 C 1.10561 0.60504 0.75279
 N2158 N 1.12358 0.59564 0.76243
 N2159 N 1.13190 0.60391 0.78110
 C2160 C 1.12261 0.62191 0.79087
 N2161 N 1.10456 0.63122 0.78120
 N2162 N 1.09623 0.62296 0.76253
 C2163 C 1.09676 0.59628 0.73191
 N2164 N 1.07908 0.60597 0.72203
 N2165 N 1.07137 0.59833 0.70284
 C2166 C 1.08103 0.58069 0.69275
 N2167 N 1.09868 0.57098 0.70276
 N2168 N 1.10639 0.57861 0.72195
 C2169 C 0.60570 1.10532 0.75264
 N2170 N 0.62370 1.09593 0.76224
 N2171 N 0.63204 1.10418 0.78091
 C2172 C 0.62274 1.12216 0.79072
 N2173 N 0.60467 1.13146 0.78108
 N2174 N 0.59631 1.12322 0.76242
 C2175 C 0.59682 1.09656 0.73177
 N2176 N 0.57911 1.10624 0.72193
 N2177 N 0.57137 1.09860 0.70275
 C2178 C 0.58102 1.08098 0.69264
 N2179 N 0.59870 1.07128 0.70260
 N2180 N 0.60645 1.07891 0.72178
 C2181 C 0.60534 0.60543 1.25304
 N2182 N 0.62329 0.59605 1.26271
 N2183 N 0.63160 0.60434 1.28137
 C2184 C 0.62234 0.62238 1.29115
 N2185 N 0.60427 0.63164 1.28141
 N2186 N 0.59595 0.62336 1.26276
 C2187 C 0.59650 0.59663 1.23217
 N2188 N 0.57881 0.60628 1.22227
 N2189 N 0.57111 0.59860 1.20309
 C2190 C 0.58079 0.58096 1.19304
 N2191 N 0.59845 0.57128 1.20306
 N2192 N 0.60616 0.57895 1.22224
 C2193 C 0.89461 0.89472 1.25300
 N2194 N 0.90401 0.87678 1.26269
 N2195 N 0.89572 0.86848 1.28136
 C2196 C 0.87767 0.87774 1.29113
 N2197 N 0.86839 0.89579 1.28138
 N2198 N 0.87668 0.90410 1.26271
 C2199 C 0.90342 0.90354 1.23213
 N2200 N 0.89375 0.92121 1.22221
 N2201 N 0.90143 0.92890 1.20302
 C2202 C 0.91907 0.91922 1.19297
 N2203 N 0.92876 0.90158 1.20301
 N2204 N 0.92109 0.89388 1.22220
 C2205 C 0.89433 0.39445 0.75276
 N2206 N 0.87637 0.40384 0.76243
 N2207 N 0.86807 0.39555 0.78110
 C2208 C 0.87735 0.37752 0.79090
 N2209 N 0.89542 0.36826 0.78116
 N2210 N 0.90373 0.37654 0.76249
 C2211 C 0.90318 0.40325 0.73189
 N2212 N 0.92088 0.39359 0.72200
 N2213 N 0.92859 0.40128 0.70283
 C2214 C 0.91893 0.41892 0.69276
 N2215 N 0.90126 0.42860 0.70277
 N2216 N 0.89353 0.42093 0.72194
 C2217 C 0.39439 0.89492 0.75287
 N2218 N 0.40376 0.87700 0.76263
 N2219 N 0.39542 0.86875 0.78130
 C2220 C 0.37738 0.87808 0.79097
 N2221 N 0.36809 0.89608 0.78119
 N2222 N 0.37642 0.90434 0.76251
 C2223 C 0.40324 0.90368 0.73199
 N2224 N 0.39362 0.92135 0.72202
 N2225 N 0.40134 0.92898 0.70283
 C2226 C 0.41898 0.91925 0.69282
 N2227 N 0.42863 0.90162 0.70291
 N2228 N 0.42092 0.89398 0.72211
 C2229 C 0.39402 0.39456 1.25312
 N2230 N 0.37602 0.40393 1.26273
 N2231 N 0.36766 0.39564 1.28137
 C2232 C 0.37692 0.37762 1.29120
 N2233 N 0.39502 0.36837 1.28153
 N2234 N 0.40340 0.37665 1.26288
 C2235 C 0.40292 0.40336 1.23227
 N2236 N 0.42064 0.39369 1.22243
 N2237 N 0.42840 0.40138 1.20327
 C2238 C 0.41876 0.41901 1.19317
 N2239 N 0.40107 0.42869 1.20314
 N2240 N 0.39330 0.42102 1.22230
 C2241 C 0.89359 1.10600 0.74750
 N2242 N 0.87556 1.09665 0.73794
 N2243 N 0.86713 1.10497 0.71933
 C2244 C 0.87636 1.12300 0.70950
 N2245 N 0.89450 1.13223 0.71913
 N2246 N 0.90293 1.12392 0.73774
 C2247 C 0.90258 1.09714 0.76829
 N2248 N 0.92035 1.10677 0.77807
 N2249 N 0.92821 1.09902 0.79717
 C2250 C 0.91862 1.08135 0.80726
 N2251 N 0.90088 1.07171 0.79735
 N2252 N 0.89301 1.07944 0.77826
 C2253 C 0.89566 0.60444 0.24655
 N2254 N 0.87776 0.59499 0.23683
 N2255 N 0.86953 0.60321 0.21809
 C2256 C 0.87886 0.62119 0.20832
 N2257 N 0.89685 0.63054 0.21806
 N2258 N 0.90508 0.62234 0.23680
 C2259 C 0.90436 0.59577 0.26752
 N2260 N 0.92197 0.60551 0.27748
 N2261 N 0.92952 0.59796 0.29677
 C2262 C 0.91979 0.58039 0.30688
 N2263 N 0.90222 0.57062 0.29680
 N2264 N 0.89465 0.57816 0.27750
 C2265 C 0.39458 1.10528 0.24702
 N2266 N 0.37666 1.09587 0.23733
 N2267 N 0.36839 1.10413 0.21863
 C2268 C 0.37767 1.12216 0.20883
 N2269 N 0.39571 1.13144 0.21859
 N2270 N 0.40399 1.12319 0.23729
 C2271 C 0.40336 1.09653 0.26793
 N2272 N 0.42101 1.10622 0.27786
 N2273 N 0.42866 1.09858 0.29708
 C2274 C 0.41897 1.08096 0.30715
 N2275 N 0.40136 1.07124 0.29710
 N2276 N 0.39370 1.07887 0.27788
 C2277 C 0.39538 0.60442 0.74676
 N2278 N 0.37751 0.59497 0.73698
 N2279 N 0.36934 0.60319 0.71822
 C2280 C 0.37869 0.62118 0.70849
 N2281 N 0.39664 0.63054 0.71829
 N2282 N 0.40482 0.62233 0.73705
 C2283 C 0.40402 0.59573 0.76774
 N2284 N 0.42160 0.60547 0.77775
 N2285 N 0.42912 0.59791 0.79705
 C2286 C 0.41936 0.58032 0.80713
 N2287 N 0.40182 0.57056 0.79699
 N2288 N 0.39430 0.57811 0.77769
 C2289 C 1.10555 0.89496 0.74714
 N2290 N 1.09616 0.87706 0.73739
 N2291 N 1.10449 0.86881 0.71871
 C2292 C 1.12254 0.87812 0.70904
 N2293 N 1.13184 0.89611 0.71882
 N2294 N 1.12352 0.90437 0.73750
 C2295 C 1.09671 0.90372 0.76803
 N2296 N 1.10636 0.92136 0.77800
 N2297 N 1.09866 0.92898 0.79720
 C2298 C 1.08101 0.91927 0.80721
 N2299 N 1.07134 0.90165 0.79712
 N2300 N 1.07903 0.89403 0.77791
 C2301 C 1.10520 0.39531 0.24680
 N2302 N 1.09579 0.37742 0.23704
 N2303 N 1.10408 0.36920 0.21833
 C2304 C 1.12211 0.37853 0.20864
 N2305 N 1.13142 0.39651 0.21842
 N2306 N 1.12314 0.40474 0.23713
 C2307 C 1.09643 0.40402 0.26773
 N2308 N 1.10610 0.42164 0.27771
 N2309 N 1.09846 0.42921 0.29696
 C2310 C 1.08086 0.41945 0.30701
 N2311 N 1.07116 0.40186 0.29691
 N2312 N 1.07879 0.39429 0.27765
 C2313 C 0.60535 0.89461 0.24708
 N2314 N 0.59598 0.87667 0.23738
 N2315 N 0.60431 0.86836 0.21873
 C2316 C 0.62236 0.87762 0.20898
 N2317 N 0.63161 0.89568 0.21874
 N2318 N 0.62330 0.90400 0.23739
 C2319 C 0.59651 0.90344 0.26793
 N2320 N 0.60615 0.92113 0.27785
 N2321 N 0.59844 0.92882 0.29702
 C2322 C 0.58079 0.91913 0.30706
 N2323 N 0.57113 0.90148 0.29703
 N2324 N 0.57883 0.89378 0.27785
 C2325 C 0.60553 0.39485 0.74732
 N2326 N 0.59615 0.37696 0.73754
 N2327 N 0.60451 0.36872 0.71887
 C2328 C 0.62258 0.37802 0.70924
 N2329 N 0.63188 0.39600 0.71905
 N2330 N 0.62352 0.40425 0.73772
 C2331 C 0.59665 0.40360 0.76819
 N2332 N 0.60627 0.42125 0.77819
 N2333 N 0.59852 0.42887 0.79738
 C2334 C 0.58085 0.41915 0.80735
 N2335 N 0.57120 0.40153 0.79723
 N2336 N 0.57895 0.39391 0.77804
 C2337 C 1.25288 1.10486 1.10540
 N2338 N 1.26254 1.09543 1.12335
 N2339 N 1.28124 1.10366 1.13164
 C2340 C 1.29102 1.12163 1.12231
 N2341 N 1.28134 1.13097 1.10428
 N2342 N 1.26264 1.12275 1.09598
 C2343 C 1.23197 1.09614 1.09660
 N2344 N 1.22207 1.10585 1.07894
 N2345 N 1.20284 1.09825 1.07128
 C2346 C 1.19274 1.08065 1.08098
 N2347 N 1.20277 1.07092 1.09862
 N2348 N 1.22199 1.07850 1.10628
 C2349 C 1.25331 0.60445 0.60445
 N2350 N 1.26304 0.62235 0.59500
 N2351 N 1.28178 0.63055 0.60321
 C2352 C 1.29155 0.62119 0.62118
 N2353 N 1.28180 0.60321 0.63053
 N2354 N 1.26306 0.59500 0.62234
 C2355 C 1.23235 0.59577 0.59577
 N2356 N 1.22239 0.57815 0.60551
 N2357 N 1.20310 0.57061 0.59796
 C2358 C 1.19300 0.58037 0.58038
 N2359 N 1.20309 0.59795 0.57063
 N2360 N 1.22237 0.60550 0.57816
 C2361 C 0.75240 1.10602 0.60639
 N2362 N 0.76199 1.09666 0.62441
 N2363 N 0.78058 1.10499 0.63282
 C2364 C 0.79039 1.12303 0.62358
 N2365 N 0.78074 1.13226 0.60545
 N2366 N 0.76214 1.12395 0.59703
 C2367 C 0.73162 1.09715 0.59740
 N2368 N 0.72183 1.10678 0.57963
 N2369 N 0.70274 1.09903 0.57178
 C2370 C 0.69268 1.08134 0.58137
 N2371 N 0.70260 1.07170 0.59912
 N2372 N 0.72168 1.07944 0.60698
 C2373 C 0.75316 0.60459 1.10461
 N2374 N 0.76295 0.59513 1.12248
 N2375 N 0.78171 0.60333 1.13063
 C2376 C 0.79144 0.62131 1.12127
 N2377 N 0.78163 0.63069 1.10332
 N2378 N 0.76287 0.62250 1.09516
 C2379 C 0.73218 0.59592 1.09598
 N2380 N 0.72216 0.60566 1.07839
 N2381 N 0.70286 0.59810 1.07088
 C2382 C 0.69280 0.58051 1.08065
 N2383 N 0.70294 0.57075 1.09820
 N2384 N 0.72224 0.57830 1.10572
 C2385 C 1.25272 0.89446 0.89462
 N2386 N 1.26241 0.90386 0.87668
 N2387 N 1.28107 0.89557 0.86837
 C2388 C 1.29083 0.87752 0.87764
 N2389 N 1.28108 0.86824 0.89569
 N2390 N 1.26241 0.87652 0.90400
 C2391 C 1.23185 0.90328 0.90345
 N2392 N 1.22193 0.89361 0.92113
 N2393 N 1.20276 0.90130 0.92883
 C2394 C 1.19273 0.91897 0.91916
 N2395 N 1.20277 0.92866 0.90151
 N2396 N 1.22194 0.92097 0.89381
 C2397 C 1.25284 0.39452 0.39412
 N2398 N 1.26258 0.37661 0.40352
 N2399 N 1.28123 0.36833 0.39517
 C2400 C 1.29093 0.37759 0.37707
 N2401 N 1.28112 0.39561 0.36780
 N2402 N 1.26247 0.40390 0.37614
 C2403 C 1.23199 0.40333 0.40300
 N2404 N 1.22204 0.42100 0.39337
 N2405 N 1.20288 0.42868 0.40112
 C2406 C 1.19290 0.41900 0.41881
 N2407 N 1.20297 0.40136 0.42847
 N2408 N 1.22213 0.39367 0.42072
 C2409 C 0.75282 0.89504 0.39448
 N2410 N 0.76256 0.87713 0.40390
 N2411 N 0.78125 0.86889 0.39561
 C2412 C 0.79095 0.87821 0.37758
 N2413 N 0.78119 0.89620 0.36825
 N2414 N 0.76250 0.90445 0.37653
 C2415 C 0.73192 0.90379 0.40327
 N2416 N 0.72195 0.92143 0.39359
 N2417 N 0.70273 0.92904 0.40126
 C2418 C 0.69271 0.91932 0.41890
 N2419 N 0.70279 0.90172 0.42860
 N2420 N 0.72201 0.89409 0.42094
 C2421 C 0.75261 0.39485 0.89451
 N2422 N 0.76222 0.40426 0.87652
 N2423 N 0.78089 0.39602 0.86818
 C2424 C 0.79070 0.37804 0.87748
 N2425 N 0.78106 0.36872 0.89555
 N2426 N 0.76239 0.37696 0.90390
 C2427 C 0.73174 0.40360 0.90338
 N2428 N 0.72189 0.39391 0.92109
 N2429 N 0.70270 0.40154 0.92882
 C2430 C 0.69259 0.41916 0.91917
 N2431 N 0.70256 0.42887 0.90149
 N2432 N 0.72174 0.42125 0.89375
 C2433 C 0.74723 0.89498 1.10562
 N2434 N 0.73755 0.90438 1.12358
 N2435 N 0.71887 0.89610 1.13187
 C2436 C 0.70913 0.87810 1.12256
 N2437 N 0.71884 0.86879 1.10453
 N2438 N 0.73751 0.87705 1.09622
 C2439 C 0.76810 0.90376 1.09680
 N2440 N 0.77801 0.89409 1.07912
 N2441 N 0.79720 0.90175 1.07143
 C2442 C 0.80726 0.91938 1.08111
 N2443 N 0.79723 0.92908 1.09876
 N2444 N 0.77804 0.92143 1.10646
 C2445 C 0.74730 0.39436 0.60564
 N2446 N 0.73760 0.37644 0.59624
 N2447 N 0.71893 0.36816 0.60455
 C2448 C 0.70918 0.37742 0.62262
 N2449 N 0.71896 0.39546 0.63189
 N2450 N 0.73762 0.40375 0.62359
 C2451 C 0.76816 0.40318 0.59679
 N2452 N 0.77808 0.42086 0.60644
 N2453 N 0.79724 0.42855 0.59871
 C2454 C 0.80726 0.41888 0.58104
 N2455 N 0.79722 0.40123 0.57137
 N2456 N 0.77806 0.39353 0.57909
 C2457 C 0.24725 0.89446 0.60550
 N2458 N 0.23757 0.87652 0.59610
 N2459 N 0.21890 0.86823 0.60439
 C2460 C 0.20912 0.87749 0.62244
 N2461 N 0.21887 0.89554 0.63172
 N2462 N 0.23754 0.90384 0.62344
 C2463 C 0.26812 0.90328 0.59669
 N2464 N 0.27802 0.92096 0.60636
 N2465 N 0.29719 0.92866 0.59866
 C2466 C 0.30723 0.91900 0.58100
 N2467 N 0.29721 0.90135 0.57132
 N2468 N 0.27804 0.89364 0.57900
 C2469 C 0.24695 0.39472 1.10529
 N2470 N 0.23720 0.40414 1.12319
 N2471 N 0.21849 0.39588 1.13141
 C2472 C 0.20873 0.37785 1.12211
 N2473 N 0.21855 0.36855 1.10410
 N2474 N 0.23726 0.37680 1.09587
 C2475 C 0.26788 0.40348 1.09657
 N2476 N 0.27786 0.39380 1.07893
 N2477 N 0.29709 0.40144 1.07133
 C2478 C 0.30712 0.41907 1.08106
 N2479 N 0.29701 0.42877 1.09866
 N2480 N 0.27779 0.42114 1.10627
 C2481 C 0.74744 1.10586 0.89434
 N2482 N 0.73778 1.09647 0.87638
 N2483 N 0.71911 1.10475 0.86807
 C2484 C 0.70932 1.12278 0.87735
 N2485 N 0.71906 1.13205 0.89541
 N2486 N 0.73772 1.12378 0.90373
 C2487 C 0.76830 1.09704 0.90318
 N2488 N 0.77819 1.10670 0.92088
 N2489 N 0.79735 1.09899 0.92861
 C2490 C 0.80740 1.08134 0.91895
 N2491 N 0.79738 1.07166 0.90128
 N2492 N 0.77823 1.07936 0.89354
 C2493 C 0.74726 0.60506 0.39444
 N2494 N 0.73759 0.59566 0.37648
 N2495 N 0.71890 0.60391 0.36820
 C2496 C 0.70912 0.62189 0.37753
 N2497 N 0.71882 0.63120 0.39556
 N2498 N 0.73751 0.62296 0.40385
 C2499 C 0.76815 0.59632 0.40324
 N2500 N 0.77804 0.60600 0.42093
 N2501 N 0.79725 0.59838 0.42860
 C2502 C 0.80734 0.58077 0.41891
 N2503 N 0.79733 0.57106 0.40126
 N2504 N 0.77813 0.57868 0.39357
 C2505 C 0.24733 1.10575 0.39388
 N2506 N 0.23773 1.09637 0.37588
 N2507 N 0.21910 1.10467 0.36750
 C2508 C 0.20928 1.12270 0.37674
 N2509 N 0.21895 1.13195 0.39485
 N2510 N 0.23758 1.12367 0.40324
 C2511 C 0.26814 1.09693 0.40281
 N2512 N 0.27797 1.10659 0.42055
 N2513 N 0.29710 1.09889 0.42834
 C2514 C 0.30718 1.08123 0.41873
 N2515 N 0.29723 1.07154 0.40103
 N2516 N 0.27810 1.07923 0.39322
 C2517 C 0.24721 0.60547 0.89451
 N2518 N 0.23753 0.62342 0.90390
 N2519 N 0.21888 0.63173 0.89559
 C2520 C 0.20912 0.62247 0.87753
 N2521 N 0.21887 0.60441 0.86827
 N2522 N 0.23751 0.59609 0.87657
 C2523 C 0.26805 0.59662 0.90335
 N2524 N 0.27796 0.57892 0.89370
 N2525 N 0.29711 0.57120 0.90142
 C2526 C 0.30714 0.58086 0.91909
 N2527 N 0.29711 0.59852 0.92876
 N2528 N 0.27796 0.60625 0.92105
 C2529 C 1.10522 1.25315 1.10473
 N2530 N 1.12318 1.26277 1.09530
 N2531 N 1.13148 1.28147 1.10351
 C2532 C 1.12215 1.29130 1.12147
 N2533 N 1.10410 1.28165 1.13080
 N2534 N 1.09580 1.26295 1.12261
 C2535 C 1.09642 1.23223 1.09605
 N2536 N 1.07875 1.22236 1.10579
 N2537 N 1.07109 1.20312 1.09824
 C2538 C 1.08078 1.19298 1.08065
 N2539 N 1.09841 1.20297 1.07089
 N2540 N 1.10608 1.22220 1.07843
 C2541 C 1.10558 0.75280 0.60504
 N2542 N 1.09620 0.76256 0.62296
 N2543 N 1.10453 0.78123 0.63119
 C2544 C 1.12258 0.79089 0.62186
 N2545 N 1.13187 0.78110 0.60386
 N2546 N 1.12354 0.76243 0.59561
 C2547 C 1.09673 0.73192 0.59630
 N2548 N 1.10636 0.72195 0.57863
 N2549 N 1.09864 0.70276 0.57101
 C2550 C 1.08101 0.69276 0.58075
 N2551 N 1.07135 0.70285 0.59839
 N2552 N 1.07906 0.72205 0.60601
 C2553 C 0.60556 1.25284 0.60507
 N2554 N 0.59616 1.26261 0.62297
 N2555 N 0.60451 1.28126 0.63124
 C2556 C 0.62258 1.29089 0.62195
 N2557 N 0.63190 1.28111 0.60396
 N2558 N 0.62356 1.26246 0.59568
 C2559 C 0.59670 1.23199 0.59629
 N2560 N 0.60636 1.22200 0.57864
 N2561 N 0.59863 1.20283 0.57101
 C2562 C 0.58096 1.19285 0.58070
 N2563 N 0.57127 1.20296 0.59831
 N2564 N 0.57899 1.22214 0.60596
 C2565 C 0.60500 0.75281 1.10564
 N2566 N 0.59560 0.76249 1.12359
 N2567 N 0.60388 0.78116 1.13188
 C2568 C 0.62189 0.79090 1.12257
 N2569 N 0.63120 0.78118 1.10454
 N2570 N 0.62293 0.76252 1.09624
 C2571 C 0.59621 0.73193 1.09683
 N2572 N 0.60588 0.72202 1.07915
 N2573 N 0.59821 0.70283 1.07148
 C2574 C 0.58058 0.69278 1.08117
 N2575 N 0.57088 0.70282 1.09882
 N2576 N 0.57854 0.72200 1.10650
 C2577 C 0.89499 1.25293 0.89451
 N2578 N 0.87708 1.26266 0.90393
 N2579 N 0.86879 1.28131 0.89560
 C2580 C 0.87806 1.29098 0.87752
 N2581 N 0.89605 1.28122 0.86819
 N2582 N 0.90435 1.26257 0.87651
 C2583 C 0.90378 1.23206 0.90335
 N2584 N 0.92142 1.22209 0.89367
 N2585 N 0.92907 1.20291 0.90137
 C2586 C 0.91939 1.19291 0.91906
 N2587 N 0.90179 1.20301 0.92876
 N2588 N 0.89413 1.22219 0.92107
 C2589 C 0.89503 0.75289 0.39452
 N2590 N 0.90445 0.76256 0.37658
 N2591 N 0.89619 0.78125 0.36828
 C2592 C 0.87819 0.79101 0.37759
 N2593 N 0.86886 0.78130 0.39562
 N2594 N 0.87711 0.76262 0.40392
 C2595 C 0.90378 0.73200 0.40334
 N2596 N 0.89408 0.72209 0.42100
 N2597 N 0.90172 0.70288 0.42868
 C2598 C 0.91934 0.69281 0.41900
 N2599 N 0.92907 0.70284 0.40136
 N2600 N 0.92144 0.72204 0.39368
 C2601 C 0.39445 1.25299 0.39469
 N2602 N 0.40384 1.26269 0.37674
 N2603 N 0.39551 1.28133 0.36843
 C2604 C 0.37747 1.29103 0.37773
 N2605 N 0.36817 1.28131 0.39576
 N2606 N 0.37649 1.26267 0.40408
 C2607 C 0.40327 1.23214 0.40351
 N2608 N 0.39361 1.22221 0.42120
 N2609 N 0.40131 1.20303 0.42887
 C2610 C 0.41895 1.19300 0.41918
 N2611 N 0.42864 1.20304 0.40154
 N2612 N 0.42096 1.22223 0.39385
 C2613 C 0.39428 0.75277 0.89509
 N2614 N 0.40369 0.76252 0.87718
 N2615 N 0.39538 0.78120 0.86892
 C2616 C 0.37733 0.79087 0.87823
 N2617 N 0.36801 0.78110 0.89622
 N2618 N 0.37631 0.76243 0.90449
 C2619 C 0.40310 0.73189 0.90386
 N2620 N 0.39344 0.72192 0.92151
 N2621 N 0.40114 0.70272 0.92914
 C2622 C 0.41879 0.69272 0.91943
 N2623 N 0.42847 0.70281 0.90181
 N2624 N 0.42079 0.72201 0.89417
 C2625 C 1.10558 0.74721 0.89491
 N2626 N 1.09622 0.73746 0.87698
 N2627 N 1.10456 0.71880 0.86873
 C2628 C 1.12260 0.70913 0.87807
 N2629 N 1.13188 0.71891 0.89608
 N2630 N 1.12354 0.73757 0.90434
 C2631 C 1.09671 0.76807 0.90367
 N2632 N 1.10632 0.77803 0.92136
 N2633 N 1.09859 0.79721 0.92899
 C2634 C 1.08095 0.80721 0.91926
 N2635 N 1.07132 0.79714 0.90160
 N2636 N 1.07904 0.77795 0.89396
 C2637 C 1.10576 0.24727 0.39436
 N2638 N 1.09639 0.23760 0.37639
 N2639 N 1.10472 0.21897 0.36806
 C2640 C 1.12277 0.20926 0.37734
 N2641 N 1.13205 0.21896 0.39539
 N2642 N 1.12373 0.23759 0.40373
 C2643 C 1.09692 0.26810 0.40321
 N2644 N 1.10657 0.27800 0.42091
 N2645 N 1.09886 0.29716 0.42862
 C2646 C 1.08120 0.30719 0.41896
 N2647 N 1.07153 0.29717 0.40130
 N2648 N 1.07923 0.27801 0.39357
 C2649 C 0.60498 0.74715 0.39456
 N2650 N 0.59556 0.73747 0.37662
 N2651 N 0.60383 0.71879 0.36833
 C2652 C 0.62184 0.70904 0.37762
 N2653 N 0.63117 0.71875 0.39565
 N2654 N 0.62291 0.73742 0.40395
 C2655 C 0.59622 0.76803 0.40337
 N2656 N 0.60593 0.77795 0.42103
 N2657 N 0.59829 0.79715 0.42870
 C2658 C 0.58066 0.80722 0.41902
 N2659 N 0.57093 0.79719 0.40140
 N2660 N 0.57856 0.77798 0.39372
 C2661 C 0.60557 0.24727 0.89498
 N2662 N 0.59619 0.23752 0.87705
 N2663 N 0.60456 0.21889 0.86877
 C2664 C 0.62264 0.20925 0.87806
 N2665 N 0.63192 0.21902 0.89606
 N2666 N 0.62357 0.23765 0.90436
 C2667 C 0.59669 0.26811 0.90377
 N2668 N 0.60631 0.27808 0.92143
 N2669 N 0.59856 0.29725 0.92908
 C2670 C 0.58089 0.30722 0.91938
 N2671 N 0.57124 0.29713 0.90175
 N2672 N 0.57898 0.27796 0.89409
 C2673 C 0.89542 0.74679 1.10450
 N2674 N 0.90489 0.73700 1.12235
 N2675 N 0.89669 0.71824 1.13052
 C2676 C 0.87869 0.70852 1.12118
 N2677 N 0.86930 0.71834 1.10324
 N2678 N 0.87750 0.73710 1.09506
 C2679 C 0.90410 0.76778 1.09585
 N2680 N 0.89435 0.77781 1.07828
 N2681 N 0.90192 0.79710 1.07077
 C2682 C 0.91951 0.80715 1.08053
 N2683 N 0.92928 0.79700 1.09807
 N2684 N 0.92173 0.77770 1.10558
 C2685 C 0.89407 0.24747 0.60583
 N2686 N 0.87608 0.23783 0.59648
 N2687 N 0.86770 0.21923 0.60485
 C2688 C 0.87697 0.20954 0.62292
 N2689 N 0.89503 0.21920 0.63218
 N2690 N 0.90342 0.23780 0.62382
 C2691 C 0.90298 0.26826 0.59693
 N2692 N 0.92070 0.27813 0.60656
 N2693 N 0.92847 0.29724 0.59879
 C2694 C 0.91884 0.30726 0.58110
 N2695 N 0.90115 0.29727 0.57146
 N2696 N 0.89337 0.27816 0.57921
 C2697 C 0.39542 0.74674 0.60455
 N2698 N 0.37756 0.73698 0.59507
 N2699 N 0.36937 0.71823 0.60327
 C2700 C 0.37871 0.70848 0.62127
 N2701 N 0.39665 0.71825 0.63065
 N2702 N 0.40485 0.73701 0.62246
 C2703 C 0.40409 0.76771 0.59586
 N2704 N 0.42167 0.77771 0.60561
 N2705 N 0.42921 0.79699 0.59805
 C2706 C 0.41947 0.80707 0.58045
 N2707 N 0.40192 0.79695 0.57068
 N2708 N 0.39438 0.77766 0.57823
 C2709 C 0.39514 0.24690 1.10541
 N2710 N 0.40453 0.23722 1.12338
 N2711 N 0.39627 0.21853 1.13164
 C2712 C 0.37830 0.20876 1.12229
 N2713 N 0.36901 0.21846 1.10425
 N2714 N 0.37725 0.23715 1.09597
 C2715 C 0.40388 0.26780 1.09665
 N2716 N 0.39421 0.27771 1.07896
 N2717 N 0.40181 0.29695 1.07134
 C2718 C 0.41938 0.30705 1.08108
 N2719 N 0.42908 0.29702 1.09873
 N2720 N 0.42149 0.27779 1.10636
 C2721 C 1.10527 1.10523 0.74694
 N2722 N 1.12318 1.09583 0.73719
 N2723 N 1.13141 1.10411 0.71848
 C2724 C 1.12211 1.12215 0.70873
 N2725 N 1.10409 1.13143 0.71854
 N2726 N 1.09585 1.12316 0.73725
 C2727 C 1.09653 1.09644 0.76785
 N2728 N 1.07886 1.10609 0.77780
 N2729 N 1.07124 1.09843 0.79702
 C2730 C 1.08097 1.08081 0.80707
 N2731 N 1.09860 1.07113 0.79701
 N2732 N 1.10624 1.07879 0.77778
 C2733 C 1.10573 0.60621 0.24733
 N2734 N 1.12363 0.59685 0.23754
 N2735 N 1.13190 0.60526 0.21892
 C2736 C 1.12267 0.62340 0.20929
 N2737 N 1.10466 0.63264 0.21914
 N2738 N 1.09637 0.62424 0.23777
 C2739 C 1.09693 0.59726 0.26816
 N2740 N 1.07926 0.60685 0.27815
 N2741 N 1.07159 0.59902 0.29729
 C2742 C 1.08127 0.58131 0.30721
 N2743 N 1.09892 0.57170 0.29710
 N2744 N 1.10660 0.57951 0.27796
 C2745 C 0.60474 1.10541 0.24694
 N2746 N 0.62266 1.09601 0.23720
 N2747 N 0.63093 1.10433 0.21853
 C2748 C 0.62163 1.12238 0.20885
 N2749 N 0.60363 1.13169 0.21861
 N2750 N 0.59535 1.12338 0.23728
 C2751 C 0.59598 1.09660 0.26783
 N2752 N 0.57834 1.10627 0.27781
 N2753 N 0.57072 1.09860 0.29702
 C2754 C 0.58043 1.08095 0.30704
 N2755 N 0.59803 1.07125 0.29694
 N2756 N 0.60566 1.07892 0.27772
 C2757 C 0.60462 0.60476 0.74698
 N2758 N 0.62252 0.59532 0.73726
 N2759 N 0.63075 0.60353 0.71852
 C2760 C 0.62143 0.62152 0.70875
 N2761 N 0.60344 0.63088 0.71850
 N2762 N 0.59520 0.62267 0.73723
 C2763 C 0.59589 0.59606 0.76793
 N2764 N 0.57827 0.60579 0.77788
 N2765 N 0.57067 0.59821 0.79715
 C2766 C 0.58039 0.58061 0.80724
 N2767 N 0.59798 0.57086 0.79716
 N2768 N 0.60558 0.57843 0.77790
 C2769 C 0.89535 0.89541 0.74684
 N2770 N 0.87745 0.90484 0.73710
 N2771 N 0.86924 0.89661 0.71837
 C2772 C 0.87859 0.87862 0.70862
 N2773 N 0.89657 0.86929 0.71838
 N2774 N 0.90479 0.87751 0.73712
 C2775 C 0.90405 0.90412 0.76779
 N2776 N 0.92167 0.89441 0.77776
 N2777 N 0.92924 0.90200 0.79703
 C2778 C 0.91950 0.91959 0.80711
 N2779 N 0.90191 0.92932 0.79702
 N2780 N 0.89433 0.92175 0.77775
 C2781 C 0.89517 0.39457 0.24703
 N2782 N 0.90456 0.37660 0.23738
 N2783 N 0.89628 0.36828 0.21872
 C2784 C 0.87828 0.37759 0.20895
 N2785 N 0.86899 0.39564 0.21863
 N2786 N 0.87726 0.40397 0.23729
 C2787 C 0.90394 0.40340 0.26791
 N2788 N 0.89425 0.42108 0.27780
 N2789 N 0.90188 0.42876 0.29701
 C2790 C 0.91949 0.41908 0.30710
 N2791 N 0.92921 0.40143 0.29709
 N2792 N 0.92158 0.39374 0.27788
 C2793 C 0.39499 0.89470 0.24699
 N2794 N 0.37710 0.90408 0.23719
 N2795 N 0.36888 0.89573 0.21852
 C2796 C 0.37820 0.87766 0.20889
 N2797 N 0.39618 0.86837 0.21871
 N2798 N 0.40441 0.87671 0.23739
 C2799 C 0.40370 0.90355 0.26788
 N2800 N 0.42134 0.89392 0.27789
 N2801 N 0.42892 0.90164 0.29710
 C2802 C 0.41917 0.91928 0.30709
 N2803 N 0.40156 0.92894 0.29695
 N2804 N 0.39398 0.92123 0.27774
 C2805 C 0.39398 0.39344 0.74772
 N2806 N 0.37606 0.40280 0.73797
 N2807 N 0.36775 0.39440 0.71935
 C2808 C 0.37699 0.37628 0.70969
 N2809 N 0.39502 0.36703 0.71951
 N2810 N 0.40334 0.37543 0.73813
 C2811 C 0.40283 0.40240 0.76852
 N2812 N 0.42053 0.39283 0.77847
 N2813 N 0.42826 0.40067 0.79757
 C2814 C 0.41860 0.41840 0.80751
 N2815 N 0.40092 0.42799 0.79744
 N2816 N 0.39319 0.42016 0.77833
 C2817 C 1.10560 0.89390 1.25289
 N2818 N 1.09626 0.87588 1.26249
 N2819 N 1.10458 0.86750 1.28111
 C2820 C 1.12260 0.87675 1.29092
 N2821 N 1.13182 0.89488 1.28126
 N2822 N 1.12351 0.90327 1.26264
 C2823 C 1.09677 0.90283 1.23207
 N2824 N 1.10640 0.92058 1.22225
 N2825 N 1.09869 0.92838 1.20312
 C2826 C 1.08104 0.91875 1.19303
 N2827 N 1.07138 0.90103 1.20298
 N2828 N 1.07909 0.89323 1.22211
 C2829 C 1.10505 0.39441 0.75286
 N2830 N 1.09564 0.37645 0.76250
 N2831 N 1.10388 0.36813 0.78119
 C2832 C 1.12186 0.37742 0.79098
 N2833 N 1.13119 0.39547 0.78131
 N2834 N 1.12295 0.40380 0.76263
 C2835 C 1.09631 0.40325 0.73197
 N2836 N 1.10601 0.42093 0.72208
 N2837 N 1.09839 0.42863 0.70288
 C2838 C 1.08077 0.41897 0.69278
 N2839 N 1.07104 0.40133 0.70279
 N2840 N 1.07866 0.39362 0.72199
 C2841 C 0.60471 0.89534 0.75308
 N2842 N 0.62261 0.90476 0.76281
 N2843 N 0.63083 0.89652 0.78154
 C2844 C 0.62149 0.87854 0.79129
 N2845 N 0.60350 0.86921 0.78154
 N2846 N 0.59527 0.87744 0.76281
 C2847 C 0.59599 0.90406 0.73213
 N2848 N 0.57836 0.89436 0.72218
 N2849 N 0.57079 0.90195 0.70291
 C2850 C 0.58053 0.91954 0.69282
 N2851 N 0.59813 0.92926 0.70290
 N2852 N 0.60571 0.92168 0.72217
 C2853 C 0.60519 0.39484 1.25337
 N2854 N 0.62313 0.40423 1.26306
 N2855 N 0.63141 0.39594 1.28174
 C2856 C 0.62214 0.37790 1.29152
 N2857 N 0.60408 0.36864 1.28177
 N2858 N 0.59579 0.37692 1.26309
 C2859 C 0.59639 0.40362 1.23249
 N2860 N 0.57871 0.39396 1.22257
 N2861 N 0.57105 0.40162 1.20337
 C2862 C 0.58075 0.41923 1.19329
 N2863 N 0.59839 0.42892 1.20333
 N2864 N 0.60606 0.42128 1.22253
 C2865 C 0.89483 1.10533 1.25323
 N2866 N 0.90424 1.12324 1.26295
 N2867 N 0.89594 1.13151 1.28163
 C2868 C 0.87789 1.12224 1.29139
 N2869 N 0.86861 1.10421 1.28160
 N2870 N 0.87689 1.09593 1.26292
 C2871 C 0.90362 1.09655 1.23233
 N2872 N 0.89394 1.07891 1.22239
 N2873 N 0.90161 1.07126 1.20317
 C2874 C 0.91925 1.08096 1.19313
 N2875 N 0.92895 1.09857 1.20320
 N2876 N 0.92130 1.10622 1.22241
 C2877 C 0.89505 0.60490 0.75296
 N2878 N 0.87713 0.59549 0.76268
 N2879 N 0.86888 0.60375 0.78139
 C2880 C 0.87821 0.62174 0.79113
 N2881 N 0.89621 0.63106 0.78139
 N2882 N 0.90447 0.62282 0.76268
 C2883 C 0.90380 0.59615 0.73204
 N2884 N 0.92145 0.60584 0.72210
 N2885 N 0.92907 0.59821 0.70286
 C2886 C 0.91935 0.58061 0.69279
 N2887 N 0.90174 0.57090 0.70286
 N2888 N 0.89411 0.57851 0.72209
 C2889 C 0.39496 1.10556 0.75281
 N2890 N 0.37707 1.09616 0.76260
 N2891 N 0.36884 1.10448 0.78129
 C2892 C 0.37816 1.12253 0.79094
 N2893 N 0.39613 1.13184 0.78113
 N2894 N 0.40437 1.12353 0.76244
 C2895 C 0.40369 1.09672 0.73192
 N2896 N 0.42133 1.10636 0.72192
 N2897 N 0.42893 1.09864 0.70271
 C2898 C 0.41921 1.08100 0.69272
 N2899 N 0.40160 1.07133 0.70284
 N2900 N 0.39399 1.07904 0.72205
 C2901 C 0.39431 0.60613 1.25293
 N2902 N 0.37641 0.59677 1.26272
 N2903 N 0.36814 0.60519 1.28135
 C2904 C 0.37738 0.62333 1.29096
 N2905 N 0.39539 0.63256 1.28110
 N2906 N 0.40368 0.62415 1.26248
 C2907 C 0.40311 0.59716 1.23211
 N2908 N 0.42078 0.60674 1.22211
 N2909 N 0.42845 0.59891 1.20298
 C2910 C 0.41876 0.58120 1.19306
 N2911 N 0.40112 0.57160 1.20317
 N2912 N 0.39344 0.57942 1.22231
 C2913 C 1.10551 1.25270 0.89454
 N2914 N 1.09612 1.26240 0.87659
 N2915 N 1.10440 1.28108 0.86831
 C2916 C 1.12243 1.29085 0.87761
 N2917 N 1.13169 1.28109 0.89566
 N2918 N 1.12342 1.26241 0.90395
 C2919 C 1.09671 1.23182 0.90334
 N2920 N 1.10636 1.22190 0.92103
 N2921 N 1.09867 1.20272 0.92870
 C2922 C 1.08104 1.19267 0.91900
 N2923 N 1.07137 1.20271 0.90134
 N2924 N 1.07905 1.22190 0.89366
 C2925 C 1.10579 0.75267 0.39387
 N2926 N 1.09641 0.76230 0.37588
 N2927 N 1.10471 0.78093 0.36753
 C2928 C 1.12274 0.79074 0.37678
 N2929 N 1.13200 0.78104 0.39488
 N2930 N 1.12371 0.76241 0.40324
 C2931 C 1.09697 0.73184 0.40278
 N2932 N 1.10662 0.72199 0.42051
 N2933 N 1.09891 0.70285 0.42829
 C2934 C 1.08125 0.69280 0.41866
 N2935 N 1.07158 0.70277 0.40096
 N2936 N 1.07928 0.72190 0.39317
 C2937 C 0.60485 1.25303 0.39483
 N2938 N 0.59542 1.26273 0.37691
 N2939 N 0.60366 1.28143 0.36864
 C2940 C 0.62166 1.29117 0.37795
 N2941 N 0.63101 1.28144 0.39595
 N2942 N 0.62277 1.26275 0.40423
 C2943 C 0.59612 1.23211 0.40360
 N2944 N 0.60584 1.22217 0.42124
 N2945 N 0.59824 1.20294 0.42888
 C2946 C 0.58062 1.19288 0.41919
 N2947 N 0.57087 1.20294 0.40159
 N2948 N 0.57846 1.22217 0.39394
 C2949 C 0.60465 0.75309 0.89532
 N2950 N 0.59524 0.76283 0.87740
 N2951 N 0.60349 0.78155 0.86918
 C2952 C 0.62148 0.79128 0.87854
 N2953 N 0.63080 0.78151 0.89653
 N2954 N 0.62256 0.76280 0.90476
 C2955 C 0.59590 0.73216 0.90404
 N2956 N 0.60559 0.72220 0.92168
 N2957 N 0.59796 0.70296 0.92927
 C2958 C 0.58037 0.69290 0.91953
 N2959 N 0.57066 0.70298 0.90192
 N2960 N 0.57827 0.72223 0.89431
 C2961 C 0.89458 1.25287 1.10550
 N2962 N 0.90398 1.26261 1.12341
 N2963 N 0.89566 1.28128 1.13167
 C2964 C 0.87760 1.29100 1.12241
 N2965 N 0.86832 1.28120 1.10438
 N2966 N 0.87662 1.26253 1.09610
 C2967 C 0.90341 1.23200 1.09671
 N2968 N 0.89377 1.22206 1.07903
 N2969 N 0.90149 1.20288 1.07137
 C2970 C 0.91914 1.19286 1.08107
 N2971 N 0.92880 1.20293 1.09872
 N2972 N 0.92110 1.22211 1.10639
 C2973 C 0.89536 0.75312 0.60466
 N2974 N 0.87747 0.76285 0.59521
 N2975 N 0.86926 0.78159 0.60343
 C2976 C 0.87860 0.79135 0.62141
 N2977 N 0.89658 0.78159 0.63077
 N2978 N 0.90480 0.76285 0.62256
 C2979 C 0.90406 0.73217 0.59596
 N2980 N 0.92168 0.72220 0.60568
 N2981 N 0.92925 0.70293 0.59810
 C2982 C 0.91951 0.69285 0.58051
 N2983 N 0.90193 0.70294 0.57076
 N2984 N 0.89435 0.72221 0.57833
 C2985 C 0.39403 1.25241 0.60646
 N2986 N 0.40338 1.26198 0.62449
 N2987 N 0.39506 1.28058 0.63291
 C2988 C 0.37703 1.29040 0.62368
 N2989 N 0.36780 1.28077 0.60554
 N2990 N 0.37610 1.26217 0.59711
 C2991 C 0.40288 1.23163 0.59747
 N2992 N 0.39323 1.22184 0.57971
 N2993 N 0.40097 1.20274 0.57185
 C2994 C 0.41865 1.19267 0.58143
 N2995 N 0.42832 1.20259 0.59916
 N2996 N 0.42059 1.22168 0.60703
 C2997 C 0.39434 0.75273 1.10556
 N2998 N 0.40376 0.76244 1.12348
 N2999 N 0.39550 0.78115 1.13173
 C3000 C 0.37747 0.79092 1.12244
 N3001 N 0.36817 0.78114 1.10442
 N3002 N 0.37641 0.76244 1.09616
 C3003 C 0.40311 0.73182 1.09679
 N3004 N 0.39343 0.72188 1.07913
 N3005 N 0.40110 0.70268 1.07147
 C3006 C 0.41875 0.69265 1.08116
 N3007 N 0.42845 0.70271 1.09879
 N3008 N 0.42079 0.72190 1.10645
 C3009 C 0.89496 0.74721 0.89514
 N3010 N 0.87703 0.73751 0.90456
 N3011 N 0.86880 0.71879 0.89632
 C3012 C 0.87814 0.70903 0.87834
 N3013 N 0.89615 0.71875 0.86901
 N3014 N 0.90440 0.73747 0.87724
 C3015 C 0.90370 0.76813 0.90387
 N3016 N 0.92136 0.77805 0.89418
 N3017 N 0.92898 0.79728 0.90179
 C3018 C 0.91925 0.80737 0.91938
 N3019 N 0.90162 0.79733 0.92910
 N3020 N 0.89400 0.77810 0.92150
 C3021 C 0.89522 0.24702 0.39477
 N3022 N 0.90464 0.23733 0.37683
 N3023 N 0.89639 0.21864 0.36856
 C3024 C 0.87839 0.20889 0.37787
 N3025 N 0.86906 0.21860 0.39589
 N3026 N 0.87730 0.23729 0.40418
 C3027 C 0.90396 0.26792 0.40356
 N3028 N 0.89424 0.27784 0.42122
 N3029 N 0.90186 0.29705 0.42886
 C3030 C 0.91947 0.30713 0.41917
 N3031 N 0.92921 0.29709 0.40155
 N3032 N 0.92161 0.27787 0.39389
 C3033 C 0.39423 0.74751 0.39381
 N3034 N 0.40360 0.73788 0.37582
 N3035 N 0.39531 0.71924 0.36747
 C3036 C 0.37729 0.70943 0.37674
 N3037 N 0.36804 0.71912 0.39484
 N3038 N 0.37632 0.73776 0.40320
 C3039 C 0.40304 0.76834 0.40271
 N3040 N 0.39339 0.77818 0.42045
 N3041 N 0.40109 0.79731 0.42823
 C3042 C 0.41875 0.80738 0.41859
 N3043 N 0.42842 0.79742 0.40089
 N3044 N 0.42072 0.77829 0.39310
 C3045 C 0.39449 0.24713 0.89465
 N3046 N 0.40388 0.23746 0.87669
 N3047 N 0.39560 0.21880 0.86839
 C3048 C 0.37757 0.20901 0.87766
 N3049 N 0.36830 0.21874 0.89573
 N3050 N 0.37657 0.23741 0.90405
 C3051 C 0.40329 0.26799 0.90349
 N3052 N 0.39363 0.27788 0.92119
 N3053 N 0.40132 0.29705 0.92889
 C3054 C 0.41896 0.30711 0.91922
 N3055 N 0.42864 0.29709 0.90155
 N3056 N 0.42096 0.27792 0.89383
 C3057 C 1.10575 0.74752 1.10636
 N3058 N 1.09640 0.73790 1.12437
 N3059 N 1.10471 0.71927 1.13272
 C3060 C 1.12273 0.70945 1.12345
 N3061 N 1.13196 0.71914 1.10533
 N3062 N 1.12367 0.73777 1.09697
 C3063 C 1.09691 0.76834 1.09744
 N3064 N 1.10654 0.77817 1.07968
 N3065 N 1.09881 0.79729 1.07189
 C3066 C 1.08115 0.80736 1.08153
 N3067 N 1.07151 0.79741 1.09926
 N3068 N 1.07923 0.77829 1.10706
 C3069 C 1.10477 0.24695 0.60521
 N3070 N 1.12264 0.23715 0.59580
 N3071 N 1.13083 0.21845 0.60410
 C3072 C 1.12150 0.20879 0.62215
 N3073 N 1.10354 0.21861 0.63147
 N3074 N 1.09533 0.23732 0.62317
 C3075 C 1.09608 0.26787 0.59639
 N3076 N 1.07846 0.27788 0.60605
 N3077 N 1.07091 0.29711 0.59836
 C3078 C 1.08067 0.30712 0.58073
 N3079 N 1.09826 0.29698 0.57105
 N3080 N 1.10583 0.27775 0.57873
 C3081 C 0.60470 0.74695 0.60469
 N3082 N 0.59526 0.73722 0.62260
 N3083 N 0.60348 0.71849 0.63082
 C3084 C 0.62147 0.70874 0.62147
 N3085 N 0.63081 0.71849 0.60348
 N3086 N 0.62260 0.73722 0.59525
 C3087 C 0.59599 0.76790 0.59598
 N3088 N 0.60571 0.77786 0.57835
 N3089 N 0.59813 0.79712 0.57077
 C3090 C 0.58054 0.80721 0.58051
 N3091 N 0.57080 0.79712 0.59811
 N3092 N 0.57837 0.77786 0.60570
 C3093 C 0.60535 0.24719 1.10550
 N3094 N 0.62331 0.23754 1.09609
 N3095 N 0.63160 0.21885 1.10434
 C3096 C 0.62232 0.20903 1.12235
 N3097 N 0.60425 0.21874 1.13164
 N3098 N 0.59595 0.23743 1.12340
 C3099 C 0.59653 0.26808 1.09675
 N3100 N 0.57886 0.27797 1.10645
 N3101 N 0.57117 0.29717 1.09882
 C3102 C 0.58084 0.30727 1.08119
 N3103 N 0.59849 0.29726 1.07147
 N3104 N 0.60618 0.27806 1.07909
 C3105 C 1.25297 1.10541 0.89512
 N3106 N 1.26273 1.09603 0.87720
 N3107 N 1.28140 1.10437 0.86895
 C3108 C 1.29105 1.12242 0.87827
 N3109 N 1.28126 1.13171 0.89627
 N3110 N 1.26260 1.12338 0.90453
 C3111 C 1.23210 1.09656 0.90387
 N3112 N 1.22211 1.10620 0.92153
 N3113 N 1.20292 1.09849 0.92914
 C3114 C 1.19293 1.08085 0.91941
 N3115 N 1.20303 1.07118 0.90179
 N3116 N 1.22223 1.07888 0.89417
 C3117 C 1.25285 0.60572 0.39448
 N3118 N 1.26258 0.59634 0.37655
 N3119 N 1.28120 0.60471 0.36823
 C3120 C 1.29085 0.62279 0.37750
 N3121 N 1.28109 0.63208 0.39552
 N3122 N 1.26247 0.62372 0.40385
 C3123 C 1.23202 0.59684 0.40331
 N3124 N 1.22206 0.60649 0.42098
 N3125 N 1.20291 0.59874 0.42866
 C3126 C 1.19293 0.58106 0.41898
 N3127 N 1.20302 0.57139 0.40135
 N3128 N 1.22217 0.57912 0.39366
 C3129 C 0.75297 1.10492 0.39465
 N3130 N 0.76264 1.09553 0.37669
 N3131 N 0.78135 1.10377 0.36843
 C3132 C 0.79113 1.12173 0.37779
 N3133 N 0.78143 1.13103 0.39583
 N3134 N 0.76273 1.12280 0.40410
 C3135 C 0.73206 1.09619 0.40342
 N3136 N 0.72216 1.10586 0.42111
 N3137 N 0.70293 1.09826 0.42875
 C3138 C 0.69282 1.08069 0.41902
 N3139 N 0.70283 1.07100 0.40136
 N3140 N 0.72206 1.07859 0.39370
 C3141 C 0.75274 0.60499 0.89518
 N3142 N 0.76247 0.59556 0.87727
 N3143 N 0.78118 0.60380 0.86904
 C3144 C 0.79092 0.62180 0.87836
 N3145 N 0.78116 0.63114 0.89635
 N3146 N 0.76245 0.62291 0.90460
 C3147 C 0.73182 0.59625 0.90393
 N3148 N 0.72186 0.60596 0.92157
 N3149 N 0.70263 0.59834 0.92918
 C3150 C 0.69257 0.58072 0.91947
 N3151 N 0.70265 0.57100 0.90186
 N3152 N 0.72188 0.57860 0.89424
 C3153 C 1.25289 0.89462 1.10495
 N3154 N 1.26249 0.87664 1.09553
 N3155 N 1.28118 0.86831 1.10376
 C3156 C 1.29100 0.87762 1.12173
 N3157 N 1.28137 0.89568 1.13105
 N3158 N 1.26269 0.90402 1.12283
 C3159 C 1.23199 0.90346 1.09625
 N3160 N 1.22213 0.92114 1.10598
 N3161 N 1.20291 0.92883 1.09841
 C3162 C 1.19277 0.91916 1.08082
 N3163 N 1.20275 0.90152 1.07106
 N3164 N 1.22197 0.89382 1.07862
 C3165 C 1.25259 0.39407 0.60594
 N3166 N 1.26222 0.40340 0.62395
 N3167 N 1.28081 0.39503 0.63233
 C3168 C 1.29052 0.37698 0.62305
 N3169 N 1.28086 0.36773 0.60496
 N3170 N 1.26227 0.37610 0.59657
 C3171 C 1.23181 0.40296 0.59702
 N3172 N 1.22195 0.39336 0.57927
 N3173 N 1.20284 0.40112 0.57150
 C3174 C 1.19280 0.41879 0.58115
 N3175 N 1.20278 0.42842 0.59886
 N3176 N 1.22189 0.42067 0.60664
 C3177 C 0.75316 0.89535 0.60457
 N3178 N 0.76289 0.87744 0.59514
 N3179 N 0.78162 0.86923 0.60337
 C3180 C 0.79138 0.87859 0.62135
 N3181 N 0.78163 0.89658 0.63068
 N3182 N 0.76290 0.90480 0.62246
 C3183 C 0.73222 0.90405 0.59585
 N3184 N 0.72226 0.92169 0.60556
 N3185 N 0.70300 0.92926 0.59798
 C3186 C 0.69291 0.91951 0.58040
 N3187 N 0.70299 0.90191 0.57066
 N3188 N 0.72225 0.89433 0.57824
 C3189 C 0.75276 0.39449 1.10518
 N3190 N 0.76238 0.37652 1.09574
 N3191 N 0.78107 0.36820 1.10396
 C3192 C 0.79090 0.37750 1.12193
 N3193 N 0.78125 0.39555 1.13127
 N3194 N 0.76256 0.40387 1.12307
 C3195 C 0.73186 0.40333 1.09648
 N3196 N 0.72200 0.42101 1.10621
 N3197 N 0.70279 0.42872 1.09862
 C3198 C 0.69267 0.41907 1.08100
 N3199 N 0.70265 0.40143 1.07125
 N3200 N 0.72186 0.39371 1.07883
 C3201 C 0.74718 1.10563 1.10502
 N3202 N 0.73755 1.12360 1.09560
 N3203 N 0.71885 1.13189 1.10382
 C3204 C 0.70903 1.12256 1.12179
 N3205 N 0.71869 1.10451 1.13111
 N3206 N 0.73739 1.09621 1.12290
 C3207 C 0.76809 1.09681 1.09630
 N3208 N 0.77796 1.07913 1.10602
 N3209 N 0.79718 1.07145 1.09842
 C3210 C 0.80730 1.08113 1.08082
 N3211 N 0.79731 1.09878 1.07108
 N3212 N 0.77810 1.10647 1.07867
 C3213 C 0.74690 0.60473 0.60470
 N3214 N 0.73717 0.62264 0.59527
 N3215 N 0.71845 0.63085 0.60350
 C3216 C 0.70869 0.62150 0.62149
 N3217 N 0.71845 0.60351 0.63083
 N3218 N 0.73717 0.59529 0.62261
 C3219 C 0.76785 0.59602 0.59598
 N3220 N 0.77780 0.57839 0.60569
 N3221 N 0.79706 0.57081 0.59809
 C3222 C 0.80714 0.58055 0.58049
 N3223 N 0.79706 0.59815 0.57076
 N3224 N 0.77781 0.60574 0.57835
 C3225 C 0.24672 1.10471 0.60511
 N3226 N 0.23695 1.12260 0.59570
 N3227 N 0.21826 1.13082 0.60401
 C3228 C 0.20859 1.12150 0.62206
 N3229 N 0.21839 1.10353 0.63138
 N3230 N 0.23708 1.09529 0.62308
 C3231 C 0.26763 1.09600 0.59632
 N3232 N 0.27764 1.07839 0.60600
 N3233 N 0.29688 1.07083 0.59833
 C3234 C 0.30689 1.08057 0.58070
 N3235 N 0.29676 1.09816 0.57099
 N3236 N 0.27752 1.10573 0.57864
 C3237 C 0.24715 0.60564 1.10574
 N3238 N 0.23752 0.62363 1.09635
 N3239 N 0.21891 0.63202 1.10468
 C3240 C 0.20918 0.62277 1.12273
 N3241 N 0.21883 0.60470 1.13203
 N3242 N 0.23744 0.59630 1.12371
 C3243 C 0.26796 0.59673 1.09691
 N3244 N 0.27783 0.57903 1.10660
 N3245 N 0.29697 0.57127 1.09890
 C3246 C 0.30703 0.58089 1.08122
 N3247 N 0.29704 0.59855 1.07151
 N3248 N 0.27790 0.60632 1.07920
 C3249 C 0.74691 0.89534 0.89530
 N3250 N 0.73721 0.87742 0.90475
 N3251 N 0.71849 0.86918 0.89652
 C3252 C 0.70873 0.87851 0.87853
 N3253 N 0.71845 0.89651 0.86918
 N3254 N 0.73717 0.90476 0.87739
 C3255 C 0.76784 0.90408 0.90401
 N3256 N 0.77778 0.92171 0.89428
 N3257 N 0.79702 0.92932 0.90187
 C3258 C 0.80711 0.91961 0.91948
 N3259 N 0.79706 0.90201 0.92923
 N3260 N 0.77781 0.89439 0.92165
 C3261 C 0.74708 0.39512 0.39474
 N3262 N 0.73740 0.40454 0.37679
 N3263 N 0.71869 0.39631 0.36854
 C3264 C 0.70892 0.37834 0.37788
 N3265 N 0.71862 0.36901 0.39591
 N3266 N 0.73732 0.37723 0.40418
 C3267 C 0.76800 0.40384 0.40351
 N3268 N 0.77790 0.39414 0.42118
 N3269 N 0.79713 0.40173 0.42882
 C3270 C 0.80724 0.41932 0.41910
 N3271 N 0.79721 0.42904 0.40146
 N3272 N 0.77798 0.42146 0.39381
 C3273 C 0.24720 0.89440 0.39439
 N3274 N 0.23756 0.87641 0.40377
 N3275 N 0.21894 0.86806 0.39544
 C3276 C 0.20922 0.87734 0.37740
 N3277 N 0.21888 0.89541 0.36811
 N3278 N 0.23750 0.90377 0.37644
 C3279 C 0.26802 0.90327 0.40324
 N3280 N 0.27790 0.92099 0.39359
 N3281 N 0.29704 0.92872 0.40130
 C3282 C 0.30709 0.91906 0.41896
 N3283 N 0.29710 0.90138 0.42863
 N3284 N 0.27795 0.89364 0.42093
 C3285 C 0.24704 0.39438 0.89519
 N3286 N 0.23729 0.40380 0.87728
 N3287 N 0.21863 0.39548 0.86901
 C3288 C 0.20897 0.37742 0.87831
 N3289 N 0.21874 0.36809 0.89630
 N3290 N 0.23741 0.37640 0.90458
 C3291 C 0.26791 0.40321 0.90396
 N3292 N 0.27790 0.39355 0.92160
 N3293 N 0.29709 0.40125 0.92922
 C3294 C 0.30708 0.41891 0.91952
 N3295 N 0.29697 0.42860 0.90191
 N3296 N 0.27778 0.42091 0.89427
   
