data_POSCAR
  _audit_creation_date              2014-09-24
  _audit_creation_method            'ToBaCCo'
  _symmetry_space_group_name_H-M    'P1'
  _symmetry_Int_Tables_number       1
  _symmetry_cell_setting            triclinic
  loop_
  _symmetry_equiv_pos_as_xyz
 x,y,z
_cell_length_a 71.3572
_cell_length_b 71.3036
_cell_length_c 71.3652
_cell_angle_alpha 89.996000
_cell_angle_beta 89.993600
_cell_angle_gamma 90.052300
loop_
  _atom_site_label
  _atom_site_type_symbol
  _atom_site_fract_x
  _atom_site_fract_y
  _atom_site_fract_z
C1 C 0.09895 0.01560 0.22594
 H2 H 0.09857 0.02650 0.23648
 C3 C 0.08875 0.01766 0.20935
 H4 H 0.08036 0.03011 0.20712
 C5 C 0.11098 -0.01361 0.21554
 H6 H 0.12004 -0.02552 0.21773
 C7 C 0.10100 -0.01211 0.19879
 H8 H 0.10225 -0.02299 0.18827
 N9 N 0.10979 0.00014 0.22872
 C10 C 0.12025 -0.00374 0.28877
 H11 H 0.13538 -0.00479 0.28839
 C12 C 0.11084 -0.00475 0.30585
 H13 H 0.11871 -0.00650 0.31871
 C14 C 0.09150 -0.00040 0.27242
 H15 H 0.08404 0.00106 0.25933
 C16 C 0.08150 -0.00134 0.28926
 H17 H 0.06634 -0.00045 0.28914
 Zn18 Zn 0.12505 -0.00081 0.25038
 N19 N 0.11055 -0.00143 0.27253
 C20 C 0.13915 0.03364 0.26424
 N21 N 0.14032 0.02090 0.25009
 C22 C 0.15116 0.02415 0.23473
 C23 C 0.16139 0.04081 0.23319
 C24 C 0.14915 0.05044 0.26327
 C25 C 0.12992 -0.03931 0.25210
 C26 C 0.13939 -0.05640 0.25268
 C27 C 0.16871 -0.03955 0.24993
 C28 C 0.15864 -0.02273 0.24939
 N29 N 0.13958 -0.02296 0.25032
 H30 H 0.13009 0.03108 0.27608
 H31 H 0.15152 0.01396 0.22351
 H32 H 0.16978 0.04344 0.22081
 H33 H 0.14792 0.06062 0.27446
 H34 H 0.11479 -0.03902 0.25308
 H35 H 0.13147 -0.06931 0.25404
 H36 H 0.18388 -0.03923 0.24915
 H37 H 0.16605 -0.00955 0.24837
 C38 C 0.09130 -0.00350 0.30611
 C39 C 0.08990 0.00371 0.19561
 C40 C 0.15897 -0.05654 0.25157
 C41 C 0.16026 0.05411 0.24755
 C42 C 0.40036 0.01631 0.77299
 H43 H 0.40108 0.02747 0.76274
 C44 C 0.41001 0.01800 0.78997
 H45 H 0.41831 0.03041 0.79278
 C46 C 0.38804 -0.01316 0.78230
 H47 H 0.37907 -0.02504 0.77955
 C48 C 0.39744 -0.01204 0.79940
 H49 H 0.39586 -0.02318 0.80961
 N50 N 0.38965 0.00090 0.76949
 C51 C 0.38090 -0.00203 0.70910
 H52 H 0.36580 -0.00339 0.70909
 C53 C 0.39073 -0.00247 0.69222
 H54 H 0.38319 -0.00412 0.67915
 C55 C 0.40919 0.00164 0.72618
 H56 H 0.41630 0.00304 0.73947
 C57 C 0.41959 0.00127 0.70956
 H58 H 0.43472 0.00253 0.71005
 Zn59 Zn 0.37505 0.00029 0.74735
 N60 N 0.39017 0.00019 0.72560
 C61 C 0.36132 0.03486 0.73360
 N62 N 0.35968 0.02192 0.74753
 C63 C 0.34836 0.02497 0.76257
 C64 C 0.33812 0.04162 0.76402
 C65 C 0.35133 0.05165 0.73449
 C66 C 0.37062 -0.03818 0.74467
 C67 C 0.36139 -0.05540 0.74386
 C68 C 0.33184 -0.03908 0.74667
 C69 C 0.34165 -0.02209 0.74743
 N70 N 0.36071 -0.02200 0.74663
 H71 H 0.37076 0.03248 0.72202
 H72 H 0.34762 0.01462 0.77364
 H73 H 0.32936 0.04409 0.77617
 H74 H 0.35296 0.06200 0.72348
 H75 H 0.38575 -0.03765 0.74383
 H76 H 0.36943 -0.06821 0.74245
 H77 H 0.31668 -0.03913 0.74744
 H78 H 0.33404 -0.00906 0.74864
 C79 C 0.41023 -0.00075 0.69244
 C80 C 0.40841 0.00372 0.80333
 C81 C 0.34185 -0.05587 0.74493
 C82 C 0.33975 0.05513 0.74989
 C83 C 0.90057 0.51566 0.27307
 H84 H 0.90156 0.52676 0.26277
 C85 C 0.91032 0.51714 0.29001
 H86 H 0.91896 0.52935 0.29271
 C87 C 0.88748 0.48657 0.28251
 H88 H 0.87818 0.47493 0.27982
 C89 C 0.89697 0.48748 0.29958
 H90 H 0.89509 0.47638 0.30980
 N91 N 0.88943 0.50054 0.26965
 C92 C 0.88022 0.49766 0.20931
 H93 H 0.86508 0.49676 0.20946
 C94 C 0.88987 0.49671 0.19236
 H95 H 0.88216 0.49513 0.17938
 C96 C 0.90876 0.50061 0.22612
 H97 H 0.91603 0.50189 0.23934
 C98 C 0.91900 0.49970 0.20941
 H99 H 0.93415 0.50045 0.20975
 Zn100 Zn 0.87473 0.50019 0.24756
 N101 N 0.88970 0.49974 0.22571
 C102 C 0.86151 0.53498 0.23383
 N103 N 0.85969 0.52205 0.24776
 C104 C 0.84835 0.52523 0.26277
 C105 C 0.83827 0.54198 0.26416
 C106 C 0.85168 0.55187 0.23467
 C107 C 0.86977 0.46184 0.24491
 C108 C 0.86035 0.44473 0.24398
 C109 C 0.83098 0.46138 0.24674
 C110 C 0.84099 0.47826 0.24762
 N111 N 0.86005 0.47812 0.24689
 H112 H 0.87096 0.53249 0.22229
 H113 H 0.84746 0.51489 0.27383
 H114 H 0.82947 0.54453 0.27626
 H115 H 0.85343 0.56218 0.22365
 H116 H 0.88491 0.46219 0.24412
 H117 H 0.86824 0.43184 0.24252
 H118 H 0.81582 0.46151 0.24742
 H119 H 0.83353 0.49138 0.24883
 C120 C 0.90942 0.49776 0.19239
 C121 C 0.90838 0.50295 0.30344
 C122 C 0.84080 0.44449 0.24494
 C123 C 0.84006 0.55546 0.25002
 C124 C 0.59827 0.51577 0.72871
 H125 H 0.59765 0.52676 0.73914
 C126 C 0.58784 0.51733 0.71220
 H127 H 0.57906 0.52950 0.70991
 C128 C 0.61107 0.48683 0.71850
 H129 H 0.62051 0.47522 0.72072
 C130 C 0.60089 0.48783 0.70184
 H131 H 0.60237 0.47688 0.69142
 N132 N 0.60959 0.50067 0.73155
 C133 C 0.62065 0.49749 0.79153
 H134 H 0.63579 0.49692 0.79103
 C135 C 0.61139 0.49615 0.80868
 H136 H 0.61941 0.49463 0.82148
 C137 C 0.59167 0.49988 0.77539
 H138 H 0.58407 0.50106 0.76235
 C139 C 0.58183 0.49857 0.79230
 H140 H 0.56666 0.49893 0.79229
 Zn141 Zn 0.62504 0.50028 0.75309
 N142 N 0.61074 0.49947 0.77536
 C143 C 0.63860 0.53509 0.76661
 N144 N 0.63986 0.52229 0.75252
 C145 C 0.65058 0.52560 0.73709
 C146 C 0.66064 0.54235 0.73544
 C147 C 0.64844 0.55198 0.76552
 C148 C 0.63065 0.46195 0.75511
 C149 C 0.64041 0.44504 0.75561
 C150 C 0.66939 0.46234 0.75229
 C151 C 0.65905 0.47899 0.75185
 N152 N 0.64001 0.47845 0.75307
 H153 H 0.62964 0.53247 0.77852
 H154 H 0.65102 0.51535 0.72592
 H155 H 0.66897 0.54499 0.72302
 H156 H 0.64717 0.56219 0.77670
 H157 H 0.61554 0.46198 0.75631
 H158 H 0.63282 0.43197 0.75714
 H159 H 0.68452 0.46280 0.75125
 H160 H 0.66623 0.49228 0.75063
 C161 C 0.59183 0.49670 0.80908
 C162 C 0.58928 0.50327 0.69861
 C163 C 0.65994 0.44523 0.75415
 C164 C 0.65946 0.55568 0.74976
 C165 C 0.27244 0.09920 0.98333
 H166 H 0.26186 0.09864 0.97249
 C167 C 0.28897 0.08885 0.98143
 H168 H 0.29110 0.08018 0.96915
 C169 C 0.28303 0.11180 1.01222
 H170 H 0.28095 0.12113 1.02394
 C171 C 0.29971 0.10169 1.01087
 H172 H 0.31027 0.10312 1.02168
 N173 N 0.26979 0.11039 0.99856
 C174 C 0.20986 0.12141 1.00266
 H175 H 0.21041 0.13655 1.00344
 C176 C 0.19269 0.11218 1.00404
 H177 H 0.17993 0.12022 1.00580
 C178 C 0.22587 0.09241 0.99965
 H179 H 0.23887 0.08480 0.99819
 C180 C 0.20893 0.08259 1.00098
 H181 H 0.20888 0.06741 1.00037
 Zn182 Zn 0.24824 0.12581 0.99938
 N183 N 0.22597 0.11149 1.00035
 C184 C 0.23426 0.13955 0.96489
 N185 N 0.24850 0.14081 0.97752
 C186 C 0.26387 0.15159 0.97407
 C187 C 0.26532 0.16168 0.95733
 C188 C 0.23514 0.14941 0.94803
 C189 C 0.24668 0.13109 1.03774
 C190 C 0.24626 0.14070 1.05474
 C191 C 0.24925 0.16989 1.03769
 C192 C 0.24962 0.15967 1.02095
 N193 N 0.24851 0.14061 1.02133
 H194 H 0.22241 0.13053 0.96761
 H195 H 0.27516 0.15203 0.98417
 H196 H 0.27770 0.17004 0.95456
 H197 H 0.22386 0.14812 0.93794
 H198 H 0.24556 0.11596 1.03757
 H199 H 0.24487 0.13289 1.06771
 H200 H 0.25018 0.18506 1.03727
 H201 H 0.25067 0.16697 1.00773
 C202 C 0.19221 0.09261 1.00317
 C203 C 0.30276 0.09023 0.99529
 C204 C 0.24757 0.16028 1.05474
 C205 C 0.25085 0.16048 0.94417
 C206 C 0.72729 0.39989 0.98592
 H207 H 0.73757 0.40085 0.97481
 C208 C 0.71033 0.40958 0.98442
 H209 H 0.70756 0.41815 0.97219
 C210 C 0.71791 0.38694 1.01506
 H211 H 0.72062 0.37771 1.02674
 C212 C 0.70082 0.39638 1.01412
 H213 H 0.69058 0.39456 1.02519
 N214 N 0.73075 0.38884 1.00108
 C215 C 0.79114 0.37987 1.00389
 H216 H 0.79108 0.36473 1.00487
 C217 C 0.80806 0.38963 1.00469
 H218 H 0.82109 0.38200 1.00623
 C219 C 0.77419 0.40832 1.00086
 H220 H 0.76094 0.41552 0.99959
 C221 C 0.79086 0.41866 1.00161
 H222 H 0.79044 0.43382 1.00076
 Zn223 Zn 0.75288 0.37418 1.00144
 N224 N 0.77469 0.38926 1.00182
 C225 C 0.76660 0.36092 0.96666
 N226 N 0.75267 0.35911 0.97959
 C227 C 0.73764 0.34779 0.97641
 C228 C 0.73621 0.33771 0.95966
 C229 C 0.76572 0.35109 0.94978
 C230 C 0.75554 0.36920 1.03978
 C231 C 0.75641 0.35977 1.05686
 C232 C 0.75363 0.33038 1.04013
 C233 C 0.75281 0.34042 1.02330
 N234 N 0.75357 0.35950 1.02348
 H235 H 0.77816 0.37036 0.96916
 H236 H 0.72657 0.34691 0.98674
 H237 H 0.72408 0.32892 0.95711
 H238 H 0.77673 0.35284 0.93947
 H239 H 0.75635 0.38435 1.03945
 H240 H 0.75784 0.36773 1.06972
 H241 H 0.75291 0.31519 1.03988
 H242 H 0.75161 0.33299 1.01017
 C243 C 0.80793 0.40918 1.00351
 C244 C 0.69693 0.40769 0.99861
 C245 C 0.75540 0.34017 1.05708
 C246 C 0.75034 0.33949 0.94619
 C247 C 0.22807 0.90018 0.48550
 H248 H 0.23819 0.90097 0.47423
 C249 C 0.21116 0.90998 0.48418
 H250 H 0.20826 0.91847 0.47193
 C251 C 0.21905 0.88755 0.51491
 H252 H 0.22190 0.87842 0.52662
 C253 C 0.20202 0.89711 0.51415
 H254 H 0.19195 0.89548 0.52539
 N255 N 0.23169 0.88925 0.50071
 C256 C 0.29211 0.88044 0.50271
 H257 H 0.29216 0.86530 0.50376
 C258 C 0.30897 0.89032 0.50317
 H259 H 0.32208 0.88279 0.50452
 C260 C 0.27492 0.90877 0.49985
 H261 H 0.26160 0.91588 0.49878
 C262 C 0.29153 0.91922 0.50026
 H263 H 0.29099 0.93438 0.49935
 Zn264 Zn 0.25380 0.87458 0.50086
 N265 N 0.27556 0.88971 0.50089
 C266 C 0.26706 0.86122 0.46594
 N267 N 0.25330 0.85945 0.47905
 C268 C 0.23820 0.84816 0.47608
 C269 C 0.23651 0.83810 0.45934
 C270 C 0.26592 0.85141 0.44906
 C271 C 0.25694 0.86972 0.53919
 C272 C 0.25791 0.86031 0.55629
 C273 C 0.25480 0.83091 0.53970
 C274 C 0.25389 0.84090 0.52284
 N275 N 0.25475 0.85998 0.52295
 H276 H 0.27868 0.87063 0.46828
 H277 H 0.22727 0.84732 0.48655
 H278 H 0.22432 0.82935 0.45695
 H279 H 0.27679 0.85313 0.43860
 H280 H 0.25782 0.88486 0.53882
 H281 H 0.25949 0.86822 0.56916
 H282 H 0.25397 0.81575 0.53959
 H283 H 0.25250 0.83343 0.50974
 C284 C 0.30869 0.90987 0.50189
 C285 C 0.19799 0.90833 0.49860
 C286 C 0.25676 0.84076 0.55656
 C287 C 0.25045 0.83986 0.44567
 C288 C 0.77325 0.59845 0.48287
 H289 H 0.76271 0.59812 0.47198
 C290 C 0.78971 0.58801 0.48088
 H291 H 0.79183 0.57949 0.46849
 C292 C 0.78381 0.61055 0.51198
 H293 H 0.78173 0.61971 0.52384
 C294 C 0.80042 0.60034 0.51055
 H295 H 0.81095 0.60151 0.52143
 N296 N 0.77062 0.60942 0.49825
 C297 C 0.71066 0.62028 0.50228
 H298 H 0.71113 0.63542 0.50324
 C299 C 0.69353 0.61095 0.50340
 H300 H 0.68072 0.61890 0.50516
 C301 C 0.72684 0.59140 0.49903
 H302 H 0.73988 0.58387 0.49758
 C303 C 0.70995 0.58149 0.50010
 H304 H 0.70998 0.56632 0.49930
 Zn305 Zn 0.74908 0.62485 0.49921
 N306 N 0.72684 0.61048 0.49996
 C307 C 0.73517 0.63891 0.46480
 N308 N 0.74939 0.64005 0.47747
 C309 C 0.76479 0.65083 0.47414
 C310 C 0.76629 0.66105 0.45749
 C311 C 0.73611 0.64891 0.44802
 C312 C 0.74749 0.62988 0.53766
 C313 C 0.74702 0.63943 0.55470
 C314 C 0.74995 0.66867 0.53779
 C315 C 0.75037 0.65855 0.52101
 N316 N 0.74931 0.63948 0.52129
 H317 H 0.72331 0.62989 0.46743
 H318 H 0.77606 0.65117 0.48427
 H319 H 0.77869 0.66941 0.45481
 H320 H 0.72485 0.64771 0.43790
 H321 H 0.74640 0.61475 0.53742
 H322 H 0.74563 0.63165 0.56766
 H323 H 0.75084 0.68384 0.53753
 H324 H 0.75142 0.66592 0.50782
 C325 C 0.69316 0.59139 0.50228
 C326 C 0.80345 0.58907 0.49482
 C327 C 0.74828 0.65899 0.55477
 C328 C 0.75185 0.65997 0.44428
 C329 C 0.01506 0.22811 0.09841
 H330 H 0.02618 0.23841 0.09769
 C331 C 0.01662 0.21128 0.08846
 H332 H 0.02890 0.20864 0.07994
 C333 C -0.01417 0.21851 0.11102
 H334 H -0.02589 0.22108 0.12022
 C335 C -0.01317 0.20155 0.10132
 H336 H -0.02425 0.19127 0.10291
 N337 N -0.00016 0.23139 0.10942
 C338 C -0.00287 0.29164 0.11947
 H339 H -0.00388 0.29130 0.13460
 C340 C -0.00365 0.30873 0.11004
 H341 H -0.00520 0.32162 0.11794
 C342 C 0.00017 0.27517 0.09074
 H343 H 0.00143 0.26203 0.08332
 C344 C -0.00055 0.29202 0.08071
 H345 H 0.00031 0.29181 0.06555
 Zn346 Zn -0.00054 0.25327 0.12446
 N347 N -0.00082 0.27534 0.10979
 C348 C 0.03424 0.26669 0.13802
 N349 N 0.02126 0.25277 0.13958
 C350 C 0.02436 0.23754 0.15065
 C351 C 0.04109 0.23589 0.16070
 C352 C 0.05112 0.26560 0.14783
 C353 C -0.03889 0.25591 0.12933
 C354 C -0.05598 0.25681 0.13874
 C355 C -0.03938 0.25366 0.16809
 C356 C -0.02252 0.25282 0.15811
 N357 N -0.02263 0.25377 0.13905
 H358 H 0.03181 0.27842 0.12878
 H359 H 0.01398 0.22649 0.15132
 H360 H 0.04359 0.22360 0.16927
 H361 H 0.06148 0.27661 0.14628
 H362 H -0.03852 0.25688 0.11421
 H363 H -0.06886 0.25840 0.13085
 H364 H -0.03926 0.25282 0.18325
 H365 H -0.00941 0.25149 0.16557
 C366 C -0.00245 0.30896 0.09049
 C367 C 0.00241 0.19784 0.09005
 C368 C -0.05624 0.25563 0.15827
 C369 C 0.05463 0.25001 0.15916
 C370 C 0.01425 0.77118 0.40113
 H371 H 0.02523 0.76073 0.40161
 C372 C 0.01594 0.78766 0.41162
 H373 H 0.02818 0.78989 0.42032
 C374 C -0.01474 0.78152 0.38858
 H375 H -0.02642 0.77937 0.37921
 C376 C -0.01361 0.79814 0.39883
 H377 H -0.02454 0.80859 0.39748
 N378 N -0.00092 0.76843 0.38990
 C379 C -0.00434 0.70848 0.37833
 H380 H -0.00511 0.70912 0.36320
 C381 C -0.00550 0.69122 0.38742
 H382 H -0.00709 0.67848 0.37929
 C383 C -0.00155 0.72434 0.40743
 H384 H -0.00025 0.73732 0.41514
 C385 C -0.00266 0.70731 0.41710
 H386 H -0.00205 0.70716 0.43227
 Zn387 Zn -0.00145 0.74699 0.37426
 N388 N -0.00224 0.72457 0.38836
 C389 C 0.03325 0.73348 0.36054
 N390 N 0.02050 0.74763 0.35939
 C391 C 0.02389 0.76317 0.34883
 C392 C 0.04066 0.76488 0.33884
 C393 C 0.05015 0.73462 0.35078
 C394 C -0.03978 0.74507 0.36875
 C395 C -0.05674 0.74474 0.35906
 C396 C -0.03955 0.74841 0.33005
 C397 C -0.02287 0.74866 0.34035
 N398 N -0.02333 0.74720 0.35936
 H399 H 0.03058 0.72149 0.36939
 H400 H 0.01369 0.77438 0.34847
 H401 H 0.04337 0.77738 0.33065
 H402 H 0.06032 0.72341 0.35198
 H403 H -0.03968 0.74368 0.38385
 H404 H -0.06974 0.74315 0.36677
 H405 H -0.03907 0.74967 0.31492
 H406 H -0.00961 0.74996 0.33314
 C407 C -0.00462 0.69061 0.40697
 C408 C 0.00192 0.80130 0.41034
 C409 C -0.05665 0.74647 0.33953
 C410 C 0.05394 0.75050 0.33993
 C411 C 0.51632 0.27248 0.90115
 H412 H 0.52711 0.26184 0.90158
 C413 C 0.51841 0.28898 0.91154
 H414 H 0.53076 0.29102 0.92012
 C415 C 0.48740 0.28327 0.88883
 H416 H 0.47559 0.28128 0.87958
 C417 C 0.48893 0.29993 0.89898
 H418 H 0.47817 0.31056 0.89768
 N419 N 0.50099 0.26995 0.89008
 C420 C 0.49657 0.20998 0.87893
 H421 H 0.49572 0.21054 0.86380
 C422 C 0.49523 0.19280 0.88814
 H423 H 0.49342 0.18003 0.88011
 C424 C 0.49976 0.22600 0.90790
 H425 H 0.50128 0.23900 0.91552
 C426 C 0.49847 0.20905 0.91770
 H427 H 0.49918 0.20899 0.93286
 Zn428 Zn 0.49998 0.24842 0.87458
 N429 N 0.49896 0.22611 0.88884
 C430 C 0.53441 0.23436 0.86076
 N431 N 0.52183 0.24864 0.85955
 C432 C 0.52535 0.26407 0.84888
 C433 C 0.54213 0.26554 0.83886
 C434 C 0.55132 0.23526 0.85096
 C435 C 0.46155 0.24710 0.86935
 C436 C 0.44455 0.24677 0.85974
 C437 C 0.46160 0.24972 0.83061
 C438 C 0.47835 0.24999 0.84080
 N439 N 0.47798 0.24885 0.85984
 H440 H 0.53164 0.22246 0.86969
 H441 H 0.51528 0.27540 0.84848
 H442 H 0.54496 0.27797 0.83060
 H443 H 0.56137 0.22395 0.85222
 H444 H 0.46171 0.24594 0.88447
 H445 H 0.43154 0.24543 0.86746
 H446 H 0.46193 0.25066 0.81546
 H447 H 0.49157 0.25099 0.83349
 C448 C 0.49622 0.19231 0.90769
 C449 C 0.50462 0.30286 0.91033
 C450 C 0.44456 0.24811 0.84021
 C451 C 0.55527 0.25104 0.84003
 C452 C 0.51530 0.72817 0.60016
 H453 H 0.52658 0.73828 0.59929
 C454 C 0.51650 0.71125 0.59032
 H455 H 0.52867 0.70834 0.58173
 C456 C 0.48597 0.71917 0.61300
 H457 H 0.47433 0.72203 0.62222
 C458 C 0.48661 0.70214 0.60341
 H459 H 0.47535 0.69207 0.60512
 N460 N 0.50018 0.73180 0.61121
 C461 C 0.49819 0.79223 0.62009
 H462 H 0.49718 0.79225 0.63522
 C463 C 0.49770 0.80912 0.61028
 H464 H 0.49636 0.82223 0.61785
 C465 C 0.50102 0.77510 0.59173
 H466 H 0.50210 0.76179 0.58459
 C467 C 0.50059 0.79174 0.58134
 H468 H 0.50148 0.79124 0.56619
 Zn469 Zn 0.50013 0.75393 0.62586
 N470 N 0.50002 0.77570 0.61077
 C471 C 0.53509 0.76729 0.63899
 N472 N 0.52201 0.75350 0.64087
 C473 C 0.52506 0.73844 0.65219
 C474 C 0.54184 0.73686 0.66220
 C475 C 0.55200 0.76626 0.64874
 C476 C 0.46185 0.75710 0.63087
 C477 C 0.44479 0.75810 0.64032
 C478 C 0.46146 0.75497 0.66964
 C479 C 0.47829 0.75404 0.65961
 N480 N 0.47812 0.75490 0.64055
 H481 H 0.53269 0.77887 0.62955
 H482 H 0.51461 0.72748 0.65312
 H483 H 0.54429 0.72471 0.67098
 H484 H 0.56242 0.77717 0.64694
 H485 H 0.46218 0.75798 0.61574
 H486 H 0.43190 0.75969 0.63246
 H487 H 0.46162 0.75414 0.68479
 H488 H 0.49141 0.75264 0.66703
 C489 C 0.49896 0.80889 0.59075
 C490 C 0.50205 0.69809 0.59207
 C491 C 0.44457 0.75696 0.65986
 C492 C 0.55546 0.75086 0.66034
 C493 C 0.90388 0.98566 0.72520
 H494 H 0.90506 0.97442 0.73533
 C495 C 0.91381 0.98506 0.70926
 H496 H 0.92308 0.97335 0.70652
 C497 C 0.88947 1.01469 0.71678
 H498 H 0.87965 1.02588 0.71933
 C499 C 0.90016 1.01465 0.69912
 H500 H 0.89819 1.02603 0.68923
 N501 N 0.89145 1.00113 0.72887
 C502 C 0.88099 1.00473 0.79006
 H503 H 0.86593 1.00644 0.78963
 C504 C 0.88996 1.00474 0.80649
 H505 H 0.88214 1.00651 0.81938
 C506 C 0.90939 1.00045 0.77279
 H507 H 0.91682 0.99872 0.75973
 C508 C 0.91989 1.00036 0.79066
 H509 H 0.93496 0.99843 0.79047
 Zn510 Zn 0.87643 1.00106 0.75086
 N511 N 0.89120 1.00212 0.77287
 C512 C 0.86404 0.96652 0.76570
 N513 N 0.86206 0.97865 0.75109
 C514 C 0.85078 0.97446 0.73628
 C515 C 0.84074 0.95759 0.73594
 C516 C 0.85427 0.94958 0.76592
 C517 C 0.87006 1.03929 0.75333
 C518 C 0.86018 1.05612 0.75264
 C519 C 0.83163 1.03850 0.74776
 C520 C 0.84209 1.02192 0.74856
 N521 N 0.86100 1.02265 0.75097
 H522 H 0.87342 0.96976 0.77710
 H523 H 0.84974 0.98415 0.72466
 H524 H 0.83185 0.95429 0.72409
 H525 H 0.85604 0.94000 0.77757
 H526 H 0.88508 1.03943 0.75536
 H527 H 0.86759 1.06930 0.75419
 H528 H 0.81663 1.03789 0.74551
 H529 H 0.83512 1.00855 0.74699
 C530 C 0.91049 1.00221 0.80684
 C531 C 0.91180 1.00040 0.69544
 C532 C 0.84083 1.05575 0.74963
 C533 C 0.84254 0.94505 0.75093
 C534 C 0.40116 0.48512 0.22828
 H535 H 0.40193 0.47390 0.23846
 C536 C 0.41174 0.48414 0.21179
 H537 H 0.42075 0.47219 0.20927
 C538 C 0.38805 0.51413 0.21870
 H539 H 0.37850 0.52560 0.22114
 C540 C 0.39834 0.51370 0.20210
 H541 H 0.39682 0.52493 0.19199
 N542 N 0.38969 0.50004 0.23148
 C543 C 0.37959 0.50424 0.29166
 H544 H 0.36455 0.50609 0.29126
 C545 C 0.38893 0.50409 0.30882
 H546 H 0.38109 0.50587 0.32169
 C547 C 0.40815 0.49931 0.27537
 H548 H 0.41555 0.49745 0.26230
 C549 C 0.41806 0.49905 0.29228
 H550 H 0.43309 0.49691 0.29222
 Zn551 Zn 0.37453 0.50050 0.25333
 N552 N 0.38919 0.50152 0.27542
 C553 C 0.36159 0.46619 0.26831
 N554 N 0.35983 0.47829 0.25365
 C555 C 0.34867 0.47412 0.23874
 C556 C 0.33857 0.45729 0.23833
 C557 C 0.35176 0.44929 0.26846
 C558 C 0.36871 0.53888 0.25518
 C559 C 0.35905 0.55584 0.25426
 C560 C 0.33029 0.53853 0.24956
 C561 C 0.34052 0.52182 0.25059
 N562 N 0.35944 0.52234 0.25303
 H563 H 0.37089 0.46939 0.27979
 H564 H 0.34782 0.48377 0.22707
 H565 H 0.32983 0.45398 0.22636
 H566 H 0.35339 0.43971 0.28014
 H567 H 0.38373 0.53885 0.25725
 H568 H 0.36662 0.56894 0.25566
 H569 H 0.31528 0.53808 0.24731
 H570 H 0.33338 0.50853 0.24920
 C571 C 0.40830 0.50125 0.30915
 C572 C 0.41026 0.49858 0.19858
 C573 C 0.33970 0.55568 0.25123
 C574 C 0.34019 0.44475 0.25334
 C575 C 0.59821 0.98668 0.27450
 H576 H 0.59658 0.97509 0.26484
 C577 C 0.58891 0.98670 0.29083
 H578 H 0.57970 0.97514 0.29435
 C579 C 0.61310 1.01592 0.28130
 H580 H 0.62283 1.02700 0.27793
 C581 C 0.60312 1.01656 0.29935
 H582 H 0.60550 1.02830 0.30873
 N583 N 0.61053 1.00197 0.26977
 C584 C 0.61685 1.00335 0.20896
 H585 H 0.63193 1.00481 0.20826
 C586 C 0.60635 1.00282 0.19250
 H587 H 0.61333 1.00391 0.17906
 C588 C 0.58935 0.99989 0.22733
 H589 H 0.58281 0.99879 0.24093
 C590 C 0.57829 0.99928 0.21115
 H591 H 0.56324 0.99762 0.21232
 Zn592 Zn 0.62435 1.00118 0.24704
 N593 N 0.60831 1.00154 0.22591
 C594 C 0.63606 0.96615 0.23273
 N595 N 0.63867 0.97876 0.24682
 C596 C 0.65066 0.97512 0.26121
 C597 C 0.66086 0.95836 0.26158
 C598 C 0.64595 0.94929 0.23256
 C599 C 0.63079 1.03935 0.24317
 C600 C 0.64077 1.05616 0.24326
 C601 C 0.66939 1.03848 0.24734
 C602 C 0.65882 1.02194 0.24715
 N603 N 0.63983 1.02272 0.24550
 H604 H 0.62612 0.96896 0.22170
 H605 H 0.65219 0.98519 0.27245
 H606 H 0.67034 0.95553 0.27308
 H607 H 0.64371 0.93934 0.22131
 H608 H 0.61569 1.03953 0.24176
 H609 H 0.63333 1.06933 0.24186
 H610 H 0.68446 1.03779 0.24910
 H611 H 0.66577 1.00858 0.24870
 C612 C 0.58692 1.00057 0.19359
 C613 C 0.59152 1.00254 0.30398
 C614 C 0.66022 1.05576 0.24562
 C615 C 0.65845 0.94535 0.24709
 C616 C 0.09810 0.48589 0.77315
 H617 H 0.09671 0.47442 0.76333
 C618 C 0.08816 0.48558 0.79005
 H619 H 0.07901 0.47388 0.79326
 C620 C 0.11209 0.51495 0.78133
 H621 H 0.12170 0.52619 0.77817
 C622 C 0.10244 0.51518 0.79832
 H623 H 0.10454 0.52669 0.80801
 N624 N 0.10966 0.50054 0.76904
 C625 C 0.11643 0.50304 0.70831
 H626 H 0.13150 0.50466 0.70776
 C627 C 0.10607 0.50256 0.69175
 H628 H 0.11315 0.50385 0.67839
 C629 C 0.08881 0.49906 0.72640
 H630 H 0.08216 0.49772 0.73993
 C631 C 0.07790 0.49848 0.71012
 H632 H 0.06286 0.49662 0.71114
 Zn633 Zn 0.12364 0.50029 0.74642
 N634 N 0.10777 0.50093 0.72516
 C635 C 0.13570 0.46560 0.73156
 N636 N 0.13811 0.47797 0.74589
 C637 C 0.15001 0.47416 0.76031
 C638 C 0.16031 0.45746 0.76048
 C639 C 0.14570 0.44881 0.73119
 C640 C 0.12997 0.53859 0.74347
 C641 C 0.13997 0.55540 0.74381
 C642 C 0.16859 0.53766 0.74737
 C643 C 0.15803 0.52112 0.74695
 N644 N 0.13903 0.52192 0.74541
 H645 H 0.12583 0.46852 0.72050
 H646 H 0.15138 0.48404 0.77174
 H647 H 0.16971 0.45448 0.77201
 H648 H 0.14361 0.43903 0.71975
 H649 H 0.11487 0.53880 0.74212
 H650 H 0.13257 0.56861 0.74268
 H651 H 0.18367 0.53698 0.74900
 H652 H 0.16500 0.50774 0.74816
 C653 C 0.08667 0.50004 0.69265
 C654 C 0.09038 0.50039 0.80273
 C655 C 0.15942 0.55494 0.74601
 C656 C 0.15811 0.44469 0.74575
 C657 C 0.77277 0.90213 0.01419
 H658 H 0.76258 0.90303 0.02537
 C659 C 0.78927 0.91274 0.01507
 H660 H 0.79178 0.92190 0.02691
 C661 C 0.78237 0.88869 -0.01465
 H662 H 0.77994 0.87902 -0.02602
 C663 C 0.79898 0.89901 -0.01431
 H664 H 0.80909 0.89737 -0.02552
 N665 N 0.76958 0.89050 -0.00061
 C666 C 0.70935 0.88064 -0.00490
 H667 H 0.70967 0.86557 -0.00663
 C668 C 0.69225 0.89008 -0.00489
 H669 H 0.67934 0.88228 -0.00665
 C670 C 0.72580 0.90918 -0.00016
 H671 H 0.73890 0.91655 0.00167
 C672 C 0.70894 0.91919 -0.00005
 H673 H 0.70909 0.93425 0.00195
 Zn674 Zn 0.74765 0.87542 -0.00104
 N675 N 0.72564 0.89019 -0.00220
 C676 C 0.73248 0.86267 0.03323
 N677 N 0.74717 0.86080 0.02120
 C678 C 0.76197 0.84952 0.02541
 C679 C 0.76220 0.83936 0.04220
 C680 C 0.73215 0.85279 0.05009
 C681 C 0.74587 0.86943 -0.03936
 C682 C 0.74681 0.85968 -0.05626
 C683 C 0.75128 0.83095 -0.03885
 C684 C 0.75024 0.84127 -0.02220
 N685 N 0.74792 0.86021 -0.02279
 H686 H 0.72109 0.87208 0.03000
 H687 H 0.77367 0.84857 0.01582
 H688 H 0.77406 0.83049 0.04553
 H689 H 0.72044 0.85450 0.05960
 H690 H 0.74389 0.88447 -0.03939
 H691 H 0.74550 0.86721 -0.06938
 H692 H 0.75345 0.81593 -0.03834
 H693 H 0.75154 0.83417 -0.00889
 C694 C 0.69202 0.90949 -0.00223
 C695 C 0.80248 0.91112 0.00066
 C696 C 0.74973 0.84031 -0.05602
 C697 C 0.74714 0.84107 0.05465
 C698 C 0.27368 0.40113 0.51279
 H699 H 0.26351 0.40227 0.52399
 C700 C 0.29028 0.41158 0.51350
 H701 H 0.29290 0.42088 0.52522
 C702 C 0.28310 0.38720 0.48413
 H703 H 0.28056 0.37738 0.47291
 C704 C 0.29980 0.39735 0.48430
 H705 H 0.30988 0.39545 0.47311
 N706 N 0.27035 0.38932 0.49817
 C707 C 0.21008 0.37964 0.49415
 H708 H 0.21040 0.36456 0.49252
 C709 C 0.19298 0.38907 0.49410
 H710 H 0.18007 0.38125 0.49239
 C711 C 0.22652 0.40822 0.49870
 H712 H 0.23962 0.41560 0.50048
 C713 C 0.20965 0.41822 0.49875
 H714 H 0.20978 0.43329 0.50066
 Zn715 Zn 0.24831 0.37438 0.49799
 N716 N 0.22637 0.38922 0.49677
 C717 C 0.23319 0.36208 0.53242
 N718 N 0.24782 0.35996 0.52035
 C719 C 0.26250 0.34854 0.52459
 C720 C 0.26267 0.33848 0.54144
 C721 C 0.23280 0.35231 0.54933
 C722 C 0.24631 0.36812 0.45977
 C723 C 0.24702 0.35825 0.44293
 C724 C 0.25131 0.32959 0.46050
 C725 C 0.25051 0.34003 0.47709
 N726 N 0.24838 0.35899 0.47638
 H727 H 0.22190 0.37159 0.52916
 H728 H 0.27416 0.34739 0.51496
 H729 H 0.27443 0.32949 0.54478
 H730 H 0.22113 0.35421 0.55886
 H731 H 0.24448 0.38318 0.45964
 H732 H 0.24569 0.36571 0.42976
 H733 H 0.25331 0.31454 0.46109
 H734 H 0.25182 0.33301 0.49043
 C735 C 0.19273 0.40849 0.49663
 C736 C 0.30345 0.40963 0.49910
 C737 C 0.24972 0.33885 0.44327
 C738 C 0.24766 0.34044 0.55392
 C739 C 0.22617 0.59804 0.01459
 H740 H 0.23591 0.59664 0.02612
 C741 C 0.20924 0.58812 0.01480
 H742 H 0.20598 0.57898 0.02648
 C743 C 0.21819 0.61207 -0.01446
 H744 H 0.22144 0.62170 -0.02566
 C745 C 0.20118 0.60245 -0.01482
 H746 H 0.19159 0.60460 -0.02640
 N747 N 0.23038 0.60963 0.00001
 C748 C 0.29113 0.61659 -0.00196
 H749 H 0.29166 0.63167 -0.00347
 C750 C 0.30771 0.60625 -0.00149
 H751 H 0.32107 0.61339 -0.00267
 C752 C 0.27307 0.58888 0.00170
 H753 H 0.25954 0.58218 0.00290
 C754 C 0.28936 0.57799 0.00226
 H755 H 0.28836 0.56292 0.00397
 Zn756 Zn 0.25298 0.62368 0.00047
 N757 N 0.27428 0.60786 -0.00003
 C758 C 0.26747 0.63574 0.03532
 N759 N 0.25326 0.63813 0.02280
 C760 C 0.23877 0.64997 0.02651
 C761 C 0.23837 0.66020 0.04325
 C762 C 0.26762 0.64567 0.05215
 C763 C 0.25627 0.63001 -0.03775
 C764 C 0.25606 0.63999 -0.05455
 C765 C 0.25221 0.66865 -0.03687
 C766 C 0.25251 0.65810 -0.02034
 N767 N 0.25413 0.63909 -0.02112
 H768 H 0.27860 0.62591 0.03246
 H769 H 0.22744 0.65133 0.01653
 H770 H 0.22677 0.66954 0.04615
 H771 H 0.27896 0.64358 0.06203
 H772 H 0.25767 0.61490 -0.03794
 H773 H 0.25734 0.63258 -0.06774
 H774 H 0.25051 0.68373 -0.03622
 H775 H 0.25113 0.66508 -0.00699
 C776 C 0.30683 0.58681 0.00085
 C777 C 0.19663 0.59037 -0.00008
 C778 C 0.25377 0.65945 -0.05413
 C779 C 0.25296 0.65799 0.05617
 C780 C 0.72724 0.09982 0.51345
 H781 H 0.73678 0.09824 0.52512
 C782 C 0.71020 0.09007 0.51332
 H783 H 0.70663 0.08087 0.52486
 C784 C 0.71983 0.11413 0.48438
 H785 H 0.72333 0.12382 0.47331
 C786 C 0.70273 0.10468 0.48371
 H787 H 0.69331 0.10699 0.47203
 N788 N 0.73178 0.11147 0.49902
 C789 C 0.79260 0.11820 0.49782
 H790 H 0.79317 0.13328 0.49627
 C791 C 0.80916 0.10785 0.49851
 H792 H 0.82254 0.11497 0.49743
 C793 C 0.77446 0.09053 0.50140
 H794 H 0.76092 0.08385 0.50250
 C795 C 0.79074 0.07962 0.50217
 H796 H 0.78971 0.06457 0.50393
 Zn797 Zn 0.75446 0.12539 0.49988
 N798 N 0.77572 0.10950 0.49962
 C799 C 0.76861 0.13728 0.53490
 N800 N 0.75453 0.13977 0.52226
 C801 C 0.74005 0.15166 0.52588
 C802 C 0.73955 0.16184 0.54264
 C803 C 0.76865 0.14716 0.55176
 C804 C 0.75839 0.13178 0.46175
 C805 C 0.75820 0.14174 0.44494
 C806 C 0.75381 0.17036 0.46254
 C807 C 0.75410 0.15984 0.47909
 N808 N 0.75595 0.14085 0.47835
 H809 H 0.77972 0.12742 0.53213
 H810 H 0.72882 0.15310 0.51579
 H811 H 0.72796 0.17123 0.54546
 H812 H 0.77988 0.14499 0.56174
 H813 H 0.75994 0.11669 0.46159
 H814 H 0.75967 0.13432 0.43177
 H815 H 0.75187 0.18542 0.46315
 H816 H 0.75246 0.16682 0.49242
 C817 C 0.80824 0.08843 0.50091
 C818 C 0.69785 0.09256 0.49828
 C819 C 0.75563 0.16116 0.44531
 C820 C 0.75401 0.15954 0.55568
 C821 C 0.98552 0.72633 0.90255
 H822 H 0.97408 0.73618 0.90398
 C823 C 0.98521 0.71009 0.91201
 H824 H 0.97353 0.70682 0.92115
 C825 C 1.01476 0.71896 0.88800
 H826 H 1.02596 0.72209 0.87835
 C827 C 1.01504 0.70099 0.89816
 H828 H 1.02664 0.69141 0.89599
 N829 N 1.00098 0.73073 0.89033
 C830 C 1.00345 0.79243 0.88283
 H831 H 1.00520 0.79285 0.86778
 C832 C 1.00303 0.80836 0.89266
 H833 H 1.00449 0.82171 0.88555
 C834 C 0.99959 0.77356 0.91027
 H835 H 0.99817 0.76008 0.91700
 C836 C 0.99903 0.79084 0.92171
 H837 H 0.99709 0.78980 0.93674
 Zn838 Zn 1.00060 0.75334 0.87630
 N839 N 1.00124 0.77465 0.89211
 C840 C 0.96593 0.76815 0.86428
 N841 N 0.97827 0.75378 0.86191
 C842 C 0.97441 0.73931 0.85007
 C843 C 0.95770 0.73911 0.83981
 C844 C 0.94913 0.76849 0.85431
 C845 C 1.03882 0.75659 0.86987
 C846 C 1.05558 0.75636 0.85983
 C847 C 1.03780 0.75254 0.83126
 C848 C 1.02130 0.75286 0.84186
 N849 N 1.02215 0.75447 0.86085
 H850 H 0.96892 0.77927 0.87409
 H851 H 0.98426 0.72786 0.84872
 H852 H 0.95468 0.72753 0.83046
 H853 H 0.93939 0.77996 0.85637
 H854 H 1.03906 0.75799 0.88496
 H855 H 1.06880 0.75764 0.86720
 H856 H 1.03709 0.75085 0.81619
 H857 H 1.00792 0.75149 0.83492
 C858 C 1.00045 0.80755 0.91319
 C859 C 1.00085 0.69668 0.90967
 C860 C 1.05508 0.75409 0.84039
 C861 C 0.94497 0.75387 0.84197
 C862 C 0.48621 0.22726 0.40053
 H863 H 0.47450 0.23677 0.40197
 C864 C 0.48639 0.21033 0.41046
 H865 H 0.47483 0.20680 0.41965
 C866 C 0.51537 0.21986 0.38642
 H867 H 0.52648 0.22332 0.37677
 C868 C 0.51610 0.20286 0.39606
 H869 H 0.52784 0.19348 0.39391
 N870 N 0.50067 0.23177 0.38892
 C871 C 0.50167 0.29262 0.38218
 H872 H 0.50325 0.29322 0.36711
 C873 C 0.50086 0.30916 0.39256
 H874 H 0.50185 0.32258 0.38549
 C875 C 0.49818 0.27440 0.40978
 H876 H 0.49717 0.26083 0.41643
 C877 C 0.49729 0.29067 0.42072
 H878 H 0.49551 0.28959 0.43575
 Zn879 Zn 0.49983 0.25441 0.37495
 N880 N 0.49997 0.27570 0.39083
 C881 C 0.46483 0.26845 0.36287
 N882 N 0.47752 0.25439 0.36047
 C883 C 0.47403 0.23989 0.34855
 C884 C 0.45737 0.23937 0.33821
 C885 C 0.44807 0.26847 0.35282
 C886 C 0.53801 0.25837 0.36868
 C887 C 0.55484 0.25823 0.35875
 C888 C 0.53728 0.25391 0.33011
 C889 C 0.52071 0.25415 0.34060
 N890 N 0.52142 0.25594 0.35958
 H891 H 0.46750 0.27957 0.37276
 H892 H 0.48414 0.22868 0.34719
 H893 H 0.45466 0.22778 0.32878
 H894 H 0.43806 0.27970 0.35490
 H895 H 0.53814 0.25989 0.38376
 H896 H 0.56799 0.25969 0.36619
 H897 H 0.53668 0.25202 0.31506
 H898 H 0.50739 0.25253 0.33360
 C899 C 0.49843 0.30819 0.41196
 C900 C 0.50151 0.19805 0.40818
 C901 C 0.55449 0.25571 0.33933
 C902 C 0.44430 0.25382 0.34038
 C903 C 0.98532 0.27238 0.59815
 H904 H 0.97405 0.26226 0.59740
 C905 C 0.98441 0.28891 0.58760
 H906 H 0.97243 0.29146 0.57862
 C907 C 1.01440 0.28180 0.61121
 H908 H 1.02588 0.27928 0.62072
 C909 C 1.01406 0.29843 0.60093
 H910 H 1.02538 0.30846 0.60248
 N911 N 1.00024 0.26909 0.60958
 C912 C 1.00415 0.20879 0.61960
 H913 H 1.00614 0.20919 0.63463
 C914 C 1.00381 0.19161 0.61028
 H915 H 1.00560 0.17872 0.61811
 C916 C 0.99905 0.22510 0.59108
 H917 H 0.99719 0.23818 0.58368
 C918 C 0.99860 0.20816 0.58118
 H919 H 0.99633 0.20822 0.56617
 Zn920 Zn 1.00066 0.24717 0.62471
 N921 N 1.00143 0.22506 0.61001
 C922 C 0.96641 0.23230 0.63788
 N923 N 0.97858 0.24692 0.63957
 C924 C 0.97462 0.26179 0.65087
 C925 C 0.95794 0.26218 0.66120
 C926 C 0.94966 0.23212 0.64794
 C927 C 1.03906 0.24513 0.63029
 C928 C 1.05608 0.24591 0.63986
 C929 C 1.03897 0.25053 0.66875
 C930 C 1.02221 0.24964 0.65860
 N931 N 1.02260 0.24731 0.63966
 H932 H 0.96944 0.22086 0.62847
 H933 H 0.98432 0.27343 0.65168
 H934 H 0.95481 0.27409 0.67008
 H935 H 0.94004 0.22046 0.64636
 H936 H 1.03893 0.24314 0.61526
 H937 H 1.06909 0.24448 0.63216
 H938 H 1.03858 0.25269 0.68378
 H939 H 1.00899 0.25104 0.66581
 C940 C 1.00079 0.19127 0.59094
 C941 C 0.99893 0.30206 0.58904
 C942 C 1.05607 0.24882 0.65924
 C943 C 0.94535 0.24718 0.65967
 C944 C 0.48452 0.77302 0.09908
 H945 H 0.47338 0.76276 0.09818
 C946 C 0.48354 0.78955 0.08853
 H947 H 0.47167 0.79200 0.07940
 C948 C 0.51333 0.78278 0.11250
 H949 H 0.52471 0.78040 0.12215
 C950 C 0.51289 0.79941 0.10224
 H951 H 0.52405 0.80960 0.10389
 N952 N 0.49934 0.76990 0.11069
 C953 C 0.50384 0.70965 0.12063
 H954 H 0.50555 0.71003 0.13569
 C955 C 0.50397 0.69252 0.11124
 H956 H 0.50583 0.67963 0.11906
 C957 C 0.49905 0.72600 0.09207
 H958 H 0.49716 0.73908 0.08468
 C959 C 0.49909 0.70910 0.08210
 H960 H 0.49714 0.70918 0.06705
 Zn961 Zn 0.49988 0.74797 0.12577
 N962 N 0.50106 0.72591 0.11105
 C963 C 0.46569 0.73273 0.13868
 N964 N 0.47771 0.74747 0.14047
 C965 C 0.47352 0.76229 0.15175
 C966 C 0.45676 0.76253 0.16194
 C967 C 0.44886 0.73240 0.14860
 C968 C 0.53823 0.74633 0.13155
 C969 C 0.55519 0.74731 0.14119
 C970 C 0.53795 0.75178 0.17000
 C971 C 0.52123 0.75070 0.15979
 N972 N 0.52171 0.74835 0.14086
 H973 H 0.46890 0.72132 0.12929
 H974 H 0.48311 0.77402 0.15263
 H975 H 0.45345 0.77441 0.17079
 H976 H 0.43935 0.72066 0.14694
 H977 H 0.53818 0.74433 0.11652
 H978 H 0.56827 0.74602 0.13358
 H979 H 0.53753 0.75396 0.18501
 H980 H 0.50796 0.75198 0.16696
 C981 C 0.50138 0.69221 0.09184
 C982 C 0.49788 0.80286 0.09017
 C983 C 0.55507 0.75025 0.16054
 C984 C 0.44432 0.74743 0.16030
 O985 O -0.01203 0.98933 0.94922
 O986 O 0.01968 0.99887 0.94885
 O987 O -0.01351 0.94858 0.99377
 O988 O -0.00764 0.94755 1.02439
 O989 O -0.05566 0.99264 0.99099
 O990 O -0.05551 1.02488 0.99876
 O991 O 0.03423 0.99953 1.04313
 O992 O 0.03609 0.96981 1.03047
 O993 O 0.03915 1.03773 0.99874
 O994 O 0.02576 1.04070 0.96934
 O995 O -0.00446 1.04396 1.03729
 O996 O -0.03460 1.02883 1.04246
 O997 O 0.00844 1.01466 1.05416
 O998 O -0.02550 1.00546 1.05488
 O999 O 0.01009 1.05468 1.01110
 O1000 O -0.00004 1.05391 0.97735
 O1001 O 0.05009 1.01226 1.01440
 O1002 O 0.04992 0.98013 1.00157
 O1003 O -0.03768 1.00487 0.96001
 O1004 O -0.04147 1.03483 0.97524
 O1005 O -0.04470 0.96686 1.00611
 O1006 O -0.02850 0.96468 1.03671
 O1007 O 0.00004 0.95936 0.96701
 O1008 O 0.03164 0.97410 0.96711
 Zr1009 Zr 0.00573 0.98773 0.97269
 O1010 O 0.02351 1.00523 0.98845
 Zr1011 Zr -0.01615 0.97251 1.01089
 O1012 O 0.00129 0.98883 1.02824
 Zr1013 Zr -0.03198 1.01009 0.98852
 O1014 O -0.01570 1.02814 1.00529
 Zr1015 Zr 0.02721 0.99367 1.01521
 O1016 O 0.01069 0.97512 0.99894
 Zr1017 Zr 0.01093 1.03130 0.99319
 O1018 O -0.00602 1.01473 0.97534
 Zr1019 Zr -0.01043 1.01564 1.03143
 O1020 O -0.02897 0.99866 1.01555
 O1021 O -0.02067 0.98360 0.98442
 O1022 O 0.01589 1.02023 1.01973
 C1023 C -0.02819 0.99694 0.94687
 C1024 C -0.00688 0.94617 0.97717
 C1025 C -0.05796 0.97644 0.99858
 C1026 C 0.02498 1.00778 1.05621
 C1027 C 0.05223 1.02861 1.00712
 C1028 C 0.00348 1.05698 1.02768
 H1029 H 0.03559 1.00668 0.98178
 H1030 H -0.02226 1.04027 1.00660
 H1031 H -0.02880 0.97550 0.97660
 H1032 H 0.00299 0.98236 1.04038
 H1033 H 0.03328 0.95875 1.02255
 H1034 H 0.00391 0.95058 1.03140
 H1035 H -0.01099 1.05899 0.98416
 H1036 H -0.03156 1.03859 0.96627
 H1037 H 0.06098 0.98073 1.00997
 H1038 H 0.03026 0.96583 0.95603
 H1039 H -0.03889 1.03817 1.03316
 H1040 H -0.05725 1.02085 1.01192
 H1041 H 0.01916 0.98958 0.93851
 H1042 H 0.02191 1.03243 0.95890
 H1043 H -0.03836 0.97405 1.03946
 H1044 H -0.01898 0.99415 1.05956
 O1045 O 0.49492 0.54395 0.53971
 O1046 O 0.46507 0.52952 0.54281
 O1047 O 0.53323 0.49818 0.54605
 O1048 O 0.53916 0.47073 0.53224
 O1049 O 0.53969 0.53723 0.49994
 O1050 O 0.52409 0.54114 0.47085
 O1051 O 0.48490 0.44873 0.49564
 O1052 O 0.49563 0.44840 0.52604
 O1053 O 0.44493 0.49208 0.49214
 O1054 O 0.44372 0.52300 0.50135
 O1055 O 0.48765 0.48902 0.45178
 O1056 O 0.52057 0.49698 0.45083
 O1057 O 0.49948 0.45959 0.46946
 O1058 O 0.53073 0.47518 0.46502
 O1059 O 0.46190 0.50423 0.46264
 O1060 O 0.45875 0.53554 0.47865
 O1061 O 0.45603 0.46602 0.50668
 O1062 O 0.46985 0.46607 0.53838
 O1063 O 0.50934 0.55476 0.51341
 O1064 O 0.50013 0.55451 0.48088
 O1065 O 0.55079 0.51151 0.51506
 O1066 O 0.54976 0.47825 0.50537
 O1067 O 0.50801 0.51428 0.55699
 O1068 O 0.47573 0.50110 0.55595
 Zr1069 Zr 0.48973 0.51545 0.53388
 O1070 O 0.47166 0.49871 0.51761
 Zr1071 Zr 0.52745 0.49360 0.51748
 O1072 O 0.51081 0.47551 0.50114
 Zr1073 Zr 0.51115 0.53127 0.49561
 O1074 O 0.49423 0.51483 0.47790
 Zr1075 Zr 0.48409 0.47246 0.51304
 O1076 O 0.50162 0.48856 0.53082
 Zr1077 Zr 0.46821 0.51014 0.49081
 O1078 O 0.48445 0.52831 0.50779
 Zr1079 Zr 0.50584 0.48793 0.47494
 O1080 O 0.52418 0.50529 0.49060
 O1081 O 0.51597 0.51990 0.52193
 O1082 O 0.47937 0.48352 0.48639
 C1083 C 0.50242 0.55710 0.52989
 C1084 C 0.52410 0.50649 0.55920
 C1085 C 0.55299 0.52773 0.50751
 C1086 C 0.49163 0.44649 0.47907
 C1087 C 0.44284 0.47548 0.49888
 C1088 C 0.47124 0.49610 0.44956
 H1089 H 0.45946 0.49751 0.52411
 H1090 H 0.49293 0.52128 0.46571
 H1091 H 0.52413 0.52795 0.52976
 H1092 H 0.51715 0.46324 0.50002
 H1093 H 0.50137 0.45270 0.53792
 H1094 H 0.53119 0.45972 0.52953
 H1095 H 0.46654 0.53811 0.46747
 H1096 H 0.48763 0.55709 0.48631
 H1097 H 0.46383 0.45361 0.53695
 H1098 H 0.47768 0.50794 0.56788
 H1099 H 0.51582 0.50958 0.44750
 H1100 H 0.53224 0.53088 0.46633
 H1101 H 0.46727 0.53500 0.55540
 H1102 H 0.44767 0.53034 0.51243
 H1103 H 0.55290 0.48448 0.49338
 H1104 H 0.53355 0.46438 0.47325
 O1105 O 0.50590 -0.03854 0.53436
 O1106 O 0.53553 -0.02376 0.53727
 O1107 O 0.46716 0.00709 0.54013
 O1108 O 0.46087 0.03419 0.52578
 O1109 O 0.46090 -0.03289 0.49476
 O1110 O 0.47637 -0.03703 0.46561
 O1111 O 0.51487 0.05605 0.48883
 O1112 O 0.50426 0.05678 0.51919
 O1113 O 0.55529 0.01291 0.48606
 O1114 O 0.55671 -0.01786 0.49561
 O1115 O 0.51249 0.01497 0.44556
 O1116 O 0.47969 0.00683 0.44476
 O1117 O 0.50027 0.04471 0.46286
 O1118 O 0.46926 0.02865 0.45868
 O1119 O 0.53836 0.00018 0.45668
 O1120 O 0.54177 -0.03081 0.47316
 O1121 O 0.54400 0.03913 0.50014
 O1122 O 0.53016 0.03953 0.53179
 O1123 O 0.49155 -0.04991 0.50827
 O1124 O 0.50048 -0.05005 0.47569
 O1125 O 0.44962 -0.00702 0.50948
 O1126 O 0.45031 0.02608 0.49912
 O1127 O 0.49249 -0.00872 0.55124
 O1128 O 0.52462 0.00477 0.54991
 Zr1129 Zr 0.51073 -0.01008 0.52812
 O1130 O 0.52862 0.00653 0.51154
 Zr1131 Zr 0.47279 0.01117 0.51145
 O1132 O 0.48926 0.02912 0.49478
 Zr1133 Zr 0.48936 -0.02670 0.49016
 O1134 O 0.50612 -0.01041 0.47215
 Zr1135 Zr 0.51597 0.03260 0.50657
 O1136 O 0.49860 0.01665 0.52464
 Zr1137 Zr 0.53212 -0.00530 0.48494
 O1138 O 0.51605 -0.02332 0.50223
 Zr1139 Zr 0.49430 0.01635 0.46875
 O1140 O 0.47611 -0.00091 0.48474
 O1141 O 0.48451 -0.01496 0.51631
 O1142 O 0.52077 0.02117 0.48008
 C1143 C 0.49857 -0.05193 0.52474
 C1144 C 0.47638 -0.00095 0.55338
 C1145 C 0.44755 -0.02340 0.50226
 C1146 C 0.50798 0.05803 0.47230
 C1147 C 0.55728 0.02959 0.49259
 C1148 C 0.52894 0.00795 0.44346
 H1149 H 0.54081 0.00792 0.51802
 H1150 H 0.50745 -0.01705 0.46007
 H1151 H 0.47646 -0.02297 0.52430
 H1152 H 0.48280 0.04131 0.49349
 H1153 H 0.49853 0.05263 0.53113
 H1154 H 0.46877 0.04521 0.52292
 H1155 H 0.53399 -0.03362 0.46204
 H1156 H 0.51305 -0.05244 0.48106
 H1157 H 0.53608 0.05202 0.53016
 H1158 H 0.52275 -0.00187 0.56197
 H1159 H 0.48435 -0.00588 0.44179
 H1160 H 0.46806 -0.02691 0.46101
 H1161 H 0.53340 -0.02903 0.54996
 H1162 H 0.55284 -0.02499 0.50685
 H1163 H 0.44716 0.01956 0.48728
 H1164 H 0.46627 0.03949 0.46679
 O1165 O 0.01331 0.55512 0.98894
 O1166 O 0.00367 0.55533 1.02060
 O1167 O 0.05487 0.51125 0.98785
 O1168 O 0.05641 0.48063 0.99363
 O1169 O 0.01097 0.51314 0.94537
 O1170 O -0.02112 0.50482 0.94539
 O1171 O 0.00468 0.46086 1.03516
 O1172 O 0.03411 0.47418 1.03723
 O1173 O -0.03435 0.50460 1.03994
 O1174 O -0.03776 0.53397 1.02659
 O1175 O -0.03972 0.46600 0.99621
 O1176 O -0.02426 0.46114 0.96615
 O1177 O -0.01021 0.44963 1.00932
 O1178 O -0.00091 0.44899 0.97554
 O1179 O -0.05097 0.49201 1.01070
 O1180 O -0.05068 0.52581 1.00071
 O1181 O -0.00868 0.48938 1.05101
 O1182 O 0.02317 0.50286 1.05103
 O1183 O -0.00187 0.54394 0.96323
 O1184 O -0.03147 0.52822 0.95930
 O1185 O 0.03697 0.49856 0.95648
 O1186 O 0.03964 0.46802 0.97270
 O1187 O 0.04361 0.53785 1.00131
 O1188 O 0.02863 0.53753 1.03277
 Zr1189 Zr 0.01530 0.53167 1.00676
 O1190 O -0.00197 0.51554 1.02446
 Zr1191 Zr 0.03128 0.49370 0.98500
 O1192 O 0.01520 0.47603 1.00234
 Zr1193 Zr -0.00659 0.51535 0.96896
 O1194 O -0.02441 0.49828 0.98515
 Zr1195 Zr 0.01001 0.48896 1.02823
 O1196 O 0.02831 0.50562 1.01181
 Zr1197 Zr -0.02789 0.51031 1.01177
 O1198 O -0.01158 0.52848 0.99489
 Zr1199 Zr -0.01149 0.47235 0.99047
 O1200 O 0.00530 0.48854 0.97203
 O1201 O 0.01976 0.51999 0.98039
 O1202 O -0.01640 0.48395 1.01677
 C1203 C 0.00572 0.55727 0.97272
 C1204 C 0.05700 0.52788 0.99453
 C1205 C 0.02729 0.50584 0.94316
 C1206 C -0.00332 0.44765 1.02586
 C1207 C -0.02515 0.49636 1.05306
 C1208 C -0.05296 0.47540 1.00402
 H1209 H -0.00360 0.52218 1.03653
 H1210 H -0.03647 0.49676 0.97851
 H1211 H 0.02777 0.52796 0.97231
 H1212 H 0.02186 0.46400 1.00406
 H1213 H 0.04501 0.48233 1.03449
 H1214 H 0.05346 0.47359 1.00518
 H1215 H -0.05556 0.51897 0.98968
 H1216 H -0.03545 0.53709 0.96919
 H1217 H 0.02269 0.49443 1.06207
 H1218 H 0.03671 0.54877 1.03144
 H1219 H -0.03386 0.47019 0.96190
 H1220 H -0.01683 0.49174 0.94364
 H1221 H 0.01278 0.56585 1.02011
 H1222 H -0.02963 0.54457 1.02284
 H1223 H 0.03034 0.46505 0.96283
 H1224 H 0.01054 0.44463 0.98201
 O1225 O 0.00804 0.44275 0.50753
 O1226 O -0.00127 0.44266 0.47573
 O1227 O 0.04953 0.48667 0.50940
 O1228 O 0.05122 0.51729 0.50385
 O1229 O 0.00501 0.48448 0.55121
 O1230 O -0.02708 0.49283 0.55073
 O1231 O 0.00032 0.53724 0.46158
 O1232 O 0.02972 0.52378 0.45986
 O1233 O -0.03892 0.49376 0.45602
 O1234 O -0.04249 0.46418 0.46905
 O1235 O -0.04470 0.53201 0.49974
 O1236 O -0.02992 0.53677 0.52999
 O1237 O -0.01496 0.54836 0.48724
 O1238 O -0.00611 0.54869 0.52130
 O1239 O -0.05588 0.50606 0.48507
 O1240 O -0.05582 0.47217 0.49485
 O1241 O -0.01304 0.50901 0.44545
 O1242 O 0.01873 0.49526 0.44573
 O1243 O -0.00755 0.45381 0.53303
 O1244 O -0.03727 0.46949 0.53648
 O1245 O 0.03120 0.49907 0.54051
 O1246 O 0.03412 0.52978 0.52452
 O1247 O 0.03850 0.46013 0.49559
 O1248 O 0.02390 0.46049 0.46394
 Zr1249 Zr 0.01024 0.46628 0.48978
 O1250 O -0.00674 0.48251 0.47190
 Zr1251 Zr 0.02593 0.50415 0.51196
 O1252 O 0.01020 0.52192 0.49446
 Zr1253 Zr -0.01220 0.48241 0.52734
 O1254 O -0.02972 0.49961 0.51096
 Zr1255 Zr 0.00538 0.50909 0.46844
 O1256 O 0.02338 0.49235 0.48506
 Zr1257 Zr -0.03283 0.48772 0.48422
 O1258 O -0.01683 0.46943 0.50126
 Zr1259 Zr -0.01663 0.52555 0.50596
 O1260 O -0.00021 0.50925 0.52459
 O1261 O 0.01431 0.47785 0.51626
 O1262 O -0.02117 0.51408 0.47954
 C1263 C 0.00025 0.44053 0.52364
 C1264 C 0.05177 0.47009 0.50266
 C1265 C 0.02134 0.49171 0.55366
 C1266 C -0.00779 0.55042 0.47082
 C1267 C -0.02954 0.50217 0.44313
 C1268 C -0.05786 0.52268 0.49172
 H1269 H -0.00822 0.47596 0.45976
 H1270 H -0.04187 0.50112 0.51741
 H1271 H 0.02219 0.46984 0.52441
 H1272 H 0.01694 0.53394 0.49290
 H1273 H 0.04052 0.51555 0.46270
 H1274 H 0.04852 0.52424 0.49218
 H1275 H -0.06083 0.47895 0.50586
 H1276 H -0.04104 0.46060 0.52651
 H1277 H 0.01843 0.50376 0.43472
 H1278 H 0.03194 0.44924 0.46535
 H1279 H -0.03940 0.52757 0.53421
 H1280 H -0.02279 0.50590 0.55261
 H1281 H 0.00780 0.43214 0.47630
 H1282 H -0.03450 0.45353 0.47291
 H1283 H 0.02477 0.53261 0.53438
 H1284 H 0.00530 0.55325 0.51487
 O1285 O 0.50759 0.94464 0.00865
 O1286 O 0.49837 0.94459 -0.02317
 O1287 O 0.54919 0.98846 0.01062
 O1288 O 0.55095 1.01910 0.00507
 O1289 O 0.50462 0.98632 0.05236
 O1290 O 0.47256 0.99480 0.05185
 O1291 O 0.50015 1.03915 -0.03726
 O1292 O 0.52952 1.02565 -0.03894
 O1293 O 0.46085 0.99571 -0.04289
 O1294 O 0.45721 0.96614 -0.02985
 O1295 O 0.45503 1.03398 0.00083
 O1296 O 0.46979 1.03872 0.03110
 O1297 O 0.48486 1.05031 -0.01163
 O1298 O 0.49362 1.05062 0.02244
 O1299 O 0.44387 1.00805 -0.01389
 O1300 O 0.44384 0.97419 -0.00408
 O1301 O 0.48677 1.01093 -0.05342
 O1302 O 0.51852 0.99715 -0.05309
 O1303 O 0.49197 0.95571 0.03413
 O1304 O 0.46231 0.97150 0.03759
 O1305 O 0.53085 1.00088 0.04170
 O1306 O 0.53385 1.03160 0.02576
 O1307 O 0.53811 0.96194 -0.00318
 O1308 O 0.52361 0.96238 -0.03488
 Zr1309 Zr 0.50989 0.96817 -0.00906
 O1310 O 0.49298 0.98443 -0.02697
 Zr1311 Zr 0.52563 1.00600 0.01316
 O1312 O 0.50995 1.02380 -0.00436
 Zr1313 Zr 0.48743 0.98434 0.02847
 O1314 O 0.46996 1.00157 0.01206
 Zr1315 Zr 0.50515 1.01099 -0.03039
 O1316 O 0.52309 0.99421 -0.01375
 Zr1317 Zr 0.46688 0.98968 -0.01468
 O1318 O 0.48282 0.97137 0.00238
 Zr1319 Zr 0.48310 1.02749 0.00709
 O1320 O 0.49947 1.01116 0.02574
 O1321 O 0.51394 0.97972 0.01743
 O1322 O 0.47859 1.01603 -0.01934
 C1323 C 0.49975 0.94243 0.02474
 C1324 C 0.55140 0.97186 0.00390
 C1325 C 0.52097 0.99350 0.05484
 C1326 C 0.49206 1.05235 -0.02804
 C1327 C 0.47027 1.00410 -0.05577
 C1328 C 0.44188 1.02467 -0.00724
 H1329 H 0.49150 0.97789 -0.03911
 H1330 H 0.45780 1.00310 0.01850
 H1331 H 0.52178 0.97169 0.02558
 H1332 H 0.51671 1.03581 -0.00591
 H1333 H 0.54031 1.01741 -0.03608
 H1334 H 0.54827 1.02609 -0.00658
 H1335 H 0.43882 0.98097 0.00691
 H1336 H 0.45851 0.96263 0.02761
 H1337 H 0.51825 1.00565 -0.06409
 H1338 H 0.53162 0.95111 -0.03346
 H1339 H 0.46030 1.02953 0.03532
 H1340 H 0.47691 1.00786 0.05375
 H1341 H 0.50742 0.93405 -0.02258
 H1342 H 0.46515 0.95548 -0.02594
 H1343 H 0.52448 1.03445 0.03558
 H1344 H 0.50508 1.05512 0.01606
 O1345 O 0.44809 0.50475 0.01556
 O1346 O 0.44837 0.47308 0.00572
 O1347 O 0.49203 0.50656 0.05689
 O1348 O 0.52271 0.50109 0.05835
 O1349 O 0.48927 0.54903 0.01315
 O1350 O 0.49747 0.54932 -0.01893
 O1351 O 0.54298 0.46008 0.00623
 O1352 O 0.52988 0.45769 0.03578
 O1353 O 0.49934 0.45485 -0.03263
 O1354 O 0.46969 0.46757 -0.03581
 O1355 O 0.53702 0.49932 -0.03784
 O1356 O 0.54147 0.52938 -0.02216
 O1357 O 0.55370 0.48620 -0.00859
 O1358 O 0.55393 0.51994 0.00104
 O1359 O 0.51123 0.48445 -0.04910
 O1360 O 0.47725 0.49377 -0.04859
 O1361 O 0.51471 0.44384 -0.00703
 O1362 O 0.50137 0.44345 0.02490
 O1363 O 0.45883 0.53072 0.00048
 O1364 O 0.47429 0.53495 -0.02927
 O1365 O 0.50420 0.53815 0.03905
 O1366 O 0.53498 0.52236 0.04160
 O1367 O 0.46567 0.49256 0.04569
 O1368 O 0.46647 0.46111 0.03060
 Zr1369 Zr 0.47183 0.48728 0.01734
 O1370 O 0.48816 0.46994 -0.00008
 Zr1371 Zr 0.50948 0.50966 0.03328
 O1372 O 0.52735 0.49267 0.01707
 Zr1373 Zr 0.48743 0.52547 -0.00446
 O1374 O 0.50470 0.50968 -0.02240
 Zr1375 Zr 0.51484 0.46656 0.01179
 O1376 O 0.49800 0.48263 0.03023
 Zr1377 Zr 0.49307 0.48286 -0.02595
 O1378 O 0.47469 0.49933 -0.00951
 Zr1379 Zr 0.53073 0.50474 -0.00956
 O1380 O 0.51432 0.52284 0.00734
 O1381 O 0.48311 0.51385 0.02185
 O1382 O 0.51954 0.47826 -0.01457
 C1383 C 0.44569 0.52101 0.00812
 C1384 C 0.47552 0.49959 0.05904
 C1385 C 0.49659 0.55135 0.02943
 C1386 C 0.55597 0.46962 -0.00186
 C1387 C 0.50781 0.44180 -0.02354
 C1388 C 0.52769 0.49146 -0.05110
 H1389 H 0.48174 0.45774 -0.00175
 H1390 H 0.50605 0.51642 -0.03442
 H1391 H 0.47506 0.52177 0.02991
 H1392 H 0.53943 0.49110 0.02368
 H1393 H 0.52175 0.46025 0.04673
 H1394 H 0.52999 0.48971 0.05530
 H1395 H 0.48386 0.50496 -0.05343
 H1396 H 0.46544 0.52499 -0.03315
 H1397 H 0.50997 0.43254 0.02432
 H1398 H 0.45524 0.46221 0.03871
 H1399 H 0.53236 0.53351 -0.03175
 H1400 H 0.51052 0.55130 -0.01467
 H1401 H 0.43789 0.47335 0.01486
 H1402 H 0.45907 0.47104 -0.02762
 H1403 H 0.53778 0.53230 0.03232
 H1404 H 0.55845 0.51342 0.01240
 O1405 O 0.03730 -0.00013 0.45951
 O1406 O 0.04010 0.02952 0.47425
 O1407 O 0.04406 -0.03888 0.50505
 O1408 O 0.03014 -0.04521 0.53238
 O1409 O -0.00162 -0.04574 0.46569
 O1410 O -0.03102 -0.03072 0.46187
 O1411 O -0.00727 0.00842 0.55448
 O1412 O 0.02324 -0.00185 0.55492
 O1413 O -0.01106 0.04865 0.51128
 O1414 O -0.00175 0.05011 0.48043
 O1415 O -0.05094 0.00536 0.51405
 O1416 O -0.05148 -0.02748 0.50594
 O1417 O -0.03318 -0.00660 0.54352
 O1418 O -0.03712 -0.03778 0.52758
 O1419 O -0.04024 0.03136 0.49911
 O1420 O -0.02427 0.03485 0.46783
 O1421 O 0.00344 0.03763 0.53738
 O1422 O 0.03532 0.02421 0.53748
 O1423 O 0.01126 -0.01485 0.44846
 O1424 O -0.02147 -0.00643 0.44871
 O1425 O 0.01346 -0.05681 0.49143
 O1426 O 0.00348 -0.05618 0.52463
 O1427 O 0.05468 -0.01341 0.48907
 O1428 O 0.05316 0.01872 0.50262
 Zr1429 Zr 0.03135 0.00458 0.48801
 O1430 O 0.01475 0.02231 0.50473
 Zr1431 Zr 0.01537 -0.03355 0.50951
 O1432 O -0.00129 -0.01725 0.52760
 Zr1433 Zr -0.00655 -0.01733 0.47187
 O1434 O -0.02458 -0.00077 0.48832
 Zr1435 Zr 0.01021 0.00965 0.53087
 O1436 O 0.02832 -0.00755 0.51478
 Zr1437 Zr -0.01202 0.02542 0.49318
 O1438 O 0.00526 0.00954 0.47504
 Zr1439 Zr -0.02753 -0.01257 0.51514
 O1440 O -0.01151 -0.03059 0.49775
 O1441 O 0.01979 -0.02181 0.48332
 O1442 O -0.01644 0.01405 0.51972
 C1443 C 0.02761 -0.00756 0.44624
 C1444 C 0.05710 -0.02951 0.49680
 C1445 C 0.00612 -0.05899 0.47513
 C1446 C -0.02371 0.00134 0.55668
 C1447 C -0.00443 0.05077 0.52789
 C1448 C -0.05326 0.02184 0.50711
 H1449 H 0.02108 0.03461 0.50602
 H1450 H -0.03675 0.00041 0.48183
 H1451 H 0.02778 -0.02976 0.47523
 H1452 H -0.00237 -0.02370 0.53982
 H1453 H 0.03521 -0.00743 0.55066
 H1454 H 0.02728 -0.03734 0.54341
 H1455 H -0.03542 0.02700 0.46527
 H1456 H -0.01631 0.00622 0.44625
 H1457 H 0.03373 0.03017 0.54994
 H1458 H 0.06517 0.01697 0.49586
 H1459 H -0.05464 -0.02288 0.49325
 H1460 H -0.03543 -0.03902 0.47208
 H1461 H 0.05276 0.02753 0.46885
 H1462 H 0.00937 0.04632 0.47307
 H1463 H -0.00839 -0.05950 0.51826
 H1464 H -0.02890 -0.04058 0.53838
 O1465 O 0.74027 0.19682 0.26191
 O1466 O 0.77196 0.19675 0.25235
 O1467 O 0.73885 0.24107 0.30314
 O1468 O 0.74443 0.27173 0.30443
 O1469 O 0.69644 0.23852 0.25915
 O1470 O 0.69650 0.24654 0.22699
 O1471 O 0.78595 0.29133 0.25265
 O1472 O 0.78804 0.27826 0.28219
 O1473 O 0.79108 0.24729 0.21397
 O1474 O 0.77792 0.21777 0.21081
 O1475 O 0.74717 0.28553 0.20821
 O1476 O 0.71699 0.29029 0.22357
 O1477 O 0.76007 0.30224 0.23761
 O1478 O 0.72629 0.30276 0.24680
 O1479 O 0.76182 0.25952 0.19721
 O1480 O 0.75201 0.22567 0.19773
 O1481 O 0.80199 0.26283 0.23953
 O1482 O 0.80205 0.24960 0.27147
 O1483 O 0.71452 0.20773 0.24664
 O1484 O 0.71057 0.22313 0.21688
 O1485 O 0.70744 0.25336 0.28507
 O1486 O 0.72345 0.28404 0.28752
 O1487 O 0.75244 0.21444 0.29209
 O1488 O 0.78395 0.21485 0.27720
 Zr1489 Zr 0.75795 0.22042 0.26376
 O1490 O 0.77559 0.23651 0.24640
 Zr1491 Zr 0.73594 0.25838 0.27940
 O1492 O 0.75320 0.27603 0.26321
 Zr1493 Zr 0.72009 0.23630 0.24167
 O1494 O 0.73623 0.25331 0.22374
 Zr1495 Zr 0.77918 0.26322 0.25818
 O1496 O 0.76282 0.24661 0.27658
 Zr1497 Zr 0.76293 0.24142 0.22042
 O1498 O 0.74610 0.22329 0.23683
 Zr1499 Zr 0.74136 0.27938 0.23647
 O1500 O 0.72299 0.26323 0.25336
 O1501 O 0.73150 0.23197 0.26808
 O1502 O 0.76774 0.26792 0.23171
 C1503 C 0.72408 0.19451 0.25433
 C1504 C 0.74561 0.22449 0.30539
 C1505 C 0.69416 0.24594 0.27540
 C1506 C 0.77659 0.30440 0.24452
 C1507 C 0.80412 0.25573 0.22312
 C1508 C 0.75507 0.27607 0.19508
 H1509 H 0.78771 0.22995 0.24485
 H1510 H 0.72961 0.25469 0.21166
 H1511 H 0.72345 0.22402 0.27612
 H1512 H 0.75483 0.28812 0.26978
 H1513 H 0.78534 0.27017 0.29314
 H1514 H 0.75596 0.27883 0.30145
 H1515 H 0.74095 0.23239 0.19278
 H1516 H 0.72052 0.21429 0.21300
 H1517 H 0.81304 0.25811 0.27094
 H1518 H 0.78267 0.20368 0.28537
 H1519 H 0.71288 0.28118 0.21396
 H1520 H 0.69468 0.25966 0.23116
 H1521 H 0.77152 0.18631 0.26154
 H1522 H 0.77415 0.20720 0.21896
 H1523 H 0.71359 0.28687 0.27818
 H1524 H 0.73268 0.30723 0.25827
 O1525 O 0.75413 0.71434 0.70763
 O1526 O 0.78376 0.71116 0.72225
 O1527 O 0.71548 0.70861 0.75339
 O1528 O 0.70945 0.72287 0.78058
 O1529 O 0.70934 0.75412 0.71365
 O1530 O 0.72494 0.78328 0.70958
 O1531 O 0.76380 0.75939 0.80225
 O1532 O 0.75295 0.72904 0.80288
 O1533 O 0.80396 0.76235 0.75904
 O1534 O 0.80522 0.75267 0.72823
 O1535 O 0.76148 0.80294 0.76144
 O1536 O 0.72873 0.80404 0.75357
 O1537 O 0.74937 0.78555 0.79115
 O1538 O 0.71817 0.78991 0.77525
 O1539 O 0.78719 0.79176 0.74643
 O1540 O 0.79040 0.77536 0.71542
 O1541 O 0.79267 0.74816 0.78521
 O1542 O 0.77878 0.71645 0.78547
 O1543 O 0.73991 0.74058 0.69643
 O1544 O 0.74896 0.77317 0.69640
 O1545 O 0.69812 0.73938 0.73954
 O1546 O 0.69901 0.74967 0.77264
 O1547 O 0.74066 0.69740 0.73740
 O1548 O 0.77287 0.69848 0.75077
 Zr1549 Zr 0.75907 0.72043 0.73607
 O1550 O 0.77716 0.73685 0.75262
 Zr1551 Zr 0.72135 0.73725 0.75757
 O1552 O 0.73799 0.75375 0.77549
 Zr1553 Zr 0.73786 0.75861 0.71972
 O1554 O 0.75481 0.77647 0.73599
 Zr1555 Zr 0.76464 0.74177 0.77874
 O1556 O 0.74708 0.72385 0.76284
 Zr1557 Zr 0.78076 0.76352 0.74089
 O1558 O 0.76450 0.74637 0.72291
 Zr1559 Zr 0.74315 0.77983 0.76282
 O1560 O 0.72478 0.76401 0.74559
 O1561 O 0.73291 0.73242 0.73138
 O1562 O 0.76954 0.76830 0.76742
 C1563 C 0.74685 0.72406 0.69432
 C1564 C 0.72456 0.69533 0.74523
 C1565 C 0.69600 0.74663 0.72319
 C1566 C 0.75711 0.77599 0.80435
 C1567 C 0.80593 0.75581 0.77572
 C1568 C 0.77791 0.80500 0.75434
 H1569 H 0.78933 0.73032 0.75394
 H1570 H 0.75619 0.78858 0.72940
 H1571 H 0.72480 0.72450 0.72338
 H1572 H 0.73161 0.75503 0.78772
 H1573 H 0.74718 0.71712 0.79869
 H1574 H 0.71742 0.72564 0.79156
 H1575 H 0.78265 0.78651 0.71267
 H1576 H 0.76149 0.76776 0.69393
 H1577 H 0.78475 0.71802 0.79792
 H1578 H 0.77085 0.68644 0.74412
 H1579 H 0.73316 0.80689 0.74075
 H1580 H 0.71668 0.78785 0.71975
 H1581 H 0.78152 0.69848 0.71697
 H1582 H 0.80121 0.74156 0.72097
 H1583 H 0.69589 0.76154 0.76617
 H1584 H 0.71531 0.78189 0.78620
 O1585 O 0.28586 0.20876 0.74576
 O1586 O 0.28861 0.22329 0.71598
 O1587 O 0.29191 0.25469 0.78413
 O1588 O 0.27763 0.28178 0.79043
 O1589 O 0.24646 0.21475 0.79081
 O1590 O 0.21719 0.21062 0.77551
 O1591 O 0.24054 0.30338 0.73633
 O1592 O 0.27096 0.30413 0.74691
 O1593 O 0.23748 0.26004 0.69624
 O1594 O 0.24686 0.22921 0.69495
 O1595 O 0.19719 0.26256 0.73923
 O1596 O 0.19645 0.25455 0.77202
 O1597 O 0.21462 0.29221 0.75116
 O1598 O 0.21061 0.27633 0.78238
 O1599 O 0.20812 0.24762 0.71336
 O1600 O 0.22442 0.21645 0.71008
 O1601 O 0.25172 0.28629 0.70734
 O1602 O 0.28344 0.28668 0.72105
 O1603 O 0.25975 0.19754 0.76023
 O1604 O 0.22712 0.19743 0.75138
 O1605 O 0.26133 0.24065 0.80188
 O1606 O 0.25098 0.27379 0.80107
 O1607 O 0.30288 0.23869 0.75885
 O1608 O 0.30144 0.25187 0.72662
 Zr1609 Zr 0.27965 0.23720 0.74074
 O1610 O 0.26306 0.25374 0.72283
 Zr1611 Zr 0.26321 0.25873 0.77862
 O1612 O 0.24654 0.27664 0.76215
 Zr1613 Zr 0.24172 0.22080 0.76235
 O1614 O 0.22369 0.23705 0.74560
 Zr1615 Zr 0.25824 0.27990 0.73536
 O1616 O 0.27632 0.26401 0.75274
 Zr1617 Zr 0.23638 0.24197 0.71951
 O1618 O 0.25369 0.22400 0.73559
 Zr1619 Zr 0.22045 0.26389 0.75730
 O1620 O 0.23645 0.24669 0.77549
 O1621 O 0.26793 0.23252 0.76702
 O1622 O 0.23169 0.26851 0.73077
 C1623 C 0.27622 0.19543 0.75319
 C1624 C 0.30511 0.24658 0.77489
 C1625 C 0.25408 0.22429 0.80406
 C1626 C 0.22402 0.30543 0.74324
 C1627 C 0.24405 0.27670 0.69415
 C1628 C 0.19499 0.25554 0.72279
 H1629 H 0.26948 0.25504 0.71060
 H1630 H 0.21157 0.23045 0.74435
 H1631 H 0.27595 0.22455 0.77507
 H1632 H 0.24532 0.28888 0.76853
 H1633 H 0.28292 0.29999 0.75260
 H1634 H 0.27487 0.29274 0.78243
 H1635 H 0.21326 0.21379 0.71786
 H1636 H 0.23244 0.19497 0.73881
 H1637 H 0.28182 0.29913 0.71507
 H1638 H 0.31348 0.24520 0.72847
 H1639 H 0.19345 0.24179 0.76748
 H1640 H 0.21268 0.22080 0.78379
 H1641 H 0.30129 0.21800 0.71808
 H1642 H 0.25811 0.22209 0.69879
 H1643 H 0.23919 0.26725 0.80436
 H1644 H 0.21867 0.28727 0.78516
 O1645 O 0.20750 0.74726 0.28620
 O1646 O 0.22200 0.71748 0.28915
 O1647 O 0.25330 0.78576 0.29208
 O1648 O 0.28051 0.79185 0.27786
 O1649 O 0.21365 0.79217 0.24646
 O1650 O 0.20946 0.77665 0.21739
 O1651 O 0.30213 0.73766 0.24107
 O1652 O 0.30278 0.74825 0.27146
 O1653 O 0.25874 0.69748 0.23800
 O1654 O 0.22796 0.69622 0.24757
 O1655 O 0.26143 0.74018 0.19764
 O1656 O 0.25341 0.77308 0.19671
 O1657 O 0.29106 0.75233 0.21504
 O1658 O 0.27522 0.78345 0.21074
 O1659 O 0.24633 0.71442 0.20870
 O1660 O 0.21519 0.71126 0.22501
 O1661 O 0.28498 0.70863 0.25217
 O1662 O 0.28529 0.72240 0.28392
 O1663 O 0.19634 0.76165 0.26003
 O1664 O 0.19629 0.75257 0.22744
 O1665 O 0.23951 0.80334 0.26129
 O1666 O 0.27264 0.80244 0.25115
 O1667 O 0.23732 0.76048 0.30316
 O1668 O 0.25055 0.72824 0.30192
 Zr1669 Zr 0.23591 0.74222 0.28004
 O1670 O 0.25244 0.72419 0.26356
 Zr1671 Zr 0.25749 0.78004 0.26343
 O1672 O 0.27539 0.76345 0.24686
 Zr1673 Zr 0.21962 0.76364 0.24198
 O1674 O 0.23587 0.74678 0.22406
 Zr1675 Zr 0.27860 0.73669 0.25869
 O1676 O 0.26272 0.75420 0.27667
 Zr1677 Zr 0.24070 0.72075 0.23690
 O1678 O 0.22275 0.73693 0.25411
 Zr1679 Zr 0.26273 0.75845 0.22078
 O1680 O 0.24552 0.77675 0.23667
 O1681 O 0.23128 0.76847 0.26818
 O1682 O 0.26726 0.73196 0.23217
 C1683 C 0.19421 0.75467 0.27653
 C1684 C 0.24516 0.77657 0.30532
 C1685 C 0.22319 0.80549 0.25396
 C1686 C 0.30425 0.74451 0.22453
 C1687 C 0.27540 0.69542 0.24451
 C1688 C 0.25435 0.72373 0.19553
 H1689 H 0.25372 0.71197 0.27003
 H1690 H 0.22930 0.74546 0.21194
 H1691 H 0.22331 0.77659 0.27612
 H1692 H 0.28763 0.76984 0.24562
 H1693 H 0.29861 0.75400 0.28339
 H1694 H 0.29146 0.78383 0.27513
 H1695 H 0.21255 0.71900 0.21382
 H1696 H 0.19375 0.74005 0.23289
 H1697 H 0.29772 0.71638 0.28231
 H1698 H 0.24387 0.73016 0.31394
 H1699 H 0.24075 0.76837 0.19361
 H1700 H 0.21970 0.78479 0.21273
 H1701 H 0.21670 0.71966 0.30181
 H1702 H 0.22072 0.70016 0.25871
 H1703 H 0.26622 0.80562 0.23927
 H1704 H 0.28605 0.78638 0.21888
 O1705 O 0.24073 0.69652 0.76272
 O1706 O 0.27250 0.69644 0.75334
 O1707 O 0.23910 0.74057 0.80411
 O1708 O 0.24481 0.77122 0.80558
 O1709 O 0.19701 0.73828 0.75987
 O1710 O 0.19728 0.74648 0.72773
 O1711 O 0.28663 0.79100 0.75410
 O1712 O 0.28849 0.77782 0.78364
 O1713 O 0.29192 0.74719 0.71529
 O1714 O 0.27879 0.71764 0.71197
 O1715 O 0.24808 0.78543 0.70941
 O1716 O 0.21780 0.79016 0.72466
 O1717 O 0.26088 0.80200 0.73891
 O1718 O 0.22706 0.80258 0.74794
 O1719 O 0.26278 0.75945 0.69841
 O1720 O 0.25295 0.72561 0.69873
 O1721 O 0.30268 0.76258 0.74099
 O1722 O 0.30254 0.74918 0.77287
 O1723 O 0.21509 0.70755 0.74734
 O1724 O 0.21136 0.72306 0.71762
 O1725 O 0.20787 0.75300 0.78591
 O1726 O 0.22389 0.78365 0.78860
 O1727 O 0.25274 0.71399 0.79303
 O1728 O 0.28436 0.71441 0.77835
 Zr1729 Zr 0.25845 0.72008 0.76477
 O1730 O 0.27623 0.73623 0.74760
 Zr1731 Zr 0.23641 0.75801 0.78043
 O1732 O 0.25378 0.77571 0.76442
 Zr1733 Zr 0.22076 0.73612 0.74252
 O1734 O 0.23703 0.75318 0.72475
 Zr1735 Zr 0.27977 0.76289 0.75951
 O1736 O 0.26328 0.74621 0.77773
 Zr1737 Zr 0.26373 0.74126 0.72156
 O1738 O 0.24678 0.72309 0.73778
 Zr1739 Zr 0.24211 0.77919 0.73762
 O1740 O 0.22362 0.76300 0.75434
 O1741 O 0.23200 0.73166 0.76897
 O1742 O 0.26850 0.76770 0.73299
 C1743 C 0.22456 0.69428 0.75506
 C1744 C 0.24580 0.72397 0.80633
 C1745 C 0.19465 0.74561 0.77615
 C1746 C 0.27736 0.80410 0.74591
 C1747 C 0.30490 0.75559 0.72455
 C1748 C 0.25606 0.77601 0.69629
 H1749 H 0.28836 0.72967 0.74609
 H1750 H 0.23048 0.75460 0.71263
 H1751 H 0.22389 0.72369 0.77693
 H1752 H 0.25540 0.78778 0.77104
 H1753 H 0.28571 0.76968 0.79454
 H1754 H 0.25629 0.77842 0.80266
 H1755 H 0.24191 0.73234 0.69376
 H1756 H 0.22132 0.71422 0.71376
 H1757 H 0.31355 0.75769 0.77245
 H1758 H 0.28300 0.70320 0.78646
 H1759 H 0.21377 0.78112 0.71495
 H1760 H 0.19542 0.75957 0.73199
 H1761 H 0.27197 0.68596 0.76247
 H1762 H 0.27490 0.70703 0.72001
 H1763 H 0.21412 0.78655 0.77918
 H1764 H 0.23338 0.80698 0.75947
 O1765 O 0.20845 0.25303 0.21243
 O1766 O 0.22300 0.28285 0.20994
 O1767 O 0.25428 0.21467 0.20590
 O1768 O 0.28138 0.20820 0.22003
 O1769 O 0.21454 0.20755 0.25141
 O1770 O 0.21049 0.22260 0.28078
 O1771 O 0.30316 0.26204 0.25759
 O1772 O 0.30381 0.25173 0.22706
 O1773 O 0.25990 0.30209 0.26118
 O1774 O 0.22908 0.30349 0.25187
 O1775 O 0.26255 0.25867 0.30099
 O1776 O 0.25452 0.22587 0.30145
 O1777 O 0.29209 0.24692 0.28338
 O1778 O 0.27620 0.21560 0.28709
 O1779 O 0.24761 0.28466 0.29036
 O1780 O 0.21639 0.28812 0.27420
 O1781 O 0.28607 0.29115 0.24674
 O1782 O 0.28634 0.27773 0.21488
 O1783 O 0.19731 0.23829 0.23841
 O1784 O 0.19734 0.24684 0.27113
 O1785 O 0.24036 0.19660 0.23637
 O1786 O 0.27354 0.19734 0.24659
 O1787 O 0.23829 0.24009 0.19521
 O1788 O 0.25150 0.27231 0.19692
 Zr1789 Zr 0.23690 0.25798 0.21861
 O1790 O 0.25350 0.27574 0.23533
 Zr1791 Zr 0.25843 0.21990 0.23463
 O1792 O 0.27641 0.23623 0.25139
 Zr1793 Zr 0.22062 0.23599 0.25637
 O1794 O 0.23695 0.25256 0.27451
 Zr1795 Zr 0.27965 0.26316 0.23996
 O1796 O 0.26369 0.24594 0.22176
 Zr1797 Zr 0.24183 0.27879 0.26207
 O1798 O 0.22380 0.26289 0.24465
 Zr1799 Zr 0.26377 0.24082 0.27755
 O1800 O 0.24649 0.22278 0.26144
 O1801 O 0.23223 0.23156 0.23009
 O1802 O 0.26836 0.26748 0.26657
 C1803 C 0.19516 0.24550 0.22203
 C1804 C 0.24615 0.22405 0.19281
 C1805 C 0.22404 0.19435 0.24366
 C1806 C 0.30527 0.25497 0.27404
 C1807 C 0.27653 0.30426 0.25458
 C1808 C 0.25558 0.27510 0.30337
 H1809 H 0.25479 0.28805 0.22903
 H1810 H 0.23040 0.25370 0.28666
 H1811 H 0.22424 0.22358 0.22202
 H1812 H 0.28864 0.22983 0.25252
 H1813 H 0.29963 0.24615 0.21506
 H1814 H 0.29234 0.21622 0.22276
 H1815 H 0.21378 0.28023 0.28530
 H1816 H 0.19486 0.25947 0.26593
 H1817 H 0.29880 0.28370 0.21652
 H1818 H 0.24478 0.27059 0.18488
 H1819 H 0.24178 0.23037 0.30452
 H1820 H 0.22068 0.21429 0.28523
 H1821 H 0.21766 0.28088 0.19725
 H1822 H 0.22190 0.29975 0.24061
 H1823 H 0.26704 0.19391 0.25837
 H1824 H 0.28715 0.21294 0.27902
 O1825 O 0.74728 0.71482 0.29122
 O1826 O 0.71741 0.71201 0.27690
 O1827 O 0.78540 0.70892 0.24518
 O1828 O 0.79123 0.72316 0.21789
 O1829 O 0.79233 0.75438 0.28486
 O1830 O 0.77703 0.78356 0.28924
 O1831 O 0.73717 0.76033 0.19682
 O1832 O 0.74758 0.72987 0.19600
 O1833 O 0.69738 0.76340 0.24054
 O1834 O 0.69634 0.75373 0.27129
 O1835 O 0.74021 0.80366 0.23765
 O1836 O 0.77317 0.80441 0.24543
 O1837 O 0.75205 0.78628 0.20787
 O1838 O 0.78328 0.79042 0.22349
 O1839 O 0.71455 0.79263 0.25291
 O1840 O 0.71158 0.77622 0.28401
 O1841 O 0.70824 0.74929 0.21416
 O1842 O 0.72183 0.71746 0.21362
 O1843 O 0.76190 0.74090 0.30235
 O1844 O 0.75303 0.77356 0.30259
 O1845 O 0.80320 0.73958 0.25886
 O1846 O 0.80208 0.74985 0.22579
 O1847 O 0.76021 0.69789 0.26130
 O1848 O 0.72790 0.69928 0.24824
 Zr1849 Zr 0.74206 0.72108 0.26287
 O1850 O 0.72399 0.73771 0.24653
 Zr1851 Zr 0.77976 0.73762 0.24106
 O1852 O 0.76311 0.75434 0.22335
 Zr1853 Zr 0.76380 0.75903 0.27912
 O1854 O 0.74690 0.77710 0.26307
 Zr1855 Zr 0.73630 0.74262 0.22030
 O1856 O 0.75383 0.72449 0.23598
 Zr1857 Zr 0.72079 0.76436 0.25839
 O1858 O 0.73702 0.74701 0.27616
 Zr1859 Zr 0.75835 0.78043 0.23614
 O1860 O 0.77671 0.76438 0.25314
 O1861 O 0.76839 0.73284 0.26734
 O1862 O 0.73179 0.76914 0.23177
 C1863 C 0.75485 0.72442 0.30448
 C1864 C 0.77624 0.69569 0.25338
 C1865 C 0.80552 0.74683 0.27519
 C1866 C 0.74410 0.77685 0.19470
 C1867 C 0.69515 0.75696 0.22387
 C1868 C 0.72385 0.80580 0.24487
 H1869 H 0.71175 0.73128 0.24532
 H1870 H 0.74570 0.78920 0.26969
 H1871 H 0.77652 0.72483 0.27523
 H1872 H 0.76941 0.75559 0.21107
 H1873 H 0.75330 0.71790 0.20008
 H1874 H 0.78321 0.72608 0.20699
 H1875 H 0.71939 0.78738 0.28663
 H1876 H 0.74050 0.76818 0.30519
 H1877 H 0.71571 0.71914 0.20125
 H1878 H 0.72982 0.68722 0.25487
 H1879 H 0.76859 0.80749 0.25814
 H1880 H 0.78512 0.78820 0.27896
 H1881 H 0.71957 0.69930 0.28215
 H1882 H 0.70029 0.74254 0.27846
 H1883 H 0.80536 0.76171 0.23221
 H1884 H 0.78609 0.78228 0.21264
 O1885 O 0.70893 0.24719 0.78641
 O1886 O 0.72333 0.21734 0.78910
 O1887 O 0.75490 0.28546 0.79261
 O1888 O 0.78219 0.29145 0.77846
 O1889 O 0.71529 0.29248 0.74713
 O1890 O 0.71099 0.27728 0.71790
 O1891 O 0.80347 0.23759 0.74107
 O1892 O 0.80421 0.24788 0.77156
 O1893 O 0.75985 0.19765 0.73769
 O1894 O 0.72909 0.19646 0.74730
 O1895 O 0.76271 0.24071 0.69772
 O1896 O 0.75484 0.27369 0.69715
 O1897 O 0.79243 0.25255 0.71519
 O1898 O 0.77676 0.28377 0.71119
 O1899 O 0.74749 0.21493 0.70857
 O1900 O 0.71636 0.21177 0.72490
 O1901 O 0.78618 0.20854 0.75190
 O1902 O 0.78663 0.22198 0.78378
 O1903 O 0.69783 0.26191 0.76041
 O1904 O 0.69768 0.25318 0.72773
 O1905 O 0.74124 0.30337 0.76202
 O1906 O 0.77433 0.30241 0.75184
 O1907 O 0.73880 0.26016 0.80347
 O1908 O 0.75194 0.22787 0.80192
 Zr1909 Zr 0.73732 0.24210 0.78019
 O1910 O 0.75374 0.22415 0.76351
 Zr1911 Zr 0.75908 0.27996 0.76391
 O1912 O 0.77687 0.26344 0.74715
 Zr1913 Zr 0.72110 0.26397 0.74236
 O1914 O 0.73723 0.24720 0.72424
 Zr1915 Zr 0.77996 0.23656 0.75871
 O1916 O 0.76419 0.25397 0.77690
 Zr1917 Zr 0.74194 0.22102 0.73684
 O1918 O 0.72410 0.23713 0.75423
 Zr1919 Zr 0.76414 0.25876 0.72103
 O1920 O 0.74706 0.27699 0.73714
 O1921 O 0.73281 0.26848 0.76858
 O1922 O 0.76855 0.23214 0.73217
 C1923 C 0.69567 0.25476 0.77682
 C1924 C 0.74670 0.27621 0.80576
 C1925 C 0.72492 0.30568 0.75474
 C1926 C 0.80560 0.24459 0.72459
 C1927 C 0.77652 0.19545 0.74415
 C1928 C 0.75553 0.22432 0.69547
 H1929 H 0.75497 0.21187 0.76986
 H1930 H 0.73063 0.24603 0.71213
 H1931 H 0.72488 0.27656 0.77660
 H1932 H 0.78914 0.26978 0.74595
 H1933 H 0.80008 0.25352 0.78355
 H1934 H 0.79312 0.28347 0.77552
 H1935 H 0.71374 0.21963 0.71378
 H1936 H 0.69510 0.24062 0.73304
 H1937 H 0.79902 0.21592 0.78210
 H1938 H 0.74529 0.22972 0.81397
 H1939 H 0.74217 0.26904 0.69399
 H1940 H 0.72126 0.28542 0.71331
 H1941 H 0.71806 0.21943 0.80180
 H1942 H 0.72189 0.20034 0.75850
 H1943 H 0.76794 0.30571 0.73998
 H1944 H 0.78759 0.28659 0.71938
 C1945 C 0.03202 1.01748 1.10806
 C1946 C 0.04988 1.00996 1.11102
 C1947 C 0.05986 1.00233 1.09597
 C1948 C 0.05192 1.00192 1.07808
 C1949 C 0.08045 1.00588 1.17793
 C1950 C 0.02404 1.01711 1.09017
 C1951 C 0.05781 1.00953 1.12956
 C1952 C 0.06465 1.00874 1.14498
 C1953 C 0.07298 1.00738 1.16286
 C1954 C 0.03382 1.00915 1.07498
 H1955 H 0.02417 1.02342 1.11962
 H1956 H 0.07370 0.99647 1.09811
 H1957 H 0.05988 0.99573 1.06674
 H1958 H 0.01010 1.02280 1.08831
 C1959 C 0.55818 0.49917 0.59936
 C1960 C 0.54861 0.50764 0.61422
 C1961 C 0.53118 0.51603 0.61107
 C1962 C 0.52327 0.51584 0.59314
 C1963 C 0.57961 0.50493 0.68100
 C1964 C 0.55031 0.49894 0.58142
 C1965 C 0.55660 0.50741 0.63273
 C1966 C 0.56352 0.50693 0.64812
 C1967 C 0.57199 0.50602 0.66597
 C1968 C 0.53270 0.50719 0.57810
 H1969 H 0.57168 0.49262 0.60165
 H1970 H 0.52365 0.52263 0.62248
 H1971 H 0.50971 0.52233 0.59112
 H1972 H 0.55798 0.49218 0.57021
 C1973 C 0.46951 -0.00995 0.60537
 C1974 C 0.45207 -0.00158 0.60851
 C1975 C 0.44246 0.00678 0.59361
 C1976 C 0.45027 0.00688 0.57565
 C1977 C 0.42038 -0.00102 0.67503
 C1978 C 0.47737 -0.00988 0.58743
 C1979 C 0.44399 -0.00155 0.62699
 C1980 C 0.43696 -0.00144 0.64234
 C1981 C 0.42829 -0.00124 0.66011
 C1982 C 0.46787 -0.00140 0.57234
 H1983 H 0.47706 -0.01650 0.61681
 H1984 H 0.42892 0.01328 0.59589
 H1985 H 0.44256 0.01353 0.56440
 H1986 H 0.49093 -0.01639 0.58542
 C1987 C -0.03211 0.48659 1.10490
 C1988 C -0.04974 0.49455 1.10802
 C1989 C -0.05961 0.50255 1.09309
 C1990 C -0.05179 0.50284 1.07513
 C1991 C -0.08061 0.49683 1.17489
 C1992 C -0.02424 0.48686 1.08695
 C1993 C -0.05763 0.49485 1.12658
 C1994 C -0.06447 0.49532 1.14202
 C1995 C -0.07290 0.49608 1.15989
 C1996 C -0.03392 0.49514 1.07187
 H1997 H -0.02436 0.48035 1.11636
 H1998 H -0.07329 0.50873 1.09535
 H1999 H -0.05965 0.50930 1.06388
 H2000 H -0.01048 0.48079 1.08498
 C2001 C -0.06379 0.49733 0.40270
 C2002 C -0.05380 0.50580 0.38809
 C2003 C -0.03614 0.51357 0.39157
 C2004 C -0.02836 0.51266 0.40953
 C2005 C -0.08309 0.50438 0.32046
 C2006 C -0.05606 0.49640 0.42068
 C2007 C -0.06150 0.50604 0.36944
 C2008 C -0.06805 0.50589 0.35387
 C2009 C -0.07598 0.50528 0.33576
 C2010 C -0.03816 0.50391 0.42429
 H2011 H -0.07748 0.49127 0.40015
 H2012 H -0.02828 0.52015 0.38037
 H2013 H -0.01458 0.51862 0.41178
 H2014 H -0.06401 0.48959 0.43167
 C2015 C 0.43612 0.99913 -0.09625
 C2016 C 0.44618 1.00749 -0.11088
 C2017 C 0.46384 1.01526 -0.10739
 C2018 C 0.47155 1.01445 -0.08939
 C2019 C 0.41729 1.00543 -0.17865
 C2020 C 0.44379 0.99829 -0.07825
 C2021 C 0.43857 1.00757 -0.12956
 C2022 C 0.43211 1.00727 -0.14516
 C2023 C 0.42430 1.00648 -0.16331
 C2024 C 0.46169 1.00579 -0.07463
 H2025 H 0.42244 0.99306 -0.09881
 H2026 H 0.47175 1.02175 -0.11861
 H2027 H 0.48534 1.02039 -0.08714
 H2028 H 0.43579 0.99156 -0.06724
 C2029 C 0.53430 0.48312 -0.10322
 C2030 C 0.55194 0.49114 -0.10622
 C2031 C 0.56191 0.49872 -0.09114
 C2032 C 0.55419 0.49854 -0.07315
 C2033 C 0.58222 0.49527 -0.17326
 C2034 C 0.52653 0.48291 -0.08523
 C2035 C 0.55972 0.49193 -0.12481
 C2036 C 0.56646 0.49284 -0.14026
 C2037 C 0.57472 0.49410 -0.15818
 C2038 C 0.53632 0.49077 -0.06999
 H2039 H 0.52647 0.47719 -0.11480
 H2040 H 0.57560 0.50495 -0.09332
 H2041 H 0.56214 0.50469 -0.06177
 H2042 H 0.51276 0.47680 -0.08333
 C2043 C 0.03338 -0.01516 0.39389
 C2044 C 0.05106 -0.00728 0.39075
 C2045 C 0.06123 0.00019 0.40576
 C2046 C 0.05370 -0.00006 0.42384
 C2047 C 0.08153 -0.00446 0.32372
 C2048 C 0.02581 -0.01544 0.41196
 C2049 C 0.05880 -0.00673 0.37213
 C2050 C 0.06556 -0.00611 0.35667
 C2051 C 0.07392 -0.00525 0.33877
 C2052 C 0.03585 -0.00781 0.42716
 H2053 H 0.02540 -0.02101 0.38236
 H2054 H 0.07495 0.00631 0.40348
 H2055 H 0.06184 0.00593 0.43517
 H2056 H 0.01204 -0.02151 0.41398
 C2057 C 0.09239 1.06280 1.00017
 C2058 C 0.10732 1.05297 1.00822
 C2059 C 0.10414 1.03547 1.01650
 C2060 C 0.08615 1.02769 1.01649
 C2061 C 0.17451 1.08304 1.00455
 C2062 C 0.07439 1.05506 1.00012
 C2063 C 0.12593 1.06071 1.00759
 C2064 C 0.14143 1.06739 1.00680
 C2065 C 0.15939 1.07559 1.00565
 C2066 C 0.07107 1.03732 1.00813
 H2067 H 0.09471 1.07637 0.99373
 H2068 H 0.11560 1.02775 1.02279
 H2069 H 0.08412 1.01403 1.02279
 H2070 H 0.06315 1.06288 0.99359
 C2071 C 0.59343 0.56128 0.49909
 C2072 C 0.60845 0.55130 0.50677
 C2073 C 0.60532 0.53377 0.51502
 C2074 C 0.58726 0.52617 0.51545
 C2075 C 0.67551 0.58170 0.50338
 C2076 C 0.57536 0.55372 0.49949
 C2077 C 0.62706 0.55905 0.50606
 C2078 C 0.64252 0.56580 0.50531
 C2079 C 0.66043 0.57413 0.50430
 C2080 C 0.57205 0.53602 0.50761
 H2081 H 0.59570 0.57487 0.49269
 H2082 H 0.61685 0.52594 0.52102
 H2083 H 0.58525 0.51252 0.52180
 H2084 H 0.56402 0.56170 0.49333
 C2085 C 0.59644 0.43546 0.00328
 C2086 C 0.61117 0.44563 -0.00477
 C2087 C 0.60777 0.46340 -0.01232
 C2088 C 0.58977 0.47110 -0.01163
 C2089 C 0.67891 0.41662 -0.00293
 C2090 C 0.57842 0.44312 0.00400
 C2091 C 0.62984 0.43799 -0.00484
 C2092 C 0.64544 0.43149 -0.00457
 C2093 C 0.66358 0.42365 -0.00387
 C2094 C 0.57489 0.46111 -0.00332
 H2095 H 0.59892 0.42168 0.00917
 H2096 H 0.61907 0.47140 -0.01858
 H2097 H 0.58759 0.48496 -0.01742
 H2098 H 0.56733 0.43501 0.01046
 C2099 C 0.09781 -0.06301 0.50393
 C2100 C 0.11249 -0.05319 0.49538
 C2101 C 0.10903 -0.03578 0.48703
 C2102 C 0.09099 -0.02815 0.48733
 C2103 C 0.18003 -0.08260 0.49724
 C2104 C 0.07975 -0.05541 0.50426
 C2105 C 0.13113 -0.06087 0.49545
 C2106 C 0.14668 -0.06746 0.49575
 C2107 C 0.16476 -0.07544 0.49641
 C2108 C 0.07613 -0.03784 0.49604
 H2109 H 0.10034 -0.07650 0.51044
 H2110 H 0.12029 -0.02806 0.48038
 H2111 H 0.08874 -0.01460 0.48086
 H2112 H 0.06869 -0.06327 0.51106
 C2113 C 0.40749 -0.05772 0.49517
 C2114 C 0.39245 -0.04785 0.50298
 C2115 C 0.39544 -0.03010 0.51077
 C2116 C 0.41337 -0.02218 0.51067
 C2117 C 0.32607 -0.07990 0.50225
 C2118 C 0.42543 -0.04985 0.49504
 C2119 C 0.37400 -0.05600 0.50294
 C2120 C 0.35868 -0.06312 0.50280
 C2121 C 0.34095 -0.07191 0.50253
 C2122 C 0.42859 -0.03194 0.50275
 H2123 H 0.40533 -0.07149 0.48912
 H2124 H 0.38390 -0.02235 0.51687
 H2125 H 0.41527 -0.00838 0.51672
 H2126 H 0.43679 -0.05777 0.48883
 C2127 C -0.09291 0.44074 0.99802
 C2128 C -0.10792 0.45070 1.00576
 C2129 C -0.10490 0.46852 1.01339
 C2130 C -0.08697 0.47646 1.01308
 C2131 C -0.17461 0.41927 1.00422
 C2132 C -0.07498 0.44863 0.99770
 C2133 C -0.12644 0.44268 1.00563
 C2134 C -0.14183 0.43570 1.00531
 C2135 C -0.15964 0.42711 1.00477
 C2136 C -0.07180 0.46666 1.00511
 H2137 H -0.09510 0.42692 0.99210
 H2138 H -0.11642 0.47635 1.01943
 H2139 H -0.08506 0.49034 1.01893
 H2140 H -0.06366 0.44068 0.99146
 C2141 C -0.10967 0.52990 0.48192
 C2142 C -0.11252 0.54786 0.48926
 C2143 C -0.09743 0.55781 0.49688
 C2144 C -0.07959 0.54975 0.49740
 C2145 C -0.17903 0.57932 0.49275
 C2146 C -0.09183 0.52180 0.48241
 C2147 C -0.13098 0.55597 0.48952
 C2148 C -0.14632 0.56300 0.49016
 C2149 C -0.16408 0.57159 0.49136
 C2150 C -0.07659 0.53157 0.49032
 H2151 H -0.12126 0.52207 0.47600
 H2152 H -0.09948 0.57173 0.50261
 H2153 H -0.06822 0.55771 0.50356
 H2154 H -0.09005 0.50779 0.47682
 C2155 C 0.39014 1.03184 -0.01737
 C2156 C 0.38716 1.04971 -0.00986
 C2157 C 0.40216 1.05963 -0.00201
 C2158 C 0.42002 1.05163 -0.00143
 C2159 C 0.32037 1.08063 -0.00671
 C2160 C 0.40800 1.02380 -0.01682
 C2161 C 0.36866 1.05772 -0.00968
 C2162 C 0.35326 1.06463 -0.00912
 C2163 C 0.33541 1.07305 -0.00802
 C2164 C 0.42314 1.03353 -0.00868
 H2165 H 0.37862 1.02404 -0.02347
 H2166 H 0.40000 1.07348 0.00386
 H2167 H 0.43132 1.05954 0.00491
 H2168 H 0.40987 1.00986 -0.02255
 C2169 C 0.01374 1.10889 1.03379
 C2170 C 0.00620 1.11229 1.05156
 C2171 C -0.00177 1.09753 1.06175
 C2172 C -0.00243 1.07948 1.05412
 C2173 C 0.00404 1.17992 1.08092
 C2174 C 0.01311 1.09086 1.02612
 C2175 C 0.00620 1.13097 1.05921
 C2176 C 0.00586 1.14655 1.06576
 C2177 C 0.00507 1.16465 1.07374
 C2178 C 0.00488 1.07594 1.03614
 H2179 H 0.01993 1.12022 1.02578
 H2180 H -0.00766 1.10000 1.07552
 H2181 H -0.00884 1.06836 1.06224
 H2182 H 0.01889 1.08867 1.01226
 C2183 C 0.49657 0.59777 0.56371
 C2184 C 0.50439 0.61256 0.55345
 C2185 C 0.51181 0.60920 0.53562
 C2186 C 0.51131 0.59115 0.52801
 C2187 C 0.50327 0.68014 0.58295
 C2188 C 0.49604 0.57970 0.55613
 C2189 C 0.50454 0.63122 0.56114
 C2190 C 0.50441 0.64678 0.56774
 C2191 C 0.50396 0.66486 0.57575
 C2192 C 0.50334 0.57617 0.53814
 H2193 H 0.49078 0.60023 0.57752
 H2194 H 0.51789 0.62056 0.52756
 H2195 H 0.51706 0.58897 0.51414
 H2196 H 0.48982 0.56854 0.56434
 C2197 C -0.01676 0.60245 0.46409
 C2198 C -0.00873 0.60555 0.44648
 C2199 C -0.00090 0.59055 0.43657
 C2200 C -0.00086 0.57255 0.44432
 C2201 C -0.00574 0.67282 0.41641
 C2202 C -0.01675 0.58447 0.47189
 C2203 C -0.00822 0.62416 0.43868
 C2204 C -0.00758 0.63966 0.43197
 C2205 C -0.00664 0.65765 0.42380
 C2206 C -0.00865 0.56931 0.46216
 H2207 H -0.02288 0.61397 0.47187
 H2208 H 0.00533 0.59280 0.42290
 H2209 H 0.00547 0.56124 0.43642
 H2210 H -0.02288 0.58250 0.48563
 C2211 C 0.49910 1.09241 -0.06234
 C2212 C 0.49139 1.10747 -0.05242
 C2213 C 0.48339 1.10444 -0.03479
 C2214 C 0.48330 1.08645 -0.02697
 C2215 C 0.49492 1.17460 -0.08275
 C2216 C 0.49905 1.07442 -0.05457
 C2217 C 0.49203 1.12606 -0.06025
 C2218 C 0.49279 1.14153 -0.06700
 C2219 C 0.49388 1.15948 -0.07526
 C2220 C 0.49128 1.07124 -0.03671
 H2221 H 0.50532 1.09461 -0.07602
 H2222 H 0.47737 1.11600 -0.02700
 H2223 H 0.47720 1.08454 -0.01321
 H2224 H 0.50528 1.06306 -0.06248
 C2225 C 0.50267 0.40221 -0.05868
 C2226 C 0.51059 0.38718 -0.04888
 C2227 C 0.51821 0.39012 -0.03106
 C2228 C 0.51766 0.40797 -0.02294
 C2229 C 0.50681 0.32045 -0.08002
 C2230 C 0.50208 0.42005 -0.05060
 C2231 C 0.51029 0.36868 -0.05694
 C2232 C 0.50959 0.35329 -0.06390
 C2233 C 0.50830 0.33546 -0.07239
 C2234 C 0.50940 0.42312 -0.03254
 H2235 H 0.49672 0.40008 -0.07249
 H2236 H 0.52437 0.37858 -0.02334
 H2237 H 0.52344 0.40981 -0.00903
 H2238 H 0.49566 0.43136 -0.05843
 C2239 C -0.00094 -0.09922 0.44102
 C2240 C 0.00695 -0.11421 0.45091
 C2241 C 0.01488 -0.11111 0.46857
 C2242 C 0.01480 -0.09313 0.47639
 C2243 C 0.00373 -0.18109 0.42004
 C2244 C -0.00105 -0.08123 0.44880
 C2245 C 0.00659 -0.13277 0.44299
 C2246 C 0.00599 -0.14819 0.43610
 C2247 C 0.00494 -0.16606 0.42766
 C2248 C 0.00673 -0.07797 0.46663
 H2249 H -0.00713 -0.10146 0.42734
 H2250 H 0.02102 -0.12262 0.47634
 H2251 H 0.02092 -0.09115 0.49013
 H2252 H -0.00737 -0.06993 0.44088
 C2253 C 0.50541 -0.09205 0.55900
 C2254 C 0.49784 -0.10712 0.54897
 C2255 C 0.49027 -0.10414 0.53114
 C2256 C 0.49037 -0.08617 0.52330
 C2257 C 0.49859 -0.17369 0.58060
 C2258 C 0.50554 -0.07407 0.55120
 C2259 C 0.49789 -0.12562 0.55702
 C2260 C 0.49804 -0.14098 0.56403
 C2261 C 0.49831 -0.15876 0.57270
 C2262 C 0.49806 -0.07091 0.53322
 H2263 H 0.51129 -0.09421 0.57283
 H2264 H 0.48435 -0.11571 0.52327
 H2265 H 0.48450 -0.08427 0.50944
 H2266 H 0.51157 -0.06269 0.55924
 C2267 C -0.01269 0.39568 1.03269
 C2268 C -0.00492 0.39261 1.05042
 C2269 C 0.00288 0.40762 1.06037
 C2270 C 0.00315 0.42559 1.05253
 C2271 C -0.00314 0.32564 1.08122
 C2272 C -0.01245 0.41363 1.02482
 C2273 C -0.00469 0.37406 1.05834
 C2274 C -0.00432 0.35860 1.06517
 C2275 C -0.00372 0.34070 1.07357
 C2276 C -0.00439 0.42879 1.03459
 H2277 H -0.01879 0.38416 1.02488
 H2278 H 0.00891 0.40540 1.07412
 H2279 H 0.00944 0.43690 1.06047
 H2280 H -0.01839 0.41556 1.01099
 C2281 C 0.74919 0.31039 0.15486
 C2282 C 0.75712 0.30038 0.13998
 C2283 C 0.76481 0.28263 0.14318
 C2284 C 0.76439 0.27482 0.16115
 C2285 C 0.75600 0.33126 0.07307
 C2286 C 0.74875 0.30262 0.17284
 C2287 C 0.75712 0.30827 0.12142
 C2288 C 0.75691 0.31512 0.10598
 C2289 C 0.75648 0.32355 0.08811
 C2290 C 0.75623 0.28467 0.17619
 H2291 H 0.74321 0.32416 0.15253
 H2292 H 0.77101 0.27476 0.13177
 H2293 H 0.77030 0.26098 0.16320
 H2294 H 0.74237 0.31062 0.18405
 C2295 C 0.26612 0.78269 0.64448
 C2296 C 0.25841 0.80043 0.64126
 C2297 C 0.25038 0.81041 0.65610
 C2298 C 0.24984 0.80261 0.67407
 C2299 C 0.25745 0.83103 0.57421
 C2300 C 0.26561 0.77485 0.66243
 C2301 C 0.25847 0.80832 0.62270
 C2302 C 0.25831 0.81512 0.60723
 C2303 C 0.25792 0.82346 0.58930
 C2304 C 0.25734 0.78466 0.67743
 H2305 H 0.27240 0.77485 0.63309
 H2306 H 0.24438 0.82417 0.65376
 H2307 H 0.24338 0.81057 0.68526
 H2308 H 0.27153 0.76103 0.66449
 C2309 C 0.75366 0.68992 0.65411
 C2310 C 0.74629 0.70009 0.63905
 C2311 C 0.73881 0.71796 0.64208
 C2312 C 0.73881 0.72571 0.66007
 C2313 C 0.74776 0.66890 0.57232
 C2314 C 0.75370 0.69763 0.67211
 C2315 C 0.74652 0.69214 0.62052
 C2316 C 0.74684 0.68521 0.60513
 C2317 C 0.74732 0.67666 0.58731
 C2318 C 0.74633 0.71566 0.67531
 H2319 H 0.75947 0.67606 0.65192
 H2320 H 0.73304 0.72593 0.63051
 H2321 H 0.73304 0.73961 0.66200
 H2322 H 0.75959 0.68949 0.68348
 C2323 C 0.25418 0.19073 0.15216
 C2324 C 0.24585 0.20053 0.13736
 C2325 C 0.23737 0.21789 0.14070
 C2326 C 0.23731 0.22549 0.15876
 C2327 C 0.24716 0.16937 0.07064
 C2328 C 0.25415 0.19829 0.17022
 C2329 C 0.24605 0.19270 0.11879
 C2330 C 0.24634 0.18580 0.10338
 C2331 C 0.24677 0.17723 0.08558
 C2332 C 0.24577 0.21580 0.17374
 H2333 H 0.26075 0.17726 0.14972
 H2334 H 0.23086 0.22558 0.12935
 H2335 H 0.23074 0.23900 0.16094
 H2336 H 0.26077 0.19043 0.18138
 C2337 C 0.26281 0.21790 0.85616
 C2338 C 0.25498 0.20019 0.85927
 C2339 C 0.24714 0.19021 0.84432
 C2340 C 0.24699 0.19795 0.82633
 C2341 C 0.25236 0.16984 0.92637
 C2342 C 0.26269 0.22569 0.83817
 C2343 C 0.25471 0.19231 0.87783
 C2344 C 0.25422 0.18552 0.89329
 C2345 C 0.25336 0.17725 0.91123
 C2346 C 0.25469 0.21584 0.82304
 H2347 H 0.26891 0.22575 0.86764
 H2348 H 0.24104 0.17647 0.84659
 H2349 H 0.24073 0.18996 0.81504
 H2350 H 0.26874 0.23948 0.83618
 C2351 C 0.76363 0.71797 0.35656
 C2352 C 0.75607 0.70012 0.35960
 C2353 C 0.74843 0.69007 0.34460
 C2354 C 0.74819 0.69787 0.32663
 C2355 C 0.75341 0.66946 0.42656
 C2356 C 0.76342 0.72582 0.33861
 C2357 C 0.75583 0.69219 0.37814
 C2358 C 0.75534 0.68533 0.39357
 C2359 C 0.75445 0.67697 0.41146
 C2360 C 0.75560 0.71590 0.32343
 H2361 H 0.76958 0.72588 0.36809
 H2362 H 0.74253 0.67624 0.34680
 H2363 H 0.74208 0.68982 0.31531
 H2364 H 0.76925 0.73971 0.33667
 C2365 C 0.23635 0.78335 0.35736
 C2366 C 0.24494 0.80070 0.36055
 C2367 C 0.25326 0.81036 0.34564
 C2368 C 0.25317 0.80264 0.32763
 C2369 C 0.24863 0.83059 0.42784
 C2370 C 0.23623 0.77558 0.33937
 C2371 C 0.24550 0.80850 0.37915
 C2372 C 0.24622 0.81518 0.39465
 C2373 C 0.24738 0.82330 0.41266
 C2374 C 0.24474 0.78509 0.32429
 H2375 H 0.22987 0.77575 0.36881
 H2376 H 0.25995 0.82381 0.34796
 H2377 H 0.25983 0.81035 0.31639
 H2378 H 0.22961 0.76207 0.33733
 C2379 C 0.75456 0.30984 0.84626
 C2380 C 0.74610 0.30016 0.86107
 C2381 C 0.73757 0.28280 0.85778
 C2382 C 0.73761 0.27507 0.83977
 C2383 C 0.74880 0.33018 0.92835
 C2384 C 0.75462 0.30216 0.82823
 C2385 C 0.74642 0.30796 0.87967
 C2386 C 0.74692 0.31468 0.89517
 C2387 C 0.74779 0.32284 0.91317
 C2388 C 0.74622 0.28462 0.82477
 H2389 H 0.76120 0.32330 0.84865
 H2390 H 0.73098 0.27518 0.86914
 H2391 H 0.73100 0.26156 0.83764
 H2392 H 0.76137 0.30991 0.81706
 C2393 C 0.81082 0.34473 0.25049
 C2394 C 0.80079 0.35959 0.24254
 C2395 C 0.78310 0.35633 0.23474
 C2396 C 0.77535 0.33832 0.23510
 C2397 C 0.83107 0.42683 0.24415
 C2398 C 0.80311 0.32671 0.25087
 C2399 C 0.80857 0.37822 0.24267
 C2400 C 0.81528 0.39373 0.24299
 C2401 C 0.82353 0.41171 0.24356
 C2402 C 0.78520 0.32331 0.24331
 H2403 H 0.82454 0.34711 0.25654
 H2404 H 0.77523 0.36774 0.22853
 H2405 H 0.76155 0.33624 0.22914
 H2406 H 0.81109 0.31551 0.25728
 C2407 C 0.31179 0.84429 0.75177
 C2408 C 0.30191 0.85914 0.74362
 C2409 C 0.28423 0.85592 0.73579
 C2410 C 0.27635 0.83797 0.73629
 C2411 C 0.33230 0.92636 0.74437
 C2412 C 0.30395 0.82632 0.75230
 C2413 C 0.30982 0.87771 0.74355
 C2414 C 0.31659 0.89320 0.74367
 C2415 C 0.32484 0.91119 0.74398
 C2416 C 0.28606 0.82296 0.74467
 H2417 H 0.32550 0.84664 0.75786
 H2418 H 0.27646 0.86732 0.72942
 H2419 H 0.26257 0.83592 0.73027
 H2420 H 0.31184 0.81513 0.75884
 C2421 C 0.18930 0.84575 0.24632
 C2422 C 0.19927 0.86080 0.25401
 C2423 C 0.21693 0.85777 0.26194
 C2424 C 0.22467 0.83975 0.26208
 C2425 C 0.16794 0.92749 0.25213
 C2426 C 0.19700 0.82773 0.24644
 C2427 C 0.19131 0.87933 0.25367
 C2428 C 0.18435 0.89472 0.25325
 C2429 C 0.17576 0.91252 0.25267
 C2430 C 0.21482 0.82452 0.25427
 H2431 H 0.17560 0.84794 0.24017
 H2432 H 0.22475 0.86932 0.26794
 H2433 H 0.23841 0.83781 0.26822
 H2434 H 0.18901 0.81637 0.24031
 C2435 C 0.69124 0.34619 0.74764
 C2436 C 0.70130 0.36109 0.75550
 C2437 C 0.71896 0.35787 0.76337
 C2438 C 0.72660 0.33982 0.76327
 C2439 C 0.67004 0.42779 0.75458
 C2440 C 0.69884 0.32814 0.74751
 C2441 C 0.69342 0.37965 0.75544
 C2442 C 0.68650 0.39505 0.75525
 C2443 C 0.67791 0.41285 0.75491
 C2444 C 0.71666 0.32474 0.75528
 H2445 H 0.67754 0.34854 0.74153
 H2446 H 0.72684 0.36931 0.76952
 H2447 H 0.74034 0.33773 0.76936
 H2448 H 0.69079 0.31690 0.74125
 C2449 C 0.69026 0.65536 0.75300
 C2450 C 0.69978 0.64035 0.74474
 C2451 C 0.71724 0.64333 0.73632
 C2452 C 0.72523 0.66124 0.73630
 C2453 C 0.66888 0.57345 0.74807
 C2454 C 0.69822 0.67328 0.75301
 C2455 C 0.69172 0.62185 0.74519
 C2456 C 0.68478 0.60645 0.74584
 C2457 C 0.67638 0.58856 0.74690
 C2458 C 0.71586 0.67644 0.74474
 H2459 H 0.67674 0.65320 0.75956
 H2460 H 0.72473 0.63180 0.72989
 H2461 H 0.73882 0.66314 0.72980
 H2462 H 0.69059 0.68462 0.75962
 C2463 C 0.19006 0.15398 0.25063
 C2464 C 0.20004 0.13903 0.24279
 C2465 C 0.21770 0.14219 0.23490
 C2466 C 0.22545 0.16022 0.23499
 C2467 C 0.16970 0.07187 0.24590
 C2468 C 0.19776 0.17200 0.25074
 C2469 C 0.19221 0.12043 0.24317
 C2470 C 0.18543 0.10495 0.24376
 C2471 C 0.17716 0.08700 0.24478
 C2472 C 0.21561 0.17534 0.24301
 H2473 H 0.17636 0.15167 0.25678
 H2474 H 0.22555 0.13071 0.22880
 H2475 H 0.23921 0.16225 0.22891
 H2476 H 0.18977 0.18328 0.25702
 C2477 C 0.28244 0.14325 0.76178
 C2478 C 0.30022 0.14014 0.75414
 C2479 C 0.31031 0.15514 0.74649
 C2480 C 0.30261 0.17316 0.74633
 C2481 C 0.33035 0.07290 0.75147
 C2482 C 0.27470 0.16126 0.76165
 C2483 C 0.30804 0.12154 0.75386
 C2484 C 0.31477 0.10605 0.75337
 C2485 C 0.32296 0.08807 0.75250
 C2486 C 0.28465 0.17643 0.75383
 H2487 H 0.27451 0.13174 0.76774
 H2488 H 0.32409 0.15288 0.74053
 H2489 H 0.31067 0.18448 0.74021
 H2490 H 0.26086 0.16323 0.76755
 C2491 C 0.81002 0.65535 0.24549
 C2492 C 0.80045 0.64048 0.25400
 C2493 C 0.78311 0.64369 0.26256
 C2494 C 0.77530 0.66166 0.26250
 C2495 C 0.83072 0.57328 0.25150
 C2496 C 0.80225 0.67334 0.24541
 C2497 C 0.80835 0.62191 0.25373
 C2498 C 0.81512 0.60643 0.25327
 C2499 C 0.82334 0.58845 0.25246
 C2500 C 0.78474 0.67671 0.25385
 H2501 H 0.82346 0.65301 0.23882
 H2502 H 0.77558 0.63228 0.26919
 H2503 H 0.76181 0.66372 0.26914
 H2504 H 0.80992 0.68456 0.23863
 C2505 C 0.84423 0.24972 0.18873
 C2506 C 0.85906 0.25801 0.19853
 C2507 C 0.85583 0.26609 0.21609
 C2508 C 0.83789 0.26566 0.22396
 C2509 C 0.92611 0.25642 0.16800
 C2510 C 0.82628 0.24926 0.19655
 C2511 C 0.87763 0.25791 0.19066
 C2512 C 0.89310 0.25759 0.18388
 C2513 C 0.91103 0.25702 0.17557
 C2514 C 0.82292 0.25708 0.21435
 H2515 H 0.84658 0.24344 0.17510
 H2516 H 0.86722 0.27257 0.22379
 H2517 H 0.83583 0.27184 0.23767
 H2518 H 0.81511 0.24257 0.18875
 C2519 C 0.34515 0.75008 0.69024
 C2520 C 0.35989 0.75845 0.70012
 C2521 C 0.35655 0.76637 0.71773
 C2522 C 0.33860 0.76572 0.72556
 C2523 C 0.42695 0.75765 0.66962
 C2524 C 0.32719 0.74940 0.69802
 C2525 C 0.37846 0.75859 0.69228
 C2526 C 0.39393 0.75847 0.68550
 C2527 C 0.41186 0.75811 0.67719
 C2528 C 0.32372 0.75709 0.71586
 H2529 H 0.34758 0.74392 0.67657
 H2530 H 0.36786 0.77290 0.72549
 H2531 H 0.33646 0.77180 0.73930
 H2532 H 0.31609 0.74267 0.69015
 C2533 C 0.34546 0.25473 0.80857
 C2534 C 0.36036 0.24640 0.79892
 C2535 C 0.35718 0.23789 0.78155
 C2536 C 0.33919 0.23779 0.77379
 C2537 C 0.42705 0.24771 0.83023
 C2538 C 0.32746 0.25467 0.80085
 C2539 C 0.37887 0.24664 0.80690
 C2540 C 0.39426 0.24693 0.81386
 C2541 C 0.41207 0.24735 0.82244
 C2542 C 0.32411 0.24625 0.78332
 H2543 H 0.34777 0.26134 0.82205
 H2544 H 0.36861 0.23137 0.77398
 H2545 H 0.33714 0.23119 0.76028
 H2546 H 0.31622 0.26130 0.80858
 C2547 C 0.84603 0.75385 0.30891
 C2548 C 0.86090 0.74596 0.29886
 C2549 C 0.85767 0.73817 0.28116
 C2550 C 0.83964 0.73833 0.27349
 C2551 C 0.92749 0.74628 0.33037
 C2552 C 0.82800 0.75403 0.30128
 C2553 C 0.87944 0.74590 0.30679
 C2554 C 0.89481 0.74596 0.31377
 C2555 C 0.91258 0.74611 0.32244
 C2556 C 0.82458 0.74631 0.28345
 H2557 H 0.84838 0.75989 0.32264
 H2558 H 0.86909 0.73200 0.27328
 H2559 H 0.83754 0.73227 0.25974
 H2560 H 0.81677 0.76029 0.30934
 C2561 C 0.14203 0.76305 0.28272
 C2562 C 0.13896 0.75552 0.30056
 C2563 C 0.15398 0.74804 0.31070
 C2564 C 0.17199 0.74793 0.30298
 C2565 C 0.07177 0.75226 0.33066
 C2566 C 0.16003 0.76297 0.27497
 C2567 C 0.12038 0.75512 0.30839
 C2568 C 0.10490 0.75450 0.31512
 C2569 C 0.08693 0.75344 0.32332
 C2570 C 0.17522 0.75531 0.28497
 H2571 H 0.13049 0.76887 0.27475
 H2572 H 0.15176 0.74217 0.32452
 H2573 H 0.18332 0.74194 0.31109
 H2574 H 0.16198 0.76877 0.26108
 C2575 C 0.64353 0.26331 0.78309
 C2576 C 0.64040 0.25557 0.80082
 C2577 C 0.65538 0.24789 0.81088
 C2578 C 0.67339 0.24779 0.80318
 C2579 C 0.57312 0.25260 0.83079
 C2580 C 0.66153 0.26324 0.77534
 C2581 C 0.62181 0.25519 0.80863
 C2582 C 0.60631 0.25462 0.81533
 C2583 C 0.58832 0.25366 0.82348
 C2584 C 0.67668 0.25538 0.78526
 H2585 H 0.63203 0.26929 0.77518
 H2586 H 0.65311 0.24185 0.82463
 H2587 H 0.68469 0.24164 0.81122
 H2588 H 0.66352 0.26921 0.76153
 C2589 C 0.65565 0.75397 0.68931
 C2590 C 0.64068 0.74614 0.69930
 C2591 C 0.64383 0.73820 0.71694
 C2592 C 0.66184 0.73820 0.72464
 C2593 C 0.57331 0.74917 0.66956
 C2594 C 0.67368 0.75399 0.69698
 C2595 C 0.62207 0.74653 0.69153
 C2596 C 0.60655 0.74710 0.68489
 C2597 C 0.58852 0.74806 0.67682
 C2598 C 0.67699 0.74618 0.71479
 H2599 H 0.65336 0.76016 0.67564
 H2600 H 0.63234 0.73210 0.72479
 H2601 H 0.66385 0.73205 0.73837
 H2602 H 0.68497 0.76025 0.68900
 C2603 C 0.14296 0.23709 0.21588
 C2604 C 0.13981 0.24494 0.19819
 C2605 C 0.15479 0.25265 0.18813
 C2606 C 0.17283 0.25267 0.19577
 C2607 C 0.07246 0.24824 0.16842
 C2608 C 0.16099 0.23709 0.22356
 C2609 C 0.12119 0.24538 0.19045
 C2610 C 0.10567 0.24601 0.18380
 C2611 C 0.08766 0.24706 0.17570
 C2612 C 0.17614 0.24498 0.21364
 H2613 H 0.13147 0.23109 0.22379
 H2614 H 0.15250 0.25876 0.17442
 H2615 H 0.18413 0.25884 0.18773
 H2616 H 0.16300 0.23104 0.23733
 C2617 C -0.06119 1.00552 0.90605
 C2618 C -0.05118 0.99759 0.89117
 C2619 C -0.03390 0.98897 0.89456
 C2620 C -0.02654 0.98848 0.91272
 C2621 C -0.08053 1.00132 0.82366
 C2622 C -0.05388 1.00505 0.92421
 C2623 C -0.05862 0.99847 0.87245
 C2624 C -0.06512 0.99934 0.85688
 C2625 C -0.07316 1.00043 0.83884
 C2626 C -0.03639 0.99663 0.92776
 H2627 H -0.07460 1.01220 0.90359
 H2628 H -0.02605 0.98276 0.88315
 H2629 H -0.01306 0.98189 0.91491
 H2630 H -0.06184 1.01147 0.93542
 C2631 C 0.46510 0.48770 0.39738
 C2632 C 0.44754 0.49581 0.39419
 C2633 C 0.43743 0.50335 0.40919
 C2634 C 0.44494 0.50309 0.42727
 C2635 C 0.41786 0.50011 0.32687
 C2636 C 0.47266 0.48741 0.41546
 C2637 C 0.43998 0.49673 0.37551
 C2638 C 0.43340 0.49773 0.35999
 C2639 C 0.42527 0.49902 0.34201
 C2640 C 0.46274 0.49527 0.43061
 H2641 H 0.47304 0.48179 0.38587
 H2642 H 0.42380 0.50964 0.40688
 H2643 H 0.43690 0.50926 0.43856
 H2644 H 0.48639 0.48128 0.41749
 C2645 C 0.53495 0.01482 0.39102
 C2646 C 0.55263 0.00688 0.38808
 C2647 C 0.56286 -0.00003 0.40331
 C2648 C 0.55533 0.00069 0.42137
 C2649 C 0.58264 0.00276 0.32087
 C2650 C 0.52738 0.01557 0.40909
 C2651 C 0.56030 0.00565 0.36946
 C2652 C 0.56698 0.00455 0.35399
 C2653 C 0.57520 0.00341 0.33603
 C2654 C 0.53741 0.00835 0.42448
 H2655 H 0.52694 0.02026 0.37934
 H2656 H 0.57659 -0.00616 0.40120
 H2657 H 0.56347 -0.00499 0.43285
 H2658 H 0.51355 0.02155 0.41095
 C2659 C 0.03284 0.51195 0.89056
 C2660 C 0.05047 0.50391 0.88757
 C2661 C 0.06070 0.49694 0.90276
 C2662 C 0.05328 0.49782 0.92086
 C2663 C 0.08080 0.50039 0.82048
 C2664 C 0.02537 0.51286 0.90867
 C2665 C 0.05815 0.50277 0.86895
 C2666 C 0.06491 0.50182 0.85350
 C2667 C 0.07325 0.50087 0.83559
 C2668 C 0.03547 0.50571 0.92405
 H2669 H 0.02482 0.51743 0.87890
 H2670 H 0.07438 0.49074 0.90061
 H2671 H 0.06146 0.49217 0.93233
 H2672 H 0.01163 0.51899 0.91058
 C2673 C 0.02644 0.48551 0.60631
 C2674 C 0.04428 0.49312 0.60935
 C2675 C 0.05475 0.49978 0.59418
 C2676 C 0.04739 0.49905 0.57607
 C2677 C 0.07606 0.49856 0.67557
 C2678 C 0.01903 0.48475 0.58817
 C2679 C 0.05195 0.49430 0.62796
 C2680 C 0.05895 0.49556 0.64329
 C2681 C 0.06783 0.49718 0.66088
 C2682 C 0.02939 0.49164 0.57282
 H2683 H 0.01823 0.48028 0.61797
 H2684 H 0.06858 0.50566 0.59636
 H2685 H 0.05578 0.50447 0.56463
 H2686 H 0.00513 0.47898 0.58620
 C2687 C 0.52615 0.98690 0.10744
 C2688 C 0.54399 0.99446 0.11051
 C2689 C 0.55443 1.00127 0.09538
 C2690 C 0.54704 1.00072 0.07727
 C2691 C 0.57614 0.99919 0.17660
 C2692 C 0.51869 0.98631 0.08930
 C2693 C 0.55173 0.99543 0.12911
 C2694 C 0.55880 0.99651 0.14441
 C2695 C 0.56780 0.99795 0.16196
 C2696 C 0.52902 0.99333 0.07400
 H2697 H 0.51796 0.98156 0.11906
 H2698 H 0.56827 1.00713 0.09759
 H2699 H 0.55541 1.00623 0.06587
 H2700 H 0.50479 0.98055 0.08731
 C2701 C 0.44174 0.49158 0.09935
 C2702 C 0.45194 0.49866 0.11452
 C2703 C 0.46975 0.50635 0.11155
 C2704 C 0.47739 0.50683 0.09350
 C2705 C 0.42033 0.49779 0.18112
 C2706 C 0.44932 0.49205 0.08130
 C2707 C 0.44398 0.49817 0.13306
 C2708 C 0.43695 0.49781 0.14842
 C2709 C 0.42824 0.49761 0.16618
 C2710 C 0.46728 0.49963 0.07814
 H2711 H 0.42791 0.48565 0.10148
 H2712 H 0.47775 0.51193 0.12319
 H2713 H 0.49123 0.51276 0.09160
 H2714 H 0.44113 0.48637 0.06986
 C2715 C -0.05764 -0.00619 0.59694
 C2716 C -0.04762 0.00137 0.61201
 C2717 C -0.03000 0.00944 0.60893
 C2718 C -0.02232 0.00974 0.59089
 C2719 C -0.07882 -0.00011 0.67880
 C2720 C -0.05001 -0.00591 0.57891
 C2721 C -0.05550 0.00080 0.63058
 C2722 C -0.06244 0.00030 0.64598
 C2723 C -0.07102 -0.00011 0.66381
 C2724 C -0.03219 0.00195 0.57566
 H2725 H -0.07132 -0.01241 0.59916
 H2726 H -0.02214 0.01538 0.62048
 H2727 H -0.00858 0.01590 0.58892
 H2728 H -0.05802 -0.01203 0.56756
 C2729 C -0.11043 0.97050 0.99161
 C2730 C -0.11350 0.95297 0.99989
 C2731 C -0.09841 0.94300 1.00744
 C2732 C -0.08034 0.95055 1.00684
 C2733 C -0.18008 0.92126 1.00132
 C2734 C -0.09235 0.97810 0.99099
 C2735 C -0.13205 0.94502 1.00052
 C2736 C -0.14741 0.93798 1.00101
 C2737 C -0.16516 0.92923 1.00136
 C2738 C -0.07708 0.96823 0.99865
 H2739 H -0.12201 0.97831 0.98567
 H2740 H -0.10061 0.92939 1.01383
 H2741 H -0.06896 0.94254 1.01289
 H2742 H -0.09038 0.99173 0.98460
 C2743 C 0.40285 0.44100 0.50552
 C2744 C 0.38771 0.45108 0.49824
 C2745 C 0.39065 0.46892 0.49059
 C2746 C 0.40864 0.47676 0.49046
 C2747 C 0.32100 0.41960 0.49960
 C2748 C 0.42083 0.44878 0.50542
 C2749 C 0.36918 0.44308 0.49871
 C2750 C 0.35380 0.43607 0.49916
 C2751 C 0.33599 0.42743 0.49956
 C2752 C 0.42394 0.46683 0.49801
 H2753 H 0.40074 0.42715 0.51142
 H2754 H 0.37903 0.47683 0.48486
 H2755 H 0.41049 0.49067 0.48466
 H2756 H 0.43224 0.44072 0.51134
 C2757 C 0.39315 0.52655 0.01498
 C2758 C 0.39011 0.54425 0.00707
 C2759 C 0.40524 0.55449 -0.00005
 C2760 C 0.42332 0.54704 0.00054
 C2761 C 0.32393 0.57621 0.00222
 C2762 C 0.41126 0.51904 0.01560
 C2763 C 0.37152 0.55202 0.00605
 C2764 C 0.35622 0.55907 0.00494
 C2765 C 0.33863 0.56798 0.00348
 C2766 C 0.42657 0.52916 0.00827
 H2767 H 0.38153 0.51852 0.02056
 H2768 H 0.40305 0.56822 -0.00617
 H2769 H 0.43472 0.55525 -0.00522
 H2770 H 0.41323 0.50525 0.02164
 C2771 C -0.10564 0.02776 0.51473
 C2772 C -0.10855 0.04576 0.50745
 C2773 C -0.09333 0.05614 0.50072
 C2774 C -0.07532 0.04850 0.50097
 C2775 C -0.17468 0.07782 0.50246
 C2776 C -0.08759 0.02007 0.51501
 C2777 C -0.12711 0.05360 0.50650
 C2778 C -0.14241 0.06067 0.50538
 C2779 C -0.15999 0.06959 0.50383
 C2780 C -0.07223 0.03030 0.50796
 H2781 H -0.11732 0.01961 0.51999
 H2782 H -0.09542 0.07010 0.49509
 H2783 H -0.06386 0.05681 0.49546
 H2784 H -0.08574 0.00602 0.52047
 C2785 C 0.60968 0.03571 0.48555
 C2786 C 0.61259 0.05354 0.49321
 C2787 C 0.59732 0.06387 0.49987
 C2788 C 0.57926 0.05629 0.49924
 C2789 C 0.67995 0.08324 0.49785
 C2790 C 0.59163 0.02807 0.48489
 C2791 C 0.63122 0.06119 0.49451
 C2792 C 0.64673 0.06782 0.49570
 C2793 C 0.66474 0.07592 0.49702
 C2794 C 0.57621 0.03820 0.49192
 H2795 H 0.62140 0.02761 0.48031
 H2796 H 0.59940 0.07772 0.50578
 H2797 H 0.56776 0.06449 0.50477
 H2798 H 0.58982 0.01412 0.47917
 C2799 C 0.10968 0.53317 0.98883
 C2800 C 0.11262 0.55108 0.99631
 C2801 C 0.09737 0.56158 1.00272
 C2802 C 0.07926 0.55416 1.00187
 C2803 C 0.17979 0.58135 0.99986
 C2804 C 0.09156 0.52570 0.98796
 C2805 C 0.13126 0.55875 0.99745
 C2806 C 0.14673 0.56549 0.99841
 C2807 C 0.16466 0.57381 0.99936
 C2808 C 0.07612 0.53607 0.99458
 H2809 H 0.12139 0.52494 0.98378
 H2810 H 0.09948 0.57548 1.00848
 H2811 H 0.06775 0.56256 1.00709
 H2812 H 0.08969 0.51175 0.98228
 C2813 C 0.10431 0.46512 0.50949
 C2814 C 0.10756 0.44739 0.50177
 C2815 C 0.09253 0.43684 0.49485
 C2816 C 0.07434 0.44407 0.49543
 C2817 C 0.17504 0.41812 0.49759
 C2818 C 0.08613 0.47240 0.51009
 C2819 C 0.12630 0.44002 0.50074
 C2820 C 0.14187 0.43356 0.49976
 C2821 C 0.15990 0.42552 0.49855
 C2822 C 0.07092 0.46201 0.50294
 H2823 H 0.11584 0.47339 0.51491
 H2824 H 0.09489 0.42308 0.48888
 H2825 H 0.06301 0.43568 0.48979
 H2826 H 0.08403 0.48624 0.51596
 C2827 C 0.59197 0.93835 -0.00374
 C2828 C 0.60706 0.94886 0.00308
 C2829 C 0.60393 0.96666 0.01069
 C2830 C 0.58578 0.97405 0.01126
 C2831 C 0.67435 0.91914 -0.00122
 C2832 C 0.57382 0.94569 -0.00319
 C2833 C 0.62576 0.94137 0.00205
 C2834 C 0.64128 0.93479 0.00104
 C2835 C 0.65925 0.92663 -0.00021
 C2836 C 0.57051 0.96370 0.00420
 H2837 H 0.59424 0.92454 -0.00963
 H2838 H 0.61552 0.97490 0.01603
 H2839 H 0.58377 0.98794 0.01704
 H2840 H 0.56244 0.93732 -0.00875
 C2841 C 0.00032 0.90553 0.94367
 C2842 C -0.00593 0.89035 0.95440
 C2843 C -0.01300 0.89342 0.97244
 C2844 C -0.01361 0.91161 0.97980
 C2845 C -0.00091 0.82385 0.92304
 C2846 C -0.00026 0.92369 0.95097
 C2847 C -0.00486 0.87168 0.94681
 C2848 C -0.00371 0.85630 0.93991
 C2849 C -0.00220 0.83862 0.93115
 C2850 C -0.00712 0.92696 0.96918
 H2851 H 0.00578 0.90331 0.92968
 H2852 H -0.01790 0.88177 0.98086
 H2853 H -0.01895 0.91360 0.99385
 H2854 H 0.00484 0.93512 0.94238
 C2855 C 0.49779 0.40655 0.44457
 C2856 C 0.49129 0.39124 0.45497
 C2857 C 0.48420 0.39405 0.47303
 C2858 C 0.48389 0.41209 0.48079
 C2859 C 0.49674 0.32525 0.42262
 C2860 C 0.49752 0.42455 0.45227
 C2861 C 0.49233 0.37270 0.44706
 C2862 C 0.49355 0.35743 0.43992
 C2863 C 0.49524 0.33990 0.43091
 C2864 C 0.49074 0.42753 0.47056
 H2865 H 0.50328 0.40454 0.43055
 H2866 H 0.47910 0.38230 0.48120
 H2867 H 0.47858 0.41386 0.49490
 H2868 H 0.50287 0.43607 0.44395
 C2869 C -0.00869 0.40020 0.55722
 C2870 C -0.00078 0.38512 0.54751
 C2871 C 0.00776 0.38815 0.53011
 C2872 C 0.00827 0.40619 0.52239
 C2873 C -0.00175 0.31861 0.57949
 C2874 C -0.00820 0.41823 0.54954
 C2875 C -0.00129 0.36660 0.55558
 C2876 C -0.00167 0.35126 0.56270
 C2877 C -0.00190 0.33352 0.57150
 C2878 C 0.00024 0.42146 0.53199
 H2879 H -0.01528 0.39803 0.57072
 H2880 H 0.01398 0.37658 0.52250
 H2881 H 0.01487 0.40813 0.50886
 H2882 H -0.01453 0.42961 0.55734
 C2883 C 0.50701 0.89001 0.03107
 C2884 C 0.49839 0.88695 0.04842
 C2885 C 0.49052 0.90204 0.05816
 C2886 C 0.49112 0.92009 0.05055
 C2887 C 0.49713 0.82033 0.08009
 C2888 C 0.50764 0.90807 0.02341
 C2889 C 0.49777 0.86842 0.05641
 C2890 C 0.49731 0.85305 0.06345
 C2891 C 0.49701 0.83527 0.07217
 C2892 C 0.49964 0.92334 0.03304
 H2893 H 0.51321 0.87844 0.02344
 H2894 H 0.48387 0.89985 0.07163
 H2895 H 0.48481 0.93147 0.05837
 H2896 H 0.51430 0.91003 0.00992
 C2897 C 0.48902 0.60378 0.03499
 C2898 C 0.49721 0.60706 0.05250
 C2899 C 0.50476 0.59210 0.06268
 C2900 C 0.50432 0.57394 0.05532
 C2901 C 0.50061 0.67449 0.08221
 C2902 C 0.48855 0.58562 0.02759
 C2903 C 0.49802 0.62578 0.06003
 C2904 C 0.49883 0.64133 0.06661
 C2905 C 0.49982 0.65934 0.07475
 C2906 C 0.49630 0.57048 0.03762
 H2907 H 0.48310 0.61526 0.02701
 H2908 H 0.51111 0.59448 0.07626
 H2909 H 0.51042 0.56265 0.06343
 H2910 H 0.48228 0.58350 0.01393
 C2911 C -0.01289 0.10298 0.53406
 C2912 C -0.00510 0.10612 0.55177
 C2913 C 0.00216 0.09105 0.56201
 C2914 C 0.00198 0.07297 0.55445
 C2915 C -0.00051 0.17352 0.58140
 C2916 C -0.01311 0.08490 0.52645
 C2917 C -0.00415 0.12481 0.55934
 C2918 C -0.00310 0.14035 0.56591
 C2919 C -0.00171 0.15837 0.57401
 C2920 C -0.00548 0.06969 0.53647
 H2921 H -0.01858 0.11454 0.52602
 H2922 H 0.00820 0.09332 0.57576
 H2923 H 0.00795 0.06163 0.56258
 H2924 H -0.01896 0.08292 0.51259
 C2925 C 0.51475 0.11050 0.46598
 C2926 C 0.50690 0.11329 0.44823
 C2927 C 0.50012 0.09795 0.43806
 C2928 C 0.50087 0.07993 0.44570
 C2929 C 0.50203 0.18029 0.41775
 C2930 C 0.51553 0.09246 0.47367
 C2931 C 0.50556 0.13187 0.44046
 C2932 C 0.50431 0.14730 0.43366
 C2933 C 0.50293 0.16519 0.42530
 C2934 C 0.50842 0.07697 0.46370
 H2935 H 0.52009 0.12227 0.47395
 H2936 H 0.49406 0.09995 0.42428
 H2937 H 0.49527 0.06837 0.43760
 H2938 H 0.52143 0.09072 0.48755
 C2939 C 0.01230 0.60981 0.96673
 C2940 C 0.00387 0.61280 0.94928
 C2941 C -0.00350 0.59761 0.93930
 C2942 C -0.00266 0.57953 0.94679
 C2943 C 0.00074 0.67986 0.91873
 C2944 C 0.01318 0.59172 0.97427
 C2945 C 0.00280 0.63140 0.94152
 C2946 C 0.00192 0.64685 0.93471
 C2947 C 0.00109 0.66476 0.92632
 C2948 C 0.00561 0.57635 0.96443
 H2949 H 0.01811 0.62147 0.97455
 H2950 H -0.01001 0.59976 0.92575
 H2951 H -0.00863 0.56807 0.93881
 H2952 H 0.01962 0.58982 0.98788
 C2953 C 0.25348 0.69022 0.84669
 C2954 C 0.24717 0.70078 0.86194
 C2955 C 0.23987 0.71876 0.85900
 C2956 C 0.23910 0.72623 0.84087
 C2957 C 0.25248 0.66968 0.92853
 C2958 C 0.25274 0.69763 0.82859
 C2959 C 0.24841 0.69312 0.88056
 C2960 C 0.24965 0.68625 0.89595
 C2961 C 0.25120 0.67762 0.91368
 C2962 C 0.24566 0.71579 0.82545
 H2963 H 0.25913 0.67627 0.84880
 H2964 H 0.23491 0.72705 0.87071
 H2965 H 0.23358 0.74024 0.83900
 H2966 H 0.25791 0.68918 0.81709
 C2967 C 0.74039 0.21971 0.35817
 C2968 C 0.74780 0.20180 0.36117
 C2969 C 0.75391 0.19110 0.34592
 C2970 C 0.75288 0.19835 0.32777
 C2971 C 0.75415 0.17130 0.42794
 C2972 C 0.73933 0.22701 0.33999
 C2973 C 0.74936 0.19432 0.37984
 C2974 C 0.75086 0.18761 0.39527
 C2975 C 0.75268 0.17914 0.41305
 C2976 C 0.74570 0.21646 0.32457
 H2977 H 0.73559 0.22810 0.36988
 H2978 H 0.75964 0.17720 0.34808
 H2979 H 0.75791 0.18981 0.31627
 H2980 H 0.73375 0.24100 0.33807
 C2981 C 0.26359 0.28066 0.35568
 C2982 C 0.25584 0.29838 0.35892
 C2983 C 0.24862 0.30875 0.34393
 C2984 C 0.24887 0.30135 0.32581
 C2985 C 0.25119 0.32876 0.42588
 C2986 C 0.26388 0.27321 0.33755
 C2987 C 0.25493 0.30591 0.37761
 C2988 C 0.25389 0.31260 0.39308
 C2989 C 0.25246 0.32099 0.41093
 C2990 C 0.25636 0.28340 0.32241
 H2991 H 0.26924 0.27253 0.36719
 H2992 H 0.24261 0.32250 0.34628
 H2993 H 0.24298 0.30960 0.31452
 H2994 H 0.26974 0.25936 0.33547
 C2995 C 0.75014 0.81013 0.84452
 C2996 C 0.75712 0.79984 0.85968
 C2997 C 0.76480 0.78205 0.85667
 C2998 C 0.76522 0.77442 0.83861
 C2999 C 0.75148 0.83033 0.92653
 C3000 C 0.75053 0.80255 0.82646
 C3001 C 0.75597 0.80748 0.87831
 C3002 C 0.75470 0.81422 0.89375
 C3003 C 0.75299 0.82262 0.91158
 C3004 C 0.75790 0.78451 0.82330
 H3005 H 0.74418 0.82393 0.84668
 H3006 H 0.77027 0.77397 0.86831
 H3007 H 0.77100 0.76052 0.83671
 H3008 H 0.74478 0.81074 0.81505
 C3009 C 0.75142 0.81099 0.15457
 C3010 C 0.74412 0.80089 0.13943
 C3011 C 0.73616 0.78319 0.14244
 C3012 C 0.73577 0.77550 0.16048
 C3013 C 0.74713 0.83143 0.07238
 C3014 C 0.75105 0.80335 0.17260
 C3015 C 0.74499 0.80868 0.12084
 C3016 C 0.74580 0.81548 0.10539
 C3017 C 0.74667 0.82385 0.08748
 C3018 C 0.74337 0.78543 0.17577
 H3019 H 0.75756 0.82473 0.15241
 H3020 H 0.73043 0.77527 0.13083
 H3021 H 0.72975 0.76168 0.16238
 H3022 H 0.75702 0.81141 0.18400
 C3023 C 0.25091 0.31097 0.65404
 C3024 C 0.24409 0.30062 0.63884
 C3025 C 0.23654 0.28275 0.64180
 C3026 C 0.23610 0.27510 0.65986
 C3027 C 0.24756 0.33087 0.57168
 C3028 C 0.25049 0.30337 0.67209
 C3029 C 0.24508 0.30835 0.62022
 C3030 C 0.24601 0.31508 0.60475
 C3031 C 0.24700 0.32337 0.58681
 C3032 C 0.24325 0.28525 0.67521
 H3033 H 0.25673 0.32484 0.65192
 H3034 H 0.23118 0.27464 0.63014
 H3035 H 0.23043 0.26113 0.66171
 H3036 H 0.25611 0.31160 0.68354
 C3037 C 0.76361 0.21805 0.64323
 C3038 C 0.75567 0.20035 0.64018
 C3039 C 0.74822 0.19028 0.65526
 C3040 C 0.74846 0.19794 0.67328
 C3041 C 0.75375 0.16932 0.57333
 C3042 C 0.76387 0.22576 0.66126
 C3043 C 0.75508 0.19247 0.62161
 C3044 C 0.75452 0.18555 0.60621
 C3045 C 0.75396 0.17703 0.58836
 C3046 C 0.75618 0.21584 0.67650
 H3047 H 0.76947 0.22595 0.63165
 H3048 H 0.74209 0.17654 0.65307
 H3049 H 0.74242 0.18988 0.68465
 H3050 H 0.76991 0.23956 0.66320
 C3051 C 0.26256 0.71702 0.14336
 C3052 C 0.25472 0.69926 0.14046
 C3053 C 0.24730 0.68928 0.15562
 C3054 C 0.24746 0.69710 0.17357
 C3055 C 0.25280 0.66782 0.07379
 C3056 C 0.26276 0.72489 0.16132
 C3057 C 0.25417 0.69123 0.12195
 C3058 C 0.25362 0.68421 0.10659
 C3059 C 0.25305 0.67559 0.08879
 C3060 C 0.25508 0.71507 0.17664
 H3061 H 0.26839 0.72485 0.13172
 H3062 H 0.24124 0.67550 0.15354
 H3063 H 0.24145 0.68912 0.18499
 H3064 H 0.26872 0.73874 0.16315
 C3065 C 0.19103 0.65399 0.74602
 C3066 C 0.20107 0.63876 0.75319
 C3067 C 0.21860 0.64171 0.76149
 C3068 C 0.22617 0.65981 0.76240
 C3069 C 0.16968 0.57227 0.74744
 C3070 C 0.19854 0.67206 0.74690
 C3071 C 0.19332 0.62017 0.75185
 C3072 C 0.18638 0.60481 0.75050
 C3073 C 0.17767 0.58711 0.74882
 C3074 C 0.21626 0.67520 0.75499
 H3075 H 0.17743 0.65187 0.73960
 H3076 H 0.22649 0.63002 0.76712
 H3077 H 0.23984 0.66169 0.76871
 H3078 H 0.19050 0.68353 0.74106
 C3079 C 0.69078 0.15401 0.24536
 C3080 C 0.70094 0.13884 0.25250
 C3081 C 0.71846 0.14191 0.26077
 C3082 C 0.72589 0.16005 0.26169
 C3083 C 0.66991 0.07218 0.24687
 C3084 C 0.69815 0.17213 0.24625
 C3085 C 0.69333 0.12020 0.25115
 C3086 C 0.68649 0.10479 0.24982
 C3087 C 0.67787 0.08704 0.24818
 C3088 C 0.71587 0.17538 0.25431
 H3089 H 0.67718 0.15180 0.23897
 H3090 H 0.72644 0.13026 0.26638
 H3091 H 0.73957 0.16202 0.26797
 H3092 H 0.69003 0.18356 0.24043
 C3093 C 0.78231 0.14315 0.73593
 C3094 C 0.80023 0.14006 0.74326
 C3095 C 0.81069 0.15517 0.75014
 C3096 C 0.80316 0.17325 0.75002
 C3097 C 0.83075 0.07315 0.74809
 C3098 C 0.77473 0.16124 0.73578
 C3099 C 0.80783 0.12139 0.74417
 C3100 C 0.81456 0.10593 0.74525
 C3101 C 0.82298 0.08809 0.74675
 C3102 C 0.78499 0.17649 0.74303
 H3103 H 0.77411 0.13155 0.73055
 H3104 H 0.82459 0.15294 0.75582
 H3105 H 0.81147 0.18463 0.75569
 H3106 H 0.76073 0.16320 0.73029
 C3107 C 0.30973 0.65533 0.25096
 C3108 C 0.29939 0.64013 0.24413
 C3109 C 0.28149 0.64309 0.23668
 C3110 C 0.27383 0.66114 0.23637
 C3111 C 0.32981 0.57318 0.24953
 C3112 C 0.30212 0.67338 0.25069
 C3113 C 0.30705 0.62149 0.24521
 C3114 C 0.31379 0.60603 0.24641
 C3115 C 0.32215 0.58817 0.24805
 C3116 C 0.28398 0.67649 0.24357
 H3117 H 0.32361 0.65321 0.25674
 H3118 H 0.27337 0.63141 0.23133
 H3119 H 0.25984 0.66299 0.23080
 H3120 H 0.31035 0.68483 0.25633
 C3121 C 0.31075 0.34453 0.24816
 C3122 C 0.30049 0.35961 0.25535
 C3123 C 0.28269 0.35651 0.26297
 C3124 C 0.27503 0.33844 0.26313
 C3125 C 0.33067 0.42694 0.25313
 C3126 C 0.30314 0.32646 0.24829
 C3127 C 0.30823 0.37827 0.25469
 C3128 C 0.31495 0.39378 0.25405
 C3129 C 0.32320 0.41177 0.25341
 C3130 C 0.28510 0.32321 0.25562
 H3131 H 0.32457 0.34676 0.24228
 H3132 H 0.27464 0.36809 0.26862
 H3133 H 0.26112 0.33648 0.26887
 H3134 H 0.31130 0.31510 0.24241
 C3135 C 0.78448 0.85734 0.76187
 C3136 C 0.80217 0.86024 0.75389
 C3137 C 0.81217 0.84501 0.74666
 C3138 C 0.80445 0.82699 0.74714
 C3139 C 0.83292 0.92728 0.75087
 C3140 C 0.77671 0.83932 0.76238
 C3141 C 0.81006 0.87881 0.75297
 C3142 C 0.81692 0.89425 0.75214
 C3143 C 0.82534 0.91217 0.75129
 C3144 C 0.78655 0.82393 0.75488
 H3145 H 0.77663 0.86903 0.76756
 H3146 H 0.82590 0.84708 0.74049
 H3147 H 0.81244 0.81552 0.74124
 H3148 H 0.76291 0.83751 0.76842
 C3149 C 0.68963 0.84582 0.25231
 C3150 C 0.69961 0.86100 0.24490
 C3151 C 0.71730 0.85808 0.23695
 C3152 C 0.72509 0.84008 0.23663
 C3153 C 0.66828 0.92773 0.24721
 C3154 C 0.69737 0.82783 0.25201
 C3155 C 0.69164 0.87953 0.24558
 C3156 C 0.68465 0.89491 0.24622
 C3157 C 0.67604 0.91272 0.24689
 C3158 C 0.71527 0.82474 0.24428
 H3159 H 0.67590 0.84790 0.25845
 H3160 H 0.72512 0.86973 0.23113
 H3161 H 0.73889 0.83824 0.23058
 H3162 H 0.68939 0.81639 0.25802
 C3163 C 0.18954 0.34529 0.75022
 C3164 C 0.19957 0.36052 0.74299
 C3165 C 0.21736 0.35768 0.73524
 C3166 C 0.22522 0.33971 0.73497
 C3167 C 0.16802 0.42712 0.74567
 C3168 C 0.19735 0.32733 0.74998
 C3169 C 0.19156 0.37903 0.74370
 C3170 C 0.18452 0.39438 0.74441
 C3171 C 0.17585 0.41215 0.74521
 C3172 C 0.21536 0.32433 0.74248
 H3173 H 0.17574 0.34732 0.75621
 H3174 H 0.22522 0.36938 0.72955
 H3175 H 0.23910 0.33793 0.72910
 H3176 H 0.18934 0.31586 0.75587
 C3177 C 0.14201 0.73944 0.78138
 C3178 C 0.13896 0.74732 0.79908
 C3179 C 0.15413 0.75415 0.80945
 C3180 C 0.17226 0.75332 0.80212
 C3181 C 0.07238 0.75276 0.83012
 C3182 C 0.16016 0.73858 0.77399
 C3183 C 0.12033 0.74860 0.80668
 C3184 C 0.10494 0.74987 0.81352
 C3185 C 0.08722 0.75146 0.82215
 C3186 C 0.17550 0.74563 0.78424
 H3187 H 0.13036 0.73408 0.77324
 H3188 H 0.15193 0.76025 0.82319
 H3189 H 0.18369 0.75888 0.81042
 H3190 H 0.16213 0.73259 0.76019
 C3191 C 0.64150 0.24012 0.28077
 C3192 C 0.63853 0.24814 0.29842
 C3193 C 0.65376 0.25489 0.30875
 C3194 C 0.67187 0.25388 0.30140
 C3195 C 0.57187 0.25429 0.32920
 C3196 C 0.65963 0.23907 0.27337
 C3197 C 0.61989 0.24964 0.30600
 C3198 C 0.60450 0.25109 0.31279
 C3199 C 0.58675 0.25287 0.32133
 C3200 C 0.67504 0.24607 0.28356
 H3201 H 0.62980 0.23481 0.27267
 H3202 H 0.65162 0.26109 0.32244
 H3203 H 0.68336 0.25940 0.30965
 H3204 H 0.66154 0.23300 0.25959
 C3205 C 0.64282 0.76486 0.21827
 C3206 C 0.63969 0.75749 0.20037
 C3207 C 0.65478 0.75070 0.18985
 C3208 C 0.67288 0.75094 0.19731
 C3209 C 0.57258 0.75201 0.17040
 C3210 C 0.66093 0.76513 0.22577
 C3211 C 0.62099 0.75641 0.19287
 C3212 C 0.60549 0.75519 0.18625
 C3213 C 0.58759 0.75352 0.17800
 C3214 C 0.67616 0.75797 0.21546
 H3215 H 0.63123 0.77017 0.22652
 H3216 H 0.65251 0.74499 0.17597
 H3217 H 0.68424 0.74534 0.18895
 H3218 H 0.66292 0.77064 0.23977
 C3219 C 0.15473 0.24826 0.68882
 C3220 C 0.13961 0.25542 0.69903
 C3221 C 0.14266 0.26326 0.71674
 C3222 C 0.16074 0.26368 0.72435
 C3223 C 0.07267 0.25031 0.66856
 C3224 C 0.17279 0.24864 0.69637
 C3225 C 0.12097 0.25437 0.69137
 C3226 C 0.10552 0.25321 0.68463
 C3227 C 0.08766 0.25167 0.67624
 C3228 C 0.17601 0.25621 0.71432
 H3229 H 0.15253 0.24218 0.67508
 H3230 H 0.13106 0.26887 0.72476
 H3231 H 0.16267 0.26960 0.73819
 H3232 H 0.18418 0.24278 0.68824
 C3233 C 0.84570 0.25199 0.69044
 C3234 C 0.86085 0.24466 0.70048
 C3235 C 0.85786 0.23668 0.71815
 C3236 C 0.83984 0.23629 0.72588
 C3237 C 0.92772 0.24732 0.66950
 C3238 C 0.82769 0.25163 0.69812
 C3239 C 0.87942 0.24546 0.69261
 C3240 C 0.89483 0.24621 0.68572
 C3241 C 0.91269 0.24697 0.67721
 C3242 C 0.82454 0.24391 0.71601
 H3243 H 0.84784 0.25815 0.67672
 H3244 H 0.86948 0.23091 0.72603
 H3245 H 0.83796 0.23025 0.73967
 H3246 H 0.81628 0.25762 0.69010
 C3247 C 0.35655 0.73671 0.21828
 C3248 C 0.35956 0.74458 0.20056
 C3249 C 0.34442 0.75180 0.19043
 C3250 C 0.32638 0.75143 0.19806
 C3251 C 0.42660 0.74744 0.16996
 C3252 C 0.33851 0.73632 0.22596
 C3253 C 0.37816 0.74541 0.19276
 C3254 C 0.39360 0.74619 0.18595
 C3255 C 0.41151 0.74701 0.17756
 C3256 C 0.32321 0.74383 0.21600
 H3257 H 0.36817 0.73103 0.22623
 H3258 H 0.34657 0.75787 0.17668
 H3259 H 0.31498 0.75733 0.18997
 H3260 H 0.33661 0.73037 0.23979
 C3261 C 0.35743 0.26329 0.28083
 C3262 C 0.36032 0.25538 0.29854
 C3263 C 0.34516 0.24787 0.30845
 C3264 C 0.32722 0.24803 0.30062
 C3265 C 0.42678 0.25357 0.33039
 C3266 C 0.33948 0.26348 0.27294
 C3267 C 0.37880 0.25485 0.30662
 C3268 C 0.39412 0.25432 0.31372
 C3269 C 0.41185 0.25378 0.32248
 C3270 C 0.32416 0.25572 0.28270
 H3271 H 0.36907 0.26920 0.27306
 H3272 H 0.34722 0.24177 0.32220
 H3273 H 0.31579 0.24195 0.30855
 H3274 H 0.33765 0.26950 0.25913
 C3275 C 0.84559 0.74958 0.81056
 C3276 C 0.86089 0.75644 0.80040
 C3277 C 0.85816 0.76373 0.78239
 C3278 C 0.84023 0.76389 0.77446
 C3279 C 0.92739 0.75393 0.83208
 C3280 C 0.82767 0.74972 0.80268
 C3281 C 0.87936 0.75579 0.80847
 C3282 C 0.89469 0.75511 0.81554
 C3283 C 0.91243 0.75435 0.82424
 C3284 C 0.82477 0.75673 0.78445
 H3285 H 0.84753 0.74395 0.82453
 H3286 H 0.86991 0.76912 0.77442
 H3287 H 0.83854 0.76939 0.76042
 H3288 H 0.81613 0.74411 0.81080
   
