data_POSCAR
  _audit_creation_date              2014-09-24
  _audit_creation_method            'ToBaCCo'
  _symmetry_space_group_name_H-M    'P1'
  _symmetry_Int_Tables_number       1
  _symmetry_cell_setting            triclinic
  loop_
  _symmetry_equiv_pos_as_xyz
 x,y,z
_cell_length_a 94.9671
_cell_length_b 95.8898
_cell_length_c 95.8113
_cell_angle_alpha 89.939900
_cell_angle_beta 89.926800
_cell_angle_gamma 90.087800
loop_
  _atom_site_label
  _atom_site_type_symbol
  _atom_site_fract_x
  _atom_site_fract_y
  _atom_site_fract_z
N1 N 0.37729 0.33486 0.34271
 N2 N 0.37938 0.34625 0.33535
 C3 C 0.39017 0.34416 0.32647
 C4 C 0.39506 0.33072 0.32839
 C5 C 0.38667 0.32512 0.33878
 H6 H 0.39380 0.35162 0.31878
 H7 H 0.38700 0.31457 0.34279
 Cu8 Cu 0.36690 0.36217 0.33707
 Cu9 Cu 0.36170 0.33305 0.35580
 Cu10 Cu 0.34375 0.36358 0.36349
 N11 N 0.35150 0.37548 0.33710
 N12 N 0.34250 0.37616 0.34752
 C13 C 0.33296 0.38617 0.34482
 C14 C 0.33612 0.39198 0.33196
 C15 C 0.34795 0.38496 0.32736
 H16 H 0.32419 0.38878 0.35154
 H17 H 0.35340 0.38646 0.31755
 N18 N 0.34219 0.34657 0.37494
 N19 N 0.34878 0.33487 0.37181
 C20 C 0.34508 0.32498 0.38109
 C21 C 0.33564 0.33069 0.39044
 C22 C 0.33404 0.34441 0.38627
 H23 H 0.34877 0.31431 0.38092
 H24 H 0.32714 0.35211 0.39087
 H25 H 0.34849 0.34908 0.34908
 H26 H 0.36337 0.35357 0.36095
 N27 N 0.37979 0.83440 -0.15444
 N28 N 0.38009 0.84403 -0.16423
 C29 C 0.39043 0.84097 -0.17337
 C30 C 0.39684 0.82874 -0.16907
 C31 C 0.38989 0.82492 -0.15697
 H32 H 0.39273 0.84682 -0.18277
 H33 H 0.39161 0.81559 -0.15085
 Cu34 Cu 0.36596 0.85874 -0.16462
 Cu35 Cu 0.36519 0.83390 -0.14018
 Cu36 Cu 0.34177 0.86157 -0.13911
 N37 N 0.35190 0.87348 -0.16488
 N38 N 0.34262 0.87462 -0.15474
 C39 C 0.33368 0.88509 -0.15773
 C40 C 0.33752 0.89074 -0.17047
 C41 C 0.34916 0.88318 -0.17470
 H42 H 0.32471 0.88798 -0.15141
 H43 H 0.35486 0.88434 -0.18441
 N44 N 0.34264 0.84705 -0.12448
 N45 N 0.35155 0.83650 -0.12494
 C46 C 0.34885 0.82784 -0.11420
 C47 C 0.33765 0.83311 -0.10671
 C48 C 0.33398 0.84531 -0.11346
 H49 H 0.35416 0.81805 -0.11232
 H50 H 0.32519 0.85201 -0.11092
 H51 H 0.34951 0.84528 -0.15037
 H52 H 0.36255 0.85522 -0.13974
 N53 N 0.87695 0.33423 -0.15199
 N54 N 0.87748 0.34266 -0.16283
 C55 C 0.88826 0.33882 -0.17112
 C56 C 0.89473 0.32735 -0.16521
 C57 C 0.88732 0.32473 -0.15306
 H58 H 0.89084 0.34360 -0.18102
 H59 H 0.88894 0.31615 -0.14591
 Cu60 Cu 0.86339 0.35711 -0.16590
 Cu61 Cu 0.86176 0.33517 -0.13841
 Cu62 Cu 0.83881 0.36280 -0.14123
 N63 N 0.85119 0.37345 -0.16633
 N64 N 0.84189 0.37585 -0.15644
 C65 C 0.83432 0.38722 -0.15981
 C66 C 0.83904 0.39212 -0.17256
 C67 C 0.84985 0.38322 -0.17635
 H68 H 0.82549 0.39113 -0.15385
 H69 H 0.85582 0.38349 -0.18597
 N70 N 0.83842 0.34976 -0.12535
 N71 N 0.84719 0.33914 -0.12429
 C72 C 0.84353 0.33140 -0.11311
 C73 C 0.83188 0.33741 -0.10693
 C74 C 0.82895 0.34905 -0.11490
 H75 H 0.84847 0.32170 -0.11010
 H76 H 0.82010 0.35601 -0.11359
 H77 H 0.84679 0.34506 -0.15035
 H78 H 0.85957 0.35640 -0.14084
 N79 N 0.87785 0.83595 0.34133
 N80 N 0.87725 0.84574 0.33173
 C81 C 0.88733 0.84338 0.32210
 C82 C 0.89457 0.83147 0.32590
 C83 C 0.88832 0.82704 0.33816
 H84 H 0.88892 0.84947 0.31273
 H85 H 0.89078 0.81769 0.34398
 Cu86 Cu 0.86251 0.85983 0.33218
 Cu87 Cu 0.86394 0.83458 0.35622
 Cu88 Cu 0.83955 0.86131 0.35893
 N89 N 0.84791 0.87402 0.33295
 N90 N 0.83910 0.87466 0.34354
 C91 C 0.82969 0.88490 0.34118
 C92 C 0.83275 0.89092 0.32840
 C93 C 0.84442 0.88382 0.32349
 H94 H 0.82096 0.88740 0.34798
 H95 H 0.84963 0.88539 0.31357
 N96 N 0.84168 0.84659 0.37322
 N97 N 0.85089 0.83634 0.37212
 C98 C 0.84898 0.82739 0.38280
 C99 C 0.83800 0.83217 0.39093
 C100 C 0.83363 0.84438 0.38461
 H101 H 0.85470 0.81775 0.38424
 H102 H 0.82478 0.85075 0.38770
 H103 H 0.84735 0.84550 0.34702
 H104 H 0.86054 0.85577 0.35715
 N105 N 0.62452 0.66303 0.35055
 N106 N 0.62511 0.65326 0.34094
 C107 C 0.61483 0.65550 0.33151
 C108 C 0.60748 0.66729 0.33546
 C109 C 0.61386 0.67177 0.34760
 H110 H 0.61320 0.64942 0.32215
 H111 H 0.61137 0.68109 0.35344
 Cu112 Cu 0.64011 0.63945 0.34121
 Cu113 Cu 0.63856 0.66471 0.36526
 Cu114 Cu 0.66555 0.64030 0.36543
 N115 N 0.65518 0.62572 0.34127
 N116 N 0.66509 0.62611 0.35085
 C117 C 0.67462 0.61608 0.34818
 C118 C 0.67047 0.60906 0.33629
 C119 C 0.65809 0.61540 0.33218
 H120 H 0.68411 0.61433 0.35414
 H121 H 0.65198 0.61299 0.32298
 N122 N 0.66410 0.65548 0.37925
 N123 N 0.65377 0.66470 0.37923
 C124 C 0.65622 0.67423 0.38925
 C125 C 0.66867 0.67088 0.39585
 C126 C 0.67338 0.65893 0.38931
 H127 H 0.64978 0.68331 0.39122
 H128 H 0.68316 0.65354 0.39134
 H129 H 0.65490 0.65548 0.35438
 H130 H 0.64417 0.64390 0.36588
 N131 N 0.62201 0.16375 -0.14904
 N132 N 0.62296 0.15544 -0.15991
 C133 C 0.61298 0.15893 -0.16924
 C134 C 0.60537 0.16999 -0.16388
 C135 C 0.61132 0.17275 -0.15102
 H136 H 0.61165 0.15416 -0.17938
 H137 H 0.60845 0.18099 -0.14386
 Cu138 Cu 0.63789 0.14163 -0.16110
 Cu139 Cu 0.63517 0.16273 -0.13344
 Cu140 Cu 0.66599 0.14457 -0.14060
 N141 N 0.65260 0.12751 -0.16135
 N142 N 0.66362 0.12880 -0.15315
 C143 C 0.67296 0.11871 -0.15612
 C144 C 0.66754 0.11070 -0.16683
 C145 C 0.65454 0.11649 -0.16985
 H146 H 0.68322 0.11774 -0.15133
 H147 H 0.64742 0.11335 -0.17807
 N148 N 0.66405 0.15749 -0.12480
 N149 N 0.65228 0.16421 -0.12188
 C150 C 0.65453 0.17257 -0.11081
 C151 C 0.66835 0.17095 -0.10659
 C152 C 0.67405 0.16130 -0.11564
 H153 H 0.64686 0.17970 -0.10649
 H154 H 0.68482 0.15763 -0.11577
 H155 H 0.65071 0.15885 -0.14739
 H156 H 0.64513 0.14348 -0.13678
 N157 N 0.12084 0.66612 -0.14969
 N158 N 0.12149 0.65701 -0.15991
 C159 C 0.11056 0.65910 -0.16861
 C160 C 0.10276 0.67017 -0.16361
 C161 C 0.10953 0.67436 -0.15156
 H162 H 0.10888 0.65357 -0.17830
 H163 H 0.10695 0.68331 -0.14520
 Cu164 Cu 0.13738 0.64436 -0.16200
 Cu165 Cu 0.13605 0.66810 -0.13632
 Cu166 Cu 0.16348 0.64463 -0.13816
 N167 N 0.15143 0.62962 -0.16111
 N168 N 0.16156 0.62968 -0.15177
 C169 C 0.17031 0.61892 -0.15428
 C170 C 0.16538 0.61178 -0.16582
 C171 C 0.15336 0.61881 -0.16985
 H172 H 0.17989 0.61683 -0.14857
 H173 H 0.14689 0.61655 -0.17886
 N174 N 0.16193 0.65877 -0.12327
 N175 N 0.15131 0.66761 -0.12246
 C176 C 0.15361 0.67646 -0.11179
 C177 C 0.16629 0.67306 -0.10566
 C178 C 0.17127 0.66178 -0.11313
 H179 H 0.14693 0.68516 -0.10908
 H180 H 0.18125 0.65656 -0.11164
 H181 H 0.15228 0.66001 -0.14809
 H182 H 0.14210 0.64731 -0.13729
 N183 N 0.12420 0.16294 0.34726
 N184 N 0.12572 0.15339 0.33754
 C185 C 0.11511 0.15451 0.32832
 C186 C 0.10656 0.16539 0.33244
 C187 C 0.11259 0.17050 0.34453
 H188 H 0.11409 0.14838 0.31890
 H189 H 0.10924 0.17953 0.35039
 Cu190 Cu 0.14217 0.14137 0.33683
 Cu191 Cu 0.13854 0.16603 0.36141
 Cu192 Cu 0.16609 0.14256 0.36265
 N193 N 0.15609 0.12674 0.33934
 N194 N 0.16545 0.12718 0.34943
 C195 C 0.17448 0.11646 0.34792
 C196 C 0.17052 0.10893 0.33626
 C197 C 0.15879 0.11570 0.33111
 H198 H 0.18362 0.11466 0.35439
 H199 H 0.15308 0.11314 0.32169
 N200 N 0.16333 0.15724 0.37681
 N201 N 0.15277 0.16618 0.37637
 C202 C 0.15426 0.17544 0.38682
 C203 C 0.16634 0.17219 0.39413
 C204 C 0.17180 0.16058 0.38757
 H205 H 0.14745 0.18428 0.38863
 H206 H 0.18155 0.15535 0.39009
 H207 H 0.15572 0.15764 0.35140
 H208 H 0.14462 0.14533 0.36171
 N209 N 0.62250 0.33484 0.65441
 N210 N 0.62147 0.34510 0.66346
 C211 C 0.61029 0.34274 0.67181
 C212 C 0.60408 0.33033 0.66776
 C213 C 0.61207 0.32562 0.65668
 H214 H 0.60734 0.34912 0.68064
 H215 H 0.61087 0.31584 0.65119
 Cu216 Cu 0.63610 0.35930 0.66439
 Cu217 Cu 0.63843 0.33312 0.64173
 Cu218 Cu 0.65780 0.36357 0.63717
 N219 N 0.65042 0.37380 0.66443
 N220 N 0.65894 0.37540 0.65370
 C221 C 0.66818 0.38567 0.65651
 C222 C 0.66537 0.39066 0.66976
 C223 C 0.65403 0.38293 0.67448
 H224 H 0.67661 0.38892 0.64963
 H225 H 0.64910 0.38362 0.68464
 N226 N 0.65897 0.34752 0.62433
 N227 N 0.65174 0.33589 0.62624
 C228 C 0.65547 0.32659 0.61641
 C229 C 0.66562 0.33259 0.60801
 C230 C 0.66760 0.34586 0.61329
 H231 H 0.65145 0.31606 0.61570
 H232 H 0.67517 0.35352 0.60971
 H233 H 0.65323 0.34723 0.64983
 H234 H 0.63803 0.35404 0.63958
 N235 N 0.62651 0.83256 1.15112
 N236 N 0.62554 0.84143 1.16154
 C237 C 0.61483 0.83753 1.16991
 C238 C 0.60886 0.82556 1.16447
 C239 C 0.61649 0.82270 1.15253
 H240 H 0.61191 0.84266 1.17953
 H241 H 0.61523 0.81379 1.14574
 Cu242 Cu 0.63888 0.85676 1.16378
 Cu243 Cu 0.64170 0.83364 1.13754
 Cu244 Cu 0.66475 0.86128 1.14014
 N245 N 0.65152 0.87279 1.16443
 N246 N 0.66141 0.87470 1.15499
 C247 C 0.66900 0.88607 1.15835
 C248 C 0.66360 0.89155 1.17057
 C249 C 0.65250 0.88291 1.17412
 H250 H 0.67820 0.88969 1.15274
 H251 H 0.64603 0.88365 1.18338
 N252 N 0.66524 0.84797 1.12447
 N253 N 0.65634 0.83743 1.12344
 C254 C 0.65988 0.82965 1.11228
 C255 C 0.67161 0.83553 1.10607
 C256 C 0.67470 0.84716 1.11400
 H257 H 0.65478 0.82003 1.10927
 H258 H 0.68357 0.85410 1.11260
 H259 H 0.65616 0.84405 1.14976
 H260 H 0.64403 0.85501 1.13905
 N261 N 0.12490 0.33541 1.15552
 N262 N 0.12431 0.34506 1.16526
 C263 C 0.11365 0.34209 1.17404
 C264 C 0.10728 0.32992 1.16962
 C265 C 0.11465 0.32596 1.15782
 H266 H 0.11101 0.34800 1.18328
 H267 H 0.11302 0.31661 1.15171
 Cu268 Cu 0.13810 0.36007 1.16617
 Cu269 Cu 0.13983 0.33521 1.14153
 Cu270 Cu 0.16356 0.36251 1.14202
 N271 N 0.15157 0.37541 1.16622
 N272 N 0.16137 0.37650 1.15657
 C273 C 0.16975 0.38742 1.15957
 C274 C 0.16493 0.39346 1.17176
 C275 C 0.15337 0.38563 1.17568
 H276 H 0.17907 0.39032 1.15376
 H277 H 0.14719 0.38690 1.18508
 N278 N 0.16314 0.34856 1.12694
 N279 N 0.15414 0.33804 1.12679
 C280 C 0.15716 0.32972 1.11587
 C281 C 0.16863 0.33524 1.10890
 C282 C 0.17211 0.34719 1.11613
 H283 H 0.15184 0.32003 1.11350
 H284 H 0.18095 0.35400 1.11403
 H285 H 0.15473 0.34600 1.15277
 H286 H 0.14262 0.35646 1.14156
 N287 N 0.12474 0.83352 0.65278
 N288 N 0.12286 0.84371 0.66177
 C289 C 0.11138 0.84091 0.66957
 C290 C 0.10587 0.82827 0.66524
 C291 C 0.11458 0.82389 0.65455
 H292 H 0.10778 0.84714 0.67827
 H293 H 0.11404 0.81408 0.64902
 Cu294 Cu 0.13694 0.85836 0.66347
 Cu295 Cu 0.14139 0.83247 0.64091
 Cu296 Cu 0.15974 0.86371 0.63739
 N297 N 0.15081 0.87325 0.66448
 N298 N 0.15974 0.87533 0.65417
 C299 C 0.16851 0.88583 0.65760
 C300 C 0.16496 0.89042 0.67083
 C301 C 0.15368 0.88223 0.67488
 H302 H 0.17711 0.88951 0.65115
 H303 H 0.14829 0.88253 0.68482
 N304 N 0.16221 0.84774 0.62457
 N305 N 0.15541 0.83581 0.62615
 C306 C 0.16002 0.82668 0.61654
 C307 C 0.17029 0.83310 0.60860
 C308 C 0.17143 0.84646 0.61393
 H309 H 0.15648 0.81600 0.61563
 H310 H 0.17878 0.85445 0.61066
 H311 H 0.15524 0.84712 0.64971
 H312 H 0.14031 0.85334 0.63875
 N313 N 0.37498 0.66309 0.64985
 N314 N 0.37590 0.65343 0.65955
 C315 C 0.38694 0.65634 0.66789
 C316 C 0.39320 0.66849 0.66314
 C317 C 0.38538 0.67247 0.65167
 H318 H 0.38983 0.65049 0.67710
 H319 H 0.38675 0.68185 0.64552
 Cu320 Cu 0.36162 0.63890 0.66105
 Cu321 Cu 0.35939 0.66370 0.63666
 Cu322 Cu 0.33569 0.63615 0.63738
 N323 N 0.34737 0.62438 0.66251
 N324 N 0.33737 0.62326 0.65308
 C325 C 0.32841 0.61306 0.65691
 C326 C 0.33301 0.60754 0.66943
 C327 C 0.34507 0.61493 0.67269
 H328 H 0.31890 0.61030 0.65137
 H329 H 0.35132 0.61388 0.68205
 N330 N 0.33577 0.65048 0.62256
 N331 N 0.34475 0.66101 0.62235
 C332 C 0.34154 0.66947 0.61159
 C333 C 0.32993 0.66409 0.60481
 C334 C 0.32655 0.65204 0.61199
 H335 H 0.34685 0.67917 0.60920
 H336 H 0.31765 0.64528 0.61002
 H337 H 0.34436 0.65249 0.64799
 H338 H 0.35654 0.64245 0.63648
 N339 N 0.37502 0.15732 1.15113
 N340 N 0.37352 0.14830 1.16139
 C341 C 0.38331 0.15086 1.17121
 C342 C 0.39140 0.16205 1.16684
 C343 C 0.38590 0.16586 1.15403
 H344 H 0.38420 0.14536 1.18103
 H345 H 0.38922 0.17450 1.14754
 Cu346 Cu 0.35820 0.13483 1.16124
 Cu347 Cu 0.36226 0.15770 1.13513
 Cu348 Cu 0.33083 0.13971 1.14020
 N349 N 0.34308 0.12113 1.16031
 N350 N 0.33235 0.12319 1.15190
 C351 C 0.32259 0.11325 1.15413
 C352 C 0.32746 0.10450 1.16451
 C353 C 0.34052 0.10976 1.16819
 H354 H 0.31239 0.11290 1.14914
 H355 H 0.34722 0.10604 1.17651
 N356 N 0.33358 0.15351 1.12525
 N357 N 0.34554 0.16023 1.12312
 C358 C 0.34382 0.16921 1.11241
 C359 C 0.33015 0.16795 1.10759
 C360 C 0.32400 0.15789 1.11592
 H361 H 0.35176 0.17640 1.10868
 H362 H 0.31322 0.15428 1.11541
 H363 H 0.34622 0.15320 1.14830
 H364 H 0.35180 0.13847 1.13688
 N365 N 0.87279 0.66002 1.15195
 N366 N 0.87167 0.65039 1.16167
 C367 C 0.88234 0.65187 1.17080
 C368 C 0.89052 0.66305 1.16659
 C369 C 0.88419 0.66796 1.15457
 H370 H 0.88373 0.64569 1.18014
 H371 H 0.88724 0.67707 1.14861
 Cu372 Cu 0.85573 0.63761 1.16238
 Cu373 Cu 0.85836 0.66260 1.13778
 Cu374 Cu 0.83231 0.63753 1.13610
 N375 N 0.84213 0.62256 1.16001
 N376 N 0.83312 0.62243 1.14961
 C377 C 0.82423 0.61159 1.15122
 C378 C 0.82787 0.60458 1.16329
 C379 C 0.83931 0.61177 1.16858
 H380 H 0.81528 0.60946 1.14459
 H381 H 0.84466 0.60971 1.17832
 N382 N 0.83440 0.65230 1.12195
 N383 N 0.84431 0.66195 1.12263
 C384 C 0.84235 0.67119 1.11220
 C385 C 0.83062 0.66717 1.10469
 C386 C 0.82588 0.65514 1.11109
 H387 H 0.84857 0.68050 1.11056
 H388 H 0.81652 0.64930 1.10841
 H389 H 0.84161 0.65317 1.14758
 H390 H 0.85367 0.64165 1.13744
 N391 N 0.87635 0.16171 0.65182
 N392 N 0.87506 0.15178 0.66121
 C393 C 0.88483 0.15370 0.67123
 C394 C 0.89262 0.16545 0.66787
 C395 C 0.88699 0.17023 0.65549
 H396 H 0.88589 0.14738 0.68052
 H397 H 0.89001 0.17958 0.64991
 Cu398 Cu 0.86007 0.13791 0.66001
 Cu399 Cu 0.86327 0.16388 0.63643
 Cu400 Cu 0.83544 0.14067 0.63472
 N401 N 0.84396 0.12532 0.65903
 N402 N 0.83442 0.12644 0.64916
 C403 C 0.82418 0.11696 0.65139
 C404 C 0.82747 0.10953 0.66329
 C405 C 0.84009 0.11507 0.66789
 H406 H 0.81482 0.11583 0.64507
 H407 H 0.84577 0.11213 0.67721
 N408 N 0.83827 0.15576 0.62102
 N409 N 0.84898 0.16452 0.62162
 C410 C 0.84752 0.17419 0.61152
 C411 C 0.83528 0.17142 0.60428
 C412 C 0.82969 0.15964 0.61051
 H413 H 0.85443 0.18303 0.60997
 H414 H 0.81978 0.15470 0.60798
 H415 H 0.84633 0.15489 0.64683
 H416 H 0.85696 0.14323 0.63527
 N417 N 0.33398 0.37766 0.65777
 N418 N 0.34447 0.37810 0.66671
 C419 C 0.34260 0.38903 0.67535
 C420 C 0.33026 0.39571 0.67160
 C421 C 0.32509 0.38824 0.66040
 H422 H 0.34924 0.39150 0.68417
 H423 H 0.31521 0.38991 0.65505
 Cu424 Cu 0.35826 0.36311 0.66713
 Cu425 Cu 0.33152 0.36228 0.64474
 Cu426 Cu 0.36124 0.34173 0.63970
 N427 N 0.37228 0.34838 0.66686
 N428 N 0.37335 0.33995 0.65608
 C429 C 0.38344 0.33043 0.65866
 C430 C 0.38888 0.33299 0.67180
 C431 C 0.38158 0.34445 0.67670
 H432 H 0.38632 0.32206 0.65166
 H433 H 0.38273 0.34930 0.68682
 N434 N 0.34491 0.34157 0.62695
 N435 N 0.33357 0.34927 0.62902
 C436 C 0.32402 0.34635 0.61909
 C437 C 0.32954 0.33624 0.61042
 C438 C 0.34279 0.33344 0.61568
 H439 H 0.31365 0.35093 0.61842
 H440 H 0.35013 0.32570 0.61187
 H441 H 0.34512 0.34689 0.65253
 H442 H 0.35266 0.36172 0.64235
 N443 N 0.33841 0.87738 0.15747
 N444 N 0.34773 0.87590 0.16750
 C445 C 0.34575 0.88601 0.17705
 C446 C 0.33458 0.89417 0.17278
 C447 C 0.33019 0.88844 0.16030
 H448 H 0.35153 0.88700 0.18672
 H449 H 0.32118 0.89161 0.15417
 Cu450 Cu 0.36086 0.86030 0.16783
 Cu451 Cu 0.33635 0.86359 0.14277
 Cu452 Cu 0.35973 0.83616 0.14228
 N453 N 0.37484 0.84551 0.16642
 N454 N 0.37452 0.83623 0.15632
 C455 C 0.38491 0.82690 0.15833
 C456 C 0.39210 0.83055 0.17032
 C457 C 0.38548 0.84241 0.17517
 H458 H 0.38675 0.81783 0.15189
 H459 H 0.38794 0.84804 0.18463
 N460 N 0.34565 0.83920 0.12745
 N461 N 0.33678 0.84979 0.12759
 C462 C 0.32785 0.84852 0.11675
 C463 C 0.33123 0.83655 0.10951
 C464 C 0.34260 0.83092 0.11651
 H465 H 0.31907 0.85538 0.11466
 H466 H 0.34779 0.82117 0.11417
 H467 H 0.34461 0.84673 0.15339
 H468 H 0.35729 0.85741 0.14294
 N469 N 0.83717 0.37600 0.15698
 N470 N 0.84751 0.37558 0.16610
 C471 C 0.84548 0.38561 0.17574
 C472 C 0.83321 0.39264 0.17244
 C473 C 0.82825 0.38630 0.16047
 H474 H 0.85201 0.38728 0.18482
 H475 H 0.81851 0.38857 0.15509
 Cu476 Cu 0.86153 0.36082 0.16513
 Cu477 Cu 0.83497 0.36192 0.14244
 Cu478 Cu 0.86401 0.34055 0.13688
 N479 N 0.87560 0.34613 0.16404
 N480 N 0.87632 0.33809 0.15295
 C481 C 0.88648 0.32851 0.15483
 C482 C 0.89238 0.33062 0.16782
 C483 C 0.88525 0.34187 0.17341
 H484 H 0.88916 0.32044 0.14741
 H485 H 0.88678 0.34637 0.18364
 N486 N 0.84771 0.34123 0.12418
 N487 N 0.83668 0.34935 0.12625
 C488 C 0.82703 0.34673 0.11629
 C489 C 0.83220 0.33638 0.10768
 C490 C 0.84532 0.33315 0.11295
 H491 H 0.81677 0.35155 0.11567
 H492 H 0.85231 0.32505 0.10927
 H493 H 0.84775 0.34574 0.14988
 H494 H 0.85600 0.36057 0.14030
 N495 N 0.83739 0.88031 0.65753
 N496 N 0.84829 0.88016 0.66599
 C497 C 0.84729 0.89096 0.67491
 C498 C 0.83508 0.89818 0.67190
 C499 C 0.82907 0.89117 0.66079
 H500 H 0.85443 0.89297 0.68346
 H501 H 0.81902 0.89334 0.65596
 Cu502 Cu 0.86146 0.86468 0.66559
 Cu503 Cu 0.83381 0.86530 0.64428
 Cu504 Cu 0.86271 0.84408 0.63749
 N505 N 0.87487 0.84947 0.66442
 N506 N 0.87528 0.84135 0.65337
 C507 C 0.88509 0.83141 0.65533
 C508 C 0.89102 0.83339 0.66835
 C509 C 0.88432 0.84493 0.67383
 H510 H 0.88744 0.82316 0.64800
 H511 H 0.88595 0.84941 0.68405
 N512 N 0.84587 0.84471 0.62545
 N513 N 0.83480 0.85256 0.62819
 C514 C 0.82473 0.84998 0.61866
 C515 C 0.82966 0.83994 0.60957
 C516 C 0.84309 0.83683 0.61414
 H517 H 0.81441 0.85473 0.61857
 H518 H 0.85009 0.82903 0.60988
 H519 H 0.84721 0.84929 0.65109
 H520 H 0.85476 0.86419 0.64104
 N521 N 0.66866 0.62255 0.65140
 N522 N 0.65929 0.62289 0.66150
 C523 C 0.66143 0.61199 0.67009
 C524 C 0.67281 0.60450 0.66515
 C525 C 0.67712 0.61144 0.65324
 H526 H 0.65567 0.61005 0.67964
 H527 H 0.68623 0.60906 0.64690
 Cu528 Cu 0.64616 0.63833 0.66354
 Cu529 Cu 0.67040 0.63765 0.63796
 Cu530 Cu 0.64500 0.66334 0.63892
 N531 N 0.63064 0.65151 0.66244
 N532 N 0.63010 0.66119 0.65272
 C533 C 0.61893 0.66950 0.65514
 C534 C 0.61216 0.66475 0.66702
 C535 C 0.61982 0.65330 0.67135
 H536 H 0.61637 0.67873 0.64918
 H537 H 0.61802 0.64717 0.68066
 N538 N 0.65948 0.66234 0.62415
 N539 N 0.66917 0.65248 0.62378
 C540 C 0.67810 0.65511 0.61316
 C541 C 0.67386 0.66722 0.60660
 C542 C 0.66200 0.67151 0.61378
 H543 H 0.68738 0.64906 0.61074
 H544 H 0.65606 0.68094 0.61193
 H545 H 0.66120 0.65351 0.64916
 H546 H 0.64917 0.64226 0.63869
 N547 N 0.66711 0.12515 0.15041
 N548 N 0.65620 0.12315 0.15865
 C549 C 0.65867 0.11200 0.16685
 C550 C 0.67187 0.10684 0.16361
 C551 C 0.67693 0.11542 0.15313
 H552 H 0.65172 0.10831 0.17501
 H553 H 0.68720 0.11498 0.14826
 Cu554 Cu 0.64075 0.13644 0.15891
 Cu555 Cu 0.66833 0.14116 0.13786
 Cu556 Cu 0.63609 0.15684 0.13102
 N557 N 0.62502 0.14937 0.15792
 N558 N 0.62324 0.15735 0.14690
 C559 C 0.61219 0.16585 0.14906
 C560 C 0.60687 0.16315 0.16223
 C561 C 0.61522 0.15261 0.16756
 H562 H 0.60872 0.17383 0.14187
 H563 H 0.61458 0.14810 0.17789
 N564 N 0.65291 0.15969 0.11930
 N565 N 0.66526 0.15404 0.12211
 C566 C 0.67487 0.15906 0.11306
 C567 C 0.66826 0.16839 0.10425
 C568 C 0.65435 0.16851 0.10845
 H569 H 0.68597 0.15653 0.11321
 H570 H 0.64605 0.17508 0.10439
 H571 H 0.65217 0.15433 0.14480
 H572 H 0.64766 0.13846 0.13447
 N573 N 0.16783 0.62377 0.15285
 N574 N 0.15670 0.62263 0.16095
 C575 C 0.15850 0.61174 0.16966
 C576 C 0.17148 0.60583 0.16686
 C577 C 0.17711 0.61370 0.15613
 H578 H 0.15128 0.60876 0.17788
 H579 H 0.18745 0.61262 0.15151
 Cu580 Cu 0.14200 0.63673 0.16034
 Cu581 Cu 0.17029 0.63929 0.13994
 Cu582 Cu 0.13944 0.65714 0.13214
 N583 N 0.12707 0.65050 0.15875
 N584 N 0.12616 0.65854 0.14765
 C585 C 0.11546 0.66758 0.14939
 C586 C 0.10946 0.66514 0.16232
 C587 C 0.11705 0.65422 0.16797
 H588 H 0.11263 0.67566 0.14202
 H589 H 0.11570 0.64970 0.17823
 N590 N 0.15667 0.65848 0.12069
 N591 N 0.16846 0.65192 0.12385
 C592 C 0.17857 0.65575 0.11477
 C593 C 0.17290 0.66527 0.10555
 C594 C 0.15900 0.66676 0.10956
 H595 H 0.18938 0.65225 0.11512
 H596 H 0.15134 0.67381 0.10510
 H597 H 0.15491 0.65365 0.14627
 H598 H 0.14949 0.63802 0.13603
 N599 N 0.16729 0.12269 0.65356
 N600 N 0.15693 0.12214 0.66267
 C601 C 0.15914 0.11134 0.67142
 C602 C 0.17156 0.10487 0.66757
 C603 C 0.17643 0.11231 0.65619
 H604 H 0.15262 0.10877 0.68031
 H605 H 0.18624 0.11069 0.65068
 Cu606 Cu 0.14244 0.13649 0.66288
 Cu607 Cu 0.16907 0.13787 0.64016
 Cu608 Cu 0.14183 0.16190 0.63870
 N609 N 0.12797 0.15082 0.66311
 N610 N 0.12770 0.16064 0.65351
 C611 C 0.11725 0.16965 0.65649
 C612 C 0.11066 0.16524 0.66859
 C613 C 0.11769 0.15325 0.67250
 H614 H 0.11500 0.17904 0.65064
 H615 H 0.11580 0.14713 0.68180
 N616 N 0.15733 0.16135 0.62488
 N617 N 0.16772 0.15222 0.62551
 C618 C 0.17703 0.15501 0.61527
 C619 C 0.17236 0.16649 0.60793
 C620 C 0.15984 0.17024 0.61425
 H621 H 0.18677 0.14945 0.61356
 H622 H 0.15335 0.17912 0.61162
 H623 H 0.15733 0.15315 0.65047
 H624 H 0.14768 0.14114 0.63852
 N625 N 0.33483 0.62469 0.35141
 N626 N 0.34410 0.62319 0.34130
 C627 C 0.34012 0.61250 0.33309
 C628 C 0.32774 0.60702 0.33837
 C629 C 0.32468 0.61498 0.34999
 H630 H 0.34552 0.60923 0.32370
 H631 H 0.31550 0.61408 0.35662
 Cu632 Cu 0.35974 0.63615 0.33948
 Cu633 Cu 0.33601 0.63977 0.36503
 Cu634 Cu 0.36376 0.66319 0.36113
 N635 N 0.37501 0.64941 0.33685
 N636 N 0.37659 0.65991 0.34553
 C637 C 0.38735 0.66794 0.34115
 C638 C 0.39272 0.66223 0.32903
 C639 C 0.38466 0.65047 0.32658
 H640 H 0.39064 0.67756 0.34606
 H641 H 0.38547 0.64354 0.31771
 N642 N 0.34962 0.66466 0.37618
 N643 N 0.33910 0.65574 0.37766
 C644 C 0.33084 0.65999 0.38827
 C645 C 0.33639 0.67215 0.39366
 C646 C 0.34829 0.67482 0.38580
 H647 H 0.32118 0.65495 0.39151
 H648 H 0.35514 0.68379 0.38670
 H649 H 0.34640 0.65373 0.35215
 H650 H 0.35745 0.64280 0.36391
 N651 N 0.33181 0.12401 0.85047
 N652 N 0.34096 0.12306 0.84019
 C653 C 0.33786 0.11178 0.83243
 C654 C 0.32611 0.10540 0.83807
 C655 C 0.32255 0.11340 0.84954
 H656 H 0.34332 0.10878 0.82299
 H657 H 0.31350 0.11199 0.85626
 Cu658 Cu 0.35525 0.13730 0.83693
 Cu659 Cu 0.33168 0.13986 0.86311
 Cu660 Cu 0.35898 0.16343 0.86007
 N661 N 0.37141 0.14984 0.83651
 N662 N 0.37301 0.15986 0.84574
 C663 C 0.38443 0.16748 0.84237
 C664 C 0.39026 0.16197 0.83036
 C665 C 0.38179 0.15076 0.82695
 H666 H 0.38778 0.17682 0.84775
 H667 H 0.38274 0.14420 0.81782
 N668 N 0.34511 0.16419 0.87537
 N669 N 0.33467 0.15515 0.87653
 C670 C 0.32647 0.15885 0.88738
 C671 C 0.33197 0.17082 0.89326
 C672 C 0.34381 0.17390 0.88544
 H673 H 0.31686 0.15361 0.89045
 H674 H 0.35059 0.18288 0.88668
 H675 H 0.34181 0.15427 0.85072
 H676 H 0.35316 0.14271 0.86160
 N677 N 0.83242 0.62370 0.84821
 N678 N 0.84151 0.62244 0.83792
 C679 C 0.83813 0.61115 0.83029
 C680 C 0.82624 0.60510 0.83602
 C681 C 0.82289 0.61330 0.84741
 H682 H 0.84350 0.60790 0.82089
 H683 H 0.81385 0.61215 0.85419
 Cu684 Cu 0.85620 0.63622 0.83449
 Cu685 Cu 0.83280 0.63961 0.86078
 Cu686 Cu 0.86060 0.66251 0.85732
 N687 N 0.87228 0.64882 0.83346
 N688 N 0.87419 0.65887 0.84260
 C689 C 0.88551 0.66646 0.83884
 C690 C 0.89095 0.66088 0.82668
 C691 C 0.88235 0.64968 0.82358
 H692 H 0.88906 0.67581 0.84408
 H693 H 0.88301 0.64308 0.81446
 N694 N 0.84702 0.66361 0.87283
 N695 N 0.83633 0.65487 0.87412
 C696 C 0.82833 0.65885 0.88502
 C697 C 0.83421 0.67069 0.89079
 C698 C 0.84607 0.67340 0.88287
 H699 H 0.81859 0.65390 0.88817
 H700 H 0.85309 0.68222 0.88398
 H701 H 0.84319 0.65361 0.84812
 H702 H 0.85429 0.64189 0.85911
 N703 N 0.83239 0.12430 0.34840
 N704 N 0.84294 0.12299 0.33959
 C705 C 0.84070 0.11169 0.33153
 C706 C 0.82805 0.10569 0.33553
 C707 C 0.82309 0.11394 0.34626
 H708 H 0.84734 0.10849 0.32294
 H709 H 0.81310 0.11293 0.35161
 Cu710 Cu 0.85744 0.13736 0.33854
 Cu711 Cu 0.83047 0.14039 0.36061
 Cu712 Cu 0.86144 0.15902 0.36563
 N713 N 0.87229 0.15136 0.33867
 N714 N 0.87378 0.15983 0.34936
 C715 C 0.88435 0.16882 0.34672
 C716 C 0.88967 0.16591 0.33361
 C717 C 0.88180 0.15476 0.32879
 H718 H 0.88759 0.17715 0.35362
 H719 H 0.88267 0.14981 0.31869
 N720 N 0.84491 0.16073 0.37798
 N721 N 0.83305 0.15385 0.37587
 C722 C 0.82344 0.15799 0.38531
 C723 C 0.82950 0.16806 0.39367
 C724 C 0.84312 0.16955 0.38877
 H725 H 0.81268 0.15431 0.38579
 H726 H 0.85092 0.17692 0.39240
 H727 H 0.84519 0.15468 0.35261
 H728 H 0.85149 0.13959 0.36320
 N729 N 0.65640 0.37653 0.34631
 N730 N 0.64869 0.37358 0.33530
 C731 C 0.65177 0.38265 0.32500
 C732 C 0.66190 0.39181 0.32985
 C733 C 0.66454 0.38769 0.34345
 H734 H 0.64737 0.38234 0.31460
 H735 H 0.67218 0.39213 0.35054
 Cu736 Cu 0.63613 0.35756 0.33529
 Cu737 Cu 0.65569 0.36511 0.36321
 Cu738 Cu 0.64148 0.33201 0.35818
 N739 N 0.62317 0.34188 0.33647
 N740 N 0.62544 0.33174 0.34545
 C741 C 0.61608 0.32143 0.34318
 C742 C 0.60748 0.32535 0.33223
 C743 C 0.61223 0.33841 0.32825
 H744 H 0.61598 0.31155 0.34866
 H745 H 0.60846 0.34455 0.31955
 N746 N 0.65390 0.33673 0.37397
 N747 N 0.65906 0.34935 0.37608
 C748 C 0.66781 0.34896 0.38714
 C749 C 0.66809 0.33546 0.39222
 C750 C 0.65909 0.32802 0.38369
 H751 H 0.67404 0.35768 0.39077
 H752 H 0.65697 0.31694 0.38418
 H753 H 0.65429 0.34819 0.35058
 H754 H 0.63779 0.35247 0.36020
 N755 N 0.66021 0.87927 0.84744
 N756 N 0.65154 0.87842 0.83678
 C757 C 0.65484 0.88836 0.82740
 C758 C 0.66615 0.89587 0.83249
 C759 C 0.66927 0.88988 0.84526
 H760 H 0.64979 0.88972 0.81738
 H761 H 0.67780 0.89267 0.85219
 Cu762 Cu 0.63768 0.86356 0.83581
 Cu763 Cu 0.65946 0.86605 0.86300
 Cu764 Cu 0.64083 0.83553 0.85595
 N765 N 0.62375 0.84872 0.83498
 N766 N 0.62511 0.83766 0.84300
 C767 C 0.61526 0.82820 0.83952
 C768 C 0.60733 0.83360 0.82870
 C769 C 0.61298 0.84665 0.82608
 H770 H 0.61443 0.81787 0.84399
 H771 H 0.60994 0.85372 0.81782
 N772 N 0.65397 0.83742 0.87175
 N773 N 0.66090 0.84904 0.87458
 C774 C 0.66934 0.84680 0.88565
 C775 C 0.66756 0.83315 0.89000
 C776 C 0.65772 0.82754 0.88100
 H777 H 0.67658 0.85438 0.88995
 H778 H 0.65388 0.81692 0.88100
 H779 H 0.65518 0.85072 0.84915
 H780 H 0.63992 0.85620 0.86006
 N781 N 0.16287 0.37580 0.84911
 N782 N 0.15455 0.37576 0.83814
 C783 C 0.15769 0.38684 0.83006
 C784 C 0.16858 0.39412 0.83627
 C785 C 0.17158 0.38686 0.84836
 H786 H 0.15289 0.38909 0.82008
 H787 H 0.18000 0.38903 0.85564
 Cu788 Cu 0.14129 0.36060 0.83465
 Cu789 Cu 0.16309 0.36043 0.86232
 Cu790 Cu 0.13791 0.33483 0.85842
 N791 N 0.12581 0.34722 0.83399
 N792 N 0.12436 0.33737 0.84345
 C793 C 0.11336 0.32920 0.84001
 C794 C 0.10766 0.33416 0.82771
 C795 C 0.11577 0.34562 0.82419
 H796 H 0.11018 0.31994 0.84564
 H797 H 0.11475 0.35197 0.81491
 N798 N 0.15094 0.33538 0.87442
 N799 N 0.16049 0.34528 0.87597
 C800 C 0.16836 0.34239 0.88729
 C801 C 0.16360 0.33004 0.89305
 C802 C 0.15252 0.32590 0.88469
 H803 H 0.17735 0.34840 0.89070
 H804 H 0.14650 0.31637 0.88568
 H805 H 0.15492 0.34496 0.84979
 H806 H 0.14197 0.35588 0.85955
 N807 N 0.15902 0.87422 0.34651
 N808 N 0.14919 0.87347 0.33687
 C809 C 0.15110 0.88392 0.32764
 C810 C 0.16274 0.89156 0.33171
 C811 C 0.16749 0.88515 0.34374
 H812 H 0.14494 0.88549 0.31829
 H813 H 0.17686 0.88780 0.34959
 Cu814 Cu 0.13570 0.85813 0.33658
 Cu815 Cu 0.16121 0.85983 0.36073
 Cu816 Cu 0.13698 0.83299 0.36085
 N817 N 0.12197 0.84298 0.33689
 N818 N 0.12237 0.83329 0.34662
 C819 C 0.11246 0.82362 0.34394
 C820 C 0.10551 0.82742 0.33187
 C821 C 0.11176 0.83977 0.32768
 H822 H 0.11089 0.81416 0.34989
 H823 H 0.10945 0.84559 0.31828
 N824 N 0.15122 0.83528 0.37563
 N825 N 0.16055 0.84552 0.37557
 C826 C 0.16958 0.84361 0.38624
 C827 C 0.16576 0.83160 0.39328
 C828 C 0.15406 0.82662 0.38634
 H829 H 0.17867 0.85007 0.38836
 H830 H 0.14850 0.81702 0.38853
 H831 H 0.15218 0.84372 0.34975
 H832 H 0.14031 0.85427 0.36114
 C833 C 0.24707 1.03671 0.25085
 C834 C 0.25396 1.02935 0.24021
 C835 C 0.25341 1.01472 0.24026
 C836 C 0.24687 1.00734 0.25126
 C837 C 0.24031 1.01504 0.26199
 C838 C 0.24006 1.02969 0.26168
 C839 C 0.24708 0.99170 0.25160
 C840 C 0.23643 0.98407 0.25853
 C841 C 0.23685 0.96943 0.25918
 C842 C 0.24765 0.96233 0.25215
 C843 C 0.25818 0.96961 0.24489
 C844 C 0.25803 0.98425 0.24503
 H845 H 0.24721 1.04800 0.25072
 H846 H 0.25810 1.00915 0.23164
 H847 H 0.23554 1.00972 0.27075
 H848 H 0.22770 0.98945 0.26336
 H849 H 0.24787 0.95105 0.25234
 H850 H 0.26661 0.98977 0.24006
 C851 C 0.24896 0.54058 0.75428
 C852 C 0.25969 0.53348 0.74719
 C853 C 0.26053 0.51891 0.74846
 C854 C 0.25024 0.51124 0.75591
 C855 C 0.23934 0.51872 0.76258
 C856 C 0.23890 0.53336 0.76222
 C857 C 0.25092 0.49557 0.75671
 C858 C 0.24422 0.48819 0.76765
 C859 C 0.24447 0.47355 0.76820
 C860 C 0.25232 0.46622 0.75821
 C861 C 0.25937 0.47322 0.74741
 C862 C 0.25823 0.48780 0.74648
 H863 H 0.24848 0.55185 0.75368
 H864 H 0.26933 0.51365 0.74366
 H865 H 0.23102 0.51326 0.76802
 H866 H 0.23884 0.49371 0.77589
 H867 H 0.25279 0.45496 0.75874
 H868 H 0.26300 0.49297 0.73764
 C869 C 0.74387 -0.03848 0.25373
 C870 C 0.75484 -0.03161 0.26071
 C871 C 0.75572 -0.01700 0.25985
 C872 C 0.74535 -0.00914 0.25279
 C873 C 0.73425 -0.01639 0.24618
 C874 C 0.73369 -0.03102 0.24622
 C875 C 0.74618 0.00651 0.25224
 C876 C 0.73985 0.01405 0.24124
 C877 C 0.74030 0.02869 0.24085
 C878 C 0.74789 0.03583 0.25116
 C879 C 0.75465 0.02864 0.26199
 C880 C 0.75337 0.01406 0.26269
 H881 H 0.74335 -0.04976 0.25401
 H882 H 0.76463 -0.01186 0.26459
 H883 H 0.72592 -0.01073 0.24101
 H884 H 0.73464 0.00861 0.23283
 H885 H 0.74856 0.04709 0.25074
 H886 H 0.75794 0.00869 0.27150
 C887 C 0.75515 0.45975 0.74703
 C888 C 0.76509 0.46731 0.75479
 C889 C 0.76378 0.48188 0.75565
 C890 C 0.75229 0.48886 0.74952
 C891 C 0.74221 0.48091 0.74219
 C892 C 0.74374 0.46643 0.74060
 C893 C 0.75079 0.50437 0.75076
 C894 C 0.74385 0.51210 0.74030
 C895 C 0.74211 0.52659 0.74148
 C896 C 0.74798 0.53351 0.75299
 C897 C 0.75531 0.52617 0.76335
 C898 C 0.75635 0.51159 0.76234
 H899 H 0.75621 0.44854 0.74615
 H900 H 0.77184 0.48773 0.76106
 H901 H 0.73305 0.48593 0.73779
 H902 H 0.73992 0.50691 0.73107
 H903 H 0.74696 0.54472 0.75380
 H904 H 0.76144 0.50592 0.77068
 C905 C 0.24790 0.46197 0.25493
 C906 C 0.25808 0.46914 0.26274
 C907 C 0.25772 0.48379 0.26307
 C908 C 0.24687 0.49129 0.25636
 C909 C 0.23650 0.48371 0.24904
 C910 C 0.23719 0.46914 0.24788
 C911 C 0.24635 0.50694 0.25690
 C912 C 0.23964 0.51462 0.24623
 C913 C 0.23864 0.52921 0.24685
 C914 C 0.24517 0.53628 0.25789
 C915 C 0.25240 0.52901 0.26837
 C916 C 0.25258 0.51436 0.26802
 H917 H 0.24829 0.45070 0.25435
 H918 H 0.26605 0.48927 0.26846
 H919 H 0.22776 0.48906 0.24422
 H920 H 0.23526 0.50933 0.23727
 H921 H 0.24477 0.54756 0.25824
 H922 H 0.25752 0.50883 0.27654
 C923 C 0.74460 1.04069 0.74655
 C924 C 0.75272 1.03332 0.73681
 C925 C 0.75391 1.01878 0.73814
 C926 C 0.74791 1.01163 0.74961
 C927 C 0.74024 1.01945 0.75951
 C928 C 0.73819 1.03386 0.75785
 C929 C 0.74977 0.99616 0.75134
 C930 C 0.74000 0.98817 0.75910
 C931 C 0.74193 0.97378 0.76116
 C932 C 0.75333 0.96716 0.75463
 C933 C 0.76289 0.97470 0.74639
 C934 C 0.76132 0.98921 0.74521
 H935 H 0.74342 1.05186 0.74543
 H936 H 0.75952 1.01313 0.73014
 H937 H 0.73597 1.01444 0.76869
 H938 H 0.73075 0.99303 0.76350
 H939 H 0.75464 0.95601 0.75579
 H940 H 0.76923 0.99500 0.73953
 C941 C 0.74745 0.53730 0.24952
 C942 C 0.75441 0.52975 0.23907
 C943 C 0.75398 0.51512 0.23945
 C944 C 0.74740 0.50793 0.25056
 C945 C 0.74076 0.51583 0.26110
 C946 C 0.74043 0.53048 0.26048
 C947 C 0.74755 0.49228 0.25110
 C948 C 0.73674 0.48478 0.25797
 C949 C 0.73696 0.47014 0.25860
 C950 C 0.74776 0.46292 0.25172
 C951 C 0.75847 0.47003 0.24459
 C952 C 0.75851 0.48467 0.24466
 H953 H 0.74752 0.54858 0.24915
 H954 H 0.75874 0.50939 0.23096
 H955 H 0.73594 0.51065 0.26993
 H956 H 0.72801 0.49026 0.26270
 H957 H 0.74782 0.45164 0.25191
 H958 H 0.76720 0.49007 0.23976
 C959 C 0.25000 -0.04060 0.75251
 C960 C 0.26026 -0.03326 0.76006
 C961 C 0.25970 -0.01863 0.76037
 C962 C 0.24862 -0.01128 0.75387
 C963 C 0.23824 -0.01900 0.74668
 C964 C 0.23906 -0.03360 0.74563
 C965 C 0.24792 0.00436 0.75457
 C966 C 0.24112 0.01209 0.74399
 C967 C 0.24018 0.02669 0.74469
 C968 C 0.24673 0.03369 0.75578
 C969 C 0.25390 0.02635 0.76625
 C970 C 0.25411 0.01171 0.76577
 H971 H 0.25054 -0.05186 0.75198
 H972 H 0.26805 -0.01303 0.76559
 H973 H 0.22939 -0.01374 0.74195
 H974 H 0.23668 0.00684 0.73504
 H975 H 0.24633 0.04496 0.75621
 H976 H 0.25904 0.00612 0.77425
 C977 C 0.25313 0.25633 1.03786
 C978 C 0.24493 0.26607 1.03059
 C979 C 0.24473 0.26565 1.01593
 C980 C 0.25184 0.25506 1.00849
 C981 C 0.25954 0.24508 1.01618
 C982 C 0.26060 0.24589 1.03079
 C983 C 0.25116 0.25436 0.99282
 C984 C 0.26185 0.24765 0.98506
 C985 C 0.26107 0.24657 0.97046
 C986 C 0.24989 0.25304 0.96345
 C987 C 0.23933 0.26014 0.97079
 C988 C 0.23982 0.26039 0.98544
 H989 H 0.25356 0.25676 1.04914
 H990 H 0.23905 0.27370 1.01042
 H991 H 0.26467 0.23652 1.01092
 H992 H 0.27093 0.24332 0.99026
 H993 H 0.24940 0.25253 0.95217
 H994 H 0.23120 0.26519 0.99100
 C995 C 0.25133 0.75055 0.53706
 C996 C 0.24507 0.76201 0.53040
 C997 C 0.24621 0.76325 0.51583
 C998 C 0.25290 0.75286 0.50779
 C999 C 0.25877 0.74128 0.51478
 C1000 C 0.25838 0.74024 0.52939
 C1001 C 0.25379 0.75409 0.49220
 C1002 C 0.26493 0.74779 0.48476
 C1003 C 0.26559 0.74845 0.47013
 C1004 C 0.25541 0.75621 0.46292
 C1005 C 0.24438 0.76286 0.47004
 C1006 C 0.24347 0.76146 0.48462
 H1007 H 0.25078 0.74969 0.54832
 H1008 H 0.24198 0.77243 0.51082
 H1009 H 0.26358 0.73294 0.50890
 H1010 H 0.27320 0.74238 0.49029
 H1011 H 0.25599 0.75694 0.45166
 H1012 H 0.23457 0.76600 0.48998
 C1013 C 0.24984 0.75606 -0.03674
 C1014 C 0.26006 0.76370 -0.02946
 C1015 C 0.25998 0.76342 -0.01480
 C1016 C 0.24930 0.75637 -0.00732
 C1017 C 0.23887 0.74920 -0.01500
 C1018 C 0.23935 0.74857 -0.02964
 C1019 C 0.24911 0.75638 0.00837
 C1020 C 0.24237 0.74557 0.01586
 C1021 C 0.24181 0.74565 0.03051
 C1022 C 0.24884 0.75624 0.03780
 C1023 C 0.25607 0.76686 0.03069
 C1024 C 0.25576 0.76710 0.01603
 H1025 H 0.25007 0.75590 -0.04804
 H1026 H 0.26840 0.76863 -0.00931
 H1027 H 0.23025 0.74408 -0.00968
 H1028 H 0.23766 0.73689 0.01040
 H1029 H 0.24879 0.75615 0.04909
 H1030 H 0.26068 0.77577 0.01071
 C1031 C 0.24859 0.25501 0.46326
 C1032 C 0.25943 0.26210 0.47021
 C1033 C 0.26020 0.26125 0.48485
 C1034 C 0.24981 0.25407 0.49265
 C1035 C 0.23879 0.24743 0.48530
 C1036 C 0.23837 0.24745 0.47066
 C1037 C 0.25048 0.25341 0.50834
 C1038 C 0.24374 0.24253 0.51577
 C1039 C 0.24384 0.24212 0.53042
 C1040 C 0.25154 0.25222 0.53772
 C1041 C 0.25872 0.26291 0.53069
 C1042 C 0.25780 0.26366 0.51606
 H1043 H 0.24815 0.25529 0.45198
 H1044 H 0.26904 0.26608 0.49003
 H1045 H 0.23038 0.24227 0.49087
 H1046 H 0.23847 0.23421 0.51026
 H1047 H 0.25190 0.25178 0.54901
 H1048 H 0.26271 0.27239 0.51083
 C1049 C 0.75549 0.75644 1.03490
 C1050 C 0.74838 0.76709 1.02778
 C1051 C 0.74896 0.76745 1.01312
 C1052 C 0.75579 0.75683 1.00547
 C1053 C 0.76242 0.74599 1.01299
 C1054 C 0.76269 0.74595 1.02764
 C1055 C 0.75595 0.75701 0.98977
 C1056 C 0.76661 0.75003 0.98222
 C1057 C 0.76653 0.74967 0.96756
 C1058 C 0.75618 0.75718 0.96035
 C1059 C 0.74567 0.76454 0.96750
 C1060 C 0.74540 0.76406 0.98216
 H1061 H 0.75534 0.75627 1.04620
 H1062 H 0.74411 0.77613 1.00779
 H1063 H 0.76730 0.73741 1.00753
 H1064 H 0.77511 0.74487 0.98764
 H1065 H 0.75623 0.75717 0.94905
 H1066 H 0.73680 0.76910 0.98754
 C1067 C 0.75564 0.25881 0.53703
 C1068 C 0.74526 0.26642 0.52996
 C1069 C 0.74522 0.26644 0.51529
 C1070 C 0.75589 0.25964 0.50761
 C1071 C 0.76647 0.25247 0.51509
 C1072 C 0.76613 0.25157 0.52972
 C1073 C 0.75589 0.25983 0.49190
 C1074 C 0.76271 0.24920 0.48427
 C1075 C 0.76318 0.24944 0.46963
 C1076 C 0.75600 0.26001 0.46247
 C1077 C 0.74864 0.27043 0.46969
 C1078 C 0.74899 0.27050 0.48436
 H1079 H 0.75549 0.25841 0.54832
 H1080 H 0.73670 0.27163 0.50996
 H1081 H 0.77509 0.24755 0.50964
 H1082 H 0.76756 0.24054 0.48962
 H1083 H 0.75598 0.26002 0.45117
 H1084 H 0.74391 0.27899 0.48978
 C1085 C 0.74510 0.25971 -0.03728
 C1086 C 0.75251 0.27006 -0.03001
 C1087 C 0.75212 0.27007 -0.01536
 C1088 C 0.74529 0.25931 -0.00785
 C1089 C 0.73838 0.24875 -0.01551
 C1090 C 0.73784 0.24913 -0.03015
 C1091 C 0.74552 0.25900 0.00785
 C1092 C 0.73513 0.25167 0.01548
 C1093 C 0.73566 0.25082 0.03010
 C1094 C 0.74612 0.25825 0.03726
 C1095 C 0.75631 0.26601 0.03002
 C1096 C 0.75622 0.26593 0.01537
 H1097 H 0.74510 0.25981 -0.04858
 H1098 H 0.75714 0.27858 -0.00992
 H1099 H 0.73351 0.24006 -0.01020
 H1100 H 0.72652 0.24661 0.01015
 H1101 H 0.74638 0.25792 0.04855
 H1102 H 0.76466 0.27120 0.00994
 C1103 C 0.75341 0.75423 0.46314
 C1104 C 0.76370 0.76186 0.47037
 C1105 C 0.76353 0.76181 0.48504
 C1106 C 0.75276 0.75491 0.49255
 C1107 C 0.74227 0.74777 0.48492
 C1108 C 0.74278 0.74699 0.47029
 C1109 C 0.75244 0.75507 0.50823
 C1110 C 0.74565 0.74431 0.51577
 C1111 C 0.74481 0.74461 0.53040
 C1112 C 0.75159 0.75540 0.53764
 C1113 C 0.75885 0.76598 0.53051
 C1114 C 0.75889 0.76595 0.51584
 H1115 H 0.75366 0.75394 0.45185
 H1116 H 0.77194 0.76705 0.49051
 H1117 H 0.73358 0.74282 0.49027
 H1118 H 0.74108 0.73553 0.51035
 H1119 H 0.75127 0.75551 0.54893
 H1120 H 0.76385 0.77456 0.51045
 C1121 C 1.03594 0.24465 0.24865
 C1122 C 1.02852 0.23456 0.25631
 C1123 C 1.01373 0.23453 0.25585
 C1124 C 1.00624 0.24502 0.24865
 C1125 C 1.01407 0.25536 0.24151
 C1126 C 1.02884 0.25495 0.24104
 C1127 C 0.99039 0.24518 0.24856
 C1128 C 0.98294 0.25215 0.23789
 C1129 C 0.96818 0.25289 0.23801
 C1130 C 0.96070 0.24567 0.24838
 C1131 C 0.96774 0.23819 0.25884
 C1132 C 0.98253 0.23840 0.25912
 H1133 H 1.04734 0.24452 0.24867
 H1134 H 1.00819 0.22619 0.26108
 H1135 H 1.00879 0.26388 0.23634
 H1136 H 0.98850 0.25702 0.22934
 H1137 H 0.94930 0.24591 0.24832
 H1138 H 0.98779 0.23333 0.26772
 C1139 C 0.53417 0.24978 0.75239
 C1140 C 0.52689 0.24179 0.76233
 C1141 C 0.51214 0.24095 0.76155
 C1142 C 0.50466 0.24725 0.75049
 C1143 C 0.51236 0.25483 0.74039
 C1144 C 0.52702 0.25648 0.74149
 C1145 C 0.48892 0.24590 0.74944
 C1146 C 0.48085 0.25604 0.74234
 C1147 C 0.46618 0.25465 0.74098
 C1148 C 0.45941 0.24338 0.74751
 C1149 C 0.46707 0.23342 0.75507
 C1150 C 0.48181 0.23451 0.75558
 H1151 H 0.54550 0.25071 0.75309
 H1152 H 0.50658 0.23542 0.76970
 H1153 H 0.50706 0.25937 0.73152
 H1154 H 0.48588 0.26516 0.73796
 H1155 H 0.44807 0.24246 0.74686
 H1156 H 0.48765 0.22635 0.76076
 C1157 C -0.03592 0.24201 0.75566
 C1158 C -0.02838 0.25033 0.76509
 C1159 C -0.01368 0.25127 0.76374
 C1160 C -0.00652 0.24482 0.75254
 C1161 C -0.01450 0.23691 0.74294
 C1162 C -0.02911 0.23514 0.74464
 C1163 C 0.00915 0.24648 0.75080
 C1164 C 0.01718 0.23649 0.74345
 C1165 C 0.03176 0.23817 0.74153
 C1166 C 0.03852 0.24960 0.74775
 C1167 C 0.03094 0.25948 0.75548
 C1168 C 0.01626 0.25809 0.75655
 H1169 H -0.04722 0.24106 0.75678
 H1170 H -0.00791 0.25705 0.77154
 H1171 H -0.00948 0.23224 0.73398
 H1172 H 0.01220 0.22724 0.73930
 H1173 H 0.04981 0.25077 0.74665
 H1174 H 0.01046 0.26620 0.76184
 C1175 C 0.46310 0.24617 0.24648
 C1176 C 0.47059 0.25639 0.25386
 C1177 C 0.48538 0.25610 0.25364
 C1178 C 0.49277 0.24525 0.24690
 C1179 C 0.48488 0.23486 0.23994
 C1180 C 0.47011 0.23548 0.23932
 C1181 C 0.50860 0.24476 0.24712
 C1182 C 0.51616 0.23779 0.23653
 C1183 C 0.53092 0.23688 0.23688
 C1184 C 0.53828 0.24378 0.24752
 C1185 C 0.53112 0.25121 0.25795
 C1186 C 0.51632 0.25128 0.25790
 H1187 H 0.45171 0.24652 0.24633
 H1188 H 0.49105 0.26447 0.25868
 H1189 H 0.49013 0.22615 0.23506
 H1190 H 0.51066 0.23311 0.22785
 H1191 H 0.54967 0.24341 0.24767
 H1192 H 0.51091 0.25635 0.26642
 C1193 C 1.03452 0.74661 0.74782
 C1194 C 1.02689 0.73893 0.75775
 C1195 C 1.01218 0.73811 0.75654
 C1196 C 1.00508 0.74410 0.74508
 C1197 C 1.01310 0.75142 0.73505
 C1198 C 1.02772 0.75308 0.73655
 C1199 C 0.98940 0.74276 0.74367
 C1200 C 0.98153 0.75287 0.73637
 C1201 C 0.96687 0.75161 0.73487
 C1202 C 0.95991 0.74046 0.74142
 C1203 C 0.96739 0.73050 0.74915
 C1204 C 0.98213 0.73146 0.74979
 H1205 H 1.04583 0.74754 0.74886
 H1206 H 1.00632 0.73284 0.76466
 H1207 H 1.00805 0.75578 0.72593
 H1208 H 0.98671 0.76191 0.73197
 H1209 H 0.94856 0.73966 0.74070
 H1210 H 0.98786 0.72332 0.75513
 C1211 C 0.53826 0.74259 0.24570
 C1212 C 0.53091 0.73549 0.25625
 C1213 C 0.51611 0.73565 0.25612
 C1214 C 0.50860 0.74213 0.24519
 C1215 C 0.51633 0.74890 0.23456
 C1216 C 0.53110 0.74951 0.23494
 C1217 C 0.49279 0.74183 0.24489
 C1218 C 0.48512 0.75241 0.23804
 C1219 C 0.47035 0.75199 0.23737
 C1220 C 0.46314 0.74123 0.24429
 C1221 C 0.47044 0.73081 0.25157
 C1222 C 0.48523 0.73097 0.25148
 H1223 H 0.54966 0.74279 0.24591
 H1224 H 0.51053 0.73080 0.26468
 H1225 H 0.51094 0.75362 0.22582
 H1226 H 0.49055 0.76113 0.23330
 H1227 H 0.45175 0.74104 0.24413
 H1228 H 0.49076 0.72250 0.25650
 C1229 C -0.03675 0.74526 0.24583
 C1230 C -0.02949 0.75588 0.25286
 C1231 C -0.01471 0.75617 0.25222
 C1232 C -0.00707 0.74555 0.24539
 C1233 C -0.01470 0.73481 0.23870
 C1234 C -0.02950 0.73483 0.23851
 C1235 C 0.00877 0.74569 0.24527
 C1236 C 0.01643 0.73900 0.23456
 C1237 C 0.03123 0.73888 0.23457
 C1238 C 0.03845 0.74626 0.24499
 C1239 C 0.03115 0.75330 0.25558
 C1240 C 0.01638 0.75258 0.25588
 H1241 H -0.04814 0.74517 0.24599
 H1242 H -0.00926 0.76483 0.25700
 H1243 H -0.00923 0.72631 0.23370
 H1244 H 0.01097 0.73395 0.22605
 H1245 H 0.04984 0.74647 0.24489
 H1246 H 0.01091 0.75735 0.26453
 C1247 C 0.46505 0.74831 0.74607
 C1248 C 0.47235 0.75545 0.75659
 C1249 C 0.48712 0.75490 0.75677
 C1250 C 0.49474 0.74811 0.74609
 C1251 C 0.48707 0.74134 0.73543
 C1252 C 0.47227 0.74104 0.73558
 C1253 C 0.51057 0.74817 0.74606
 C1254 C 0.51827 0.73757 0.73925
 C1255 C 0.53306 0.73779 0.73890
 C1256 C 0.54026 0.74827 0.74622
 C1257 C 0.53293 0.75873 0.75341
 C1258 C 0.51815 0.75885 0.75288
 H1259 H 0.45366 0.74841 0.74607
 H1260 H 0.49260 0.75975 0.76537
 H1261 H 0.49251 0.73638 0.72687
 H1262 H 0.51284 0.72902 0.73426
 H1263 H 0.55165 0.74831 0.74630
 H1264 H 0.51264 0.76740 0.75776
 N1265 N 0.41803 0.30292 0.31498
 C1266 C 0.42441 0.30929 0.30403
 N1267 N 0.42140 0.32283 0.30126
 N1268 N 0.41225 0.32977 0.30919
 C1269 C 0.40577 0.32338 0.32012
 N1270 N 0.40888 0.30985 0.32290
 C1271 C 0.43347 0.30145 0.29497
 C1272 C 0.44058 0.29439 0.28731
 C1273 C 0.44841 0.28539 0.27821
 N1274 N 0.46268 0.28500 0.27865
 N1275 N 0.46978 0.27601 0.27070
 C1276 C 0.46286 0.26707 0.26206
 N1277 N 0.44857 0.26762 0.26164
 N1278 N 0.44148 0.27660 0.26956
 N1279 N 0.42086 0.80101 0.82193
 C1280 C 0.42592 0.80550 0.80948
 N1281 N 0.42155 0.81795 0.80438
 N1282 N 0.41233 0.82566 0.81148
 C1283 C 0.40712 0.82113 0.82390
 N1284 N 0.41164 0.80870 0.82903
 C1285 C 0.43492 0.79671 0.80130
 C1286 C 0.44202 0.78918 0.79410
 C1287 C 0.44988 0.78013 0.78508
 N1288 N 0.46415 0.78017 0.78517
 N1289 N 0.47132 0.77212 0.77632
 C1290 C 0.46447 0.76377 0.76707
 N1291 N 0.45016 0.76375 0.76714
 N1292 N 0.44300 0.77176 0.77597
 N1293 N -0.08045 0.29849 0.82870
 C1294 C -0.07504 0.30187 0.81603
 N1295 N -0.07927 0.31382 0.80974
 N1296 N -0.08866 0.32211 0.81588
 C1297 C -0.09417 0.31871 0.82852
 N1298 N -0.08984 0.30678 0.83485
 C1299 C -0.06585 0.29244 0.80882
 C1300 C -0.05860 0.28448 0.80224
 C1301 C -0.05058 0.27505 0.79375
 N1302 N -0.03649 0.27671 0.79214
 N1303 N -0.02933 0.26859 0.78336
 C1304 C -0.03602 0.25854 0.77584
 N1305 N -0.05012 0.25687 0.77763
 N1306 N -0.05726 0.26497 0.78641
 N1307 N -0.08008 0.80471 0.31469
 C1308 C -0.07602 0.80958 0.30201
 N1309 N -0.08134 0.82184 0.29734
 N1310 N -0.09049 0.82898 0.30509
 C1311 C -0.09465 0.82408 0.31775
 N1312 N -0.08923 0.81185 0.32243
 C1313 C -0.06704 0.80132 0.29326
 C1314 C -0.05994 0.79399 0.28585
 C1315 C -0.05206 0.78476 0.27701
 N1316 N -0.03778 0.78506 0.27684
 N1317 N -0.03059 0.77606 0.26900
 C1318 C -0.03741 0.76642 0.26107
 N1319 N -0.05172 0.76626 0.26127
 N1320 N -0.05890 0.77525 0.26908
 N1321 N 0.58185 0.69393 0.32462
 C1322 C 0.57752 0.68895 0.31211
 N1323 N 0.58273 0.67665 0.30744
 N1324 N 0.59205 0.66957 0.31504
 C1325 C 0.59649 0.67458 0.32753
 N1326 N 0.59117 0.68685 0.33222
 C1327 C 0.56842 0.69712 0.30339
 C1328 C 0.56127 0.70411 0.29573
 C1329 C 0.55337 0.71253 0.28615
 N1330 N 0.53910 0.71206 0.28592
 N1331 N 0.53192 0.71953 0.27659
 C1332 C 0.53876 0.72772 0.26716
 N1333 N 0.55306 0.72818 0.26753
 N1334 N 0.56022 0.72074 0.27684
 N1335 N 0.58060 0.18203 0.80919
 C1336 C 0.57497 0.19352 0.81524
 N1337 N 0.57908 0.19711 0.82830
 N1338 N 0.58858 0.18945 0.83508
 C1339 C 0.59430 0.17798 0.82901
 N1340 N 0.59009 0.17439 0.81596
 C1341 C 0.56555 0.20227 0.80748
 C1342 C 0.55811 0.20967 0.80048
 C1343 C 0.54987 0.21848 0.79156
 N1344 N 0.55636 0.22814 0.78346
 N1345 N 0.54898 0.23575 0.77445
 C1346 C 0.53483 0.23400 0.77316
 N1347 N 0.52836 0.22438 0.78141
 N1348 N 0.53575 0.21674 0.79044
 N1349 N 1.07659 0.69686 0.82703
 C1350 C 1.07216 0.69230 0.81438
 N1351 N 1.07737 0.68019 0.80924
 N1352 N 1.08681 0.67291 0.81648
 C1353 C 1.09138 0.67751 0.82908
 N1354 N 1.08603 0.68957 0.83427
 C1355 C 1.06314 0.70078 0.80591
 C1356 C 1.05612 0.70796 0.79830
 C1357 C 1.04844 0.71649 0.78867
 N1358 N 1.03429 0.71520 0.78736
 N1359 N 1.02738 0.72256 0.77775
 C1360 C 1.03437 0.73144 0.76909
 N1361 N 1.04855 0.73273 0.77055
 N1362 N 1.05545 0.72540 0.78015
 N1363 N 1.07881 0.18962 0.32111
 C1364 C 1.07520 0.18426 0.30853
 N1365 N 1.08152 0.17242 0.30404
 N1366 N 1.09123 0.16618 0.31187
 C1367 C 1.09498 0.17159 0.32442
 N1368 N 1.08853 0.18338 0.32895
 C1369 C 1.06588 0.19178 0.29949
 C1370 C 1.05865 0.19851 0.29167
 C1371 C 1.05079 0.20707 0.28221
 N1372 N 1.03652 0.20730 0.28253
 N1373 N 1.02940 0.21580 0.27410
 C1374 C 1.03629 0.22438 0.26505
 N1375 N 1.05059 0.22399 0.26475
 N1376 N 1.05770 0.21550 0.27315
 N1377 N 0.57757 0.32017 0.69395
 C1378 C 0.57361 0.30739 0.68931
 N1379 N 0.57932 0.30238 0.67736
 N1380 N 0.58876 0.30988 0.67030
 C1381 C 0.59284 0.32262 0.67497
 N1382 N 0.58702 0.32767 0.68689
 C1383 C 0.56447 0.29878 0.69757
 C1384 C 0.55733 0.29129 0.70481
 C1385 C 0.54949 0.28220 0.71382
 N1386 N 0.55633 0.27452 0.72354
 N1387 N 0.54918 0.26624 0.73218
 C1388 C 0.53492 0.26530 0.73142
 N1389 N 0.52812 0.27299 0.72159
 N1390 N 0.53527 0.28129 0.71293
 N1391 N 0.58450 0.79640 0.17131
 C1392 C 0.57874 0.80019 0.18370
 N1393 N 0.58261 0.81247 0.18956
 N1394 N 0.59199 0.82069 0.18327
 C1395 C 0.59785 0.81689 0.17092
 N1396 N 0.59389 0.80463 0.16502
 C1397 C 0.56951 0.79089 0.19108
 C1398 C 0.56220 0.78309 0.19781
 C1399 C 0.55411 0.77387 0.20649
 N1400 N 0.53984 0.77443 0.20664
 N1401 N 0.53248 0.76645 0.21543
 C1402 C 0.53913 0.75767 0.22442
 N1403 N 0.55343 0.75711 0.22411
 N1404 N 0.56077 0.76505 0.21532
 N1405 N 1.08214 0.30221 0.17919
 C1406 C 1.07672 0.30718 0.19130
 N1407 N 1.08107 0.31977 0.19607
 N1408 N 1.09059 0.32714 0.18898
 C1409 C 1.09612 0.32215 0.17690
 N1410 N 1.09167 0.30958 0.17209
 C1411 C 1.06737 0.29877 0.19955
 C1412 C 1.06003 0.29150 0.20681
 C1413 C 1.05194 0.28253 0.21574
 N1414 N 1.05860 0.27338 0.22423
 N1415 N 1.05125 0.26480 0.23239
 C1416 C 1.03694 0.26505 0.23241
 N1417 N 1.03030 0.27432 0.22391
 N1418 N 1.03766 0.28291 0.21573
 N1419 N 1.07853 0.81721 0.69020
 C1420 C 1.07541 0.80421 0.68556
 N1421 N 1.08196 0.79932 0.67399
 N1422 N 1.09140 0.80715 0.66729
 C1423 C 1.09464 0.82013 0.67197
 N1424 N 1.08797 0.82505 0.68350
 C1425 C 1.06621 0.79532 0.69346
 C1426 C 1.05898 0.78769 0.70045
 C1427 C 1.05094 0.77852 0.70923
 N1428 N 1.05751 0.77098 0.71924
 N1429 N 1.05014 0.76276 0.72775
 C1430 C 1.03592 0.76174 0.72657
 N1431 N 1.02938 0.76928 0.71644
 N1432 N 1.03676 0.77752 0.70792
 N1433 N 0.41833 0.69659 0.67131
 C1434 C 0.42421 0.69191 0.68332
 N1435 N 0.42016 0.67936 0.68850
 N1436 N 0.41050 0.67174 0.68189
 C1437 C 0.40453 0.67644 0.66991
 N1438 N 0.40868 0.68897 0.66470
 C1439 C 0.43366 0.70062 0.69110
 C1440 C 0.44109 0.70805 0.69809
 C1441 C 0.44923 0.71698 0.70699
 N1442 N 0.46350 0.71644 0.70705
 N1443 N 0.47087 0.72429 0.71592
 C1444 C 0.46424 0.73293 0.72505
 N1445 N 0.44994 0.73347 0.72483
 N1446 N 0.44258 0.72565 0.71598
 N1447 N 0.41552 0.17164 0.19534
 C1448 C 0.42177 0.18327 0.19017
 N1449 N 0.41829 0.18775 0.17720
 N1450 N 0.40881 0.18082 0.16963
 C1451 C 0.40246 0.16922 0.17481
 N1452 N 0.40604 0.16472 0.18778
 C1453 C 0.43114 0.19134 0.19873
 C1454 C 0.43853 0.19846 0.20607
 C1455 C 0.44672 0.20741 0.21492
 N1456 N 0.46100 0.20694 0.21483
 N1457 N 0.46846 0.21567 0.22274
 C1458 C 0.46192 0.22520 0.23103
 N1459 N 0.44761 0.22553 0.23110
 N1460 N 0.44016 0.21681 0.22321
 N1461 N -0.08169 0.68776 0.17693
 C1462 C -0.07770 0.68260 0.18950
 N1463 N -0.08384 0.67077 0.19433
 N1464 N -0.09371 0.66432 0.18685
 C1465 C -0.09782 0.66953 0.17431
 N1466 N -0.09157 0.68131 0.16945
 C1467 C -0.06812 0.69032 0.19813
 C1468 C -0.06064 0.69728 0.20553
 C1469 C -0.05249 0.70618 0.21446
 N1470 N -0.03823 0.70646 0.21370
 N1471 N -0.03086 0.71534 0.22156
 C1472 C -0.03750 0.72425 0.23042
 N1473 N -0.05178 0.72382 0.23116
 N1474 N -0.05913 0.71496 0.22334
 N1475 N -0.08108 0.19113 0.67950
 C1476 C -0.07749 0.18615 0.69225
 N1477 N -0.08350 0.17416 0.69689
 N1478 N -0.09284 0.16738 0.68903
 C1479 C -0.09651 0.17239 0.67628
 N1480 N -0.09041 0.18436 0.67165
 C1481 C -0.06821 0.19401 0.70107
 C1482 C -0.06083 0.20097 0.70857
 C1483 C -0.05260 0.20959 0.71770
 N1484 N -0.05899 0.21670 0.72813
 N1485 N -0.05151 0.22483 0.73660
 C1486 C -0.03736 0.22622 0.73496
 N1487 N -0.03099 0.21906 0.72445
 N1488 N -0.03848 0.21091 0.71596
 N1489 N 0.32481 0.41611 0.30425
 C1490 C 0.31290 0.42160 0.30978
 N1491 N 0.30873 0.41752 0.32270
 N1492 N 0.31624 0.40822 0.32987
 C1493 C 0.32814 0.40267 0.32434
 N1494 N 0.33232 0.40682 0.31142
 C1495 C 0.30430 0.43085 0.30166
 C1496 C 0.29679 0.43817 0.29467
 C1497 C 0.28741 0.44627 0.28618
 N1498 N 0.28698 0.46037 0.28720
 N1499 N 0.27784 0.46770 0.27960
 C1500 C 0.26882 0.46119 0.27071
 N1501 N 0.26940 0.44706 0.26971
 N1502 N 0.27851 0.43975 0.27728
 N1503 N 0.31145 -0.08362 0.81993
 C1504 C 0.31590 -0.07983 0.80702
 N1505 N 0.32777 -0.08565 0.80176
 N1506 N 0.33495 -0.09501 0.80917
 C1507 C 0.33046 -0.09893 0.82207
 N1508 N 0.31862 -0.09298 0.82734
 C1509 C 0.30749 -0.07066 0.79862
 C1510 C 0.29996 -0.06346 0.79151
 C1511 C 0.29045 -0.05554 0.78300
 N1512 N 0.28155 -0.06225 0.77424
 N1513 N 0.27217 -0.05512 0.76679
 C1514 C 0.27131 -0.04101 0.76781
 N1515 N 0.28034 -0.03432 0.77656
 N1516 N 0.28973 -0.04146 0.78404
 N1517 N 0.83152 0.41499 0.79842
 C1518 C 0.82008 0.42195 0.80322
 N1519 N 0.81531 0.41927 0.81629
 N1520 N 0.82171 0.40985 0.82428
 C1521 C 0.83307 0.40272 0.81946
 N1522 N 0.83794 0.40556 0.80642
 C1523 C 0.81226 0.43099 0.79417
 C1524 C 0.80506 0.43805 0.78661
 C1525 C 0.79578 0.44581 0.77772
 N1526 N 0.79426 0.45978 0.77926
 N1527 N 0.78478 0.46670 0.77171
 C1528 C 0.77644 0.45989 0.76239
 N1529 N 0.77813 0.44591 0.76084
 N1530 N 0.78761 0.43900 0.76837
 N1531 N 0.82143 -0.08509 0.30158
 C1532 C 0.80961 -0.07969 0.30737
 N1533 N 0.80569 -0.08390 0.32032
 N1534 N 0.81333 -0.09326 0.32726
 C1535 C 0.82513 -0.09879 0.32145
 N1536 N 0.82907 -0.09446 0.30851
 C1537 C 0.80083 -0.07040 0.29948
 C1538 C 0.79317 -0.06306 0.29267
 C1539 C 0.78366 -0.05491 0.28437
 N1540 N 0.78465 -0.04080 0.28391
 N1541 N 0.77560 -0.03337 0.27631
 C1542 C 0.76525 -0.03978 0.26888
 N1543 N 0.76438 -0.05392 0.26938
 N1544 N 0.77340 -0.06134 0.27697
 N1545 N 0.30632 0.58270 0.68218
 C1546 C 0.31148 0.57923 0.69491
 N1547 N 0.32388 0.58483 0.69914
 N1548 N 0.33088 0.59365 0.69091
 C1549 C 0.32571 0.59720 0.67818
 N1550 N 0.31333 0.59152 0.67395
 C1551 C 0.30344 0.57049 0.70412
 C1552 C 0.29633 0.56354 0.71192
 C1553 C 0.28741 0.55580 0.72125
 N1554 N 0.27761 0.56255 0.72896
 N1555 N 0.26898 0.55546 0.73733
 C1556 C 0.26982 0.54134 0.73833
 N1557 N 0.27973 0.53462 0.73059
 N1558 N 0.28837 0.54172 0.72220
 N1559 N 0.29837 1.08114 0.17447
 C1560 C 0.30371 1.07462 0.18584
 N1561 N 0.31706 1.07756 0.18993
 N1562 N 0.32480 1.08681 0.18289
 C1563 C 0.31943 1.09345 0.17157
 N1564 N 0.30611 1.09039 0.16744
 C1565 C 0.29493 1.06572 0.19417
 C1566 C 0.28739 1.05877 0.20155
 C1567 C 0.27834 1.05114 0.21082
 N1568 N 0.27837 1.03700 0.21099
 N1569 N 0.27040 1.03005 0.22012
 C1570 C 0.26213 1.03698 0.22940
 N1571 N 0.26209 1.05115 0.22907
 N1572 N 0.27004 1.05809 0.21995
 N1573 N 0.81630 0.57918 0.18973
 C1574 C 0.80404 0.57449 0.18423
 N1575 N 0.79986 0.57929 0.17158
 N1576 N 0.80768 0.58859 0.16469
 C1577 C 0.81990 0.59342 0.17025
 N1578 N 0.82411 0.58848 0.18285
 C1579 C 0.79501 0.56559 0.19232
 C1580 C 0.78739 0.55868 0.19965
 C1581 C 0.77836 0.55113 0.20901
 N1582 N 0.76993 0.55819 0.21794
 N1583 N 0.76212 0.55136 0.22727
 C1584 C 0.76245 0.53721 0.22803
 N1585 N 0.77085 0.53017 0.21896
 N1586 N 0.77869 0.53700 0.20962
 N1587 N 0.79791 1.08599 0.67156
 C1588 C 0.80223 1.08014 0.68371
 N1589 N 0.81496 1.08375 0.68900
 N1590 N 0.82312 1.09294 0.68237
 C1591 C 0.81879 1.09887 0.67024
 N1592 N 0.80607 1.09518 0.66493
 C1593 C 0.79308 1.07100 0.69140
 C1594 C 0.78539 1.06373 0.69831
 C1595 C 0.77630 1.05564 0.70716
 N1596 N 0.77831 1.04174 0.70882
 N1597 N 0.77053 1.03454 0.71792
 C1598 C 0.76049 1.04098 0.72572
 N1599 N 0.75845 1.05489 0.72387
 N1600 N 0.76620 1.06208 0.71478
 N1601 N 0.68065 0.58342 0.30954
 C1602 C 0.69336 0.57907 0.31426
 N1603 N 0.69841 0.58434 0.32639
 N1604 N 0.69099 0.59372 0.33356
 C1605 C 0.67830 0.59816 0.32881
 N1606 N 0.67323 0.59279 0.31670
 C1607 C 0.70176 0.56976 0.30601
 C1608 C 0.70888 0.56236 0.29868
 C1609 C 0.71737 0.55410 0.28945
 N1610 N 0.72551 0.56045 0.27972
 N1611 N 0.73299 0.55292 0.27070
 C1612 C 0.73262 0.53875 0.27106
 N1613 N 0.72449 0.53243 0.28091
 N1614 N 0.71699 0.53997 0.28994
 N1615 N 0.69478 1.08684 0.82235
 C1616 C 0.68880 1.08076 0.81106
 N1617 N 0.67549 1.08437 0.80741
 N1618 N 0.66843 1.09384 0.81478
 C1619 C 0.67446 1.10008 0.82602
 N1620 N 0.68773 1.09631 0.82972
 C1621 C 0.69691 1.07160 0.80240
 C1622 C 0.70404 1.06442 0.79488
 C1623 C 0.71279 1.05652 0.78561
 N1624 N 0.71411 1.04252 0.78704
 N1625 N 0.72226 1.03531 0.77831
 C1626 C 0.72939 1.04184 0.76785
 N1627 N 0.72802 1.05589 0.76653
 N1628 N 0.71989 1.06309 0.77524
 N1629 N 0.17363 0.58568 0.80725
 C1630 C 0.18624 0.58077 0.81165
 N1631 N 0.19180 0.58574 0.82370
 N1632 N 0.18498 0.59538 0.83108
 C1633 C 0.17239 0.60040 0.82664
 N1634 N 0.16681 0.59532 0.81463
 C1635 C 0.19420 0.57139 0.80306
 C1636 C 0.20127 0.56405 0.79564
 C1637 C 0.21020 0.55600 0.78664
 N1638 N 0.21856 0.56257 0.77724
 N1639 N 0.22742 0.55532 0.76930
 C1640 C 0.22827 0.54122 0.77043
 N1641 N 0.21977 0.53466 0.77981
 N1642 N 0.21089 0.54192 0.78778
 N1643 N 0.19811 1.08327 0.32799
 C1644 C 0.19323 1.07773 0.31590
 N1645 N 0.18070 1.08212 0.31079
 N1646 N 0.17330 1.09181 0.31749
 C1647 C 0.17819 1.09747 0.32953
 N1648 N 0.19070 1.09297 0.33471
 C1649 C 0.20174 1.06830 0.30792
 C1650 C 0.20889 1.06090 0.30065
 C1651 C 0.21738 1.05277 0.29133
 N1652 N 0.21664 1.03864 0.29131
 N1653 N 0.22403 1.03126 0.28206
 C1654 C 0.23239 1.03775 0.27250
 N1655 N 0.23311 1.05190 0.27267
 N1656 N 0.22575 1.05927 0.28190
 N1657 N 0.69286 0.41603 0.67933
 C1658 C 0.68929 0.41916 0.69268
 N1659 N 0.67771 0.41315 0.69839
 N1660 N 0.66994 0.40425 0.69099
 C1661 C 0.67352 0.40103 0.67765
 N1662 N 0.68509 0.40712 0.67194
 C1663 C 0.69814 0.42806 0.70092
 C1664 C 0.70583 0.43519 0.70794
 C1665 C 0.71530 0.44322 0.71639
 N1666 N 0.71352 0.45716 0.71797
 N1667 N 0.72247 0.46454 0.72573
 C1668 C 0.73352 0.45825 0.73220
 N1669 N 0.73520 0.44427 0.73057
 N1670 N 0.72626 0.43690 0.72282
 N1671 N 0.67012 -0.08423 0.19966
 C1672 C 0.68187 -0.07746 0.19526
 N1673 N 0.68734 -0.08057 0.18257
 N1674 N 0.68129 -0.09020 0.17453
 C1675 C 0.66960 -0.09708 0.17895
 N1676 N 0.66407 -0.09385 0.19162
 C1677 C 0.68923 -0.06817 0.20445
 C1678 C 0.69598 -0.06092 0.21225
 C1679 C 0.70471 -0.05304 0.22158
 N1680 N 0.71290 -0.05980 0.23095
 N1681 N 0.72181 -0.05274 0.23900
 C1682 C 0.72289 -0.03865 0.23801
 N1683 N 0.71453 -0.03188 0.22868
 N1684 N 0.70561 -0.03896 0.22059
 N1685 N 0.17329 0.41769 0.20034
 C1686 C 0.18553 0.42345 0.19584
 N1687 N 0.19076 0.41969 0.18322
 N1688 N 0.18400 0.41039 0.17537
 C1689 C 0.17180 0.40451 0.17989
 N1690 N 0.16653 0.40839 0.19248
 C1691 C 0.19348 0.43242 0.20484
 C1692 C 0.20055 0.43942 0.21258
 C1693 C 0.20944 0.44709 0.22192
 N1694 N 0.21913 0.44024 0.22968
 N1695 N 0.22776 0.44725 0.23808
 C1696 C 0.22702 0.46137 0.23906
 N1697 N 0.21720 0.46818 0.23129
 N1698 N 0.20856 0.46116 0.22288
 N1699 N 0.19088 -0.08330 0.68215
 C1700 C 0.18662 -0.08065 0.69541
 N1701 N 0.17511 -0.08732 0.70049
 N1702 N 0.16807 -0.09637 0.69257
 C1703 C 0.17234 -0.09909 0.67931
 N1704 N 0.18385 -0.09235 0.67423
 C1705 C 0.19474 -0.07161 0.70423
 C1706 C 0.20190 -0.06443 0.71175
 C1707 C 0.21088 -0.05644 0.72076
 N1708 N 0.21027 -0.04231 0.72100
 N1709 N 0.21904 -0.03503 0.72906
 C1710 C 0.22874 -0.04161 0.73717
 N1711 N 0.22920 -0.05577 0.73691
 N1712 N 0.22045 -0.06305 0.72887
 N1713 N 0.31095 0.32302 0.41918
 C1714 C 0.31340 0.30927 0.42146
 N1715 N 0.32334 0.30267 0.41376
 N1716 N 0.33059 0.30958 0.40406
 C1717 C 0.32813 0.32333 0.40168
 N1718 N 0.31822 0.32994 0.40947
 C1719 C 0.30483 0.30149 0.43108
 C1720 C 0.29732 0.29465 0.43861
 C1721 C 0.28796 0.28621 0.44685
 N1722 N 0.27814 0.27825 0.44042
 N1723 N 0.26924 0.27052 0.44787
 C1724 C 0.26981 0.27040 0.46205
 N1725 N 0.27973 0.27838 0.46846
 N1726 N 0.28866 0.28615 0.46099
 N1727 N 0.32691 0.80652 -0.08111
 C1728 C 0.31487 0.81203 -0.07591
 N1729 N 0.31055 0.82471 -0.08048
 N1730 N 0.31802 0.83164 -0.09003
 C1731 C 0.33002 0.82608 -0.09535
 N1732 N 0.33437 0.81344 -0.09066
 C1733 C 0.30615 0.80397 -0.06671
 C1734 C 0.29853 0.79689 -0.05954
 C1735 C 0.28909 0.78820 -0.05171
 N1736 N 0.27990 0.77981 -0.05852
 N1737 N 0.27085 0.77191 -0.05142
 C1738 C 0.27064 0.77207 -0.03724
 N1739 N 0.27993 0.78048 -0.03046
 N1740 N 0.28900 0.78840 -0.03756
 N1741 N 0.80250 0.33184 -0.08243
 C1742 C 0.80601 0.31947 -0.07651
 N1743 N 0.81825 0.31325 -0.08026
 N1744 N 0.82669 0.31915 -0.08968
 C1745 C 0.82315 0.33148 -0.09571
 N1746 N 0.81094 0.33775 -0.09185
 C1747 C 0.79635 0.31244 -0.06737
 C1748 C 0.78815 0.30601 -0.06021
 C1749 C 0.77838 0.29772 -0.05233
 N1750 N 0.77891 0.29735 -0.03819
 N1751 N 0.77041 0.28885 -0.03105
 C1752 C 0.76112 0.28041 -0.03779
 N1753 N 0.76059 0.28096 -0.05195
 N1754 N 0.76905 0.28945 -0.05908
 N1755 N 0.81262 0.82292 0.41854
 C1756 C 0.81731 0.81020 0.42259
 N1757 N 0.82906 0.80491 0.41656
 N1758 N 0.83588 0.81209 0.40673
 C1759 C 0.83114 0.82478 0.40256
 N1760 N 0.81943 0.83011 0.40870
 C1761 C 0.80918 0.80188 0.43212
 C1762 C 0.80193 0.79468 0.43955
 C1763 C 0.79275 0.78592 0.44763
 N1764 N 0.78395 0.77696 0.44104
 N1765 N 0.77494 0.76918 0.44831
 C1766 C 0.77436 0.77002 0.46246
 N1767 N 0.78329 0.77897 0.46904
 N1768 N 0.79232 0.78679 0.46175
 N1769 N 0.69225 0.32554 0.58094
 C1770 C 0.68937 0.31208 0.57763
 N1771 N 0.67849 0.30552 0.58403
 N1772 N 0.67074 0.31219 0.59350
 C1773 C 0.67364 0.32563 0.59691
 N1774 N 0.68449 0.33221 0.59041
 C1775 C 0.69838 0.30450 0.56832
 C1776 C 0.70619 0.29784 0.56100
 C1777 C 0.71583 0.28964 0.55293
 N1778 N 0.71592 0.29030 0.53879
 N1779 N 0.72514 0.28280 0.53145
 C1780 C 0.73458 0.27438 0.53799
 N1781 N 0.73436 0.27376 0.55216
 N1782 N 0.72516 0.28123 0.55949
 N1783 N 0.70062 0.82957 1.08123
 C1784 C 0.69673 0.81734 1.07526
 N1785 N 0.68438 0.81135 1.07910
 N1786 N 0.67620 0.81735 1.08867
 C1787 C 0.68010 0.82953 1.09474
 N1788 N 0.69243 0.83558 1.09079
 C1789 C 0.70608 0.81017 1.06595
 C1790 C 0.71399 0.80358 1.05864
 C1791 C 0.72340 0.79507 1.05060
 N1792 N 0.72300 0.79512 1.03645
 N1793 N 0.73119 0.78649 1.02915
 C1794 C 0.74002 0.77748 1.03574
 N1795 N 0.74042 0.77760 1.04992
 N1796 N 0.73227 0.78622 1.05721
 N1797 N 0.19648 0.32856 1.08299
 C1798 C 0.19262 0.31594 1.07788
 N1799 N 0.18063 0.30988 1.08264
 N1800 N 0.17277 0.31620 1.09227
 C1801 C 0.17667 0.32878 1.09749
 N1802 N 0.18862 0.33488 1.09262
 C1803 C 0.20174 0.30853 1.06852
 C1804 C 0.20959 0.30191 1.06119
 C1805 C 0.21910 0.29349 1.05316
 N1806 N 0.21810 0.29280 1.03906
 N1807 N 0.22653 0.28436 1.03182
 C1808 C 0.23624 0.27629 1.03842
 N1809 N 0.23722 0.27714 1.05255
 N1810 N 0.22883 0.28557 1.05977
 N1811 N 0.18481 0.80658 0.58496
 C1812 C 0.19566 0.81349 0.57888
 N1813 N 0.19803 0.82701 0.58232
 N1814 N 0.18980 0.83341 0.59161
 C1815 C 0.17897 0.82646 0.59778
 N1816 N 0.17661 0.81295 0.59424
 C1817 C 0.20493 0.80619 0.56958
 C1818 C 0.21259 0.79940 0.56221
 C1819 C 0.22154 0.79056 0.55403
 N1820 N 0.22916 0.78046 0.56037
 N1821 N 0.23682 0.77160 0.55286
 C1822 C 0.23716 0.77247 0.53871
 N1823 N 0.22956 0.78270 0.53239
 N1824 N 0.22187 0.79157 0.53991
 N1825 N 0.30167 0.67195 0.57969
 C1826 C 0.30597 0.68440 0.57446
 N1827 N 0.31834 0.68991 0.57886
 N1828 N 0.32615 0.68323 0.58826
 C1829 C 0.32184 0.67083 0.59362
 N1830 N 0.30950 0.66526 0.58910
 C1831 C 0.29699 0.69234 0.56541
 C1832 C 0.28951 0.69964 0.55837
 C1833 C 0.28073 0.70907 0.55067
 N1834 N 0.27157 0.71741 0.55758
 N1835 N 0.26422 0.72704 0.55074
 C1836 C 0.26575 0.72873 0.53674
 N1837 N 0.27484 0.72023 0.52983
 N1838 N 0.28223 0.71059 0.53668
 N1839 N 0.30259 0.18158 1.08439
 C1840 C 0.30934 0.19219 1.07783
 N1841 N 0.32307 0.19469 1.08083
 N1842 N 0.32984 0.18682 1.09013
 C1843 C 0.32307 0.17622 1.09677
 N1844 N 0.30935 0.17373 1.09368
 C1845 C 0.30167 0.20122 1.06863
 C1846 C 0.29478 0.20892 1.06141
 C1847 C 0.28617 0.21828 1.05345
 N1848 N 0.27862 0.22826 1.06008
 N1849 N 0.27047 0.23693 1.05286
 C1850 C 0.26950 0.23594 1.03874
 N1851 N 0.27708 0.22589 1.03214
 N1852 N 0.28526 0.21719 1.03937
 N1853 N 0.82180 0.69502 1.07972
 C1854 C 0.80948 0.69034 1.07432
 N1855 N 0.80433 0.67785 1.07859
 N1856 N 0.81127 0.67029 1.08802
 C1857 C 0.82356 0.67500 1.09353
 N1858 N 0.82874 0.68747 1.08915
 C1859 C 0.80141 0.69904 1.06514
 C1860 C 0.79444 0.70669 1.05795
 C1861 C 0.78600 0.71626 1.05006
 N1862 N 0.78644 0.71643 1.03591
 N1863 N 0.77888 0.72570 1.02875
 C1864 C 0.77061 0.73513 1.03547
 N1865 N 0.77020 0.73482 1.04965
 N1866 N 0.77773 0.72557 1.05680
 N1867 N 0.82860 0.20074 0.58035
 C1868 C 0.81576 0.19742 0.57515
 N1869 N 0.80951 0.18536 0.57921
 N1870 N 0.81588 0.17689 0.58826
 C1871 C 0.82869 0.18023 0.59357
 N1872 N 0.83497 0.19228 0.58940
 C1873 C 0.80838 0.20705 0.56632
 C1874 C 0.80179 0.21525 0.55937
 C1875 C 0.79342 0.22506 0.55169
 N1876 N 0.79357 0.22526 0.53754
 N1877 N 0.78516 0.23391 0.53053
 C1878 C 0.77630 0.24268 0.53742
 N1879 N 0.77632 0.24248 0.55161
 N1880 N 0.78471 0.23385 0.55861
 N1881 N 0.69611 0.68323 0.41998
 C1882 C 0.69061 0.69546 0.42449
 N1883 N 0.67774 0.69944 0.41986
 N1884 N 0.67062 0.69145 0.41095
 C1885 C 0.67614 0.67923 0.40634
 N1886 N 0.68899 0.67524 0.41106
 C1887 C 0.69873 0.70452 0.43327
 C1888 C 0.70586 0.71225 0.44022
 C1889 C 0.71477 0.72151 0.44798
 N1890 N 0.72418 0.72968 0.44117
 N1891 N 0.73288 0.73794 0.44827
 C1892 C 0.73250 0.73836 0.46244
 N1893 N 0.72296 0.73018 0.46922
 N1894 N 0.71425 0.72190 0.46211
 N1895 N 0.67651 0.19659 -0.07916
 C1896 C 0.69039 0.19415 -0.07692
 N1897 N 0.69690 0.18389 -0.08417
 N1898 N 0.68978 0.17632 -0.09343
 C1899 C 0.67590 0.17878 -0.09577
 N1900 N 0.66937 0.18901 -0.08842
 C1901 C 0.69837 0.20298 -0.06781
 C1902 C 0.70533 0.21066 -0.06065
 C1903 C 0.71384 0.22015 -0.05275
 N1904 N 0.72186 0.22973 -0.05946
 N1905 N 0.72960 0.23878 -0.05226
 C1906 C 0.72964 0.23860 -0.03808
 N1907 N 0.72160 0.22891 -0.03139
 N1908 N 0.71384 0.21984 -0.03860
 N1909 N 0.17489 0.70040 -0.08010
 C1910 C 0.18807 0.69674 -0.07613
 N1911 N 0.19394 0.68505 -0.08155
 N1912 N 0.18688 0.67730 -0.09073
 C1913 C 0.17371 0.68100 -0.09480
 N1914 N 0.16782 0.69265 -0.08926
 C1915 C 0.19611 0.70567 -0.06715
 C1916 C 0.20314 0.71338 -0.06006
 C1917 C 0.21189 0.72270 -0.05220
 N1918 N 0.22110 0.73117 -0.05892
 N1919 N 0.22961 0.73954 -0.05174
 C1920 C 0.22923 0.73980 -0.03756
 N1921 N 0.21990 0.73133 -0.03087
 N1922 N 0.21138 0.72294 -0.03806
 N1923 N 0.19208 0.18445 0.42006
 C1924 C 0.18620 0.19657 0.42440
 N1925 N 0.17357 0.20047 0.41910
 N1926 N 0.16706 0.19252 0.40970
 C1927 C 0.17298 0.18042 0.40526
 N1928 N 0.18558 0.17650 0.41066
 C1929 C 0.19384 0.20569 0.43353
 C1930 C 0.20073 0.21344 0.44069
 C1931 C 0.20954 0.22272 0.44855
 N1932 N 0.21030 0.22182 0.46266
 N1933 N 0.21919 0.22992 0.46974
 C1934 C 0.22766 0.23918 0.46298
 N1935 N 0.22673 0.24008 0.44886
 N1936 N 0.21785 0.23201 0.44178
 N1937 N 0.32135 0.42166 0.69849
 C1938 C 0.30856 0.42615 0.69411
 N1939 N 0.30313 0.42096 0.68212
 N1940 N 0.31023 0.41152 0.67476
 C1941 C 0.32299 0.40692 0.67916
 N1942 N 0.32846 0.41221 0.69113
 C1943 C 0.30034 0.43534 0.70266
 C1944 C 0.29316 0.44254 0.71012
 C1945 C 0.28440 0.45048 0.71936
 N1946 N 0.28351 0.46455 0.71824
 N1947 N 0.27545 0.47179 0.72703
 C1948 C 0.26798 0.46522 0.73724
 N1949 N 0.26892 0.45112 0.73824
 N1950 N 0.27695 0.44388 0.72947
 N1951 N 0.30871 0.92064 0.18340
 C1952 C 0.31319 0.92395 0.19642
 N1953 N 0.32498 0.91781 0.20148
 N1954 N 0.33203 0.90859 0.19379
 C1955 C 0.32750 0.90516 0.18080
 N1956 N 0.31576 0.91142 0.17572
 C1957 C 0.30486 0.93286 0.20513
 C1958 C 0.29740 0.93985 0.21250
 C1959 C 0.28798 0.94758 0.22127
 N1960 N 0.27875 0.94071 0.22960
 N1961 N 0.26948 0.94773 0.23727
 C1962 C 0.26908 0.96190 0.23692
 N1963 N 0.27843 0.96874 0.22860
 N1964 N 0.28772 0.96171 0.22090
 N1965 N 0.80670 0.41801 0.18420
 C1966 C 0.81207 0.42222 0.19661
 N1967 N 0.82453 0.41691 0.20097
 N1968 N 0.83142 0.40766 0.19316
 C1969 C 0.82604 0.40338 0.18075
 N1970 N 0.81357 0.40876 0.17640
 C1971 C 0.80415 0.43149 0.20537
 C1972 C 0.79702 0.43885 0.21272
 C1973 C 0.78790 0.44700 0.22143
 N1974 N 0.77870 0.44051 0.23007
 N1975 N 0.76959 0.44788 0.23761
 C1976 C 0.76931 0.46202 0.23680
 N1977 N 0.77865 0.46851 0.22818
 N1978 N 0.78778 0.46112 0.22062
 N1979 N 0.80964 0.92420 0.68445
 C1980 C 0.81586 0.92876 0.69633
 N1981 N 0.82864 0.92362 0.69994
 N1982 N 0.83497 0.91414 0.69194
 C1983 C 0.82870 0.90946 0.68010
 N1984 N 0.81595 0.91472 0.67646
 C1985 C 0.80840 0.93794 0.70553
 C1986 C 0.80156 0.94513 0.71330
 C1987 C 0.79272 0.95301 0.72251
 N1988 N 0.78520 0.94636 0.73252
 N1989 N 0.77604 0.95335 0.74037
 C1990 C 0.77405 0.96726 0.73851
 N1991 N 0.78175 0.97391 0.72854
 N1992 N 0.79092 0.96691 0.72066
 N1993 N 0.68244 0.57863 0.69182
 C1994 C 0.69473 0.57356 0.68672
 N1995 N 0.69957 0.57829 0.67427
 N1996 N 0.69236 0.58787 0.66717
 C1997 C 0.68012 0.59307 0.67232
 N1998 N 0.67525 0.58820 0.68473
 C1999 C 0.70310 0.56433 0.69506
 C2000 C 0.71022 0.55713 0.70255
 C2001 C 0.71873 0.54924 0.71206
 N2002 N 0.72577 0.55588 0.72238
 N2003 N 0.73331 0.54868 0.73159
 C2004 C 0.73412 0.53455 0.73083
 N2005 N 0.72708 0.52794 0.72039
 N2006 N 0.71951 0.53515 0.71117
 N2007 N 0.70027 0.08311 0.17452
 C2008 C 0.69428 0.07639 0.18548
 N2009 N 0.68080 0.07943 0.18903
 N2010 N 0.67355 0.08892 0.18186
 C2011 C 0.67955 0.09573 0.17093
 N2012 N 0.69302 0.09260 0.16735
 C2013 C 0.70243 0.06705 0.19394
 C2014 C 0.70938 0.05969 0.20147
 C2015 C 0.71772 0.05158 0.21095
 N2016 N 0.71651 0.03749 0.21147
 N2017 N 0.72387 0.03016 0.22079
 C2018 C 0.73266 0.03665 0.22991
 N2019 N 0.73385 0.05076 0.22924
 N2020 N 0.72652 0.05808 0.21995
 N2021 N 0.19888 0.58168 0.17916
 C2022 C 0.19267 0.57589 0.19052
 N2023 N 0.17932 0.57964 0.19388
 N2024 N 0.17242 0.58895 0.18615
 C2025 C 0.17866 0.59484 0.17482
 N2026 N 0.19198 0.59099 0.17143
 C2027 C 0.20052 0.56681 0.19950
 C2028 C 0.20731 0.55968 0.20736
 C2029 C 0.21554 0.55179 0.21712
 N2030 N 0.21598 0.53767 0.21653
 N2031 N 0.22344 0.53048 0.22586
 C2032 C 0.23072 0.53714 0.23610
 N2033 N 0.23025 0.55130 0.23657
 N2034 N 0.22281 0.55849 0.22726
 N2035 N 0.18061 0.07874 0.69426
 C2036 C 0.19346 0.07440 0.68988
 N2037 N 0.19894 0.07981 0.67797
 N2038 N 0.19180 0.08929 0.67069
 C2039 C 0.17897 0.09372 0.67509
 N2040 N 0.17347 0.08822 0.68697
 C2041 C 0.20163 0.06510 0.69836
 C2042 C 0.20862 0.05777 0.70588
 C2043 C 0.21704 0.04970 0.71532
 N2044 N 0.22495 0.05625 0.72507
 N2045 N 0.23243 0.04892 0.73423
 C2046 C 0.23230 0.03475 0.73400
 N2047 N 0.22439 0.02822 0.72414
 N2048 N 0.21688 0.03556 0.71496
 N2049 N 0.31494 0.58008 0.31417
 C2050 C 0.30234 0.57663 0.31989
 N2051 N 0.29821 0.58296 0.33186
 N2052 N 0.30643 0.59247 0.33791
 C2053 C 0.31902 0.59600 0.33215
 N2054 N 0.32315 0.58959 0.32021
 C2055 C 0.29307 0.56726 0.31271
 C2056 C 0.28529 0.55986 0.30609
 C2057 C 0.27609 0.55171 0.29747
 N2058 N 0.26659 0.55820 0.28920
 N2059 N 0.25880 0.55090 0.28027
 C2060 C 0.26021 0.53684 0.27924
 N2061 N 0.26966 0.53035 0.28769
 N2062 N 0.27748 0.53766 0.29664
 N2063 N 0.31475 0.07785 0.81386
 C2064 C 0.30225 0.07388 0.81944
 N2065 N 0.29778 0.07996 0.83143
 N2066 N 0.30556 0.08975 0.83760
 C2067 C 0.31804 0.09383 0.83196
 N2068 N 0.32252 0.08764 0.82002
 C2069 C 0.29332 0.06438 0.81198
 C2070 C 0.28581 0.05696 0.80507
 C2071 C 0.27691 0.04885 0.79609
 N2072 N 0.26761 0.05540 0.78763
 N2073 N 0.26006 0.04817 0.77843
 C2074 C 0.26152 0.03412 0.77732
 N2075 N 0.27077 0.02757 0.78594
 N2076 N 0.27836 0.03482 0.79515
 N2077 N 0.79744 0.58014 0.82954
 C2078 C 0.80192 0.57377 0.81771
 N2079 N 0.81456 0.57739 0.81220
 N2080 N 0.82245 0.58713 0.81827
 C2081 C 0.81797 0.59361 0.83004
 N2082 N 0.80536 0.58989 0.83563
 C2083 C 0.79293 0.56429 0.81031
 C2084 C 0.78550 0.55684 0.80336
 C2085 C 0.77685 0.54864 0.79423
 N2086 N 0.77899 0.53473 0.79281
 N2087 N 0.77184 0.52748 0.78330
 C2088 C 0.76235 0.53388 0.77482
 N2089 N 0.76018 0.54779 0.77643
 N2090 N 0.76730 0.55503 0.78594
 N2091 N 0.79997 0.08092 0.32628
 C2092 C 0.80523 0.07492 0.31459
 N2093 N 0.81821 0.07869 0.31002
 N2094 N 0.82569 0.08824 0.31691
 C2095 C 0.82039 0.09435 0.32856
 N2096 N 0.80744 0.09046 0.33316
 C2097 C 0.79661 0.06573 0.30643
 C2098 C 0.78911 0.05860 0.29922
 C2099 C 0.78000 0.05083 0.29017
 N2100 N 0.77936 0.03671 0.29081
 N2101 N 0.77113 0.02964 0.28203
 C2102 C 0.76326 0.03643 0.27231
 N2103 N 0.76393 0.05058 0.27182
 N2104 N 0.77213 0.05764 0.28058
 N2105 N 0.68652 0.41993 0.32011
 C2106 C 0.68320 0.42206 0.30651
 N2107 N 0.67275 0.41441 0.30066
 N2108 N 0.66582 0.40492 0.30818
 C2109 C 0.66914 0.40273 0.32179
 N2110 N 0.67959 0.41044 0.32764
 C2111 C 0.69132 0.43155 0.29812
 C2112 C 0.69853 0.43902 0.29092
 C2113 C 0.70769 0.44718 0.28220
 N2114 N 0.70769 0.46132 0.28276
 N2115 N 0.71678 0.46870 0.27507
 C2116 C 0.72618 0.46217 0.26658
 N2117 N 0.72600 0.44801 0.26602
 N2118 N 0.71694 0.44066 0.27367
 N2119 N 0.67750 0.92035 0.80509
 C2120 C 0.68936 0.92587 0.81069
 N2121 N 0.69342 0.92179 0.82364
 N2122 N 0.68587 0.91244 0.83074
 C2123 C 0.67404 0.90682 0.82511
 N2124 N 0.66996 0.91100 0.81218
 C2125 C 0.69803 0.93510 0.80259
 C2126 C 0.70550 0.94241 0.79549
 C2127 C 0.71468 0.95053 0.78677
 N2128 N 0.72569 0.94433 0.78029
 N2129 N 0.73425 0.95172 0.77211
 C2130 C 0.73213 0.96559 0.77007
 N2131 N 0.72104 0.97176 0.77661
 N2132 N 0.71246 0.96436 0.78480
 N2133 N 0.19613 0.42067 0.83094
 C2134 C 0.19270 0.42584 0.81822
 N2135 N 0.18108 0.42091 0.81165
 N2136 N 0.17317 0.41106 0.81758
 C2137 C 0.17664 0.40577 0.83026
 N2138 N 0.18822 0.41082 0.83687
 C2139 C 0.20193 0.43541 0.81117
 C2140 C 0.20984 0.44286 0.80472
 C2141 C 0.21935 0.45099 0.79636
 N2142 N 0.21795 0.46502 0.79530
 N2143 N 0.22621 0.47229 0.78667
 C2144 C 0.23612 0.46577 0.77876
 N2145 N 0.23752 0.45172 0.78000
 N2146 N 0.22930 0.44447 0.78863
 N2147 N 0.17142 0.91656 0.30378
 C2148 C 0.18364 0.92216 0.30848
 N2149 N 0.18877 0.91800 0.32102
 N2150 N 0.18192 0.90849 0.32858
 C2151 C 0.16973 0.90279 0.32385
 N2152 N 0.16457 0.90705 0.31134
 C2153 C 0.19170 0.93143 0.29981
 C2154 C 0.19890 0.93869 0.29240
 C2155 C 0.20803 0.94668 0.28350
 N2156 N 0.21753 0.94004 0.27532
 N2157 N 0.22648 0.94729 0.26744
 C2158 C 0.22629 0.96147 0.26742
 N2159 N 0.21666 0.96808 0.27559
 N2160 N 0.20770 0.96082 0.28350
 N2161 N 0.41418 0.30531 0.68075
 C2162 C 0.41788 0.30886 0.69395
 N2163 N 0.41224 0.32046 0.69976
 N2164 N 0.40315 0.32826 0.69261
 C2165 C 0.39938 0.32471 0.67942
 N2166 N 0.40509 0.31311 0.67360
 C2167 C 0.42701 0.30003 0.70195
 C2168 C 0.43432 0.29239 0.70884
 C2169 C 0.44253 0.28298 0.71717
 N2170 N 0.45668 0.28453 0.71828
 N2171 N 0.46421 0.27562 0.72593
 C2172 C 0.45786 0.26487 0.73275
 N2173 N 0.44366 0.26343 0.73159
 N2174 N 0.43615 0.27231 0.72396
 N2175 N 0.41761 0.80290 0.17866
 C2176 C 0.42276 0.80728 0.19110
 N2177 N 0.41810 0.81949 0.19653
 N2178 N 0.40855 0.82706 0.18975
 C2179 C 0.40330 0.82265 0.17733
 N2180 N 0.40805 0.81047 0.17187
 C2181 C 0.43210 0.79856 0.19896
 C2182 C 0.43943 0.79089 0.20577
 C2183 C 0.44746 0.78131 0.21406
 N2184 N 0.46173 0.78186 0.21431
 N2185 N 0.46904 0.77267 0.22184
 C2186 C 0.46233 0.76262 0.22938
 N2187 N 0.44803 0.76220 0.22909
 N2188 N 0.44074 0.77137 0.22159
 N2189 N 0.91791 0.30255 0.17453
 C2190 C 0.92236 0.30568 0.18760
 N2191 N 0.91718 0.31717 0.19405
 N2192 N 0.90780 0.32527 0.18764
 C2193 C 0.90326 0.32211 0.17459
 N2194 N 0.90854 0.31066 0.16812
 C2195 C 0.93150 0.29638 0.19499
 C2196 C 0.93862 0.28841 0.20166
 C2197 C 0.94633 0.27882 0.21021
 N2198 N 0.96061 0.27879 0.21031
 N2199 N 0.96759 0.27031 0.21890
 C2200 C 0.96054 0.26157 0.22768
 N2201 N 0.94624 0.26161 0.22740
 N2202 N 0.93927 0.27006 0.21884
 N2203 N 0.91545 0.80454 0.67584
 C2204 C 0.91967 0.80763 0.68900
 N2205 N 0.91469 0.81930 0.69525
 N2206 N 0.90572 0.82762 0.68856
 C2207 C 0.90142 0.82453 0.67541
 N2208 N 0.90648 0.81287 0.66915
 C2209 C 0.92862 0.79826 0.69655
 C2210 C 0.93577 0.79023 0.70313
 C2211 C 0.94380 0.78047 0.71119
 N2212 N 0.95794 0.78187 0.71249
 N2213 N 0.96529 0.77275 0.72006
 C2214 C 0.95875 0.76193 0.72660
 N2215 N 0.94456 0.76063 0.72523
 N2216 N 0.93723 0.76973 0.71768
 N2217 N 0.58504 0.29551 0.32256
 C2218 C 0.57856 0.30034 0.31092
 N2219 N 0.58130 0.31350 0.30651
 N2220 N 0.59029 0.32158 0.31348
 C2221 C 0.59688 0.31675 0.32509
 N2222 N 0.59405 0.30358 0.32954
 C2223 C 0.56959 0.29136 0.30286
 C2224 C 0.56240 0.28385 0.29571
 C2225 C 0.55426 0.27496 0.28674
 N2226 N 0.54004 0.27603 0.28623
 N2227 N 0.53263 0.26827 0.27731
 C2228 C 0.53919 0.25918 0.26857
 N2229 N 0.55345 0.25812 0.26923
 N2230 N 0.56084 0.26585 0.27814
 N2231 N 0.58204 0.82507 0.80086
 C2232 C 0.57855 0.81173 0.80408
 N2233 N 0.58419 0.80575 0.81561
 N2234 N 0.59311 0.81285 0.82364
 C2235 C 0.59672 0.82617 0.82040
 N2236 N 0.59097 0.83218 0.80890
 C2237 C 0.56980 0.80368 0.79492
 C2238 C 0.56288 0.79649 0.78721
 C2239 C 0.55516 0.78744 0.77807
 N2240 N 0.56213 0.77815 0.76998
 N2241 N 0.55505 0.76923 0.76197
 C2242 C 0.54074 0.76925 0.76174
 N2243 N 0.53381 0.77867 0.76983
 N2244 N 0.54089 0.78760 0.77786
 N2245 N 0.08369 0.32606 0.79859
 C2246 C 0.07739 0.31420 0.80317
 N2247 N 0.08075 0.30915 0.81596
 N2248 N 0.09016 0.31571 0.82390
 C2249 C 0.09656 0.32753 0.81932
 N2250 N 0.09309 0.33264 0.80655
 C2251 C 0.06820 0.30640 0.79420
 C2252 C 0.06096 0.29926 0.78673
 C2253 C 0.05297 0.29007 0.77795
 N2254 N 0.03891 0.28842 0.77982
 N2255 N 0.03181 0.27899 0.77240
 C2256 C 0.03852 0.27084 0.76288
 N2257 N 0.05259 0.27266 0.76099
 N2258 N 0.05968 0.28208 0.76839
 N2259 N 0.08191 0.79868 0.32171
 C2260 C 0.07697 0.80320 0.30923
 N2261 N 0.08112 0.81584 0.30436
 N2262 N 0.09000 0.82370 0.31172
 C2263 C 0.09504 0.81917 0.32418
 N2264 N 0.09079 0.80654 0.32906
 C2265 C 0.06822 0.79434 0.30084
 C2266 C 0.06128 0.78682 0.29347
 C2267 C 0.05351 0.77786 0.28429
 N2268 N 0.03924 0.77747 0.28465
 N2269 N 0.03212 0.76949 0.27571
 C2270 C 0.03901 0.76162 0.26607
 N2271 N 0.05332 0.76203 0.26584
 N2272 N 0.06043 0.76999 0.27477
 N2273 N 0.58534 0.69048 0.67728
 C2274 C 0.58088 0.68533 0.68971
 N2275 N 0.58636 0.67317 0.69445
 N2276 N 0.59606 0.66641 0.68702
 C2277 C 0.60064 0.67161 0.67463
 N2278 N 0.59505 0.68373 0.66985
 C2279 C 0.57147 0.69329 0.69830
 C2280 C 0.56410 0.70039 0.70568
 C2281 C 0.55603 0.70937 0.71458
 N2282 N 0.54175 0.70925 0.71429
 N2283 N 0.53441 0.71808 0.72221
 C2284 C 0.54109 0.72735 0.73068
 N2285 N 0.55540 0.72732 0.73095
 N2286 N 0.56272 0.71850 0.72307
 N2287 N 0.58025 0.18978 0.17055
 C2288 C 0.57700 0.18659 0.18396
 N2289 N 0.58326 0.17545 0.19008
 N2290 N 0.59254 0.16778 0.18304
 C2291 C 0.59590 0.17101 0.16964
 N2292 N 0.58953 0.18210 0.16350
 C2293 C 0.56795 0.19549 0.19197
 C2294 C 0.56088 0.20308 0.19913
 C2295 C 0.55311 0.21217 0.20819
 N2296 N 0.53883 0.21229 0.20811
 N2297 N 0.53176 0.22033 0.21704
 C2298 C 0.53870 0.22851 0.22637
 N2299 N 0.55301 0.22838 0.22630
 N2300 N 0.56008 0.22037 0.21739
 N2301 N 0.08474 0.67787 0.18901
 C2302 C 0.07916 0.68926 0.18271
 N2303 N 0.08329 0.69254 0.16955
 N2304 N 0.09275 0.68469 0.16293
 C2305 C 0.09842 0.67333 0.16925
 N2306 N 0.09419 0.67004 0.18239
 C2307 C 0.06980 0.69822 0.19031
 C2308 C 0.06242 0.70579 0.19718
 C2309 C 0.05427 0.71481 0.20599
 N2310 N 0.06090 0.72374 0.21474
 N2311 N 0.05354 0.73157 0.22357
 C2312 C 0.03925 0.73079 0.22401
 N2313 N 0.03264 0.72189 0.21512
 N2314 N 0.04001 0.71402 0.20627
 N2315 N 0.08493 0.19186 0.67942
 C2316 C 0.08033 0.18669 0.69180
 N2317 N 0.08546 0.17432 0.69639
 N2318 N 0.09492 0.16736 0.68885
 C2319 C 0.09961 0.17254 0.67649
 N2320 N 0.09440 0.18489 0.67188
 C2321 C 0.07095 0.19471 0.70039
 C2322 C 0.06353 0.20179 0.70775
 C2323 C 0.05532 0.21069 0.71664
 N2324 N 0.06175 0.22097 0.72393
 N2325 N 0.05425 0.22953 0.73194
 C2326 C 0.04005 0.22816 0.73300
 N2327 N 0.03365 0.21777 0.72570
 N2328 N 0.04115 0.20919 0.71766
 N2329 N 0.41961 0.68619 0.31517
 C2330 C 0.42280 0.68024 0.30273
 N2331 N 0.41634 0.66817 0.29906
 N2332 N 0.40694 0.66225 0.30756
 C2333 C 0.40366 0.66825 0.31999
 N2334 N 0.41021 0.68029 0.32365
 C2335 C 0.43207 0.68726 0.29320
 C2336 C 0.43942 0.69377 0.28525
 C2337 C 0.44755 0.70227 0.27590
 N2338 N 0.44091 0.71064 0.26663
 N2339 N 0.44824 0.71942 0.25866
 C2340 C 0.46250 0.72017 0.25965
 N2341 N 0.46913 0.71162 0.26887
 N2342 N 0.46179 0.70284 0.27687
 N2343 N 0.41457 0.16865 0.80113
 C2344 C 0.42104 0.18055 0.80530
 N2345 N 0.41774 0.18606 0.81791
 N2346 N 0.40821 0.17991 0.82608
 C2347 C 0.40162 0.16806 0.82188
 N2348 N 0.40504 0.16249 0.80930
 C2349 C 0.43022 0.18799 0.79600
 C2350 C 0.43739 0.19483 0.78817
 C2351 C 0.44524 0.20369 0.77893
 N2352 N 0.45940 0.20502 0.78019
 N2353 N 0.46642 0.21416 0.77231
 C2354 C 0.45954 0.22233 0.76293
 N2355 N 0.44537 0.22082 0.76165
 N2356 N 0.43836 0.21168 0.76949
 N2357 N 0.91448 0.66716 0.79675
 C2358 C 0.92113 0.67906 0.80065
 N2359 N 0.91820 0.68471 0.81328
 N2360 N 0.90885 0.67870 0.82175
 C2361 C 0.90208 0.66685 0.81784
 N2362 N 0.90512 0.66115 0.80522
 C2363 C 0.93018 0.68629 0.79107
 C2364 C 0.93731 0.69292 0.78302
 C2365 C 0.94521 0.70150 0.77356
 N2366 N 0.95941 0.70252 0.77462
 N2367 N 0.96653 0.71141 0.76656
 C2368 C 0.95970 0.71963 0.75718
 N2369 N 0.94549 0.71843 0.75609
 N2370 N 0.93838 0.70954 0.76413
 N2371 N 0.91591 0.19277 0.32453
 C2372 C 0.91940 0.18914 0.31130
 N2373 N 0.91335 0.17772 0.30551
 N2374 N 0.90405 0.17017 0.31271
 C2375 C 0.90047 0.17381 0.32593
 N2376 N 0.90661 0.18521 0.33174
 C2377 C 0.92868 0.19777 0.30319
 C2378 C 0.93606 0.20513 0.29604
 C2379 C 0.94429 0.21397 0.28708
 N2380 N 0.93776 0.22265 0.27802
 N2381 N 0.94524 0.23050 0.26926
 C2382 C 0.95954 0.22999 0.26922
 N2383 N 0.96605 0.22131 0.27841
 N2384 N 0.95855 0.21344 0.28718
 N2385 N 0.30177 0.32597 0.58574
 C2386 C 0.30782 0.31512 0.57897
 N2387 N 0.32118 0.31141 0.58229
 N2388 N 0.32826 0.31832 0.59211
 C2389 C 0.32217 0.32914 0.59897
 N2390 N 0.30883 0.33287 0.59555
 C2391 C 0.29971 0.30692 0.56936
 C2392 C 0.29256 0.29973 0.56188
 C2393 C 0.28372 0.29072 0.55374
 N2394 N 0.28378 0.29124 0.53959
 N2395 N 0.27570 0.28256 0.53222
 C2396 C 0.26727 0.27308 0.53874
 N2397 N 0.26725 0.27271 0.55292
 N2398 N 0.27530 0.28136 0.56028
 N2399 N 0.31913 0.81128 0.08322
 C2400 C 0.30719 0.81739 0.07847
 N2401 N 0.30339 0.83000 0.08361
 N2402 N 0.31126 0.83628 0.09325
 C2403 C 0.32317 0.83014 0.09811
 N2404 N 0.32700 0.81755 0.09286
 C2405 C 0.29809 0.81002 0.06907
 C2406 C 0.29030 0.80337 0.06170
 C2407 C 0.28095 0.79485 0.05360
 N2408 N 0.27169 0.78631 0.06014
 N2409 N 0.26356 0.77770 0.05282
 C2410 C 0.26436 0.77729 0.03867
 N2411 N 0.27358 0.78600 0.03213
 N2412 N 0.28174 0.79462 0.03947
 N2413 N 0.82324 0.31092 0.08036
 C2414 C 0.80999 0.31486 0.07688
 N2415 N 0.80421 0.32610 0.08324
 N2416 N 0.81142 0.33316 0.09283
 C2417 C 0.82465 0.32919 0.09642
 N2418 N 0.83046 0.31799 0.08995
 C2419 C 0.80172 0.30654 0.06754
 C2420 C 0.79437 0.29933 0.06027
 C2421 C 0.78512 0.29054 0.05238
 N2422 N 0.77599 0.28204 0.05915
 N2423 N 0.76702 0.27411 0.05202
 C2424 C 0.76685 0.27436 0.03784
 N2425 N 0.77609 0.28288 0.03109
 N2426 N 0.78508 0.29083 0.03824
 N2427 N 0.80070 0.82999 0.58608
 C2428 C 0.80652 0.81938 0.57874
 N2429 N 0.82007 0.81574 0.58130
 N2430 N 0.82756 0.82248 0.59093
 C2431 C 0.82172 0.83306 0.59836
 N2432 N 0.80818 0.83673 0.59571
 C2433 C 0.79810 0.81136 0.56925
 C2434 C 0.79088 0.80421 0.56178
 C2435 C 0.78218 0.79514 0.55357
 N2436 N 0.78347 0.79462 0.53948
 N2437 N 0.77584 0.78558 0.53208
 C2438 C 0.76667 0.77674 0.53851
 N2439 N 0.76537 0.77744 0.55262
 N2440 N 0.77297 0.78646 0.56001
 N2441 N 0.31163 0.68574 0.41987
 C2442 C 0.31753 0.69819 0.42316
 N2443 N 0.32983 0.70195 0.41702
 N2444 N 0.33602 0.69353 0.40781
 C2445 C 0.33008 0.68109 0.40442
 N2446 N 0.31781 0.67733 0.41066
 C2447 C 0.31022 0.70764 0.43223
 C2448 C 0.30351 0.71549 0.43944
 C2449 C 0.29480 0.72468 0.44750
 N2450 N 0.28658 0.73417 0.44095
 N2451 N 0.27759 0.74197 0.44821
 C2452 C 0.27647 0.74057 0.46228
 N2453 N 0.28486 0.73113 0.46882
 N2454 N 0.29385 0.72330 0.46155
 N2455 N 0.30696 0.18353 0.91970
 C2456 C 0.31273 0.19595 0.92332
 N2457 N 0.32504 0.19995 0.91735
 N2458 N 0.33137 0.19179 0.90800
 C2459 C 0.32556 0.17938 0.90428
 N2460 N 0.31328 0.17538 0.91036
 C2461 C 0.30525 0.20520 0.93247
 C2462 C 0.29843 0.21297 0.93968
 C2463 C 0.28964 0.22217 0.94765
 N2464 N 0.28020 0.23040 0.94102
 N2465 N 0.27137 0.23836 0.94828
 C2466 C 0.27162 0.23840 0.96247
 N2467 N 0.28120 0.23019 0.96908
 N2468 N 0.29005 0.22220 0.96180
 N2469 N 0.82841 0.70020 0.91469
 C2470 C 0.81597 0.69669 0.92072
 N2471 N 0.80975 0.68446 0.91720
 N2472 N 0.81573 0.67602 0.90790
 C2473 C 0.82814 0.67954 0.90177
 N2474 N 0.83440 0.69176 0.90538
 C2475 C 0.80889 0.70626 0.92984
 C2476 C 0.80244 0.71436 0.93704
 C2477 C 0.79413 0.72399 0.94500
 N2478 N 0.79383 0.72340 0.95914
 N2479 N 0.78534 0.73181 0.96636
 C2480 C 0.77684 0.74108 0.95970
 N2481 N 0.77732 0.74166 0.94554
 N2482 N 0.78579 0.73329 0.93833
 N2483 N 0.80190 0.18210 0.41663
 C2484 C 0.80873 0.19269 0.42309
 N2485 N 0.82250 0.19501 0.42013
 N2486 N 0.82924 0.18698 0.41095
 C2487 C 0.82239 0.17641 0.40440
 N2488 N 0.80862 0.17408 0.40746
 C2489 C 0.80116 0.20195 0.43214
 C2490 C 0.79455 0.20995 0.43926
 C2491 C 0.78643 0.21980 0.44713
 N2492 N 0.77866 0.22952 0.44038
 N2493 N 0.77120 0.23882 0.44755
 C2494 C 0.77119 0.23874 0.46173
 N2495 N 0.77899 0.22893 0.46845
 N2496 N 0.78648 0.21961 0.46128
 N2497 N 0.69595 0.33217 0.41884
 C2498 C 0.69516 0.31841 0.42207
 N2499 N 0.68526 0.31041 0.41578
 N2500 N 0.67647 0.31594 0.40648
 C2501 C 0.67727 0.32968 0.40315
 N2502 N 0.68714 0.33772 0.40954
 C2503 C 0.70513 0.31207 0.43138
 C2504 C 0.71344 0.30603 0.43873
 C2505 C 0.72321 0.29800 0.44686
 N2506 N 0.72221 0.29746 0.46097
 N2507 N 0.73057 0.28902 0.46831
 C2508 C 0.74018 0.28078 0.46178
 N2509 N 0.74119 0.28150 0.44764
 N2510 N 0.73287 0.28993 0.44033
 N2511 N 0.68020 0.80503 0.91292
 C2512 C 0.69054 0.81151 0.92020
 N2513 N 0.69314 0.82521 0.91777
 N2514 N 0.68564 0.83221 0.90833
 C2515 C 0.67532 0.82572 0.90097
 N2516 N 0.67270 0.81202 0.90349
 C2517 C 0.69933 0.80366 0.92950
 C2518 C 0.70701 0.79680 0.93679
 C2519 C 0.71656 0.78841 0.94478
 N2520 N 0.72631 0.78055 0.93813
 N2521 N 0.73541 0.77289 0.94537
 C2522 C 0.73512 0.77276 0.95955
 N2523 N 0.72526 0.78063 0.96619
 N2524 N 0.71614 0.78832 0.95893
 N2525 N 0.17224 0.30159 0.91743
 C2526 C 0.18384 0.30672 0.92390
 N2527 N 0.18848 0.31967 0.92055
 N2528 N 0.18180 0.32724 0.91097
 C2529 C 0.17025 0.32210 0.90439
 N2530 N 0.16554 0.30917 0.90785
 C2531 C 0.19189 0.29812 0.93319
 C2532 C 0.19925 0.29092 0.94046
 C2533 C 0.20870 0.28240 0.94844
 N2534 N 0.21767 0.27369 0.94177
 N2535 N 0.22716 0.26642 0.94893
 C2536 C 0.22806 0.26757 0.96303
 N2537 N 0.21895 0.27625 0.96969
 N2538 N 0.20945 0.28355 0.96252
 N2539 N 0.17682 0.80503 0.41875
 C2540 C 0.18912 0.81041 0.42349
 N2541 N 0.19352 0.82297 0.41864
 N2542 N 0.18589 0.82991 0.40926
 C2543 C 0.17362 0.82450 0.40441
 N2544 N 0.16919 0.81197 0.40937
 C2545 C 0.19794 0.80239 0.43260
 C2546 C 0.20568 0.79544 0.43974
 C2547 C 0.21529 0.78699 0.44759
 N2548 N 0.22547 0.77974 0.44087
 N2549 N 0.23459 0.77201 0.44801
 C2550 C 0.23390 0.77121 0.46216
 N2551 N 0.22363 0.77849 0.46886
 N2552 N 0.21448 0.78624 0.46171
 N2553 N 0.70115 0.67730 0.58117
 C2554 C 0.69637 0.68983 0.57667
 N2555 N 0.68398 0.69475 0.58170
 N2556 N 0.67663 0.68738 0.59100
 C2557 C 0.68144 0.67487 0.59561
 N2558 N 0.69379 0.66993 0.59047
 C2559 C 0.70484 0.69832 0.56760
 C2560 C 0.71210 0.70582 0.56049
 C2561 C 0.72084 0.71524 0.55268
 N2562 N 0.72084 0.71514 0.53852
 N2563 N 0.72864 0.72431 0.53141
 C2564 C 0.73668 0.73389 0.53820
 N2565 N 0.73665 0.73384 0.55238
 N2566 N 0.72889 0.72470 0.55948
 N2567 N 0.67358 0.19608 0.07807
 C2568 C 0.68766 0.19536 0.07584
 N2569 N 0.69528 0.18555 0.08266
 N2570 N 0.68904 0.17677 0.09150
 C2571 C 0.67496 0.17751 0.09383
 N2572 N 0.66733 0.18728 0.08691
 C2573 C 0.69462 0.20536 0.06707
 C2574 C 0.70092 0.21382 0.06013
 C2575 C 0.70900 0.22385 0.05240
 N2576 N 0.71777 0.23266 0.05921
 N2577 N 0.72596 0.24144 0.05212
 C2578 C 0.72570 0.24177 0.03794
 N2579 N 0.71678 0.23297 0.03116
 N2580 N 0.70858 0.22417 0.03826
 N2581 N 0.20171 0.67887 0.08371
 C2582 C 0.19514 0.68902 0.07634
 N2583 N 0.18116 0.69113 0.07829
 N2584 N 0.17397 0.68336 0.08738
 C2585 C 0.18055 0.67325 0.09485
 N2586 N 0.19453 0.67110 0.09280
 C2587 C 0.20312 0.69808 0.06741
 C2588 C 0.21002 0.70598 0.06040
 C2589 C 0.21839 0.71576 0.05264
 N2590 N 0.21819 0.71589 0.03850
 N2591 N 0.22577 0.72526 0.03143
 C2592 C 0.23381 0.73481 0.03826
 N2593 N 0.23397 0.73455 0.05244
 N2594 N 0.22641 0.72520 0.05950
 N2595 N 0.18207 0.19311 0.58186
 C2596 C 0.19486 0.18852 0.57754
 N2597 N 0.20007 0.17653 0.58295
 N2598 N 0.19274 0.16936 0.59241
 C2599 C 0.17997 0.17396 0.59683
 N2600 N 0.17474 0.18593 0.59133
 C2601 C 0.20328 0.19683 0.56825
 C2602 C 0.21059 0.20411 0.56095
 C2603 C 0.21949 0.21322 0.55293
 N2604 N 0.22892 0.22150 0.55954
 N2605 N 0.23682 0.23044 0.55233
 C2606 C 0.23563 0.23145 0.53823
 N2607 N 0.22621 0.22303 0.53163
 N2608 N 0.21828 0.21407 0.53885
   
