data_POSCAR
  _audit_creation_date              2014-09-24
  _audit_creation_method            'ToBaCCo'
  _symmetry_space_group_name_H-M    'P1'
  _symmetry_Int_Tables_number       1
  _symmetry_cell_setting            triclinic
  loop_
  _symmetry_equiv_pos_as_xyz
 x,y,z
_cell_length_a 38.7916
_cell_length_b 38.2707
_cell_length_c 38.2154
_cell_angle_alpha 89.193500
_cell_angle_beta 89.783400
_cell_angle_gamma 90.979300
loop_
  _atom_site_label
  _atom_site_type_symbol
  _atom_site_fract_x
  _atom_site_fract_y
  _atom_site_fract_z
N1 N 0.19739 0.21457 0.21083
 N2 N 0.70671 0.72052 0.71344
 N3 N 0.29818 0.80661 0.69961
 N4 N 0.80163 0.29912 0.20100
 N5 N 0.79864 0.70228 0.29843
 N6 N 0.30883 0.18426 -0.18418
 N7 N 0.72647 0.27786 -0.22818
 N8 N 0.23029 0.77427 0.26981
 N9 N 0.46453 0.46166 0.46802
 N10 N -0.05834 -0.06168 0.94792
 N11 N 1.05118 0.54164 0.95098
 N12 N 0.54264 0.04906 0.45013
 N13 N -0.05370 0.05200 0.55112
 N14 N 0.45028 0.56101 0.06094
 N15 N 0.54059 -0.03127 0.04743
 N16 N 1.03331 0.47914 0.54173
 C17 C 0.41749 0.03248 0.20013
 H18 H 0.41737 0.05577 0.21584
 C19 C 0.43977 0.03048 0.17149
 H20 H 0.45691 0.05228 0.16506
 C21 C 0.39602 -0.02486 0.18989
 H22 H 0.37966 -0.04673 0.19762
 C23 C 0.41784 -0.02794 0.16105
 H24 H 0.41804 -0.05209 0.14662
 N25 N 0.39597 0.00517 0.20854
 C26 C 0.31538 0.05555 0.26860
 H27 H 0.31682 0.04161 0.29337
 C28 C 0.29152 0.08215 0.26412
 H29 H 0.27489 0.08911 0.28567
 C30 C 0.33513 0.06345 0.21019
 H31 H 0.35168 0.05568 0.18900
 C32 C 0.31132 0.08981 0.20443
 H33 H 0.31000 0.10247 0.17896
 Zn34 Zn 0.36751 0.00960 0.24846
 N35 N 0.33685 0.04703 0.24193
 C36 C 0.39590 0.04619 0.30676
 N37 N 0.39724 0.01698 0.28692
 C38 C 0.42120 -0.00791 0.29301
 C39 C 0.44427 -0.00462 0.32072
 C40 C 0.41859 0.05058 0.33473
 C41 C 0.31821 -0.04060 0.22961
 C42 C 0.29971 -0.07216 0.23167
 C43 C 0.32586 -0.08357 0.28790
 C44 C 0.34401 -0.05187 0.28470
 N45 N 0.34065 -0.03163 0.25538
 H46 H 0.37750 0.06625 0.30081
 H47 H 0.42219 -0.03049 0.27633
 H48 H 0.46300 -0.02478 0.32553
 H49 H 0.41740 0.07389 0.35040
 H50 H 0.31558 -0.02368 0.20689
 H51 H 0.28277 -0.07963 0.21048
 H52 H 0.32921 -0.09992 0.31097
 H53 H 0.36109 -0.04379 0.30542
 C54 C 0.28900 0.09918 0.23150
 C55 C 0.43981 0.00007 0.15150
 C56 C 0.30422 -0.09436 0.26068
 C57 C 0.44276 0.02469 0.34217
 C58 C 0.06195 -0.01022 0.71123
 H59 H 0.05725 -0.03124 0.72995
 C60 C 0.03736 -0.00293 0.68573
 H61 H 0.01371 -0.01835 0.68498
 C62 C 0.09800 0.03614 0.69016
 H63 H 0.12136 0.05167 0.69227
 C64 C 0.07448 0.04370 0.66359
 H65 H 0.08020 0.06468 0.64505
 N66 N 0.09127 0.00963 0.71342
 C67 C 0.17213 -0.04802 0.76615
 H68 H 0.17198 -0.03562 0.79141
 C69 C 0.19665 -0.07312 0.75877
 H70 H 0.21508 -0.08054 0.77864
 C71 C 0.14875 -0.05286 0.70911
 H72 H 0.13038 -0.04434 0.68972
 C73 C 0.17321 -0.07774 0.70045
 H74 H 0.17344 -0.08857 0.67442
 Zn75 Zn 0.12041 -0.00044 0.75178
 N76 N 0.14896 -0.03832 0.74139
 C77 C 0.09152 -0.04340 0.80622
 N78 N 0.09131 -0.01128 0.79046
 C79 C 0.06803 0.01314 0.79975
 C80 C 0.04354 0.00562 0.82573
 C81 C 0.06742 -0.05202 0.83231
 C82 C 0.17574 0.04542 0.73816
 C83 C 0.20143 0.07009 0.74582
 C84 C 0.17467 0.07837 0.80223
 C85 C 0.14938 0.05362 0.79346
 N86 N 0.15046 0.03757 0.76192
 H87 H 0.10962 -0.06276 0.79789
 H88 H 0.06804 0.03822 0.78633
 H89 H 0.02483 0.02506 0.83265
 H90 H 0.06731 -0.07786 0.84426
 H91 H 0.17663 0.03156 0.71371
 H92 H 0.22180 0.07567 0.72699
 H93 H 0.17411 0.09037 0.82772
 H94 H 0.12972 0.04639 0.81240
 C95 C 0.19798 -0.08747 0.72524
 C96 C 0.04322 0.02475 0.66191
 C97 C 0.20142 0.08619 0.77851
 C98 C 0.04276 -0.02753 0.84177
 C99 C 0.57109 0.48578 0.20731
 H100 H 0.56500 0.46385 0.22453
 C101 C 0.54851 0.49477 0.18042
 H102 H 0.52483 0.47982 0.17700
 C103 C 0.60865 0.53309 0.19169
 H104 H 0.63196 0.54812 0.19652
 C105 C 0.58697 0.54276 0.16426
 H106 H 0.59351 0.56535 0.14802
 N107 N 0.60011 0.50535 0.21282
 C108 C 0.67819 0.44567 0.26756
 H109 H 0.68008 0.45989 0.29177
 C110 C 0.70132 0.41911 0.26066
 H111 H 0.72096 0.41266 0.27963
 C112 C 0.65166 0.43803 0.21228
 H113 H 0.63276 0.44606 0.19322
 C114 C 0.67423 0.41116 0.20439
 H115 H 0.67268 0.39847 0.17928
 Zn116 Zn 0.62739 0.49470 0.25218
 N117 N 0.65429 0.45492 0.24330
 C118 C 0.60010 0.45665 0.31111
 N119 N 0.59734 0.48609 0.29096
 C120 C 0.57203 0.50948 0.29701
 C121 C 0.54898 0.50431 0.32482
 C122 C 0.57743 0.45034 0.33909
 C123 C 0.69131 0.53089 0.25067
 C124 C 0.71480 0.55796 0.25744
 C125 C 0.66890 0.58989 0.28453
 C126 C 0.64626 0.56214 0.27735
 N127 N 0.65783 0.53308 0.26119
 H128 H 0.61969 0.43783 0.30552
 H129 H 0.56937 0.53198 0.27988
 H130 H 0.52926 0.52338 0.32962
 H131 H 0.57995 0.42689 0.35499
 H132 H 0.69989 0.50818 0.23685
 H133 H 0.74144 0.55570 0.24931
 H134 H 0.65949 0.61279 0.29760
 H135 H 0.61957 0.56388 0.28493
 C136 C 0.69968 0.40203 0.22856
 C137 C 0.55604 0.52406 0.15915
 C138 C 0.70371 0.58758 0.27506
 C139 C 0.55141 0.47428 0.34604
 C140 C 0.92175 0.53043 0.70772
 H141 H 0.92308 0.55345 0.72379
 C142 C 0.94488 0.52675 0.67998
 H143 H 0.96391 0.54712 0.67439
 C144 C 0.89586 0.47532 0.69573
 H145 H 0.87734 0.45492 0.70236
 C146 C 0.91851 0.47057 0.66783
 H147 H 0.91699 0.44676 0.65288
 N148 N 0.89771 0.50499 0.71491
 C149 C 0.81671 0.55642 0.77422
 H150 H 0.81479 0.53955 0.79712
 C151 C 0.79502 0.58506 0.77081
 H152 H 0.77633 0.59030 0.79111
 C153 C 0.84267 0.56973 0.71925
 H154 H 0.86078 0.56339 0.69890
 C155 C 0.82146 0.59851 0.71477
 H156 H 0.82359 0.61436 0.69112
 Zn157 Zn 0.86895 0.51036 0.75459
 N158 N 0.84029 0.54962 0.74884
 C159 C 0.89538 0.54229 0.81636
 N160 N 0.89859 0.51569 0.79338
 C161 C 0.92452 0.49237 0.79634
 C162 C 0.94839 0.49506 0.82341
 C163 C 0.91840 0.54561 0.84418
 C164 C 0.81688 0.46278 0.73562
 C165 C 0.79759 0.43166 0.73721
 C166 C 0.82561 0.41729 0.79181
 C167 C 0.84455 0.44857 0.78907
 N168 N 0.84054 0.47008 0.76078
 H169 H 0.87516 0.56107 0.81313
 H170 H 0.92683 0.47185 0.77733
 H171 H 0.96926 0.47668 0.82512
 H172 H 0.91551 0.56676 0.86245
 H173 H 0.81392 0.48061 0.71366
 H174 H 0.77969 0.42547 0.71642
 H175 H 0.82950 0.39991 0.81400
 H176 H 0.86294 0.45521 0.80916
 C177 C 0.79761 0.60657 0.74091
 C178 C 0.94353 0.49632 0.66002
 C179 C 0.80264 0.40816 0.76509
 C180 C 0.94510 0.52161 0.84805
 C181 C 0.21577 0.43415 0.00594
 H182 H 0.23166 0.43834 0.02865
 C183 C 0.18960 0.45752 -0.00167
 H184 H 0.18595 0.47977 0.01507
 C185 C 0.20132 0.40038 -0.04348
 H186 H 0.20620 0.37855 -0.06021
 C187 C 0.17386 0.42239 -0.05123
 H188 H 0.15731 0.41657 -0.07323
 N189 N 0.22133 0.40624 -0.01488
 C190 C 0.26954 0.33014 0.05383
 H191 H 0.29495 0.32944 0.04212
 C192 C 0.26143 0.30853 0.08248
 H193 H 0.28060 0.29106 0.09300
 C194 C 0.21297 0.35283 0.05361
 H195 H 0.19405 0.36965 0.04178
 C196 C 0.20376 0.33159 0.08232
 H197 H 0.17777 0.33212 0.09272
 Zn198 Zn 0.25806 0.37667 -0.00097
 N199 N 0.24534 0.35148 0.03991
 C200 C 0.29787 0.41876 0.04260
 N201 N 0.29666 0.40604 0.00958
 C202 C 0.32012 0.41682 -0.01501
 C203 C 0.34780 0.43867 -0.00586
 C204 C 0.32337 0.44291 0.05199
 C205 C 0.24156 0.32072 -0.04485
 C206 C 0.24698 0.29407 -0.06877
 C207 C 0.30742 0.31016 -0.07026
 C208 C 0.30087 0.33638 -0.04621
 N209 N 0.26811 0.34208 -0.03492
 H210 H 0.27812 0.41117 0.06139
 H211 H 0.31735 0.40880 -0.04185
 H212 H 0.36697 0.44553 -0.02554
 H213 H 0.32210 0.45444 0.07765
 H214 H 0.21613 0.32414 -0.03386
 H215 H 0.22562 0.27747 -0.07676
 H216 H 0.33354 0.30599 -0.07920
 H217 H 0.32229 0.35110 -0.03581
 C218 C 0.22815 0.30899 0.09666
 C219 C 0.16817 0.45183 -0.03057
 C220 C 0.28024 0.28885 -0.08181
 C221 C 0.34986 0.45211 0.02820
 C222 C 0.71935 0.06258 0.00069
 H223 H 0.74274 0.05123 -0.00910
 C224 C 0.69073 0.04103 0.00768
 H225 H 0.69223 0.01324 0.00303
 C226 C 0.68813 0.11256 0.01687
 H227 H 0.68719 0.14060 0.01988
 C228 C 0.65921 0.09182 0.02517
 H229 H 0.63612 0.10396 0.03490
 N230 N 0.71784 0.09761 0.00601
 C231 C 0.77782 0.17436 -0.05568
 H232 H 0.80269 0.17366 -0.04324
 C233 C 0.77381 0.19459 -0.08600
 H234 H 0.79537 0.20997 -0.09624
 C235 C 0.72004 0.15363 -0.05933
 H236 H 0.69924 0.13726 -0.04931
 C237 C 0.71496 0.17342 -0.08981
 H238 H 0.69027 0.17238 -0.10292
 Zn239 Zn 0.75804 0.12572 -0.00237
 N240 N 0.75110 0.15444 -0.04281
 C241 C 0.80762 0.09078 -0.04306
 N242 N 0.79535 0.09569 -0.01012
 C243 C 0.80749 0.07714 0.01771
 C244 C 0.83248 0.05181 0.01284
 C245 C 0.83271 0.06583 -0.04906
 C246 C 0.79575 0.17615 0.03613
 C247 C 0.80281 0.19831 0.06403
 C248 C 0.75408 0.17276 0.09508
 C249 C 0.74807 0.15097 0.06670
 N250 N 0.76815 0.15369 0.03742
 H251 H 0.79706 0.10521 -0.06491
 H252 H 0.79693 0.08132 0.04353
 H253 H 0.84138 0.03645 0.03494
 H254 H 0.84171 0.06138 -0.07547
 H255 H 0.81242 0.17699 0.01352
 H256 H 0.82448 0.21649 0.06240
 H257 H 0.73727 0.17101 0.11775
 H258 H 0.72733 0.13195 0.06835
 C259 C 0.74218 0.19392 -0.10345
 C260 C 0.66061 0.05546 0.02132
 C261 C 0.78166 0.19684 0.09381
 C262 C 0.84485 0.04574 -0.02096
 C263 C 0.20718 0.57769 0.48520
 H264 H 0.22204 0.57528 0.46136
 C265 C 0.17671 0.55824 0.48978
 H266 H 0.16803 0.54088 0.46935
 C267 C 0.20012 0.60369 0.54065
 H268 H 0.20946 0.62128 0.56048
 C269 C 0.16982 0.58423 0.54659
 H270 H 0.15591 0.58693 0.57101
 N271 N 0.21762 0.60073 0.50994
 C272 C 0.27676 0.67750 0.44820
 H273 H 0.30024 0.67887 0.46335
 C274 C 0.27391 0.69716 0.41733
 H275 H 0.29527 0.71367 0.40853
 C276 C 0.22023 0.65421 0.44099
 H277 H 0.19911 0.63799 0.45053
 C278 C 0.21632 0.67337 0.40996
 H279 H 0.19243 0.67142 0.39549
 Zn280 Zn 0.25729 0.62860 0.50003
 N281 N 0.25047 0.65587 0.45892
 C282 C 0.31136 0.59682 0.46233
 N283 N 0.29482 0.59818 0.49375
 C284 C 0.30420 0.57735 0.52111
 C285 C 0.33254 0.55555 0.51813
 C286 C 0.33958 0.57510 0.45810
 C287 C 0.24179 0.68458 0.54303
 C288 C 0.24686 0.70931 0.56911
 C289 C 0.30192 0.68353 0.58191
 C290 C 0.29591 0.65940 0.55544
 N291 N 0.26604 0.66012 0.53687
 H292 H 0.30274 0.61248 0.44045
 H293 H 0.29003 0.57824 0.54551
 H294 H 0.34034 0.53974 0.54036
 H295 H 0.35270 0.57437 0.43306
 H296 H 0.21851 0.68488 0.52752
 H297 H 0.22745 0.72872 0.57383
 H298 H 0.32575 0.68284 0.59657
 H299 H 0.31534 0.64048 0.54958
 C300 C 0.24366 0.69455 0.39760
 C301 C 0.15725 0.56210 0.52043
 C302 C 0.27725 0.70884 0.58873
 C303 C 0.35097 0.55489 0.48653
 C304 C 0.70026 0.93321 0.50964
 H305 H 0.71627 0.93540 0.53265
 C306 C 0.67365 0.95674 0.50407
 H307 H 0.66899 0.97705 0.52288
 C308 C 0.68730 0.90473 0.45644
 H309 H 0.69304 0.88478 0.43768
 C310 C 0.66030 0.92760 0.44995
 H311 H 0.64523 0.92512 0.42629
 N312 N 0.70659 0.90788 0.48594
 C313 C 0.75813 0.82080 0.53665
 H314 H 0.78017 0.81854 0.51944
 C315 C 0.75273 0.79642 0.56370
 H316 H 0.77077 0.77541 0.56742
 C317 C 0.70771 0.85094 0.55272
 H318 H 0.69014 0.87212 0.54825
 C319 C 0.70156 0.82736 0.58036
 H320 H 0.67958 0.83088 0.59744
 Zn321 Zn 0.74484 0.87879 0.49394
 N322 N 0.73584 0.84747 0.53177
 C323 C 0.80157 0.90315 0.53416
 N324 N 0.78323 0.90812 0.50426
 C325 C 0.79049 0.93544 0.48211
 C326 C 0.81707 0.95918 0.48976
 C327 C 0.82842 0.92622 0.54274
 C328 C 0.73146 0.82455 0.44760
 C329 C 0.73748 0.80214 0.41983
 C330 C 0.78893 0.83590 0.40544
 C331 C 0.78218 0.85744 0.43379
 N332 N 0.75369 0.85155 0.45405
 H333 H 0.79514 0.88161 0.55167
 H334 H 0.77520 0.93906 0.45876
 H335 H 0.82238 0.98107 0.47217
 H336 H 0.84278 0.92215 0.56667
 H337 H 0.70936 0.82009 0.46452
 H338 H 0.72003 0.78025 0.41548
 H339 H 0.81171 0.84077 0.38952
 H340 H 0.79990 0.87857 0.43973
 C341 C 0.72407 0.79952 0.58584
 C342 C 0.65361 0.95413 0.47378
 C343 C 0.76633 0.80795 0.39816
 C344 C 0.83598 0.95490 0.52064
 C345 C 0.00892 0.21671 0.43857
 H346 H 0.03108 0.23368 0.44268
 C347 C 0.00318 0.18767 0.46048
 H348 H 0.02084 0.18243 0.48173
 C349 C -0.04173 0.20341 0.40653
 H350 H -0.05957 0.20992 0.38596
 C351 C -0.04812 0.17380 0.42744
 H352 H -0.07061 0.15748 0.42249
 N353 N -0.01317 0.22375 0.41193
 C354 C 0.04520 0.28031 0.33127
 H355 H 0.02992 0.30361 0.32899
 C356 C 0.07321 0.27575 0.30893
 H357 H 0.07967 0.29569 0.28948
 C358 C 0.05480 0.22539 0.35876
 H359 H 0.04710 0.20557 0.37775
 C360 C 0.08297 0.21971 0.33682
 H361 H 0.09698 0.19555 0.33904
 Zn362 Zn -0.00297 0.26321 0.38305
 N363 N 0.03674 0.25544 0.35574
 C364 C 0.03409 0.32115 0.41056
 N365 N 0.00408 0.30223 0.41219
 C366 C -0.02148 0.31046 0.43496
 C367 C -0.01782 0.33945 0.45652
 C368 C 0.03873 0.35043 0.43148
 C369 C -0.04597 0.24672 0.32704
 C370 C -0.07102 0.25213 0.30155
 C371 C -0.08070 0.30936 0.32527
 C372 C -0.05579 0.30267 0.35066
 N373 N -0.03909 0.27168 0.35115
 H374 H 0.05445 0.31373 0.39297
 H375 H -0.04487 0.29468 0.43603
 H376 H -0.03845 0.34618 0.47423
 H377 H 0.06246 0.36568 0.42968
 H378 H -0.03179 0.22262 0.32757
 H379 H -0.07660 0.23187 0.28279
 H380 H -0.09363 0.33423 0.32488
 H381 H -0.04936 0.32252 0.36946
 C382 C 0.09249 0.24524 0.31175
 C383 C -0.02519 0.16537 0.45443
 C384 C -0.08821 0.28404 0.30012
 C385 C 0.01240 0.35991 0.45443
 C386 C 0.00308 0.70651 0.06155
 H387 H -0.00795 0.73040 0.05177
 C388 C 0.00990 0.67982 0.03819
 H389 H 0.00465 0.68354 0.01058
 C390 C 0.02280 0.67189 0.10905
 H391 H 0.02762 0.66866 0.13663
 C392 C 0.02985 0.64440 0.08654
 H393 H 0.04039 0.62037 0.09688
 N394 N 0.01047 0.70262 0.09621
 C395 C -0.03782 0.75576 0.18355
 H396 H -0.02128 0.77872 0.18522
 C397 C -0.06453 0.75038 0.20768
 H398 H -0.06864 0.76925 0.22808
 C399 C -0.05275 0.70311 0.15479
 H400 H -0.04811 0.68493 0.13397
 C401 C -0.07972 0.69667 0.17847
 H402 H -0.09589 0.67350 0.17588
 Zn403 Zn 0.00414 0.74156 0.12621
 N404 N -0.03253 0.73231 0.15774
 C405 C -0.03717 0.79687 0.10044
 N406 N -0.00597 0.78131 0.09787
 C407 C 0.01749 0.79182 0.07313
 C408 C 0.00965 0.81832 0.04919
 C409 C -0.04607 0.82350 0.07696
 C410 C 0.05328 0.72549 0.17753
 C411 C 0.08374 0.72912 0.19657
 C412 C 0.09478 0.78425 0.16678
 C413 C 0.06423 0.77945 0.14811
 N414 N 0.04469 0.74986 0.15293
 H415 H -0.05569 0.78785 0.11987
 H416 H 0.04185 0.77862 0.07118
 H417 H 0.02813 0.82584 0.02902
 H418 H -0.07132 0.83504 0.07853
 H419 H 0.03641 0.70325 0.18256
 H420 H 0.09067 0.70913 0.21548
 H421 H 0.11039 0.80765 0.16239
 H422 H 0.05637 0.79941 0.12977
 C423 C -0.08562 0.72044 0.20534
 C424 C 0.02409 0.64869 0.05063
 C425 C 0.10525 0.75835 0.19056
 C426 C -0.02276 0.83382 0.05057
 C427 C 0.48113 0.19803 0.57813
 H428 H 0.45627 0.21025 0.58011
 C429 C 0.48651 0.17239 0.55313
 H430 H 0.46561 0.16449 0.53612
 C431 C 0.53898 0.19382 0.59735
 H432 H 0.55964 0.20279 0.61399
 C433 C 0.54556 0.16840 0.57249
 H434 H 0.57112 0.15763 0.57047
 N435 N 0.50716 0.20807 0.59975
 C436 C 0.45574 0.25810 0.68755
 H437 H 0.46974 0.28279 0.68787
 C438 C 0.43079 0.25054 0.71311
 H439 H 0.42528 0.26956 0.73300
 C440 C 0.44644 0.20270 0.66189
 H441 H 0.45317 0.18376 0.64246
 C442 C 0.42131 0.19408 0.68697
 H443 H 0.40852 0.16871 0.68646
 Zn444 Zn 0.49938 0.24531 0.63081
 N445 N 0.46301 0.23433 0.66254
 C446 C 0.46110 0.30468 0.60759
 N447 N 0.48961 0.28503 0.60279
 C448 C 0.51273 0.29277 0.57685
 C449 C 0.50820 0.32183 0.55505
 C450 C 0.45567 0.33418 0.58643
 C451 C 0.55012 0.22799 0.67952
 C452 C 0.58056 0.23204 0.69850
 C453 C 0.58753 0.29013 0.67354
 C454 C 0.55702 0.28495 0.65493
 N455 N 0.53946 0.25392 0.65760
 H456 H 0.44267 0.29770 0.62787
 H457 H 0.53494 0.27644 0.57338
 H458 H 0.52700 0.32802 0.53477
 H459 H 0.43321 0.35005 0.59062
 H460 H 0.53534 0.20381 0.68153
 H461 H 0.58936 0.21089 0.71516
 H462 H 0.60171 0.31465 0.67083
 H463 H 0.54765 0.30558 0.63812
 C464 C 0.41365 0.21800 0.71316
 C465 C 0.51927 0.15782 0.54974
 C466 C 0.59992 0.26312 0.69494
 C467 C 0.47965 0.34304 0.56010
 C468 C 0.51062 0.71414 0.93121
 H469 H 0.53465 0.72886 0.93127
 C470 C 0.50437 0.68847 0.95684
 H471 H 0.52376 0.68345 0.97650
 C472 C 0.45548 0.70394 0.90652
 H473 H 0.43591 0.71082 0.88778
 C474 C 0.44859 0.67727 0.93106
 H475 H 0.42425 0.66303 0.93016
 N476 N 0.48608 0.72186 0.90713
 C477 C 0.55720 0.78097 0.84260
 H478 H 0.55339 0.80638 0.85376
 C479 C 0.58528 0.77610 0.82047
 H480 H 0.60395 0.79720 0.81691
 C481 C 0.53760 0.72291 0.83362
 H482 H 0.51896 0.70218 0.83906
 C483 C 0.56418 0.71763 0.80951
 H484 H 0.56562 0.69282 0.79637
 Zn485 Zn 0.49538 0.76170 0.87845
 N486 N 0.53454 0.75425 0.84961
 C487 C 0.53623 0.80575 0.92139
 N488 N 0.50348 0.79882 0.91040
 C489 C 0.47615 0.81501 0.92521
 C490 C 0.48148 0.84159 0.94941
 C491 C 0.54275 0.83216 0.94535
 C492 C 0.44743 0.74442 0.82653
 C493 C 0.42063 0.74930 0.80280
 C494 C 0.41721 0.80929 0.82110
 C495 C 0.44425 0.80332 0.84438
 N496 N 0.45814 0.77096 0.84746
 H497 H 0.55742 0.79045 0.91208
 H498 H 0.45015 0.80723 0.91836
 H499 H 0.45965 0.85495 0.96038
 H500 H 0.56898 0.83795 0.95329
 H501 H 0.45957 0.71927 0.82845
 H502 H 0.41200 0.72784 0.78667
 H503 H 0.40607 0.83499 0.81907
 H504 H 0.45444 0.82480 0.85938
 C505 C 0.58840 0.74459 0.80242
 C506 C 0.47271 0.67019 0.95742
 C507 C 0.40499 0.78190 0.80037
 C508 C 0.51518 0.85054 0.95929
 C509 C 0.18198 0.22807 0.27315
 C510 C 0.17302 0.22482 0.23733
 C511 C 0.13914 0.23143 0.22692
 C512 C 0.11367 0.23835 0.25138
 C513 C 0.12128 0.23928 0.28713
 C514 C 0.15576 0.23487 0.29833
 C515 C 0.21649 0.22620 0.28439
 C516 C 0.22485 0.22931 0.31967
 C517 C 0.19919 0.23513 0.34432
 C518 C 0.16500 0.23829 0.33384
 H519 H 0.23748 0.22350 0.26615
 H520 H 0.25147 0.22772 0.32785
 H521 H 0.20590 0.23787 0.37162
 H522 H 0.14610 0.24405 0.35372
 H523 H 0.13214 0.22974 0.19958
 H524 H 0.08753 0.24217 0.24239
 C525 C 0.66181 0.76203 0.73619
 C526 C 0.67829 0.72898 0.73684
 C527 C 0.66469 0.70261 0.75916
 C528 C 0.63574 0.70809 0.77979
 C529 C 0.61765 0.73941 0.77754
 C530 C 0.62961 0.76588 0.75377
 C531 C 0.67654 0.79169 0.71912
 C532 C 0.65777 0.82211 0.71439
 C533 C 0.62425 0.82384 0.72711
 C534 C 0.61025 0.79612 0.74679
 H535 H 0.70287 0.79225 0.71015
 H536 H 0.66921 0.84431 0.70055
 H537 H 0.60935 0.84711 0.72250
 H538 H 0.58412 0.79856 0.75626
 H539 H 0.67648 0.67722 0.76071
 H540 H 0.62746 0.68747 0.79778
 C541 C 0.31486 0.79516 0.76233
 C542 C 0.32336 0.79831 0.72620
 C543 C 0.35760 0.79366 0.71559
 C544 C 0.38358 0.78826 0.73996
 C545 C 0.37619 0.78735 0.77580
 C546 C 0.34165 0.79047 0.78736
 C547 C 0.28037 0.79509 0.77415
 C548 C 0.27255 0.79261 0.80975
 C549 C 0.29880 0.78937 0.83422
 C550 C 0.33304 0.78793 0.82325
 H551 H 0.25904 0.79577 0.75622
 H552 H 0.24594 0.79277 0.81836
 H553 H 0.29254 0.78728 0.86181
 H554 H 0.35255 0.78436 0.84307
 H555 H 0.36436 0.79537 0.68809
 H556 H 0.40983 0.78537 0.73081
 C557 C -0.13481 0.29224 0.21198
 C558 C -0.16887 0.29818 0.22418
 C559 C -0.17444 0.30263 0.26013
 C560 C -0.14790 0.29862 0.28407
 C561 C -0.11462 0.29056 0.27295
 C562 C -0.10750 0.28839 0.23659
 C563 C -0.12690 0.29150 0.17592
 C564 C -0.09333 0.28609 0.16435
 C565 C -0.06679 0.28213 0.18833
 C566 C -0.07359 0.28365 0.22409
 H567 H -0.14607 0.29629 0.15621
 H568 H -0.08777 0.28562 0.13658
 H569 H -0.04067 0.27848 0.17917
 H570 H -0.05191 0.28181 0.24167
 H571 H -0.20009 0.30761 0.26992
 H572 H -0.15367 0.30079 0.31171
 C573 C -0.14366 0.68236 0.27831
 C574 C -0.17122 0.70611 0.27638
 C575 C -0.16952 0.73402 0.25233
 C576 C -0.14150 0.73825 0.22975
 C577 C -0.11435 0.71462 0.23043
 C578 C -0.11502 0.68654 0.25505
 C579 C -0.14351 0.65511 0.30351
 C580 C -0.11611 0.63206 0.30538
 C581 C -0.08822 0.63598 0.28256
 C582 C -0.08745 0.66305 0.25774
 H583 H -0.16418 0.65166 0.32229
 H584 H -0.11638 0.61123 0.32484
 H585 H -0.06691 0.61816 0.28433
 H586 H -0.06493 0.66559 0.24106
 H587 H -0.19042 0.75236 0.25076
 H588 H -0.14119 0.75994 0.21122
 C589 C 0.37114 0.19572 0.80163
 C590 C 0.33633 0.19164 0.79091
 C591 C 0.32821 0.19545 0.75534
 C592 C 0.35361 0.20376 0.73066
 C593 C 0.38798 0.20877 0.74069
 C594 C 0.39715 0.20440 0.77636
 C595 C 0.38085 0.19017 0.83679
 C596 C 0.41517 0.19379 0.84699
 C597 C 0.44052 0.20246 0.82238
 C598 C 0.43179 0.20747 0.78734
 H599 H 0.36229 0.18224 0.85658
 H600 H 0.42218 0.18944 0.87407
 H601 H 0.46718 0.20490 0.83041
 H602 H 0.45246 0.21330 0.76901
 H603 H 0.30178 0.19253 0.74670
 H604 H 0.34632 0.20681 0.70346
 C605 C 0.69640 0.27368 0.71412
 C606 C 0.69542 0.27404 0.75125
 C607 C 0.66357 0.27050 0.76853
 C608 C 0.63304 0.26700 0.74985
 C609 C 0.63327 0.26709 0.71324
 C610 C 0.66510 0.27013 0.69496
 C611 C 0.72795 0.27537 0.69562
 C612 C 0.72868 0.27429 0.65919
 C613 C 0.69815 0.27093 0.64048
 C614 C 0.66664 0.26858 0.65807
 H615 H 0.75234 0.27676 0.70897
 H616 H 0.75311 0.27562 0.64541
 H617 H 0.69891 0.26972 0.61221
 H618 H 0.64368 0.26506 0.64247
 H619 H 0.66237 0.27082 0.79683
 H620 H 0.60890 0.26449 0.76409
 C621 C 0.20152 0.76776 0.21169
 C622 C 0.19972 0.76945 0.24872
 C623 C 0.16750 0.76678 0.26535
 C624 C 0.13735 0.76310 0.24608
 C625 C 0.13835 0.76194 0.20949
 C626 C 0.17065 0.76375 0.19192
 C627 C 0.23350 0.76865 0.19396
 C628 C 0.23509 0.76606 0.15765
 C629 C 0.20501 0.76197 0.13836
 C630 C 0.17307 0.76052 0.15521
 H631 H 0.25757 0.77055 0.20787
 H632 H 0.25985 0.76674 0.14447
 H633 H 0.20644 0.75951 0.11021
 H634 H 0.15051 0.75632 0.13920
 H635 H 0.16568 0.76816 0.29358
 H636 H 0.11288 0.76155 0.25984
 C637 C 0.20487 0.15042 0.22435
 C638 C 0.21866 0.18397 0.21491
 C639 C 0.25429 0.18782 0.20934
 C640 C 0.27638 0.16013 0.21485
 C641 C 0.26370 0.12728 0.22566
 C642 C 0.22761 0.12190 0.22982
 C643 C 0.16899 0.14403 0.22686
 C644 C 0.15584 0.11093 0.23558
 C645 C 0.17800 0.08327 0.24117
 C646 C 0.21350 0.08846 0.23792
 H647 H 0.15057 0.16395 0.22095
 H648 H 0.12824 0.10657 0.23738
 H649 H 0.16759 0.05750 0.24741
 H650 H 0.22956 0.06586 0.24116
 H651 H 0.26529 0.21301 0.20179
 H652 H 0.30382 0.16455 0.21115
 C653 C 0.75351 0.69496 0.74987
 C654 C 0.72969 0.69247 0.72204
 C655 C 0.72869 0.66241 0.70162
 C656 C 0.75072 0.63489 0.70839
 C657 C 0.77440 0.63650 0.73591
 C658 C 0.77606 0.66672 0.75697
 C659 C 0.75601 0.72538 0.77014
 C660 C 0.77993 0.72779 0.79718
 C661 C 0.80196 0.70022 0.80421
 C662 C 0.80029 0.67001 0.78424
 H663 H 0.73983 0.74761 0.76504
 H664 H 0.78158 0.75127 0.81259
 H665 H 0.82064 0.70239 0.82507
 H666 H 0.81831 0.64952 0.79016
 H667 H 0.71058 0.66036 0.68022
 H668 H 0.74929 0.61203 0.69201
 C669 C 0.78318 0.30960 0.76611
 C670 C 0.74670 0.30989 0.76874
 C671 C 0.72981 0.34198 0.76909
 C672 C 0.74835 0.37342 0.76767
 C673 C 0.78439 0.37384 0.76589
 C674 C 0.80218 0.34179 0.76449
 C675 C 0.80112 0.27794 0.76380
 C676 C 0.83690 0.27790 0.76043
 C677 C 0.85546 0.30929 0.75873
 C678 C 0.83839 0.34098 0.76044
 H679 H 0.78775 0.25299 0.76375
 H680 H 0.85025 0.25338 0.75864
 H681 H 0.88321 0.30911 0.75567
 H682 H 0.85382 0.36469 0.75803
 H683 H 0.70199 0.34265 0.77120
 H684 H 0.73445 0.39772 0.76849
 C685 C 0.28658 -0.19316 0.26455
 C686 C 0.25003 -0.19346 0.26618
 C687 C 0.23257 -0.16170 0.26506
 C688 C 0.25057 -0.12999 0.26308
 C689 C 0.28663 -0.12896 0.26225
 C690 C 0.30504 -0.16068 0.26244
 C691 C 0.30514 -0.22453 0.26375
 C692 C 0.34101 -0.22398 0.26144
 C693 C 0.35905 -0.19230 0.25934
 C694 C 0.34136 -0.16090 0.25955
 H695 H 0.29222 -0.24972 0.26411
 H696 H 0.35486 -0.24829 0.26082
 H697 H 0.38688 -0.19204 0.25714
 H698 H 0.35641 -0.13697 0.25693
 H699 H 0.20469 -0.16147 0.26643
 H700 H 0.23622 -0.10594 0.26270
 C701 C 0.28579 -0.13043 0.71245
 C702 C 0.27457 -0.16465 0.70327
 C703 C 0.23923 -0.17119 0.69827
 C704 C 0.21501 -0.14573 0.70486
 C705 C 0.22523 -0.11256 0.71620
 C706 C 0.26092 -0.10422 0.71900
 C707 C 0.32113 -0.12116 0.71381
 C708 C 0.33179 -0.08743 0.72250
 C709 C 0.30756 -0.06200 0.72917
 C710 C 0.27248 -0.07005 0.72705
 H711 H 0.34094 -0.13927 0.70702
 H712 H 0.35901 -0.08082 0.72343
 H713 H 0.31599 -0.03570 0.73539
 H714 H 0.25468 -0.04904 0.73105
 H715 H 0.23016 -0.19693 0.69079
 H716 H 0.18790 -0.15234 0.70209
 C717 C 0.78476 0.36180 0.20079
 C718 C 0.77627 0.32588 0.20538
 C719 C 0.74275 0.31591 0.21557
 C720 C 0.71803 0.34090 0.22242
 C721 C 0.72622 0.37655 0.21938
 C722 C 0.75962 0.38738 0.20816
 C723 C 0.81750 0.37285 0.18840
 C724 C 0.82562 0.40830 0.18426
 C725 C 0.80125 0.43335 0.19202
 C726 C 0.76847 0.42312 0.20371
 H727 H 0.83688 0.35434 0.18130
 H728 H 0.85090 0.41638 0.17478
 H729 H 0.80768 0.46083 0.18866
 H730 H 0.75012 0.44340 0.20894
 H731 H 0.73604 0.28849 0.21903
 H732 H 0.69249 0.33241 0.23083
 C733 C 0.76122 0.65343 0.32357
 C734 C 0.77581 0.67214 0.29449
 C735 C 0.76777 0.66117 0.26054
 C736 C 0.74453 0.63382 0.25491
 C737 C 0.72849 0.61623 0.28301
 C738 C 0.73706 0.62556 0.31773
 C739 C 0.77122 0.66053 0.35826
 C740 C 0.75674 0.64198 0.38647
 C741 C 0.73263 0.61541 0.38077
 C742 C 0.72312 0.60690 0.34679
 H743 H 0.79113 0.67943 0.36412
 H744 H 0.76470 0.64789 0.41288
 H745 H 0.72176 0.60084 0.40277
 H746 H 0.70523 0.58521 0.34361
 H747 H 0.77886 0.67472 0.23801
 H748 H 0.73854 0.62664 0.22826
 C749 C 0.29079 0.12281 0.80216
 C750 C 0.28261 0.15840 0.80729
 C751 C 0.24834 0.16890 0.80362
 C752 C 0.22248 0.14514 0.79447
 C753 C 0.23001 0.11010 0.78850
 C754 C 0.26431 0.09847 0.79271
 C755 C 0.32452 0.11063 0.80748
 C756 C 0.33220 0.07554 0.80290
 C757 C 0.30642 0.05180 0.79353
 C758 C 0.27272 0.06295 0.78877
 H759 H 0.34510 0.12778 0.81594
 H760 H 0.35822 0.06664 0.80706
 H761 H 0.31246 0.02451 0.79037
 H762 H 0.25339 0.04338 0.78247
 H763 H 0.24167 0.19595 0.80736
 H764 H 0.19634 0.15426 0.79158
 C765 C 0.19726 0.22706 0.14651
 C766 C 0.20313 0.23789 0.18130
 C767 C 0.21556 0.27183 0.18742
 C768 C 0.22315 0.29471 0.15970
 C769 C 0.21842 0.28427 0.12510
 C770 C 0.20527 0.25034 0.11814
 C771 C 0.18308 0.19379 0.13931
 C772 C 0.17782 0.18330 0.10491
 C773 C 0.18631 0.20579 0.07713
 C774 C 0.19981 0.23908 0.08354
 H775 H 0.17556 0.17579 0.16004
 H776 H 0.16700 0.15763 0.09978
 H777 H 0.18218 0.19749 0.05049
 H778 H 0.20577 0.25589 0.06124
 H779 H 0.22006 0.28030 0.21396
 H780 H 0.23320 0.32063 0.16523
 C781 C 0.68389 0.73612 0.65398
 C782 C 0.71079 0.73607 0.67896
 C783 C 0.74223 0.75283 0.67079
 C784 C 0.74623 0.77233 0.64006
 C785 C 0.71912 0.77523 0.61614
 C786 C 0.68800 0.75599 0.62233
 C787 C 0.65334 0.71627 0.65943
 C788 C 0.62707 0.71654 0.63465
 C789 C 0.63097 0.73601 0.60381
 C790 C 0.66120 0.75533 0.59745
 H791 H 0.64977 0.69980 0.68240
 H792 H 0.60374 0.70120 0.63919
 H793 H 0.61064 0.73576 0.58448
 H794 H 0.66357 0.76914 0.57265
 H795 H 0.76316 0.75241 0.68945
 H796 H 0.77032 0.78646 0.63559
 C797 C 0.75845 0.74918 0.31777
 C798 C 0.79001 0.73117 0.32064
 C799 C 0.81407 0.74167 0.34578
 C800 C 0.80616 0.76704 0.37006
 C801 C 0.77415 0.78343 0.36955
 C802 C 0.75037 0.77542 0.34254
 C803 C 0.73539 0.74279 0.29006
 C804 C 0.70460 0.76086 0.28739
 C805 C 0.69652 0.78615 0.31174
 C806 C 0.71926 0.79373 0.33886
 H807 H 0.74127 0.72472 0.26959
 H808 H 0.68717 0.75562 0.26597
 H809 H 0.67278 0.80043 0.30924
 H810 H 0.71252 0.81453 0.35634
 H811 H 0.83863 0.72873 0.34761
 H812 H 0.82484 0.77316 0.39017
 C813 C 0.29464 0.19918 -0.12213
 C814 C 0.30175 0.20952 -0.15730
 C815 C 0.30171 0.24517 -0.16638
 C816 C 0.29462 0.27034 -0.14158
 C817 C 0.28693 0.26073 -0.10695
 C818 C 0.28689 0.22498 -0.09684
 C819 C 0.29628 0.16388 -0.11121
 C820 C 0.28940 0.15408 -0.07658
 C821 C 0.28127 0.17920 -0.05205
 C822 C 0.28025 0.21437 -0.06189
 H823 H 0.30355 0.14362 -0.12897
 H824 H 0.29070 0.12687 -0.06865
 H825 H 0.27615 0.17143 -0.02515
 H826 H 0.27453 0.23310 -0.04183
 H827 H 0.30696 0.25355 -0.19307
 H828 H 0.29489 0.29763 -0.14953
 C829 C 0.73260 0.21866 -0.20027
 C830 C 0.73100 0.25557 -0.19767
 C831 C 0.73346 0.27090 -0.16462
 C832 C 0.73707 0.25050 -0.13450
 C833 C 0.73799 0.21407 -0.13636
 C834 C 0.73590 0.19774 -0.16935
 C835 C 0.73221 0.20212 -0.23304
 C836 C 0.73404 0.16588 -0.23528
 C837 C 0.73679 0.14544 -0.20506
 C838 C 0.73797 0.16110 -0.17237
 H839 H 0.73127 0.21691 -0.25723
 H840 H 0.73367 0.15361 -0.26063
 H841 H 0.73843 0.11732 -0.20699
 H842 H 0.74087 0.14428 -0.14963
 H843 H 0.73216 0.29899 -0.16211
 H844 H 0.73885 0.26323 -0.10941
 C845 C 0.23683 0.71613 0.29978
 C846 C 0.23443 0.75306 0.30114
 C847 C 0.23588 0.76949 0.33370
 C848 C 0.23912 0.75013 0.36455
 C849 C 0.24074 0.71368 0.36391
 C850 C 0.23985 0.69628 0.33142
 C851 C 0.23749 0.69856 0.26758
 C852 C 0.24017 0.66232 0.26655
 C853 C 0.24276 0.64291 0.29745
 C854 C 0.24287 0.65962 0.32962
 H855 H 0.23670 0.71254 0.24292
 H856 H 0.24061 0.64925 0.24162
 H857 H 0.24512 0.61480 0.29647
 H858 H 0.24575 0.64358 0.35292
 H859 H 0.23400 0.79762 0.33525
 H860 H 0.23992 0.76368 0.38924
 C861 C 0.29799 0.79440 0.63548
 C862 C 0.29417 0.78296 0.67074
 C863 C 0.28600 0.74781 0.67804
 C864 C 0.28084 0.72418 0.65113
 C865 C 0.28347 0.73505 0.61611
 C866 C 0.29228 0.77032 0.60791
 C867 C 0.30825 0.82902 0.62702
 C868 C 0.31189 0.83995 0.59222
 C869 C 0.30581 0.81657 0.56527
 C870 C 0.29629 0.78200 0.57290
 H871 H 0.31407 0.84778 0.64704
 H872 H 0.31971 0.86664 0.58613
 H873 H 0.30884 0.82518 0.53831
 H874 H 0.29242 0.76452 0.55120
 H875 H 0.28316 0.73881 0.70491
 H876 H 0.27432 0.69722 0.65766
 C877 C 0.79596 0.23577 0.18469
 C878 C 0.79480 0.27193 0.17589
 C879 C 0.78819 0.28201 0.14121
 C880 C 0.78458 0.25733 0.11510
 C881 C 0.78730 0.22162 0.12274
 C882 C 0.79346 0.21050 0.15770
 C883 C 0.79860 0.22401 0.21971
 C884 C 0.80158 0.18855 0.22772
 C885 C 0.80157 0.16410 0.20113
 C886 C 0.79741 0.17482 0.16642
 H887 H 0.79746 0.24178 0.24128
 H888 H 0.80388 0.17999 0.25472
 H889 H 0.80430 0.13663 0.20748
 H890 H 0.79744 0.15493 0.14660
 H891 H 0.78686 0.30947 0.13419
 H892 H 0.77953 0.26620 0.08858
 C893 C 0.47877 0.43803 0.52748
 C894 C 0.46884 0.43280 0.49226
 C895 C 0.46291 0.39877 0.48042
 C896 C 0.46621 0.37009 0.50287
 C897 C 0.47532 0.37459 0.53793
 C898 C 0.48178 0.40870 0.55060
 C899 C 0.48681 0.47168 0.53996
 C900 C 0.49672 0.47647 0.57462
 C901 C 0.49924 0.44789 0.59733
 C902 C 0.49208 0.41424 0.58551
 H903 H 0.48608 0.49447 0.52308
 H904 H 0.50274 0.50248 0.58384
 H905 H 0.50712 0.45177 0.62416
 H906 H 0.49496 0.39271 0.60385
 H907 H 0.45541 0.39452 0.45352
 H908 H 0.46155 0.34410 0.49284
 C909 C -0.04719 0.87563 -0.03726
 C910 C -0.05085 0.91087 -0.02695
 C911 C -0.04641 0.91944 0.00833
 C912 C -0.03768 0.89411 0.03309
 C913 C -0.03291 0.85943 0.02334
 C914 C -0.03808 0.84974 -0.01196
 C915 C -0.05355 0.86535 -0.07199
 C916 C -0.05025 0.83062 -0.08178
 C917 C -0.04110 0.80538 -0.05715
 C918 C -0.03531 0.81465 -0.02250
 H919 H -0.06187 0.88373 -0.09173
 H920 H -0.05522 0.82319 -0.10854
 H921 H -0.03888 0.77839 -0.06483
 H922 H -0.02911 0.79399 -0.00409
 H923 H -0.04909 0.94620 0.01662
 H924 H -0.03404 0.90173 0.06004
 C925 C 0.06753 0.59917 -0.02323
 C926 C 0.04630 0.56870 -0.02366
 C927 C 0.01936 0.56482 0.00068
 C928 C 0.01309 0.59058 0.02517
 C929 C 0.03344 0.62109 0.02584
 C930 C 0.06125 0.62545 0.00192
 C931 C 0.09441 0.60446 -0.04774
 C932 C 0.11534 0.63442 -0.04686
 C933 C 0.10980 0.65969 -0.02172
 C934 C 0.08302 0.65539 0.00248
 H935 H 0.09939 0.58577 -0.06787
 H936 H 0.13597 0.63803 -0.06579
 H937 H 0.12624 0.68280 -0.02105
 H938 H 0.07966 0.67562 0.02164
 H939 H 0.00302 0.54160 0.00052
 H940 H -0.00824 0.58700 0.04332
 C941 C 0.52913 0.11211 0.46152
 C942 C 0.53855 0.07825 0.47354
 C943 C 0.54363 0.07258 0.50950
 C944 C 0.53740 0.09865 0.53354
 C945 C 0.52621 0.13156 0.52256
 C946 C 0.52273 0.13888 0.48625
 C947 C 0.52750 0.12057 0.42549
 C948 C 0.51853 0.15392 0.41407
 C949 C 0.51184 0.17982 0.43817
 C950 C 0.51429 0.17264 0.47390
 H951 H 0.53431 0.10216 0.40571
 H952 H 0.51739 0.15988 0.38633
 H953 H 0.50536 0.20582 0.42913
 H954 H 0.51017 0.19399 0.49156
 H955 H 0.55124 0.04714 0.51918
 H956 H 0.54069 0.09285 0.56115
 C957 C -0.01408 0.07936 0.50592
 C958 C -0.04581 0.07821 0.52454
 C959 C -0.07084 0.10305 0.51675
 C960 C -0.06375 0.13076 0.49381
 C961 C -0.03169 0.13405 0.47700
 C962 C -0.00691 0.10756 0.48201
 C963 C 0.00999 0.05233 0.50925
 C964 C 0.04086 0.05350 0.49048
 C965 C 0.04802 0.08111 0.46740
 C966 C 0.02429 0.10770 0.46280
 H967 H 0.00485 0.02950 0.52533
 H968 H 0.05906 0.03253 0.49336
 H969 H 0.07180 0.08158 0.45247
 H970 H 0.03037 0.12780 0.44349
 H971 H -0.09558 0.10177 0.52999
 H972 H -0.08324 0.15034 0.48979
 C973 C 0.42950 0.61540 1.03118
 C974 C 0.45493 0.58964 1.03610
 C975 C 0.48495 0.59117 1.01563
 C976 C 0.49000 0.61732 0.99045
 C977 C 0.46550 0.64334 0.98515
 C978 C 0.43523 0.64307 1.00631
 C979 C 0.39892 0.61475 1.05131
 C980 C 0.37488 0.64120 1.04774
 C981 C 0.38104 0.66894 1.02452
 C982 C 0.41097 0.67014 1.00418
 H983 H 0.39367 0.59428 1.07048
 H984 H 0.35165 0.64049 1.06353
 H985 H 0.36263 0.68979 1.02242
 H986 H 0.41504 0.69276 0.98736
 H987 H 0.50434 0.57135 1.01867
 H988 H 0.51323 0.61701 0.97463
 C989 C 0.52142 0.90560 1.04212
 C990 C 0.53590 0.93703 1.02745
 C991 C 0.54469 0.93799 0.99176
 C992 C 0.53790 0.90969 0.97039
 C993 C 0.52190 0.87937 0.98377
 C994 C 0.51377 0.87684 1.01987
 C995 C 0.51544 0.90143 1.07842
 C996 C 0.50074 0.87068 1.09217
 C997 C 0.49236 0.84314 1.07027
 C998 C 0.49908 0.84592 1.03450
 H999 H 0.52291 0.92117 1.09683
 H1000 H 0.49622 0.86806 1.12006
 H1001 H 0.48115 0.81925 1.08114
 H1002 H 0.49307 0.82350 1.01856
 H1003 H 0.55589 0.96141 0.97995
 H1004 H 0.54460 0.91171 0.94287
 C1005 C 0.01868 0.45514 0.48303
 C1006 C 0.02650 0.45011 0.51892
 C1007 C 0.02808 0.41610 0.53280
 C1008 C 0.02299 0.38721 0.51160
 C1009 C 0.01638 0.39150 0.47586
 C1010 C 0.01388 0.42558 0.46123
 C1011 C 0.01469 0.48888 0.46850
 C1012 C 0.00707 0.49347 0.43312
 C1013 C 0.00290 0.46462 0.41169
 C1014 C 0.00605 0.43092 0.42552
 H1015 H 0.01684 0.51193 0.48430
 H1016 H 0.00415 0.51956 0.42233
 H1017 H -0.00317 0.46835 0.38428
 H1018 H 0.00199 0.40920 0.40811
 H1019 H 0.03390 0.41202 0.56023
 H1020 H 0.02479 0.36124 0.52305
 C1021 C 0.44307 0.52345 0.47001
 C1022 C 0.43761 0.48677 0.47420
 C1023 C 0.40492 0.47420 0.48472
 C1024 C 0.37747 0.49666 0.48886
 C1025 C 0.38169 0.53263 0.48304
 C1026 C 0.41484 0.54650 0.47430
 C1027 C 0.47617 0.53800 0.46332
 C1028 C 0.48120 0.57400 0.45963
 C1029 C 0.45363 0.59637 0.46335
 C1030 C 0.42084 0.58293 0.47103
 H1031 H 0.49874 0.52212 0.46214
 H1032 H 0.50679 0.58463 0.45448
 H1033 H 0.45781 0.62434 0.46095
 H1034 H 0.40052 0.60145 0.47505
 H1035 H 0.40031 0.44643 0.48853
 H1036 H 0.35242 0.48573 0.49598
 C1037 C 0.88131 -0.04487 -0.03692
 C1038 C 0.91639 -0.03570 -0.04349
 C1039 C 0.92686 -0.00047 -0.04199
 C1040 C 0.90343 0.02547 -0.03429
 C1041 C 0.86885 0.01700 -0.02745
 C1042 C 0.85743 -0.01833 -0.02856
 C1043 C 0.86910 -0.07965 -0.03982
 C1044 C 0.83454 -0.08826 -0.03353
 C1045 C 0.81138 -0.06242 -0.02475
 C1046 C 0.82252 -0.02772 -0.02250
 H1047 H 0.88578 -0.10041 -0.04763
 H1048 H 0.82563 -0.11508 -0.03580
 H1049 H 0.78454 -0.06925 -0.02007
 H1050 H 0.80351 -0.00838 -0.01625
 H1051 H 0.95352 0.00699 -0.04680
 H1052 H 0.91232 0.05245 -0.03369
 C1053 C 0.60303 -0.01940 0.05751
 C1054 C 0.57132 -0.01018 0.04216
 C1055 C 0.56920 0.02048 0.02206
 C1056 C 0.59830 0.04142 0.01586
 C1057 C 0.63028 0.03283 0.03038
 C1058 C 0.63259 0.00272 0.05245
 C1059 C 0.60564 -0.04970 0.07866
 C1060 C 0.63651 -0.05770 0.09523
 C1061 C 0.66509 -0.03550 0.09141
 C1062 C 0.66322 -0.00544 0.07049
 H1063 H 0.58381 -0.06716 0.08290
 H1064 H 0.63811 -0.08097 0.11154
 H1065 H 0.68880 -0.04148 0.10492
 H1066 H 0.68576 0.01151 0.06923
 H1067 H 0.54485 0.02771 0.01049
 H1068 H 0.59593 0.06433 -0.00088
 C1069 C 0.06165 0.53880 0.53658
 C1070 C 0.06313 0.50173 0.53518
 C1071 C 0.09459 0.48620 0.52694
 C1072 C 0.12453 0.50616 0.52234
 C1073 C 0.12414 0.54256 0.52513
 C1074 C 0.09239 0.55934 0.53145
 C1075 C 0.03012 0.55608 0.54118
 C1076 C 0.02891 0.59243 0.54174
 C1077 C 0.05884 0.61240 0.53689
 C1078 C 0.09023 0.59617 0.53135
 H1079 H 0.00591 0.54205 0.54310
 H1080 H 0.00448 0.60520 0.54528
 H1081 H 0.05764 0.64064 0.53676
 H1082 H 0.11248 0.61287 0.52627
 H1083 H 0.09618 0.45805 0.52531
 H1084 H 0.14845 0.49297 0.51706
 C1085 C 0.10284 0.51252 -0.07561
 C1086 C 0.08110 0.51951 -0.04651
 C1087 C 0.08955 0.50553 -0.01362
 C1088 C 0.11733 0.48354 -0.00937
 C1089 C 0.13893 0.47568 -0.03754
 C1090 C 0.13237 0.49107 -0.07089
 C1091 C 0.09713 0.52780 -0.10887
 C1092 C 0.11956 0.52221 -0.13671
 C1093 C 0.14863 0.50203 -0.13190
 C1094 C 0.15531 0.48696 -0.09930
 H1095 H 0.07615 0.54516 -0.11370
 H1096 H 0.11478 0.53430 -0.16197
 H1097 H 0.16641 0.49848 -0.15341
 H1098 H 0.17904 0.47284 -0.09657
 H1099 H 0.07362 0.51085 0.00895
 H1100 H 0.12187 0.47231 0.01635
 C1101 C 0.60601 1.03808 0.45047
 C1102 C 0.57146 1.02604 0.45457
 C1103 C 0.56487 0.99094 0.46359
 C1104 C 0.59179 0.96801 0.46943
 C1105 C 0.62614 0.97954 0.46664
 C1106 C 0.63359 1.01473 0.45683
 C1107 C 0.61375 1.07260 0.43929
 C1108 C 0.64784 1.08416 0.43532
 C1109 C 0.67480 1.06149 0.44195
 C1110 C 0.66788 1.02702 0.45240
 H1111 H 0.59370 1.09079 0.43297
 H1112 H 0.65337 1.11076 0.42678
 H1113 H 0.70121 1.07057 0.43863
 H1114 H 0.68959 1.01011 0.45661
 H1115 H 0.53856 0.98146 0.46664
 H1116 H 0.58581 0.94110 0.47667
 C1117 C 0.88888 1.02575 0.56736
 C1118 C 0.91792 1.02804 0.54481
 C1119 C 0.91896 1.00716 0.51503
 C1120 C 0.89218 0.98377 0.50766
 C1121 C 0.86345 0.98051 0.52983
 C1122 C 0.86136 1.00187 0.55981
 C1123 C 0.88608 1.04748 0.59668
 C1124 C 0.85709 1.04554 0.61833
 C1125 C 0.83018 1.02233 0.61095
 C1126 C 0.83206 1.00083 0.58188
 H1127 H 0.90590 1.06642 0.60293
 H1128 H 0.85534 1.06240 0.64075
 H1129 H 0.80758 1.02122 0.62766
 H1130 H 0.81018 0.98383 0.57671
 H1131 H 0.94095 1.00889 0.49752
 H1132 H 0.89400 0.96781 0.48455
 C1133 C 0.41226 0.51004 0.08115
 C1134 C 0.42394 0.53408 0.05462
 C1135 C 0.41086 0.53006 0.02060
 C1136 C 0.38723 0.50366 0.01277
 C1137 C 0.37750 0.47811 0.03773
 C1138 C 0.39214 0.48004 0.07176
 C1139 C 0.41954 0.51507 0.11691
 C1140 C 0.41258 0.48877 0.14166
 C1141 C 0.39781 0.45723 0.13137
 C1142 C 0.38757 0.45281 0.09678
 H1143 H 0.42993 0.53945 0.12631
 H1144 H 0.41908 0.49275 0.16886
 H1145 H 0.39350 0.43640 0.15043
 H1146 H 0.37625 0.42786 0.08985
 H1147 H 0.41862 0.54769 -0.00046
 H1148 H 0.37638 0.50353 -0.01328
 C1149 C 0.46965 0.46236 0.40234
 C1150 C 0.48477 0.46206 0.43612
 C1151 C 0.52077 0.46210 0.43900
 C1152 C 0.54177 0.46549 0.40954
 C1153 C 0.52752 0.46843 0.37605
 C1154 C 0.49119 0.46591 0.37207
 C1155 C 0.43381 0.45772 0.39782
 C1156 C 0.41930 0.45799 0.36451
 C1157 C 0.44021 0.46205 0.33504
 C1158 C 0.47584 0.46558 0.33862
 H1159 H 0.41673 0.45270 0.41968
 H1160 H 0.39173 0.45445 0.36152
 H1161 H 0.42882 0.46180 0.30922
 H1162 H 0.49114 0.46731 0.31494
 H1163 H 0.53263 0.46101 0.46459
 H1164 H 0.56947 0.46681 0.41300
 C1165 C -0.04462 -0.04825 0.88502
 C1166 C -0.03384 -0.05414 0.92003
 C1167 C 0.00139 -0.05206 0.92799
 C1168 C 0.02574 -0.04369 0.90227
 C1169 C 0.01568 -0.03693 0.86775
 C1170 C -0.01968 -0.03958 0.85868
 C1171 C -0.07955 -0.05201 0.87537
 C1172 C -0.08980 -0.04667 0.84082
 C1173 C -0.06550 -0.03805 0.81513
 C1174 C -0.03073 -0.03478 0.82378
 H1175 H -0.09916 -0.05987 0.89410
 H1176 H -0.11671 -0.04967 0.83386
 H1177 H -0.07358 -0.03429 0.78828
 H1178 H -0.01268 -0.02894 0.80279
 H1179 H 0.01004 -0.05638 0.95458
 H1180 H 0.05270 -0.04195 0.90945
 C1181 C -0.02068 0.07410 0.60328
 C1182 C -0.03128 0.04651 0.58094
 C1183 C -0.01940 0.01270 0.58775
 C1184 C 0.00454 0.00633 0.61394
 C1185 C 0.01681 0.03333 0.63516
 C1186 C 0.00327 0.06736 0.63077
 C1187 C -0.03463 0.10782 0.60016
 C1188 C -0.02486 0.13437 0.62283
 C1189 C -0.00171 0.12776 0.64966
 C1190 C 0.01192 0.09455 0.65398
 H1191 H -0.05417 0.11388 0.58127
 H1192 H -0.03593 0.16003 0.62004
 H1193 H 0.00524 0.14830 0.66764
 H1194 H 0.02858 0.09038 0.67618
 H1195 H -0.02759 -0.00879 0.57145
 H1196 H 0.01410 -0.01994 0.61725
 C1197 C 0.48687 0.57725 0.11231
 C1198 C 0.47859 0.55424 0.08461
 C1199 C 0.49693 0.52321 0.08126
 C1200 C 0.52238 0.51425 0.10520
 C1201 C 0.53051 0.53613 0.13315
 C1202 C 0.51278 0.56799 0.13694
 C1203 C 0.46854 0.60832 0.11728
 C1204 C 0.47584 0.63006 0.14533
 C1205 C 0.50103 0.62101 0.16940
 C1206 C 0.51916 0.59017 0.16556
 H1207 H 0.44810 0.61595 0.10006
 H1208 H 0.46153 0.65383 0.14866
 H1209 H 0.50628 0.63775 0.19142
 H1210 H 0.53776 0.58382 0.18554
 H1211 H 0.49092 0.50549 0.06022
 H1212 H 0.53560 0.48976 0.10218
 C1213 C 0.47914 -0.01676 0.06131
 C1214 C 0.51443 -0.01840 0.07078
 C1215 C 0.52423 -0.00925 0.10478
 C1216 C 0.49970 -0.00208 0.13011
 C1217 C 0.46453 -0.00359 0.12229
 C1218 C 0.45391 -0.00989 0.08745
 C1219 C 0.46842 -0.02082 0.02636
 C1220 C 0.43359 -0.01977 0.01760
 C1221 C 0.40888 -0.01395 0.04327
 C1222 C 0.41884 -0.00871 0.07784
 H1223 H 0.48673 -0.02377 0.00534
 H1224 H 0.42576 -0.02303 -0.00933
 H1225 H 0.38191 -0.01288 0.03625
 H1226 H 0.39893 -0.00312 0.09674
 H1227 H 0.55107 -0.00970 0.11234
 H1228 H 0.50820 0.00315 0.15654
 C1229 C 1.02619 0.48209 0.60713
 C1230 C 1.01222 0.48202 0.57282
 C1231 C 0.97647 0.48432 0.56854
 C1232 C 0.95480 0.48900 0.59705
 C1233 C 0.96810 0.49124 0.63092
 C1234 C 1.00398 0.48730 0.63638
 C1235 C 1.06133 0.47551 0.61328
 C1236 C 1.07465 0.47576 0.64711
 C1237 C 1.05316 0.48173 0.67553
 C1238 C 1.01809 0.48706 0.67040
 H1239 H 1.07869 0.46899 0.59242
 H1240 H 1.10171 0.47077 0.65133
 H1241 H 1.06360 0.48155 0.70176
 H1242 H 1.00217 0.49038 0.69336
 H1243 H 0.96543 0.48351 0.54257
 H1244 H 0.92736 0.49137 0.59261
 C1245 C 1.00444 0.50302 0.92620
 C1246 C 1.02342 0.53506 0.92669
 C1247 C 1.01397 0.56230 0.90403
 C1248 C 0.98840 0.55748 0.87913
 C1249 C 0.97065 0.52547 0.87659
 C1250 C 0.97788 0.49816 0.90088
 C1251 C 1.01004 0.47635 0.95126
 C1252 C 0.99084 0.44524 0.95083
 C1253 C 0.96516 0.44038 0.92600
 C1254 C 0.95837 0.46664 0.90149
 H1255 H 1.02840 0.47947 0.97206
 H1256 H 0.99551 0.42504 0.97026
 H1257 H 0.94998 0.41638 0.92614
 H1258 H 0.93725 0.46222 0.88364
 H1259 H 1.02754 0.58724 0.90491
 H1260 H 0.98290 0.57880 0.86116
 C1261 C 0.48114 0.03541 0.43387
 C1262 C 0.51650 0.03977 0.42483
 C1263 C 0.52670 0.03567 0.38994
 C1264 C 0.50248 0.03042 0.36373
 C1265 C 0.46722 0.02870 0.37157
 C1266 C 0.45623 0.03036 0.40695
 C1267 C 0.47007 0.03451 0.46907
 C1268 C 0.43524 0.03041 0.47755
 C1269 C 0.41086 0.02632 0.45127
 C1270 C 0.42116 0.02589 0.41630
 H1271 H 0.48809 0.03574 0.49041
 H1272 H 0.42718 0.02986 0.50471
 H1273 H 0.38389 0.02279 0.45804
 H1274 H 0.40147 0.02138 0.39685
 H1275 H 0.55369 0.03818 0.38282
 H1276 H 0.51129 0.02859 0.33689
   
