data_POSCAR
  _audit_creation_date              2014-09-24
  _audit_creation_method            'ToBaCCo'
  _symmetry_space_group_name_H-M    'P1'
  _symmetry_Int_Tables_number       1
  _symmetry_cell_setting            triclinic
  loop_
  _symmetry_equiv_pos_as_xyz
 x,y,z
_cell_length_a 86.8404
_cell_length_b 86.8324
_cell_length_c 86.9282
_cell_angle_alpha 90.008100
_cell_angle_beta 90.005900
_cell_angle_gamma 90.010600
loop_
  _atom_site_label
  _atom_site_type_symbol
  _atom_site_fract_x
  _atom_site_fract_y
  _atom_site_fract_z
C1 C 0.35688 0.33778 0.33790
 N2 N 0.35046 0.35055 0.33156
 C3 C 0.33771 0.35699 0.33792
 N4 N 0.33136 0.35057 0.35067
 C5 C 0.33771 0.33780 0.35709
 N6 N 0.35046 0.33143 0.35065
 C7 C 0.35696 0.83765 -0.16280
 N8 N 0.35047 0.85040 -0.16916
 C9 C 0.33770 0.85683 -0.16282
 N10 N 0.33141 0.85042 -0.15002
 C11 C 0.33781 0.83770 -0.14357
 N12 N 0.35056 0.83134 -0.15000
 C13 C 0.85664 0.33800 -0.16266
 N14 N 0.85023 0.33167 -0.14989
 C15 C 0.83748 0.33804 -0.14346
 N16 N 0.83111 0.35078 -0.14991
 C17 C 0.83743 0.35720 -0.16270
 N18 N 0.85020 0.35075 -0.16903
 C19 C 0.85714 0.83742 0.33749
 N20 N 0.85069 0.85019 0.33115
 C21 C 0.83795 0.85664 0.33752
 N22 N 0.83162 0.85025 0.35030
 C23 C 0.83799 0.83749 0.35673
 N24 N 0.85072 0.83111 0.35028
 C25 C 0.64341 0.66258 0.33773
 N26 N 0.64983 0.64982 0.33136
 C27 C 0.66258 0.64336 0.33772
 N28 N 0.66893 0.64977 0.35049
 C29 C 0.66258 0.66253 0.35693
 N30 N 0.64983 0.66891 0.35050
 C31 C 0.64334 0.16276 -0.16299
 N32 N 0.64974 0.16908 -0.15019
 C33 C 0.66250 0.16273 -0.14375
 N34 N 0.66889 0.15000 -0.15020
 C35 C 0.66260 0.14357 -0.16300
 N36 N 0.64982 0.15001 -0.16934
 C37 C 0.14373 0.66234 -0.16257
 N38 N 0.15015 0.66868 -0.14980
 C39 C 0.16291 0.66232 -0.14338
 N40 N 0.16928 0.64957 -0.14983
 C41 C 0.16295 0.64314 -0.16261
 N42 N 0.15017 0.64959 -0.16894
 C43 C 0.14339 0.16273 0.33709
 N44 N 0.14986 0.14998 0.33073
 C45 C 0.16262 0.14352 0.33709
 N46 N 0.16890 0.14992 0.34991
 C47 C 0.16251 0.16265 0.35635
 N48 N 0.14978 0.16903 0.34990
 C49 C 0.64334 0.33768 0.66217
 N50 N 0.64977 0.35044 0.66853
 C51 C 0.66253 0.35688 0.66218
 N52 N 0.66888 0.35047 0.64942
 C53 C 0.66252 0.33771 0.64299
 N54 N 0.64976 0.33134 0.64941
 C55 C 0.64335 0.83769 1.16279
 N56 N 0.64975 0.83137 1.15000
 C57 C 0.66250 0.83774 1.14356
 N58 N 0.66889 0.85048 1.14999
 C59 C 0.66259 0.85691 1.16279
 N60 N 0.64982 0.85046 1.16914
 C61 C 0.14321 0.33739 1.16262
 N62 N 0.14964 0.33108 1.14983
 C63 C 0.16237 0.33747 1.14338
 N64 N 0.16871 0.35025 1.14979
 C65 C 0.16237 0.35666 1.16256
 N66 N 0.14964 0.35019 1.16894
 C67 C 0.14336 0.83756 0.66285
 N68 N 0.14984 0.85031 0.66921
 C69 C 0.16260 0.85677 0.66286
 N70 N 0.16890 0.85037 0.65006
 C71 C 0.16250 0.83764 0.64360
 N72 N 0.14976 0.83126 0.65004
 C73 C 0.35688 0.66258 0.66236
 N74 N 0.35046 0.66892 0.64960
 C75 C 0.33771 0.66255 0.64317
 N76 N 0.33135 0.64979 0.64960
 C77 C 0.33770 0.64337 0.66236
 N78 N 0.35045 0.64981 0.66872
 C79 C 0.35679 0.16273 1.16287
 N80 N 0.35038 0.16903 1.15007
 C81 C 0.33763 0.16265 1.14363
 N82 N 0.33125 0.14992 1.15008
 C83 C 0.33755 0.14351 1.16289
 N84 N 0.35032 0.14998 1.16923
 C85 C 0.85660 0.66231 1.16257
 N86 N 0.85018 0.66866 1.14981
 C87 C 0.83742 0.66230 1.14339
 N88 N 0.83104 0.64955 1.14983
 C89 C 0.83737 0.64312 1.16261
 N90 N 0.85015 0.64957 1.16894
 C91 C 0.85681 0.16269 0.66267
 N92 N 0.85033 0.14994 0.66904
 C93 C 0.83756 0.14349 0.66269
 N94 N 0.83126 0.14989 0.64989
 C95 C 0.83766 0.16261 0.64343
 N96 N 0.85041 0.16898 0.64987
 C97 C 0.33754 0.35666 0.66268
 N98 N 0.35030 0.35022 0.66903
 C99 C 0.35673 0.33746 0.66267
 N100 N 0.35029 0.33111 0.64992
 C101 C 0.33753 0.33746 0.64350
 N102 N 0.33118 0.35023 0.64992
 C103 C 0.33785 0.85752 0.16225
 N104 N 0.35063 0.85111 0.16859
 C105 C 0.35707 0.83835 0.16223
 N106 N 0.35064 0.83199 0.14949
 C107 C 0.33786 0.83833 0.14307
 N108 N 0.33149 0.85108 0.14950
 C109 C 0.83806 0.35685 0.16218
 N110 N 0.85082 0.35040 0.16853
 C111 C 0.85723 0.33763 0.16218
 N112 N 0.85079 0.33127 0.14944
 C113 C 0.83803 0.33764 0.14301
 N114 N 0.83169 0.35042 0.14943
 C115 C 0.83795 0.85744 0.66247
 N116 N 0.85071 0.85103 0.66882
 C117 C 0.85715 0.83826 0.66247
 N118 N 0.85072 0.83189 0.64973
 C119 C 0.83795 0.83824 0.64330
 N120 N 0.83159 0.85100 0.64972
 C121 C 0.66253 0.64353 0.66270
 N122 N 0.64978 0.64997 0.66907
 C123 C 0.64335 0.66274 0.66271
 N124 N 0.64977 0.66908 0.64995
 C125 C 0.66252 0.66271 0.64352
 N126 N 0.66888 0.64995 0.64995
 C127 C 0.66222 0.14297 0.16195
 N128 N 0.64945 0.14939 0.16830
 C129 C 0.64302 0.16215 0.16195
 N130 N 0.64945 0.16852 0.14921
 C131 C 0.66222 0.16217 0.14279
 N132 N 0.66858 0.14941 0.14921
 C133 C 0.16233 0.64346 0.16224
 N134 N 0.16870 0.64989 0.14950
 C135 C 0.16235 0.66266 0.14308
 N136 N 0.14960 0.66903 0.14950
 C137 C 0.14316 0.66267 0.16225
 N138 N 0.14958 0.64989 0.16859
 C139 C 0.16223 0.14266 0.66233
 N140 N 0.16858 0.14909 0.64957
 C141 C 0.16221 0.16184 0.64314
 N142 N 0.14944 0.16819 0.64955
 C143 C 0.14302 0.16183 0.66230
 N144 N 0.14946 0.14908 0.66867
 C145 C 0.33779 0.64370 0.33749
 N146 N 0.35054 0.65014 0.33113
 C147 C 0.35697 0.66291 0.33748
 N148 N 0.35055 0.66926 0.35024
 C149 C 0.33779 0.66289 0.35667
 N150 N 0.33144 0.65012 0.35025
 C151 C 0.33783 0.14280 0.83781
 N152 N 0.33146 0.14923 0.85056
 C153 C 0.33782 0.16200 0.85698
 N154 N 0.35059 0.16835 0.85057
 C155 C 0.35703 0.16199 0.83783
 N156 N 0.35059 0.14922 0.83147
 C157 C 0.83801 0.64346 0.83778
 N158 N 0.83165 0.64989 0.85053
 C159 C 0.83799 0.66267 0.85694
 N160 N 0.85074 0.66904 0.85051
 C161 C 0.85718 0.66268 0.83776
 N162 N 0.85076 0.64990 0.83142
 C163 C 0.83796 0.14304 0.33742
 N164 N 0.85073 0.14946 0.33108
 C165 C 0.85718 0.16221 0.33745
 N166 N 0.85076 0.16856 0.35021
 C167 C 0.83799 0.16221 0.35662
 N168 N 0.83161 0.14947 0.35018
 C169 C 0.66261 0.35672 0.33729
 N170 N 0.66896 0.35029 0.35004
 C171 C 0.66260 0.33753 0.35647
 N172 N 0.64984 0.33117 0.35004
 C173 C 0.64341 0.33752 0.33729
 N174 N 0.64984 0.35028 0.33094
 C175 C 0.66251 0.85755 0.83785
 N176 N 0.66888 0.85111 0.85059
 C177 C 0.66251 0.83835 0.85702
 N178 N 0.64973 0.83201 0.85061
 C179 C 0.64329 0.83837 0.83787
 N180 N 0.64973 0.85113 0.83151
 C181 C 0.16220 0.35674 0.83773
 N182 N 0.16856 0.35030 0.85047
 C183 C 0.16221 0.33752 0.85687
 N184 N 0.14946 0.33115 0.85042
 C185 C 0.14304 0.33752 0.83767
 N186 N 0.14946 0.35030 0.83135
 C187 C 0.16236 0.85745 0.33769
 N188 N 0.16872 0.85103 0.35044
 C189 C 0.16236 0.83827 0.35687
 N190 N 0.14960 0.83190 0.35045
 C191 C 0.14317 0.83825 0.33770
 N192 N 0.14960 0.85101 0.33134
 O193 O 0.23049 0.98577 0.25157
 O194 O 0.25170 1.01580 0.23044
 O195 O 0.25168 0.98578 0.23042
 O196 O 0.23049 1.01580 0.25156
 O197 O 0.24846 1.01580 0.26955
 O198 O 0.26966 0.98578 0.24840
 O199 O 0.26967 1.01580 0.24843
 O200 O 0.24847 0.98578 0.26956
 Cu201 Cu 0.23928 1.00079 0.23919
 Cu202 Cu 0.26087 1.00079 0.26079
 C203 C 0.23591 0.98063 0.26414
 C204 C 0.26426 1.02095 0.23586
 C205 C 0.26425 0.98063 0.23584
 C206 C 0.23589 1.02094 0.26413
 O207 O 0.23033 0.48518 0.75183
 O208 O 0.25153 0.51515 0.73063
 O209 O 0.25151 0.48513 0.73067
 O210 O 0.23038 0.51520 0.75181
 O211 O 0.24838 0.51520 0.76977
 O212 O 0.26951 0.48513 0.74863
 O213 O 0.26954 0.51516 0.74859
 O214 O 0.24833 0.48517 0.76979
 Cu215 Cu 0.23913 0.50017 0.73943
 Cu216 Cu 0.26075 0.50017 0.76100
 C217 C 0.23575 0.48004 0.76439
 C218 C 0.26411 0.52029 0.73603
 C219 C 0.26408 0.47998 0.73608
 C220 C 0.23582 0.52036 0.76436
 O221 O 0.74841 -0.01527 0.23020
 O222 O 0.76962 0.01480 0.25130
 O223 O 0.76962 -0.01523 0.25134
 O224 O 0.74842 0.01476 0.23015
 O225 O 0.73045 0.01478 0.24814
 O226 O 0.75165 -0.01520 0.26932
 O227 O 0.75164 0.01482 0.26929
 O228 O 0.73044 -0.01524 0.24819
 Cu229 Cu 0.76082 -0.00024 0.23894
 Cu230 Cu 0.73924 -0.00021 0.26054
 C231 C 0.73585 -0.02041 0.23563
 C232 C 0.76421 0.01996 0.26386
 C233 C 0.76422 -0.02035 0.26391
 C234 C 0.73585 0.01991 0.23557
 O235 O 0.76987 0.51507 0.75176
 O236 O 0.74867 0.48509 0.73055
 O237 O 0.74868 0.51511 0.73061
 O238 O 0.76984 0.48505 0.75173
 O239 O 0.75185 0.48503 0.76970
 O240 O 0.73069 0.51509 0.74858
 O241 O 0.73068 0.48507 0.74852
 O242 O 0.75188 0.51506 0.76973
 Cu243 Cu 0.76107 0.50008 0.73936
 Cu244 Cu 0.73947 0.50006 0.76094
 C245 C 0.76445 0.52021 0.76433
 C246 C 0.73610 0.47994 0.73596
 C247 C 0.73611 0.52025 0.73603
 C248 C 0.76442 0.47989 0.76428
 O249 O 0.24843 0.48515 0.23050
 O250 O 0.26961 0.51522 0.25161
 O251 O 0.26961 0.48520 0.25167
 O252 O 0.24843 0.51517 0.23045
 O253 O 0.23043 0.51520 0.24842
 O254 O 0.25161 0.48523 0.26964
 O255 O 0.25162 0.51525 0.26958
 O256 O 0.23044 0.48518 0.24847
 Cu257 Cu 0.26083 0.50018 0.23925
 Cu258 Cu 0.23922 0.50022 0.26083
 C259 C 0.23586 0.48001 0.23592
 C260 C 0.26419 0.52039 0.26416
 C261 C 0.26418 0.48008 0.26424
 C262 C 0.23586 0.52032 0.23585
 O263 O 0.76976 0.98584 0.74844
 O264 O 0.74854 1.01588 0.76955
 O265 O 0.74858 0.98585 0.76960
 O266 O 0.76974 1.01586 0.74841
 O267 O 0.75176 1.01582 0.73042
 O268 O 0.73059 0.98581 0.75162
 O269 O 0.73056 1.01583 0.75156
 O270 O 0.75177 0.98580 0.73046
 Cu271 Cu 0.76096 1.00086 0.76080
 Cu272 Cu 0.73936 1.00081 0.73921
 C273 C 0.76434 0.98067 0.73588
 C274 C 0.73597 1.02100 0.76412
 C275 C 0.73601 0.98069 0.76419
 C276 C 0.76432 1.02098 0.73584
 O277 O 0.75187 0.51522 0.23023
 O278 O 0.73073 0.48515 0.25137
 O279 O 0.73071 0.51518 0.25141
 O280 O 0.75191 0.48519 0.23021
 O281 O 0.76991 0.48520 0.24818
 O282 O 0.74871 0.51518 0.26938
 O283 O 0.74873 0.48516 0.26933
 O284 O 0.76987 0.51523 0.24819
 Cu285 Cu 0.73950 0.50019 0.23900
 Cu286 Cu 0.76111 0.50019 0.26057
 C287 C 0.76443 0.52038 0.23564
 C288 C 0.73616 0.48000 0.26392
 C289 C 0.73613 0.52032 0.26397
 C290 C 0.76449 0.48006 0.23562
 O291 O 0.24848 -0.01555 0.73051
 O292 O 0.26967 0.01449 0.75166
 O293 O 0.26969 -0.01554 0.75164
 O294 O 0.24848 0.01447 0.73051
 O295 O 0.23050 0.01446 0.74849
 O296 O 0.25172 -0.01556 0.76963
 O297 O 0.25170 0.01447 0.76965
 O298 O 0.23051 -0.01556 0.74850
 Cu299 Cu 0.26089 -0.00053 0.73927
 Cu300 Cu 0.23930 -0.00055 0.76087
 C301 C 0.23591 -0.02070 0.73593
 C302 C 0.26426 0.01962 0.76422
 C303 C 0.26429 -0.02069 0.76420
 C304 C 0.23591 0.01961 0.73593
 O305 O 0.24841 0.26944 0.98505
 O306 O 0.26962 0.24832 1.01506
 O307 O 0.26961 0.24827 0.98507
 O308 O 0.24841 0.26947 1.01504
 O309 O 0.23044 0.25146 1.01506
 O310 O 0.25164 0.23026 0.98509
 O311 O 0.25165 0.23031 1.01509
 O312 O 0.23044 0.25142 0.98507
 Cu313 Cu 0.26082 0.26069 1.00005
 Cu314 Cu 0.23924 0.23905 1.00008
 C315 C 0.23584 0.26400 0.97992
 C316 C 0.26421 0.23575 1.02022
 C317 C 0.26420 0.23569 0.97995
 C318 C 0.23585 0.26404 1.02019
 O319 O 0.23045 0.75194 0.51500
 O320 O 0.25165 0.73083 0.48497
 O321 O 0.25164 0.73077 0.51496
 O322 O 0.23046 0.75201 0.48500
 O323 O 0.24845 0.77001 0.48505
 O324 O 0.26963 0.74877 0.51500
 O325 O 0.26964 0.74883 0.48501
 O326 O 0.24844 0.76994 0.51504
 Cu327 Cu 0.23924 0.73958 0.49998
 Cu328 Cu 0.26084 0.76120 0.50003
 C329 C 0.23587 0.76451 0.52017
 C330 C 0.26422 0.73627 0.47985
 C331 C 0.26421 0.73619 0.52011
 C332 C 0.23588 0.76459 0.47989
 O333 O 0.26991 0.75185 -0.01504
 O334 O 0.24870 0.73070 0.01496
 O335 O 0.24875 0.73063 -0.01503
 O336 O 0.26986 0.75191 0.01495
 O337 O 0.25186 0.76988 0.01489
 O338 O 0.23074 0.74860 -0.01510
 O339 O 0.23069 0.74867 0.01490
 O340 O 0.25190 0.76982 -0.01510
 Cu341 Cu 0.26112 0.73947 -0.00003
 Cu342 Cu 0.23949 0.76105 -0.00011
 C343 C 0.26448 0.76440 -0.02021
 C344 C 0.23611 0.73612 0.02007
 C345 C 0.23619 0.73603 -0.02020
 C346 C 0.26442 0.76448 0.02006
 O347 O 0.25147 0.26942 0.51515
 O348 O 0.23032 0.24831 0.48509
 O349 O 0.23031 0.24822 0.51508
 O350 O 0.25150 0.26949 0.48516
 O351 O 0.26950 0.25151 0.48513
 O352 O 0.24830 0.23024 0.51505
 O353 O 0.24832 0.23032 0.48505
 O354 O 0.26947 0.25144 0.51512
 Cu355 Cu 0.23909 0.26067 0.50012
 Cu356 Cu 0.26070 0.23907 0.50009
 C357 C 0.26404 0.26400 0.52029
 C358 C 0.23575 0.23575 0.47992
 C359 C 0.23573 0.23564 0.52019
 C360 C 0.26408 0.26409 0.48002
 O361 O 0.73046 0.75185 1.01508
 O362 O 0.75167 0.73071 0.98507
 O363 O 0.75161 0.73064 1.01506
 O364 O 0.73051 0.75192 0.98508
 O365 O 0.74852 0.76989 0.98516
 O366 O 0.76962 0.74861 1.01514
 O367 O 0.76968 0.74869 0.98515
 O368 O 0.74847 0.76982 1.01515
 Cu369 Cu 0.73925 0.73948 1.00006
 Cu370 Cu 0.76088 0.76106 1.00016
 C371 C 0.73589 0.76440 1.02025
 C372 C 0.76426 0.73613 0.97997
 C373 C 0.76418 0.73603 1.02024
 C374 C 0.73595 0.76450 0.97998
 O375 O 0.73068 0.25158 0.51479
 O376 O 0.75188 0.23037 0.48483
 O377 O 0.75186 0.23040 0.51483
 O378 O 0.73070 0.25154 0.48480
 O379 O 0.74868 0.26954 0.48479
 O380 O 0.76985 0.24840 0.51483
 O381 O 0.76987 0.24837 0.48483
 O382 O 0.74867 0.26958 0.51479
 Cu383 Cu 0.73947 0.23916 0.49981
 Cu384 Cu 0.76108 0.26078 0.49981
 C385 C 0.73609 0.26416 0.51992
 C386 C 0.76446 0.23579 0.47970
 C387 C 0.76443 0.23583 0.51997
 C388 C 0.73612 0.26411 0.47965
 O389 O 0.76957 0.25180 -0.01522
 O390 O 0.74841 0.23055 0.01474
 O391 O 0.74840 0.23061 -0.01525
 O392 O 0.76961 0.25172 0.01477
 O393 O 0.75163 0.26971 0.01483
 O394 O 0.73041 0.24860 -0.01520
 O395 O 0.73043 0.24854 0.01479
 O396 O 0.75159 0.26979 -0.01516
 Cu397 Cu 0.76081 0.23936 -0.00025
 Cu398 Cu 0.73921 0.26097 -0.00018
 C399 C 0.76415 0.26439 -0.02032
 C400 C 0.73585 0.23596 0.01989
 C401 C 0.73583 0.23604 -0.02037
 C402 C 0.76420 0.26428 0.01994
 O403 O 0.75188 0.76983 0.51516
 O404 O 0.73070 0.74860 0.48520
 O405 O 0.73069 0.74865 0.51519
 O406 O 0.75190 0.76977 0.48517
 O407 O 0.76988 0.75176 0.48522
 O408 O 0.74867 0.73065 0.51523
 O409 O 0.74868 0.73060 0.48524
 O410 O 0.76986 0.75184 0.51521
 Cu411 Cu 0.73949 0.76102 0.50018
 Cu412 Cu 0.76108 0.73940 0.50023
 C413 C 0.76444 0.76442 0.52032
 C414 C 0.73611 0.73602 0.48008
 C415 C 0.73610 0.73609 0.52035
 C416 C 0.76447 0.76433 0.48005
 O417 O 1.01560 0.23035 0.25146
 O418 O 0.98556 0.25151 0.23030
 O419 O 1.01558 0.25153 0.23030
 O420 O 0.98558 0.23033 0.25146
 O421 O 0.98557 0.24832 0.26943
 O422 O 1.01557 0.26953 0.24827
 O423 O 0.98555 0.26950 0.24827
 O424 O 1.01559 0.24835 0.26943
 Cu425 Cu 1.00058 0.23912 0.23907
 Cu426 Cu 1.00057 0.26073 0.26065
 C427 C 1.02074 0.23578 0.26401
 C428 C 0.98041 0.26407 0.23571
 C429 C 1.02072 0.26411 0.23571
 C430 C 0.98043 0.23575 0.26402
 O431 O 0.48520 0.25135 0.73053
 O432 O 0.51530 0.23021 0.75162
 O433 O 0.48527 0.23017 0.75169
 O434 O 0.51522 0.25139 0.73046
 O435 O 0.51524 0.26938 0.74844
 O436 O 0.48529 0.24816 0.76966
 O437 O 0.51532 0.24820 0.76960
 O438 O 0.48522 0.26935 0.74851
 Cu439 Cu 0.50024 0.23897 0.73927
 Cu440 Cu 0.50027 0.26058 0.76086
 C441 C 0.48005 0.26392 0.73596
 C442 C 0.52046 0.23563 0.76417
 C443 C 0.48015 0.23558 0.76426
 C444 C 0.52036 0.26396 0.73586
 O445 O -0.01521 0.26945 0.75136
 O446 O 0.01477 0.24816 0.73024
 O447 O -0.01525 0.24823 0.73022
 O448 O 0.01482 0.26937 0.75138
 O449 O 0.01476 0.25140 0.76937
 O450 O -0.01530 0.23026 0.74822
 O451 O 0.01472 0.23019 0.74823
 O452 O -0.01526 0.25148 0.76935
 Cu453 Cu -0.00021 0.26061 0.73899
 Cu454 Cu -0.00028 0.23903 0.76060
 C455 C -0.02037 0.26406 0.76392
 C456 C 0.01988 0.23559 0.73567
 C457 C -0.02043 0.23568 0.73565
 C458 C 0.01994 0.26396 0.76395
 O459 O 0.48486 0.26947 0.25149
 O460 O 0.51479 0.24827 0.23023
 O461 O 0.48477 0.24830 0.23031
 O462 O 0.51489 0.26944 0.25140
 O463 O 0.51491 0.25144 0.26936
 O464 O 0.48480 0.23030 0.24827
 O465 O 0.51482 0.23027 0.24819
 O466 O 0.48489 0.25147 0.26945
 Cu467 Cu 0.49983 0.26068 0.23905
 Cu468 Cu 0.49986 0.23906 0.26062
 C469 C 0.47975 0.26405 0.26406
 C470 C 0.51994 0.23569 0.23562
 C471 C 0.47962 0.23574 0.23573
 C472 C 0.52006 0.26401 0.26394
 O473 O 1.01552 0.76995 0.74840
 O474 O 0.98548 0.74880 0.76956
 O475 O 1.01550 0.74874 0.76953
 O476 O 0.98550 0.77000 0.74842
 O477 O 0.98545 0.75203 0.73043
 O478 O 1.01545 0.73077 0.75154
 O479 O 0.98543 0.73083 0.75157
 O480 O 1.01547 0.75198 0.73041
 Cu481 Cu 1.00051 0.76118 0.76078
 Cu482 Cu 1.00044 0.73959 0.73918
 C483 C 1.02065 0.76453 0.73583
 C484 C 0.98031 0.73624 0.76413
 C485 C 1.02061 0.73617 0.76410
 C486 C 0.98034 0.76460 0.73586
 O487 O 0.48539 0.75223 0.23031
 O488 O 0.51536 0.73101 0.25150
 O489 O 0.48534 0.73105 0.25147
 O490 O 0.51541 0.75219 0.23034
 O491 O 0.51542 0.77018 0.24832
 O492 O 0.48535 0.74904 0.26944
 O493 O 0.51537 0.74900 0.26948
 O494 O 0.48540 0.77022 0.24828
 Cu495 Cu 0.50037 0.73981 0.23910
 Cu496 Cu 0.50039 0.76142 0.26068
 C497 C 0.48026 0.76481 0.23572
 C498 C 0.52050 0.73642 0.26407
 C499 C 0.48019 0.73647 0.26402
 C500 C 0.52057 0.76475 0.23576
 O501 O -0.01516 0.76983 0.25174
 O502 O 0.01488 0.74872 0.23054
 O503 O -0.01514 0.74865 0.23058
 O504 O 0.01487 0.76990 0.25171
 O505 O 0.01492 0.75190 0.26968
 O506 O -0.01509 0.73066 0.24855
 O507 O 0.01493 0.73072 0.24850
 O508 O -0.01510 0.75184 0.26971
 Cu509 Cu -0.00014 0.76108 0.23934
 Cu510 Cu -0.00008 0.73947 0.26091
 C511 C -0.02027 0.76440 0.26431
 C512 C 0.02005 0.73615 0.23594
 C513 C -0.02026 0.73607 0.23599
 C514 C 0.02004 0.76448 0.26426
 O515 O 0.48494 0.77013 0.75178
 O516 O 0.51502 0.74897 0.73068
 O517 O 0.48500 0.74893 0.73063
 O518 O 0.51496 0.77017 0.75183
 O519 O 0.51496 0.75219 0.76981
 O520 O 0.48498 0.73096 0.74861
 O521 O 0.51500 0.73099 0.74867
 O522 O 0.48493 0.75216 0.76976
 Cu523 Cu 0.49998 0.76136 0.73942
 Cu524 Cu 0.49997 0.73977 0.76102
 C525 C 0.47978 0.76471 0.76433
 C526 C 0.52016 0.73640 0.73611
 C527 C 0.47986 0.73636 0.73604
 C528 C 0.52009 0.76476 0.76439
 C529 C 0.39514 0.31711 0.31722
 N530 N 0.38888 0.31105 0.33019
 N531 N 0.37676 0.31770 0.33684
 C532 C 0.37047 0.33066 0.33078
 N533 N 0.37676 0.33675 0.31784
 N534 N 0.38888 0.33010 0.31119
 C535 C 0.40826 0.30958 0.30968
 N536 N 0.41433 0.31548 0.29655
 N537 N 0.42602 0.30847 0.28952
 C538 C 0.43207 0.29529 0.29536
 N539 N 0.42603 0.28941 0.30852
 N540 N 0.41434 0.29643 0.31555
 C541 C 0.44472 0.28736 0.28742
 N542 N 0.45057 0.27403 0.29310
 N543 N 0.46182 0.26666 0.28572
 C544 C 0.46762 0.27236 0.27238
 N545 N 0.46180 0.28572 0.26672
 N546 N 0.45055 0.29308 0.27410
 C547 C 0.39470 0.81750 0.81703
 N548 N 0.38837 0.83042 0.81093
 N549 N 0.37619 0.83701 0.81752
 C550 C 0.36988 0.83093 0.83047
 N551 N 0.37627 0.81804 0.83660
 N552 N 0.38845 0.81144 0.83000
 C553 C 0.40789 0.81001 0.80955
 N554 N 0.41403 0.79692 0.81549
 N555 N 0.42579 0.78995 0.80852
 C556 C 0.43183 0.79582 0.79537
 N557 N 0.42573 0.80894 0.78946
 N558 N 0.41397 0.81591 0.79642
 C559 C 0.44455 0.78793 0.78749
 N560 N 0.45042 0.79364 0.77419
 N561 N 0.46173 0.78631 0.76687
 C562 C 0.46758 0.77299 0.77259
 N563 N 0.46175 0.76730 0.78592
 N564 N 0.45044 0.77464 0.79324
 C565 C -0.10507 0.31730 0.81674
 N566 N -0.11135 0.33026 0.81066
 N567 N -0.12347 0.33692 0.81728
 C568 C -0.12976 0.33087 0.83024
 N569 N -0.12346 0.31794 0.83635
 N570 N -0.11134 0.31128 0.82973
 C571 C -0.09194 0.30974 0.80924
 N572 N -0.08586 0.29662 0.81517
 N573 N -0.07416 0.28958 0.80818
 C574 C -0.06811 0.29541 0.79501
 N575 N -0.07415 0.30856 0.78911
 N576 N -0.08585 0.31560 0.79610
 C577 C -0.05545 0.28745 0.78712
 N578 N -0.04958 0.29313 0.77380
 N579 N -0.03832 0.28573 0.76647
 C580 C -0.03252 0.27239 0.77219
 N581 N -0.03835 0.26674 0.78553
 N582 N -0.04961 0.27413 0.79286
 C583 C -0.10520 0.81719 0.31725
 N584 N -0.11150 0.83014 0.31118
 N585 N -0.12365 0.83676 0.31780
 C586 C -0.12997 0.83067 0.33074
 N587 N -0.12360 0.81775 0.33684
 N588 N -0.11145 0.81113 0.33022
 C589 C -0.09203 0.80969 0.30974
 N590 N -0.08591 0.79658 0.31564
 N591 N -0.07418 0.78960 0.30864
 C592 C -0.06814 0.79548 0.29549
 N593 N -0.07422 0.80863 0.28962
 N594 N -0.08595 0.81561 0.29662
 C595 C -0.05544 0.78759 0.28758
 N596 N -0.04960 0.79333 0.27427
 N597 N -0.03831 0.78600 0.26692
 C598 C -0.03245 0.77267 0.27260
 N599 N -0.03826 0.76696 0.28593
 N600 N -0.04955 0.77429 0.29329
 C601 C 0.60516 0.68329 0.31708
 N602 N 0.61142 0.67031 0.31102
 N603 N 0.62353 0.66365 0.31767
 C604 C 0.62983 0.66972 0.33061
 N605 N 0.62354 0.68267 0.33670
 N606 N 0.61142 0.68933 0.33006
 C607 C 0.59203 0.69084 0.30956
 N608 N 0.58596 0.70398 0.31545
 N609 N 0.57426 0.71101 0.30844
 C610 C 0.56822 0.70515 0.29528
 N611 N 0.57426 0.69198 0.28941
 N612 N 0.58595 0.68495 0.29642
 C613 C 0.55556 0.71309 0.28736
 N614 N 0.54971 0.70738 0.27404
 N615 N 0.53845 0.71476 0.26668
 C616 C 0.53264 0.72811 0.27237
 N617 N 0.53846 0.73379 0.28571
 N618 N 0.54972 0.72642 0.29307
 C619 C 0.60559 0.18290 0.81684
 N620 N 0.61185 0.18896 0.82981
 N621 N 0.62402 0.18237 0.83641
 C622 C 0.63041 0.16947 0.83028
 N623 N 0.62410 0.16338 0.81734
 N624 N 0.61192 0.16997 0.81074
 C625 C 0.59239 0.19037 0.80936
 N626 N 0.58630 0.18447 0.79624
 N627 N 0.57454 0.19143 0.78928
 C628 C 0.56844 0.20456 0.79519
 N629 N 0.57450 0.21044 0.80834
 N630 N 0.58626 0.20347 0.81530
 C631 C 0.55572 0.21244 0.78732
 N632 N 0.54983 0.22573 0.79306
 N633 N 0.53851 0.23306 0.78574
 C634 C 0.53267 0.22736 0.77242
 N635 N 0.53852 0.21404 0.76670
 N636 N 0.54984 0.20671 0.77402
 C637 C 1.10541 0.68301 0.81687
 N638 N 1.11169 0.67005 0.81078
 N639 N 1.12382 0.66340 0.81740
 C640 C 1.13013 0.66946 0.83034
 N641 N 1.12382 0.68239 0.83646
 N642 N 1.11169 0.68904 0.82984
 C643 C 1.09227 0.69055 0.80937
 N644 N 1.08619 0.70368 0.81530
 N645 N 1.07447 0.71070 0.80833
 C646 C 1.06841 0.70486 0.79516
 N647 N 1.07445 0.69171 0.78926
 N648 N 1.08617 0.68468 0.79624
 C649 C 1.05573 0.71281 0.78728
 N650 N 1.04985 0.70712 0.77397
 N651 N 1.03858 0.71450 0.76664
 C652 C 1.03277 0.72784 0.77236
 N653 N 1.03862 0.73351 0.78570
 N654 N 1.04989 0.72612 0.79302
 C655 C 1.10571 0.18295 0.31686
 N656 N 1.11195 0.18899 0.32984
 N657 N 1.12411 0.18238 0.33646
 C658 C 1.13049 0.16947 0.33034
 N659 N 1.12418 0.16340 0.31738
 N660 N 1.11203 0.17002 0.31077
 C661 C 1.09253 0.19044 0.30936
 N662 N 1.08646 0.18455 0.29623
 N663 N 1.07472 0.19153 0.28924
 C664 C 1.06863 0.20466 0.29514
 N665 N 1.07467 0.21053 0.30830
 N666 N 1.08641 0.20355 0.31528
 C667 C 1.05593 0.21256 0.28724
 N668 N 1.05004 0.22586 0.29297
 N669 N 1.03875 0.23320 0.28563
 C670 C 1.03293 0.22750 0.27229
 N671 N 1.03878 0.21417 0.26659
 N672 N 1.05007 0.20684 0.27393
 C673 C 0.60506 0.31701 0.68281
 N674 N 0.61132 0.31096 0.66984
 N675 N 0.62344 0.31761 0.66320
 C676 C 0.62975 0.33056 0.66928
 N677 N 0.62345 0.33664 0.68222
 N678 N 0.61133 0.32999 0.68886
 C679 C 0.59192 0.30948 0.69034
 N680 N 0.58585 0.31538 0.70347
 N681 N 0.57414 0.30837 0.71048
 C682 C 0.56809 0.29520 0.70462
 N683 N 0.57413 0.28933 0.69146
 N684 N 0.58583 0.29634 0.68445
 C685 C 0.55543 0.28727 0.71255
 N686 N 0.54957 0.27395 0.70684
 N687 N 0.53831 0.26658 0.71421
 C688 C 0.53250 0.27227 0.72755
 N689 N 0.53833 0.28562 0.73323
 N690 N 0.54959 0.29299 0.72586
 C691 C 0.60562 0.81752 0.18299
 N692 N 0.61194 0.83046 0.18907
 N693 N 0.62411 0.83706 0.18247
 C694 C 0.63043 0.83097 0.16953
 N695 N 0.62405 0.81806 0.16341
 N696 N 0.61188 0.81146 0.17002
 C697 C 0.59244 0.81004 0.19048
 N698 N 0.58631 0.79693 0.18456
 N699 N 0.57456 0.78996 0.19153
 C700 C 0.56851 0.79584 0.20468
 N701 N 0.57460 0.80898 0.21057
 N702 N 0.58635 0.81595 0.20360
 C703 C 0.55580 0.78795 0.21257
 N704 N 0.54993 0.79368 0.22587
 N705 N 0.53863 0.78635 0.23320
 C706 C 0.53277 0.77303 0.22750
 N707 N 0.53859 0.76732 0.21417
 N708 N 0.54990 0.77465 0.20684
 C709 C 1.10557 0.31711 0.18285
 N710 N 1.11184 0.31105 0.16989
 N711 N 1.12399 0.31769 0.16327
 C712 C 1.13032 0.33063 0.16936
 N713 N 1.12399 0.33672 0.18230
 N714 N 1.11185 0.33008 0.18891
 C715 C 1.09241 0.30959 0.19035
 N716 N 1.08632 0.31549 0.20347
 N717 N 1.07460 0.30848 0.21046
 C718 C 1.06854 0.29532 0.20458
 N719 N 1.07460 0.28945 0.19143
 N720 N 1.08632 0.29645 0.18444
 C721 C 1.05586 0.28740 0.21248
 N722 N 1.05000 0.27408 0.20676
 N723 N 1.03872 0.26672 0.21410
 C724 C 1.03289 0.27241 0.22743
 N725 N 1.03871 0.28576 0.23312
 N726 N 1.04999 0.29312 0.22578
 C727 C 1.10565 0.81736 0.68303
 N728 N 1.11190 0.81131 0.67005
 N729 N 1.12406 0.81792 0.66345
 C730 C 1.13045 0.83082 0.66958
 N731 N 1.12414 0.83690 0.68253
 N732 N 1.11198 0.83028 0.68913
 C733 C 1.09247 0.80986 0.69052
 N734 N 1.08640 0.81575 0.70365
 N735 N 1.07465 0.80877 0.71063
 C736 C 1.06855 0.79565 0.70473
 N737 N 1.07459 0.78978 0.69157
 N738 N 1.08633 0.79676 0.68459
 C739 C 1.05585 0.78775 0.71262
 N740 N 1.04994 0.77446 0.70688
 N741 N 1.03864 0.76712 0.71421
 C742 C 1.03283 0.77281 0.72755
 N743 N 1.03870 0.78613 0.73327
 N744 N 1.05000 0.79347 0.72593
 C745 C 0.39516 0.68326 0.68301
 N746 N 0.38890 0.68931 0.67004
 N747 N 0.37678 0.68265 0.66339
 C748 C 0.37047 0.66970 0.66948
 N749 N 0.37677 0.66363 0.68242
 N750 N 0.38889 0.67028 0.68907
 C751 C 0.40829 0.69080 0.69054
 N752 N 0.41437 0.68491 0.70367
 N753 N 0.42607 0.69193 0.71069
 C754 C 0.43212 0.70510 0.70482
 N755 N 0.42608 0.71095 0.69166
 N756 N 0.41438 0.70393 0.68465
 C757 C 0.44478 0.71303 0.71275
 N758 N 0.45064 0.72635 0.70704
 N759 N 0.46190 0.73373 0.71440
 C760 C 0.46771 0.72805 0.72774
 N761 N 0.46189 0.71470 0.73343
 N762 N 0.45063 0.70733 0.72606
 C763 C 0.39451 0.18294 0.18305
 N764 N 0.38819 0.17001 0.18914
 N765 N 0.37602 0.16339 0.18255
 C766 C 0.36970 0.16947 0.16960
 N767 N 0.37608 0.18237 0.16347
 N768 N 0.38825 0.18899 0.17008
 C769 C 0.40770 0.19043 0.19052
 N770 N 0.41383 0.20354 0.18459
 N771 N 0.42558 0.21052 0.19156
 C772 C 0.43164 0.20464 0.20471
 N773 N 0.42555 0.19151 0.21061
 N774 N 0.41380 0.18453 0.20364
 C775 C 0.44436 0.21253 0.21258
 N776 N 0.45025 0.20681 0.22587
 N777 N 0.46157 0.21414 0.23319
 C778 C 0.46741 0.22746 0.22748
 N779 N 0.46157 0.23317 0.21416
 N780 N 0.45025 0.22583 0.20684
 C781 C -0.10507 0.68297 0.18316
 N782 N -0.11135 0.67000 0.18923
 N783 N -0.12349 0.66336 0.18261
 C784 C -0.12979 0.66943 0.16967
 N785 N -0.12348 0.68236 0.16356
 N786 N -0.11134 0.68901 0.17018
 C787 C -0.09192 0.69050 0.19066
 N788 N -0.08584 0.70363 0.18475
 N789 N -0.07412 0.71065 0.19173
 C790 C -0.06806 0.70480 0.20489
 N791 N -0.07411 0.69164 0.21077
 N792 N -0.08583 0.68462 0.20379
 C793 C -0.05538 0.71274 0.21278
 N794 N -0.04951 0.70703 0.22609
 N795 N -0.03823 0.71441 0.23342
 C796 C -0.03242 0.72775 0.22772
 N797 N -0.03826 0.73343 0.21439
 N798 N -0.04954 0.72606 0.20706
 C799 C -0.10547 0.18288 0.68286
 N800 N -0.11180 0.16995 0.68896
 N801 N -0.12397 0.16335 0.68236
 C802 C -0.13028 0.16942 0.66940
 N803 N -0.12389 0.18232 0.66328
 N804 N -0.11172 0.18892 0.66988
 C805 C -0.09228 0.19037 0.69035
 N806 N -0.08614 0.20346 0.68441
 N807 N -0.07439 0.21044 0.69139
 C808 C -0.06835 0.20458 0.70455
 N809 N -0.07446 0.19145 0.71045
 N810 N -0.08621 0.18448 0.70348
 C811 C -0.05564 0.21247 0.71244
 N812 N -0.04980 0.20676 0.72575
 N813 N -0.03849 0.21409 0.73309
 C814 C -0.03262 0.22740 0.72738
 N815 N -0.03843 0.23309 0.71404
 N816 N -0.04973 0.22576 0.70670
 C817 C 0.31711 0.39531 0.31729
 N818 N 0.31104 0.38905 0.33026
 N819 N 0.31767 0.37691 0.33690
 C820 C 0.33061 0.37060 0.33081
 N821 N 0.33671 0.37689 0.31788
 N822 N 0.33008 0.38903 0.31124
 C823 C 0.30960 0.40846 0.30977
 N824 N 0.31551 0.41453 0.29664
 N825 N 0.30851 0.42625 0.28963
 C826 C 0.29535 0.43231 0.29549
 N827 N 0.28947 0.42627 0.30864
 N828 N 0.29646 0.41456 0.31565
 C829 C 0.28744 0.44498 0.28756
 N830 N 0.27412 0.45086 0.29326
 N831 N 0.26677 0.46212 0.28589
 C832 C 0.27247 0.46793 0.27255
 N833 N 0.28582 0.46209 0.26688
 N834 N 0.29317 0.45082 0.27425
 C835 C 0.31738 -0.10553 0.81697
 N836 N 0.33033 -0.11181 0.81088
 N837 N 0.33698 -0.12395 0.81749
 C838 C 0.33093 -0.13028 0.83044
 N839 N 0.31800 -0.12394 0.83656
 N840 N 0.31135 -0.11180 0.82995
 C841 C 0.30985 -0.09237 0.80948
 N842 N 0.29673 -0.08629 0.81541
 N843 N 0.28971 -0.07457 0.80844
 C844 C 0.29555 -0.06851 0.79528
 N845 N 0.30870 -0.07456 0.78937
 N846 N 0.31572 -0.08628 0.79635
 C847 C 0.28761 -0.05583 0.78739
 N848 N 0.29331 -0.04996 0.77408
 N849 N 0.28594 -0.03868 0.76675
 C850 C 0.27260 -0.03286 0.77246
 N851 N 0.26693 -0.03869 0.78580
 N852 N 0.27431 -0.04997 0.79313
 C853 C 0.81723 0.39489 0.81709
 N854 N 0.83018 0.38859 0.81101
 N855 N 0.83679 0.37643 0.81763
 C856 C 0.83069 0.37011 0.83056
 N857 N 0.81777 0.37647 0.83666
 N858 N 0.81116 0.38863 0.83005
 C859 C 0.80974 0.40807 0.80959
 N860 N 0.79662 0.41419 0.81550
 N861 N 0.78964 0.42593 0.80852
 C862 C 0.79553 0.43198 0.79537
 N863 N 0.80867 0.42590 0.78949
 N864 N 0.81565 0.41416 0.79647
 C865 C 0.78763 0.44469 0.78748
 N866 N 0.79336 0.45056 0.77418
 N867 N 0.78603 0.46186 0.76685
 C868 C 0.77270 0.46770 0.77255
 N869 N 0.76699 0.46187 0.78587
 N870 N 0.77433 0.45057 0.79321
 C871 C 0.81729 -0.10507 0.31689
 N872 N 0.83024 -0.11136 0.31081
 N873 N 0.83689 -0.12349 0.31745
 C874 C 0.83083 -0.12976 0.33041
 N875 N 0.81790 -0.12344 0.33651
 N876 N 0.81126 -0.11132 0.32987
 C877 C 0.80975 -0.09194 0.30936
 N878 N 0.79663 -0.08584 0.31527
 N879 N 0.78961 -0.07413 0.30827
 C880 C 0.79546 -0.06810 0.29510
 N881 N 0.80861 -0.07417 0.28921
 N882 N 0.81563 -0.08587 0.29622
 C883 C 0.78753 -0.05544 0.28718
 N884 N 0.79323 -0.04960 0.27386
 N885 N 0.78586 -0.03834 0.26650
 C886 C 0.77252 -0.03250 0.27220
 N887 N 0.76685 -0.03831 0.28555
 N888 N 0.77422 -0.04957 0.29290
 C889 C 0.31707 0.60506 0.68300
 N890 N 0.31101 0.61132 0.67003
 N891 N 0.31764 0.62345 0.66339
 C892 C 0.33059 0.62977 0.66947
 N893 N 0.33668 0.62348 0.68241
 N894 N 0.33005 0.61135 0.68905
 C895 C 0.30956 0.59192 0.69052
 N896 N 0.31547 0.58584 0.70365
 N897 N 0.30847 0.57413 0.71066
 C898 C 0.29530 0.56806 0.70480
 N899 N 0.28942 0.57410 0.69165
 N900 N 0.29642 0.58582 0.68464
 C901 C 0.28739 0.55539 0.71273
 N902 N 0.27406 0.54953 0.70703
 N903 N 0.26671 0.53826 0.71439
 C904 C 0.27241 0.53245 0.72772
 N905 N 0.28576 0.53828 0.73340
 N906 N 0.29312 0.54955 0.72603
 C907 C 0.31728 1.10585 0.18309
 N908 N 0.31125 1.11210 0.17011
 N909 N 0.31788 1.12425 0.16350
 C910 C 0.33080 1.13062 0.16963
 N911 N 0.33686 1.12430 0.18258
 N912 N 0.33023 1.11215 0.18919
 C913 C 0.30976 1.09268 0.19058
 N914 N 0.31564 1.08660 0.20372
 N915 N 0.30863 1.07487 0.21069
 C916 C 0.29549 1.06879 0.20479
 N917 N 0.28964 1.07484 0.19162
 N918 N 0.29665 1.08657 0.18465
 C919 C 0.28756 1.05611 0.21267
 N920 N 0.27426 1.05023 0.20693
 N921 N 0.26689 1.03895 0.21426
 C922 C 0.27257 1.03312 0.22760
 N923 N 0.28590 1.03895 0.23331
 N924 N 0.29326 1.05024 0.22598
 C925 C 0.81718 0.60542 0.18282
 N926 N 0.81110 0.61169 0.16987
 N927 N 0.81770 0.62386 0.16325
 C928 C 0.83063 0.63021 0.16934
 N929 N 0.83674 0.62388 0.18227
 N930 N 0.83013 0.61172 0.18888
 C931 C 0.80969 0.59223 0.19031
 N932 N 0.81562 0.58614 0.20342
 N933 N 0.80865 0.57439 0.21040
 C934 C 0.79550 0.56831 0.20453
 N935 N 0.78960 0.57437 0.19139
 N936 N 0.79657 0.58612 0.18441
 C937 C 0.78762 0.55560 0.21243
 N938 N 0.77431 0.54971 0.20671
 N939 N 0.76698 0.53840 0.21405
 C940 C 0.77270 0.53257 0.22737
 N941 N 0.78603 0.53843 0.23306
 N942 N 0.79336 0.54973 0.22572
 C943 C 0.81728 1.10584 0.68293
 N944 N 0.81124 1.11209 0.66995
 N945 N 0.81787 1.12423 0.66333
 C946 C 0.83080 1.13059 0.66944
 N947 N 0.83686 1.12428 0.68239
 N948 N 0.83023 1.11214 0.68901
 C949 C 0.80976 1.09268 0.69044
 N950 N 0.81565 1.08661 0.70357
 N951 N 0.80865 1.07489 0.71056
 C952 C 0.79550 1.06881 0.70468
 N953 N 0.78964 1.07485 0.69151
 N954 N 0.79664 1.08657 0.68452
 C955 C 0.78759 1.05613 0.71258
 N956 N 0.77428 1.05024 0.70686
 N957 N 0.76693 1.03896 0.71421
 C958 C 0.77262 1.03315 0.72755
 N959 N 0.78595 1.03900 0.73325
 N960 N 0.79330 1.05028 0.72590
 C961 C 0.68319 0.60507 0.31705
 N962 N 0.68925 0.61131 0.33003
 N963 N 0.68262 0.62344 0.33668
 C964 C 0.66968 0.62977 0.33060
 N965 N 0.66359 0.62349 0.31765
 N966 N 0.67022 0.61136 0.31100
 C967 C 0.69070 0.59192 0.30951
 N968 N 0.68479 0.58586 0.29638
 N969 N 0.69179 0.57415 0.28936
 C970 C 0.70495 0.56808 0.29522
 N971 N 0.71083 0.57411 0.30838
 N972 N 0.70383 0.58582 0.31540
 C973 C 0.71286 0.55541 0.28729
 N974 N 0.72618 0.54954 0.29299
 N975 N 0.73353 0.53828 0.28562
 C976 C 0.72783 0.53247 0.27228
 N977 N 0.71449 0.53830 0.26660
 N978 N 0.70714 0.54957 0.27397
 C979 C 0.68290 1.10591 0.81682
 N980 N 0.66995 1.11219 0.81073
 N981 N 0.66331 1.12434 0.81733
 C982 C 0.66937 1.13068 0.83027
 N983 N 0.68229 1.12434 0.83640
 N984 N 0.68893 1.11219 0.82979
 C985 C 0.69043 1.09275 0.80934
 N986 N 0.70355 1.08666 0.81527
 N987 N 0.71057 1.07494 0.80831
 C988 C 0.70472 1.06886 0.79515
 N989 N 0.69157 1.07491 0.78925
 N990 N 0.68456 1.08664 0.79621
 C991 C 0.71265 1.05617 0.78728
 N992 N 0.70695 1.05028 0.77397
 N993 N 0.71432 1.03899 0.76666
 C994 C 0.72766 1.03318 0.77237
 N995 N 0.73333 1.03903 0.78570
 N996 N 0.72596 1.05032 0.79302
 C997 C 0.18312 0.60543 0.81718
 N998 N 0.18920 0.61170 0.83013
 N999 N 0.18260 0.62387 0.83674
 C1000 C 0.16968 0.63023 0.83065
 N1001 N 0.16357 0.62390 0.81772
 N1002 N 0.17017 0.61173 0.81111
 C1003 C 0.19060 0.59224 0.80968
 N1004 N 0.18467 0.58614 0.79657
 N1005 N 0.19163 0.57439 0.78959
 C1006 C 0.20478 0.56830 0.79547
 N1007 N 0.21067 0.57437 0.80860
 N1008 N 0.20371 0.58612 0.81558
 C1009 C 0.21265 0.55559 0.78757
 N1010 N 0.22595 0.54970 0.79329
 N1011 N 0.23327 0.53839 0.78595
 C1012 C 0.22755 0.53255 0.77264
 N1013 N 0.21422 0.53841 0.76695
 N1014 N 0.20690 0.54972 0.77428
 C1015 C 0.18288 1.10585 0.31690
 N1016 N 0.18891 1.11210 0.32988
 N1017 N 0.18228 1.12425 0.33649
 C1018 C 0.16937 1.13062 0.33036
 N1019 N 0.16332 1.12430 0.31740
 N1020 N 0.16995 1.11215 0.31079
 C1021 C 0.19041 1.09268 0.30941
 N1022 N 0.18453 1.08659 0.29627
 N1023 N 0.19154 1.07486 0.28930
 C1024 C 0.20468 1.06879 0.29521
 N1025 N 0.21052 1.07484 0.30837
 N1026 N 0.20351 1.08657 0.31535
 C1027 C 0.21260 1.05610 0.28732
 N1028 N 0.22590 1.05023 0.29307
 N1029 N 0.23326 1.03895 0.28574
 C1030 C 0.22759 1.03312 0.27240
 N1031 N 0.21426 1.03895 0.26668
 N1032 N 0.20690 1.05023 0.27401
 C1033 C 0.68315 0.39518 0.68286
 N1034 N 0.67018 0.38890 0.68890
 N1035 N 0.66354 0.37677 0.68225
 C1036 C 0.66964 0.37048 0.66931
 N1037 N 0.68258 0.37680 0.66323
 N1038 N 0.68922 0.38893 0.66989
 C1039 C 0.69067 0.40832 0.69040
 N1040 N 0.70380 0.41443 0.68452
 N1041 N 0.71080 0.42614 0.69154
 C1042 C 0.70492 0.43217 0.70470
 N1043 N 0.69176 0.42610 0.71055
 N1044 N 0.68476 0.41439 0.70353
 C1045 C 0.71283 0.44484 0.71263
 N1046 N 0.70711 0.45068 0.72595
 N1047 N 0.71446 0.46195 0.73332
 C1048 C 0.72781 0.46778 0.72765
 N1049 N 0.73351 0.46198 0.71431
 N1050 N 0.72615 0.45071 0.70694
 C1051 C 0.68285 -0.10540 0.18295
 N1052 N 0.68889 -0.11167 0.16998
 N1053 N 0.68226 -0.12383 0.16339
 C1054 C 0.66934 -0.13019 0.16951
 N1055 N 0.66328 -0.12385 0.18245
 N1056 N 0.66991 -0.11169 0.18905
 C1057 C 0.69037 -0.09222 0.19043
 N1058 N 0.68449 -0.08611 0.20355
 N1059 N 0.69150 -0.07437 0.21051
 C1060 C 0.70464 -0.06831 0.20461
 N1061 N 0.71049 -0.07438 0.19145
 N1062 N 0.70349 -0.08612 0.18449
 C1063 C 0.71256 -0.05561 0.21248
 N1064 N 0.72586 -0.04974 0.20673
 N1065 N 0.73322 -0.03844 0.21405
 C1066 C 0.72755 -0.03259 0.22738
 N1067 N 0.71422 -0.03842 0.23310
 N1068 N 0.70686 -0.04972 0.22578
 C1069 C 0.18296 0.39503 0.18313
 N1070 N 0.17001 0.38873 0.18921
 N1071 N 0.16339 0.37657 0.18259
 C1072 C 0.16947 0.37028 0.16965
 N1073 N 0.18238 0.37661 0.16354
 N1074 N 0.18901 0.38877 0.17016
 C1075 C 0.19047 0.40820 0.19063
 N1076 N 0.20358 0.41431 0.18471
 N1077 N 0.21057 0.42605 0.19169
 C1078 C 0.20471 0.43211 0.20484
 N1079 N 0.19156 0.42603 0.21073
 N1080 N 0.18457 0.41429 0.20375
 C1081 C 0.21261 0.44481 0.21273
 N1082 N 0.20689 0.45068 0.22603
 N1083 N 0.21424 0.46198 0.23336
 C1084 C 0.22757 0.46782 0.22766
 N1085 N 0.23327 0.46198 0.21433
 N1086 N 0.22592 0.45068 0.20700
 C1087 C 0.18289 -0.10557 0.68309
 N1088 N 0.16994 -0.11187 0.68918
 N1089 N 0.16330 -0.12402 0.68257
 C1090 C 0.16936 -0.13033 0.66961
 N1091 N 0.18228 -0.12397 0.66349
 N1092 N 0.18892 -0.11183 0.67011
 C1093 C 0.19041 -0.09241 0.69059
 N1094 N 0.20353 -0.08631 0.68467
 N1095 N 0.21054 -0.07458 0.69165
 C1096 C 0.20469 -0.06854 0.70482
 N1097 N 0.19155 -0.07461 0.71071
 N1098 N 0.18454 -0.08633 0.70373
 C1099 C 0.21262 -0.05585 0.71271
 N1100 N 0.20692 -0.05000 0.72603
 N1101 N 0.21428 -0.03871 0.73337
 C1102 C 0.22761 -0.03288 0.72766
 N1103 N 0.23329 -0.03870 0.71431
 N1104 N 0.22592 -0.04998 0.70698
 C1105 C 0.31708 0.31716 0.39536
 N1106 N 0.31102 0.33014 0.38910
 N1107 N 0.31766 0.33678 0.37698
 C1108 C 0.33060 0.33069 0.37068
 N1109 N 0.33668 0.31774 0.37697
 N1110 N 0.33005 0.31110 0.38909
 C1111 C 0.30956 0.30964 0.40850
 N1112 N 0.31546 0.29650 0.41457
 N1113 N 0.30845 0.28949 0.42627
 C1114 C 0.29529 0.29536 0.43232
 N1115 N 0.28942 0.30852 0.42628
 N1116 N 0.29642 0.31554 0.41458
 C1117 C 0.28737 0.28742 0.44498
 N1118 N 0.27405 0.29313 0.45083
 N1119 N 0.26669 0.28576 0.46209
 C1120 C 0.27238 0.27241 0.46789
 N1121 N 0.28573 0.26673 0.46207
 N1122 N 0.29309 0.27410 0.45082
 C1123 C 0.31731 0.81718 -0.10516
 N1124 N 0.31121 0.83012 -0.11146
 N1125 N 0.31781 0.83672 -0.12362
 C1126 C 0.33075 0.83062 -0.12993
 N1127 N 0.33687 0.81771 -0.12360
 N1128 N 0.33028 0.81111 -0.11144
 C1129 C 0.30983 0.80969 -0.09198
 N1130 N 0.31575 0.79658 -0.08586
 N1131 N 0.30878 0.78961 -0.07412
 C1132 C 0.29562 0.79549 -0.06807
 N1133 N 0.28972 0.80863 -0.07415
 N1134 N 0.29670 0.81560 -0.08589
 C1135 C 0.28772 0.78760 -0.05537
 N1136 N 0.27441 0.79333 -0.04953
 N1137 N 0.26706 0.78600 -0.03824
 C1138 C 0.27277 0.77267 -0.03238
 N1139 N 0.28612 0.76698 -0.03819
 N1140 N 0.29346 0.77431 -0.04948
 C1141 C 0.81694 0.31745 -0.10512
 N1142 N 0.81085 0.33040 -0.11140
 N1143 N 0.81746 0.33703 -0.12354
 C1144 C 0.83040 0.33095 -0.12985
 N1145 N 0.83652 0.31802 -0.12354
 N1146 N 0.82991 0.31139 -0.11140
 C1147 C 0.80945 0.30993 -0.09196
 N1148 N 0.81538 0.29680 -0.08589
 N1149 N 0.80840 0.28979 -0.07417
 C1150 C 0.79525 0.29565 -0.06810
 N1151 N 0.78934 0.30880 -0.07414
 N1152 N 0.79632 0.31582 -0.08586
 C1153 C 0.78736 0.28772 -0.05542
 N1154 N 0.77405 0.29342 -0.04954
 N1155 N 0.76671 0.28605 -0.03827
 C1156 C 0.77243 0.27270 -0.03247
 N1157 N 0.78577 0.26703 -0.03832
 N1158 N 0.79310 0.27440 -0.04959
 C1159 C 0.81742 0.81699 0.39511
 N1160 N 0.81137 0.82996 0.38883
 N1161 N 0.81799 0.83656 0.37667
 C1162 C 0.83090 0.83043 0.37035
 N1163 N 0.83699 0.81749 0.37667
 N1164 N 0.83037 0.81089 0.38883
 C1165 C 0.80992 0.80952 0.40829
 N1166 N 0.81581 0.79639 0.41440
 N1167 N 0.80881 0.78944 0.42613
 C1168 C 0.79567 0.79535 0.43219
 N1169 N 0.78981 0.80851 0.42611
 N1170 N 0.79681 0.81546 0.41438
 C1171 C 0.78776 0.78748 0.44488
 N1172 N 0.77445 0.79323 0.45074
 N1173 N 0.76710 0.78592 0.46203
 C1174 C 0.77278 0.77258 0.46788
 N1175 N 0.78611 0.76686 0.46206
 N1176 N 0.79346 0.77417 0.45077
 C1177 C 0.68313 0.31711 0.60468
 N1178 N 0.67016 0.31104 0.61095
 N1179 N 0.66353 0.31767 0.62308
 C1180 C 0.66963 0.33061 0.62939
 N1181 N 0.68257 0.33671 0.62309
 N1182 N 0.68920 0.33008 0.61096
 C1183 C 0.69065 0.30960 0.59154
 N1184 N 0.70378 0.31551 0.58545
 N1185 N 0.71078 0.30851 0.57374
 C1186 C 0.70490 0.29535 0.56768
 N1187 N 0.69174 0.28947 0.57373
 N1188 N 0.68474 0.29647 0.58545
 C1189 C 0.71282 0.28744 0.55501
 N1190 N 0.70710 0.27412 0.54916
 N1191 N 0.71445 0.26676 0.53789
 C1192 C 0.72780 0.27246 0.53207
 N1193 N 0.73349 0.28580 0.53789
 N1194 N 0.72613 0.29316 0.54916
 C1195 C 0.68302 0.81719 1.10518
 N1196 N 0.68911 0.83015 1.11146
 N1197 N 0.68250 0.83676 1.12362
 C1198 C 0.66957 0.83066 1.12993
 N1199 N 0.66345 0.81773 1.12361
 N1200 N 0.67006 0.81112 1.11146
 C1201 C 0.69051 0.80970 1.09200
 N1202 N 0.68459 0.79658 1.08589
 N1203 N 0.69158 0.78961 1.07416
 C1204 C 0.70473 0.79550 1.06810
 N1205 N 0.71062 0.80864 1.07418
 N1206 N 0.70364 0.81562 1.08592
 C1207 C 0.71263 0.78761 1.05541
 N1208 N 0.72595 0.79334 1.04957
 N1209 N 0.73330 0.78600 1.03828
 C1210 C 0.72760 0.77268 1.03243
 N1211 N 0.71425 0.76697 1.03823
 N1212 N 0.70690 0.77431 1.04952
 C1213 C 0.18294 0.31691 1.10503
 N1214 N 0.17000 0.31082 1.11132
 N1215 N 0.16338 0.31743 1.12347
 C1216 C 0.16946 0.33039 1.12976
 N1217 N 0.18237 0.33651 1.12344
 N1218 N 0.18899 0.32990 1.11129
 C1219 C 0.19045 0.30942 1.09187
 N1220 N 0.20356 0.31535 1.08576
 N1221 N 0.21055 0.30836 1.07404
 C1222 C 0.20468 0.29519 1.06799
 N1223 N 0.19154 0.28929 1.07406
 N1224 N 0.18455 0.29627 1.08579
 C1225 C 0.21259 0.28729 1.05531
 N1226 N 0.20688 0.27396 1.04946
 N1227 N 0.21423 0.26662 1.03818
 C1228 C 0.22756 0.27233 1.03234
 N1229 N 0.23324 0.28569 1.03816
 N1230 N 0.22589 0.29303 1.04944
 C1231 C 0.18301 0.81716 0.60517
 N1232 N 0.18910 0.83011 0.61148
 N1233 N 0.18249 0.83670 0.62365
 C1234 C 0.16957 0.83058 0.62996
 N1235 N 0.16346 0.81766 0.62362
 N1236 N 0.17006 0.81107 0.61145
 C1237 C 0.19050 0.80970 0.59199
 N1238 N 0.18459 0.79658 0.58586
 N1239 N 0.19157 0.78962 0.57412
 C1240 C 0.20472 0.79553 0.56806
 N1241 N 0.21060 0.80867 0.57415
 N1242 N 0.20362 0.81563 0.58590
 C1243 C 0.21262 0.78766 0.55536
 N1244 N 0.22592 0.79341 0.54950
 N1245 N 0.23327 0.78609 0.53821
 C1246 C 0.22758 0.77276 0.53235
 N1247 N 0.21424 0.76704 0.53816
 N1248 N 0.20689 0.77436 0.54946
 C1249 C 0.31711 0.68316 0.60487
 N1250 N 0.31104 0.67019 0.61113
 N1251 N 0.31766 0.66356 0.62326
 C1252 C 0.33060 0.66965 0.62957
 N1253 N 0.33670 0.68260 0.62328
 N1254 N 0.33008 0.68923 0.61114
 C1255 C 0.30960 0.69068 0.59172
 N1256 N 0.31551 0.70382 0.58565
 N1257 N 0.30852 0.71083 0.57394
 C1258 C 0.29536 0.70495 0.56787
 N1259 N 0.28948 0.69179 0.57391
 N1260 N 0.29647 0.68478 0.58562
 C1261 C 0.28745 0.71288 0.55520
 N1262 N 0.27414 0.70716 0.54933
 N1263 N 0.26679 0.71453 0.53806
 C1264 C 0.27249 0.72788 0.53226
 N1265 N 0.28583 0.73357 0.53810
 N1266 N 0.29318 0.72620 0.54936
 C1267 C 0.31711 0.18312 1.10521
 N1268 N 0.33006 0.18922 1.11150
 N1269 N 0.33667 0.18263 1.12366
 C1270 C 0.33056 0.16971 1.13000
 N1271 N 0.31764 0.16358 1.12368
 N1272 N 0.31103 0.17016 1.11151
 C1273 C 0.30961 0.19058 1.09203
 N1274 N 0.29650 0.18464 1.08593
 N1275 N 0.28951 0.19159 1.07419
 C1276 C 0.29539 0.20474 1.06811
 N1277 N 0.30853 0.21065 1.07416
 N1278 N 0.31552 0.20370 1.08591
 C1279 C 0.28748 0.21260 1.05540
 N1280 N 0.29319 0.22591 1.04951
 N1281 N 0.28584 0.23323 1.03822
 C1282 C 0.27251 0.22750 1.03240
 N1283 N 0.26683 0.21416 1.03825
 N1284 N 0.27418 0.20685 1.04954
 C1285 C 0.81687 0.68292 1.10506
 N1286 N 0.81077 0.66997 1.11133
 N1287 N 0.81738 0.66333 1.12347
 C1288 C 0.83033 0.66940 1.12978
 N1289 N 0.83646 0.68233 1.12348
 N1290 N 0.82985 0.68897 1.11134
 C1291 C 0.80939 0.69045 1.09191
 N1292 N 0.81534 0.70357 1.08583
 N1293 N 0.80837 0.71059 1.07411
 C1294 C 0.79520 0.70474 1.06804
 N1295 N 0.78928 0.69159 1.07408
 N1296 N 0.79625 0.68458 1.08580
 C1297 C 0.78733 0.71268 1.05536
 N1298 N 0.77401 0.70699 1.04947
 N1299 N 0.76669 0.71437 1.03819
 C1300 C 0.77243 0.72771 1.03240
 N1301 N 0.78577 0.73337 1.03825
 N1302 N 0.79309 0.72599 1.04953
 C1303 C 0.81717 0.18310 0.60500
 N1304 N 0.81108 0.17016 0.61130
 N1305 N 0.81767 0.16357 0.62347
 C1306 C 0.83060 0.16968 0.62979
 N1307 N 0.83672 0.18259 0.62346
 N1308 N 0.83013 0.18918 0.61129
 C1309 C 0.80970 0.19058 0.59181
 N1310 N 0.81562 0.20369 0.58570
 N1311 N 0.80866 0.21066 0.57395
 C1312 C 0.79551 0.20476 0.56788
 N1313 N 0.78961 0.19162 0.57396
 N1314 N 0.79658 0.18466 0.58571
 C1315 C 0.78763 0.21264 0.55517
 N1316 N 0.77432 0.20691 0.54930
 N1317 N 0.76699 0.21423 0.53800
 C1318 C 0.77270 0.22756 0.53216
 N1319 N 0.78603 0.23327 0.53799
 N1320 N 0.79336 0.22595 0.54929
 C1321 C 0.68319 0.68309 0.39527
 N1322 N 0.67022 0.68917 0.38899
 N1323 N 0.66360 0.68255 0.37685
 C1324 C 0.66968 0.66961 0.37054
 N1325 N 0.68261 0.66350 0.37684
 N1326 N 0.68924 0.67012 0.38899
 C1327 C 0.69070 0.69059 0.40842
 N1328 N 0.70382 0.68468 0.41452
 N1329 N 0.71082 0.69167 0.42624
 C1330 C 0.70495 0.70483 0.43229
 N1331 N 0.69179 0.71072 0.42623
 N1332 N 0.68480 0.70372 0.41451
 C1333 C 0.71285 0.71274 0.44497
 N1334 N 0.70714 0.72606 0.45082
 N1335 N 0.71449 0.73342 0.46210
 C1336 C 0.72782 0.72772 0.46793
 N1337 N 0.73351 0.71437 0.46211
 N1338 N 0.72616 0.70701 0.45084
 C1339 C 0.68300 0.18327 -0.10535
 N1340 N 0.67004 0.18934 -0.11164
 N1341 N 0.66344 0.18273 -0.12380
 C1342 C 0.66956 0.16981 -0.13012
 N1343 N 0.68249 0.16371 -0.12381
 N1344 N 0.68909 0.17032 -0.11164
 C1345 C 0.69048 0.19076 -0.09217
 N1346 N 0.70360 0.18485 -0.08608
 N1347 N 0.71058 0.19182 -0.07433
 C1348 C 0.70469 0.20497 -0.06826
 N1349 N 0.69154 0.21085 -0.07432
 N1350 N 0.68456 0.20388 -0.08607
 C1351 C 0.71258 0.21285 -0.05556
 N1352 N 0.70686 0.22616 -0.04967
 N1353 N 0.71420 0.23348 -0.03838
 C1354 C 0.72754 0.22777 -0.03255
 N1355 N 0.73324 0.21445 -0.03840
 N1356 N 0.72589 0.20712 -0.04970
 C1357 C 0.18347 0.68293 -0.10505
 N1358 N 0.18956 0.66998 -0.11133
 N1359 N 0.18295 0.66334 -0.12347
 C1360 C 0.17000 0.66942 -0.12978
 N1361 N 0.16388 0.68234 -0.12346
 N1362 N 0.17049 0.68898 -0.11132
 C1363 C 0.19095 0.69046 -0.09189
 N1364 N 0.18501 0.70357 -0.08581
 N1365 N 0.19198 0.71059 -0.07408
 C1366 C 0.20515 0.70474 -0.06801
 N1367 N 0.21106 0.69159 -0.07406
 N1368 N 0.20409 0.68458 -0.08579
 C1369 C 0.21302 0.71268 -0.05533
 N1370 N 0.22634 0.70699 -0.04945
 N1371 N 0.23366 0.71436 -0.03817
 C1372 C 0.22793 0.72770 -0.03236
 N1373 N 0.21459 0.73336 -0.03821
 N1374 N 0.20727 0.72599 -0.04949
 C1375 C 0.18299 0.18312 0.39481
 N1376 N 0.17005 0.18921 0.38851
 N1377 N 0.16346 0.18263 0.37633
 C1378 C 0.16957 0.16971 0.37000
 N1379 N 0.18249 0.16358 0.37633
 N1380 N 0.18908 0.17017 0.38851
 C1381 C 0.19047 0.19058 0.40801
 N1382 N 0.20358 0.18465 0.41411
 N1383 N 0.21055 0.19160 0.42587
 C1384 C 0.20466 0.20474 0.43196
 N1385 N 0.19152 0.21064 0.42589
 N1386 N 0.18455 0.20369 0.41413
 C1387 C 0.21255 0.21260 0.44468
 N1388 N 0.20681 0.22590 0.45058
 N1389 N 0.21415 0.23321 0.46189
 C1390 C 0.22748 0.22749 0.46772
 N1391 N 0.23318 0.21417 0.46186
 N1392 N 0.22585 0.20686 0.45055
 C1393 C 0.31693 0.39500 0.68327
 N1394 N 0.31086 0.38872 0.67031
 N1395 N 0.31749 0.37657 0.66369
 C1396 C 0.33043 0.37026 0.66978
 N1397 N 0.33653 0.37658 0.68271
 N1398 N 0.32990 0.38872 0.68933
 C1399 C 0.30942 0.40817 0.69077
 N1400 N 0.31533 0.41427 0.70388
 N1401 N 0.30834 0.42601 0.71086
 C1402 C 0.29519 0.43207 0.70498
 N1403 N 0.28930 0.42600 0.69184
 N1404 N 0.29629 0.41426 0.68486
 C1405 C 0.28729 0.44477 0.71288
 N1406 N 0.27398 0.45064 0.70716
 N1407 N 0.26664 0.46194 0.71449
 C1408 C 0.27235 0.46778 0.72781
 N1409 N 0.28569 0.46195 0.73350
 N1410 N 0.29302 0.45065 0.72617
 C1411 C 0.31721 0.89582 0.18288
 N1412 N 0.31114 0.88954 0.16993
 N1413 N 0.31778 0.87741 0.16328
 C1414 C 0.33073 0.87111 0.16936
 N1415 N 0.33683 0.87742 0.18229
 N1416 N 0.33019 0.88955 0.18893
 C1417 C 0.30969 0.90896 0.19041
 N1418 N 0.31559 0.91505 0.20353
 N1419 N 0.30859 0.92677 0.21053
 C1420 C 0.29543 0.93282 0.20467
 N1421 N 0.28955 0.92677 0.19152
 N1422 N 0.29655 0.91505 0.18452
 C1423 C 0.28751 0.94550 0.21259
 N1424 N 0.27420 0.95136 0.20687
 N1425 N 0.26684 0.96264 0.21422
 C1426 C 0.27254 0.96847 0.22756
 N1427 N 0.28588 0.96264 0.23325
 N1428 N 0.29323 0.95136 0.22589
 C1429 C 0.81747 0.39520 0.18275
 N1430 N 0.81140 0.38892 0.16979
 N1431 N 0.81803 0.37678 0.16317
 C1432 C 0.83097 0.37046 0.16927
 N1433 N 0.83706 0.37678 0.18220
 N1434 N 0.83043 0.38892 0.18882
 C1435 C 0.80995 0.40837 0.19025
 N1436 N 0.81585 0.41447 0.20337
 N1437 N 0.80885 0.42619 0.21035
 C1438 C 0.79569 0.43225 0.20448
 N1439 N 0.78982 0.42618 0.19133
 N1440 N 0.79682 0.41446 0.18434
 C1441 C 0.78778 0.44493 0.21237
 N1442 N 0.77446 0.45079 0.20666
 N1443 N 0.76710 0.46207 0.21400
 C1444 C 0.77279 0.46790 0.22733
 N1445 N 0.78614 0.46208 0.23302
 N1446 N 0.79350 0.45080 0.22568
 C1447 C 0.81731 0.89577 0.68306
 N1448 N 0.81125 0.88949 0.67011
 N1449 N 0.81788 0.87735 0.66348
 C1450 C 0.83083 0.87105 0.66957
 N1451 N 0.83693 0.87737 0.68250
 N1452 N 0.83029 0.88950 0.68912
 C1453 C 0.80979 0.90893 0.69057
 N1454 N 0.81570 0.91503 0.70368
 N1455 N 0.80869 0.92676 0.71067
 C1456 C 0.79553 0.93281 0.70479
 N1457 N 0.78966 0.92674 0.69165
 N1458 N 0.79666 0.91501 0.68466
 C1459 C 0.78762 0.94550 0.71269
 N1460 N 0.77430 0.95136 0.70696
 N1461 N 0.76695 0.96264 0.71429
 C1462 C 0.77264 0.96849 0.72762
 N1463 N 0.78598 0.96267 0.73332
 N1464 N 0.79334 0.95138 0.72599
 C1465 C 0.68315 0.60519 0.68328
 N1466 N 0.67019 0.61147 0.68936
 N1467 N 0.66356 0.62362 0.68274
 C1468 C 0.66964 0.62992 0.66980
 N1469 N 0.68257 0.62361 0.66370
 N1470 N 0.68921 0.61147 0.67031
 C1471 C 0.69067 0.59203 0.69077
 N1472 N 0.70380 0.58594 0.68485
 N1473 N 0.71080 0.57421 0.69183
 C1474 C 0.70493 0.56814 0.70498
 N1475 N 0.69178 0.57420 0.71087
 N1476 N 0.68478 0.58593 0.70389
 C1477 C 0.71285 0.55544 0.71286
 N1478 N 0.70713 0.54956 0.72615
 N1479 N 0.71448 0.53826 0.73348
 C1480 C 0.72782 0.53244 0.72777
 N1481 N 0.73351 0.53829 0.71445
 N1482 N 0.72616 0.54958 0.70713
 C1483 C 0.68286 0.10467 0.18258
 N1484 N 0.66988 0.11093 0.18862
 N1485 N 0.66324 0.12306 0.18199
 C1486 C 0.66934 0.12937 0.16906
 N1487 N 0.68229 0.12307 0.16298
 N1488 N 0.68893 0.11094 0.16962
 C1489 C 0.69038 0.09152 0.19010
 N1490 N 0.70352 0.08544 0.18421
 N1491 N 0.71053 0.07373 0.19122
 C1492 C 0.70465 0.06768 0.20437
 N1493 N 0.69149 0.07373 0.21023
 N1494 N 0.68448 0.08544 0.20322
 C1495 C 0.71257 0.05501 0.21229
 N1496 N 0.70685 0.04916 0.22560
 N1497 N 0.71421 0.03789 0.23296
 C1498 C 0.72755 0.03206 0.22727
 N1499 N 0.73325 0.03788 0.21394
 N1500 N 0.72589 0.04914 0.20658
 C1501 C 0.18293 0.60512 0.18285
 N1502 N 0.16996 0.61140 0.18890
 N1503 N 0.16333 0.62354 0.18227
 C1504 C 0.16943 0.62985 0.16934
 N1505 N 0.18237 0.62353 0.16326
 N1506 N 0.18900 0.61139 0.16989
 C1507 C 0.19044 0.59197 0.19037
 N1508 N 0.20357 0.58587 0.18448
 N1509 N 0.21057 0.57415 0.19148
 C1510 C 0.20469 0.56811 0.20463
 N1511 N 0.19153 0.57417 0.21049
 N1512 N 0.18453 0.58589 0.20349
 C1513 C 0.21260 0.55543 0.21255
 N1514 N 0.20687 0.54958 0.22586
 N1515 N 0.21422 0.53831 0.23322
 C1516 C 0.22757 0.53248 0.22755
 N1517 N 0.23327 0.53829 0.21421
 N1518 N 0.22591 0.54956 0.20685
 C1519 C 0.18289 0.10439 0.68298
 N1520 N 0.18895 0.11065 0.67001
 N1521 N 0.18230 0.12277 0.66337
 C1522 C 0.16935 0.12908 0.66945
 N1523 N 0.16327 0.12278 0.68238
 N1524 N 0.16991 0.11066 0.68903
 C1525 C 0.19042 0.09125 0.69051
 N1526 N 0.18452 0.08517 0.70363
 N1527 N 0.19153 0.07346 0.71064
 C1528 C 0.20470 0.06740 0.70477
 N1529 N 0.21056 0.07345 0.69162
 N1530 N 0.20355 0.08516 0.68461
 C1531 C 0.21262 0.05473 0.71268
 N1532 N 0.22593 0.04887 0.70697
 N1533 N 0.23329 0.03760 0.71431
 C1534 C 0.22761 0.03177 0.72765
 N1535 N 0.21427 0.03760 0.73334
 N1536 N 0.20691 0.04887 0.72599
 C1537 C 0.31716 0.60535 0.31692
 N1538 N 0.31110 0.61163 0.32988
 N1539 N 0.31774 0.62378 0.33650
 C1540 C 0.33068 0.63009 0.33040
 N1541 N 0.33676 0.62378 0.31746
 N1542 N 0.33012 0.61163 0.31084
 C1543 C 0.30963 0.59218 0.30942
 N1544 N 0.31553 0.58608 0.29630
 N1545 N 0.30853 0.57435 0.28933
 C1546 C 0.29537 0.56829 0.29522
 N1547 N 0.28951 0.57436 0.30836
 N1548 N 0.29651 0.58609 0.31534
 C1549 C 0.28746 0.55559 0.28733
 N1550 N 0.27414 0.54973 0.29306
 N1551 N 0.26679 0.53843 0.28574
 C1552 C 0.27248 0.53258 0.27242
 N1553 N 0.28582 0.53840 0.26671
 N1554 N 0.29317 0.54970 0.27404
 C1555 C 0.31720 0.10448 0.81718
 N1556 N 0.33018 0.11075 0.81114
 N1557 N 0.33681 0.12289 0.81777
 C1558 C 0.33071 0.12919 0.83070
 N1559 N 0.31777 0.12289 0.83678
 N1560 N 0.31113 0.11075 0.83014
 C1561 C 0.30968 0.09132 0.80966
 N1562 N 0.29655 0.08522 0.81555
 N1563 N 0.28955 0.07350 0.80855
 C1564 C 0.29543 0.06745 0.79540
 N1565 N 0.30859 0.07352 0.78953
 N1566 N 0.31559 0.08524 0.79654
 C1567 C 0.28752 0.05477 0.78748
 N1568 N 0.29324 0.04892 0.77417
 N1569 N 0.28589 0.03764 0.76682
 C1570 C 0.27255 0.03180 0.77251
 N1571 N 0.26686 0.03761 0.78584
 N1572 N 0.27421 0.04890 0.79320
 C1573 C 0.81741 0.60509 0.81721
 N1574 N 0.81134 0.61137 0.83017
 N1575 N 0.81797 0.62352 0.83679
 C1576 C 0.83091 0.62984 0.83069
 N1577 N 0.83700 0.62353 0.81776
 N1578 N 0.83037 0.61137 0.81114
 C1579 C 0.80989 0.59192 0.80971
 N1580 N 0.81580 0.58583 0.79660
 N1581 N 0.80880 0.57410 0.78961
 C1582 C 0.79564 0.56803 0.79549
 N1583 N 0.78977 0.57410 0.80863
 N1584 N 0.79677 0.58583 0.81562
 C1585 C 0.78773 0.55535 0.78758
 N1586 N 0.77441 0.54948 0.79330
 N1587 N 0.76705 0.53820 0.78595
 C1588 C 0.77275 0.53237 0.77262
 N1589 N 0.78609 0.53820 0.76693
 N1590 N 0.79345 0.54948 0.77428
 C1591 C 0.81727 0.10477 0.31677
 N1592 N 0.83025 0.11104 0.31071
 N1593 N 0.83691 0.12316 0.31736
 C1594 C 0.83083 0.12946 0.33030
 N1595 N 0.81788 0.12316 0.33638
 N1596 N 0.81122 0.11104 0.32974
 C1597 C 0.80973 0.09163 0.30924
 N1598 N 0.79659 0.08555 0.31514
 N1599 N 0.78958 0.07384 0.30814
 C1600 C 0.79544 0.06778 0.29498
 N1601 N 0.80860 0.07383 0.28911
 N1602 N 0.81562 0.08555 0.29611
 C1603 C 0.78751 0.05511 0.28708
 N1604 N 0.79321 0.04924 0.27377
 N1605 N 0.78585 0.03796 0.26643
 C1606 C 0.77251 0.03213 0.27213
 N1607 N 0.76683 0.03797 0.28546
 N1608 N 0.77419 0.04925 0.29280
 C1609 C 0.68324 0.39505 0.31671
 N1610 N 0.67027 0.38877 0.31064
 N1611 N 0.66363 0.37663 0.31726
 C1612 C 0.66972 0.37032 0.33019
 N1613 N 0.68266 0.37663 0.33629
 N1614 N 0.68930 0.38877 0.32967
 C1615 C 0.69076 0.40821 0.30921
 N1616 N 0.70389 0.41431 0.31512
 N1617 N 0.71088 0.42604 0.30814
 C1618 C 0.70501 0.43211 0.29500
 N1619 N 0.69185 0.42605 0.28912
 N1620 N 0.68485 0.41432 0.29610
 C1621 C 0.71292 0.44481 0.28711
 N1622 N 0.70719 0.45068 0.27382
 N1623 N 0.71454 0.46198 0.26649
 C1624 C 0.72788 0.46781 0.27218
 N1625 N 0.73358 0.46197 0.28550
 N1626 N 0.72623 0.45067 0.29283
 C1627 C 0.68313 0.89586 0.81721
 N1628 N 0.68921 0.88959 0.83016
 N1629 N 0.68258 0.87745 0.83680
 C1630 C 0.66962 0.87115 0.83074
 N1631 N 0.66351 0.87745 0.81781
 N1632 N 0.67014 0.88958 0.81117
 C1633 C 0.69064 0.90901 0.80968
 N1634 N 0.68472 0.91509 0.79656
 N1635 N 0.69171 0.92680 0.78955
 C1636 C 0.70488 0.93287 0.79540
 N1637 N 0.71077 0.92683 0.80855
 N1638 N 0.70378 0.91511 0.81556
 C1639 C 0.71278 0.94555 0.78748
 N1640 N 0.72609 0.95143 0.79318
 N1641 N 0.73344 0.96271 0.78582
 C1642 C 0.72773 0.96852 0.77249
 N1643 N 0.71439 0.96267 0.76681
 N1644 N 0.70705 0.95139 0.77417
 C1645 C 0.18280 0.39513 0.81720
 N1646 N 0.18887 0.38884 0.83016
 N1647 N 0.18224 0.37668 0.83676
 C1648 C 0.16930 0.37037 0.83065
 N1649 N 0.16321 0.37669 0.81773
 N1650 N 0.16984 0.38884 0.81112
 C1651 C 0.19032 0.40830 0.80972
 N1652 N 0.18441 0.41440 0.79661
 N1653 N 0.19141 0.42614 0.78963
 C1654 C 0.20457 0.43220 0.79551
 N1655 N 0.21044 0.42613 0.80865
 N1656 N 0.20344 0.41439 0.81563
 C1657 C 0.21248 0.44489 0.78762
 N1658 N 0.22580 0.45075 0.79334
 N1659 N 0.23315 0.46204 0.78600
 C1660 C 0.22746 0.46787 0.77267
 N1661 N 0.21411 0.46205 0.76698
 N1662 N 0.20675 0.45076 0.77432
 C1663 C 0.18298 0.89577 0.31706
 N1664 N 0.18904 0.88951 0.33002
 N1665 N 0.18241 0.87737 0.33666
 C1666 C 0.16947 0.87105 0.33058
 N1667 N 0.16337 0.87734 0.31764
 N1668 N 0.17000 0.88948 0.31100
 C1669 C 0.19049 0.90892 0.30954
 N1670 N 0.18458 0.91500 0.29642
 N1671 N 0.19158 0.92672 0.28942
 C1672 C 0.20474 0.93279 0.29529
 N1673 N 0.21061 0.92675 0.30844
 N1674 N 0.20362 0.91503 0.31544
 C1675 C 0.21265 0.94548 0.28738
 N1676 N 0.22596 0.95135 0.29310
 N1677 N 0.23331 0.96264 0.28575
 C1678 C 0.22761 0.96846 0.27242
 N1679 N 0.21428 0.96262 0.26672
 N1680 N 0.20693 0.95133 0.27407
 C1681 C 0.39507 0.31683 0.68324
 N1682 N 0.38879 0.32980 0.68931
 N1683 N 0.37665 0.33644 0.68269
 C1684 C 0.37033 0.33035 0.66976
 N1685 N 0.37664 0.31741 0.66366
 N1686 N 0.38878 0.31077 0.67028
 C1687 C 0.40823 0.30932 0.69073
 N1688 N 0.41432 0.29619 0.68481
 N1689 N 0.42606 0.28919 0.69179
 C1690 C 0.43213 0.29507 0.70493
 N1691 N 0.42608 0.30822 0.71082
 N1692 N 0.41434 0.31522 0.70384
 C1693 C 0.44484 0.28716 0.71281
 N1694 N 0.45073 0.29288 0.72610
 N1695 N 0.46203 0.28554 0.73342
 C1696 C 0.46786 0.27220 0.72771
 N1697 N 0.46200 0.26650 0.71439
 N1698 N 0.45070 0.27385 0.70707
 C1699 C 0.39542 0.81777 0.18282
 N1700 N 0.38915 0.81170 0.16986
 N1701 N 0.37700 0.81832 0.16323
 C1702 C 0.37068 0.83126 0.16933
 N1703 N 0.37699 0.83736 0.18226
 N1704 N 0.38914 0.83073 0.18888
 C1705 C 0.40858 0.81026 0.19032
 N1706 N 0.41467 0.81616 0.20344
 N1707 N 0.42640 0.80917 0.21043
 C1708 C 0.43246 0.79601 0.20456
 N1709 N 0.42640 0.79013 0.19141
 N1710 N 0.41468 0.79713 0.18442
 C1711 C 0.44514 0.78809 0.21246
 N1712 N 0.45100 0.77478 0.20675
 N1713 N 0.46228 0.76742 0.21410
 C1714 C 0.46810 0.77311 0.22743
 N1715 N 0.46228 0.78646 0.23312
 N1716 N 0.45100 0.79381 0.22577
 C1717 C 0.89553 0.31698 0.18280
 N1718 N 0.88927 0.32997 0.18885
 N1719 N 0.87714 0.33661 0.18222
 C1720 C 0.87082 0.33051 0.16929
 N1721 N 0.87712 0.31755 0.16321
 N1722 N 0.88925 0.31091 0.16984
 C1723 C 0.90869 0.30946 0.19031
 N1724 N 0.91477 0.29632 0.18442
 N1725 N 0.92649 0.28933 0.19142
 C1726 C 0.93256 0.29521 0.20456
 N1727 N 0.92651 0.30838 0.21042
 N1728 N 0.91478 0.31538 0.20343
 C1729 C 0.94524 0.28731 0.21247
 N1730 N 0.95111 0.29304 0.22577
 N1731 N 0.96240 0.28570 0.23311
 C1732 C 0.96823 0.27235 0.22743
 N1733 N 0.96240 0.26665 0.21410
 N1734 N 0.95111 0.27399 0.20676
 C1735 C 0.89549 0.81765 0.68306
 N1736 N 0.88921 0.83062 0.68913
 N1737 N 0.87707 0.83725 0.68250
 C1738 C 0.87076 0.83116 0.66957
 N1739 N 0.87707 0.81822 0.66347
 N1740 N 0.88921 0.81159 0.67010
 C1741 C 0.90864 0.81013 0.69056
 N1742 N 0.91473 0.79700 0.68464
 N1743 N 0.92645 0.78999 0.69162
 C1744 C 0.93252 0.79585 0.70477
 N1745 N 0.92647 0.80901 0.71066
 N1746 N 0.91474 0.81602 0.70368
 C1747 C 0.94520 0.78793 0.71266
 N1748 N 0.95108 0.79363 0.72597
 N1749 N 0.96236 0.78626 0.73330
 C1750 C 0.96817 0.77292 0.72759
 N1751 N 0.96233 0.76724 0.71426
 N1752 N 0.95105 0.77461 0.70693
 C1753 C 0.60507 0.31689 0.31670
 N1754 N 0.61135 0.32986 0.31064
 N1755 N 0.62349 0.33650 0.31726
 C1756 C 0.62981 0.33040 0.33019
 N1757 N 0.62350 0.31746 0.33628
 N1758 N 0.61135 0.31083 0.32966
 C1759 C 0.59190 0.30938 0.30920
 N1760 N 0.58581 0.29625 0.31511
 N1761 N 0.57407 0.28925 0.30813
 C1762 C 0.56800 0.29513 0.29499
 N1763 N 0.57406 0.30829 0.28911
 N1764 N 0.58580 0.31528 0.29609
 C1765 C 0.55529 0.28723 0.28711
 N1766 N 0.54940 0.29296 0.27382
 N1767 N 0.53809 0.28562 0.26650
 C1768 C 0.53226 0.27228 0.27220
 N1769 N 0.53812 0.26658 0.28551
 N1770 N 0.54942 0.27392 0.29283
 C1771 C 0.60493 0.81777 0.81730
 N1772 N 0.61121 0.83074 0.81123
 N1773 N 0.62336 0.83737 0.81785
 C1774 C 0.62968 0.83127 0.83078
 N1775 N 0.62336 0.81833 0.83687
 N1776 N 0.61121 0.81170 0.83025
 C1777 C 0.59177 0.81025 0.80979
 N1778 N 0.58568 0.79712 0.81570
 N1779 N 0.57395 0.79012 0.80871
 C1780 C 0.56789 0.79599 0.79556
 N1781 N 0.57395 0.80915 0.78968
 N1782 N 0.58568 0.81615 0.79667
 C1783 C 0.55521 0.78807 0.78765
 N1784 N 0.54935 0.79378 0.77434
 N1785 N 0.53808 0.78642 0.76699
 C1786 C 0.53225 0.77307 0.77269
 N1787 N 0.53807 0.76739 0.78602
 N1788 N 0.54935 0.77475 0.79337
 C1789 C 0.10476 0.31687 0.81698
 N1790 N 0.11102 0.31080 0.82994
 N1791 N 0.12315 0.31744 0.83660
 C1792 C 0.12945 0.33040 0.83054
 N1793 N 0.12316 0.33650 0.81760
 N1794 N 0.11104 0.32986 0.81095
 C1795 C 0.09162 0.30935 0.80944
 N1796 N 0.08555 0.31526 0.79631
 N1797 N 0.07384 0.30826 0.78930
 C1798 C 0.06777 0.29509 0.79515
 N1799 N 0.07381 0.28921 0.80831
 N1800 N 0.08552 0.29621 0.81532
 C1801 C 0.05509 0.28719 0.78723
 N1802 N 0.04921 0.27388 0.79294
 N1803 N 0.03792 0.26653 0.78558
 C1804 C 0.03212 0.27223 0.77224
 N1805 N 0.03797 0.28557 0.76656
 N1806 N 0.04925 0.29291 0.77391
 C1807 C 0.10486 0.81758 0.31710
 N1808 N 0.11112 0.83055 0.31104
 N1809 N 0.12326 0.83720 0.31766
 C1810 C 0.12957 0.83112 0.33060
 N1811 N 0.12327 0.81818 0.33669
 N1812 N 0.11114 0.81153 0.33006
 C1813 C 0.09171 0.81004 0.30960
 N1814 N 0.08563 0.79690 0.31550
 N1815 N 0.07391 0.78988 0.30852
 C1816 C 0.06785 0.79575 0.29537
 N1817 N 0.07389 0.80891 0.28949
 N1818 N 0.08560 0.81593 0.29648
 C1819 C 0.05517 0.78781 0.28747
 N1820 N 0.04928 0.79352 0.27417
 N1821 N 0.03801 0.78615 0.26684
 C1822 C 0.03220 0.77280 0.27253
 N1823 N 0.03805 0.76711 0.28586
 N1824 N 0.04933 0.77449 0.29319
 C1825 C 0.60505 0.68341 0.68332
 N1826 N 0.61133 0.68946 0.67035
 N1827 N 0.62346 0.68281 0.66373
 C1828 C 0.62976 0.66986 0.66982
 N1829 N 0.62345 0.66379 0.68276
 N1830 N 0.61132 0.67044 0.68939
 C1831 C 0.59190 0.69094 0.69083
 N1832 N 0.58581 0.68505 0.70395
 N1833 N 0.57409 0.69206 0.71093
 C1834 C 0.56803 0.70521 0.70505
 N1835 N 0.57410 0.71108 0.69189
 N1836 N 0.58582 0.70407 0.68491
 C1837 C 0.55534 0.71313 0.71293
 N1838 N 0.54948 0.72644 0.70720
 N1839 N 0.53819 0.73380 0.71453
 C1840 C 0.53235 0.72811 0.72785
 N1841 N 0.53818 0.71478 0.73356
 N1842 N 0.54947 0.70742 0.72624
 C1843 C 0.60469 0.18275 0.18257
 N1844 N 0.61097 0.16977 0.18861
 N1845 N 0.62310 0.16314 0.18198
 C1846 C 0.62941 0.16925 0.16905
 N1847 N 0.62310 0.18220 0.16298
 N1848 N 0.61096 0.18882 0.16961
 C1849 C 0.59154 0.19026 0.19009
 N1850 N 0.58544 0.20339 0.18421
 N1851 N 0.57373 0.21039 0.19122
 C1852 C 0.56768 0.20450 0.20436
 N1853 N 0.57374 0.19133 0.21021
 N1854 N 0.58546 0.18434 0.20320
 C1855 C 0.55501 0.21241 0.21229
 N1856 N 0.54917 0.20668 0.22560
 N1857 N 0.53791 0.21404 0.23297
 C1858 C 0.53208 0.22739 0.22730
 N1859 N 0.53789 0.23309 0.21397
 N1860 N 0.54915 0.22574 0.20660
 C1861 C 0.10486 0.68330 0.18289
 N1862 N 0.11114 0.68937 0.16994
 N1863 N 0.12327 0.68274 0.16329
 C1864 C 0.12957 0.66978 0.16936
 N1865 N 0.12326 0.66368 0.18229
 N1866 N 0.11113 0.67031 0.18893
 C1867 C 0.09172 0.69081 0.19042
 N1868 N 0.08564 0.68489 0.20354
 N1869 N 0.07393 0.69188 0.21056
 C1870 C 0.06786 0.70505 0.20471
 N1871 N 0.07391 0.71094 0.19156
 N1872 N 0.08562 0.70395 0.18455
 C1873 C 0.05519 0.71295 0.21264
 N1874 N 0.04931 0.72626 0.20694
 N1875 N 0.03803 0.73360 0.21431
 C1876 C 0.03222 0.72788 0.22764
 N1877 N 0.03807 0.71454 0.23331
 N1878 N 0.04935 0.70721 0.22594
 C1879 C 0.10469 0.18247 0.68288
 N1880 N 0.11096 0.18852 0.66991
 N1881 N 0.12310 0.18187 0.66329
 C1882 C 0.12941 0.16894 0.66940
 N1883 N 0.12310 0.16287 0.68234
 N1884 N 0.11096 0.16951 0.68895
 C1885 C 0.09153 0.19000 0.69037
 N1886 N 0.08544 0.18412 0.70350
 N1887 N 0.07372 0.19114 0.71048
 C1888 C 0.06767 0.20430 0.70459
 N1889 N 0.07373 0.21014 0.69143
 N1890 N 0.08545 0.20313 0.68445
 C1891 C 0.05500 0.21223 0.71248
 N1892 N 0.04915 0.22555 0.70674
 N1893 N 0.03788 0.23293 0.71407
 C1894 C 0.03204 0.22726 0.72741
 N1895 N 0.03785 0.21392 0.73312
 N1896 N 0.04912 0.20654 0.72579
 C1897 C 0.39528 0.68355 0.31687
 N1898 N 0.38900 0.67058 0.31081
 N1899 N 0.37687 0.66394 0.31744
 C1900 C 0.37057 0.67003 0.33038
 N1901 N 0.37687 0.68297 0.33646
 N1902 N 0.38901 0.68961 0.32983
 C1903 C 0.40843 0.69107 0.30936
 N1904 N 0.41453 0.70421 0.31526
 N1905 N 0.42625 0.71121 0.30827
 C1906 C 0.43231 0.70533 0.29513
 N1907 N 0.42625 0.69217 0.28925
 N1908 N 0.41452 0.68517 0.29624
 C1909 C 0.44500 0.71324 0.28723
 N1910 N 0.45087 0.70751 0.27393
 N1911 N 0.46217 0.71486 0.26659
 C1912 C 0.46800 0.72819 0.27229
 N1913 N 0.46217 0.73390 0.28562
 N1914 N 0.45088 0.72655 0.29295
 C1915 C 0.39536 0.18260 0.81723
 N1916 N 0.38908 0.18867 0.83018
 N1917 N 0.37694 0.18204 0.83681
 C1918 C 0.37063 0.16909 0.83073
 N1919 N 0.37694 0.16299 0.81780
 N1920 N 0.38908 0.16963 0.81117
 C1921 C 0.40851 0.19012 0.80972
 N1922 N 0.41460 0.18421 0.79660
 N1923 N 0.42632 0.19121 0.78960
 C1924 C 0.43238 0.20438 0.79546
 N1925 N 0.42633 0.21026 0.80861
 N1926 N 0.41461 0.20326 0.81561
 C1927 C 0.44505 0.21229 0.78755
 N1928 N 0.45092 0.22562 0.79326
 N1929 N 0.46219 0.23298 0.78590
 C1930 C 0.46800 0.22728 0.77256
 N1931 N 0.46217 0.21393 0.76688
 N1932 N 0.45090 0.20657 0.77424
 C1933 C 0.89547 0.68333 0.81711
 N1934 N 0.88920 0.68940 0.83007
 N1935 N 0.87707 0.68276 0.83671
 C1936 C 0.87077 0.66980 0.83064
 N1937 N 0.87707 0.66370 0.81771
 N1938 N 0.88919 0.67034 0.81107
 C1939 C 0.90861 0.69085 0.80958
 N1940 N 0.91469 0.68494 0.79646
 N1941 N 0.92640 0.69194 0.78945
 C1942 C 0.93247 0.70510 0.79531
 N1943 N 0.92643 0.71098 0.80846
 N1944 N 0.91471 0.70399 0.81547
 C1945 C 0.94515 0.71301 0.78740
 N1946 N 0.95104 0.72632 0.79311
 N1947 N 0.96232 0.73366 0.78576
 C1948 C 0.96813 0.72796 0.77242
 N1949 N 0.96228 0.71463 0.76673
 N1950 N 0.95100 0.70728 0.77409
 C1951 C 0.89554 0.18281 0.31687
 N1952 N 0.88925 0.16985 0.31080
 N1953 N 0.87710 0.16322 0.31742
 C1954 C 0.87080 0.16931 0.33035
 N1955 N 0.87712 0.18224 0.33646
 N1956 N 0.88927 0.18887 0.32983
 C1957 C 0.90870 0.19032 0.30937
 N1958 N 0.91480 0.20345 0.31528
 N1959 N 0.92653 0.21044 0.30829
 C1960 C 0.93259 0.20457 0.29514
 N1961 N 0.92652 0.19141 0.28926
 N1962 N 0.91479 0.18442 0.29625
 C1963 C 0.94528 0.21248 0.28725
 N1964 N 0.95114 0.20676 0.27394
 N1965 N 0.96243 0.21411 0.26660
 C1966 C 0.96826 0.22745 0.27230
 N1967 N 0.96243 0.23315 0.28563
 N1968 N 0.95115 0.22579 0.29297
 C1969 C 0.31691 0.31685 0.60519
 N1970 N 0.32989 0.31079 0.61146
 N1971 N 0.33652 0.31742 0.62359
 C1972 C 0.33042 0.33036 0.62990
 N1973 N 0.31748 0.33645 0.62360
 N1974 N 0.31085 0.32982 0.61147
 C1975 C 0.30940 0.30934 0.59204
 N1976 N 0.29628 0.31525 0.58595
 N1977 N 0.28928 0.30826 0.57422
 C1978 C 0.29517 0.29511 0.56816
 N1979 N 0.30832 0.28923 0.57421
 N1980 N 0.31532 0.29622 0.58594
 C1981 C 0.28727 0.28721 0.55547
 N1982 N 0.29300 0.27391 0.54959
 N1983 N 0.28566 0.26657 0.53830
 C1984 C 0.27232 0.27227 0.53247
 N1985 N 0.26661 0.28560 0.53832
 N1986 N 0.27395 0.29294 0.54961
 C1987 C 0.31725 0.81764 0.10480
 N1988 N 0.33024 0.81161 0.11107
 N1989 N 0.33687 0.81826 0.12319
 C1990 C 0.33076 0.83120 0.12949
 N1991 N 0.31780 0.83726 0.12319
 N1992 N 0.31117 0.83061 0.11107
 C1993 C 0.30975 0.81010 0.09166
 N1994 N 0.29660 0.81597 0.08557
 N1995 N 0.28962 0.80894 0.07386
 C1996 C 0.29552 0.79579 0.06782
 N1997 N 0.30869 0.78995 0.07388
 N1998 N 0.31567 0.79697 0.08559
 C1999 C 0.28762 0.78784 0.05516
 N2000 N 0.29337 0.77453 0.04932
 N2001 N 0.28604 0.76715 0.03806
 C2002 C 0.27269 0.77281 0.03221
 N2003 N 0.26697 0.78615 0.03801
 N2004 N 0.27430 0.79353 0.04928
 C2005 C 0.81734 0.31705 0.10474
 N2006 N 0.81131 0.33003 0.11101
 N2007 N 0.81796 0.33666 0.12313
 C2008 C 0.83090 0.33054 0.12943
 N2009 N 0.83696 0.31758 0.12312
 N2010 N 0.83030 0.31096 0.11099
 C2011 C 0.80979 0.30955 0.09160
 N2012 N 0.81566 0.29642 0.08549
 N2013 N 0.80863 0.28944 0.07378
 C2014 C 0.79548 0.29534 0.06775
 N2015 N 0.78963 0.30851 0.07382
 N2016 N 0.79666 0.31549 0.08553
 C2017 C 0.78754 0.28746 0.05508
 N2018 N 0.77422 0.29320 0.04924
 N2019 N 0.76684 0.28588 0.03797
 C2020 C 0.77252 0.27254 0.03211
 N2021 N 0.78586 0.26682 0.03791
 N2022 N 0.79323 0.27415 0.04919
 C2023 C 0.81734 0.81755 0.60504
 N2024 N 0.81126 0.83053 0.61129
 N2025 N 0.81789 0.83718 0.62341
 C2026 C 0.83084 0.83111 0.62972
 N2027 N 0.83694 0.81816 0.62343
 N2028 N 0.83031 0.81151 0.61131
 C2029 C 0.80983 0.81001 0.59190
 N2030 N 0.81574 0.79687 0.58584
 N2031 N 0.80875 0.78984 0.57414
 C2032 C 0.79559 0.79570 0.56807
 N2033 N 0.78970 0.80887 0.57410
 N2034 N 0.79669 0.81589 0.58580
 C2035 C 0.78768 0.78776 0.55541
 N2036 N 0.77437 0.79347 0.54953
 N2037 N 0.76703 0.78609 0.53827
 C2038 C 0.77273 0.77274 0.53247
 N2039 N 0.78606 0.76705 0.53831
 N2040 N 0.79341 0.77443 0.54958
 C2041 C 0.31718 0.68348 0.39498
 N2042 N 0.31112 0.67050 0.38871
 N2043 N 0.31776 0.66388 0.37657
 C2044 C 0.33069 0.66999 0.37027
 N2045 N 0.33678 0.68294 0.37658
 N2046 N 0.33014 0.68956 0.38871
 C2047 C 0.30966 0.69097 0.40814
 N2048 N 0.31556 0.70411 0.41424
 N2049 N 0.30856 0.71109 0.42596
 C2050 C 0.29541 0.70519 0.43201
 N2051 N 0.28954 0.69203 0.42594
 N2052 N 0.29654 0.68505 0.41422
 C2053 C 0.28749 0.71308 0.44469
 N2054 N 0.27418 0.70734 0.45054
 N2055 N 0.26683 0.71467 0.46183
 C2056 C 0.27252 0.72800 0.46767
 N2057 N 0.28585 0.73372 0.46186
 N2058 N 0.29321 0.72639 0.45057
 C2059 C 0.31718 0.18266 0.89524
 N2060 N 0.31112 0.16968 0.88898
 N2061 N 0.31776 0.16303 0.87686
 C2062 C 0.33070 0.16912 0.87056
 N2063 N 0.33680 0.18207 0.87686
 N2064 N 0.33016 0.18872 0.88898
 C2065 C 0.30966 0.19019 0.90837
 N2066 N 0.31556 0.20333 0.91445
 N2067 N 0.30856 0.21034 0.92615
 C2068 C 0.29539 0.20447 0.93220
 N2069 N 0.28952 0.19130 0.92616
 N2070 N 0.29652 0.18429 0.91446
 C2071 C 0.28748 0.21239 0.94486
 N2072 N 0.27417 0.20667 0.95073
 N2073 N 0.26681 0.21403 0.96199
 C2074 C 0.27250 0.22739 0.96780
 N2075 N 0.28584 0.23309 0.96197
 N2076 N 0.29319 0.22572 0.95071
 C2077 C 0.81733 0.68328 0.89521
 N2078 N 0.83030 0.68937 0.88895
 N2079 N 0.83695 0.68274 0.87682
 C2080 C 0.83087 0.66978 0.87052
 N2081 N 0.81793 0.66367 0.87682
 N2082 N 0.81128 0.67030 0.88894
 C2083 C 0.80979 0.69079 0.90835
 N2084 N 0.79666 0.68487 0.91441
 N2085 N 0.78964 0.69186 0.92612
 C2086 C 0.79550 0.70502 0.93219
 N2087 N 0.80866 0.71092 0.92615
 N2088 N 0.81568 0.70393 0.91445
 C2089 C 0.78757 0.71292 0.94485
 N2090 N 0.79328 0.72623 0.95074
 N2091 N 0.78591 0.73357 0.96201
 C2092 C 0.77256 0.72786 0.96781
 N2093 N 0.76687 0.71453 0.96195
 N2094 N 0.77424 0.70719 0.95068
 C2095 C 0.81740 0.18283 0.39493
 N2096 N 0.83037 0.18889 0.38867
 N2097 N 0.83700 0.18225 0.37653
 C2098 C 0.83089 0.16932 0.37022
 N2099 N 0.81794 0.16323 0.37652
 N2100 N 0.81132 0.16986 0.38865
 C2101 C 0.80988 0.19034 0.40808
 N2102 N 0.79675 0.18444 0.41416
 N2103 N 0.78975 0.19144 0.42587
 C2104 C 0.79564 0.20459 0.43193
 N2105 N 0.80880 0.21047 0.42588
 N2106 N 0.81580 0.20347 0.41417
 C2107 C 0.78773 0.21251 0.44460
 N2108 N 0.79345 0.22583 0.45046
 N2109 N 0.78610 0.23318 0.46173
 C2110 C 0.77275 0.22749 0.46755
 N2111 N 0.76706 0.21414 0.46173
 N2112 N 0.77441 0.20679 0.45046
 C2113 C 0.68321 0.31694 0.39478
 N2114 N 0.67024 0.31086 0.38851
 N2115 N 0.66361 0.31749 0.37637
 C2116 C 0.66971 0.33043 0.37006
 N2117 N 0.68265 0.33653 0.37637
 N2118 N 0.68928 0.32991 0.38850
 C2119 C 0.69072 0.30944 0.40793
 N2120 N 0.70385 0.31536 0.41402
 N2121 N 0.71085 0.30837 0.42575
 C2122 C 0.70497 0.29521 0.43181
 N2123 N 0.69181 0.28932 0.42575
 N2124 N 0.68482 0.29631 0.41403
 C2125 C 0.71287 0.28732 0.44449
 N2126 N 0.70715 0.27401 0.45036
 N2127 N 0.71450 0.26667 0.46165
 C2128 C 0.72783 0.27238 0.46748
 N2129 N 0.73353 0.28572 0.46164
 N2130 N 0.72618 0.29306 0.45036
 C2131 C 0.68313 0.81767 0.89527
 N2132 N 0.68922 0.83064 0.88901
 N2133 N 0.68258 0.83729 0.87690
 C2134 C 0.66962 0.83123 0.87060
 N2135 N 0.66351 0.81829 0.87690
 N2136 N 0.67014 0.81163 0.88901
 C2137 C 0.69064 0.81012 0.90840
 N2138 N 0.68471 0.79700 0.91447
 N2139 N 0.69170 0.78997 0.92617
 C2140 C 0.70487 0.79581 0.93223
 N2141 N 0.71078 0.80897 0.92620
 N2142 N 0.70379 0.81600 0.91450
 C2143 C 0.71276 0.78786 0.94489
 N2144 N 0.72609 0.79355 0.95077
 N2145 N 0.73342 0.78617 0.96204
 C2146 C 0.72769 0.77283 0.96783
 N2147 N 0.71434 0.76716 0.96199
 N2148 N 0.70701 0.77455 0.95073
 C2149 C 0.18284 0.31688 0.89514
 N2150 N 0.16988 0.31080 0.88885
 N2151 N 0.16324 0.31744 0.87673
 C2152 C 0.16932 0.33040 0.87045
 N2153 N 0.18225 0.33651 0.87677
 N2154 N 0.18889 0.32987 0.88889
 C2155 C 0.19036 0.30936 0.90828
 N2156 N 0.20348 0.31529 0.91438
 N2157 N 0.21049 0.30829 0.92609
 C2158 C 0.20463 0.29512 0.93212
 N2159 N 0.19148 0.28922 0.92606
 N2160 N 0.18448 0.29621 0.91435
 C2161 C 0.21255 0.28721 0.94479
 N2162 N 0.20685 0.27389 0.95065
 N2163 N 0.21421 0.26655 0.96193
 C2164 C 0.22754 0.27227 0.96775
 N2165 N 0.23322 0.28562 0.96193
 N2166 N 0.22586 0.29296 0.95066
 C2167 C 0.18298 0.81764 0.39516
 N2168 N 0.17000 0.81158 0.38889
 N2169 N 0.16337 0.81822 0.37676
 C2170 C 0.16947 0.83116 0.37046
 N2171 N 0.18242 0.83725 0.37677
 N2172 N 0.18905 0.83061 0.38889
 C2173 C 0.19049 0.81011 0.40830
 N2174 N 0.20362 0.81601 0.41439
 N2175 N 0.21062 0.80900 0.42610
 C2176 C 0.20473 0.79584 0.43214
 N2177 N 0.19157 0.78997 0.42608
 N2178 N 0.18458 0.79698 0.41437
 C2179 C 0.21264 0.78791 0.44481
 N2180 N 0.20691 0.77459 0.45065
 N2181 N 0.21426 0.76722 0.46191
 C2182 C 0.22760 0.77291 0.46775
 N2183 N 0.23330 0.78626 0.46195
 N2184 N 0.22595 0.79363 0.45068
 C2185 C 0.68313 0.68329 0.60520
 N2186 N 0.68919 0.67032 0.61148
 N2187 N 0.68256 0.66370 0.62361
 C2188 C 0.66963 0.66981 0.62992
 N2189 N 0.66354 0.68275 0.62362
 N2190 N 0.67017 0.68937 0.61148
 C2191 C 0.69064 0.69079 0.59205
 N2192 N 0.68475 0.70392 0.58595
 N2193 N 0.69175 0.71090 0.57423
 C2194 C 0.70490 0.70500 0.56818
 N2195 N 0.71077 0.69184 0.57424
 N2196 N 0.70377 0.68486 0.58596
 C2197 C 0.71282 0.71289 0.55550
 N2198 N 0.72612 0.70715 0.54964
 N2199 N 0.73348 0.71448 0.53836
 C2200 C 0.72780 0.72782 0.53252
 N2201 N 0.71446 0.73354 0.53834
 N2202 N 0.70710 0.72621 0.54962
 C2203 C 0.68287 0.18285 0.10455
 N2204 N 0.68894 0.16987 0.11081
 N2205 N 0.68229 0.16322 0.12292
 C2206 C 0.66934 0.16930 0.12921
 N2207 N 0.66325 0.18225 0.12292
 N2208 N 0.66989 0.18890 0.11081
 C2209 C 0.69040 0.19039 0.09142
 N2210 N 0.68449 0.20353 0.08535
 N2211 N 0.69150 0.21055 0.07366
 C2212 C 0.70467 0.20469 0.06761
 N2213 N 0.71054 0.19152 0.07364
 N2214 N 0.70353 0.18450 0.08534
 C2215 C 0.71258 0.21262 0.05496
 N2216 N 0.72590 0.20691 0.04909
 N2217 N 0.73325 0.21429 0.03784
 C2218 C 0.72756 0.22764 0.03204
 N2219 N 0.71421 0.23332 0.03787
 N2220 N 0.70686 0.22595 0.04912
 C2221 C 0.18303 0.68327 0.10481
 N2222 N 0.18907 0.67029 0.11109
 N2223 N 0.18242 0.66366 0.12321
 C2224 C 0.16948 0.66976 0.12950
 N2225 N 0.16340 0.68271 0.12319
 N2226 N 0.17006 0.68934 0.11107
 C2227 C 0.19057 0.69077 0.09168
 N2228 N 0.18468 0.70390 0.08558
 N2229 N 0.19170 0.71089 0.07387
 C2230 C 0.20486 0.70500 0.06784
 N2231 N 0.21072 0.69184 0.07391
 N2232 N 0.20370 0.68486 0.08561
 C2233 C 0.21280 0.71290 0.05517
 N2234 N 0.22612 0.70717 0.04935
 N2235 N 0.23349 0.71451 0.03808
 C2236 C 0.22781 0.72784 0.03223
 N2237 N 0.21445 0.73355 0.03802
 N2238 N 0.20708 0.72621 0.04929
 C2239 C 0.18281 0.18249 0.60486
 N2240 N 0.18890 0.16953 0.61112
 N2241 N 0.18227 0.16288 0.62325
 C2242 C 0.16932 0.16895 0.62955
 N2243 N 0.16320 0.18189 0.62324
 N2244 N 0.16983 0.18853 0.61112
 C2245 C 0.19032 0.19003 0.59172
 N2246 N 0.18440 0.20316 0.58565
 N2247 N 0.19139 0.21018 0.57395
 C2248 C 0.20456 0.20433 0.56789
 N2249 N 0.21046 0.19117 0.57393
 N2250 N 0.20346 0.18415 0.58563
 C2251 C 0.21247 0.21228 0.55524
 N2252 N 0.22579 0.20658 0.54937
 N2253 N 0.23314 0.21396 0.53812
 C2254 C 0.22743 0.22731 0.53232
 N2255 N 0.21408 0.23298 0.53815
 N2256 N 0.20674 0.22560 0.54940
   
