data_POSCAR
  _audit_creation_date              2014-09-24
  _audit_creation_method            'ToBaCCo'
  _symmetry_space_group_name_H-M    'P1'
  _symmetry_Int_Tables_number       1
  _symmetry_cell_setting            triclinic
  loop_
  _symmetry_equiv_pos_as_xyz
 x,y,z
_cell_length_a 39.0992
_cell_length_b 38.2219
_cell_length_c 37.8422
_cell_angle_alpha 92.441300
_cell_angle_beta 90.188300
_cell_angle_gamma 91.849100
loop_
  _atom_site_label
  _atom_site_type_symbol
  _atom_site_fract_x
  _atom_site_fract_y
  _atom_site_fract_z
C1 C 0.72427 0.67182 0.93834
 H2 H 0.74367 0.66300 0.92003
 C3 C 0.69552 0.68805 0.92560
 H4 H 0.69284 0.69162 0.89749
 C5 C 0.70279 0.67562 0.99687
 H6 H 0.70525 0.66953 1.02439
 C7 C 0.67383 0.69239 0.98531
 H8 H 0.65411 0.69950 1.00407
 N9 N 0.72671 0.66476 0.97319
 C10 C 0.82541 0.63560 1.01487
 H11 H 0.82039 0.60769 1.01622
 C12 C 0.85721 0.64992 1.02508
 H13 H 0.87655 0.63304 1.03482
 C14 C 0.80623 0.69150 1.00040
 H15 H 0.78622 0.70740 0.99051
 C16 C 0.83803 0.70699 1.01020
 H17 H 0.84249 0.73492 1.00804
 Zn18 Zn 0.75957 0.63276 0.98698
 N19 N 0.80074 0.65630 1.00256
 C20 C 0.80237 0.60522 0.93352
 N21 N 0.76974 0.60399 0.94597
 C22 C 0.74419 0.58689 0.92689
 C23 C 0.75097 0.57102 0.89366
 C24 C 0.81025 0.58947 0.90090
 C25 C 0.75568 0.61180 1.05762
 C26 C 0.74236 0.59502 1.08676
 C27 C 0.69781 0.56882 1.04923
 C28 C 0.71251 0.58569 1.02052
 N29 N 0.74115 0.60657 1.02505
 H30 H 0.82238 0.61966 0.94794
 H31 H 0.71821 0.58711 0.93651
 H32 H 0.73034 0.55825 0.87832
 H33 H 0.83640 0.59089 0.89153
 H34 H 0.77686 0.63029 1.06171
 H35 H 0.75371 0.60188 1.11237
 H36 H 0.67537 0.55198 1.04427
 H37 H 0.70054 0.58260 0.99478
 C38 C 0.86407 0.68584 1.02204
 C39 C 0.66928 0.69710 0.94903
 C40 C 0.71297 0.57270 1.08329
 C41 C 0.78426 0.57312 0.88002
 C42 C 0.70338 0.32100 0.50556
 H43 H 0.72684 0.31875 0.52039
 C44 C 0.67426 0.30132 0.51470
 H45 H 0.67546 0.28386 0.53644
 C46 C 0.67222 0.34870 0.46141
 H47 H 0.67112 0.36786 0.44132
 C48 C 0.64252 0.32961 0.46976
 H49 H 0.61886 0.33413 0.45595
 N50 N 0.70183 0.34450 0.47958
 C51 C 0.80511 0.36783 0.44185
 H52 H 0.80219 0.39522 0.43694
 C53 C 0.83549 0.35182 0.43259
 H54 H 0.85598 0.36700 0.42076
 C55 C 0.78154 0.31426 0.46160
 H56 H 0.76040 0.29950 0.47245
 C57 C 0.81166 0.29719 0.45287
 H58 H 0.81357 0.26951 0.45729
 Zn59 Zn 0.74028 0.37489 0.47084
 N60 N 0.77912 0.34922 0.45681
 C61 C 0.78037 0.42345 0.51312
 N62 N 0.75171 0.40225 0.51289
 C63 C 0.73323 0.39804 0.54295
 C64 C 0.74494 0.41305 0.57526
 C65 C 0.79285 0.43916 0.54479
 C66 C 0.72646 0.38839 0.40052
 C67 C 0.71522 0.40730 0.37221
 C68 C 0.71140 0.45831 0.41188
 C69 C 0.72275 0.43840 0.43951
 N70 N 0.72930 0.40393 0.43347
 H71 H 0.79441 0.42711 0.48900
 H72 H 0.71007 0.38190 0.54235
 H73 H 0.73113 0.40761 0.59927
 H74 H 0.81658 0.45459 0.54483
 H75 H 0.73177 0.36090 0.39656
 H76 H 0.71162 0.39435 0.34639
 H77 H 0.70477 0.48533 0.41710
 H78 H 0.72504 0.45008 0.46598
 C79 C 0.83929 0.31631 0.43894
 C80 C 0.64329 0.30592 0.49698
 C81 C 0.70698 0.44243 0.37803
 C82 C 0.77553 0.43325 0.57649
 C83 C 0.21660 -0.13461 0.04636
 H84 H 0.22346 -0.10991 0.05987
 C85 C 0.18948 -0.15483 0.05893
 H86 H 0.17576 -0.14557 0.08214
 C87 C 0.22407 -0.17523 -0.00188
 H88 H 0.23718 -0.18245 -0.02610
 C89 C 0.19742 -0.19681 0.01032
 H90 H 0.19030 -0.22092 -0.00432
 N91 N 0.23377 -0.14535 0.01686
 C92 C 0.33443 -0.12121 -0.02687
 H93 H 0.33161 -0.09361 -0.03096
 C94 C 0.36439 -0.13743 -0.03719
 H95 H 0.38429 -0.12243 -0.05017
 C96 C 0.31159 -0.17447 -0.00555
 H97 H 0.29128 -0.18859 0.00753
 C98 C 0.34146 -0.19162 -0.01486
 H99 H 0.34365 -0.21911 -0.00968
 Zn100 Zn 0.26935 -0.11517 0.00127
 N101 N 0.30843 -0.14002 -0.01227
 C102 C 0.29544 -0.10279 0.06723
 N103 N 0.28280 -0.08521 0.03988
 C104 C 0.27962 -0.04981 0.04200
 C105 C 0.28897 -0.03079 0.07323
 C106 C 0.30488 -0.08499 0.09866
 C107 C 0.26352 -0.09485 -0.07027
 C108 C 0.24544 -0.08192 -0.09860
 C109 C 0.20356 -0.06032 -0.05707
 C110 C 0.22265 -0.07314 -0.02964
 N111 N 0.25143 -0.09098 -0.03670
 H112 H 0.29762 -0.13093 0.06469
 H113 H 0.26970 -0.03643 0.01975
 H114 H 0.28659 -0.00262 0.07501
 H115 H 0.31475 -0.09938 0.12033
 H116 H 0.28602 -0.10981 -0.07557
 H117 H 0.25476 -0.08741 -0.12511
 H118 H 0.18073 -0.04613 -0.05047
 H119 H 0.21366 -0.07028 -0.00270
 C120 C 0.36827 -0.17299 -0.03091
 C121 C 0.18025 -0.18686 0.04150
 C122 C 0.21355 -0.06647 -0.09257
 C123 C 0.30145 -0.04870 0.10195
 C124 C 0.19338 0.16478 0.47485
 H125 H 0.21822 0.16678 0.46265
 C126 C 0.16566 0.18037 0.45919
 H127 H 0.16955 0.19468 0.43535
 C128 C 0.15730 0.14132 0.51872
 H129 H 0.15361 0.12483 0.54091
 C130 C 0.12905 0.15728 0.50443
 H131 H 0.10413 0.15377 0.51643
 N132 N 0.18864 0.14465 0.50337
 C133 C 0.27861 0.14470 0.56199
 H134 H 0.26483 0.13252 0.58305
 C135 C 0.31064 0.16068 0.56924
 H136 H 0.32074 0.16129 0.59595
 C137 C 0.28362 0.15731 0.50145
 H138 H 0.27376 0.15460 0.47475
 C139 C 0.31603 0.17291 0.50743
 H140 H 0.33056 0.18267 0.48540
 Zn141 Zn 0.22513 0.11590 0.51677
 N142 N 0.26563 0.14329 0.52850
 C143 C 0.21477 0.08593 0.44780
 N144 N 0.23604 0.08743 0.47646
 C145 C 0.26863 0.07623 0.47405
 C146 C 0.28209 0.06638 0.44116
 C147 C 0.22718 0.07609 0.41436
 C148 C 0.20178 0.10584 0.58579
 C149 C 0.19070 0.08742 0.61486
 C150 C 0.20080 0.03325 0.58187
 C151 C 0.21175 0.05280 0.55325
 N152 N 0.21178 0.08847 0.55562
 H153 H 0.18888 0.09477 0.45034
 H154 H 0.28510 0.07798 0.49712
 H155 H 0.30877 0.05983 0.43907
 H156 H 0.21080 0.07711 0.39132
 H157 H 0.20191 0.13418 0.58701
 H158 H 0.18210 0.10162 0.63840
 H159 H 0.20017 0.00490 0.57961
 H160 H 0.21981 0.03951 0.52904
 C161 C 0.32980 0.17483 0.54173
 C162 C 0.13282 0.17556 0.47324
 C163 C 0.18971 0.05075 0.61290
 C164 C 0.26162 0.06784 0.41082
 C165 C 0.16357 0.44886 0.20668
 H166 H 0.14999 0.43024 0.22254
 C167 C 0.18384 0.43643 0.17893
 H168 H 0.18482 0.40847 0.17320
 C169 C 0.17855 0.50753 0.19417
 H170 H 0.17648 0.53522 0.19990
 C171 C 0.19950 0.49615 0.16635
 H172 H 0.21316 0.51524 0.15089
 N173 N 0.16054 0.48392 0.21340
 C174 C 0.13371 0.52883 0.31766
 H175 H 0.10619 0.52488 0.31657
 C176 C 0.14939 0.54179 0.34888
 H177 H 0.13374 0.54752 0.37183
 C178 C 0.18742 0.52500 0.28921
 H179 H 0.20210 0.51821 0.26592
 C180 C 0.20401 0.53966 0.31940
 H181 H 0.23139 0.54482 0.31880
 Zn182 Zn 0.12912 0.49857 0.24947
 N183 N 0.15289 0.51940 0.28912
 C184 C 0.10927 0.44639 0.29670
 N185 N 0.10384 0.45785 0.26365
 C186 C 0.08421 0.43843 0.23975
 C187 C 0.07042 0.40558 0.24837
 C188 C 0.09526 0.41440 0.30664
 C189 C 0.11612 0.56489 0.22706
 C190 C 0.09820 0.59204 0.21310
 C191 C 0.04678 0.55539 0.21345
 C192 C 0.06596 0.52846 0.22683
 N193 N 0.10026 0.53339 0.23245
 H194 H 0.12572 0.46115 0.31516
 H195 H 0.08077 0.44761 0.21336
 H196 H 0.05590 0.38986 0.22875
 H197 H 0.09988 0.40593 0.33315
 H198 H 0.14286 0.56903 0.23372
 H199 H 0.11163 0.61652 0.20793
 H200 H 0.01960 0.55118 0.20871
 H201 H 0.05346 0.50373 0.23249
 C202 C 0.18511 0.54683 0.35029
 C203 C 0.20212 0.46017 0.15836
 C204 C 0.06328 0.58724 0.20532
 C205 C 0.07679 0.39285 0.28195
 C206 C -0.16257 0.02734 0.21351
 H207 H -0.15947 0.04234 0.23828
 C208 C -0.18192 0.04034 0.18623
 H209 H -0.19333 0.06563 0.19032
 C210 C -0.14943 -0.02278 0.17777
 H211 H -0.13636 -0.04714 0.17435
 C212 C -0.16877 -0.01091 0.14991
 H213 H -0.17125 -0.02700 0.12571
 N214 N -0.14612 -0.00324 0.20853
 C215 C -0.12067 -0.03881 0.31242
 H216 H -0.09316 -0.03980 0.30987
 C217 C -0.13635 -0.04850 0.34361
 H218 H -0.12081 -0.05705 0.36516
 C219 C -0.17444 -0.02725 0.28695
 H220 H -0.18910 -0.01943 0.26453
 C221 C -0.19130 -0.03772 0.31743
 H222 H -0.21900 -0.03840 0.31820
 Zn223 Zn -0.11558 -0.01578 0.24425
 N224 N -0.13971 -0.02784 0.28517
 C225 C -0.08510 0.03803 0.28840
 N226 N -0.08587 0.02387 0.25478
 C227 C -0.06848 0.03964 0.22830
 C228 C -0.04943 0.07093 0.23532
 C229 C -0.06607 0.06869 0.29660
 C230 C -0.11038 -0.08668 0.22651
 C231 C -0.09558 -0.11742 0.21368
 C232 C -0.04212 -0.08479 0.20731
 C233 C -0.05792 -0.05463 0.22046
 N234 N -0.09170 -0.05598 0.22894
 H235 H -0.10002 0.02633 0.30893
 H236 H -0.07018 0.02844 0.20159
 H237 H -0.03613 0.08369 0.21411
 H238 H -0.06598 0.07976 0.32344
 H239 H -0.13715 -0.08703 0.23369
 H240 H -0.11101 -0.14140 0.21054
 H241 H -0.01559 -0.08330 0.19919
 H242 H -0.04348 -0.03006 0.22295
 C243 C -0.17208 -0.04803 0.34638
 C244 C -0.18381 0.02204 0.15313
 C245 C -0.06126 -0.11641 0.20339
 C246 C -0.04823 0.08555 0.26990
 C247 C 0.33957 0.53282 0.72006
 H248 H 0.33697 0.54080 0.74764
 C249 C 0.32054 0.54896 0.69456
 H250 H 0.30295 0.56905 0.70268
 C251 C 0.36520 0.49657 0.67594
 H252 H 0.38225 0.47590 0.66868
 C253 C 0.34772 0.51311 0.64943
 H254 H 0.35192 0.50534 0.62197
 N255 N 0.36176 0.50748 0.71042
 C256 C 0.37573 0.47368 0.81668
 H257 H 0.40285 0.47940 0.82009
 C258 C 0.35650 0.46134 0.84474
 H259 H 0.36877 0.45752 0.86993
 C260 C 0.32682 0.47009 0.77921
 H261 H 0.31564 0.47264 0.75333
 C262 C 0.30659 0.45779 0.80665
 H263 H 0.27976 0.45116 0.80203
 Zn264 Zn 0.38930 0.49093 0.74700
 N265 N 0.36076 0.47756 0.78466
 C266 C 0.40447 0.55153 0.78797
 N267 N 0.41824 0.52924 0.76332
 C268 C 0.44943 0.53651 0.74892
 C269 C 0.46791 0.56726 0.75927
 C270 C 0.42219 0.58217 0.79935
 C271 C 0.40676 0.42013 0.74719
 C272 C 0.41990 0.38877 0.73387
 C273 C 0.44881 0.42086 0.68854
 C274 C 0.43530 0.45176 0.70288
 N275 N 0.41387 0.45079 0.73116
 H276 H 0.37929 0.54588 0.79841
 H277 H 0.45980 0.51899 0.72893
 H278 H 0.49239 0.57317 0.74721
 H279 H 0.41079 0.59965 0.81893
 H280 H 0.38960 0.41945 0.76941
 H281 H 0.41284 0.36440 0.74594
 H282 H 0.46436 0.42163 0.66494
 H283 H 0.44028 0.47607 0.69000
 C284 C 0.32172 0.45276 0.83956
 C285 C 0.32593 0.54045 0.65864
 C286 C 0.44022 0.38891 0.70356
 C287 C 0.45426 0.59033 0.78494
 C288 C 0.68307 0.98507 0.71521
 H289 H 0.69310 0.98662 0.74187
 C290 C 0.70273 0.97026 0.68797
 H291 H 0.72852 0.96255 0.69361
 C292 C 0.63707 0.99176 0.67547
 H293 H 0.61118 0.99964 0.67085
 C294 C 0.65509 0.97540 0.64803
 H295 H 0.64288 0.97102 0.62242
 N296 N 0.65098 0.99592 0.70844
 C297 C 0.62060 1.03876 0.81328
 H298 H 0.59365 1.03155 0.81133
 C299 C 0.63438 1.05105 0.84570
 H300 H 0.61767 1.05217 0.86844
 C301 C 0.67452 1.04432 0.78579
 H302 H 0.68978 1.04312 0.76209
 C303 C 0.68922 1.05773 0.81747
 H304 H 0.71572 1.06689 0.81741
 Zn305 Zn 0.61995 1.00987 0.74447
 N306 N 0.64119 1.03307 0.78485
 C307 C 0.60156 0.95645 0.79133
 N308 N 0.59712 0.96758 0.75796
 C309 C 0.58055 0.94665 0.73291
 C310 C 0.56755 0.91340 0.74118
 C311 C 0.58788 0.92419 0.80101
 C312 C 0.55644 1.03779 0.71934
 C313 C 0.53768 1.06443 0.70477
 C314 C 0.58941 1.10079 0.70438
 C315 C 0.60713 1.07354 0.71837
 N316 N 0.59060 1.04286 0.72560
 H317 H 0.61672 0.97182 0.81045
 H318 H 0.57833 0.95527 0.70619
 H319 H 0.55537 0.89661 0.72074
 H320 H 0.59136 0.91617 0.82787
 H321 H 0.54386 1.01315 0.72532
 H322 H 0.51061 1.06026 0.69935
 H323 H 0.60302 1.12500 0.69858
 H324 H 0.63431 1.07675 0.72348
 C325 C 0.66975 1.05888 0.84881
 C326 C 0.68816 0.96374 0.65421
 C327 C 0.55433 1.09642 0.69747
 C328 C 0.57053 0.90220 0.77590
 C329 C 0.00352 0.20887 -0.15531
 H330 H -0.00029 0.23129 -0.17098
 C331 C 0.01177 0.17723 -0.17239
 H332 H 0.01319 0.17553 -0.20099
 C333 C 0.00908 0.18417 -0.09935
 H334 H 0.00886 0.18724 -0.07088
 C335 C 0.01840 0.15231 -0.11535
 H336 H 0.02555 0.13115 -0.09897
 N337 N 0.00133 0.21157 -0.11938
 C338 C -0.00978 0.32181 -0.12361
 H339 H 0.00797 0.32872 -0.10230
 C340 C -0.02265 0.34808 -0.14402
 H341 H -0.01459 0.37515 -0.13854
 C342 C -0.04444 0.27879 -0.15497
 H343 H -0.05440 0.25209 -0.15779
 C344 C -0.05739 0.30403 -0.17633
 H345 H -0.07658 0.29651 -0.19618
 Zn346 Zn -0.01071 0.25422 -0.09547
 N347 N -0.02145 0.28804 -0.12883
 C348 C 0.05701 0.27449 -0.08750
 N349 N 0.02793 0.27025 -0.06836
 C350 C 0.02781 0.27659 -0.03267
 C351 C 0.05795 0.28820 -0.01501
 C352 C 0.08742 0.28626 -0.07106
 C353 C -0.08045 0.25975 -0.07843
 C354 C -0.11178 0.24754 -0.06569
 C355 C -0.08144 0.21235 -0.02534
 C356 C -0.05057 0.22403 -0.04017
 N357 N -0.05069 0.24603 -0.06752
 H358 H 0.05639 0.26902 -0.11579
 H359 H 0.00441 0.27298 -0.01795
 H360 H 0.05769 0.29364 0.01331
 H361 H 0.11018 0.29025 -0.08683
 H362 H -0.08043 0.27898 -0.09838
 H363 H -0.13516 0.25769 -0.07613
 H364 H -0.08067 0.19329 -0.00499
 H365 H -0.02672 0.21429 -0.03079
 C366 C -0.04759 0.33926 -0.16983
 C367 C 0.01908 0.14835 -0.15238
 C368 C -0.11276 0.22170 -0.04039
 C369 C 0.08802 0.29367 -0.03451
 C370 C 0.45688 0.23786 0.18939
 H371 H 0.44476 0.26280 0.18788
 C372 C 0.44178 0.21148 0.20920
 H373 H 0.41796 0.21605 0.22290
 C374 C 0.50054 0.19989 0.17015
 H375 H 0.52246 0.19482 0.15367
 C376 C 0.48643 0.17294 0.18969
 H377 H 0.49759 0.14735 0.18813
 N378 N 0.48514 0.23128 0.16958
 C379 C 0.52916 0.32869 0.13199
 H380 H 0.53004 0.32067 0.10425
 C381 C 0.54147 0.36189 0.14317
 H382 H 0.55229 0.37937 0.12405
 C383 C 0.51427 0.31536 0.19076
 H384 H 0.50362 0.29702 0.20905
 C385 C 0.52611 0.34864 0.20310
 H386 H 0.52465 0.35592 0.23101
 Zn387 Zn 0.49836 0.26349 0.13520
 N388 N 0.51561 0.30637 0.15563
 C389 C 0.44446 0.30472 0.11595
 N390 N 0.45817 0.27288 0.10905
 C391 C 0.44159 0.24822 0.08765
 C392 C 0.41080 0.25596 0.07091
 C393 C 0.41364 0.31318 0.10053
 C394 C 0.56496 0.24453 0.12519
 C395 C 0.59397 0.23151 0.10866
 C396 C 0.56054 0.21986 0.05542
 C397 C 0.53204 0.23359 0.07294
 N398 N 0.53467 0.24507 0.10745
 H399 H 0.45700 0.32357 0.13410
 H400 H 0.45216 0.22257 0.08359
 H401 H 0.39846 0.23669 0.05289
 H402 H 0.40335 0.33877 0.10628
 H403 H 0.56642 0.25394 0.15254
 H404 H 0.61771 0.23068 0.12341
 H405 H 0.55817 0.21005 0.02822
 H406 H 0.50794 0.23470 0.05909
 C407 C 0.53929 0.37245 0.17895
 C408 C 0.45614 0.17835 0.20844
 C409 C 0.59194 0.21890 0.07342
 C410 C 0.39648 0.28885 0.07749
 C411 C 0.95808 0.69457 0.67586
 H412 H 0.94564 0.71876 0.68237
 C413 C 0.94517 0.66348 0.68951
 H414 H 0.92277 0.66384 0.70627
 C415 C 1.00124 0.66388 0.64491
 H416 H 1.02273 0.66392 0.62710
 C417 C 0.98908 0.63219 0.65787
 H418 H 1.00111 0.60800 0.64984
 N419 N 0.98488 0.69410 0.65295
 C420 C 1.01570 0.80362 0.63922
 H421 H 1.01251 0.80362 0.61081
 C422 C 1.02753 0.83391 0.65769
 H423 H 1.03371 0.85724 0.64340
 C424 C 1.01226 0.77273 0.69221
 H425 H 1.00644 0.74871 0.70536
 C426 C 1.02325 0.80284 0.71190
 H427 H 1.02569 0.80200 0.74037
 Zn428 Zn 0.99554 0.73455 0.62698
 N429 N 1.00924 0.77363 0.65646
 C430 C 0.93265 0.76431 0.62658
 N431 N 0.95485 0.74764 0.60451
 C432 C 0.94766 0.74212 0.56945
 C433 C 0.91685 0.75333 0.55558
 C434 C 0.90185 0.77603 0.61386
 C435 C 1.06299 0.74068 0.60239
 C436 C 1.09179 0.73221 0.58266
 C437 C 1.05666 0.69162 0.54665
 C438 C 1.02839 0.70069 0.56735
 N439 N 1.03198 0.72489 0.59472
 H440 H 0.93931 0.76953 0.65406
 H441 H 0.96581 0.72966 0.55206
 H442 H 0.91153 0.74965 0.52754
 H443 H 0.88486 0.79007 0.63156
 H444 H 1.06604 0.75858 0.62507
 H445 H 1.11646 0.74377 0.59050
 H446 H 1.05366 0.67156 0.52569
 H447 H 1.00403 0.68710 0.56263
 C448 C 1.03212 0.83353 0.69437
 C449 C 0.96013 0.63184 0.67949
 C450 C 1.08893 0.70733 0.55445
 C451 C 0.89377 0.77055 0.57805
 C452 C 0.54486 0.73777 0.35949
 H453 H 0.56226 0.75558 0.37410
 C454 C 0.55788 0.70997 0.33927
 H455 H 0.58523 0.70629 0.33866
 C456 C 0.48809 0.71999 0.34327
 H457 H 0.46090 0.72356 0.34539
 C458 C 0.50009 0.69198 0.32240
 H459 H 0.48210 0.67416 0.30845
 N460 N 0.51046 0.74167 0.36201
 C461 C 0.47266 0.84318 0.39583
 H462 H 0.47056 0.83924 0.42390
 C463 C 0.46370 0.87489 0.38237
 H464 H 0.45533 0.89538 0.40070
 C465 C 0.48707 0.82094 0.33863
 H466 H 0.49572 0.79945 0.32178
 C467 C 0.47732 0.85200 0.32377
 H468 H 0.47728 0.85328 0.29525
 Zn469 Zn 0.49488 0.77552 0.39576
 N470 N 0.48443 0.81720 0.37405
 C471 C 0.54648 0.81727 0.43011
 N472 N 0.53074 0.78496 0.42928
 C473 C 0.54374 0.75840 0.44756
 C474 C 0.57451 0.76353 0.46638
 C475 C 0.57712 0.82344 0.44840
 C476 C 0.42509 0.75983 0.39657
 C477 C 0.39362 0.74792 0.40945
 C478 C 0.42172 0.73499 0.46411
 C479 C 0.45268 0.74737 0.45025
 N480 N 0.45390 0.75894 0.41678
 H481 H 0.53684 0.83777 0.41454
 H482 H 0.53152 0.73259 0.44553
 H483 H 0.58572 0.74182 0.47920
 H484 H 0.59032 0.84871 0.44706
 H485 H 0.42658 0.76982 0.37030
 H486 H 0.37098 0.74846 0.39295
 H487 H 0.42116 0.72498 0.49046
 H488 H 0.47564 0.74741 0.46617
 C489 C 0.46558 0.87988 0.34571
 C490 C 0.53529 0.68614 0.32141
 C491 C 0.39173 0.73535 0.44361
 C492 C 0.59200 0.79608 0.46564
 C493 C 0.39389 -0.00582 0.28556
 C494 C 0.37381 -0.02117 0.25358
 C495 C 0.35328 0.00152 0.23782
 C496 C 0.35409 0.03843 0.25585
 C497 C 0.41285 0.02712 0.27263
 C498 C 0.39242 0.04996 0.25626
 C499 C 0.36668 0.00989 0.31019
 C500 C 0.34559 0.03217 0.29475
 H501 H 0.37743 -0.04752 0.24278
 H502 H 0.33704 0.05721 0.24357
 H503 H 0.43998 0.03230 0.27690
 H504 H 0.36560 0.00684 0.33843
 C505 C 0.08441 1.02482 0.78446
 C506 C 0.10500 1.03260 0.75096
 C507 C 0.12580 1.00674 0.73981
 C508 C 0.12408 0.97447 0.76270
 C509 C 0.06506 0.99022 0.77326
 C510 C 0.08569 0.96334 0.76274
 C511 C 0.11098 1.01492 0.81159
 C512 C 0.13123 0.98847 0.80087
 H513 H 0.10023 1.05430 0.73434
 H514 H 0.14151 0.95384 0.75306
 H515 H 0.03742 0.98786 0.77225
 H516 H 0.11117 1.02544 0.83865
 C517 C 0.60272 0.56588 0.25408
 C518 C 0.62811 0.57408 0.22405
 C519 C 0.64630 0.54622 0.21215
 C520 C 0.63786 0.51236 0.23120
 C521 C 0.58078 0.53504 0.23786
 C522 C 0.59906 0.50713 0.22581
 C523 C 0.62494 0.54992 0.28234
 C524 C 0.64241 0.52163 0.27093
 H525 H 0.62847 0.59747 0.20912
 H526 H 0.65295 0.48977 0.22158
 H527 H 0.55309 0.53497 0.23715
 H528 H 0.62448 0.55848 0.31000
 C529 C 0.88653 0.45043 0.75574
 C530 C 0.86173 0.43766 0.72618
 C531 C 0.84471 0.46339 0.71061
 C532 C 0.85429 0.50037 0.72584
 C533 C 0.91037 0.47749 0.73808
 C534 C 0.89357 0.50339 0.72229
 C535 C 0.86576 0.47342 0.78126
 C536 C 0.84824 0.49895 0.76600
 H537 H 0.85962 0.41048 0.71683
 H538 H 0.84052 0.52136 0.71292
 H539 H 0.93788 0.47896 0.74068
 H540 H 0.86522 0.46981 0.80951
 C541 C 0.26335 0.39112 -0.03524
 C542 C 0.22795 0.37322 -0.03571
 C543 C 0.22016 0.35574 -0.00621
 C544 C 0.24854 0.35835 0.02239
 C545 C 0.26308 0.41511 -0.00108
 C546 C 0.25514 0.39806 0.02896
 C547 C 0.28825 0.36275 -0.02629
 C548 C 0.28146 0.34583 0.00388
 H549 H 0.20995 0.37525 -0.05732
 H550 H 0.24162 0.34449 0.04666
 H551 H 0.26677 0.44318 -0.00000
 H552 H 0.31185 0.35936 -0.04080
 C553 C 0.75086 0.09732 1.04299
 C554 C 0.72228 0.12165 1.05604
 C555 C 0.71217 0.14461 1.03191
 C556 C 0.73150 0.14203 0.99676
 C557 C 0.73606 0.08015 1.00856
 C558 C 0.72649 0.10336 0.98427
 C559 C 0.77908 0.12303 1.03124
 C560 C 0.76980 0.14585 1.00660
 H561 H 0.70914 0.12030 1.08095
 H562 H 0.72259 0.16119 0.97778
 H563 H 0.73376 0.05204 1.00371
 H564 H 0.80508 0.12229 1.04112
 C565 C 0.26358 0.61276 0.54235
 C566 C 0.23130 0.63325 0.54988
 C567 C 0.22014 0.65167 0.52238
 C568 C 0.24269 0.64834 0.48924
 C569 C 0.25395 0.58996 0.50875
 C570 C 0.24362 0.60868 0.48082
 C571 C 0.29009 0.63928 0.52871
 C572 C 0.27904 0.65839 0.50193
 H573 H 0.21689 0.63097 0.57414
 H574 H 0.23410 0.66379 0.46685
 H575 H 0.25405 0.56174 0.50683
 H576 H 0.31617 0.64170 0.53852
 C577 C 0.77172 0.88791 0.47213
 C578 C 0.73807 0.86733 0.46567
 C579 C 0.72681 0.84924 0.49361
 C580 C 0.74974 0.85370 0.52643
 C581 C 0.76603 0.91127 0.50567
 C582 C 0.75358 0.89373 0.53395
 C583 C 0.79665 0.86110 0.48542
 C584 C 0.78528 0.84310 0.51340
 H585 H 0.72420 0.86713 0.44081
 H586 H 0.73982 0.83847 0.54872
 H587 H 0.77161 0.93922 0.50700
 H588 H 0.82316 0.86020 0.47732
 C589 C -0.03479 0.25537 0.38431
 C590 C -0.03890 0.22420 0.35708
 C591 C -0.00927 0.21389 0.34127
 C592 C 0.02227 0.23593 0.35447
 C593 C -0.00852 0.24238 0.41033
 C594 C 0.02138 0.23272 0.39529
 C595 C -0.01610 0.28380 0.36391
 C596 C 0.01369 0.27435 0.34836
 H597 H -0.06212 0.20856 0.35293
 H598 H 0.04599 0.22829 0.34085
 H599 H -0.01380 0.23946 0.43816
 H600 H -0.02603 0.30982 0.36210
 C601 C 1.05350 0.75040 0.09491
 C602 C 1.05559 0.71741 0.11633
 C603 C 1.02605 0.70763 0.13231
 C604 C 0.99585 0.73083 0.12426
 C605 C 1.02413 0.74102 0.06822
 C606 C 0.99428 0.73007 0.08358
 C607 C 1.03805 0.77835 0.11960
 C608 C 1.00790 0.76868 0.13448
 H609 H 1.07860 0.70249 0.11801
 H610 H 0.97162 0.72247 0.13713
 H611 H 1.02528 0.74411 0.04008
 H612 H 1.04800 0.80517 0.12149
 C613 C 0.52482 0.25169 0.57224
 C614 C 0.53587 0.22379 0.59763
 C615 C 0.51066 0.21225 0.61925
 C616 C 0.47668 0.23071 0.61515
 C617 C 0.49273 0.23600 0.55341
 C618 C 0.46755 0.22543 0.57566
 C619 C 0.51137 0.28065 0.59777
 C620 C 0.48597 0.27010 0.61982
 H621 H 0.56137 0.21358 0.59822
 H622 H 0.45664 0.22123 0.63349
 H623 H 0.48960 0.23498 0.52493
 H624 H 0.52227 0.30698 0.60028
 C625 C 0.48350 0.76457 0.89490
 C626 C 0.47574 0.73078 0.87196
 C627 C 0.50161 0.72084 0.84994
 C628 C 0.53350 0.74553 0.85302
 C629 C 0.51628 0.75589 0.91443
 C630 C 0.54244 0.74630 0.89292
 C631 C 0.49430 0.79159 0.86827
 C632 C 0.51982 0.78192 0.84615
 H633 H 0.45336 0.71383 0.87448
 H634 H 0.55477 0.73807 0.83516
 H635 H 0.51781 0.75492 0.94297
 H636 H 0.48265 0.81689 0.86734
 C637 C 0.46544 -0.07305 0.30119
 C638 C 0.45202 -0.08969 0.33145
 C639 C 0.42155 -0.07742 0.34611
 C640 C 0.40403 -0.05084 0.33135
 C641 C 0.41596 -0.03407 0.30120
 C642 C 0.44620 -0.04691 0.28464
 C643 C 0.49819 -0.08065 0.28776
 C644 C 0.50975 -0.06676 0.25638
 C645 C 0.48914 -0.04488 0.23788
 C646 C 0.45773 -0.03502 0.25170
 H647 H 0.51537 -0.09702 0.30158
 H648 H 0.53465 -0.07338 0.24613
 H649 H 0.49776 -0.03505 0.21291
 H650 H 0.44271 -0.01846 0.23581
 H651 H 0.40933 -0.09017 0.36800
 H652 H 0.37958 -0.04546 0.34308
 C653 C 0.89883 0.37130 0.81555
 C654 C 0.93450 0.36687 0.81194
 C655 C 0.95336 0.38812 0.78959
 C656 C 0.93773 0.41392 0.77106
 C657 C 0.90244 0.41974 0.77423
 C658 C 0.88235 0.39670 0.79547
 C659 C 0.87924 0.35122 0.83919
 C660 C 0.84394 0.35424 0.84136
 C661 C 0.82743 0.37728 0.82022
 C662 C 0.84620 0.39824 0.79756
 H663 H 0.89092 0.33315 0.85645
 H664 H 0.82930 0.33845 0.85938
 H665 H 0.79990 0.37917 0.82160
 H666 H 0.83164 0.41535 0.78186
 H667 H 0.98055 0.38448 0.78620
 H668 H 0.95394 0.42874 0.75382
 C669 C 0.01912 1.08173 0.83834
 C670 C 0.03138 1.11566 0.82995
 C671 C 0.05874 1.11894 0.80667
 C672 C 0.07430 1.08974 0.79202
 C673 C 0.06337 1.05537 0.79972
 C674 C 0.03648 1.05151 0.82510
 C675 C -0.00986 1.07726 0.86008
 C676 C -0.01978 1.04429 0.87133
 C677 C -0.00093 1.01531 0.86148
 C678 C 0.02695 1.01881 0.83889
 H679 H -0.02508 1.09918 0.86856
 H680 H -0.04178 1.04132 0.88837
 H681 H -0.00798 0.98990 0.87132
 H682 H 0.04104 0.99564 0.83341
 H683 H 0.06926 1.14461 0.80076
 H684 H 0.09655 1.09486 0.77602
 C685 C 0.54222 0.62036 0.31581
 C686 C 0.54874 0.65434 0.30341
 C687 C 0.57065 0.65874 0.27490
 C688 C 0.58671 0.63043 0.25878
 C689 C 0.58151 0.59601 0.27026
 C690 C 0.55816 0.59092 0.29900
 C691 C 0.52105 0.61522 0.34551
 C692 C 0.51462 0.58189 0.35782
 C693 C 0.52933 0.55309 0.34119
 C694 C 0.55088 0.55744 0.31237
 H695 H 0.50949 0.63682 0.35982
 H696 H 0.49824 0.57842 0.38050
 H697 H 0.52433 0.52719 0.35090
 H698 H 0.56168 0.53405 0.30128
 H699 H 0.57604 0.68471 0.26546
 H700 H 0.60398 0.63672 0.23780
 C701 C 0.53978 0.43891 0.17680
 C702 C 0.55216 0.40788 0.19095
 C703 C 0.57950 0.41022 0.21491
 C704 C 0.59473 0.44248 0.22494
 C705 C 0.58306 0.47364 0.21161
 C706 C 0.55613 0.47191 0.18623
 C707 C 0.51144 0.43787 0.15350
 C708 C 0.50084 0.46820 0.13810
 C709 C 0.51825 0.50001 0.14543
 C710 C 0.54570 0.50195 0.16911
 H711 H 0.49714 0.41373 0.14707
 H712 H 0.47925 0.46695 0.12006
 H713 H 0.51041 0.52332 0.13275
 H714 H 0.55892 0.52706 0.17325
 H715 H 0.58956 0.38674 0.22553
 H716 H 0.61577 0.44297 0.24362
 C717 C 0.07616 0.86477 0.73532
 C718 C 0.04640 0.86527 0.71387
 C719 C 0.02998 0.89691 0.71018
 C720 C 0.04262 0.92783 0.72680
 C721 C 0.07189 0.92840 0.74850
 C722 C 0.08798 0.89607 0.75406
 C723 C 0.09487 0.83393 0.73812
 C724 C 0.12263 0.83302 0.76118
 C725 C 0.13227 0.86264 0.78177
 C726 C 0.11515 0.89370 0.77828
 H727 H 0.08854 0.81031 0.72247
 H728 H 0.13644 0.80911 0.76336
 H729 H 0.15329 0.86168 0.80037
 H730 H 0.12311 0.91548 0.79515
 H731 H 0.00730 0.89780 0.69375
 H732 H 0.02967 0.95172 0.72175
 C733 C 0.92124 0.57925 0.66454
 C734 C 0.94344 0.59827 0.68860
 C735 C 0.94977 0.58528 0.72186
 C736 C 0.93423 0.55393 0.73175
 C737 C 0.91179 0.53468 0.70869
 C738 C 0.90562 0.54699 0.67451
 C739 C 0.91414 0.59170 0.63076
 C740 C 0.89275 0.57241 0.60709
 C741 C 0.87831 0.54038 0.61644
 C742 C 0.88479 0.52766 0.64970
 H743 H 0.92503 0.61635 0.62234
 H744 H 0.88758 0.58222 0.58126
 H745 H 0.86212 0.52523 0.59780
 H746 H 0.87387 0.50239 0.65553
 H747 H 0.96662 0.59973 0.74044
 H748 H 0.93896 0.54512 0.75811
 C749 C 0.41393 0.12799 0.19777
 C750 C 0.43648 0.14766 0.22087
 C751 C 0.44299 0.13594 0.25460
 C752 C 0.42792 0.10470 0.26556
 C753 C 0.40620 0.08388 0.24299
 C754 C 0.39913 0.09562 0.20857
 C755 C 0.40660 0.13947 0.16359
 C756 C 0.38566 0.11929 0.14031
 C757 C 0.37210 0.08720 0.15035
 C758 C 0.37898 0.07541 0.18390
 H759 H 0.41703 0.16403 0.15446
 H760 H 0.38030 0.12837 0.11422
 H761 H 0.35637 0.07119 0.13198
 H762 H 0.36886 0.05015 0.18984
 H763 H 0.46039 0.15076 0.27234
 H764 H 0.43354 0.09653 0.29197
 C765 C 0.29292 0.40059 -0.13262
 C766 C 0.30205 0.43671 -0.13177
 C767 C 0.29465 0.45773 -0.10200
 C768 C 0.28012 0.44341 -0.07223
 C769 C 0.27291 0.40713 -0.07071
 C770 C 0.27768 0.38564 -0.10227
 C771 C 0.29964 0.37881 -0.16277
 C772 C 0.29059 0.34328 -0.16368
 C773 C 0.27499 0.32867 -0.13465
 C774 C 0.26869 0.34935 -0.10430
 H775 H 0.31198 0.38889 -0.18592
 H776 H 0.29574 0.32700 -0.18704
 H777 H 0.26795 0.30102 -0.13551
 H778 H 0.25680 0.33609 -0.08278
 H779 H 0.30112 0.48554 -0.10142
 H780 H 0.27564 0.46148 -0.05034
 C781 C 0.78647 0.95545 0.39857
 C782 C 0.81115 0.93756 0.37791
 C783 C 0.81955 0.90370 0.38630
 C784 C 0.80587 0.88822 0.41566
 C785 C 0.78335 0.90603 0.43856
 C786 C 0.77085 0.93864 0.42778
 C787 C 0.77687 0.98961 0.39091
 C788 C 0.75038 1.00560 0.40933
 C789 C 0.73283 0.98784 0.43537
 C790 C 0.74271 0.95465 0.44441
 H791 H 0.78959 1.00422 0.37065
 H792 H 0.74297 1.03162 0.40286
 H793 H 0.71148 0.99989 0.44872
 H794 H 0.72739 0.94152 0.46381
 H795 H 0.83702 0.88887 0.36980
 H796 H 0.81297 0.86163 0.41990
 C797 C 0.81440 0.03747 1.08952
 C798 C 0.79994 0.03692 1.12407
 C799 C 0.76823 0.05226 1.12973
 C800 C 0.75133 0.06866 1.10299
 C801 C 0.76543 0.07128 1.06902
 C802 C 0.79613 0.05282 1.06156
 C803 C 0.84794 0.02594 1.08256
 C804 C 0.86122 0.02509 1.04848
 C805 C 0.84201 0.03665 1.02072
 C806 C 0.81015 0.05070 1.02716
 H807 H 0.86486 0.01838 1.10326
 H808 H 0.88665 0.01562 1.04367
 H809 H 0.85227 0.03573 0.99416
 H810 H 0.79708 0.06019 1.00479
 H811 H 0.75595 0.05133 1.15534
 H812 H 0.72713 0.07953 1.10998
 C813 C 0.31105 0.59743 0.63046
 C814 C 0.30930 0.56030 0.63075
 C815 C 0.29070 0.54142 0.60427
 C816 C 0.27503 0.55829 0.57700
 C817 C 0.27670 0.59502 0.57533
 C818 C 0.29259 0.61491 0.60424
 C819 C 0.33144 0.61769 0.65516
 C820 C 0.33086 0.65412 0.65648
 C821 C 0.31020 0.67113 0.63326
 C822 C 0.29127 0.65191 0.60747
 H823 H 0.34838 0.60579 0.67342
 H824 H 0.34629 0.66920 0.67585
 H825 H 0.30922 0.69943 0.63485
 H826 H 0.27568 0.66664 0.59035
 H827 H 0.28847 0.51310 0.60452
 H828 H 0.26136 0.54186 0.55754
 C829 C 0.23198 0.54720 0.39806
 C830 C 0.20194 0.56116 0.38354
 C831 C 0.18740 0.59019 0.40089
 C832 C 0.20140 0.60498 0.43205
 C833 C 0.23145 0.59244 0.44642
 C834 C 0.24797 0.56435 0.42838
 C835 C 0.24628 0.51626 0.38369
 C836 C 0.27731 0.50471 0.39630
 C837 C 0.29463 0.52356 0.42343
 C838 C 0.28024 0.55312 0.43937
 H839 H 0.23358 0.50043 0.36295
 H840 H 0.28816 0.48122 0.38467
 H841 H 0.31917 0.51502 0.43246
 H842 H 0.29488 0.56721 0.45998
 H843 H 0.16467 0.60152 0.39037
 H844 H 0.18822 0.62631 0.44524
 C845 C 0.71819 0.05778 0.89240
 C846 C 0.68486 0.06828 0.88229
 C847 C 0.66659 0.08958 0.90656
 C848 C 0.68059 0.10093 0.93911
 C849 C 0.71360 0.09211 0.94857
 C850 C 0.73330 0.07189 0.92446
 C851 C 0.73626 0.03197 0.87281
 C852 C 0.76989 0.02460 0.88149
 C853 C 0.78605 0.04221 0.91010
 C854 C 0.76794 0.06554 0.93152
 H855 H 0.72455 0.01661 0.85115
 H856 H 0.78353 0.00533 0.86575
 H857 H 0.81249 0.03725 0.91616
 H858 H 0.78136 0.07908 0.95323
 H859 H 0.64150 0.09868 0.90003
 H860 H 0.66547 0.11687 0.95710
 C861 C 0.72424 0.91332 0.62969
 C862 C 0.70697 0.94504 0.62518
 C863 C 0.70737 0.95965 0.59181
 C864 C 0.72328 0.94317 0.56314
 C865 C 0.74108 0.91222 0.56686
 C866 C 0.74336 0.89834 0.60105
 C867 C 0.72244 0.89552 0.66166
 C868 C 0.74213 0.86638 0.66674
 C869 C 0.76385 0.85437 0.64021
 C870 C 0.76455 0.87020 0.60773
 H871 H 0.70563 0.90350 0.68287
 H872 H 0.74087 0.85336 0.69158
 H873 H 0.77994 0.83244 0.64464
 H874 H 0.78221 0.86058 0.58820
 H875 H 0.69453 0.98383 0.58761
 H876 H 0.72083 0.95449 0.53754
 C877 C 0.24599 0.42090 0.12843
 C878 C 0.22139 0.44730 0.12687
 C879 C 0.21297 0.46025 0.09400
 C880 C 0.22615 0.44561 0.06286
 C881 C 0.24768 0.41695 0.06330
 C882 C 0.25928 0.40570 0.09643
 C883 C 0.25832 0.40986 0.16113
 C884 C 0.28282 0.38422 0.16232
 C885 C 0.29601 0.36967 0.13113
 C886 C 0.28467 0.38056 0.09855
 H887 H 0.24975 0.42142 0.18600
 H888 H 0.29206 0.37604 0.18757
 H889 H 0.31555 0.35029 0.13215
 H890 H 0.29675 0.37003 0.07519
 H891 H 0.19465 0.48078 0.09224
 H892 H 0.21776 0.45564 0.03805
 C893 C -0.09622 0.31144 0.44326
 C894 C -0.12832 0.29916 0.42951
 C895 C -0.12962 0.27194 0.40383
 C896 C -0.09988 0.25767 0.39042
 C897 C -0.06715 0.26992 0.40211
 C898 C -0.06539 0.29772 0.42890
 C899 C -0.09425 0.33728 0.47109
 C900 C -0.06278 0.35078 0.48348
 C901 C -0.03272 0.33897 0.46841
 C902 C -0.03385 0.31292 0.44148
 H903 H -0.11700 0.34713 0.48372
 H904 H -0.06171 0.37071 0.50468
 H905 H -0.00831 0.34997 0.47774
 H906 H -0.00951 0.30551 0.43081
 H907 H -0.15404 0.26249 0.39291
 H908 H -0.10348 0.23792 0.36954
 C909 C 0.43273 0.82242 0.96280
 C910 C 0.39910 0.80891 0.95613
 C911 C 0.39410 0.77987 0.93294
 C912 C 0.42129 0.76520 0.91488
 C913 C 0.45501 0.77906 0.91884
 C914 C 0.46069 0.80874 0.94295
 C915 C 0.43901 0.84962 0.98869
 C916 C 0.47158 0.86488 0.99337
 C917 C 0.49839 0.85356 0.97232
 C918 C 0.49315 0.82604 0.94732
 H919 H 0.41882 0.85919 1.00564
 H920 H 0.47592 0.88590 1.01311
 H921 H 0.52351 0.86611 0.97543
 H922 H 0.51497 0.81928 0.93148
 H923 H 0.36848 0.76942 0.92726
 H924 H 0.41458 0.74413 0.89616
 C925 C 1.14877 0.78366 0.09124
 C926 C 1.15130 0.79164 0.05514
 C927 C 1.12398 0.78270 0.03237
 C928 C 1.09359 0.76823 0.04500
 C929 C 1.08869 0.76297 0.08131
 C930 C 1.11699 0.77089 0.10492
 C931 C 1.17740 0.78830 0.11406
 C932 C 1.17446 0.78289 0.15005
 C933 C 1.14309 0.77279 0.16403
 C934 C 1.11469 0.76690 0.14197
 H935 H 1.20240 0.79587 0.10423
 H936 H 1.19658 0.78683 0.16721
 H937 H 1.14075 0.76921 0.19215
 H938 H 1.09125 0.75936 0.15485
 H939 H 1.12559 0.78840 0.00460
 H940 H 1.07376 0.76274 0.02564
 C941 C 0.60526 0.25307 0.51166
 C942 C 0.61107 0.28972 0.51011
 C943 C 0.58583 0.31216 0.52237
 C944 C 0.55708 0.29931 0.53957
 C945 C 0.55281 0.26347 0.54631
 C946 C 0.57529 0.23973 0.52874
 C947 C 0.62809 0.22943 0.49562
 C948 C 0.62130 0.19342 0.49560
 C949 C 0.59151 0.18036 0.51093
 C950 C 0.56855 0.20314 0.52705
 H951 H 0.65091 0.23858 0.48229
 H952 H 0.63892 0.17558 0.48300
 H953 H 0.58598 0.15240 0.51008
 H954 H 0.54522 0.19169 0.53733
 H955 H 0.58903 0.34022 0.51985
 H956 H 0.53851 0.31817 0.54799
 C957 C 0.37552 0.22393 0.54031
 C958 C 0.36504 0.18932 0.54857
 C959 C 0.38856 0.16767 0.56417
 C960 C 0.42188 0.17959 0.57177
 C961 C 0.43306 0.21329 0.56333
 C962 C 0.40997 0.23582 0.54719
 C963 C 0.35214 0.24757 0.52696
 C964 C 0.36259 0.28170 0.51966
 C965 C 0.39624 0.29317 0.52594
 C966 C 0.41972 0.27069 0.53977
 H967 H 0.32547 0.24029 0.52271
 H968 H 0.34434 0.29948 0.50945
 H969 H 0.40409 0.31984 0.52059
 H970 H 0.44520 0.28129 0.54530
 H971 H 0.38095 0.14124 0.57078
 H972 H 0.43910 0.16241 0.58462
 C973 C 0.92876 0.68731 0.01751
 C974 C 0.89832 0.70070 0.03233
 C975 C 0.90049 0.72528 0.06072
 C976 C 0.93196 0.73507 0.07596
 C977 C 0.96234 0.72046 0.06354
 C978 C 0.96098 0.69635 0.03377
 C979 C 0.92768 0.66463 -0.01298
 C980 C 0.95732 0.64968 -0.02610
 C981 C 0.98849 0.65682 -0.00910
 C982 C 0.99043 0.67976 0.02053
 H983 H 0.90395 0.65840 -0.02700
 H984 H 0.95604 0.63214 -0.04933
 H985 H 1.01133 0.64450 -0.01892
 H986 H 1.01514 0.68348 0.03309
 H987 H 0.87746 0.73577 0.07228
 H988 H 0.93242 0.75366 0.09838
 C989 C 0.60526 0.68835 0.93936
 C990 C 0.63608 0.70841 0.93516
 C991 C 0.63555 0.73914 0.91627
 C992 C 0.60505 0.75076 0.90244
 C993 C 0.57414 0.73224 0.90743
 C994 C 0.57395 0.70071 0.92605
 C995 C 0.60504 0.65559 0.95540
 C996 C 0.57464 0.63611 0.95928
 C997 C 0.54399 0.64851 0.94698
 C998 C 0.54352 0.68033 0.93038
 H999 H 0.62828 0.64429 0.96452
 H1000 H 0.57494 0.61109 0.97162
 H1001 H 0.52050 0.63311 0.94975
 H1002 H 0.51923 0.68807 0.92011
 H1003 H 0.65898 0.75438 0.91239
 H1004 H 0.60550 0.77478 0.88829
 C1005 C 0.07435 0.16671 0.44330
 C1006 C 0.10266 0.18879 0.45456
 C1007 C 0.10258 0.22450 0.44758
 C1008 C 0.07573 0.23838 0.42906
 C1009 C 0.04825 0.21697 0.41657
 C1010 C 0.04624 0.18137 0.42569
 C1011 C 0.07357 0.13024 0.44825
 C1012 C 0.04483 0.10939 0.43865
 C1013 C 0.01649 0.12422 0.42369
 C1014 C 0.01710 0.15983 0.41711
 H1015 H 0.09512 0.11732 0.45915
 H1016 H 0.04456 0.08154 0.44284
 H1017 H -0.00579 0.10792 0.41640
 H1018 H -0.00510 0.17005 0.40451
 H1019 H 0.12359 0.24185 0.45656
 H1020 H 0.07633 0.26621 0.42477
 C1021 C 0.53282 0.15834 0.69845
 C1022 C 0.53626 0.12509 0.68093
 C1023 C 0.52722 0.12062 0.64516
 C1024 C 0.51721 0.14899 0.62608
 C1025 C 0.51567 0.18254 0.64227
 C1026 C 0.52248 0.18733 0.67894
 C1027 C 0.53995 0.16349 0.73491
 C1028 C 0.53726 0.19650 0.75167
 C1029 C 0.52756 0.22489 0.73250
 C1030 C 0.52031 0.22048 0.69645
 H1031 H 0.54739 0.14204 0.75074
 H1032 H 0.54277 0.20009 0.77966
 H1033 H 0.52564 0.25047 0.74563
 H1034 H 0.51295 0.24316 0.68252
 H1035 H 0.52994 0.09544 0.63138
 H1036 H 0.51207 0.14506 0.59800
 C1037 C 1.03075 0.61183 0.15381
 C1038 C 1.04514 0.61582 0.18835
 C1039 C 1.04658 0.64921 0.20538
 C1040 C 1.03675 0.67870 0.18796
 C1041 C 1.02446 0.67570 0.15320
 C1042 C 1.01957 0.64197 0.13661
 C1043 C 1.02888 0.57903 0.13504
 C1044 C 1.01472 0.57577 0.10113
 C1045 C 1.00256 0.60500 0.08506
 C1046 C 1.00512 0.63781 0.10252
 H1047 H 1.03847 0.55564 0.14599
 H1048 H 1.01321 0.55042 0.08724
 H1049 H 0.99137 0.60231 0.05884
 H1050 H 0.99534 0.65982 0.08941
 H1051 H 1.05756 0.65278 0.23166
 H1052 H 1.04106 0.70435 0.20082
 C1053 C 0.95543 0.85094 0.14716
 C1054 C 0.95334 0.85290 0.18452
 C1055 C 0.96572 0.82564 0.20405
 C1056 C 0.98166 0.79735 0.18719
 C1057 C 0.98563 0.79567 0.15042
 C1058 C 0.97177 0.82222 0.12993
 C1059 C 0.94166 0.87712 0.12655
 C1060 C 0.94406 0.87513 0.08980
 C1061 C 0.96016 0.84719 0.07291
 C1062 C 0.97391 0.82102 0.09263
 H1063 H 0.92877 0.89923 0.13857
 H1064 H 0.93336 0.89535 0.07435
 H1065 H 0.96194 0.84574 0.04435
 H1066 H 0.98588 0.79987 0.07822
 H1067 H 0.96388 0.82679 0.23263
 H1068 H 0.99223 0.77735 0.20307
 C1069 C 0.42507 0.33389 0.66648
 C1070 C 0.44954 0.35553 0.68548
 C1071 C 0.48372 0.34610 0.68604
 C1072 C 0.49430 0.31657 0.66682
 C1073 C 0.47112 0.29542 0.64625
 C1074 C 0.43576 0.30321 0.64730
 C1075 C 0.39028 0.34284 0.66509
 C1076 C 0.36640 0.32164 0.64615
 C1077 C 0.37660 0.29129 0.62826
 C1078 C 0.41080 0.28219 0.62882
 H1079 H 0.38118 0.36636 0.67831
 H1080 H 0.33985 0.32879 0.64540
 H1081 H 0.35795 0.27473 0.61373
 H1082 H 0.41710 0.25838 0.61500
 H1083 H 0.50259 0.36237 0.70063
 H1084 H 0.52131 0.31101 0.66677
 C1085 C 0.50370 0.62550 0.81474
 C1086 C 0.47214 0.62383 0.79605
 C1087 C 0.45524 0.65483 0.79034
 C1088 C 0.46743 0.68670 0.80519
 C1089 C 0.49717 0.68892 0.82608
 C1090 C 0.51689 0.65851 0.82889
 C1091 C 0.52175 0.59492 0.82103
 C1092 C 0.55281 0.59691 0.83928
 C1093 C 0.56645 0.62921 0.85157
 C1094 C 0.54873 0.65965 0.84644
 H1095 H 0.51208 0.56923 0.81218
 H1096 H 0.56646 0.57329 0.84374
 H1097 H 0.59078 0.63070 0.86538
 H1098 H 0.56061 0.68389 0.85588
 H1099 H 0.43128 0.65404 0.77581
 H1100 H 0.45220 0.70962 0.80226
 C1101 C -0.00004 0.12070 0.30015
 C1102 C -0.02998 0.11923 0.27906
 C1103 C -0.04662 0.15008 0.27265
 C1104 C -0.03654 0.18143 0.29028
 C1105 C -0.00974 0.18302 0.31528
 C1106 C 0.01066 0.15285 0.31817
 C1107 C 0.01891 0.09031 0.30429
 C1108 C 0.04821 0.09140 0.32530
 C1109 C 0.05908 0.12261 0.34252
 C1110 C 0.04059 0.15289 0.33912
 H1111 H 0.01140 0.06562 0.29095
 H1112 H 0.06260 0.06795 0.32817
 H1113 H 0.08187 0.12336 0.35890
 H1114 H 0.05041 0.17574 0.35333
 H1115 H -0.06944 0.14933 0.25627
 H1116 H -0.05180 0.20417 0.28656
 C1117 C 0.08484 0.33431 0.30993
 C1118 C 0.06386 0.35763 0.29215
 C1119 C 0.02902 0.34921 0.28798
 C1120 C 0.01429 0.32038 0.30408
 C1121 C 0.03343 0.29961 0.32624
 C1122 C 0.06953 0.30605 0.32845
 C1123 C 0.12084 0.33891 0.30999
 C1124 C 0.14128 0.31787 0.32980
 C1125 C 0.12632 0.29201 0.34992
 C1126 C 0.09094 0.28623 0.34936
 H1127 H 0.13348 0.35864 0.29452
 H1128 H 0.16882 0.32189 0.32984
 H1129 H 0.14221 0.27615 0.36590
 H1130 H 0.08100 0.26622 0.36559
 H1131 H 0.01262 0.36617 0.27380
 H1132 H -0.01300 0.31547 0.30074
 C1133 C 0.52198 0.85656 0.78302
 C1134 C 0.55699 0.86736 0.78655
 C1135 C 0.57959 0.84564 0.80364
 C1136 C 0.56772 0.81567 0.82004
 C1137 C 0.53296 0.80608 0.81928
 C1138 C 0.51036 0.82483 0.79819
 C1139 C 0.49779 0.87711 0.76630
 C1140 C 0.46383 0.86531 0.76212
 C1141 C 0.45314 0.83314 0.77479
 C1142 C 0.47606 0.81307 0.79279
 H1143 H 0.50450 0.90252 0.75654
 H1144 H 0.44573 0.88118 0.74887
 H1145 H 0.42686 0.82392 0.77107
 H1146 H 0.46679 0.78823 0.80237
 H1147 H 0.60649 0.85313 0.80614
 H1148 H 0.58544 0.80140 0.83555
 C1149 C 0.71737 0.54854 0.14257
 C1150 C 0.69812 0.55863 0.11250
 C1151 C 0.66207 0.55711 0.11514
 C1152 C 0.64596 0.55186 0.14734
 C1153 C 0.66489 0.54694 0.17805
 C1154 C 0.70069 0.54383 0.17562
 C1155 C 0.75241 0.54052 0.13998
 C1156 C 0.77106 0.53195 0.16969
 C1157 C 0.75519 0.53033 0.20243
 C1158 C 0.72028 0.53599 0.20541
 H1159 H 0.76552 0.54007 0.11484
 H1160 H 0.79794 0.52638 0.16724
 H1161 H 0.76980 0.52388 0.22547
 H1162 H 0.70864 0.53358 0.23100
 H1163 H 0.64583 0.56383 0.09340
 H1164 H 0.61835 0.55328 0.14866
 C1165 C 0.14104 1.01705 0.64132
 C1166 C 0.17488 1.03153 0.64273
 C1167 C 0.19308 1.03234 0.67476
 C1168 C 0.17769 1.02094 0.70563
 C1169 C 0.14357 1.00873 0.70541
 C1170 C 0.12529 1.00562 0.67291
 C1171 C 0.12187 1.01521 0.60954
 C1172 C 0.08828 1.00180 0.60878
 C1173 C 0.07299 0.99046 0.63958
 C1174 C 0.09114 0.99254 0.67139
 H1175 H 0.13253 1.02412 0.58505
 H1176 H 0.07397 1.00040 0.58419
 H1177 H 0.04684 0.98022 0.63889
 H1178 H 0.07822 0.98389 0.69470
 H1179 H 0.21884 1.04364 0.67623
 H1180 H 0.19175 1.02394 0.73036
 C1181 C 0.15638 0.93747 0.88141
 C1182 C 0.19286 0.94191 0.88012
 C1183 C 0.20743 0.95613 0.84952
 C1184 C 0.18709 0.97017 0.82365
 C1185 C 0.15158 0.97012 0.82705
 C1186 C 0.13579 0.95253 0.85533
 C1187 C 0.13999 0.91525 0.90576
 C1188 C 0.10450 0.91116 0.90680
 C1189 C 0.08444 0.92768 0.88269
 C1190 C 0.09983 0.94758 0.85685
 H1191 H 0.15432 0.89969 0.92342
 H1192 H 0.09256 0.89440 0.92588
 H1193 H 0.05688 0.92396 0.88310
 H1194 H 0.08331 0.95741 0.83708
 H1195 H 0.23489 0.95939 0.84676
 H1196 H 0.19929 0.98264 0.80158
 C1197 C 0.65414 0.45617 0.34358
 C1198 C 0.68971 0.46106 0.34996
 C1199 C 0.70890 0.48438 0.32982
 C1200 C 0.69336 0.50298 0.30355
 C1201 C 0.65825 0.49862 0.29653
 C1202 C 0.63825 0.47511 0.31676
 C1203 C 0.63388 0.43323 0.36381
 C1204 C 0.59881 0.42893 0.35765
 C1205 C 0.58327 0.44738 0.33146
 C1206 C 0.60267 0.47026 0.31128
 H1207 H 0.64486 0.41854 0.38463
 H1208 H 0.58363 0.41124 0.37332
 H1209 H 0.55602 0.44395 0.32672
 H1210 H 0.58951 0.48369 0.29116
 H1211 H 0.73607 0.48853 0.33481
 H1212 H 0.70877 0.52169 0.28940
 C1213 C 0.77560 0.46403 0.63793
 C1214 C 0.79190 0.44374 0.61098
 C1215 C 0.82426 0.43075 0.61754
 C1216 C 0.84037 0.43701 0.65002
 C1217 C 0.82479 0.45648 0.67738
 C1218 C 0.79192 0.46993 0.67161
 C1219 C 0.74363 0.47891 0.63206
 C1220 C 0.72742 0.49789 0.65909
 C1221 C 0.74262 0.50231 0.69237
 C1222 C 0.77449 0.48842 0.69872
 H1223 H 0.73103 0.47625 0.60655
 H1224 H 0.70283 0.50904 0.65426
 H1225 H 0.72966 0.51662 0.71338
 H1226 H 0.78503 0.49196 0.72510
 H1227 H 0.83706 0.41505 0.59739
 H1228 H 0.86566 0.42689 0.65361
 C1229 C 0.28993 -0.01695 0.16091
 C1230 C 0.31294 -0.03026 0.13515
 C1231 C 0.34785 -0.03078 0.14300
 C1232 C 0.36010 -0.01979 0.17614
 C1233 C 0.33792 -0.00765 0.20267
 C1234 C 0.30257 -0.00544 0.19504
 C1235 C 0.25450 -0.01604 0.15398
 C1236 C 0.23209 -0.00371 0.17991
 C1237 C 0.24441 0.00744 0.21321
 C1238 C 0.27926 0.00640 0.22090
 H1239 H 0.24384 -0.02487 0.12862
 H1240 H 0.20497 -0.00305 0.17422
 H1241 H 0.22683 0.01667 0.23331
 H1242 H 0.28760 0.01458 0.24726
 H1243 H 0.36567 -0.04103 0.12359
 H1244 H 0.38730 -0.02110 0.18131
 C1245 C 0.30112 0.08923 0.36311
 C1246 C 0.27745 0.06375 0.37556
 C1247 C 0.27165 0.03230 0.35597
 C1248 C 0.29151 0.02427 0.32644
 C1249 C 0.31752 0.04755 0.31562
 C1250 C 0.32131 0.08105 0.33282
 C1251 C 0.30583 0.12234 0.38077
 C1252 C 0.33003 0.14670 0.36890
 C1253 C 0.34993 0.13856 0.33941
 C1254 C 0.34573 0.10604 0.32153
 H1255 H 0.29075 0.12971 0.40368
 H1256 H 0.33336 0.17200 0.38265
 H1257 H 0.36867 0.15756 0.33029
 H1258 H 0.36132 0.10085 0.29860
 H1259 H 0.25344 0.01276 0.36512
 H1260 H 0.28863 -0.00164 0.31378
 C1261 C 0.81213 0.57665 0.81972
 C1262 C 0.79294 0.55755 0.84467
 C1263 C 0.78660 0.52166 0.83826
 C1264 C 0.80225 0.50394 0.81014
 C1265 C 0.82525 0.52135 0.78785
 C1266 C 0.82910 0.55842 0.79151
 C1267 C 0.81535 0.61356 0.82279
 C1268 C 0.83592 0.63207 0.79955
 C1269 C 0.85362 0.61424 0.77295
 C1270 C 0.85035 0.57786 0.76897
 H1271 H 0.80179 0.62838 0.84299
 H1272 H 0.83826 0.66035 0.80230
 H1273 H 0.86986 0.62868 0.75516
 H1274 H 0.86444 0.56554 0.74797
 H1275 H 0.77159 0.50670 0.85671
 H1276 H 0.79842 0.47574 0.80740
 C1277 C 0.14734 0.71656 0.52565
 C1278 C 0.12055 0.69402 0.53755
 C1279 C 0.12601 0.65806 0.53862
 C1280 C 0.15800 0.64478 0.53138
 C1281 C 0.18580 0.66697 0.52310
 C1282 C 0.18041 0.70303 0.51889
 C1283 C 0.14204 0.75236 0.52066
 C1284 C 0.16892 0.77458 0.51054
 C1285 C 0.20146 0.76162 0.50519
 C1286 C 0.20727 0.72623 0.50932
 H1287 H 0.11706 0.76334 0.52423
 H1288 H 0.16451 0.80201 0.50693
 H1289 H 0.22228 0.77906 0.49762
 H1290 H 0.23286 0.71734 0.50483
 H1291 H 0.10598 0.64029 0.54750
 H1292 H 0.16155 0.61702 0.53408
 C1293 C 0.65371 0.22133 1.05247
 C1294 C 0.62221 0.20253 1.05691
 C1295 C 0.62056 0.16629 1.04967
 C1296 C 0.64982 0.14829 1.04035
 C1297 C 0.68161 0.16597 1.03772
 C1298 C 0.68368 0.20288 1.04287
 C1299 C 0.65609 0.25811 1.05758
 C1300 C 0.68733 0.27622 1.05387
 C1301 C 0.71668 0.25813 1.04510
 C1302 C 0.71502 0.22179 1.03971
 H1303 H 0.63383 0.27314 1.06419
 H1304 H 0.68879 0.30444 1.05786
 H1305 H 0.74087 0.27233 1.04244
 H1306 H 0.73841 0.20876 1.03306
 H1307 H 0.59674 0.15154 1.05303
 H1308 H 0.64788 0.12006 1.03623
 C1309 C 0.83312 0.19080 0.94309
 C1310 C 0.85722 0.20558 0.96867
 C1311 C 0.85003 0.20225 1.00468
 C1312 C 0.81983 0.18620 1.01572
 C1313 C 0.79617 0.17034 0.99156
 C1314 C 0.80239 0.17330 0.95467
 C1315 C 0.84074 0.18899 0.90638
 C1316 C 0.81794 0.17332 0.88178
 C1317 C 0.78758 0.15786 0.89294
 C1318 C 0.78013 0.15739 0.92882
 H1319 H 0.86491 0.19822 0.89604
 H1320 H 0.82423 0.17251 0.85392
 H1321 H 0.77005 0.14529 0.87377
 H1322 H 0.75694 0.14393 0.93545
 H1323 H 0.86748 0.21335 1.02481
 H1324 H 0.81561 0.18479 1.04392
 C1325 C 0.34469 0.73243 0.48976
 C1326 C 0.35895 0.72070 0.45711
 C1327 C 0.34287 0.69266 0.43770
 C1328 C 0.31488 0.67441 0.45143
 C1329 C 0.30236 0.68359 0.48498
 C1330 C 0.31633 0.71350 0.50392
 C1331 C 0.35787 0.76261 0.50860
 C1332 C 0.34392 0.77334 0.54101
 C1333 C 0.31650 0.75451 0.55508
 C1334 C 0.30266 0.72495 0.53674
 H1335 H 0.37869 0.77840 0.49829
 H1336 H 0.35431 0.79651 0.55518
 H1337 H 0.30567 0.76305 0.58016
 H1338 H 0.28084 0.71154 0.54812
 H1339 H 0.35324 0.68359 0.41256
 H1340 H 0.30441 0.65150 0.43680
 C1341 C 0.65534 0.78789 0.45778
 C1342 C 0.62775 0.80113 0.47802
 C1343 C 0.63446 0.82515 0.50641
 C1344 C 0.66759 0.83823 0.51329
 C1345 C 0.69472 0.82786 0.49169
 C1346 C 0.68918 0.80112 0.46501
 C1347 C 0.64997 0.76305 0.42938
 C1348 C 0.67741 0.75062 0.40962
 C1349 C 0.71059 0.76286 0.41739
 C1350 C 0.71654 0.78797 0.44469
 H1351 H 0.62470 0.75290 0.42212
 H1352 H 0.67289 0.73139 0.38814
 H1353 H 0.73181 0.75302 0.40205
 H1354 H 0.74271 0.79684 0.44982
 H1355 H 0.61354 0.83566 0.52180
 H1356 H 0.67162 0.85863 0.53380
 C1357 C 0.12316 0.34452 -0.00641
 C1358 C 0.11997 0.30877 -0.01795
 C1359 C 0.14922 0.28842 -0.01921
 C1360 C 0.18158 0.30337 -0.01161
 C1361 C 0.18567 0.33911 -0.00250
 C1362 C 0.15624 0.35968 0.00143
 C1363 C 0.09452 0.36614 -0.00439
 C1364 C 0.09828 0.40149 0.00604
 C1365 C 0.13055 0.41614 0.01404
 C1366 C 0.15927 0.39557 0.01148
 H1367 H 0.06902 0.35618 -0.01094
 H1368 H 0.07607 0.41767 0.00767
 H1369 H 0.13339 0.44364 0.02194
 H1370 H 0.18388 0.40790 0.01729
 H1371 H 0.14720 0.26118 -0.02837
 H1372 H 0.20379 0.28751 -0.01569
 C1373 C 0.33309 0.28267 0.05902
 C1374 C 0.36579 0.29999 0.05809
 C1375 C 0.36968 0.33047 0.03919
 C1376 C 0.34226 0.34425 0.02194
 C1377 C 0.30962 0.32771 0.02181
 C1378 C 0.30496 0.29630 0.04015
 C1379 C 0.32744 0.25264 0.07886
 C1380 C 0.29540 0.23548 0.07889
 C1381 C 0.26848 0.24787 0.05928
 C1382 C 0.27313 0.27794 0.04003
 H1383 H 0.34752 0.24225 0.09465
 H1384 H 0.29148 0.21234 0.09409
 H1385 H 0.24382 0.23416 0.05910
 H1386 H 0.25172 0.28647 0.02489
 H1387 H 0.39430 0.34427 0.03827
 H1388 H 0.34667 0.36883 0.00922
 C1389 C 0.83437 0.76784 0.55028
 C1390 C 0.86354 0.78711 0.56361
 C1391 C 0.86456 0.82367 0.56317
 C1392 C 0.83806 0.84125 0.54825
 C1393 C 0.80944 0.82288 0.53369
 C1394 C 0.80688 0.78599 0.53535
 C1395 C 0.83187 0.73103 0.55149
 C1396 C 0.80301 0.71252 0.53804
 C1397 C 0.77623 0.73026 0.52329
 C1398 C 0.77805 0.76669 0.52189
 H1399 H 0.85207 0.71637 0.56290
 H1400 H 0.80137 0.68426 0.53911
 H1401 H 0.75390 0.71574 0.51293
 H1402 H 0.75668 0.77955 0.51052
 H1403 H 0.88662 0.83869 0.57356
 H1404 H 0.84024 0.86953 0.54722
   
