data_POSCAR
  _audit_creation_date              2014-09-24
  _audit_creation_method            'ToBaCCo'
  _symmetry_space_group_name_H-M    'P1'
  _symmetry_Int_Tables_number       1
  _symmetry_cell_setting            triclinic
  loop_
  _symmetry_equiv_pos_as_xyz
 x,y,z
_cell_length_a 56.0735
_cell_length_b 56.1671
_cell_length_c 56.1132
_cell_angle_alpha 89.955300
_cell_angle_beta 90.075400
_cell_angle_gamma 89.871500
loop_
  _atom_site_label
  _atom_site_type_symbol
  _atom_site_fract_x
  _atom_site_fract_y
  _atom_site_fract_z
C1 C 0.25058 0.99522 -0.01705
 C2 C 0.25274 0.99521 0.00710
 C3 C 0.25468 1.01762 0.02099
 C4 C 0.25280 0.97297 0.02137
 C5 C 0.24930 0.97286 -0.03112
 C6 C 0.24968 1.01776 -0.03087
 C7 C 0.27358 1.03359 0.01731
 C8 C 0.27584 1.05386 0.03166
 C9 C 0.25926 1.05823 0.04986
 C10 C 0.24032 1.04240 0.05342
 C11 C 0.23809 1.02222 0.03913
 C12 C 0.27165 0.96877 0.03733
 C13 C 0.27072 0.94970 0.05323
 C14 C 0.25087 0.93466 0.05349
 C15 C 0.23223 0.93834 0.03722
 C16 C 0.23317 0.95745 0.02120
 C17 C 0.23050 0.96971 -0.04737
 C18 C 0.22986 0.94974 -0.06215
 C19 C 0.24808 0.93270 -0.06099
 C20 C 0.26679 0.93557 -0.04468
 C21 C 0.26745 0.95559 -0.02983
 C22 C 0.23196 1.03498 -0.02659
 C23 C 0.23132 1.05597 -0.04002
 C24 C 0.24826 1.05983 -0.05794
 C25 C 0.26578 1.04264 -0.06240
 C26 C 0.26645 1.02169 -0.04901
 H27 H 0.28678 1.03012 0.00367
 H28 H 0.29068 1.06584 0.02874
 H29 H 0.22738 1.04544 0.06745
 H30 H 0.22349 1.01003 0.04231
 H31 H 0.28683 0.98066 0.03785
 H32 H 0.28518 0.94709 0.06580
 H33 H 0.21826 0.96068 0.00935
 H34 H 0.21644 0.98290 -0.04877
 H35 H 0.21535 0.94778 -0.07477
 H36 H 0.28108 0.92259 -0.04375
 H37 H 0.28236 0.95792 -0.01778
 H38 H 0.21861 1.03207 -0.01298
 H39 H 0.21759 1.06910 -0.03653
 H40 H 0.27890 1.04539 -0.07629
 H41 H 0.28014 1.00856 -0.05267
 H42 H 0.21671 0.92689 0.03739
 C43 C 0.75127 0.49468 0.48002
 C44 C 0.75360 0.49462 0.50414
 C45 C 0.75356 0.47237 0.51840
 C46 C 0.75591 0.51698 0.51802
 C47 C 0.75062 0.51721 0.46616
 C48 C 0.74954 0.47233 0.46601
 C49 C 0.73378 0.45705 0.51839
 C50 C 0.73286 0.43784 0.53430
 C51 C 0.75169 0.43387 0.55029
 C52 C 0.77166 0.44873 0.54989
 C53 C 0.77256 0.46790 0.53409
 C54 C 0.73949 0.52176 0.53626
 C55 C 0.74211 0.54186 0.55059
 C56 C 0.76126 0.55735 0.54696
 C57 C 0.77766 0.55284 0.52868
 C58 C 0.77503 0.53268 0.51427
 C59 C 0.76725 0.52080 0.44784
 C60 C 0.76671 0.54166 0.43430
 C61 C 0.74944 0.55910 0.43880
 C62 C 0.73267 0.55560 0.45695
 C63 C 0.73319 0.53470 0.47053
 C64 C 0.76747 0.45483 0.46716
 C65 C 0.76627 0.43469 0.45252
 C66 C 0.74723 0.43197 0.43656
 C67 C 0.72926 0.44926 0.43552
 C68 C 0.73044 0.46934 0.45010
 H69 H 0.71875 0.46047 0.50673
 H70 H 0.71725 0.42652 0.53459
 H71 H 0.78626 0.44590 0.56223
 H72 H 0.78787 0.47963 0.53448
 H73 H 0.72472 0.50978 0.53950
 H74 H 0.72938 0.54513 0.56473
 H75 H 0.78811 0.52905 0.50055
 H76 H 0.78072 0.50747 0.44411
 H77 H 0.77969 0.54413 0.42023
 H78 H 0.71913 0.56892 0.46047
 H79 H 0.71993 0.53205 0.48428
 H80 H 0.78260 0.45703 0.47896
 H81 H 0.78037 0.42150 0.45334
 H82 H 0.71451 0.44739 0.42316
 H83 H 0.71654 0.48272 0.44883
 H84 H 0.79262 0.56466 0.52583
 C85 C 0.74776 0.98080 0.99330
 C86 C 0.74785 1.00500 0.99364
 C87 C 0.74685 1.01863 1.01626
 C88 C 0.74872 1.01950 0.97154
 C89 C 0.74974 0.96704 0.97082
 C90 C 0.74609 0.96658 1.01557
 C91 C 0.72860 1.03545 1.01958
 C92 C 0.72811 1.04954 1.04003
 C93 C 0.74593 1.04709 1.05734
 C94 C 0.76412 1.03024 1.05427
 C95 C 0.76462 1.01607 1.03377
 C96 C 0.73081 1.01778 0.95408
 C97 C 0.73046 1.03363 0.93480
 C98 C 0.74797 1.05130 0.93288
 C99 C 0.76612 1.05269 0.94994
 C100 C 0.76646 1.03694 0.96918
 C101 C 0.76937 0.96987 0.95551
 C102 C 0.77188 0.95526 0.93547
 C103 C 0.75487 0.93766 0.93064
 C104 C 0.73518 0.93499 0.94568
 C105 C 0.73266 0.94953 0.96568
 C106 C 0.76383 0.94966 1.02071
 C107 C 0.76238 0.93572 1.04126
 C108 C 0.74309 0.93842 1.05686
 C109 C 0.72523 0.95519 1.05179
 C110 C 0.72667 0.96915 1.03118
 H111 H 0.71485 1.03777 1.00620
 H112 H 0.71404 1.06261 1.04217
 H113 H 0.77809 1.02833 1.06749
 H114 H 0.77907 1.00349 1.03131
 H115 H 0.71671 1.00475 0.95583
 H116 H 0.71624 1.03250 0.92176
 H117 H 0.78030 1.03866 0.98255
 H118 H 0.78299 0.98293 0.95944
 H119 H 0.78728 0.95736 0.92403
 H120 H 0.72198 0.92137 0.94218
 H121 H 0.71752 0.94695 0.97736
 H122 H 0.77885 0.94732 1.00882
 H123 H 0.77628 0.92277 1.04490
 H124 H 0.71012 0.95736 1.06363
 H125 H 0.71259 0.98181 1.02729
 H126 H 0.77969 1.06633 0.94870
 C127 C 0.24727 0.48053 0.49550
 C128 C 0.24744 0.50474 0.49514
 C129 C 0.24656 0.51909 0.51734
 C130 C 0.24826 0.51860 0.47264
 C131 C 0.24881 0.46611 0.47337
 C132 C 0.24588 0.46701 0.51821
 C133 C 0.22834 0.53603 0.52019
 C134 C 0.22803 0.55090 0.54009
 C135 C 0.24600 0.54913 0.55732
 C136 C 0.26415 0.53214 0.55475
 C137 C 0.26448 0.51719 0.53479
 C138 C 0.23005 0.51676 0.45551
 C139 C 0.22961 0.53222 0.43591
 C140 C 0.24734 0.54959 0.43335
 C141 C 0.26581 0.55103 0.45006
 C142 C 0.26624 0.53569 0.46961
 C143 C 0.26807 0.46853 0.45753
 C144 C 0.27000 0.45354 0.43769
 C145 C 0.25279 0.43595 0.43360
 C146 C 0.23351 0.43362 0.44923
 C147 C 0.23157 0.44854 0.46902
 C148 C 0.26372 0.45029 0.52368
 C149 C 0.26262 0.43713 0.54476
 C150 C 0.24360 0.44040 0.56056
 C151 C 0.22563 0.45692 0.55516
 C152 C 0.22670 0.47012 0.53402
 H153 H 0.21448 0.53786 0.50685
 H154 H 0.21397 0.56405 0.54185
 H155 H 0.27823 0.53074 0.56791
 H156 H 0.27891 0.50453 0.53268
 H157 H 0.21579 0.50399 0.45778
 H158 H 0.21514 0.53107 0.42316
 H159 H 0.28031 0.53749 0.48273
 H160 H 0.28183 0.48162 0.46083
 H161 H 0.28508 0.45540 0.42579
 H162 H 0.22014 0.42003 0.44630
 H163 H 0.21670 0.44627 0.48111
 H164 H 0.27856 0.44754 0.51165
 H165 H 0.27656 0.42433 0.54870
 H166 H 0.21075 0.45948 0.56719
 H167 H 0.21255 0.48262 0.52991
 H168 H 0.27955 0.56446 0.44832
 C169 C 0.99329 0.24978 0.01951
 C170 C 0.99319 0.24972 -0.00473
 C171 C 1.01557 0.25095 -0.01876
 C172 C 0.97085 0.24881 -0.01893
 C173 C 0.97104 0.24775 0.03368
 C174 C 1.01585 0.25147 0.03332
 C175 C 1.01848 0.26933 -0.03547
 C176 C 1.03869 0.27008 -0.04991
 C177 C 1.05620 0.25238 -0.04793
 C178 C 1.05352 0.23404 -0.03119
 C179 C 1.03324 0.23328 -0.01669
 C180 C 0.95348 0.26679 -0.01711
 C181 C 0.93418 0.26734 -0.03300
 C182 C 0.93216 0.24994 -0.05082
 C183 C 0.94909 0.23165 -0.05220
 C184 C 0.96833 0.23113 -0.03642
 C185 C 0.95560 0.22825 0.03093
 C186 C 0.93579 0.22571 0.04589
 C187 C 0.93134 0.24256 0.06375
 C188 C 0.94652 0.26212 0.06636
 C189 C 0.96628 0.26467 0.05148
 C190 C 1.02147 0.23367 0.05000
 C191 C 1.04241 0.23504 0.06343
 C192 C 1.05794 0.25431 0.06046
 C193 C 1.05237 0.27225 0.04397
 C194 C 1.03137 0.27089 0.03052
 H195 H 1.00496 0.28300 -0.03742
 H196 H 1.04047 0.28431 -0.06284
 H197 H 1.06686 0.22013 -0.02958
 H198 H 1.03109 0.21874 -0.00420
 H199 H 0.95536 0.28083 -0.00404
 H200 H 0.92129 0.28169 -0.03180
 H201 H 0.98164 0.21724 -0.03821
 H202 H 0.95923 0.21474 0.01766
 H203 H 0.92424 0.21041 0.04382
 H204 H 0.94331 0.27521 0.08017
 H205 H 0.97806 0.27972 0.05400
 H206 H 1.00966 0.21864 0.05252
 H207 H 1.04641 0.22107 0.07617
 H208 H 1.06414 0.28735 0.04159
 H209 H 1.02714 0.28502 0.01806
 H210 H 0.94783 0.21812 -0.06591
 C211 C 0.49590 0.75031 0.49440
 C212 C 0.49609 0.75052 0.51862
 C213 C 0.47387 0.74882 0.53288
 C214 C 0.51870 0.75218 0.53232
 C215 C 0.51819 0.75129 0.48020
 C216 C 0.47347 0.74939 0.48039
 C217 C 0.46919 0.76606 0.55037
 C218 C 0.44928 0.76399 0.56513
 C219 C 0.43388 0.74458 0.56270
 C220 C 0.43831 0.72736 0.54519
 C221 C 0.45826 0.72942 0.53037
 C222 C 0.53433 0.77148 0.52927
 C223 C 0.55537 0.77282 0.54264
 C224 C 0.56084 0.75499 0.55926
 C225 C 0.54522 0.73587 0.56248
 C226 C 0.52424 0.73450 0.54915
 C227 C 0.53579 0.73354 0.48230
 C228 C 0.55588 0.73398 0.46753
 C229 C 0.55846 0.75208 0.45053
 C230 C 0.54108 0.76988 0.44856
 C231 C 0.52103 0.76946 0.46326
 C232 C 0.47063 0.73143 0.46323
 C233 C 0.45110 0.73173 0.44783
 C234 C 0.43422 0.75005 0.44929
 C235 C 0.43661 0.76775 0.46671
 C236 C 0.45619 0.76744 0.48223
 H237 H 0.48110 0.78104 0.55271
 H238 H 0.44609 0.77736 0.57867
 H239 H 0.42659 0.71217 0.54327
 H240 H 0.46183 0.71567 0.51733
 H241 H 0.53015 0.78551 0.51669
 H242 H 0.56726 0.78778 0.54013
 H243 H 0.51234 0.71958 0.55185
 H244 H 0.53369 0.71915 0.49497
 H245 H 0.56916 0.72003 0.46907
 H246 H 0.54284 0.78390 0.43541
 H247 H 0.50758 0.78319 0.46128
 H248 H 0.48387 0.71748 0.46144
 H249 H 0.44949 0.71801 0.43436
 H250 H 0.42372 0.78210 0.46788
 H251 H 0.45832 0.78168 0.49505
 H252 H 0.54923 0.72204 0.57536
 C253 C 0.00651 0.74866 0.00463
 C254 C -0.01768 0.75043 0.00421
 C255 C -0.03117 0.75111 -0.01857
 C256 C -0.03214 0.75151 0.02634
 C257 C 0.02037 0.74894 0.02715
 C258 C 0.02080 0.74677 -0.01755
 C259 C -0.02692 0.76889 -0.03567
 C260 C -0.04023 0.76951 -0.05678
 C261 C -0.05799 0.75246 -0.06086
 C262 C -0.06234 0.73480 -0.04378
 C263 C -0.04906 0.73418 -0.02274
 C264 C -0.04867 0.77009 0.02926
 C265 C -0.06379 0.77054 0.04900
 C266 C -0.06268 0.75233 0.06603
 C267 C -0.04606 0.73383 0.06338
 C268 C -0.03088 0.73339 0.04359
 C269 C 0.03657 0.73040 0.03175
 C270 C 0.05194 0.73160 0.05128
 C271 C 0.05140 0.75139 0.06638
 C272 C 0.03491 0.76974 0.06226
 C273 C 0.01944 0.76854 0.04269
 C274 C 0.01756 0.72782 -0.03356
 C275 C 0.03226 0.72564 -0.05359
 C276 C 0.05037 0.74233 -0.05769
 C277 C 0.05352 0.76130 -0.04183
 C278 C 0.03888 0.76347 -0.02187
 H279 H -0.01349 0.78236 -0.03257
 H280 H -0.03678 0.78337 -0.06976
 H281 H -0.07609 0.72157 -0.04665
 H282 H -0.05268 0.72044 -0.00969
 H283 H -0.05003 0.78413 0.01608
 H284 H -0.07660 0.78492 0.05075
 H285 H -0.01859 0.71865 0.04142
 H286 H 0.03768 0.71526 0.01987
 H287 H 0.06469 0.71737 0.05423
 H288 H 0.03447 0.78522 0.07375
 H289 H 0.00738 0.78322 0.03916
 H290 H 0.00398 0.71454 -0.03029
 H291 H 0.02971 0.71078 -0.06564
 H292 H 0.06750 0.77429 -0.04471
 H293 H 0.04174 0.77811 -0.00965
 H294 H -0.04511 0.71953 0.07634
 C295 C 0.50379 0.24943 0.50626
 C296 C 0.47963 0.25158 0.50656
 C297 C 0.46591 0.25303 0.52914
 C298 C 0.46543 0.25224 0.48419
 C299 C 0.51736 0.24727 0.48367
 C300 C 0.51841 0.24943 0.52833
 C301 C 0.46749 0.23503 0.54650
 C302 C 0.45306 0.23591 0.56683
 C303 C 0.43687 0.25470 0.56991
 C304 C 0.43542 0.27275 0.55277
 C305 C 0.44979 0.27189 0.53249
 C306 C 0.44718 0.23553 0.48072
 C307 C 0.43343 0.23598 0.45996
 C308 C 0.43765 0.25323 0.44247
 C309 C 0.45570 0.27011 0.44587
 C310 C 0.46949 0.26969 0.46668
 C311 C 0.53545 0.26377 0.47870
 C312 C 0.54955 0.26126 0.45840
 C313 C 0.54585 0.24214 0.44287
 C314 C 0.52770 0.22568 0.44757
 C315 C 0.51352 0.22820 0.46793
 C316 C 0.51849 0.26908 0.54383
 C317 C 0.53474 0.27001 0.56280
 C318 C 0.55100 0.25134 0.56635
 C319 C 0.55052 0.23150 0.55131
 C320 C 0.53439 0.23057 0.53239
 H321 H 0.47945 0.22007 0.54403
 H322 H 0.45420 0.22174 0.57990
 H323 H 0.42289 0.28731 0.55490
 H324 H 0.44818 0.28584 0.51924
 H325 H 0.44369 0.22204 0.49407
 H326 H 0.41945 0.22290 0.45757
 H327 H 0.48319 0.28300 0.46922
 H328 H 0.53877 0.27850 0.49070
 H329 H 0.56360 0.27403 0.45499
 H330 H 0.52480 0.21073 0.43574
 H331 H 0.49993 0.21506 0.47170
 H332 H 0.50662 0.28400 0.54072
 H333 H 0.53506 0.28552 0.57425
 H334 H 0.56306 0.21700 0.55382
 H335 H 0.53472 0.21538 0.52052
 H336 H 0.45902 0.28364 0.43252
 C337 C 1.00445 0.01723 0.25181
 C338 C 1.00447 -0.00698 0.25164
 C339 C 0.98208 -0.02099 0.25265
 C340 C 1.02678 -0.02116 0.25071
 C341 C 1.02677 0.03133 0.25026
 C342 C 0.98192 0.03108 0.25322
 C343 C 0.97906 -0.03777 0.27095
 C344 C 0.95894 -0.05232 0.27143
 C345 C 0.94162 -0.05038 0.25354
 C346 C 0.94438 -0.03352 0.23530
 C347 C 0.96456 -0.01891 0.23483
 C348 C 1.04403 -0.01955 0.26882
 C349 C 1.06346 -0.03526 0.26914
 C350 C 1.06573 -0.05267 0.25137
 C351 C 1.04889 -0.05387 0.23298
 C352 C 1.02951 -0.03827 0.23269
 C353 C 1.04251 0.02875 0.23094
 C354 C 1.06250 0.04353 0.22896
 C355 C 1.06683 0.06105 0.24619
 C356 C 1.05132 0.06351 0.26555
 C357 C 1.03138 0.04880 0.26753
 C358 C 0.97660 0.04775 0.23533
 C359 C 0.95567 0.06119 0.23642
 C360 C 0.93988 0.05824 0.25548
 C361 C 0.94514 0.04178 0.27352
 C362 C 0.96613 0.02830 0.27245
 H363 H 0.99246 -0.03973 0.28475
 H364 H 0.95711 -0.06534 0.28558
 H365 H 0.93119 -0.03194 0.22125
 H366 H 0.96679 -0.00636 0.22035
 H367 H 1.04198 -0.00675 0.28310
 H368 H 1.07629 -0.03423 0.28356
 H369 H 1.01629 -0.03988 0.21870
 H370 H 1.03901 0.01573 0.21716
 H371 H 1.07430 0.04159 0.21382
 H372 H 1.05443 0.07706 0.27893
 H373 H 1.01937 0.05119 0.28245
 H374 H 0.98863 0.05024 0.22045
 H375 H 0.95183 0.07396 0.22243
 H376 H 0.93311 0.03948 0.28844
 H377 H 0.97014 0.01583 0.28664
 H378 H 1.05035 -0.06729 0.21917
 C379 C 0.50657 0.51975 0.75034
 C380 C 0.50657 0.49563 0.75252
 C381 C 0.52883 0.48132 0.75232
 C382 C 0.48413 0.48183 0.75485
 C383 C 0.48401 0.53365 0.74958
 C384 C 0.52900 0.53371 0.74885
 C385 C 0.54420 0.48150 0.73256
 C386 C 0.56341 0.46555 0.73145
 C387 C 0.56733 0.44933 0.75005
 C388 C 0.55243 0.44955 0.77001
 C389 C 0.53326 0.46539 0.77112
 C390 C 0.47934 0.46354 0.73850
 C391 C 0.45921 0.44925 0.74119
 C392 C 0.44368 0.45296 0.76032
 C393 C 0.44820 0.47128 0.77664
 C394 C 0.46840 0.48565 0.77395
 C395 C 0.48031 0.55197 0.76619
 C396 C 0.45942 0.56553 0.76553
 C397 C 0.44205 0.56106 0.74818
 C398 C 0.44567 0.54292 0.73143
 C399 C 0.46661 0.52932 0.73206
 C400 C 0.54646 0.53231 0.76681
 C401 C 0.56663 0.54693 0.76590
 C402 C 0.56947 0.56313 0.74711
 C403 C 0.55223 0.56442 0.72910
 C404 C 0.53210 0.54986 0.72999
 H405 H 0.54081 0.49333 0.71768
 H406 H 0.57476 0.46541 0.71584
 H407 H 0.55523 0.43703 0.78445
 H408 H 0.52150 0.46486 0.78640
 H409 H 0.49135 0.46023 0.72375
 H410 H 0.45594 0.43508 0.72852
 H411 H 0.47202 0.49939 0.78698
 H412 H 0.49358 0.55567 0.77972
 H413 H 0.45685 0.57959 0.77851
 H414 H 0.43242 0.53942 0.71782
 H415 H 0.46934 0.51558 0.71882
 H416 H 0.54418 0.52034 0.78176
 H417 H 0.57977 0.54591 0.78003
 H418 H 0.55417 0.57695 0.71454
 H419 H 0.51877 0.55134 0.71607
 H420 H 0.43636 0.47420 0.79160
 C421 C 1.02019 1.00682 0.74895
 C422 C 0.99593 1.00674 0.74881
 C423 C 0.98208 0.98429 0.74767
 C424 C 0.98155 1.02895 0.74953
 C425 C 1.03414 1.02917 0.75100
 C426 C 1.03423 0.98440 0.74746
 C427 C 0.96545 0.98113 0.72923
 C428 C 0.95111 0.96088 0.72861
 C429 C 0.95312 0.94362 0.74648
 C430 C 0.96979 0.94652 0.76486
 C431 C 0.98421 0.96683 0.76550
 C432 C 0.98347 1.04630 0.73158
 C433 C 0.96762 1.06561 0.73100
 C434 C 0.94973 1.06768 0.74834
 C435 C 0.94820 1.05074 0.76657
 C436 C 0.96395 1.03148 0.76713
 C437 C 1.03108 1.04466 0.77043
 C438 C 1.04569 1.06468 0.77291
 C439 C 1.06353 1.06930 0.75607
 C440 C 1.06648 1.05403 0.73661
 C441 C 1.05193 1.03406 0.73412
 C442 C 1.05092 0.97908 0.76537
 C443 C 1.06457 0.95829 0.76417
 C444 C 1.06182 0.94261 0.74497
 C445 C 1.04532 0.94789 0.72691
 C446 C 1.03164 0.96873 0.72810
 H447 H 0.96346 0.99448 0.71542
 H448 H 0.93818 0.95886 0.71438
 H449 H 0.97136 0.93333 0.77888
 H450 H 0.99664 0.96917 0.78009
 H451 H 0.99664 1.04442 0.71761
 H452 H 0.96894 1.07852 0.71669
 H453 H 0.96208 1.01820 0.78100
 H454 H 1.01780 1.04094 0.78391
 H455 H 1.04338 1.07630 0.78814
 H456 H 1.08028 1.05737 0.72353
 H457 H 1.05468 1.02224 0.71912
 H458 H 1.05327 0.99100 0.78035
 H459 H 1.07732 0.95451 0.77822
 H460 H 1.04310 0.93601 0.71186
 H461 H 1.01918 0.97275 0.71389
 H462 H 0.93443 1.05204 0.78006
 C463 C 0.51797 0.50454 0.24752
 C464 C 0.49372 0.50476 0.24772
 C465 C 0.47956 0.48248 0.24698
 C466 C 0.47966 0.52716 0.24843
 C467 C 0.53222 0.52672 0.24931
 C468 C 0.53170 0.48195 0.24587
 C469 C 0.46252 0.47944 0.22890
 C470 C 0.44784 0.45943 0.22873
 C471 C 0.44992 0.44228 0.24671
 C472 C 0.46701 0.44505 0.26473
 C473 C 0.48176 0.46512 0.26491
 C474 C 0.48158 0.54428 0.23025
 C475 C 0.46596 0.56377 0.22967
 C476 C 0.44835 0.56623 0.24721
 C477 C 0.44683 0.54954 0.26565
 C478 C 0.46234 0.53010 0.26623
 C479 C 0.52958 0.54231 0.26872
 C480 C 0.54445 0.56218 0.27095
 C481 C 0.56213 0.56654 0.25387
 C482 C 0.56466 0.55116 0.23442
 C483 C 0.54986 0.53134 0.23219
 C484 C 0.54863 0.47649 0.26351
 C485 C 0.56200 0.45554 0.26213
 C486 C 0.55872 0.43987 0.24303
 C487 C 0.54198 0.44525 0.22526
 C488 C 0.52857 0.46626 0.22661
 H489 H 0.46046 0.49272 0.21503
 H490 H 0.43460 0.45751 0.21478
 H491 H 0.46864 0.43195 0.27882
 H492 H 0.49451 0.46738 0.27924
 H493 H 0.49453 0.54208 0.21612
 H494 H 0.46718 0.57651 0.21522
 H495 H 0.46048 0.51699 0.28027
 H496 H 0.51643 0.53879 0.28238
 H497 H 0.54245 0.57387 0.28616
 H498 H 0.57833 0.55430 0.22116
 H499 H 0.55229 0.51944 0.21720
 H500 H 0.55139 0.48842 0.27841
 H501 H 0.57497 0.45160 0.27592
 H502 H 0.53941 0.43332 0.21032
 H503 H 0.51591 0.47037 0.21261
 H504 H 0.43323 0.55121 0.27925
 O505 O 0.26208 0.18881 0.20276
 O506 O 0.28769 0.18122 0.23624
 O507 O 0.19906 0.21653 0.23717
 O508 O 0.19012 0.24694 0.26118
 O509 O 0.22848 0.25181 0.17512
 O510 O 0.26187 0.27790 0.16959
 O511 O 0.26036 0.28125 0.29976
 O512 O 0.23255 0.24893 0.30467
 O513 O 0.32206 0.24978 0.27125
 O514 O 0.32967 0.22307 0.23704
 O515 O 0.29372 0.31096 0.24016
 O516 O 0.25987 0.31882 0.21240
 O517 O 0.26107 0.31043 0.27161
 O518 O 0.23444 0.31850 0.23756
 O519 O 0.32242 0.28225 0.23980
 O520 O 0.32999 0.24880 0.21199
 O521 O 0.29302 0.25009 0.29955
 O522 O 0.26442 0.22257 0.30624
 O523 O 0.26221 0.21817 0.17473
 O524 O 0.28820 0.25136 0.16915
 O525 O 0.19953 0.25069 0.20353
 O526 O 0.19344 0.27724 0.23755
 O527 O 0.22781 0.18789 0.23561
 O528 O 0.26187 0.17982 0.26172
 Zr529 Zr 0.26012 0.20696 0.23557
 O530 O 0.28194 0.22689 0.25868
 Zr531 Zr 0.21817 0.24873 0.23609
 O532 O 0.23827 0.27053 0.25913
 Zr533 Zr 0.26054 0.24982 0.19467
 O534 O 0.28257 0.27151 0.21591
 Zr535 Zr 0.26107 0.24943 0.28001
 O536 O 0.23880 0.22713 0.25911
 Zr537 Zr 0.30336 0.25011 0.23867
 O538 O 0.28340 0.22824 0.21531
 Zr539 Zr 0.26136 0.29205 0.23895
 O540 O 0.23914 0.27226 0.21574
 O541 O 0.23818 0.22720 0.21357
 O542 O 0.28353 0.27208 0.26113
 C543 C 0.26290 0.19624 0.18112
 C544 C 0.20600 0.19474 0.23680
 C545 C 0.20660 0.25210 0.18183
 C546 C 0.26063 0.30317 0.29328
 C547 C 0.31492 0.25006 0.29297
 C548 C 0.31554 0.30401 0.24041
 H549 H 0.29147 0.21593 0.26869
 H550 H 0.29255 0.28156 0.20547
 H551 H 0.22811 0.21728 0.20304
 H552 H 0.22739 0.28003 0.26921
 H553 H 0.22215 0.23541 0.30020
 H554 H 0.19582 0.25472 0.27592
 H555 H 0.32692 0.26198 0.20068
 H556 H 0.30088 0.24043 0.17481
 H557 H 0.25532 0.20874 0.30037
 H558 H 0.24809 0.18201 0.27249
 H559 H 0.27323 0.31609 0.20124
 H560 H 0.25080 0.29036 0.17540
 H561 H 0.30040 0.18716 0.22557
 H562 H 0.32611 0.21129 0.24964
 H563 H 0.19849 0.28904 0.22547
 H564 H 0.22252 0.31471 0.24997
 O565 O 0.74716 0.82229 0.22531
 O566 O 0.72208 0.82930 0.25904
 O567 O 0.81097 0.79476 0.25860
 O568 O 0.82020 0.76448 0.28297
 O569 O 0.78147 0.75980 0.19692
 O570 O 0.74825 0.73359 0.19117
 O571 O 0.75058 0.72891 0.32143
 O572 O 0.77836 0.76120 0.32640
 O573 O 0.68868 0.75970 0.29351
 O574 O 0.68038 0.78688 0.25964
 O575 O 0.71724 0.69932 0.26125
 O576 O 0.75122 0.69213 0.23371
 O577 O 0.74972 0.70001 0.29303
 O578 O 0.77656 0.69241 0.25897
 O579 O 0.68826 0.72775 0.26140
 O580 O 0.68012 0.76156 0.23429
 O581 O 0.71794 0.75973 0.32166
 O582 O 0.74633 0.78755 0.32825
 O583 O 0.74729 0.79324 0.19702
 O584 O 0.72170 0.75978 0.19114
 O585 O 0.81064 0.76072 0.22520
 O586 O 0.81725 0.73415 0.25894
 O587 O 0.78191 0.82313 0.25752
 O588 O 0.74816 0.83041 0.28446
 Zr589 Zr 0.74980 0.80375 0.25786
 O590 O 0.72834 0.78335 0.28087
 Zr591 Zr 0.79217 0.76238 0.25779
 O592 O 0.77245 0.74014 0.28073
 Zr593 Zr 0.74949 0.76133 0.21658
 O594 O 0.72785 0.73919 0.23770
 Zr595 Zr 0.74965 0.76085 0.30189
 O596 O 0.77155 0.78357 0.28109
 Zr597 Zr 0.70701 0.76011 0.26077
 O598 O 0.72657 0.78244 0.23753
 Zr599 Zr 0.74941 0.71862 0.26048
 O600 O 0.77126 0.73888 0.23735
 O601 O 0.77175 0.78393 0.23557
 O602 O 0.72724 0.73814 0.28294
 C603 C 0.74627 0.81509 0.20362
 C604 C 0.80381 0.81648 0.25827
 C605 C 0.80341 0.75950 0.20353
 C606 C 0.75021 0.70707 0.31476
 C607 C 0.69601 0.75940 0.31518
 C608 C 0.69535 0.70603 0.26153
 H609 H 0.71877 0.79411 0.29103
 H610 H 0.71792 0.72917 0.22717
 H611 H 0.78159 0.79402 0.22498
 H612 H 0.78346 0.73063 0.29071
 H613 H 0.78864 0.77483 0.32203
 H614 H 0.81491 0.75594 0.29743
 H615 H 0.68335 0.74873 0.22266
 H616 H 0.70895 0.77053 0.19692
 H617 H 0.75556 0.80136 0.32254
 H618 H 0.76235 0.82846 0.29479
 H619 H 0.73794 0.69496 0.22243
 H620 H 0.75949 0.72116 0.19677
 H621 H 0.70915 0.82322 0.24869
 H622 H 0.68382 0.79843 0.27248
 H623 H 0.81202 0.72222 0.24706
 H624 H 0.78837 0.69608 0.27154
 O625 O 0.75062 0.18822 0.78152
 O626 O 0.72580 0.18101 0.74850
 O627 O 0.81334 0.21814 0.74834
 O628 O 0.82232 0.24947 0.72616
 O629 O 0.78291 0.25045 0.81164
 O630 O 0.74979 0.27574 0.81833
 O631 O 0.75052 0.28320 0.68745
 O632 O 0.77850 0.25207 0.68137
 O633 O 0.68954 0.25124 0.71592
 O634 O 0.68153 0.22460 0.74882
 O635 O 0.71813 0.31190 0.74826
 O636 O 0.75133 0.31963 0.77503
 O637 O 0.75010 0.31182 0.71614
 O638 O 0.77783 0.31844 0.75094
 O639 O 0.68939 0.28336 0.74795
 O640 O 0.68267 0.24845 0.77563
 O641 O 0.71822 0.25200 0.68727
 O642 O 0.74745 0.22430 0.68033
 O643 O 0.74977 0.21647 0.81061
 O644 O 0.72301 0.24985 0.81690
 O645 O 0.81212 0.25082 0.78348
 O646 O 0.81753 0.27902 0.74969
 O647 O 0.78515 0.18903 0.74892
 O648 O 0.75042 0.18211 0.72188
 Zr649 Zr 0.75235 0.20764 0.74956
 O650 O 0.72988 0.22816 0.72752
 Zr651 Zr 0.79367 0.24986 0.75061
 O652 O 0.77331 0.27181 0.72782
 Zr653 Zr 0.75115 0.24902 0.79186
 O654 O 0.72929 0.27166 0.77132
 Zr655 Zr 0.75047 0.25115 0.70658
 O656 O 0.77342 0.22876 0.72679
 Zr657 Zr 0.70846 0.25093 0.74821
 O658 O 0.72867 0.22803 0.77047
 Zr659 Zr 0.75031 0.29279 0.74860
 O660 O 0.77235 0.27243 0.77162
 O661 O 0.77392 0.22733 0.77229
 O662 O 0.72806 0.27339 0.72612
 C663 C 0.74950 0.19477 0.80338
 C664 C 0.80685 0.19627 0.74800
 C665 C 0.80482 0.25123 0.80519
 C666 C 0.75021 0.30495 0.69431
 C667 C 0.69639 0.25183 0.69415
 C668 C 0.69633 0.30514 0.74796
 H669 H 0.72028 0.21744 0.71737
 H670 H 0.71937 0.28146 0.78208
 H671 H 0.78410 0.21711 0.78250
 H672 H 0.78407 0.28154 0.71785
 H673 H 0.78968 0.23909 0.68565
 H674 H 0.81614 0.25594 0.71097
 H675 H 0.68473 0.26230 0.78631
 H676 H 0.71102 0.23816 0.81141
 H677 H 0.75858 0.21144 0.68493
 H678 H 0.76504 0.18364 0.71215
 H679 H 0.73952 0.31543 0.78740
 H680 H 0.76004 0.28890 0.81263
 H681 H 0.71235 0.18697 0.75824
 H682 H 0.68611 0.21205 0.73734
 H683 H 0.81305 0.28975 0.76294
 H684 H 0.78854 0.31619 0.73714
 O685 O 0.23904 0.80066 0.78309
 O686 O 0.26508 0.80752 0.75007
 O687 O 0.17655 0.77240 0.74768
 O688 O 0.16815 0.74153 0.72422
 O689 O 0.20472 0.73852 0.81118
 O690 O 0.23790 0.71231 0.81813
 O691 O 0.23966 0.70615 0.68810
 O692 O 0.21147 0.73806 0.68184
 O693 O 0.30021 0.73819 0.71726
 O694 O 0.30734 0.76515 0.75119
 O695 O 0.27118 0.67743 0.74922
 O696 O 0.23670 0.67049 0.77621
 O697 O 0.23955 0.67758 0.71689
 O698 O 0.21188 0.67040 0.75033
 O699 O 0.29989 0.70600 0.74931
 O700 O 0.30699 0.74001 0.77673
 O701 O 0.27177 0.73767 0.68829
 O702 O 0.24304 0.76481 0.68052
 O703 O 0.23868 0.77189 0.81172
 O704 O 0.26426 0.73863 0.81866
 O705 O 0.17632 0.73910 0.78212
 O706 O 0.17105 0.71169 0.74866
 O707 O 0.20529 0.80093 0.74935
 O708 O 0.24004 0.80828 0.72390
 Zr709 Zr 0.23762 0.78179 0.75064
 O710 O 0.25991 0.76126 0.72851
 Zr711 Zr 0.19567 0.74019 0.75001
 O712 O 0.21626 0.71781 0.72792
 Zr713 Zr 0.23720 0.73984 0.79242
 O714 O 0.25965 0.71756 0.77219
 Zr715 Zr 0.23948 0.73839 0.70716
 O716 O 0.21678 0.76121 0.72704
 Zr717 Zr 0.28092 0.73834 0.74946
 O718 O 0.26049 0.76083 0.77185
 Zr719 Zr 0.23889 0.69664 0.74911
 O720 O 0.21621 0.71704 0.77136
 O721 O 0.21522 0.76214 0.77253
 O722 O 0.26153 0.71602 0.72702
 C723 C 0.23958 0.79368 0.80489
 C724 C 0.18351 0.79416 0.74773
 C725 C 0.18297 0.73818 0.80400
 C726 C 0.23986 0.68439 0.69508
 C727 C 0.29351 0.73781 0.69538
 C728 C 0.29301 0.68425 0.74918
 H729 H 0.26965 0.77201 0.71852
 H730 H 0.26939 0.70769 0.78308
 H731 H 0.20497 0.77237 0.78261
 H732 H 0.20563 0.70813 0.71775
 H733 H 0.20080 0.75157 0.68577
 H734 H 0.17402 0.73313 0.70991
 H735 H 0.30382 0.72694 0.78810
 H736 H 0.27720 0.74915 0.81297
 H737 H 0.23328 0.77850 0.68569
 H738 H 0.22643 0.80602 0.71290
 H739 H 0.24974 0.67345 0.78771
 H740 H 0.22685 0.69984 0.81239
 H741 H 0.27770 0.80169 0.76098
 H742 H 0.30384 0.77693 0.73854
 H743 H 0.17587 0.70017 0.76114
 H744 H 0.20038 0.67386 0.73739
 O745 O 0.24833 0.32628 0.73261
 O746 O 0.22256 0.33280 0.76589
 O747 O 0.31145 0.29825 0.76698
 O748 O 0.32044 0.26745 0.79057
 O749 O 0.28299 0.26414 0.70397
 O750 O 0.24991 0.23806 0.69728
 O751 O 0.25003 0.23154 0.82749
 O752 O 0.27769 0.26373 0.83340
 O753 O 0.18860 0.26273 0.79892
 O754 O 0.18084 0.29032 0.76534
 O755 O 0.21775 0.20279 0.76638
 O756 O 0.25217 0.19600 0.73928
 O757 O 0.24972 0.20305 0.79867
 O758 O 0.27710 0.19593 0.76496
 O759 O 0.18875 0.23120 0.76641
 O760 O 0.18109 0.26540 0.73957
 O761 O 0.21736 0.26234 0.82758
 O762 O 0.24563 0.29011 0.83501
 O763 O 0.24885 0.29758 0.70396
 O764 O 0.22336 0.26423 0.69718
 O765 O 0.31172 0.26477 0.73270
 O766 O 0.31770 0.23761 0.76619
 O767 O 0.28241 0.32664 0.76577
 O768 O 0.24798 0.33360 0.79184
 Zr769 Zr 0.25031 0.30727 0.76496
 O770 O 0.22847 0.28654 0.78731
 Zr771 Zr 0.29270 0.26590 0.76503
 O772 O 0.27259 0.24335 0.78733
 Zr773 Zr 0.25072 0.26543 0.72311
 O774 O 0.22873 0.24298 0.74353
 Zr775 Zr 0.24941 0.26375 0.80838
 O776 O 0.27165 0.28675 0.78827
 Zr777 Zr 0.20749 0.26358 0.76652
 O778 O 0.22744 0.28624 0.74395
 Zr779 Zr 0.24992 0.22211 0.76639
 O780 O 0.27214 0.24269 0.74391
 O781 O 0.27268 0.28779 0.74277
 O782 O 0.22735 0.24131 0.78872
 C783 C 0.24775 0.31934 0.71081
 C784 C 0.30428 0.31998 0.76700
 C785 C 0.30482 0.26376 0.71090
 C786 C 0.24982 0.20980 0.82050
 C787 C 0.19555 0.26211 0.82071
 C788 C 0.19586 0.20949 0.76639
 H789 H 0.21871 0.29715 0.79745
 H790 H 0.21899 0.23311 0.73270
 H791 H 0.28273 0.29805 0.73256
 H792 H 0.28344 0.23371 0.79736
 H793 H 0.28808 0.27738 0.82937
 H794 H 0.31479 0.25902 0.80495
 H795 H 0.18448 0.25267 0.72788
 H796 H 0.21052 0.27491 0.70289
 H797 H 0.25516 0.30390 0.82978
 H798 H 0.26186 0.33147 0.80255
 H799 H 0.23905 0.19895 0.72785
 H800 H 0.26100 0.22552 0.70292
 H801 H 0.20983 0.32684 0.75522
 H802 H 0.18413 0.30178 0.77830
 H803 H 0.31274 0.22592 0.75396
 H804 H 0.28871 0.19944 0.77777
 O805 O 0.76575 0.68874 0.70245
 O806 O 0.79172 0.68141 0.73567
 O807 O 0.70329 0.71715 0.73750
 O808 O 0.69460 0.74803 0.76083
 O809 O 0.73224 0.75160 0.67444
 O810 O 0.76562 0.77740 0.66822
 O811 O 0.76544 0.78233 0.79833
 O812 O 0.73763 0.75016 0.80395
 O813 O 0.82676 0.75019 0.76950
 O814 O 0.83397 0.72322 0.73558
 O815 O 0.79830 0.81120 0.73819
 O816 O 0.76424 0.81884 0.71053
 O817 O 0.76588 0.81116 0.76981
 O818 O 0.73905 0.81895 0.73593
 O819 O 0.82690 0.78239 0.73784
 O820 O 0.83397 0.74858 0.71013
 O821 O 0.79804 0.75104 0.79812
 O822 O 0.76942 0.72373 0.80550
 O823 O 0.76579 0.71780 0.67411
 O824 O 0.79184 0.75079 0.66786
 O825 O 0.70356 0.75082 0.70314
 O826 O 0.69792 0.77788 0.73690
 O827 O 0.73188 0.68835 0.73591
 O828 O 0.76635 0.68043 0.76150
 Zr829 Zr 0.76427 0.70728 0.73507
 O830 O 0.78642 0.72741 0.75768
 Zr831 Zr 0.72250 0.74923 0.73553
 O832 O 0.74293 0.77121 0.75809
 Zr833 Zr 0.76444 0.74966 0.69368
 O834 O 0.78678 0.77154 0.71439
 Zr835 Zr 0.76587 0.75027 0.77896
 O836 O 0.74329 0.72782 0.75859
 Zr837 Zr 0.80771 0.75031 0.73716
 O838 O 0.78742 0.72822 0.71431
 Zr839 Zr 0.76587 0.79240 0.73741
 O840 O 0.74333 0.77242 0.71468
 O841 O 0.74216 0.72734 0.71307
 O842 O 0.78820 0.77262 0.75958
 C843 C 0.76643 0.69595 0.68073
 C844 C 0.71013 0.69531 0.73742
 C845 C 0.71043 0.75203 0.68136
 C846 C 0.76563 0.80416 0.79157
 C847 C 0.81986 0.75078 0.79128
 C848 C 0.82009 0.80418 0.73834
 H849 H 0.79602 0.71652 0.76771
 H850 H 0.79668 0.78143 0.70373
 H851 H 0.73192 0.71731 0.70280
 H852 H 0.73217 0.78086 0.76816
 H853 H 0.72712 0.73665 0.79975
 H854 H 0.70059 0.75567 0.77552
 H855 H 0.83101 0.76183 0.69889
 H856 H 0.80456 0.73992 0.67353
 H857 H 0.76017 0.70988 0.79993
 H858 H 0.75277 0.68280 0.77249
 H859 H 0.77759 0.81603 0.69937
 H860 H 0.75477 0.79004 0.67405
 H861 H 0.80433 0.68718 0.72478
 H862 H 0.83035 0.71144 0.74817
 H863 H 0.70282 0.78944 0.72453
 H864 H 0.72717 0.81530 0.74842
 O865 O 0.24910 0.68744 0.28260
 O866 O 0.22387 0.68084 0.24974
 O867 O 0.31145 0.71787 0.24924
 O868 O 0.32016 0.74949 0.22735
 O869 O 0.28185 0.74920 0.31334
 O870 O 0.24880 0.77430 0.32092
 O871 O 0.24811 0.78402 0.19018
 O872 O 0.27591 0.75292 0.18325
 O873 O 0.18736 0.75171 0.21880
 O874 O 0.17964 0.72449 0.25124
 O875 O 0.21638 0.81171 0.25201
 O876 O 0.24999 0.81894 0.27837
 O877 O 0.24797 0.81216 0.21934
 O878 O 0.27608 0.81819 0.25391
 O879 O 0.18761 0.78319 0.25162
 O880 O 0.18120 0.74770 0.27854
 O881 O 0.21573 0.75288 0.18986
 O882 O 0.24477 0.72531 0.18206
 O883 O 0.24868 0.71520 0.31216
 O884 O 0.22203 0.74845 0.31936
 O885 O 0.31070 0.75005 0.28482
 O886 O 0.31579 0.77867 0.25146
 O887 O 0.28324 0.68878 0.24963
 O888 O 0.24819 0.68235 0.22288
 Zr889 Zr 0.25048 0.70740 0.25096
 O890 O 0.22779 0.72833 0.22954
 Zr891 Zr 0.29186 0.74957 0.25220
 O892 O 0.27127 0.77194 0.23007
 Zr893 Zr 0.24985 0.74806 0.29396
 O894 O 0.22778 0.77107 0.27408
 Zr895 Zr 0.24817 0.75166 0.20876
 O896 O 0.27131 0.72889 0.22829
 Zr897 Zr 0.20665 0.75076 0.25087
 O898 O 0.22708 0.72745 0.27250
 Zr899 Zr 0.24854 0.79257 0.25148
 O900 O 0.27083 0.77179 0.27386
 O901 O 0.27235 0.72668 0.27375
 O902 O 0.22600 0.77359 0.22893
 C903 C 0.24826 0.69362 0.30457
 C904 C 0.30494 0.69602 0.24861
 C905 C 0.30367 0.75015 0.30661
 C906 C 0.24791 0.80565 0.19740
 C907 C 0.19398 0.75263 0.19698
 C908 C 0.19458 0.80495 0.25199
 H909 H 0.21807 0.71780 0.21931
 H910 H 0.21801 0.78067 0.28515
 H911 H 0.28265 0.71631 0.28367
 H912 H 0.28193 0.78183 0.22014
 H913 H 0.28707 0.73980 0.18715
 H914 H 0.31383 0.75635 0.21239
 H915 H 0.18347 0.76126 0.28954
 H916 H 0.20998 0.73683 0.31386
 H917 H 0.25582 0.71229 0.18636
 H918 H 0.26269 0.68403 0.21300
 H919 H 0.23834 0.81453 0.29082
 H920 H 0.25900 0.78755 0.31534
 H921 H 0.21056 0.68664 0.25976
 H922 H 0.18414 0.71209 0.23957
 H923 H 0.31141 0.78927 0.26485
 H924 H 0.28665 0.81614 0.23996
 O925 O 0.73596 0.29769 0.28279
 O926 O 0.76231 0.30403 0.25001
 O927 O 0.67396 0.26855 0.24705
 O928 O 0.66605 0.23724 0.22398
 O929 O 0.70119 0.23609 0.31157
 O930 O 0.73430 0.21006 0.31957
 O931 O 0.73821 0.20138 0.18977
 O932 O 0.71004 0.23301 0.18242
 O933 O 0.79819 0.23406 0.21918
 O934 O 0.80475 0.26173 0.25263
 O935 O 0.76878 0.17393 0.25233
 O936 O 0.73369 0.16745 0.27849
 O937 O 0.73784 0.17336 0.21909
 O938 O 0.70958 0.16667 0.25204
 O939 O 0.79743 0.20257 0.25223
 O940 O 0.80403 0.23728 0.27871
 O941 O 0.77019 0.23306 0.18981
 O942 O 0.74150 0.25987 0.18108
 O943 O 0.73515 0.26949 0.31197
 O944 O 0.76056 0.23641 0.32004
 O945 O 0.67325 0.23593 0.28206
 O946 O 0.66860 0.20786 0.24908
 O947 O 0.70260 0.29719 0.24864
 O948 O 0.73768 0.30411 0.22346
 Zr949 Zr 0.73496 0.27819 0.25072
 O950 O 0.75767 0.25729 0.22938
 Zr951 Zr 0.69313 0.23646 0.25026
 O952 O 0.71413 0.21372 0.22895
 Zr953 Zr 0.73396 0.23707 0.29331
 O954 O 0.75679 0.21448 0.27390
 Zr955 Zr 0.73763 0.23396 0.20817
 O956 O 0.71454 0.25709 0.22722
 Zr957 Zr 0.77839 0.23485 0.25109
 O958 O 0.75754 0.25771 0.27270
 Zr959 Zr 0.73647 0.19304 0.25092
 O960 O 0.71338 0.21380 0.27238
 O961 O 0.71226 0.25891 0.27265
 O962 O 0.75944 0.21202 0.22880
 C963 C 0.73621 0.29113 0.30472
 C964 C 0.68086 0.29033 0.24683
 C965 C 0.67956 0.23550 0.30405
 C966 C 0.73842 0.17976 0.19716
 C967 C 0.79182 0.23337 0.19721
 C968 C 0.79058 0.18081 0.25268
 H969 H 0.76752 0.26787 0.21934
 H970 H 0.76635 0.20489 0.28519
 H971 H 0.70185 0.26932 0.28237
 H972 H 0.70371 0.20381 0.21880
 H973 H 0.69924 0.24654 0.18592
 H974 H 0.67212 0.22847 0.20998
 H975 H 0.80060 0.22458 0.29043
 H976 H 0.77358 0.24686 0.31439
 H977 H 0.73160 0.27362 0.18583
 H978 H 0.72417 0.30165 0.21238
 H979 H 0.74637 0.17078 0.29030
 H980 H 0.72323 0.19753 0.31400
 H981 H 0.77487 0.29838 0.26108
 H982 H 0.80144 0.27323 0.23967
 H983 H 0.67330 0.19657 0.26181
 H984 H 0.69824 0.16992 0.23891
 C985 C 0.26478 0.11191 0.09482
 N986 N 0.27995 0.11036 0.11362
 N987 N 0.28019 0.12726 0.13026
 C988 C 0.26523 0.14621 0.12865
 N989 N 0.25010 0.14779 0.10984
 N990 N 0.24986 0.13088 0.09319
 C991 C 0.26341 0.09293 0.07779
 C992 C 0.26168 0.07650 0.06407
 C993 C 0.26479 0.16391 0.14707
 C994 C 0.26408 0.17868 0.16262
 C995 C 0.76772 0.61213 0.59402
 N996 N 0.78199 0.60964 0.61340
 N997 N 0.78232 0.62632 0.63027
 C998 C 0.76832 0.64594 0.62830
 N999 N 0.75409 0.64845 0.60889
 N1000 N 0.75377 0.63177 0.59202
 C1001 C 0.76620 0.59345 0.57670
 C1002 C 0.76430 0.57728 0.56273
 C1003 C 0.76801 0.66349 0.64683
 C1004 C 0.76742 0.67825 0.66239
 C1005 C 0.74075 0.89586 0.11401
 N1006 N 0.72481 0.87777 0.11513
 N1007 N 0.72538 0.86239 0.13322
 C1008 C 0.74194 0.86462 0.15072
 N1009 N 0.75785 0.88273 0.14963
 N1010 N 0.75727 0.89811 0.13153
 C1011 C 0.74099 0.91161 0.09388
 C1012 C 0.74170 0.92442 0.07664
 C1013 C 0.74320 0.84747 0.16964
 C1014 C 0.74451 0.83280 0.18529
 C1015 C 0.24223 0.39910 0.62033
 N1016 N 0.26119 0.39902 0.63537
 N1017 N 0.26188 0.38409 0.65383
 C1018 C 0.24365 0.36877 0.65780
 N1019 N 0.22467 0.36888 0.64278
 N1020 N 0.22398 0.38381 0.62432
 C1021 C 0.24214 0.41420 0.59969
 C1022 C 0.24252 0.42641 0.58202
 C1023 C 0.24494 0.35185 0.67693
 C1024 C 0.24618 0.33722 0.69262
 C1025 C 0.74603 0.10356 0.88245
 N1026 N 0.76226 0.10408 0.86457
 N1027 N 0.76272 0.12228 0.84933
 C1028 C 0.74704 0.14057 0.85157
 N1029 N 0.73079 0.14004 0.86944
 N1030 N 0.73033 0.12183 0.88468
 C1031 C 0.74623 0.08450 0.89949
 C1032 C 0.74679 0.06898 0.91434
 C1033 C 0.74765 0.16014 0.83513
 C1034 C 0.74839 0.17624 0.82094
 C1035 C 0.24507 0.60154 0.38264
 N1036 N 0.22833 0.61896 0.38401
 N1037 N 0.22875 0.63728 0.36890
 C1038 C 0.24600 0.63879 0.35205
 N1039 N 0.26272 0.62135 0.35067
 N1040 N 0.26230 0.60304 0.36578
 C1041 C 0.24535 0.58249 0.39969
 C1042 C 0.24600 0.56706 0.41463
 C1043 C 0.24659 0.65852 0.33582
 C1044 C 0.24727 0.67481 0.32184
 C1045 C 0.24637 0.87822 0.89095
 N1046 N 0.22650 0.86467 0.88866
 N1047 N 0.22523 0.84796 0.87186
 C1048 C 0.24377 0.84433 0.85677
 N1049 N 0.26365 0.85786 0.85907
 N1050 N 0.26492 0.87457 0.87588
 C1051 C 0.24735 0.89686 0.90843
 C1052 C 0.24788 0.91293 0.92267
 C1053 C 0.24227 0.82654 0.83845
 C1054 C 0.24102 0.81159 0.82308
 C1055 C 0.74400 0.37695 0.38928
 N1056 N 0.72310 0.36539 0.38561
 N1057 N 0.72151 0.34846 0.36906
 C1058 C 0.74075 0.34263 0.35563
 N1059 N 0.76165 0.35417 0.35932
 N1060 N 0.76324 0.37110 0.37587
 C1061 C 0.74546 0.39579 0.40647
 C1062 C 0.74645 0.41203 0.42048
 C1063 C 0.73899 0.32457 0.33764
 C1064 C 0.73762 0.30936 0.32255
 C1065 C 0.11637 0.25653 0.10147
 N1066 N 0.11991 0.27473 0.11695
 N1067 N 0.13835 0.27433 0.13196
 C1068 C 0.15381 0.25572 0.13195
 N1069 N 0.15030 0.23755 0.11644
 N1070 N 0.13186 0.23795 0.10143
 C1071 C 0.09576 0.25628 0.08626
 C1072 C 0.07814 0.25561 0.07393
 C1073 C 0.17290 0.25468 0.14900
 C1074 C 0.18852 0.25359 0.16376
 C1075 C 0.62031 0.75703 0.60103
 N1076 N 0.63592 0.73855 0.60071
 N1077 N 0.65429 0.73799 0.61580
 C1078 C 0.65758 0.75587 0.63167
 N1079 N 0.64200 0.77438 0.63196
 N1080 N 0.62363 0.77494 0.61687
 C1081 C 0.59978 0.75691 0.58576
 C1082 C 0.58219 0.75633 0.57341
 C1083 C 0.67661 0.75469 0.64873
 C1084 C 0.69225 0.75352 0.66344
 C1085 C 0.09671 0.73697 0.88846
 N1086 N 0.09488 0.75144 0.86919
 N1087 N 0.11163 0.75117 0.85237
 C1088 C 0.13075 0.73647 0.85434
 N1089 N 0.13256 0.72196 0.87359
 N1090 N 0.11581 0.72223 0.89042
 C1091 C 0.07945 0.73827 0.90726
 C1092 C 0.06547 0.73990 0.92348
 C1093 C 0.14916 0.73677 0.83662
 C1094 C 0.16464 0.73730 0.82176
 C1095 C 0.59248 0.23562 0.38764
 N1096 N 0.61055 0.21958 0.38895
 N1097 N 0.62739 0.21904 0.37222
 C1098 C 0.62669 0.23457 0.35372
 N1099 N 0.60860 0.25058 0.35238
 N1100 N 0.59176 0.25112 0.36911
 C1101 C 0.57528 0.23724 0.40646
 C1102 C 0.56145 0.23915 0.42277
 C1103 C 0.64528 0.23460 0.33619
 C1104 C 0.66096 0.23489 0.32153
 C1105 C 0.88949 0.75345 0.11892
 N1106 N 0.87478 0.73466 0.12261
 N1107 N 0.85781 0.73575 0.13919
 C1108 C 0.85498 0.75568 0.15253
 N1109 N 0.86970 0.77446 0.14885
 N1110 N 0.88666 0.77337 0.13227
 C1111 C 0.90716 0.75265 0.10045
 C1112 C 0.92159 0.75232 0.08453
 C1113 C 0.83662 0.75694 0.17030
 C1114 C 0.82132 0.75808 0.18534
 C1115 C 0.38996 0.25691 0.62539
 N1116 N 0.38639 0.27753 0.63745
 N1117 N 0.36985 0.27885 0.65443
 C1118 C 0.35632 0.25961 0.65984
 N1119 N 0.35991 0.23897 0.64781
 N1120 N 0.37645 0.23765 0.63082
 C1121 C 0.40706 0.25579 0.60640
 C1122 C 0.42096 0.25512 0.59003
 C1123 C 0.33821 0.26114 0.67785
 C1124 C 0.32295 0.26239 0.69292
 C1125 C 0.88309 0.25285 0.89738
 N1126 N 0.88480 0.26962 0.88006
 N1127 N 0.86978 0.26954 0.86163
 C1128 C 0.85266 0.25261 0.85990
 N1129 N 0.85094 0.23585 0.87724
 N1130 N 0.86596 0.23593 0.89566
 C1131 C 0.89998 0.25227 0.91664
 C1132 C 0.91473 0.25138 0.93229
 C1133 C 0.83641 0.25243 0.84010
 C1134 C 0.82233 0.25202 0.82384
 C1135 C 0.38323 0.75195 0.39754
 N1136 N 0.37056 0.73205 0.39246
 N1137 N 0.35529 0.73185 0.37424
 C1138 C 0.35233 0.75149 0.36048
 N1139 N 0.36498 0.77141 0.36556
 N1140 N 0.38026 0.77161 0.38378
 C1141 C 0.40043 0.75178 0.41647
 C1142 C 0.41545 0.75123 0.43184
 C1143 C 0.33573 0.75125 0.34102
 C1144 C 0.32140 0.75084 0.32501
 C1145 C 0.12130 0.10877 0.24059
 N1146 N 0.12272 0.12355 0.22152
 N1147 N 0.13946 0.14034 0.22059
 C1148 C 0.15526 0.14289 0.23873
 N1149 N 0.15385 0.12809 0.25779
 N1150 N 0.13711 0.11131 0.25872
 C1151 C 0.10263 0.09138 0.24209
 C1152 C 0.08656 0.07724 0.24373
 C1153 C 0.17305 0.16122 0.23794
 C1154 C 0.18803 0.17659 0.23739
 C1155 C 0.62464 0.61033 0.74470
 N1156 N 0.62956 0.62442 0.76370
 N1157 N 0.64650 0.64097 0.76230
 C1158 C 0.65899 0.64400 0.74183
 N1159 N 0.65408 0.62990 0.72284
 N1160 N 0.63714 0.61334 0.72425
 C1161 C 0.60574 0.59316 0.74589
 C1162 C 0.58946 0.57918 0.74662
 C1163 C 0.67699 0.66208 0.74021
 C1164 C 0.69208 0.67729 0.73889
 C1165 C 0.89838 0.11721 0.74561
 N1166 N 0.88010 0.11476 0.72994
 N1167 N 0.86186 0.13001 0.73015
 C1168 C 0.86129 0.14812 0.74612
 N1169 N 0.87958 0.15058 0.76177
 N1170 N 0.89782 0.13533 0.76155
 C1171 C 0.91746 0.10013 0.74611
 C1172 C 0.93297 0.08524 0.74694
 C1173 C 0.84164 0.16455 0.74650
 C1174 C 0.82547 0.17872 0.74706
 C1175 C 0.39629 0.61693 0.24460
 N1176 N 0.37683 0.61331 0.23068
 N1177 N 0.35863 0.62860 0.23113
 C1178 C 0.35930 0.64792 0.24559
 N1179 N 0.37877 0.65155 0.25948
 N1180 N 0.39697 0.63626 0.25903
 C1181 C 0.41533 0.59983 0.24498
 C1182 C 0.43079 0.58490 0.24574
 C1183 C 0.33967 0.66433 0.24632
 C1184 C 0.32351 0.67849 0.24722
 C1185 C 0.10335 0.88457 0.74316
 N1186 N 0.11923 0.88129 0.72525
 N1187 N 0.13431 0.86291 0.72574
 C1188 C 0.13396 0.84726 0.74416
 N1189 N 0.11804 0.85051 0.76205
 N1190 N 0.10297 0.86889 0.76156
 C1191 C 0.08798 0.90505 0.74329
 C1192 C 0.07549 0.92255 0.74383
 C1193 C 0.15096 0.82813 0.74523
 C1194 C 0.16562 0.81242 0.74631
 C1195 C 0.60061 0.38048 0.24090
 N1196 N 0.61760 0.37801 0.22390
 N1197 N 0.63268 0.35964 0.22452
 C1198 C 0.63123 0.34320 0.24217
 N1199 N 0.61420 0.34564 0.25914
 N1200 N 0.59913 0.36401 0.25852
 C1201 C 0.58531 0.40099 0.24105
 C1202 C 0.57293 0.41855 0.24166
 C1203 C 0.64825 0.32414 0.24353
 C1204 C 0.66294 0.30849 0.24493
 C1205 C 0.88785 0.90296 0.25457
 N1206 N 0.88154 0.89097 0.23457
 N1207 N 0.86488 0.87410 0.23546
 C1208 C 0.85410 0.86866 0.25638
 N1209 N 0.86038 0.88067 0.27638
 N1210 N 0.87704 0.89754 0.27549
 C1211 C 0.90655 0.92032 0.25385
 C1212 C 0.92275 0.93439 0.25352
 C1213 C 0.83643 0.85026 0.25737
 C1214 C 0.82159 0.83478 0.25797
 C1215 C 0.38869 0.40614 0.76720
 N1216 N 0.39112 0.38690 0.78163
 N1217 N 0.37430 0.37018 0.78221
 C1218 C 0.35459 0.37216 0.76832
 N1219 N 0.35214 0.39142 0.75392
 N1220 N 0.36895 0.40815 0.75334
 C1221 C 0.40748 0.42335 0.76547
 C1222 C 0.42371 0.43723 0.76345
 C1223 C 0.33690 0.35375 0.76825
 C1224 C 0.32205 0.33827 0.76784
 C1225 C 0.11056 0.25461 0.90610
 N1226 N 0.12305 0.27506 0.90319
 N1227 N 0.13991 0.27657 0.88655
 C1228 C 0.14474 0.25769 0.87228
 N1229 N 0.13228 0.23724 0.87521
 N1230 N 0.11541 0.23573 0.89184
 C1231 C 0.09163 0.25339 0.92320
 C1232 C 0.07525 0.25271 0.93706
 C1233 C 0.16260 0.25943 0.85411
 C1234 C 0.17760 0.26078 0.83881
 C1235 C 0.61288 0.75336 0.40251
 N1236 N 0.62556 0.77362 0.39920
 N1237 N 0.64203 0.77484 0.38215
 C1238 C 0.64625 0.75584 0.36784
 N1239 N 0.63360 0.73556 0.37117
 N1240 N 0.61713 0.73435 0.38823
 C1241 C 0.59436 0.75247 0.42008
 C1242 C 0.57829 0.75206 0.43431
 C1243 C 0.66371 0.75726 0.34925
 C1244 C 0.67839 0.75835 0.33363
 C1245 C 0.90078 0.75347 0.88094
 N1246 N 0.89756 0.73323 0.86819
 N1247 N 0.88233 0.73282 0.84995
 C1248 C 0.86984 0.75264 0.84393
 N1249 N 0.87310 0.77290 0.85665
 N1250 N 0.88833 0.77331 0.87489
 C1251 C 0.91615 0.75351 0.90138
 C1252 C 0.92856 0.75321 0.91894
 C1253 C 0.85265 0.75193 0.82501
 C1254 C 0.83784 0.75134 0.80944
 C1255 C 0.39505 0.25334 0.38347
 N1256 N 0.39158 0.23285 0.37118
 N1257 N 0.37644 0.23224 0.35285
 C1258 C 0.36431 0.25211 0.34627
 N1259 N 0.36781 0.27261 0.35854
 N1260 N 0.38295 0.27321 0.37687
 C1261 C 0.41053 0.25369 0.40386
 C1262 C 0.42313 0.25369 0.42130
 C1263 C 0.34732 0.25126 0.32713
 C1264 C 0.33270 0.25062 0.31136
 C1265 C 0.10313 0.75499 0.11728
 N1266 N 0.12243 0.76907 0.11369
 N1267 N 0.14053 0.76884 0.12911
 C1268 C 0.13992 0.75444 0.14851
 N1269 N 0.12062 0.74039 0.15210
 N1270 N 0.10252 0.74062 0.13669
 C1271 C 0.08422 0.75434 0.10006
 C1272 C 0.06886 0.75330 0.08507
 C1273 C 0.15943 0.75400 0.16506
 C1274 C 0.17549 0.75344 0.17933
 C1275 C 0.60452 0.25382 0.61556
 N1276 N 0.60649 0.23648 0.63228
 N1277 N 0.62500 0.23615 0.64720
 C1278 C 0.64216 0.25306 0.64578
 N1279 N 0.64019 0.27042 0.62907
 N1280 N 0.62168 0.27075 0.61414
 C1281 C 0.58508 0.25359 0.59888
 C1282 C 0.56919 0.25288 0.58441
 C1283 C 0.66190 0.25277 0.66210
 C1284 C 0.67801 0.25237 0.67635
 C1285 C 0.87746 0.23547 0.11201
 N1286 N 0.88175 0.22425 0.13301
 N1287 N 0.86494 0.22332 0.14977
 C1288 C 0.84336 0.23363 0.14605
 N1289 N 0.83907 0.24481 0.12504
 N1290 N 0.85587 0.24575 0.10829
 C1291 C 0.89595 0.23742 0.09445
 C1292 C 0.91183 0.23950 0.08013
 C1293 C 0.82544 0.23318 0.16429
 C1294 C 0.81023 0.23311 0.17947
 C1295 C 0.37921 0.73904 0.61024
 N1296 N 0.35980 0.75337 0.60848
 N1297 N 0.34285 0.75277 0.62511
 C1298 C 0.34484 0.73785 0.64403
 N1299 N 0.36425 0.72349 0.64578
 N1300 N 0.38119 0.72409 0.62915
 C1301 C 0.39798 0.74047 0.59294
 C1302 C 0.41411 0.74210 0.57885
 C1303 C 0.32685 0.73761 0.66220
 C1304 C 0.31169 0.73762 0.67742
 C1305 C 0.24756 0.11932 0.90037
 N1306 N 0.26817 0.13122 0.89625
 N1307 N 0.26858 0.14964 0.88127
 C1308 C 0.24839 0.15672 0.86996
 N1309 N 0.22776 0.14485 0.87412
 N1310 N 0.22735 0.12643 0.88909
 C1311 C 0.24740 0.09878 0.91557
 C1312 C 0.24758 0.08119 0.92790
 C1313 C 0.24903 0.17584 0.85301
 C1314 C 0.24948 0.19155 0.83838
 C1315 C 0.74871 0.61797 0.39621
 N1316 N 0.76946 0.62920 0.39105
 N1317 N 0.76977 0.64734 0.37574
 C1318 C 0.74934 0.65479 0.36511
 N1319 N 0.72858 0.64359 0.37030
 N1320 N 0.72827 0.62545 0.38562
 C1321 C 0.74860 0.59768 0.41177
 C1322 C 0.74879 0.58029 0.42436
 C1323 C 0.74982 0.67362 0.34781
 C1324 C 0.75011 0.68908 0.33291
 C1325 C 0.74461 0.09351 0.11306
 N1326 N 0.76390 0.10713 0.11811
 N1327 N 0.76270 0.12382 0.13493
 C1328 C 0.74216 0.12744 0.14715
 N1329 N 0.72288 0.11379 0.14212
 N1330 N 0.72408 0.09710 0.12530
 C1331 C 0.74549 0.07647 0.09408
 C1332 C 0.74590 0.06271 0.07763
 C1333 C 0.74072 0.14579 0.16482
 C1334 C 0.73957 0.16131 0.17958
 C1335 C 0.24509 0.59756 0.61139
 N1336 N 0.26391 0.61225 0.61498
 N1337 N 0.26284 0.62930 0.63145
 C1338 C 0.24287 0.63224 0.64476
 N1339 N 0.22405 0.61753 0.64118
 N1340 N 0.22513 0.60048 0.62471
 C1341 C 0.24584 0.57990 0.59295
 C1342 C 0.24614 0.56554 0.57700
 C1343 C 0.24164 0.65073 0.66234
 C1344 C 0.24071 0.66620 0.67719
 C1345 C 0.76208 0.89000 0.87636
 N1346 N 0.74785 0.89127 0.85683
 N1347 N 0.74894 0.87448 0.84010
 C1348 C 0.76424 0.85588 0.84241
 N1349 N 0.77850 0.85462 0.86192
 N1350 N 0.77741 0.87142 0.87865
 C1351 C 0.76007 0.90742 0.89494
 C1352 C 0.75795 0.92155 0.91095
 C1353 C 0.76499 0.83753 0.82465
 C1354 C 0.76538 0.82219 0.80964
 C1355 C 0.25810 0.38808 0.37917
 N1356 N 0.24247 0.38871 0.36071
 N1357 N 0.24319 0.37207 0.34381
 C1358 C 0.25952 0.35424 0.34488
 N1359 N 0.27517 0.35362 0.36332
 N1360 N 0.27445 0.37027 0.38023
 C1361 C 0.25670 0.40546 0.39788
 C1362 C 0.25515 0.41965 0.41394
 C1363 C 0.26004 0.33613 0.32683
 C1364 C 0.26035 0.32099 0.31160
 C1365 C 0.24812 0.88534 0.10674
 N1366 N 0.22716 0.87718 0.11555
 N1367 N 0.22696 0.86215 0.13395
 C1368 C 0.24770 0.85496 0.14417
 N1369 N 0.26864 0.86313 0.13536
 N1370 N 0.26885 0.87815 0.11697
 C1371 C 0.24846 0.90201 0.08736
 C1372 C 0.24925 0.91653 0.07154
 C1373 C 0.24758 0.83827 0.16354
 C1374 C 0.24767 0.82375 0.17937
 C1375 C 0.74923 0.38405 0.60308
 N1376 N 0.76902 0.37107 0.60816
 N1377 N 0.76917 0.35602 0.62653
 C1378 C 0.74959 0.35360 0.64047
 N1379 N 0.72979 0.36657 0.63539
 N1380 N 0.72963 0.38162 0.61701
 C1381 C 0.74946 0.40091 0.58387
 C1382 C 0.75016 0.41557 0.56819
 C1383 C 0.74971 0.33709 0.66000
 C1384 C 0.74993 0.32276 0.67600
 C1385 C 0.11077 0.12397 0.76306
 N1386 N 0.10929 0.14340 0.74877
 N1387 N 0.12588 0.16032 0.74983
 C1388 C 0.14450 0.15828 0.76517
 N1389 N 0.14596 0.13887 0.77948
 N1390 N 0.12936 0.12195 0.77842
 C1391 C 0.09354 0.10521 0.76111
 C1392 C 0.07953 0.08908 0.75906
 C1393 C 0.16266 0.17623 0.76586
 C1394 C 0.17789 0.19135 0.76621
 C1395 C 0.60992 0.62082 0.26003
 N1396 N 0.60758 0.64089 0.24678
 N1397 N 0.62428 0.65772 0.24753
 C1398 C 0.64385 0.65497 0.26150
 N1399 N 0.64618 0.63491 0.27478
 N1400 N 0.62947 0.61808 0.27403
 C1401 C 0.59252 0.60219 0.25838
 C1402 C 0.57836 0.58617 0.25656
 C1403 C 0.66210 0.67284 0.26181
 C1404 C 0.67737 0.68791 0.26180
 C1405 C 0.11528 0.89609 0.25340
 N1406 N 0.13002 0.89266 0.23457
 N1407 N 0.14519 0.87436 0.23435
 C1408 C 0.14597 0.85887 0.25289
 N1409 N 0.13124 0.86231 0.27174
 N1410 N 0.11607 0.88061 0.27195
 C1411 C 0.09823 0.91515 0.25313
 C1412 C 0.08333 0.93063 0.25251
 C1413 C 0.16248 0.83934 0.25269
 C1414 C 0.17680 0.82332 0.25241
 C1415 C 0.61715 0.39647 0.74680
 N1416 N 0.63560 0.39589 0.76244
 N1417 N 0.65073 0.37757 0.76259
 C1418 C 0.64781 0.35920 0.74719
 N1419 N 0.62937 0.35977 0.73153
 N1420 N 0.61424 0.37811 0.73138
 C1421 C 0.60028 0.41570 0.74734
 C1422 C 0.58562 0.43140 0.74828
 C1423 C 0.66425 0.33958 0.74734
 C1424 C 0.67853 0.32351 0.74760
 C1425 C 0.88057 0.10028 0.25687
 N1426 N 0.86625 0.10151 0.23741
 N1427 N 0.84793 0.11666 0.23683
 C1428 C 0.84340 0.13104 0.25570
 N1429 N 0.85769 0.12978 0.27518
 N1430 N 0.87601 0.11463 0.27576
 C1431 C 0.90104 0.08493 0.25693
 C1432 C 0.91858 0.07251 0.25655
 C1433 C 0.82439 0.14813 0.25466
 C1434 C 0.80877 0.16286 0.25374
 C1435 C 0.38292 0.60346 0.74718
 N1436 N 0.37047 0.60721 0.76755
 N1437 N 0.35219 0.62241 0.76786
 C1438 C 0.34580 0.63432 0.74781
 N1439 N 0.35821 0.63054 0.72742
 N1440 N 0.37650 0.61535 0.72712
 C1441 C 0.40333 0.58800 0.74717
 C1442 C 0.42081 0.57547 0.74744
 C1443 C 0.32680 0.65147 0.74837
 C1444 C 0.31118 0.66624 0.74880
 C1445 C 0.90606 0.88851 0.74471
 N1446 N 0.90254 0.87632 0.72416
 N1447 N 0.88577 0.85960 0.72285
 C1448 C 0.87197 0.85463 0.74204
 N1449 N 0.87551 0.86679 0.76261
 N1450 N 0.89228 0.88351 0.76391
 C1451 C 0.92329 0.90729 0.74575
 C1452 C 0.93724 0.92356 0.74630
 C1453 C 0.85367 0.83691 0.74054
 C1454 C 0.83828 0.82202 0.73941
 C1455 C 0.40201 0.38787 0.24620
 N1456 N 0.38631 0.38526 0.26438
 N1457 N 0.36936 0.36871 0.26330
 C1458 C 0.36754 0.35434 0.24398
 N1459 N 0.38325 0.35693 0.22581
 N1460 N 0.40021 0.37348 0.22689
 C1461 C 0.41951 0.40642 0.24684
 C1462 C 0.43372 0.42248 0.24701
 C1463 C 0.34912 0.33674 0.24268
 C1464 C 0.33369 0.32189 0.24159
   
