data_POSCAR
  _audit_creation_date              2014-09-24
  _audit_creation_method            'ToBaCCo'
  _symmetry_space_group_name_H-M    'P1'
  _symmetry_Int_Tables_number       1
  _symmetry_cell_setting            triclinic
  loop_
  _symmetry_equiv_pos_as_xyz
 x,y,z
_cell_length_a 59.4634
_cell_length_b 59.4761
_cell_length_c 59.4229
_cell_angle_alpha 89.988700
_cell_angle_beta 89.974300
_cell_angle_gamma 89.999200
loop_
  _atom_site_label
  _atom_site_type_symbol
  _atom_site_fract_x
  _atom_site_fract_y
  _atom_site_fract_z
C1 C 0.35953 1.36038 0.33166
 N2 N 0.34082 1.36966 0.34089
 C3 C 0.33149 1.36041 0.35957
 N4 N 0.34080 1.34180 0.36895
 C5 C 0.35951 1.33252 0.35973
 N6 N 0.36883 1.34177 0.34105
 C7 C 0.35850 0.85934 0.83159
 N8 N 0.36776 0.84064 0.84085
 C9 C 0.35845 0.83133 0.85950
 N10 N 0.33981 0.84064 0.86883
 C11 C 0.33055 0.85933 0.85957
 N12 N 0.33987 0.86864 0.84092
 C13 C 0.85762 1.35855 0.82965
 N14 N 0.83886 1.36774 0.83885
 C15 C 0.82951 1.35842 0.85749
 N16 N 0.83888 1.33983 0.86686
 C17 C 0.85764 1.33064 0.85766
 N18 N 0.86698 1.33997 0.83903
 C19 C 0.85943 0.85921 0.33062
 N20 N 0.84073 0.86847 0.33986
 C21 C 0.83140 0.85919 0.35852
 N22 N 0.84070 0.84057 0.36787
 C23 C 0.85941 0.83130 0.35864
 N24 N 0.86874 0.84059 0.33998
 C25 C 0.63986 0.63991 0.33246
 N26 N 0.63064 0.65863 0.34170
 C27 C 0.64000 0.66796 0.36031
 N28 N 0.65865 0.65866 0.36960
 C29 C 0.66787 0.63994 0.36035
 N30 N 0.65851 0.63060 0.34175
 C31 C 0.64206 0.14096 0.83015
 N32 N 0.66077 0.13167 0.83937
 C33 C 0.67009 0.14092 0.85805
 N34 N 0.66077 0.15953 0.86743
 C35 C 0.64208 0.16881 0.85821
 N36 N 0.63276 0.15956 0.83954
 C37 C 1.13962 0.63966 0.83246
 N38 N 1.15824 0.63034 0.84179
 C39 C 1.16751 0.63960 0.86048
 N40 N 1.15823 0.65828 0.86976
 C41 C 1.13961 0.66760 0.86043
 N42 N 1.13034 0.65833 0.84174
 C43 C 1.14184 0.14063 0.33043
 N44 N 1.13255 0.15929 0.33971
 C45 C 1.14189 0.16867 0.35830
 N46 N 1.16060 0.15945 0.36756
 C47 C 1.16991 0.14079 0.35829
 N48 N 1.16056 0.13141 0.33969
 C49 C 0.64076 1.36066 0.66758
 N50 N 0.63171 1.34176 0.65856
 C51 C 0.64115 1.33229 0.64005
 N52 N 0.65973 1.34164 0.63065
 C53 C 0.66879 1.36054 0.63967
 N54 N 0.65935 1.37001 0.65818
 C55 C 0.64049 0.85951 1.16922
 N56 N 0.63119 0.84085 1.15995
 C57 C 0.64045 0.83155 1.14126
 N58 N 0.65908 0.84085 1.13191
 C59 C 0.66839 0.85951 1.14117
 N60 N 0.65913 0.86880 1.15986
 C61 C 1.14091 1.36002 1.16869
 N62 N 1.13160 1.34137 1.15939
 C63 C 1.14090 1.33205 1.14074
 N64 N 1.15959 1.34130 1.13146
 C65 C 1.16891 1.35994 1.14075
 N66 N 1.15960 1.36926 1.15940
 C67 C 1.14186 0.85890 0.66880
 N68 N 1.13260 0.84025 0.65947
 C69 C 1.14197 0.83095 0.64084
 N70 N 1.16068 0.84023 0.63161
 C71 C 1.16995 0.85888 0.64095
 N72 N 1.16057 0.86817 0.65958
 C73 C 0.35863 0.64066 0.66840
 N74 N 0.34000 0.63133 0.65911
 C75 C 0.33070 0.64057 0.64041
 N76 N 0.33999 0.65922 0.63108
 C77 C 0.35863 0.66855 0.64037
 N78 N 0.36791 0.65930 0.65906
 C79 C 0.35901 0.13998 1.16906
 N80 N 0.34030 0.13068 1.15985
 C81 C 0.33093 0.13996 1.14121
 N82 N 0.34019 0.15861 1.13186
 C83 C 0.35888 0.16791 1.14107
 N84 N 0.36825 0.15863 1.15970
 C85 C 0.85978 0.64025 1.16781
 N86 N 0.84120 0.63087 1.15848
 C87 C 0.83203 0.63998 1.13966
 N88 N 0.84137 0.65856 1.13026
 C89 C 0.85996 0.66795 1.13960
 N90 N 0.86912 0.65883 1.15841
 C91 C 0.85767 0.14139 0.67042
 N92 N 0.83897 0.13210 0.66118
 C93 C 0.82967 0.14134 0.64249
 N94 N 0.83900 0.15993 0.63309
 C95 C 0.85769 0.16922 0.64232
 N96 N 0.86699 0.15998 0.66101
 C97 C 1.35946 0.35849 0.66954
 N98 N 1.36877 0.33983 0.66025
 C99 C 1.35951 0.33054 0.64156
 N100 N 1.34088 0.33985 0.63224
 C101 C 1.33157 0.35851 0.64152
 N102 N 1.34083 0.36779 0.66020
 C103 C 1.35977 0.85839 1.16841
 N104 N 1.36902 0.83972 1.15911
 C105 C 1.35954 0.83029 1.14061
 N106 N 1.34074 0.83946 1.13149
 C107 C 1.33149 0.85813 1.14079
 N108 N 1.34097 0.86755 1.15929
 C109 C 0.86033 0.36034 1.16833
 N110 N 0.86962 0.34167 1.15904
 C111 C 0.86032 0.33236 1.14040
 N112 N 0.84165 0.34163 1.13111
 C113 C 0.83236 0.36029 1.14039
 N114 N 0.84166 0.36961 1.15904
 C115 C 0.86058 0.86023 0.66749
 N116 N 0.86985 0.84160 0.65813
 C117 C 0.86045 0.83228 0.63953
 N118 N 0.84169 0.84152 0.63038
 C119 C 0.83242 0.86015 0.63974
 N120 N 0.84182 0.86946 0.65834
 C121 C 0.64038 0.64040 0.66828
 N122 N 0.65903 0.63113 0.65895
 C123 C 0.66832 0.64047 0.64029
 N124 N 0.65903 0.65915 0.63105
 C125 C 0.64037 0.66842 0.64039
 N126 N 0.63109 0.65908 0.65904
 C127 C 0.64014 1.14101 1.16883
 N128 N 0.65877 1.13168 1.15951
 C129 C 0.66808 1.14095 1.14083
 N130 N 0.65882 1.15963 1.13153
 C131 C 0.64019 1.16897 1.14085
 N132 N 0.63089 1.15969 1.15953
 C133 C 0.14084 0.64191 1.16962
 N134 N 0.13162 0.66063 1.16037
 C135 C 0.14092 0.66993 1.14170
 N136 N 0.15952 0.66056 1.13234
 C137 C 0.16874 0.64184 1.14158
 N138 N 0.15943 0.63255 1.16025
 C139 C 0.13906 1.14001 0.66703
 N140 N 0.12982 1.15872 0.65779
 C141 C 0.13911 1.16803 0.63911
 N142 N 0.15773 1.15870 0.62977
 C143 C 0.16697 1.13999 0.63900
 N144 N 0.15768 1.13069 0.65767
 C145 C 1.35945 0.64084 0.33060
 N146 N 1.34083 0.63156 0.33999
 C147 C 1.33161 0.64086 0.35869
 N148 N 1.34094 0.65951 0.36794
 C149 C 1.35957 0.66880 0.35855
 N150 N 1.36879 0.65949 0.33985
 C151 C 1.35975 1.14132 0.83073
 N152 N 1.34109 1.13204 0.84005
 C153 C 1.33180 1.14133 0.85873
 N154 N 1.34111 1.15997 0.86802
 C155 C 1.35976 1.16927 0.85871
 N156 N 1.36905 1.15998 0.84003
 C157 C 0.85946 0.64054 0.83161
 N158 N 0.86881 0.65918 0.84087
 C159 C 0.85956 0.66852 0.85954
 N160 N 0.84090 0.65928 0.86889
 C161 C 0.83155 0.64064 0.85964
 N162 N 0.84079 0.63131 0.84096
 C163 C 0.86012 1.14078 0.33128
 N164 N 0.84146 1.13152 0.34063
 C165 C 0.83218 1.14084 0.35929
 N166 N 0.84149 1.15950 0.36854
 C167 C 0.86014 1.16878 0.35921
 N168 N 0.86942 1.15945 0.34054
 C169 C 0.64081 0.35821 0.33040
 N170 N 0.63159 0.33953 0.33975
 C171 C 0.64101 0.33024 0.35836
 N172 N 0.65971 0.33955 0.36755
 C173 C 0.66892 0.35822 0.35820
 N174 N 0.65951 0.36751 0.33959
 C175 C 0.63973 0.86016 0.83247
 N176 N 0.63047 0.84150 0.84180
 C177 C 0.63980 0.83222 0.86045
 N178 N 0.65849 0.84151 0.86969
 C179 C 0.66775 0.86017 0.86035
 N180 N 0.65841 0.86945 0.84171
 C181 C 0.13955 0.35930 0.83247
 N182 N 0.13033 0.34062 0.84180
 C183 C 0.13968 0.33137 0.86046
 N184 N 0.15833 0.34072 0.86971
 C185 C 0.16755 0.35940 0.86037
 N186 N 0.15819 0.36864 0.84172
 C187 C 0.13993 0.85998 0.33137
 N188 N 0.15865 0.86924 0.34055
 C189 C 0.16808 0.85991 0.35913
 N190 N 0.15886 0.84123 0.36845
 C191 C 0.14014 0.83195 0.35927
 N192 N 0.13071 0.84129 0.34070
 O193 O 0.97828 0.91917 0.88802
 O194 O 0.97826 0.89305 0.86168
 C195 C 0.97063 0.91135 0.86967
 C196 C 0.95234 0.92342 0.85783
 C197 C 0.94490 0.91622 0.83658
 H198 H 0.95293 0.90208 0.82834
 O199 O 1.02211 1.08145 0.88815
 O200 O 1.02220 1.10761 0.86184
 C201 C 1.02981 1.08930 0.86982
 C202 C 1.04813 1.07723 0.85799
 C203 C 1.05556 1.08440 0.83673
 H204 H 1.04750 1.09852 0.82847
 O205 O 0.88813 0.97844 0.91882
 O206 O 0.86184 0.97838 0.89265
 C207 C 0.86981 0.97076 0.91097
 C208 C 0.85799 0.95245 0.92305
 C209 C 0.83679 0.94495 0.91580
 H210 H 0.82858 0.95293 0.90161
 O211 O 1.11235 1.02218 0.91895
 O212 O 1.13865 1.02221 0.89276
 C213 C 1.13067 1.02985 0.91107
 C214 C 1.14247 1.04820 0.92309
 C215 C 1.16358 1.05584 0.91570
 H216 H 1.17175 1.04791 0.90145
 O217 O 0.91885 0.88841 0.97819
 O218 O 0.89270 0.86211 0.97817
 C219 C 0.91099 0.87009 0.97051
 C220 C 0.92301 0.85830 0.95214
 C221 C 0.91571 0.83714 0.94458
 H222 H 0.90153 0.82893 0.95257
 O223 O 1.08153 1.11212 0.97834
 O224 O 1.10765 1.13844 0.97831
 C225 C 1.08936 1.13045 0.97067
 C226 C 1.07729 1.14227 0.95234
 C227 C 1.08456 1.16346 0.94482
 H228 H 1.09873 1.17167 0.95282
 O229 O 0.91890 1.02232 0.88803
 O230 O 0.89278 1.02234 0.86170
 C231 C 0.91105 1.03001 0.86970
 C232 C 0.92304 1.04841 0.85794
 C233 C 0.91557 1.05619 0.83690
 H234 H 0.90128 1.04832 0.82875
 O235 O 1.08154 0.97833 0.88815
 O236 O 1.10769 0.97829 0.86183
 C237 C 1.08940 0.97065 0.86982
 C238 C 1.07739 0.95229 0.85803
 C239 C 1.08480 0.94463 0.83692
 H240 H 1.09905 0.95255 0.82875
 O241 O 1.02203 0.88829 0.91888
 O242 O 1.02203 0.86198 0.89272
 C243 C 1.02966 0.86994 0.91104
 C244 C 1.04793 0.85809 0.92312
 C245 C 1.05537 0.83686 0.91590
 H246 H 1.04735 0.82864 0.90174
 O247 O 0.97822 1.11227 0.91893
 O248 O 0.97827 1.13859 0.89279
 C249 C 0.97056 1.13059 0.91106
 C250 C 0.95212 1.14234 0.92302
 C251 C 0.94436 1.16336 0.91552
 H252 H 0.95228 1.17151 0.90125
 O253 O 0.88795 1.08144 0.97819
 O254 O 0.86168 1.10761 0.97820
 C255 C 0.86964 1.08933 0.97052
 C256 C 0.85786 1.07736 0.95211
 C257 C 0.83682 1.08482 0.94435
 H258 H 0.82866 1.09908 0.95225
 O259 O 1.11212 0.91886 0.97825
 O260 O 1.13841 0.89270 0.97818
 C261 C 1.13044 0.91100 0.97055
 C262 C 1.14226 0.92305 0.95221
 C263 C 1.16339 0.91569 0.94459
 H264 H 1.17155 0.90146 0.95254
 O265 O 0.97824 1.08155 0.88808
 O266 O 0.97828 1.10772 0.86178
 C267 C 0.97058 1.08944 0.86975
 C268 C 0.95218 1.07749 0.85795
 C269 C 0.94444 1.08500 0.83691
 H270 H 0.95234 1.09927 0.82877
 O271 O 1.02215 0.91910 0.88809
 O272 O 1.02218 0.89296 0.86177
 C273 C 1.02985 0.91123 0.86977
 C274 C 1.04826 0.92321 0.85800
 C275 C 1.05594 0.91581 0.83691
 H276 H 1.04801 0.90158 0.82872
 O277 O 1.11228 0.97831 0.91899
 O278 O 1.13860 0.97828 0.89282
 C279 C 1.13059 0.97062 0.91112
 C280 C 1.14235 0.95223 0.92314
 C281 C 1.16348 0.94460 0.91579
 H282 H 1.17170 0.95258 0.90160
 O283 O 0.88806 1.02228 0.91880
 O284 O 0.86179 1.02228 0.89262
 C285 C 0.86974 1.02994 0.91093
 C286 C 0.85792 1.04828 0.92295
 C287 C 0.83689 1.05600 0.91546
 H288 H 0.82878 1.04813 0.90116
 O289 O 0.91878 1.11219 0.97816
 O290 O 0.89266 1.13852 0.97818
 C291 C 0.91093 1.13052 0.97049
 C292 C 0.92294 1.14230 0.95209
 C293 C 0.91544 1.16332 0.94432
 H294 H 0.90113 1.17144 0.95218
 O295 O 1.08126 0.88812 0.97829
 O296 O 1.10738 0.86180 0.97822
 C297 C 1.08909 0.86980 0.97060
 C298 C 1.07701 0.85801 0.95227
 C299 C 1.08419 0.83678 0.94478
 H300 H 1.09832 0.82852 0.95281
 O301 O 1.08151 1.02218 0.88817
 O302 O 1.10764 1.02220 0.86182
 C303 C 1.08935 1.02984 0.86982
 C304 C 1.07727 1.04815 0.85799
 C305 C 1.08444 1.05559 0.83672
 H306 H 1.09857 1.04756 0.82846
 O307 O 0.91894 0.97847 0.88799
 O308 O 0.89283 0.97843 0.86165
 C309 C 0.91112 0.97080 0.86964
 C310 C 0.92321 0.95251 0.85782
 C311 C 0.91603 0.94504 0.83657
 H312 H 0.90188 0.95305 0.82832
 O313 O 1.02211 1.11222 0.91900
 O314 O 1.02221 1.13854 0.89286
 C315 C 1.02982 1.13054 0.91117
 C316 C 1.04816 1.14231 0.92323
 C317 C 1.05570 1.16350 0.91598
 H318 H 1.04770 1.17174 0.90182
 O319 O 0.97818 0.88839 0.91884
 O320 O 0.97813 0.86210 0.89267
 C321 C 0.97048 0.87009 0.91097
 C322 C 0.95213 0.85830 0.92300
 C323 C 0.94457 0.83715 0.91571
 H324 H 0.95256 0.82894 0.90151
 O325 O 1.11239 1.08140 0.97832
 O326 O 1.13867 1.10756 0.97829
 C327 C 1.13070 1.08928 0.97063
 C328 C 1.14249 1.07728 0.95224
 C329 C 1.16359 1.08466 0.94458
 H330 H 1.17178 1.09888 0.95253
 O331 O 0.88808 0.91921 0.97824
 O332 O 0.86177 0.89307 0.97824
 C333 C 0.86975 0.91136 0.97058
 C334 C 0.85795 0.92340 0.95223
 C335 C 0.83675 0.91615 0.94473
 H336 H 0.82851 0.90201 0.95276
 Cu337 Cu 1.00016 0.90636 0.90608
 Cu338 Cu 1.00015 0.87489 0.87457
 Cu339 Cu 1.00017 1.09425 0.90616
 Cu340 Cu 1.00026 1.12576 0.87469
 Cu341 Cu 0.90613 1.00037 0.90603
 Cu342 Cu 0.87468 1.00035 0.87451
 Cu343 Cu 1.09430 1.00026 0.90619
 Cu344 Cu 1.12579 1.00025 0.87467
 C345 C 0.94153 0.94172 0.86820
 H346 H 0.94697 0.94719 0.88471
 C347 C 0.92687 0.92702 0.82599
 C348 C 1.05896 1.05895 0.86838
 H349 H 1.05352 1.05350 0.88491
 C350 C 1.07358 1.07359 0.82612
 C351 C 0.86832 0.94170 0.94141
 H352 H 0.88480 0.94719 0.94691
 C353 C 0.82620 0.92692 0.92664
 C354 C 1.13217 1.05890 0.94152
 H355 H 1.11577 1.05330 0.94712
 C356 C 1.17410 1.07395 0.92643
 C357 C 0.94137 0.86864 0.94137
 H358 H 0.94691 0.88508 0.94691
 C359 C 0.92649 0.82660 0.92649
 C360 C 1.05894 1.13193 0.94157
 H361 H 1.05343 1.11546 0.94707
 C362 C 1.07377 1.17404 0.92676
 C363 C 0.94150 1.05905 0.86821
 H364 H 0.94717 1.05335 0.88457
 C365 C 0.92625 1.07436 0.82642
 C366 C 1.05896 0.94161 0.86832
 H367 H 1.05333 0.94722 0.88472
 C368 C 1.07409 0.92651 0.82640
 C369 C 1.05873 0.86842 0.94146
 H370 H 1.05329 0.88492 0.94693
 C371 C 1.07338 0.82624 0.92673
 C372 C 0.94143 1.13206 0.94146
 H373 H 0.94711 1.11571 0.94716
 C374 C 0.92614 1.17381 0.92615
 C375 C 0.86816 1.05893 0.94143
 H376 H 0.88451 1.05327 0.94710
 C377 C 0.82637 1.07415 0.92615
 C378 C 1.13198 0.94147 0.94150
 H379 H 1.11555 0.94704 0.94706
 C380 C 1.17396 0.92646 0.92651
 O381 O 1.02211 0.91899 1.11233
 O382 O 1.02205 0.89286 1.13867
 C383 C 1.02973 0.91115 1.13069
 C384 C 1.04803 0.92319 1.14254
 C385 C 1.05550 0.91594 1.16377
 H386 H 1.04748 0.90178 1.17199
 O387 O 0.97828 1.08142 1.11241
 O388 O 0.97824 1.10760 1.13870
 C389 C 0.97060 1.08930 1.13074
 C390 C 0.95225 1.07729 1.14256
 C391 C 0.94467 1.08461 1.16373
 H392 H 0.95266 1.09880 1.17193
 O393 O 0.88810 1.02227 1.08157
 O394 O 0.86180 1.02227 1.10775
 C395 C 0.86977 1.02992 1.08943
 C396 C 0.85794 1.04823 1.07738
 C397 C 0.83677 1.05577 1.08467
 H398 H 0.82857 1.04780 1.09889
 O399 O 1.11215 0.97818 1.08151
 O400 O 1.13844 0.97809 1.10768
 C401 C 1.13045 0.97046 1.08938
 C402 C 1.14220 0.95207 1.07736
 C403 C 1.16324 0.94432 1.08481
 H404 H 1.17139 0.95219 1.09910
 O405 O 1.08138 0.88802 1.02219
 O406 O 1.10752 0.86172 1.02217
 C407 C 1.08925 0.86971 1.02987
 C408 C 1.07727 0.85795 1.04830
 C409 C 1.08471 0.83689 1.05603
 H410 H 1.09894 0.82871 1.04810
 O411 O 0.91888 1.11211 1.02206
 O412 O 0.89277 1.13845 1.02214
 C413 C 0.91106 1.13043 1.02976
 C414 C 0.92314 1.14221 1.04809
 C415 C 0.91591 1.16340 1.05562
 H416 H 0.90175 1.17164 1.04762
 O417 O 0.91893 0.97839 1.11232
 O418 O 0.89278 0.97834 1.13865
 C419 C 0.91107 0.97069 1.13064
 C420 C 0.92308 0.95231 1.14241
 C421 C 0.91568 0.94464 1.16352
 H422 H 0.90146 0.95258 1.17171
 O423 O 1.08144 1.02210 1.11231
 O424 O 1.10759 1.02210 1.13862
 C425 C 1.08931 1.02978 1.13063
 C426 C 1.07731 1.04815 1.14243
 C427 C 1.08469 1.05579 1.16354
 H428 H 1.09892 1.04784 1.17172
 O429 O 0.97832 0.88827 1.08141
 O430 O 0.97821 0.86194 1.10756
 C431 C 0.97061 0.86995 1.08924
 C432 C 0.95231 0.85817 1.07714
 C433 C 0.94483 0.83693 1.08431
 H434 H 0.95285 0.82866 1.09844
 O435 O 1.02215 1.11218 1.08154
 O436 O 1.02215 1.13851 1.10766
 C437 C 1.02981 1.13051 1.08937
 C438 C 1.04817 1.14230 1.07733
 C439 C 1.05572 1.16346 1.08462
 H440 H 1.04772 1.17168 1.09880
 O441 O 0.88809 0.91916 1.02214
 O442 O 0.86180 0.89301 1.02219
 C443 C 0.86978 0.91130 1.02984
 C444 C 0.85799 0.92331 1.04822
 C445 C 0.83684 0.91599 1.05582
 H446 H 0.82864 0.90181 1.04784
 O447 O 1.11236 1.08136 1.02222
 O448 O 1.13865 1.10751 1.02226
 C449 C 1.13067 1.08922 1.02991
 C450 C 1.14246 1.07718 1.04828
 C451 C 1.16357 1.08453 1.05592
 H452 H 1.17177 1.09875 1.04799
 O453 O 1.02215 1.08138 1.11234
 O454 O 1.02217 1.10756 1.13863
 C455 C 1.02983 1.08926 1.13066
 C456 C 1.04820 1.07726 1.14245
 C457 C 1.05586 1.08464 1.16356
 H458 H 1.04792 1.09886 1.17176
 O459 O 0.97825 0.91900 1.11227
 O460 O 0.97813 0.89284 1.13858
 C461 C 0.97052 0.91114 1.13059
 C462 C 0.95216 0.92317 1.14237
 C463 C 0.94449 0.91577 1.16349
 H464 H 0.95241 0.90153 1.17166
 O465 O 1.11228 1.02204 1.08154
 O466 O 1.13859 1.02202 1.10769
 C467 C 1.13061 1.02969 1.08940
 C468 C 1.14243 1.04804 1.07738
 C469 C 1.16355 1.05564 1.08475
 H470 H 1.17172 1.04767 1.09897
 O471 O 0.88812 0.97842 1.08155
 O472 O 0.86181 0.97837 1.10772
 C473 C 0.86980 0.97073 1.08941
 C474 C 0.85800 0.95240 1.07737
 C475 C 0.83685 0.94482 1.08470
 H476 H 0.82865 0.95278 1.09891
 O477 O 1.08155 1.11214 1.02223
 O478 O 1.10768 1.13846 1.02225
 C479 C 1.08939 1.13046 1.02990
 C480 C 1.07732 1.14227 1.04824
 C481 C 1.08461 1.16343 1.05579
 H482 H 1.09881 1.17163 1.04781
 O483 O 0.91893 0.88842 1.02207
 O484 O 0.89280 0.86211 1.02211
 C485 C 0.91111 0.87008 1.02973
 C486 C 0.92319 0.85824 1.04802
 C487 C 0.91599 0.83700 1.05546
 H488 H 0.90184 0.82878 1.04742
 O489 O 1.08141 0.97826 1.11240
 O490 O 1.10754 0.97820 1.13873
 C491 C 1.08923 0.97059 1.13075
 C492 C 1.07715 0.95228 1.14257
 C493 C 1.08436 0.94477 1.16380
 H494 H 1.09852 0.95277 1.17204
 O495 O 0.91890 1.02225 1.11239
 O496 O 0.89275 1.02226 1.13873
 C497 C 0.91105 1.02991 1.13074
 C498 C 0.92310 1.04823 1.14256
 C499 C 0.91578 1.05581 1.16373
 H500 H 0.90157 1.04786 1.17193
 O501 O 0.97828 1.11208 1.08146
 O502 O 0.97823 1.13841 1.10758
 C503 C 0.97060 1.13040 1.08928
 C504 C 0.95226 1.14219 1.07721
 C505 C 0.94475 1.16339 1.08447
 H506 H 0.95276 1.17161 1.09864
 O507 O 1.02218 0.88814 1.08158
 O508 O 1.02213 0.86186 1.10776
 C509 C 1.02982 0.86982 1.08947
 C510 C 1.04820 0.85801 1.07747
 C511 C 1.05588 0.83695 1.08494
 H512 H 1.04797 0.82882 1.09922
 O513 O 1.11209 0.91888 1.02215
 O514 O 1.13838 0.89273 1.02214
 C515 C 1.13040 0.91101 1.02981
 C516 C 1.14218 0.92299 1.04820
 C517 C 1.16323 0.91552 1.05592
 H518 H 1.17137 0.90126 1.04800
 O519 O 0.88798 1.08142 1.02209
 O520 O 0.86171 1.10759 1.02216
 C521 C 0.86968 1.08929 1.02980
 C522 C 0.85789 1.07728 1.04819
 C523 C 0.83671 1.08456 1.05575
 H524 H 0.82848 1.09871 1.04774
 Cu525 Cu 1.00023 0.90622 1.09428
 Cu526 Cu 1.00012 0.87474 1.12578
 Cu527 Cu 1.00022 1.09414 1.09432
 Cu528 Cu 1.00019 1.12566 1.12578
 Cu529 Cu 0.90610 0.90642 1.00016
 Cu530 Cu 0.87463 0.87494 1.00019
 Cu531 Cu 1.09409 0.90609 1.00022
 Cu532 Cu 1.12556 0.87460 1.00016
 Cu533 Cu 0.90601 1.09416 1.00012
 Cu534 Cu 0.87457 1.12568 1.00018
 Cu535 Cu 1.09434 1.09413 1.00028
 Cu536 Cu 1.12580 1.12563 1.00028
 Cu537 Cu 0.90613 1.00034 1.09434
 Cu538 Cu 0.87465 1.00031 1.12586
 Cu539 Cu 1.09420 1.00015 1.09432
 Cu540 Cu 1.12568 1.00010 1.12582
 C541 C 1.05883 0.94152 1.13219
 H542 H 1.05336 0.94701 1.11570
 C543 C 1.07354 0.92673 1.17436
 C544 C 0.94148 1.05894 1.13223
 H545 H 0.94703 1.05339 1.11578
 C546 C 0.92656 1.07388 1.17428
 C547 C 0.86826 1.05897 1.05898
 H548 H 0.88472 1.05346 1.05345
 C549 C 0.82618 1.07381 1.07387
 C550 C 1.13192 0.94143 1.05890
 H551 H 1.11556 0.94710 1.05325
 C552 C 1.17371 0.92617 1.07410
 C553 C 1.05887 0.86826 1.05901
 H554 H 1.05324 0.88463 1.05335
 C555 C 1.07402 0.82642 1.07423
 C556 C 0.94148 1.13185 1.05887
 H557 H 0.94698 1.11538 1.05336
 C558 C 0.92670 1.17395 1.07368
 C559 C 0.94147 0.94159 1.13208
 H560 H 0.94708 0.94720 1.11566
 C561 C 0.92638 0.92650 1.17402
 C562 C 1.05891 1.05887 1.13213
 H563 H 1.05331 1.05328 1.11571
 C564 C 1.07398 1.07391 1.17407
 C565 C 0.94151 0.86858 1.05884
 H566 H 0.94697 0.88509 1.05340
 C567 C 0.92680 0.82638 1.07347
 C568 C 1.05895 1.13194 1.05898
 H569 H 1.05342 1.11550 1.05345
 C570 C 1.07382 1.17399 1.07386
 C571 C 0.86833 0.94167 1.05898
 H572 H 0.88477 0.94722 1.05342
 C573 C 0.82631 0.92674 1.07393
 C574 C 1.13213 1.05879 1.05899
 H575 H 1.11571 1.05322 1.05340
 C576 C 1.17408 1.07376 1.07404
 O577 O 1.08139 0.52148 0.61192
 O578 O 1.10746 0.52149 0.63831
 C579 C 1.08919 0.52913 0.63028
 C580 C 1.07709 0.54744 0.64209
 C581 C 1.08429 0.55493 0.66332
 H582 H 1.09845 0.54693 0.67157
 O583 O 0.91879 0.47756 0.61177
 O584 O 0.89259 0.47753 0.63805
 C585 C 0.91089 0.46987 0.63009
 C586 C 0.92286 0.45150 0.64190
 C587 C 0.91536 0.44378 0.66296
 H588 H 0.90106 0.45167 0.67108
 O589 O 1.02214 0.61166 0.58116
 O590 O 1.02215 0.63790 0.60738
 C591 C 1.02983 0.62994 0.58908
 C592 C 1.04825 0.64172 0.57712
 C593 C 1.05592 0.66280 0.58453
 H594 H 1.04797 0.67098 0.59876
 O595 O 0.97813 0.38759 0.58103
 O596 O 0.97810 0.36128 0.60719
 C597 C 0.97045 0.36928 0.58890
 C598 C 0.95207 0.35750 0.57689
 C599 C 0.94433 0.33647 0.58438
 H600 H 0.95221 0.32833 0.59867
 O601 O 1.11236 0.58084 0.52195
 O602 O 1.13870 0.60695 0.52196
 C603 C 1.13069 0.58867 0.52962
 C604 C 1.14247 0.57665 0.54800
 C605 C 1.16359 0.58399 0.55563
 H606 H 1.17179 0.59820 0.54768
 O607 O 0.88811 0.41830 0.52150
 O608 O 0.86178 0.39219 0.52152
 C609 C 0.86976 0.41049 0.52916
 C610 C 0.85792 0.42257 0.54747
 C611 C 0.83668 0.41537 0.55494
 H612 H 0.82844 0.40122 0.54693
 O613 O 0.97817 0.58083 0.61179
 O614 O 0.97809 0.60692 0.63816
 C615 C 0.97046 0.58865 0.63012
 C616 C 0.95209 0.57660 0.64189
 C617 C 0.94445 0.58391 0.66304
 H618 H 0.95238 0.59812 0.67125
 O619 O 1.02197 0.41839 0.61186
 O620 O 1.02199 0.39224 0.63817
 C621 C 1.02963 0.41054 0.63020
 C622 C 1.04795 0.42257 0.64203
 C623 C 1.05540 0.41532 0.66326
 H624 H 1.04735 0.40118 0.67149
 O625 O 1.11226 0.47765 0.58117
 O626 O 1.13850 0.47758 0.60739
 C627 C 1.13055 0.46995 0.58906
 C628 C 1.14235 0.45159 0.57704
 C629 C 1.16345 0.44394 0.58442
 H630 H 1.17163 0.45188 0.59866
 O631 O 0.88809 0.52147 0.58094
 O632 O 0.86175 0.52151 0.60708
 C633 C 0.86977 0.52917 0.58880
 C634 C 0.85802 0.54756 0.57679
 C635 C 0.83687 0.55515 0.58412
 H636 H 0.82864 0.54716 0.59829
 O637 O 0.91906 0.61175 0.52173
 O638 O 0.89291 0.63806 0.52174
 C639 C 0.91121 0.63008 0.52939
 C640 C 0.92326 0.64190 0.54771
 C641 C 0.91606 0.66313 0.55517
 H642 H 0.90193 0.67137 0.54713
 O643 O 1.08143 0.38766 0.52173
 O644 O 1.10755 0.36133 0.52173
 C645 C 1.08925 0.36932 0.52938
 C646 C 1.07717 0.35750 0.54771
 C647 C 1.08442 0.33631 0.55523
 H648 H 1.09859 0.32809 0.54723
 O649 O 0.91889 0.52142 0.61172
 O650 O 0.89271 0.52145 0.63802
 C651 C 0.91101 0.52910 0.63005
 C652 C 0.92302 0.54745 0.64186
 C653 C 0.91564 0.55503 0.66300
 H654 H 0.90144 0.54706 0.67119
 O655 O 1.08141 0.47764 0.61193
 O656 O 1.10747 0.47758 0.63832
 C657 C 1.08920 0.46996 0.63029
 C658 C 1.07710 0.45164 0.64208
 C659 C 1.08429 0.44412 0.66331
 H660 H 1.09844 0.45210 0.67156
 O661 O 1.02200 0.38761 0.58104
 O662 O 1.02203 0.36128 0.60719
 C663 C 1.02968 0.36928 0.58888
 C664 C 1.04803 0.35749 0.57683
 C665 C 1.05554 0.33630 0.58408
 H666 H 1.04752 0.32806 0.59825
 O667 O 0.97829 0.61171 0.58106
 O668 O 0.97823 0.63797 0.60726
 C669 C 0.97062 0.63003 0.58893
 C670 C 0.95234 0.64188 0.57685
 C671 C 0.94488 0.66311 0.58405
 H672 H 0.95290 0.67134 0.59821
 O673 O 0.88827 0.58096 0.52175
 O674 O 0.86196 0.60710 0.52178
 C675 C 0.86994 0.58881 0.52943
 C676 C 0.85811 0.57675 0.54775
 C677 C 0.83697 0.58408 0.55534
 H678 H 0.82880 0.59831 0.54740
 O679 O 1.11227 0.41841 0.52181
 O680 O 1.13855 0.39224 0.52182
 C681 C 1.13057 0.41052 0.52950
 C682 C 1.14236 0.42250 0.54790
 C683 C 1.16346 0.41512 0.55554
 H684 H 1.17165 0.40091 0.54758
 O685 O 0.97810 0.41832 0.61190
 O686 O 0.97807 0.39216 0.63820
 C687 C 0.97040 0.41044 0.63022
 C688 C 0.95199 0.42241 0.64198
 C689 C 0.94422 0.41496 0.66304
 H690 H 0.95211 0.40070 0.67122
 O691 O 1.02203 0.58078 0.61187
 O692 O 1.02200 0.60686 0.63826
 C693 C 1.02966 0.58858 0.63025
 C694 C 1.04796 0.57651 0.64207
 C695 C 1.05542 0.58375 0.66330
 H696 H 1.04739 0.59789 0.67153
 O697 O 0.88809 0.47762 0.58086
 O698 O 0.86173 0.47761 0.60698
 C699 C 0.86974 0.46997 0.58868
 C700 C 0.85792 0.45168 0.57658
 C701 C 0.83668 0.44423 0.58379
 H702 H 0.82844 0.45226 0.59794
 O703 O 1.11232 0.52150 0.58122
 O704 O 1.13855 0.52151 0.60744
 C705 C 1.13062 0.52917 0.58913
 C706 C 1.14244 0.54754 0.57713
 C707 C 1.16355 0.55515 0.58451
 H708 H 1.17173 0.54719 0.59874
 O709 O 0.91891 0.38752 0.52159
 O710 O 0.89274 0.36124 0.52164
 C711 C 0.91102 0.36923 0.52931
 C712 C 0.92299 0.35748 0.54774
 C713 C 0.91551 0.33645 0.55550
 H714 H 0.90125 0.32829 0.54760
 O715 O 1.08155 0.61160 0.52197
 O716 O 1.10773 0.63787 0.52200
 C717 C 1.08943 0.62990 0.52966
 C718 C 1.07741 0.64169 0.54803
 C719 C 1.08481 0.66277 0.55570
 H720 H 1.09907 0.67093 0.54777
 Cu721 Cu 1.09424 0.49957 0.59393
 Cu722 Cu 1.12563 0.49954 0.62551
 Cu723 Cu 0.90609 0.49951 0.59371
 Cu724 Cu 0.87456 0.49952 0.62517
 Cu725 Cu 1.00016 0.59364 0.59384
 Cu726 Cu 1.00011 0.62504 0.62541
 Cu727 Cu 1.00005 0.40560 0.59384
 Cu728 Cu 1.00006 0.37410 0.62532
 C729 C 1.05877 0.55821 0.63171
 H730 H 1.05331 0.55272 0.61521
 C731 C 1.07347 0.57296 0.67389
 C732 C 0.94133 0.44084 0.63167
 H733 H 0.94702 0.44649 0.61530
 C734 C 0.92602 0.42563 0.67349
 C735 C 1.05898 0.63141 0.55871
 H736 H 1.05336 0.61502 0.55309
 C737 C 1.07408 0.67329 0.57382
 C738 C 0.94142 0.36776 0.55842
 H739 H 0.94709 0.38411 0.55274
 C740 C 0.92617 0.32598 0.57370
 C741 C 1.13214 0.55827 0.55872
 H742 H 1.11573 0.55270 0.55313
 C743 C 1.17410 0.57326 0.57377
 C744 C 0.86829 0.44088 0.55826
 H745 H 0.88479 0.44634 0.55280
 C746 C 0.82609 0.42620 0.57298
 C747 C 0.94139 0.55821 0.63154
 H748 H 0.94699 0.55266 0.61510
 C749 C 0.92635 0.57314 0.67356
 C750 C 1.05877 0.44089 0.63168
 H751 H 1.05332 0.44638 0.61518
 C752 C 1.07344 0.42608 0.67386
 C753 C 1.13205 0.44089 0.55863
 H754 H 1.11564 0.44649 0.55303
 C755 C 1.17397 0.42583 0.57368
 C756 C 0.86839 0.55833 0.55845
 H757 H 0.88483 0.55277 0.55289
 C758 C 0.82638 0.57329 0.57340
 C759 C 0.94156 0.63152 0.55852
 H760 H 0.94701 0.61503 0.55306
 C761 C 0.92687 0.67370 0.57321
 C762 C 1.05883 0.36785 0.55849
 H763 H 1.05333 0.38432 0.55299
 C764 C 1.07361 0.32574 0.57329
 O765 O 1.08143 0.47777 0.38764
 O766 O 1.10761 0.47776 0.36134
 C767 C 1.08930 0.47012 0.36931
 C768 C 1.07727 0.45180 0.35747
 C769 C 1.08459 0.44427 0.33629
 H770 H 1.09879 0.45225 0.32810
 O771 O 0.91912 0.52162 0.38782
 O772 O 0.89300 0.52176 0.36148
 C773 C 0.91129 0.52936 0.36950
 C774 C 0.92334 0.54773 0.35775
 C775 C 0.91596 0.55542 0.33665
 H776 H 0.90172 0.54752 0.32846
 O777 O 0.97847 0.61183 0.41862
 O778 O 0.97846 0.63814 0.39246
 C779 C 0.97080 0.63015 0.41075
 C780 C 0.95241 0.64192 0.42275
 C781 C 0.94481 0.66305 0.41539
 H782 H 0.95279 0.67125 0.40120
 O783 O 1.02214 0.38773 0.41843
 O784 O 1.02224 0.36146 0.39225
 C785 C 1.02987 0.36945 0.41055
 C786 C 1.04825 0.35769 0.42257
 C787 C 1.05594 0.33662 0.41516
 H788 H 1.04802 0.32844 0.40091
 O789 O 1.11232 0.41849 0.47790
 O790 O 1.13862 0.39234 0.47786
 C791 C 1.13064 0.41064 0.47022
 C792 C 1.14245 0.42269 0.45186
 C793 C 1.16363 0.41542 0.44429
 H794 H 1.17186 0.40126 0.45228
 O795 O 0.88831 0.58092 0.47788
 O796 O 0.86198 0.60703 0.47785
 C797 C 0.86997 0.58874 0.47022
 C798 C 0.85815 0.57666 0.45192
 C799 C 0.83692 0.58387 0.44447
 H800 H 0.82869 0.59802 0.45249
 O801 O 1.02237 0.58106 0.38781
 O802 O 1.02241 0.60722 0.36151
 C803 C 1.03006 0.58893 0.36948
 C804 C 1.04842 0.57694 0.35766
 C805 C 1.05612 0.58441 0.33659
 H806 H 1.04823 0.59869 0.32847
 O807 O 0.97826 0.41845 0.38759
 O808 O 0.97828 0.39233 0.36125
 C809 C 0.97062 0.41061 0.36925
 C810 C 0.95230 0.42268 0.35743
 C811 C 0.94478 0.41544 0.33622
 H812 H 0.95276 0.40127 0.32799
 O813 O 1.11219 0.52158 0.41854
 O814 O 1.13853 0.52162 0.39240
 C815 C 1.13052 0.52925 0.41070
 C816 C 1.14232 0.54758 0.42277
 C817 C 1.16344 0.55520 0.41540
 H818 H 1.17162 0.54727 0.40116
 O819 O 0.88824 0.47769 0.41845
 O820 O 0.86198 0.47774 0.39225
 C821 C 0.86994 0.47003 0.41054
 C822 C 0.85815 0.45161 0.42248
 C823 C 0.83708 0.44395 0.41502
 H824 H 0.82892 0.45191 0.40079
 O825 O 1.08159 0.61169 0.47808
 O826 O 1.10775 0.63797 0.47806
 C827 C 1.08945 0.63001 0.47042
 C828 C 1.07742 0.64185 0.45208
 C829 C 1.08471 0.66303 0.44455
 H830 H 1.09889 0.67123 0.45255
 O831 O 0.91897 0.38746 0.47769
 O832 O 0.89283 0.36115 0.47766
 C833 C 0.91113 0.36914 0.47001
 C834 C 0.92318 0.35735 0.45165
 C835 C 0.91587 0.33621 0.44404
 H836 H 0.90168 0.32799 0.45201
 O837 O 0.91904 0.47777 0.38764
 O838 O 0.89294 0.47785 0.36129
 C839 C 0.91121 0.47016 0.36928
 C840 C 0.92325 0.45183 0.35744
 C841 C 0.91599 0.44434 0.33623
 H842 H 0.90183 0.45237 0.32800
 O843 O 1.08152 0.52164 0.38763
 O844 O 1.10771 0.52168 0.36134
 C845 C 1.08942 0.52935 0.36932
 C846 C 1.07747 0.54777 0.35757
 C847 C 1.08492 0.55552 0.33650
 H848 H 1.09915 0.54760 0.32830
 O849 O 0.97827 0.38757 0.41834
 O850 O 0.97830 0.36129 0.39217
 C851 C 0.97063 0.36925 0.41047
 C852 C 0.95229 0.35741 0.42250
 C853 C 0.94472 0.33627 0.41515
 H854 H 0.95270 0.32810 0.40093
 O855 O 1.02234 0.61176 0.41871
 O856 O 1.02238 0.63808 0.39257
 C857 C 1.03001 0.63009 0.41087
 C858 C 1.04833 0.64188 0.42294
 C859 C 1.05588 0.66306 0.41568
 H860 H 1.04790 0.67129 0.40150
 O861 O 0.88819 0.41825 0.47762
 O862 O 0.86188 0.39211 0.47757
 C863 C 0.86988 0.41040 0.46992
 C864 C 0.85812 0.42242 0.45153
 C865 C 0.83705 0.41502 0.44381
 H866 H 0.82887 0.40076 0.45170
 O867 O 1.11227 0.58079 0.47805
 O868 O 1.13860 0.60691 0.47800
 C869 C 1.13058 0.58863 0.47034
 C870 C 1.14235 0.57663 0.45195
 C871 C 1.16347 0.58398 0.44431
 H872 H 1.17167 0.59818 0.45228
 O873 O 1.02212 0.41846 0.38756
 O874 O 1.02219 0.39234 0.36121
 C875 C 1.02981 0.41063 0.36921
 C876 C 1.04816 0.42269 0.35742
 C877 C 1.05575 0.41542 0.33623
 H878 H 1.04778 0.40125 0.32800
 O879 O 0.97851 0.58096 0.38790
 O880 O 0.97849 0.60711 0.36159
 C881 C 0.97083 0.58882 0.36958
 C882 C 0.95247 0.57681 0.35778
 C883 C 0.94483 0.58424 0.33668
 H884 H 0.95276 0.59848 0.32852
 O885 O 0.88824 0.52154 0.41856
 O886 O 0.86196 0.52165 0.39239
 C887 C 0.86993 0.52924 0.41072
 C888 C 0.85812 0.54754 0.42281
 C889 C 0.83689 0.55502 0.41562
 H890 H 0.82864 0.54700 0.40147
 O891 O 1.11222 0.47773 0.41847
 O892 O 1.13856 0.47772 0.39233
 C893 C 1.13056 0.47007 0.41063
 C894 C 1.14238 0.45176 0.42269
 C895 C 1.16356 0.44424 0.41539
 H896 H 1.17175 0.45222 0.40118
 O897 O 1.08148 0.38776 0.47783
 O898 O 1.10761 0.36144 0.47777
 C899 C 1.08934 0.36945 0.47011
 C900 C 1.07734 0.35770 0.45171
 C901 C 1.08476 0.33662 0.44403
 H902 H 1.09898 0.32844 0.45198
 O903 O 0.91905 0.61176 0.47785
 O904 O 0.89288 0.63804 0.47780
 C905 C 0.91118 0.63007 0.47016
 C906 C 0.92323 0.64188 0.45181
 C907 C 0.91588 0.66301 0.44419
 H908 H 0.90164 0.67118 0.45213
 Cu909 Cu 1.09421 0.49967 0.40568
 Cu910 Cu 1.12574 0.49969 0.37421
 Cu911 Cu 0.90628 0.49965 0.40574
 Cu912 Cu 0.87483 0.49976 0.37421
 Cu913 Cu 1.09432 0.59361 0.50001
 Cu914 Cu 1.12584 0.62505 0.50000
 Cu915 Cu 1.09426 0.40570 0.49982
 Cu916 Cu 1.12571 0.37420 0.49979
 Cu917 Cu 0.90629 0.59373 0.49980
 Cu918 Cu 0.87479 0.62519 0.49979
 Cu919 Cu 0.90616 0.40550 0.49960
 Cu920 Cu 0.87468 0.37403 0.49960
 Cu921 Cu 1.00042 0.59378 0.40588
 Cu922 Cu 1.00044 0.62527 0.37439
 Cu923 Cu 1.00019 0.40567 0.40560
 Cu924 Cu 1.00026 0.37422 0.37408
 C925 C 1.05889 0.44104 0.36779
 H926 H 1.05334 0.44655 0.38425
 C927 C 1.07384 0.42620 0.32571
 C928 C 0.94175 0.55841 0.36807
 H929 H 0.94734 0.55278 0.38448
 C930 C 0.92669 0.57355 0.32616
 C931 C 0.94165 0.63159 0.44112
 H932 H 0.94722 0.61517 0.44670
 C933 C 0.92666 0.67356 0.42611
 C934 C 1.05893 0.36799 0.44100
 H935 H 1.05331 0.38438 0.44662
 C936 C 1.07407 0.32612 0.42588
 C937 C 1.13207 0.44101 0.44108
 H938 H 1.11561 0.44652 0.44662
 C939 C 1.17415 0.42620 0.42618
 C940 C 0.86850 0.55834 0.44112
 H941 H 0.88500 0.55288 0.44658
 C942 C 0.82633 0.57306 0.42644
 C943 C 1.05907 0.55847 0.36790
 H944 H 1.05342 0.55280 0.38428
 C945 C 1.07425 0.57372 0.32605
 C946 C 0.94156 0.44103 0.36779
 H947 H 0.94706 0.44651 0.38427
 C948 C 0.92675 0.42627 0.32565
 C949 C 1.13201 0.55827 0.44119
 H950 H 1.11559 0.55269 0.44678
 C951 C 1.17398 0.57328 0.42617
 C952 C 0.86842 0.44087 0.44089
 H953 H 0.88480 0.44648 0.44655
 C954 C 0.82656 0.42578 0.42568
 C955 C 1.05908 0.63152 0.44130
 H956 H 1.05355 0.61506 0.44681
 C957 C 1.07395 0.67360 0.42647
 C958 C 0.94155 0.36770 0.44091
 H959 H 0.94708 0.38413 0.44648
 C960 C 0.92664 0.32570 0.42591
 O961 O 0.58118 1.02228 0.61219
 O962 O 0.60729 1.02223 0.63853
 C963 C 0.58903 1.02993 0.63053
 C964 C 0.57705 1.04832 0.64231
 C965 C 0.58453 1.05606 0.66336
 H966 H 0.59880 1.04816 0.67151
 O967 O 0.41865 0.97848 0.61201
 O968 O 0.39248 0.97844 0.63832
 C969 C 0.41078 0.97079 0.63033
 C970 C 0.42278 0.95242 0.64212
 C971 C 0.41541 0.94479 0.66325
 H972 H 0.40121 0.95276 0.67146
 O973 O 0.52193 1.11231 0.58132
 O974 O 0.52195 1.13861 0.60747
 C975 C 0.52962 1.13062 0.58918
 C976 C 0.54803 1.14238 0.57717
 C977 C 0.55576 1.16342 0.58463
 H978 H 0.54786 1.17158 0.59891
 O979 O 0.47791 0.88827 0.58116
 O980 O 0.47788 0.86195 0.60732
 C981 C 0.47025 0.86994 0.58901
 C982 C 0.45192 0.85814 0.57696
 C983 C 0.44433 0.83698 0.58426
 H984 H 0.45228 0.82878 0.59847
 O985 O 0.61219 1.08152 0.52202
 O986 O 0.63848 1.10768 0.52207
 C987 C 0.63048 1.08940 0.52974
 C988 C 0.64222 1.07743 0.54818
 C989 C 0.66324 1.08489 0.55597
 H990 H 0.67142 1.09915 0.54808
 O991 O 0.38795 0.91912 0.52182
 O992 O 0.36164 0.89298 0.52183
 C993 C 0.36963 0.91126 0.52951
 C994 C 0.35785 0.92324 0.54792
 C995 C 0.33680 0.91577 0.55565
 H996 H 0.32866 0.90151 0.54775
 O997 O 0.47803 1.08153 0.61212
 O998 O 0.47798 1.10767 0.63844
 C999 C 0.47033 1.08939 0.63044
 C1000 C 0.45193 1.07739 0.64222
 C1001 C 0.44430 1.08474 0.66335
 H1002 H 0.45228 1.09892 0.67156
 O1003 O 0.52173 0.91910 0.61199
 O1004 O 0.52173 0.89295 0.63831
 C1005 C 0.52938 0.91125 0.63033
 C1006 C 0.54769 0.92330 0.64217
 C1007 C 0.55515 0.91604 0.66340
 H1008 H 0.54712 0.90189 0.67162
 O1009 O 0.61196 0.97845 0.58131
 O1010 O 0.63822 0.97834 0.60750
 C1011 C 0.63027 0.97075 0.58917
 C1012 C 0.64210 0.95246 0.57709
 C1013 C 0.66326 0.94490 0.58438
 H1014 H 0.67144 0.95285 0.59861
 O1015 O 0.38785 1.02229 0.58115
 O1016 O 0.36150 1.02230 0.60728
 C1017 C 0.36950 1.02994 0.58897
 C1018 C 0.35768 1.04822 0.57687
 C1019 C 0.33640 1.05564 0.58401
 H1020 H 0.32813 1.04759 0.59814
 O1021 O 0.41872 1.11242 0.52200
 O1022 O 0.39257 1.13871 0.52204
 C1023 C 0.41085 1.13072 0.52971
 C1024 C 0.42283 1.14247 0.54812
 C1025 C 0.41543 1.16355 0.55582
 H1026 H 0.40120 1.17173 0.54790
 O1027 O 0.58124 0.88848 0.52189
 O1028 O 0.60738 0.86218 0.52192
 C1029 C 0.58909 0.87015 0.52957
 C1030 C 0.57703 0.85834 0.54792
 C1031 C 0.58435 0.83720 0.55551
 H1032 H 0.59857 0.82901 0.54756
 O1033 O 0.41861 1.02234 0.61202
 O1034 O 0.39243 1.02237 0.63831
 C1035 C 0.41073 1.03001 0.63034
 C1036 C 0.42275 1.04835 0.64217
 C1037 C 0.41538 1.05597 0.66331
 H1038 H 0.40114 1.04805 0.67148
 O1039 O 0.58110 0.97842 0.61210
 O1040 O 0.60720 0.97831 0.63845
 C1041 C 0.58891 0.97071 0.63043
 C1042 C 0.57682 0.95238 0.64222
 C1043 C 0.58401 0.94487 0.66344
 H1044 H 0.59816 0.95286 0.67170
 O1045 O 0.52178 0.88836 0.58114
 O1046 O 0.52181 0.86205 0.60730
 C1047 C 0.52947 0.87005 0.58901
 C1048 C 0.54785 0.85829 0.57699
 C1049 C 0.55543 0.83715 0.58431
 H1050 H 0.54743 0.82893 0.59850
 O1051 O 0.47804 1.11236 0.58135
 O1052 O 0.47801 1.13865 0.60751
 C1053 C 0.47035 1.13067 0.58922
 C1054 C 0.45197 1.14245 0.57722
 C1055 C 0.44431 1.16354 0.58464
 H1056 H 0.45226 1.17170 0.59887
 O1057 O 0.38794 1.08162 0.52184
 O1058 O 0.36162 1.10775 0.52185
 C1059 C 0.36958 1.08944 0.52948
 C1060 C 0.35771 1.07733 0.54774
 C1061 C 0.33644 1.08449 0.55515
 H1062 H 0.32820 1.09862 0.54709
 O1063 O 0.61204 0.91925 0.52186
 O1064 O 0.63835 0.89312 0.52188
 C1065 C 0.63037 0.91140 0.52953
 C1066 C 0.64216 0.92342 0.54789
 C1067 C 0.66333 0.91613 0.55545
 H1068 H 0.67156 0.90197 0.54745
 O1069 O 0.47787 0.91909 0.61195
 O1070 O 0.47782 0.89293 0.63826
 C1071 C 0.47018 0.91123 0.63028
 C1072 C 0.45183 0.92326 0.64209
 C1073 C 0.44420 0.91590 0.66322
 H1074 H 0.45213 0.90167 0.67140
 O1075 O 0.52190 1.08158 0.61219
 O1076 O 0.52192 1.10773 0.63851
 C1077 C 0.52958 1.08944 0.63052
 C1078 C 0.54796 1.07745 0.64231
 C1079 C 0.55572 1.08493 0.66336
 H1080 H 0.54783 1.09921 0.67150
 O1081 O 0.38790 0.97844 0.58118
 O1082 O 0.36158 0.97839 0.60733
 C1083 C 0.36959 0.97074 0.58904
 C1084 C 0.35784 0.95234 0.57704
 C1085 C 0.33679 0.94461 0.58452
 H1086 H 0.32864 0.95250 0.59880
 O1087 O 0.61200 1.02230 0.58140
 O1088 O 0.63826 1.02225 0.60760
 C1089 C 0.63031 1.02995 0.58930
 C1090 C 0.64212 1.04833 0.57733
 C1091 C 0.66315 1.05606 0.58485
 H1092 H 0.67125 1.04817 0.59915
 O1093 O 0.41870 0.88830 0.52179
 O1094 O 0.39255 0.86200 0.52177
 C1095 C 0.41084 0.86997 0.52944
 C1096 C 0.42285 0.85815 0.54780
 C1097 C 0.41553 0.83700 0.55537
 H1098 H 0.40134 0.82880 0.54737
 O1099 O 0.58134 1.11225 0.52198
 O1100 O 0.60748 1.13856 0.52201
 C1101 C 0.58919 1.13057 0.52966
 C1102 C 0.57717 1.14235 0.54805
 C1103 C 0.58463 1.16339 0.55578
 H1104 H 0.59891 1.17153 0.54788
 Cu1105 Cu 0.59394 1.00036 0.59413
 Cu1106 Cu 0.62538 1.00027 0.62566
 Cu1107 Cu 0.40588 1.00040 0.59397
 Cu1108 Cu 0.37436 1.00038 0.62545
 Cu1109 Cu 0.49998 1.09433 0.59412
 Cu1110 Cu 0.49996 1.12580 0.62562
 Cu1111 Cu 0.49982 0.90632 0.59394
 Cu1112 Cu 0.49981 0.87483 0.62544
 C1113 C 0.55861 1.05900 0.63204
 H1114 H 0.55294 1.05333 0.61567
 C1115 C 0.57388 1.07425 0.67384
 C1116 C 0.44114 0.94167 0.63178
 H1117 H 0.44673 0.94725 0.61535
 C1118 C 0.42611 0.92665 0.67377
 C1119 C 0.55871 1.13209 0.55873
 H1120 H 0.55305 1.11573 0.55307
 C1121 C 0.57395 1.17389 0.57395
 C1122 C 0.44120 0.86847 0.55857
 H1123 H 0.44675 0.88492 0.55304
 C1124 C 0.42626 0.82645 0.57347
 C1125 C 0.63191 1.05899 0.55884
 H1126 H 0.61556 1.05333 0.55314
 C1127 C 0.67367 1.07422 0.57419
 C1128 C 0.36812 0.94168 0.55859
 H1129 H 0.38449 0.94734 0.55293
 C1130 C 0.32631 0.92645 0.57383
 C1131 C 0.44118 1.05904 0.63187
 H1132 H 0.44677 1.05347 0.61544
 C1133 C 0.42615 1.07405 0.67386
 C1134 C 0.55850 0.94162 0.63182
 H1135 H 0.55304 0.94712 0.61532
 C1136 C 0.57319 0.92682 0.67400
 C1137 C 0.63179 0.94174 0.55869
 H1138 H 0.61534 0.94727 0.55316
 C1139 C 0.67384 0.92687 0.57358
 C1140 C 0.36808 1.05904 0.55857
 H1141 H 0.38461 1.05361 0.55315
 C1142 C 0.32582 1.07365 0.57316
 C1143 C 0.44125 1.13217 0.55881
 H1144 H 0.44686 1.11578 0.55318
 C1145 C 0.42616 1.17405 0.57395
 C1146 C 0.55863 0.86865 0.55864
 H1147 H 0.55307 0.88508 0.55308
 C1148 C 0.57355 0.82663 0.57358
 O1149 O 0.58129 0.97862 0.38769
 O1150 O 0.60746 0.97860 0.36138
 C1151 C 0.58917 0.97094 0.36937
 C1152 C 0.57717 0.95257 0.35758
 C1153 C 0.58456 0.94492 0.33646
 H1154 H 0.59877 0.95288 0.32826
 O1155 O 0.41886 1.02240 0.38781
 O1156 O 0.39274 1.02244 0.36147
 C1157 C 0.41102 1.03008 0.36948
 C1158 C 0.42306 1.04844 0.35769
 C1159 C 0.41577 1.05601 0.33651
 H1160 H 0.40160 1.04802 0.32829
 O1161 O 0.47817 1.11251 0.41870
 O1162 O 0.47816 1.13886 0.39258
 C1163 C 0.47052 1.13086 0.41088
 C1164 C 0.45220 1.14267 0.42297
 C1165 C 0.44466 1.16385 0.41570
 H1166 H 0.45264 1.17207 0.40151
 O1167 O 0.52199 0.88847 0.41863
 O1168 O 0.52204 0.86217 0.39247
 C1169 C 0.52966 0.87015 0.41079
 C1170 C 0.54795 0.85832 0.42287
 C1171 C 0.55545 0.83712 0.41564
 H1172 H 0.54746 0.82889 0.40147
 O1173 O 0.61201 0.91926 0.47796
 O1174 O 0.63831 0.89310 0.47791
 C1175 C 0.63032 0.91139 0.47025
 C1176 C 0.64209 0.92338 0.45184
 C1177 C 0.66317 0.91597 0.44414
 H1178 H 0.67135 0.90174 0.45206
 O1179 O 0.38805 1.08174 0.47795
 O1180 O 0.36176 1.10789 0.47791
 C1181 C 0.36975 1.08962 0.47024
 C1182 C 0.35800 1.07763 0.45183
 C1183 C 0.33693 1.08506 0.44412
 H1184 H 0.32876 1.09931 0.45202
 O1185 O 0.52200 1.08174 0.38780
 O1186 O 0.52203 1.10792 0.36151
 C1187 C 0.52968 1.08962 0.36947
 C1188 C 0.54803 1.07761 0.35764
 C1189 C 0.55562 1.08496 0.33648
 H1190 H 0.54764 1.09916 0.32829
 O1191 O 0.47821 0.91931 0.38779
 O1192 O 0.47821 0.89318 0.36146
 C1193 C 0.47056 0.91147 0.36945
 C1194 C 0.45223 0.92350 0.35763
 C1195 C 0.44467 0.91619 0.33647
 H1196 H 0.45267 0.90200 0.32826
 O1197 O 0.61210 1.02241 0.41856
 O1198 O 0.63843 1.02243 0.39241
 C1199 C 0.63045 1.03005 0.41073
 C1200 C 0.64229 1.04833 0.42283
 C1201 C 0.66348 1.05586 0.41555
 H1202 H 0.67167 1.04792 0.40133
 O1203 O 0.38803 0.97853 0.41860
 O1204 O 0.36175 0.97852 0.39243
 C1205 C 0.36971 0.97086 0.41073
 C1206 C 0.35790 0.95250 0.42275
 C1207 C 0.33677 0.94491 0.41538
 H1208 H 0.32860 0.95289 0.40116
 O1209 O 0.58141 1.11226 0.47808
 O1210 O 0.60756 1.13856 0.47805
 C1211 C 0.58928 1.13057 0.47038
 C1212 C 0.57728 1.14236 0.45199
 C1213 C 0.58474 1.16342 0.44429
 H1214 H 0.59901 1.17156 0.45220
 O1215 O 0.41874 0.88838 0.47789
 O1216 O 0.39259 0.86209 0.47782
 C1217 C 0.41089 0.87008 0.47018
 C1218 C 0.42294 0.85832 0.45180
 C1219 C 0.41562 0.83719 0.44416
 H1220 H 0.40141 0.82898 0.45211
 O1221 O 0.41885 0.97855 0.38779
 O1222 O 0.39273 0.97853 0.36145
 C1223 C 0.41102 0.97089 0.36945
 C1224 C 0.42308 0.95256 0.35763
 C1225 C 0.41578 0.94498 0.33646
 H1226 H 0.40157 0.95292 0.32826
 O1227 O 0.58132 1.02248 0.38773
 O1228 O 0.60749 1.02252 0.36142
 C1229 C 0.58919 1.03017 0.36940
 C1230 C 0.57717 1.04853 0.35761
 C1231 C 0.58449 1.05615 0.33645
 H1232 H 0.59870 1.04820 0.32824
 O1233 O 0.47813 0.88849 0.41856
 O1234 O 0.47813 0.86220 0.39239
 C1235 C 0.47045 0.87018 0.41068
 C1236 C 0.45208 0.85838 0.42269
 C1237 C 0.44450 0.83725 0.41532
 H1238 H 0.45248 0.82908 0.40110
 O1239 O 0.52204 1.11239 0.41873
 O1240 O 0.52209 1.13873 0.39260
 C1241 C 0.52975 1.13070 0.41088
 C1242 C 0.54815 1.14242 0.42289
 C1243 C 0.55588 1.16348 0.41545
 H1244 H 0.54797 1.17166 0.40120
 O1245 O 0.38794 0.91916 0.47792
 O1246 O 0.36163 0.89303 0.47786
 C1247 C 0.36962 0.91132 0.47022
 C1248 C 0.35785 0.92337 0.45186
 C1249 C 0.33672 0.91604 0.44422
 H1250 H 0.32851 0.90183 0.45217
 O1251 O 0.61222 1.08148 0.47811
 O1252 O 0.63853 1.10762 0.47810
 C1253 C 0.63055 1.08934 0.47044
 C1254 C 0.64235 1.07732 0.45206
 C1255 C 0.66353 1.08460 0.44452
 H1256 H 0.67177 1.09874 0.45255
 O1257 O 0.52207 0.91924 0.38778
 O1258 O 0.52212 0.89310 0.36146
 C1259 C 0.52976 0.91139 0.36945
 C1260 C 0.54812 0.92341 0.35764
 C1261 C 0.55577 0.91602 0.33652
 H1262 H 0.54785 0.90178 0.32836
 O1263 O 0.47814 1.08172 0.38787
 O1264 O 0.47811 1.10791 0.36159
 C1265 C 0.47047 1.08960 0.36955
 C1266 C 0.45213 1.07758 0.35772
 C1267 C 0.44458 1.08489 0.33655
 H1268 H 0.45255 1.09910 0.32835
 O1269 O 0.38806 1.02240 0.41862
 O1270 O 0.36179 1.02245 0.39244
 C1271 C 0.36976 1.03010 0.41074
 C1272 C 0.35799 1.04849 0.42274
 C1273 C 0.33693 1.05618 0.41530
 H1274 H 0.32876 1.04824 0.40107
 O1275 O 0.61201 0.97856 0.41854
 O1276 O 0.63833 0.97853 0.39239
 C1277 C 0.63032 0.97087 0.41068
 C1278 C 0.64208 0.95249 0.42269
 C1279 C 0.66316 0.94481 0.41527
 H1280 H 0.67133 0.95273 0.40101
 O1281 O 0.58123 0.88846 0.47801
 O1282 O 0.60736 0.86215 0.47799
 C1283 C 0.58907 0.87013 0.47035
 C1284 C 0.57702 0.85832 0.45202
 C1285 C 0.58426 0.83712 0.44453
 H1286 H 0.59841 0.82889 0.45256
 O1287 O 0.41886 1.11251 0.47810
 O1288 O 0.39273 1.13882 0.47808
 C1289 C 0.41103 1.13084 0.47044
 C1290 C 0.42310 1.14267 0.45212
 C1291 C 0.41583 1.16385 0.44460
 H1292 H 0.40166 1.17206 0.45261
 Cu1293 Cu 0.59405 1.00053 0.40575
 Cu1294 Cu 0.62557 1.00053 0.37426
 Cu1295 Cu 0.40606 1.00046 0.40583
 Cu1296 Cu 0.37461 1.00048 0.37431
 Cu1297 Cu 0.59417 1.09426 0.50004
 Cu1298 Cu 0.62564 1.12574 0.50005
 Cu1299 Cu 0.59402 0.90648 0.49994
 Cu1300 Cu 0.62549 0.87501 0.49993
 Cu1301 Cu 0.40601 1.09446 0.49998
 Cu1302 Cu 0.37453 1.12593 0.49997
 Cu1303 Cu 0.40595 0.90636 0.49986
 Cu1304 Cu 0.37446 0.87489 0.49982
 Cu1305 Cu 0.50008 1.09447 0.40589
 Cu1306 Cu 0.50010 1.12600 0.37444
 Cu1307 Cu 0.50010 0.90650 0.40581
 Cu1308 Cu 0.50013 0.87503 0.37431
 C1309 C 0.55880 0.94183 0.36793
 H1310 H 0.55320 0.94742 0.38435
 C1311 C 0.57387 0.92677 0.32597
 C1312 C 0.44140 1.05920 0.36805
 H1313 H 0.44692 1.05365 0.38450
 C1314 C 0.42652 1.07411 0.32598
 C1315 C 0.44144 1.13232 0.44134
 H1316 H 0.44696 1.11586 0.44685
 C1317 C 0.42661 1.17441 0.42651
 C1318 C 0.55871 0.86868 0.44122
 H1319 H 0.55322 0.88516 0.44671
 C1320 C 0.57348 0.82655 0.42647
 C1321 C 0.63179 0.94179 0.44113
 H1322 H 0.61540 0.94742 0.44677
 C1323 C 0.67367 0.92668 0.42597
 C1324 C 0.36828 1.05920 0.44115
 H1325 H 0.38466 1.05357 0.44679
 C1326 C 0.32643 1.07434 0.42598
 C1327 C 0.55878 1.05924 0.36795
 H1328 H 0.55323 1.05367 0.38439
 C1329 C 0.57373 1.07424 0.32592
 C1330 C 0.44145 0.94185 0.36797
 H1331 H 0.44699 0.94740 0.38442
 C1332 C 0.42658 0.92691 0.32592
 C1333 C 0.63197 1.05903 0.44124
 H1334 H 0.61551 1.05352 0.44676
 C1335 C 0.67406 1.07387 0.42639
 C1336 C 0.36819 0.94175 0.44114
 H1337 H 0.38462 0.94731 0.44673
 C1338 C 0.32622 0.92681 0.42611
 C1339 C 0.55884 1.13211 0.44131
 H1340 H 0.55318 1.11574 0.44695
 C1341 C 0.57405 1.17394 0.42614
 C1342 C 0.44132 0.86866 0.44108
 H1343 H 0.44688 0.88508 0.44668
 C1344 C 0.42639 0.82670 0.42604
 O1345 O 0.58088 0.52141 1.11231
 O1346 O 0.60701 0.52145 1.13863
 C1347 C 0.58871 0.52908 1.13065
 C1348 C 0.57666 0.54740 1.14246
 C1349 C 0.58389 0.55491 1.16368
 H1350 H 0.59805 0.54690 1.17191
 O1351 O 0.41852 0.47755 1.11225
 O1352 O 0.39237 0.47749 1.13858
 C1353 C 0.41067 0.46987 1.13059
 C1354 C 0.42272 0.45154 1.14241
 C1355 C 0.41544 0.44401 1.16361
 H1356 H 0.40126 0.45201 1.17183
 O1357 O 0.52170 0.61175 1.08157
 O1358 O 0.52168 0.63799 1.10779
 C1359 C 0.52936 0.63006 1.08948
 C1360 C 0.54772 0.64188 1.07749
 C1361 C 0.55531 0.66301 1.08486
 H1362 H 0.54733 0.67118 1.09908
 O1363 O 0.47788 0.38750 1.08141
 O1364 O 0.47781 0.36118 1.10756
 C1365 C 0.47019 0.36918 1.08926
 C1366 C 0.45185 0.35740 1.07720
 C1367 C 0.44422 0.33628 1.08455
 H1368 H 0.45215 0.32808 1.09878
 O1369 O 0.61163 0.58093 1.02226
 O1370 O 0.63798 0.60703 1.02229
 C1371 C 0.62997 0.58874 1.02993
 C1372 C 0.64178 0.57665 1.04824
 C1373 C 0.66299 0.58387 1.05572
 H1374 H 0.67121 0.59804 1.04772
 O1375 O 0.38784 0.41825 1.02199
 O1376 O 0.36153 0.39212 1.02199
 C1377 C 0.36951 0.41040 1.02967
 C1378 C 0.35770 0.42241 1.04804
 C1379 C 0.33654 0.41510 1.05561
 H1380 H 0.32833 0.40093 1.04762
 O1381 O 0.47779 0.58084 1.11221
 O1382 O 0.47770 0.60693 1.13858
 C1383 C 0.47007 0.58866 1.13054
 C1384 C 0.45170 0.57661 1.14231
 C1385 C 0.44401 0.58399 1.16342
 H1386 H 0.45192 0.59823 1.17160
 O1387 O 0.52171 0.41824 1.11229
 O1388 O 0.52172 0.39207 1.13859
 C1389 C 0.52938 0.41037 1.13061
 C1390 C 0.54773 0.42236 1.14242
 C1391 C 0.55539 0.41495 1.16352
 H1392 H 0.54745 0.40071 1.17169
 O1393 O 0.61173 0.47761 1.08147
 O1394 O 0.63804 0.47761 1.10761
 C1395 C 0.63007 0.46997 1.08930
 C1396 C 0.64192 0.45168 1.07722
 C1397 C 0.66315 0.44423 1.08444
 H1398 H 0.67136 0.45225 1.09861
 O1399 O 0.38769 0.52139 1.08145
 O1400 O 0.36137 0.52138 1.10762
 C1401 C 0.36936 0.52905 1.08933
 C1402 C 0.35758 0.54744 1.07733
 C1403 C 0.33648 0.55509 1.08474
 H1404 H 0.32829 0.54714 1.09897
 O1405 O 0.41853 0.61161 1.02217
 O1406 O 0.39234 0.63787 1.02220
 C1407 C 0.41065 0.62992 1.02984
 C1408 C 0.42267 0.64173 1.04819
 C1409 C 0.41531 0.66286 1.05580
 H1410 H 0.40109 0.67104 1.04784
 O1411 O 0.58113 0.38751 1.02208
 O1412 O 0.60729 0.36123 1.02214
 C1413 C 0.58899 0.36920 1.02979
 C1414 C 0.57696 0.35741 1.04817
 C1415 C 0.58432 0.33629 1.05580
 H1416 H 0.59854 0.32811 1.04785
 O1417 O 0.41853 0.52141 1.11219
 O1418 O 0.39237 0.52141 1.13852
 C1419 C 0.41065 0.52908 1.13052
 C1420 C 0.42263 0.54747 1.14230
 C1421 C 0.41521 0.55512 1.16341
 H1422 H 0.40098 0.54717 1.17159
 O1423 O 0.58097 0.47755 1.11233
 O1424 O 0.60712 0.47752 1.13864
 C1425 C 0.58884 0.46986 1.13065
 C1426 C 0.57684 0.45148 1.14244
 C1427 C 0.58423 0.44379 1.16354
 H1428 H 0.59846 0.45172 1.17172
 O1429 O 0.52175 0.38749 1.08145
 O1430 O 0.52174 0.36116 1.10759
 C1431 C 0.52942 0.36917 1.08930
 C1432 C 0.54781 0.35739 1.07728
 C1433 C 0.55543 0.33628 1.08465
 H1434 H 0.54747 0.32808 1.09886
 O1435 O 0.47784 0.61168 1.08145
 O1436 O 0.47775 0.63792 1.10766
 C1437 C 0.47014 0.62997 1.08933
 C1438 C 0.45179 0.64176 1.07730
 C1439 C 0.44416 0.66288 1.08465
 H1440 H 0.45212 0.67108 1.09886
 O1441 O 0.38774 0.58081 1.02221
 O1442 O 0.36140 0.60691 1.02224
 C1443 C 0.36941 0.58864 1.02989
 C1444 C 0.35761 0.57660 1.04826
 C1445 C 0.33652 0.58399 1.05594
 H1446 H 0.32836 0.59825 1.04803
 O1447 O 0.61188 0.41836 1.02205
 O1448 O 0.63821 0.39225 1.02209
 C1449 C 0.63021 0.41053 1.02973
 C1450 C 0.64199 0.42260 1.04807
 C1451 C 0.66322 0.41541 1.05556
 H1452 H 0.67148 0.40128 1.04753
 O1453 O 0.47785 0.41824 1.11227
 O1454 O 0.47780 0.39209 1.13859
 C1455 C 0.47016 0.41038 1.13061
 C1456 C 0.45182 0.42242 1.14242
 C1457 C 0.44427 0.41516 1.16362
 H1458 H 0.45225 0.40098 1.17185
 O1459 O 0.52164 0.58082 1.11225
 O1460 O 0.52161 0.60689 1.13864
 C1461 C 0.52927 0.58862 1.13062
 C1462 C 0.54757 0.57654 1.14244
 C1463 C 0.55507 0.58378 1.16366
 H1464 H 0.54708 0.59795 1.17188
 O1465 O 0.38779 0.47753 1.08138
 O1466 O 0.36148 0.47747 1.10754
 C1467 C 0.36947 0.46984 1.08923
 C1468 C 0.35769 0.45150 1.07718
 C1469 C 0.33653 0.44393 1.08449
 H1470 H 0.32832 0.45190 1.09869
 O1471 O 0.61169 0.52146 1.08151
 O1472 O 0.63800 0.52151 1.10766
 C1473 C 0.63001 0.52915 1.08936
 C1474 C 0.64180 0.54749 1.07732
 C1475 C 0.66301 0.55498 1.08454
 H1476 H 0.67126 0.54694 1.09868
 O1477 O 0.41867 0.38751 1.02197
 O1478 O 0.39253 0.36121 1.02197
 C1479 C 0.41081 0.36919 1.02964
 C1480 C 0.42280 0.35740 1.04803
 C1481 C 0.41543 0.33628 1.05564
 H1482 H 0.40123 0.32809 1.04766
 O1483 O 0.58098 0.61184 1.02230
 O1484 O 0.60716 0.63811 1.02234
 C1485 C 0.58886 0.63014 1.02999
 C1486 C 0.57684 0.64193 1.04837
 C1487 C 0.58417 0.66305 1.05599
 H1488 H 0.59838 0.67126 1.04803
 Cu1489 Cu 0.59369 0.49950 1.09429
 Cu1490 Cu 0.62518 0.49952 1.12578
 Cu1491 Cu 0.40575 0.49947 1.09420
 Cu1492 Cu 0.37426 0.49943 1.12570
 Cu1493 Cu 0.49976 0.59366 1.09424
 Cu1494 Cu 0.49968 0.62506 1.12581
 Cu1495 Cu 0.49980 0.40549 1.09424
 Cu1496 Cu 0.49976 0.37398 1.12572
 C1497 C 0.55834 0.55819 1.13209
 H1498 H 0.55285 0.55270 1.11560
 C1499 C 0.57311 0.57297 1.17424
 C1500 C 0.44106 0.44077 1.13206
 H1501 H 0.44659 0.44629 1.11559
 C1502 C 0.42620 0.42595 1.17418
 C1503 C 0.55847 0.63159 1.05909
 H1504 H 0.55291 0.61517 1.05351
 C1505 C 0.57341 0.67356 1.07412
 C1506 C 0.44117 0.36771 1.05878
 H1507 H 0.44675 0.38413 1.05321
 C1508 C 0.42614 0.32575 1.07377
 C1509 C 0.63142 0.55831 1.05901
 H1510 H 0.61494 0.55283 1.05353
 C1511 C 0.67357 0.57304 1.07375
 C1512 C 0.36803 0.44076 1.05880
 H1513 H 0.38448 0.44630 1.05326
 C1514 C 0.32599 0.42586 1.07371
 C1515 C 0.44103 0.55820 1.13199
 H1516 H 0.44666 0.55260 1.11558
 C1517 C 0.42589 0.57326 1.17393
 C1518 C 0.55843 0.44078 1.13213
 H1519 H 0.55282 0.44641 1.11573
 C1520 C 0.57351 0.42565 1.17405
 C1521 C 0.63159 0.44089 1.05888
 H1522 H 0.61509 0.44634 1.05340
 C1523 C 0.67376 0.42622 1.07362
 C1524 C 0.36790 0.55817 1.05893
 H1525 H 0.38430 0.55257 1.05331
 C1526 C 0.32599 0.57326 1.07406
 C1527 C 0.44106 0.63144 1.05891
 H1528 H 0.44665 0.61502 1.05334
 C1529 C 0.42605 0.67340 1.07390
 C1530 C 0.55856 0.36772 1.05889
 H1531 H 0.55298 0.38413 1.05330
 C1532 C 0.57356 0.32576 1.07392
 O1533 O 0.58111 0.47781 0.88818
 O1534 O 0.60724 0.47790 0.86182
 C1535 C 0.58895 0.47023 0.86979
 C1536 C 0.57689 0.45197 0.85790
 C1537 C 0.58410 0.44461 0.83663
 H1538 H 0.59824 0.45269 0.82841
 O1539 O 0.41873 0.52160 0.88797
 O1540 O 0.39257 0.52166 0.86167
 C1541 C 0.41085 0.52931 0.86967
 C1542 C 0.42284 0.54773 0.85791
 C1543 C 0.41547 0.55540 0.83680
 H1544 H 0.40127 0.54745 0.82859
 O1545 O 0.47780 0.61180 0.91900
 O1546 O 0.47781 0.63811 0.89284
 C1547 C 0.47012 0.63011 0.91113
 C1548 C 0.45173 0.64187 0.92313
 C1549 C 0.44408 0.66297 0.91577
 H1550 H 0.45203 0.67119 0.90156
 O1551 O 0.52191 0.38762 0.91873
 O1552 O 0.52201 0.36137 0.89252
 C1553 C 0.52964 0.36933 0.91084
 C1554 C 0.54801 0.35755 0.92285
 C1555 C 0.55574 0.33650 0.91539
 H1556 H 0.54787 0.32837 0.90110
 O1557 O 0.61196 0.41826 0.97815
 O1558 O 0.63827 0.39212 0.97813
 C1559 C 0.63027 0.41039 0.97045
 C1560 C 0.64202 0.42236 0.95200
 C1561 C 0.66299 0.41481 0.94411
 H1562 H 0.67111 0.40048 0.95193
 O1563 O 0.38783 0.58073 0.97832
 O1564 O 0.36146 0.60680 0.97829
 C1565 C 0.36948 0.58853 0.97065
 C1566 C 0.35770 0.57646 0.95231
 C1567 C 0.33647 0.58365 0.94485
 H1568 H 0.32820 0.59776 0.95290
 O1569 O 0.52173 0.58100 0.88831
 O1570 O 0.52181 0.60715 0.86198
 C1571 C 0.52944 0.58886 0.86999
 C1572 C 0.54780 0.57683 0.85821
 C1573 C 0.55538 0.58413 0.83703
 H1574 H 0.54739 0.59831 0.82881
 O1575 O 0.47800 0.41838 0.88795
 O1576 O 0.47802 0.39227 0.86160
 C1577 C 0.47034 0.41054 0.86960
 C1578 C 0.45198 0.42255 0.85780
 C1579 C 0.44432 0.41515 0.83670
 H1580 H 0.45225 0.40091 0.82853
 O1581 O 0.61190 0.52155 0.91914
 O1582 O 0.63821 0.52166 0.89297
 C1583 C 0.63021 0.52926 0.91129
 C1584 C 0.64197 0.54761 0.92334
 C1585 C 0.66312 0.55521 0.91602
 H1586 H 0.67136 0.54724 0.90183
 O1587 O 0.38798 0.47767 0.91875
 O1588 O 0.36166 0.47767 0.89262
 C1589 C 0.36965 0.47001 0.91091
 C1590 C 0.35783 0.45169 0.92297
 C1591 C 0.33661 0.44423 0.91574
 H1592 H 0.32839 0.45225 0.90157
 O1593 O 0.58091 0.61180 0.97841
 O1594 O 0.60708 0.63808 0.97839
 C1595 C 0.58878 0.63012 0.97074
 C1596 C 0.57674 0.64195 0.95242
 C1597 C 0.58398 0.66315 0.94493
 H1598 H 0.59814 0.67137 0.95296
 O1599 O 0.41867 0.38750 0.97807
 O1600 O 0.39252 0.36121 0.97801
 C1601 C 0.41082 0.36920 0.97037
 C1602 C 0.42287 0.35742 0.95199
 C1603 C 0.41552 0.33631 0.94432
 H1604 H 0.40129 0.32812 0.95225
 O1605 O 0.41876 0.47772 0.88790
 O1606 O 0.39260 0.47771 0.86161
 C1607 C 0.41089 0.47005 0.86958
 C1608 C 0.42289 0.45168 0.85778
 C1609 C 0.41550 0.44401 0.83668
 H1610 H 0.40127 0.45195 0.82849
 O1611 O 0.58112 0.52166 0.88832
 O1612 O 0.60727 0.52178 0.86199
 C1613 C 0.58897 0.52939 0.87000
 C1614 C 0.57693 0.54774 0.85822
 C1615 C 0.58424 0.55531 0.83704
 H1616 H 0.59843 0.54734 0.82883
 O1617 O 0.47804 0.38759 0.91876
 O1618 O 0.47807 0.36132 0.89257
 C1619 C 0.47039 0.36928 0.91088
 C1620 C 0.45203 0.35746 0.92289
 C1621 C 0.44442 0.33635 0.91549
 H1622 H 0.45240 0.32819 0.90127
 O1623 O 0.52166 0.61185 0.91905
 O1624 O 0.52173 0.63816 0.89289
 C1625 C 0.52934 0.63018 0.91121
 C1626 C 0.54765 0.64198 0.92328
 C1627 C 0.55515 0.66319 0.91606
 H1628 H 0.54716 0.67143 0.90189
 O1629 O 0.38791 0.41833 0.97810
 O1630 O 0.36159 0.39221 0.97804
 C1631 C 0.36959 0.41050 0.97042
 C1632 C 0.35779 0.42258 0.95209
 C1633 C 0.33657 0.41537 0.94460
 H1634 H 0.32833 0.40122 0.95261
 O1635 O 0.61170 0.58100 0.97839
 O1636 O 0.63803 0.60711 0.97836
 C1637 C 0.63004 0.58883 0.97072
 C1638 C 0.64188 0.57677 0.95240
 C1639 C 0.66303 0.58410 0.94483
 H1640 H 0.67120 0.59832 0.95278
 O1641 O 0.52186 0.41848 0.88797
 O1642 O 0.52194 0.39240 0.86159
 C1643 C 0.52954 0.41069 0.86961
 C1644 C 0.54783 0.42282 0.85781
 C1645 C 0.55531 0.41571 0.83653
 H1646 H 0.54731 0.40158 0.82824
 O1647 O 0.47787 0.58105 0.88816
 O1648 O 0.47789 0.60720 0.86184
 C1649 C 0.47023 0.58891 0.86982
 C1650 C 0.45189 0.57689 0.85799
 C1651 C 0.44426 0.58430 0.83687
 H1652 H 0.45219 0.59855 0.82872
 O1653 O 0.38796 0.52150 0.91883
 O1654 O 0.36164 0.52156 0.89269
 C1655 C 0.36962 0.52916 0.91101
 C1656 C 0.35777 0.54742 0.92313
 C1657 C 0.33654 0.55488 0.91592
 H1658 H 0.32832 0.54688 0.90175
 O1659 O 0.61193 0.47767 0.91895
 O1660 O 0.63821 0.47773 0.89275
 C1661 C 0.63023 0.46999 0.91102
 C1662 C 0.64199 0.45153 0.92292
 C1663 C 0.66295 0.44371 0.91530
 H1664 H 0.67105 0.45160 0.90098
 O1665 O 0.58112 0.38755 0.97817
 O1666 O 0.60727 0.36125 0.97817
 C1667 C 0.58900 0.36924 0.97049
 C1668 C 0.57703 0.35749 0.95206
 C1669 C 0.58449 0.33645 0.94434
 H1670 H 0.59872 0.32828 0.95228
 O1671 O 0.41848 0.61166 0.97829
 O1672 O 0.39227 0.63790 0.97825
 C1673 C 0.41058 0.62996 0.97060
 C1674 C 0.42258 0.64178 0.95224
 C1675 C 0.41519 0.66289 0.94461
 H1676 H 0.40095 0.67104 0.95257
 Cu1677 Cu 0.59390 0.49966 0.90628
 Cu1678 Cu 0.62538 0.49978 0.87475
 Cu1679 Cu 0.40599 0.49962 0.90597
 Cu1680 Cu 0.37449 0.49965 0.87450
 Cu1681 Cu 0.59368 0.59378 1.00034
 Cu1682 Cu 0.62521 0.62521 1.00034
 Cu1683 Cu 0.59391 0.40554 1.00012
 Cu1684 Cu 0.62540 0.37407 1.00015
 Cu1685 Cu 0.40577 0.59359 1.00025
 Cu1686 Cu 0.37422 0.62500 1.00024
 Cu1687 Cu 0.40589 0.40552 1.00003
 Cu1688 Cu 0.37441 0.37405 1.00000
 Cu1689 Cu 0.49976 0.59381 0.90625
 Cu1690 Cu 0.49982 0.62529 0.87475
 Cu1691 Cu 0.49995 0.40563 0.90598
 Cu1692 Cu 0.50002 0.37420 0.87443
 C1693 C 0.55860 0.44111 0.86824
 H1694 H 0.55312 0.44650 0.88477
 C1695 C 0.57332 0.42661 0.82597
 C1696 C 0.44121 0.55845 0.86826
 H1697 H 0.44680 0.55283 0.88467
 C1698 C 0.42617 0.57356 0.82632
 C1699 C 0.44100 0.63152 0.94152
 H1700 H 0.44661 0.61511 0.94710
 C1701 C 0.42593 0.67345 0.92650
 C1702 C 0.55863 0.36779 0.94134
 H1703 H 0.55297 0.38416 0.94700
 C1704 C 0.57386 0.32599 0.92612
 C1705 C 0.63177 0.44087 0.94142
 H1706 H 0.61547 0.44660 0.94719
 C1707 C 0.67341 0.42547 0.92588
 C1708 C 0.36811 0.55819 0.94148
 H1709 H 0.38462 0.55275 0.94694
 C1710 C 0.32592 0.57286 0.92678
 C1711 C 0.55856 0.55848 0.86856
 H1712 H 0.55301 0.55293 0.88502
 C1713 C 0.57347 0.57338 0.82649
 C1714 C 0.44128 0.44096 0.86810
 H1715 H 0.44689 0.44657 0.88450
 C1716 C 0.42620 0.42587 0.82617
 C1717 C 0.63160 0.55837 0.94168
 H1718 H 0.61516 0.55280 0.94723
 C1719 C 0.67361 0.57334 0.92676
 C1720 C 0.36817 0.44089 0.94130
 H1721 H 0.38466 0.44636 0.94679
 C1722 C 0.32602 0.42619 0.92654
 C1723 C 0.55841 0.63161 0.94162
 H1724 H 0.55292 0.61512 0.94710
 C1725 C 0.57320 0.67374 0.92688
 C1726 C 0.44127 0.36775 0.94129
 H1727 H 0.44684 0.38416 0.94689
 C1728 C 0.42629 0.32582 0.92620
 C1729 C 1.13274 1.13153 1.31157
 C1730 C 1.12475 1.12363 1.29469
 C1731 C 1.11536 1.11442 1.27437
 C1732 C 1.12554 1.09589 1.26398
 C1733 C 1.11677 1.08734 1.24389
 C1734 C 1.09778 1.09728 1.23411
 C1735 C 1.08750 1.11572 1.24458
 C1736 C 1.09627 1.12427 1.26467
 C1737 C 1.08915 1.08889 1.21312
 C1738 C 1.08212 1.08199 1.19539
 H1739 H 1.14033 1.08817 1.27130
 H1740 H 1.12487 1.07310 1.23591
 H1741 H 1.07284 1.12357 1.23714
 H1742 H 1.08829 1.13864 1.27254
 C1743 C 1.13014 0.63017 0.81240
 C1744 C 1.12234 0.62237 0.79540
 C1745 C 1.11323 0.61325 0.77491
 C1746 C 1.12190 0.59323 0.76601
 C1747 C 1.11348 0.58472 0.74575
 C1748 C 1.09636 0.59619 0.73433
 C1749 C 1.08759 0.61613 0.74331
 C1750 C 1.09601 0.62464 0.76357
 C1751 C 1.08813 0.58779 0.71318
 C1752 C 1.08137 0.58093 0.69534
 H1753 H 1.13525 0.58432 0.77462
 H1754 H 1.12042 0.56932 0.73892
 H1755 H 1.07439 0.62516 0.73459
 H1756 H 1.08922 0.64016 0.77028
 C1757 C 0.63299 1.13200 0.81120
 C1758 C 0.62502 1.12422 0.79425
 C1759 C 0.61560 1.11515 0.77387
 C1760 C 0.62348 1.09466 0.76530
 C1761 C 0.61466 1.08611 0.74523
 C1762 C 0.59794 1.09800 0.73365
 C1763 C 0.58999 1.11843 0.74228
 C1764 C 0.59880 1.12699 0.76235
 C1765 C 0.58925 1.08948 0.71272
 C1766 C 0.58214 1.08247 0.69507
 H1767 H 0.63650 1.08539 0.77405
 H1768 H 0.62097 1.07032 0.73868
 H1769 H 0.57710 1.12780 0.73344
 H1770 H 0.59262 1.14287 0.76880
 C1771 C 0.63028 0.63036 1.31247
 C1772 C 0.62240 0.62251 1.29552
 C1773 C 0.61319 0.61335 1.27510
 C1774 C 0.59601 0.62479 1.26373
 C1775 C 0.58751 0.61625 1.24353
 C1776 C 0.59615 0.59623 1.23461
 C1777 C 0.61321 0.58470 1.24606
 C1778 C 0.62172 0.59324 1.26627
 C1779 C 0.58785 0.58780 1.21350
 C1780 C 0.58105 0.58094 1.19567
 H1781 H 0.58933 0.64038 1.27039
 H1782 H 0.57435 0.62533 1.23479
 H1783 H 0.62005 0.56922 1.23928
 H1784 H 0.63504 0.58428 1.27489
 C1785 C 0.86845 0.86822 1.31167
 C1786 C 0.87625 0.87614 1.29470
 C1787 C 0.88530 0.88548 1.27427
 C1788 C 0.90785 0.88179 1.26850
 C1789 C 0.91645 0.89048 1.24838
 C1790 C 0.90253 0.90288 1.23397
 C1791 C 0.88002 0.90667 1.23980
 C1792 C 0.87142 0.89798 1.25991
 C1793 C 0.91118 0.91138 1.21301
 C1794 C 0.91822 0.91835 1.19531
 H1795 H 0.91871 0.87211 1.27947
 H1796 H 0.93388 0.88742 1.24401
 H1797 H 0.86910 0.91620 1.22875
 H1798 H 0.85395 0.90090 1.26418
 C1799 C 0.86669 0.36760 0.81072
 C1800 C 0.87459 0.37550 0.79378
 C1801 C 0.88378 0.38477 0.77337
 C1802 C 0.90708 0.38485 0.76980
 C1803 C 0.91591 0.39346 0.74974
 C1804 C 0.90148 0.40201 0.73319
 C1805 C 0.87820 0.40203 0.73682
 C1806 C 0.86937 0.39342 0.75686
 C1807 C 0.91045 0.41046 0.71234
 C1808 C 0.91770 0.41743 0.69471
 H1809 H 0.91837 0.37817 0.78245
 H1810 H 0.93394 0.39334 0.74709
 H1811 H 0.86689 0.40857 0.72412
 H1812 H 0.85133 0.39341 0.75943
 C1813 C 0.36807 0.86890 0.81159
 C1814 C 0.37596 0.87678 0.79465
 C1815 C 0.38521 0.88600 0.77425
 C1816 C 0.40432 0.87626 0.76449
 C1817 C 0.41296 0.88485 0.74434
 C1818 C 0.40252 0.90320 0.73389
 C1819 C 0.38350 0.91303 0.74373
 C1820 C 0.37486 0.90445 0.76388
 C1821 C 0.41103 0.91165 0.71286
 C1822 C 0.41800 0.91857 0.69511
 H1823 H 0.41243 0.86197 0.77235
 H1824 H 0.42765 0.87709 0.73685
 H1825 H 0.37527 0.92720 0.73576
 H1826 H 0.36005 0.91208 0.77126
 C1827 C 0.36856 0.36931 1.31266
 C1828 C 0.37644 0.37708 1.29565
 C1829 C 0.38566 0.38614 1.27517
 C1830 C 0.40474 0.37630 1.26543
 C1831 C 0.41333 0.38470 1.24519
 C1832 C 0.40288 0.40298 1.23461
 C1833 C 0.38390 0.41292 1.24443
 C1834 C 0.37531 0.40451 1.26467
 C1835 C 0.41133 0.41123 1.21347
 C1836 C 0.41821 0.41801 1.19563
 H1837 H 0.41284 0.36205 1.27338
 H1838 H 0.42799 0.37686 1.23772
 H1839 H 0.37567 0.42704 1.23637
 H1840 H 0.36053 0.41222 1.27203
 C1841 C 0.86677 1.13240 0.68934
 C1842 C 0.87481 1.12460 0.70625
 C1843 C 0.88432 1.11552 0.72658
 C1844 C 0.87782 1.09419 0.73419
 C1845 C 0.88671 1.08558 0.75421
 C1846 C 0.90215 1.09828 0.76669
 C1847 C 0.90874 1.11956 0.75902
 C1848 C 0.89985 1.12815 0.73900
 C1849 C 0.91087 1.08969 0.78758
 C1850 C 0.91799 1.08263 0.80521
 H1851 H 0.86579 1.08429 0.72474
 H1852 H 0.88147 1.06913 0.76002
 H1853 H 0.92063 1.12953 0.76856
 H1854 H 0.90496 1.14468 0.73329
 C1855 C 0.86910 0.63100 0.18806
 C1856 C 0.87674 0.62344 0.20525
 C1857 C 0.88566 0.61466 0.22596
 C1858 C 0.90033 0.59621 0.22571
 C1859 C 0.90888 0.58770 0.24593
 C1860 C 0.90280 0.59761 0.26644
 C1861 C 0.88815 0.61606 0.26666
 C1862 C 0.87961 0.62456 0.24647
 C1863 C 0.91146 0.58888 0.28728
 C1864 C 0.91851 0.58178 0.30491
 H1865 H 0.90511 0.58843 0.20994
 H1866 H 0.92020 0.57343 0.24557
 H1867 H 0.88334 0.62384 0.28243
 H1868 H 0.86828 0.63882 0.24685
 C1869 C 0.36812 1.13101 0.18799
 C1870 C 0.37613 1.12325 0.20493
 C1871 C 0.38557 1.11425 0.22533
 C1872 C 0.40157 1.12665 0.23739
 C1873 C 0.41030 1.11821 0.25754
 C1874 C 0.40306 1.09733 0.26573
 C1875 C 0.38718 1.08486 0.25359
 C1876 C 0.37845 1.09330 0.23343
 C1877 C 0.41156 1.08897 0.28680
 C1878 C 0.41849 1.08212 0.30458
 H1879 H 0.40716 1.14289 0.23130
 H1880 H 0.42254 1.12802 0.26682
 H1881 H 0.38143 1.06872 0.25980
 H1882 H 0.36605 1.08359 0.22427
 C1883 C 0.36817 0.63118 0.68845
 C1884 C 0.37608 0.62340 0.70542
 C1885 C 0.38537 0.61432 0.72586
 C1886 C 0.37823 0.59332 0.73380
 C1887 C 0.38687 0.58477 0.75396
 C1888 C 0.40267 0.59719 0.76624
 C1889 C 0.40991 0.61813 0.75823
 C1890 C 0.40128 0.62668 0.73808
 C1891 C 0.41114 0.58867 0.78726
 C1892 C 0.41808 0.58170 0.80499
 H1893 H 0.36590 0.58364 0.72451
 H1894 H 0.38112 0.56858 0.76003
 H1895 H 0.42210 0.62790 0.76762
 H1896 H 0.40689 0.64296 0.73211
 C1897 C 1.13226 0.86843 0.68879
 C1898 C 1.12436 0.87631 0.70573
 C1899 C 1.11511 0.88555 0.72611
 C1900 C 1.12538 0.90412 0.73635
 C1901 C 1.11673 0.91276 0.75646
 C1902 C 1.09779 0.90287 0.76640
 C1903 C 1.08745 0.88438 0.75609
 C1904 C 1.09609 0.87574 0.73598
 C1905 C 1.08925 0.91139 0.78739
 C1906 C 1.08225 0.91837 0.80511
 H1907 H 1.14012 0.91180 0.72889
 H1908 H 1.12488 0.92703 0.76433
 H1909 H 1.07282 0.87658 0.76366
 H1910 H 1.08806 0.86135 0.72823
 C1911 C 1.13187 0.36905 0.18763
 C1912 C 1.12396 0.37691 0.20458
 C1913 C 1.11469 0.38607 0.22499
 C1914 C 1.12526 0.40423 0.23565
 C1915 C 1.11661 0.41272 0.25582
 C1916 C 1.09737 0.40308 0.26543
 C1917 C 1.08671 0.38502 0.25470
 C1918 C 1.09536 0.37653 0.23452
 C1919 C 1.08886 0.41140 0.28651
 C1920 C 1.08190 0.41822 0.30431
 H1921 H 1.14024 0.41171 0.22845
 H1922 H 1.12501 0.42666 0.26401
 H1923 H 1.07185 0.37741 0.26200
 H1924 H 1.08708 0.36245 0.22645
 C1925 C 0.63151 0.86855 0.18818
 C1926 C 0.62368 0.87646 0.20514
 C1927 C 0.61453 0.88574 0.22554
 C1928 C 0.59537 0.87615 0.23535
 C1929 C 0.58681 0.88482 0.25549
 C1930 C 0.59738 0.90312 0.26590
 C1931 C 0.61646 0.91280 0.25602
 C1932 C 0.62502 0.90414 0.23588
 C1933 C 0.58893 0.91166 0.28692
 C1934 C 0.58198 0.91864 0.30465
 H1935 H 0.58716 0.86189 0.22753
 H1936 H 0.57208 0.87717 0.26301
 H1937 H 0.62479 0.92693 0.26395
 H1938 H 0.63987 0.91166 0.22847
 C1939 C 0.63113 0.37030 0.68751
 C1940 C 0.62317 0.37815 0.70443
 C1941 C 0.61385 0.38726 0.72484
 C1942 C 0.62440 0.40539 0.73557
 C1943 C 0.61577 0.41375 0.75581
 C1944 C 0.59656 0.40403 0.76538
 C1945 C 0.58590 0.38603 0.75455
 C1946 C 0.59453 0.37766 0.73432
 C1947 C 0.58812 0.41216 0.78657
 C1948 C 0.58126 0.41882 0.80446
 H1949 H 0.63938 0.41290 0.72842
 H1950 H 0.62417 0.42765 0.76407
 H1951 H 0.57106 0.37835 0.76184
 H1952 H 0.58627 0.36360 0.72619
 C1953 C 1.31196 1.13095 1.13225
 C1954 C 1.29498 1.12314 1.12438
 C1955 C 1.27456 1.11404 1.11511
 C1956 C 1.26426 1.09542 1.12524
 C1957 C 1.24411 1.08694 1.11656
 C1958 C 1.23418 1.09704 1.09772
 C1959 C 1.24455 1.11558 1.08751
 C1960 C 1.26470 1.12406 1.09619
 C1961 C 1.21315 1.08868 1.08916
 C1962 C 1.19541 1.08181 1.08216
 H1963 H 1.27172 1.08758 1.13991
 H1964 H 1.23621 1.07263 1.12462
 H1965 H 1.23700 1.12354 1.07297
 H1966 H 1.27250 1.13849 1.08825
 C1967 C 1.31179 0.63150 0.63138
 C1968 C 1.29487 0.62356 0.62352
 C1969 C 1.27450 0.61426 0.61433
 C1970 C 1.26466 0.59529 0.62426
 C1971 C 1.24454 0.58660 0.61571
 C1972 C 1.23419 0.59686 0.59718
 C1973 C 1.24411 0.61574 0.58716
 C1974 C 1.26422 0.62442 0.59572
 C1975 C 1.21317 0.58832 0.58877
 C1976 C 1.19543 0.58135 0.58186
 H1977 H 1.27244 0.58732 0.63869
 H1978 H 1.23699 0.57202 0.62361
 H1979 H 1.23621 0.62383 0.57286
 H1980 H 1.27166 0.63913 0.58793
 C1981 C 0.81075 1.13229 0.63346
 C1982 C 0.79384 1.12442 0.62550
 C1983 C 0.77353 1.11522 0.61610
 C1984 C 0.76368 1.12525 0.59717
 C1985 C 0.74366 1.11662 0.58833
 C1986 C 0.73340 1.09794 0.59838
 C1987 C 0.74331 1.08784 0.61723
 C1988 C 0.76333 1.09646 0.62607
 C1989 C 0.71251 1.08942 0.58964
 C1990 C 0.69488 1.08242 0.58249
 H1991 H 0.77140 1.13979 0.58935
 H1992 H 0.73612 1.12459 0.57378
 H1993 H 0.73550 1.07341 0.62516
 H1994 H 0.77078 1.08861 0.64074
 C1995 C 0.81203 0.63041 1.13017
 C1996 C 0.79506 0.62252 1.12240
 C1997 C 0.77460 0.61329 1.11337
 C1998 C 0.76430 0.59490 1.12391
 C1999 C 0.74406 0.58635 1.11554
 C2000 C 0.73403 0.59616 1.09660
 C2001 C 0.74441 0.61445 1.08596
 C2002 C 0.76466 0.62300 1.09433
 C2003 C 0.71288 0.58779 1.08838
 C2004 C 0.69503 0.58096 1.08164
 H2005 H 0.77182 0.58730 1.13867
 H2006 H 0.73615 0.57223 1.12392
 H2007 H 0.73678 0.62218 1.07133
 H2008 H 0.77245 0.63726 1.08608
 C2009 C 1.31164 0.86838 0.86863
 C2010 C 1.29473 0.87629 0.87654
 C2011 C 1.27437 0.88556 0.88579
 C2012 C 1.26407 0.87531 0.90435
 C2013 C 1.24396 0.88396 0.91296
 C2014 C 1.23406 0.90290 0.90304
 C2015 C 1.24443 0.91324 0.88456
 C2016 C 1.26455 0.90459 0.87596
 C2017 C 1.21304 0.91141 0.91150
 C2018 C 1.19530 0.91836 0.91843
 H2019 H 1.27150 0.86056 0.91206
 H2020 H 1.23606 0.87581 0.92723
 H2021 H 1.23690 0.92787 0.87673
 H2022 H 1.27234 0.91263 0.86156
 C2023 C 1.31247 0.36938 0.36848
 C2024 C 1.29543 0.37721 0.37621
 C2025 C 1.27490 0.38636 0.38521
 C2026 C 1.25931 0.39660 0.37080
 C2027 C 1.23910 0.40502 0.37939
 C2028 C 1.23438 0.40325 0.40243
 C2029 C 1.25002 0.39314 0.41687
 C2030 C 1.27025 0.38471 0.40827
 C2031 C 1.21333 0.41147 0.41110
 C2032 C 1.19555 0.41824 0.41811
 H2033 H 1.26271 0.39793 0.35294
 H2034 H 1.22711 0.41278 0.36807
 H2035 H 1.24653 0.39165 0.43470
 H2036 H 1.28217 0.37679 0.41955
 C2037 C 0.81132 0.86869 0.36796
 C2038 C 0.79432 0.87657 0.37568
 C2039 C 0.77385 0.88585 0.38467
 C2040 C 0.75830 0.89615 0.37027
 C2041 C 0.73819 0.90478 0.37888
 C2042 C 0.73354 0.90315 0.40194
 C2043 C 0.74914 0.89296 0.41637
 C2044 C 0.76926 0.88432 0.40775
 C2045 C 0.71261 0.91160 0.41067
 C2046 C 0.69494 0.91854 0.41777
 H2047 H 0.76167 0.89738 0.35239
 H2048 H 0.72623 0.91259 0.36757
 H2049 H 0.74568 0.89158 0.43422
 H2050 H 0.78115 0.87636 0.41903
 C2051 C 0.81049 0.36736 0.86644
 C2052 C 0.79349 0.37517 0.87428
 C2053 C 0.77306 0.38436 0.88347
 C2054 C 0.76875 0.38289 0.90661
 C2055 C 0.74871 0.39150 0.91545
 C2056 C 0.73290 0.40161 0.90118
 C2057 C 0.73726 0.40314 0.87806
 C2058 C 0.75729 0.39454 0.86922
 C2059 C 0.71210 0.41013 0.91015
 C2060 C 0.69454 0.41717 0.91745
 H2061 H 0.78081 0.37502 0.91777
 H2062 H 0.74549 0.39020 0.93335
 H2063 H 0.72514 0.41089 0.86687
 H2064 H 0.76043 0.39573 0.85130
 C2065 C 0.68837 0.86906 1.13159
 C2066 C 0.70531 0.87694 1.12370
 C2067 C 0.72570 0.88616 1.11448
 C2068 C 0.73601 0.87587 1.09594
 C2069 C 0.75616 0.88445 1.08737
 C2070 C 0.76610 0.90337 1.09730
 C2071 C 0.75572 0.91375 1.11574
 C2072 C 0.73556 0.90517 1.12431
 C2073 C 0.78716 0.91181 1.08888
 C2074 C 0.80494 0.91870 1.08198
 H2075 H 0.72855 0.86114 1.08823
 H2076 H 0.76408 0.87627 1.07313
 H2077 H 0.76328 0.92836 1.12358
 H2078 H 0.72776 0.91323 1.13868
 C2079 C 0.68771 0.36957 0.63059
 C2080 C 0.70466 0.37741 0.62269
 C2081 C 0.72509 0.38654 0.61346
 C2082 C 0.73632 0.40396 0.62466
 C2083 C 0.75654 0.41238 0.61607
 C2084 C 0.76561 0.40341 0.59624
 C2085 C 0.75429 0.38611 0.58494
 C2086 C 0.73407 0.37769 0.59354
 C2087 C 0.78677 0.41161 0.58779
 C2088 C 0.80462 0.41833 0.58092
 H2089 H 0.72955 0.41090 0.64010
 H2090 H 0.76518 0.42573 0.62496
 H2091 H 0.76118 0.37903 0.56962
 H2092 H 0.72555 0.36419 0.58477
 C2093 C 0.18894 0.86789 0.63202
 C2094 C 0.20593 0.87581 0.62429
 C2095 C 0.22637 0.88515 0.61530
 C2096 C 0.24237 0.89454 0.62982
 C2097 C 0.26244 0.90325 0.62119
 C2098 C 0.26660 0.90261 0.59799
 C2099 C 0.25057 0.89330 0.58344
 C2100 C 0.23049 0.88459 0.59208
 C2101 C 0.28747 0.91117 0.58922
 C2102 C 0.30510 0.91821 0.58209
 H2103 H 0.23938 0.89502 0.64780
 H2104 H 0.27475 0.91037 0.63259
 H2105 H 0.25364 0.89269 0.56548
 H2106 H 0.21824 0.87733 0.58071
 C2107 C 0.18788 0.36890 1.13173
 C2108 C 0.20486 0.37669 1.12382
 C2109 C 0.22529 0.38577 1.11454
 C2110 C 0.23547 0.40453 1.12453
 C2111 C 0.25565 0.41298 1.11588
 C2112 C 0.26574 0.40272 1.09721
 C2113 C 0.25548 0.38405 1.08713
 C2114 C 0.23530 0.37560 1.09578
 C2115 C 0.28681 0.41103 1.08870
 C2116 C 0.30460 0.41786 1.08176
 H2117 H 0.22790 0.41250 1.13907
 H2118 H 0.26346 0.42739 1.12383
 H2119 H 0.26316 0.37596 1.07271
 H2120 H 0.22760 0.36106 1.08796
 C2121 C 0.68910 1.13195 0.86697
 C2122 C 0.70613 1.12415 0.87474
 C2123 C 0.72665 1.11506 0.88380
 C2124 C 0.74602 1.11424 0.87041
 C2125 C 0.76608 1.10571 0.87922
 C2126 C 0.76687 1.09796 0.90147
 C2127 C 0.74748 1.09871 0.91486
 C2128 C 0.72740 1.10725 0.90605
 C2129 C 0.78763 1.08942 0.91051
 C2130 C 0.80520 1.08239 0.91780
 H2131 H 0.74564 1.12026 0.85320
 H2132 H 0.78097 1.10521 0.86872
 H2133 H 0.74790 1.09277 0.93210
 H2134 H 0.71252 1.10784 0.91656
 C2135 C 0.68789 0.63041 0.36985
 C2136 C 0.70487 0.62254 0.37764
 C2137 C 0.72533 0.61333 0.38672
 C2138 C 0.73542 0.62326 0.40556
 C2139 C 0.75565 0.61471 0.41397
 C2140 C 0.76587 0.59620 0.40357
 C2141 C 0.75570 0.58617 0.38483
 C2142 C 0.73547 0.59472 0.37642
 C2143 C 0.78702 0.58783 0.41181
 C2144 C 0.80487 0.58099 0.41856
 H2145 H 0.72775 0.63769 0.41362
 H2146 H 0.76341 0.62263 0.42844
 H2147 H 0.76349 0.57188 0.37663
 H2148 H 0.72783 0.58694 0.36181
 C2149 C 0.18887 1.13183 0.36731
 C2150 C 0.20583 1.12403 0.37523
 C2151 C 0.22622 1.11491 0.38454
 C2152 C 0.23569 1.12448 0.40389
 C2153 C 0.25579 1.11596 0.41263
 C2154 C 0.26651 1.09783 0.40206
 C2155 C 0.25697 1.08818 0.38279
 C2156 C 0.23687 1.09670 0.37405
 C2157 C 0.28747 1.08941 0.41072
 C2158 C 0.30516 1.08248 0.41778
 H2159 H 0.22761 1.13860 0.41211
 H2160 H 0.26304 1.12358 0.42752
 H2161 H 0.26515 1.07418 0.37446
 H2162 H 0.22972 1.08920 0.35905
 C2163 C 0.18751 0.63006 0.87001
 C2164 C 0.20448 0.62220 0.87783
 C2165 C 0.22492 0.61302 0.88695
 C2166 C 0.23471 0.59397 0.87712
 C2167 C 0.25495 0.58545 0.88555
 C2168 C 0.26547 0.59594 0.90385
 C2169 C 0.25559 0.61489 0.91378
 C2170 C 0.23535 0.62341 0.90535
 C2171 C 0.28662 0.58759 0.91210
 C2172 C 0.30446 0.58077 0.91887
 H2173 H 0.22681 0.58584 0.86285
 H2174 H 0.26247 0.57083 0.87771
 H2175 H 0.26361 0.62316 0.92790
 H2176 H 0.22795 0.63818 0.91304
 C2177 C 1.13136 1.31204 1.13122
 C2178 C 1.12349 1.29509 1.12338
 C2179 C 1.11429 1.27467 1.11421
 C2180 C 1.09562 1.26452 1.12442
 C2181 C 1.08706 1.24434 1.11589
 C2182 C 1.09713 1.23424 1.09712
 C2183 C 1.11570 1.24446 1.08682
 C2184 C 1.12426 1.26464 1.09535
 C2185 C 1.08872 1.21316 1.08874
 C2186 C 1.08184 1.19538 1.08187
 H2187 H 1.08781 1.27211 1.13904
 H2188 H 1.07272 1.23655 1.12401
 H2189 H 1.12364 1.23677 1.07233
 H2190 H 1.13873 1.27232 1.08736
 C2191 C 1.13246 0.81094 0.63129
 C2192 C 1.12457 0.79399 0.62346
 C2193 C 1.11529 0.77360 0.61432
 C2194 C 1.12566 0.76310 0.59594
 C2195 C 1.11696 0.74298 0.58741
 C2196 C 1.09785 0.73329 0.59724
 C2197 C 1.08741 0.74385 0.61554
 C2198 C 1.09611 0.76397 0.62406
 C2199 C 1.08925 0.71229 0.58884
 C2200 C 1.08223 0.69458 0.58193
 H2201 H 1.14053 0.77037 0.58831
 H2202 H 1.12519 0.73492 0.57329
 H2203 H 1.07266 0.73647 0.62330
 H2204 H 1.08799 0.77192 0.63832
 C2205 C 0.63191 1.31198 0.63088
 C2206 C 0.62428 1.29476 0.62340
 C2207 C 0.61534 1.27403 0.61471
 C2208 C 0.61991 1.25374 0.62577
 C2209 C 0.61129 1.23354 0.61737
 C2210 C 0.59806 1.23354 0.59787
 C2211 C 0.59347 1.25384 0.58680
 C2212 C 0.60210 1.27405 0.59520
 C2213 C 0.58934 1.21270 0.58924
 C2214 C 0.58221 1.19509 0.58218
 H2215 H 0.63014 1.25353 0.64085
 H2216 H 0.61496 1.21795 0.62605
 H2217 H 0.58328 1.25402 0.57169
 H2218 H 0.59847 1.28965 0.58651
 C2219 C 0.63090 0.81154 1.13175
 C2220 C 0.62304 0.79458 1.12390
 C2221 C 0.61385 0.77416 1.11472
 C2222 C 0.62360 0.76437 1.09562
 C2223 C 0.61505 0.74420 1.08705
 C2224 C 0.59673 0.73374 1.09756
 C2225 C 0.58689 0.74361 1.11658
 C2226 C 0.59543 0.76378 1.12514
 C2227 C 0.58832 0.71268 1.08911
 C2228 C 0.58144 0.69492 1.08219
 H2229 H 0.63787 0.77223 1.08746
 H2230 H 0.62281 0.73669 1.07237
 H2231 H 0.57274 0.73564 1.12486
 H2232 H 0.58779 0.77119 1.13994
 C2233 C 0.86726 1.31071 0.86730
 C2234 C 0.87521 1.29385 0.87525
 C2235 C 0.88454 1.27356 0.88459
 C2236 C 0.87422 1.26324 0.90311
 C2237 C 0.88299 1.24324 0.91186
 C2238 C 0.90212 1.23349 0.90214
 C2239 C 0.91251 1.24387 0.88370
 C2240 C 0.90374 1.26387 0.87494
 C2241 C 0.91079 1.21262 0.91078
 C2242 C 0.91788 1.19500 0.91788
 H2243 H 0.85934 1.27056 0.91067
 H2244 H 0.87480 1.23533 0.92609
 H2245 H 0.92727 1.23645 0.87602
 H2246 H 0.91183 1.27168 0.86059
 C2247 C 0.86894 0.81132 0.36822
 C2248 C 0.87680 0.79439 0.37612
 C2249 C 0.88600 0.77400 0.38536
 C2250 C 0.87567 0.76371 0.40389
 C2251 C 0.88426 0.74358 0.41250
 C2252 C 0.90321 0.73366 0.40262
 C2253 C 0.91363 0.74402 0.38418
 C2254 C 0.90504 0.76415 0.37556
 C2255 C 0.91167 0.71264 0.41109
 C2256 C 0.91860 0.69489 0.41802
 H2257 H 0.86091 0.77116 0.41156
 H2258 H 0.87605 0.73569 0.42674
 H2259 H 0.92826 0.73646 0.37638
 H2260 H 0.91312 0.77193 0.36120
 C2261 C 0.36903 1.31253 0.36932
 C2262 C 0.37689 1.29557 0.37717
 C2263 C 0.38610 1.27515 0.38633
 C2264 C 0.37583 1.26482 0.40486
 C2265 C 0.38441 1.24464 0.41337
 C2266 C 0.40330 1.23471 0.40337
 C2267 C 0.41367 1.24512 0.38494
 C2268 C 0.40509 1.26530 0.37643
 C2269 C 0.41173 1.21362 0.41171
 C2270 C 0.41861 1.19582 0.41854
 H2271 H 0.36111 1.27226 0.41261
 H2272 H 0.37623 1.23670 0.42760
 H2273 H 0.42826 1.23756 0.37705
 H2274 H 0.41314 1.27313 0.36207
 C2275 C 0.36795 0.81129 0.86900
 C2276 C 0.37582 0.79432 0.87682
 C2277 C 0.38505 0.77391 0.88597
 C2278 C 0.37507 0.76382 0.90481
 C2279 C 0.38370 0.74368 0.91335
 C2280 C 0.40233 0.73353 0.90309
 C2281 C 0.41239 0.74369 0.88434
 C2282 C 0.40377 0.76384 0.87580
 C2283 C 0.41084 0.71251 0.91151
 C2284 C 0.41781 0.69477 0.91843
 H2285 H 0.36056 0.77144 0.91278
 H2286 H 0.37577 0.73594 0.92783
 H2287 H 0.42678 0.73596 0.87624
 H2288 H 0.41158 0.77147 0.86120
 C2289 C 1.13012 0.68765 0.86991
 C2290 C 1.12231 0.70465 0.87771
 C2291 C 1.11320 0.72513 0.88681
 C2292 C 1.12321 0.73516 0.90564
 C2293 C 1.11477 0.75542 0.91409
 C2294 C 1.09628 0.76574 0.90373
 C2295 C 1.08617 0.75563 0.88500
 C2296 C 1.09461 0.73536 0.87656
 C2297 C 1.08801 0.78691 0.91202
 C2298 C 1.08125 0.80477 0.91881
 H2299 H 1.13761 0.72742 0.91367
 H2300 H 1.12274 0.76313 0.92855
 H2301 H 1.07191 0.76349 0.87683
 H2302 H 1.08678 0.72777 0.86195
 C2303 C 1.13232 0.18866 0.36783
 C2304 C 1.12442 0.20559 0.37569
 C2305 C 1.11516 0.22595 0.38492
 C2306 C 1.12524 0.23608 0.40366
 C2307 C 1.11657 0.25616 0.41230
 C2308 C 1.09779 0.26620 0.40222
 C2309 C 1.08762 0.25601 0.38356
 C2310 C 1.09629 0.23592 0.37492
 C2311 C 1.08923 0.28716 0.41074
 C2312 C 1.08223 0.30485 0.41773
 H2313 H 1.13986 0.22853 0.41149
 H2314 H 1.12459 0.26393 0.42670
 H2315 H 1.07312 0.26366 0.37561
 H2316 H 1.08840 0.22826 0.36040
 C2317 C 0.63056 0.68805 0.36977
 C2318 C 0.62277 0.70508 0.37753
 C2319 C 0.61365 0.72557 0.38660
 C2320 C 0.59486 0.73559 0.37652
 C2321 C 0.58637 0.75584 0.38494
 C2322 C 0.59663 0.76615 0.40348
 C2323 C 0.61533 0.75606 0.41365
 C2324 C 0.62383 0.73581 0.40523
 C2325 C 0.58827 0.78728 0.41176
 C2326 C 0.58144 0.80512 0.41854
 H2327 H 0.58689 0.72784 0.36207
 H2328 H 0.57193 0.76353 0.37691
 H2329 H 0.62342 0.76391 0.42796
 H2330 H 0.63840 0.72823 0.41312
 C2331 C 0.63251 0.18877 0.86783
 C2332 C 0.62460 0.20567 0.87574
 C2333 C 0.61529 0.22600 0.88499
 C2334 C 0.62534 0.23614 0.90374
 C2335 C 0.61662 0.25619 0.91239
 C2336 C 0.59780 0.26619 0.90234
 C2337 C 0.58767 0.25599 0.88366
 C2338 C 0.59639 0.23594 0.87501
 C2339 C 0.58916 0.28711 0.91090
 C2340 C 0.58209 0.30476 0.91792
 H2341 H 0.63999 0.22863 0.91155
 H2342 H 0.62461 0.26397 0.92681
 H2343 H 0.57314 0.26360 0.87573
 H2344 H 0.58852 0.22827 0.86047
 C2345 C 0.86949 0.68794 1.13003
 C2346 C 0.87736 0.70490 1.12221
 C2347 C 0.88657 0.72535 1.11312
 C2348 C 0.87650 0.73556 1.09442
 C2349 C 0.88505 0.75579 1.08601
 C2350 C 0.90370 0.76590 1.09628
 C2351 C 0.91386 0.75560 1.11489
 C2352 C 0.90531 0.73537 1.12329
 C2353 C 0.91206 0.78705 1.08806
 C2354 C 0.91888 0.80491 1.08133
 H2355 H 0.86197 0.72798 1.08646
 H2356 H 0.87704 0.76364 1.07164
 H2357 H 0.92825 0.76330 1.12298
 H2358 H 0.91319 0.72764 1.13780
 C2359 C 0.86731 0.18912 0.63264
 C2360 C 0.87527 0.20597 0.62464
 C2361 C 0.88463 0.22622 0.61527
 C2362 C 0.87451 0.23635 0.59655
 C2363 C 0.88327 0.25634 0.58778
 C2364 C 0.90220 0.26627 0.59769
 C2365 C 0.91240 0.25607 0.61633
 C2366 C 0.90364 0.23608 0.62510
 C2367 C 0.91085 0.28715 0.58904
 C2368 C 0.91793 0.30478 0.58195
 H2369 H 0.85977 0.22890 0.58885
 H2370 H 0.87523 0.26412 0.57339
 H2371 H 0.92701 0.26364 0.62415
 H2372 H 0.91157 0.22841 0.63961
 C2373 C 0.36818 0.68855 0.63080
 C2374 C 0.37609 0.70549 0.62296
 C2375 C 0.38538 0.72588 0.61380
 C2376 C 0.37524 0.73617 0.59517
 C2377 C 0.38390 0.75631 0.58665
 C2378 C 0.40274 0.76626 0.59673
 C2379 C 0.41297 0.75589 0.61526
 C2380 C 0.40431 0.73575 0.62378
 C2381 C 0.41125 0.78731 0.58836
 C2382 C 0.41819 0.80508 0.58150
 H2383 H 0.36057 0.72871 0.58735
 H2384 H 0.37583 0.76421 0.57235
 H2385 H 0.42751 0.76346 0.62321
 H2386 H 0.41225 0.72796 0.63822
 C2387 C 0.36838 0.18792 1.13148
 C2388 C 0.37622 0.20487 1.12361
 C2389 C 0.38543 0.22528 1.11441
 C2390 C 0.40422 0.23532 1.12447
 C2391 C 0.41281 0.25547 1.11588
 C2392 C 0.40264 0.26565 1.09721
 C2393 C 0.38394 0.25553 1.08707
 C2394 C 0.37535 0.23538 1.09565
 C2395 C 0.41111 0.28668 1.08876
 C2396 C 0.41805 0.30442 1.08184
 H2397 H 0.41211 0.22768 1.13901
 H2398 H 0.42725 0.26318 1.12388
 H2399 H 0.37592 0.26329 1.07266
 H2400 H 0.36078 0.22778 1.08778
 C2401 C 1.12960 1.13051 0.68711
 C2402 C 1.12187 1.12268 0.70415
 C2403 C 1.11290 1.11351 0.72469
 C2404 C 1.12348 1.09519 0.73506
 C2405 C 1.11518 1.08671 0.75538
 C2406 C 1.09625 1.09652 0.76543
 C2407 C 1.08556 1.11474 0.75498
 C2408 C 1.09387 1.12322 0.73466
 C2409 C 1.08810 1.08822 0.78667
 C2410 C 1.08141 1.08145 0.80459
 H2411 H 1.13824 1.08759 0.72752
 H2412 H 1.12360 1.07265 0.76334
 H2413 H 1.07094 1.12248 0.76263
 H2414 H 1.08558 1.13743 0.72682
 C2415 C 1.13181 0.63286 0.18856
 C2416 C 1.12396 0.62491 0.20550
 C2417 C 1.11479 0.61557 0.22588
 C2418 C 1.09837 0.62740 0.23796
 C2419 C 1.08985 0.61858 0.25805
 C2420 C 1.09770 0.59790 0.26614
 C2421 C 1.11402 0.58599 0.25400
 C2422 C 1.12254 0.59481 0.23390
 C2423 C 1.08932 0.58912 0.28710
 C2424 C 1.08240 0.58197 0.30478
 H2425 H 1.09229 0.64348 0.23193
 H2426 H 1.07726 0.62795 0.26733
 H2427 H 1.12023 0.57000 0.26013
 H2428 H 1.13526 0.58554 0.22472
 C2429 C 0.63112 1.13202 0.18780
 C2430 C 0.62326 1.12416 0.20478
 C2431 C 0.61409 1.11495 0.22521
 C2432 C 0.62370 1.09571 0.23486
 C2433 C 0.61517 1.08712 0.25505
 C2434 C 0.59700 1.09772 0.26567
 C2435 C 0.58729 1.11686 0.25595
 C2436 C 0.59582 1.12546 0.23576
 C2437 C 0.58862 1.08924 0.28675
 C2438 C 0.58175 1.08231 0.30454
 H2439 H 0.63785 1.08748 0.22687
 H2440 H 0.62283 1.07233 0.26244
 H2441 H 0.57327 1.12522 0.26405
 H2442 H 0.58829 1.14037 0.22848
 C2443 C 0.63087 0.63085 0.68831
 C2444 C 0.62302 0.62301 0.70529
 C2445 C 0.61382 0.61388 0.72574
 C2446 C 0.62211 0.59361 0.73442
 C2447 C 0.61356 0.58506 0.75462
 C2448 C 0.59670 0.59675 0.76621
 C2449 C 0.58831 0.61695 0.75745
 C2450 C 0.59685 0.62550 0.73725
 C2451 C 0.58834 0.58830 0.78729
 C2452 C 0.58148 0.58140 0.80509
 H2453 H 0.63526 0.58452 0.72568
 H2454 H 0.62020 0.56945 0.76127
 H2455 H 0.57530 0.62616 0.76630
 H2456 H 0.59036 0.64122 0.73071
 C2457 C 0.87016 0.86974 0.68750
 C2458 C 0.87799 0.87760 0.70447
 C2459 C 0.88710 0.88680 0.72492
 C2460 C 0.87686 0.90545 0.73506
 C2461 C 0.88529 0.91399 0.75529
 C2462 C 0.90399 0.90392 0.76548
 C2463 C 0.91434 0.88537 0.75526
 C2464 C 0.90591 0.87683 0.73503
 C2465 C 0.91224 0.91228 0.78665
 C2466 C 0.91899 0.91910 0.80451
 H2467 H 0.86227 0.91326 0.72742
 H2468 H 0.87713 0.92830 0.76308
 H2469 H 0.92878 0.87743 0.76303
 H2470 H 0.91392 0.86238 0.72736
 C2471 C 0.86934 0.36934 0.18729
 C2472 C 0.87720 0.37716 0.20427
 C2473 C 0.88640 0.38629 0.22471
 C2474 C 0.90544 0.37647 0.23452
 C2475 C 0.91398 0.38493 0.25474
 C2476 C 0.90352 0.40325 0.26524
 C2477 C 0.88457 0.41317 0.25535
 C2478 C 0.87603 0.40471 0.23513
 C2479 C 0.91191 0.41154 0.28638
 C2480 C 0.91877 0.41834 0.30421
 H2481 H 0.91356 0.36219 0.22663
 H2482 H 0.92862 0.37710 0.26227
 H2483 H 0.87633 0.42731 0.26335
 H2484 H 0.86127 0.41240 0.22772
 C2485 C 0.36944 0.86806 0.18829
 C2486 C 0.37732 0.87610 0.20515
 C2487 C 0.38647 0.88556 0.22547
 C2488 C 0.37621 0.90430 0.23541
 C2489 C 0.38469 0.91311 0.25551
 C2490 C 0.40345 0.90320 0.26575
 C2491 C 0.41381 0.88456 0.25573
 C2492 C 0.40533 0.87575 0.23563
 C2493 C 0.41176 0.91182 0.28679
 C2494 C 0.41858 0.91883 0.30455
 H2495 H 0.36158 0.91198 0.22772
 H2496 H 0.37653 0.92750 0.26315
 H2497 H 0.42830 0.87674 0.26354
 H2498 H 0.41335 0.86122 0.22811
 C2499 C 0.36846 0.36753 0.68849
 C2500 C 0.37630 0.37545 0.70544
 C2501 C 0.38548 0.38475 0.72583
 C2502 C 0.37508 0.40324 0.73609
 C2503 C 0.38366 0.41192 0.75621
 C2504 C 0.40266 0.40216 0.76614
 C2505 C 0.41314 0.38376 0.75580
 C2506 C 0.40456 0.37507 0.73569
 C2507 C 0.41113 0.41072 0.78714
 C2508 C 0.41808 0.41772 0.80486
 H2509 H 0.36029 0.41082 0.72864
 H2510 H 0.37540 0.42613 0.76409
 H2511 H 0.42781 0.37605 0.76337
 H2512 H 0.41271 0.36074 0.72792
 C2513 C 1.13080 0.86903 1.31249
 C2514 C 1.12289 0.87695 1.29557
 C2515 C 1.11368 0.88623 1.27520
 C2516 C 1.12391 0.90488 1.26504
 C2517 C 1.11539 0.91348 1.24486
 C2518 C 1.09660 0.90348 1.23476
 C2519 C 1.08626 0.88494 1.24501
 C2520 C 1.09478 0.87634 1.26519
 C2521 C 1.08827 0.91189 1.21364
 C2522 C 1.08147 0.91875 1.19581
 H2523 H 1.13855 0.91263 1.27261
 H2524 H 1.12353 0.92779 1.23706
 H2525 H 1.07175 0.87705 1.23731
 H2526 H 1.08677 0.86189 1.27287
 C2527 C 1.13001 0.36876 0.81241
 C2528 C 1.12222 0.37659 0.79541
 C2529 C 1.11315 0.38577 0.77493
 C2530 C 1.12348 0.40435 0.76474
 C2531 C 1.11507 0.41288 0.74449
 C2532 C 1.09631 0.40288 0.73434
 C2533 C 1.08589 0.38441 0.74461
 C2534 C 1.09429 0.37587 0.76486
 C2535 C 1.08806 0.41126 0.71318
 C2536 C 1.08132 0.41812 0.69533
 H2537 H 1.13810 0.41210 0.77235
 H2538 H 1.12328 0.42715 0.73667
 H2539 H 1.07140 0.37652 0.73688
 H2540 H 1.08621 0.36147 0.77257
 C2541 C 0.63019 0.86966 0.81244
 C2542 C 0.62236 0.87749 0.79545
 C2543 C 0.61323 0.88666 0.77499
 C2544 C 0.62374 0.90499 0.76454
 C2545 C 0.61525 0.91350 0.74431
 C2546 C 0.59622 0.90371 0.73445
 C2547 C 0.58562 0.88549 0.74498
 C2548 C 0.59410 0.87698 0.76521
 C2549 C 0.58790 0.91205 0.71330
 C2550 C 0.58109 0.91887 0.69546
 H2551 H 0.63856 0.91257 0.77194
 H2552 H 0.62361 0.92756 0.73629
 H2553 H 0.57092 0.87777 0.73747
 H2554 H 0.58588 0.86278 0.77312
 C2555 C 0.63167 0.36724 1.31151
 C2556 C 0.62372 0.37516 1.29462
 C2557 C 0.61445 0.38448 1.27428
 C2558 C 0.62459 0.40320 1.26418
 C2559 C 0.61594 0.41190 1.24410
 C2560 C 0.59712 0.40192 1.23404
 C2561 C 0.58689 0.38328 1.24422
 C2562 C 0.59554 0.37458 1.26430
 C2563 C 0.58861 0.41049 1.21306
 C2564 C 0.58164 0.41750 1.19535
 H2565 H 0.63924 0.41095 1.27173
 H2566 H 0.62401 0.42629 1.23635
 H2567 H 0.57236 0.37541 1.23655
 H2568 H 0.58760 0.36007 1.27194
 C2569 C 0.86911 1.13173 1.31233
 C2570 C 0.87692 1.12381 1.29536
 C2571 C 0.88602 1.11452 1.27493
 C2572 C 0.87399 1.09811 1.26306
 C2573 C 0.88252 1.08950 1.24289
 C2574 C 0.90314 1.09725 1.23451
 C2575 C 0.91525 1.11355 1.24645
 C2576 C 0.90671 1.12217 1.26663
 C2577 C 0.91160 1.08883 1.21344
 C2578 C 0.91851 1.08193 1.19566
 H2579 H 0.85795 1.09211 1.26931
 H2580 H 0.87300 1.07693 1.23377
 H2581 H 0.93119 1.11970 1.24010
 H2582 H 0.91614 1.13489 1.27564
 C2583 C 0.86890 0.63097 0.81157
 C2584 C 0.87663 0.62304 0.79457
 C2585 C 0.88561 0.61372 0.77411
 C2586 C 0.87176 0.60101 0.75991
 C2587 C 0.88029 0.59240 0.73974
 C2588 C 0.90269 0.59646 0.73369
 C2589 C 0.91659 0.60906 0.74795
 C2590 C 0.90806 0.61768 0.76813
 C2591 C 0.91126 0.58806 0.71266
 C2592 C 0.91824 0.58118 0.69491
 H2593 H 0.85436 0.59790 0.76435
 H2594 H 0.86939 0.58272 0.72881
 H2595 H 0.93393 0.61233 0.74341
 H2596 H 0.91890 0.62752 0.77897
 C2597 C 0.36876 1.13230 0.81177
 C2598 C 0.37661 1.12442 0.79480
 C2599 C 0.38581 1.11520 0.77438
 C2600 C 0.37829 1.09435 0.76640
 C2601 C 0.38681 1.08567 0.74624
 C2602 C 0.40288 1.09781 0.73400
 C2603 C 0.41050 1.11859 0.74206
 C2604 C 0.40198 1.12727 0.76221
 C2605 C 0.41122 1.08919 0.71296
 C2606 C 0.41808 1.08216 0.69521
 H2607 H 0.36576 1.08489 0.77566
 H2608 H 0.38077 1.06960 0.74014
 H2609 H 0.42289 1.12814 0.73270
 H2610 H 0.40787 1.14343 0.76820
 C2611 C 0.36837 0.63179 1.31162
 C2612 C 0.37610 0.62383 1.29464
 C2613 C 0.38508 0.61445 1.27421
 C2614 C 0.40736 0.61886 1.26791
 C2615 C 0.41589 0.61013 1.24779
 C2616 C 0.40217 0.59694 1.23389
 C2617 C 0.37993 0.59243 1.24025
 C2618 C 0.37140 0.60117 1.26036
 C2619 C 0.41073 0.58840 1.21292
 C2620 C 0.41773 0.58140 1.19522
 H2621 H 0.41806 0.62915 1.27848
 H2622 H 0.43309 0.61375 1.24301
 H2623 H 0.36916 0.58230 1.22960
 H2624 H 0.35414 0.59769 1.26505
 C2625 C 1.13076 1.31238 0.86949
 C2626 C 1.12299 1.29538 0.87734
 C2627 C 1.11388 1.27492 0.88650
 C2628 C 1.12388 1.26493 0.90536
 C2629 C 1.11541 1.24470 0.91388
 C2630 C 1.09690 1.23439 0.90358
 C2631 C 1.08680 1.24446 0.88481
 C2632 C 1.09527 1.26469 0.87629
 C2633 C 1.08857 1.21328 0.91195
 C2634 C 1.08174 1.19546 0.91880
 H2635 H 1.13830 1.27267 0.91336
 H2636 H 1.12337 1.23703 0.92838
 H2637 H 1.07251 1.23661 0.87668
 H2638 H 1.08744 1.27224 0.86167
 C2639 C 1.13071 0.81190 0.36883
 C2640 C 1.12297 0.79490 0.37672
 C2641 C 1.11392 0.77444 0.38595
 C2642 C 1.12428 0.76425 0.40451
 C2643 C 1.11586 0.74404 0.41310
 C2644 C 1.09703 0.73393 0.40317
 C2645 C 1.08657 0.74420 0.38471
 C2646 C 1.09500 0.76441 0.37612
 C2647 C 1.08874 0.71282 0.41160
 C2648 C 1.08192 0.69501 0.41849
 H2649 H 1.13895 0.77183 0.41221
 H2650 H 1.12410 0.73621 0.42735
 H2651 H 1.07204 0.73651 0.37687
 H2652 H 1.08688 0.77213 0.36174
 C2653 C 0.63205 1.31130 0.36746
 C2654 C 0.62423 1.29437 0.37541
 C2655 C 0.61505 1.27401 0.38474
 C2656 C 0.62535 1.26383 0.40334
 C2657 C 0.61674 1.24376 0.41208
 C2658 C 0.59778 1.23379 0.40226
 C2659 C 0.58741 1.24403 0.38374
 C2660 C 0.59602 1.26410 0.37500
 C2661 C 0.58926 1.21286 0.41089
 C2662 C 0.58225 1.19519 0.41795
 H2663 H 0.64010 1.27132 0.41097
 H2664 H 0.62492 1.23596 0.42638
 H2665 H 0.57277 1.23644 0.37599
 H2666 H 0.58796 1.27179 0.36058
 C2667 C 0.63032 0.81218 0.86998
 C2668 C 0.62250 0.79519 0.87781
 C2669 C 0.61335 0.77473 0.88693
 C2670 C 0.59459 0.76467 0.87683
 C2671 C 0.58609 0.74443 0.88529
 C2672 C 0.59631 0.73418 0.90388
 C2673 C 0.61497 0.74432 0.91409
 C2674 C 0.62347 0.76455 0.90563
 C2675 C 0.58797 0.71303 0.91218
 C2676 C 0.58114 0.69519 0.91896
 H2677 H 0.58666 0.77237 0.86233
 H2678 H 0.57168 0.73671 0.87724
 H2679 H 0.62303 0.73650 0.92845
 H2680 H 0.63801 0.77216 0.91354
 C2681 C 0.86981 1.31231 1.13090
 C2682 C 0.87760 1.29532 1.12308
 C2683 C 0.88669 1.27485 1.11392
 C2684 C 0.87635 1.26459 1.09540
 C2685 C 0.88480 1.24437 1.08688
 C2686 C 0.90363 1.23432 1.09686
 C2687 C 0.91407 1.24465 1.11529
 C2688 C 0.90561 1.26488 1.12381
 C2689 C 0.91195 1.21320 1.08850
 C2690 C 0.91876 1.19538 1.08165
 H2691 H 0.86168 1.27214 1.08766
 H2692 H 0.87658 1.23649 1.07266
 H2693 H 0.92861 1.23700 1.12316
 H2694 H 0.91371 1.27264 1.13817
 C2695 C 0.86992 0.81225 0.62998
 C2696 C 0.87771 0.79526 0.62214
 C2697 C 0.88684 0.77478 0.61302
 C2698 C 0.87622 0.76419 0.59484
 C2699 C 0.88470 0.74394 0.58640
 C2700 C 0.90384 0.73421 0.59610
 C2701 C 0.91456 0.74488 0.61417
 C2702 C 0.90607 0.76513 0.62261
 C2703 C 0.91217 0.71304 0.58785
 C2704 C 0.91897 0.69518 0.58110
 H2705 H 0.86130 0.77148 0.58733
 H2706 H 0.87626 0.73580 0.57245
 H2707 H 0.92934 0.73748 0.62183
 H2708 H 0.91439 0.77315 0.63670
 C2709 C 0.36855 1.31162 0.63252
 C2710 C 0.37641 1.29470 0.62459
 C2711 C 0.38558 1.27433 0.61526
 C2712 C 0.37569 1.26456 0.59623
 C2713 C 0.38424 1.24446 0.58750
 C2714 C 0.40271 1.23405 0.59777
 C2715 C 0.41269 1.24389 0.61672
 C2716 C 0.40414 1.26399 0.62544
 C2717 C 0.41113 1.21306 0.58916
 C2718 C 0.41806 1.19535 0.58212
 H2719 H 0.36130 1.27239 0.58825
 H2720 H 0.37636 1.23697 0.57287
 H2721 H 0.42695 1.23595 0.62482
 H2722 H 0.41189 1.27137 0.64019
 C2723 C 0.36851 0.81132 1.13159
 C2724 C 0.37633 0.79435 1.12373
 C2725 C 0.38549 0.77393 1.11454
 C2726 C 0.37552 0.76396 1.09565
 C2727 C 0.38408 0.74380 1.08707
 C2728 C 0.40264 0.73354 1.09734
 C2729 C 0.41269 0.74358 1.11613
 C2730 C 0.40413 0.76374 1.12472
 C2731 C 0.41107 0.71250 1.08888
 C2732 C 0.41798 0.69474 1.08196
 H2733 H 0.36106 0.77167 1.08769
 H2734 H 0.37615 0.73615 1.07255
 H2735 H 0.42702 0.73576 1.12423
 H2736 H 0.41194 0.77128 1.13936
 C2737 C 0.86914 0.68853 0.86903
 C2738 C 0.87700 0.70548 0.87686
 C2739 C 0.88619 0.72590 0.88605
 C2740 C 0.87626 0.73584 0.90498
 C2741 C 0.88479 0.75601 0.91353
 C2742 C 0.90328 0.76633 0.90319
 C2743 C 0.91331 0.75631 0.88436
 C2744 C 0.90478 0.73613 0.87580
 C2745 C 0.91165 0.78741 0.91160
 C2746 C 0.91850 0.80521 0.91848
 H2747 H 0.86184 0.72809 0.91300
 H2748 H 0.87688 0.76364 0.92808
 H2749 H 0.92760 0.76417 0.87621
 H2750 H 0.91256 0.72862 0.86112
 C2751 C 0.86916 0.18774 0.36820
 C2752 C 0.87700 0.20471 0.37606
 C2753 C 0.88613 0.22513 0.38529
 C2754 C 0.90605 0.23419 0.37653
 C2755 C 0.91459 0.25435 0.38511
 C2756 C 0.90326 0.26553 0.40250
 C2757 C 0.88342 0.25639 0.41136
 C2758 C 0.87488 0.23623 0.40278
 C2759 C 0.91170 0.28658 0.41093
 C2760 C 0.91860 0.30435 0.41784
 H2761 H 0.91486 0.22577 0.36297
 H2762 H 0.92992 0.26130 0.37811
 H2763 H 0.87450 0.26492 0.42478
 H2764 H 0.85945 0.22940 0.40965
 C2765 C 0.36913 0.68880 0.36804
 C2766 C 0.37698 0.70576 0.37590
 C2767 C 0.38613 0.72616 0.38514
 C2768 C 0.37653 0.73573 0.40443
 C2769 C 0.38503 0.75588 0.41307
 C2770 C 0.40317 0.76655 0.40245
 C2771 C 0.41286 0.75691 0.38324
 C2772 C 0.40436 0.73675 0.37461
 C2773 C 0.41152 0.78759 0.41097
 C2774 C 0.41837 0.80535 0.41794
 H2775 H 0.36240 0.72770 0.41268
 H2776 H 0.37738 0.76322 0.42790
 H2777 H 0.42686 0.76504 0.37488
 H2778 H 0.41187 0.72953 0.35965
 C2779 C 0.36879 0.18820 0.86774
 C2780 C 0.37664 0.20513 0.87566
 C2781 C 0.38580 0.22550 0.88496
 C2782 C 0.37606 0.23515 0.90414
 C2783 C 0.38460 0.25526 0.91285
 C2784 C 0.40292 0.26580 0.90242
 C2785 C 0.41275 0.25608 0.88332
 C2786 C 0.40421 0.23597 0.87461
 C2787 C 0.41132 0.28679 0.91102
 C2788 C 0.41822 0.30451 0.91804
 H2789 H 0.36179 0.22722 0.91225
 H2790 H 0.37684 0.26266 0.92760
 H2791 H 0.42689 0.26411 0.87510
 H2792 H 0.41184 0.22868 0.85975
 C2793 C 1.13195 0.68890 1.13270
 C2794 C 1.12413 0.70587 1.12481
 C2795 C 1.11496 0.72626 1.11553
 C2796 C 1.12573 0.73689 1.09744
 C2797 C 1.11712 0.75698 1.08874
 C2798 C 1.09771 0.76653 1.09809
 C2799 C 1.08687 0.75584 1.11610
 C2800 C 1.09548 0.73575 1.12480
 C2801 C 1.08918 0.78749 1.08950
 C2802 C 1.08219 0.80516 1.08245
 H2803 H 1.14083 0.72973 1.09017
 H2804 H 1.12566 0.76512 1.07485
 H2805 H 1.07188 0.76311 1.12349
 H2806 H 1.08705 0.72770 1.13881
 C2807 C 1.13019 0.18706 0.63019
 C2808 C 1.12244 0.20411 0.62242
 C2809 C 1.11341 0.22464 0.61332
 C2810 C 1.09443 0.23456 0.62314
 C2811 C 1.08603 0.25484 0.61469
 C2812 C 1.09659 0.26528 0.59637
 C2813 C 1.11549 0.25528 0.58645
 C2814 C 1.12388 0.23500 0.59491
 C2815 C 1.08832 0.28645 0.58805
 C2816 C 1.08153 0.30429 0.58124
 H2817 H 1.08623 0.22672 0.63741
 H2818 H 1.07144 0.26245 0.62251
 H2819 H 1.12381 0.26324 0.57231
 H2820 H 1.13860 0.22750 0.58721
 C2821 C 0.63086 0.68848 0.63095
 C2822 C 0.62299 0.70548 0.62321
 C2823 C 0.61377 0.72596 0.61419
 C2824 C 0.59956 0.73930 0.62745
 C2825 C 0.59104 0.75949 0.61892
 C2826 C 0.59669 0.76643 0.59711
 C2827 C 0.61078 0.75302 0.58380
 C2828 C 0.61931 0.73282 0.59232
 C2829 C 0.58838 0.78749 0.58858
 C2830 C 0.58156 0.80526 0.58164
 H2831 H 0.59521 0.73417 0.64439
 H2832 H 0.58019 0.76975 0.62937
 H2833 H 0.61529 0.75825 0.56692
 H2834 H 0.63032 0.72266 0.58195
 C2835 C 0.63121 0.18792 1.13182
 C2836 C 0.62337 0.20488 1.12395
 C2837 C 0.61420 0.22529 1.11471
 C2838 C 0.62473 0.23574 1.09639
 C2839 C 0.61616 0.25588 1.08777
 C2840 C 0.59702 0.26566 1.09745
 C2841 C 0.58641 0.25513 1.11568
 C2842 C 0.59498 0.23499 1.12430
 C2843 C 0.58856 0.28669 1.08897
 C2844 C 0.58164 0.30443 1.08202
 H2845 H 0.63963 0.22841 1.08888
 H2846 H 0.62453 0.26390 1.07370
 H2847 H 0.57162 0.26257 1.12332
 H2848 H 0.58673 0.22708 1.13850
 C2849 C 1.31180 1.13180 0.86829
 C2850 C 1.29485 1.12394 0.87619
 C2851 C 1.27446 1.11472 0.88543
 C2852 C 1.26477 1.12435 0.90465
 C2853 C 1.24465 1.11575 0.91329
 C2854 C 1.23414 1.09749 0.90276
 C2855 C 1.24390 1.08777 0.88363
 C2856 C 1.26402 1.09637 0.87498
 C2857 C 1.21314 1.08901 0.91130
 C2858 C 1.19542 1.08206 0.91829
 H2859 H 1.27268 1.13858 0.91283
 H2860 H 1.23722 1.12342 0.92807
 H2861 H 1.23589 1.07367 0.87532
 H2862 H 1.27134 1.08883 0.86008
 C2863 C 1.31163 0.63134 0.36831
 C2864 C 1.29471 0.62346 0.37621
 C2865 C 1.27434 0.61422 0.38545
 C2866 C 1.26369 0.62486 0.40359
 C2867 C 1.24357 0.61621 0.41219
 C2868 C 1.23403 0.59689 0.40269
 C2869 C 1.24475 0.58616 0.38464
 C2870 C 1.26486 0.59481 0.37604
 C2871 C 1.21302 0.58835 0.41114
 C2872 C 1.19530 0.58138 0.41807
 H2873 H 1.27085 0.63991 0.41096
 H2874 H 1.23540 0.62466 0.42612
 H2875 H 1.23748 0.57124 0.37713
 H2876 H 1.27293 0.58648 0.36197
 C2877 C 0.81216 1.13133 0.36886
 C2878 C 0.79520 1.12349 0.37674
 C2879 C 0.77478 1.11432 0.38596
 C2880 C 0.76421 1.12494 0.40417
 C2881 C 0.74404 1.11638 0.41273
 C2882 C 0.73434 1.09718 0.40313
 C2883 C 0.74499 1.08647 0.38502
 C2884 C 0.76516 1.09503 0.37645
 C2885 C 0.71326 1.08876 0.41152
 C2886 C 0.69546 1.08188 0.41839
 H2887 H 0.77148 1.13989 0.41161
 H2888 H 0.73593 1.12482 0.42671
 H2889 H 0.73761 1.07164 0.37744
 H2890 H 0.77316 1.08671 0.36234
 C2891 C 0.81153 0.63116 0.86921
 C2892 C 0.79456 0.62332 0.87707
 C2893 C 0.77415 0.61410 0.88624
 C2894 C 0.76386 0.59562 0.87585
 C2895 C 0.74371 0.58701 0.88441
 C2896 C 0.73377 0.59684 0.90339
 C2897 C 0.74413 0.61522 0.91387
 C2898 C 0.76428 0.62384 0.90531
 C2899 C 0.71273 0.58836 0.91182
 C2900 C 0.69497 0.58142 0.91872
 H2901 H 0.77132 0.58800 0.86107
 H2902 H 0.73581 0.57282 0.87615
 H2903 H 0.73656 0.62298 0.92853
 H2904 H 0.77207 0.63816 0.91344
 C2905 C 1.31132 0.86754 1.13149
 C2906 C 1.29423 0.87537 1.12391
 C2907 C 1.27367 0.88462 1.11513
 C2908 C 1.25581 0.88945 1.12973
 C2909 C 1.23570 0.89819 1.12124
 C2910 C 1.23337 0.90214 1.09812
 C2911 C 1.25125 0.89737 1.08351
 C2912 C 1.27137 0.88863 1.09201
 C2913 C 1.21252 0.91080 1.08942
 C2914 C 1.19491 0.91790 1.08233
 H2915 H 1.25740 0.88639 1.14763
 H2916 H 1.22197 0.90178 1.13267
 H2917 H 1.24961 0.90033 1.06560
 H2918 H 1.28508 0.88493 1.08057
 C2919 C 1.31159 0.36806 0.63192
 C2920 C 1.29467 0.37591 0.62397
 C2921 C 1.27431 0.38508 0.61464
 C2922 C 1.26530 0.40505 0.62330
 C2923 C 1.24519 0.41364 0.61463
 C2924 C 1.23402 0.40229 0.59725
 C2925 C 1.24311 0.38239 0.58850
 C2926 C 1.26322 0.37381 0.59717
 C2927 C 1.21302 0.41078 0.58875
 C2928 C 1.19529 0.41773 0.58179
 H2929 H 1.27371 0.41388 0.63684
 H2930 H 1.23828 0.42901 0.62155
 H2931 H 1.23458 0.37346 0.57510
 H2932 H 1.27001 0.35833 0.59038
 C2933 C 0.81225 0.86958 0.63044
 C2934 C 0.79514 0.87738 0.62288
 C2935 C 0.77451 0.88652 0.61414
 C2936 C 0.77175 0.88958 0.59092
 C2937 C 0.75150 0.89810 0.58248
 C2938 C 0.73395 0.90360 0.59724
 C2939 C 0.73677 0.90064 0.62045
 C2940 C 0.75699 0.89213 0.62889
 C2941 C 0.71295 0.91198 0.58862
 C2942 C 0.69520 0.91884 0.58164
 H2943 H 0.78517 0.88528 0.57936
 H2944 H 0.74949 0.90030 0.56449
 H2945 H 0.72330 0.90482 0.63201
 H2946 H 0.75894 0.88981 0.64687
 C2947 C 0.81230 0.36976 1.13089
 C2948 C 0.79530 0.37751 1.12304
 C2949 C 0.77482 0.38655 1.11384
 C2950 C 0.76483 0.40550 1.12365
 C2951 C 0.74458 0.41389 1.11512
 C2952 C 0.73424 0.40336 1.09674
 C2953 C 0.74432 0.38451 1.08683
 C2954 C 0.76457 0.37612 1.09536
 C2955 C 0.71308 0.41160 1.08838
 C2956 C 0.69523 0.41834 1.08155
 H2957 H 0.77259 0.41366 1.13798
 H2958 H 0.73691 0.42845 1.12294
 H2959 H 0.73644 0.37621 1.07264
 H2960 H 0.77213 0.36143 1.08768
 C2961 C 0.68808 1.13138 1.13129
 C2962 C 0.70504 1.12347 1.12346
 C2963 C 0.72546 1.11419 1.11435
 C2964 C 0.73740 1.09787 1.12644
 C2965 C 0.75757 1.08929 1.11791
 C2966 C 0.76589 1.09700 1.09724
 C2967 C 0.75388 1.11320 1.08506
 C2968 C 0.73370 1.12179 1.09360
 C2969 C 0.78698 1.08864 1.08879
 C2970 C 0.80478 1.08179 1.08189
 H2971 H 0.73120 1.09191 1.14252
 H2972 H 0.76675 1.07679 1.12748
 H2973 H 0.76018 1.11931 1.06908
 H2974 H 0.72463 1.13444 1.08413
 C2975 C 0.68834 0.63098 0.63075
 C2976 C 0.70532 0.62314 0.62291
 C2977 C 0.72575 0.61395 0.61375
 C2978 C 0.73534 0.59467 0.62332
 C2979 C 0.75551 0.58608 0.61480
 C2980 C 0.76618 0.59674 0.59668
 C2981 C 0.75652 0.61594 0.58702
 C2982 C 0.73634 0.62452 0.59554
 C2983 C 0.78724 0.58827 0.58830
 C2984 C 0.80502 0.58134 0.58143
 H2985 H 0.72731 0.58639 0.63745
 H2986 H 0.76287 0.57126 0.62242
 H2987 H 0.76465 0.62434 0.57303
 H2988 H 0.72910 0.63947 0.58805
 C2989 C 0.18701 1.13047 0.62949
 C2990 C 0.20402 1.12262 0.62174
 C2991 C 0.22453 1.11342 0.61276
 C2992 C 0.23648 1.09720 0.62498
 C2993 C 0.25678 1.08875 0.61662
 C2994 C 0.26520 1.09647 0.59600
 C2995 C 0.25317 1.11256 0.58369
 C2996 C 0.23287 1.12102 0.59205
 C2997 C 0.28641 1.08824 0.58773
 C2998 C 0.30431 1.08150 0.58100
 H2999 H 0.23021 1.09124 0.64103
 H3000 H 0.26597 1.07634 0.62629
 H3001 H 0.25956 1.11869 0.56775
 H3002 H 0.22379 1.13360 0.58249
 C3003 C 0.18868 0.63220 1.13197
 C3004 C 0.20556 0.62420 1.12408
 C3005 C 0.22587 0.61480 1.11486
 C3006 C 0.23560 0.59574 1.12475
 C3007 C 0.25565 0.58694 1.11615
 C3008 C 0.26606 0.59716 1.09763
 C3009 C 0.25627 0.61612 1.08765
 C3010 C 0.23622 0.62493 1.09625
 C3011 C 0.28702 0.58849 1.08916
 C3012 C 0.30471 0.58143 1.08221
 H3013 H 0.22777 0.58781 1.13917
 H3014 H 0.26311 0.57230 1.12402
 H3015 H 0.26421 0.62418 1.07335
 H3016 H 0.22887 0.63969 1.08850
 C3017 C 0.68782 0.86969 0.86978
 C3018 C 0.70483 0.87756 0.87748
 C3019 C 0.72533 0.88681 0.88641
 C3020 C 0.73166 0.88230 0.90867
 C3021 C 0.75189 0.89082 0.91713
 C3022 C 0.76586 0.90389 0.90335
 C3023 C 0.75946 0.90852 0.88114
 C3024 C 0.73924 0.90000 0.87269
 C3025 C 0.78696 0.91218 0.91180
 C3026 C 0.80478 0.91898 0.91867
 H3027 H 0.72105 0.87208 0.91941
 H3028 H 0.75671 0.88711 0.93431
 H3029 H 0.77016 0.91857 0.87033
 H3030 H 0.73453 0.90355 0.85544
 C3031 C 0.68897 0.36778 0.36762
 C3032 C 0.70595 0.37569 0.37536
 C3033 C 0.72638 0.38498 0.38442
 C3034 C 0.73214 0.38120 0.40697
 C3035 C 0.75225 0.38983 0.41560
 C3036 C 0.76668 0.40226 0.40170
 C3037 C 0.76086 0.40613 0.37919
 C3038 C 0.74076 0.39751 0.37056
 C3039 C 0.78762 0.41071 0.41039
 C3040 C 0.80530 0.41765 0.41747
 H3041 H 0.72116 0.37150 0.41781
 H3042 H 0.75661 0.38670 0.43302
 H3043 H 0.77192 0.41568 0.36829
 H3044 H 0.73649 0.40049 0.35309
 C3045 C 0.18817 0.86941 0.36852
 C3046 C 0.20519 0.87726 0.37625
 C3047 C 0.22567 0.88646 0.38525
 C3048 C 0.23964 0.89966 0.37161
 C3049 C 0.25982 0.90819 0.38016
 C3050 C 0.26611 0.90356 0.40240
 C3051 C 0.25209 0.89047 0.41610
 C3052 C 0.23191 0.88193 0.40754
 C3053 C 0.28714 0.91191 0.41099
 C3054 C 0.30488 0.91877 0.41799
 H3055 H 0.23501 0.90323 0.35434
 H3056 H 0.27056 0.91826 0.36941
 H3057 H 0.25682 0.88675 0.43331
 H3058 H 0.22125 0.87171 0.41823
 C3059 C 0.18760 0.36896 0.86979
 C3060 C 0.20460 0.37686 0.87747
 C3061 C 0.22510 0.38614 0.88639
 C3062 C 0.23142 0.38168 0.90866
 C3063 C 0.25165 0.39022 0.91710
 C3064 C 0.26564 0.40323 0.90329
 C3065 C 0.25924 0.40781 0.88107
 C3066 C 0.23902 0.39928 0.87263
 C3067 C 0.28675 0.41150 0.91172
 C3068 C 0.30458 0.41828 0.91858
 H3069 H 0.22080 0.37150 0.91943
 H3070 H 0.25646 0.38655 0.93429
 H3071 H 0.26995 0.41782 0.87023
 H3072 H 0.23431 0.40279 0.85537
   
