data_POSCAR
  _audit_creation_date              2014-09-24
  _audit_creation_method            'ToBaCCo'
  _symmetry_space_group_name_H-M    'P1'
  _symmetry_Int_Tables_number       1
  _symmetry_cell_setting            triclinic
  loop_
  _symmetry_equiv_pos_as_xyz
 x,y,z
_cell_length_a 52.4397
_cell_length_b 53.6837
_cell_length_c 54.1224
_cell_angle_alpha 90.245000
_cell_angle_beta 89.808400
_cell_angle_gamma 90.284400
loop_
  _atom_site_label
  _atom_site_type_symbol
  _atom_site_fract_x
  _atom_site_fract_y
  _atom_site_fract_z
O1 O 0.31104 0.34955 0.03210
 O2 O 0.35553 0.32581 -0.01464
 O3 O 0.32131 0.35917 -0.01385
 O4 O 0.34677 0.31573 0.03160
 O5 O 0.31915 0.28693 0.01982
 O6 O 0.29144 0.33203 -0.02412
 O7 O 0.32695 0.29782 -0.02637
 O8 O 0.28260 0.32104 0.02151
 Cu9 Cu 0.33648 0.34028 0.01022
 Cu10 Cu 0.30216 0.30650 -0.00326
 C11 C 0.28900 0.33989 0.03438
 C12 C 0.34868 0.30811 -0.02878
 C13 C 0.30199 0.35327 -0.02673
 C14 C 0.33798 0.29373 0.03302
 O15 O 0.66729 0.63964 0.02727
 O16 O 0.64031 0.67119 -0.02613
 O17 O 0.66822 0.63206 -0.02026
 O18 O 0.64143 0.67996 0.02104
 O19 O 0.67657 0.70249 0.01713
 O20 O 0.70350 0.65423 -0.02386
 O21 O 0.67504 0.69440 -0.02976
 O22 O 0.70287 0.66150 0.02383
 Cu23 Cu 0.65086 0.65346 0.00085
 Cu24 Cu 0.69314 0.68029 -0.00361
 C25 C 0.68956 0.64495 0.03473
 C26 C 0.65267 0.68846 -0.03673
 C27 C 0.69058 0.63480 -0.02904
 C28 C 0.65427 0.69952 0.02585
 O29 O 0.65734 0.30306 1.02925
 O30 O 0.68550 0.34001 0.97951
 O31 O 0.65434 0.30253 0.98113
 O32 O 0.69146 0.33838 1.02708
 O33 O 0.72285 0.31145 1.02353
 O34 O 0.68578 0.27548 0.97809
 O35 O 0.71758 0.31367 0.97626
 O36 O 0.68820 0.27542 1.02603
 Cu37 Cu 0.66903 0.32360 1.00465
 Cu38 Cu 0.70671 0.29125 1.00071
 C39 C 0.66750 0.28282 1.03596
 C40 C 0.70639 0.33354 0.96961
 C41 C 0.66375 0.28279 0.97186
 C42 C 0.71387 0.33140 1.03268
 O43 O 0.34458 0.62101 0.96512
 O44 O 0.37902 0.65718 1.01209
 O45 O 0.34668 0.62174 1.01317
 O46 O 0.37878 0.65610 0.96396
 O47 O 0.34865 0.68466 0.96469
 O48 O 0.31472 0.64826 1.01279
 O49 O 0.34804 0.68491 1.01289
 O50 O 0.31383 0.64895 0.96499
 Cu51 Cu 0.36536 0.63627 0.98835
 Cu52 Cu 0.32821 0.66957 0.98877
 C53 C 0.32320 0.62859 0.95723
 C54 C 0.36923 0.67692 1.02085
 C55 C 0.32527 0.62888 1.02149
 C56 C 0.36962 0.67639 0.95617
 O57 O -0.02784 0.36556 0.33819
 O58 O 0.02559 0.33980 0.37248
 O59 O 0.02081 0.37422 0.33949
 O60 O -0.02337 0.33000 0.36865
 O61 O -0.01501 0.30201 0.33985
 O62 O 0.02703 0.34756 0.30894
 O63 O 0.03323 0.31281 0.34250
 O64 O -0.02196 0.33826 0.30808
 Cu65 Cu -0.00172 0.35502 0.35778
 Cu66 Cu 0.00659 0.32246 0.32177
 C67 C -0.03441 0.35624 0.31761
 C68 C 0.03864 0.32210 0.36352
 C69 C 0.03121 0.36859 0.31901
 C70 C -0.02694 0.30851 0.35928
 O71 O 0.02570 0.65429 0.62528
 O72 O -0.02774 0.61929 0.65275
 O73 O -0.01991 0.65429 0.61627
 O74 O 0.02341 0.62178 0.65679
 O75 O 0.01770 0.65034 0.68577
 O76 O -0.03068 0.68069 0.64578
 O77 O -0.03177 0.64747 0.68217
 O78 O 0.01845 0.68500 0.65168
 Cu79 Cu -0.00062 0.63377 0.63559
 Cu80 Cu -0.00741 0.66874 0.66927
 C81 C 0.03082 0.67595 0.63349
 C82 C -0.03804 0.62667 0.67275
 C83 C -0.03159 0.67374 0.62325
 C84 C 0.02901 0.63098 0.67769
 O85 O 1.02150 0.63422 0.32974
 O86 O 0.96659 0.66173 0.36113
 O87 O 0.97272 0.63405 0.32219
 O88 O 1.01590 0.66313 0.36727
 O89 O 1.01913 0.69647 0.34385
 O90 O 0.97612 0.66706 0.29820
 O91 O 0.96968 0.69525 0.33784
 O92 O 1.02480 0.66698 0.30532
 Cu93 Cu 0.99374 0.64504 0.34748
 Cu94 Cu 0.99768 0.68488 0.31898
 C95 C 1.03240 0.64563 0.31214
 C96 C 0.95879 0.68317 0.35513
 C97 C 0.96743 0.64534 0.30229
 C98 C 1.02512 0.68470 0.36332
 O99 O 1.01513 0.35638 0.66158
 O100 O 0.96239 0.31575 0.64174
 O101 O 0.96537 0.34986 0.67192
 O102 O 1.00654 0.31989 0.62686
 O103 O 1.02331 0.29582 0.65536
 O104 O 0.97747 0.32308 0.70047
 O105 O 0.97572 0.28684 0.66756
 O106 O 1.02529 0.32969 0.69073
 Cu107 Cu 0.98756 0.33899 0.64812
 Cu108 Cu 1.00178 0.30605 0.68132
 C109 C 1.02839 0.35056 0.68028
 C110 C 0.96037 0.29410 0.65096
 C111 C 0.96359 0.34115 0.69358
 C112 C 1.02127 0.30226 0.63282
 O113 O 0.36738 0.00216 0.31902
 O114 O 0.32081 -0.03611 0.35330
 O115 O 0.35332 -0.04372 0.31775
 O116 O 0.33701 0.00987 0.35671
 O117 O 0.30549 0.01961 0.33167
 O118 O 0.32578 -0.03118 0.28964
 O119 O 0.29145 -0.02666 0.32586
 O120 O 0.33678 0.01551 0.29448
 Cu121 Cu 0.34750 -0.01797 0.33945
 Cu122 Cu 0.31168 -0.00480 0.30782
 C123 C 0.36003 0.01527 0.30089
 C124 C 0.29810 -0.03798 0.34536
 C125 C 0.34336 -0.04584 0.29654
 C126 C 0.31825 0.02362 0.35125
 O127 O 0.65471 0.03842 0.68639
 O128 O 0.68142 -0.00945 0.64568
 O129 O 0.64937 -0.00953 0.68112
 O130 O 0.68760 0.03812 0.65023
 O131 O 0.71907 0.03236 0.67651
 O132 O 0.68022 -0.01558 0.70814
 O133 O 0.71310 -0.01547 0.67177
 O134 O 0.68552 0.03236 0.71334
 Cu135 Cu 0.66515 0.01525 0.66328
 Cu136 Cu 0.70267 0.00800 0.69520
 C137 C 0.66512 0.04327 0.70700
 C138 C 0.70163 -0.02076 0.65174
 C139 C 0.65831 -0.02095 0.69960
 C140 C 0.71005 0.04299 0.65753
 O141 O 0.36286 0.97245 0.68489
 O142 O 0.33062 1.00617 0.63506
 O143 O 0.36467 1.01832 0.66857
 O144 O 0.33176 0.96109 0.64983
 O145 O 0.29862 0.97139 0.67296
 O146 O 0.33456 1.02631 0.69607
 O147 O 0.30065 1.01809 0.66132
 O148 O 0.33050 0.98025 0.70988
 Cu149 Cu 0.35082 0.98882 0.65718
 Cu150 Cu 0.31293 0.99990 0.68770
 C151 C 0.35202 0.97029 0.70581
 C152 C 0.30995 1.01756 0.63965
 C153 C 0.35576 1.03170 0.68590
 C154 C 0.30919 0.95700 0.65725
 O155 O 0.65390 1.03022 0.36093
 O156 O 0.62648 0.97659 0.32919
 O157 O 0.65569 0.98233 0.36745
 O158 O 0.62773 1.02453 0.32163
 O159 O 0.66259 1.02175 0.29875
 O160 O 0.69002 0.97863 0.34409
 O161 O 0.66030 0.97387 0.30493
 O162 O 0.68946 1.02697 0.33936
 Cu163 Cu 0.63751 1.00357 0.34706
 Cu164 Cu 0.67913 0.99988 0.31951
 C165 C 0.67619 1.03796 0.35588
 C166 C 0.63821 0.96633 0.31140
 C167 C 0.67777 0.97338 0.36367
 C168 C 0.64050 1.03054 0.30255
 C169 C 0.86021 0.79499 0.47291
 C170 C 0.86833 0.78337 0.49453
 C171 C 0.86432 0.79384 0.51807
 C172 C 0.85098 0.81682 0.51982
 C173 C 0.84053 0.82762 0.49813
 C174 C 0.84497 0.81650 0.47469
 C175 C 0.83362 0.82682 0.45364
 C176 C 0.81868 0.84805 0.45537
 C177 C 0.81492 0.86014 0.47816
 C178 C 0.82588 0.84979 0.49979
 C179 C 0.84814 0.82965 0.54238
 C180 C 0.83331 0.85104 0.54411
 C181 C 0.82181 0.86130 0.52311
 C182 C 0.80610 0.88259 0.52475
 C183 C 0.79556 0.89255 0.50327
 C184 C 0.79985 0.88188 0.48005
 H185 H 0.83568 0.81816 0.43565
 H186 H 0.80990 0.85471 0.43861
 H187 H 0.85747 0.82354 0.55901
 H188 H 0.83107 0.85948 0.56216
 H189 H 0.87879 0.76610 0.49280
 H190 H 0.78372 0.90903 0.50468
 C191 C 0.14678 0.21143 0.47344
 C192 C 0.13658 0.21932 0.49603
 C193 C 0.14225 0.20745 0.51841
 C194 C 0.15947 0.18706 0.51807
 C195 C 0.17172 0.18025 0.49556
 C196 C 0.16536 0.19247 0.47322
 C197 C 0.17804 0.18575 0.45130
 C198 C 0.19576 0.16659 0.45100
 C199 C 0.20159 0.15347 0.47264
 C200 C 0.19003 0.16079 0.49526
 C201 C 0.16417 0.17269 0.53922
 C202 C 0.18250 0.15402 0.53903
 C203 C 0.19652 0.14852 0.51753
 C204 C 0.21618 0.13045 0.51740
 C205 C 0.22677 0.12304 0.49472
 C206 C 0.21903 0.13344 0.47232
 H207 H 0.17462 0.19547 0.43417
 H208 H 0.20517 0.16244 0.43366
 H209 H 0.15351 0.17541 0.55612
 H210 H 0.18518 0.14356 0.55585
 H211 H 0.12324 0.23467 0.49599
 H212 H 0.24112 0.10859 0.49439
 C213 C 0.11723 0.80392 0.52274
 C214 C 0.11017 0.79433 0.49976
 C215 C 0.12287 0.80108 0.47797
 C216 C 0.14363 0.81809 0.47926
 C217 C 0.15033 0.82883 0.50243
 C218 C 0.13694 0.82184 0.52422
 C219 C 0.14407 0.83238 0.54697
 C220 C 0.16387 0.84964 0.54839
 C221 C 0.17763 0.85661 0.52718
 C222 C 0.17105 0.84593 0.50400
 C223 C 0.15847 0.82393 0.45836
 C224 C 0.17908 0.84038 0.45999
 C225 C 0.18557 0.85178 0.48255
 C226 C 0.20675 0.86817 0.48456
 C227 C 0.21266 0.87877 0.50753
 C228 C 0.19836 0.87342 0.52868
 H229 H 0.13443 0.82735 0.56395
 H230 H 0.16862 0.85710 0.56641
 H231 H 0.15471 0.81539 0.44061
 H232 H 0.19005 0.84384 0.44339
 H233 H 0.09453 0.78105 0.49893
 H234 H 0.22872 0.89151 0.50897
 C235 C 0.83974 0.23093 0.52206
 C236 C 0.84931 0.24240 0.50091
 C237 C 0.84401 0.23332 0.47722
 C238 C 0.82908 0.21144 0.47450
 C239 C 0.81927 0.19947 0.49593
 C240 C 0.82438 0.20945 0.51977
 C241 C 0.81335 0.19824 0.54061
 C242 C 0.79758 0.17753 0.53821
 C243 C 0.79270 0.16690 0.51491
 C244 C 0.80368 0.17791 0.49352
 C245 C 0.82294 0.20169 0.45111
 C246 C 0.80796 0.18030 0.44875
 C247 C 0.79823 0.16806 0.46969
 C248 C 0.78227 0.14684 0.46753
 C249 C 0.77175 0.13621 0.48884
 C250 C 0.77629 0.14612 0.51230
 H251 H 0.81637 0.20571 0.55898
 H252 H 0.78911 0.17014 0.55488
 H253 H 0.82940 0.21067 0.43435
 H254 H 0.80366 0.17372 0.43030
 H255 H 0.86129 0.25883 0.50298
 H256 H 0.75915 0.12020 0.48709
 C257 C 0.53142 0.81056 0.88389
 C258 C 0.50803 0.80000 0.89064
 C259 C 0.48517 0.80754 0.87979
 C260 C 0.48560 0.82597 0.86121
 C261 C 0.50917 0.83720 0.85445
 C262 C 0.53215 0.82958 0.86593
 C263 C 0.55532 0.84049 0.85848
 C264 C 0.55596 0.85872 0.84032
 C265 C 0.53349 0.86657 0.82870
 C266 C 0.50989 0.85543 0.83553
 C267 C 0.46332 0.83277 0.84858
 C268 C 0.46414 0.85014 0.82956
 C269 C 0.48719 0.86169 0.82277
 C270 C 0.48841 0.87872 0.80299
 C271 C 0.51157 0.89020 0.79713
 C272 C 0.53406 0.88450 0.80965
 H273 H 0.57329 0.83484 0.86640
 H274 H 0.57441 0.86613 0.83509
 H275 H 0.44509 0.82427 0.85289
 H276 H 0.44652 0.85437 0.82014
 H277 H 0.50762 0.78552 0.90457
 H278 H 0.51220 0.90348 0.78207
 C279 C 0.52236 0.22296 0.14604
 C280 C 0.49943 0.23123 0.13588
 C281 C 0.47590 0.22110 0.14287
 C282 C 0.47509 0.20124 0.15991
 C283 C 0.49803 0.19315 0.17110
 C284 C 0.52177 0.20411 0.16425
 C285 C 0.54407 0.19661 0.17642
 C286 C 0.54311 0.17890 0.19513
 C287 C 0.51988 0.16784 0.20216
 C288 C 0.49711 0.17474 0.18988
 C289 C 0.45196 0.18967 0.16648
 C290 C 0.45125 0.17069 0.18395
 C291 C 0.47340 0.16355 0.19658
 C292 C 0.47272 0.14546 0.21562
 C293 C 0.49530 0.13966 0.22794
 C294 C 0.51864 0.15044 0.22157
 H295 H 0.56241 0.20478 0.17197
 H296 H 0.56077 0.17408 0.20421
 H297 H 0.43417 0.19504 0.15802
 H298 H 0.43303 0.16196 0.18762
 H299 H 0.49984 0.24638 0.12266
 H300 H 0.49477 0.12637 0.24300
 C301 C 0.47584 0.21169 0.86436
 C302 C 0.49860 0.22328 0.87144
 C303 C 0.52174 0.21823 0.85964
 C304 C 0.52251 0.20037 0.84036
 C305 C 0.49960 0.18822 0.83298
 C306 C 0.47612 0.19421 0.84472
 C307 C 0.45350 0.18330 0.83588
 C308 C 0.45397 0.16588 0.81682
 C309 C 0.47706 0.15868 0.80574
 C310 C 0.50006 0.17048 0.81341
 C311 C 0.54531 0.19486 0.82780
 C312 C 0.54574 0.17750 0.80858
 C313 C 0.52339 0.16497 0.80122
 C314 C 0.52352 0.14759 0.78151
 C315 C 0.50085 0.13559 0.77473
 C316 C 0.47770 0.14065 0.78657
 H317 H 0.43508 0.18838 0.84331
 H318 H 0.43588 0.15848 0.81057
 H319 H 0.56301 0.20411 0.83259
 H320 H 0.56376 0.17415 0.79939
 H321 H 0.49834 0.23661 0.88658
 H322 H 0.50134 0.12179 0.76003
 C323 C 0.52273 0.79565 0.12459
 C324 C 0.49979 0.78786 0.11403
 C325 C 0.47689 0.80037 0.11839
 C326 C 0.47684 0.82160 0.13398
 C327 C 0.50020 0.83028 0.14425
 C328 C 0.52328 0.81735 0.13941
 C329 C 0.54607 0.82610 0.14997
 C330 C 0.54632 0.84731 0.16488
 C331 C 0.52370 0.86031 0.17009
 C332 C 0.50037 0.85155 0.15993
 C333 C 0.45410 0.83392 0.14016
 C334 C 0.45425 0.85460 0.15575
 C335 C 0.47715 0.86369 0.16584
 C336 C 0.47741 0.88453 0.18188
 C337 C 0.50057 0.89323 0.19138
 C338 C 0.52363 0.88147 0.18574
 H339 H 0.56394 0.81658 0.14682
 H340 H 0.56439 0.85323 0.17258
 H341 H 0.43586 0.82747 0.13332
 H342 H 0.43619 0.86341 0.15987
 H343 H 0.49980 0.77150 0.10217
 H344 H 0.50059 0.90919 0.20376
 C345 C 0.81440 0.46804 0.88570
 C346 C 0.80292 0.49032 0.89309
 C347 C 0.80902 0.51311 0.88192
 C348 C 0.82676 0.51351 0.86205
 C349 C 0.83921 0.49118 0.85489
 C350 C 0.83303 0.46836 0.86674
 C351 C 0.84520 0.44640 0.85894
 C352 C 0.86358 0.44688 0.84038
 C353 C 0.87011 0.46924 0.82851
 C354 C 0.85765 0.49157 0.83555
 C355 C 0.83180 0.53540 0.84865
 C356 C 0.84969 0.53573 0.82955
 C357 C 0.86334 0.51420 0.82309
 C358 C 0.88195 0.51438 0.80398
 C359 C 0.89427 0.49216 0.79764
 C360 C 0.88859 0.46978 0.80952
 H361 H 0.84064 0.42856 0.86708
 H362 H 0.87251 0.42946 0.83526
 H363 H 0.82161 0.55246 0.85245
 H364 H 0.85246 0.55304 0.81973
 H365 H 0.78931 0.48993 0.90822
 H366 H 0.90864 0.49225 0.78317
 C367 C 0.12232 0.48442 0.19686
 C368 C 0.11232 0.50768 0.20324
 C369 C 0.12201 0.52974 0.19326
 C370 C 0.14194 0.52872 0.17568
 C371 C 0.15236 0.50529 0.16891
 C372 C 0.14288 0.48309 0.17990
 C373 C 0.15488 0.46035 0.17440
 C374 C 0.17528 0.45928 0.15795
 C375 C 0.18438 0.48086 0.14623
 C376 C 0.17287 0.50414 0.15175
 C377 C 0.15238 0.55051 0.16545
 C378 C 0.17225 0.54936 0.14841
 C379 C 0.18246 0.52637 0.14088
 C380 C 0.20270 0.52497 0.12354
 C381 C 0.21357 0.50178 0.11824
 C382 C 0.20528 0.47998 0.12977
 H383 H 0.14900 0.44318 0.18314
 H384 H 0.18395 0.44132 0.15462
 H385 H 0.14544 0.56873 0.17070
 H386 H 0.17985 0.56681 0.14165
 H387 H 0.09673 0.50869 0.21645
 H388 H 0.22920 0.50065 0.10511
 C389 C 0.86346 0.51179 0.21212
 C390 C 0.87197 0.48802 0.21835
 C391 C 0.86321 0.46668 0.20611
 C392 C 0.84470 0.46897 0.18739
 C393 C 0.83689 0.49303 0.17983
 C394 C 0.84661 0.51460 0.19198
 C395 C 0.83857 0.53821 0.18418
 C396 C 0.82185 0.54068 0.16443
 C397 C 0.81169 0.51961 0.15243
 C398 C 0.81869 0.49551 0.16064
 C399 C 0.83303 0.44790 0.17682
 C400 C 0.81396 0.45036 0.15916
 C401 C 0.80689 0.47394 0.15031
 C402 C 0.78776 0.47679 0.13207
 C403 C 0.78222 0.50065 0.12336
 C404 C 0.79396 0.52196 0.13304
 H405 H 0.84518 0.55504 0.19319
 H406 H 0.81637 0.55931 0.15911
 H407 H 0.83795 0.42931 0.18277
 H408 H 0.80488 0.43350 0.15263
 H409 H 0.88556 0.48607 0.23330
 H410 H 0.76822 0.50273 0.10880
 C411 C 0.11659 0.47251 0.79835
 C412 C 0.10682 0.49542 0.79077
 C413 C 0.11510 0.51789 0.80120
 C414 C 0.13357 0.51770 0.82013
 C415 C 0.14354 0.49463 0.82829
 C416 C 0.13546 0.47200 0.81702
 C417 C 0.14717 0.44964 0.82405
 C418 C 0.16514 0.44921 0.84287
 C419 C 0.17220 0.47112 0.85545
 C420 C 0.16204 0.49421 0.84742
 C421 C 0.14290 0.53994 0.83053
 C422 C 0.16138 0.53958 0.84892
 C423 C 0.17089 0.51694 0.85794
 C424 C 0.18959 0.51634 0.87666
 C425 C 0.19813 0.49341 0.88540
 C426 C 0.18992 0.47078 0.87516
 H427 H 0.14288 0.43223 0.81481
 H428 H 0.17379 0.43150 0.84705
 H429 H 0.13620 0.55789 0.82433
 H430 H 0.16814 0.55729 0.85595
 H431 H 0.09225 0.49581 0.77659
 H432 H 0.21176 0.49328 0.90044
 C433 C 0.27867 0.36856 0.06937
 C434 C 0.26126 0.38391 0.08183
 C435 C 0.23502 0.38248 0.07604
 C436 C 0.22650 0.36455 0.05899
 C437 C 0.24401 0.34936 0.04658
 C438 C 0.27029 0.35190 0.05101
 C439 C 0.21799 0.39973 0.08646
 C440 C 0.22702 0.41860 0.10227
 C441 C 0.25308 0.41909 0.10903
 C442 C 0.26995 0.40160 0.09897
 C443 C 0.26217 0.43786 0.12479
 C444 C 0.24599 0.45685 0.13262
 C445 C 0.22044 0.45726 0.12506
 C446 C 0.21078 0.43775 0.11042
 H447 H 0.29889 0.37049 0.07308
 H448 H 0.20644 0.36299 0.05448
 H449 H 0.23709 0.33664 0.03251
 H450 H 0.19799 0.39914 0.08143
 H451 H 0.29006 0.40251 0.10359
 H452 H 0.28203 0.43841 0.13025
 H453 H 0.25365 0.47187 0.14383
 H454 H 0.19110 0.43823 0.10438
 C455 C 0.72628 0.62763 0.05877
 C456 C 0.73553 0.61093 0.07655
 C457 C 0.71812 0.59808 0.09202
 C458 C 0.69197 0.60273 0.09011
 C459 C 0.68294 0.61884 0.07208
 C460 C 0.69988 0.63096 0.05587
 C461 C 0.72691 0.57992 0.10835
 C462 C 0.75281 0.57378 0.10890
 C463 C 0.77045 0.58710 0.09410
 C464 C 0.76173 0.60587 0.07826
 C465 C 0.79633 0.58053 0.09457
 C466 C 0.80435 0.56008 0.10842
 C467 C 0.78667 0.54619 0.12225
 C468 C 0.76109 0.55358 0.12300
 H469 H 0.73947 0.63683 0.04628
 H470 H 0.67841 0.59317 0.10194
 H471 H 0.66253 0.62135 0.07040
 H472 H 0.71343 0.56972 0.11976
 H473 H 0.77515 0.61569 0.06647
 H474 H 0.81016 0.59054 0.08343
 H475 H 0.82413 0.55442 0.10753
 H476 H 0.74743 0.54272 0.13359
 C477 C 0.74395 0.35567 0.95107
 C478 C 0.75375 0.37485 0.93607
 C479 C 0.73723 0.38776 0.91999
 C480 C 0.71140 0.38110 0.91889
 C481 C 0.70170 0.36265 0.93441
 C482 C 0.71775 0.35003 0.95081
 C483 C 0.74650 0.40775 0.90594
 C484 C 0.77194 0.41552 0.90822
 C485 C 0.78860 0.40258 0.92409
 C486 C 0.77948 0.38212 0.93769
 C487 C 0.81395 0.41077 0.92655
 C488 C 0.82252 0.43185 0.91380
 C489 C 0.80599 0.44483 0.89815
 C490 C 0.78077 0.43651 0.89534
 H491 H 0.75632 0.34626 0.96401
 H492 H 0.69850 0.39079 0.90668
 H493 H 0.68145 0.35856 0.93400
 H494 H 0.73372 0.41774 0.89382
 H495 H 0.79218 0.37236 0.95008
 H496 H 0.82699 0.40115 0.93867
 H497 H 0.84196 0.43825 0.91633
 H498 H 0.76796 0.44668 0.88340
 C499 C 0.28212 0.61369 0.93883
 C500 C 0.26847 0.59677 0.92399
 C501 C 0.28189 0.57967 0.90889
 C502 C 0.30861 0.57989 0.90872
 C503 C 0.32199 0.59625 0.92407
 C504 C 0.30892 0.61308 0.93941
 C505 C 0.26847 0.56200 0.89488
 C506 C 0.24183 0.56058 0.89643
 C507 C 0.22828 0.57768 0.91139
 C508 C 0.24168 0.59597 0.92477
 C509 C 0.20164 0.57554 0.91340
 C510 C 0.18871 0.55607 0.90145
 C511 C 0.20217 0.53891 0.88684
 C512 C 0.22865 0.54156 0.88406
 H513 H 0.27190 0.62645 0.95083
 H514 H 0.31916 0.56691 0.89726
 H515 H 0.34263 0.59556 0.92416
 H516 H 0.27882 0.54875 0.88351
 H517 H 0.23136 0.60895 0.93646
 H518 H 0.19094 0.58840 0.92486
 H519 H 0.16833 0.55399 0.90409
 H520 H 0.23907 0.52810 0.87300
 C521 C 0.06686 0.28706 0.37687
 C522 C 0.08498 0.27738 0.39330
 C523 C 0.09709 0.29341 0.41052
 C524 C 0.09120 0.31882 0.41080
 C525 C 0.07264 0.32812 0.39497
 C526 C 0.06006 0.31233 0.37815
 C527 C 0.11406 0.28369 0.42790
 C528 C 0.11833 0.25798 0.42902
 C529 C 0.10649 0.24191 0.41169
 C530 C 0.09028 0.25177 0.39362
 C531 C 0.11012 0.21612 0.41347
 C532 C 0.12424 0.20628 0.43296
 C533 C 0.13565 0.22207 0.45056
 C534 C 0.13315 0.24798 0.44806
 H535 H 0.05706 0.27475 0.36407
 H536 H 0.10032 0.33137 0.42383
 H537 H 0.06783 0.34769 0.39612
 H538 H 0.12303 0.29600 0.44128
 H539 H 0.08093 0.23940 0.38055
 H540 H 0.10111 0.20350 0.40044
 H541 H 0.12544 0.18625 0.43485
 H542 H 0.14171 0.26024 0.46171
 C543 C 0.04841 0.71680 0.61881
 C544 C 0.06498 0.73024 0.60325
 C545 C 0.08453 0.71752 0.59033
 C546 C 0.08755 0.69183 0.59356
 C547 C 0.07058 0.67856 0.60844
 C548 C 0.05065 0.69078 0.62084
 C549 C 0.10009 0.73040 0.57359
 C550 C 0.09591 0.75569 0.56894
 C551 C 0.07672 0.76865 0.58209
 C552 C 0.06160 0.75590 0.59945
 C553 C 0.07241 0.79392 0.57691
 C554 C 0.08626 0.80588 0.55819
 C555 C 0.10483 0.79284 0.54473
 C556 C 0.10990 0.76793 0.55051
 H557 H 0.03288 0.72629 0.62811
 H558 H 0.10246 0.68185 0.58384
 H559 H 0.07269 0.65855 0.60986
 H560 H 0.11479 0.72051 0.56344
 H561 H 0.04659 0.76570 0.60926
 H562 H 0.05781 0.80417 0.58678
 H563 H 0.08203 0.82506 0.55371
 H564 H 0.12412 0.75785 0.53990
 C565 C 0.93433 0.72010 0.37082
 C566 C 0.91635 0.73036 0.38725
 C567 C 0.90066 0.71440 0.40154
 C568 C 0.90266 0.68856 0.39866
 C569 C 0.92097 0.67853 0.38280
 C570 C 0.93732 0.69413 0.36915
 C571 C 0.88406 0.72444 0.41929
 C572 C 0.88361 0.75018 0.42363
 C573 C 0.89881 0.76623 0.40897
 C574 C 0.91475 0.75625 0.39057
 C575 C 0.89880 0.79190 0.41383
 C576 C 0.88505 0.80139 0.43388
 C577 C 0.87055 0.78550 0.44905
 C578 C 0.86931 0.75998 0.44334
 H579 H 0.94694 0.73228 0.36047
 H580 H 0.89070 0.67607 0.40936
 H581 H 0.92275 0.65847 0.38164
 H582 H 0.87243 0.71212 0.43054
 H583 H 0.92678 0.76853 0.37968
 H584 H 0.91035 0.80448 0.40284
 H585 H 0.88665 0.82105 0.43825
 H586 H 0.85830 0.74761 0.45508
 C587 C 0.91892 0.28711 0.62997
 C588 C 0.90289 0.27204 0.61561
 C589 C 0.90854 0.24649 0.61250
 C590 C 0.92914 0.23615 0.62531
 C591 C 0.94517 0.25140 0.63949
 C592 C 0.94074 0.27713 0.64103
 C593 C 0.89448 0.23214 0.59557
 C594 C 0.87543 0.24328 0.58125
 C595 C 0.86889 0.26851 0.58549
 C596 C 0.88237 0.28258 0.60295
 C597 C 0.85009 0.27975 0.57103
 C598 C 0.83927 0.26676 0.55129
 C599 C 0.84673 0.24224 0.54605
 C600 C 0.86407 0.23021 0.56162
 H601 H 0.91525 0.30694 0.63137
 H602 H 0.93361 0.21655 0.62337
 H603 H 0.96190 0.24336 0.64794
 H604 H 0.89938 0.21276 0.59249
 H605 H 0.87795 0.30215 0.60554
 H606 H 0.84477 0.29899 0.57414
 H607 H 0.82597 0.27621 0.53932
 H608 H 0.87000 0.21136 0.55733
 C609 C 0.37482 0.05418 0.27969
 C610 C 0.39322 0.06719 0.26574
 C611 C 0.41538 0.05463 0.25752
 C612 C 0.41916 0.02967 0.26394
 C613 C 0.40129 0.01722 0.27857
 C614 C 0.37899 0.02927 0.28638
 C615 C 0.43373 0.06734 0.24349
 C616 C 0.43098 0.09280 0.23866
 C617 C 0.40932 0.10567 0.24746
 C618 C 0.39021 0.09263 0.26041
 C619 C 0.40771 0.13154 0.24400
 C620 C 0.42786 0.14461 0.23285
 C621 C 0.44934 0.13187 0.22383
 C622 C 0.45034 0.10583 0.22628
 H623 H 0.35764 0.06353 0.28586
 H624 H 0.43609 0.01985 0.25791
 H625 H 0.40460 -0.00206 0.28339
 H626 H 0.45063 0.05762 0.23713
 H627 H 0.37349 0.10243 0.26707
 H628 H 0.39143 0.14180 0.25092
 H629 H 0.42704 0.16474 0.23202
 H630 H 0.46704 0.09590 0.21975
 C631 C 0.63554 0.07874 0.71447
 C632 C 0.62011 0.09285 0.73036
 C633 C 0.62159 0.08928 0.75618
 C634 C 0.63964 0.07266 0.76567
 C635 C 0.65501 0.05866 0.74966
 C636 C 0.65247 0.06101 0.72395
 C637 C 0.60433 0.10155 0.77192
 C638 C 0.58542 0.11705 0.76206
 C639 C 0.58489 0.12153 0.73630
 C640 C 0.60237 0.10959 0.72068
 C641 C 0.56606 0.13694 0.72639
 C642 C 0.54699 0.14663 0.74158
 C643 C 0.54659 0.14136 0.76694
 C644 C 0.56624 0.12712 0.77728
 H645 H 0.63366 0.08085 0.69464
 H646 H 0.64122 0.06982 0.78541
 H647 H 0.66793 0.04510 0.75737
 H648 H 0.60495 0.09826 0.79166
 H649 H 0.60143 0.11249 0.70088
 H650 H 0.56548 0.14065 0.70674
 H651 H 0.53185 0.15746 0.73339
 H652 H 0.56573 0.12279 0.79682
 C653 C 0.38303 0.93826 0.71978
 C654 C 0.39750 0.92703 0.73837
 C655 C 0.39424 0.93450 0.76327
 C656 C 0.37557 0.95220 0.76923
 C657 C 0.36103 0.96311 0.75059
 C658 C 0.36511 0.95670 0.72570
 C659 C 0.41017 0.92472 0.78162
 C660 C 0.42938 0.90769 0.77530
 C661 C 0.43174 0.89940 0.75053
 C662 C 0.41573 0.90902 0.73228
 C663 C 0.45080 0.88234 0.74415
 C664 C 0.46827 0.87457 0.76183
 C665 C 0.46684 0.88352 0.78617
 C666 C 0.44701 0.89961 0.79306
 H667 H 0.38607 0.93300 0.70063
 H668 H 0.37263 0.95802 0.78821
 H669 H 0.34729 0.97729 0.75555
 H670 H 0.40813 0.93093 0.80062
 H671 H 0.41802 0.90311 0.71321
 H672 H 0.45277 0.87571 0.72531
 H673 H 0.48362 0.86228 0.75631
 H674 H 0.44612 0.90671 0.81182
 C675 C 0.62557 0.94488 0.27207
 C676 C 0.60849 0.92909 0.25940
 C677 C 0.59157 0.91369 0.27300
 C678 C 0.59258 0.91365 0.29884
 C679 C 0.60897 0.92991 0.31122
 C680 C 0.62512 0.94604 0.29802
 C681 C 0.57301 0.89952 0.26069
 C682 C 0.57054 0.90108 0.23500
 C683 C 0.58787 0.91582 0.22120
 C684 C 0.60697 0.92949 0.23348
 C685 C 0.58509 0.91738 0.19546
 C686 C 0.56470 0.90537 0.18368
 C687 C 0.54700 0.89148 0.19746
 C688 C 0.55028 0.88898 0.22301
 H689 H 0.63776 0.95755 0.26181
 H690 H 0.57984 0.90189 0.30951
 H691 H 0.60842 0.93052 0.33122
 H692 H 0.55973 0.88817 0.27123
 H693 H 0.61989 0.94124 0.22298
 H694 H 0.59819 0.92851 0.18455
 H695 H 0.56225 0.90750 0.16394
 H696 H 0.53649 0.87830 0.23361
 C697 C 0.36904 0.27437 0.94612
 C698 C 0.38751 0.26657 0.92892
 C699 C 0.40259 0.28457 0.91651
 C700 C 0.39917 0.30992 0.92163
 C701 C 0.38145 0.31743 0.93937
 C702 C 0.36634 0.29978 0.95175
 C703 C 0.42141 0.27697 0.89974
 C704 C 0.42616 0.25159 0.89596
 C705 C 0.41139 0.23351 0.90853
 C706 C 0.39178 0.24111 0.92457
 C707 C 0.41711 0.20816 0.90545
 C708 C 0.43773 0.20090 0.89067
 C709 C 0.45237 0.21880 0.87806
 C710 C 0.44619 0.24409 0.88053
 H711 H 0.35757 0.26070 0.95589
 H712 H 0.41062 0.32392 0.91234
 H713 H 0.37949 0.33711 0.94344
 H714 H 0.43297 0.29081 0.89030
 H715 H 0.38048 0.22727 0.93428
 H716 H 0.40616 0.19404 0.91510
 H717 H 0.44259 0.18135 0.88943
 H718 H 0.45765 0.25798 0.87105
 C719 C 0.63739 0.72819 0.94518
 C720 C 0.62005 0.74067 0.92989
 C721 C 0.60608 0.72703 0.91199
 C722 C 0.61008 0.70138 0.90928
 C723 C 0.62654 0.68900 0.92522
 C724 C 0.63994 0.70221 0.94347
 C725 C 0.58735 0.73893 0.89799
 C726 C 0.58167 0.76406 0.90228
 C727 C 0.59585 0.77788 0.91986
 C728 C 0.61527 0.76619 0.93326
 C729 C 0.58966 0.80292 0.92437
 C730 C 0.56906 0.81386 0.91222
 C731 C 0.55467 0.80004 0.89515
 C732 C 0.56128 0.77528 0.88998
 H733 H 0.64731 0.73829 0.95967
 H734 H 0.59953 0.69067 0.89568
 H735 H 0.62818 0.66893 0.92387
 H736 H 0.57639 0.72835 0.88455
 H737 H 0.62585 0.77665 0.94705
 H738 H 0.60028 0.81381 0.93777
 H739 H 0.56400 0.83295 0.91647
 H740 H 0.55001 0.76460 0.87689
 C741 C 0.38298 0.71646 0.04178
 C742 C 0.39782 0.72889 0.05962
 C743 C 0.41157 0.71486 0.07717
 C744 C 0.41034 0.68881 0.07660
 C745 C 0.39634 0.67665 0.05830
 C746 C 0.38273 0.69030 0.04071
 C747 C 0.42719 0.72699 0.09438
 C748 C 0.43036 0.75287 0.09352
 C749 C 0.41676 0.76704 0.07603
 C750 C 0.40006 0.75500 0.05955
 C751 C 0.42114 0.79282 0.07455
 C752 C 0.43986 0.80414 0.08925
 C753 C 0.45377 0.79000 0.10627
 C754 C 0.44822 0.76455 0.10889
 H755 H 0.37266 0.72703 0.02807
 H756 H 0.42079 0.67782 0.08988
 H757 H 0.39616 0.65647 0.05786
 H758 H 0.43788 0.71615 0.10765
 H759 H 0.38978 0.76579 0.04597
 H760 H 0.41101 0.80399 0.06119
 H761 H 0.44423 0.82369 0.08663
 H762 H 0.45911 0.75354 0.12185
 C763 C 0.63776 0.27927 0.07179
 C764 C 0.62135 0.26515 0.08677
 C765 C 0.62125 0.23889 0.08478
 C766 C 0.63874 0.22721 0.06884
 C767 C 0.65512 0.24148 0.05397
 C768 C 0.65413 0.26762 0.05475
 C769 C 0.60302 0.22490 0.09799
 C770 C 0.58481 0.23693 0.11293
 C771 C 0.58591 0.26314 0.11578
 C772 C 0.60425 0.27702 0.10285
 C773 C 0.56791 0.27525 0.13071
 C774 C 0.54811 0.26176 0.14164
 C775 C 0.54604 0.23593 0.13803
 C776 C 0.56483 0.22344 0.12416
 H777 H 0.63705 0.29945 0.07267
 H778 H 0.63913 0.20710 0.06721
 H779 H 0.66755 0.23211 0.04094
 H780 H 0.60243 0.20480 0.09594
 H781 H 0.60455 0.29717 0.10454
 H782 H 0.56859 0.29528 0.13321
 H783 H 0.53377 0.27163 0.15223
 H784 H 0.56312 0.20352 0.12116
 C785 C 0.28703 0.05345 0.62066
 C786 C 0.27312 0.06367 0.60101
 C787 C 0.26700 0.04860 0.58030
 C788 C 0.27566 0.02397 0.57915
 C789 C 0.29027 0.01431 0.59830
 C790 C 0.29582 0.02884 0.61921
 C791 C 0.25268 0.05847 0.56089
 C792 C 0.24544 0.08355 0.56126
 C793 C 0.25237 0.09893 0.58144
 C794 C 0.26564 0.08875 0.60148
 C795 C 0.24655 0.12439 0.58085
 C796 C 0.23452 0.13459 0.56024
 C797 C 0.22693 0.11935 0.54035
 C798 C 0.23217 0.09370 0.54127
 H799 H 0.29147 0.06469 0.63679
 H800 H 0.27129 0.01225 0.56336
 H801 H 0.29675 -0.00480 0.59709
 H802 H 0.24780 0.04681 0.54516
 H803 H 0.27073 0.10047 0.61709
 H804 H 0.25207 0.13656 0.59596
 H805 H 0.23155 0.15453 0.55964
 H806 H 0.22661 0.08174 0.52600
 C807 C 0.71196 0.06489 0.36885
 C808 C 0.72132 0.08382 0.38458
 C809 C 0.70406 0.09740 0.39956
 C810 C 0.67800 0.09210 0.39861
 C811 C 0.66903 0.07269 0.38391
 C812 C 0.68580 0.05854 0.36909
 C813 C 0.71312 0.11527 0.41625
 C814 C 0.73932 0.11886 0.41931
 C815 C 0.75681 0.10560 0.40438
 C816 C 0.74766 0.08856 0.38661
 C817 C 0.78310 0.10865 0.40850
 C818 C 0.79178 0.12338 0.42825
 C819 C 0.77431 0.13580 0.44361
 C820 C 0.74820 0.13425 0.43837
 H821 H 0.72520 0.05421 0.35766
 H822 H 0.66458 0.10239 0.40994
 H823 H 0.64875 0.06875 0.38431
 H824 H 0.69978 0.12536 0.42791
 H825 H 0.76102 0.07809 0.37536
 H826 H 0.79685 0.09866 0.39730
 H827 H 0.81199 0.12417 0.43225
 H828 H 0.73470 0.14368 0.45037
 C829 C 0.73792 0.95630 0.63190
 C830 C 0.74700 0.93966 0.61379
 C831 C 0.72940 0.92581 0.59940
 C832 C 0.70318 0.92861 0.60341
 C833 C 0.69436 0.94570 0.62085
 C834 C 0.71156 0.95983 0.63502
 C835 C 0.73815 0.91004 0.58058
 C836 C 0.76424 0.90859 0.57527
 C837 C 0.78199 0.92225 0.58961
 C838 C 0.77328 0.93739 0.60910
 C839 C 0.80804 0.92121 0.58354
 C840 C 0.81623 0.90758 0.56290
 C841 C 0.79856 0.89432 0.54846
 C842 C 0.77269 0.89453 0.55504
 H843 H 0.75126 0.96735 0.64266
 H844 H 0.68948 0.91813 0.59255
 H845 H 0.67398 0.94804 0.62314
 H846 H 0.72458 0.89965 0.56944
 H847 H 0.78682 0.94809 0.61997
 H848 H 0.82193 0.93161 0.59424
 H849 H 0.83621 0.90789 0.55778
 H850 H 0.75902 0.88452 0.54367
 C851 C 0.28696 0.93074 0.37800
 C852 C 0.26899 0.91882 0.39329
 C853 C 0.24271 0.92365 0.39023
 C854 C 0.23482 0.93949 0.37122
 C855 C 0.25282 0.95118 0.35599
 C856 C 0.27906 0.94737 0.35957
 C857 C 0.22485 0.91309 0.40660
 C858 C 0.23297 0.89787 0.42607
 C859 C 0.25921 0.89231 0.42848
 C860 C 0.27700 0.90273 0.41204
 C861 C 0.26737 0.87707 0.44782
 C862 C 0.24991 0.86827 0.46527
 C863 C 0.22398 0.87436 0.46362
 C864 C 0.21548 0.88882 0.44371
 H865 H 0.30712 0.92747 0.38083
 H866 H 0.21476 0.94329 0.36847
 H867 H 0.24620 0.96390 0.34195
 H868 H 0.20474 0.91723 0.40457
 H869 H 0.29714 0.89886 0.41428
 H870 H 0.28736 0.87255 0.44988
 H871 H 0.25676 0.85727 0.48060
 H872 H 0.19551 0.89383 0.44259
 C873 C 0.05118 0.36864 0.71643
 C874 C 0.06564 0.38766 0.72745
 C875 C 0.07649 0.40658 0.71259
 C876 C 0.07261 0.40610 0.68695
 C877 C 0.05741 0.38753 0.67623
 C878 C 0.04650 0.36875 0.69088
 C879 C 0.09029 0.42606 0.72369
 C880 C 0.09253 0.42735 0.74951
 C881 C 0.08143 0.40855 0.76435
 C882 C 0.06848 0.38859 0.75320
 C883 C 0.08278 0.41044 0.79016
 C884 C 0.09452 0.43104 0.80121
 C885 C 0.10586 0.44967 0.78667
 C886 C 0.10494 0.44760 0.76078
 H887 H 0.04245 0.35444 0.72793
 H888 H 0.08071 0.42049 0.67529
 H889 H 0.05397 0.38797 0.65652
 H890 H 0.09856 0.44062 0.71232
 H891 H 0.05989 0.37422 0.76460
 H892 H 0.07415 0.39633 0.80180
 H893 H 0.09444 0.43265 0.82117
 H894 H 0.11335 0.46213 0.74947
 C895 C 0.05438 0.63200 0.27345
 C896 C 0.07137 0.61567 0.26152
 C897 C 0.08845 0.60135 0.27578
 C898 C 0.08875 0.60402 0.30153
 C899 C 0.07118 0.61951 0.31324
 C900 C 0.05360 0.63319 0.29937
 C901 C 0.10393 0.58354 0.26431
 C902 C 0.10182 0.57904 0.23890
 C903 C 0.08524 0.59364 0.22442
 C904 C 0.07046 0.61224 0.23578
 C905 C 0.08284 0.58852 0.19906
 C906 C 0.09572 0.56832 0.18847
 C907 C 0.11150 0.55334 0.20301
 C908 C 0.11499 0.55918 0.22803
 H909 H 0.04053 0.64226 0.26276
 H910 H 0.10174 0.59322 0.31269
 H911 H 0.07078 0.62028 0.33324
 H912 H 0.11663 0.57226 0.27536
 H913 H 0.05733 0.62311 0.22481
 H914 H 0.07025 0.59950 0.18765
 H915 H 0.09272 0.56384 0.16916
 H916 H 0.12705 0.54743 0.23926
 C917 C 0.94190 0.36890 0.27935
 C918 C 0.92246 0.38307 0.26839
 C919 C 0.90375 0.39447 0.28355
 C920 C 0.90410 0.39078 0.30911
 C921 C 0.92376 0.37734 0.31983
 C922 C 0.94316 0.36688 0.30521
 C923 C 0.88581 0.41052 0.27321
 C924 C 0.88687 0.41621 0.24803
 C925 C 0.90482 0.40418 0.23255
 C926 C 0.92225 0.38731 0.24277
 C927 C 0.90595 0.41040 0.20738
 C928 C 0.89084 0.42965 0.19815
 C929 C 0.87415 0.44260 0.21387
 C930 C 0.87148 0.43510 0.23851
 H931 H 0.95688 0.36094 0.26799
 H932 H 0.88980 0.39922 0.32093
 H933 H 0.92419 0.37568 0.33977
 H934 H 0.87197 0.41974 0.28502
 H935 H 0.93649 0.37860 0.23106
 H936 H 0.91947 0.40132 0.19517
 H937 H 0.89323 0.43542 0.17913
 H938 H 0.85868 0.44525 0.25066
 C939 C 0.93996 0.61272 0.71150
 C940 C 0.92576 0.59487 0.72468
 C941 C 0.91438 0.57468 0.71188
 C942 C 0.91703 0.57294 0.68614
 C943 C 0.93177 0.59038 0.67328
 C944 C 0.94366 0.61022 0.68583
 C945 C 0.90139 0.55606 0.72509
 C946 C 0.90035 0.55691 0.75099
 C947 C 0.91149 0.57721 0.76381
 C948 C 0.92377 0.59627 0.75054
 C949 C 0.91103 0.57758 0.78975
 C950 C 0.90055 0.55759 0.80288
 C951 C 0.88976 0.53719 0.79031
 C952 C 0.88934 0.53721 0.76433
 H953 H 0.94928 0.62778 0.72143
 H954 H 0.90841 0.55761 0.67605
 H955 H 0.93430 0.58807 0.65354
 H956 H 0.89295 0.54043 0.71526
 H957 H 0.93260 0.61166 0.76040
 H958 H 0.91958 0.59292 0.79988
 H959 H 0.90155 0.55766 0.82286
 H960 H 0.88130 0.52136 0.75455
 C961 C 0.72701 0.61694 0.94866
 C962 C 0.73787 0.59736 0.93494
 C963 C 0.72251 0.57698 0.92748
 C964 C 0.69666 0.57640 0.93402
 C965 C 0.68615 0.59554 0.94826
 C966 C 0.70112 0.61604 0.95586
 C967 C 0.73333 0.55723 0.91408
 C968 C 0.75952 0.55716 0.90876
 C969 C 0.77500 0.57735 0.91651
 C970 C 0.76401 0.59751 0.92919
 C971 C 0.80136 0.57669 0.91205
 C972 C 0.81234 0.55602 0.90048
 C973 C 0.79710 0.53600 0.89237
 C974 C 0.77062 0.53682 0.89646
 H975 H 0.73899 0.63242 0.95439
 H976 H 0.68463 0.56089 0.92849
 H977 H 0.66618 0.59419 0.95329
 H978 H 0.72150 0.54162 0.90838
 H979 H 0.77590 0.61299 0.93513
 H980 H 0.81356 0.59186 0.91811
 H981 H 0.83286 0.55545 0.89818
 H982 H 0.75877 0.52130 0.89058
 C983 C 0.26744 0.36837 0.94690
 C984 C 0.25735 0.38713 0.93176
 C985 C 0.27302 0.40737 0.92452
 C986 C 0.29810 0.40899 0.93308
 C987 C 0.30746 0.39117 0.94927
 C988 C 0.29238 0.37059 0.95636
 C989 C 0.26314 0.42621 0.90959
 C990 C 0.23732 0.42606 0.90315
 C991 C 0.22128 0.40640 0.91109
 C992 C 0.23158 0.38662 0.92469
 C993 C 0.19505 0.40745 0.90613
 C994 C 0.18477 0.42814 0.89414
 C995 C 0.20070 0.44752 0.88576
 C996 C 0.22707 0.44599 0.88995
 H997 H 0.25537 0.35290 0.95244
 H998 H 0.31027 0.42448 0.92784
 H999 H 0.32679 0.39340 0.95598
 H1000 H 0.27529 0.44161 0.90396
 H1001 H 0.21933 0.37146 0.93068
 H1002 H 0.18237 0.39277 0.91238
 H1003 H 0.16430 0.42926 0.89183
 H1004 H 0.23949 0.46096 0.88381
 C1005 C 0.28722 0.61735 0.04538
 C1006 C 0.27535 0.60155 0.06267
 C1007 C 0.29029 0.58459 0.07629
 C1008 C 0.31653 0.58314 0.07200
 C1009 C 0.32788 0.59771 0.05379
 C1010 C 0.31348 0.61501 0.04025
 C1011 C 0.27869 0.56853 0.09325
 C1012 C 0.25212 0.56786 0.09556
 C1013 C 0.23694 0.58416 0.08147
 C1014 C 0.24871 0.60151 0.06569
 C1015 C 0.21027 0.58195 0.08259
 C1016 C 0.19889 0.56311 0.09671
 C1017 C 0.21394 0.54701 0.11089
 C1018 C 0.24054 0.55003 0.11070
 H1019 H 0.27574 0.63029 0.03492
 H1020 H 0.32818 0.57012 0.08218
 H1021 H 0.34816 0.59559 0.05057
 H1022 H 0.29024 0.55562 0.10371
 H1023 H 0.23711 0.61408 0.05489
 H1024 H 0.19828 0.59405 0.07170
 H1025 H 0.17838 0.56069 0.09608
 H1026 H 0.25229 0.53753 0.12142
 C1027 C 0.71875 0.36694 0.06078
 C1028 C 0.73446 0.38316 0.07439
 C1029 C 0.76109 0.37924 0.07496
 C1030 C 0.77133 0.35820 0.06326
 C1031 C 0.75549 0.34171 0.05034
 C1032 C 0.72913 0.34629 0.04821
 C1033 C 0.77704 0.39657 0.08690
 C1034 C 0.76659 0.41743 0.09886
 C1035 C 0.73980 0.42040 0.09960
 C1036 C 0.72395 0.40345 0.08714
 C1037 C 0.72925 0.44058 0.11243
 C1038 C 0.74507 0.45805 0.12387
 C1039 C 0.77175 0.45599 0.12239
 C1040 C 0.78244 0.43557 0.10980
 H1041 H 0.69845 0.37059 0.05983
 H1042 H 0.79165 0.35468 0.06379
 H1043 H 0.76420 0.32595 0.04108
 H1044 H 0.79753 0.39393 0.08673
 H1045 H 0.70347 0.40619 0.08716
 H1046 H 0.70877 0.44302 0.11338
 H1047 H 0.73647 0.47369 0.13342
 H1048 H 0.80298 0.43410 0.10812
 C1049 C 0.93672 0.70523 0.61125
 C1050 C 0.92648 0.72073 0.59281
 C1051 C 0.93800 0.72123 0.56913
 C1052 C 0.95744 0.70449 0.56334
 C1053 C 0.96588 0.68767 0.58093
 C1054 C 0.95649 0.68845 0.60536
 C1055 C 0.92957 0.73806 0.55133
 C1056 C 0.90802 0.75263 0.55584
 C1057 C 0.89460 0.75024 0.57836
 C1058 C 0.90461 0.73521 0.59724
 C1059 C 0.87101 0.76222 0.58109
 C1060 C 0.86082 0.77603 0.56154
 C1061 C 0.87504 0.78009 0.53976
 C1062 C 0.89899 0.76857 0.53749
 H1063 H 0.92879 0.70561 0.62977
 H1064 H 0.96600 0.70425 0.54509
 H1065 H 0.98113 0.67513 0.57572
 H1066 H 0.93911 0.73900 0.53353
 H1067 H 0.89488 0.73404 0.61491
 H1068 H 0.85993 0.75997 0.59787
 H1069 H 0.84170 0.78331 0.56341
 H1070 H 0.91029 0.77120 0.52089
 C1071 C 0.93680 0.30158 0.38646
 C1072 C 0.91938 0.28559 0.39803
 C1073 C 0.92171 0.25954 0.39504
 C1074 C 0.94014 0.25010 0.37870
 C1075 C 0.95655 0.26631 0.36603
 C1076 C 0.95566 0.29216 0.37049
 C1077 C 0.90581 0.24351 0.40868
 C1078 C 0.88713 0.25334 0.42459
 C1079 C 0.88343 0.27943 0.42568
 C1080 C 0.89977 0.29536 0.41268
 C1081 C 0.86406 0.28928 0.44054
 C1082 C 0.84963 0.27366 0.45560
 C1083 C 0.85454 0.24797 0.45635
 C1084 C 0.87279 0.23773 0.44021
 H1085 H 0.93522 0.32151 0.38948
 H1086 H 0.94193 0.23020 0.37579
 H1087 H 0.97069 0.25848 0.35363
 H1088 H 0.90825 0.22350 0.40723
 H1089 H 0.89753 0.31538 0.41433
 H1090 H 0.86072 0.30918 0.44125
 H1091 H 0.83560 0.28182 0.46791
 H1092 H 0.87683 0.21796 0.44088
 C1093 C 0.05661 0.27577 0.61850
 C1094 C 0.06874 0.26282 0.59906
 C1095 C 0.05676 0.26127 0.57571
 C1096 C 0.03425 0.27435 0.57145
 C1097 C 0.02355 0.28886 0.59010
 C1098 C 0.03405 0.28921 0.61403
 C1099 C 0.06780 0.24728 0.55667
 C1100 C 0.09193 0.23679 0.55974
 C1101 C 0.10515 0.24015 0.58220
 C1102 C 0.09300 0.25218 0.60217
 C1103 C 0.13058 0.23231 0.58384
 C1104 C 0.14284 0.22182 0.56324
 C1105 C 0.12932 0.21708 0.54125
 C1106 C 0.10357 0.22419 0.54006
 H1107 H 0.06531 0.27635 0.63664
 H1108 H 0.02514 0.27374 0.55351
 H1109 H 0.00615 0.29883 0.58601
 H1110 H 0.05815 0.24558 0.53903
 H1111 H 0.10282 0.25420 0.61967
 H1112 H 0.14133 0.23533 0.60066
 H1113 H 0.16299 0.21774 0.56443
 H1114 H 0.09279 0.22090 0.52329
 C1115 C 0.05018 0.72037 0.37854
 C1116 C 0.06608 0.73112 0.39663
 C1117 C 0.07458 0.71647 0.41659
 C1118 C 0.06695 0.69153 0.41833
 C1119 C 0.05059 0.68120 0.40077
 C1120 C 0.04191 0.69539 0.38065
 C1121 C 0.08999 0.72710 0.43494
 C1122 C 0.09612 0.75251 0.43427
 C1123 C 0.08748 0.76737 0.41452
 C1124 C 0.07295 0.75646 0.39552
 C1125 C 0.09266 0.79306 0.41472
 C1126 C 0.10519 0.80406 0.43485
 C1127 C 0.11360 0.78941 0.45464
 C1128 C 0.10962 0.76351 0.45379
 H1129 H 0.04367 0.73172 0.36331
 H1130 H 0.07326 0.68009 0.43356
 H1131 H 0.04486 0.66192 0.40300
 H1132 H 0.09639 0.71580 0.45028
 H1133 H 0.06623 0.76785 0.38039
 H1134 H 0.08605 0.80481 0.39985
 H1135 H 0.10751 0.82411 0.43540
 H1136 H 0.11587 0.75211 0.46910
 C1137 C 0.64010 0.95775 0.73665
 C1138 C 0.62259 0.94083 0.74699
 C1139 C 0.60861 0.92462 0.73131
 C1140 C 0.61240 0.92548 0.70571
 C1141 C 0.62907 0.94296 0.69558
 C1142 C 0.64280 0.95931 0.71090
 C1143 C 0.59027 0.90854 0.74130
 C1144 C 0.58481 0.90920 0.76661
 C1145 C 0.59870 0.92530 0.78242
 C1146 C 0.61792 0.94066 0.77256
 C1147 C 0.59236 0.92646 0.80762
 C1148 C 0.57179 0.91259 0.81681
 C1149 C 0.55776 0.89688 0.80106
 C1150 C 0.56476 0.89486 0.77612
 H1151 H 0.65050 0.97061 0.74845
 H1152 H 0.60183 0.91322 0.69348
 H1153 H 0.63110 0.94392 0.67568
 H1154 H 0.57942 0.89631 0.72921
 H1155 H 0.62842 0.95321 0.78459
 H1156 H 0.60271 0.93875 0.82001
 H1157 H 0.56636 0.91458 0.83604
 H1158 H 0.55380 0.88286 0.76392
 C1159 C 0.36418 0.94384 0.25663
 C1160 C 0.38097 0.92859 0.24316
 C1161 C 0.38671 0.90447 0.25196
 C1162 C 0.37511 0.89584 0.27371
 C1163 C 0.35943 0.91159 0.28757
 C1164 C 0.35423 0.93577 0.27936
 C1165 C 0.40509 0.88998 0.23977
 C1166 C 0.41868 0.89973 0.21961
 C1167 C 0.41271 0.92371 0.21059
 C1168 C 0.39350 0.93775 0.22210
 C1169 C 0.42691 0.93371 0.19093
 C1170 C 0.44754 0.92058 0.18104
 C1171 C 0.45386 0.89706 0.19027
 C1172 C 0.43907 0.88644 0.20916
 H1173 H 0.36075 0.96278 0.25063
 H1174 H 0.37934 0.87745 0.28074
 H1175 H 0.35215 0.90527 0.30523
 H1176 H 0.40978 0.87167 0.24677
 H1177 H 0.38927 0.95631 0.21546
 H1178 H 0.42264 0.95205 0.18381
 H1179 H 0.45894 0.92895 0.16654
 H1180 H 0.44422 0.86836 0.21642
 C1181 C 0.61520 0.06831 0.29321
 C1182 C 0.60292 0.08401 0.27646
 C1183 C 0.60434 0.07891 0.25083
 C1184 C 0.61931 0.05900 0.24236
 C1185 C 0.63192 0.04372 0.25920
 C1186 C 0.62935 0.04790 0.28470
 C1187 C 0.59014 0.09325 0.23423
 C1188 C 0.57446 0.11250 0.24301
 C1189 C 0.57427 0.11845 0.26852
 C1190 C 0.58860 0.10426 0.28504
 C1191 C 0.55865 0.13766 0.27732
 C1192 C 0.54194 0.14962 0.26133
 C1193 C 0.54089 0.14281 0.23632
 C1194 C 0.55781 0.12490 0.22699
 H1195 H 0.61355 0.07177 0.31291
 H1196 H 0.62083 0.05493 0.22279
 H1197 H 0.64288 0.02807 0.25238
 H1198 H 0.59055 0.08885 0.21465
 H1199 H 0.58782 0.10835 0.30468
 H1200 H 0.55840 0.14255 0.29676
 H1201 H 0.52875 0.16323 0.26874
 H1202 H 0.55666 0.11942 0.20772
 C1203 C 0.37370 0.05751 0.72019
 C1204 C 0.39124 0.07543 0.72872
 C1205 C 0.40524 0.08986 0.71150
 C1206 C 0.40144 0.08616 0.68612
 C1207 C 0.38472 0.06764 0.67783
 C1208 C 0.37090 0.05310 0.69474
 C1209 C 0.42354 0.10704 0.71986
 C1210 C 0.42881 0.10927 0.74515
 C1211 C 0.41495 0.09478 0.76240
 C1212 C 0.39590 0.07831 0.75411
 C1213 C 0.42103 0.09637 0.78758
 C1214 C 0.44110 0.11163 0.79552
 C1215 C 0.45490 0.12616 0.77854
 C1216 C 0.44844 0.12507 0.75338
 H1217 H 0.36338 0.04599 0.73330
 H1218 H 0.41205 0.09699 0.67268
 H1219 H 0.38281 0.06440 0.65815
 H1220 H 0.43434 0.11798 0.70662
 H1221 H 0.38540 0.06707 0.76733
 H1222 H 0.41078 0.08525 0.80104
 H1223 H 0.44618 0.11178 0.81490
 H1224 H 0.45925 0.13602 0.74016
 C1225 C 0.62592 0.71318 0.06033
 C1226 C 0.61246 0.73187 0.07292
 C1227 C 0.61538 0.75704 0.06575
 C1228 C 0.63297 0.76318 0.04713
 C1229 C 0.64663 0.74446 0.03496
 C1230 C 0.64262 0.71932 0.04098
 C1231 C 0.60004 0.77546 0.07666
 C1232 C 0.58176 0.76895 0.09455
 C1233 C 0.58002 0.74398 0.10272
 C1234 C 0.59544 0.72565 0.09194
 C1235 C 0.56193 0.73746 0.12069
 C1236 C 0.54453 0.75507 0.12923
 C1237 C 0.54508 0.77951 0.12015
 C1238 C 0.56425 0.78665 0.10342
 H1239 H 0.62300 0.69379 0.06520
 H1240 H 0.63566 0.78238 0.04154
 H1241 H 0.65944 0.74952 0.02004
 H1242 H 0.60166 0.79463 0.07058
 H1243 H 0.59347 0.70639 0.09768
 H1244 H 0.56047 0.71847 0.12729
 H1245 H 0.52969 0.74932 0.14199
 H1246 H 0.56444 0.80545 0.09617
 C1247 C 0.36483 0.28479 0.06974
 C1248 C 0.38090 0.26891 0.08292
 C1249 C 0.38311 0.24365 0.07579
 C1250 C 0.36794 0.23443 0.05643
 C1251 C 0.35187 0.25043 0.04339
 C1252 C 0.35085 0.27588 0.04944
 C1253 C 0.40108 0.22836 0.08749
 C1254 C 0.41694 0.23817 0.10607
 C1255 C 0.41370 0.26317 0.11391
 C1256 C 0.39565 0.27828 0.10240
 C1257 C 0.42928 0.27302 0.13253
 C1258 C 0.44870 0.25868 0.14257
 C1259 C 0.45282 0.23423 0.13429
 C1260 C 0.43661 0.22381 0.11633
 H1261 H 0.36396 0.30438 0.07466
 H1262 H 0.36917 0.21507 0.05082
 H1263 H 0.34130 0.24319 0.02775
 H1264 H 0.40329 0.20916 0.08160
 H1265 H 0.39373 0.29762 0.10801
 H1266 H 0.42695 0.29207 0.13882
 H1267 H 0.46112 0.26692 0.15635
 H1268 H 0.43995 0.20498 0.10980
 C1269 C 0.63067 0.27927 0.93882
 C1270 C 0.61525 0.26487 0.92305
 C1271 C 0.61749 0.23861 0.92299
 C1272 C 0.63598 0.22734 0.93782
 C1273 C 0.65157 0.24185 0.95312
 C1274 C 0.64867 0.26784 0.95415
 C1275 C 0.60084 0.22407 0.90858
 C1276 C 0.58199 0.23546 0.89422
 C1277 C 0.58063 0.26178 0.89339
 C1278 C 0.59728 0.27629 0.90777
 C1279 C 0.56195 0.27318 0.87894
 C1280 C 0.54385 0.25872 0.86655
 C1281 C 0.54423 0.23264 0.86822
 C1282 C 0.56375 0.22102 0.88155
 H1283 H 0.62856 0.29936 0.93930
 H1284 H 0.63812 0.20727 0.93789
 H1285 H 0.66536 0.23267 0.96478
 H1286 H 0.60213 0.20391 0.90904
 H1287 H 0.59576 0.29643 0.90757
 H1288 H 0.56072 0.29330 0.87797
 H1289 H 0.52877 0.26791 0.85650
 H1290 H 0.56384 0.20089 0.88314
 C1291 C 0.38326 0.71672 0.93692
 C1292 C 0.40059 0.73018 0.92218
 C1293 C 0.41846 0.71719 0.90735
 C1294 C 0.41822 0.69112 0.90690
 C1295 C 0.40146 0.67795 0.92207
 C1296 C 0.38427 0.69057 0.93759
 C1297 C 0.43706 0.73036 0.89409
 C1298 C 0.43864 0.75632 0.89606
 C1299 C 0.42044 0.76949 0.91031
 C1300 C 0.40127 0.75633 0.92300
 C1301 C 0.42245 0.79550 0.91245
 C1302 C 0.44297 0.80815 0.90158
 C1303 C 0.46149 0.79501 0.88814
 C1304 C 0.45891 0.76920 0.88496
 H1305 H 0.37017 0.72658 0.94899
 H1306 H 0.43169 0.68090 0.89555
 H1307 H 0.40240 0.65779 0.92216
 H1308 H 0.45103 0.72031 0.88314
 H1309 H 0.38763 0.76635 0.93435
 H1310 H 0.40869 0.80592 0.92325
 H1311 H 0.44490 0.82807 0.90433
 H1312 H 0.47335 0.75907 0.87469
 C1313 C 0.71575 0.95203 0.38177
 C1314 C 0.72715 0.93777 0.40037
 C1315 C 0.71195 0.92801 0.41972
 C1316 C 0.68567 0.93265 0.42010
 C1317 C 0.67456 0.94718 0.40173
 C1318 C 0.68945 0.95709 0.38247
 C1319 C 0.72331 0.91414 0.43858
 C1320 C 0.74974 0.91028 0.43862
 C1321 C 0.76498 0.92006 0.41933
 C1322 C 0.75355 0.93355 0.40020
 C1323 C 0.79148 0.91659 0.41976
 C1324 C 0.80282 0.90386 0.43931
 C1325 C 0.78780 0.89397 0.45845
 C1326 C 0.76125 0.89720 0.45796
 H1327 H 0.72748 0.95970 0.36710
 H1328 H 0.67376 0.92532 0.43478
 H1329 H 0.65427 0.95073 0.40267
 H1330 H 0.71164 0.90673 0.45345
 H1331 H 0.76525 0.94113 0.38544
 H1332 H 0.80347 0.92408 0.40521
 H1333 H 0.82337 0.90193 0.43968
 H1334 H 0.74966 0.88982 0.47289
 C1335 C 0.26945 0.93969 0.63854
 C1336 C 0.25802 0.92308 0.62169
 C1337 C 0.27196 0.90234 0.61285
 C1338 C 0.29658 0.89798 0.62174
 C1339 C 0.30808 0.91503 0.63777
 C1340 C 0.29491 0.93632 0.64574
 C1341 C 0.26171 0.88712 0.59423
 C1342 C 0.23807 0.89280 0.58373
 C1343 C 0.22368 0.91299 0.59310
 C1344 C 0.23360 0.92780 0.61228
 C1345 C 0.20008 0.91866 0.58239
 C1346 C 0.19137 0.90515 0.56192
 C1347 C 0.20603 0.88571 0.55203
 C1348 C 0.22911 0.87928 0.56327
 H1349 H 0.25936 0.95633 0.64430
 H1350 H 0.30747 0.88213 0.61525
 H1351 H 0.32774 0.91216 0.64312
 H1352 H 0.27269 0.87158 0.58707
 H1353 H 0.22286 0.94367 0.61903
 H1354 H 0.18874 0.93400 0.58935
 H1355 H 0.17355 0.91029 0.55330
 H1356 H 0.24042 0.86428 0.55551
 C1357 C 0.28567 0.05264 0.36895
 C1358 C 0.27800 0.06984 0.38711
 C1359 C 0.29600 0.07905 0.40434
 C1360 C 0.32138 0.07111 0.40295
 C1361 C 0.32868 0.05349 0.38528
 C1362 C 0.31089 0.04390 0.36833
 C1363 C 0.28819 0.09534 0.42319
 C1364 C 0.26244 0.10186 0.42560
 C1365 C 0.24444 0.09276 0.40832
 C1366 C 0.25241 0.07717 0.38893
 C1367 C 0.21859 0.09862 0.41128
 C1368 C 0.21050 0.11254 0.43168
 C1369 C 0.22818 0.12152 0.44908
 C1370 C 0.25422 0.11646 0.44565
 H1371 H 0.27176 0.04518 0.35609
 H1372 H 0.33542 0.07798 0.41598
 H1373 H 0.34825 0.04713 0.38506
 H1374 H 0.30198 0.10219 0.43652
 H1375 H 0.23855 0.06999 0.37584
 H1376 H 0.20452 0.09167 0.39832
 H1377 H 0.19029 0.11571 0.43428
 H1378 H 0.26793 0.12313 0.45913
 C1379 C 0.71434 0.07499 0.62464
 C1380 C 0.72917 0.08840 0.60773
 C1381 C 0.75606 0.08751 0.60910
 C1382 C 0.76758 0.07395 0.62814
 C1383 C 0.75260 0.06042 0.64487
 C1384 C 0.72589 0.06030 0.64282
 C1385 C 0.77088 0.09954 0.59103
 C1386 C 0.75905 0.11221 0.57155
 C1387 C 0.73211 0.11364 0.57074
 C1388 C 0.71739 0.10187 0.58888
 C1389 C 0.72023 0.12635 0.55143
 C1390 C 0.73484 0.13719 0.53278
 C1391 C 0.76152 0.13556 0.53314
 C1392 C 0.77362 0.12307 0.55257
 H1393 H 0.69374 0.07523 0.62302
 H1394 H 0.78816 0.07318 0.62961
 H1395 H 0.76194 0.04922 0.65871
 H1396 H 0.79152 0.09854 0.59180
 H1397 H 0.69674 0.10262 0.58796
 H1398 H 0.69964 0.12764 0.55058
 H1399 H 0.72531 0.14672 0.51783
 H1400 H 0.79423 0.12164 0.55269
 C1401 C 0.93347 0.61482 0.29083
 C1402 C 0.92057 0.60038 0.27316
 C1403 C 0.92626 0.60338 0.24778
 C1404 C 0.94378 0.62180 0.24049
 C1405 C 0.95630 0.63638 0.25824
 C1406 C 0.95174 0.63252 0.28353
 C1407 C 0.91487 0.58749 0.23024
 C1408 C 0.89781 0.56874 0.23783
 C1409 C 0.89122 0.56671 0.26314
 C1410 C 0.90263 0.58251 0.28059
 C1411 C 0.87391 0.54834 0.27076
 C1412 C 0.86402 0.53141 0.25369
 C1413 C 0.87120 0.53250 0.22871
 C1414 C 0.88784 0.55146 0.22073
 H1415 H 0.92969 0.61195 0.31033
 H1416 H 0.94824 0.62454 0.22113
 H1417 H 0.97038 0.64991 0.25224
 H1418 H 0.91973 0.58933 0.21084
 H1419 H 0.89803 0.58045 0.30004
 H1420 H 0.86854 0.54664 0.29004
 H1421 H 0.85131 0.51681 0.26011
 H1422 H 0.89366 0.55214 0.20150
 C1423 C 0.95298 0.36215 0.73348
 C1424 C 0.93690 0.37815 0.74695
 C1425 C 0.91236 0.38376 0.73768
 C1426 C 0.90407 0.37280 0.71558
 C1427 C 0.92050 0.35774 0.70191
 C1428 C 0.94514 0.35272 0.71049
 C1429 C 0.89704 0.40125 0.74986
 C1430 C 0.90626 0.41400 0.77064
 C1431 C 0.93052 0.40808 0.78031
 C1432 C 0.94551 0.38986 0.76864
 C1433 C 0.93981 0.42130 0.80085
 C1434 C 0.92571 0.44091 0.81098
 C1435 C 0.90203 0.44725 0.80093
 C1436 C 0.89210 0.43345 0.78116
 H1437 H 0.97220 0.35862 0.73987
 H1438 H 0.88534 0.37687 0.70825
 H1439 H 0.91429 0.35062 0.68414
 H1440 H 0.87845 0.40584 0.74245
 H1441 H 0.96432 0.38567 0.77575
 H1442 H 0.95833 0.41703 0.80855
 H1443 H 0.93352 0.45158 0.82623
 H1444 H 0.87384 0.43858 0.77338
 C1445 C 0.04722 0.61664 0.71806
 C1446 C 0.06417 0.60115 0.73095
 C1447 C 0.08351 0.58834 0.71779
 C1448 C 0.08611 0.59172 0.69229
 C1449 C 0.06884 0.60649 0.67961
 C1450 C 0.04897 0.61861 0.69221
 C1451 C 0.09919 0.57140 0.73001
 C1452 C 0.09532 0.56638 0.75508
 C1453 C 0.07656 0.57959 0.76857
 C1454 C 0.06132 0.59721 0.75647
 C1455 C 0.07262 0.57407 0.79365
 C1456 C 0.08617 0.55475 0.80481
 C1457 C 0.10405 0.54101 0.79114
 C1458 C 0.10902 0.54733 0.76651
 H1459 H 0.03180 0.62582 0.72783
 H1460 H 0.10090 0.58215 0.68199
 H1461 H 0.07065 0.60800 0.65972
 H1462 H 0.11362 0.56125 0.71973
 H1463 H 0.04655 0.60697 0.76665
 H1464 H 0.05839 0.58400 0.80433
 H1465 H 0.08202 0.54986 0.82381
 H1466 H 0.12271 0.53652 0.75595
 C1467 C 0.05255 0.38573 0.28124
 C1468 C 0.06745 0.40404 0.26953
 C1469 C 0.07866 0.42332 0.28378
 C1470 C 0.07476 0.42402 0.30939
 C1471 C 0.05946 0.40608 0.32078
 C1472 C 0.04817 0.38686 0.30685
 C1473 C 0.09311 0.44194 0.27218
 C1474 C 0.09590 0.44196 0.24643
 C1475 C 0.08461 0.42281 0.23209
 C1476 C 0.07074 0.40376 0.24378
 C1477 C 0.08682 0.42345 0.20625
 C1478 C 0.09955 0.44320 0.19472
 C1479 C 0.11083 0.46224 0.20887
 C1480 C 0.10915 0.46134 0.23474
 H1481 H 0.04374 0.37108 0.27032
 H1482 H 0.08319 0.43867 0.32056
 H1483 H 0.05646 0.40724 0.34056
 H1484 H 0.10162 0.45675 0.28313
 H1485 H 0.06200 0.38910 0.23280
 H1486 H 0.07815 0.40903 0.19495
 H1487 H 0.10023 0.44389 0.17473
 H1488 H 0.11762 0.47617 0.24569
   
