data_POSCAR
  _audit_creation_date              2014-09-24
  _audit_creation_method            'ToBaCCo'
  _symmetry_space_group_name_H-M    'P1'
  _symmetry_Int_Tables_number       1
  _symmetry_cell_setting            triclinic
  loop_
  _symmetry_equiv_pos_as_xyz
 x,y,z
_cell_length_a 64.2536
_cell_length_b 47.1400
_cell_length_c 47.5792
_cell_angle_alpha 90.199900
_cell_angle_beta 89.885900
_cell_angle_gamma 90.101100
loop_
  _atom_site_label
  _atom_site_type_symbol
  _atom_site_fract_x
  _atom_site_fract_y
  _atom_site_fract_z
C1 C 1.22300 0.26047 0.29577
 H2 H 1.22436 0.23773 0.29817
 C3 C 1.20952 0.27579 0.31307
 H4 H 1.20060 0.26475 0.32899
 C5 C 1.23279 0.30242 0.27172
 H6 H 1.24165 0.31257 0.25523
 C7 C 1.21962 0.31861 0.28875
 H8 H 1.21836 0.34122 0.28517
 N9 N 1.23396 0.27384 0.27523
 C10 C 1.24101 0.21354 0.20614
 H11 H 1.25771 0.21324 0.20318
 C12 C 1.22822 0.19772 0.18824
 H13 H 1.23523 0.18544 0.17146
 C14 C 1.21162 0.23092 0.23085
 H15 H 1.20509 0.24408 0.24722
 C16 C 1.19830 0.21529 0.21363
 H17 H 1.18171 0.21621 0.21754
 Zn18 Zn 1.25030 0.25147 0.25076
 N19 N 1.23258 0.22966 0.22704
 C20 C 1.26933 0.19941 0.26691
 N21 N 1.26717 0.22738 0.27303
 C22 C 1.27667 0.23894 0.29579
 C23 C 1.28966 0.22262 0.31271
 C24 C 1.28221 0.18221 0.28317
 C25 C 1.26312 0.27884 0.20063
 C26 C 1.27589 0.29582 0.18385
 C27 C 1.29685 0.30625 0.22467
 C28 C 1.28371 0.28907 0.24065
 N29 N 1.26738 0.27543 0.22842
 H30 H 1.26103 0.19017 0.24945
 H31 H 1.27425 0.26108 0.30082
 H32 H 1.29762 0.23373 0.32941
 H33 H 1.28259 0.15997 0.27770
 H34 H 1.24974 0.26854 0.19139
 H35 H 1.27222 0.29829 0.16179
 H36 H 1.31007 0.31629 0.23471
 H37 H 1.28670 0.28649 0.26278
 C38 C 1.20652 0.19846 0.19188
 C39 C 1.20751 0.30518 0.30939
 C40 C 1.29312 0.30962 0.19581
 C41 C 1.29313 0.19354 0.30655
 C42 C 0.72152 -0.24232 0.29358
 H43 H 0.72162 -0.26525 0.29442
 C44 C 0.70793 -0.22702 0.31073
 H45 H 0.69770 -0.23832 0.32494
 C46 C 0.73483 -0.19983 0.27402
 H47 H 0.74540 -0.18929 0.25981
 C48 C 0.72156 -0.18364 0.29097
 H49 H 0.72178 -0.16075 0.28921
 N50 N 0.73415 -0.22867 0.27506
 C51 C 0.74162 -0.29073 0.20731
 H52 H 0.75838 -0.29225 0.20584
 C53 C 0.72906 -0.30640 0.18891
 H54 H 0.73634 -0.31975 0.17318
 C55 C 0.71186 -0.27060 0.22893
 H56 H 0.70511 -0.25630 0.24414
 C57 C 0.69877 -0.28601 0.21121
 H58 H 0.68210 -0.28385 0.21376
 Zn59 Zn 0.75046 -0.25204 0.25111
 N60 N 0.73287 -0.27343 0.22697
 C61 C 0.76529 -0.30485 0.27279
 N62 N 0.76619 -0.27608 0.27468
 C63 C 0.77845 -0.26300 0.29406
 C64 C 0.79101 -0.27889 0.31191
 C65 C 0.77758 -0.32162 0.29034
 C66 C 0.76075 -0.21026 0.21076
 C67 C 0.77402 -0.19354 0.19434
 C68 C 0.80327 -0.21926 0.21322
 C69 C 0.78949 -0.23522 0.22943
 N70 N 0.76868 -0.23014 0.22839
 H71 H 0.75511 -0.31484 0.25765
 H72 H 0.77872 -0.24008 0.29523
 H73 H 0.80114 -0.26793 0.32652
 H74 H 0.77667 -0.34449 0.28856
 H75 H 0.74409 -0.20707 0.20980
 H76 H 0.76743 -0.17718 0.18119
 H77 H 0.81974 -0.22393 0.21428
 H78 H 0.79551 -0.25184 0.24267
 C79 C 0.70728 -0.30417 0.19074
 C80 C 0.70756 -0.19729 0.30918
 C81 C 0.79566 -0.19774 0.19569
 C82 C 0.79081 -0.30864 0.31010
 C83 C 0.72273 0.25690 -0.20538
 H84 H 0.72290 0.23401 -0.20380
 C85 C 0.70909 0.27268 -0.18873
 H86 H 0.69891 0.26180 -0.17414
 C87 C 0.73573 0.29878 -0.22656
 H88 H 0.74609 0.30884 -0.24141
 C89 C 0.72243 0.31544 -0.21011
 H90 H 0.72247 0.33825 -0.21273
 N91 N 0.73523 0.27000 -0.22444
 C92 C 0.74191 0.20797 -0.29221
 H93 H 0.75865 0.20630 -0.29395
 C94 C 0.72911 0.19269 -0.31061
 H95 H 0.73617 0.17944 -0.32661
 C96 C 0.71245 0.22816 -0.26990
 H97 H 0.70590 0.24233 -0.25440
 C98 C 0.69912 0.21318 -0.28766
 H99 H 0.68249 0.21554 -0.28491
 Zn100 Zn 0.75130 0.24611 -0.24809
 N101 N 0.73342 0.22510 -0.27218
 C102 C 0.76595 0.19292 -0.22750
 N103 N 0.76676 0.22161 -0.22456
 C104 C 0.77884 0.23401 -0.20454
 C105 C 0.79149 0.21750 -0.18732
 C106 C 0.77835 0.17557 -0.21067
 C107 C 0.76169 0.28552 -0.29039
 C108 C 0.77484 0.30097 -0.30814
 C109 C 0.80427 0.27868 -0.28595
 C110 C 0.79053 0.26376 -0.26873
 N111 N 0.76968 0.26754 -0.27100
 H112 H 0.75590 0.18342 -0.24308
 H113 H 0.77902 0.25687 -0.20248
 H114 H 0.80157 0.22794 -0.17228
 H115 H 0.77763 0.15279 -0.21345
 H116 H 0.74499 0.28760 -0.29233
 H117 H 0.76740 0.31391 -0.32384
 H118 H 0.82061 0.27566 -0.28178
 H119 H 0.79668 0.24909 -0.25352
 C120 C 0.70736 0.19519 -0.30846
 C121 C 0.70855 0.30231 -0.19137
 C122 C 0.79679 0.29787 -0.30648
 C123 C 0.79157 0.18787 -0.19050
 C124 C 1.22325 -0.24240 -0.20736
 H125 H 1.22343 -0.26533 -0.20655
 C126 C 1.20990 -0.22719 -0.18980
 H127 H 1.19992 -0.23855 -0.17532
 C128 C 1.23610 -0.19982 -0.22730
 H129 H 1.24639 -0.18921 -0.24184
 C130 C 1.22306 -0.18372 -0.20995
 H131 H 1.22316 -0.16083 -0.21171
 N132 N 1.23551 -0.22867 -0.22628
 C133 C 1.24165 -0.29072 -0.29428
 H134 H 1.25838 -0.29228 -0.29638
 C135 C 1.22869 -0.30646 -0.31210
 H136 H 1.23563 -0.31989 -0.32805
 C137 C 1.21238 -0.27045 -0.27160
 H138 H 1.20596 -0.25607 -0.25620
 C139 C 1.19890 -0.28593 -0.28871
 H140 H 1.18230 -0.28375 -0.28550
 Zn141 Zn 1.25139 -0.25193 -0.25084
 N142 N 1.23334 -0.27333 -0.27435
 C143 C 1.26662 -0.30471 -0.22959
 N144 N 1.26759 -0.27594 -0.22782
 C145 C 1.28012 -0.26282 -0.20880
 C146 C 1.29284 -0.27868 -0.19112
 C147 C 1.27908 -0.32146 -0.21220
 C148 C 1.26073 -0.20999 -0.29140
 C149 C 1.27362 -0.19287 -0.30795
 C150 C 1.30337 -0.21816 -0.28996
 C151 C 1.28997 -0.23455 -0.27361
 N152 N 1.26910 -0.22984 -0.27409
 H153 H 1.25622 -0.31474 -0.24443
 H154 H 1.28042 -0.23989 -0.20770
 H155 H 1.30313 -0.26769 -0.17675
 H156 H 1.27808 -0.34433 -0.21383
 H157 H 1.24404 -0.20709 -0.29190
 H158 H 1.26669 -0.17650 -0.32077
 H159 H 1.31991 -0.22247 -0.28928
 H160 H 1.29633 -0.25113 -0.26061
 C161 C 1.20695 -0.30421 -0.30941
 C162 C 1.20940 -0.19747 -0.19135
 C163 C 1.29532 -0.19660 -0.30708
 C164 C 1.29252 -0.30843 -0.19274
 C165 C 0.26034 0.20910 0.71139
 H166 H 0.24383 0.20458 0.71119
 C167 C 0.27387 0.19329 0.69442
 H168 H 0.26762 0.17626 0.68165
 C169 C 0.28845 0.23669 0.72852
 H170 H 0.29407 0.25402 0.74132
 C171 C 0.30243 0.22173 0.71168
 H172 H 0.31866 0.22792 0.71182
 N173 N 0.26787 0.22994 0.72844
 C174 C 0.22067 0.24107 0.79376
 H175 H 0.22006 0.26401 0.79405
 C176 C 0.20758 0.22551 0.81131
 H177 H 0.19754 0.23715 0.82549
 C178 C 0.23556 0.19898 0.77563
 H179 H 0.24652 0.18870 0.76172
 C180 C 0.22292 0.18247 0.79311
 H181 H 0.22411 0.15967 0.79128
 Zn182 Zn 0.24930 0.25132 0.75115
 N183 N 0.23379 0.22770 0.77569
 C184 C 0.21014 0.26778 0.72911
 N185 N 0.23110 0.27126 0.72689
 C186 C 0.23947 0.28841 0.70689
 C187 C 0.22659 0.30339 0.68852
 C188 C 0.19672 0.28253 0.71143
 C189 C 0.27741 0.26494 0.79342
 C190 C 0.28984 0.28203 0.81053
 C191 C 0.27518 0.32334 0.78815
 C192 C 0.26301 0.30541 0.77143
 N193 N 0.26462 0.27677 0.77402
 H194 H 0.20369 0.25356 0.74455
 H195 H 0.25620 0.29041 0.70521
 H196 H 0.23360 0.31667 0.67258
 H197 H 0.18011 0.27997 0.71424
 H198 H 0.27825 0.24209 0.79516
 H199 H 0.30042 0.27209 0.82515
 H200 H 0.27380 0.34609 0.78573
 H201 H 0.25241 0.31442 0.75630
 C202 C 0.20811 0.19556 0.81090
 C203 C 0.29530 0.19942 0.69453
 C204 C 0.28899 0.31167 0.80784
 C205 C 0.20485 0.30065 0.69073
 C206 C 0.75996 0.71051 0.71078
 H207 H 0.74342 0.70621 0.71030
 C208 C 0.77353 0.69415 0.69444
 H209 H 0.76728 0.67703 0.68179
 C210 C 0.78814 0.73766 0.72839
 H211 H 0.79382 0.75480 0.74142
 C212 C 0.80220 0.72208 0.71223
 H213 H 0.81853 0.72769 0.71293
 N214 N 0.76747 0.73154 0.72764
 C215 C 0.71842 0.74127 0.79094
 H216 H 0.71735 0.76401 0.79240
 C217 C 0.70498 0.72465 0.80697
 H218 H 0.69402 0.73542 0.82057
 C219 C 0.73537 0.70043 0.77346
 H220 H 0.74737 0.69097 0.76063
 C221 C 0.72243 0.68290 0.78948
 H222 H 0.72442 0.66021 0.78747
 Zn223 Zn 0.74917 0.75327 0.75058
 N224 N 0.73277 0.72906 0.77378
 C225 C 0.71924 0.79563 0.74033
 N226 N 0.73150 0.77586 0.72762
 C227 C 0.73123 0.77240 0.69919
 C228 C 0.71774 0.78846 0.68260
 C229 C 0.70550 0.81198 0.72462
 C230 C 0.77526 0.76468 0.79607
 C231 C 0.78832 0.78078 0.81329
 C232 C 0.78023 0.82201 0.78533
 C233 C 0.76741 0.80509 0.76856
 N234 N 0.76522 0.77697 0.77416
 H235 H 0.72037 0.79925 0.76266
 H236 H 0.74133 0.75709 0.68925
 H237 H 0.71741 0.78501 0.66010
 H238 H 0.69593 0.82762 0.73520
 H239 H 0.77342 0.74219 0.79979
 H240 H 0.79665 0.77039 0.83010
 H241 H 0.78175 0.84436 0.78056
 H242 H 0.75959 0.81432 0.75072
 C243 C 0.70641 0.69480 0.80607
 C244 C 0.79502 0.69973 0.69519
 C245 C 0.79107 0.80983 0.80788
 C246 C 0.70445 0.80827 0.69541
 C247 C 0.76121 0.20930 0.20840
 H248 H 0.74468 0.20492 0.20782
 C249 C 0.77485 0.19357 0.19154
 H250 H 0.76866 0.17675 0.17844
 C251 C 0.78925 0.23631 0.22660
 H252 H 0.79482 0.25333 0.23984
 C253 C 0.80336 0.22141 0.20989
 H254 H 0.81963 0.22735 0.21054
 N255 N 0.76864 0.22972 0.22600
 C256 C 0.72145 0.23818 0.29180
 H257 H 0.72020 0.26106 0.29255
 C258 C 0.70898 0.22158 0.30929
 H259 H 0.69794 0.23193 0.32312
 C260 C 0.73698 0.19712 0.27212
 H261 H 0.74812 0.18765 0.25793
 C262 C 0.72487 0.17969 0.28935
 H263 H 0.72684 0.15691 0.28812
 Zn264 Zn 0.74991 0.25036 0.24915
 N265 N 0.73468 0.22580 0.27313
 C266 C 0.71064 0.26745 0.22773
 N267 N 0.73161 0.27062 0.22532
 C268 C 0.74002 0.28780 0.20538
 C269 C 0.72718 0.30309 0.18723
 C270 C 0.69725 0.28254 0.21027
 C271 C 0.77787 0.26360 0.29178
 C272 C 0.79020 0.28060 0.30911
 C273 C 0.77528 0.32204 0.28730
 C274 C 0.76321 0.30420 0.27034
 N275 N 0.76502 0.27555 0.27253
 H276 H 0.70417 0.25326 0.24319
 H277 H 0.75676 0.28958 0.20358
 H278 H 0.73423 0.31635 0.17131
 H279 H 0.68063 0.28022 0.21322
 H280 H 0.77887 0.24074 0.29320
 H281 H 0.80086 0.27058 0.32359
 H282 H 0.77374 0.34480 0.28517
 H283 H 0.75258 0.31329 0.25532
 C284 C 0.71039 0.19186 0.30796
 C285 C 0.79631 0.19937 0.19235
 C286 C 0.78918 0.31026 0.30680
 C287 C 0.70543 0.30067 0.18961
 C288 C 0.26121 0.70756 0.21282
 H289 H 0.24459 0.70404 0.21166
 C290 C 0.27471 0.69125 0.19628
 H291 H 0.26832 0.67485 0.18285
 C292 C 0.28964 0.73309 0.23198
 H293 H 0.29543 0.74976 0.24549
 C294 C 0.30362 0.71759 0.21563
 H295 H 0.32002 0.72274 0.21679
 N296 N 0.26888 0.72763 0.23064
 C297 C 0.22177 0.74029 0.29584
 H298 H 0.22190 0.76323 0.29662
 C299 C 0.20828 0.72511 0.31318
 H300 H 0.19814 0.73652 0.32747
 C301 C 0.23491 0.69766 0.27620
 H302 H 0.24535 0.68702 0.26185
 C303 C 0.22171 0.68159 0.29332
 H304 H 0.22186 0.65868 0.29156
 Zn305 Zn 0.25039 0.74964 0.25290
 N306 N 0.23427 0.72650 0.27721
 C307 C 0.21163 0.76743 0.23092
 N308 N 0.23263 0.77003 0.22838
 C309 C 0.24121 0.78658 0.20804
 C310 C 0.22851 0.80185 0.18966
 C311 C 0.19839 0.78247 0.21324
 C312 C 0.27734 0.76275 0.29669
 C313 C 0.28976 0.77946 0.31416
 C314 C 0.27803 0.82084 0.28906
 C315 C 0.26569 0.80322 0.27225
 N316 N 0.26589 0.77470 0.27597
 H317 H 0.20499 0.75373 0.24668
 H318 H 0.25797 0.78789 0.20610
 H319 H 0.23566 0.81467 0.17346
 H320 H 0.18175 0.78060 0.21631
 H321 H 0.27717 0.73994 0.29921
 H322 H 0.29938 0.76829 0.32902
 H323 H 0.27666 0.84339 0.28563
 H324 H 0.25598 0.81245 0.25620
 C325 C 0.20784 0.69537 0.31166
 C326 C 0.29630 0.69606 0.19767
 C327 C 0.29076 0.80929 0.31050
 C328 C 0.20674 0.79999 0.19220
 O329 O 1.03127 0.04890 0.05066
 O330 O 1.05402 0.02220 0.02444
 C331 C 1.04995 0.04139 0.04328
 O332 O 0.97270 -0.05307 0.05066
 O333 O 0.94962 -0.02623 0.02542
 C334 C 0.95392 -0.04574 0.04367
 O335 O 1.03083 -0.05119 0.05200
 O336 O 1.05381 -0.02567 0.02504
 C337 C 1.04958 -0.04416 0.04440
 O338 O 0.97329 0.05160 0.04909
 O339 O 0.94986 0.02425 0.02475
 C340 C 0.95443 0.04442 0.04233
 Zr341 Zr 1.00206 0.03412 0.03627
 O342 O 1.00188 0.02922 0.08040
 O343 O 1.00273 0.07879 0.04034
 Zr344 Zr 1.00172 -0.03688 0.03690
 O345 O 1.00139 -0.03247 0.08112
 O346 O 1.00283 -0.08167 0.03906
 O347 O 1.02071 -0.00141 0.04171
 O348 O 0.98349 -0.00114 0.04190
 O349 O 0.97247 0.04952 -0.04805
 O350 O 0.94950 0.02294 -0.02226
 C351 C 0.95371 0.04236 -0.04066
 O352 O 1.03021 -0.05204 -0.05023
 O353 O 1.05352 -0.02620 -0.02415
 C354 C 1.04905 -0.04485 -0.04333
 O355 O 0.97206 -0.05443 -0.04656
 O356 O 0.94930 -0.02653 -0.02168
 C357 C 0.95337 -0.04671 -0.03945
 O358 O 1.03065 0.04724 -0.05079
 O359 O 1.05373 0.02140 -0.02459
 C360 C 1.04942 0.03992 -0.04382
 Zr361 Zr 1.00159 0.03342 -0.03480
 O362 O 0.99919 0.03205 -0.07918
 O363 O 1.00362 0.07824 -0.03558
 Zr364 Zr 1.00126 -0.03810 -0.03391
 O365 O 0.99890 -0.03984 -0.07825
 O366 O 1.00207 -0.08280 -0.03074
 Zr367 Zr 1.03283 -0.00198 0.00050
 Zr368 Zr 0.97045 -0.00154 0.00141
 O369 O 0.98325 -0.00231 -0.03931
 O370 O 1.02001 -0.00252 -0.04024
 O371 O 0.98336 0.03962 0.00092
 O372 O 1.01964 -0.04283 0.00123
 O373 O 1.01991 0.03898 0.00039
 O374 O 0.98286 -0.04287 0.00178
 H375 H 0.97404 -0.00078 0.05839
 H376 H 1.02886 -0.05966 0.00121
 H377 H 0.97382 -0.00257 -0.05576
 H378 H 1.02926 0.05570 0.00000
 H379 H 0.99515 -0.08896 0.02254
 H380 H 1.00192 -0.09016 -0.05028
 H381 H 1.00957 -0.02686 -0.08596
 H382 H 1.01140 0.02159 -0.08647
 H383 H 0.99246 0.08571 -0.02325
 H384 H 1.00563 0.08650 0.02146
 H385 H 1.00138 0.04866 0.08834
 H386 H 1.00110 -0.05200 0.08873
 O387 O 1.02889 0.54722 0.55290
 O388 O 1.05153 0.52183 0.52526
 C389 C 1.04755 0.54012 0.54499
 O390 O 0.97028 0.44467 0.54747
 O391 O 0.94707 0.47336 0.52458
 C392 C 0.95146 0.45246 0.54124
 O393 O 1.02840 0.44705 0.54925
 O394 O 1.05127 0.47396 0.52349
 C395 C 1.04712 0.45454 0.54197
 O396 O 0.97089 0.54980 0.55197
 O397 O 0.94736 0.52375 0.52642
 C398 C 0.95200 0.54301 0.54494
 Zr399 Zr 0.99961 0.53304 0.53808
 O400 O 0.99965 0.52579 0.58188
 O401 O 1.00008 0.57746 0.54446
 Zr402 Zr 0.99925 0.46205 0.53501
 O403 O 0.99886 0.46416 0.57938
 O404 O 1.00054 0.41722 0.53505
 O405 O 1.01825 0.49726 0.54156
 O406 O 0.98104 0.49747 0.54202
 O407 O 0.96957 0.55267 0.45478
 O408 O 0.94676 0.52474 0.47941
 C409 C 0.95086 0.54506 0.46196
 O410 O 1.02736 0.45167 0.44696
 O411 O 1.05078 0.47601 0.47428
 C412 C 1.04622 0.45839 0.45421
 O413 O 0.96926 0.44902 0.45080
 O414 O 0.94660 0.47528 0.47753
 C415 C 0.95059 0.45621 0.45855
 O416 O 1.02778 0.55032 0.45118
 O417 O 1.05096 0.52351 0.47621
 C418 C 1.04659 0.54271 0.45767
 Zr419 Zr 0.99884 0.53610 0.46708
 O420 O 0.99959 0.53789 0.42256
 O421 O 1.00044 0.58092 0.46939
 Zr422 Zr 0.99850 0.46463 0.46425
 O423 O 0.99647 0.46565 0.41989
 O424 O 0.99926 0.41981 0.46491
 Zr425 Zr 1.03021 0.49888 0.50032
 Zr426 Zr 0.96784 0.49919 0.50168
 O427 O 0.98041 0.50062 0.46088
 O428 O 1.01718 0.50047 0.45976
 O429 O 0.98075 0.54034 0.50321
 O430 O 1.01704 0.45804 0.49897
 O431 O 1.01733 0.53981 0.50234
 O432 O 0.98027 0.45791 0.49976
 H433 H 0.97162 0.49688 0.55853
 H434 H 1.02626 0.44123 0.49802
 H435 H 0.97071 0.50100 0.44475
 H436 H 1.02673 0.55648 0.50263
 H437 H 0.99333 0.41072 0.51784
 H438 H 0.99911 0.41358 0.44500
 H439 H 1.00500 0.48190 0.41352
 H440 H 0.98668 0.52935 0.41505
 H441 H 0.98923 0.58739 0.48218
 H442 H 1.00401 0.58616 0.52635
 H443 H 0.99917 0.54479 0.59082
 H444 H 0.99856 0.44424 0.58597
 O445 O 0.52983 0.05300 0.54726
 O446 O 0.55226 0.02521 0.52171
 C447 C 0.54841 0.04481 0.54021
 O448 O 0.47027 -0.04795 0.54908
 O449 O 0.44750 -0.02130 0.52315
 C450 C 0.45159 -0.04050 0.54183
 O451 O 0.52837 -0.04627 0.55133
 O452 O 0.55159 -0.02262 0.52318
 C453 C 0.54718 -0.03989 0.54352
 O454 O 0.47185 0.05655 0.54538
 O455 O 0.44823 0.02906 0.52153
 C456 C 0.45293 0.04945 0.53880
 Zr457 Zr 0.50052 0.03845 0.53295
 O458 O 0.50024 0.03452 0.57717
 O459 O 0.50146 0.08321 0.53589
 Zr460 Zr 0.49947 -0.03256 0.53516
 O461 O 0.49881 -0.02739 0.57930
 O462 O 0.50041 -0.07731 0.53802
 O463 O 0.51876 0.00269 0.53920
 O464 O 0.48159 0.00363 0.53926
 O465 O 0.47134 0.05249 0.44819
 O466 O 0.44804 0.02697 0.47450
 C467 C 0.45251 0.04590 0.45571
 O468 O 0.52814 -0.05005 0.44861
 O469 O 0.55163 -0.02404 0.47428
 C470 C 0.54705 -0.04300 0.45545
 O471 O 0.46981 -0.05112 0.45148
 O472 O 0.44728 -0.02257 0.47602
 C473 C 0.45118 -0.04295 0.45839
 O474 O 0.52960 0.04859 0.44567
 O475 O 0.55232 0.02315 0.47283
 C476 C 0.54829 0.04113 0.45299
 Zr477 Zr 0.50023 0.03610 0.46188
 O478 O 0.49786 0.03409 0.41753
 O479 O 0.50282 0.08085 0.46024
 Zr480 Zr 0.49915 -0.03540 0.46435
 O481 O 0.49702 -0.03839 0.42005
 O482 O 0.49942 -0.07999 0.46870
 Zr483 Zr 0.53093 0.00092 0.49807
 Zr484 Zr 0.46864 0.00253 0.49874
 O485 O 0.48155 0.00064 0.45809
 O486 O 0.51824 -0.00032 0.45727
 O487 O 0.48196 0.04345 0.49739
 O488 O 0.51740 -0.03968 0.49971
 O489 O 0.51851 0.04214 0.49703
 O490 O 0.48062 -0.03901 0.50006
 H491 H 0.47212 0.00447 0.55570
 H492 H 0.52652 -0.05660 0.50022
 H493 H 0.47218 0.00026 0.44158
 H494 H 0.52811 0.05858 0.49629
 H495 H 0.49217 -0.08483 0.52210
 H496 H 0.49940 -0.08785 0.44935
 H497 H 0.50766 -0.02551 0.41210
 H498 H 0.50978 0.02286 0.41048
 H499 H 0.49177 0.08880 0.47245
 H500 H 0.50533 0.09039 0.51712
 H501 H 0.49985 0.05414 0.58469
 H502 H 0.49837 -0.04678 0.58726
 O503 O 0.53106 0.54900 0.04897
 O504 O 0.55341 0.52274 0.02162
 C505 C 0.54963 0.54154 0.04098
 O506 O 0.47201 0.44724 0.04759
 O507 O 0.44884 0.47518 0.02377
 C508 C 0.45320 0.45501 0.04128
 O509 O 0.53025 0.44907 0.04801
 O510 O 0.55301 0.47505 0.02112
 C511 C 0.54894 0.45616 0.04017
 O512 O 0.47263 0.55168 0.04876
 O513 O 0.44887 0.52504 0.02408
 C514 C 0.45366 0.54466 0.04217
 Zr515 Zr 0.50149 0.53485 0.03505
 O516 O 0.50183 0.52913 0.07907
 O517 O 0.50208 0.57943 0.04015
 Zr518 Zr 0.50094 0.46373 0.03395
 O519 O 0.50100 0.46703 0.07825
 O520 O 0.50199 0.41891 0.03516
 O521 O 0.52004 0.49902 0.03931
 O522 O 0.48293 0.49950 0.04017
 O523 O 0.47120 0.55269 -0.04822
 O524 O 0.44843 0.52545 -0.02277
 C525 C 0.45251 0.54538 -0.04069
 O526 O 0.52837 0.45040 -0.05406
 O527 O 0.55194 0.47548 -0.02773
 C528 C 0.54728 0.45729 -0.04725
 O529 O 0.47026 0.44870 -0.04971
 O530 O 0.44800 0.47606 -0.02352
 C531 C 0.45171 0.45644 -0.04204
 O532 O 0.52944 0.54917 -0.05244
 O533 O 0.55263 0.52276 -0.02698
 C534 C 0.54823 0.54143 -0.04602
 Zr535 Zr 0.50036 0.53589 -0.03605
 O536 O 0.49737 0.53606 -0.08037
 O537 O 0.50276 0.58069 -0.03560
 Zr538 Zr 0.49966 0.46425 -0.03695
 O539 O 0.49692 0.46368 -0.08128
 O540 O 0.50019 0.41948 -0.03477
 Zr541 Zr 0.53163 0.49935 -0.00214
 Zr542 Zr 0.46951 0.50025 -0.00008
 O543 O 0.48182 0.50040 -0.04108
 O544 O 0.51848 0.49987 -0.04270
 O545 O 0.48251 0.54135 0.00018
 O546 O 0.51838 0.45854 -0.00223
 O547 O 0.51900 0.54046 -0.00108
 O548 O 0.48166 0.45877 -0.00098
 H549 H 0.47365 0.49946 0.05684
 H550 H 0.52754 0.44166 -0.00280
 H551 H 0.47223 0.50071 -0.05735
 H552 H 0.52853 0.55700 -0.00138
 H553 H 0.49430 0.41201 0.01848
 H554 H 0.49982 0.41256 -0.05445
 H555 H 0.50766 0.47664 -0.08883
 H556 H 0.50911 0.52502 -0.08823
 H557 H 0.49193 0.58792 -0.02262
 H558 H 0.50619 0.58756 0.02185
 H559 H 0.50142 0.54843 0.08735
 H560 H 0.50081 0.44731 0.08537
 C561 C 1.16477 0.15008 0.13926
 C562 C 1.15940 0.17743 0.14864
 C563 C 1.17310 0.19322 0.16519
 C564 C 1.19245 0.18200 0.17314
 C565 C 1.19797 0.15478 0.16352
 C566 C 1.18431 0.13903 0.14671
 C567 C 1.14970 0.13301 0.12257
 C568 C 1.14765 0.10361 0.12692
 C569 C 1.13233 0.08805 0.11277
 C570 C 1.11863 0.10164 0.09428
 C571 C 1.12103 0.13077 0.08926
 C572 C 1.13649 0.14625 0.10308
 C573 C 1.10120 0.08589 0.08127
 C574 C 1.08097 0.09699 0.08258
 C575 C 1.06434 0.08229 0.07059
 C576 C 1.06761 0.05633 0.05667
 C577 C 1.08790 0.04524 0.05528
 C578 C 1.10452 0.05977 0.06772
 H579 H 1.14438 0.18648 0.14371
 H580 H 1.16847 0.21429 0.17178
 H581 H 1.21268 0.14539 0.16944
 H582 H 1.18906 0.11819 0.13958
 H583 H 1.15736 0.09278 0.14202
 H584 H 1.13066 0.06562 0.11710
 H585 H 1.11083 0.14160 0.07474
 H586 H 1.13795 0.16867 0.09866
 H587 H 1.07800 0.11696 0.09317
 H588 H 1.04893 0.09149 0.07191
 H589 H 1.09091 0.02532 0.04465
 H590 H 1.12002 0.05087 0.06640
 C591 C 1.16417 0.64742 0.63926
 C592 C 1.15955 0.67540 0.64746
 C593 C 1.17364 0.69120 0.66341
 C594 C 1.19263 0.67936 0.67207
 C595 C 1.19744 0.65152 0.66355
 C596 C 1.18341 0.63578 0.64725
 C597 C 1.14861 0.63037 0.62323
 C598 C 1.14609 0.60115 0.62832
 C599 C 1.13044 0.58569 0.61471
 C600 C 1.11681 0.59920 0.59606
 C601 C 1.11960 0.62814 0.59039
 C602 C 1.13542 0.64349 0.60360
 C603 C 1.09917 0.58357 0.58339
 C604 C 1.07900 0.59481 0.58504
 C605 C 1.06221 0.58037 0.57305
 C606 C 1.06530 0.55458 0.55874
 C607 C 1.08553 0.54333 0.55707
 C608 C 1.10229 0.55756 0.56957
 H609 H 1.14480 0.68501 0.64213
 H610 H 1.16954 0.71274 0.66906
 H611 H 1.21184 0.64162 0.66999
 H612 H 1.18764 0.61446 0.64100
 H613 H 1.15573 0.59038 0.64355
 H614 H 1.12849 0.56340 0.61951
 H615 H 1.10945 0.63890 0.57574
 H616 H 1.13721 0.66573 0.59854
 H617 H 1.07620 0.61474 0.59580
 H618 H 1.04686 0.58970 0.57457
 H619 H 1.08841 0.52356 0.54613
 H620 H 1.11775 0.54855 0.56798
 C621 C 0.66511 0.14859 0.63797
 C622 C 0.66076 0.17665 0.64614
 C623 C 0.67467 0.19186 0.66291
 C624 C 0.69323 0.17935 0.67230
 C625 C 0.69780 0.15144 0.66379
 C626 C 0.68391 0.13626 0.64677
 C627 C 0.64969 0.13215 0.62115
 C628 C 0.64625 0.10313 0.62636
 C629 C 0.63064 0.08830 0.61201
 C630 C 0.61800 0.10223 0.59240
 C631 C 0.62177 0.13095 0.58659
 C632 C 0.63752 0.14569 0.60064
 C633 C 0.60032 0.08730 0.57894
 C634 C 0.58060 0.10006 0.57836
 C635 C 0.56373 0.08609 0.56605
 C636 C 0.56628 0.05920 0.55370
 C637 C 0.58605 0.04644 0.55417
 C638 C 0.60288 0.06028 0.56691
 H639 H 0.64633 0.18676 0.64014
 H640 H 0.67081 0.21348 0.66860
 H641 H 0.71187 0.14107 0.67081
 H642 H 0.68790 0.11482 0.64058
 H643 H 0.65511 0.09209 0.64225
 H644 H 0.62793 0.06619 0.61700
 H645 H 0.61243 0.14205 0.57123
 H646 H 0.64004 0.16780 0.59555
 H647 H 0.57818 0.12075 0.58777
 H648 H 0.54872 0.09651 0.56594
 H649 H 0.58847 0.02568 0.54491
 H650 H 0.61797 0.05005 0.56706
 C651 C 0.66570 0.64789 0.13726
 C652 C 0.68470 0.63613 0.14607
 C653 C 0.69835 0.65173 0.16307
 C654 C 0.69338 0.67954 0.17152
 C655 C 0.67464 0.69150 0.16207
 C656 C 0.66094 0.67585 0.14539
 C657 C 0.65050 0.63098 0.12048
 C658 C 0.63786 0.64424 0.10030
 C659 C 0.62223 0.62907 0.08646
 C660 C 0.61911 0.60018 0.09208
 C661 C 0.63225 0.58650 0.11124
 C662 C 0.64770 0.60178 0.12546
 C663 C 0.60148 0.58485 0.07901
 C664 C 0.60445 0.55859 0.06558
 C665 C 0.58765 0.54448 0.05305
 C666 C 0.56752 0.55610 0.05431
 C667 C 0.56460 0.58221 0.06811
 C668 C 0.58142 0.59652 0.08012
 H669 H 0.68903 0.61481 0.13991
 H670 H 0.71257 0.64175 0.17011
 H671 H 0.67045 0.71303 0.16766
 H672 H 0.64635 0.68554 0.13943
 H673 H 0.63989 0.66646 0.09533
 H674 H 0.61246 0.63996 0.07145
 H675 H 0.63001 0.56426 0.11603
 H676 H 0.65692 0.59092 0.14108
 H677 H 0.61982 0.54925 0.06441
 H678 H 0.59039 0.52446 0.04250
 H679 H 0.54932 0.59183 0.06930
 H680 H 0.57873 0.61663 0.09058
 C681 C 0.83889 -0.14652 0.14801
 C682 C 0.81946 -0.15402 0.13659
 C683 C 0.80535 -0.17049 0.15201
 C684 C 0.81033 -0.17975 0.17926
 C685 C 0.82964 -0.17189 0.19075
 C686 C 0.84376 -0.15569 0.17530
 C687 C 0.85428 -0.12970 0.13155
 C688 C 0.86726 -0.10986 0.14509
 C689 C 0.88281 -0.09564 0.13019
 C690 C 0.88560 -0.10059 0.10133
 C691 C 0.87219 -0.11954 0.08747
 C692 C 0.85675 -0.13408 0.10245
 C693 C 0.90300 -0.08680 0.08613
 C694 C 0.89978 -0.07347 0.06014
 C695 C 0.91630 -0.06006 0.04626
 C696 C 0.93640 -0.06019 0.05792
 C697 C 0.93962 -0.07395 0.08369
 C698 C 0.92308 -0.08693 0.09772
 H699 H 0.81509 -0.14708 0.11576
 H700 H 0.79070 -0.17634 0.14239
 H701 H 0.83388 -0.17819 0.21184
 H702 H 0.85868 -0.15074 0.18466
 H703 H 0.86548 -0.10538 0.16729
 H704 H 0.89274 -0.08076 0.14126
 H705 H 0.87413 -0.12384 0.06524
 H706 H 0.84723 -0.14942 0.09139
 H707 H 0.88441 -0.07303 0.05083
 H708 H 0.91337 -0.04973 0.02636
 H709 H 0.95490 -0.07434 0.09326
 H710 H 0.92600 -0.09733 0.11758
 C711 C 0.83827 0.34338 0.64098
 C712 C 0.81760 0.35225 0.64422
 C713 C 0.80377 0.33717 0.66137
 C714 C 0.81015 0.31256 0.67619
 C715 C 0.83110 0.30386 0.67228
 C716 C 0.84479 0.31900 0.65515
 C717 C 0.85323 0.35966 0.62338
 C718 C 0.86806 0.34540 0.60681
 C719 C 0.88321 0.36053 0.59202
 C720 C 0.88384 0.39029 0.59331
 C721 C 0.86857 0.40465 0.60902
 C722 C 0.85345 0.38949 0.62395
 C723 C 0.90096 0.40611 0.57939
 C724 C 0.89703 0.43122 0.56449
 C725 C 0.91336 0.44619 0.55184
 C726 C 0.93399 0.43650 0.55410
 C727 C 0.93785 0.41136 0.56902
 C728 C 0.92153 0.39633 0.58143
 H729 H 0.81206 0.37098 0.63348
 H730 H 0.78843 0.34615 0.66375
 H731 H 0.83721 0.28461 0.68126
 H732 H 0.86069 0.31161 0.65324
 H733 H 0.86804 0.32247 0.60541
 H734 H 0.89454 0.34892 0.57966
 H735 H 0.86880 0.42757 0.61059
 H736 H 0.84239 0.40111 0.63674
 H737 H 0.88129 0.43914 0.56243
 H738 H 0.90984 0.46547 0.54050
 H739 H 0.95352 0.40324 0.57117
 H740 H 0.92507 0.37727 0.59310
 C741 C 0.33734 -0.14329 0.64554
 C742 C 0.34256 -0.15276 0.67261
 C743 C 0.32883 -0.16969 0.68795
 C744 C 0.30958 -0.17797 0.67655
 C745 C 0.30427 -0.16845 0.64952
 C746 C 0.31798 -0.15127 0.63421
 C747 C 0.35232 -0.12570 0.62921
 C748 C 0.35481 -0.12964 0.60006
 C749 C 0.37000 -0.11450 0.58522
 C750 C 0.38315 -0.09536 0.59929
 C751 C 0.38028 -0.09076 0.62819
 C752 C 0.36497 -0.10560 0.64294
 C753 C 0.40050 -0.08120 0.58429
 C754 C 0.42053 -0.08122 0.59601
 C755 C 0.43709 -0.06822 0.58205
 C756 C 0.43394 -0.05456 0.55621
 C757 C 0.41386 -0.05440 0.54449
 C758 C 0.39731 -0.06785 0.55831
 H759 H 0.35744 -0.14746 0.68188
 H760 H 0.33332 -0.17619 0.70888
 H761 H 0.28965 -0.17461 0.63999
 H762 H 0.31336 -0.14414 0.61354
 H763 H 0.34552 -0.14515 0.58885
 H764 H 0.37202 -0.11854 0.56296
 H765 H 0.39000 -0.07575 0.63942
 H766 H 0.36314 -0.10145 0.66520
 H767 H 0.42343 -0.09164 0.61587
 H768 H 0.45235 -0.06863 0.59168
 H769 H 0.41098 -0.04412 0.52457
 H770 H 0.38198 -0.06750 0.54890
 C771 C 0.33665 0.35795 0.14627
 C772 C 0.33040 0.36762 0.17295
 C773 C 0.31595 0.35227 0.18877
 C774 C 0.30744 0.32689 0.17828
 C775 C 0.31328 0.31760 0.15129
 C776 C 0.32772 0.33297 0.13545
 C777 C 0.35307 0.37316 0.13033
 C778 C 0.35149 0.37679 0.10110
 C779 C 0.36742 0.39025 0.08610
 C780 C 0.38529 0.40016 0.10002
 C781 C 0.38673 0.39681 0.12928
 C782 C 0.37081 0.38348 0.14426
 C783 C 0.40257 0.41360 0.08418
 C784 C 0.42331 0.40698 0.09066
 C785 C 0.43969 0.42011 0.07645
 C786 C 0.43573 0.44027 0.05543
 C787 C 0.41495 0.44659 0.04861
 C788 C 0.39854 0.43333 0.06281
 H789 H 0.33675 0.38706 0.18162
 H790 H 0.31146 0.36026 0.20926
 H791 H 0.30721 0.29794 0.14277
 H792 H 0.33243 0.32480 0.11512
 H793 H 0.33792 0.36925 0.08984
 H794 H 0.36595 0.39239 0.06354
 H795 H 0.40020 0.40455 0.14063
 H796 H 0.37259 0.38073 0.16671
 H797 H 0.42688 0.39151 0.10671
 H798 H 0.45547 0.41464 0.08219
 H799 H 0.41134 0.46196 0.03248
 H800 H 0.38270 0.43897 0.05750
 C801 C 0.83586 0.13888 -0.14306
 C802 C 0.82494 0.16130 -0.13028
 C803 C 0.81019 0.17674 -0.14541
 C804 C 0.80602 0.17013 -0.17370
 C805 C 0.81653 0.14720 -0.18623
 C806 C 0.83125 0.13175 -0.17109
 C807 C 0.85260 0.12379 -0.12765
 C808 C 0.87123 0.11654 -0.14142
 C809 C 0.88732 0.10325 -0.12687
 C810 C 0.88523 0.09692 -0.09816
 C811 C 0.86651 0.10384 -0.08442
 C812 C 0.85038 0.11717 -0.09900
 C813 C 0.90265 0.08344 -0.08268
 C814 C 0.89886 0.06198 -0.06286
 C815 C 0.91539 0.04885 -0.04895
 C816 C 0.93608 0.05690 -0.05454
 C817 C 0.93981 0.07868 -0.07404
 C818 C 0.92330 0.09178 -0.08790
 H819 H 0.82823 0.16748 -0.10880
 H820 H 0.80217 0.19404 -0.13503
 H821 H 0.81385 0.14170 -0.20804
 H822 H 0.83918 0.11435 -0.18143
 H823 H 0.87355 0.12165 -0.16338
 H824 H 0.90142 0.09784 -0.13817
 H825 H 0.86448 0.09943 -0.06227
 H826 H 0.83615 0.12224 -0.08786
 H827 H 0.88314 0.05491 -0.05856
 H828 H 0.91195 0.03213 -0.03409
 H829 H 0.95551 0.08558 -0.07874
 H830 H 0.92672 0.10861 -0.10265
 C831 C 0.83368 0.64406 0.36136
 C832 C 0.82925 0.63523 0.33377
 C833 C 0.81500 0.65018 0.31734
 C834 C 0.80479 0.67421 0.32819
 C835 C 0.80877 0.68247 0.35611
 C836 C 0.82309 0.66762 0.37246
 C837 C 0.84992 0.62949 0.37807
 C838 C 0.86453 0.64537 0.39347
 C839 C 0.88046 0.63185 0.40816
 C840 C 0.88207 0.60213 0.40792
 C841 C 0.86723 0.58619 0.39297
 C842 C 0.85137 0.59974 0.37808
 C843 C 0.89953 0.58789 0.42250
 C844 C 0.89611 0.56332 0.43850
 C845 C 0.91271 0.54965 0.45169
 C846 C 0.93313 0.56012 0.44894
 C847 C 0.93650 0.58481 0.43307
 C848 C 0.91988 0.59858 0.42009
 H849 H 0.83736 0.61735 0.32455
 H850 H 0.81252 0.64347 0.29582
 H851 H 0.80086 0.70052 0.36531
 H852 H 0.82594 0.67461 0.39382
 H853 H 0.86393 0.66833 0.39362
 H854 H 0.89157 0.64464 0.41970
 H855 H 0.86819 0.56327 0.39224
 H856 H 0.84024 0.58697 0.36656
 H857 H 0.88055 0.55477 0.44091
 H858 H 0.90956 0.53066 0.46375
 H859 H 0.95200 0.59348 0.43055
 H860 H 0.92301 0.61731 0.40765
 C861 C 0.33616 0.14514 0.35333
 C862 C 0.32758 0.16997 0.36463
 C863 C 0.31310 0.18577 0.34945
 C864 C 0.30659 0.17734 0.32216
 C865 C 0.31502 0.15163 0.31151
 C866 C 0.32953 0.13598 0.32679
 C867 C 0.35256 0.12944 0.36871
 C868 C 0.37004 0.11897 0.35427
 C869 C 0.38593 0.10518 0.36874
 C870 C 0.38472 0.10151 0.39799
 C871 C 0.36709 0.11157 0.41241
 C872 C 0.35119 0.12546 0.39792
 C873 C 0.40199 0.08765 0.41334
 C874 C 0.39792 0.06805 0.43486
 C875 C 0.41430 0.05462 0.44881
 C876 C 0.43509 0.06060 0.44158
 C877 C 0.43910 0.08051 0.42031
 C878 C 0.42275 0.09385 0.40636
 H879 H 0.33236 0.17756 0.38514
 H880 H 0.30670 0.20405 0.36007
 H881 H 0.31169 0.14391 0.29061
 H882 H 0.33578 0.11674 0.31759
 H883 H 0.37166 0.12198 0.33182
 H884 H 0.39919 0.09733 0.35701
 H885 H 0.36579 0.10921 0.43498
 H886 H 0.33781 0.13306 0.40957
 H887 H 0.38207 0.06268 0.44054
 H888 H 0.41064 0.03940 0.46509
 H889 H 0.45490 0.08575 0.41426
 H890 H 0.42637 0.10922 0.39020
 C891 C 0.33536 0.64427 -0.14144
 C892 C 0.32493 0.66801 -0.13044
 C893 C 0.31063 0.68287 -0.14682
 C894 C 0.30651 0.67445 -0.17465
 C895 C 0.31656 0.65024 -0.18539
 C896 C 0.33080 0.63528 -0.16894
 C897 C 0.35159 0.62968 -0.12472
 C898 C 0.35290 0.59993 -0.12447
 C899 C 0.36875 0.58637 -0.10957
 C900 C 0.38371 0.60231 -0.09484
 C901 C 0.38223 0.63203 -0.09483
 C902 C 0.36632 0.64557 -0.10953
 C903 C 0.40117 0.58806 -0.08027
 C904 C 0.42155 0.59858 -0.08296
 C905 C 0.43816 0.58484 -0.06995
 C906 C 0.43477 0.56036 -0.05378
 C907 C 0.41433 0.55005 -0.05077
 C908 C 0.39772 0.56369 -0.06400
 H909 H 0.32788 0.67512 -0.10915
 H910 H 0.30284 0.70106 -0.13769
 H911 H 0.31397 0.64340 -0.20685
 H912 H 0.33879 0.61725 -0.17808
 H913 H 0.34167 0.58716 -0.13583
 H914 H 0.36961 0.56343 -0.11011
 H915 H 0.39344 0.64483 -0.08346
 H916 H 0.36582 0.66853 -0.10956
 H917 H 0.42470 0.61715 -0.09562
 H918 H 0.45369 0.59338 -0.07268
 H919 H 0.41117 0.53122 -0.03848
 H920 H 0.38214 0.55527 -0.06138
 C921 C 1.16433 -0.15015 -0.14317
 C922 C 1.15872 -0.17539 -0.15708
 C923 C 1.17341 -0.19073 -0.17247
 C924 C 1.19406 -0.18114 -0.17454
 C925 C 1.19971 -0.15581 -0.16087
 C926 C 1.18501 -0.14051 -0.14526
 C927 C 1.14850 -0.13398 -0.12686
 C928 C 1.14817 -0.10414 -0.12729
 C929 C 1.13256 -0.08915 -0.11308
 C930 C 1.11689 -0.10370 -0.09837
 C931 C 1.11747 -0.13345 -0.09741
 C932 C 1.13313 -0.14840 -0.11137
 C933 C 1.09961 -0.08810 -0.08465
 C934 C 1.07901 -0.09754 -0.08794
 C935 C 1.06263 -0.08326 -0.07483
 C936 C 1.06647 -0.05931 -0.05792
 C937 C 1.08709 -0.04976 -0.05474
 C938 C 1.10349 -0.06392 -0.06813
 H939 H 1.14284 -0.18308 -0.15651
 H940 H 1.16851 -0.20987 -0.18325
 H941 H 1.21557 -0.14806 -0.16195
 H942 H 1.18990 -0.12134 -0.13454
 H943 H 1.15961 -0.09238 -0.13927
 H944 H 1.13237 -0.06621 -0.11430
 H945 H 1.10579 -0.14516 -0.08578
 H946 H 1.13320 -0.17133 -0.11003
 H947 H 1.07557 -0.11592 -0.10084
 H948 H 1.04696 -0.09122 -0.07773
 H949 H 1.09059 -0.03140 -0.04184
 H950 H 1.11925 -0.05631 -0.06515
 C951 C 1.16206 0.35277 0.35645
 C952 C 1.18236 0.36343 0.35287
 C953 C 1.19720 0.34798 0.33768
 C954 C 1.19209 0.32146 0.32603
 C955 C 1.17188 0.31074 0.32973
 C956 C 1.15702 0.32626 0.34464
 C957 C 1.14603 0.36927 0.37205
 C958 C 1.13123 0.35526 0.38885
 C959 C 1.11539 0.37044 0.40219
 C960 C 1.11412 0.40000 0.39932
 C961 C 1.12922 0.41421 0.38328
 C962 C 1.14496 0.39898 0.36964
 C963 C 1.09676 0.41574 0.41258
 C964 C 1.10049 0.44057 0.42816
 C965 C 1.08406 0.45467 0.44152
 C966 C 1.06357 0.44439 0.43915
 C967 C 1.05985 0.41990 0.42298
 C968 C 1.07629 0.40565 0.40998
 H969 H 1.18685 0.38358 0.36201
 H970 H 1.21273 0.35660 0.33529
 H971 H 1.16742 0.29059 0.32051
 H972 H 1.14143 0.31769 0.34639
 H973 H 1.13187 0.33251 0.39173
 H974 H 1.10413 0.35907 0.41486
 H975 H 1.12847 0.43700 0.38063
 H976 H 1.15593 0.41041 0.35659
 H977 H 1.11617 0.44869 0.43054
 H978 H 1.08741 0.47350 0.45379
 H979 H 1.04427 0.41138 0.42079
 H980 H 1.07300 0.38672 0.39780
 C981 C 0.66218 -0.14968 0.35658
 C982 C 0.68289 -0.14011 0.35474
 C983 C 0.69769 -0.15550 0.33938
 C984 C 0.69209 -0.18085 0.32569
 C985 C 0.67141 -0.19035 0.32749
 C986 C 0.65663 -0.17493 0.34266
 C987 C 0.64627 -0.13341 0.37266
 C988 C 0.63083 -0.14773 0.38811
 C989 C 0.61517 -0.13267 0.40198
 C990 C 0.61465 -0.10291 0.40094
 C991 C 0.63038 -0.08848 0.38620
 C992 C 0.64599 -0.10358 0.37212
 C993 C 0.59742 -0.08716 0.41465
 C994 C 0.60137 -0.06273 0.43076
 C995 C 0.58504 -0.04832 0.44402
 C996 C 0.56440 -0.05789 0.44115
 C997 C 0.56048 -0.08214 0.42470
 C998 C 0.57681 -0.09665 0.41170
 H999 H 0.68774 -0.12094 0.36549
 H1000 H 0.71356 -0.14781 0.33853
 H1001 H 0.66655 -0.20950 0.31669
 H1002 H 0.64074 -0.18257 0.34306
 H1003 H 0.63085 -0.17065 0.38953
 H1004 H 0.60346 -0.14430 0.41362
 H1005 H 0.63024 -0.06555 0.38488
 H1006 H 0.65749 -0.09190 0.36016
 H1007 H 0.61714 -0.05506 0.43350
 H1008 H 0.58859 -0.02969 0.45652
 H1009 H 0.54479 -0.09012 0.42205
 H1010 H 0.57329 -0.11523 0.39910
 C1011 C 0.66264 0.35086 -0.14591
 C1012 C 0.68336 0.36046 -0.14760
 C1013 C 0.69832 0.34480 -0.16240
 C1014 C 0.69290 0.31913 -0.17559
 C1015 C 0.67222 0.30961 -0.17397
 C1016 C 0.65727 0.32532 -0.15944
 C1017 C 0.64656 0.36731 -0.13031
 C1018 C 0.63093 0.35317 -0.11506
 C1019 C 0.61516 0.36838 -0.10158
 C1020 C 0.61475 0.39812 -0.10276
 C1021 C 0.63065 0.41241 -0.11730
 C1022 C 0.64635 0.39716 -0.13104
 C1023 C 0.59753 0.41400 -0.08922
 C1024 C 0.60155 0.43805 -0.07258
 C1025 C 0.58524 0.45228 -0.05907
 C1026 C 0.56456 0.44294 -0.06225
 C1027 C 0.56057 0.41921 -0.07939
 C1028 C 0.57687 0.40484 -0.09261
 H1029 H 0.68809 0.37986 -0.13716
 H1030 H 0.71419 0.35252 -0.16317
 H1031 H 0.66751 0.29019 -0.18443
 H1032 H 0.64138 0.31762 -0.15919
 H1033 H 0.63088 0.33027 -0.11346
 H1034 H 0.60331 0.35687 -0.09008
 H1035 H 0.63059 0.43533 -0.11867
 H1036 H 0.65799 0.40872 -0.14286
 H1037 H 0.61735 0.44544 -0.06952
 H1038 H 0.58885 0.47047 -0.04601
 H1039 H 0.54485 0.41142 -0.08230
 H1040 H 0.57333 0.38656 -0.10561
 C1041 C 1.16483 0.14682 -0.14106
 C1042 C 1.18434 0.13553 -0.14831
 C1043 C 1.19861 0.15143 -0.16403
 C1044 C 1.19391 0.17933 -0.17273
 C1045 C 1.17429 0.19049 -0.16510
 C1046 C 1.16001 0.17445 -0.14975
 C1047 C 1.14931 0.12986 -0.12497
 C1048 C 1.13600 0.14318 -0.10548
 C1049 C 1.12036 0.12785 -0.09191
 C1050 C 1.11783 0.09875 -0.09717
 C1051 C 1.13155 0.08507 -0.11576
 C1052 C 1.14707 0.10051 -0.12967
 C1053 C 1.10038 0.08309 -0.08402
 C1054 C 1.10369 0.05702 -0.07057
 C1055 C 1.08714 0.04285 -0.05752
 C1056 C 1.06693 0.05427 -0.05818
 C1057 C 1.06364 0.08009 -0.07216
 C1058 C 1.08020 0.09442 -0.08476
 H1059 H 1.18874 0.11449 -0.14151
 H1060 H 1.21361 0.14197 -0.16830
 H1061 H 1.16926 0.21115 -0.17213
 H1062 H 1.14490 0.18357 -0.14534
 H1063 H 1.13760 0.16556 -0.10076
 H1064 H 1.11017 0.13875 -0.07730
 H1065 H 1.12980 0.06266 -0.12026
 H1066 H 1.15685 0.08960 -0.14476
 H1067 H 1.11914 0.04793 -0.06968
 H1068 H 1.09015 0.02298 -0.04695
 H1069 H 1.04829 0.08951 -0.07296
 H1070 H 1.07723 0.11435 -0.09526
 C1071 C 1.16247 0.64810 0.35929
 C1072 C 1.18313 0.63846 0.35728
 C1073 C 1.19793 0.65374 0.34185
 C1074 C 1.19239 0.67905 0.32827
 C1075 C 1.17175 0.68862 0.33025
 C1076 C 1.15697 0.67331 0.34548
 C1077 C 1.14655 0.63196 0.37541
 C1078 C 1.13125 0.64639 0.39104
 C1079 C 1.11551 0.63146 0.40484
 C1080 C 1.11476 0.60171 0.40354
 C1081 C 1.13036 0.58715 0.38866
 C1082 C 1.14606 0.60212 0.37465
 C1083 C 1.09739 0.58613 0.41708
 C1084 C 1.10111 0.56165 0.43304
 C1085 C 1.08464 0.54745 0.44620
 C1086 C 1.06408 0.55728 0.44338
 C1087 C 1.06040 0.58154 0.42705
 C1088 C 1.07686 0.59585 0.41415
 H1089 H 1.18793 0.61931 0.36792
 H1090 H 1.21377 0.64600 0.34085
 H1091 H 1.16691 0.70772 0.31952
 H1092 H 1.14111 0.68100 0.34602
 H1093 H 1.13144 0.66931 0.39262
 H1094 H 1.10390 0.64319 0.41660
 H1095 H 1.13004 0.56422 0.38716
 H1096 H 1.15745 0.59036 0.36256
 H1097 H 1.11681 0.55380 0.43575
 H1098 H 1.08802 0.52882 0.45862
 H1099 H 1.04478 0.58972 0.42442
 H1100 H 1.07352 0.61445 0.40166
 C1101 C 0.66703 0.14173 0.35614
 C1102 C 0.67610 0.16620 0.36783
 C1103 C 0.69061 0.18201 0.35254
 C1104 C 0.69629 0.17381 0.32514
 C1105 C 0.68762 0.14888 0.31377
 C1106 C 0.67319 0.13298 0.32914
 C1107 C 0.65044 0.12622 0.37146
 C1108 C 0.65001 0.09640 0.37185
 C1109 C 0.63380 0.08197 0.38533
 C1110 C 0.61760 0.09708 0.39840
 C1111 C 0.61818 0.12687 0.39827
 C1112 C 0.63444 0.14128 0.38502
 C1113 C 0.59990 0.08199 0.41172
 C1114 C 0.57944 0.09135 0.40728
 C1115 C 0.56270 0.07776 0.42029
 C1116 C 0.56604 0.05458 0.43823
 C1117 C 0.58652 0.04498 0.44242
 C1118 C 0.60328 0.05847 0.42918
 H1119 H 0.67188 0.17318 0.38878
 H1120 H 0.69730 0.20077 0.36214
 H1121 H 0.69140 0.14217 0.29258
 H1122 H 0.66627 0.11440 0.31947
 H1123 H 0.66222 0.08428 0.36171
 H1124 H 0.63367 0.05899 0.38501
 H1125 H 0.60602 0.13905 0.40845
 H1126 H 0.63424 0.16425 0.38481
 H1127 H 0.57637 0.10919 0.39362
 H1128 H 0.54716 0.08572 0.41657
 H1129 H 0.58964 0.02716 0.45607
 H1130 H 0.61891 0.05092 0.43306
 C1131 C 0.66243 0.64299 -0.15091
 C1132 C 0.68262 0.63298 -0.15596
 C1133 C 0.69715 0.64988 -0.17014
 C1134 C 0.69196 0.67755 -0.17912
 C1135 C 0.67163 0.68744 -0.17339
 C1136 C 0.65711 0.67035 -0.15969
 C1137 C 0.64671 0.62512 -0.13669
 C1138 C 0.62668 0.62252 -0.14809
 C1139 C 0.61125 0.60745 -0.13385
 C1140 C 0.61541 0.59496 -0.10766
 C1141 C 0.63569 0.59684 -0.09667
 C1142 C 0.65123 0.61167 -0.11115
 C1143 C 0.59838 0.58107 -0.09155
 C1144 C 0.60203 0.55654 -0.07556
 C1145 C 0.58583 0.54373 -0.06051
 C1146 C 0.56561 0.55506 -0.06135
 C1147 C 0.56202 0.57963 -0.07720
 C1148 C 0.57821 0.59256 -0.09195
 H1149 H 0.68708 0.61192 -0.14925
 H1150 H 0.71263 0.64139 -0.17308
 H1151 H 0.66636 0.70794 -0.18058
 H1152 H 0.64162 0.67857 -0.15593
 H1153 H 0.62294 0.63232 -0.16800
 H1154 H 0.59599 0.60578 -0.14331
 H1155 H 0.63937 0.58769 -0.07645
 H1156 H 0.66657 0.61354 -0.10190
 H1157 H 0.61734 0.54699 -0.07500
 H1158 H 0.58908 0.52477 -0.04853
 H1159 H 0.54670 0.58912 -0.07803
 H1160 H 0.57492 0.61182 -0.10343
 C1161 C 0.83596 -0.14279 -0.14371
 C1162 C 0.83351 -0.13774 -0.17261
 C1163 C 0.81871 -0.15274 -0.18816
 C1164 C 0.80590 -0.17304 -0.17516
 C1165 C 0.80796 -0.17755 -0.14609
 C1166 C 0.82284 -0.16260 -0.13055
 C1167 C 0.85271 -0.12826 -0.12769
 C1168 C 0.84936 -0.11881 -0.09999
 C1169 C 0.86539 -0.10574 -0.08486
 C1170 C 0.88512 -0.10191 -0.09712
 C1171 C 0.88838 -0.11114 -0.12489
 C1172 C 0.87240 -0.12422 -0.13995
 C1173 C 0.90236 -0.08846 -0.08114
 C1174 C 0.92275 -0.09885 -0.08378
 C1175 C 0.93921 -0.08553 -0.06992
 C1176 C 0.93568 -0.06155 -0.05295
 C1177 C 0.91520 -0.05155 -0.04971
 C1178 C 0.89871 -0.06485 -0.06370
 H1179 H 0.84317 -0.12231 -0.18330
 H1180 H 0.81771 -0.14895 -0.21054
 H1181 H 0.79814 -0.19277 -0.13538
 H1182 H 0.82444 -0.16714 -0.10837
 H1183 H 0.83430 -0.12138 -0.09005
 H1184 H 0.86245 -0.09904 -0.06343
 H1185 H 0.90329 -0.10812 -0.13509
 H1186 H 0.87560 -0.13160 -0.16109
 H1187 H 0.92601 -0.11735 -0.09658
 H1188 H 0.95475 -0.09398 -0.07267
 H1189 H 0.91195 -0.03309 -0.03682
 H1190 H 0.88320 -0.05620 -0.06143
 C1191 C 0.83235 0.36092 0.35486
 C1192 C 0.82725 0.36838 0.32713
 C1193 C 0.81283 0.35241 0.31181
 C1194 C 0.80316 0.32860 0.32387
 C1195 C 0.80776 0.32168 0.35190
 C1196 C 0.82218 0.33765 0.36721
 C1197 C 0.84893 0.37643 0.37033
 C1198 C 0.84695 0.38225 0.39922
 C1199 C 0.86309 0.39562 0.41390
 C1200 C 0.88157 0.40335 0.40003
 C1201 C 0.88338 0.39794 0.37106
 C1202 C 0.86728 0.38463 0.35640
 C1203 C 0.89912 0.41650 0.41567
 C1204 C 0.91971 0.40835 0.40984
 C1205 C 0.93634 0.42101 0.42398
 C1206 C 0.93281 0.44214 0.44436
 C1207 C 0.91218 0.45004 0.45050
 C1208 C 0.89552 0.43733 0.43632
 H1209 H 0.83460 0.38642 0.31715
 H1210 H 0.80978 0.35818 0.29021
 H1211 H 0.80036 0.30369 0.36191
 H1212 H 0.82587 0.33120 0.38845
 H1213 H 0.83293 0.37643 0.41048
 H1214 H 0.86129 0.39935 0.43625
 H1215 H 0.89730 0.40400 0.35969
 H1216 H 0.86941 0.38016 0.33425
 H1217 H 0.92298 0.39200 0.39442
 H1218 H 0.95199 0.41426 0.41881
 H1219 H 0.90889 0.46627 0.46603
 H1220 H 0.87983 0.44421 0.44111
 C1221 C 0.33284 -0.14097 0.35796
 C1222 C 0.32456 -0.13070 0.33277
 C1223 C 0.31020 -0.14674 0.31740
 C1224 C 0.30376 -0.17404 0.32649
 C1225 C 0.31186 -0.18359 0.35254
 C1226 C 0.32606 -0.16733 0.36790
 C1227 C 0.34923 -0.12490 0.37315
 C1228 C 0.34883 -0.12251 0.40261
 C1229 C 0.36493 -0.10860 0.41688
 C1230 C 0.38182 -0.09707 0.40197
 C1231 C 0.38203 -0.09909 0.37251
 C1232 C 0.36589 -0.11278 0.35825
 C1233 C 0.39948 -0.08361 0.41702
 C1234 C 0.42003 -0.08962 0.40892
 C1235 C 0.43676 -0.07675 0.42264
 C1236 C 0.43335 -0.05739 0.44471
 C1237 C 0.41276 -0.05153 0.45299
 C1238 C 0.39600 -0.06463 0.43937
 H1239 H 0.32944 -0.11029 0.32468
 H1240 H 0.30548 -0.13799 0.29747
 H1241 H 0.30692 -0.20325 0.36205
 H1242 H 0.33212 -0.17576 0.38739
 H1243 H 0.33609 -0.13148 0.41460
 H1244 H 0.36442 -0.10746 0.43961
 H1245 H 0.39475 -0.09012 0.36047
 H1246 H 0.36672 -0.11453 0.33558
 H1247 H 0.42318 -0.10448 0.39203
 H1248 H 0.45239 -0.08179 0.41570
 H1249 H 0.40956 -0.03669 0.46987
 H1250 H 0.38030 -0.05949 0.44593
 C1251 C 0.33240 0.36232 -0.14449
 C1252 C 0.32201 0.33937 -0.13191
 C1253 C 0.30750 0.32342 -0.14710
 C1254 C 0.30303 0.33006 -0.17524
 C1255 C 0.31291 0.35359 -0.18753
 C1256 C 0.32742 0.36953 -0.17233
 C1257 C 0.34911 0.37770 -0.12915
 C1258 C 0.36757 0.38536 -0.14311
 C1259 C 0.38381 0.39847 -0.12855
 C1260 C 0.38203 0.40422 -0.09964
 C1261 C 0.36343 0.39707 -0.08574
 C1262 C 0.34716 0.38390 -0.10033
 C1263 C 0.39972 0.41711 -0.08409
 C1264 C 0.39638 0.43831 -0.06374
 C1265 C 0.41321 0.45086 -0.04976
 C1266 C 0.43373 0.44242 -0.05583
 C1267 C 0.43699 0.42087 -0.07585
 C1268 C 0.42020 0.40838 -0.08978
 H1269 H 0.32560 0.33312 -0.11058
 H1270 H 0.29994 0.30567 -0.13691
 H1271 H 0.30995 0.35914 -0.20922
 H1272 H 0.33495 0.38733 -0.18249
 H1273 H 0.36968 0.38060 -0.16521
 H1274 H 0.39782 0.40408 -0.13994
 H1275 H 0.36164 0.40108 -0.06344
 H1276 H 0.33305 0.37850 -0.08905
 H1277 H 0.38079 0.44563 -0.05905
 H1278 H 0.41013 0.46742 -0.03449
 H1279 H 0.45255 0.41370 -0.08095
 H1280 H 0.42326 0.39172 -0.10496
 C1281 C 1.16473 -0.15209 0.13987
 C1282 C 1.15977 -0.17984 0.14837
 C1283 C 1.17361 -0.19553 0.16464
 C1284 C 1.19270 -0.18381 0.17328
 C1285 C 1.19786 -0.15623 0.16443
 C1286 C 1.18407 -0.14060 0.14784
 C1287 C 1.14941 -0.13508 0.12359
 C1288 C 1.14716 -0.10576 0.12848
 C1289 C 1.13173 -0.09028 0.11462
 C1290 C 1.11808 -0.10386 0.09591
 C1291 C 1.12061 -0.13291 0.09045
 C1292 C 1.13620 -0.14830 0.10393
 C1293 C 1.10065 -0.08815 0.08299
 C1294 C 1.08039 -0.09928 0.08417
 C1295 C 1.06380 -0.08470 0.07208
 C1296 C 1.06715 -0.05885 0.05813
 C1297 C 1.08746 -0.04771 0.05691
 C1298 C 1.10403 -0.06209 0.06949
 H1299 H 1.14493 -0.18931 0.14304
 H1300 H 1.16926 -0.21689 0.17057
 H1301 H 1.21234 -0.14642 0.17086
 H1302 H 1.18855 -0.11946 0.14137
 H1303 H 1.15682 -0.09492 0.14373
 H1304 H 1.12997 -0.06791 0.11929
 H1305 H 1.11045 -0.14374 0.07576
 H1306 H 1.13779 -0.17064 0.09906
 H1307 H 1.07739 -0.11922 0.09470
 H1308 H 1.04838 -0.09394 0.07327
 H1309 H 1.09053 -0.02787 0.04628
 H1310 H 1.11954 -0.05316 0.06826
 C1311 C 1.16245 0.34759 0.63809
 C1312 C 1.15788 0.31965 0.64636
 C1313 C 1.17184 0.30429 0.66277
 C1314 C 1.19065 0.31655 0.67179
 C1315 C 1.19541 0.34434 0.66320
 C1316 C 1.18152 0.35963 0.64646
 C1317 C 1.14704 0.36424 0.62163
 C1318 C 1.14432 0.39346 0.62661
 C1319 C 1.12889 0.40863 0.61246
 C1320 C 1.11567 0.39483 0.59335
 C1321 C 1.11862 0.36586 0.58785
 C1322 C 1.13423 0.35078 0.60164
 C1323 C 1.09826 0.41026 0.58004
 C1324 C 1.07811 0.39873 0.58059
 C1325 C 1.06151 0.41329 0.56850
 C1326 C 1.06475 0.43952 0.55520
 C1327 C 1.08498 0.45094 0.55444
 C1328 C 1.10155 0.43658 0.56702
 H1329 H 1.14325 0.30975 0.64071
 H1330 H 1.16779 0.28277 0.66849
 H1331 H 1.20966 0.35458 0.66992
 H1332 H 1.18572 0.38093 0.64016
 H1333 H 1.15364 0.40447 0.64213
 H1334 H 1.12678 0.43093 0.61720
 H1335 H 1.10878 0.35486 0.57288
 H1336 H 1.13618 0.32851 0.59671
 H1337 H 1.07517 0.37858 0.59074
 H1338 H 1.04615 0.40383 0.56931
 H1339 H 1.08798 0.47105 0.54429
 H1340 H 1.11699 0.44581 0.56625
 C1341 C 0.66058 -0.14249 0.64783
 C1342 C 0.68092 -0.14667 0.63768
 C1343 C 0.69516 -0.16292 0.65292
 C1344 C 0.68936 -0.17516 0.67866
 C1345 C 0.66898 -0.17124 0.68861
 C1346 C 0.65475 -0.15518 0.67336
 C1347 C 0.64535 -0.12510 0.63201
 C1348 C 0.63138 -0.10732 0.64645
 C1349 C 0.61617 -0.09228 0.63189
 C1350 C 0.61467 -0.09448 0.60254
 C1351 C 0.62904 -0.11146 0.58793
 C1352 C 0.64421 -0.12670 0.60253
 C1353 C 0.59758 -0.08002 0.58745
 C1354 C 0.60137 -0.06539 0.56228
 C1355 C 0.58506 -0.05206 0.54809
 C1356 C 0.56462 -0.05341 0.55866
 C1357 C 0.56090 -0.06810 0.58384
 C1358 C 0.57721 -0.08116 0.59810
 H1359 H 0.68595 -0.13696 0.61822
 H1360 H 0.71084 -0.16540 0.64489
 H1361 H 0.66396 -0.18088 0.70812
 H1362 H 0.63907 -0.15297 0.68144
 H1363 H 0.63216 -0.10508 0.66908
 H1364 H 0.60551 -0.07894 0.64361
 H1365 H 0.62809 -0.11371 0.56530
 H1366 H 0.65460 -0.14041 0.59081
 H1367 H 0.61697 -0.06406 0.55373
 H1368 H 0.58843 -0.04094 0.52872
 H1369 H 0.54537 -0.06952 0.59259
 H1370 H 0.57382 -0.09259 0.61729
 C1371 C 0.66346 0.34840 0.13701
 C1372 C 0.65856 0.32060 0.14542
 C1373 C 0.67234 0.30501 0.16190
 C1374 C 0.69130 0.31690 0.17083
 C1375 C 0.69635 0.34458 0.16218
 C1376 C 0.68264 0.36009 0.14537
 C1377 C 0.64829 0.36523 0.12031
 C1378 C 0.64590 0.39456 0.12501
 C1379 C 0.63066 0.40992 0.11066
 C1380 C 0.61733 0.39621 0.09163
 C1381 C 0.61999 0.36714 0.08637
 C1382 C 0.63541 0.35187 0.10035
 C1383 C 0.60000 0.41177 0.07831
 C1384 C 0.57976 0.40060 0.07932
 C1385 C 0.56320 0.41522 0.06720
 C1386 C 0.56657 0.44116 0.05341
 C1387 C 0.58689 0.45224 0.05219
 C1388 C 0.60343 0.43781 0.06481
 H1389 H 0.64383 0.31098 0.13980
 H1390 H 0.66806 0.28359 0.16767
 H1391 H 0.71071 0.35455 0.16885
 H1392 H 0.68709 0.38126 0.13899
 H1393 H 0.65530 0.40552 0.14048
 H1394 H 0.62877 0.43230 0.11520
 H1395 H 0.61006 0.35620 0.07148
 H1396 H 0.63712 0.32952 0.09562
 H1397 H 0.57671 0.38067 0.08983
 H1398 H 0.54777 0.40601 0.06838
 H1399 H 0.58998 0.47211 0.04164
 H1400 H 0.61894 0.44676 0.06371
 C1401 C 0.84076 0.15241 0.14256
 C1402 C 0.84586 0.16195 0.16965
 C1403 C 0.83132 0.17667 0.18587
 C1404 C 0.81138 0.18261 0.17525
 C1405 C 0.80620 0.17268 0.14820
 C1406 C 0.82071 0.15757 0.13209
 C1407 C 0.85656 0.13746 0.12537
 C1408 C 0.85182 0.11177 0.11178
 C1409 C 0.86730 0.09684 0.09721
 C1410 C 0.88775 0.10751 0.09573
 C1411 C 0.89217 0.13379 0.10849
 C1412 C 0.87680 0.14847 0.12329
 C1413 C 0.90466 0.09102 0.08185
 C1414 C 0.92483 0.09114 0.09325
 C1415 C 0.94089 0.07609 0.08032
 C1416 C 0.93718 0.06018 0.05584
 C1417 C 0.91698 0.05962 0.04455
 C1418 C 0.90090 0.07499 0.05736
 H1419 H 0.86110 0.15778 0.17839
 H1420 H 0.83571 0.18325 0.20686
 H1421 H 0.79110 0.17712 0.13921
 H1422 H 0.81647 0.15054 0.11117
 H1423 H 0.83633 0.10279 0.11323
 H1424 H 0.86340 0.07654 0.08788
 H1425 H 0.90757 0.14305 0.10714
 H1426 H 0.88073 0.16850 0.13318
 H1427 H 0.92821 0.10263 0.11245
 H1428 H 0.95621 0.07669 0.08976
 H1429 H 0.91368 0.04767 0.02558
 H1430 H 0.88561 0.07466 0.04784
 C1431 C 0.83916 0.65121 0.64653
 C1432 C 0.84420 0.66090 0.67360
 C1433 C 0.82975 0.67614 0.68948
 C1434 C 0.80997 0.68239 0.67854
 C1435 C 0.80482 0.67229 0.65155
 C1436 C 0.81925 0.65670 0.63576
 C1437 C 0.85491 0.63586 0.62961
 C1438 C 0.84990 0.61039 0.61577
 C1439 C 0.86525 0.59522 0.60122
 C1440 C 0.88583 0.60540 0.60004
 C1441 C 0.89056 0.63141 0.61313
 C1442 C 0.87531 0.64635 0.62788
 C1443 C 0.90254 0.58877 0.58594
 C1444 C 0.92265 0.58813 0.59748
 C1445 C 0.93861 0.57322 0.58415
 C1446 C 0.93482 0.55825 0.55911
 C1447 C 0.91463 0.55835 0.54776
 C1448 C 0.89866 0.57356 0.56099
 H1449 H 0.85933 0.65648 0.68257
 H1450 H 0.83407 0.68290 0.71044
 H1451 H 0.78983 0.67697 0.64234
 H1452 H 0.81507 0.64958 0.61485
 H1453 H 0.83428 0.60181 0.61695
 H1454 H 0.86112 0.57514 0.59160
 H1455 H 0.90609 0.64027 0.61202
 H1456 H 0.87946 0.66621 0.63795
 H1457 H 0.92608 0.59898 0.61702
 H1458 H 0.95392 0.57327 0.59364
 H1459 H 0.91127 0.54712 0.52839
 H1460 H 0.88340 0.57383 0.55140
 C1461 C 0.33941 0.15391 0.64291
 C1462 C 0.34491 0.16344 0.66986
 C1463 C 0.33047 0.17758 0.68673
 C1464 C 0.31022 0.18295 0.67692
 C1465 C 0.30462 0.17296 0.65004
 C1466 C 0.31905 0.15842 0.63328
 C1467 C 0.35513 0.13974 0.62495
 C1468 C 0.35067 0.11392 0.61142
 C1469 C 0.36614 0.09974 0.59610
 C1470 C 0.38628 0.11131 0.59376
 C1471 C 0.39037 0.13774 0.60644
 C1472 C 0.37503 0.15166 0.62200
 C1473 C 0.40325 0.09554 0.57919
 C1474 C 0.42365 0.09652 0.58979
 C1475 C 0.43971 0.08181 0.57645
 C1476 C 0.43578 0.06538 0.55235
 C1477 C 0.41538 0.06414 0.54176
 C1478 C 0.39930 0.07916 0.55498
 H1479 H 0.36042 0.15976 0.67795
 H1480 H 0.33520 0.18423 0.70757
 H1481 H 0.28927 0.17698 0.64164
 H1482 H 0.31449 0.15137 0.61249
 H1483 H 0.33544 0.10426 0.61351
 H1484 H 0.36249 0.07932 0.58687
 H1485 H 0.40550 0.14768 0.60446
 H1486 H 0.37873 0.17181 0.63183
 H1487 H 0.42722 0.10830 0.60875
 H1488 H 0.45518 0.08295 0.58537
 H1489 H 0.41189 0.05178 0.52313
 H1490 H 0.38383 0.07819 0.54606
 C1491 C 0.34047 0.64898 0.14751
 C1492 C 0.34542 0.65757 0.17496
 C1493 C 0.33093 0.67220 0.19135
 C1494 C 0.31120 0.67901 0.18055
 C1495 C 0.30612 0.66993 0.15318
 C1496 C 0.32058 0.65490 0.13688
 C1497 C 0.35631 0.63442 0.13001
 C1498 C 0.35148 0.60938 0.11533
 C1499 C 0.36691 0.59494 0.10019
 C1500 C 0.38742 0.60548 0.09918
 C1501 C 0.39194 0.63111 0.11314
 C1502 C 0.37662 0.64527 0.12852
 C1503 C 0.40422 0.58958 0.08438
 C1504 C 0.42449 0.58919 0.09548
 C1505 C 0.44046 0.57473 0.08166
 C1506 C 0.43655 0.55991 0.05657
 C1507 C 0.41626 0.55986 0.04557
 C1508 C 0.40028 0.57466 0.05927
 H1509 H 0.36053 0.65280 0.18381
 H1510 H 0.33522 0.67813 0.21256
 H1511 H 0.29118 0.67505 0.14404
 H1512 H 0.31645 0.64861 0.11570
 H1513 H 0.33592 0.60053 0.11629
 H1514 H 0.36290 0.57514 0.08996
 H1515 H 0.40738 0.64030 0.11222
 H1516 H 0.38064 0.66483 0.13925
 H1517 H 0.42803 0.59980 0.11511
 H1518 H 0.45585 0.57488 0.09089
 H1519 H 0.41280 0.54875 0.02616
 H1520 H 0.38493 0.57477 0.04994
   
