data_POSCAR
  _audit_creation_date              2014-09-24
  _audit_creation_method            'ToBaCCo'
  _symmetry_space_group_name_H-M    'P1'
  _symmetry_Int_Tables_number       1
  _symmetry_cell_setting            triclinic
  loop_
  _symmetry_equiv_pos_as_xyz
 x,y,z
_cell_length_a 46.5090
_cell_length_b 46.5040
_cell_length_c 46.4928
_cell_angle_alpha 89.832500
_cell_angle_beta 90.177400
_cell_angle_gamma 89.811100
loop_
  _atom_site_label
  _atom_site_type_symbol
  _atom_site_fract_x
  _atom_site_fract_y
  _atom_site_fract_z
C1 C 0.24724 0.96642 -0.02427
 C2 C 0.24910 0.96619 0.00602
 C3 C 0.25180 0.99218 0.02085
 C4 C 0.25253 1.01847 0.00623
 C5 C 0.25039 1.01891 -0.02401
 C6 C 0.24784 0.99287 -0.03899
 H7 H 0.24632 0.99318 -0.06232
 H8 H 0.25331 0.99189 0.04418
 C9 C 0.75315 0.51695 0.50565
 C10 C 0.75079 0.51686 0.47552
 C11 C 0.74790 0.49063 0.46103
 C12 C 0.74716 0.46452 0.47625
 C13 C 0.74921 0.46480 0.50649
 C14 C 0.75226 0.49102 0.52082
 H15 H 0.75394 0.49126 0.54412
 H16 H 0.74623 0.49055 0.43774
 C17 C 0.75074 1.00538 0.96513
 C18 C 0.75271 0.97515 0.96511
 C19 C 0.75200 0.96017 0.99137
 C20 C 0.74942 0.97493 1.01752
 C21 C 0.74758 1.00512 1.01736
 C22 C 0.74823 1.01999 0.99124
 H23 H 0.74677 1.04331 0.99125
 H24 H 0.75347 0.93686 0.99140
 C25 C 0.24758 0.50711 0.51753
 C26 C 0.24916 0.47693 0.51809
 C27 C 0.25143 0.46177 0.49215
 C28 C 0.25211 0.47632 0.46565
 C29 C 0.25040 0.50659 0.46525
 C30 C 0.24819 0.52160 0.49119
 H31 H 0.24693 0.54492 0.49089
 H32 H 0.25269 0.43846 0.49261
 C33 C 1.01811 0.24920 0.02461
 C34 C 1.01765 0.25106 -0.00566
 C35 C 0.99133 0.25042 -0.02022
 C36 C 0.96538 0.24793 -0.00530
 C37 C 0.96568 0.24594 0.02494
 C38 C 0.99210 0.24663 0.03962
 H39 H 0.99236 0.24516 0.06294
 H40 H 0.99097 0.25190 -0.04355
 C41 C 0.46569 0.74665 0.52374
 C42 C 0.46540 0.74837 0.49347
 C43 C 0.49139 0.75055 0.47857
 C44 C 0.51764 0.75112 0.49320
 C45 C 0.51809 0.74952 0.52338
 C46 C 0.49211 0.74727 0.53843
 H47 H 0.49246 0.74601 0.56174
 H48 H 0.49119 0.75183 0.45524
 C49 C 0.00675 0.74895 -0.01889
 C50 C -0.02349 0.75105 -0.01911
 C51 C -0.03825 0.75354 0.00705
 C52 C -0.02333 0.75409 0.03335
 C53 C 0.00691 0.75226 0.03338
 C54 C 0.02156 0.74965 0.00730
 H55 H 0.04489 0.74815 0.00744
 H56 H -0.06156 0.75502 0.00700
 C57 C 0.50565 0.24818 0.48345
 C58 C 0.47552 0.25050 0.48330
 C59 C 0.46081 0.25330 0.50943
 C60 C 0.47578 0.25396 0.53571
 C61 C 0.50603 0.25193 0.53566
 C62 C 0.52057 0.24899 0.50953
 H63 H 0.54387 0.24732 0.50949
 H64 H 0.43752 0.25494 0.50932
 C65 C 0.98230 -0.00827 0.25236
 C66 C 0.98207 0.02192 0.25028
 C67 C 1.00816 0.03671 0.24769
 C68 C 1.03449 0.02184 0.24699
 C69 C 1.03456 -0.00845 0.24879
 C70 C 1.00846 -0.02311 0.25153
 H71 H 1.00850 -0.04646 0.25300
 H72 H 1.00797 0.06001 0.24622
 C73 C 0.48269 0.49450 0.75333
 C74 C 0.48263 0.52462 0.75094
 C75 C 0.50879 0.53925 0.74810
 C76 C 0.53500 0.52417 0.74746
 C77 C 0.53486 0.49394 0.74957
 C78 C 0.50872 0.47948 0.75256
 H79 H 0.50861 0.45618 0.75426
 H80 H 0.50875 0.56253 0.74639
 C81 C 1.02353 0.98388 0.74902
 C82 C 0.99339 0.98397 0.74711
 C83 C 0.97842 1.01003 0.74774
 C84 C 0.99297 1.03622 0.75032
 C85 C 1.02325 1.03627 0.75238
 C86 C 1.03823 1.01001 0.75165
 H87 H 1.06152 1.00991 0.75317
 H88 H 0.95510 1.00987 0.74622
 C89 C 0.52351 0.48159 0.24875
 C90 C 0.49334 0.48205 0.24700
 C91 C 0.47874 0.50832 0.24745
 C92 C 0.49364 0.53431 0.24970
 C93 C 0.52389 0.53401 0.25160
 C94 C 0.53856 0.50757 0.25106
 H95 H 0.56185 0.50720 0.25246
 H96 H 0.45543 0.50854 0.24606
 O97 O 0.26795 0.17544 0.19145
 O98 O 0.30038 0.16719 0.23178
 O99 O 0.19307 0.20895 0.23378
 O100 O 0.18256 0.24629 0.26228
 O101 O 0.22735 0.25083 0.15764
 O102 O 0.26753 0.28267 0.15030
 O103 O 0.26709 0.28904 0.30682
 O104 O 0.23385 0.24953 0.31369
 O105 O 0.34152 0.24959 0.27260
 O106 O 0.34996 0.21685 0.23144
 O107 O 0.30715 0.32328 0.23418
 O108 O 0.26559 0.33192 0.20022
 O109 O 0.26753 0.32363 0.27210
 O110 O 0.23597 0.33304 0.23150
 O111 O 0.34166 0.28847 0.23404
 O112 O 0.35060 0.24802 0.20128
 O113 O 0.30683 0.25092 0.30699
 O114 O 0.27244 0.21855 0.31646
 O115 O 0.26769 0.21059 0.15722
 O116 O 0.29915 0.25022 0.14957
 O117 O 0.19288 0.24950 0.19232
 O118 O 0.18567 0.28223 0.23259
 O119 O 0.22793 0.17451 0.23208
 O120 O 0.26925 0.16500 0.26253
 Zr121 Zr 0.26663 0.19776 0.23092
 O122 O 0.29296 0.22228 0.25835
 Zr123 Zr 0.21582 0.24805 0.23140
 O124 O 0.24032 0.27502 0.25833
 Zr125 Zr 0.26628 0.24894 0.18085
 O126 O 0.29325 0.27534 0.20576
 Zr127 Zr 0.26807 0.25002 0.28380
 O128 O 0.24121 0.22247 0.25928
 Zr129 Zr 0.31855 0.24983 0.23347
 O130 O 0.29425 0.22317 0.20576
 Zr131 Zr 0.26795 0.30060 0.23330
 O132 O 0.24069 0.27626 0.20614
 O133 O 0.23973 0.22183 0.20439
 O134 O 0.29498 0.27693 0.26031
 C135 C 0.26831 0.18419 0.16520
 C136 C 0.20162 0.18263 0.23374
 C137 C 0.20107 0.25088 0.16601
 C138 C 0.26705 0.31539 0.29843
 C139 C 0.33314 0.25031 0.29886
 C140 C 0.33345 0.31477 0.23442
 H141 H 0.30453 0.20918 0.27058
 H142 H 0.30516 0.28725 0.19286
 H143 H 0.22739 0.20962 0.19211
 H144 H 0.22726 0.28671 0.27032
 H145 H 0.22151 0.23295 0.30868
 H146 H 0.18944 0.25655 0.27956
 H147 H 0.34629 0.26322 0.18696
 H148 H 0.31455 0.23715 0.15646
 H149 H 0.26283 0.20111 0.30923
 H150 H 0.25347 0.16834 0.27636
 H151 H 0.28231 0.32914 0.18741
 H152 H 0.25375 0.29749 0.15693
 H153 H 0.31480 0.17366 0.21756
 H154 H 0.34591 0.20291 0.24700
 H155 H 0.19164 0.29636 0.21782
 H156 H 0.22082 0.32784 0.24544
 O157 O 0.74865 0.84194 0.22672
 O158 O 0.71695 0.84960 0.26691
 O159 O 0.82425 0.80793 0.26816
 O160 O 0.83449 0.77086 0.29780
 O161 O 0.79038 0.76671 0.19265
 O162 O 0.75005 0.73517 0.18452
 O163 O 0.75041 0.72733 0.34140
 O164 O 0.78381 0.76630 0.34836
 O165 O 0.67626 0.76570 0.30706
 O166 O 0.66746 0.79968 0.26600
 O167 O 0.71042 0.69322 0.26733
 O168 O 0.75237 0.68495 0.23466
 O169 O 0.74941 0.69302 0.30659
 O170 O 0.78167 0.68377 0.26625
 O171 O 0.67581 0.72790 0.26729
 O172 O 0.66650 0.76885 0.23577
 O173 O 0.71108 0.76488 0.34156
 O174 O 0.74513 0.79781 0.35073
 O175 O 0.74945 0.80725 0.19224
 O176 O 0.71854 0.76737 0.18374
 O177 O 0.82481 0.76741 0.22759
 O178 O 0.83195 0.73475 0.26760
 O179 O 0.78924 0.84227 0.26662
 O180 O 0.74816 0.85097 0.29802
 Zr181 Zr 0.75062 0.81896 0.26584
 O182 O 0.72435 0.79407 0.29294
 Zr183 Zr 0.80162 0.76880 0.26631
 O184 O 0.77720 0.74149 0.29293
 Zr185 Zr 0.75121 0.76841 0.21543
 O186 O 0.72430 0.74165 0.24004
 Zr187 Zr 0.74952 0.76630 0.31833
 O188 O 0.77629 0.79412 0.29413
 Zr189 Zr 0.69886 0.76664 0.26781
 O190 O 0.72309 0.79369 0.24038
 Zr191 Zr 0.74957 0.71611 0.26765
 O192 O 0.77678 0.74082 0.24077
 O193 O 0.77761 0.79527 0.23928
 O194 O 0.72260 0.73944 0.29465
 C195 C 0.74831 0.83355 0.20044
 C196 C 0.81559 0.83420 0.26789
 C197 C 0.81669 0.76628 0.20123
 C198 C 0.74997 0.70109 0.33294
 C199 C 0.68477 0.76490 0.33335
 C200 C 0.68407 0.70160 0.26710
 H201 H 0.71272 0.80696 0.30519
 H202 H 0.71247 0.72990 0.22691
 H203 H 0.78980 0.80756 0.22694
 H204 H 0.79024 0.72969 0.30499
 H205 H 0.79617 0.78292 0.34355
 H206 H 0.82813 0.75938 0.31452
 H207 H 0.67143 0.75470 0.22071
 H208 H 0.70301 0.78024 0.19057
 H209 H 0.75578 0.81487 0.34402
 H210 H 0.76468 0.84804 0.31118
 H211 H 0.73629 0.68837 0.22109
 H212 H 0.76381 0.72026 0.19114
 H213 H 0.70205 0.84286 0.25328
 H214 H 0.67084 0.81276 0.28239
 H215 H 0.82558 0.72034 0.25333
 H216 H 0.79640 0.68852 0.28085
 O217 O 0.75042 0.17459 0.78886
 O218 O 0.72099 0.16561 0.74933
 O219 O 0.82543 0.21217 0.74986
 O220 O 0.83695 0.25026 0.72467
 O221 O 0.78779 0.24964 0.82658
 O222 O 0.74836 0.27923 0.83528
 O223 O 0.74855 0.28883 0.67567
 O224 O 0.78048 0.25246 0.66689
 O225 O 0.67516 0.25125 0.71175
 O226 O 0.66476 0.22106 0.75044
 O227 O 0.71115 0.32498 0.74949
 O228 O 0.74983 0.33529 0.77973
 O229 O 0.74881 0.32382 0.70978
 O230 O 0.78385 0.33085 0.75275
 O231 O 0.67613 0.29094 0.74961
 O232 O 0.66913 0.24788 0.78451
 O233 O 0.70919 0.25151 0.67668
 O234 O 0.75056 0.21634 0.66941
 O235 O 0.74883 0.20821 0.82436
 O236 O 0.71522 0.24924 0.83151
 O237 O 0.82327 0.25076 0.79296
 O238 O 0.82909 0.28611 0.75142
 O239 O 0.79189 0.17659 0.74970
 O240 O 0.75099 0.16932 0.71622
 Zr241 Zr 0.75199 0.19870 0.75086
 O242 O 0.72394 0.22332 0.72501
 Zr243 Zr 0.80140 0.25008 0.75285
 O244 O 0.77675 0.27577 0.72455
 Zr245 Zr 0.74996 0.24813 0.80227
 O246 O 0.72417 0.27618 0.77750
 Zr247 Zr 0.74879 0.25066 0.69933
 O248 O 0.77724 0.22464 0.72388
 Zr249 Zr 0.69866 0.25125 0.75010
 O250 O 0.72311 0.22285 0.77627
 Zr251 Zr 0.74940 0.30137 0.74954
 O252 O 0.77544 0.27693 0.77814
 O253 O 0.77771 0.22241 0.77858
 O254 O 0.72215 0.27792 0.72287
 C255 C 0.74904 0.18208 0.81529
 C256 C 0.81798 0.18571 0.74912
 C257 C 0.81421 0.25072 0.81910
 C258 C 0.74850 0.31515 0.68352
 C259 C 0.68297 0.25156 0.68540
 C260 C 0.68483 0.31718 0.74939
 H261 H 0.71183 0.21030 0.71343
 H262 H 0.71248 0.28824 0.79050
 H263 H 0.79007 0.21000 0.79079
 H264 H 0.78968 0.28733 0.71228
 H265 H 0.79689 0.24071 0.67382
 H266 H 0.82946 0.25589 0.70554
 H267 H 0.66992 0.26597 0.79563
 H268 H 0.70225 0.23323 0.82632
 H269 H 0.73279 0.20487 0.67121
 H270 H 0.76659 0.17494 0.70291
 H271 H 0.73953 0.32840 0.79698
 H272 H 0.75987 0.29576 0.82847
 H273 H 0.70442 0.17243 0.76079
 H274 H 0.67174 0.20374 0.74031
 H275 H 0.82540 0.29755 0.76896
 H276 H 0.79468 0.33028 0.73448
 O277 O 0.23326 0.80776 0.79073
 O278 O 0.26464 0.81599 0.75037
 O279 O 0.15792 0.77364 0.74816
 O280 O 0.14796 0.73656 0.71937
 O281 O 0.19191 0.73309 0.82452
 O282 O 0.23203 0.70076 0.83277
 O283 O 0.23422 0.69363 0.67620
 O284 O 0.19958 0.73170 0.66854
 O285 O 0.30675 0.73291 0.71071
 O286 O 0.31521 0.76539 0.75257
 O287 O 0.27226 0.65907 0.75016
 O288 O 0.23063 0.65079 0.78265
 O289 O 0.23405 0.65916 0.71106
 O290 O 0.20096 0.65031 0.75117
 O291 O 0.30674 0.69366 0.74974
 O292 O 0.31598 0.73413 0.78211
 O293 O 0.27219 0.73276 0.67595
 O294 O 0.23349 0.76467 0.66632
 O295 O 0.23299 0.77288 0.82523
 O296 O 0.26370 0.73277 0.83374
 O297 O 0.15766 0.73380 0.78939
 O298 O 0.15131 0.70020 0.74992
 O299 O 0.19261 0.80810 0.74974
 O300 O 0.23263 0.81669 0.71885
 Zr301 Zr 0.23152 0.78498 0.75150
 O302 O 0.25834 0.76034 0.72467
 Zr303 Zr 0.18096 0.73468 0.75079
 O304 O 0.20575 0.70771 0.72414
 Zr305 Zr 0.23115 0.73426 0.80193
 O306 O 0.25831 0.70756 0.77747
 Zr307 Zr 0.23347 0.73272 0.69897
 O308 O 0.20632 0.76009 0.72318
 Zr309 Zr 0.28379 0.73265 0.74985
 O310 O 0.25920 0.75963 0.77706
 Zr311 Zr 0.23327 0.68225 0.74975
 O312 O 0.20586 0.70674 0.77657
 O313 O 0.20461 0.76118 0.77788
 O314 O 0.26036 0.70570 0.72285
 C315 C 0.23394 0.79923 0.81706
 C316 C 0.16632 0.79992 0.74815
 C317 C 0.16567 0.73299 0.81578
 C318 C 0.23447 0.66734 0.68473
 C319 C 0.29845 0.73299 0.68432
 C320 C 0.29853 0.66737 0.74999
 H321 H 0.27025 0.77344 0.71298
 H322 H 0.27014 0.69567 0.79062
 H323 H 0.19235 0.77363 0.79000
 H324 H 0.19297 0.69593 0.71194
 H325 H 0.18555 0.74668 0.67430
 H326 H 0.15385 0.72421 0.70312
 H327 H 0.31136 0.71934 0.79670
 H328 H 0.27944 0.74521 0.82674
 H329 H 0.24593 0.78060 0.67277
 H330 H 0.21946 0.81011 0.70347
 H331 H 0.24631 0.65445 0.79657
 H332 H 0.21808 0.68614 0.82619
 H333 H 0.27972 0.80922 0.76388
 H334 H 0.31166 0.77916 0.73669
 H335 H 0.15746 0.68631 0.76492
 H336 H 0.18675 0.65476 0.73592
 O337 O 0.24819 0.34377 0.72935
 O338 O 0.21644 0.35144 0.76957
 O339 O 0.32369 0.30961 0.77081
 O340 O 0.33384 0.27253 0.80049
 O341 O 0.28980 0.26842 0.69530
 O342 O 0.24937 0.23699 0.68717
 O343 O 0.24969 0.22910 0.84405
 O344 O 0.28313 0.26810 0.85103
 O345 O 0.17558 0.26761 0.80968
 O346 O 0.16695 0.30173 0.76862
 O347 O 0.20963 0.19514 0.76993
 O348 O 0.25157 0.18677 0.73731
 O349 O 0.24861 0.19482 0.80923
 O350 O 0.28086 0.18552 0.76889
 O351 O 0.17509 0.22991 0.76985
 O352 O 0.16585 0.27086 0.73842
 O353 O 0.21037 0.26668 0.84421
 O354 O 0.24446 0.29959 0.85342
 O355 O 0.24897 0.30908 0.69486
 O356 O 0.21796 0.26928 0.68636
 O357 O 0.32421 0.26904 0.73026
 O358 O 0.33125 0.23641 0.77032
 O359 O 0.28874 0.34400 0.76927
 O360 O 0.24772 0.35283 0.80062
 Zr361 Zr 0.25008 0.32077 0.76848
 O362 O 0.22376 0.29595 0.79560
 Zr363 Zr 0.30099 0.27052 0.76897
 O364 O 0.27650 0.24325 0.79560
 Zr365 Zr 0.25061 0.27024 0.71807
 O366 O 0.22364 0.24354 0.74268
 Zr367 Zr 0.24885 0.26810 0.82099
 O368 O 0.27568 0.29588 0.79679
 Zr369 Zr 0.19823 0.26858 0.77045
 O370 O 0.22252 0.29557 0.74300
 Zr371 Zr 0.24883 0.21793 0.77029
 O372 O 0.27611 0.24259 0.74343
 O373 O 0.27704 0.29704 0.74194
 O374 O 0.22189 0.24131 0.79728
 C375 C 0.24786 0.33539 0.70305
 C376 C 0.31507 0.33588 0.77054
 C377 C 0.31610 0.26791 0.70389
 C378 C 0.24921 0.20287 0.83558
 C379 C 0.18407 0.26673 0.83598
 C380 C 0.18330 0.20359 0.76965
 H381 H 0.21215 0.30885 0.80785
 H382 H 0.21178 0.23183 0.72953
 H383 H 0.28927 0.30929 0.72960
 H384 H 0.28951 0.23142 0.80765
 H385 H 0.29549 0.28473 0.84623
 H386 H 0.32743 0.26109 0.81722
 H387 H 0.17082 0.25681 0.72329
 H388 H 0.20247 0.28221 0.69317
 H389 H 0.25500 0.31668 0.84666
 H390 H 0.26418 0.34980 0.81384
 H391 H 0.23551 0.19024 0.72372
 H392 H 0.26310 0.22205 0.69378
 H393 H 0.20157 0.34477 0.75586
 H394 H 0.17027 0.31472 0.78511
 H395 H 0.32487 0.22201 0.75604
 H396 H 0.29559 0.19024 0.78351
 O397 O 0.77001 0.67586 0.69028
 O398 O 0.80240 0.66753 0.73055
 O399 O 0.69512 0.70933 0.73274
 O400 O 0.68460 0.74669 0.76118
 O401 O 0.72926 0.75116 0.65650
 O402 O 0.76941 0.78310 0.64915
 O403 O 0.76923 0.78935 0.80560
 O404 O 0.73604 0.74987 0.81256
 O405 O 0.84362 0.75000 0.77131
 O406 O 0.85203 0.71725 0.73012
 O407 O 0.80913 0.82364 0.73294
 O408 O 0.76753 0.83227 0.69902
 O409 O 0.76960 0.82394 0.77089
 O410 O 0.73799 0.83340 0.73038
 O411 O 0.84368 0.78887 0.73277
 O412 O 0.85258 0.74841 0.69995
 O413 O 0.80898 0.75129 0.80574
 O414 O 0.77463 0.71885 0.81521
 O415 O 0.76970 0.71102 0.65605
 O416 O 0.80102 0.75067 0.64830
 O417 O 0.69485 0.74983 0.69124
 O418 O 0.68771 0.78261 0.73153
 O419 O 0.72998 0.67488 0.73095
 O420 O 0.77136 0.66539 0.76136
 Zr421 Zr 0.76867 0.69814 0.72974
 O422 O 0.79506 0.72264 0.75712
 Zr423 Zr 0.71785 0.74841 0.73028
 O424 O 0.74239 0.77536 0.75718
 Zr425 Zr 0.76824 0.74934 0.67967
 O426 O 0.79525 0.77573 0.70454
 Zr427 Zr 0.77019 0.75035 0.78260
 O428 O 0.74328 0.72283 0.75813
 Zr429 Zr 0.82060 0.75021 0.73220
 O430 O 0.79625 0.72357 0.70454
 Zr431 Zr 0.76996 0.80095 0.73209
 O432 O 0.74265 0.77663 0.70498
 O433 O 0.74173 0.72220 0.70325
 O434 O 0.79704 0.77729 0.75907
 C435 C 0.77037 0.68463 0.66405
 C436 C 0.70367 0.68302 0.73268
 C437 C 0.70299 0.75120 0.66492
 C438 C 0.76916 0.81569 0.79720
 C439 C 0.83528 0.75072 0.79758
 C440 C 0.83543 0.81516 0.73316
 H441 H 0.80666 0.70954 0.76933
 H442 H 0.80713 0.78764 0.69161
 H443 H 0.72939 0.70998 0.69098
 H444 H 0.72934 0.78704 0.76920
 H445 H 0.72366 0.73331 0.80757
 H446 H 0.69154 0.75685 0.77850
 H447 H 0.84831 0.76368 0.68570
 H448 H 0.81650 0.73770 0.65521
 H449 H 0.76487 0.70146 0.80805
 H450 H 0.75556 0.66869 0.77518
 H451 H 0.78424 0.82951 0.68619
 H452 H 0.75557 0.79787 0.65576
 H453 H 0.81686 0.67407 0.71641
 H454 H 0.84803 0.70333 0.74571
 H455 H 0.69362 0.79671 0.71671
 H456 H 0.72283 0.82817 0.74431
 O457 O 0.25046 0.67461 0.28747
 O458 O 0.22103 0.66569 0.24790
 O459 O 0.32557 0.71205 0.24854
 O460 O 0.33717 0.75009 0.22330
 O461 O 0.28790 0.74967 0.32517
 O462 O 0.24849 0.77928 0.33382
 O463 O 0.24890 0.78881 0.17415
 O464 O 0.28082 0.75238 0.16549
 O465 O 0.17541 0.75137 0.21018
 O466 O 0.16489 0.72125 0.24884
 O467 O 0.21146 0.82509 0.24797
 O468 O 0.25014 0.83534 0.27820
 O469 O 0.24915 0.82382 0.20825
 O470 O 0.28417 0.83082 0.25125
 O471 O 0.17640 0.79110 0.24808
 O472 O 0.16929 0.74802 0.28295
 O473 O 0.20949 0.75152 0.17517
 O474 O 0.25080 0.71633 0.16796
 O475 O 0.24888 0.70826 0.32294
 O476 O 0.21531 0.74936 0.33001
 O477 O 0.32342 0.75072 0.29160
 O478 O 0.32935 0.78599 0.25003
 O479 O 0.29196 0.67653 0.24834
 O480 O 0.25110 0.66930 0.21484
 Zr481 Zr 0.25211 0.69870 0.24945
 O482 O 0.22414 0.72337 0.22354
 Zr483 Zr 0.30159 0.75001 0.25146
 O484 O 0.27702 0.77574 0.22310
 Zr485 Zr 0.25009 0.74817 0.30081
 O486 O 0.22438 0.77626 0.27599
 Zr487 Zr 0.24905 0.75066 0.19787
 O488 O 0.27743 0.72460 0.22248
 Zr489 Zr 0.19886 0.75136 0.24858
 O490 O 0.22322 0.72293 0.27480
 Zr491 Zr 0.24967 0.80140 0.24803
 O492 O 0.27564 0.77693 0.27669
 O493 O 0.27783 0.72239 0.27718
 O494 O 0.22242 0.77797 0.22135
 C495 C 0.24907 0.68211 0.31390
 C496 C 0.31808 0.68560 0.24780
 C497 C 0.31433 0.75072 0.31773
 C498 C 0.24886 0.81514 0.18199
 C499 C 0.18326 0.75163 0.18385
 C500 C 0.18512 0.81732 0.24787
 H501 H 0.21201 0.71036 0.21196
 H502 H 0.21270 0.78835 0.28897
 H503 H 0.29016 0.70998 0.28942
 H504 H 0.28998 0.78727 0.21085
 H505 H 0.29718 0.74057 0.17244
 H506 H 0.32972 0.75579 0.20418
 H507 H 0.17010 0.76611 0.29408
 H508 H 0.20234 0.73335 0.32483
 H509 H 0.23304 0.70485 0.16979
 H510 H 0.26670 0.67490 0.20153
 H511 H 0.23984 0.82847 0.29546
 H512 H 0.26001 0.79580 0.32700
 H513 H 0.20448 0.67252 0.25939
 H514 H 0.17189 0.70387 0.23884
 H515 H 0.32563 0.79748 0.26753
 H516 H 0.29501 0.83023 0.23298
 O517 O 0.73219 0.30458 0.29104
 O518 O 0.76351 0.31296 0.25073
 O519 O 0.65686 0.27050 0.24844
 O520 O 0.64692 0.23338 0.21965
 O521 O 0.69091 0.22995 0.32480
 O522 O 0.73102 0.19751 0.33294
 O523 O 0.73331 0.19068 0.17644
 O524 O 0.69868 0.22863 0.16873
 O525 O 0.80579 0.23003 0.21098
 O526 O 0.81419 0.26240 0.25294
 O527 O 0.77135 0.15604 0.25032
 O528 O 0.72969 0.14774 0.28287
 O529 O 0.73310 0.15617 0.21126
 O530 O 0.70013 0.14714 0.25128
 O531 O 0.80581 0.19066 0.24990
 O532 O 0.81498 0.23110 0.28240
 O533 O 0.77124 0.22988 0.17621
 O534 O 0.73239 0.26178 0.16669
 O535 O 0.73199 0.26965 0.32549
 O536 O 0.76265 0.22957 0.33402
 O537 O 0.65663 0.23067 0.28969
 O538 O 0.65034 0.19702 0.25018
 O539 O 0.69153 0.30498 0.25006
 O540 O 0.73154 0.31361 0.21917
 Zr541 Zr 0.73046 0.28188 0.25180
 O542 O 0.75734 0.25733 0.22497
 Zr543 Zr 0.67993 0.23154 0.25106
 O544 O 0.70479 0.20466 0.22439
 Zr545 Zr 0.73014 0.23108 0.30217
 O546 O 0.75736 0.20447 0.27770
 Zr547 Zr 0.73251 0.22973 0.19923
 O548 O 0.70528 0.25700 0.22347
 Zr549 Zr 0.78282 0.22963 0.25011
 O550 O 0.75816 0.25653 0.27734
 Zr551 Zr 0.73234 0.17918 0.24997
 O552 O 0.70486 0.20358 0.27680
 O553 O 0.70358 0.25803 0.27816
 O554 O 0.75941 0.20269 0.22309
 C555 C 0.73290 0.29599 0.31734
 C556 C 0.66524 0.29679 0.24846
 C557 C 0.66466 0.22988 0.31608
 C558 C 0.73355 0.16439 0.18496
 C559 C 0.79751 0.23016 0.18459
 C560 C 0.79763 0.16436 0.25012
 H561 H 0.76924 0.27047 0.21330
 H562 H 0.76920 0.19258 0.29084
 H563 H 0.69131 0.27046 0.29029
 H564 H 0.69203 0.19288 0.21216
 H565 H 0.68454 0.24348 0.17454
 H566 H 0.65285 0.22107 0.20338
 H567 H 0.81044 0.21620 0.29690
 H568 H 0.77844 0.24194 0.32700
 H569 H 0.74500 0.27761 0.17305
 H570 H 0.71837 0.30703 0.20378
 H571 H 0.74546 0.15131 0.29672
 H572 H 0.71699 0.18294 0.32638
 H573 H 0.77862 0.30619 0.26419
 H574 H 0.81063 0.27621 0.23709
 H575 H 0.65646 0.18317 0.26522
 H576 H 0.68577 0.15174 0.23620
 C577 C 0.24004 0.12279 0.07922
 C578 C 0.26186 0.11828 0.05447
 C579 C 0.26055 0.08572 0.05983
 C580 C 0.23871 0.08990 0.08420
 C581 C 0.26517 0.12441 0.10069
 C582 C 0.26385 0.09184 0.10595
 C583 C 0.28705 0.12030 0.07633
 C584 C 0.28568 0.08736 0.08130
 C585 C 0.25773 0.06298 0.03834
 C586 C 0.25529 0.04282 0.02234
 C587 C 0.26719 0.14555 0.12385
 C588 C 0.26815 0.16298 0.14292
 H589 H 0.22127 0.13760 0.07868
 H590 H 0.26099 0.12885 0.03304
 H591 H 0.21876 0.07719 0.08716
 H592 H 0.26470 0.08118 0.12733
 H593 H 0.30699 0.13302 0.07343
 H594 H 0.30444 0.07255 0.08186
 C595 C 0.77155 0.59248 0.60429
 C596 C 0.74398 0.58681 0.58655
 C597 C 0.76219 0.58608 0.55904
 C598 C 0.78975 0.59144 0.57649
 C599 C 0.76713 0.62488 0.59969
 C600 C 0.78538 0.62425 0.57220
 C601 C 0.73957 0.61953 0.58223
 C602 C 0.75774 0.61848 0.55435
 C603 C 0.75911 0.56323 0.53778
 C604 C 0.75641 0.54294 0.52204
 C605 C 0.76926 0.64604 0.62276
 C606 C 0.77024 0.66346 0.64180
 H607 H 0.77724 0.58203 0.62504
 H608 H 0.72688 0.57119 0.59218
 H609 H 0.81035 0.57966 0.57381
 H610 H 0.80247 0.63990 0.56664
 H611 H 0.71895 0.63130 0.58493
 H612 H 0.75205 0.62885 0.53356
 C613 C 0.77403 0.90806 0.12360
 C614 C 0.76568 0.89930 0.09259
 C615 C 0.74776 0.92698 0.08985
 C616 C 0.75611 0.93607 0.12049
 C617 C 0.74717 0.89254 0.13478
 C618 C 0.72922 0.92021 0.13211
 C619 C 0.73884 0.88353 0.10411
 C620 C 0.72089 0.91147 0.10103
 C621 C 0.74825 0.94528 0.06420
 C622 C 0.74877 0.95953 0.04253
 C623 C 0.74712 0.87245 0.15908
 C624 C 0.74744 0.85509 0.17835
 H625 H 0.79588 0.90643 0.13317
 H626 H 0.78068 0.89090 0.07607
 H627 H 0.76320 0.95791 0.12688
 H628 H 0.71423 0.92857 0.14866
 H629 H 0.73172 0.86172 0.09764
 H630 H 0.69905 0.91309 0.09146
 C631 C 0.27388 0.40173 0.61989
 C632 C 0.25665 0.39691 0.59180
 C633 C 0.24747 0.42867 0.59224
 C634 C 0.26472 0.43380 0.61998
 C635 C 0.24685 0.39432 0.63728
 C636 C 0.23765 0.42608 0.63780
 C637 C 0.22962 0.38925 0.60951
 C638 C 0.22042 0.42129 0.60961
 C639 C 0.24797 0.44688 0.56650
 C640 C 0.24848 0.46099 0.54473
 C641 C 0.24677 0.37427 0.66164
 C642 C 0.24705 0.35693 0.68094
 H643 H 0.29587 0.39347 0.62438
 H644 H 0.26448 0.38510 0.57262
 H645 H 0.27914 0.45234 0.62398
 H646 H 0.22983 0.43783 0.65701
 H647 H 0.21518 0.37073 0.60546
 H648 H 0.19844 0.42955 0.60509
 C649 C 0.75429 0.08175 0.85756
 C650 C 0.77568 0.07598 0.88260
 C651 C 0.75050 0.06542 0.90107
 C652 C 0.72910 0.07079 0.87640
 C653 C 0.74927 0.11228 0.86923
 C654 C 0.72410 0.10172 0.88771
 C655 C 0.77064 0.10689 0.89391
 C656 C 0.74548 0.09600 0.91265
 C657 C 0.75099 0.04079 0.92075
 C658 C 0.75109 0.02288 0.93952
 C659 C 0.74874 0.13831 0.85142
 C660 C 0.74863 0.15902 0.83580
 H661 H 0.75791 0.07624 0.83464
 H662 H 0.79684 0.06506 0.88059
 H663 H 0.71212 0.05563 0.86933
 H664 H 0.70294 0.11263 0.88975
 H665 H 0.78762 0.12203 0.90102
 H666 H 0.74186 0.10160 0.93556
 C667 C 0.25560 0.61234 0.40056
 C668 C 0.22996 0.59174 0.40515
 C669 C 0.25021 0.56595 0.40050
 C670 C 0.27585 0.58625 0.39618
 C671 C 0.24910 0.61250 0.36819
 C672 C 0.26936 0.58674 0.36347
 C673 C 0.22344 0.59221 0.37248
 C674 C 0.24369 0.56602 0.36812
 C675 C 0.25065 0.54148 0.42044
 C676 C 0.25073 0.52377 0.43940
 C677 C 0.24865 0.63841 0.35017
 C678 C 0.24860 0.65907 0.33445
 H679 H 0.26043 0.63160 0.41375
 H680 H 0.21368 0.59350 0.42248
 H681 H 0.29746 0.58347 0.40601
 H682 H 0.28563 0.58504 0.34613
 H683 H 0.20183 0.59503 0.36265
 H684 H 0.23886 0.54673 0.35499
 C685 C 0.26537 0.87723 0.88837
 C686 C 0.24653 0.90466 0.89003
 C687 C 0.24144 0.89867 0.92216
 C688 C 0.26032 0.87154 0.92083
 C689 C 0.23833 0.85969 0.88130
 C690 C 0.23322 0.85362 0.91341
 C691 C 0.21947 0.88683 0.88267
 C692 C 0.21438 0.88115 0.91511
 C693 C 0.24335 0.92159 0.94373
 C694 C 0.24509 0.94188 0.95977
 C695 C 0.23670 0.83829 0.85818
 C696 C 0.23543 0.82066 0.83922
 H697 H 0.28631 0.87547 0.87711
 H698 H 0.25204 0.92589 0.88060
 H699 H 0.27709 0.86545 0.93677
 H700 H 0.22771 0.83236 0.92278
 H701 H 0.20270 0.89296 0.86674
 H702 H 0.19344 0.88293 0.92637
 C703 C 0.76459 0.37340 0.38888
 C704 C 0.74609 0.40106 0.39037
 C705 C 0.74065 0.39514 0.42245
 C706 C 0.75919 0.36778 0.42128
 C707 C 0.73737 0.35623 0.38159
 C708 C 0.73192 0.35022 0.41365
 C709 C 0.71886 0.38360 0.38279
 C710 C 0.71342 0.37799 0.41518
 C711 C 0.74271 0.41805 0.44393
 C712 C 0.74462 0.43838 0.45984
 C713 C 0.73569 0.33492 0.35848
 C714 C 0.73440 0.31735 0.33950
 H715 H 0.78559 0.37136 0.37778
 H716 H 0.75195 0.42223 0.38100
 H717 H 0.77575 0.36149 0.43738
 H718 H 0.72605 0.32903 0.42295
 H719 H 0.70230 0.38993 0.36671
 H720 H 0.69242 0.38006 0.42629
 C721 C 0.12847 0.27525 0.08465
 C722 C 0.12194 0.25151 0.06219
 C723 C 0.09057 0.25100 0.07242
 C724 C 0.09668 0.27471 0.09454
 C725 C 0.13547 0.25176 0.10693
 C726 C 0.10406 0.25125 0.11707
 C727 C 0.12938 0.22804 0.08481
 C728 C 0.09761 0.22755 0.09470
 C729 C 0.06492 0.25044 0.05412
 C730 C 0.04322 0.24988 0.03991
 C731 C 0.15974 0.25190 0.12706
 C732 C 0.17899 0.25166 0.14445
 H733 H 0.14144 0.29486 0.08075
 H734 H 0.12895 0.25161 0.03938
 H735 H 0.08295 0.29389 0.09833
 H736 H 0.09696 0.25115 0.13984
 H737 H 0.14311 0.20886 0.08104
 H738 H 0.08466 0.20793 0.09864
 C739 C 0.60583 0.75338 0.61628
 C740 C 0.59933 0.77587 0.59252
 C741 C 0.59213 0.75127 0.57176
 C742 C 0.59830 0.72879 0.59527
 C743 C 0.63719 0.75202 0.60605
 C744 C 0.63001 0.72740 0.58529
 C745 C 0.63107 0.77453 0.58255
 C746 C 0.62345 0.74990 0.56143
 C747 C 0.56640 0.75073 0.55355
 C748 C 0.54466 0.75020 0.53941
 C749 C 0.66155 0.75217 0.62608
 C750 C 0.68087 0.75195 0.64340
 H751 H 0.59883 0.75482 0.63904
 H752 H 0.58643 0.79579 0.59530
 H753 H 0.58455 0.70998 0.60030
 H754 H 0.64291 0.70748 0.58254
 H755 H 0.64484 0.79333 0.57755
 H756 H 0.63036 0.74846 0.53865
 C757 C 0.10625 0.73844 0.90787
 C758 C 0.08399 0.76318 0.90920
 C759 C 0.06008 0.74094 0.91380
 C760 C 0.08206 0.71622 0.91276
 C761 C 0.10109 0.73629 0.87533
 C762 C 0.07720 0.71401 0.87986
 C763 C 0.07912 0.76102 0.87633
 C764 C 0.05482 0.73879 0.88127
 C765 C 0.03859 0.74377 0.93648
 C766 C 0.02267 0.74621 0.95667
 C767 C 0.12432 0.73424 0.85432
 C768 C 0.14343 0.73324 0.83696
 H769 H 0.12762 0.73826 0.91858
 H770 H 0.08650 0.78347 0.92147
 H771 H 0.08296 0.69780 0.92799
 H772 H 0.07475 0.69373 0.86756
 H773 H 0.07824 0.77944 0.86111
 H774 H 0.03341 0.73899 0.87064
 C775 C 0.57127 0.24878 0.37057
 C776 C 0.55593 0.22341 0.38583
 C777 C 0.55958 0.23908 0.41462
 C778 C 0.57454 0.26446 0.39975
 C779 C 0.60033 0.23381 0.37593
 C780 C 0.60388 0.24946 0.40475
 C781 C 0.58539 0.20841 0.39078
 C782 C 0.58865 0.22412 0.41992
 C783 C 0.53818 0.24224 0.43738
 C784 C 0.52228 0.24496 0.45757
 C785 C 0.62342 0.23147 0.35478
 C786 C 0.64245 0.23028 0.33732
 H787 H 0.56443 0.25890 0.34999
 H788 H 0.53593 0.21281 0.37831
 H789 H 0.56978 0.28753 0.40364
 H790 H 0.62384 0.26009 0.41233
 H791 H 0.59017 0.18535 0.38689
 H792 H 0.59554 0.21400 0.44048
 C793 C 0.88340 0.78240 0.11486
 C794 C 0.91593 0.78605 0.12105
 C795 C 0.92218 0.75959 0.10234
 C796 C 0.88995 0.75595 0.09584
 C797 C 0.88110 0.76238 0.14107
 C798 C 0.88736 0.73594 0.12235
 C799 C 0.91330 0.76604 0.14766
 C800 C 0.91990 0.73954 0.12855
 C801 C 0.94384 0.75785 0.07955
 C802 C 0.95995 0.75624 0.05935
 C803 C 0.85789 0.76382 0.16232
 C804 C 0.83887 0.76495 0.17986
 H805 H 0.86813 0.80000 0.10939
 H806 H 0.92796 0.80662 0.12033
 H807 H 0.88055 0.75177 0.07428
 H808 H 0.87534 0.71537 0.12303
 H809 H 0.92263 0.77022 0.16924
 H810 H 0.93518 0.72194 0.13398
 C811 C 0.37621 0.26986 0.61148
 C812 C 0.40426 0.28771 0.61167
 C813 C 0.42143 0.26029 0.60480
 C814 C 0.39366 0.24243 0.60431
 C815 C 0.38047 0.26351 0.64365
 C816 C 0.39763 0.23609 0.63679
 C817 C 0.40822 0.28140 0.64421
 C818 C 0.42576 0.25392 0.63696
 C819 C 0.44305 0.25827 0.58197
 C820 C 0.45912 0.25642 0.56174
 C821 C 0.35731 0.26518 0.66496
 C822 C 0.33830 0.26645 0.68252
 H823 H 0.35564 0.27641 0.60118
 H824 H 0.40725 0.30895 0.60116
 H825 H 0.38789 0.22634 0.58769
 H826 H 0.39462 0.21485 0.64730
 H827 H 0.41393 0.29749 0.66085
 H828 H 0.44636 0.24738 0.64721
 C829 C 0.85691 0.24612 0.91948
 C830 C 0.88112 0.22385 0.92549
 C831 C 0.90070 0.24848 0.93531
 C832 C 0.87687 0.27075 0.92970
 C833 C 0.86845 0.24998 0.88873
 C834 C 0.88805 0.27459 0.89855
 C835 C 0.89229 0.22774 0.89437
 C836 C 0.91214 0.25234 0.90452
 C837 C 0.92063 0.24785 0.95976
 C838 C 0.93958 0.24766 0.97747
 C839 C 0.85045 0.25067 0.86282
 C840 C 0.83475 0.25094 0.84215
 H841 H 0.83393 0.24356 0.92529
 H842 H 0.87837 0.20304 0.93690
 H843 H 0.87065 0.28834 0.94455
 H844 H 0.89082 0.29540 0.88716
 H845 H 0.89854 0.21014 0.87953
 H846 H 0.93511 0.25489 0.89862
 C847 C 0.35693 0.74712 0.41822
 C848 C 0.38069 0.72448 0.42463
 C849 C 0.40077 0.74889 0.43401
 C850 C 0.37739 0.77153 0.42800
 C851 C 0.36853 0.75021 0.38741
 C852 C 0.38862 0.77459 0.39679
 C853 C 0.39193 0.72760 0.39344
 C854 C 0.41227 0.75197 0.40315
 C855 C 0.42068 0.74833 0.45847
 C856 C 0.43962 0.74815 0.47621
 C857 C 0.35054 0.75080 0.36148
 C858 C 0.33485 0.75099 0.34080
 H859 H 0.33390 0.74513 0.42408
 H860 H 0.37754 0.70394 0.43640
 H861 H 0.37152 0.78950 0.44253
 H862 H 0.39180 0.79514 0.38503
 H863 H 0.39782 0.70962 0.37892
 H864 H 0.43528 0.75396 0.39720
 C865 C 0.11095 0.12028 0.22595
 C866 C 0.11434 0.08986 0.21288
 C867 C 0.10314 0.07678 0.24108
 C868 C 0.09945 0.10691 0.25415
 C869 C 0.14164 0.11806 0.23805
 C870 C 0.13044 0.10498 0.26625
 C871 C 0.14540 0.08796 0.22496
 C872 C 0.13382 0.07451 0.25321
 C873 C 0.08049 0.05498 0.24296
 C874 C 0.06040 0.03873 0.24469
 C875 C 0.16279 0.14136 0.23647
 C876 C 0.18027 0.16043 0.23522
 H877 H 0.10172 0.13932 0.21476
 H878 H 0.10754 0.08337 0.19093
 H879 H 0.08032 0.11449 0.26621
 H880 H 0.13722 0.11149 0.28820
 H881 H 0.16455 0.08044 0.21290
 H882 H 0.14300 0.05545 0.26440
 C883 C 0.64179 0.59643 0.76173
 C884 C 0.60893 0.60161 0.76362
 C885 C 0.60429 0.57813 0.74087
 C886 C 0.63681 0.57259 0.73900
 C887 C 0.64333 0.61885 0.73743
 C888 C 0.63874 0.59539 0.71466
 C889 C 0.61081 0.62431 0.73930
 C890 C 0.60587 0.60056 0.71658
 C891 C 0.58136 0.55666 0.74299
 C892 C 0.56107 0.54071 0.74493
 C893 C 0.66471 0.64191 0.73564
 C894 C 0.68231 0.66086 0.73426
 H895 H 0.65677 0.59502 0.78032
 H896 H 0.59648 0.60392 0.78381
 H897 H 0.64725 0.55109 0.73890
 H898 H 0.65121 0.59313 0.69447
 H899 H 0.60031 0.64578 0.73941
 H900 H 0.59090 0.60201 0.69799
 C901 C 0.89903 0.11438 0.72324
 C902 C 0.92984 0.12519 0.72986
 C903 C 0.93434 0.09944 0.75013
 C904 C 0.90389 0.08836 0.74349
 C905 C 0.88771 0.13162 0.74897
 C906 C 0.89225 0.10585 0.76921
 C907 C 0.91811 0.14279 0.75562
 C908 C 0.92301 0.11666 0.77588
 C909 C 0.95878 0.07951 0.75059
 C910 C 0.97644 0.06050 0.75066
 C911 C 0.86176 0.14956 0.74852
 C912 C 0.84106 0.16522 0.74851
 H913 H 0.88884 0.11351 0.70164
 H914 H 0.94561 0.13301 0.71379
 H915 H 0.89830 0.06572 0.73850
 H916 H 0.87650 0.09799 0.78529
 H917 H 0.92362 0.16545 0.76061
 H918 H 0.93321 0.11751 0.79748
 C919 C 0.39828 0.61297 0.22249
 C920 C 0.42927 0.62392 0.22787
 C921 C 0.43422 0.59900 0.24907
 C922 C 0.40358 0.58777 0.24367
 C923 C 0.38767 0.63130 0.24777
 C924 C 0.39265 0.60636 0.26893
 C925 C 0.41826 0.64261 0.25318
 C926 C 0.42361 0.61731 0.27436
 C927 C 0.45866 0.57905 0.24965
 C928 C 0.47639 0.56011 0.24987
 C929 C 0.36177 0.64933 0.24726
 C930 C 0.34112 0.66505 0.24722
 H931 H 0.38754 0.61126 0.20121
 H932 H 0.44465 0.63102 0.21110
 H933 H 0.39780 0.56497 0.23975
 H934 H 0.37730 0.59922 0.28571
 H935 H 0.42396 0.66543 0.25709
 H936 H 0.43435 0.61900 0.29564
 C937 C 0.09214 0.87797 0.72004
 C938 C 0.06383 0.88013 0.73747
 C939 C 0.07266 0.91035 0.74734
 C940 C 0.10062 0.90858 0.72993
 C941 C 0.10728 0.86554 0.74675
 C942 C 0.11602 0.89578 0.75661
 C943 C 0.07932 0.86726 0.76419
 C944 C 0.08780 0.89790 0.77404
 C945 C 0.05424 0.93591 0.74783
 C946 C 0.03987 0.95750 0.74833
 C947 C 0.12742 0.84128 0.74674
 C948 C 0.14479 0.82202 0.74713
 H949 H 0.09416 0.86949 0.69784
 H950 H 0.04214 0.87403 0.72962
 H951 H 0.10919 0.92585 0.71585
 H952 H 0.13768 0.90197 0.76448
 H953 H 0.07079 0.84998 0.77826
 H954 H 0.08581 0.90637 0.79624
 C955 C 0.59139 0.37509 0.22019
 C956 C 0.56300 0.37740 0.23747
 C957 C 0.57195 0.40756 0.24741
 C958 C 0.59999 0.40564 0.23014
 C959 C 0.60632 0.36255 0.24697
 C960 C 0.61517 0.39274 0.25690
 C961 C 0.57828 0.36442 0.26426
 C962 C 0.58688 0.39500 0.27417
 C963 C 0.55370 0.43327 0.24779
 C964 C 0.53954 0.45500 0.24820
 C965 C 0.62637 0.33820 0.24702
 C966 C 0.64371 0.31890 0.24743
 H967 H 0.59347 0.36662 0.19799
 H968 H 0.54131 0.37142 0.22950
 H969 H 0.60873 0.42286 0.21613
 H970 H 0.63683 0.39881 0.26488
 H971 H 0.56958 0.34717 0.27827
 H972 H 0.58482 0.40346 0.29638
 C973 C 0.87783 0.91940 0.23946
 C974 C 0.88203 0.94448 0.26096
 C975 C 0.91458 0.93893 0.26037
 C976 C 0.91071 0.91423 0.23885
 C977 C 0.87562 0.89837 0.26491
 C978 C 0.90818 0.89292 0.26431
 C979 C 0.87942 0.92306 0.28647
 C980 C 0.91235 0.91790 0.28582
 C981 C 0.93748 0.96019 0.25758
 C982 C 0.95780 0.97596 0.25513
 C983 C 0.85437 0.87535 0.26687
 C984 C 0.83686 0.85637 0.26778
 H985 H 0.86339 0.91970 0.22039
 H986 H 0.87159 0.96594 0.25954
 H987 H 0.92379 0.91087 0.21920
 H988 H 0.91871 0.87150 0.26571
 H989 H 0.86631 0.92635 0.30611
 H990 H 0.92679 0.91758 0.30487
 C991 C 0.37698 0.42100 0.74163
 C992 C 0.38121 0.44620 0.76300
 C993 C 0.41377 0.44078 0.76224
 C994 C 0.40988 0.41596 0.74085
 C995 C 0.37502 0.40008 0.76719
 C996 C 0.40759 0.39476 0.76642
 C997 C 0.37883 0.42488 0.78862
 C998 C 0.41178 0.41985 0.78779
 C999 C 0.43656 0.46212 0.75919
 C1000 C 0.45678 0.47796 0.75653
 C1001 C 0.35384 0.37702 0.76934
 C1002 C 0.33636 0.35802 0.77036
 H1003 H 0.36244 0.42115 0.72265
 H1004 H 0.37067 0.46761 0.76154
 H1005 H 0.42286 0.41257 0.72114
 H1006 H 0.41821 0.37338 0.76786
 H1007 H 0.36583 0.42821 0.80832
 H1008 H 0.42633 0.41969 0.80676
 C1009 C 0.12287 0.23765 0.92252
 C1010 C 0.11745 0.26039 0.94625
 C1011 C 0.08500 0.25781 0.94072
 C1012 C 0.09007 0.23505 0.91738
 C1013 C 0.12386 0.26187 0.89999
 C1014 C 0.09140 0.25928 0.89455
 C1015 C 0.11883 0.28465 0.92332
 C1016 C 0.08603 0.28201 0.91818
 C1017 C 0.06219 0.25545 0.96217
 C1018 C 0.04200 0.25342 0.97819
 C1019 C 0.14512 0.26393 0.87695
 C1020 C 0.16267 0.26537 0.85803
 H1021 H 0.13826 0.21940 0.92399
 H1022 H 0.12785 0.26081 0.96777
 H1023 H 0.07803 0.21459 0.91521
 H1024 H 0.08091 0.25884 0.87308
 H1025 H 0.13089 0.30510 0.92545
 H1026 H 0.07064 0.30026 0.91668
 C1027 C 0.59223 0.75936 0.39234
 C1028 C 0.59018 0.73468 0.41462
 C1029 C 0.58618 0.75707 0.43852
 C1030 C 0.58794 0.78172 0.41654
 C1031 C 0.62481 0.76058 0.39754
 C1032 C 0.62087 0.78299 0.42144
 C1033 C 0.62310 0.73590 0.41952
 C1034 C 0.61875 0.75828 0.44382
 C1035 C 0.56350 0.75503 0.46011
 C1036 C 0.54340 0.75328 0.47624
 C1037 C 0.64594 0.76238 0.37440
 C1038 C 0.66343 0.76366 0.35542
 H1039 H 0.58156 0.75982 0.37096
 H1040 H 0.57733 0.71476 0.41210
 H1041 H 0.57325 0.80057 0.41561
 H1042 H 0.63372 0.80291 0.42391
 H1043 H 0.63779 0.71706 0.42042
 H1044 H 0.62935 0.75781 0.46524
 C1045 C 0.88410 0.75423 0.89464
 C1046 C 0.90414 0.72910 0.90353
 C1047 C 0.92851 0.75077 0.90846
 C1048 C 0.90872 0.77590 0.89990
 C1049 C 0.89419 0.75087 0.86339
 C1050 C 0.91856 0.77256 0.86827
 C1051 C 0.91399 0.72572 0.87192
 C1052 C 0.93870 0.74740 0.87724
 C1053 C 0.94678 0.75075 0.93416
 C1054 C 0.96104 0.75082 0.95585
 C1055 C 0.87416 0.75089 0.83901
 C1056 C 0.85683 0.75085 0.81969
 H1057 H 0.86144 0.75705 0.90155
 H1058 H 0.89840 0.71124 0.91830
 H1059 H 0.90675 0.79654 0.91168
 H1060 H 0.92426 0.79042 0.85348
 H1061 H 0.91593 0.70508 0.86013
 H1062 H 0.96139 0.74458 0.87042
 C1063 C 0.38225 0.25488 0.39579
 C1064 C 0.40139 0.22928 0.40529
 C1065 C 0.42657 0.25014 0.40958
 C1066 C 0.40767 0.27576 0.40041
 C1067 C 0.39210 0.25032 0.36462
 C1068 C 0.41727 0.27122 0.36886
 C1069 C 0.41099 0.22469 0.37376
 C1070 C 0.43651 0.24558 0.37843
 C1071 C 0.44492 0.25011 0.43522
 C1072 C 0.45923 0.25020 0.45686
 C1073 C 0.37203 0.25039 0.34028
 C1074 C 0.35468 0.25040 0.32098
 H1075 H 0.35973 0.25872 0.40268
 H1076 H 0.39505 0.21203 0.42054
 H1077 H 0.40651 0.29676 0.41165
 H1078 H 0.42357 0.28846 0.35359
 H1079 H 0.41214 0.20370 0.36251
 H1080 H 0.45906 0.24175 0.37163
 C1081 C 0.10326 0.72726 0.11151
 C1082 C 0.07234 0.73262 0.12266
 C1083 C 0.06703 0.75335 0.09742
 C1084 C 0.09760 0.74797 0.08600
 C1085 C 0.11387 0.75290 0.12931
 C1086 C 0.10854 0.77361 0.10407
 C1087 C 0.08335 0.75829 0.14082
 C1088 C 0.07763 0.77901 0.11521
 C1089 C 0.04236 0.75331 0.07774
 C1090 C 0.02442 0.75299 0.05900
 C1091 C 0.13985 0.75251 0.14724
 C1092 C 0.16045 0.75211 0.16303
 H1093 H 0.11413 0.70603 0.11004
 H1094 H 0.05716 0.71586 0.13018
 H1095 H 0.10321 0.74370 0.06321
 H1096 H 0.12372 0.79037 0.09652
 H1097 H 0.07782 0.76256 0.16362
 H1098 H 0.06675 0.80024 0.11665
 C1099 C 0.58396 0.26393 0.64127
 C1100 C 0.58039 0.28024 0.61232
 C1101 C 0.56643 0.25329 0.59941
 C1102 C 0.56960 0.23696 0.62799
 C1103 C 0.61342 0.25286 0.63108
 C1104 C 0.59947 0.22592 0.61816
 C1105 C 0.61023 0.26916 0.60250
 C1106 C 0.59594 0.24224 0.58931
 C1107 C 0.54167 0.25320 0.57985
 C1108 C 0.52364 0.25280 0.56119
 C1109 C 0.63948 0.25247 0.64890
 C1110 C 0.66013 0.25206 0.66462
 H1111 H 0.57938 0.27291 0.66288
 H1112 H 0.57219 0.30256 0.60985
 H1113 H 0.55261 0.22382 0.63832
 H1114 H 0.60766 0.20360 0.62061
 H1115 H 0.62719 0.28231 0.59214
 H1116 H 0.60060 0.23326 0.56772
 C1117 C 0.86132 0.26031 0.10038
 C1118 C 0.89427 0.25934 0.10519
 C1119 C 0.89700 0.23852 0.07972
 C1120 C 0.86438 0.23951 0.07455
 C1121 C 0.85818 0.23432 0.12062
 C1122 C 0.86086 0.21346 0.09516
 C1123 C 0.89081 0.23334 0.12572
 C1124 C 0.89385 0.21253 0.09997
 C1125 C 0.91975 0.24107 0.05806
 C1126 C 0.93985 0.24327 0.04187
 C1127 C 0.83681 0.23233 0.14370
 C1128 C 0.81912 0.23110 0.16259
 H1129 H 0.84774 0.27998 0.10082
 H1130 H 0.90819 0.27829 0.10908
 H1131 H 0.85375 0.24207 0.05328
 H1132 H 0.84692 0.19452 0.09132
 H1133 H 0.90150 0.23078 0.14696
 H1134 H 0.90743 0.19286 0.09954
 C1135 C 0.35212 0.74603 0.58905
 C1136 C 0.37909 0.76552 0.58970
 C1137 C 0.39723 0.74015 0.57879
 C1138 C 0.37064 0.72066 0.57777
 C1139 C 0.35878 0.73648 0.62006
 C1140 C 0.37691 0.71111 0.60916
 C1141 C 0.38538 0.75594 0.62103
 C1142 C 0.40381 0.73061 0.60982
 C1143 C 0.41982 0.74238 0.55697
 C1144 C 0.43986 0.74431 0.54069
 C1145 C 0.33760 0.73477 0.64332
 C1146 C 0.32001 0.73374 0.66230
 H1147 H 0.33059 0.75236 0.58077
 H1148 H 0.38016 0.78791 0.58143
 H1149 H 0.36479 0.70623 0.55971
 H1150 H 0.37585 0.68873 0.61744
 H1151 H 0.39128 0.77039 0.63905
 H1152 H 0.42532 0.72428 0.61816
 C1153 C 0.24999 0.10548 0.88386
 C1154 C 0.27377 0.09841 0.90615
 C1155 C 0.25039 0.09161 0.92840
 C1156 C 0.22661 0.09835 0.90635
 C1157 C 0.24991 0.13681 0.89425
 C1158 C 0.22651 0.13005 0.91649
 C1159 C 0.27371 0.13012 0.91629
 C1160 C 0.25031 0.12292 0.93888
 C1161 C 0.25056 0.06582 0.94656
 C1162 C 0.25057 0.04406 0.96069
 C1163 C 0.24964 0.16127 0.87430
 C1164 C 0.24943 0.18065 0.85705
 H1165 H 0.24985 0.09854 0.86103
 H1166 H 0.29320 0.08512 0.90209
 H1167 H 0.20724 0.08500 0.90245
 H1168 H 0.20708 0.14334 0.92052
 H1169 H 0.29307 0.14347 0.92016
 H1170 H 0.25045 0.12975 0.96174
 C1171 C 0.72809 0.62957 0.41517
 C1172 C 0.72651 0.59782 0.40531
 C1173 C 0.75104 0.59034 0.42626
 C1174 C 0.75264 0.62169 0.43647
 C1175 C 0.75065 0.63528 0.39179
 C1176 C 0.77520 0.62784 0.41274
 C1177 C 0.74905 0.60390 0.38167
 C1178 C 0.77358 0.59609 0.40288
 C1179 C 0.75116 0.56474 0.44464
 C1180 C 0.75110 0.54317 0.45904
 C1181 C 0.75041 0.65961 0.37173
 C1182 C 0.75021 0.67893 0.35441
 H1183 H 0.70939 0.64362 0.42000
 H1184 H 0.70649 0.58519 0.40245
 H1185 H 0.75412 0.62866 0.45924
 H1186 H 0.79521 0.64048 0.41558
 H1187 H 0.74756 0.59684 0.35893
 H1188 H 0.79228 0.58205 0.39802
 C1189 C 0.73173 0.10462 0.09271
 C1190 C 0.75917 0.08707 0.08592
 C1191 C 0.74118 0.05942 0.08618
 C1192 C 0.71375 0.07667 0.09266
 C1193 C 0.73763 0.10027 0.12492
 C1194 C 0.71961 0.07263 0.12526
 C1195 C 0.76507 0.08302 0.11846
 C1196 C 0.74710 0.05499 0.11839
 C1197 C 0.74331 0.03794 0.06341
 C1198 C 0.74520 0.02194 0.04322
 C1199 C 0.73585 0.12336 0.14611
 C1200 C 0.73464 0.14233 0.16361
 H1201 H 0.72542 0.12526 0.08238
 H1202 H 0.77551 0.09273 0.06950
 H1203 H 0.69266 0.07375 0.08183
 H1204 H 0.70328 0.06703 0.14170
 H1205 H 0.78616 0.08596 0.12929
 H1206 H 0.75342 0.03431 0.12864
 C1207 C 0.26276 0.58071 0.62321
 C1208 C 0.24007 0.55679 0.61855
 C1209 C 0.24177 0.56208 0.58599
 C1210 C 0.26448 0.58562 0.59030
 C1211 C 0.23842 0.60308 0.62466
 C1212 C 0.24013 0.60829 0.59209
 C1213 C 0.21569 0.57956 0.62040
 C1214 C 0.21744 0.58446 0.58748
 C1215 C 0.24374 0.54043 0.56331
 C1216 C 0.24545 0.52421 0.54324
 C1217 C 0.23672 0.62624 0.64585
 C1218 C 0.23555 0.64523 0.66337
 H1219 H 0.28141 0.57949 0.63813
 H1220 H 0.24008 0.53536 0.62913
 H1221 H 0.28460 0.58784 0.57771
 H1222 H 0.24013 0.62968 0.58143
 H1223 H 0.19557 0.57738 0.63300
 H1224 H 0.19879 0.58572 0.57256
 C1225 C 0.78489 0.90590 0.85949
 C1226 C 0.75838 0.92581 0.86358
 C1227 C 0.76036 0.92085 0.89620
 C1228 C 0.78681 0.90131 0.89248
 C1229 C 0.76469 0.87987 0.85750
 C1230 C 0.76666 0.87499 0.89013
 C1231 C 0.73824 0.89940 0.86120
 C1232 C 0.74019 0.89480 0.89414
 C1233 C 0.75773 0.94245 0.91894
 C1234 C 0.75545 0.95851 0.93913
 C1235 C 0.76676 0.85673 0.83626
 C1236 C 0.76808 0.83776 0.81868
 H1237 H 0.80334 0.91016 0.84502
 H1238 H 0.75495 0.94694 0.85292
 H1239 H 0.80679 0.90237 0.90555
 H1240 H 0.77008 0.85389 0.90085
 H1241 H 0.71825 0.89832 0.84814
 H1242 H 0.72174 0.89048 0.90859
 C1243 C 0.28349 0.40547 0.36080
 C1244 C 0.25731 0.42587 0.36459
 C1245 C 0.25893 0.42103 0.39725
 C1246 C 0.28505 0.40100 0.39382
 C1247 C 0.26285 0.37979 0.35872
 C1248 C 0.26446 0.37502 0.39139
 C1249 C 0.23672 0.39982 0.36213
 C1250 C 0.23832 0.39533 0.39512
 C1251 C 0.25657 0.44289 0.41985
 C1252 C 0.25454 0.45924 0.43986
 C1253 C 0.26475 0.35653 0.33751
 C1254 C 0.26599 0.33752 0.31993
 H1255 H 0.30214 0.40936 0.34647
 H1256 H 0.25436 0.44700 0.35379
 H1257 H 0.30495 0.40174 0.40704
 H1258 H 0.26741 0.35392 0.40224
 H1259 H 0.21682 0.39906 0.34892
 H1260 H 0.21966 0.39140 0.40942
 C1261 C 0.27501 0.88155 0.09803
 C1262 C 0.26265 0.87256 0.06840
 C1263 C 0.24766 0.90193 0.06596
 C1264 C 0.26003 0.91118 0.09523
 C1265 C 0.24789 0.86982 0.11267
 C1266 C 0.23292 0.89919 0.11020
 C1267 C 0.23550 0.86048 0.08344
 C1268 C 0.22053 0.89021 0.08060
 C1269 C 0.24783 0.92171 0.04136
 C1270 C 0.24826 0.94051 0.02348
 C1271 C 0.24816 0.85180 0.13860
 C1272 C 0.24848 0.83597 0.15918
 H1273 H 0.29741 0.87793 0.10555
 H1274 H 0.27478 0.86178 0.05094
 H1275 H 0.27019 0.93226 0.09981
 H1276 H 0.22079 0.91001 0.12763
 H1277 H 0.22534 0.83939 0.07894
 H1278 H 0.19813 0.89385 0.07309
 C1279 C 0.77461 0.38194 0.59994
 C1280 C 0.76314 0.37238 0.57014
 C1281 C 0.74740 0.40130 0.56714
 C1282 C 0.75889 0.41112 0.59658
 C1283 C 0.74752 0.36958 0.61410
 C1284 C 0.73180 0.39850 0.61107
 C1285 C 0.73601 0.35967 0.58470
 C1286 C 0.72029 0.38895 0.58130
 C1287 C 0.74766 0.42083 0.54237
 C1288 C 0.74820 0.43941 0.52428
 C1289 C 0.74776 0.35173 0.64012
 C1290 C 0.74808 0.33596 0.66073
 H1291 H 0.79694 0.37899 0.60795
 H1292 H 0.77593 0.36180 0.55303
 H1293 H 0.76836 0.43251 0.60119
 H1294 H 0.71901 0.40912 0.62816
 H1295 H 0.72654 0.33827 0.58017
 H1296 H 0.69797 0.39192 0.57328
 C1297 C 0.09725 0.14213 0.74003
 C1298 C 0.10205 0.10921 0.73838
 C1299 C 0.07783 0.10496 0.76040
 C1300 C 0.07266 0.13755 0.76203
 C1301 C 0.11894 0.14346 0.76500
 C1302 C 0.09475 0.13926 0.78705
 C1303 C 0.12403 0.11087 0.76336
 C1304 C 0.09953 0.10631 0.78536
 C1305 C 0.05612 0.08231 0.75762
 C1306 C 0.03998 0.06221 0.75523
 C1307 C 0.14217 0.16462 0.76719
 C1308 C 0.16118 0.18215 0.76857
 H1309 H 0.09659 0.15707 0.72137
 H1310 H 0.10480 0.09667 0.71829
 H1311 H 0.05131 0.14827 0.76144
 H1312 H 0.09204 0.15182 0.80713
 H1313 H 0.14535 0.10008 0.76395
 H1314 H 0.10021 0.09137 0.80402
 C1315 C 0.62136 0.61094 0.27611
 C1316 C 0.59024 0.61473 0.28728
 C1317 C 0.57880 0.60258 0.25876
 C1318 C 0.60962 0.59849 0.24758
 C1319 C 0.61987 0.64121 0.26289
 C1320 C 0.60842 0.62906 0.23438
 C1321 C 0.58906 0.64539 0.27409
 C1322 C 0.57726 0.63285 0.24552
 C1323 C 0.55707 0.57991 0.25626
 C1324 C 0.54083 0.55984 0.25413
 C1325 C 0.64304 0.66247 0.26487
 C1326 C 0.66200 0.68008 0.26612
 H1327 H 0.63972 0.60210 0.28867
 H1328 H 0.58248 0.60866 0.30901
 H1329 H 0.61787 0.57897 0.23661
 H1330 H 0.61617 0.63510 0.21264
 H1331 H 0.58087 0.66492 0.28506
 H1332 H 0.55888 0.64165 0.23295
 C1333 C 0.13753 0.91452 0.23091
 C1334 C 0.10601 0.91596 0.22001
 C1335 C 0.09793 0.93306 0.24705
 C1336 C 0.12909 0.93203 0.25800
 C1337 C 0.13035 0.88656 0.24710
 C1338 C 0.12227 0.90365 0.27415
 C1339 C 0.09920 0.88765 0.23619
 C1340 C 0.09084 0.90505 0.26322
 C1341 C 0.07793 0.95746 0.24735
 C1342 C 0.05888 0.97509 0.24788
 C1343 C 0.14847 0.86071 0.24729
 C1344 C 0.16433 0.84016 0.24754
 H1345 H 0.15694 0.91806 0.21755
 H1346 H 0.09924 0.92137 0.19772
 H1347 H 0.14119 0.95053 0.26689
 H1348 H 0.12903 0.89823 0.29644
 H1349 H 0.08705 0.86917 0.22730
 H1350 H 0.07144 0.90143 0.27659
 C1351 C 0.63631 0.41328 0.72967
 C1352 C 0.60395 0.41446 0.72166
 C1353 C 0.59858 0.43351 0.74807
 C1354 C 0.63061 0.43274 0.75612
 C1355 C 0.63040 0.38662 0.74836
 C1356 C 0.62505 0.40565 0.77479
 C1357 C 0.59838 0.38744 0.74034
 C1358 C 0.59275 0.40680 0.76675
 C1359 C 0.57900 0.45823 0.74823
 C1360 C 0.56035 0.47626 0.74867
 C1361 C 0.64827 0.36061 0.74867
 C1362 C 0.66404 0.34000 0.74900
 H1363 H 0.65441 0.41558 0.71434
 H1364 H 0.59518 0.41844 0.69976
 H1365 H 0.64366 0.45162 0.76254
 H1366 H 0.63381 0.40166 0.79668
 H1367 H 0.58529 0.36859 0.73392
 H1368 H 0.57466 0.40443 0.78208
 C1369 C 0.86889 0.08182 0.22794
 C1370 C 0.90061 0.09169 0.22601
 C1371 C 0.90833 0.07091 0.25062
 C1372 C 0.87701 0.06069 0.25257
 C1373 C 0.86334 0.10534 0.25040
 C1374 C 0.87102 0.08457 0.27503
 C1375 C 0.89469 0.11547 0.24845
 C1376 C 0.90274 0.09444 0.27306
 C1377 C 0.93398 0.05257 0.25067
 C1378 C 0.95562 0.03826 0.25058
 C1379 C 0.83900 0.12542 0.25027
 C1380 C 0.81972 0.14278 0.25019
 H1381 H 0.85469 0.07685 0.20938
 H1382 H 0.91306 0.09443 0.20586
 H1383 H 0.87007 0.03793 0.25427
 H1384 H 0.85857 0.08185 0.29518
 H1385 H 0.90172 0.13820 0.24675
 H1386 H 0.91693 0.09944 0.29162
 C1387 C 0.36972 0.58471 0.72813
 C1388 C 0.40148 0.59451 0.72635
 C1389 C 0.40902 0.57372 0.75101
 C1390 C 0.37767 0.56357 0.75281
 C1391 C 0.36412 0.60825 0.75056
 C1392 C 0.37164 0.58747 0.77523
 C1393 C 0.39550 0.61831 0.74876
 C1394 C 0.40339 0.59727 0.77341
 C1395 C 0.43463 0.55534 0.75117
 C1396 C 0.45624 0.54099 0.75117
 C1397 C 0.33984 0.62838 0.75032
 C1398 C 0.32059 0.64577 0.75014
 H1399 H 0.35559 0.57977 0.70951
 H1400 H 0.41402 0.59721 0.70626
 H1401 H 0.37068 0.54083 0.75448
 H1402 H 0.35908 0.58479 0.79532
 H1403 H 0.40259 0.64102 0.74709
 H1404 H 0.41750 0.60224 0.79203
 C1405 C 0.90563 0.89789 0.71363
 C1406 C 0.90747 0.92132 0.73710
 C1407 C 0.93969 0.91470 0.74069
 C1408 C 0.93819 0.89159 0.71722
 C1409 C 0.89921 0.87557 0.73713
 C1410 C 0.93141 0.86886 0.74072
 C1411 C 0.90075 0.89871 0.76057
 C1412 C 0.93328 0.89240 0.76421
 C1413 C 0.96094 0.93768 0.74282
 C1414 C 0.97678 0.95800 0.74471
 C1415 C 0.87630 0.85419 0.73538
 C1416 C 0.85744 0.83656 0.73420
 H1417 H 0.89396 0.89994 0.69286
 H1418 H 0.89787 0.94317 0.73564
 H1419 H 0.95388 0.88890 0.69949
 H1420 H 0.94094 0.84699 0.74218
 H1421 H 0.88509 0.90144 0.77833
 H1422 H 0.94495 0.89037 0.78498
 C1423 C 0.40430 0.39688 0.21445
 C1424 C 0.40647 0.42048 0.23773
 C1425 C 0.43861 0.41348 0.24133
 C1426 C 0.43679 0.39020 0.21806
 C1427 C 0.39762 0.37483 0.23813
 C1428 C 0.42974 0.36774 0.24173
 C1429 C 0.39949 0.39813 0.26138
 C1430 C 0.43194 0.39144 0.26503
 C1431 C 0.46021 0.43618 0.24323
 C1432 C 0.47635 0.45628 0.24490
 C1433 C 0.37449 0.35366 0.23652
 C1434 C 0.35552 0.33614 0.23542
 H1435 H 0.39264 0.39892 0.19367
 H1436 H 0.39715 0.44243 0.23611
 H1437 H 0.45242 0.38716 0.20032
 H1438 H 0.43901 0.34577 0.24336
 H1439 H 0.38388 0.40120 0.27913
 H1440 H 0.44361 0.38942 0.28581
   
