data_POSCAR
  _audit_creation_date              2014-09-24
  _audit_creation_method            'ToBaCCo'
  _symmetry_space_group_name_H-M    'P1'
  _symmetry_Int_Tables_number       1
  _symmetry_cell_setting            triclinic
  loop_
  _symmetry_equiv_pos_as_xyz
 x,y,z
_cell_length_a 54.0347
_cell_length_b 55.0531
_cell_length_c 54.8509
_cell_angle_alpha 89.134600
_cell_angle_beta 90.909600
_cell_angle_gamma 89.895800
loop_
  _atom_site_label
  _atom_site_type_symbol
  _atom_site_fract_x
  _atom_site_fract_y
  _atom_site_fract_z
C1 C 0.72519 0.65905 0.96073
 H2 H 0.74115 0.66148 0.94930
 C3 C 0.70337 0.67177 0.95525
 H4 H 0.70292 0.68438 0.93991
 C5 C 0.70600 0.63874 0.99377
 H6 H 0.70686 0.62548 1.00847
 C7 C 0.68382 0.65106 0.98894
 H8 H 0.66784 0.64690 0.99989
 N9 N 0.72590 0.64234 0.97926
 C10 C 0.80255 0.62571 1.00011
 H11 H 0.80102 0.60625 1.00240
 C12 C 0.82430 0.63728 1.00739
 H13 H 0.83952 0.62656 1.01486
 C14 C 0.78421 0.66346 0.98891
 H15 H 0.76842 0.67370 0.98218
 C16 C 0.80583 0.67576 0.99565
 H17 H 0.80644 0.69539 0.99414
 Zn18 Zn 0.75368 0.62129 0.98313
 N19 N 0.78294 0.63883 0.99122
 C20 C 0.77874 0.58987 0.95156
 N21 N 0.75844 0.60428 0.95365
 C22 C 0.74193 0.60705 0.93478
 C23 C 0.74639 0.59641 0.91233
 C24 C 0.78384 0.57879 0.92949
 C25 C 0.75466 0.60322 1.03156
 C26 C 0.74743 0.58815 1.05085
 C27 C 0.72436 0.56394 1.02208
 C28 C 0.73235 0.57935 1.00336
 N29 N 0.74691 0.59871 1.00843
 H30 H 0.79133 0.58734 0.96684
 H31 H 0.72533 0.61765 0.93693
 H32 H 0.73330 0.59922 0.89740
 H33 H 0.80062 0.56818 0.92795
 H34 H 0.76563 0.61918 1.03527
 H35 H 0.75302 0.59368 1.06892
 H36 H 0.71334 0.54849 1.01678
 H37 H 0.72643 0.57618 0.98475
 C38 C 0.82605 0.66262 1.00533
 C39 C 0.68209 0.66727 0.96899
 C40 C 0.73126 0.56832 1.04668
 C41 C 0.76781 0.58244 0.90937
 C42 C 0.74031 0.34781 0.52145
 H43 H 0.75868 0.34716 0.52959
 C44 C 0.72171 0.33296 0.53079
 H45 H 0.72609 0.32064 0.54582
 C46 C 0.71227 0.36508 0.49242
 H47 H 0.70846 0.37803 0.47784
 C48 C 0.69308 0.35061 0.50125
 H49 H 0.67469 0.35272 0.49338
 N50 N 0.73531 0.36369 0.50275
 C51 C 0.80925 0.38098 0.47516
 H52 H 0.80850 0.40053 0.47374
 C53 C 0.83040 0.36876 0.46751
 H54 H 0.84570 0.37915 0.46032
 C55 C 0.78959 0.34366 0.48438
 H56 H 0.77346 0.33375 0.49010
 C57 C 0.81037 0.33075 0.47713
 H58 H 0.81007 0.31111 0.47824
 Zn59 Zn 0.76033 0.38572 0.49217
 N60 N 0.78939 0.36838 0.48352
 C61 C 0.78324 0.42690 0.51390
 N62 N 0.76758 0.40792 0.51769
 C63 C 0.75712 0.40419 0.53982
 C64 C 0.76331 0.41884 0.55945
 C65 C 0.78958 0.44238 0.53299
 C66 C 0.74613 0.38877 0.44364
 C67 C 0.73598 0.39885 0.42229
 C68 C 0.73178 0.43714 0.44284
 C69 C 0.74193 0.42624 0.46395
 N70 N 0.74859 0.40239 0.46398
 H71 H 0.79072 0.43020 0.49602
 H72 H 0.74421 0.38957 0.54259
 H73 H 0.75559 0.41449 0.57706
 H74 H 0.80194 0.45743 0.52945
 H75 H 0.75159 0.36985 0.44423
 H76 H 0.73386 0.38762 0.40636
 H77 H 0.72585 0.45593 0.44321
 H78 H 0.74379 0.43664 0.48043
 C79 C 0.83109 0.34326 0.46831
 C80 C 0.69758 0.33456 0.52097
 C81 C 0.72829 0.42323 0.42182
 C82 C 0.77995 0.43817 0.55635
 C83 C 0.21993 -0.14598 0.03668
 H84 H 0.23636 -0.14799 0.04807
 C85 C 0.19754 -0.15610 0.04417
 H86 H 0.19693 -0.16573 0.06149
 C87 C 0.20062 -0.12976 0.00093
 H88 H 0.20172 -0.11912 -0.01571
 C89 C 0.17793 -0.13971 0.00761
 H90 H 0.16201 -0.13704 -0.00436
 N91 N 0.22107 -0.13306 0.01542
 C92 C 0.29756 -0.13067 -0.00813
 H93 H 0.29932 -0.11114 -0.00970
 C94 C 0.31693 -0.14557 -0.01517
 H95 H 0.33345 -0.13728 -0.02246
 C96 C 0.27311 -0.16493 0.00211
 H97 H 0.25584 -0.17230 0.00857
 C98 C 0.29213 -0.18060 -0.00476
 H99 H 0.28943 -0.20004 -0.00322
 Zn100 Zn 0.25122 -0.11767 0.00723
 N101 N 0.27621 -0.14047 0.00027
 C102 C 0.28230 -0.10636 0.04683
 N103 N 0.26172 -0.09882 0.03422
 C104 C 0.24808 -0.07966 0.04190
 C105 C 0.25546 -0.06687 0.06267
 C106 C 0.29003 -0.09443 0.06782
 C107 C 0.24375 -0.11256 -0.04222
 C108 C 0.23954 -0.10146 -0.06488
 C109 C 0.24141 -0.06249 -0.04539
 C110 C 0.24599 -0.07448 -0.02308
 N111 N 0.24651 -0.09911 -0.02185
 H112 H 0.29251 -0.12206 0.04102
 H113 H 0.23132 -0.07448 0.03209
 H114 H 0.24451 -0.05163 0.06862
 H115 H 0.30646 -0.10073 0.07759
 H116 H 0.24427 -0.13218 -0.04074
 H117 H 0.23605 -0.11342 -0.07998
 H118 H 0.24183 -0.04287 -0.04535
 H119 H 0.24904 -0.06403 -0.00681
 C120 C 0.31438 -0.17091 -0.01367
 C121 C 0.17607 -0.15291 0.02961
 C122 C 0.23777 -0.07585 -0.06710
 C123 C 0.27658 -0.07444 0.07597
 C124 C 0.24838 0.17704 0.47440
 H125 H 0.26646 0.18330 0.46900
 C126 C 0.22709 0.18829 0.46465
 H127 H 0.22879 0.20341 0.45193
 C128 C 0.22382 0.14904 0.49660
 H129 H 0.22252 0.13338 0.50860
 C130 C 0.20222 0.15933 0.48690
 H131 H 0.18445 0.15181 0.49183
 N132 N 0.24635 0.15817 0.49058
 C133 C 0.31859 0.15208 0.52691
 H134 H 0.31901 0.13244 0.52782
 C135 C 0.33809 0.16530 0.53682
 H136 H 0.35362 0.15566 0.54513
 C137 C 0.29774 0.18831 0.51482
 H138 H 0.28170 0.19721 0.50682
 C139 C 0.31705 0.20236 0.52447
 H140 H 0.31578 0.22198 0.52365
 Zn141 Zn 0.27446 0.14203 0.50425
 N142 N 0.29904 0.16360 0.51596
 C143 C 0.31089 0.12706 0.47134
 N144 N 0.28794 0.12200 0.47989
 C145 C 0.27392 0.10401 0.47006
 C146 C 0.28304 0.09011 0.45099
 C147 C 0.32071 0.11362 0.45244
 C148 C 0.25339 0.13789 0.54919
 C149 C 0.24264 0.12706 0.56949
 C150 C 0.25551 0.08785 0.55495
 C151 C 0.26571 0.09947 0.53453
 N152 N 0.26397 0.12404 0.53186
 H153 H 0.32143 0.14197 0.47869
 H154 H 0.25555 0.10063 0.47687
 H155 H 0.27170 0.07579 0.44345
 H156 H 0.33881 0.11833 0.44564
 H157 H 0.25251 0.15740 0.54667
 H158 H 0.23355 0.13830 0.58271
 H159 H 0.25631 0.06824 0.55670
 H160 H 0.27451 0.08886 0.52067
 C161 C 0.33748 0.19078 0.53577
 C162 C 0.20374 0.17929 0.47092
 C163 C 0.24330 0.10175 0.57234
 C164 C 0.30677 0.09488 0.44195
 C165 C 0.14271 0.48795 0.21892
 H166 H 0.15275 0.49798 0.23263
 C167 C 0.15554 0.47743 0.19979
 H168 H 0.17543 0.47949 0.19882
 C169 C 0.10475 0.47235 0.20360
 H170 H 0.08491 0.47048 0.20526
 C171 C 0.11684 0.46124 0.18451
 H172 H 0.10622 0.45091 0.17136
 N173 N 0.11772 0.48536 0.22034
 C174 C 0.11813 0.50072 0.29412
 H175 H 0.10578 0.48583 0.29811
 C176 C 0.13259 0.51044 0.31288
 H177 H 0.13113 0.50290 0.33115
 C178 C 0.13383 0.52961 0.26593
 H179 H 0.13393 0.53714 0.24760
 C180 C 0.14863 0.53988 0.28412
 H181 H 0.16038 0.55513 0.27954
 Zn182 Zn 0.09869 0.49808 0.24584
 N183 N 0.11912 0.51028 0.27114
 C184 C 0.09206 0.45193 0.26464
 N185 N 0.07924 0.47204 0.25730
 C186 C 0.05406 0.47216 0.25612
 C187 C 0.04080 0.45123 0.26241
 C188 C 0.07962 0.43078 0.27118
 C189 C 0.08069 0.53071 0.20988
 C190 C 0.06730 0.55054 0.20070
 C191 C 0.05008 0.55608 0.24063
 C192 C 0.06383 0.53602 0.24908
 N193 N 0.07872 0.52381 0.23366
 H194 H 0.11208 0.45228 0.26502
 H195 H 0.04428 0.48819 0.24966
 H196 H 0.02080 0.45138 0.26088
 H197 H 0.09030 0.41510 0.27724
 H198 H 0.09308 0.52120 0.19806
 H199 H 0.06968 0.55606 0.18185
 H200 H 0.03830 0.56562 0.25309
 H201 H 0.06289 0.53032 0.26800
 C202 C 0.14805 0.53035 0.30802
 C203 C 0.14253 0.46372 0.18247
 C204 C 0.05178 0.56356 0.21612
 C205 C 0.05365 0.43006 0.26974
 C206 C -0.17382 0.01842 0.24359
 H207 H -0.17754 0.02522 0.26157
 C208 C -0.18746 0.02721 0.22343
 H209 H -0.20226 0.03979 0.22700
 C210 C -0.15015 -0.00664 0.21828
 H211 H -0.13494 -0.01915 0.21614
 C212 C -0.16293 0.00194 0.19759
 H213 H -0.15654 -0.00433 0.18024
 N214 N -0.15565 0.00170 0.24073
 C215 C -0.13909 -0.02688 0.31429
 H216 H -0.11911 -0.02603 0.31351
 C217 C -0.15039 -0.03573 0.33530
 H218 H -0.13893 -0.04195 0.35052
 C219 C -0.17811 -0.02048 0.29491
 H220 H -0.18882 -0.01483 0.27903
 C221 C -0.19021 -0.02931 0.31559
 H222 H -0.21023 -0.02997 0.31551
 Zn223 Zn -0.13496 -0.00748 0.26764
 N224 N -0.15297 -0.01918 0.29476
 C225 C -0.11914 0.02999 0.29892
 N226 N -0.11669 0.02035 0.27641
 C227 C -0.10227 0.03117 0.25930
 C228 C -0.08902 0.05220 0.26480
 C229 C -0.10627 0.05096 0.30517
 C230 C -0.12529 -0.05388 0.25191
 C231 C -0.11175 -0.07315 0.24274
 C232 C -0.07440 -0.04962 0.24813
 C233 C -0.08873 -0.03068 0.25719
 N234 N -0.11378 -0.03293 0.25824
 H235 H -0.13138 0.02171 0.31197
 H236 H -0.10108 0.02340 0.24135
 H237 H -0.07731 0.06034 0.25110
 H238 H -0.10875 0.05850 0.32309
 H239 H -0.14519 -0.05527 0.25331
 H240 H -0.12136 -0.08948 0.23728
 H241 H -0.05460 -0.04727 0.24647
 H242 H -0.07989 -0.01406 0.26282
 C243 C -0.17630 -0.03699 0.33619
 C244 C -0.18197 0.01945 0.19960
 C245 C -0.08604 -0.07094 0.24019
 C246 C -0.09085 0.06229 0.28807
 C247 C 0.32066 0.51522 0.71774
 H248 H 0.31794 0.52474 0.73459
 C249 C 0.30717 0.52220 0.69682
 H250 H 0.29399 0.53698 0.69776
 C251 C 0.34247 0.48570 0.69551
 H252 H 0.35659 0.47183 0.69485
 C253 C 0.32963 0.49230 0.67414
 H254 H 0.33382 0.48325 0.65730
 N255 N 0.33805 0.49733 0.71673
 C256 C 0.35216 0.47011 0.79097
 H257 H 0.37179 0.46688 0.78962
 C258 C 0.33999 0.46293 0.81209
 H259 H 0.35052 0.45443 0.82686
 C260 C 0.31440 0.48325 0.77263
 H261 H 0.30434 0.49075 0.75715
 C262 C 0.30145 0.47630 0.79347
 H263 H 0.28161 0.47900 0.79387
 Zn264 Zn 0.35848 0.48981 0.74448
 N265 N 0.33942 0.48048 0.77191
 C266 C 0.39375 0.51588 0.77223
 N267 N 0.37799 0.51746 0.75268
 C268 C 0.37533 0.53867 0.73980
 C269 C 0.38764 0.55965 0.74732
 C270 C 0.40651 0.53633 0.78028
 C271 C 0.36778 0.44117 0.73499
 C272 C 0.38167 0.42047 0.73010
 C273 C 0.41857 0.44521 0.73041
 C274 C 0.40393 0.46548 0.73523
 N275 N 0.37902 0.46309 0.73738
 H276 H 0.39633 0.49881 0.78182
 H277 H 0.36324 0.53961 0.72397
 H278 H 0.38440 0.57654 0.73742
 H279 H 0.41877 0.53463 0.79602
 H280 H 0.34791 0.43983 0.73679
 H281 H 0.37225 0.40330 0.72777
 H282 H 0.43840 0.44741 0.72898
 H283 H 0.41247 0.48310 0.73717
 C284 C 0.31432 0.46615 0.81362
 C285 C 0.31196 0.51097 0.67459
 C286 C 0.40744 0.42231 0.72774
 C287 C 0.40305 0.55876 0.76817
 C288 C 0.65062 0.99242 0.73099
 H289 H 0.65347 1.01007 0.73896
 C290 C 0.66369 0.98591 0.71019
 H291 H 0.67696 0.99848 0.70252
 C292 C 0.62938 0.95482 0.73088
 H293 H 0.61546 0.94297 0.73835
 C294 C 0.64200 0.94761 0.71026
 H295 H 0.63758 0.93023 0.70233
 N296 N 0.63386 0.97686 0.74090
 C297 C 0.61879 0.99776 0.81575
 H298 H 0.59880 0.99774 0.81436
 C299 C 0.63039 1.00295 0.83792
 H300 H 0.61866 1.00764 0.85291
 C301 C 0.65745 0.99304 0.79675
 H302 H 0.66785 0.98882 0.78069
 C303 C 0.66993 0.99827 0.81861
 H304 H 0.68991 0.99737 0.81877
 Zn305 Zn 0.61368 0.98682 0.76700
 N306 N 0.63232 0.99325 0.79568
 C307 C 0.60340 0.94205 0.78634
 N308 N 0.59189 0.96112 0.77495
 C309 C 0.56729 0.96040 0.76918
 C310 C 0.55360 0.93925 0.77390
 C311 C 0.59053 0.92080 0.79141
 C312 C 0.58315 1.01515 0.73565
 C313 C 0.57405 1.03682 0.72534
 C314 C 0.59337 1.05871 0.75837
 C315 C 0.60196 1.03665 0.76810
 N316 N 0.59705 1.01548 0.75651
 H317 H 0.62291 0.94318 0.79087
 H318 H 0.55845 0.97587 0.76033
 H319 H 0.53426 0.93853 0.76853
 H320 H 0.60024 0.90582 0.80035
 H321 H 0.57999 0.99816 0.72647
 H322 H 0.56331 1.03621 0.70854
 H323 H 0.59859 1.07538 0.76730
 H324 H 0.61365 1.03670 0.78424
 C325 C 0.65649 1.00358 0.83984
 C326 C 0.65937 0.96321 0.69955
 C327 C 0.57966 1.05908 0.73642
 C328 C 0.56547 0.91890 0.78462
 C329 C 0.02133 0.23625 -0.16387
 H330 H 0.02833 0.25458 -0.16240
 C331 C 0.03455 0.21905 -0.17684
 H332 H 0.05138 0.22453 -0.18582
 C333 C -0.00873 0.20685 -0.15322
 H334 H -0.02516 0.20197 -0.14332
 C335 C 0.00403 0.18899 -0.16583
 H336 H -0.00284 0.17053 -0.16545
 N337 N 0.00017 0.22992 -0.15232
 C338 C -0.03674 0.29842 -0.13661
 H339 H -0.04115 0.29472 -0.11774
 C340 C -0.04274 0.32090 -0.14718
 H341 H -0.05225 0.33423 -0.13642
 C342 C -0.01891 0.28539 -0.17338
 H343 H -0.00952 0.27155 -0.18349
 C344 C -0.02453 0.30771 -0.18469
 H345 H -0.01910 0.31088 -0.20338
 Zn346 Zn -0.01412 0.25329 -0.13184
 N347 N -0.02446 0.28146 -0.14953
 C348 C 0.01893 0.28538 -0.10844
 N349 N 0.01092 0.26201 -0.10908
 C350 C 0.02200 0.24433 -0.09513
 C351 C 0.04190 0.24995 -0.07962
 C352 C 0.03868 0.29178 -0.09326
 C353 C -0.06201 0.23430 -0.12965
 C354 C -0.08341 0.22526 -0.11887
 C355 C -0.06351 0.22939 -0.07947
 C356 C -0.04255 0.23839 -0.09110
 N357 N -0.04207 0.24042 -0.11577
 H358 H 0.01057 0.29906 -0.12022
 H359 H 0.01558 0.22577 -0.09636
 H360 H 0.05051 0.23568 -0.06864
 H361 H 0.04515 0.31038 -0.09362
 H362 H -0.06118 0.23625 -0.14929
 H363 H -0.09801 0.21957 -0.13114
 H364 H -0.06300 0.22933 -0.05978
 H365 H -0.02682 0.24416 -0.08029
 C366 C -0.03613 0.32602 -0.17138
 C367 C 0.02622 0.19490 -0.17755
 C368 C -0.08477 0.22239 -0.09316
 C369 C 0.05053 0.27398 -0.07863
 C370 C 0.46240 0.21906 0.13503
 H371 H 0.44952 0.22744 0.12224
 C372 C 0.45416 0.20036 0.15019
 H373 H 0.43501 0.19472 0.14879
 C374 C 0.50311 0.21515 0.15128
 H375 H 0.52225 0.22090 0.15134
 C376 C 0.49562 0.19617 0.16679
 H377 H 0.50904 0.18758 0.17900
 N378 N 0.48644 0.22631 0.13595
 C379 C 0.51258 0.29879 0.11622
 H380 H 0.50968 0.29774 0.09671
 C381 C 0.51998 0.32063 0.12657
 H382 H 0.52313 0.33631 0.11487
 C383 C 0.51185 0.27952 0.15515
 H384 H 0.50822 0.26357 0.16623
 C385 C 0.51967 0.30097 0.16625
 H386 H 0.52218 0.30135 0.18587
 Zn387 Zn 0.49663 0.25120 0.11393
 N388 N 0.50862 0.27883 0.13052
 C389 C 0.45233 0.27493 0.10905
 N390 N 0.46853 0.26202 0.09566
 C391 C 0.46365 0.25700 0.07183
 C392 C 0.44095 0.26393 0.06108
 C393 C 0.42972 0.28236 0.09904
 C394 C 0.54536 0.24699 0.09740
 C395 C 0.56506 0.23645 0.08524
 C396 C 0.53621 0.20896 0.06611
 C397 C 0.51712 0.21964 0.07916
 N398 N 0.52195 0.23845 0.09428
 H399 H 0.45677 0.27891 0.12786
 H400 H 0.47693 0.24712 0.06131
 H401 H 0.43689 0.25902 0.04240
 H402 H 0.41717 0.29255 0.11021
 H403 H 0.54900 0.26142 0.11009
 H404 H 0.58357 0.24297 0.08907
 H405 H 0.53170 0.19435 0.05386
 H406 H 0.49849 0.21264 0.07753
 C407 C 0.52362 0.32190 0.15188
 C408 C 0.47077 0.18867 0.16643
 C409 C 0.56075 0.21706 0.06932
 C410 C 0.42341 0.27631 0.07496
 C411 C 0.99547 0.73672 0.66999
 H412 H 0.98688 0.75403 0.67353
 C413 C 0.98832 0.71600 0.68322
 H414 H 0.97482 0.71791 0.69742
 C415 C 1.02297 0.71327 0.64677
 H416 H 1.03584 0.71198 0.63200
 C417 C 1.01598 0.69212 0.65909
 H418 H 1.02367 0.67503 0.65333
 N419 N 1.01276 0.73505 0.65234
 C420 C 1.04199 0.80726 0.63595
 H421 H 1.04395 0.80443 0.61660
 C422 C 1.05012 0.82887 0.64614
 H423 H 1.05882 0.84223 0.63443
 C424 C 1.02906 0.79258 0.67448
 H425 H 1.02105 0.77830 0.68549
 C426 C 1.03662 0.81423 0.68545
 H427 H 1.03388 0.81647 0.70479
 Zn428 Zn 1.02095 0.76219 0.63224
 N429 N 1.03144 0.78974 0.65002
 C430 C 0.98297 0.79319 0.61451
 N431 N 0.99259 0.77044 0.61300
 C432 C 0.98128 0.75317 0.59928
 C433 C 0.95917 0.75848 0.58660
 C434 C 0.96101 0.79924 0.60220
 C435 C 1.06955 0.74910 0.62487
 C436 C 1.09037 0.74146 0.61243
 C437 C 1.06653 0.74386 0.57480
 C438 C 1.04610 0.75153 0.58801
 N439 N 1.04789 0.75353 0.61265
 H440 H 0.99195 0.80660 0.62574
 H441 H 0.98913 0.73510 0.59865
 H442 H 0.95002 0.74437 0.57631
 H443 H 0.95363 0.81743 0.60380
 H444 H 1.07041 0.75097 0.64448
 H445 H 1.10715 0.73717 0.62267
 H446 H 1.06479 0.74205 0.55522
 H447 H 1.02881 0.75554 0.57864
 C448 C 1.04710 0.83290 0.67116
 C449 C 0.99840 0.69316 0.67765
 C450 C 1.08895 0.73842 0.58710
 C451 C 0.94856 0.78168 0.58835
 C452 C 0.53659 0.71783 0.33140
 H453 H 0.54734 0.73437 0.33076
 C454 C 0.54429 0.69753 0.31835
 H455 H 0.56123 0.69861 0.30812
 C456 C 0.50212 0.69604 0.34625
 H457 H 0.48573 0.69523 0.35720
 C458 C 0.50888 0.67560 0.33326
 H459 H 0.49728 0.65961 0.33422
 N460 N 0.51636 0.71641 0.34584
 C461 C 0.48959 0.78836 0.36645
 H462 H 0.48648 0.78413 0.38542
 C463 C 0.48253 0.81100 0.35716
 H464 H 0.47363 0.82317 0.36958
 C465 C 0.50233 0.77588 0.32759
 H466 H 0.51003 0.76204 0.31616
 C467 C 0.49552 0.79853 0.31738
 H468 H 0.49888 0.80165 0.29822
 Zn469 Zn 0.50764 0.74148 0.36791
 N470 N 0.49941 0.77134 0.35181
 C471 C 0.52745 0.75982 0.41144
 N472 N 0.53363 0.74755 0.39105
 C473 C 0.55760 0.74135 0.38692
 C474 C 0.57653 0.74898 0.40273
 C475 C 0.54572 0.76771 0.42770
 C476 C 0.45657 0.73674 0.37583
 C477 C 0.43542 0.72721 0.38660
 C478 C 0.46162 0.70604 0.41610
 C479 C 0.48229 0.71601 0.40478
 N480 N 0.47941 0.73094 0.38497
 H481 H 0.50830 0.76386 0.41496
 H482 H 0.56232 0.73122 0.37100
 H483 H 0.59557 0.74493 0.39843
 H484 H 0.54036 0.77788 0.44352
 H485 H 0.45481 0.74814 0.35968
 H486 H 0.41744 0.73142 0.37861
 H487 H 0.46423 0.69405 0.43176
 H488 H 0.50068 0.71137 0.41141
 C489 C 0.48558 0.81685 0.33224
 C490 C 0.53072 0.67576 0.31978
 C491 C 0.43781 0.71138 0.40681
 C492 C 0.57073 0.76298 0.42305
 C493 C 0.38555 0.00267 0.25575
 C494 C 0.14150 1.01759 0.75325
 C495 C 0.63293 0.49952 0.23135
 C496 C 0.88376 0.51321 0.73832
 C497 C 0.23398 0.37522 0.00125
 C498 C 0.74908 0.11330 1.00696
 C499 C 0.24893 0.61905 0.48709
 C500 C 0.74678 0.86348 0.52176
 C501 C 0.00739 0.24306 0.37441
 C502 C 0.99205 0.75775 0.12403
 C503 C 0.52608 0.25543 0.64191
 C504 C 0.48446 0.73542 0.87764
 C505 C 0.47632 -0.13977 0.33843
 C506 C 0.46675 -0.11761 0.33006
 C507 C 0.45932 -0.11443 0.30580
 C508 C 0.46241 -0.13357 0.28950
 C509 C 0.47183 -0.15604 0.29787
 C510 C 0.47826 -0.15988 0.32279
 N511 N 0.44718 -0.09216 0.29897
 N512 N 0.44248 -0.08548 0.27707
 C513 C 0.42883 -0.06349 0.27217
 C514 C 0.42926 -0.05257 0.24900
 C515 C 0.41586 -0.03116 0.24413
 C516 C 0.40163 -0.02005 0.26235
 C517 C 0.40048 -0.03212 0.28526
 C518 C 0.41423 -0.05313 0.29019
 H519 H 0.48245 -0.14070 0.35727
 H520 H 0.46480 -0.10283 0.34272
 H521 H 0.45664 -0.13148 0.27059
 H522 H 0.47254 -0.17061 0.28491
 H523 H 0.44004 -0.06060 0.23472
 H524 H 0.41647 -0.02321 0.22597
 H525 H 0.38850 -0.02607 0.29951
 H526 H 0.41285 -0.06169 0.30802
 C527 C 0.96248 0.37144 0.83178
 C528 C 0.95737 0.39446 0.82187
 C529 C 0.94903 0.39709 0.79772
 C530 C 0.94617 0.37631 0.78334
 C531 C 0.95122 0.35323 0.79325
 C532 C 0.95918 0.35050 0.81769
 N533 N 0.94214 0.42078 0.78881
 N534 N 0.93474 0.42461 0.76695
 C535 C 0.92605 0.44795 0.75863
 C536 C 0.91598 0.45023 0.73511
 C537 C 0.90364 0.47148 0.72772
 C538 C 0.90045 0.49080 0.74410
 C539 C 0.91345 0.48939 0.76665
 C540 C 0.92564 0.46805 0.77406
 H541 H 0.96904 0.37004 0.85050
 H542 H 0.95961 0.41031 0.83315
 H543 H 0.93954 0.37786 0.76466
 H544 H 0.94829 0.33748 0.78199
 H545 H 0.91688 0.43511 0.72275
 H546 H 0.89623 0.47221 0.70933
 H547 H 0.91262 0.50431 0.77927
 H548 H 0.93388 0.46698 0.79217
 C549 C 0.06741 1.17620 0.81338
 C550 C 0.08177 1.15753 0.80401
 C551 C 0.07059 1.13792 0.79231
 C552 C 0.04470 1.13743 0.78950
 C553 C 0.03026 1.15621 0.79875
 C554 C 0.04144 1.17571 0.81105
 N555 N 0.08596 1.11844 0.78440
 N556 N 0.07731 1.09912 0.77511
 C557 C 0.09322 1.07961 0.76819
 C558 C 0.08280 1.05804 0.75975
 C559 C 0.09781 1.03811 0.75445
 C560 C 0.12377 1.03917 0.75803
 C561 C 0.13407 1.06166 0.76502
 C562 C 0.11905 1.08145 0.77036
 H563 H 0.07665 1.19063 0.82311
 H564 H 0.10170 1.15803 0.80639
 H565 H 0.03565 1.12248 0.78042
 H566 H 0.01035 1.15543 0.79636
 H567 H 0.06291 1.05657 0.75750
 H568 H 0.08879 1.02211 0.74750
 H569 H 0.15393 1.06359 0.76711
 H570 H 0.12767 1.09806 0.77648
 C571 C 0.53621 0.63040 0.32044
 C572 C 0.54494 0.60893 0.31037
 C573 C 0.55762 0.60945 0.28839
 C574 C 0.56117 0.63185 0.27625
 C575 C 0.55223 0.65339 0.28620
 C576 C 0.53971 0.65296 0.30851
 N577 N 0.56745 0.58717 0.27935
 N578 N 0.58152 0.58670 0.26098
 C579 C 0.59223 0.56468 0.25232
 C580 C 0.61088 0.56637 0.23513
 C581 C 0.62345 0.54567 0.22773
 C582 C 0.61701 0.52226 0.23662
 C583 C 0.59790 0.52081 0.25389
 C584 C 0.58561 0.54171 0.26160
 H585 H 0.52721 0.62932 0.33791
 H586 H 0.54226 0.59185 0.32002
 H587 H 0.57090 0.63272 0.25916
 H588 H 0.55503 0.67034 0.27637
 H589 H 0.61649 0.58402 0.22821
 H590 H 0.63891 0.54851 0.21579
 H591 H 0.59296 0.50345 0.26195
 H592 H 0.57134 0.53996 0.27514
 C593 C 0.52080 0.36712 0.15615
 C594 C 0.52979 0.38900 0.16544
 C595 C 0.55033 0.38906 0.18129
 C596 C 0.56121 0.36681 0.18857
 C597 C 0.55200 0.34492 0.17961
 C598 C 0.53199 0.34490 0.16297
 N599 N 0.56048 0.41180 0.18901
 N600 N 0.58204 0.41278 0.19858
 C601 C 0.59346 0.43481 0.20644
 C602 C 0.61858 0.43412 0.21253
 C603 C 0.63073 0.45498 0.22015
 C604 C 0.61788 0.47713 0.22292
 C605 C 0.59257 0.47788 0.21602
 C606 C 0.58046 0.45686 0.20794
 H607 H 0.50521 0.36755 0.14350
 H608 H 0.52118 0.40597 0.15973
 H609 H 0.57703 0.36634 0.20093
 H610 H 0.56102 0.32807 0.18504
 H611 H 0.62888 0.41732 0.21110
 H612 H 0.65035 0.45380 0.22436
 H613 H 0.58212 0.49462 0.21635
 H614 H 0.56103 0.45783 0.20290
 C615 C 0.05320 0.87804 0.66783
 C616 C 0.06262 0.89980 0.67668
 C617 C 0.07331 0.90078 0.69998
 C618 C 0.07415 0.87968 0.71469
 C619 C 0.06517 0.85763 0.70563
 C620 C 0.05496 0.85646 0.68187
 N621 N 0.08477 0.92296 0.70730
 N622 N 0.08949 0.92818 0.72941
 C623 C 0.10244 0.95013 0.73510
 C624 C 0.09914 0.96115 0.75760
 C625 C 0.11133 0.98290 0.76299
 C626 C 0.12739 0.99409 0.74607
 C627 C 0.13158 0.98180 0.72403
 C628 C 0.11888 0.96053 0.71845
 H629 H 0.04479 0.87812 0.64979
 H630 H 0.06181 0.91599 0.66522
 H631 H 0.08262 0.88003 0.73270
 H632 H 0.06707 0.84141 0.71690
 H633 H 0.08682 0.95310 0.77083
 H634 H 0.10822 0.99113 0.78049
 H635 H 0.14497 0.98801 0.71097
 H636 H 0.12239 0.95181 0.70128
 C637 C 1.00543 0.64992 0.69229
 C638 C 0.99643 0.62768 0.70099
 C639 C 0.97185 0.62552 0.70821
 C640 C 0.95634 0.64602 0.70697
 C641 C 0.96509 0.66811 0.69765
 C642 C 0.98970 0.67032 0.68982
 N643 N 0.96239 0.60212 0.71495
 N644 N 0.94316 0.59999 0.72788
 C645 C 0.93174 0.57705 0.73283
 C646 C 0.91467 0.57541 0.75157
 C647 C 0.90040 0.55453 0.75465
 C648 C 0.90171 0.53524 0.73794
 C649 C 0.92099 0.53608 0.72080
 C650 C 0.93561 0.55687 0.71802
 H651 H 1.02466 0.65094 0.68717
 H652 H 1.00860 0.61202 0.70192
 H653 H 0.93714 0.64467 0.71216
 H654 H 0.95219 0.68308 0.69569
 H655 H 0.91211 0.59058 0.76362
 H656 H 0.88817 0.55406 0.77000
 H657 H 0.92368 0.52113 0.70851
 H658 H 0.94901 0.55761 0.70357
 C659 C 0.43855 0.16983 0.19297
 C660 C 0.42875 0.14987 0.20542
 C661 C 0.44210 0.12816 0.20756
 C662 C 0.46597 0.12686 0.19783
 C663 C 0.47583 0.14689 0.18525
 C664 C 0.46194 0.16840 0.18221
 N665 N 0.43014 0.10745 0.21817
 N666 N 0.44085 0.08710 0.22194
 C667 C 0.42743 0.06657 0.23123
 C668 C 0.44019 0.04546 0.23839
 C669 C 0.42733 0.02490 0.24661
 C670 C 0.40114 0.02471 0.24699
 C671 C 0.38867 0.04653 0.24053
 C672 C 0.40154 0.06704 0.23267
 H673 H 0.42758 0.18628 0.19132
 H674 H 0.41037 0.15111 0.21291
 H675 H 0.47659 0.11020 0.19920
 H676 H 0.49382 0.14519 0.17702
 H677 H 0.46020 0.04497 0.23774
 H678 H 0.43818 0.00946 0.25278
 H679 H 0.36867 0.04749 0.24117
 H680 H 0.39114 0.08314 0.22735
 C681 C 0.27832 0.44600 -0.16605
 C682 C 0.26678 0.43696 -0.14520
 C683 C 0.27772 0.43989 -0.12215
 C684 C 0.30016 0.45255 -0.12002
 C685 C 0.31175 0.46161 -0.14087
 C686 C 0.30112 0.45812 -0.16415
 N687 N 0.26625 0.42877 -0.10148
 N688 N 0.27519 0.43004 -0.07993
 C689 C 0.26376 0.41768 -0.05988
 C690 C 0.27412 0.41945 -0.03646
 C691 C 0.26408 0.40635 -0.01693
 C692 C 0.24306 0.39141 -0.02023
 C693 C 0.23317 0.38953 -0.04419
 C694 C 0.24314 0.40269 -0.06355
 H695 H 0.26981 0.44278 -0.18371
 H696 H 0.24952 0.42713 -0.14704
 H697 H 0.30893 0.45509 -0.10237
 H698 H 0.32911 0.47119 -0.13879
 H699 H 0.29031 0.43063 -0.03343
 H700 H 0.27293 0.40758 0.00086
 H701 H 0.21826 0.37727 -0.04861
 H702 H 0.23510 0.40054 -0.08159
 C703 C 0.79117 0.93718 0.35581
 C704 C 0.78052 0.92660 0.37643
 C705 C 0.78979 0.93160 0.39977
 C706 C 0.80972 0.94773 0.40240
 C707 C 0.82046 0.95832 0.38176
 C708 C 0.81144 0.95297 0.35821
 N709 N 0.77923 0.91916 0.42021
 N710 N 0.78599 0.92255 0.44225
 C711 C 0.77531 0.90869 0.46179
 C712 C 0.78214 0.91335 0.48599
 C713 C 0.77255 0.89924 0.50513
 C714 C 0.75544 0.88036 0.50059
 C715 C 0.74950 0.87548 0.47590
 C716 C 0.75891 0.88962 0.45696
 H717 H 0.78401 0.93242 0.33797
 H718 H 0.76524 0.91408 0.37419
 H719 H 0.81719 0.95185 0.42029
 H720 H 0.83586 0.97064 0.38421
 H721 H 0.79519 0.92770 0.49001
 H722 H 0.77870 0.90289 0.52359
 H723 H 0.73820 0.86022 0.47065
 H724 H 0.75382 0.88512 0.43840
 C725 C 0.79280 0.05189 1.17921
 C726 C 0.78217 0.06240 1.15816
 C727 C 0.78445 0.05129 1.13561
 C728 C 0.79657 0.02885 1.13442
 C729 C 0.80678 0.01798 1.15549
 C730 C 0.80578 0.02952 1.17842
 N731 N 0.77482 0.06345 1.11419
 N732 N 0.78130 0.05769 1.09282
 C733 C 0.77184 0.07024 1.07155
 C734 C 0.75067 0.08494 1.07243
 C735 C 0.74262 0.09810 1.05180
 C736 C 0.75621 0.09783 1.02995
 C737 C 0.77653 0.08166 1.02899
 C738 C 0.78424 0.06814 1.04953
 H739 H 0.79164 0.06231 1.19566
 H740 H 0.77286 0.07977 1.15929
 H741 H 0.79805 0.01963 1.11721
 H742 H 0.81499 0.00025 1.15344
 H743 H 0.74027 0.08619 1.08907
 H744 H 0.72569 0.10834 1.05335
 H745 H 0.78695 0.08008 1.01238
 H746 H 0.80037 0.05653 1.04846
 C747 C 0.27470 0.52485 0.65004
 C748 C 0.26421 0.53486 0.62861
 C749 C 0.27918 0.54079 0.60878
 C750 C 0.30465 0.53562 0.61023
 C751 C 0.31504 0.52527 0.63139
 C752 C 0.30026 0.52012 0.65163
 N753 N 0.26862 0.55305 0.58782
 N754 N 0.28246 0.56480 0.57328
 C755 C 0.27356 0.57766 0.55205
 C756 C 0.28915 0.59475 0.54139
 C757 C 0.28148 0.60808 0.52086
 C758 C 0.25829 0.60372 0.50939
 C759 C 0.24235 0.58684 0.52086
 C760 C 0.24992 0.57387 0.54190
 H761 H 0.26293 0.52093 0.66539
 H762 H 0.24455 0.53872 0.62774
 H763 H 0.31661 0.53988 0.59510
 H764 H 0.33481 0.52201 0.63221
 H765 H 0.30719 0.59825 0.54948
 H766 H 0.29383 0.62216 0.51461
 H767 H 0.22394 0.58375 0.51348
 H768 H 0.23741 0.56089 0.55011
 C769 C 0.16452 0.56717 0.32908
 C770 C 0.17729 0.57804 0.34832
 C771 C 0.18838 0.56384 0.36681
 C772 C 0.18690 0.53841 0.36572
 C773 C 0.17410 0.52746 0.34643
 C774 C 0.16262 0.54175 0.32797
 N775 N 0.20016 0.57590 0.38676
 N776 N 0.21064 0.56478 0.40465
 C777 C 0.22133 0.57802 0.42450
 C778 C 0.23270 0.56551 0.44408
 C779 C 0.24208 0.57814 0.46421
 C780 C 0.23963 0.60367 0.46540
 C781 C 0.22932 0.61603 0.44488
 C782 C 0.22011 0.60346 0.42491
 H783 H 0.15557 0.57871 0.31541
 H784 H 0.17821 0.59767 0.34908
 H785 H 0.19537 0.52708 0.37985
 H786 H 0.17320 0.50783 0.34593
 H787 H 0.23421 0.54590 0.44377
 H788 H 0.25129 0.56776 0.47854
 H789 H 0.22784 0.63565 0.44465
 H790 H 0.21175 0.61369 0.40991
 C791 C 0.65660 0.00738 0.88476
 C792 C 0.66748 0.01585 0.90629
 C793 C 0.69057 0.02712 0.90596
 C794 C 0.70326 0.02894 0.88388
 C795 C 0.69249 0.02046 0.86228
 C796 C 0.66855 0.01009 0.86209
 N797 N 0.69983 0.03813 0.92779
 N798 N 0.72040 0.04934 0.92839
 C799 C 0.72902 0.06215 0.94940
 C800 C 0.75082 0.07554 0.94767
 C801 C 0.75803 0.09113 0.96629
 C802 C 0.74305 0.09438 0.98695
 C803 C 0.72278 0.07842 0.98978
 C804 C 0.71543 0.06297 0.97097
 H805 H 0.63889 -0.00157 0.88625
 H806 H 0.65760 0.01409 0.92325
 H807 H 0.72116 0.03770 0.88312
 H808 H 0.70252 0.02364 0.84565
 H809 H 0.76193 0.07443 0.93147
 H810 H 0.77531 0.10065 0.96407
 H811 H 0.71173 0.07903 1.00607
 H812 H 0.69880 0.05225 0.97303
 C813 C 0.67560 0.97215 0.65747
 C814 C 0.68550 0.96418 0.63549
 C815 C 0.69202 0.93974 0.63271
 C816 C 0.68940 0.92354 0.65257
 C817 C 0.67967 0.93147 0.67446
 C818 C 0.67216 0.95573 0.67705
 N819 N 0.70085 0.93148 0.60970
 N820 N 0.70401 0.90889 0.60621
 C821 C 0.71305 0.89883 0.58415
 C822 C 0.71592 0.87371 0.58330
 C823 C 0.72602 0.86291 0.56298
 C824 C 0.73406 0.87700 0.54285
 C825 C 0.72950 0.90231 0.54316
 C826 C 0.71941 0.91316 0.56380
 H827 H 0.66986 0.99093 0.65885
 H828 H 0.68753 0.97691 0.62041
 H829 H 0.69462 0.90463 0.65112
 H830 H 0.67777 0.91848 0.68933
 H831 H 0.71073 0.86245 0.59874
 H832 H 0.72848 0.84338 0.56327
 H833 H 0.73364 0.91390 0.52772
 H834 H 0.71674 0.93265 0.56390
 C835 C 0.15092 0.42700 0.15784
 C836 C 0.16207 0.41568 0.13825
 C837 C 0.17761 0.42879 0.12276
 C838 C 0.18260 0.45334 0.12751
 C839 C 0.17174 0.46462 0.14741
 C840 C 0.15551 0.45160 0.16249
 N841 N 0.18765 0.41672 0.10224
 N842 N 0.19868 0.42787 0.08508
 C843 C 0.20822 0.41498 0.06475
 C844 C 0.21662 0.42797 0.04442
 C845 C 0.22511 0.41576 0.02395
 C846 C 0.22613 0.39008 0.02369
 C847 C 0.21720 0.37732 0.04430
 C848 C 0.20854 0.38952 0.06452
 H849 H 0.13864 0.41656 0.16936
 H850 H 0.15820 0.39673 0.13480
 H851 H 0.19469 0.46376 0.11582
 H852 H 0.17546 0.48363 0.15064
 H853 H 0.21601 0.44763 0.04419
 H854 H 0.23013 0.42670 0.00831
 H855 H 0.21696 0.35764 0.04465
 H856 H 0.20195 0.37900 0.07993
 C857 C -0.15111 0.30818 0.44584
 C858 C -0.13109 0.29535 0.43674
 C859 C -0.10693 0.30374 0.44024
 C860 C -0.10285 0.32520 0.45322
 C861 C -0.12294 0.33805 0.46253
 C862 C -0.14733 0.32967 0.45891
 N863 N -0.08723 0.29017 0.42987
 N864 N -0.06461 0.29659 0.43042
 C865 C -0.04624 0.28202 0.41889
 C866 C -0.02208 0.29069 0.41644
 C867 C -0.00470 0.27758 0.40319
 C868 C -0.01087 0.25514 0.39236
 C869 C -0.03536 0.24662 0.39545
 C870 C -0.05254 0.25967 0.40864
 H871 H -0.16960 0.30145 0.44222
 H872 H -0.13443 0.27892 0.42660
 H873 H -0.08427 0.33198 0.45614
 H874 H -0.11939 0.35441 0.47271
 H875 H -0.01696 0.30804 0.42404
 H876 H 0.01349 0.28537 0.40065
 H877 H -0.04225 0.23046 0.38684
 H878 H -0.07114 0.25256 0.41005
 C879 C 0.32857 0.79249 0.96357
 C880 C 0.34732 0.77907 0.95276
 C881 C 0.37210 0.78600 0.95539
 C882 C 0.37813 0.80603 0.96986
 C883 C 0.35941 0.81942 0.98078
 C884 C 0.33437 0.81314 0.97729
 N885 N 0.39046 0.77333 0.94197
 N886 N 0.41319 0.77942 0.94207
 C887 C 0.43084 0.76714 0.92736
 C888 C 0.45550 0.77479 0.92752
 C889 C 0.47264 0.76415 0.91206
 C890 C 0.46571 0.74509 0.89636
 C891 C 0.44052 0.73803 0.89611
 C892 C 0.42352 0.74861 0.91159
 H893 H 0.30951 0.78731 0.96028
 H894 H 0.34246 0.76368 0.94160
 H895 H 0.39718 0.81166 0.97227
 H896 H 0.36452 0.83497 0.99160
 H897 H 0.46132 0.78943 0.93925
 H898 H 0.49140 0.77103 0.91205
 H899 H 0.43328 0.72498 0.88336
 H900 H 0.40442 0.74277 0.91062
 C901 C 1.12972 0.85027 0.03305
 C902 C 1.10703 0.84125 0.04113
 C903 C 1.10596 0.81919 0.05405
 C904 C 1.12790 0.80589 0.05831
 C905 C 1.15054 0.81476 0.05007
 C906 C 1.15180 0.83719 0.03756
 N907 N 1.08270 0.81100 0.06334
 N908 N 1.08166 0.79307 0.07818
 C909 C 1.05912 0.78428 0.08844
 C910 C 1.06080 0.76706 0.10725
 C911 C 1.03960 0.75840 0.11852
 C912 C 1.01570 0.76593 0.11055
 C913 C 1.01429 0.78387 0.09184
 C914 C 1.03572 0.79284 0.08078
 H915 H 1.13000 0.86776 0.02379
 H916 H 1.09031 0.85173 0.03778
 H917 H 1.12757 0.78865 0.06807
 H918 H 1.16705 0.80398 0.05344
 H919 H 1.07879 0.76079 0.11370
 H920 H 1.04238 0.74625 0.13396
 H921 H 0.99649 0.79108 0.08593
 H922 H 1.03402 0.80650 0.06645
 C923 C 0.65772 0.31097 0.51802
 C924 C 0.63757 0.29952 0.52906
 C925 C 0.63625 0.29783 0.55450
 C926 C 0.65567 0.30729 0.56882
 C927 C 0.67575 0.31870 0.55785
 C928 C 0.67694 0.32090 0.53233
 N929 N 0.61472 0.28745 0.56551
 N930 N 0.61257 0.28682 0.58857
 C931 C 0.59128 0.27757 0.60076
 C932 C 0.59063 0.27928 0.62606
 C933 C 0.56979 0.27188 0.63874
 C934 C 0.54864 0.26286 0.62640
 C935 C 0.55004 0.25982 0.60091
 C936 C 0.57103 0.26746 0.58817
 H937 H 0.65822 0.31217 0.49831
 H938 H 0.62276 0.29230 0.51780
 H939 H 0.65513 0.30632 0.58853
 H940 H 0.68998 0.32648 0.56942
 H941 H 0.60626 0.28676 0.63599
 H942 H 0.56985 0.27372 0.65837
 H943 H 0.53525 0.25143 0.59063
 H944 H 0.57143 0.26547 0.56858
 C945 C 0.36887 0.22461 0.53477
 C946 C 0.39007 0.23579 0.54455
 C947 C 0.40060 0.22725 0.56658
 C948 C 0.38893 0.20821 0.57932
 C949 C 0.36791 0.19716 0.56965
 C950 C 0.35802 0.20476 0.54698
 N951 N 0.42361 0.23708 0.57539
 N952 N 0.43500 0.22633 0.59294
 C953 C 0.45799 0.23388 0.60352
 C954 C 0.46805 0.21928 0.62206
 C955 C 0.48998 0.22566 0.63379
 C956 C 0.50321 0.24679 0.62687
 C957 C 0.49236 0.26190 0.60848
 C958 C 0.47016 0.25535 0.59664
 H959 H 0.36159 0.23082 0.51725
 H960 H 0.39874 0.25051 0.53458
 H961 H 0.39634 0.20147 0.59659
 H962 H 0.35960 0.18229 0.57974
 H963 H 0.45844 0.20298 0.62788
 H964 H 0.49573 0.21419 0.64899
 H965 H 0.50096 0.27899 0.60355
 H966 H 0.46234 0.26718 0.58258
 C967 C 0.86033 0.69317 0.00109
 C968 C 0.88108 0.70515 0.01074
 C969 C 0.88952 0.69979 0.03450
 C970 C 0.87743 0.68175 0.04825
 C971 C 0.85709 0.66952 0.03851
 C972 C 0.84820 0.67524 0.01495
 N973 N 0.90980 0.71312 0.04483
 N974 N 0.91247 0.71396 0.06788
 C975 C 0.93223 0.72619 0.08016
 C976 C 0.92968 0.73039 0.10495
 C977 C 0.94869 0.74112 0.11824
 C978 C 0.97114 0.74796 0.10719
 C979 C 0.97377 0.74324 0.08207
 C980 C 0.95430 0.73278 0.06860
 H981 H 0.85382 0.69778 -0.01718
 H982 H 0.89021 0.71899 -0.00007
 H983 H 0.88367 0.67714 0.06660
 H984 H 0.84795 0.65590 0.04960
 H985 H 0.91286 0.72511 0.11409
 H986 H 0.94603 0.74388 0.13754
 H987 H 0.99091 0.74683 0.07284
 H988 H 0.95677 0.72911 0.04946
 C989 C 0.64044 0.68514 0.97851
 C990 C 0.61682 0.69301 0.97102
 C991 C 0.61008 0.69334 0.94628
 C992 C 0.62746 0.68618 0.92898
 C993 C 0.65102 0.67839 0.93640
 C994 C 0.65774 0.67757 0.96126
 N995 N 0.58557 0.70079 0.93902
 N996 N 0.57865 0.70033 0.91675
 C997 C 0.55460 0.70779 0.90831
 C998 C 0.54979 0.70798 0.88327
 C999 C 0.52716 0.71634 0.87400
 C1000 C 0.50867 0.72522 0.88953
 C1001 C 0.51310 0.72331 0.91498
 C1002 C 0.53600 0.71507 0.92423
 H1003 H 0.64515 0.68488 0.99777
 H1004 H 0.60366 0.69860 0.98454
 H1005 H 0.62278 0.68628 0.90971
 H1006 H 0.66371 0.67227 0.92269
 H1007 H 0.56385 0.70202 0.87083
 H1008 H 0.52431 0.71670 0.85441
 H1009 H 0.49913 0.72803 0.92793
 H1010 H 0.53915 0.71441 0.94377
 C1011 C 0.17453 0.21419 0.46450
 C1012 C 0.15183 0.22349 0.45588
 C1013 C 0.13556 0.20879 0.44255
 C1014 C 0.14214 0.18457 0.43807
 C1015 C 0.16449 0.17515 0.44711
 C1016 C 0.18085 0.18988 0.46034
 N1017 N 0.11251 0.21861 0.43367
 N1018 N 0.10073 0.20847 0.41634
 C1019 C 0.07745 0.21718 0.40707
 C1020 C 0.07042 0.21112 0.38342
 C1021 C 0.04814 0.21957 0.37343
 C1022 C 0.03180 0.23407 0.38703
 C1023 C 0.03858 0.23892 0.41150
 C1024 C 0.06142 0.23101 0.42120
 H1025 H 0.18687 0.22573 0.47489
 H1026 H 0.14698 0.24218 0.45946
 H1027 H 0.12981 0.17281 0.42794
 H1028 H 0.16905 0.15632 0.44382
 H1029 H 0.08254 0.20022 0.37245
 H1030 H 0.04376 0.21513 0.35469
 H1031 H 0.02659 0.24868 0.42344
 H1032 H 0.06634 0.23527 0.43986
 C1033 C 0.57469 0.08515 0.69876
 C1034 C 0.57012 0.10755 0.68731
 C1035 C 0.56409 0.12788 0.70098
 C1036 C 0.56219 0.12553 0.72641
 C1037 C 0.56661 0.10304 0.73793
 C1038 C 0.57310 0.08260 0.72424
 N1039 N 0.55979 0.15047 0.68838
 N1040 N 0.55561 0.17040 0.69906
 C1041 C 0.55083 0.19227 0.68521
 C1042 C 0.54505 0.21379 0.69719
 C1043 C 0.53818 0.23474 0.68383
 C1044 C 0.53627 0.23425 0.65812
 C1045 C 0.54419 0.21300 0.64637
 C1046 C 0.55107 0.19229 0.65965
 H1047 H 0.58013 0.07000 0.68767
 H1048 H 0.57161 0.10918 0.66768
 H1049 H 0.55732 0.14100 0.73731
 H1050 H 0.56496 0.10165 0.75754
 H1051 H 0.54544 0.21421 0.71692
 H1052 H 0.53415 0.25098 0.69383
 H1053 H 0.54380 0.21210 0.62666
 H1054 H 0.55595 0.17610 0.64984
 C1055 C 1.02834 0.58558 0.18284
 C1056 C 1.01888 0.60698 0.17245
 C1057 C 1.01910 0.62852 0.18560
 C1058 C 1.02791 0.62827 0.20984
 C1059 C 1.03755 0.60682 0.22027
 C1060 C 1.03847 0.58541 0.20660
 N1061 N 1.01252 0.65056 0.17301
 N1062 N 1.01014 0.67092 0.18341
 C1063 C 1.00554 0.69251 0.16912
 C1064 C 0.99627 0.71336 0.18007
 C1065 C 0.99177 0.73455 0.16618
 C1066 C 0.99757 0.73562 0.14113
 C1067 C 1.00660 0.71424 0.13042
 C1068 C 1.01058 0.69312 0.14413
 H1069 H 1.02835 0.56928 0.17203
 H1070 H 1.01209 0.60699 0.15377
 H1071 H 1.02836 0.64480 0.22027
 H1072 H 1.04539 0.60729 0.23854
 H1073 H 0.99197 0.71300 0.19929
 H1074 H 0.98317 0.74961 0.17516
 H1075 H 1.01059 0.71396 0.11113
 H1076 H 1.01780 0.67729 0.13517
 C1077 C 0.95117 0.90162 0.23690
 C1078 C 0.96378 0.88291 0.22520
 C1079 C 0.95358 0.87231 0.20428
 C1080 C 0.93068 0.88083 0.19504
 C1081 C 0.91809 0.89930 0.20672
 C1082 C 0.92803 0.90976 0.22789
 N1083 N 0.96611 0.85256 0.19290
 N1084 N 0.95696 0.84333 0.17364
 C1085 C 0.96722 0.82310 0.16126
 C1086 C 0.95450 0.81485 0.14074
 C1087 C 0.96246 0.79430 0.12871
 C1088 C 0.98316 0.78074 0.13736
 C1089 C 0.99711 0.79047 0.15695
 C1090 C 0.98893 0.81115 0.16916
 H1091 H 0.95922 0.90937 0.25323
 H1092 H 0.98138 0.87654 0.23256
 H1093 H 0.92232 0.87309 0.17888
 H1094 H 0.90056 0.90552 0.19907
 H1095 H 0.93812 0.82438 0.13410
 H1096 H 0.95221 0.78934 0.11247
 H1097 H 1.01404 0.78164 0.16315
 H1098 H 0.99940 0.81764 0.18473
 C1099 C 0.41689 0.37764 0.73211
 C1100 C 0.43033 0.35703 0.72563
 C1101 C 0.44959 0.35895 0.70898
 C1102 C 0.45552 0.38189 0.69908
 C1103 C 0.44207 0.40246 0.70546
 C1104 C 0.42246 0.40057 0.72190
 N1105 N 0.46220 0.33741 0.70158
 N1106 N 0.48009 0.33857 0.68681
 C1107 C 0.49259 0.31765 0.67789
 C1108 C 0.51138 0.32126 0.66113
 C1109 C 0.52278 0.30159 0.65022
 C1110 C 0.51621 0.27738 0.65633
 C1111 C 0.49701 0.27403 0.67330
 C1112 C 0.48550 0.29388 0.68412
 H1113 H 0.40213 0.37562 0.74510
 H1114 H 0.42557 0.33950 0.73342
 H1115 H 0.47023 0.38388 0.68604
 H1116 H 0.44662 0.41973 0.69698
 H1117 H 0.51659 0.33955 0.65578
 H1118 H 0.53593 0.30582 0.63617
 H1119 H 0.49045 0.25595 0.67770
 H1120 H 0.47065 0.29066 0.69678
 C1121 C 0.42354 0.59957 0.76248
 C1122 C 0.43354 0.62091 0.77211
 C1123 C 0.43462 0.62425 0.79736
 C1124 C 0.42559 0.60591 0.81293
 C1125 C 0.41557 0.58469 0.80338
 C1126 C 0.41442 0.58121 0.77804
 N1127 N 0.44463 0.64634 0.80689
 N1128 N 0.44659 0.64942 0.82979
 C1129 C 0.45612 0.67107 0.84052
 C1130 C 0.45835 0.67177 0.86585
 C1131 C 0.46731 0.69245 0.87726
 C1132 C 0.47377 0.71345 0.86366
 C1133 C 0.47215 0.71229 0.83794
 C1134 C 0.46322 0.69137 0.82652
 H1135 H 0.42311 0.59737 0.74290
 H1136 H 0.44045 0.63487 0.75989
 H1137 H 0.42603 0.60805 0.83252
 H1138 H 0.40825 0.57120 0.81587
 H1139 H 0.45319 0.65612 0.87683
 H1140 H 0.46904 0.69225 0.89697
 H1141 H 0.47819 0.72714 0.82642
 H1142 H 0.46201 0.69102 0.80681
 C1143 C -0.07497 0.10408 0.27782
 C1144 C -0.06303 0.12554 0.28460
 C1145 C -0.05310 0.12790 0.30816
 C1146 C -0.05465 0.10827 0.32475
 C1147 C -0.06646 0.08685 0.31799
 C1148 C -0.07706 0.08461 0.29458
 N1149 N -0.04218 0.15049 0.31517
 N1150 N -0.03492 0.15385 0.33703
 C1151 C -0.02429 0.17612 0.34517
 C1152 C -0.01825 0.17816 0.36984
 C1153 C -0.00834 0.19964 0.37877
 C1154 C -0.00433 0.21995 0.36324
 C1155 C -0.00990 0.21742 0.33811
 C1156 C -0.02000 0.19580 0.32925
 H1157 H -0.08313 0.10298 0.25972
 H1158 H -0.06197 0.14053 0.27166
 H1159 H -0.04693 0.10952 0.34302
 H1160 H -0.06734 0.07202 0.33114
 H1161 H -0.02138 0.16303 0.38226
 H1162 H -0.00399 0.20061 0.39807
 H1163 H -0.00637 0.23179 0.32504
 H1164 H -0.02430 0.19445 0.30997
 C1165 C 0.01849 0.40739 0.28930
 C1166 C 0.00813 0.38557 0.29770
 C1167 C 0.01972 0.36339 0.29305
 C1168 C 0.04066 0.36307 0.27822
 C1169 C 0.05079 0.38473 0.26957
 C1170 C 0.04046 0.40719 0.27586
 N1171 N 0.01196 0.34186 0.30574
 N1172 N 0.02720 0.32447 0.30928
 C1173 C 0.02166 0.30306 0.32312
 C1174 C 0.04140 0.29005 0.33344
 C1175 C 0.03725 0.27067 0.34941
 C1176 C 0.01294 0.26286 0.35471
 C1177 C -0.00691 0.27560 0.34310
 C1178 C -0.00263 0.29569 0.32778
 H1179 H 0.01006 0.42439 0.29442
 H1180 H -0.00803 0.38605 0.30912
 H1181 H 0.04969 0.34611 0.27402
 H1182 H 0.06722 0.38390 0.25856
 H1183 H 0.06022 0.29581 0.33007
 H1184 H 0.05348 0.26274 0.35798
 H1185 H -0.02587 0.27042 0.34660
 H1186 H -0.01819 0.30556 0.31984
 C1187 C 0.56501 0.87359 0.78411
 C1188 C 0.55475 0.85139 0.79096
 C1189 C 0.53161 0.85044 0.80188
 C1190 C 0.51809 0.87201 0.80482
 C1191 C 0.52849 0.89444 0.79811
 C1192 C 0.55246 0.89545 0.78846
 N1193 N 0.52426 0.82788 0.81274
 N1194 N 0.50252 0.82316 0.82002
 C1195 C 0.49822 0.80097 0.83330
 C1196 C 0.47464 0.79053 0.83378
 C1197 C 0.47057 0.76910 0.84730
 C1198 C 0.48997 0.75772 0.86089
 C1199 C 0.51332 0.76932 0.86100
 C1200 C 0.51744 0.79017 0.84704
 H1201 H 0.58323 0.87371 0.77616
 H1202 H 0.56533 0.83488 0.78866
 H1203 H 0.50023 0.87163 0.81348
 H1204 H 0.51841 0.91099 0.80169
 H1205 H 0.45946 0.79894 0.82366
 H1206 H 0.45211 0.76149 0.84747
 H1207 H 0.52857 0.76308 0.87239
 H1208 H 0.53561 0.79842 0.84774
 C1209 C 0.69936 0.54173 0.06298
 C1210 C 0.68821 0.53051 0.08297
 C1211 C 0.69914 0.53144 0.10611
 C1212 C 0.72204 0.54297 0.10904
 C1213 C 0.73318 0.55455 0.08919
 C1214 C 0.72179 0.55490 0.06566
 N1215 N 0.68549 0.52259 0.12652
 N1216 N 0.69482 0.52027 0.14789
 C1217 C 0.67971 0.51356 0.16814
 C1218 C 0.69079 0.50605 0.19021
 C1219 C 0.67629 0.50087 0.21060
 C1220 C 0.65035 0.50431 0.20962
 C1221 C 0.63947 0.51087 0.18685
 C1222 C 0.65388 0.51550 0.16650
 H1223 H 0.68890 0.54152 0.04605
 H1224 H 0.67040 0.52180 0.08056
 H1225 H 0.73098 0.54370 0.12682
 H1226 H 0.75105 0.56269 0.09259
 H1227 H 0.71071 0.50404 0.19158
 H1228 H 0.68563 0.49401 0.22683
 H1229 H 0.61959 0.51291 0.18501
 H1230 H 0.64479 0.52118 0.14963
 C1231 C 0.20473 1.09539 0.59570
 C1232 C 0.19203 1.08578 0.61556
 C1233 C 0.20435 1.07128 0.63303
 C1234 C 0.22955 1.06578 0.63004
 C1235 C 0.24221 1.07504 0.60982
 C1236 C 0.22994 1.09022 0.59273
 N1237 N 0.19069 1.06257 0.65352
 N1238 N 0.20087 1.05321 0.67253
 C1239 C 0.18630 1.04464 0.69252
 C1240 C 0.19796 1.03800 0.71457
 C1241 C 0.18410 1.02965 0.73436
 C1242 C 0.15812 1.02689 0.73223
 C1243 C 0.14662 1.03452 0.71007
 C1244 C 0.16044 1.04309 0.69052
 H1245 H 0.19490 1.10697 0.58264
 H1246 H 0.17260 1.09001 0.61761
 H1247 H 0.23936 1.05442 0.64327
 H1248 H 0.26168 1.07092 0.60785
 H1249 H 0.21786 1.03964 0.71654
 H1250 H 0.19400 1.02576 0.75120
 H1251 H 0.12670 1.03340 0.70781
 H1252 H 0.15087 1.04832 0.67376
 C1253 C 0.23545 0.92323 0.88848
 C1254 C 0.22766 0.93371 0.86631
 C1255 C 0.21614 0.95636 0.86563
 C1256 C 0.21356 0.96914 0.88736
 C1257 C 0.22158 0.95892 0.90961
 C1258 C 0.23204 0.93525 0.91093
 N1259 N 0.20613 0.96543 0.84291
 N1260 N 0.19238 0.98420 0.84185
 C1261 C 0.18128 0.99308 0.81958
 C1262 C 0.16403 1.01184 0.82077
 C1263 C 0.15147 1.02008 0.79984
 C1264 C 0.15652 1.01034 0.77666
 C1265 C 0.17387 0.99110 0.77585
 C1266 C 0.18620 0.98267 0.79697
 H1267 H 0.24482 0.90594 0.88750
 H1268 H 0.23017 0.92385 0.84958
 H1269 H 0.20472 0.98680 0.88729
 H1270 H 0.21766 0.96921 0.92571
 H1271 H 0.15965 1.01959 0.83822
 H1272 H 0.13721 1.03348 0.80243
 H1273 H 0.17763 0.98238 0.75873
 H1274 H 0.19924 0.96782 0.79566
 C1275 C 0.69712 0.41964 0.38808
 C1276 C 0.68515 0.42862 0.36715
 C1277 C 0.69128 0.45141 0.35748
 C1278 C 0.70935 0.46553 0.36928
 C1279 C 0.72128 0.45660 0.39049
 C1280 C 0.71544 0.43341 0.39989
 N1281 N 0.67891 0.45920 0.33549
 N1282 N 0.68369 0.47877 0.32385
 C1283 C 0.67039 0.48456 0.30165
 C1284 C 0.67691 0.50493 0.28759
 C1285 C 0.66479 0.50983 0.26522
 C1286 C 0.64654 0.49390 0.25594
 C1287 C 0.63891 0.47463 0.27141
 C1288 C 0.65089 0.46981 0.29357
 H1289 H 0.69192 0.40193 0.39515
 H1290 H 0.67116 0.41767 0.35824
 H1291 H 0.71430 0.48325 0.36208
 H1292 H 0.73537 0.46754 0.39925
 H1293 H 0.69148 0.51689 0.29385
 H1294 H 0.66998 0.52589 0.25488
 H1295 H 0.62339 0.46316 0.26679
 H1296 H 0.64476 0.45445 0.30444
 C1297 C 0.77195 0.45656 0.59728
 C1298 C 0.78052 0.46736 0.61867
 C1299 C 0.80496 0.47540 0.62065
 C1300 C 0.82072 0.47310 0.60071
 C1301 C 0.81238 0.46175 0.57949
 C1302 C 0.78800 0.45286 0.57767
 N1303 N 0.81405 0.48350 0.64376
 N1304 N 0.83341 0.49646 0.64582
 C1305 C 0.84373 0.50214 0.66923
 C1306 C 0.85945 0.52209 0.67153
 C1307 C 0.87151 0.52669 0.69373
 C1308 C 0.86932 0.51042 0.71382
 C1309 C 0.85220 0.49116 0.71152
 C1310 C 0.83962 0.48706 0.68957
 H1311 H 0.75288 0.45064 0.59639
 H1312 H 0.76821 0.46907 0.63394
 H1313 H 0.83982 0.47891 0.60202
 H1314 H 0.82543 0.45894 0.56504
 H1315 H 0.86234 0.53416 0.65607
 H1316 H 0.88249 0.54298 0.69468
 H1317 H 0.84920 0.47871 0.72665
 H1318 H 0.82742 0.47155 0.68823
 C1319 C 0.28835 -0.03653 0.09802
 C1320 C 0.29882 -0.02508 0.11832
 C1321 C 0.30544 -0.03859 0.13928
 C1322 C 0.30097 -0.06372 0.13995
 C1323 C 0.29089 -0.07523 0.11955
 C1324 C 0.28483 -0.06180 0.09829
 N1325 N 0.31832 -0.02680 0.15883
 N1326 N 0.32203 -0.03706 0.17953
 C1327 C 0.33660 -0.02587 0.19830
 C1328 C 0.33625 -0.03550 0.22202
 C1329 C 0.35142 -0.02578 0.24031
 C1330 C 0.36749 -0.00611 0.23539
 C1331 C 0.36808 0.00290 0.21108
 C1332 C 0.35255 -0.00653 0.19300
 H1333 H 0.28398 -0.02585 0.08177
 H1334 H 0.30229 -0.00572 0.11754
 H1335 H 0.30604 -0.07457 0.15588
 H1336 H 0.28821 -0.09472 0.12021
 H1337 H 0.32437 -0.05074 0.22628
 H1338 H 0.35089 -0.03383 0.25844
 H1339 H 0.38099 0.01673 0.20542
 H1340 H 0.35370 0.00075 0.17460
 C1341 C 0.34202 0.07444 0.42116
 C1342 C 0.35206 0.06301 0.40101
 C1343 C 0.33725 0.05790 0.38060
 C1344 C 0.31194 0.06386 0.38076
 C1345 C 0.30184 0.07531 0.40096
 C1346 C 0.31686 0.08104 0.42126
 N1347 N 0.34864 0.04739 0.35982
 N1348 N 0.33662 0.04205 0.34048
 C1349 C 0.34870 0.03211 0.31975
 C1350 C 0.33451 0.02520 0.29950
 C1351 C 0.34580 0.01561 0.27894
 C1352 C 0.37176 0.01230 0.27831
 C1353 C 0.38587 0.02037 0.29855
 C1354 C 0.37454 0.02977 0.31907
 H1355 H 0.35400 0.07826 0.43664
 H1356 H 0.37156 0.05841 0.40115
 H1357 H 0.30013 0.06011 0.36515
 H1358 H 0.28246 0.08037 0.40038
 H1359 H 0.31460 0.02746 0.29955
 H1360 H 0.33398 0.01142 0.26353
 H1361 H 0.40587 0.01907 0.29851
 H1362 H 0.38604 0.03540 0.33430
 C1363 C 0.77149 0.58749 0.86409
 C1364 C 0.78005 0.57946 0.84168
 C1365 C 0.79131 0.55668 0.83995
 C1366 C 0.79300 0.54147 0.86074
 C1367 C 0.78453 0.54950 0.88316
 C1368 C 0.77418 0.57279 0.88517
 N1369 N 0.80297 0.55037 0.81765
 N1370 N 0.81423 0.53024 0.81541
 C1371 C 0.82812 0.52453 0.79426
 C1372 C 0.84160 0.50292 0.79429
 C1373 C 0.85860 0.49846 0.77601
 C1374 C 0.86322 0.51609 0.75760
 C1375 C 0.84718 0.53641 0.75615
 C1376 C 0.83025 0.54091 0.77456
 H1377 H 0.76382 0.60562 0.86514
 H1378 H 0.77879 0.59140 0.82584
 H1379 H 0.80161 0.52375 0.85988
 H1380 H 0.78651 0.53767 0.89903
 H1381 H 0.83950 0.48978 0.80901
 H1382 H 0.86812 0.48121 0.77679
 H1383 H 0.84887 0.54960 0.74142
 H1384 H 0.81952 0.55753 0.77381
 C1385 C 0.13470 0.73495 0.58017
 C1386 C 0.15483 0.72359 0.56933
 C1387 C 0.15096 0.70535 0.55222
 C1388 C 0.12660 0.69907 0.54547
 C1389 C 0.10650 0.71041 0.55623
 C1390 C 0.11031 0.72821 0.57398
 N1391 N 0.17184 0.69287 0.54256
 N1392 N 0.16894 0.67543 0.52785
 C1393 C 0.18907 0.66205 0.51804
 C1394 C 0.18362 0.64355 0.50178
 C1395 C 0.20248 0.62980 0.49181
 C1396 C 0.22767 0.63469 0.49728
 C1397 C 0.23283 0.65259 0.51485
 C1398 C 0.21381 0.66641 0.52481
 H1399 H 0.13821 0.74882 0.59357
 H1400 H 0.17349 0.72868 0.57462
 H1401 H 0.12307 0.68504 0.53225
 H1402 H 0.08798 0.70460 0.55131
 H1403 H 0.16454 0.63955 0.49702
 H1404 H 0.19695 0.61502 0.48021
 H1405 H 0.25172 0.65599 0.52070
 H1406 H 0.21841 0.68028 0.53790
 C1407 C 0.58079 0.17971 1.05204
 C1408 C 0.60105 0.16785 1.04202
 C1409 C 0.62303 0.18041 1.03764
 C1410 C 0.62423 0.20536 1.04236
 C1411 C 0.60375 0.21743 1.05174
 C1412 C 0.58186 0.20469 1.05724
 N1413 N 0.64399 0.16728 1.02908
 N1414 N 0.66606 0.17477 1.03227
 C1415 C 0.68682 0.16114 1.02397
 C1416 C 0.70977 0.16370 1.03569
 C1417 C 0.72959 0.14870 1.02967
 C1418 C 0.72696 0.13063 1.01174
 C1419 C 0.70442 0.13025 0.99823
 C1420 C 0.68442 0.14477 1.00477
 H1421 H 0.56464 0.16901 1.05638
 H1422 H 0.59994 0.14858 1.03850
 H1423 H 0.64096 0.21549 1.03874
 H1424 H 0.60520 0.23676 1.05474
 H1425 H 0.71203 0.17666 1.05021
 H1426 H 0.74689 0.15054 1.03972
 H1427 H 0.70179 0.11887 0.98259
 H1428 H 0.66708 0.14328 0.99474
 C1429 C 0.87114 0.21260 0.90557
 C1430 C 0.85026 0.20268 0.91664
 C1431 C 0.85171 0.19303 0.94025
 C1432 C 0.87435 0.19373 0.95300
 C1433 C 0.89533 0.20366 0.94210
 C1434 C 0.89447 0.21322 0.91788
 N1435 N 0.83024 0.18181 0.95046
 N1436 N 0.83047 0.17220 0.97172
 C1437 C 0.80936 0.15995 0.98148
 C1438 C 0.81169 0.14793 1.00401
 C1439 C 0.79239 0.13363 1.01291
 C1440 C 0.77035 0.13050 0.99906
 C1441 C 0.76741 0.14466 0.97747
 C1442 C 0.78679 0.15883 0.96855
 H1443 H 0.86821 0.22059 0.88766
 H1444 H 0.83280 0.20244 0.90666
 H1445 H 0.87603 0.18609 0.97126
 H1446 H 0.91234 0.20227 0.95261
 H1447 H 0.82878 0.14922 1.01449
 H1448 H 0.79511 0.12507 1.03058
 H1449 H 0.75035 0.14378 0.96688
 H1450 H 0.78429 0.16844 0.95133
 C1451 C 0.41641 0.67466 0.42370
 C1452 C 0.39532 0.66305 0.43242
 C1453 C 0.37320 0.67591 0.43487
 C1454 C 0.37236 0.70076 0.42867
 C1455 C 0.39346 0.71242 0.41987
 C1456 C 0.41569 0.69945 0.41721
 N1457 N 0.35195 0.66318 0.44350
 N1458 N 0.33123 0.67350 0.44695
 C1459 C 0.31043 0.66002 0.45565
 C1460 C 0.28883 0.67233 0.46188
 C1461 C 0.26875 0.65966 0.47163
 C1462 C 0.27012 0.63429 0.47589
 C1463 C 0.29134 0.62198 0.46770
 C1464 C 0.31134 0.63465 0.45816
 H1465 H 0.43313 0.66409 0.42150
 H1466 H 0.39614 0.64388 0.43711
 H1467 H 0.35543 0.71108 0.43049
 H1468 H 0.39242 0.73158 0.41520
 H1469 H 0.28763 0.69185 0.45933
 H1470 H 0.25226 0.66992 0.47548
 H1471 H 0.29267 0.60240 0.46947
 H1472 H 0.32758 0.62458 0.45290
 C1473 C 0.58792 0.79849 0.44555
 C1474 C 0.60688 0.80994 0.45847
 C1475 C 0.62880 0.79756 0.46440
 C1476 C 0.63152 0.77323 0.45749
 C1477 C 0.61251 0.76170 0.44439
 C1478 C 0.59053 0.77429 0.43817
 N1479 N 0.64822 0.81076 0.47625
 N1480 N 0.66859 0.80138 0.48365
 C1481 C 0.68752 0.81633 0.49430
 C1482 C 0.70904 0.80571 0.50429
 C1483 C 0.72815 0.82024 0.51373
 C1484 C 0.72638 0.84586 0.51259
 C1485 C 0.70404 0.85613 0.50348
 C1486 C 0.68505 0.84169 0.49437
 H1487 H 0.57150 0.80888 0.44066
 H1488 H 0.60469 0.82876 0.46351
 H1489 H 0.64841 0.76336 0.46181
 H1490 H 0.61500 0.74301 0.43906
 H1491 H 0.71101 0.78613 0.50479
 H1492 H 0.74400 0.81117 0.52192
 H1493 H 0.70159 0.87567 0.50286
 H1494 H 0.66857 0.85048 0.48700
 C1495 C 0.09346 0.26539 -0.06218
 C1496 C 0.11520 0.27322 -0.05051
 C1497 C 0.11633 0.29629 -0.04018
 C1498 C 0.09497 0.31090 -0.04031
 C1499 C 0.07326 0.30306 -0.05175
 C1500 C 0.07246 0.28056 -0.06349
 N1501 N 0.13958 0.30534 -0.03131
 N1502 N 0.14222 0.32781 -0.02689
 C1503 C 0.16505 0.33837 -0.01896
 C1504 C 0.16653 0.36361 -0.01826
 C1505 C 0.18865 0.37491 -0.01188
 C1506 C 0.21016 0.36124 -0.00601
 C1507 C 0.20813 0.33561 -0.00563
 C1508 C 0.18589 0.32432 -0.01243
 H1509 H 0.09349 0.24802 -0.07116
 H1510 H 0.13151 0.26176 -0.05050
 H1511 H 0.09522 0.32868 -0.03213
 H1512 H 0.05723 0.31490 -0.05193
 H1513 H 0.15050 0.37462 -0.02309
 H1514 H 0.18916 0.39457 -0.01184
 H1515 H 0.22338 0.32407 0.00005
 H1516 H 0.18494 0.30468 -0.01244
 C1517 C 0.37781 0.28143 0.08025
 C1518 C 0.35477 0.28989 0.07214
 C1519 C 0.35165 0.29928 0.04851
 C1520 C 0.37177 0.29940 0.03259
 C1521 C 0.39508 0.29119 0.04081
 C1522 C 0.39846 0.28269 0.06498
 N1523 N 0.32865 0.31082 0.04230
 N1524 N 0.32181 0.31624 0.02059
 C1525 C 0.29950 0.32987 0.01634
 C1526 C 0.28741 0.32927 -0.00635
 C1527 C 0.26599 0.34314 -0.01069
 C1528 C 0.25622 0.35821 0.00753
 C1529 C 0.26934 0.35920 0.03001
 C1530 C 0.29024 0.34491 0.03447
 H1531 H 0.37955 0.27435 0.09872
 H1532 H 0.33936 0.28971 0.08454
 H1533 H 0.36976 0.30684 0.01429
 H1534 H 0.41061 0.29248 0.02864
 H1535 H 0.29459 0.31806 -0.02069
 H1536 H 0.25712 0.34243 -0.02851
 H1537 H 0.26430 0.37151 0.04423
 H1538 H 0.29977 0.34631 0.05191
 C1539 C 0.91766 0.78002 0.55335
 C1540 C 0.89469 0.78650 0.54282
 C1541 C 0.87775 0.80034 0.55588
 C1542 C 0.88393 0.80720 0.57981
 C1543 C 0.90673 0.80081 0.59025
 C1544 C 0.92402 0.78743 0.57709
 N1545 N 0.85471 0.80786 0.54466
 N1546 N 0.84005 0.82142 0.55628
 C1547 C 0.81687 0.83056 0.54714
 C1548 C 0.80396 0.84626 0.56199
 C1549 C 0.78166 0.85653 0.55418
 C1550 C 0.77081 0.85069 0.53133
 C1551 C 0.78455 0.83535 0.51604
 C1552 C 0.80722 0.82515 0.52394
 H1553 H 0.93066 0.76973 0.54277
 H1554 H 0.89023 0.78105 0.52438
 H1555 H 0.87121 0.81770 0.59050
 H1556 H 0.91082 0.80632 0.60875
 H1557 H 0.81160 0.85106 0.57965
 H1558 H 0.77362 0.86967 0.56613
 H1559 H 0.77774 0.83141 0.49785
 H1560 H 0.81725 0.81336 0.51193
   
