data_POSCAR
  _audit_creation_date              2014-09-24
  _audit_creation_method            'ToBaCCo'
  _symmetry_space_group_name_H-M    'P1'
  _symmetry_Int_Tables_number       1
  _symmetry_cell_setting            triclinic
  loop_
  _symmetry_equiv_pos_as_xyz
 x,y,z
_cell_length_a 89.1292
_cell_length_b 80.8276
_cell_length_c 86.8141
_cell_angle_alpha 89.697200
_cell_angle_beta 89.910700
_cell_angle_gamma 90.566200
loop_
  _atom_site_label
  _atom_site_type_symbol
  _atom_site_fract_x
  _atom_site_fract_y
  _atom_site_fract_z
N1 N 0.36803 0.31584 0.33210
 N2 N 0.36982 0.32829 0.32247
 C3 C 0.38144 0.32509 0.31302
 C4 C 0.38719 0.30971 0.31693
 C5 C 0.37837 0.30430 0.32915
 H6 H 0.38497 0.33300 0.30359
 H7 H 0.37913 0.29269 0.33531
 Cu8 Cu 0.35583 0.34663 0.32239
 Cu9 Cu 0.35162 0.31464 0.34680
 Cu10 Cu 0.33180 0.35081 0.35195
 N11 N 0.33878 0.36146 0.32116
 N12 N 0.32956 0.36331 0.33284
 C13 C 0.31890 0.37424 0.32893
 C14 C 0.32145 0.37942 0.31389
 C15 C 0.33423 0.37103 0.30936
 H16 H 0.30972 0.37768 0.33637
 H17 H 0.33980 0.37173 0.29831
 N18 N 0.33086 0.33218 0.36663
 N19 N 0.33815 0.31828 0.36440
 C20 C 0.33464 0.30754 0.37574
 C21 C 0.32451 0.31493 0.38561
 C22 C 0.32240 0.33061 0.37944
 H23 H 0.33885 0.29508 0.37646
 H24 H 0.31497 0.34006 0.38366
 H25 H 0.33692 0.33210 0.33778
 H26 H 0.35297 0.33952 0.34976
 N27 N 0.37395 0.83345 -0.15955
 N28 N 0.37656 0.84673 -0.16796
 C29 C 0.38926 0.84474 -0.17602
 C30 C 0.39488 0.82913 -0.17293
 C31 C 0.38482 0.82234 -0.16227
 H32 H 0.39330 0.85349 -0.18454
 H33 H 0.38499 0.81006 -0.15728
 Cu34 Cu 0.36149 0.86362 -0.17060
 Cu35 Cu 0.35565 0.83126 -0.14710
 Cu36 Cu 0.33533 0.86765 -0.14352
 N37 N 0.34589 0.88005 -0.17248
 N38 N 0.33553 0.88158 -0.16186
 C39 C 0.32570 0.89318 -0.16632
 C40 C 0.33000 0.89915 -0.18076
 C41 C 0.34297 0.89048 -0.18418
 H42 H 0.31594 0.89651 -0.15967
 H43 H 0.34958 0.89120 -0.19460
 N44 N 0.33242 0.84840 -0.12993
 N45 N 0.33991 0.83446 -0.13124
 C46 C 0.33448 0.82350 -0.12080
 C47 C 0.32287 0.83088 -0.11281
 C48 C 0.32195 0.84665 -0.11889
 H49 H 0.33822 0.81087 -0.11955
 H50 H 0.31392 0.85603 -0.11583
 H51 H 0.34142 0.84857 -0.15733
 H52 H 0.35637 0.85588 -0.14392
 N53 N 0.88047 0.32984 -0.16368
 N54 N 0.88096 0.34404 -0.17105
 C55 C 0.89180 0.34354 -0.18186
 C56 C 0.89845 0.32810 -0.18128
 C57 C 0.89097 0.31980 -0.16949
 H58 H 0.89412 0.35343 -0.18997
 H59 H 0.89267 0.30723 -0.16566
 Cu60 Cu 0.86644 0.36114 -0.16676
 Cu61 Cu 0.86540 0.32489 -0.14807
 Cu62 Cu 0.83586 0.35217 -0.14510
 N63 N 0.84857 0.37454 -0.16761
 N64 N 0.83645 0.37087 -0.15961
 C65 C 0.82541 0.38127 -0.16378
 C66 C 0.83092 0.39207 -0.17507
 C67 C 0.84575 0.38737 -0.17702
 H68 H 0.81415 0.38067 -0.15914
 H69 H 0.85378 0.39219 -0.18527
 N70 N 0.83778 0.33234 -0.13169
 N71 N 0.84911 0.32203 -0.13301
 C72 C 0.84716 0.30939 -0.12309
 C73 C 0.83396 0.31170 -0.11507
 C74 C 0.82833 0.32648 -0.12072
 H75 H 0.85473 0.29910 -0.12190
 H76 H 0.81786 0.33217 -0.11750
 H77 H 0.84935 0.33901 -0.15949
 H78 H 0.85851 0.34884 -0.14238
 N79 N 0.86290 0.81324 0.34642
 N80 N 0.86631 0.82404 0.33557
 C81 C 0.87708 0.81772 0.32649
 C82 C 0.88056 0.80206 0.33191
 C83 C 0.87134 0.79968 0.34461
 H84 H 0.88159 0.82382 0.31636
 H85 H 0.87060 0.78879 0.35186
 Cu86 Cu 0.85570 0.84484 0.33371
 Cu87 Cu 0.84710 0.81703 0.36148
 Cu88 Cu 0.82494 0.85128 0.35530
 N89 N 0.84163 0.86231 0.32876
 N90 N 0.82974 0.86484 0.33734
 C91 C 0.82166 0.87712 0.33114
 C92 C 0.82877 0.88266 0.31778
 C93 C 0.84151 0.87290 0.31672
 H94 H 0.81115 0.88126 0.33587
 H95 H 0.84992 0.87309 0.30775
 N96 N 0.82193 0.83605 0.37282
 N97 N 0.83049 0.82308 0.37530
 C98 C 0.82514 0.81464 0.38758
 C99 C 0.81252 0.82259 0.39303
 C100 C 0.81086 0.83614 0.38340
 H101 H 0.82963 0.80309 0.39177
 H102 H 0.80203 0.84519 0.38383
 H103 H 0.83469 0.83053 0.34587
 H104 H 0.84620 0.84253 0.36004
 N105 N 0.62662 0.67089 0.34436
 N106 N 0.62686 0.65664 0.33714
 C107 C 0.61721 0.65705 0.32527
 C108 C 0.61044 0.67238 0.32501
 C109 C 0.61663 0.68083 0.33737
 H110 H 0.61552 0.64704 0.31723
 H111 H 0.61456 0.69352 0.34058
 Cu112 Cu 0.64051 0.63925 0.34303
 Cu113 Cu 0.64031 0.67583 0.36136
 Cu114 Cu 0.66810 0.64698 0.36818
 N115 N 0.65772 0.62488 0.34461
 N116 N 0.66849 0.62794 0.35452
 C117 C 0.67949 0.61687 0.35257
 C118 C 0.67544 0.60629 0.34071
 C119 C 0.66148 0.61178 0.33598
 H120 H 0.68985 0.61690 0.35901
 H121 H 0.65484 0.60714 0.32650
 N122 N 0.66578 0.66708 0.38062
 N123 N 0.65537 0.67824 0.37796
 C124 C 0.65735 0.69091 0.38782
 C125 C 0.66956 0.68751 0.39716
 C126 C 0.67457 0.67228 0.39224
 H127 H 0.65052 0.70189 0.38807
 H128 H 0.68428 0.66575 0.39641
 H129 H 0.65682 0.66129 0.35212
 H130 H 0.64524 0.65197 0.36798
 N131 N 0.63226 0.17695 -0.15909
 N132 N 0.63229 0.16608 -0.17028
 C133 C 0.62073 0.16929 -0.17983
 C134 C 0.61312 0.18298 -0.17430
 C135 C 0.62076 0.18734 -0.16104
 H136 H 0.61847 0.16268 -0.19037
 H137 H 0.61855 0.19773 -0.15363
 Cu138 Cu 0.64824 0.14971 -0.17170
 Cu139 Cu 0.64835 0.17853 -0.14421
 Cu140 Cu 0.67508 0.14794 -0.14414
 N141 N 0.66366 0.13274 -0.17176
 N142 N 0.67381 0.13191 -0.16082
 C143 C 0.68317 0.11938 -0.16382
 C144 C 0.67882 0.11189 -0.17752
 C145 C 0.66629 0.12078 -0.18214
 H146 H 0.69275 0.11641 -0.15676
 H147 H 0.65966 0.11890 -0.19239
 N148 N 0.67434 0.16553 -0.12841
 N149 N 0.66397 0.17705 -0.12843
 C150 C 0.66695 0.18794 -0.11718
 C151 C 0.67996 0.18328 -0.10975
 C152 C 0.68429 0.16889 -0.11712
 H153 H 0.66039 0.19883 -0.11494
 H154 H 0.69438 0.16193 -0.11500
 H155 H 0.66545 0.16650 -0.15631
 H156 H 0.65262 0.15333 -0.14427
 N157 N 0.14220 0.67096 -0.16588
 N158 N 0.14388 0.65740 -0.17396
 C159 C 0.13407 0.65740 -0.18572
 C160 C 0.12573 0.67174 -0.18502
 C161 C 0.13118 0.68002 -0.17220
 H162 H 0.13332 0.64778 -0.19430
 H163 H 0.12785 0.69207 -0.16816
 Cu164 Cu 0.15929 0.64138 -0.16925
 Cu165 Cu 0.15529 0.67646 -0.14854
 Cu166 Cu 0.18686 0.65240 -0.14522
 N167 N 0.17797 0.62922 -0.16834
 N168 N 0.18880 0.63360 -0.15892
 C169 C 0.20081 0.62405 -0.16149
 C170 C 0.19736 0.61308 -0.17321
 C171 C 0.18269 0.61670 -0.17722
 H172 H 0.21141 0.62536 -0.15557
 H173 H 0.17620 0.61129 -0.18645
 N174 N 0.18231 0.67023 -0.13071
 N175 N 0.17037 0.67965 -0.13207
 C176 C 0.17085 0.69137 -0.12109
 C177 C 0.18367 0.68910 -0.11232
 C178 C 0.19059 0.67553 -0.11874
 H179 H 0.16262 0.70099 -0.11971
 H180 H 0.20122 0.67035 -0.11534
 H181 H 0.17233 0.66564 -0.15996
 H182 H 0.16334 0.65328 -0.14400
 N183 N 0.11623 0.17023 0.34518
 N184 N 0.11873 0.16173 0.33259
 C185 C 0.10917 0.16674 0.32154
 C186 C 0.10026 0.17912 0.32755
 C187 C 0.10501 0.18089 0.34263
 H188 H 0.10921 0.16234 0.30980
 H189 H 0.10099 0.18966 0.35101
 Cu190 Cu 0.13511 0.14597 0.33166
 Cu191 Cu 0.12853 0.16775 0.36352
 Cu192 Cu 0.16358 0.15125 0.35642
 N193 N 0.15202 0.13090 0.33204
 N194 N 0.16327 0.13312 0.34161
 C195 C 0.17396 0.12194 0.33859
 C196 C 0.16915 0.11205 0.32648
 C197 C 0.15513 0.11817 0.32268
 H198 H 0.18456 0.12135 0.34460
 H199 H 0.14793 0.11411 0.31341
 N200 N 0.15919 0.16515 0.37451
 N201 N 0.14564 0.17070 0.37749
 C202 C 0.14620 0.18036 0.39003
 C203 C 0.16088 0.18109 0.39527
 C204 C 0.16878 0.17114 0.38514
 H205 H 0.13670 0.18707 0.39442
 H206 H 0.18072 0.16900 0.38504
 H207 H 0.14625 0.16647 0.34881
 H208 H 0.14160 0.14669 0.35901
 N209 N 0.62249 0.32537 0.65240
 N210 N 0.61998 0.33794 0.66152
 C211 C 0.60652 0.33582 0.66836
 C212 C 0.60024 0.32114 0.66308
 C213 C 0.61068 0.31493 0.65291
 H214 H 0.60205 0.34382 0.67716
 H215 H 0.61031 0.30298 0.64736
 Cu216 Cu 0.63545 0.35456 0.66513
 Cu217 Cu 0.64192 0.32166 0.64309
 Cu218 Cu 0.66707 0.35465 0.64390
 N219 N 0.65310 0.36716 0.67122
 N220 N 0.66536 0.36760 0.66279
 C221 C 0.67564 0.37735 0.66974
 C222 C 0.66952 0.38312 0.68338
 C223 C 0.65518 0.37639 0.68388
 H224 H 0.68688 0.37958 0.66543
 H225 H 0.64685 0.37802 0.69279
 N226 N 0.66954 0.33540 0.63021
 N227 N 0.66009 0.32274 0.63036
 C228 C 0.66501 0.31111 0.62067
 C229 C 0.67832 0.31652 0.61412
 C230 C 0.68084 0.33208 0.62036
 H231 H 0.65927 0.29952 0.61854
 H232 H 0.69042 0.34010 0.61834
 H233 H 0.65580 0.33731 0.65594
 H234 H 0.64493 0.34643 0.63970
 N235 N 0.63357 0.82483 1.15927
 N236 N 0.63478 0.83834 1.16754
 C237 C 0.62517 0.83742 1.17947
 C238 C 0.61741 0.82251 1.17866
 C239 C 0.62302 0.81487 1.16562
 H240 H 0.62409 0.84682 1.18821
 H241 H 0.62001 0.80275 1.16134
 Cu242 Cu 0.64950 0.85540 1.16272
 Cu243 Cu 0.64624 0.82096 1.14126
 Cu244 Cu 0.67190 0.85214 1.13208
 N245 N 0.66812 0.86803 1.16118
 N246 N 0.67691 0.86665 1.14912
 C247 C 0.68919 0.87618 1.15109
 C248 C 0.68812 0.88392 1.16524
 C249 C 0.67453 0.87848 1.17131
 H250 H 0.69830 0.87718 1.14287
 H251 H 0.66986 0.88143 1.18245
 N252 N 0.66937 0.83203 1.11973
 N253 N 0.66005 0.81985 1.12341
 C254 C 0.66223 0.80722 1.11360
 C255 C 0.67350 0.81166 1.10328
 C256 C 0.67768 0.82753 1.10755
 H257 H 0.65632 0.79549 1.11420
 H258 H 0.68674 0.83493 1.10279
 H259 H 0.66410 0.83563 1.14828
 H260 H 0.64941 0.84525 1.13600
 N261 N 0.12628 0.32285 1.14978
 N262 N 0.12652 0.33250 1.16192
 C263 C 0.11643 0.32671 1.17230
 C264 C 0.10971 0.31258 1.16633
 C265 C 0.11622 0.31060 1.15203
 H266 H 0.11466 0.33188 1.18362
 H267 H 0.11405 0.30072 1.14397
 Cu268 Cu 0.14093 0.35080 1.16348
 Cu269 Cu 0.13975 0.32572 1.13240
 Cu270 Cu 0.16787 0.35485 1.13619
 N271 N 0.15835 0.36537 1.16624
 N272 N 0.16871 0.36675 1.15550
 C273 C 0.17986 0.37659 1.16054
 C274 C 0.17643 0.38174 1.17527
 C275 C 0.16259 0.37448 1.17852
 H276 H 0.18990 0.37954 1.15406
 H277 H 0.15642 0.37518 1.18923
 N278 N 0.16522 0.34158 1.11748
 N279 N 0.15446 0.33040 1.11603
 C280 C 0.15659 0.32203 1.10285
 C281 C 0.16941 0.32813 1.09568
 C282 C 0.17450 0.34062 1.10528
 H283 H 0.14995 0.31147 1.09933
 H284 H 0.18466 0.34788 1.10393
 H285 H 0.15672 0.33496 1.14622
 H286 H 0.14499 0.35042 1.13563
 N287 N 0.13022 0.83989 0.65606
 N288 N 0.12789 0.85310 0.66446
 C289 C 0.11810 0.84939 0.67575
 C290 C 0.11397 0.83293 0.67445
 C291 C 0.12177 0.82728 0.66167
 H292 H 0.11465 0.85796 0.68456
 H293 H 0.12190 0.81477 0.65731
 Cu294 Cu 0.13897 0.87354 0.66126
 Cu295 Cu 0.14496 0.84019 0.63925
 Cu296 Cu 0.17126 0.87211 0.64196
 N297 N 0.15405 0.89075 0.66365
 N298 N 0.16683 0.88994 0.65618
 C299 C 0.17614 0.90186 0.66132
 C300 C 0.16887 0.91057 0.67280
 C301 C 0.15477 0.90322 0.67386
 H302 H 0.18761 0.90347 0.65753
 H303 H 0.14615 0.90582 0.68226
 N304 N 0.17366 0.85310 0.62817
 N305 N 0.16372 0.84095 0.62691
 C306 C 0.16905 0.82968 0.61691
 C307 C 0.18306 0.83500 0.61181
 C308 C 0.18550 0.84990 0.61914
 H309 H 0.16343 0.81820 0.61400
 H310 H 0.19529 0.85780 0.61803
 H311 H 0.15805 0.85436 0.65305
 H312 H 0.14956 0.86528 0.63631
 N313 N 0.36663 0.67612 0.65053
 N314 N 0.37008 0.66336 0.65922
 C315 C 0.38118 0.66769 0.66889
 C316 C 0.38496 0.68413 0.66620
 C317 C 0.37548 0.68904 0.65438
 H318 H 0.38554 0.65966 0.67778
 H319 H 0.37466 0.70123 0.64931
 Cu320 Cu 0.35865 0.64292 0.65851
 Cu321 Cu 0.34996 0.67536 0.63595
 Cu322 Cu 0.32639 0.64112 0.63875
 N323 N 0.34379 0.62583 0.66262
 N324 N 0.33120 0.62512 0.65481
 C325 C 0.32235 0.61318 0.66089
 C326 C 0.32975 0.60609 0.67327
 C327 C 0.34339 0.61444 0.67396
 H328 H 0.31100 0.61063 0.65717
 H329 H 0.35213 0.61290 0.68245
 N330 N 0.32353 0.65887 0.62345
 N331 N 0.33243 0.67197 0.62238
 C332 C 0.32698 0.68226 0.61153
 C333 C 0.31396 0.67535 0.60554
 C334 C 0.31219 0.66048 0.61336
 H335 H 0.33179 0.69421 0.60867
 H336 H 0.30314 0.65162 0.61205
 H337 H 0.33782 0.65975 0.65017
 H338 H 0.34782 0.65001 0.63361
 N339 N 0.36601 0.17789 1.14969
 N340 N 0.36558 0.17022 1.16309
 C341 C 0.37688 0.17596 1.17194
 C342 C 0.38470 0.18798 1.16366
 C343 C 0.37751 0.18878 1.14956
 H344 H 0.37877 0.17232 1.18378
 H345 H 0.38013 0.19703 1.14006
 Cu346 Cu 0.34947 0.15448 1.16808
 Cu347 Cu 0.35097 0.17414 1.13379
 Cu348 Cu 0.31717 0.16153 1.14943
 N349 N 0.33087 0.14311 1.17401
 N350 N 0.31835 0.14627 1.16663
 C351 C 0.30697 0.13793 1.17324
 C352 C 0.31250 0.12890 1.18550
 C353 C 0.32781 0.13239 1.18562
 H354 H 0.29547 0.13842 1.16932
 H355 H 0.33598 0.12793 1.19381
 N356 N 0.31899 0.17142 1.12882
 N357 N 0.33190 0.17599 1.12261
 C358 C 0.32931 0.18253 1.10856
 C359 C 0.31399 0.18182 1.10577
 C360 C 0.30787 0.17466 1.11887
 H361 H 0.33789 0.18765 1.10106
 H362 H 0.29610 0.17237 1.12118
 H363 H 0.33704 0.17496 1.15190
 H364 H 0.33783 0.15424 1.14252
 N365 N 0.86089 0.67087 1.15859
 N366 N 0.86217 0.65928 1.16916
 C367 C 0.87381 0.66299 1.17840
 C368 C 0.88022 0.67776 1.17340
 C369 C 0.87170 0.68237 1.16075
 H370 H 0.87690 0.65586 1.18846
 H371 H 0.87300 0.69346 1.15385
 Cu372 Cu 0.84776 0.64121 1.17081
 Cu373 Cu 0.84465 0.67081 1.14353
 Cu374 Cu 0.81650 0.64164 1.14931
 N375 N 0.83057 0.62730 1.17591
 N376 N 0.81847 0.62739 1.16731
 C377 C 0.80802 0.61742 1.17370
 C378 C 0.81378 0.61071 1.18715
 C379 C 0.82821 0.61726 1.18813
 H380 H 0.79689 0.61561 1.16905
 H381 H 0.83621 0.61541 1.19731
 N382 N 0.81657 0.65726 1.13187
 N383 N 0.82719 0.66852 1.12967
 C384 C 0.82343 0.67804 1.11750
 C385 C 0.80972 0.67255 1.11183
 C386 C 0.80581 0.65930 1.12122
 H387 H 0.82986 0.68861 1.11349
 H388 H 0.79566 0.65192 1.12060
 H389 H 0.82998 0.65988 1.15894
 H390 H 0.83906 0.64603 1.14454
 N391 N 0.87570 0.16391 0.66012
 N392 N 0.87632 0.14890 0.66592
 C393 C 0.88880 0.14757 0.67454
 C394 C 0.89644 0.16260 0.67403
 C395 C 0.88779 0.17261 0.66468
 H396 H 0.89161 0.13681 0.68137
 H397 H 0.88949 0.18566 0.66239
 Cu398 Cu 0.85959 0.13361 0.66356
 Cu399 Cu 0.85815 0.17203 0.64941
 Cu400 Cu 0.83052 0.14309 0.64068
 N401 N 0.84032 0.12244 0.66560
 N402 N 0.82887 0.12599 0.65670
 C403 C 0.81694 0.11673 0.66113
 C404 C 0.82114 0.10701 0.67362
 C405 C 0.83611 0.11097 0.67602
 H406 H 0.80592 0.11750 0.65599
 H407 H 0.84343 0.10612 0.68483
 N408 N 0.83163 0.16518 0.63083
 N409 N 0.84194 0.17625 0.63465
 C410 C 0.83966 0.19023 0.62662
 C411 C 0.82728 0.18801 0.61728
 C412 C 0.82248 0.17190 0.62018
 H413 H 0.84667 0.20118 0.62735
 H414 H 0.81286 0.16567 0.61520
 H415 H 0.84185 0.15523 0.65701
 H416 H 0.85358 0.14930 0.64015
 N417 N 0.33497 0.35955 0.65775
 N418 N 0.34671 0.35738 0.66664
 C419 C 0.34527 0.36665 0.67937
 C420 C 0.33188 0.37517 0.67843
 C421 C 0.32567 0.37034 0.66450
 H422 H 0.35330 0.36697 0.68869
 H423 H 0.31495 0.37394 0.65983
 Cu424 Cu 0.36241 0.34206 0.66111
 Cu425 Cu 0.33215 0.34746 0.63860
 Cu426 Cu 0.35722 0.31595 0.63151
 N427 N 0.37458 0.32248 0.65869
 N428 N 0.37251 0.31227 0.64715
 C429 C 0.38191 0.29943 0.64869
 C430 C 0.39034 0.30170 0.66195
 C431 C 0.38535 0.31652 0.66796
 H432 H 0.38237 0.28911 0.64085
 H433 H 0.38887 0.32230 0.67858
 N434 N 0.34092 0.32176 0.61719
 N435 N 0.33131 0.33371 0.61992
 C436 C 0.32100 0.33394 0.60859
 C437 C 0.32425 0.32151 0.59821
 C438 C 0.33700 0.31411 0.60404
 H439 H 0.31161 0.34229 0.60814
 H440 H 0.34263 0.30343 0.59944
 H441 H 0.34308 0.32699 0.64723
 H442 H 0.35420 0.34113 0.63434
 N443 N 0.33372 0.87547 0.16862
 N444 N 0.34562 0.87755 0.17736
 C445 C 0.34214 0.88717 0.18936
 C446 C 0.32726 0.89156 0.18814
 C447 C 0.32224 0.88407 0.17472
 H448 H 0.34981 0.89038 0.19854
 H449 H 0.31094 0.88414 0.17019
 Cu450 Cu 0.36433 0.86646 0.17329
 Cu451 Cu 0.33423 0.86063 0.15079
 Cu452 Cu 0.36340 0.83226 0.15209
 N453 N 0.38028 0.85047 0.17455
 N454 N 0.37974 0.83684 0.16641
 C455 C 0.39108 0.82698 0.17070
 C456 C 0.39910 0.83478 0.18231
 C457 C 0.39191 0.84974 0.18438
 H458 H 0.39274 0.81461 0.16639
 H459 H 0.39439 0.85905 0.19292
 N460 N 0.34599 0.82994 0.13828
 N461 N 0.33504 0.84081 0.13740
 C462 C 0.32489 0.83544 0.12698
 C463 C 0.32967 0.82041 0.12119
 C464 C 0.34307 0.81741 0.12860
 H465 H 0.31454 0.84166 0.12422
 H466 H 0.35016 0.80677 0.12705
 H467 H 0.34713 0.84551 0.16380
 H468 H 0.35702 0.85628 0.14768
 N469 N 0.82114 0.37235 0.17243
 N470 N 0.83386 0.37629 0.17914
 C471 C 0.83162 0.38919 0.18860
 C472 C 0.81661 0.39356 0.18774
 C473 C 0.81037 0.38258 0.17731
 H474 H 0.84014 0.39451 0.19595
 H475 H 0.79869 0.38149 0.17409
 Cu476 Cu 0.85154 0.36284 0.17621
 Cu477 Cu 0.81903 0.35311 0.15931
 Cu478 Cu 0.85179 0.33282 0.14957
 N479 N 0.86602 0.34508 0.17691
 N480 N 0.86637 0.33340 0.16643
 C481 C 0.87723 0.32257 0.17013
 C482 C 0.88384 0.32766 0.18381
 C483 C 0.87644 0.34203 0.18768
 H484 H 0.87961 0.31144 0.16376
 H485 H 0.87828 0.34961 0.19775
 N486 N 0.83269 0.32948 0.13840
 N487 N 0.82026 0.33705 0.14245
 C488 C 0.80907 0.33224 0.13313
 C489 C 0.81454 0.32089 0.12270
 C490 C 0.82965 0.31947 0.12638
 H491 H 0.79777 0.33686 0.13387
 H492 H 0.83778 0.31155 0.12094
 H493 H 0.83749 0.33927 0.16620
 H494 H 0.84054 0.35562 0.15125
 N495 N 0.83336 0.86666 0.67034
 N496 N 0.84492 0.86946 0.67937
 C497 C 0.84136 0.88122 0.68961
 C498 C 0.82676 0.88616 0.68686
 C499 C 0.82207 0.87667 0.67447
 H500 H 0.84878 0.88560 0.69858
 H501 H 0.81103 0.87648 0.66932
 Cu502 Cu 0.86317 0.85677 0.67759
 Cu503 Cu 0.83337 0.84908 0.65498
 Cu504 Cu 0.86377 0.82261 0.65585
 N505 N 0.87881 0.84044 0.67995
 N506 N 0.87911 0.82715 0.67131
 C507 C 0.89063 0.81761 0.67577
 C508 C 0.89790 0.82528 0.68795
 C509 C 0.89005 0.83978 0.69025
 H510 H 0.89309 0.80563 0.67096
 H511 H 0.89212 0.84903 0.69897
 N512 N 0.84710 0.82022 0.64109
 N513 N 0.83563 0.83041 0.64059
 C514 C 0.82589 0.82510 0.62979
 C515 C 0.83143 0.81080 0.62327
 C516 C 0.84492 0.80812 0.63071
 H517 H 0.81522 0.83078 0.62735
 H518 H 0.85247 0.79794 0.62888
 H519 H 0.84723 0.83451 0.66822
 H520 H 0.85627 0.84648 0.65217
 N521 N 0.66062 0.62809 0.67082
 N522 N 0.64833 0.62603 0.67902
 C523 C 0.65111 0.61579 0.69089
 C524 C 0.66597 0.61102 0.69011
 C525 C 0.67165 0.61898 0.67712
 H526 H 0.64293 0.61221 0.69952
 H527 H 0.68306 0.61868 0.67287
 Cu528 Cu 0.62992 0.63735 0.67385
 Cu529 Cu 0.66126 0.64312 0.65310
 Cu530 Cu 0.63246 0.67187 0.65258
 N531 N 0.61389 0.65334 0.67365
 N532 N 0.61504 0.66702 0.66550
 C533 C 0.60316 0.67662 0.66849
 C534 C 0.59406 0.66860 0.67924
 C535 C 0.60128 0.65378 0.68217
 H536 H 0.60162 0.68881 0.66361
 H537 H 0.59812 0.64438 0.69050
 N538 N 0.65092 0.67435 0.64023
 N539 N 0.66169 0.66324 0.64004
 C540 C 0.67271 0.66859 0.63052
 C541 C 0.66870 0.68385 0.62455
 C542 C 0.65483 0.68705 0.63094
 H543 H 0.68309 0.66213 0.62852
 H544 H 0.64807 0.69787 0.62895
 H545 H 0.64775 0.65834 0.66540
 H546 H 0.63869 0.64790 0.64871
 N547 N 0.67193 0.12326 0.15718
 N548 N 0.66055 0.12153 0.16669
 C549 C 0.66353 0.10937 0.17685
 C550 C 0.67761 0.10309 0.17355
 C551 C 0.68254 0.11223 0.16092
 H552 H 0.65622 0.10586 0.18628
 H553 H 0.69322 0.11132 0.15510
 Cu554 Cu 0.64344 0.13614 0.16554
 Cu555 Cu 0.67278 0.14067 0.14160
 Cu556 Cu 0.64462 0.16994 0.14280
 N557 N 0.62931 0.15401 0.16811
 N558 N 0.62955 0.16704 0.15899
 C559 C 0.61894 0.17767 0.16364
 C560 C 0.61177 0.17101 0.17646
 C561 C 0.61868 0.15596 0.17895
 H562 H 0.61708 0.18971 0.15853
 H563 H 0.61635 0.14720 0.18812
 N564 N 0.66099 0.17051 0.12741
 N565 N 0.67162 0.15928 0.12692
 C566 C 0.68161 0.16356 0.11593
 C567 C 0.67717 0.17827 0.10919
 C568 C 0.66398 0.18227 0.11675
 H569 H 0.69180 0.15690 0.11356
 H570 H 0.65729 0.19318 0.11495
 H571 H 0.66050 0.15685 0.15493
 H572 H 0.65005 0.14545 0.13958
 N573 N 0.17090 0.63692 0.16277
 N574 N 0.16122 0.63623 0.17421
 C575 C 0.16571 0.62473 0.18446
 C576 C 0.17897 0.61788 0.17917
 C577 C 0.18182 0.62589 0.16530
 H578 H 0.16005 0.62202 0.19522
 H579 H 0.19129 0.62413 0.15771
 Cu580 Cu 0.14400 0.65095 0.17487
 Cu581 Cu 0.16911 0.65278 0.14588
 Cu582 Cu 0.14899 0.68716 0.15653
 N583 N 0.12942 0.66870 0.17671
 N584 N 0.13155 0.68273 0.16930
 C585 C 0.12063 0.69329 0.17297
 C586 C 0.11098 0.68560 0.18335
 C587 C 0.11693 0.66989 0.18543
 H588 H 0.12004 0.70577 0.16853
 H589 H 0.11283 0.66028 0.19310
 N590 N 0.16318 0.68722 0.13922
 N591 N 0.17052 0.67402 0.13473
 C592 C 0.17925 0.67814 0.12259
 C593 C 0.17727 0.69482 0.11926
 C594 C 0.16692 0.70006 0.13007
 H595 H 0.18678 0.66969 0.11695
 H596 H 0.16242 0.71233 0.13133
 H597 H 0.16344 0.66820 0.16291
 H598 H 0.14781 0.66340 0.14932
 N599 N 0.16383 0.12453 0.65409
 N600 N 0.15084 0.12137 0.66069
 C601 C 0.15235 0.10870 0.67065
 C602 C 0.16717 0.10368 0.67040
 C603 C 0.17408 0.11395 0.65962
 H604 H 0.14364 0.10452 0.67847
 H605 H 0.18585 0.11436 0.65662
 Cu606 Cu 0.13423 0.13634 0.65826
 Cu607 Cu 0.16688 0.14347 0.64041
 Cu608 Cu 0.13745 0.17122 0.63747
 N609 N 0.12136 0.15502 0.66197
 N610 N 0.12275 0.16892 0.65416
 C611 C 0.11345 0.18022 0.66027
 C612 C 0.10605 0.17299 0.67274
 C613 C 0.11130 0.15695 0.67332
 H614 H 0.11277 0.19295 0.65645
 H615 H 0.10852 0.14750 0.68173
 N616 N 0.15633 0.17367 0.62562
 N617 N 0.16759 0.16327 0.62707
 C618 C 0.17910 0.16859 0.61828
 C619 C 0.17496 0.18302 0.61089
 C620 C 0.16040 0.18586 0.61575
 H621 H 0.18975 0.16241 0.61729
 H622 H 0.15346 0.19628 0.61271
 H623 H 0.15152 0.15845 0.65135
 H624 H 0.14488 0.14708 0.63401
 N625 N 0.32633 0.63465 0.33152
 N626 N 0.33723 0.63626 0.32141
 C627 C 0.33528 0.62485 0.31027
 C628 C 0.32249 0.61558 0.31368
 C629 C 0.31718 0.62219 0.32728
 H630 H 0.34236 0.62372 0.30022
 H631 H 0.30688 0.61888 0.33315
 Cu632 Cu 0.35225 0.65390 0.32327
 Cu633 Cu 0.32331 0.65020 0.34813
 Cu634 Cu 0.34799 0.68329 0.35051
 N635 N 0.36593 0.67282 0.32484
 N636 N 0.36402 0.68432 0.33529
 C637 C 0.37440 0.69633 0.33324
 C638 C 0.38337 0.69217 0.32086
 C639 C 0.37770 0.67712 0.31584
 H640 H 0.37526 0.70737 0.34017
 H641 H 0.38150 0.67016 0.30600
 N642 N 0.33108 0.68002 0.36493
 N643 N 0.32188 0.66720 0.36411
 C644 C 0.31098 0.66884 0.37470
 C645 C 0.31334 0.68346 0.38259
 C646 C 0.32628 0.69018 0.37615
 H647 H 0.30170 0.66028 0.37621
 H648 H 0.33138 0.70199 0.37889
 H649 H 0.33339 0.67006 0.33672
 H650 H 0.34546 0.65801 0.35024
 N651 N 0.33871 0.13428 0.84361
 N652 N 0.35079 0.13190 0.83526
 C653 C 0.34754 0.12139 0.82378
 C654 C 0.33255 0.11684 0.82495
 C655 C 0.32733 0.12519 0.83779
 H656 H 0.35549 0.11760 0.81511
 H657 H 0.31598 0.12524 0.84221
 Cu658 Cu 0.36953 0.14332 0.83957
 Cu659 Cu 0.33870 0.14985 0.86074
 Cu660 Cu 0.36670 0.17977 0.85723
 N661 N 0.38610 0.15902 0.83965
 N662 N 0.38507 0.17317 0.84693
 C663 C 0.39730 0.18247 0.84381
 C664 C 0.40638 0.17379 0.83383
 C665 C 0.39893 0.15891 0.83145
 H666 H 0.39881 0.19518 0.84738
 H667 H 0.40209 0.14921 0.82360
 N668 N 0.34893 0.18243 0.87044
 N669 N 0.33842 0.17093 0.87208
 C670 C 0.32764 0.17664 0.88150
 C671 C 0.33155 0.19256 0.88594
 C672 C 0.34515 0.19573 0.87877
 H673 H 0.31744 0.16996 0.88437
 H674 H 0.35178 0.20696 0.87946
 H675 H 0.35128 0.16408 0.84660
 H676 H 0.36152 0.15614 0.86378
 N677 N 0.83949 0.62610 0.83756
 N678 N 0.85122 0.62295 0.82891
 C679 C 0.84738 0.61185 0.81812
 C680 C 0.83239 0.60770 0.82006
 C681 C 0.82776 0.61688 0.83264
 H682 H 0.85490 0.60747 0.80929
 H683 H 0.81656 0.61743 0.83741
 Cu684 Cu 0.87010 0.63463 0.83144
 Cu685 Cu 0.84053 0.64271 0.85386
 Cu686 Cu 0.86979 0.67117 0.84927
 N687 N 0.88606 0.65067 0.82827
 N688 N 0.88576 0.66518 0.83499
 C689 C 0.89714 0.67458 0.82950
 C690 C 0.90491 0.66551 0.81861
 C691 C 0.89754 0.65033 0.81822
 H692 H 0.89905 0.68738 0.83254
 H693 H 0.89986 0.64006 0.81069
 N694 N 0.85267 0.67470 0.86328
 N695 N 0.84171 0.66377 0.86531
 C696 C 0.83183 0.66983 0.87555
 C697 C 0.83677 0.68536 0.88013
 C698 C 0.85001 0.68798 0.87211
 H699 H 0.82158 0.66361 0.87906
 H700 H 0.85722 0.69879 0.87272
 H701 H 0.85335 0.65652 0.83916
 H702 H 0.86347 0.64770 0.85601
 N703 N 0.83182 0.12610 0.34346
 N704 N 0.84113 0.12784 0.33181
 C705 C 0.83679 0.11763 0.32040
 C706 C 0.82403 0.10902 0.32520
 C707 C 0.82133 0.11470 0.33997
 H708 H 0.84225 0.11692 0.30930
 H709 H 0.81224 0.11111 0.34759
 Cu710 Cu 0.85768 0.14373 0.33261
 Cu711 Cu 0.83350 0.13934 0.36197
 Cu712 Cu 0.85458 0.17529 0.35758
 N713 N 0.87018 0.16348 0.33082
 N714 N 0.86871 0.17585 0.34046
 C715 C 0.87807 0.18820 0.33625
 C716 C 0.88586 0.18341 0.32321
 C717 C 0.88056 0.16757 0.32013
 H718 H 0.87905 0.19985 0.34224
 H719 H 0.88362 0.15981 0.31054
 N720 N 0.83977 0.17203 0.37424
 N721 N 0.83205 0.15816 0.37609
 C722 C 0.82227 0.15998 0.38776
 C723 C 0.82389 0.17580 0.39360
 C724 C 0.83517 0.18304 0.38479
 H725 H 0.81417 0.15067 0.39129
 H726 H 0.83918 0.19567 0.38549
 H727 H 0.83956 0.15871 0.34786
 H728 H 0.85488 0.15035 0.36015
 N729 N 0.66578 0.36591 0.34300
 N730 N 0.65733 0.36442 0.33070
 C731 C 0.66193 0.37550 0.32002
 C732 C 0.67396 0.38446 0.32596
 C733 C 0.67597 0.37804 0.34065
 H734 H 0.65706 0.37662 0.30867
 H735 H 0.68460 0.38133 0.34884
 Cu736 Cu 0.64148 0.34768 0.32960
 Cu737 Cu 0.66371 0.35102 0.36060
 Cu738 Cu 0.64773 0.31344 0.35053
 N739 N 0.62889 0.32803 0.32743
 N740 N 0.63144 0.31470 0.33570
 C741 C 0.62191 0.30261 0.33139
 C742 C 0.61280 0.30860 0.31973
 C743 C 0.61757 0.32487 0.31756
 H744 H 0.62187 0.29029 0.33629
 H745 H 0.61353 0.33357 0.30907
 N746 N 0.66045 0.31639 0.36887
 N747 N 0.66607 0.33083 0.37303
 C748 C 0.67453 0.32875 0.38571
 C749 C 0.67425 0.31212 0.38978
 C750 C 0.66510 0.30473 0.37883
 H751 H 0.68085 0.33858 0.39116
 H752 H 0.66239 0.29172 0.37782
 H753 H 0.66099 0.33369 0.34420
 H754 H 0.64387 0.33727 0.35608
 N755 N 0.66180 0.86249 0.83165
 N756 N 0.64933 0.86235 0.82359
 C757 C 0.65085 0.87260 0.81144
 C758 C 0.66503 0.87970 0.81190
 C759 C 0.67165 0.87310 0.82499
 H760 H 0.64229 0.87460 0.80283
 H761 H 0.68299 0.87527 0.82898
 Cu762 Cu 0.63222 0.84862 0.82935
 Cu763 Cu 0.66438 0.84779 0.84943
 Cu764 Cu 0.64082 0.81341 0.84737
 N765 N 0.61754 0.83090 0.83170
 N766 N 0.62098 0.81715 0.83893
 C767 C 0.60952 0.80632 0.83770
 C768 C 0.59827 0.81360 0.82912
 C769 C 0.60376 0.82928 0.82553
 H770 H 0.60981 0.79368 0.84185
 H771 H 0.59849 0.83851 0.81835
 N772 N 0.65909 0.81410 0.86000
 N773 N 0.66787 0.82726 0.86130
 C774 C 0.67919 0.82368 0.87102
 C775 C 0.67743 0.80742 0.87599
 C776 C 0.66452 0.80185 0.86880
 H777 H 0.68823 0.83212 0.87392
 H778 H 0.65930 0.78979 0.87004
 H779 H 0.65359 0.83147 0.83602
 H780 H 0.64274 0.83770 0.85339
 N781 N 0.15930 0.38064 0.84224
 N782 N 0.14755 0.38360 0.83358
 C783 C 0.15120 0.39512 0.82295
 C784 C 0.16611 0.39956 0.82500
 C785 C 0.17087 0.39016 0.83742
 H786 H 0.14377 0.39930 0.81393
 H787 H 0.18197 0.38996 0.84241
 Cu788 Cu 0.12914 0.37087 0.83598
 Cu789 Cu 0.15868 0.36424 0.85872
 Cu790 Cu 0.13086 0.33427 0.85446
 N791 N 0.11401 0.35386 0.83298
 N792 N 0.11488 0.33940 0.83987
 C793 C 0.10412 0.32932 0.83426
 C794 C 0.09611 0.33789 0.82310
 C795 C 0.10272 0.35349 0.82273
 H796 H 0.10283 0.31644 0.83744
 H797 H 0.10017 0.36358 0.81498
 N798 N 0.14798 0.33181 0.86872
 N799 N 0.15839 0.34336 0.87043
 C800 C 0.16867 0.33807 0.88059
 C801 C 0.16459 0.32236 0.88561
 C802 C 0.15137 0.31882 0.87782
 H803 H 0.17863 0.34500 0.88370
 H804 H 0.14475 0.30758 0.87863
 H805 H 0.14653 0.34968 0.84407
 H806 H 0.13585 0.35803 0.86073
 N807 N 0.15805 0.87030 0.33484
 N808 N 0.14715 0.87037 0.32468
 C809 C 0.15058 0.88116 0.31334
 C810 C 0.16443 0.88833 0.31654
 C811 C 0.16877 0.88116 0.33038
 H812 H 0.14355 0.88344 0.30344
 H813 H 0.17918 0.88318 0.33651
 Cu814 Cu 0.12960 0.85609 0.32693
 Cu815 Cu 0.15769 0.85534 0.35256
 Cu816 Cu 0.13572 0.82053 0.34581
 N817 N 0.11508 0.83802 0.32649
 N818 N 0.11758 0.82411 0.33387
 C819 C 0.10653 0.81323 0.33069
 C820 C 0.09647 0.82069 0.32072
 C821 C 0.10230 0.83650 0.31835
 H822 H 0.10627 0.80060 0.33483
 H823 H 0.09794 0.84601 0.31084
 N824 N 0.15153 0.82136 0.36162
 N825 N 0.15957 0.83476 0.36459
 C826 C 0.16932 0.83135 0.37598
 C827 C 0.16733 0.81495 0.38040
 C828 C 0.15590 0.80908 0.37106
 H829 H 0.17760 0.84000 0.38032
 H830 H 0.15106 0.79677 0.37110
 H831 H 0.14976 0.83907 0.33708
 H832 H 0.13593 0.84466 0.35229
 C833 C 0.25923 0.97051 0.24843
 C834 C 0.24961 0.96179 0.25836
 C835 C 0.24212 0.96968 0.27039
 C836 C 0.24410 0.98692 0.27250
 C837 C 0.25400 0.99591 0.26267
 C838 C 0.26161 0.98769 0.25060
 C839 C 0.27150 0.99681 0.24113
 C840 C 0.27385 1.01368 0.24342
 C841 C 0.26654 1.02208 0.25538
 C842 C 0.25631 1.01316 0.26494
 C843 C 0.23629 0.99543 0.28405
 C844 C 0.23832 1.01236 0.28608
 C845 C 0.24822 1.02149 0.27662
 C846 C 0.25029 1.03872 0.27858
 C847 C 0.26073 1.04722 0.26939
 C848 C 0.26886 1.03924 0.25784
 H849 H 0.27757 0.99099 0.23185
 H850 H 0.28140 1.02006 0.23559
 H851 H 0.22840 0.98911 0.29158
 H852 H 0.23214 1.01821 0.29527
 H853 H 0.24806 0.94858 0.25680
 H854 H 0.26226 1.06044 0.27099
 C855 C 0.24523 0.52613 0.75666
 C856 C 0.25315 0.53453 0.74506
 C857 C 0.26210 0.52603 0.73457
 C858 C 0.26327 0.50865 0.73561
 C859 C 0.25546 0.49998 0.74743
 C860 C 0.24661 0.50877 0.75816
 C861 C 0.23966 0.50005 0.77029
 C862 C 0.24088 0.48294 0.77151
 C863 C 0.24875 0.47382 0.76041
 C864 C 0.25646 0.48248 0.74849
 C865 C 0.27219 0.49975 0.72525
 C866 C 0.27311 0.48261 0.72624
 C867 C 0.26511 0.47369 0.73758
 C868 C 0.26570 0.45623 0.73844
 C869 C 0.25799 0.44784 0.75020
 C870 C 0.24938 0.45630 0.76106
 H871 H 0.23337 0.50639 0.77910
 H872 H 0.23562 0.47700 0.78134
 H873 H 0.27856 0.50597 0.71627
 H874 H 0.28027 0.47643 0.71804
 H875 H 0.25206 0.54784 0.74394
 H876 H 0.25822 0.43442 0.75052
 C877 C 0.76538 -0.03652 0.25564
 C878 C 0.75441 -0.04457 0.24688
 C879 C 0.74666 -0.03628 0.23525
 C880 C 0.74988 -0.01943 0.23218
 C881 C 0.76093 -0.01107 0.24103
 C882 C 0.76877 -0.01965 0.25278
 C883 C 0.77961 -0.01111 0.26147
 C884 C 0.78268 0.00558 0.25870
 C885 C 0.77498 0.01434 0.24718
 C886 C 0.76403 0.00595 0.23824
 C887 C 0.74239 -0.01077 0.22047
 C888 C 0.74544 0.00591 0.21772
 C889 C 0.75600 0.01460 0.22666
 C890 C 0.75887 0.03169 0.22427
 C891 C 0.76992 0.03969 0.23299
 C892 C 0.77789 0.03131 0.24442
 H893 H 0.78579 -0.01724 0.27054
 H894 H 0.79116 0.01156 0.26571
 H895 H 0.73408 -0.01682 0.21330
 H896 H 0.73946 0.01189 0.20843
 H897 H 0.75179 -0.05748 0.24922
 H898 H 0.77193 0.05284 0.23130
 C899 C 0.75252 0.46161 0.76902
 C900 C 0.74437 0.45338 0.75757
 C901 C 0.73676 0.46209 0.74608
 C902 C 0.73680 0.47959 0.74625
 C903 C 0.74496 0.48813 0.75782
 C904 C 0.75295 0.47912 0.76919
 C905 C 0.76097 0.48786 0.78051
 C906 C 0.76126 0.50509 0.78062
 C907 C 0.75335 0.51426 0.76954
 C908 C 0.74512 0.50571 0.75803
 C909 C 0.72866 0.48877 0.73536
 C910 C 0.72878 0.50598 0.73558
 C911 C 0.73708 0.51471 0.74670
 C912 C 0.73737 0.53221 0.74693
 C913 C 0.74557 0.54045 0.75831
 C914 C 0.75357 0.53176 0.76953
 H915 H 0.76709 0.48146 0.78945
 H916 H 0.76770 0.51116 0.78955
 H917 H 0.72196 0.48273 0.72661
 H918 H 0.72223 0.51238 0.72697
 H919 H 0.74431 0.43996 0.75736
 H920 H 0.74587 0.55388 0.75833
 C921 C 0.24340 0.46160 0.27271
 C922 C 0.23300 0.45328 0.26345
 C923 C 0.22296 0.46187 0.25406
 C924 C 0.22339 0.47940 0.25371
 C925 C 0.23396 0.48802 0.26297
 C926 C 0.24401 0.47910 0.27249
 C927 C 0.25470 0.48788 0.28119
 C928 C 0.25540 0.50508 0.28072
 C929 C 0.24545 0.51419 0.27152
 C930 C 0.23469 0.50560 0.26247
 C931 C 0.21390 0.48850 0.24399
 C932 C 0.21456 0.50572 0.24356
 C933 C 0.22479 0.51453 0.25279
 C934 C 0.22567 0.53203 0.25231
 C935 C 0.23645 0.54030 0.26118
 C936 C 0.24620 0.53168 0.27086
 H937 H 0.26279 0.48154 0.28832
 H938 H 0.26400 0.51114 0.28749
 H939 H 0.20596 0.48241 0.23644
 H940 H 0.20711 0.51204 0.23572
 H941 H 0.23265 0.43986 0.26364
 H942 H 0.23697 0.55371 0.26088
 C943 C 0.74629 0.96412 0.72943
 C944 C 0.73844 0.95595 0.74122
 C945 C 0.72852 0.96438 0.75081
 C946 C 0.72619 0.98151 0.74855
 C947 C 0.73422 0.99002 0.73676
 C948 C 0.74439 0.98133 0.72723
 C949 C 0.75253 0.99011 0.71591
 C950 C 0.75060 1.00705 0.71385
 C951 C 0.74041 1.01584 0.72298
 C952 C 0.73210 1.00726 0.73451
 C953 C 0.71593 0.99029 0.75762
 C954 C 0.71371 1.00716 0.75528
 C955 C 0.72177 1.01591 0.74388
 C956 C 0.71970 1.03308 0.74148
 C957 C 0.72791 1.04132 0.72998
 C958 C 0.73836 1.03302 0.72092
 H959 H 0.76058 0.98400 0.70860
 H960 H 0.75712 1.01319 0.70493
 H961 H 0.70943 0.98416 0.76656
 H962 H 0.70557 1.01327 0.76249
 H963 H 0.74002 0.94277 0.74291
 H964 H 0.72656 1.05456 0.72845
 C965 C 0.77713 0.46688 0.27479
 C966 C 0.76647 0.45840 0.28371
 C967 C 0.75723 0.46672 0.29408
 C968 C 0.75863 0.48411 0.29561
 C969 C 0.76917 0.49291 0.28634
 C970 C 0.77845 0.48426 0.27588
 C971 C 0.78855 0.49322 0.26652
 C972 C 0.78943 0.51038 0.26727
 C973 C 0.78036 0.51923 0.27754
 C974 C 0.77021 0.51042 0.28725
 C975 C 0.74954 0.49298 0.30585
 C976 C 0.75077 0.51012 0.30697
 C977 C 0.76081 0.51913 0.29755
 C978 C 0.76169 0.53662 0.29811
 C979 C 0.77172 0.54510 0.28840
 C980 C 0.78088 0.53669 0.27806
 H981 H 0.79574 0.48706 0.25834
 H982 H 0.79726 0.51665 0.25965
 H983 H 0.74130 0.48680 0.31306
 H984 H 0.74365 0.51624 0.31523
 H985 H 0.76540 0.44508 0.28260
 H986 H 0.77202 0.55852 0.28851
 C987 C 0.23940 0.04581 0.74505
 C988 C 0.24692 0.05410 0.75690
 C989 C 0.25404 0.04544 0.76874
 C990 C 0.25367 0.02796 0.76890
 C991 C 0.24623 0.01936 0.75689
 C992 C 0.23918 0.02829 0.74484
 C993 C 0.23263 0.01946 0.73261
 C994 C 0.23261 0.00227 0.73241
 C995 C 0.23926 -0.00684 0.74437
 C996 C 0.24628 0.00178 0.75665
 C997 C 0.26096 0.01888 0.78048
 C998 C 0.26102 0.00167 0.78024
 C999 C 0.25379 -0.00712 0.76841
 C1000 C 0.25427 -0.02456 0.76774
 C1001 C 0.24721 -0.03290 0.75567
 C1002 C 0.23963 -0.02433 0.74407
 H1003 H 0.22768 0.02573 0.72285
 H1004 H 0.22759 -0.00379 0.72257
 H1005 H 0.26685 0.02499 0.78978
 H1006 H 0.26696 -0.00468 0.78935
 H1007 H 0.24731 0.06752 0.75687
 H1008 H 0.24771 -0.04630 0.75523
 C1009 C 0.24969 0.27961 1.02493
 C1010 C 0.26051 0.27004 1.03237
 C1011 C 0.26882 0.25827 1.02442
 C1012 C 0.26639 0.25589 1.00852
 C1013 C 0.25567 0.26571 1.00071
 C1014 C 0.24735 0.27769 1.00891
 C1015 C 0.23707 0.28754 1.00085
 C1016 C 0.23483 0.28553 0.98511
 C1017 C 0.24295 0.27375 0.97675
 C1018 C 0.25330 0.26356 0.98467
 C1019 C 0.27442 0.24401 1.00023
 C1020 C 0.27198 0.24177 0.98455
 C1021 C 0.26142 0.25137 0.97655
 C1022 C 0.25898 0.24934 0.96058
 C1023 C 0.24886 0.25957 0.95289
 C1024 C 0.24096 0.27183 0.96068
 H1025 H 0.23073 0.29706 1.00658
 H1026 H 0.22659 0.29330 0.97959
 H1027 H 0.28272 0.23633 1.00581
 H1028 H 0.27856 0.23252 0.97873
 H1029 H 0.26223 0.27147 1.04467
 H1030 H 0.24737 0.25820 0.94056
 C1031 C 0.26214 0.75672 0.46316
 C1032 C 0.25151 0.76638 0.45559
 C1033 C 0.24044 0.77484 0.46371
 C1034 C 0.23976 0.77344 0.47996
 C1035 C 0.25042 0.76356 0.48780
 C1036 C 0.26170 0.75523 0.47938
 C1037 C 0.27200 0.74531 0.48734
 C1038 C 0.27140 0.74378 0.50330
 C1039 C 0.26042 0.75202 0.51190
 C1040 C 0.24965 0.76178 0.50408
 C1041 C 0.22855 0.78135 0.48853
 C1042 C 0.22783 0.77965 0.50449
 C1043 C 0.23813 0.76974 0.51249
 C1044 C 0.23741 0.76774 0.52869
 C1045 C 0.24822 0.75823 0.53622
 C1046 C 0.25974 0.75053 0.52812
 H1047 H 0.28059 0.73854 0.48131
 H1048 H 0.27953 0.73585 0.50879
 H1049 H 0.22013 0.78886 0.48299
 H1050 H 0.21909 0.78622 0.51048
 H1051 H 0.25192 0.76739 0.44313
 H1052 H 0.24775 0.75695 0.54866
 C1053 C 0.26674 0.76526 0.03610
 C1054 C 0.25686 0.75465 0.04399
 C1055 C 0.24783 0.74318 0.03624
 C1056 C 0.24836 0.74247 0.01997
 C1057 C 0.25857 0.75287 0.01178
 C1058 C 0.26790 0.76421 0.01987
 C1059 C 0.27826 0.77397 0.01152
 C1060 C 0.27927 0.77284 -0.00446
 C1061 C 0.26995 0.76193 -0.01271
 C1062 C 0.25942 0.75193 -0.00453
 C1063 C 0.23875 0.73190 0.01167
 C1064 C 0.23938 0.73123 -0.00432
 C1065 C 0.24973 0.74101 -0.01264
 C1066 C 0.25047 0.74037 -0.02889
 C1067 C 0.26082 0.75036 -0.03679
 C1068 C 0.27071 0.76088 -0.02896
 H1069 H 0.28579 0.78249 0.01728
 H1070 H 0.28736 0.78074 -0.01031
 H1071 H 0.23048 0.72419 0.01745
 H1072 H 0.23161 0.72300 -0.01012
 H1073 H 0.25621 0.75531 0.05646
 H1074 H 0.26148 0.74959 -0.04925
 C1075 C 0.23813 0.28386 0.52849
 C1076 C 0.22771 0.27391 0.53637
 C1077 C 0.21927 0.26175 0.52881
 C1078 C 0.22134 0.25929 0.51282
 C1079 C 0.23147 0.26968 0.50455
 C1080 C 0.23972 0.28218 0.51236
 C1081 C 0.24940 0.29261 0.50386
 C1082 C 0.25136 0.29046 0.48810
 C1083 C 0.24374 0.27776 0.48023
 C1084 C 0.23370 0.26726 0.48851
 C1085 C 0.21397 0.24637 0.50501
 C1086 C 0.21643 0.24374 0.48938
 C1087 C 0.22618 0.25409 0.48088
 C1088 C 0.22900 0.25134 0.46504
 C1089 C 0.23893 0.26181 0.45708
 C1090 C 0.24615 0.27503 0.46436
 H1091 H 0.25553 0.30259 0.50933
 H1092 H 0.25910 0.29870 0.48217
 H1093 H 0.20645 0.23792 0.51098
 H1094 H 0.21071 0.23338 0.48407
 H1095 H 0.22655 0.27521 0.54875
 H1096 H 0.24097 0.25973 0.44492
 C1097 C 0.76962 0.74274 0.95972
 C1098 C 0.76059 0.75338 0.95111
 C1099 C 0.75062 0.76424 0.95817
 C1100 C 0.74947 0.76443 0.97444
 C1101 C 0.75894 0.75414 0.98338
 C1102 C 0.76912 0.74333 0.97601
 C1103 C 0.77857 0.73348 0.98510
 C1104 C 0.77783 0.73394 1.00111
 C1105 C 0.76768 0.74436 1.00867
 C1106 C 0.75805 0.75446 0.99972
 C1107 C 0.73882 0.77423 0.98198
 C1108 C 0.73775 0.77430 0.99797
 C1109 C 0.74740 0.76472 1.00708
 C1110 C 0.74643 0.76476 1.02336
 C1111 C 0.75599 0.75472 1.03198
 C1112 C 0.76668 0.74472 1.02493
 H1113 H 0.78671 0.72535 0.97993
 H1114 H 0.78521 0.72588 1.00750
 H1115 H 0.73099 0.78175 0.97560
 H1116 H 0.72915 0.78186 1.00310
 H1117 H 0.76111 0.75296 0.93863
 H1118 H 0.75534 0.75499 1.04446
 C1119 C 0.77488 0.25765 0.46788
 C1120 C 0.76469 0.26767 0.46007
 C1121 C 0.75434 0.27729 0.46805
 C1122 C 0.75416 0.27704 0.48434
 C1123 C 0.76421 0.26660 0.49239
 C1124 C 0.77458 0.25682 0.48413
 C1125 C 0.78425 0.24633 0.49230
 C1126 C 0.78347 0.24511 0.50827
 C1127 C 0.77308 0.25443 0.51669
 C1128 C 0.76369 0.26568 0.50872
 C1129 C 0.74398 0.28660 0.49276
 C1130 C 0.74376 0.28607 0.50879
 C1131 C 0.75358 0.27578 0.51701
 C1132 C 0.75328 0.27489 0.53329
 C1133 C 0.76228 0.26339 0.54092
 C1134 C 0.77188 0.25291 0.53289
 H1135 H 0.79240 0.23880 0.48638
 H1136 H 0.79120 0.23687 0.51398
 H1137 H 0.73603 0.29457 0.48702
 H1138 H 0.73558 0.29358 0.51465
 H1139 H 0.76479 0.26794 0.44757
 H1140 H 0.76156 0.26235 0.55336
 C1141 C 0.75556 0.22866 -0.03087
 C1142 C 0.76423 0.24071 -0.03842
 C1143 C 0.77339 0.25176 -0.03029
 C1144 C 0.77415 0.25058 -0.01402
 C1145 C 0.76528 0.23851 -0.00618
 C1146 C 0.75584 0.22762 -0.01463
 C1147 C 0.74665 0.21626 -0.00661
 C1148 C 0.74677 0.21551 0.00939
 C1149 C 0.75623 0.22594 0.01799
 C1150 C 0.76567 0.23748 0.01016
 C1151 C 0.78359 0.26104 -0.00540
 C1152 C 0.78405 0.25995 0.01061
 C1153 C 0.77523 0.24823 0.01864
 C1154 C 0.77535 0.24723 0.03494
 C1155 C 0.76575 0.23599 0.04245
 C1156 C 0.75622 0.22544 0.03426
 H1157 H 0.73909 0.20798 -0.01263
 H1158 H 0.73930 0.20669 0.01495
 H1159 H 0.79072 0.27019 -0.01096
 H1160 H 0.79129 0.26856 0.01664
 H1161 H 0.76370 0.24162 -0.05088
 H1162 H 0.76571 0.23541 0.05494
 C1163 C 0.75961 0.75695 0.47920
 C1164 C 0.74914 0.74696 0.47156
 C1165 C 0.73916 0.73665 0.47965
 C1166 C 0.73943 0.73646 0.49596
 C1167 C 0.74973 0.74685 0.50389
 C1168 C 0.75978 0.75722 0.49549
 C1169 C 0.76959 0.76775 0.50359
 C1170 C 0.76967 0.76796 0.51962
 C1171 C 0.75994 0.75765 0.52818
 C1172 C 0.75000 0.74684 0.52025
 C1173 C 0.72950 0.72639 0.50454
 C1174 C 0.73001 0.72611 0.52057
 C1175 C 0.74030 0.73608 0.52866
 C1176 C 0.74093 0.73586 0.54495
 C1177 C 0.75064 0.74675 0.55258
 C1178 C 0.75998 0.75774 0.54447
 H1179 H 0.77721 0.77608 0.49760
 H1180 H 0.77753 0.77623 0.52524
 H1181 H 0.72118 0.71866 0.49896
 H1182 H 0.72208 0.71815 0.52656
 H1183 H 0.74916 0.74670 0.45906
 H1184 H 0.75090 0.74672 0.56508
 C1185 C 1.02779 0.23104 0.24947
 C1186 C 1.03563 0.24297 0.24088
 C1187 C 1.02819 0.25413 0.23126
 C1188 C 1.01237 0.25319 0.22992
 C1189 C 1.00424 0.24128 0.23874
 C1190 C 1.01196 0.23028 0.24868
 C1191 C 1.00366 0.21904 0.25778
 C1192 C 0.98807 0.21855 0.25713
 C1193 C 0.98018 0.22903 0.24709
 C1194 C 0.98834 0.24045 0.23774
 C1195 C 1.00449 0.26371 0.21990
 C1196 C 0.98891 0.26277 0.21879
 C1197 C 0.98061 0.25127 0.22763
 C1198 C 0.96476 0.25055 0.22693
 C1199 C 0.95689 0.23945 0.23643
 C1200 C 0.96432 0.22873 0.24646
 H1201 H 1.00915 0.21069 0.26570
 H1202 H 0.98227 0.20990 0.26465
 H1203 H 1.01030 0.27275 0.21279
 H1204 H 0.98341 0.27131 0.21105
 H1205 H 1.04777 0.24359 0.24173
 H1206 H 0.94473 0.23913 0.23599
 C1207 C 0.53382 0.22965 0.75196
 C1208 C 0.54078 0.24312 0.74464
 C1209 C 0.53268 0.25404 0.73538
 C1210 C 0.51707 0.25162 0.73344
 C1211 C 0.50976 0.23829 0.74115
 C1212 C 0.51816 0.22723 0.75042
 C1213 C 0.51064 0.21428 0.75817
 C1214 C 0.49517 0.21227 0.75692
 C1215 C 0.48661 0.22319 0.74793
 C1216 C 0.49398 0.23617 0.73980
 C1217 C 0.50854 0.26234 0.72422
 C1218 C 0.49314 0.26004 0.72262
 C1219 C 0.48557 0.24725 0.73056
 C1220 C 0.46980 0.24521 0.72949
 C1221 C 0.46273 0.23222 0.73747
 C1222 C 0.47085 0.22146 0.74689
 H1223 H 0.51662 0.20567 0.76545
 H1224 H 0.48998 0.20202 0.76305
 H1225 H 0.51368 0.27268 0.71818
 H1226 H 0.48723 0.26848 0.71513
 H1227 H 0.55279 0.24498 0.74594
 H1228 H 0.45061 0.23103 0.73701
 C1229 C -0.03020 0.23782 0.73113
 C1230 C -0.03895 0.24457 0.74284
 C1231 C -0.03249 0.25384 0.75469
 C1232 C -0.01674 0.25610 0.75516
 C1233 C -0.00772 0.24924 0.74338
 C1234 C -0.01448 0.24017 0.73124
 C1235 C -0.00532 0.23338 0.71975
 C1236 C 0.01018 0.23553 0.72011
 C1237 C 0.01713 0.24444 0.73204
 C1238 C 0.00811 0.25125 0.74384
 C1239 C -0.00977 0.26470 0.76728
 C1240 C 0.00577 0.26650 0.76783
 C1241 C 0.01491 0.25982 0.75626
 C1242 C 0.03070 0.26134 0.75685
 C1243 C 0.03947 0.25469 0.74509
 C1244 C 0.03290 0.24637 0.73269
 H1245 H -0.01004 0.22621 0.71041
 H1246 H 0.01668 0.22995 0.71101
 H1247 H -0.01624 0.26994 0.77657
 H1248 H 0.01057 0.27314 0.77747
 H1249 H -0.05104 0.24284 0.74259
 H1250 H 0.05159 0.25587 0.74567
 C1251 C 0.46878 0.24537 0.22460
 C1252 C 0.46114 0.25620 0.23427
 C1253 C 0.46880 0.26739 0.24372
 C1254 C 0.48468 0.26781 0.24358
 C1255 C 0.49261 0.25721 0.23351
 C1256 C 0.48463 0.24600 0.22393
 C1257 C 0.49268 0.23573 0.21393
 C1258 C 0.50830 0.23628 0.21349
 C1259 C 0.51645 0.24705 0.22308
 C1260 C 0.50855 0.25756 0.23326
 C1261 C 0.49284 0.27815 0.25357
 C1262 C 0.50846 0.27824 0.25355
 C1263 C 0.51656 0.26818 0.24339
 C1264 C 0.53244 0.26805 0.24339
 C1265 C 0.54003 0.25763 0.23327
 C1266 C 0.53232 0.24733 0.22304
 H1267 H 0.48696 0.22719 0.20632
 H1268 H 0.51393 0.22798 0.20569
 H1269 H 0.48721 0.28608 0.26170
 H1270 H 0.51412 0.28621 0.26171
 H1271 H 0.44897 0.25566 0.23469
 H1272 H 0.55221 0.25767 0.23324
 C1273 C 1.04462 0.73476 0.75503
 C1274 C 1.05190 0.74281 0.74280
 C1275 C 1.04388 0.75130 0.73146
 C1276 C 1.02803 0.75181 0.73227
 C1277 C 1.02046 0.74348 0.74447
 C1278 C 1.02875 0.73482 0.75584
 C1279 C 1.02098 0.72637 0.76764
 C1280 C 1.00540 0.72685 0.76857
 C1281 C 0.99700 0.73577 0.75772
 C1282 C 1.00456 0.74406 0.74548
 C1283 C 1.01961 0.76078 0.72145
 C1284 C 1.00403 0.76144 0.72249
 C1285 C 0.99627 0.75307 0.73435
 C1286 C 0.98045 0.75376 0.73561
 C1287 C 0.97319 0.74553 0.74776
 C1288 C 0.98121 0.73658 0.75874
 H1289 H 1.02687 0.71923 0.77626
 H1290 H 0.99999 0.72019 0.77793
 H1291 H 1.02499 0.76752 0.71213
 H1292 H 0.99814 0.76869 0.71396
 H1293 H 1.06406 0.74286 0.74231
 H1294 H 0.96106 0.74606 0.74866
 C1295 C 0.53516 0.73882 0.26054
 C1296 C 0.54345 0.74720 0.24919
 C1297 C 0.53643 0.75540 0.23699
 C1298 C 0.52057 0.75560 0.23624
 C1299 C 0.51201 0.74679 0.24745
 C1300 C 0.51932 0.73825 0.25957
 C1301 C 0.51062 0.72924 0.27029
 C1302 C 0.49503 0.72871 0.26921
 C1303 C 0.48753 0.73726 0.25742
 C1304 C 0.49609 0.74658 0.24656
 C1305 C 0.51305 0.76462 0.22477
 C1306 C 0.49745 0.76479 0.22415
 C1307 C 0.48877 0.75576 0.23486
 C1308 C 0.47294 0.75588 0.23434
 C1309 C 0.46465 0.74656 0.24500
 C1310 C 0.47167 0.73702 0.25633
 H1311 H 0.51580 0.72239 0.27958
 H1312 H 0.48888 0.72172 0.27786
 H1313 H 0.51916 0.77187 0.21628
 H1314 H 0.49225 0.77206 0.21516
 H1315 H 0.55561 0.74729 0.24984
 H1316 H 0.45249 0.74649 0.24427
 C1317 C -0.03979 0.74202 0.26773
 C1318 C -0.04717 0.73196 0.25705
 C1319 C -0.03938 0.72052 0.24811
 C1320 C -0.02363 0.71920 0.24969
 C1321 C -0.01603 0.72904 0.26076
 C1322 C -0.02415 0.74040 0.26990
 C1323 C -0.01645 0.74971 0.28108
 C1324 C -0.00103 0.74819 0.28302
 C1325 C 0.00728 0.73737 0.27380
 C1326 C -0.00027 0.72764 0.26261
 C1327 C -0.01523 0.70860 0.24028
 C1328 C 0.00028 0.70747 0.24188
 C1329 C 0.00796 0.71677 0.25305
 C1330 C 0.02371 0.71586 0.25470
 C1331 C 0.03093 0.72527 0.26599
 C1332 C 0.02298 0.73599 0.27548
 H1333 H -0.02231 0.75820 0.28852
 H1334 H 0.00432 0.75561 0.29182
 H1335 H -0.02054 0.70124 0.23142
 H1336 H 0.00620 0.69922 0.23426
 H1337 H -0.05921 0.73310 0.25564
 H1338 H 0.04304 0.72464 0.26709
 C1339 C 0.45990 0.74773 0.76828
 C1340 C 0.45235 0.73677 0.75848
 C1341 C 0.45958 0.72958 0.74593
 C1342 C 0.47485 0.73322 0.74301
 C1343 C 0.48271 0.74425 0.75282
 C1344 C 0.47527 0.75147 0.76557
 C1345 C 0.48341 0.76217 0.77526
 C1346 C 0.49825 0.76641 0.77203
 C1347 C 0.50573 0.75967 0.75930
 C1348 C 0.49797 0.74829 0.74973
 C1349 C 0.48238 0.72636 0.73035
 C1350 C 0.49736 0.73020 0.72739
 C1351 C 0.50540 0.74107 0.73697
 C1352 C 0.52058 0.74523 0.73395
 C1353 C 0.52787 0.75692 0.74316
 C1354 C 0.52072 0.76414 0.75575
 H1355 H 0.47838 0.76744 0.78543
 H1356 H 0.50380 0.77508 0.77964
 H1357 H 0.47671 0.71800 0.72252
 H1358 H 0.50251 0.72476 0.71735
 H1359 H 0.44052 0.73417 0.76034
 H1360 H 0.53952 0.76009 0.74081
 C1361 C 0.40894 0.30813 0.29842
 C1362 C 0.41979 0.29894 0.29047
 C1363 C 0.42085 0.28172 0.29314
 C1364 C 0.41128 0.27403 0.30385
 C1365 C 0.40055 0.28321 0.31166
 C1366 C 0.39913 0.30030 0.30898
 C1367 C 0.43127 0.27236 0.28492
 C1368 C 0.44063 0.27995 0.27395
 C1369 C 0.43983 0.29723 0.27142
 C1370 C 0.42945 0.30663 0.27974
 C1371 C 0.44925 0.30470 0.26035
 C1372 C 0.45904 0.29508 0.25162
 C1373 C 0.45966 0.27791 0.25394
 C1374 C 0.45054 0.27044 0.26522
 H1375 H 0.40812 0.32130 0.29630
 H1376 H 0.41197 0.26085 0.30604
 H1377 H 0.39317 0.27672 0.31958
 H1378 H 0.43192 0.25912 0.28688
 H1379 H 0.42871 0.31985 0.27769
 H1380 H 0.44881 0.31791 0.25825
 H1381 H 0.46592 0.30096 0.24283
 H1382 H 0.45096 0.25715 0.26692
 C1383 C 0.40939 0.80427 0.82071
 C1384 C 0.42010 0.79646 0.81137
 C1385 C 0.42877 0.80599 0.80088
 C1386 C 0.42702 0.82313 0.80026
 C1387 C 0.41625 0.83076 0.80935
 C1388 C 0.40691 0.82145 0.81938
 C1389 C 0.43880 0.79825 0.79087
 C1390 C 0.44020 0.78102 0.79105
 C1391 C 0.43188 0.77143 0.80179
 C1392 C 0.42193 0.77922 0.81195
 C1393 C 0.43340 0.75416 0.80190
 C1394 C 0.44283 0.74649 0.79127
 C1395 C 0.45095 0.75595 0.78043
 C1396 C 0.44955 0.77322 0.78037
 H1397 H 0.40255 0.79675 0.82838
 H1398 H 0.43375 0.83064 0.79246
 H1399 H 0.41526 0.84403 0.80829
 H1400 H 0.44526 0.80561 0.78268
 H1401 H 0.41535 0.77184 0.82001
 H1402 H 0.42713 0.74659 0.81004
 H1403 H 0.44368 0.73313 0.79136
 H1404 H 0.45553 0.78053 0.77179
 C1405 C -0.08693 0.30433 0.80813
 C1406 C -0.07631 0.29780 0.79796
 C1407 C -0.06845 0.30844 0.78774
 C1408 C -0.07132 0.32547 0.78794
 C1409 C -0.08197 0.33188 0.79808
 C1410 C -0.08993 0.32139 0.80824
 C1411 C -0.05796 0.30188 0.77742
 C1412 C -0.05531 0.28479 0.77716
 C1413 C -0.06319 0.27417 0.78742
 C1414 C -0.07359 0.28074 0.79777
 C1415 C -0.06065 0.25708 0.78705
 C1416 C -0.05052 0.25053 0.77649
 C1417 C -0.04265 0.26098 0.76631
 C1418 C -0.04504 0.27810 0.76668
 H1419 H -0.09301 0.29598 0.81573
 H1420 H -0.06539 0.33382 0.78021
 H1421 H -0.08391 0.34507 0.79794
 H1422 H -0.05196 0.31004 0.76952
 H1423 H -0.07966 0.27259 0.80561
 H1424 H -0.06663 0.24877 0.79480
 H1425 H -0.04881 0.23729 0.77622
 H1426 H -0.03906 0.28611 0.75866
 C1427 C -0.09762 0.79533 0.31479
 C1428 C -0.08794 0.78386 0.30796
 C1429 C -0.08966 0.76682 0.31136
 C1430 C -0.10083 0.76157 0.32170
 C1431 C -0.11035 0.77306 0.32849
 C1432 C -0.10894 0.79002 0.32504
 C1433 C -0.08026 0.75527 0.30431
 C1434 C -0.06913 0.76055 0.29391
 C1435 C -0.06723 0.77762 0.29069
 C1436 C -0.07666 0.78917 0.29773
 C1437 C -0.05602 0.78284 0.28034
 C1438 C -0.04690 0.77125 0.27311
 C1439 C -0.04883 0.75430 0.27614
 C1440 C -0.05994 0.74899 0.28656
 H1441 H -0.09627 0.80838 0.31214
 H1442 H -0.10229 0.74856 0.32445
 H1443 H -0.11901 0.76854 0.33623
 H1444 H -0.08167 0.74219 0.30684
 H1445 H -0.07528 0.80224 0.29515
 H1446 H -0.05440 0.79586 0.27773
 H1447 H -0.03844 0.77545 0.26497
 H1448 H -0.06146 0.73587 0.28881
 C1449 C 0.59034 0.69198 0.31646
 C1450 C 0.58065 0.69815 0.30508
 C1451 C 0.58074 0.69113 0.29018
 C1452 C 0.59025 0.67789 0.28701
 C1453 C 0.59972 0.67173 0.29841
 C1454 C 0.59996 0.67875 0.31319
 C1455 C 0.57143 0.69752 0.27864
 C1456 C 0.56195 0.71081 0.28179
 C1457 C 0.56158 0.71764 0.29676
 C1458 C 0.57095 0.71128 0.30831
 C1459 C 0.55196 0.73087 0.29984
 C1460 C 0.54304 0.73747 0.28814
 C1461 C 0.54358 0.73092 0.27322
 C1462 C 0.55299 0.71755 0.27011
 H1463 H 0.59031 0.69738 0.32786
 H1464 H 0.59045 0.67236 0.27567
 H1465 H 0.60709 0.66166 0.29550
 H1466 H 0.57165 0.69223 0.26718
 H1467 H 0.57078 0.71662 0.31974
 H1468 H 0.55150 0.73625 0.31124
 H1469 H 0.53591 0.74790 0.29061
 H1470 H 0.55344 0.71257 0.25854
 C1471 C 0.59296 0.18573 0.80552
 C1472 C 0.58189 0.19507 0.79801
 C1473 C 0.57857 0.21114 0.80331
 C1474 C 0.58608 0.21747 0.81615
 C1475 C 0.59705 0.20816 0.82352
 C1476 C 0.60077 0.19228 0.81823
 C1477 C 0.56796 0.22077 0.79558
 C1478 C 0.56065 0.21461 0.78252
 C1479 C 0.56370 0.19842 0.77733
 C1480 C 0.57427 0.18872 0.78514
 C1481 C 0.55630 0.19235 0.76423
 C1482 C 0.54624 0.20237 0.75618
 C1483 C 0.54340 0.21852 0.76117
 C1484 C 0.55054 0.22454 0.77439
 H1485 H 0.59554 0.17348 0.80136
 H1486 H 0.58364 0.22974 0.82038
 H1487 H 0.60279 0.21371 0.83318
 H1488 H 0.56557 0.23316 0.79959
 H1489 H 0.57674 0.17638 0.78106
 H1490 H 0.55846 0.17999 0.76008
 H1491 H 0.54089 0.19766 0.74588
 H1492 H 0.54838 0.23707 0.77816
 C1493 C 1.10431 0.69015 0.80760
 C1494 C 1.09386 0.69593 0.79677
 C1495 C 1.09348 0.68899 0.78185
 C1496 C 1.10336 0.67626 0.77810
 C1497 C 1.11366 0.67056 0.78894
 C1498 C 1.11435 0.67750 0.80375
 C1499 C 1.08335 0.69498 0.77086
 C1500 C 1.07358 0.70786 0.77457
 C1501 C 1.07377 0.71464 0.78956
 C1502 C 1.08390 0.70862 0.80057
 C1503 C 1.06396 0.72751 0.79322
 C1504 C 1.05424 0.73378 0.78206
 C1505 C 1.05409 0.72721 0.76713
 C1506 C 1.06376 0.71423 0.76345
 H1507 H 1.10457 0.69551 0.81901
 H1508 H 1.10321 0.67079 0.76673
 H1509 H 1.12129 0.66091 0.78554
 H1510 H 1.08317 0.68974 0.75938
 H1511 H 1.08413 0.71392 0.81202
 H1512 H 1.06395 0.73287 0.80463
 H1513 H 1.04697 0.74396 0.78498
 H1514 H 1.06372 0.70925 0.75187
 C1515 C 1.08196 0.18362 0.30601
 C1516 C 1.07204 0.19381 0.29782
 C1517 C 1.06960 0.21020 0.30281
 C1518 C 1.07681 0.21597 0.31609
 C1519 C 1.08652 0.20572 0.32425
 C1520 C 1.08933 0.18954 0.31922
 C1521 C 1.06011 0.22061 0.29441
 C1522 C 1.05293 0.21484 0.28110
 C1523 C 1.05505 0.19832 0.27629
 C1524 C 1.06462 0.18792 0.28465
 C1525 C 1.04767 0.19255 0.26306
 C1526 C 1.03850 0.20312 0.25454
 C1527 C 1.03661 0.21958 0.25911
 C1528 C 1.04377 0.22538 0.27242
 H1529 H 1.08390 0.17109 0.30214
 H1530 H 1.07504 0.22848 0.32010
 H1531 H 1.09212 0.21067 0.33429
 H1532 H 1.05842 0.23324 0.29815
 H1533 H 1.06639 0.17533 0.28085
 H1534 H 1.04910 0.17992 0.25924
 H1535 H 1.03304 0.19856 0.24424
 H1536 H 1.04227 0.23812 0.27590
 C1537 C 0.58290 0.31378 0.68479
 C1538 C 0.57216 0.30308 0.69139
 C1539 C 0.56521 0.29078 0.68223
 C1540 C 0.56881 0.28970 0.66656
 C1541 C 0.57978 0.30012 0.66019
 C1542 C 0.58713 0.31199 0.66930
 C1543 C 0.55521 0.27938 0.68899
 C1544 C 0.55241 0.27981 0.70487
 C1545 C 0.55917 0.29227 0.71400
 C1546 C 0.56884 0.30397 0.70715
 C1547 C 0.55652 0.29250 0.72992
 C1548 C 0.54761 0.28023 0.73681
 C1549 C 0.54106 0.26772 0.72785
 C1550 C 0.54337 0.26763 0.71187
 H1551 H 0.58860 0.32279 0.69196
 H1552 H 0.56353 0.28042 0.65935
 H1553 H 0.58278 0.29863 0.64818
 H1554 H 0.55005 0.26981 0.68200
 H1555 H 0.57419 0.31337 0.71419
 H1556 H 0.56160 0.30195 0.73709
 H1557 H 0.54596 0.28033 0.74918
 H1558 H 0.53842 0.25781 0.70502
 C1559 C 0.59632 0.80301 0.18567
 C1560 C 0.58598 0.79650 0.19641
 C1561 C 0.58567 0.80282 0.21156
 C1562 C 0.59551 0.81567 0.21566
 C1563 C 0.60568 0.82213 0.20491
 C1564 C 0.60628 0.81583 0.18985
 C1565 C 0.57559 0.79615 0.22242
 C1566 C 0.56578 0.78325 0.21832
 C1567 C 0.56592 0.77707 0.20310
 C1568 C 0.57602 0.78373 0.19225
 C1569 C 0.55603 0.76419 0.19905
 C1570 C 0.54624 0.75737 0.21002
 C1571 C 0.54614 0.76336 0.22516
 C1572 C 0.55592 0.77631 0.22926
 H1573 H 0.59653 0.79815 0.17407
 H1574 H 0.59541 0.82066 0.22722
 H1575 H 0.61326 0.83188 0.20853
 H1576 H 0.57545 0.80093 0.23407
 H1577 H 0.57619 0.77890 0.18061
 H1578 H 0.55598 0.75929 0.18746
 H1579 H 0.53886 0.74726 0.20677
 H1580 H 0.55589 0.78085 0.24099
 C1581 C 1.08855 0.30654 0.18481
 C1582 C 1.07820 0.29538 0.19155
 C1583 C 1.07859 0.27844 0.18750
 C1584 C 1.08909 0.27299 0.17672
 C1585 C 1.09913 0.28416 0.16993
 C1586 C 1.09900 0.30100 0.17388
 C1587 C 1.06849 0.26718 0.19427
 C1588 C 1.05789 0.27258 0.20500
 C1589 C 1.05726 0.28952 0.20891
 C1590 C 1.06745 0.30082 0.20219
 C1591 C 1.04653 0.29481 0.21962
 C1592 C 1.03673 0.28336 0.22658
 C1593 C 1.03749 0.26651 0.22287
 C1594 C 1.04804 0.26120 0.21203
 H1595 H 1.08830 0.31953 0.18785
 H1596 H 1.08954 0.26006 0.17351
 H1597 H 1.10718 0.27951 0.16170
 H1598 H 1.06891 0.25419 0.19123
 H1599 H 1.06705 0.31380 0.20526
 H1600 H 1.04585 0.30773 0.22278
 H1601 H 1.02876 0.28757 0.23509
 H1602 H 1.04868 0.24816 0.20926
 C1603 C 1.09671 0.80901 0.68093
 C1604 C 1.08762 0.80030 0.69156
 C1605 C 1.08666 0.80589 0.70695
 C1606 C 1.09461 0.82006 0.71144
 C1607 C 1.10342 0.82872 0.70081
 C1608 C 1.10457 0.82336 0.68548
 C1609 C 1.07775 0.79730 0.71767
 C1610 C 1.06964 0.78321 0.71323
 C1611 C 1.07038 0.77761 0.69784
 C1612 C 1.07943 0.78617 0.68710
 C1613 C 1.06209 0.76352 0.69352
 C1614 C 1.05325 0.75502 0.70439
 C1615 C 1.05261 0.76052 0.71967
 C1616 C 1.06081 0.77459 0.72403
 H1617 H 1.09746 0.80482 0.66912
 H1618 H 1.09401 0.82447 0.72319
 H1619 H 1.10952 0.83954 0.70472
 H1620 H 1.07711 0.80160 0.72947
 H1621 H 1.08007 0.78186 0.67530
 H1622 H 1.06249 0.75903 0.68179
 H1623 H 1.04701 0.74409 0.70094
 H1624 H 1.06031 0.77877 0.73587
 C1625 C 0.40539 0.68715 0.68589
 C1626 C 0.41469 0.69692 0.69526
 C1627 C 0.41436 0.71434 0.69385
 C1628 C 0.40490 0.72166 0.68295
 C1629 C 0.39559 0.71184 0.67374
 C1630 C 0.39558 0.69450 0.67523
 C1631 C 0.42335 0.72416 0.70348
 C1632 C 0.43260 0.71677 0.71456
 C1633 C 0.43306 0.69932 0.71586
 C1634 C 0.42414 0.68951 0.70616
 C1635 C 0.44236 0.69198 0.72694
 C1636 C 0.45105 0.70184 0.73672
 C1637 C 0.45053 0.71912 0.73553
 C1638 C 0.44134 0.72655 0.72445
 H1639 H 0.40574 0.67383 0.68709
 H1640 H 0.40454 0.73499 0.68168
 H1641 H 0.38820 0.71794 0.66569
 H1642 H 0.42303 0.73753 0.70246
 H1643 H 0.42442 0.67614 0.70722
 H1644 H 0.44287 0.67864 0.72807
 H1645 H 0.45815 0.69603 0.74525
 H1646 H 0.44102 0.73993 0.72358
 C1647 C 0.40705 0.19369 0.18046
 C1648 C 0.41825 0.20450 0.18601
 C1649 C 0.41902 0.22097 0.18043
 C1650 C 0.40895 0.22618 0.16907
 C1651 C 0.39804 0.21530 0.16344
 C1652 C 0.39684 0.19906 0.16921
 C1653 C 0.42969 0.23204 0.18644
 C1654 C 0.43969 0.22687 0.19788
 C1655 C 0.43933 0.21024 0.20307
 C1656 C 0.42858 0.19917 0.19713
 C1657 C 0.44952 0.20507 0.21438
 C1658 C 0.45961 0.21640 0.22087
 C1659 C 0.45967 0.23302 0.21613
 C1660 C 0.44983 0.23816 0.20451
 H1661 H 0.40631 0.18113 0.18485
 H1662 H 0.40943 0.23873 0.16463
 H1663 H 0.39026 0.21978 0.15485
 H1664 H 0.43006 0.24475 0.18235
 H1665 H 0.42813 0.18650 0.20131
 H1666 H 0.44946 0.19238 0.21846
 H1667 H 0.46705 0.21234 0.22996
 H1668 H 0.44983 0.25104 0.20095
 C1669 C -0.09809 0.67963 0.19174
 C1670 C -0.08721 0.68887 0.19972
 C1671 C -0.08568 0.70604 0.19682
 C1672 C -0.09480 0.71356 0.18572
 C1673 C -0.10561 0.70429 0.17786
 C1674 C -0.10755 0.68730 0.18094
 C1675 C -0.07530 0.71546 0.20525
 C1676 C -0.06652 0.70797 0.21666
 C1677 C -0.06779 0.69073 0.21934
 C1678 C -0.07807 0.68128 0.21080
 C1679 C -0.05901 0.68331 0.23082
 C1680 C -0.04939 0.69295 0.23985
 C1681 C -0.04828 0.71009 0.23744
 C1682 C -0.05675 0.71752 0.22573
 H1683 H -0.09926 0.66651 0.19409
 H1684 H -0.09374 0.72669 0.18332
 H1685 H -0.11272 0.71059 0.16967
 H1686 H -0.07428 0.72867 0.20316
 H1687 H -0.07920 0.66810 0.21300
 H1688 H -0.05985 0.67013 0.23303
 H1689 H -0.04306 0.68710 0.24899
 H1690 H -0.05597 0.73079 0.22396
 C1691 C -0.08266 0.18248 0.67956
 C1692 C -0.07219 0.18944 0.68973
 C1693 C -0.06962 0.18181 0.70417
 C1694 C -0.07711 0.16697 0.70788
 C1695 C -0.08764 0.16021 0.69772
 C1696 C -0.09082 0.16816 0.68368
 C1697 C -0.06003 0.18942 0.71484
 C1698 C -0.05315 0.20467 0.71132
 C1699 C -0.05533 0.21201 0.69666
 C1700 C -0.06474 0.20426 0.68592
 C1701 C -0.04843 0.22725 0.69318
 C1702 C -0.03987 0.23543 0.70429
 C1703 C -0.03802 0.22843 0.71896
 C1704 C -0.04450 0.21297 0.72238
 H1705 H -0.08480 0.18856 0.66864
 H1706 H -0.07521 0.16090 0.71885
 H1707 H -0.09375 0.14917 0.70121
 H1708 H -0.05829 0.18375 0.72604
 H1709 H -0.06666 0.21005 0.67480
 H1710 H -0.04995 0.23301 0.68200
 H1711 H -0.03494 0.24740 0.70159
 H1712 H -0.04307 0.20764 0.73377
 C1713 C 0.30136 0.40090 0.31147
 C1714 C 0.29226 0.41128 0.30253
 C1715 C 0.29392 0.41155 0.28633
 C1716 C 0.30475 0.40158 0.27938
 C1717 C 0.31377 0.39132 0.28836
 C1718 C 0.31214 0.39076 0.30447
 C1719 C 0.28469 0.42169 0.27732
 C1720 C 0.27381 0.43158 0.28430
 C1721 C 0.27222 0.43145 0.30053
 C1722 C 0.28146 0.42131 0.30953
 C1723 C 0.26134 0.44141 0.30746
 C1724 C 0.25206 0.45134 0.29841
 C1725 C 0.25356 0.45149 0.28232
 C1726 C 0.26441 0.44156 0.27531
 H1727 H 0.30004 0.40079 0.32387
 H1728 H 0.30618 0.40163 0.26699
 H1729 H 0.32186 0.38361 0.28258
 H1730 H 0.28593 0.42182 0.26489
 H1731 H 0.28019 0.42115 0.32196
 H1732 H 0.25996 0.44145 0.31986
 H1733 H 0.24363 0.45885 0.30392
 H1734 H 0.26549 0.44165 0.26287
 C1735 C 0.30881 -0.08226 0.81449
 C1736 C 0.30093 -0.07156 0.80469
 C1737 C 0.30677 -0.06774 0.78993
 C1738 C 0.32045 -0.07445 0.78533
 C1739 C 0.32820 -0.08511 0.79509
 C1740 C 0.32245 -0.08940 0.80975
 C1741 C 0.29878 -0.05743 0.77994
 C1742 C 0.28497 -0.05091 0.78448
 C1743 C 0.27916 -0.05451 0.79931
 C1744 C 0.28721 -0.06480 0.80934
 C1745 C 0.26533 -0.04789 0.80378
 C1746 C 0.25725 -0.03795 0.79358
 C1747 C 0.26293 -0.03451 0.77883
 C1748 C 0.27678 -0.04095 0.77434
 H1749 H 0.30408 -0.08512 0.82568
 H1750 H 0.32511 -0.07157 0.77408
 H1751 H 0.33866 -0.09003 0.79090
 H1752 H 0.30323 -0.05461 0.76858
 H1753 H 0.28271 -0.06768 0.82067
 H1754 H 0.26071 -0.05051 0.81510
 H1755 H 0.24652 -0.03304 0.79710
 H1756 H 0.28110 -0.03826 0.76290
 C1757 C 0.80749 0.40625 0.81809
 C1758 C 0.79970 0.41766 0.80885
 C1759 C 0.80765 0.42752 0.79803
 C1760 C 0.82321 0.42598 0.79675
 C1761 C 0.83084 0.41451 0.80579
 C1762 C 0.82314 0.40427 0.81646
 C1763 C 0.79993 0.43861 0.78851
 C1764 C 0.78428 0.43985 0.78950
 C1765 C 0.77628 0.43007 0.80037
 C1766 C 0.78405 0.41913 0.81005
 C1767 C 0.76060 0.43119 0.80116
 C1768 C 0.75291 0.44170 0.79114
 C1769 C 0.76078 0.45136 0.78030
 C1770 C 0.77647 0.45046 0.77956
 H1771 H 0.80119 0.39866 0.82617
 H1772 H 0.82948 0.43351 0.78857
 H1773 H 0.84285 0.41381 0.80425
 H1774 H 0.80607 0.44608 0.78016
 H1775 H 0.77789 0.41157 0.81832
 H1776 H 0.75427 0.42380 0.80941
 H1777 H 0.74078 0.44220 0.79171
 H1778 H 0.78251 0.45780 0.77104
 C1779 C 0.81019 -0.09670 0.30998
 C1780 C 0.80464 -0.08531 0.29922
 C1781 C 0.81272 -0.08205 0.28551
 C1782 C 0.82636 -0.09005 0.28296
 C1783 C 0.83179 -0.10147 0.29369
 C1784 C 0.82370 -0.10518 0.30729
 C1785 C 0.80691 -0.07107 0.27450
 C1786 C 0.79302 -0.06349 0.27696
 C1787 C 0.78503 -0.06662 0.29079
 C1788 C 0.79094 -0.07740 0.30186
 C1789 C 0.77107 -0.05919 0.29319
 C1790 C 0.76488 -0.04908 0.28183
 C1791 C 0.77264 -0.04609 0.26803
 C1792 C 0.78677 -0.05314 0.26566
 H1793 H 0.80370 -0.09900 0.32032
 H1794 H 0.83276 -0.08764 0.27255
 H1795 H 0.84227 -0.10748 0.29110
 H1796 H 0.81305 -0.06868 0.26391
 H1797 H 0.78474 -0.07989 0.31240
 H1798 H 0.76481 -0.06147 0.30371
 H1799 H 0.75393 -0.04375 0.28369
 H1800 H 0.79265 -0.05088 0.25490
 C1801 C 0.31059 0.58465 0.68091
 C1802 C 0.30400 0.57406 0.69191
 C1803 C 0.31050 0.57260 0.70669
 C1804 C 0.32366 0.58147 0.71009
 C1805 C 0.33011 0.59203 0.69910
 C1806 C 0.32355 0.59392 0.68449
 C1807 C 0.30365 0.56251 0.71790
 C1808 C 0.29033 0.55391 0.71453
 C1809 C 0.28396 0.55512 0.69965
 C1810 C 0.29086 0.56516 0.68842
 C1811 C 0.27066 0.54643 0.69630
 C1812 C 0.26364 0.53679 0.70766
 C1813 C 0.26982 0.53575 0.72246
 C1814 C 0.28317 0.54424 0.72586
 H1815 H 0.30550 0.58575 0.66964
 H1816 H 0.32882 0.58046 0.72135
 H1817 H 0.34004 0.59901 0.70227
 H1818 H 0.30857 0.56152 0.72929
 H1819 H 0.28589 0.56622 0.67706
 H1820 H 0.26564 0.54719 0.68497
 H1821 H 0.25331 0.53025 0.70498
 H1822 H 0.28789 0.54336 0.73734
 C1823 C 0.30993 1.10520 0.20439
 C1824 C 0.30087 1.09471 0.21360
 C1825 C 0.28527 1.09764 0.21464
 C1826 C 0.27902 1.11101 0.20676
 C1827 C 0.28802 1.12124 0.19761
 C1828 C 0.30349 1.11837 0.19613
 C1829 C 0.27607 1.08711 0.22344
 C1830 C 0.28220 1.07362 0.23129
 C1831 C 0.29779 1.07068 0.23050
 C1832 C 0.30705 1.08124 0.22163
 C1833 C 0.30380 1.05723 0.23865
 C1834 C 0.29444 1.04687 0.24748
 C1835 C 0.27892 1.04964 0.24808
 C1836 C 0.27291 1.06307 0.23999
 H1837 H 0.32183 1.10284 0.20333
 H1838 H 0.26712 1.11350 0.20755
 H1839 H 0.28277 1.13147 0.19169
 H1840 H 0.26411 1.08938 0.22413
 H1841 H 0.31901 1.07896 0.22094
 H1842 H 0.31573 1.05481 0.23828
 H1843 H 0.29929 1.03673 0.25390
 H1844 H 0.26094 1.06532 0.24055
 C1845 C 0.81349 0.59262 0.21088
 C1846 C 0.80576 0.58279 0.22176
 C1847 C 0.79011 0.58024 0.22020
 C1848 C 0.78250 0.58743 0.20782
 C1849 C 0.79023 0.59717 0.19709
 C1850 C 0.80578 0.59996 0.19848
 C1851 C 0.78228 0.57061 0.23105
 C1852 C 0.78987 0.56345 0.24348
 C1853 C 0.80553 0.56587 0.24508
 C1854 C 0.81339 0.57553 0.23419
 C1855 C 0.81302 0.55858 0.25758
 C1856 C 0.80506 0.54903 0.26838
 C1857 C 0.78954 0.54666 0.26678
 C1858 C 0.78200 0.55390 0.25436
 H1859 H 0.82546 0.59449 0.21211
 H1860 H 0.77051 0.58559 0.20648
 H1861 H 0.78388 0.60265 0.18782
 H1862 H 0.77028 0.56872 0.22984
 H1863 H 0.82539 0.57744 0.23542
 H1864 H 0.82501 0.56028 0.25900
 H1865 H 0.81096 0.54348 0.27797
 H1866 H 0.76998 0.55202 0.25320
 C1867 C 0.79757 1.09005 0.67785
 C1868 C 0.78867 1.07941 0.68702
 C1869 C 0.79396 1.07431 0.70164
 C1870 C 0.80797 1.07987 0.70682
 C1871 C 0.81671 1.09041 0.69767
 C1872 C 0.81167 1.09564 0.68310
 C1873 C 0.78515 1.06383 0.71092
 C1874 C 0.77104 1.05840 0.70586
 C1875 C 0.76568 1.06342 0.69125
 C1876 C 0.77456 1.07384 0.68188
 C1877 C 0.75144 1.05803 0.68636
 C1878 C 0.74255 1.04797 0.69594
 C1879 C 0.74787 1.04302 0.71041
 C1880 C 0.76212 1.04818 0.71530
 H1881 H 0.79354 1.09388 0.66663
 H1882 H 0.81215 1.07614 0.71801
 H1883 H 0.82737 1.09461 0.70221
 H1884 H 0.78923 1.06000 0.72214
 H1885 H 0.77046 1.07772 0.67069
 H1886 H 0.74712 1.06174 0.67521
 H1887 H 0.73151 1.04408 0.69211
 H1888 H 0.76612 1.04441 0.72657
 C1889 C 0.70004 0.59195 0.33700
 C1890 C 0.70900 0.58026 0.32957
 C1891 C 0.70252 0.56947 0.31862
 C1892 C 0.68712 0.57037 0.31553
 C1893 C 0.67829 0.58211 0.32292
 C1894 C 0.68466 0.59316 0.33359
 C1895 C 0.71157 0.55817 0.31076
 C1896 C 0.72705 0.55765 0.31362
 C1897 C 0.73348 0.56827 0.32476
 C1898 C 0.72441 0.57945 0.33270
 C1899 C 0.74897 0.56780 0.32752
 C1900 C 0.75806 0.55714 0.31912
 C1901 C 0.75179 0.54669 0.30795
 C1902 C 0.73627 0.54694 0.30527
 H1903 H 0.70522 0.60036 0.34510
 H1904 H 0.68194 0.56213 0.30725
 H1905 H 0.66647 0.58254 0.32018
 H1906 H 0.70662 0.55000 0.30225
 H1907 H 0.72938 0.58772 0.34111
 H1908 H 0.75408 0.57587 0.33599
 H1909 H 0.77004 0.55718 0.32116
 H1910 H 0.73148 0.53907 0.29643
 C1911 C 0.68104 1.09363 0.80001
 C1912 C 0.68877 1.08139 0.79185
 C1913 C 0.70153 1.07394 0.79845
 C1914 C 0.70620 1.07868 0.81317
 C1915 C 0.69859 1.09099 0.82116
 C1916 C 0.68600 1.09885 0.81467
 C1917 C 0.70958 1.06213 0.79013
 C1918 C 0.70521 1.05788 0.77514
 C1919 C 0.69235 1.06521 0.76856
 C1920 C 0.68414 1.07679 0.77701
 C1921 C 0.68816 1.06117 0.75345
 C1922 C 0.69686 1.05032 0.74480
 C1923 C 0.70969 1.04314 0.75120
 C1924 C 0.71374 1.04679 0.76643
 H1925 H 0.67141 1.09928 0.79464
 H1926 H 0.71592 1.07303 0.81845
 H1927 H 0.70276 1.09428 0.83242
 H1928 H 0.71945 1.05653 0.79517
 H1929 H 0.67436 1.08251 0.77190
 H1930 H 0.67837 1.06668 0.74822
 H1931 H 0.69372 1.04770 0.73301
 H1932 H 0.72380 1.04142 0.77127
 C1933 C 0.20182 0.58876 0.80959
 C1934 C 0.21151 0.57820 0.80163
 C1935 C 0.22721 0.58021 0.80319
 C1936 C 0.23293 0.59251 0.81291
 C1937 C 0.22322 0.60295 0.82080
 C1938 C 0.20758 0.60133 0.81910
 C1939 C 0.23694 0.57004 0.79488
 C1940 C 0.23117 0.55786 0.78503
 C1941 C 0.21545 0.55562 0.78368
 C1942 C 0.20573 0.56580 0.79200
 C1943 C 0.20973 0.54336 0.77388
 C1944 C 0.21947 0.53356 0.76533
 C1945 C 0.23505 0.53585 0.76648
 C1946 C 0.24086 0.54799 0.77634
 H1947 H 0.18980 0.58719 0.80831
 H1948 H 0.24493 0.59420 0.81427
 H1949 H 0.22804 0.61254 0.82795
 H1950 H 0.24898 0.57171 0.79597
 H1951 H 0.19369 0.56420 0.79084
 H1952 H 0.19773 0.54147 0.77271
 H1953 H 0.21487 0.52431 0.75763
 H1954 H 0.25291 0.54979 0.77714
 C1955 C 0.19278 1.09592 0.32182
 C1956 C 0.20092 1.08404 0.31361
 C1957 C 0.19373 1.07473 0.30197
 C1958 C 0.17849 1.07723 0.29895
 C1959 C 0.17050 1.08911 0.30711
 C1960 C 0.17755 1.09877 0.31849
 C1961 C 0.20193 1.06327 0.29336
 C1962 C 0.21730 1.06113 0.29611
 C1963 C 0.22447 1.07027 0.30790
 C1964 C 0.21622 1.08158 0.31663
 C1965 C 0.23987 1.06821 0.31051
 C1966 C 0.24818 1.05755 0.30126
 C1967 C 0.24119 1.04861 0.28941
 C1968 C 0.22571 1.05032 0.28698
 H1969 H 0.19847 1.10315 0.33054
 H1970 H 0.17278 1.07013 0.29013
 H1971 H 0.15878 1.09073 0.30435
 H1972 H 0.19642 1.05626 0.28433
 H1973 H 0.22176 1.08871 0.32556
 H1974 H 0.24555 1.07509 0.31949
 H1975 H 0.26013 1.05644 0.30317
 H1976 H 0.22035 1.04360 0.27768
 C1977 C 0.68930 0.40360 0.69163
 C1978 C 0.69618 0.41340 0.70299
 C1979 C 0.69059 0.41298 0.71825
 C1980 C 0.67817 0.40294 0.72185
 C1981 C 0.67134 0.39335 0.71048
 C1982 C 0.67682 0.39352 0.69528
 C1983 C 0.69750 0.42256 0.72969
 C1984 C 0.70989 0.43267 0.72607
 C1985 C 0.71540 0.43328 0.71077
 C1986 C 0.70853 0.42361 0.69934
 C1987 C 0.72774 0.44351 0.70720
 C1988 C 0.73459 0.45299 0.71868
 C1989 C 0.72919 0.45241 0.73386
 C1990 C 0.71689 0.44218 0.73752
 H1991 H 0.69356 0.40398 0.67993
 H1992 H 0.67374 0.40248 0.73348
 H1993 H 0.66187 0.38561 0.71371
 H1994 H 0.69325 0.42214 0.74140
 H1995 H 0.71279 0.42402 0.68763
 H1996 H 0.73212 0.44413 0.69556
 H1997 H 0.74418 0.46074 0.71576
 H1998 H 0.71277 0.44170 0.74928
 C1999 C 0.69538 -0.09469 0.18477
 C2000 C 0.70620 -0.08472 0.19205
 C2001 C 0.72135 -0.08536 0.18723
 C2002 C 0.72537 -0.09576 0.17507
 C2003 C 0.71452 -0.10556 0.16783
 C2004 C 0.69946 -0.10523 0.17266
 C2005 C 0.73226 -0.07569 0.19468
 C2006 C 0.72821 -0.06533 0.20687
 C2007 C 0.71302 -0.06447 0.21155
 C2008 C 0.70212 -0.07419 0.20412
 C2009 C 0.70901 -0.05400 0.22368
 C2010 C 0.71997 -0.04462 0.23124
 C2011 C 0.73504 -0.04560 0.22676
 C2012 C 0.73914 -0.05590 0.21456
 H2013 H 0.68379 -0.09417 0.18850
 H2014 H 0.73692 -0.09640 0.17123
 H2015 H 0.71804 -0.11364 0.15864
 H2016 H 0.74389 -0.07630 0.19105
 H2017 H 0.69049 -0.07362 0.20778
 H2018 H 0.69743 -0.05316 0.22740
 H2019 H 0.71674 -0.03670 0.24069
 H2020 H 0.75083 -0.05662 0.21118
 C2021 C 0.18014 0.40163 0.19720
 C2022 C 0.18960 0.41165 0.20630
 C2023 C 0.20528 0.41158 0.20370
 C2024 C 0.21124 0.40160 0.19213
 C2025 C 0.20180 0.39189 0.18307
 C2026 C 0.18619 0.39183 0.18542
 C2027 C 0.21479 0.42154 0.21261
 C2028 C 0.20887 0.43172 0.22407
 C2029 C 0.19321 0.43192 0.22670
 C2030 C 0.18366 0.42184 0.21782
 C2031 C 0.18741 0.44220 0.23822
 C2032 C 0.19704 0.45212 0.24703
 C2033 C 0.21258 0.45196 0.24440
 C2034 C 0.21843 0.44169 0.23295
 H2035 H 0.16812 0.40174 0.19906
 H2036 H 0.22323 0.40137 0.19004
 H2037 H 0.20681 0.38428 0.17426
 H2038 H 0.22681 0.42142 0.21059
 H2039 H 0.17165 0.42198 0.21984
 H2040 H 0.17545 0.44251 0.24044
 H2041 H 0.19241 0.45985 0.25597
 H2042 H 0.23045 0.44150 0.23100
 C2043 C 0.19126 -0.07569 0.68478
 C2044 C 0.19772 -0.06500 0.69561
 C2045 C 0.18843 -0.05531 0.70511
 C2046 C 0.17280 -0.05635 0.70343
 C2047 C 0.16643 -0.06719 0.69270
 C2048 C 0.17558 -0.07707 0.68338
 C2049 C 0.19490 -0.04497 0.71627
 C2050 C 0.21053 -0.04438 0.71816
 C2051 C 0.21981 -0.05400 0.70854
 C2052 C 0.21335 -0.06417 0.69729
 C2053 C 0.23542 -0.05351 0.71049
 C2054 C 0.24180 -0.04370 0.72197
 C2055 C 0.23271 -0.03415 0.73157
 C2056 C 0.21707 -0.03451 0.72964
 H2057 H 0.19851 -0.08332 0.67785
 H2058 H 0.16549 -0.04898 0.71056
 H2059 H 0.15434 -0.06788 0.69179
 H2060 H 0.18778 -0.03760 0.72363
 H2061 H 0.22046 -0.07164 0.69000
 H2062 H 0.24267 -0.06082 0.70323
 H2063 H 0.25388 -0.04357 0.72341
 H2064 H 0.21006 -0.02724 0.73720
 C2065 C 0.30395 0.31428 0.40556
 C2066 C 0.29582 0.30599 0.41720
 C2067 C 0.30059 0.29029 0.42239
 C2068 C 0.31362 0.28340 0.41624
 C2069 C 0.32158 0.29166 0.40464
 C2070 C 0.31670 0.30702 0.39892
 C2071 C 0.29210 0.28153 0.43337
 C2072 C 0.27880 0.28821 0.43917
 C2073 C 0.27421 0.30412 0.43434
 C2074 C 0.28279 0.31294 0.42343
 C2075 C 0.26089 0.31074 0.44025
 C2076 C 0.25198 0.30147 0.45044
 C2077 C 0.25630 0.28552 0.45491
 C2078 C 0.26979 0.27901 0.44941
 H2079 H 0.30000 0.32610 0.40137
 H2080 H 0.31751 0.27145 0.42019
 H2081 H 0.33150 0.28585 0.40007
 H2082 H 0.29566 0.26938 0.43715
 H2083 H 0.27914 0.32503 0.41954
 H2084 H 0.25722 0.32293 0.43673
 H2085 H 0.24153 0.30655 0.45457
 H2086 H 0.27305 0.26664 0.45286
 C2087 C 0.31752 0.81108 -0.09105
 C2088 C 0.30758 0.80413 -0.08013
 C2089 C 0.29243 0.80920 -0.07985
 C2090 C 0.28755 0.82134 -0.09020
 C2091 C 0.29753 0.82839 -0.10078
 C2092 C 0.31255 0.82329 -0.10138
 C2093 C 0.28235 0.80203 -0.06929
 C2094 C 0.28722 0.78996 -0.05886
 C2095 C 0.30245 0.78517 -0.05879
 C2096 C 0.31253 0.79224 -0.06948
 C2097 C 0.30727 0.77320 -0.04818
 C2098 C 0.29702 0.76575 -0.03801
 C2099 C 0.28185 0.77019 -0.03831
 C2100 C 0.27702 0.78239 -0.04866
 H2101 H 0.32912 0.80719 -0.09136
 H2102 H 0.27599 0.82538 -0.09012
 H2103 H 0.29340 0.83767 -0.10870
 H2104 H 0.27070 0.80579 -0.06926
 H2105 H 0.32416 0.78843 -0.06956
 H2106 H 0.31889 0.76940 -0.04792
 H2107 H 0.30082 0.75620 -0.03018
 H2108 H 0.26526 0.78569 -0.04894
 C2109 C 0.81720 0.30541 -0.09233
 C2110 C 0.81105 0.29408 -0.08162
 C2111 C 0.81471 0.27712 -0.08264
 C2112 C 0.82452 0.27179 -0.09414
 C2113 C 0.83067 0.28310 -0.10459
 C2114 C 0.82711 0.29999 -0.10385
 C2115 C 0.80846 0.26567 -0.07224
 C2116 C 0.79858 0.27090 -0.06075
 C2117 C 0.79504 0.28786 -0.05947
 C2118 C 0.80130 0.29936 -0.06992
 C2119 C 0.78507 0.29293 -0.04792
 C2120 C 0.77840 0.28127 -0.03802
 C2121 C 0.78174 0.26440 -0.03941
 C2122 C 0.79195 0.25932 -0.05070
 H2123 H 0.81446 0.31841 -0.09158
 H2124 H 0.82742 0.25884 -0.09508
 H2125 H 0.83808 0.27850 -0.11343
 H2126 H 0.81119 0.25266 -0.07317
 H2127 H 0.79850 0.31235 -0.06903
 H2128 H 0.78219 0.30586 -0.04675
 H2129 H 0.77036 0.28532 -0.02950
 H2130 H 0.79440 0.24627 -0.05188
 C2131 C 0.80705 0.80556 0.41664
 C2132 C 0.79700 0.79923 0.42771
 C2133 C 0.78183 0.80418 0.42749
 C2134 C 0.77708 0.81571 0.41647
 C2135 C 0.78715 0.82198 0.40552
 C2136 C 0.80216 0.81681 0.40534
 C2137 C 0.77161 0.79734 0.43810
 C2138 C 0.77635 0.78555 0.44891
 C2139 C 0.79161 0.78090 0.44939
 C2140 C 0.80184 0.78780 0.43881
 C2141 C 0.79631 0.76913 0.46024
 C2142 C 0.78594 0.76173 0.47026
 C2143 C 0.77075 0.76607 0.46966
 C2144 C 0.76601 0.77806 0.45904
 H2145 H 0.81863 0.80163 0.41677
 H2146 H 0.76550 0.81968 0.41616
 H2147 H 0.78302 0.83054 0.39693
 H2148 H 0.75993 0.80098 0.43778
 H2149 H 0.81349 0.78405 0.43905
 H2150 H 0.80795 0.76542 0.46077
 H2151 H 0.78969 0.75232 0.47827
 H2152 H 0.75424 0.78130 0.45851
 C2153 C 0.69828 0.31504 0.59364
 C2154 C 0.70695 0.30582 0.58326
 C2155 C 0.70528 0.28840 0.58285
 C2156 C 0.69507 0.28049 0.59275
 C2157 C 0.68645 0.28971 0.60290
 C2158 C 0.68788 0.30704 0.60343
 C2159 C 0.71383 0.27909 0.57260
 C2160 C 0.72410 0.28692 0.56270
 C2161 C 0.72583 0.30433 0.56299
 C2162 C 0.71721 0.31369 0.57327
 C2163 C 0.73626 0.31201 0.55307
 C2164 C 0.74501 0.30250 0.54315
 C2165 C 0.74332 0.28522 0.54287
 C2166 C 0.73281 0.27752 0.55264
 H2167 H 0.69944 0.32840 0.59390
 H2168 H 0.69373 0.26715 0.59263
 H2169 H 0.67876 0.28315 0.61046
 H2170 H 0.71254 0.26573 0.57235
 H2171 H 0.71853 0.32704 0.57353
 H2172 H 0.73779 0.32533 0.55314
 H2173 H 0.75326 0.30857 0.53583
 H2174 H 0.73159 0.26416 0.55251
 C2175 C 0.69079 0.80838 1.08067
 C2176 C 0.69883 0.79847 1.07039
 C2177 C 0.69676 0.78111 1.07070
 C2178 C 0.68644 0.77403 1.08106
 C2179 C 0.67857 0.78398 1.09136
 C2180 C 0.68084 0.80122 1.09147
 C2181 C 0.70526 0.77112 1.06088
 C2182 C 0.71593 0.77826 1.05090
 C2183 C 0.71781 0.79566 1.05040
 C2184 C 0.70917 0.80565 1.06007
 C2185 C 0.72855 0.80275 1.04049
 C2186 C 0.73761 0.79270 1.03141
 C2187 C 0.73593 0.77543 1.03195
 C2188 C 0.72502 0.76827 1.04165
 H2189 H 0.69252 0.82165 1.08037
 H2190 H 0.68466 0.76075 1.08141
 H2191 H 0.67102 0.77805 1.09949
 H2192 H 0.70380 0.75778 1.06125
 H2193 H 0.71074 0.81897 1.05982
 H2194 H 0.73016 0.81605 1.04000
 H2195 H 0.74614 0.79836 1.02414
 H2196 H 0.72383 0.75491 1.04216
 C2197 C 0.19254 0.32458 1.07954
 C2198 C 0.20052 0.31629 1.06803
 C2199 C 0.19315 0.30427 1.05893
 C2200 C 0.17781 0.30112 1.06119
 C2201 C 0.16998 0.30931 1.07278
 C2202 C 0.17731 0.32086 1.08230
 C2203 C 0.20129 0.29529 1.04801
 C2204 C 0.21676 0.29804 1.04623
 C2205 C 0.22407 0.31035 1.05508
 C2206 C 0.21588 0.31948 1.06584
 C2207 C 0.23955 0.31303 1.05332
 C2208 C 0.24779 0.30332 1.04317
 C2209 C 0.24067 0.29090 1.03453
 C2210 C 0.22513 0.28837 1.03604
 H2211 H 0.19844 0.33340 1.08671
 H2212 H 0.17194 0.29205 1.05423
 H2213 H 0.15822 0.30638 1.07441
 H2214 H 0.19567 0.28589 1.04119
 H2215 H 0.22154 0.32874 1.07279
 H2216 H 0.24532 0.32241 1.06001
 H2217 H 0.25979 0.30530 1.04219
 H2218 H 0.21968 0.27858 1.02957
 C2219 C 0.18882 0.81521 0.59030
 C2220 C 0.19915 0.80798 0.58011
 C2221 C 0.21458 0.81206 0.58131
 C2222 C 0.21946 0.82312 0.59262
 C2223 C 0.20916 0.83031 0.60255
 C2224 C 0.19376 0.82658 0.60146
 C2225 C 0.22496 0.80508 0.57119
 C2226 C 0.22017 0.79406 0.55980
 C2227 C 0.20478 0.78989 0.55850
 C2228 C 0.19434 0.79688 0.56868
 C2229 C 0.20015 0.77870 0.54709
 C2230 C 0.21069 0.77165 0.53718
 C2231 C 0.22597 0.77585 0.53842
 C2232 C 0.23061 0.78706 0.54975
 H2233 H 0.17697 0.81227 0.58931
 H2234 H 0.23125 0.82628 0.59374
 H2235 H 0.21336 0.83876 0.61120
 H2236 H 0.23678 0.80825 0.57218
 H2237 H 0.18253 0.79371 0.56769
 H2238 H 0.18842 0.77528 0.54593
 H2239 H 0.20699 0.76279 0.52864
 H2240 H 0.24243 0.79018 0.55080
 C2241 C 0.30802 0.69633 0.58503
 C2242 C 0.29788 0.70386 0.57487
 C2243 C 0.28298 0.69781 0.57391
 C2244 C 0.27854 0.68420 0.58292
 C2245 C 0.28868 0.67678 0.59299
 C2246 C 0.30348 0.68283 0.59428
 C2247 C 0.27269 0.70556 0.56412
 C2248 C 0.27708 0.71934 0.55529
 C2249 C 0.29205 0.72528 0.55605
 C2250 C 0.30237 0.71747 0.56581
 C2251 C 0.29638 0.73909 0.54719
 C2252 C 0.28593 0.74711 0.53786
 C2253 C 0.27104 0.74136 0.53717
 C2254 C 0.26668 0.72745 0.54587
 H2255 H 0.31942 0.70104 0.58573
 H2256 H 0.26716 0.67939 0.58231
 H2257 H 0.28475 0.66652 0.59999
 H2258 H 0.26122 0.70098 0.56350
 H2259 H 0.31381 0.72211 0.56649
 H2260 H 0.30779 0.74382 0.54763
 H2261 H 0.28937 0.75795 0.53133
 H2262 H 0.25514 0.72310 0.54539
 C2263 C 0.31142 0.20160 1.08356
 C2264 C 0.30262 0.20905 1.07208
 C2265 C 0.28795 0.20298 1.06923
 C2266 C 0.28245 0.18938 1.07763
 C2267 C 0.29115 0.18224 1.08918
 C2268 C 0.30558 0.18844 1.09245
 C2269 C 0.27882 0.21089 1.05840
 C2270 C 0.28402 0.22504 1.05060
 C2271 C 0.29879 0.23099 1.05320
 C2272 C 0.30805 0.22284 1.06381
 C2273 C 0.30385 0.24530 1.04549
 C2274 C 0.29421 0.25394 1.03571
 C2275 C 0.27949 0.24826 1.03339
 C2276 C 0.27450 0.23369 1.04063
 H2277 H 0.32249 0.20654 1.08604
 H2278 H 0.27127 0.18451 1.07552
 H2279 H 0.28648 0.17194 1.09567
 H2280 H 0.26750 0.20635 1.05639
 H2281 H 0.31929 0.22753 1.06597
 H2282 H 0.31512 0.25003 1.04732
 H2283 H 0.29810 0.26524 1.03020
 H2284 H 0.26305 0.22944 1.03886
 C2285 C 0.80688 0.69153 1.08897
 C2286 C 0.79798 0.69911 1.07764
 C2287 C 0.78252 0.69516 1.07675
 C2288 C 0.77627 0.68358 1.08701
 C2289 C 0.78517 0.67613 1.09822
 C2290 C 0.80053 0.68008 1.09943
 C2291 C 0.77348 0.70298 1.06577
 C2292 C 0.77968 0.71478 1.05567
 C2293 C 0.79519 0.71860 1.05637
 C2294 C 0.80425 0.71070 1.06733
 C2295 C 0.80130 0.73048 1.04625
 C2296 C 0.79209 0.73870 1.03574
 C2297 C 0.77668 0.73505 1.03510
 C2298 C 0.77054 0.72304 1.04504
 H2299 H 0.81872 0.69462 1.08962
 H2300 H 0.76444 0.68042 1.08648
 H2301 H 0.77985 0.66750 1.10612
 H2302 H 0.76159 0.70003 1.06520
 H2303 H 0.81612 0.71374 1.06796
 H2304 H 0.81314 0.73359 1.04663
 H2305 H 0.79691 0.74812 1.02827
 H2306 H 0.75861 0.72034 1.04463
 C2307 C 0.81207 0.19581 0.59402
 C2308 C 0.80634 0.20786 0.58393
 C2309 C 0.80918 0.22482 0.58683
 C2310 C 0.81769 0.22945 0.59965
 C2311 C 0.82343 0.21743 0.60952
 C2312 C 0.82073 0.20052 0.60682
 C2313 C 0.80343 0.23692 0.57692
 C2314 C 0.79483 0.23235 0.56413
 C2315 C 0.79205 0.21541 0.56109
 C2316 C 0.79785 0.20327 0.57100
 C2317 C 0.78330 0.21095 0.54833
 C2318 C 0.77711 0.22315 0.53887
 C2319 C 0.77976 0.23999 0.54188
 C2320 C 0.78871 0.24449 0.55448
 H2321 H 0.81000 0.18281 0.59176
 H2322 H 0.81992 0.24238 0.60206
 H2323 H 0.82987 0.22146 0.61938
 H2324 H 0.80556 0.24991 0.57923
 H2325 H 0.79566 0.19028 0.56872
 H2326 H 0.78099 0.19805 0.54584
 H2327 H 0.76996 0.21949 0.52937
 H2328 H 0.79064 0.25749 0.55691
 C2329 C 0.68656 0.69140 0.41985
 C2330 C 0.69411 0.70154 0.43043
 C2331 C 0.69162 0.71879 0.43032
 C2332 C 0.68136 0.72551 0.41983
 C2333 C 0.67391 0.71531 0.40929
 C2334 C 0.67660 0.69820 0.40903
 C2335 C 0.69959 0.72904 0.44051
 C2336 C 0.71007 0.72225 0.45074
 C2337 C 0.71234 0.70495 0.45104
 C2338 C 0.70431 0.69471 0.44093
 C2339 C 0.72286 0.69820 0.46123
 C2340 C 0.73129 0.70850 0.47083
 C2341 C 0.72923 0.72568 0.47050
 C2342 C 0.71856 0.73251 0.46048
 H2343 H 0.68858 0.67821 0.42000
 H2344 H 0.67928 0.73869 0.41960
 H2345 H 0.66636 0.72092 0.40109
 H2346 H 0.69780 0.74229 0.44030
 H2347 H 0.70619 0.68147 0.44104
 H2348 H 0.72476 0.68498 0.46158
 H2349 H 0.73965 0.70313 0.47834
 H2350 H 0.71710 0.74580 0.46012
 C2351 C 0.70006 0.18572 -0.08948
 C2352 C 0.70831 0.19519 -0.07884
 C2353 C 0.70475 0.21203 -0.07665
 C2354 C 0.69292 0.21904 -0.08489
 C2355 C 0.68479 0.20959 -0.09540
 C2356 C 0.68830 0.19288 -0.09794
 C2357 C 0.71315 0.22170 -0.06641
 C2358 C 0.72515 0.21480 -0.05832
 C2359 C 0.72864 0.19789 -0.06025
 C2360 C 0.72017 0.18817 -0.07048
 C2361 C 0.74068 0.19109 -0.05203
 C2362 C 0.74930 0.20102 -0.04221
 C2363 C 0.74596 0.21782 -0.04045
 C2364 C 0.73386 0.22464 -0.04847
 H2365 H 0.70284 0.17284 -0.09118
 H2366 H 0.69004 0.23193 -0.08334
 H2367 H 0.67596 0.21561 -0.10177
 H2368 H 0.71047 0.23465 -0.06488
 H2369 H 0.72292 0.17525 -0.07208
 H2370 H 0.74352 0.17817 -0.05334
 H2371 H 0.75870 0.19567 -0.03613
 H2372 H 0.73134 0.23765 -0.04711
 C2373 C 0.20011 0.69326 -0.08931
 C2374 C 0.20694 0.70353 -0.07833
 C2375 C 0.20324 0.72048 -0.07779
 C2376 C 0.19240 0.72672 -0.08791
 C2377 C 0.18564 0.71639 -0.09881
 C2378 C 0.18965 0.69966 -0.09982
 C2379 C 0.21066 0.73097 -0.06739
 C2380 C 0.22176 0.72471 -0.05756
 C2381 C 0.22511 0.70763 -0.05778
 C2382 C 0.21765 0.69715 -0.06813
 C2383 C 0.23614 0.70138 -0.04788
 C2384 C 0.24407 0.71201 -0.03813
 C2385 C 0.24105 0.72899 -0.03812
 C2386 C 0.22981 0.73529 -0.04774
 H2387 H 0.20312 0.68031 -0.08978
 H2388 H 0.18936 0.73966 -0.08761
 H2389 H 0.17764 0.72165 -0.10677
 H2390 H 0.20800 0.74404 -0.06715
 H2391 H 0.22041 0.68412 -0.06848
 H2392 H 0.23882 0.68833 -0.04788
 H2393 H 0.25280 0.70706 -0.03083
 H2394 H 0.22757 0.74846 -0.04774
 C2395 C 0.18218 0.19103 0.41199
 C2396 C 0.18820 0.20213 0.42281
 C2397 C 0.17888 0.21417 0.42954
 C2398 C 0.16367 0.21466 0.42562
 C2399 C 0.15779 0.20366 0.41481
 C2400 C 0.16699 0.19188 0.40765
 C2401 C 0.18496 0.22574 0.43985
 C2402 C 0.20029 0.22552 0.44343
 C2403 C 0.20957 0.21327 0.43694
 C2404 C 0.20345 0.20160 0.42674
 C2405 C 0.22491 0.21313 0.44047
 C2406 C 0.23109 0.22526 0.45000
 C2407 C 0.22201 0.23761 0.45629
 C2408 C 0.20658 0.23762 0.45309
 H2409 H 0.18944 0.18195 0.40681
 H2410 H 0.15634 0.22375 0.43073
 H2411 H 0.14606 0.20472 0.41188
 H2412 H 0.17782 0.23510 0.44484
 H2413 H 0.21062 0.19234 0.42164
 H2414 H 0.23219 0.20384 0.43561
 H2415 H 0.24303 0.22521 0.45231
 H2416 H 0.19961 0.24730 0.45779
 C2417 C 0.31315 0.39658 0.68609
 C2418 C 0.30642 0.40671 0.69715
 C2419 C 0.31181 0.40665 0.71246
 C2420 C 0.32395 0.39658 0.71638
 C2421 C 0.33058 0.38651 0.70529
 C2422 C 0.32520 0.38630 0.69007
 C2423 C 0.30492 0.41656 0.72360
 C2424 C 0.29269 0.42651 0.71961
 C2425 C 0.28740 0.42665 0.70425
 C2426 C 0.29431 0.41678 0.69313
 C2427 C 0.27518 0.43658 0.70027
 C2428 C 0.26821 0.44624 0.71141
 C2429 C 0.27342 0.44623 0.72665
 C2430 C 0.28561 0.43628 0.73074
 H2431 H 0.30897 0.39677 0.67439
 H2432 H 0.32824 0.39638 0.72805
 H2433 H 0.33977 0.37869 0.70877
 H2434 H 0.30901 0.41646 0.73536
 H2435 H 0.29019 0.41685 0.68137
 H2436 H 0.27097 0.43681 0.68857
 H2437 H 0.25870 0.45374 0.70818
 H2438 H 0.28955 0.43620 0.74255
 C2439 C 0.30691 0.91147 0.19540
 C2440 C 0.29948 0.92097 0.20657
 C2441 C 0.30357 0.91942 0.22227
 C2442 C 0.31498 0.90856 0.22652
 C2443 C 0.32249 0.89949 0.21536
 C2444 C 0.31861 0.90087 0.19973
 C2445 C 0.29632 0.92885 0.23348
 C2446 C 0.28517 0.94007 0.22926
 C2447 C 0.28111 0.94182 0.21359
 C2448 C 0.28822 0.93217 0.20235
 C2449 C 0.27003 0.95325 0.20947
 C2450 C 0.26303 0.96278 0.22077
 C2451 C 0.26701 0.96101 0.23631
 C2452 C 0.27803 0.94960 0.24050
 H2453 H 0.30392 0.91267 0.18334
 H2454 H 0.31823 0.90722 0.23849
 H2455 H 0.33133 0.89126 0.21901
 H2456 H 0.29947 0.92758 0.24550
 H2457 H 0.28510 0.93348 0.19033
 H2458 H 0.26675 0.95478 0.19754
 H2459 H 0.25442 0.97145 0.21743
 H2460 H 0.28103 0.94821 0.25254
 C2461 C 0.81475 0.41194 0.21091
 C2462 C 0.80646 0.42241 0.22050
 C2463 C 0.79175 0.42695 0.21624
 C2464 C 0.78570 0.42124 0.20235
 C2465 C 0.79397 0.41076 0.19294
 C2466 C 0.80846 0.40578 0.19720
 C2467 C 0.78322 0.43691 0.22603
 C2468 C 0.78917 0.44232 0.24008
 C2469 C 0.80398 0.43802 0.24425
 C2470 C 0.81254 0.42812 0.23442
 C2471 C 0.80991 0.44355 0.25830
 C2472 C 0.80119 0.45309 0.26819
 C2473 C 0.78646 0.45717 0.26417
 C2474 C 0.78049 0.45184 0.25011
 H2475 H 0.82587 0.40820 0.21441
 H2476 H 0.77449 0.42470 0.19886
 H2477 H 0.78890 0.40646 0.18236
 H2478 H 0.77188 0.44025 0.22281
 H2479 H 0.82384 0.42469 0.23768
 H2480 H 0.82124 0.44041 0.26167
 H2481 H 0.80586 0.45719 0.27904
 H2482 H 0.76909 0.45508 0.24706
 C2483 C 0.80481 0.90515 0.68971
 C2484 C 0.79605 0.91595 0.69853
 C2485 C 0.80025 0.91951 0.71387
 C2486 C 0.81324 0.91247 0.72003
 C2487 C 0.82193 0.90184 0.71116
 C2488 C 0.81776 0.89795 0.69597
 C2489 C 0.79136 0.92995 0.72286
 C2490 C 0.77834 0.93696 0.71669
 C2491 C 0.77426 0.93365 0.70125
 C2492 C 0.78313 0.92315 0.69228
 C2493 C 0.76127 0.94079 0.69510
 C2494 C 0.75232 0.95096 0.70421
 C2495 C 0.75623 0.95413 0.71956
 C2496 C 0.76924 0.94712 0.72576
 H2497 H 0.80155 0.90243 0.67797
 H2498 H 0.81663 0.91508 0.73176
 H2499 H 0.83175 0.89640 0.71636
 H2500 H 0.79453 0.93255 0.73467
 H2501 H 0.77993 0.92050 0.68049
 H2502 H 0.75798 0.93841 0.68331
 H2503 H 0.74223 0.95620 0.69936
 H2504 H 0.77220 0.94955 0.73766
 C2505 C 0.68700 0.59181 0.69689
 C2506 C 0.69447 0.58163 0.70753
 C2507 C 0.68904 0.58027 0.72281
 C2508 C 0.67620 0.58894 0.72715
 C2509 C 0.66874 0.59885 0.71647
 C2510 C 0.67404 0.60042 0.70127
 C2511 C 0.69649 0.57025 0.73353
 C2512 C 0.70923 0.56141 0.72915
 C2513 C 0.71459 0.56256 0.71382
 C2514 C 0.70722 0.57273 0.70313
 C2515 C 0.72727 0.55353 0.70948
 C2516 C 0.73459 0.54350 0.72022
 C2517 C 0.72935 0.54239 0.73543
 C2518 C 0.71671 0.55139 0.73987
 H2519 H 0.69112 0.59281 0.68517
 H2520 H 0.67189 0.58805 0.73881
 H2521 H 0.65891 0.60547 0.72023
 H2522 H 0.69234 0.56931 0.74526
 H2523 H 0.71137 0.57367 0.69140
 H2524 H 0.73154 0.55424 0.69779
 H2525 H 0.74441 0.53668 0.71671
 H2526 H 0.71272 0.55054 0.75166
 C2527 C 0.70137 0.08778 0.17939
 C2528 C 0.70957 0.07643 0.18821
 C2529 C 0.70236 0.06745 0.20017
 C2530 C 0.68704 0.06980 0.20293
 C2531 C 0.67897 0.08117 0.19413
 C2532 C 0.68604 0.09042 0.18237
 C2533 C 0.71061 0.05644 0.20929
 C2534 C 0.72602 0.05438 0.20667
 C2535 C 0.73320 0.06322 0.19459
 C2536 C 0.72491 0.07414 0.18540
 C2537 C 0.74862 0.06119 0.19205
 C2538 C 0.75690 0.05068 0.20153
 C2539 C 0.74987 0.04192 0.21358
 C2540 C 0.73442 0.04383 0.21611
 H2541 H 0.70709 0.09475 0.17044
 H2542 H 0.68131 0.06296 0.21200
 H2543 H 0.66718 0.08271 0.19665
 H2544 H 0.70510 0.04965 0.21854
 H2545 H 0.73045 0.08101 0.17622
 H2546 H 0.75430 0.06788 0.18287
 H2547 H 0.76884 0.04944 0.19956
 H2548 H 0.72905 0.03729 0.22559
 C2549 C 0.18290 0.59553 0.19901
 C2550 C 0.19224 0.58434 0.20679
 C2551 C 0.20757 0.58336 0.20268
 C2552 C 0.21322 0.59333 0.19074
 C2553 C 0.20386 0.60434 0.18302
 C2554 C 0.18865 0.60568 0.18711
 C2555 C 0.21704 0.57253 0.21064
 C2556 C 0.21141 0.56262 0.22267
 C2557 C 0.19602 0.56337 0.22664
 C2558 C 0.18654 0.57423 0.21867
 C2559 C 0.19044 0.55337 0.23864
 C2560 C 0.20003 0.54291 0.24678
 C2561 C 0.21533 0.54224 0.24299
 C2562 C 0.22096 0.55210 0.23092
 H2563 H 0.17117 0.59628 0.20219
 H2564 H 0.22494 0.59272 0.18744
 H2565 H 0.20869 0.61205 0.17404
 H2566 H 0.22883 0.57190 0.20756
 H2567 H 0.17478 0.57490 0.22180
 H2568 H 0.17869 0.55377 0.24185
 H2569 H 0.19560 0.53550 0.25620
 H2570 H 0.23280 0.55165 0.22808
 C2571 C 0.19004 0.09297 0.68380
 C2572 C 0.19679 0.08317 0.69516
 C2573 C 0.18790 0.07220 0.70413
 C2574 C 0.17243 0.07103 0.70139
 C2575 C 0.16578 0.08093 0.69012
 C2576 C 0.17445 0.09215 0.68136
 C2577 C 0.19456 0.06273 0.71580
 C2578 C 0.21002 0.06412 0.71861
 C2579 C 0.21894 0.07499 0.70952
 C2580 C 0.21227 0.08444 0.69787
 C2581 C 0.23440 0.07628 0.71230
 C2582 C 0.24099 0.06680 0.72389
 C2583 C 0.23225 0.05591 0.73288
 C2584 C 0.21672 0.05480 0.73035
 H2585 H 0.19691 0.10161 0.67727
 H2586 H 0.16545 0.06261 0.70809
 H2587 H 0.15379 0.07987 0.68839
 H2588 H 0.18773 0.05437 0.72273
 H2589 H 0.21910 0.09284 0.69097
 H2590 H 0.24139 0.08456 0.70547
 H2591 H 0.25298 0.06783 0.72578
 H2592 H 0.20994 0.04654 0.73744
 C2593 C 0.30386 0.59243 0.31083
 C2594 C 0.29540 0.58152 0.30173
 C2595 C 0.29804 0.58079 0.28570
 C2596 C 0.30940 0.59072 0.27914
 C2597 C 0.31772 0.60165 0.28829
 C2598 C 0.31484 0.60285 0.30417
 C2599 C 0.28912 0.57041 0.27648
 C2600 C 0.27754 0.56083 0.28311
 C2601 C 0.27513 0.56134 0.29922
 C2602 C 0.28411 0.57162 0.30842
 C2603 C 0.26359 0.55177 0.30585
 C2604 C 0.25436 0.54194 0.29660
 C2605 C 0.25657 0.54147 0.28062
 C2606 C 0.26818 0.55092 0.27390
 H2607 H 0.30168 0.59295 0.32310
 H2608 H 0.31163 0.59028 0.26688
 H2609 H 0.32608 0.60951 0.28282
 H2610 H 0.29103 0.56998 0.26415
 H2611 H 0.28212 0.57215 0.32074
 H2612 H 0.26159 0.55203 0.31816
 H2613 H 0.24534 0.53481 0.30188
 H2614 H 0.26981 0.55060 0.26152
 C2615 C 0.30979 0.09969 0.81835
 C2616 C 0.30150 0.09002 0.80791
 C2617 C 0.30734 0.08703 0.79304
 C2618 C 0.32138 0.09358 0.78890
 C2619 C 0.32956 0.10311 0.79934
 C2620 C 0.32387 0.10634 0.81413
 C2621 C 0.29906 0.07761 0.78249
 C2622 C 0.28500 0.07106 0.78662
 C2623 C 0.27916 0.07387 0.80153
 C2624 C 0.28745 0.08335 0.81209
 C2625 C 0.26510 0.06716 0.80559
 C2626 C 0.25690 0.05782 0.79494
 C2627 C 0.26266 0.05511 0.78014
 C2628 C 0.27667 0.06175 0.77602
 H2629 H 0.30530 0.10193 0.82974
 H2630 H 0.32601 0.09140 0.77755
 H2631 H 0.34027 0.10816 0.79564
 H2632 H 0.30354 0.07539 0.77107
 H2633 H 0.28296 0.08558 0.82350
 H2634 H 0.26045 0.06915 0.81696
 H2635 H 0.24606 0.05272 0.79820
 H2636 H 0.28106 0.05960 0.76455
 C2637 C 0.80986 0.58945 0.81518
 C2638 C 0.80134 0.57923 0.80538
 C2639 C 0.80618 0.57671 0.79004
 C2640 C 0.81944 0.58425 0.78481
 C2641 C 0.82790 0.59422 0.79464
 C2642 C 0.82323 0.59696 0.80989
 C2643 C 0.79771 0.56672 0.78013
 C2644 C 0.78447 0.55907 0.78533
 C2645 C 0.77964 0.56135 0.80070
 C2646 C 0.78810 0.57146 0.81063
 C2647 C 0.76639 0.55351 0.80581
 C2648 C 0.75797 0.54365 0.79575
 C2649 C 0.76270 0.54150 0.78048
 C2650 C 0.77593 0.54921 0.77533
 H2651 H 0.80620 0.59137 0.82694
 H2652 H 0.82329 0.58247 0.77310
 H2653 H 0.83800 0.60000 0.79014
 H2654 H 0.80142 0.56490 0.76835
 H2655 H 0.78437 0.57329 0.82239
 H2656 H 0.76251 0.55508 0.81754
 H2657 H 0.74770 0.53781 0.79980
 H2658 H 0.77951 0.54756 0.76349
 C2659 C 0.82016 0.08999 0.30267
 C2660 C 0.81110 0.07910 0.29409
 C2661 C 0.79638 0.07535 0.29919
 C2662 C 0.79100 0.08241 0.31278
 C2663 C 0.80005 0.09321 0.32122
 C2664 C 0.81469 0.09719 0.31627
 C2665 C 0.78718 0.06473 0.29058
 C2666 C 0.79246 0.05787 0.27684
 C2667 C 0.80722 0.06149 0.27173
 C2668 C 0.81648 0.07203 0.28043
 C2669 C 0.81237 0.05467 0.25787
 C2670 C 0.80289 0.04460 0.24905
 C2671 C 0.78825 0.04110 0.25407
 C2672 C 0.78310 0.04764 0.26800
 H2673 H 0.83145 0.09281 0.29874
 H2674 H 0.77973 0.07970 0.31682
 H2675 H 0.79539 0.09863 0.33151
 H2676 H 0.77585 0.06196 0.29448
 H2677 H 0.82777 0.07488 0.27649
 H2678 H 0.82363 0.05730 0.25377
 H2679 H 0.80691 0.03964 0.23826
 H2680 H 0.77171 0.04497 0.27175
 C2681 C 0.69457 0.40593 0.32608
 C2682 C 0.70425 0.41703 0.31838
 C2683 C 0.70277 0.41944 0.30232
 C2684 C 0.69152 0.41089 0.29429
 C2685 C 0.68200 0.39979 0.30201
 C2686 C 0.68350 0.39702 0.31795
 C2687 C 0.71268 0.43016 0.29452
 C2688 C 0.72414 0.43841 0.30255
 C2689 C 0.72554 0.43615 0.31866
 C2690 C 0.71553 0.42554 0.32648
 C2691 C 0.73708 0.44435 0.32662
 C2692 C 0.74728 0.45452 0.31868
 C2693 C 0.74597 0.45676 0.30271
 C2694 C 0.73438 0.44870 0.29470
 H2695 H 0.69584 0.40418 0.33837
 H2696 H 0.69022 0.41261 0.28198
 H2697 H 0.67366 0.39317 0.29536
 H2698 H 0.71161 0.43190 0.28217
 H2699 H 0.71668 0.42371 0.33881
 H2700 H 0.73834 0.44274 0.33895
 H2701 H 0.75630 0.46053 0.32494
 H2702 H 0.73347 0.45035 0.28233
 C2703 C 0.68337 0.90209 0.80427
 C2704 C 0.68973 0.91273 0.79312
 C2705 C 0.68465 0.91195 0.77770
 C2706 C 0.67316 0.90083 0.77376
 C2707 C 0.66676 0.89050 0.78494
 C2708 C 0.67183 0.89094 0.80026
 C2709 C 0.69115 0.92225 0.76643
 C2710 C 0.70259 0.93346 0.77038
 C2711 C 0.70747 0.93454 0.78585
 C2712 C 0.70105 0.92412 0.79711
 C2713 C 0.71881 0.94595 0.78974
 C2714 C 0.72540 0.95598 0.77838
 C2715 C 0.72077 0.95472 0.76300
 C2716 C 0.70933 0.94351 0.75905
 H2717 H 0.68726 0.90264 0.81609
 H2718 H 0.66913 0.90009 0.76201
 H2719 H 0.65800 0.88193 0.78150
 H2720 H 0.68734 0.92150 0.75459
 H2721 H 0.70489 0.92484 0.80894
 H2722 H 0.72267 0.94700 0.80153
 H2723 H 0.73430 0.96454 0.78151
 H2724 H 0.70583 0.94254 0.74713
 C2725 C 0.19091 0.40896 0.81429
 C2726 C 0.19949 0.41890 0.80424
 C2727 C 0.19234 0.43089 0.79498
 C2728 C 0.17677 0.43287 0.79606
 C2729 C 0.16831 0.42283 0.80600
 C2730 C 0.17525 0.41072 0.81511
 C2731 C 0.20082 0.44061 0.78468
 C2732 C 0.21637 0.43849 0.78354
 C2733 C 0.22357 0.42664 0.79294
 C2734 C 0.21507 0.41689 0.80320
 C2735 C 0.23915 0.42470 0.79184
 C2736 C 0.24754 0.43448 0.78160
 C2737 C 0.24049 0.44630 0.77227
 C2738 C 0.22485 0.44803 0.77310
 H2739 H 0.19640 0.39956 0.82112
 H2740 H 0.17112 0.44208 0.78914
 H2741 H 0.15630 0.42458 0.80655
 H2742 H 0.19534 0.44977 0.77754
 H2743 H 0.22055 0.40768 0.81031
 H2744 H 0.24484 0.41562 0.79888
 H2745 H 0.25957 0.43285 0.78092
 H2746 H 0.21932 0.45686 0.76564
 C2747 C 0.18562 0.90873 0.31279
 C2748 C 0.19407 0.91959 0.30344
 C2749 C 0.18992 0.92204 0.28789
 C2750 C 0.17733 0.91373 0.28201
 C2751 C 0.16899 0.90295 0.29137
 C2752 C 0.17307 0.90023 0.30682
 C2753 C 0.19847 0.93264 0.27843
 C2754 C 0.21114 0.94083 0.28431
 C2755 C 0.21523 0.93852 0.29991
 C2756 C 0.20666 0.92794 0.30938
 C2757 C 0.22793 0.94674 0.30573
 C2758 C 0.23657 0.95703 0.29616
 C2759 C 0.23258 0.95935 0.28068
 C2760 C 0.21988 0.95119 0.27479
 H2761 H 0.18886 0.90694 0.32470
 H2762 H 0.17399 0.91546 0.27012
 H2763 H 0.15949 0.89656 0.28635
 H2764 H 0.19531 0.93442 0.26647
 H2765 H 0.20985 0.92611 0.32132
 H2766 H 0.23125 0.94510 0.31764
 H2767 H 0.24646 0.96311 0.30078
 H2768 H 0.21688 0.95291 0.26279
 C2769 C 0.41111 0.29575 0.68060
 C2770 C 0.42132 0.28489 0.68748
 C2771 C 0.42208 0.26832 0.68242
 C2772 C 0.41272 0.26298 0.67045
 C2773 C 0.40255 0.27387 0.66368
 C2774 C 0.40154 0.29033 0.66874
 C2775 C 0.43208 0.25734 0.68948
 C2776 C 0.44128 0.26271 0.70160
 C2777 C 0.44059 0.27933 0.70659
 C2778 C 0.43066 0.29031 0.69946
 C2779 C 0.44971 0.28463 0.71878
 C2780 C 0.45934 0.27356 0.72607
 C2781 C 0.46014 0.25707 0.72116
 C2782 C 0.45106 0.25168 0.70895
 H2783 H 0.41065 0.30843 0.68454
 H2784 H 0.41314 0.25033 0.66641
 H2785 H 0.39531 0.26924 0.65465
 H2786 H 0.43260 0.24461 0.68564
 H2787 H 0.43009 0.30302 0.70335
 H2788 H 0.44928 0.29729 0.72279
 H2789 H 0.46610 0.27779 0.73566
 H2790 H 0.45156 0.23889 0.70529
 C2791 C 0.41885 0.81341 0.18703
 C2792 C 0.42924 0.80563 0.19673
 C2793 C 0.43207 0.81215 0.21154
 C2794 C 0.42480 0.82657 0.21620
 C2795 C 0.41444 0.83419 0.20651
 C2796 C 0.41113 0.82755 0.19195
 C2797 C 0.44186 0.80397 0.22157
 C2798 C 0.44878 0.78927 0.21704
 C2799 C 0.44627 0.78295 0.20208
 C2800 C 0.43657 0.79122 0.19199
 C2801 C 0.45326 0.76825 0.19759
 C2802 C 0.46231 0.75965 0.20798
 C2803 C 0.46453 0.76568 0.22292
 C2804 C 0.45789 0.78056 0.22736
 H2805 H 0.41661 0.80827 0.17576
 H2806 H 0.42689 0.83176 0.22749
 H2807 H 0.40871 0.84501 0.21069
 H2808 H 0.44385 0.80885 0.23302
 H2809 H 0.43447 0.78626 0.18060
 H2810 H 0.45150 0.76325 0.18617
 H2811 H 0.46735 0.74811 0.20450
 H2812 H 0.45961 0.78512 0.23896
 C2813 C 0.90522 0.30771 0.18634
 C2814 C 0.91586 0.29936 0.19539
 C2815 C 0.91642 0.30221 0.21145
 C2816 C 0.90660 0.31353 0.21813
 C2817 C 0.89619 0.32185 0.20907
 C2818 C 0.89529 0.31899 0.19313
 C2819 C 0.92666 0.29361 0.22064
 C2820 C 0.93641 0.28217 0.21402
 C2821 C 0.93615 0.27952 0.19792
 C2822 C 0.92586 0.28814 0.18870
 C2823 C 0.94601 0.26806 0.19139
 C2824 C 0.95574 0.25902 0.20077
 C2825 C 0.95580 0.26138 0.21677
 C2826 C 0.94622 0.27307 0.22331
 H2827 H 0.90474 0.30550 0.17405
 H2828 H 0.90689 0.31585 0.23041
 H2829 H 0.88861 0.33031 0.21466
 H2830 H 0.92693 0.29568 0.23298
 H2831 H 0.92553 0.28598 0.17639
 H2832 H 0.94599 0.26587 0.17909
 H2833 H 0.96298 0.24988 0.19562
 H2834 H 0.94621 0.27478 0.23570
 C2835 C 0.91939 0.80579 0.69171
 C2836 C 0.93069 0.79891 0.70093
 C2837 C 0.93308 0.80499 0.71598
 C2838 C 0.92436 0.81806 0.72141
 C2839 C 0.91316 0.82484 0.71218
 C2840 C 0.91041 0.81867 0.69732
 C2841 C 0.94394 0.79775 0.72545
 C2842 C 0.95241 0.78443 0.72011
 C2843 C 0.95029 0.77854 0.70495
 C2844 C 0.93947 0.78586 0.69543
 C2845 C 0.95880 0.76517 0.69969
 C2846 C 0.96901 0.75743 0.70951
 C2847 C 0.97094 0.76302 0.72465
 C2848 C 0.96273 0.77662 0.72985
 H2849 H 0.91755 0.80103 0.68022
 H2850 H 0.92607 0.82290 0.73290
 H2851 H 0.90642 0.83466 0.71688
 H2852 H 0.94562 0.80230 0.73707
 H2853 H 0.93771 0.78122 0.68386
 H2854 H 0.95733 0.76050 0.68811
 H2855 H 0.97517 0.74681 0.70544
 H2856 H 0.96416 0.78083 0.74160
 C2857 C 0.59150 0.30731 0.30067
 C2858 C 0.58101 0.29823 0.29195
 C2859 C 0.58030 0.28081 0.29348
 C2860 C 0.58990 0.27280 0.30377
 C2861 C 0.60029 0.28188 0.31235
 C2862 C 0.60132 0.29920 0.31086
 C2863 C 0.57013 0.27162 0.28459
 C2864 C 0.56070 0.27958 0.27407
 C2865 C 0.56124 0.29702 0.27259
 C2866 C 0.57136 0.30624 0.28159
 C2867 C 0.55181 0.30486 0.26193
 C2868 C 0.54216 0.29550 0.25264
 C2869 C 0.54168 0.27819 0.25401
 C2870 C 0.55092 0.27032 0.26479
 H2871 H 0.59201 0.32064 0.29944
 H2872 H 0.58950 0.25946 0.30508
 H2873 H 0.60766 0.27516 0.31996
 H2874 H 0.56970 0.25825 0.28572
 H2875 H 0.57185 0.31960 0.28039
 H2876 H 0.55207 0.31820 0.26061
 H2877 H 0.53522 0.30171 0.24421
 H2878 H 0.55064 0.25694 0.26574
 C2879 C 0.57790 0.81093 0.80938
 C2880 C 0.56627 0.80179 0.80249
 C2881 C 0.56109 0.78697 0.80950
 C2882 C 0.56733 0.78181 0.82351
 C2883 C 0.57906 0.79083 0.83015
 C2884 C 0.58467 0.80526 0.82301
 C2885 C 0.55014 0.77726 0.80217
 C2886 C 0.54456 0.78198 0.78772
 C2887 C 0.54951 0.79699 0.78085
 C2888 C 0.56020 0.80689 0.78837
 C2889 C 0.54408 0.80157 0.76631
 C2890 C 0.53427 0.79108 0.75839
 C2891 C 0.52957 0.77603 0.76499
 C2892 C 0.53456 0.77162 0.77975
 H2893 H 0.58215 0.82197 0.80367
 H2894 H 0.56342 0.77055 0.82911
 H2895 H 0.58390 0.78632 0.84078
 H2896 H 0.54634 0.76576 0.80744
 H2897 H 0.56417 0.81826 0.78297
 H2898 H 0.54775 0.81301 0.76087
 H2899 H 0.53058 0.79452 0.74694
 H2900 H 0.53107 0.75986 0.78472
 C2901 C 0.07887 0.31498 0.81434
 C2902 C 0.06922 0.30798 0.80332
 C2903 C 0.06512 0.31731 0.79019
 C2904 C 0.07038 0.33359 0.78853
 C2905 C 0.08005 0.34042 0.79946
 C2906 C 0.08467 0.33112 0.81233
 C2907 C 0.05612 0.31011 0.77877
 C2908 C 0.05130 0.29362 0.78021
 C2909 C 0.05509 0.28438 0.79352
 C2910 C 0.06395 0.29166 0.80503
 C2911 C 0.05021 0.26788 0.79492
 C2912 C 0.04200 0.26048 0.78306
 C2913 C 0.03852 0.26951 0.76974
 C2914 C 0.04302 0.28610 0.76840
 H2915 H 0.08207 0.30767 0.82426
 H2916 H 0.06727 0.34095 0.77858
 H2917 H 0.08417 0.35288 0.79752
 H2918 H 0.05316 0.31722 0.76860
 H2919 H 0.06702 0.28450 0.81513
 H2920 H 0.05296 0.26063 0.80504
 H2921 H 0.03854 0.24765 0.78416
 H2922 H 0.04029 0.29299 0.75804
 C2923 C 0.07825 0.79703 0.31773
 C2924 C 0.06684 0.78879 0.30960
 C2925 C 0.06023 0.79650 0.29667
 C2926 C 0.06491 0.81246 0.29233
 C2927 C 0.07640 0.82050 0.30038
 C2928 C 0.08340 0.81277 0.31300
 C2929 C 0.04934 0.78797 0.28807
 C2930 C 0.04523 0.77170 0.29205
 C2931 C 0.05167 0.76410 0.30516
 C2932 C 0.06230 0.77277 0.31395
 C2933 C 0.04774 0.74773 0.30896
 C2934 C 0.03795 0.73876 0.29955
 C2935 C 0.03175 0.74613 0.28641
 C2936 C 0.03519 0.76267 0.28282
 H2937 H 0.08329 0.79094 0.32755
 H2938 H 0.05993 0.81858 0.28248
 H2939 H 0.08001 0.83260 0.29642
 H2940 H 0.04442 0.79380 0.27802
 H2941 H 0.06737 0.76685 0.32387
 H2942 H 0.05257 0.74172 0.31895
 H2943 H 0.03545 0.72594 0.30231
 H2944 H 0.03052 0.76823 0.27252
 C2945 C 0.57637 0.69183 0.68502
 C2946 C 0.56471 0.69866 0.69374
 C2947 C 0.55709 0.68879 0.70478
 C2948 C 0.56095 0.67213 0.70658
 C2949 C 0.57265 0.66546 0.69794
 C2950 C 0.58072 0.67530 0.68730
 C2951 C 0.54603 0.69582 0.71414
 C2952 C 0.54266 0.71268 0.71274
 C2953 C 0.55002 0.72246 0.70142
 C2954 C 0.56091 0.71536 0.69190
 C2955 C 0.54674 0.73935 0.70015
 C2956 C 0.53667 0.74661 0.71037
 C2957 C 0.52959 0.73707 0.72186
 C2958 C 0.53246 0.72006 0.72286
 H2959 H 0.58232 0.69965 0.67686
 H2960 H 0.55514 0.66434 0.71490
 H2961 H 0.57547 0.65264 0.69984
 H2962 H 0.54035 0.68829 0.72278
 H2963 H 0.56672 0.72293 0.68339
 H2964 H 0.55226 0.74702 0.69153
 H2965 H 0.53465 0.75978 0.70956
 H2966 H 0.52719 0.71275 0.73192
 C2967 C 0.59093 0.19128 0.18009
 C2968 C 0.58036 0.19919 0.18949
 C2969 C 0.57919 0.19479 0.20523
 C2970 C 0.58831 0.18229 0.21121
 C2971 C 0.59868 0.17438 0.20177
 C2972 C 0.60023 0.17891 0.18619
 C2973 C 0.56906 0.20306 0.21480
 C2974 C 0.56002 0.21565 0.20882
 C2975 C 0.56089 0.21978 0.19298
 C2976 C 0.57107 0.21154 0.18342
 C2977 C 0.55173 0.23231 0.18703
 C2978 C 0.54206 0.24092 0.19675
 C2979 C 0.54139 0.23711 0.21252
 C2980 C 0.55031 0.22440 0.21849
 H2981 H 0.59188 0.19475 0.16805
 H2982 H 0.58753 0.17872 0.22324
 H2983 H 0.60574 0.16499 0.20681
 H2984 H 0.56832 0.19981 0.22692
 H2985 H 0.57188 0.21486 0.17132
 H2986 H 0.55222 0.23562 0.17493
 H2987 H 0.53533 0.25082 0.19206
 H2988 H 0.54983 0.22155 0.23070
 C2989 C 0.08806 0.68380 0.20051
 C2990 C 0.07615 0.69143 0.20835
 C2991 C 0.07413 0.70870 0.20682
 C2992 C 0.08377 0.71798 0.19739
 C2993 C 0.09554 0.71038 0.18972
 C2994 C 0.09796 0.69326 0.19123
 C2995 C 0.06268 0.71654 0.21495
 C2996 C 0.05327 0.70742 0.22479
 C2997 C 0.05499 0.69011 0.22621
 C2998 C 0.06639 0.68218 0.21789
 C2999 C 0.04552 0.68115 0.23624
 C3000 C 0.03483 0.68938 0.24516
 C3001 C 0.03339 0.70660 0.24399
 C3002 C 0.04246 0.71550 0.23362
 H3003 H 0.08965 0.67060 0.20176
 H3004 H 0.08235 0.73122 0.19611
 H3005 H 0.10286 0.71814 0.18281
 H3006 H 0.06130 0.72982 0.21388
 H3007 H 0.06786 0.66893 0.21909
 H3008 H 0.04663 0.66787 0.23749
 H3009 H 0.02797 0.68241 0.25325
 H3010 H 0.04139 0.72884 0.23286
 C3011 C 0.08846 0.19565 0.68053
 C3012 C 0.07905 0.20307 0.69147
 C3013 C 0.07734 0.19574 0.70622
 C3014 C 0.08495 0.18116 0.70976
 C3015 C 0.09417 0.17383 0.69882
 C3016 C 0.09604 0.18094 0.68411
 C3017 C 0.06805 0.20305 0.71722
 C3018 C 0.06030 0.21755 0.71368
 C3019 C 0.06186 0.22489 0.69892
 C3020 C 0.07128 0.21763 0.68792
 C3021 C 0.05391 0.23934 0.69542
 C3022 C 0.04448 0.24638 0.70643
 C3023 C 0.04294 0.23911 0.72105
 C3024 C 0.05091 0.22477 0.72466
 H3025 H 0.08974 0.20122 0.66922
 H3026 H 0.08379 0.17541 0.72101
 H3027 H 0.10000 0.16267 0.70207
 H3028 H 0.06680 0.19741 0.72853
 H3029 H 0.07251 0.22326 0.67661
 H3030 H 0.05495 0.24514 0.68419
 H3031 H 0.03835 0.25748 0.70356
 H3032 H 0.04965 0.21919 0.73599
 C3033 C 0.40699 0.69475 0.30517
 C3034 C 0.41839 0.70440 0.29826
 C3035 C 0.41831 0.72180 0.29996
 C3036 C 0.40710 0.72919 0.30883
 C3037 C 0.39592 0.71949 0.31579
 C3038 C 0.39564 0.70223 0.31391
 C3039 C 0.42931 0.73156 0.29263
 C3040 C 0.44043 0.72417 0.28362
 C3041 C 0.44078 0.70675 0.28223
 C3042 C 0.42976 0.69697 0.28957
 C3043 C 0.45198 0.69943 0.27324
 C3044 C 0.46244 0.70929 0.26532
 C3045 C 0.46192 0.72660 0.26635
 C3046 C 0.45099 0.73397 0.27564
 H3047 H 0.40700 0.68143 0.30379
 H3048 H 0.40689 0.74249 0.31029
 H3049 H 0.38728 0.72561 0.32235
 H3050 H 0.42909 0.74492 0.29377
 H3051 H 0.42991 0.68363 0.28833
 H3052 H 0.45244 0.68611 0.27206
 H3053 H 0.47068 0.70346 0.25801
 H3054 H 0.45052 0.74735 0.27633
 C3055 C 0.42156 0.17604 0.80966
 C3056 C 0.43233 0.18433 0.80060
 C3057 C 0.44125 0.19700 0.80720
 C3058 C 0.43942 0.20097 0.82278
 C3059 C 0.42838 0.19299 0.83159
 C3060 C 0.41924 0.18065 0.82506
 C3061 C 0.45145 0.20593 0.79800
 C3062 C 0.45248 0.20271 0.78218
 C3063 C 0.44366 0.18995 0.77558
 C3064 C 0.43381 0.18066 0.78489
 C3065 C 0.44447 0.18710 0.75967
 C3066 C 0.45360 0.19711 0.75032
 C3067 C 0.46225 0.20986 0.75681
 C3068 C 0.46179 0.21250 0.77275
 H3069 H 0.41442 0.16670 0.80446
 H3070 H 0.44618 0.21062 0.82803
 H3071 H 0.42682 0.19665 0.84346
 H3072 H 0.45817 0.21577 0.80303
 H3073 H 0.42691 0.17101 0.77981
 H3074 H 0.43777 0.17741 0.75441
 H3075 H 0.45380 0.19508 0.73800
 H3076 H 0.46831 0.22254 0.77769
 C3077 C 0.92517 0.68602 0.81160
 C3078 C 0.93580 0.69242 0.80114
 C3079 C 0.93834 0.68419 0.78705
 C3080 C 0.93052 0.66949 0.78386
 C3081 C 0.91997 0.66322 0.79431
 C3082 C 0.91699 0.67152 0.80816
 C3083 C 0.94841 0.69093 0.77625
 C3084 C 0.95592 0.70587 0.77929
 C3085 C 0.95369 0.71392 0.79354
 C3086 C 0.94368 0.70711 0.80440
 C3087 C 0.96126 0.72887 0.79653
 C3088 C 0.97062 0.73600 0.78534
 C3089 C 0.97256 0.72825 0.77109
 C3090 C 0.96536 0.71311 0.76815
 H3091 H 0.92317 0.69245 0.82231
 H3092 H 0.93237 0.66300 0.77314
 H3093 H 0.91385 0.65210 0.79125
 H3094 H 0.95018 0.68472 0.76536
 H3095 H 0.94181 0.71340 0.81523
 H3096 H 0.95971 0.73520 0.80738
 H3097 H 0.97609 0.74775 0.78764
 H3098 H 0.96686 0.70723 0.75707
 C3099 C 0.90627 0.18603 0.30325
 C3100 C 0.91641 0.19568 0.29452
 C3101 C 0.91708 0.21299 0.29673
 C3102 C 0.90776 0.22033 0.30767
 C3103 C 0.89774 0.21068 0.31630
 C3104 C 0.89681 0.19346 0.31417
 C3105 C 0.92697 0.22274 0.28790
 C3106 C 0.93620 0.21543 0.27683
 C3107 C 0.93568 0.19810 0.27467
 C3108 C 0.92581 0.18832 0.28356
 C3109 C 0.94495 0.19090 0.26351
 C3110 C 0.95449 0.20080 0.25447
 C3111 C 0.95496 0.21800 0.25655
 C3112 C 0.94583 0.22524 0.26775
 H3113 H 0.90582 0.17277 0.30156
 H3114 H 0.90813 0.23359 0.30950
 H3115 H 0.89056 0.21684 0.32447
 H3116 H 0.92740 0.23603 0.28956
 H3117 H 0.92534 0.17504 0.28185
 H3118 H 0.94470 0.17765 0.26167
 H3119 H 0.96139 0.19511 0.24574
 H3120 H 0.94615 0.23855 0.26927
 C3121 C 0.30019 0.32094 0.58311
 C3122 C 0.29124 0.31446 0.57124
 C3123 C 0.29744 0.30309 0.56073
 C3124 C 0.31258 0.29879 0.56199
 C3125 C 0.32136 0.30516 0.57391
 C3126 C 0.31522 0.31604 0.58477
 C3127 C 0.28834 0.29585 0.54941
 C3128 C 0.27303 0.29958 0.54864
 C3129 C 0.26687 0.31124 0.55890
 C3130 C 0.27605 0.31873 0.57004
 C3131 C 0.25150 0.31477 0.55818
 C3132 C 0.24222 0.30636 0.54782
 C3133 C 0.24820 0.29449 0.53785
 C3134 C 0.26366 0.29133 0.53816
 H3135 H 0.29523 0.32926 0.59136
 H3136 H 0.31755 0.29022 0.55395
 H3137 H 0.33295 0.30139 0.57467
 H3138 H 0.29307 0.28693 0.54152
 H3139 H 0.27126 0.32747 0.57807
 H3140 H 0.24658 0.32367 0.56594
 H3141 H 0.23029 0.30881 0.54780
 H3142 H 0.26824 0.28193 0.53068
 C3143 C 0.31249 0.81537 0.09865
 C3144 C 0.30575 0.80452 0.08800
 C3145 C 0.30837 0.78731 0.08918
 C3146 C 0.31771 0.78126 0.10080
 C3147 C 0.32450 0.79209 0.11116
 C3148 C 0.32200 0.80921 0.11022
 C3149 C 0.30160 0.77638 0.07877
 C3150 C 0.29226 0.78236 0.06710
 C3151 C 0.28975 0.79955 0.06569
 C3152 C 0.29651 0.81054 0.07616
 C3153 C 0.28034 0.80540 0.05394
 C3154 C 0.27324 0.79430 0.04394
 C3155 C 0.27554 0.77721 0.04544
 C3156 C 0.28516 0.77134 0.05697
 H3157 H 0.31058 0.82856 0.09776
 H3158 H 0.31980 0.76811 0.10188
 H3159 H 0.33161 0.78698 0.12005
 H3160 H 0.30354 0.76319 0.07980
 H3161 H 0.29452 0.82372 0.07515
 H3162 H 0.27827 0.81853 0.05267
 H3163 H 0.26565 0.79898 0.03525
 H3164 H 0.28683 0.75812 0.05822
 C3165 C 0.81287 0.30266 0.09920
 C3166 C 0.80433 0.29428 0.08799
 C3167 C 0.78850 0.29537 0.08827
 C3168 C 0.78148 0.30477 0.09961
 C3169 C 0.78999 0.31297 0.11068
 C3170 C 0.80576 0.31206 0.11067
 C3171 C 0.77987 0.28692 0.07734
 C3172 C 0.78680 0.27718 0.06617
 C3173 C 0.80262 0.27606 0.06574
 C3174 C 0.81131 0.28471 0.07661
 C3175 C 0.80942 0.26604 0.05461
 C3176 C 0.80060 0.25697 0.04426
 C3177 C 0.78489 0.25799 0.04474
 C3178 C 0.77808 0.26823 0.05564
 H3179 H 0.82499 0.30185 0.09894
 H3180 H 0.76936 0.30568 0.09999
 H3181 H 0.78405 0.31987 0.11935
 H3182 H 0.76773 0.28774 0.07766
 H3183 H 0.82344 0.28380 0.07635
 H3184 H 0.82151 0.26497 0.05411
 H3185 H 0.80599 0.24889 0.03607
 H3186 H 0.76594 0.26890 0.05611
 C3187 C 0.81257 0.80607 0.60226
 C3188 C 0.80499 0.79557 0.59197
 C3189 C 0.80875 0.77862 0.59136
 C3190 C 0.82023 0.77257 0.60077
 C3191 C 0.82776 0.78312 0.61090
 C3192 C 0.82392 0.79991 0.61189
 C3193 C 0.80088 0.76795 0.58150
 C3194 C 0.78929 0.77400 0.57220
 C3195 C 0.78573 0.79102 0.57253
 C3196 C 0.79361 0.80169 0.58241
 C3197 C 0.77419 0.79703 0.56313
 C3198 C 0.76606 0.78623 0.55370
 C3199 C 0.76938 0.76931 0.55353
 C3200 C 0.78103 0.76325 0.56274
 H3201 H 0.80961 0.81903 0.60275
 H3202 H 0.82328 0.75964 0.60042
 H3203 H 0.83636 0.77797 0.61823
 H3204 H 0.80366 0.75492 0.58118
 H3205 H 0.79077 0.81470 0.58279
 H3206 H 0.77133 0.81003 0.56321
 H3207 H 0.75700 0.79101 0.54673
 H3208 H 0.78351 0.75014 0.56262
 C3209 C 0.30832 0.70392 0.40368
 C3210 C 0.29851 0.71142 0.41418
 C3211 C 0.28340 0.70597 0.41510
 C3212 C 0.27843 0.69299 0.40574
 C3213 C 0.28824 0.68559 0.39539
 C3214 C 0.30324 0.69102 0.39414
 C3215 C 0.27344 0.71364 0.42524
 C3216 C 0.27836 0.72673 0.43451
 C3217 C 0.29351 0.73208 0.43384
 C3218 C 0.30350 0.72438 0.42367
 C3219 C 0.29834 0.74517 0.44323
 C3220 C 0.28820 0.75303 0.45301
 C3221 C 0.27314 0.74787 0.45356
 C3222 C 0.26828 0.73470 0.44433
 H3223 H 0.31987 0.70815 0.40297
 H3224 H 0.26689 0.68867 0.40631
 H3225 H 0.28389 0.67584 0.38813
 H3226 H 0.26183 0.70952 0.42581
 H3227 H 0.31509 0.72855 0.42305
 H3228 H 0.30990 0.74943 0.44289
 H3229 H 0.29202 0.76328 0.46003
 H3230 H 0.25661 0.73080 0.44475
 C3231 C 0.31144 0.19831 0.90545
 C3232 C 0.30314 0.20940 0.91440
 C3233 C 0.30612 0.22659 0.91322
 C3234 C 0.31735 0.23237 0.90322
 C3235 C 0.32560 0.22128 0.89445
 C3236 C 0.32275 0.20416 0.89544
 C3237 C 0.29786 0.23774 0.92205
 C3238 C 0.28670 0.23195 0.93216
 C3239 C 0.28374 0.21477 0.93346
 C3240 C 0.29195 0.20360 0.92454
 C3241 C 0.27261 0.20909 0.94371
 C3242 C 0.26453 0.22032 0.95259
 C3243 C 0.26748 0.23735 0.95131
 C3244 C 0.27850 0.24311 0.94104
 H3245 H 0.30920 0.18515 0.90642
 H3246 H 0.31975 0.24550 0.90216
 H3247 H 0.33408 0.22620 0.88672
 H3248 H 0.30014 0.25091 0.92109
 H3249 H 0.28967 0.19043 0.92550
 H3250 H 0.27017 0.19598 0.94487
 H3251 H 0.25598 0.21578 0.96046
 H3252 H 0.28072 0.25630 0.94009
 C3253 C 0.81887 0.69126 0.90177
 C3254 C 0.81179 0.70239 0.91176
 C3255 C 0.81511 0.71950 0.91064
 C3256 C 0.82558 0.72516 0.89973
 C3257 C 0.83264 0.71402 0.88993
 C3258 C 0.82933 0.69700 0.89077
 C3259 C 0.80785 0.73071 0.92032
 C3260 C 0.79728 0.72506 0.93115
 C3261 C 0.79411 0.70793 0.93249
 C3262 C 0.80139 0.69670 0.92280
 C3263 C 0.78350 0.70235 0.94334
 C3264 C 0.77587 0.71367 0.95253
 C3265 C 0.77883 0.73070 0.95113
 C3266 C 0.78961 0.73632 0.94048
 H3267 H 0.81632 0.67816 0.90266
 H3268 H 0.82826 0.73823 0.89871
 H3269 H 0.84052 0.71885 0.88151
 H3270 H 0.81032 0.74385 0.91933
 H3271 H 0.79886 0.68358 0.92373
 H3272 H 0.78090 0.68928 0.94451
 H3273 H 0.76739 0.70918 0.96052
 H3274 H 0.79179 0.74949 0.93930
 C3275 C 0.81930 0.19863 0.41245
 C3276 C 0.80998 0.20691 0.42286
 C3277 C 0.79559 0.20035 0.42632
 C3278 C 0.79092 0.18547 0.41958
 C3279 C 0.80025 0.17732 0.40923
 C3280 C 0.81445 0.18390 0.40539
 C3281 C 0.78602 0.20888 0.43628
 C3282 C 0.79063 0.22393 0.44278
 C3283 C 0.80514 0.23035 0.43956
 C3284 C 0.81473 0.22177 0.42966
 C3285 C 0.80972 0.24540 0.44614
 C3286 C 0.79992 0.25414 0.45559
 C3287 C 0.78546 0.24795 0.45858
 C3288 C 0.78087 0.23281 0.45227
 H3289 H 0.83029 0.20375 0.40979
 H3290 H 0.77994 0.18025 0.42212
 H3291 H 0.79613 0.16608 0.40394
 H3292 H 0.77492 0.20393 0.43880
 H3293 H 0.82579 0.22678 0.42707
 H3294 H 0.82079 0.25048 0.44384
 H3295 H 0.80351 0.26585 0.46043
 H3296 H 0.76966 0.22811 0.45464
 C3297 C 0.69411 0.31239 0.41039
 C3298 C 0.70311 0.30415 0.42120
 C3299 C 0.70090 0.28702 0.42386
 C3300 C 0.68952 0.27855 0.41597
 C3301 C 0.68067 0.28681 0.40521
 C3302 C 0.68298 0.30375 0.40209
 C3303 C 0.71024 0.27858 0.43415
 C3304 C 0.72186 0.28700 0.44175
 C3305 C 0.72391 0.30421 0.43937
 C3306 C 0.71448 0.31268 0.42914
 C3307 C 0.73556 0.31256 0.44704
 C3308 C 0.74529 0.30388 0.45671
 C3309 C 0.74344 0.28678 0.45885
 C3310 C 0.73166 0.27841 0.45147
 H3311 H 0.69610 0.32542 0.40823
 H3312 H 0.68760 0.26545 0.41796
 H3313 H 0.67209 0.27979 0.39926
 H3314 H 0.70863 0.26540 0.43603
 H3315 H 0.71617 0.32583 0.42717
 H3316 H 0.73729 0.32574 0.44539
 H3317 H 0.75441 0.31041 0.46232
 H3318 H 0.73032 0.26517 0.45312
 C3319 C 0.69702 0.80549 0.89679
 C3320 C 0.70578 0.79603 0.90697
 C3321 C 0.70474 0.77856 0.90660
 C3322 C 0.69510 0.77084 0.89611
 C3323 C 0.68640 0.78029 0.88615
 C3324 C 0.68716 0.79768 0.88641
 C3325 C 0.71331 0.76902 0.91674
 C3326 C 0.72294 0.77668 0.92731
 C3327 C 0.72407 0.79414 0.92774
 C3328 C 0.71547 0.80372 0.91755
 C3329 C 0.73383 0.80167 0.93833
 C3330 C 0.74239 0.79199 0.94835
 C3331 C 0.74120 0.77466 0.94802
 C3332 C 0.73150 0.76709 0.93744
 H3333 H 0.69768 0.81888 0.89717
 H3334 H 0.69423 0.75747 0.89564
 H3335 H 0.67914 0.77388 0.87813
 H3336 H 0.71248 0.75562 0.91642
 H3337 H 0.71631 0.81711 0.91788
 H3338 H 0.73490 0.81502 0.93880
 H3339 H 0.75002 0.79798 0.95632
 H3340 H 0.73066 0.75370 0.93712
 C3341 C 0.18499 0.31795 0.90507
 C3342 C 0.19333 0.30768 0.91483
 C3343 C 0.18958 0.29070 0.91610
 C3344 C 0.17746 0.28433 0.90766
 C3345 C 0.16924 0.29463 0.89790
 C3346 C 0.17296 0.31152 0.89639
 C3347 C 0.19807 0.28035 0.92567
 C3348 C 0.21031 0.28678 0.93393
 C3349 C 0.21399 0.30381 0.93272
 C3350 C 0.20545 0.31415 0.92323
 C3351 C 0.22628 0.31020 0.94091
 C3352 C 0.23493 0.29980 0.95013
 C3353 C 0.23133 0.28291 0.95143
 C3354 C 0.21904 0.27643 0.94327
 H3355 H 0.18795 0.33094 0.90426
 H3356 H 0.17441 0.27135 0.90849
 H3357 H 0.16012 0.28924 0.89138
 H3358 H 0.19523 0.26730 0.92660
 H3359 H 0.20833 0.32719 0.92225
 H3360 H 0.22929 0.32319 0.94006
 H3361 H 0.24453 0.30488 0.95618
 H3362 H 0.21637 0.26335 0.94418
 C3363 C 0.18484 0.81354 0.40306
 C3364 C 0.19339 0.80441 0.41365
 C3365 C 0.19315 0.78693 0.41306
 C3366 C 0.18425 0.77888 0.40208
 C3367 C 0.17579 0.78802 0.39163
 C3368 C 0.17604 0.80541 0.39191
 C3369 C 0.20193 0.77774 0.42332
 C3370 C 0.21103 0.78580 0.43414
 C3371 C 0.21115 0.80327 0.43493
 C3372 C 0.20228 0.81248 0.42471
 C3373 C 0.22036 0.81123 0.44577
 C3374 C 0.22960 0.80198 0.45548
 C3375 C 0.22965 0.78465 0.45459
 C3376 C 0.22026 0.77663 0.44398
 H3377 H 0.18505 0.82692 0.40353
 H3378 H 0.18395 0.76549 0.40148
 H3379 H 0.16927 0.78137 0.38314
 H3380 H 0.20183 0.76434 0.42274
 H3381 H 0.20246 0.82588 0.42521
 H3382 H 0.22061 0.82461 0.44654
 H3383 H 0.23695 0.80831 0.46348
 H3384 H 0.22041 0.76324 0.44322
 C3385 C 0.68833 0.68835 0.60411
 C3386 C 0.69646 0.69886 0.59411
 C3387 C 0.69383 0.71610 0.59432
 C3388 C 0.68307 0.72250 0.60436
 C3389 C 0.67494 0.71197 0.61411
 C3390 C 0.67748 0.69483 0.61413
 C3391 C 0.70199 0.72668 0.58450
 C3392 C 0.71268 0.72027 0.57436
 C3393 C 0.71520 0.70302 0.57397
 C3394 C 0.70710 0.69243 0.58388
 C3395 C 0.72587 0.69668 0.56372
 C3396 C 0.73405 0.70735 0.55407
 C3397 C 0.73165 0.72447 0.55449
 C3398 C 0.72097 0.73087 0.56466
 H3399 H 0.69030 0.67515 0.60392
 H3400 H 0.68094 0.73567 0.60468
 H3401 H 0.66678 0.71733 0.62182
 H3402 H 0.70002 0.73990 0.58476
 H3403 H 0.70909 0.67921 0.58364
 H3404 H 0.72797 0.68351 0.56325
 H3405 H 0.74240 0.70229 0.54638
 H3406 H 0.71919 0.74412 0.56503
 C3407 C 0.69749 0.18138 0.08926
 C3408 C 0.70623 0.19116 0.07922
 C3409 C 0.70303 0.20815 0.07744
 C3410 C 0.69095 0.21498 0.08549
 C3411 C 0.68234 0.20518 0.09550
 C3412 C 0.68562 0.18835 0.09768
 C3413 C 0.71206 0.21810 0.06785
 C3414 C 0.72431 0.21129 0.06005
 C3415 C 0.72738 0.19422 0.06160
 C3416 C 0.71829 0.18426 0.07114
 C3417 C 0.73964 0.18747 0.05374
 C3418 C 0.74891 0.19758 0.04462
 C3419 C 0.74601 0.21453 0.04321
 C3420 C 0.73369 0.22133 0.05088
 H3421 H 0.70006 0.16839 0.09060
 H3422 H 0.68831 0.22797 0.08423
 H3423 H 0.67335 0.21096 0.10181
 H3424 H 0.70967 0.23118 0.06661
 H3425 H 0.72074 0.17121 0.07246
 H3426 H 0.74215 0.17442 0.05478
 H3427 H 0.75846 0.19225 0.03879
 H3428 H 0.73152 0.23447 0.04979
 C3429 C 0.19524 0.69815 0.09695
 C3430 C 0.20296 0.70814 0.08619
 C3431 C 0.20038 0.72537 0.08578
 C3432 C 0.19002 0.73228 0.09595
 C3433 C 0.18244 0.72231 0.10662
 C3434 C 0.18502 0.70516 0.10738
 C3435 C 0.20831 0.73549 0.07538
 C3436 C 0.21892 0.72864 0.06542
 C3437 C 0.22143 0.71139 0.06563
 C3438 C 0.21338 0.70123 0.07598
 C3439 C 0.23215 0.70465 0.05568
 C3440 C 0.24050 0.71495 0.04584
 C3441 C 0.23815 0.73209 0.04569
 C3442 C 0.22728 0.73886 0.05544
 H3443 H 0.19736 0.68499 0.09724
 H3444 H 0.18788 0.74545 0.09576
 H3445 H 0.17469 0.72822 0.11436
 H3446 H 0.20638 0.74872 0.07519
 H3447 H 0.21539 0.68802 0.07623
 H3448 H 0.23425 0.69147 0.05569
 H3449 H 0.24900 0.70960 0.03852
 H3450 H 0.22555 0.75212 0.05540
 C3451 C 0.17809 0.20365 0.58931
 C3452 C 0.18730 0.21302 0.57931
 C3453 C 0.20309 0.21222 0.58081
 C3454 C 0.20939 0.20206 0.59213
 C3455 C 0.20018 0.19266 0.60186
 C3456 C 0.18448 0.19333 0.60057
 C3457 C 0.21237 0.22154 0.57096
 C3458 C 0.20611 0.23161 0.55953
 C3459 C 0.19035 0.23235 0.55786
 C3460 C 0.18103 0.22308 0.56780
 C3461 C 0.18421 0.24245 0.54631
 C3462 C 0.19360 0.25182 0.53664
 C3463 C 0.20924 0.25117 0.53835
 C3464 C 0.21542 0.24103 0.54979
 H3465 H 0.16600 0.20416 0.58814
 H3466 H 0.22145 0.20134 0.59344
 H3467 H 0.20541 0.18500 0.61054
 H3468 H 0.22446 0.22095 0.57220
 H3469 H 0.16893 0.22368 0.56657
 H3470 H 0.17217 0.24319 0.54484
 H3471 H 0.18871 0.25973 0.52792
 H3472 H 0.22751 0.24060 0.55113
   
