data_POSCAR
  _audit_creation_date              2014-09-24
  _audit_creation_method            'ToBaCCo'
  _symmetry_space_group_name_H-M    'P1'
  _symmetry_Int_Tables_number       1
  _symmetry_cell_setting            triclinic
  loop_
  _symmetry_equiv_pos_as_xyz
 x,y,z
_cell_length_a 36.3607
_cell_length_b 36.3103
_cell_length_c 36.3080
_cell_angle_alpha 90.005400
_cell_angle_beta 90.165200
_cell_angle_gamma 90.259600
loop_
  _atom_site_label
  _atom_site_type_symbol
  _atom_site_fract_x
  _atom_site_fract_y
  _atom_site_fract_z
C1 C 0.12631 -0.00150 0.25072
 C2 C 0.37440 0.00075 0.74972
 C3 C 0.87621 0.50134 0.25033
 C4 C 0.62388 0.49985 0.74989
 C5 C 0.25074 0.12406 0.99915
 C6 C 0.74946 0.37552 0.99971
 C7 C 0.24978 0.87435 0.50002
 C8 C 0.75074 0.62578 0.50037
 C9 C 0.00079 0.25018 0.12542
 C10 C 0.00056 0.74977 0.37494
 C11 C 0.49868 0.24917 0.87267
 C12 C 0.49941 0.75045 0.62595
 C13 C 0.87411 1.00088 0.74994
 C14 C 0.37655 0.49967 0.24916
 C15 C 0.62648 1.00013 0.25020
 C16 C 0.12371 0.49951 0.75096
 C17 C 0.74970 0.87585 0.00022
 C18 C 0.24968 0.37584 0.49926
 C19 C 0.25062 0.62377 -0.00014
 C20 C 0.75091 0.12512 0.49957
 C21 C 1.00026 0.74995 0.87542
 C22 C 0.50143 0.25059 0.37496
 C23 C 0.99808 0.24969 0.62408
 C24 C 0.50008 0.74918 0.12550
 O25 O -0.01799 0.98015 0.89505
 O26 O 0.04426 0.99248 0.89586
 O27 O -0.02032 0.89445 0.98457
 O28 O -0.01481 0.89188 1.04284
 O29 O -0.10604 0.98494 0.97817
 O30 O -0.10492 1.04388 0.99656
 O31 O 0.06870 0.99265 1.08244
 O32 O 0.07461 0.93430 1.05310
 O33 O 0.08239 1.06768 0.99432
 O34 O 0.05617 1.08351 0.94174
 O35 O -0.00484 1.08175 1.06961
 O36 O -0.06313 1.05128 1.08126
 O37 O 0.01838 1.02081 1.10583
 O38 O -0.04673 1.00610 1.10434
 O39 O 0.02085 1.10517 1.01779
 O40 O 0.00328 1.09725 0.94827
 O41 O 0.10517 1.01648 1.02174
 O42 O 0.10550 0.95617 1.00709
 O43 O -0.06788 1.00947 0.91786
 O44 O -0.07280 1.06834 0.94995
 O45 O -0.08466 0.93480 1.00889
 O46 O -0.05096 0.92619 1.06775
 O47 O 0.00539 0.91754 0.93265
 O48 O 0.06327 0.94779 0.92307
 Zr49 Zr 0.01495 0.97355 0.94241
 O50 O 0.05022 1.00660 0.97399
 Zr51 Zr -0.02766 0.94226 1.01676
 O52 O 0.00685 0.97318 1.05163
 Zr53 Zr -0.05822 1.01725 0.97435
 O54 O -0.02603 1.05144 1.00829
 Zr55 Zr 0.05775 0.98324 1.02643
 O56 O 0.02517 0.94787 0.99336
 Zr57 Zr 0.02622 1.05790 0.98459
 O58 O -0.00721 1.02647 0.94865
 Zr59 Zr -0.01577 1.02588 1.05912
 O60 O -0.05201 0.99351 1.02688
 O61 O -0.03709 0.96473 0.96479
 O62 O 0.03643 1.03575 1.03695
 C63 C -0.04915 0.99611 0.89105
 C64 C -0.00616 0.89058 0.95245
 C65 C -0.11077 0.95408 0.99469
 C66 C 0.05011 1.00596 1.10943
 C67 C 0.10917 1.04842 1.00716
 C68 C 0.00724 1.10879 1.05012
 H69 H 0.07355 1.00922 0.96031
 H70 H -0.03925 1.07502 1.01082
 H71 H -0.05308 0.94910 0.94903
 H72 H 0.00972 0.95947 1.07499
 H73 H 0.06534 0.91341 1.03813
 H74 H 0.00929 0.89542 1.05504
 H75 H -0.01607 1.11055 0.96193
 H76 H -0.09571 1.06509 0.93534
 H77 H 0.10797 0.96172 0.98056
 H78 H 0.07057 0.92947 0.94189
 H79 H -0.07130 1.07043 1.06371
 H80 H -0.10650 1.03654 1.02276
 H81 H 0.03805 1.01884 0.89294
 H82 H 0.06633 1.06354 0.92633
 H83 H -0.07077 0.94389 1.07346
 H84 H -0.03602 0.98231 1.11208
 O85 O 0.47932 0.39536 0.48258
 O86 O 0.49074 0.39606 0.54467
 O87 O 0.39452 0.48517 0.47890
 O88 O 0.39257 0.54363 0.48480
 O89 O 0.48539 0.47849 0.39388
 O90 O 0.54447 0.49642 0.39517
 O91 O 0.49215 0.58274 0.56817
 O92 O 0.43419 0.55345 0.57433
 O93 O 0.56612 0.49207 0.58366
 O94 O 0.58386 0.44241 0.55706
 O95 O 0.58227 0.56957 0.49557
 O96 O 0.55164 0.58039 0.43606
 O97 O 0.52133 0.60596 0.51815
 O98 O 0.50820 0.60539 0.45373
 O99 O 0.60502 0.51791 0.52207
 O100 O 0.59543 0.44760 0.50279
 O101 O 0.51624 0.52306 0.60475
 O102 O 0.45550 0.50730 0.60518
 O103 O 0.50923 0.41808 0.43280
 O104 O 0.56837 0.45014 0.42752
 O105 O 0.43528 0.50923 0.41486
 O106 O 0.42711 0.56806 0.44786
 O107 O 0.41702 0.43328 0.50509
 O108 O 0.44662 0.42414 0.56357
 Zr109 Zr 0.47288 0.44285 0.51508
 O110 O 0.50593 0.47420 0.55042
 Zr111 Zr 0.44258 0.51721 0.47185
 O112 O 0.47355 0.55196 0.50638
 Zr113 Zr 0.51742 0.47458 0.44199
 O114 O 0.55171 0.50832 0.47438
 Zr115 Zr 0.48294 0.52674 0.55748
 O116 O 0.44754 0.49385 0.52485
 Zr117 Zr 0.55754 0.48454 0.52681
 O118 O 0.52598 0.44880 0.49325
 Zr119 Zr 0.52649 0.55923 0.48420
 O120 O 0.49407 0.52717 0.44784
 O121 O 0.46472 0.46518 0.46280
 O122 O 0.53573 0.53702 0.53659
 C123 C 0.49551 0.39133 0.45154
 C124 C 0.39033 0.45308 0.49320
 C125 C 0.45462 0.49496 0.38890
 C126 C 0.50595 0.60963 0.54966
 C127 C 0.54711 0.50683 0.60961
 C128 C 0.60904 0.55016 0.50815
 H129 H 0.50816 0.46039 0.57378
 H130 H 0.57543 0.51073 0.46134
 H131 H 0.44914 0.44943 0.44675
 H132 H 0.46001 0.57536 0.50901
 H133 H 0.41326 0.53866 0.56484
 H134 H 0.39646 0.55637 0.50857
 H135 H 0.61087 0.46196 0.48552
 H136 H 0.56500 0.43511 0.40491
 H137 H 0.46193 0.48109 0.60854
 H138 H 0.42851 0.44317 0.57057
 H139 H 0.57186 0.56362 0.42914
 H140 H 0.53755 0.52269 0.39347
 H141 H 0.51726 0.39333 0.53930
 H142 H 0.56428 0.42520 0.56509
 H143 H 0.44534 0.57383 0.42847
 H144 H 0.48354 0.61207 0.46298
 O145 O 0.50751 -0.08204 0.56820
 O146 O 0.56375 -0.05124 0.57968
 O147 O 0.43346 0.01090 0.58245
 O148 O 0.41794 0.06143 0.55351
 O149 O 0.41787 -0.06848 0.49222
 O150 O 0.44517 -0.07592 0.43612
 O151 O 0.52356 0.10558 0.48334
 O152 O 0.50743 0.10528 0.54395
 O153 O 0.60570 0.01633 0.47866
 O154 O 0.60832 -0.04217 0.48858
 O155 O 0.51879 0.02188 0.39508
 O156 O 0.45697 0.01063 0.39343
 O157 O 0.49578 0.08273 0.43219
 O158 O 0.43471 0.04949 0.42330
 O159 O 0.56853 -0.00778 0.41804
 O160 O 0.57221 -0.07030 0.45633
 O161 O 0.58439 0.06744 0.50763
 O162 O 0.55488 0.07794 0.56476
 O163 O 0.47924 -0.10506 0.51739
 O164 O 0.49851 -0.10175 0.45381
 O165 O 0.39548 -0.01733 0.52007
 O166 O 0.39919 0.04726 0.50149
 O167 O 0.48227 -0.02030 0.60541
 O168 O 0.54506 -0.00505 0.60479
 Zr169 Zr 0.51591 -0.02573 0.55867
 O170 O 0.55152 0.00641 0.52674
 Zr171 Zr 0.44251 0.01673 0.52569
 O172 O 0.47534 0.05178 0.49334
 Zr173 Zr 0.47394 -0.05801 0.48379
 O174 O 0.50707 -0.02603 0.44873
 Zr175 Zr 0.52793 0.05818 0.51669
 O176 O 0.49336 0.02713 0.55189
 Zr177 Zr 0.55814 -0.01669 0.47421
 O178 O 0.52629 -0.05165 0.50810
 Zr179 Zr 0.48495 0.02680 0.44201
 O180 O 0.44916 -0.00687 0.47331
 O181 O 0.46418 -0.03529 0.53567
 O182 O 0.53739 0.03617 0.46414
 C183 C 0.49447 -0.10890 0.54905
 C184 C 0.45156 -0.00356 0.60927
 C185 C 0.39124 -0.04911 0.50503
 C186 C 0.50895 0.10953 0.45134
 C187 C 0.61043 0.04796 0.49376
 C188 C 0.55019 0.00634 0.39124
 H189 H 0.57528 0.00794 0.53995
 H190 H 0.50918 -0.03933 0.42508
 H191 H 0.44826 -0.05078 0.55153
 H192 H 0.46251 0.07564 0.49125
 H193 H 0.49127 0.09634 0.56400
 H194 H 0.43365 0.08325 0.54898
 H195 H 0.56307 -0.07323 0.43079
 H196 H 0.48332 -0.12442 0.45623
 H197 H 0.57194 0.05873 0.57359
 H198 H 0.53611 0.02031 0.60904
 H199 H 0.46180 -0.01590 0.38975
 H200 H 0.43035 -0.05489 0.42725
 H201 H 0.57304 -0.06758 0.56000
 H202 H 0.60932 -0.04270 0.51581
 H203 H 0.39247 0.03477 0.47817
 H204 H 0.43001 0.07217 0.43763
 O205 O -0.08354 0.43379 0.99395
 O206 O -0.05372 0.42264 0.93717
 O207 O 0.01111 0.41719 1.06657
 O208 O 0.06112 0.44579 1.08351
 O209 O -0.06518 0.51121 1.08497
 O210 O -0.07760 0.56548 1.05334
 O211 O 0.10499 0.51591 0.97670
 O212 O 0.10336 0.45441 0.99472
 O213 O 0.01607 0.52214 0.89581
 O214 O -0.04547 0.51054 0.89522
 O215 O 0.02353 0.60506 0.98335
 O216 O 0.01452 0.60780 1.04319
 O217 O 0.08452 0.56630 1.00745
 O218 O 0.04927 0.57468 1.06851
 O219 O -0.00611 0.58251 0.93318
 O220 O -0.06731 0.54940 0.92570
 O221 O 0.06632 0.49160 0.91683
 O222 O 0.07682 0.43554 0.94528
 O223 O -0.10529 0.48432 1.02311
 O224 O -0.10259 0.54773 1.00770
 O225 O -0.01634 0.47845 1.10579
 O226 O 0.04838 0.49738 1.10198
 O227 O -0.02229 0.39524 1.01852
 O228 O -0.00880 0.39582 0.95588
 Zr229 Zr -0.02735 0.44241 0.98532
 O230 O 0.00533 0.47378 0.94973
 Zr231 Zr 0.01682 0.47405 1.05862
 O232 O 0.05219 0.50605 1.02596
 Zr233 Zr -0.05743 0.51722 1.02798
 O234 O -0.02514 0.55177 0.99475
 Zr235 Zr 0.05738 0.48288 0.97326
 O236 O 0.02587 0.44800 1.00759
 Zr237 Zr -0.01669 0.52670 0.94334
 O238 O -0.05231 0.49355 0.97528
 Zr239 Zr 0.02805 0.55776 1.01682
 O240 O -0.00596 0.52697 1.05274
 O241 O -0.03582 0.46492 1.03748
 O242 O 0.03649 0.53586 0.96410
 C243 C -0.10991 0.45299 1.00732
 C244 C -0.00444 0.39079 1.04866
 C245 C -0.04634 0.49609 1.11085
 C246 C 0.11017 0.54707 0.99262
 C247 C 0.04709 0.50618 0.89092
 C248 C 0.00799 0.60914 0.95184
 H249 H 0.00653 0.46054 0.92600
 H250 H -0.03795 0.57565 0.99284
 H251 H -0.05138 0.44925 1.05353
 H252 H 0.07615 0.50756 1.03885
 H253 H 0.09372 0.43344 1.00929
 H254 H 0.08263 0.44910 1.06725
 H255 H -0.07171 0.57207 0.94013
 H256 H -0.10805 0.53822 0.98272
 H257 H 0.05645 0.42546 0.93023
 H258 H 0.01673 0.39115 0.96415
 H259 H -0.01254 0.61018 1.04185
 H260 H -0.05703 0.57595 1.06794
 H261 H -0.07026 0.44245 0.92854
 H262 H -0.04116 0.48389 0.89176
 H263 H 0.03557 0.51994 1.11016
 H264 H 0.07261 0.56139 1.07275
 O265 O 0.02100 0.39475 0.51637
 O266 O 0.00771 0.39657 0.45379
 O267 O 0.10526 0.48414 0.52149
 O268 O 0.10756 0.54276 0.51608
 O269 O 0.01455 0.47552 0.60612
 O270 O -0.04442 0.49378 0.60519
 O271 O 0.00967 0.58413 0.43419
 O272 O 0.06669 0.55386 0.42718
 O273 O -0.06621 0.49279 0.41654
 O274 O -0.08369 0.44230 0.44215
 O275 O -0.08198 0.56829 0.50649
 O276 O -0.05124 0.57847 0.56577
 O277 O -0.02183 0.60521 0.48380
 O278 O -0.00733 0.60360 0.54862
 O279 O -0.10493 0.51738 0.47839
 O280 O -0.09605 0.44693 0.49630
 O281 O -0.01637 0.52475 0.39610
 O282 O 0.04395 0.50935 0.39483
 O283 O -0.01145 0.41544 0.56549
 O284 O -0.06907 0.44823 0.57231
 O285 O 0.06450 0.50734 0.58566
 O286 O 0.07335 0.56637 0.55390
 O287 O 0.08263 0.43310 0.49342
 O288 O 0.05274 0.42425 0.43551
 Zr289 Zr 0.02671 0.44258 0.48418
 O290 O -0.00599 0.47470 0.44943
 Zr291 Zr 0.05740 0.51605 0.52882
 O292 O 0.02668 0.55154 0.49508
 Zr293 Zr -0.01777 0.47251 0.55796
 O294 O -0.05175 0.50687 0.52616
 Zr295 Zr 0.01727 0.52751 0.44336
 O296 O 0.05235 0.49384 0.47533
 Zr297 Zr -0.05762 0.48424 0.47320
 O298 O -0.02636 0.44791 0.50609
 Zr299 Zr -0.02623 0.55806 0.51733
 O300 O 0.00594 0.52529 0.55301
 O301 O 0.03492 0.46379 0.53694
 O302 O -0.03552 0.53701 0.46445
 C303 C 0.00351 0.38961 0.54656
 C304 C 0.10937 0.45253 0.50618
 C305 C 0.04520 0.49247 0.61140
 C306 C -0.00542 0.61005 0.45295
 C307 C -0.04722 0.50822 0.39090
 C308 C -0.10879 0.54926 0.49312
 H309 H -0.00826 0.46138 0.42578
 H310 H -0.07549 0.50899 0.53917
 H311 H 0.05039 0.44776 0.55268
 H312 H 0.04034 0.57505 0.49307
 H313 H 0.08727 0.53842 0.43608
 H314 H 0.10354 0.55619 0.49273
 H315 H -0.11110 0.46086 0.51414
 H316 H -0.06593 0.43290 0.59475
 H317 H 0.03812 0.48295 0.39150
 H318 H 0.07044 0.44372 0.42823
 H319 H -0.07112 0.56118 0.57280
 H320 H -0.03690 0.51991 0.60748
 H321 H -0.01834 0.39280 0.46075
 H322 H -0.06401 0.42553 0.43380
 H323 H 0.05468 0.57217 0.57280
 H324 H 0.01681 0.61124 0.53861
 O325 O 0.52192 0.89439 0.01754
 O326 O 0.50791 0.89475 -0.04474
 O327 O 0.60581 0.98458 0.02035
 O328 O 0.60778 1.04302 0.01183
 O329 O 0.51664 0.97821 0.10593
 O330 O 0.45771 0.99493 0.10531
 O331 O 0.50696 1.08146 -0.06911
 O332 O 0.56521 1.05259 -0.07576
 O333 O 0.43210 0.99267 -0.08222
 O334 O 0.41754 0.93922 -0.05572
 O335 O 0.41844 1.06771 0.00475
 O336 O 0.44904 1.07959 0.06342
 O337 O 0.47892 1.10459 -0.01849
 O338 O 0.49377 1.10347 0.04648
 O339 O 0.39512 1.01559 -0.02072
 O340 O 0.40335 0.94647 -0.00291
 O341 O 0.48263 1.02124 -0.10526
 O342 O 0.54326 1.00641 -0.10654
 O343 O 0.49242 0.91694 0.06759
 O344 O 0.43324 0.94833 0.07291
 O345 O 0.56689 1.00747 0.08311
 O346 O 0.57410 1.06702 0.05105
 O347 O 0.58409 0.93354 -0.00881
 O348 O 0.55196 0.92182 -0.06478
 Zr349 Zr 0.52732 0.94161 -0.01596
 O350 O 0.49368 0.97285 -0.05081
 Zr351 Zr 0.55812 1.01640 0.02661
 O352 O 0.52675 1.05095 -0.00745
 Zr353 Zr 0.48405 0.97329 0.05810
 O354 O 0.44928 1.00671 0.02618
 Zr355 Zr 0.51658 1.02556 -0.05839
 O356 O 0.55241 0.99288 -0.02627
 Zr357 Zr 0.44258 0.98285 -0.02615
 O358 O 0.47465 0.94743 0.00697
 Zr359 Zr 0.47428 1.05784 0.01568
 O360 O 0.50721 1.02609 0.05164
 O361 O 0.53627 0.96416 0.03613
 O362 O 0.46426 1.03542 -0.03648
 C363 C 0.50596 0.89025 0.04879
 C364 C 0.61033 0.95329 0.00469
 C365 C 0.54806 0.99402 0.10993
 C366 C 0.49352 1.10830 -0.05040
 C367 C 0.45080 1.00635 -0.10903
 C368 C 0.39144 1.04805 -0.00735
 H369 H 0.49087 0.95926 -0.07424
 H370 H 0.42576 1.00905 0.03953
 H371 H 0.55219 0.94855 0.05183
 H372 H 0.54025 1.07448 -0.01030
 H373 H 0.58621 1.03781 -0.06672
 H374 H 0.60267 1.05732 -0.01077
 H375 H 0.39035 0.96005 0.01673
 H376 H 0.43672 0.93356 0.09565
 H377 H 0.53661 0.98020 -0.10996
 H378 H 0.56894 0.94133 -0.07350
 H379 H 0.42962 1.06214 0.07127
 H380 H 0.46394 1.02147 0.10633
 H381 H 0.48188 0.89135 -0.03751
 H382 H 0.43763 0.92455 -0.06659
 H383 H 0.55627 1.07235 0.07089
 H384 H 0.51781 1.11090 0.03610
 O385 O 0.47734 0.60433 0.01683
 O386 O 0.49028 0.60404 -0.04543
 O387 O 0.39428 0.51419 0.02151
 O388 O 0.39205 0.45578 0.01306
 O389 O 0.48502 0.52204 0.10485
 O390 O 0.54407 0.50429 0.10374
 O391 O 0.49144 0.41700 -0.06934
 O392 O 0.43362 0.44555 -0.07598
 O393 O 0.56550 0.50829 -0.08447
 O394 O 0.58262 0.55854 -0.05791
 O395 O 0.58145 0.43101 0.00375
 O396 O 0.55175 0.41959 0.06248
 O397 O 0.52074 0.39414 -0.01917
 O398 O 0.50692 0.39542 0.04596
 O399 O 0.60422 0.48281 -0.02272
 O400 O 0.59507 0.55300 -0.00378
 O401 O 0.51565 0.47676 -0.10575
 O402 O 0.45423 0.49235 -0.10622
 O403 O 0.50865 0.58218 0.06607
 O404 O 0.56787 0.55086 0.07106
 O405 O 0.43529 0.49000 0.08399
 O406 O 0.42654 0.43134 0.05103
 O407 O 0.41527 0.56472 -0.00892
 O408 O 0.44652 0.57608 -0.06532
 Zr409 Zr 0.47191 0.55694 -0.01648
 O410 O 0.50508 0.52577 -0.05158
 Zr411 Zr 0.44212 0.48221 0.02695
 O412 O 0.47289 0.44772 -0.00758
 Zr413 Zr 0.51685 0.52581 0.05682
 O414 O 0.55102 0.49222 0.02469
 Zr415 Zr 0.48217 0.47296 -0.05871
 O416 O 0.44680 0.50551 -0.02614
 Zr417 Zr 0.55677 0.51595 -0.02774
 O418 O 0.52515 0.55152 0.00552
 Zr419 Zr 0.52581 0.44100 0.01483
 O420 O 0.49365 0.47290 0.05113
 O421 O 0.46407 0.53457 0.03580
 O422 O 0.53497 0.46326 -0.03755
 C423 C 0.49411 0.60867 0.04771
 C424 C 0.38935 0.54517 0.00526
 C425 C 0.45447 0.50499 0.10987
 C426 C 0.50537 0.39025 -0.05078
 C427 C 0.54655 0.49324 -0.11047
 C428 C 0.60821 0.45058 -0.00875
 H429 H 0.50735 0.53951 -0.07497
 H430 H 0.57477 0.49002 0.03780
 H431 H 0.44840 0.55014 0.05171
 H432 H 0.45938 0.42417 -0.01023
 H433 H 0.41260 0.45978 -0.06624
 H434 H 0.39643 0.44201 -0.00999
 H435 H 0.61037 0.53877 0.01369
 H436 H 0.56472 0.56571 0.09379
 H437 H 0.46224 0.51798 -0.11086
 H438 H 0.42958 0.55637 -0.07374
 H439 H 0.57092 0.43736 0.07034
 H440 H 0.53699 0.47801 0.10559
 H441 H 0.51655 0.60735 -0.03894
 H442 H 0.56287 0.57545 -0.06589
 H443 H 0.44494 0.42558 0.07031
 H444 H 0.48297 0.38753 0.03555
 O445 O -0.10549 0.01596 0.52118
 O446 O -0.10453 -0.04646 0.50790
 O447 O -0.01657 0.02081 0.60538
 O448 O 0.04184 0.01454 0.60792
 O449 O -0.02417 0.10507 0.51460
 O450 O -0.00551 0.10427 0.45558
 O451 O 0.08212 -0.06813 0.50805
 O452 O 0.05319 -0.07481 0.56597
 O453 O -0.00822 -0.08425 0.43333
 O454 O -0.05873 -0.05808 0.41617
 O455 O 0.06841 0.00473 0.41826
 O456 O 0.07918 0.06372 0.44824
 O457 O 0.10489 -0.01769 0.47909
 O458 O 0.10293 0.04752 0.49339
 O459 O 0.01721 -0.02262 0.39504
 O460 O -0.05285 -0.00407 0.40332
 O461 O 0.02271 -0.10522 0.48357
 O462 O 0.00686 -0.10584 0.54475
 O463 O -0.08426 0.06502 0.48865
 O464 O -0.05123 0.07154 0.43073
 O465 O 0.00744 0.08444 0.56461
 O466 O 0.06634 0.05199 0.57336
 O467 O -0.06763 -0.00727 0.58280
 O468 O -0.07669 -0.06538 0.55277
 Zr469 Zr -0.05810 -0.01661 0.52676
 O470 O -0.02646 -0.05149 0.49383
 Zr471 Zr 0.01569 0.02751 0.55752
 O472 O 0.05078 -0.00660 0.52686
 Zr473 Zr -0.02730 0.05706 0.48218
 O474 O 0.00689 0.02515 0.44827
 Zr475 Zr 0.02609 -0.05803 0.51718
 O476 O -0.00705 -0.02584 0.55245
 Zr477 Zr -0.01637 -0.02759 0.44220
 O478 O -0.05241 0.00539 0.47356
 Zr479 Zr 0.05786 0.01585 0.47394
 O480 O 0.02533 0.05176 0.50597
 O481 O -0.03633 0.03596 0.53492
 O482 O 0.03610 -0.03677 0.46446
 C483 C -0.11029 0.04629 0.50377
 C484 C -0.04832 0.00573 0.60952
 C485 C -0.00739 0.11024 0.54536
 C486 C 0.10885 -0.04936 0.49424
 C487 C 0.00671 -0.11012 0.45239
 C488 C 0.04936 -0.00838 0.39133
 H489 H -0.04002 -0.07502 0.49144
 H490 H 0.00932 0.03817 0.42449
 H491 H -0.05221 0.05176 0.55038
 H492 H 0.07420 -0.00905 0.54052
 H493 H 0.03859 -0.06540 0.58693
 H494 H 0.05506 -0.00886 0.60400
 H495 H -0.03856 0.01375 0.38844
 H496 H -0.06637 0.09401 0.43384
 H497 H -0.01908 -0.10988 0.53757
 H498 H -0.05745 -0.07257 0.57070
 H499 H 0.06155 0.07136 0.42893
 H500 H 0.02062 0.10628 0.46306
 H501 H -0.10804 -0.03962 0.48174
 H502 H -0.07545 -0.06653 0.43593
 H503 H 0.07197 0.07151 0.55517
 H504 H 0.11079 0.03703 0.51729
 O505 O 0.64598 0.22947 0.26720
 O506 O 0.64680 0.24181 0.20507
 O507 O 0.73600 0.14520 0.27061
 O508 O 0.79443 0.14364 0.26364
 O509 O 0.72876 0.23499 0.35614
 O510 O 0.74648 0.29431 0.35587
 O511 O 0.83306 0.24467 0.18216
 O512 O 0.80390 0.18611 0.17545
 O513 O 0.74358 0.31878 0.16812
 O514 O 0.69118 0.33374 0.19505
 O515 O 0.81907 0.33436 0.25801
 O516 O 0.83211 0.30379 0.31396
 O517 O 0.85616 0.27336 0.23270
 O518 O 0.85401 0.25774 0.29859
 O519 O 0.76807 0.35602 0.22911
 O520 O 0.69898 0.34809 0.24780
 O521 O 0.77212 0.26833 0.14531
 O522 O 0.75854 0.20828 0.14393
 O523 O 0.66852 0.25898 0.31746
 O524 O 0.70007 0.31836 0.32341
 O525 O 0.76015 0.18547 0.33459
 O526 O 0.81886 0.17769 0.30136
 O527 O 0.68417 0.16763 0.24426
 O528 O 0.67478 0.19759 0.18597
 Zr529 Zr 0.69346 0.22369 0.23471
 O530 O 0.72462 0.25735 0.19987
 Zr531 Zr 0.76796 0.19340 0.27766
 O532 O 0.80245 0.22508 0.24364
 Zr533 Zr 0.72487 0.26762 0.30857
 O534 O 0.75838 0.30243 0.27684
 Zr535 Zr 0.77721 0.23486 0.19253
 O536 O 0.74456 0.19879 0.22463
 Zr537 Zr 0.73473 0.30871 0.22437
 O538 O 0.69916 0.27663 0.25738
 Zr539 Zr 0.80950 0.27782 0.26681
 O540 O 0.77757 0.24474 0.30256
 O541 O 0.71587 0.21510 0.28690
 O542 O 0.78731 0.28745 0.21437
 C543 C 0.64186 0.24532 0.29845
 C544 C 0.70392 0.14094 0.25629
 C545 C 0.74558 0.20435 0.36075
 C546 C 0.85991 0.25819 0.20103
 C547 C 0.75688 0.29991 0.14132
 C548 C 0.79968 0.36057 0.24421
 H549 H 0.71092 0.25979 0.17645
 H550 H 0.76062 0.32602 0.29026
 H551 H 0.70025 0.19925 0.30273
 H552 H 0.82588 0.21166 0.24087
 H553 H 0.78871 0.16508 0.18401
 H554 H 0.80723 0.14806 0.24005
 H555 H 0.71301 0.36166 0.26690
 H556 H 0.68520 0.31476 0.34603
 H557 H 0.73174 0.21232 0.14201
 H558 H 0.69361 0.17924 0.17907
 H559 H 0.81315 0.32037 0.32412
 H560 H 0.77253 0.28680 0.35812
 H561 H 0.64345 0.26808 0.21148
 H562 H 0.67617 0.31359 0.18438
 H563 H 0.82451 0.19549 0.32127
 H564 H 0.86282 0.23483 0.28685
 O565 O 0.66659 0.75702 0.68413
 O566 O 0.69725 0.81379 0.67338
 O567 O 0.76042 0.68391 0.66799
 O568 O 0.81063 0.66786 0.69691
 O569 O 0.68314 0.66563 0.76106
 O570 O 0.67126 0.69735 0.81603
 O571 O 0.85477 0.77159 0.76796
 O572 O 0.85327 0.75594 0.70658
 O573 O 0.76606 0.85504 0.77312
 O574 O 0.70619 0.85668 0.76271
 O575 O 0.77210 0.76683 0.85625
 O576 O 0.75962 0.70454 0.85709
 O577 O 0.83211 0.74384 0.81905
 O578 O 0.79916 0.68314 0.82781
 O579 O 0.74137 0.81670 0.83463
 O580 O 0.68099 0.82426 0.79824
 O581 O 0.81742 0.83253 0.74615
 O582 O 0.82719 0.80521 0.68813
 O583 O 0.64409 0.72768 0.73438
 O584 O 0.64548 0.74194 0.79736
 O585 O 0.73220 0.64475 0.72879
 O586 O 0.79595 0.64783 0.74839
 O587 O 0.72852 0.73265 0.64591
 O588 O 0.74251 0.79527 0.64730
 Zr589 Zr 0.72286 0.76553 0.69335
 O590 O 0.75555 0.80077 0.72542
 Zr591 Zr 0.76581 0.69183 0.72494
 O592 O 0.80094 0.72403 0.75783
 Zr593 Zr 0.69145 0.72260 0.76760
 O594 O 0.72338 0.75581 0.80272
 Zr595 Zr 0.80718 0.77680 0.73512
 O596 O 0.77575 0.74300 0.69947
 Zr597 Zr 0.73282 0.80734 0.77808
 O598 O 0.69742 0.77550 0.74429
 Zr599 Zr 0.77614 0.73329 0.80917
 O600 O 0.74247 0.69757 0.77761
 O601 O 0.71354 0.71328 0.71544
 O602 O 0.78555 0.78608 0.78781
 C603 C 0.63993 0.74359 0.70311
 C604 C 0.74575 0.70222 0.64147
 C605 C 0.70189 0.63973 0.74602
 C606 C 0.85882 0.75696 0.79988
 C607 C 0.79807 0.85923 0.75877
 C608 C 0.75603 0.79784 0.86078
 H609 H 0.75728 0.82459 0.71239
 H610 H 0.71009 0.75768 0.82635
 H611 H 0.69798 0.69740 0.69951
 H612 H 0.82469 0.71104 0.75973
 H613 H 0.84371 0.74111 0.68571
 H614 H 0.83251 0.68322 0.70229
 H615 H 0.67631 0.81087 0.82151
 H616 H 0.64057 0.76726 0.78859
 H617 H 0.80788 0.82217 0.67936
 H618 H 0.76835 0.78762 0.64361
 H619 H 0.73358 0.71078 0.86170
 H620 H 0.69138 0.68188 0.82585
 H621 H 0.68037 0.82231 0.69293
 H622 H 0.70795 0.85856 0.73559
 H623 H 0.78376 0.64123 0.77184
 H624 H 0.82114 0.67796 0.81270
 O625 O 0.23107 0.35508 0.72815
 O626 O 0.29321 0.35431 0.74162
 O627 O 0.22739 0.26603 0.64350
 O628 O 0.23287 0.20766 0.64103
 O629 O 0.14226 0.27319 0.73373
 O630 O 0.14279 0.25425 0.79261
 O631 O 0.31584 0.16786 0.74178
 O632 O 0.32212 0.19663 0.68346
 O633 O 0.33047 0.25582 0.81659
 O634 O 0.30460 0.30885 0.83217
 O635 O 0.24269 0.18081 0.83091
 O636 O 0.18414 0.16940 0.80081
 O637 O 0.26533 0.14456 0.77003
 O638 O 0.19996 0.14644 0.75524
 O639 O 0.26931 0.23241 0.85416
 O640 O 0.25181 0.30177 0.84664
 O641 O 0.35282 0.22806 0.76543
 O642 O 0.35308 0.24315 0.70464
 O643 O 0.18208 0.33357 0.76044
 O644 O 0.17506 0.30003 0.81789
 O645 O 0.16326 0.24185 0.68384
 O646 O 0.19607 0.18289 0.67552
 O647 O 0.25444 0.31747 0.66647
 O648 O 0.31228 0.32692 0.69682
 Zr649 Zr 0.26366 0.30778 0.72250
 O650 O 0.29857 0.27619 0.75558
 Zr651 Zr 0.22008 0.23378 0.69139
 O652 O 0.25421 0.19876 0.72228
 Zr653 Zr 0.18999 0.27646 0.76651
 O654 O 0.22188 0.24230 0.80062
 Zr655 Zr 0.30541 0.22376 0.73216
 O656 O 0.27322 0.25686 0.69676
 Zr657 Zr 0.27442 0.26576 0.80693
 O658 O 0.24143 0.30177 0.77549
 Zr659 Zr 0.23158 0.19140 0.77507
 O660 O 0.19570 0.22386 0.74277
 O661 O 0.21126 0.28580 0.71392
 O662 O 0.28401 0.21340 0.78473
 C663 C 0.20086 0.35975 0.74561
 C664 C 0.24219 0.29797 0.63956
 C665 C 0.13733 0.25639 0.70296
 C666 C 0.29712 0.14094 0.75529
 C667 C 0.35702 0.24262 0.79736
 C668 C 0.25550 0.20007 0.85785
 H669 H 0.32205 0.28977 0.75815
 H670 H 0.20879 0.23973 0.82430
 H671 H 0.19550 0.30171 0.69836
 H672 H 0.25683 0.17535 0.70862
 H673 H 0.31282 0.21133 0.66245
 H674 H 0.25654 0.19487 0.64480
 H675 H 0.23229 0.28806 0.85981
 H676 H 0.15252 0.31504 0.81464
 H677 H 0.35655 0.26937 0.71115
 H678 H 0.31949 0.30801 0.67860
 H679 H 0.17598 0.18723 0.81966
 H680 H 0.14111 0.22805 0.78524
 H681 H 0.28643 0.35757 0.76780
 H682 H 0.31507 0.32398 0.81208
 H683 H 0.17631 0.17728 0.69339
 H684 H 0.21084 0.13838 0.73164
 O685 O 0.16589 0.73798 0.31612
 O686 O 0.19758 0.68316 0.32851
 O687 O 0.25955 0.81412 0.33352
 O688 O 0.31081 0.82958 0.30598
 O689 O 0.18214 0.83056 0.24186
 O690 O 0.17473 0.80321 0.18559
 O691 O 0.35527 0.72593 0.23441
 O692 O 0.35283 0.74265 0.29671
 O693 O 0.26655 0.64323 0.22697
 O694 O 0.20843 0.63924 0.23568
 O695 O 0.27334 0.73102 0.14554
 O696 O 0.26138 0.79330 0.14456
 O697 O 0.33302 0.75426 0.18346
 O698 O 0.30029 0.81512 0.17491
 O699 O 0.24097 0.68158 0.16624
 O700 O 0.17933 0.67614 0.20564
 O701 O 0.31686 0.66464 0.25768
 O702 O 0.32776 0.69153 0.31337
 O703 O 0.14498 0.77002 0.26664
 O704 O 0.14827 0.74981 0.20309
 O705 O 0.23266 0.85272 0.27145
 O706 O 0.29708 0.84982 0.25435
 O707 O 0.22702 0.76542 0.35531
 O708 O 0.24313 0.70232 0.35422
 Zr709 Zr 0.22280 0.73161 0.30816
 O710 O 0.25548 0.69678 0.27606
 Zr711 Zr 0.26622 0.80568 0.27693
 O712 O 0.30160 0.77369 0.24449
 Zr713 Zr 0.19207 0.77445 0.23336
 O714 O 0.22428 0.74195 0.19827
 Zr715 Zr 0.30745 0.72085 0.26714
 O716 O 0.27584 0.75447 0.30254
 Zr717 Zr 0.23315 0.69047 0.22299
 O718 O 0.19781 0.72169 0.25687
 Zr719 Zr 0.27716 0.76458 0.19276
 O720 O 0.24330 0.79975 0.22412
 O721 O 0.21400 0.78366 0.28577
 O722 O 0.28610 0.71184 0.21410
 C723 C 0.14003 0.75303 0.29718
 C724 C 0.24420 0.79608 0.35983
 C725 C 0.20135 0.85707 0.25560
 C726 C 0.35957 0.74087 0.20260
 C727 C 0.29780 0.63860 0.24287
 C728 C 0.25653 0.70029 0.14047
 H729 H 0.25694 0.67281 0.28888
 H730 H 0.21111 0.74023 0.17446
 H731 H 0.19831 0.79937 0.30151
 H732 H 0.32547 0.78673 0.24292
 H733 H 0.34287 0.75597 0.31827
 H734 H 0.33256 0.81410 0.30115
 H735 H 0.17587 0.68609 0.18049
 H736 H 0.12578 0.76506 0.20538
 H737 H 0.30688 0.67826 0.32470
 H738 H 0.26792 0.71241 0.35965
 H739 H 0.23528 0.78720 0.13964
 H740 H 0.19592 0.81806 0.17699
 H741 H 0.18276 0.67286 0.30802
 H742 H 0.20718 0.63781 0.26287
 H743 H 0.28542 0.85641 0.23059
 H744 H 0.32258 0.81999 0.18986
 O745 O 0.23285 0.64425 0.77320
 O746 O 0.29499 0.64517 0.75806
 O747 O 0.22980 0.73381 0.85603
 O748 O 0.23771 0.79228 0.85791
 O749 O 0.14412 0.72651 0.76648
 O750 O 0.14407 0.74315 0.70776
 O751 O 0.31793 0.83217 0.75661
 O752 O 0.32514 0.80350 0.81515
 O753 O 0.33152 0.74319 0.68230
 O754 O 0.30529 0.69005 0.66746
 O755 O 0.24390 0.81786 0.66828
 O756 O 0.18556 0.82885 0.69848
 O757 O 0.26692 0.85476 0.72875
 O758 O 0.20178 0.85217 0.74388
 O759 O 0.26991 0.76622 0.64514
 O760 O 0.25223 0.69666 0.65343
 O761 O 0.35455 0.77196 0.73285
 O762 O 0.35618 0.75774 0.79351
 O763 O 0.18359 0.66521 0.74092
 O764 O 0.17672 0.69790 0.68268
 O765 O 0.16685 0.75639 0.81653
 O766 O 0.19866 0.81605 0.82400
 O767 O 0.25979 0.68353 0.83455
 O768 O 0.31525 0.67218 0.80213
 Zr769 Zr 0.26619 0.69166 0.77762
 O770 O 0.30050 0.72338 0.74385
 Zr771 Zr 0.22319 0.76567 0.80812
 O772 O 0.25675 0.80079 0.77671
 Zr773 Zr 0.19177 0.72217 0.73386
 O774 O 0.22316 0.75628 0.69913
 Zr775 Zr 0.30778 0.77614 0.76661
 O776 O 0.27621 0.74298 0.80261
 Zr777 Zr 0.27558 0.73316 0.69259
 O778 O 0.24309 0.69717 0.72476
 Zr779 Zr 0.23330 0.80748 0.72413
 O780 O 0.19791 0.77502 0.75701
 O781 O 0.21393 0.71334 0.78631
 O782 O 0.28557 0.78582 0.71418
 C783 C 0.20241 0.63926 0.75590
 C784 C 0.24602 0.70288 0.86074
 C785 C 0.14009 0.74271 0.79766
 C786 C 0.29887 0.85885 0.74328
 C787 C 0.35831 0.75691 0.70114
 C788 C 0.25623 0.79850 0.64137
 H789 H 0.32395 0.70999 0.74116
 H790 H 0.20978 0.75857 0.67552
 H791 H 0.19842 0.69750 0.80224
 H792 H 0.25946 0.82431 0.79019
 H793 H 0.31636 0.78863 0.83627
 H794 H 0.26036 0.80661 0.85300
 H795 H 0.23297 0.71031 0.63989
 H796 H 0.15439 0.68241 0.68606
 H797 H 0.35961 0.73148 0.78727
 H798 H 0.32405 0.69168 0.81911
 H799 H 0.17754 0.81114 0.67935
 H800 H 0.14322 0.76979 0.71342
 H801 H 0.28705 0.64141 0.73222
 H802 H 0.31565 0.67494 0.68761
 H803 H 0.17870 0.82124 0.80616
 H804 H 0.21277 0.86033 0.76749
 O805 O 0.25907 0.18173 0.16698
 O806 O 0.31574 0.17150 0.19830
 O807 O 0.18486 0.16616 0.25979
 O808 O 0.17017 0.19445 0.31099
 O809 O 0.16853 0.25682 0.18209
 O810 O 0.19946 0.31361 0.17123
 O811 O 0.27205 0.26722 0.35488
 O812 O 0.25614 0.20498 0.35335
 O813 O 0.35629 0.27187 0.26660
 O814 O 0.35873 0.26126 0.20714
 O815 O 0.26820 0.35472 0.27126
 O816 O 0.20569 0.35473 0.25760
 O817 O 0.24477 0.31811 0.33141
 O818 O 0.18474 0.32657 0.29840
 O819 O 0.31835 0.33314 0.24115
 O820 O 0.32616 0.29607 0.18086
 O821 O 0.33343 0.24510 0.31814
 O822 O 0.30693 0.18813 0.32904
 O823 O 0.23057 0.23215 0.14398
 O824 O 0.24370 0.29479 0.14467
 O825 O 0.14611 0.22777 0.23252
 O826 O 0.14905 0.24579 0.29585
 O827 O 0.23426 0.14390 0.22921
 O828 O 0.29678 0.14557 0.24375
 Zr829 Zr 0.26731 0.19138 0.22341
 O830 O 0.30214 0.22388 0.25617
 Zr831 Zr 0.19333 0.22298 0.26581
 O832 O 0.22517 0.25638 0.30081
 Zr833 Zr 0.22488 0.26524 0.19120
 O834 O 0.25773 0.30082 0.22293
 Zr835 Zr 0.27780 0.23392 0.30764
 O836 O 0.24441 0.19781 0.27620
 Zr837 Zr 0.30901 0.27644 0.23299
 O838 O 0.27761 0.24222 0.19760
 Zr839 Zr 0.23467 0.30755 0.27548
 O840 O 0.19932 0.27549 0.24194
 O841 O 0.21524 0.21324 0.21371
 O842 O 0.28729 0.28647 0.28552
 C843 C 0.24600 0.20073 0.14009
 C844 C 0.20343 0.13956 0.24577
 C845 C 0.14190 0.24353 0.20123
 C846 C 0.25752 0.29918 0.35846
 C847 C 0.36022 0.25771 0.29877
 C848 C 0.29937 0.35931 0.25546
 H849 H 0.32590 0.21095 0.25824
 H850 H 0.25977 0.32432 0.20933
 H851 H 0.19948 0.19720 0.19812
 H852 H 0.21200 0.25846 0.32448
 H853 H 0.24260 0.18333 0.34357
 H854 H 0.18485 0.20105 0.33301
 H855 H 0.31340 0.31963 0.17612
 H856 H 0.26944 0.28716 0.14043
 H857 H 0.32192 0.17758 0.30902
 H858 H 0.28856 0.14171 0.26944
 H859 H 0.21274 0.35939 0.23172
 H860 H 0.18260 0.32219 0.19076
 H861 H 0.32426 0.19088 0.18112
 H862 H 0.36020 0.23409 0.20847
 H863 H 0.14335 0.26992 0.28454
 H864 H 0.17918 0.31136 0.32032
 O865 O 0.81652 0.66625 0.23912
 O866 O 0.82923 0.69872 0.18457
 O867 O 0.83542 0.76210 0.31448
 O868 O 0.80649 0.81097 0.33238
 O869 O 0.74306 0.68217 0.33231
 O870 O 0.68688 0.67468 0.30499
 O871 O 0.73484 0.85559 0.22752
 O872 O 0.79737 0.85330 0.24445
 O873 O 0.72819 0.76681 0.14476
 O874 O 0.73659 0.70830 0.14136
 O875 O 0.64595 0.77232 0.23311
 O876 O 0.64612 0.76080 0.29565
 O877 O 0.68394 0.83288 0.25553
 O878 O 0.67595 0.80048 0.31658
 O879 O 0.66784 0.74291 0.18277
 O880 O 0.70536 0.68014 0.17787
 O881 O 0.75825 0.81754 0.16612
 O882 O 0.81339 0.82907 0.19277
 O883 O 0.76762 0.64509 0.27178
 O884 O 0.70419 0.64839 0.25159
 O885 O 0.77317 0.73250 0.35429
 O886 O 0.75531 0.79744 0.35101
 O887 O 0.85571 0.72689 0.26705
 O888 O 0.85506 0.74364 0.20421
 Zr889 Zr 0.80884 0.72330 0.23316
 O890 O 0.77685 0.75617 0.19837
 Zr891 Zr 0.77821 0.76655 0.30727
 O892 O 0.74537 0.80182 0.27528
 Zr893 Zr 0.73451 0.69220 0.27622
 O894 O 0.69933 0.72435 0.24358
 Zr895 Zr 0.76776 0.80803 0.22241
 O896 O 0.80334 0.77636 0.25589
 Zr897 Zr 0.72397 0.73361 0.19218
 O898 O 0.75773 0.69811 0.22339
 Zr899 Zr 0.69364 0.77711 0.26624
 O900 O 0.72541 0.74342 0.30143
 O901 O 0.78690 0.71428 0.28537
 O902 O 0.71485 0.78646 0.21350
 C903 C 0.79781 0.64026 0.25435
 C904 C 0.86102 0.74559 0.29656
 C905 C 0.75695 0.70130 0.35877
 C906 C 0.70304 0.85960 0.24230
 C907 C 0.74374 0.79825 0.14008
 C908 C 0.64146 0.75686 0.20159
 H909 H 0.78969 0.75778 0.17446
 H910 H 0.67557 0.71112 0.24171
 H911 H 0.80277 0.69860 0.30105
 H912 H 0.74381 0.82570 0.28824
 H913 H 0.81915 0.84325 0.25740
 H914 H 0.80344 0.83246 0.31595
 H915 H 0.68006 0.67728 0.18745
 H916 H 0.70644 0.62583 0.26689
 H917 H 0.82567 0.80805 0.18077
 H918 H 0.86050 0.76843 0.21427
 H919 H 0.64103 0.73477 0.28931
 H920 H 0.67851 0.69571 0.32012
 H921 H 0.80898 0.68351 0.17433
 H922 H 0.76373 0.70767 0.13966
 H923 H 0.73199 0.78517 0.35802
 H924 H 0.69105 0.82272 0.32139
 O925 O 0.66585 0.24264 0.81524
 O926 O 0.69608 0.18653 0.82654
 O927 O 0.75956 0.31668 0.83238
 O928 O 0.80939 0.33410 0.80404
 O929 O 0.68165 0.33395 0.73877
 O930 O 0.67313 0.30621 0.68429
 O931 O 0.85402 0.22793 0.73322
 O932 O 0.85365 0.24390 0.79373
 O933 O 0.76517 0.14550 0.72689
 O934 O 0.70719 0.14228 0.73400
 O935 O 0.77374 0.23352 0.64453
 O936 O 0.76149 0.29526 0.64248
 O937 O 0.83315 0.25884 0.68299
 O938 O 0.79840 0.31887 0.67396
 O939 O 0.74123 0.18412 0.66518
 O940 O 0.67864 0.17962 0.70371
 O941 O 0.81633 0.16815 0.75477
 O942 O 0.82479 0.19678 0.81440
 O943 O 0.64371 0.27203 0.76483
 O944 O 0.64817 0.25232 0.70061
 O945 O 0.73117 0.35519 0.77090
 O946 O 0.79606 0.35262 0.75234
 O947 O 0.72740 0.26777 0.85414
 O948 O 0.74203 0.20481 0.85251
 Zr949 Zr 0.72219 0.23470 0.80664
 O950 O 0.75466 0.19958 0.77470
 Zr951 Zr 0.76530 0.30871 0.77552
 O952 O 0.80086 0.27671 0.74337
 Zr953 Zr 0.69115 0.27738 0.73173
 O954 O 0.72377 0.24489 0.69683
 Zr955 Zr 0.80647 0.22382 0.76591
 O956 O 0.77515 0.25768 0.80116
 Zr957 Zr 0.73245 0.19333 0.72165
 O958 O 0.69709 0.22467 0.75542
 Zr959 Zr 0.77671 0.26760 0.69147
 O960 O 0.74249 0.30263 0.72263
 O961 O 0.71307 0.28671 0.78421
 O962 O 0.78535 0.21481 0.71287
 C963 C 0.63933 0.25609 0.79608
 C964 C 0.74461 0.29837 0.85875
 C965 C 0.70063 0.35996 0.75381
 C966 C 0.85892 0.24388 0.70207
 C967 C 0.79713 0.14142 0.74152
 C968 C 0.75704 0.20270 0.63950
 H969 H 0.75600 0.17563 0.78755
 H970 H 0.71089 0.24302 0.67289
 H971 H 0.69745 0.30243 0.80001
 H972 H 0.82475 0.28975 0.74208
 H973 H 0.84484 0.26025 0.81363
 H974 H 0.83104 0.31806 0.80083
 H975 H 0.67602 0.18837 0.67803
 H976 H 0.62511 0.26656 0.70355
 H977 H 0.80679 0.17736 0.82086
 H978 H 0.76758 0.21333 0.85691
 H979 H 0.73535 0.28932 0.63756
 H980 H 0.69488 0.31904 0.67404
 H981 H 0.68058 0.17701 0.80618
 H982 H 0.70476 0.14130 0.76113
 H983 H 0.78319 0.36032 0.72957
 H984 H 0.82069 0.32408 0.68881
 C985 C 0.10070 1.00027 1.21271
 C986 C 0.12207 0.98495 1.17904
 C987 C 0.10534 0.98706 1.14631
 C988 C 0.06712 1.00371 1.14753
 C989 C 0.04635 0.98048 1.17654
 C990 C 0.06342 0.97914 1.21048
 C991 C 0.08797 1.03938 1.19980
 C992 C 0.07198 1.04106 1.16595
 H993 H 0.14903 0.97318 1.17944
 H994 H 0.11883 0.97698 1.12167
 H995 H 0.01995 0.96740 1.17128
 H996 H 0.05087 0.96506 1.23357
 H997 H 0.08618 1.06347 1.21688
 H998 H 0.05976 1.06620 1.15542
 C999 C 0.59864 0.50002 0.71170
 C1000 C 0.56205 0.52227 0.71233
 C1001 C 0.54434 0.52534 0.67913
 C1002 C 0.56338 0.50463 0.64771
 C1003 C 0.60201 0.51980 0.64665
 C1004 C 0.62029 0.51661 0.67846
 C1005 C 0.58470 0.46266 0.69567
 C1006 C 0.56713 0.46512 0.66238
 H1007 H 0.55016 0.53393 0.73701
 H1008 H 0.51832 0.53957 0.67615
 H1009 H 0.61540 0.52971 0.62180
 H1010 H 0.64912 0.52227 0.67725
 H1011 H 0.58622 0.43639 0.70938
 H1012 H 0.55504 0.44129 0.64883
 C1013 C 0.40025 -0.00003 0.71200
 C1014 C 0.37887 0.01549 0.67831
 C1015 C 0.39593 0.01428 0.64579
 C1016 C 0.43438 -0.00184 0.64724
 C1017 C 0.45464 0.02113 0.67688
 C1018 C 0.43727 0.02165 0.71060
 C1019 C 0.41357 -0.03873 0.69860
 C1020 C 0.42983 -0.03958 0.66496
 H1021 H 0.35162 0.02655 0.67850
 H1022 H 0.38239 0.02438 0.62110
 H1023 H 0.48089 0.03464 0.67220
 H1024 H 0.44946 0.03551 0.73409
 H1025 H 0.41542 -0.06313 0.71522
 H1026 H 0.44236 -0.06442 0.65414
 C1027 C -0.09831 0.50184 1.21246
 C1028 C -0.11958 0.48526 1.17886
 C1029 C -0.10109 0.48253 1.14726
 C1030 C -0.06262 0.49812 1.14886
 C1031 C -0.06691 0.53749 1.16376
 C1032 C -0.08473 0.53949 1.19685
 C1033 C -0.06147 0.48003 1.21335
 C1034 C -0.04353 0.47740 1.18034
 H1035 H -0.14833 0.47927 1.17725
 H1036 H -0.11424 0.47264 1.12219
 H1037 H -0.05504 0.56155 1.15050
 H1038 H -0.08671 0.56565 1.21071
 H1039 H -0.04957 0.46836 1.23808
 H1040 H -0.01730 0.46356 1.17757
 C1041 C -0.09866 0.50157 0.28861
 C1042 C -0.08459 0.46430 0.30438
 C1043 C -0.06703 0.46676 0.33769
 C1044 C -0.06347 0.50623 0.35271
 C1045 C -0.04451 0.52743 0.32148
 C1046 C -0.06216 0.52434 0.28823
 C1047 C -0.12046 0.51759 0.32192
 C1048 C -0.10221 0.52083 0.35380
 H1049 H -0.08612 0.43810 0.29050
 H1050 H -0.05491 0.44299 0.35109
 H1051 H -0.01857 0.54201 0.32462
 H1052 H -0.05028 0.53634 0.26366
 H1053 H -0.14935 0.52270 0.32310
 H1054 H -0.11569 0.53031 0.37872
 C1055 C 0.39999 1.00214 -0.21227
 C1056 C 0.41283 1.04112 -0.19870
 C1057 C 0.42893 1.04230 -0.16487
 C1058 C 0.43370 1.00466 -0.14712
 C1059 C 0.39540 0.98781 -0.14610
 C1060 C 0.37859 0.98620 -0.17883
 C1061 C 0.43720 0.98120 -0.21044
 C1062 C 0.45433 0.98204 -0.17653
 H1063 H 0.41448 1.06557 -0.21529
 H1064 H 0.44118 1.06735 -0.15389
 H1065 H 0.38185 0.97736 -0.12160
 H1066 H 0.35150 0.97450 -0.17935
 H1067 H 0.44968 0.96757 -0.23378
 H1068 H 0.48069 0.96903 -0.17154
 C1069 C 0.59854 0.49974 -0.21214
 C1070 C 0.56172 0.47752 -0.21306
 C1071 C 0.54386 0.47454 -0.18001
 C1072 C 0.56298 0.49530 -0.14845
 C1073 C 0.60148 0.48010 -0.14703
 C1074 C 0.61991 0.48318 -0.17869
 C1075 C 0.58493 0.53714 -0.19628
 C1076 C 0.56720 0.53477 -0.16318
 H1077 H 0.54982 0.46581 -0.23782
 H1078 H 0.51768 0.46035 -0.17725
 H1079 H 0.61467 0.47021 -0.12203
 H1080 H 0.64867 0.47743 -0.17726
 H1081 H 0.58682 0.56340 -0.20999
 H1082 H 0.55533 0.55864 -0.14977
 C1083 C 0.10045 -0.00313 0.28843
 C1084 C 0.06353 0.01830 0.29030
 C1085 C 0.04625 0.01707 0.32406
 C1086 C 0.06645 -0.00637 0.35327
 C1087 C 0.07076 -0.04373 0.33487
 C1088 C 0.08700 -0.04216 0.30120
 C1089 C 0.12192 0.01196 0.32229
 C1090 C 0.10501 0.00997 0.35484
 H1091 H 0.05135 0.03253 0.26709
 H1092 H 0.02006 0.03036 0.32905
 H1093 H 0.05806 -0.06877 0.34523
 H1094 H 0.08495 -0.06625 0.28411
 H1095 H 0.14910 0.02348 0.32214
 H1096 H 0.11863 0.01994 0.37958
 C1097 C 0.21277 1.09836 1.00093
 C1098 C 0.20005 1.08548 1.04010
 C1099 C 0.16614 1.06967 1.04194
 C1100 C 0.14747 1.06504 1.00469
 C1101 C 0.14645 1.10336 0.98796
 C1102 C 0.17921 1.11991 0.98564
 C1103 C 0.21019 1.06113 0.97984
 C1104 C 0.17616 1.04416 0.98135
 H1105 H 0.21732 1.08328 1.06405
 H1106 H 0.15579 1.05727 1.06711
 H1107 H 0.12194 1.11703 0.97778
 H1108 H 0.17969 1.14682 0.97360
 H1109 H 0.23312 1.04851 0.96573
 H1110 H 0.17066 1.01778 0.96836
 C1111 C 0.71270 0.60015 0.50210
 C1112 C 0.67918 0.62175 0.48679
 C1113 C 0.64638 0.60521 0.48908
 C1114 C 0.64735 0.56684 0.50580
 C1115 C 0.67606 0.54599 0.48245
 C1116 C 0.71009 0.56294 0.48098
 C1117 C 0.69992 0.58725 0.54125
 C1118 C 0.66600 0.57144 0.54306
 H1119 H 0.67981 0.64865 0.47468
 H1120 H 0.62190 0.61883 0.47877
 H1121 H 0.67054 0.51963 0.46941
 H1122 H 0.73299 0.55032 0.46682
 H1123 H 0.71717 0.58499 0.56521
 H1124 H 0.65564 0.55901 0.56820
 C1125 C 0.71155 0.40089 -0.00216
 C1126 C 0.69879 0.41370 -0.04139
 C1127 C 0.66499 0.42944 -0.04336
 C1128 C 0.64643 0.43402 -0.00620
 C1129 C 0.64528 0.39561 0.01055
 C1130 C 0.67799 0.37916 0.01300
 C1131 C 0.70916 0.43810 0.01896
 C1132 C 0.67525 0.45496 0.01728
 H1133 H 0.71598 0.41590 -0.06531
 H1134 H 0.65466 0.44179 -0.06856
 H1135 H 0.62074 0.38190 0.02076
 H1136 H 0.67857 0.35226 0.02514
 H1137 H 0.73212 0.45077 0.03329
 H1138 H 0.66990 0.48129 0.03032
 C1139 C 0.21193 -0.10003 0.49862
 C1140 C 0.17841 -0.12144 0.51445
 C1141 C 0.14582 -0.10464 0.51280
 C1142 C 0.14698 -0.06631 0.49601
 C1143 C 0.17653 -0.04558 0.51873
 C1144 C 0.21031 -0.06272 0.51965
 C1145 C 0.19843 -0.08732 0.45964
 C1146 C 0.16473 -0.07120 0.45841
 H1147 H 0.17878 -0.14852 0.52612
 H1148 H 0.12129 -0.11821 0.52322
 H1149 H 0.17172 -0.01915 0.53179
 H1150 H 0.23372 -0.05018 0.53336
 H1151 H 0.21497 -0.08587 0.43521
 H1152 H 0.15380 -0.05909 0.43333
 C1153 C 0.28774 -0.09980 0.50099
 C1154 C 0.32114 -0.12134 0.48548
 C1155 C 0.35382 -0.10448 0.48693
 C1156 C 0.35293 -0.06595 0.50322
 C1157 C 0.32358 -0.04556 0.48014
 C1158 C 0.28965 -0.06279 0.47942
 C1159 C 0.30126 -0.08644 0.53978
 C1160 C 0.33508 -0.07032 0.54084
 H1161 H 0.32062 -0.14851 0.47401
 H1162 H 0.37820 -0.11811 0.47652
 H1163 H 0.32861 -0.01932 0.46673
 H1164 H 0.26634 -0.05050 0.46550
 H1165 H 0.28460 -0.08438 0.56408
 H1166 H 0.34598 -0.05771 0.56574
 C1167 C -0.21300 0.40185 1.00128
 C1168 C -0.21101 0.43897 0.97988
 C1169 C -0.17724 0.45648 0.98136
 C1170 C -0.14818 0.43618 1.00488
 C1171 C -0.16660 0.43153 1.04214
 C1172 C -0.20028 0.41522 1.04037
 C1173 C -0.17929 0.38066 0.98620
 C1174 C -0.14679 0.39767 0.98840
 H1175 H -0.23414 0.45111 0.96555
 H1176 H -0.17215 0.48283 0.96817
 H1177 H -0.15637 0.44435 1.06720
 H1178 H -0.21751 0.41752 1.06424
 H1179 H -0.17951 0.35367 0.97429
 H1180 H -0.12225 0.38419 0.97822
 C1181 C -0.21169 0.59984 0.49881
 C1182 C -0.17785 0.62131 0.51399
 C1183 C -0.14533 0.60455 0.51183
 C1184 C -0.14688 0.56608 0.49535
 C1185 C -0.17591 0.54555 0.51880
 C1186 C -0.20967 0.56274 0.52017
 C1187 C -0.19910 0.58660 0.45974
 C1188 C -0.16543 0.57058 0.45805
 H1189 H -0.17802 0.64831 0.52587
 H1190 H -0.12065 0.61816 0.52197
 H1191 H -0.17081 0.51924 0.53199
 H1192 H -0.23278 0.55037 0.53438
 H1193 H -0.21640 0.58422 0.43582
 H1194 H -0.15527 0.55789 0.43300
 C1195 C 0.28842 1.09832 -0.00235
 C1196 C 0.32215 1.11999 0.01282
 C1197 C 0.35471 1.10329 0.01096
 C1198 C 0.35333 1.06478 -0.00535
 C1199 C 0.32429 1.04424 0.01804
 C1200 C 0.29046 1.06129 0.01912
 C1201 C 0.30120 1.08504 -0.04132
 C1202 C 0.33492 1.06905 -0.04278
 H1203 H 0.32193 1.14713 0.02435
 H1204 H 0.37932 1.11701 0.02114
 H1205 H 0.32940 1.01799 0.03135
 H1206 H 0.26732 1.04885 0.03322
 H1207 H 0.28407 1.08282 -0.06539
 H1208 H 0.34532 1.05641 -0.06776
 C1209 C 0.00191 1.21222 1.09988
 C1210 C -0.01934 1.20989 1.06268
 C1211 C -0.01820 1.17586 1.04580
 C1212 C 0.00495 1.14695 1.06676
 C1213 C 0.04231 1.16529 1.07129
 C1214 C 0.04084 1.19920 1.08696
 C1215 C -0.01367 1.17874 1.12155
 C1216 C -0.01170 1.14592 1.10508
 H1217 H -0.03331 1.23297 1.05004
 H1218 H -0.03135 1.17048 1.01946
 H1219 H 0.06725 1.15483 1.05875
 H1220 H 0.06484 1.21633 1.08429
 H1221 H -0.02590 1.17944 1.14835
 H1222 H -0.02236 1.12145 1.11860
 C1223 C 0.50073 0.71263 0.60024
 C1224 C 0.47976 0.71065 0.56286
 C1225 C 0.48091 0.67678 0.54571
 C1226 C 0.50377 0.64763 0.56661
 C1227 C 0.54118 0.66581 0.57160
 C1228 C 0.53973 0.69959 0.58756
 C1229 C 0.48494 0.67901 0.62156
 C1230 C 0.48689 0.64634 0.60482
 H1231 H 0.46592 0.73384 0.55029
 H1232 H 0.46794 0.67165 0.51924
 H1233 H 0.56622 0.65530 0.55928
 H1234 H 0.56386 0.71661 0.58547
 H1235 H 0.47278 0.67945 0.64839
 H1236 H 0.47635 0.62174 0.61821
 C1237 C 0.00040 0.71177 0.40044
 C1238 C 0.03784 0.69625 0.41434
 C1239 C 0.03569 0.66315 0.43220
 C1240 C -0.00362 0.64806 0.43630
 C1241 C -0.02446 0.67948 0.45522
 C1242 C -0.02174 0.71253 0.43717
 C1243 C -0.01617 0.67818 0.37914
 C1244 C -0.01893 0.64646 0.39768
 H1245 H 0.06398 0.71024 0.41265
 H1246 H 0.05962 0.65004 0.44431
 H1247 H -0.03861 0.67660 0.48134
 H1248 H -0.03363 0.73717 0.44886
 H1249 H -0.02252 0.67682 0.35041
 H1250 H -0.02897 0.62140 0.38460
 C1251 C 0.49758 1.21132 -0.10151
 C1252 C 0.45881 1.19792 -0.08816
 C1253 C 0.45768 1.16417 -0.07199
 C1254 C 0.49521 1.14634 -0.06758
 C1255 C 0.51135 1.14510 -0.10612
 C1256 C 0.51290 1.17775 -0.12304
 C1257 C 0.51917 1.20964 -0.06448
 C1258 C 0.51838 1.17580 -0.04723
 H1259 H 0.43461 1.21464 -0.08604
 H1260 H 0.43284 1.15338 -0.05933
 H1261 H 0.52144 1.12052 -0.11972
 H1262 H 0.52423 1.17818 -0.15024
 H1263 H 0.53317 1.23301 -0.05219
 H1264 H 0.53182 1.17092 -0.02097
 C1265 C 0.50025 0.28707 -0.10158
 C1266 C 0.53927 0.30046 -0.08874
 C1267 C 0.54075 0.33426 -0.07267
 C1268 C 0.50332 0.35214 -0.06782
 C1269 C 0.48645 0.35329 -0.10613
 C1270 C 0.48454 0.32061 -0.12294
 C1271 C 0.47936 0.28886 -0.06427
 C1272 C 0.48050 0.32274 -0.04710
 H1273 H 0.56348 0.28371 -0.08687
 H1274 H 0.56583 0.34505 -0.06034
 H1275 H 0.47608 0.37784 -0.11964
 H1276 H 0.47263 0.32016 -0.14996
 H1277 H 0.46557 0.26553 -0.05176
 H1278 H 0.46757 0.32771 -0.02067
 C1279 C 0.00075 -0.21209 0.40024
 C1280 C 0.01734 -0.17863 0.37884
 C1281 C 0.02020 -0.14682 0.39728
 C1282 C 0.00492 -0.14820 0.43584
 C1283 C -0.03442 -0.16325 0.43158
 C1284 C -0.03665 -0.19642 0.41384
 C1285 C 0.02292 -0.21269 0.43709
 C1286 C 0.02571 -0.17955 0.45500
 H1287 H 0.02366 -0.17747 0.35013
 H1288 H 0.03027 -0.12185 0.38415
 H1289 H -0.05833 -0.15001 0.44346
 H1290 H -0.06283 -0.21033 0.41202
 H1291 H 0.03482 -0.23728 0.44894
 H1292 H 0.03992 -0.17657 0.48116
 C1293 C 0.49850 -0.21183 0.60005
 C1294 C 0.45976 -0.19865 0.58659
 C1295 C 0.45872 -0.16494 0.57041
 C1296 C 0.49631 -0.14695 0.56606
 C1297 C 0.51266 -0.14562 0.60462
 C1298 C 0.51408 -0.17820 0.62157
 C1299 C 0.51999 -0.21009 0.56306
 C1300 C 0.51927 -0.17629 0.54574
 H1301 H 0.43551 -0.21551 0.58432
 H1302 H 0.43388 -0.15431 0.55764
 H1303 H 0.52313 -0.12104 0.61817
 H1304 H 0.52563 -0.17858 0.64875
 H1305 H 0.53387 -0.23340 0.55084
 H1306 H 0.53263 -0.17135 0.51950
 C1307 C -0.00020 0.28780 1.09938
 C1308 C -0.03902 0.30103 1.08621
 C1309 C -0.04014 0.33479 1.07015
 C1310 C -0.00253 0.35270 1.06548
 C1311 C 0.01409 0.35399 1.10388
 C1312 C 0.01564 0.32141 1.12076
 C1313 C 0.02095 0.28948 1.06219
 C1314 C 0.02017 0.32332 1.04491
 H1315 H -0.06323 0.28412 1.08384
 H1316 H -0.06504 0.34540 1.05752
 H1317 H 0.02444 0.37858 1.11750
 H1318 H 0.02734 0.32109 1.14786
 H1319 H 0.03459 0.26612 1.04980
 H1320 H 0.03326 0.32825 1.01853
 C1321 C 0.75082 0.34992 0.03773
 C1322 C 0.78990 0.33740 0.05097
 C1323 C 0.79159 0.32165 0.08485
 C1324 C 0.75432 0.31661 0.10304
 C1325 C 0.73734 0.35478 0.10401
 C1326 C 0.73511 0.37132 0.07119
 C1327 C 0.72990 0.31251 0.03989
 C1328 C 0.73132 0.29551 0.07390
 H1329 H 0.81390 0.33512 0.03397
 H1330 H 0.81670 0.30940 0.09541
 H1331 H 0.72673 0.36819 0.12848
 H1332 H 0.72263 0.39799 0.07047
 H1333 H 0.71591 0.29982 0.01673
 H1334 H 0.71839 0.26903 0.07914
 C1335 C 0.25124 0.84888 0.53806
 C1336 C 0.22983 0.81173 0.54016
 C1337 C 0.23092 0.79469 0.57409
 C1338 C 0.25419 0.81538 0.60322
 C1339 C 0.29158 0.81991 0.58507
 C1340 C 0.29017 0.83591 0.55125
 C1341 C 0.23600 0.87052 0.57158
 C1342 C 0.23783 0.85382 0.60432
 H1343 H 0.21571 0.79921 0.51699
 H1344 H 0.21763 0.76838 0.57926
 H1345 H 0.31657 0.80755 0.59578
 H1346 H 0.31432 0.83404 0.53440
 H1347 H 0.22448 0.89762 0.57107
 H1348 H 0.22767 0.86745 0.62886
 C1349 C 0.75002 0.65171 0.53815
 C1350 C 0.77150 0.68887 0.53997
 C1351 C 0.77075 0.70610 0.57388
 C1352 C 0.74780 0.68550 0.60322
 C1353 C 0.71023 0.68087 0.58522
 C1354 C 0.71130 0.66489 0.55142
 C1355 C 0.76565 0.63026 0.57169
 C1356 C 0.76416 0.64707 0.60436
 H1357 H 0.78535 0.70125 0.51665
 H1358 H 0.78407 0.73244 0.57888
 H1359 H 0.68539 0.69349 0.59584
 H1360 H 0.68715 0.66733 0.53451
 H1361 H 0.77728 0.60321 0.57122
 H1362 H 0.77452 0.63348 0.62890
 C1363 C 0.24997 0.15001 0.03693
 C1364 C 0.27133 0.18723 0.03862
 C1365 C 0.27069 0.20447 0.07250
 C1366 C 0.24790 0.18386 0.10195
 C1367 C 0.21027 0.17914 0.08411
 C1368 C 0.21125 0.16309 0.05034
 C1369 C 0.26576 0.12864 0.07048
 C1370 C 0.26438 0.14551 0.10312
 H1371 H 0.28503 0.19963 0.01521
 H1372 H 0.28397 0.23085 0.07741
 H1373 H 0.18544 0.19169 0.09484
 H1374 H 0.18699 0.16533 0.03355
 H1375 H 0.27746 0.10163 0.07007
 H1376 H 0.27504 0.13208 0.12762
 C1377 C 0.25177 0.14965 0.96118
 C1378 C 0.23065 0.18679 0.95933
 C1379 C 0.23129 0.20381 0.92538
 C1380 C 0.25391 0.18314 0.89598
 C1381 C 0.29157 0.17867 0.91375
 C1382 C 0.29057 0.16272 0.94760
 C1383 C 0.23582 0.12801 0.92778
 C1384 C 0.23725 0.14472 0.89502
 H1385 H 0.21709 0.19932 0.98268
 H1386 H 0.21814 0.23012 0.92036
 H1387 H 0.31645 0.19117 0.90282
 H1388 H 0.31494 0.16488 0.96427
 H1389 H 0.22407 0.10091 0.92841
 H1390 H 0.22657 0.13111 0.87058
 C1391 C 0.75194 0.65146 0.46244
 C1392 C 0.79091 0.66430 0.44911
 C1393 C 0.79228 0.68006 0.41520
 C1394 C 0.75483 0.68478 0.39714
 C1395 C 0.73784 0.64645 0.39626
 C1396 C 0.73600 0.62990 0.42904
 C1397 C 0.73104 0.68873 0.46034
 C1398 C 0.73213 0.70572 0.42632
 H1399 H 0.81507 0.66671 0.46603
 H1400 H 0.81730 0.69249 0.40454
 H1401 H 0.72710 0.63281 0.37185
 H1402 H 0.72379 0.60300 0.42970
 H1403 H 0.71734 0.70135 0.48356
 H1404 H 0.71922 0.73210 0.42113
 C1405 C 0.24831 0.84817 0.46246
 C1406 C 0.26958 0.81106 0.46116
 C1407 C 0.26871 0.79340 0.42754
 C1408 C 0.24581 0.81342 0.39787
 C1409 C 0.20825 0.81814 0.41565
 C1410 C 0.20943 0.83480 0.44921
 C1411 C 0.26376 0.86933 0.42869
 C1412 C 0.26221 0.85202 0.39628
 H1413 H 0.28345 0.79900 0.48464
 H1414 H 0.28190 0.76705 0.42297
 H1415 H 0.18326 0.80560 0.40490
 H1416 H 0.18507 0.83341 0.46584
 H1417 H 0.27482 0.89672 0.42872
 H1418 H 0.27204 0.86561 0.37153
 C1419 C 0.74862 0.34946 0.96197
 C1420 C 0.70988 0.33596 0.94846
 C1421 C 0.70885 0.31975 0.91472
 C1422 C 0.74645 0.31531 0.89700
 C1423 C 0.76282 0.35390 0.89582
 C1424 C 0.76427 0.37089 0.92842
 C1425 C 0.77005 0.31245 0.96043
 C1426 C 0.76932 0.29506 0.92661
 H1427 H 0.68565 0.33366 0.96516
 H1428 H 0.68399 0.30696 0.90394
 H1429 H 0.77314 0.36752 0.87128
 H1430 H 0.77584 0.39809 0.92885
 H1431 H 0.78388 0.30027 0.98388
 H1432 H 0.78263 0.26881 0.92183
 C1433 C 0.85122 0.46292 0.25058
 C1434 C 0.81459 0.46311 0.22811
 C1435 C 0.79700 0.42983 0.22524
 C1436 C 0.81613 0.39869 0.24632
 C1437 C 0.85478 0.39769 0.23142
 C1438 C 0.87300 0.42962 0.23452
 C1439 C 0.83743 0.44716 0.28801
 C1440 C 0.81993 0.41375 0.28575
 H1441 H 0.80261 0.48757 0.21607
 H1442 H 0.77100 0.42661 0.21081
 H1443 H 0.86828 0.37279 0.22193
 H1444 H 0.90189 0.42847 0.22931
 H1445 H 0.83914 0.46109 0.31418
 H1446 H 0.80803 0.40030 0.30964
 C1447 C 0.34896 0.96257 0.74813
 C1448 C 0.37059 0.92916 0.76368
 C1449 C 0.35399 0.89632 0.76183
 C1450 C 0.31563 0.89715 0.74516
 C1451 C 0.29490 0.92621 0.76815
 C1452 C 0.31184 0.96026 0.76923
 C1453 C 0.33608 0.94927 0.70908
 C1454 C 0.32017 0.91531 0.70766
 H1455 H 0.39768 0.92976 0.77533
 H1456 H 0.36772 0.87186 0.77206
 H1457 H 0.26861 0.92090 0.78123
 H1458 H 0.29926 0.98339 0.78312
 H1459 H 0.33434 0.96609 0.68480
 H1460 H 0.30793 0.90445 0.68256
 C1461 C 0.15173 0.96056 0.25174
 C1462 C 0.13002 0.92723 0.23573
 C1463 C 0.14654 0.89450 0.23713
 C1464 C 0.18487 0.89534 0.25390
 C1465 C 0.20574 0.92479 0.23131
 C1466 C 0.18887 0.95876 0.23062
 C1467 C 0.16457 0.94687 0.29060
 C1468 C 0.18033 0.91301 0.29161
 H1469 H 0.10298 0.92783 0.22399
 H1470 H 0.13277 0.87012 0.22645
 H1471 H 0.23204 0.91980 0.21820
 H1472 H 0.20152 0.98214 0.21704
 H1473 H 0.16667 0.96347 0.31502
 H1474 H 0.19263 0.90200 0.31656
 C1475 C 0.64898 0.46178 0.74914
 C1476 C 0.68565 0.46209 0.77151
 C1477 C 0.70335 0.42897 0.77377
 C1478 C 0.68422 0.39793 0.75223
 C1479 C 0.64563 0.39625 0.76725
 C1480 C 0.62736 0.42803 0.76486
 C1481 C 0.66272 0.44673 0.71142
 C1482 C 0.68029 0.41351 0.71309
 H1483 H 0.69759 0.48652 0.78389
 H1484 H 0.72943 0.42585 0.78801
 H1485 H 0.63227 0.37107 0.77651
 H1486 H 0.59857 0.42657 0.77050
 H1487 H 0.66103 0.46101 0.68547
 H1488 H 0.69221 0.40060 0.68896
 C1489 C 0.64940 0.53789 0.75079
 C1490 C 0.68613 0.53748 0.72870
 C1491 C 0.70414 0.57059 0.72642
 C1492 C 0.68528 0.60170 0.74771
 C1493 C 0.64672 0.60334 0.73242
 C1494 C 0.62814 0.57161 0.73485
 C1495 C 0.66323 0.55304 0.78857
 C1496 C 0.68115 0.58625 0.78690
 H1497 H 0.69787 0.51300 0.71652
 H1498 H 0.73029 0.57365 0.71238
 H1499 H 0.63359 0.62850 0.72302
 H1500 H 0.59934 0.57313 0.72914
 H1501 H 0.66132 0.53882 0.81454
 H1502 H 0.69316 0.59924 0.81106
 C1503 C 0.15236 0.03628 0.24995
 C1504 C 0.16554 0.04973 0.21116
 C1505 C 0.18175 0.08350 0.21013
 C1506 C 0.18649 0.10132 0.24778
 C1507 C 0.14812 0.10244 0.26424
 C1508 C 0.13113 0.06979 0.26569
 C1509 C 0.18947 0.03797 0.27140
 C1510 C 0.20688 0.07184 0.27068
 H1511 H 0.16758 0.03300 0.18686
 H1512 H 0.19430 0.09428 0.18523
 H1513 H 0.13470 0.12693 0.27471
 H1514 H 0.10408 0.06935 0.27730
 H1515 H 0.20170 0.01456 0.28522
 H1516 H 0.23321 0.07675 0.28399
 C1517 C 0.34845 0.03832 0.75101
 C1518 C 0.33515 0.05133 0.78990
 C1519 C 0.31882 0.08493 0.79112
 C1520 C 0.31429 0.10298 0.75357
 C1521 C 0.35275 0.10464 0.73737
 C1522 C 0.36977 0.07218 0.73574
 C1523 C 0.31144 0.03982 0.72944
 C1524 C 0.29406 0.07350 0.73032
 H1525 H 0.33339 0.03446 0.81414
 H1526 H 0.30626 0.09550 0.81606
 H1527 H 0.36630 0.12939 0.72737
 H1528 H 0.39696 0.07218 0.72449
 H1529 H 0.29926 0.01642 0.71541
 H1530 H 0.26779 0.07824 0.71693
 C1531 C 0.85056 0.53906 0.24958
 C1532 C 0.81378 0.53813 0.27157
 C1533 C 0.79562 0.57100 0.27385
 C1534 C 0.81445 0.60241 0.25269
 C1535 C 0.85296 0.60448 0.26815
 C1536 C 0.87165 0.57297 0.26574
 C1537 C 0.83682 0.55418 0.21180
 C1538 C 0.81877 0.58713 0.21350
 H1539 H 0.80211 0.51345 0.28363
 H1540 H 0.76941 0.57371 0.28779
 H1541 H 0.86596 0.62976 0.27773
 H1542 H 0.90039 0.57481 0.27167
 H1543 H 0.83885 0.54012 0.18576
 H1544 H 0.80680 0.60003 0.18933
 C1545 C 0.96302 0.25188 0.15105
 C1546 C 0.96070 0.23088 0.18833
 C1547 C 0.92682 0.23243 0.20529
 C1548 C 0.89800 0.25569 0.18433
 C1549 C 0.91663 0.29293 0.17959
 C1550 C 0.95041 0.29107 0.16384
 C1551 C 0.92934 0.23645 0.12951
 C1552 C 0.89668 0.23883 0.14604
 H1553 H 0.98369 0.21677 0.20097
 H1554 H 0.92148 0.21950 0.23170
 H1555 H 0.90642 0.31810 0.19198
 H1556 H 0.96773 0.31500 0.16619
 H1557 H 0.92974 0.22419 0.10268
 H1558 H 0.87206 0.22853 0.13244
 C1559 C 0.46148 0.75186 0.65132
 C1560 C 0.45921 0.73063 0.68847
 C1561 C 0.42529 0.73177 0.70532
 C1562 C 0.39637 0.75490 0.68442
 C1563 C 0.41470 0.79235 0.67995
 C1564 C 0.44853 0.79088 0.66423
 C1565 C 0.42797 0.73636 0.62954
 C1566 C 0.39524 0.73831 0.64602
 H1567 H 0.48226 0.71663 0.70112
 H1568 H 0.41998 0.71862 0.73162
 H1569 H 0.40417 0.81740 0.69233
 H1570 H 0.46559 0.81501 0.66646
 H1571 H 0.42849 0.72452 0.60252
 H1572 H 0.37070 0.72811 0.63222
 C1573 C 0.46064 0.24768 0.84718
 C1574 C 0.45834 0.26897 0.81006
 C1575 C 0.42431 0.26784 0.79318
 C1576 C 0.39530 0.24462 0.81399
 C1577 C 0.41340 0.20718 0.81838
 C1578 C 0.44733 0.20866 0.83418
 C1579 C 0.42733 0.26305 0.86894
 C1580 C 0.39453 0.26112 0.85243
 H1581 H 0.48146 0.28298 0.79744
 H1582 H 0.41899 0.28101 0.76688
 H1583 H 0.40260 0.18215 0.80595
 H1584 H 0.46419 0.18455 0.83199
 H1585 H 0.42801 0.27471 0.89603
 H1586 H 0.37016 0.27125 0.86628
 C1587 C 0.96260 0.75037 0.34939
 C1588 C 0.94779 0.78809 0.33535
 C1589 C 0.91472 0.78643 0.31731
 C1590 C 0.89896 0.74730 0.31332
 C1591 C 0.92993 0.72572 0.29462
 C1592 C 0.96294 0.72797 0.31273
 C1593 C 0.92878 0.73459 0.37067
 C1594 C 0.89706 0.73233 0.35203
 H1595 H 0.96220 0.81403 0.33717
 H1596 H 0.90202 0.81055 0.30513
 H1597 H 0.92684 0.71146 0.26852
 H1598 H 0.98730 0.71552 0.30112
 H1599 H 0.92736 0.72849 0.39944
 H1600 H 0.87183 0.72293 0.36508
 C1601 C 0.03850 0.74899 0.34958
 C1602 C 0.07234 0.76497 0.37089
 C1603 C 0.10404 0.76707 0.35238
 C1604 C 0.10212 0.75166 0.31381
 C1605 C 0.08636 0.71260 0.31812
 C1606 C 0.05329 0.71114 0.33596
 C1607 C 0.03814 0.77107 0.31273
 C1608 C 0.07114 0.77307 0.29474
 H1609 H 0.07377 0.77142 0.39958
 H1610 H 0.12924 0.77670 0.36544
 H1611 H 0.09904 0.68835 0.30623
 H1612 H 0.03887 0.68522 0.33785
 H1613 H 0.01380 0.78350 0.30093
 H1614 H 0.07424 0.78713 0.26854
 C1615 C 0.53626 0.25063 0.84666
 C1616 C 0.56991 0.23527 0.86804
 C1617 C 0.60242 0.23722 0.85119
 C1618 C 0.60111 0.25381 0.81276
 C1619 C 0.57179 0.23059 0.79220
 C1620 C 0.53802 0.22935 0.80948
 C1621 C 0.54933 0.28965 0.83354
 C1622 C 0.58300 0.29120 0.81743
 H1623 H 0.56970 0.22353 0.89508
 H1624 H 0.62695 0.22695 0.86479
 H1625 H 0.57671 0.21747 0.76582
 H1626 H 0.51472 0.21530 0.79712
 H1627 H 0.53239 0.31373 0.83149
 H1628 H 0.59351 0.31626 0.80490
 C1629 C 0.53699 0.74911 0.65212
 C1630 C 0.54973 0.71009 0.66530
 C1631 C 0.58340 0.70853 0.68150
 C1632 C 0.60180 0.74593 0.68625
 C1633 C 0.60323 0.76257 0.64786
 C1634 C 0.57071 0.76456 0.63091
 C1635 C 0.53896 0.77038 0.68932
 C1636 C 0.57274 0.76913 0.70674
 H1637 H 0.53254 0.68605 0.66750
 H1638 H 0.59368 0.68349 0.69414
 H1639 H 0.62782 0.77299 0.63445
 H1640 H 0.57051 0.77655 0.60396
 H1641 H 0.51581 0.78447 0.70156
 H1642 H 0.57784 0.78226 0.73312
 C1643 C 0.03856 0.24889 0.15128
 C1644 C 0.05137 0.20992 0.16451
 C1645 C 0.08523 0.20840 0.18031
 C1646 C 0.10369 0.24582 0.18470
 C1647 C 0.10480 0.26228 0.14627
 C1648 C 0.07212 0.26423 0.12966
 C1649 C 0.04090 0.27028 0.18837
 C1650 C 0.07487 0.26911 0.20541
 H1651 H 0.03411 0.18598 0.16722
 H1652 H 0.09559 0.18343 0.19304
 H1653 H 0.12927 0.27261 0.13259
 H1654 H 0.07170 0.27611 0.10267
 H1655 H 0.01787 0.28435 0.20085
 H1656 H 0.08024 0.28232 0.23171
 C1657 C -0.10012 1.00033 0.78787
 C1658 C -0.08702 0.96156 0.80140
 C1659 C -0.07092 0.96055 0.83515
 C1660 C -0.06618 0.99819 0.85292
 C1661 C -0.04567 1.02108 0.82347
 C1662 C -0.06299 1.02182 0.78959
 C1663 C -0.12143 1.01616 0.82129
 C1664 C -0.10453 1.01468 0.85401
 H1665 H -0.08475 0.93727 0.78470
 H1666 H -0.05836 0.93568 0.84593
 H1667 H -0.01937 1.03446 0.82842
 H1668 H -0.05071 1.03574 0.76626
 H1669 H -0.14835 1.02807 0.82063
 H1670 H -0.11788 1.02533 0.87848
 C1671 C 0.40197 0.50037 0.28722
 C1672 C 0.41562 0.53806 0.30268
 C1673 C 0.43367 0.53615 0.33579
 C1674 C 0.43800 0.49682 0.35088
 C1675 C 0.39945 0.48132 0.35246
 C1676 C 0.38076 0.48406 0.32083
 C1677 C 0.43878 0.47842 0.28655
 C1678 C 0.45687 0.47593 0.31955
 H1679 H 0.41334 0.56418 0.28877
 H1680 H 0.44553 0.56027 0.34902
 H1681 H 0.38637 0.47155 0.37754
 H1682 H 0.35195 0.47829 0.32236
 H1683 H 0.45051 0.46641 0.26197
 H1684 H 0.48303 0.46193 0.32243
 C1685 C 0.60103 0.00133 0.28819
 C1686 C 0.56385 -0.02000 0.29007
 C1687 C 0.54666 -0.01884 0.32387
 C1688 C 0.56730 0.00426 0.35318
 C1689 C 0.60563 -0.01235 0.35450
 C1690 C 0.62243 -0.01423 0.32181
 C1691 C 0.58823 0.04032 0.30136
 C1692 C 0.57215 0.04171 0.33507
 H1693 H 0.55145 -0.03416 0.26687
 H1694 H 0.52034 -0.03210 0.32888
 H1695 H 0.61905 -0.02270 0.37914
 H1696 H 0.64934 -0.02618 0.32127
 H1697 H 0.58643 0.06456 0.28453
 H1698 H 0.55989 0.06677 0.34569
 C1699 C 0.09863 0.49959 0.78909
 C1700 C 0.06208 0.52194 0.78836
 C1701 C 0.04436 0.52494 0.82144
 C1702 C 0.06334 0.50413 0.85288
 C1703 C 0.06707 0.46463 0.83812
 C1704 C 0.08470 0.46221 0.80497
 C1705 C 0.12035 0.51602 0.82247
 C1706 C 0.10205 0.51923 0.85418
 H1707 H 0.05021 0.53374 0.76367
 H1708 H 0.01837 0.53923 0.82432
 H1709 H 0.05504 0.44077 0.85159
 H1710 H 0.08641 0.43593 0.79129
 H1711 H 0.14922 0.52149 0.82386
 H1712 H 0.11548 0.52904 0.87914
 C1713 C 0.09804 0.49939 0.71302
 C1714 C 0.11914 0.48291 0.67952
 C1715 C 0.10034 0.47954 0.64799
 C1716 C 0.06176 0.49464 0.64949
 C1717 C 0.04303 0.47393 0.68113
 C1718 C 0.06125 0.47705 0.71408
 C1719 C 0.08426 0.53672 0.69715
 C1720 C 0.06608 0.53420 0.66415
 H1721 H 0.14797 0.47754 0.67791
 H1722 H 0.11336 0.46963 0.62298
 H1723 H 0.01688 0.45965 0.67848
 H1724 H 0.04961 0.46533 0.73888
 H1725 H 0.08652 0.56303 0.71073
 H1726 H 0.05411 0.55803 0.65072
 C1727 C 0.60022 0.99892 0.21260
 C1728 C 0.56311 1.02014 0.21119
 C1729 C 0.54535 1.01906 0.17755
 C1730 C 0.56541 0.99613 0.14798
 C1731 C 0.60381 1.01288 0.14637
 C1732 C 0.62114 1.01463 0.17881
 C1733 C 0.58694 0.95994 0.19946
 C1734 C 0.57032 0.95862 0.16592
 H1735 H 0.55117 1.03417 0.23457
 H1736 H 0.51903 1.03224 0.17285
 H1737 H 0.61695 1.02353 0.12172
 H1738 H 0.64812 1.02665 0.17899
 H1739 H 0.58518 0.93567 0.21629
 H1740 H 0.55767 0.93357 0.15538
 C1741 C 0.40196 0.49941 0.21126
 C1742 C 0.43851 0.52212 0.21201
 C1743 C 0.45660 0.52471 0.17908
 C1744 C 0.43792 0.50322 0.14780
 C1745 C 0.43402 0.46394 0.16310
 C1746 C 0.41603 0.46190 0.19609
 C1747 C 0.38059 0.51516 0.17748
 C1748 C 0.39921 0.51799 0.14591
 H1749 H 0.45008 0.53453 0.23659
 H1750 H 0.48259 0.53921 0.17624
 H1751 H 0.44616 0.43998 0.15011
 H1752 H 0.41413 0.43582 0.21012
 H1753 H 0.35176 0.52059 0.17583
 H1754 H 0.38607 0.52744 0.12070
 C1755 C -0.09989 0.00178 0.71232
 C1756 C -0.12099 -0.01437 0.67875
 C1757 C -0.10383 -0.01300 0.64627
 C1758 C -0.06544 0.00392 0.64765
 C1759 C -0.07038 0.04162 0.66517
 C1760 C -0.08685 0.04064 0.69871
 C1761 C -0.06269 -0.01931 0.71112
 C1762 C -0.04514 -0.01859 0.67747
 H1763 H -0.14797 -0.02639 0.67916
 H1764 H -0.11704 -0.02403 0.62177
 H1765 H -0.05789 0.06658 0.65434
 H1766 H -0.08516 0.06514 0.71522
 H1767 H -0.05052 -0.03298 0.73467
 H1768 H -0.01878 -0.03170 0.67294
 C1769 C -0.21231 0.90138 1.00067
 C1770 C -0.21299 0.93805 0.97828
 C1771 C -0.18001 0.95615 0.97559
 C1772 C -0.14870 0.93741 0.99675
 C1773 C -0.16369 0.93341 1.03612
 C1774 C -0.19679 0.91539 1.03821
 C1775 C -0.17878 0.88003 0.98467
 C1776 C -0.14719 0.89871 0.98172
 H1777 H -0.23756 0.94970 0.96614
 H1778 H -0.17713 0.98223 0.96128
 H1779 H -0.15043 0.94551 1.06009
 H1780 H -0.21068 0.91341 1.06433
 H1781 H -0.17721 0.85114 0.97936
 H1782 H -0.12216 0.88553 0.97219
 C1783 C 0.28736 0.40190 0.49832
 C1784 C 0.30035 0.41521 0.45940
 C1785 C 0.33399 0.43153 0.45805
 C1786 C 0.35216 0.43620 0.49551
 C1787 C 0.32301 0.45652 0.51870
 C1788 C 0.28924 0.43901 0.51980
 C1789 C 0.32091 0.38067 0.51389
 C1790 C 0.35346 0.39771 0.51210
 H1791 H 0.28335 0.41744 0.43527
 H1792 H 0.34440 0.44430 0.43310
 H1793 H 0.32807 0.48282 0.53203
 H1794 H 0.26610 0.45112 0.53400
 H1795 H 0.32043 0.35378 0.52607
 H1796 H 0.37791 0.38446 0.52296
 C1797 C 0.28827 0.59805 -0.00047
 C1798 C 0.32197 0.61904 0.01615
 C1799 C 0.35335 0.60023 0.01903
 C1800 C 0.35146 0.56174 0.00339
 C1801 C 0.31990 0.54279 0.02406
 C1802 C 0.28711 0.56106 0.02142
 C1803 C 0.30371 0.58452 -0.03808
 C1804 C 0.33657 0.56637 -0.03600
 H1805 H 0.32380 0.64782 0.02209
 H1806 H 0.37848 0.61316 0.02907
 H1807 H 0.32247 0.51649 0.03801
 H1808 H 0.26236 0.54936 0.03320
 H1809 H 0.28993 0.58685 -0.06428
 H1810 H 0.34968 0.55454 -0.06005
 C1811 C -0.21138 0.09947 0.49898
 C1812 C -0.19638 0.08580 0.46121
 C1813 C -0.16351 0.06763 0.46290
 C1814 C -0.14812 0.06313 0.50209
 C1815 C -0.14597 0.10168 0.51753
 C1816 C -0.17745 0.12047 0.51519
 C1817 C -0.21229 0.06261 0.52102
 C1818 C -0.17949 0.04432 0.52325
 H1819 H -0.21049 0.08804 0.43517
 H1820 H -0.15069 0.05575 0.43872
 H1821 H -0.12069 0.11457 0.52725
 H1822 H -0.17568 0.14918 0.52145
 H1823 H -0.23689 0.05101 0.53322
 H1824 H -0.17679 0.01807 0.53728
 C1825 C 0.71259 0.09997 0.49969
 C1826 C 0.67919 0.12161 0.48357
 C1827 C 0.64734 0.10324 0.48065
 C1828 C 0.64854 0.06452 0.49565
 C1829 C 0.67963 0.04553 0.47451
 C1830 C 0.71282 0.06334 0.47722
 C1831 C 0.69707 0.08605 0.53716
 C1832 C 0.66378 0.06838 0.53501
 H1833 H 0.67802 0.15046 0.47783
 H1834 H 0.62243 0.11658 0.47093
 H1835 H 0.67642 0.01954 0.46008
 H1836 H 0.73721 0.05154 0.46502
 H1837 H 0.71111 0.08778 0.56330
 H1838 H 0.65054 0.05636 0.55896
 C1839 C 0.21232 0.59866 0.99956
 C1840 C 0.19650 0.58453 1.03681
 C1841 C 0.16324 0.56691 1.03424
 C1842 C 0.14831 0.56337 0.99471
 C1843 C 0.14728 0.60220 0.97998
 C1844 C 0.17911 0.62050 0.98335
 C1845 C 0.21268 0.56214 0.97687
 C1846 C 0.17948 0.54444 0.97371
 H1847 H 0.21030 0.58608 1.06308
 H1848 H 0.14980 0.55474 1.05800
 H1849 H 0.12244 0.61568 0.97025
 H1850 H 0.17801 0.64943 0.97804
 H1851 H 0.23717 0.55030 0.96492
 H1852 H 0.17633 0.51852 0.95913
 C1853 C 0.21209 0.40167 0.50049
 C1854 C 0.17843 0.38045 0.48474
 C1855 C 0.14595 0.39737 0.48672
 C1856 C 0.14745 0.43572 0.50370
 C1857 C 0.16563 0.43072 0.54109
 C1858 C 0.19917 0.41450 0.53956
 C1859 C 0.21037 0.43897 0.47939
 C1860 C 0.17671 0.45637 0.48071
 H1861 H 0.17879 0.35365 0.47235
 H1862 H 0.12139 0.38411 0.47586
 H1863 H 0.15527 0.44312 0.56621
 H1864 H 0.21615 0.41641 0.56374
 H1865 H 0.23356 0.45131 0.46529
 H1866 H 0.17180 0.48278 0.46766
 C1867 C 0.71177 0.90111 -0.00046
 C1868 C 0.69639 0.91475 -0.03816
 C1869 C 0.66334 0.93256 -0.03635
 C1870 C 0.64823 0.93679 0.00290
 C1871 C 0.64658 0.89818 0.01826
 C1872 C 0.67816 0.87968 0.01562
 C1873 C 0.71247 0.93793 0.02170
 C1874 C 0.67953 0.95587 0.02405
 H1875 H 0.71030 0.91268 -0.06424
 H1876 H 0.65019 0.94437 -0.06046
 H1877 H 0.62152 0.88494 0.02790
 H1878 H 0.67660 0.85085 0.02136
 H1879 H 0.73701 0.94976 0.03392
 H1880 H 0.67666 0.98203 0.03820
 C1881 C -0.00070 0.78760 0.90144
 C1882 C 0.01453 0.82137 0.88007
 C1883 C 0.01265 0.85393 0.89704
 C1884 C -0.00367 0.85243 0.93558
 C1885 C -0.04099 0.83395 0.93110
 C1886 C -0.03954 0.80030 0.91488
 C1887 C 0.02097 0.78957 0.93847
 C1888 C 0.01979 0.82336 0.95590
 H1889 H 0.02655 0.82099 0.85313
 H1890 H 0.02326 0.87854 0.88373
 H1891 H -0.06588 0.84413 0.94397
 H1892 H -0.06349 0.78306 0.91737
 H1893 H 0.03531 0.76647 0.95060
 H1894 H 0.03322 0.82846 0.98215
 C1895 C 0.50030 0.28830 0.40088
 C1896 C 0.51578 0.32199 0.37948
 C1897 C 0.51406 0.35459 0.39632
 C1898 C 0.49763 0.35323 0.43472
 C1899 C 0.46015 0.33500 0.43008
 C1900 C 0.46145 0.30125 0.41402
 C1901 C 0.52167 0.29021 0.43806
 C1902 C 0.52071 0.32406 0.45531
 H1903 H 0.52748 0.32171 0.35244
 H1904 H 0.52429 0.37920 0.38273
 H1905 H 0.43524 0.34545 0.44270
 H1906 H 0.43737 0.28416 0.41631
 H1907 H 0.53564 0.26700 0.45045
 H1908 H 0.53394 0.32914 0.48166
 C1909 C -0.00228 0.28779 0.59877
 C1910 C -0.03981 0.30307 0.58484
 C1911 C -0.03781 0.33622 0.56696
 C1912 C 0.00145 0.35154 0.56300
 C1913 C 0.01658 0.35317 0.60172
 C1914 C 0.01385 0.32147 0.62024
 C1915 C 0.02001 0.28728 0.56212
 C1916 C 0.02257 0.32034 0.54414
 H1917 H -0.06589 0.28899 0.58678
 H1918 H -0.06180 0.34930 0.55494
 H1919 H 0.02626 0.37829 0.61495
 H1920 H 0.01973 0.32293 0.64906
 H1921 H 0.03214 0.26278 0.55039
 H1922 H 0.03678 0.32333 0.51806
 C1923 C 0.50105 0.78708 0.09974
 C1924 C 0.47958 0.78886 0.06262
 C1925 C 0.48064 0.82270 0.04532
 C1926 C 0.50378 0.85210 0.06582
 C1927 C 0.48737 0.85327 0.10431
 C1928 C 0.48558 0.82059 0.12118
 C1929 C 0.53990 0.80044 0.08658
 C1930 C 0.54121 0.83417 0.07046
 H1931 H 0.46545 0.76558 0.05033
 H1932 H 0.46731 0.82766 0.01902
 H1933 H 0.47710 0.87781 0.11783
 H1934 H 0.47377 0.81999 0.14820
 H1935 H 0.56404 0.78366 0.08439
 H1936 H 0.56614 0.84484 0.05790
 C1937 C 0.49884 0.71151 0.09943
 C1938 C 0.51466 0.67790 0.12052
 C1939 C 0.51292 0.64538 0.10337
 C1940 C 0.49610 0.64676 0.06496
 C1941 C 0.45860 0.66445 0.06997
 C1942 C 0.45990 0.69806 0.08642
 C1943 C 0.51986 0.71013 0.06215
 C1944 C 0.51883 0.67644 0.04458
 H1945 H 0.52656 0.67827 0.14757
 H1946 H 0.52331 0.62078 0.11675
 H1947 H 0.43358 0.65370 0.05752
 H1948 H 0.43561 0.71470 0.08469
 H1949 H 0.53370 0.73359 0.04994
 H1950 H 0.53186 0.67178 0.01815
 C1951 C -0.00165 0.21175 0.59849
 C1952 C 0.03582 0.19653 0.58465
 C1953 C 0.03373 0.16355 0.56643
 C1954 C -0.00557 0.14826 0.56212
 C1955 C -0.02066 0.14640 0.60079
 C1956 C -0.01777 0.17795 0.61963
 C1957 C -0.02399 0.21255 0.56170
 C1958 C -0.02664 0.17963 0.54342
 H1959 H 0.06194 0.21051 0.58695
 H1960 H 0.05770 0.15053 0.55446
 H1961 H -0.03038 0.12120 0.61377
 H1962 H -0.02345 0.17630 0.64845
 H1963 H -0.03613 0.23715 0.55013
 H1964 H -0.04093 0.17683 0.51729
 C1965 C 0.50298 0.21275 0.40071
 C1966 C 0.54208 0.20000 0.41369
 C1967 C 0.54382 0.16625 0.42973
 C1968 C 0.50659 0.14771 0.43445
 C1969 C 0.48339 0.17668 0.45510
 C1970 C 0.48192 0.21055 0.43790
 C1971 C 0.48753 0.17905 0.37927
 C1972 C 0.48977 0.14637 0.39603
 H1973 H 0.56609 0.21720 0.41588
 H1974 H 0.56892 0.15598 0.44224
 H1975 H 0.47037 0.17144 0.48145
 H1976 H 0.46776 0.23359 0.45031
 H1977 H 0.47529 0.17951 0.35238
 H1978 H 0.47935 0.12174 0.38254
 C1979 C 0.00186 0.71219 0.90121
 C1980 C 0.04104 0.69940 0.91391
 C1981 C 0.04284 0.66566 0.92993
 C1982 C 0.00561 0.64724 0.93496
 C1983 C -0.01734 0.67626 0.95581
 C1984 C -0.01891 0.71010 0.93858
 C1985 C -0.01388 0.67851 0.87996
 C1986 C -0.01154 0.64586 0.89670
 H1987 H 0.06503 0.71663 0.91608
 H1988 H 0.06800 0.65539 0.94232
 H1989 H -0.03014 0.67107 0.98228
 H1990 H -0.03293 0.73317 0.95109
 H1991 H -0.02647 0.67895 0.85324
 H1992 H -0.02214 0.62125 0.88333
 C1993 C 0.25138 0.64960 0.96208
 C1994 C 0.28907 0.66328 0.94682
 C1995 C 0.28723 0.68153 0.91384
 C1996 C 0.24798 0.68610 0.89870
 C1997 C 0.23234 0.64756 0.89676
 C1998 C 0.23499 0.62867 0.92822
 C1999 C 0.22960 0.68651 0.96305
 C2000 C 0.22719 0.70486 0.93019
 H2001 H 0.31514 0.66094 0.96081
 H2002 H 0.31134 0.69343 0.90080
 H2003 H 0.22250 0.63464 0.87155
 H2004 H 0.22906 0.59988 0.92637
 H2005 H 0.21768 0.69811 0.98774
 H2006 H 0.21332 0.73113 0.92752
 C2007 C 0.75130 0.15086 0.46180
 C2008 C 0.78888 0.16460 0.44636
 C2009 C 0.78684 0.18289 0.41347
 C2010 C 0.74752 0.18739 0.39854
 C2011 C 0.73194 0.14884 0.39657
 C2012 C 0.73471 0.12992 0.42803
 C2013 C 0.72945 0.18774 0.46293
 C2014 C 0.72685 0.20611 0.43011
 H2015 H 0.81503 0.16232 0.46019
 H2016 H 0.81086 0.19487 0.40034
 H2017 H 0.72191 0.13602 0.37139
 H2018 H 0.72851 0.10116 0.42635
 H2019 H 0.71760 0.19931 0.48765
 H2020 H 0.71290 0.23234 0.42753
 C2021 C 0.25116 0.35015 0.46140
 C2022 C 0.23593 0.37146 0.42760
 C2023 C 0.23826 0.35461 0.39496
 C2024 C 0.25490 0.31625 0.39650
 C2025 C 0.29206 0.32111 0.41513
 C2026 C 0.29025 0.33724 0.44882
 C2027 C 0.22987 0.31292 0.45922
 C2028 C 0.23146 0.29562 0.42542
 H2029 H 0.22364 0.39825 0.42803
 H2030 H 0.22789 0.36789 0.37025
 H2031 H 0.31716 0.30864 0.40497
 H2032 H 0.31416 0.33511 0.46610
 H2033 H 0.21543 0.30059 0.48219
 H2034 H 0.21826 0.26926 0.42018
 C2035 C 0.74958 0.85038 0.96224
 C2036 C 0.71220 0.83633 0.94644
 C2037 C 0.71452 0.81839 0.91337
 C2038 C 0.75394 0.81450 0.89867
 C2039 C 0.76905 0.85321 0.89715
 C2040 C 0.76593 0.87181 0.92873
 C2041 C 0.77183 0.81374 0.96323
 C2042 C 0.77476 0.79573 0.93025
 H2043 H 0.68601 0.83817 0.96014
 H2044 H 0.69066 0.80623 0.89996
 H2045 H 0.77877 0.86642 0.87211
 H2046 H 0.77140 0.90071 0.92715
 H2047 H 0.78363 0.80205 0.98798
 H2048 H 0.78898 0.76966 0.92755
 C2049 C 0.74980 0.85057 0.03834
 C2050 C 0.78720 0.83691 0.05414
 C2051 C 0.78495 0.81907 0.08726
 C2052 C 0.74559 0.81487 0.10209
 C2053 C 0.73048 0.85348 0.10347
 C2054 C 0.73351 0.87200 0.07178
 C2055 C 0.72750 0.81374 0.03757
 C2056 C 0.72468 0.79581 0.07062
 H2057 H 0.81338 0.83898 0.04044
 H2058 H 0.80885 0.80722 0.10068
 H2059 H 0.72074 0.86667 0.12846
 H2060 H 0.72790 0.90084 0.07313
 H2061 H 0.71557 0.80189 0.01289
 H2062 H 0.71041 0.76965 0.07347
 C2063 C 0.24819 0.34967 0.53683
 C2064 C 0.20914 0.33644 0.54949
 C2065 C 0.20747 0.31992 0.58303
 C2066 C 0.24473 0.31507 0.60145
 C2067 C 0.26792 0.29484 0.57221
 C2068 C 0.26936 0.31250 0.53856
 C2069 C 0.26361 0.37074 0.57074
 C2070 C 0.26152 0.35354 0.60318
 H2071 H 0.18508 0.33457 0.53234
 H2072 H 0.18237 0.30726 0.59323
 H2073 H 0.28103 0.26850 0.57711
 H2074 H 0.28361 0.30044 0.51539
 H2075 H 0.27582 0.39767 0.57059
 H2076 H 0.27218 0.36672 0.62787
 C2077 C 0.75110 0.15032 0.53774
 C2078 C 0.71377 0.16435 0.55316
 C2079 C 0.71603 0.18220 0.58627
 C2080 C 0.75534 0.18601 0.60152
 C2081 C 0.77004 0.14724 0.60310
 C2082 C 0.76710 0.12874 0.57131
 C2083 C 0.77379 0.18691 0.53722
 C2084 C 0.77661 0.20484 0.57030
 H2085 H 0.68764 0.16259 0.53918
 H2086 H 0.69218 0.19434 0.59939
 H2087 H 0.77962 0.13403 0.62819
 H2088 H 0.77278 0.09990 0.57256
 H2089 H 0.78602 0.19863 0.51270
 H2090 H 0.79116 0.23083 0.57331
 C2091 C 0.25050 0.64873 0.03822
 C2092 C 0.21314 0.66272 0.05362
 C2093 C 0.21532 0.68029 0.08693
 C2094 C 0.25461 0.68389 0.10234
 C2095 C 0.26919 0.64508 0.10365
 C2096 C 0.26628 0.62686 0.07173
 C2097 C 0.27322 0.68528 0.03806
 C2098 C 0.27600 0.70291 0.07129
 H2099 H 0.18706 0.66109 0.03952
 H2100 H 0.19146 0.69234 0.10011
 H2101 H 0.27852 0.63157 0.12870
 H2102 H 0.27161 0.59796 0.07290
 H2103 H 0.28547 0.69720 0.01364
 H2104 H 0.29054 0.72888 0.07452
 C2105 C 0.14928 0.53757 0.75029
 C2106 C 0.16299 0.55292 0.71265
 C2107 C 0.18118 0.58600 0.71461
 C2108 C 0.18557 0.60123 0.75393
 C2109 C 0.14701 0.60292 0.76909
 C2110 C 0.12821 0.57129 0.76633
 C2111 C 0.18609 0.53690 0.77249
 C2112 C 0.20429 0.56989 0.77505
 H2113 H 0.16059 0.53897 0.68654
 H2114 H 0.19302 0.59917 0.69053
 H2115 H 0.13400 0.62810 0.77857
 H2116 H 0.09939 0.57292 0.77181
 H2117 H 0.19775 0.51231 0.78458
 H2118 H 0.23047 0.57274 0.78921
 C2119 C 0.65252 0.03786 0.25138
 C2120 C 0.68944 0.03969 0.22978
 C2121 C 0.70699 0.07346 0.23084
 C2122 C 0.68694 0.10271 0.25416
 C2123 C 0.64836 0.10406 0.23780
 C2124 C 0.63123 0.07152 0.23609
 C2125 C 0.66603 0.05087 0.29029
 C2126 C 0.68250 0.08453 0.29162
 H2127 H 0.70144 0.01648 0.21553
 H2128 H 0.73317 0.07844 0.21743
 H2129 H 0.63497 0.12860 0.22730
 H2130 H 0.60413 0.07118 0.22440
 H2131 H 0.66795 0.03394 0.31448
 H2132 H 0.69528 0.09504 0.31659
 C2133 C 0.84820 0.03849 0.74791
 C2134 C 0.81107 0.04043 0.76905
 C2135 C 0.79369 0.07412 0.76735
 C2136 C 0.81408 0.10323 0.74387
 C2137 C 0.85251 0.10494 0.76058
 C2138 C 0.86944 0.07247 0.76300
 C2139 C 0.83516 0.05096 0.70867
 C2140 C 0.81884 0.08456 0.70670
 H2141 H 0.79881 0.01733 0.78342
 H2142 H 0.76736 0.07912 0.78038
 H2143 H 0.86601 0.12971 0.77066
 H2144 H 0.89641 0.07241 0.77498
 H2145 H 0.83346 0.03367 0.68470
 H2146 H 0.80638 0.09468 0.68147
 C2147 C 0.35093 0.53746 0.24910
 C2148 C 0.31424 0.53623 0.22668
 C2149 C 0.29599 0.56904 0.22378
 C2150 C 0.31463 0.60073 0.24472
 C2151 C 0.31885 0.58587 0.28417
 C2152 C 0.33702 0.55301 0.28650
 C2153 C 0.37205 0.57122 0.23278
 C2154 C 0.35324 0.60265 0.22966
 H2155 H 0.30270 0.51141 0.21471
 H2156 H 0.26991 0.57156 0.20941
 H2157 H 0.30682 0.59908 0.30807
 H2158 H 0.33919 0.53931 0.31275
 H2159 H 0.40085 0.57298 0.22718
 H2160 H 0.36620 0.62782 0.21985
 C2161 C 0.35144 0.46134 0.24904
 C2162 C 0.37296 0.42802 0.26554
 C2163 C 0.35456 0.39620 0.26857
 C2164 C 0.31596 0.39735 0.25333
 C2165 C 0.29696 0.42871 0.27410
 C2166 C 0.31477 0.46187 0.27123
 C2167 C 0.33769 0.44544 0.21158
 C2168 C 0.31996 0.41217 0.21386
 H2169 H 0.40177 0.42682 0.27130
 H2170 H 0.36783 0.37129 0.27842
 H2171 H 0.27090 0.42571 0.28831
 H2172 H 0.30291 0.48646 0.28307
 H2173 H 0.33961 0.45917 0.18533
 H2174 H 0.30806 0.39866 0.18994
 C2175 C 0.84839 0.96288 0.75178
 C2176 C 0.86984 0.92913 0.73697
 C2177 C 0.85319 0.89638 0.73959
 C2178 C 0.81478 0.89761 0.75608
 C2179 C 0.81934 0.91660 0.79312
 C2180 C 0.83530 0.95046 0.79100
 C2181 C 0.81133 0.96020 0.73037
 C2182 C 0.79419 0.92622 0.73222
 H2183 H 0.89667 0.92958 0.72483
 H2184 H 0.86675 0.87176 0.72958
 H2185 H 0.80679 0.90652 0.81830
 H2186 H 0.83307 0.96794 0.81475
 H2187 H 0.79897 0.98302 0.71571
 H2188 H 0.76793 0.92068 0.71901
 C2189 C 0.65220 0.96245 0.24852
 C2190 C 0.68948 0.96058 0.26961
 C2191 C 0.70680 0.92687 0.26800
 C2192 C 0.68613 0.89770 0.24472
 C2193 C 0.64785 0.89612 0.26161
 C2194 C 0.63101 0.92866 0.26394
 C2195 C 0.66489 0.94971 0.20932
 C2196 C 0.68108 0.91611 0.20749
 H2197 H 0.70186 0.98371 0.28392
 H2198 H 0.73320 0.92187 0.28104
 H2199 H 0.63450 0.87144 0.27202
 H2200 H 0.60423 0.92893 0.27621
 H2201 H 0.66660 0.96682 0.18525
 H2202 H 0.69335 0.90584 0.18229
 C2203 C 0.14887 0.46143 0.75150
 C2204 C 0.16292 0.44612 0.78908
 C2205 C 0.18068 0.41298 0.78709
 C2206 C 0.18438 0.39771 0.74778
 C2207 C 0.14563 0.39603 0.73288
 C2208 C 0.12724 0.42771 0.73563
 C2209 C 0.18536 0.46201 0.72903
 C2210 C 0.20317 0.42900 0.72645
 H2211 H 0.16111 0.46013 0.81517
 H2212 H 0.19272 0.39985 0.81109
 H2213 H 0.13224 0.37086 0.72352
 H2214 H 0.09836 0.42613 0.73023
 H2215 H 0.19712 0.48656 0.71681
 H2216 H 0.22915 0.42610 0.71213
 C2217 C 0.03762 0.74867 0.84915
 C2218 C 0.07153 0.76412 0.87021
 C2219 C 0.10391 0.76195 0.85312
 C2220 C 0.10209 0.74522 0.81470
 C2221 C 0.08365 0.70792 0.81960
 C2222 C 0.05016 0.70960 0.83594
 C2223 C 0.03930 0.76995 0.81196
 C2224 C 0.07289 0.76850 0.79435
 H2225 H 0.07142 0.77643 0.89704
 H2226 H 0.12862 0.77248 0.86636
 H2227 H 0.09367 0.68284 0.80686
 H2228 H 0.03289 0.68563 0.83365
 H2229 H 0.01614 0.78423 0.79986
 H2230 H 0.07779 0.78165 0.76796
 C2231 C 0.53901 0.24955 0.34905
 C2232 C 0.55213 0.21069 0.33588
 C2233 C 0.58580 0.20955 0.31980
 C2234 C 0.60380 0.24718 0.31522
 C2235 C 0.57449 0.27009 0.29466
 C2236 C 0.54073 0.27090 0.31189
 C2237 C 0.57262 0.26525 0.37049
 C2238 C 0.60513 0.26369 0.35367
 H2239 H 0.53520 0.18646 0.33366
 H2240 H 0.59637 0.18464 0.30719
 H2241 H 0.57941 0.28332 0.26832
 H2242 H 0.51744 0.28472 0.29950
 H2243 H 0.57236 0.27695 0.39757
 H2244 H 0.62968 0.27408 0.36732
 C2245 C 0.53801 0.75081 0.15121
 C2246 C 0.55091 0.78993 0.16437
 C2247 C 0.58473 0.79174 0.18036
 C2248 C 0.60317 0.75451 0.18486
 C2249 C 0.57425 0.73096 0.20545
 C2250 C 0.54034 0.72943 0.18830
 C2251 C 0.57155 0.73573 0.12966
 C2252 C 0.60426 0.73802 0.14635
 H2253 H 0.53379 0.81386 0.16658
 H2254 H 0.59516 0.81686 0.19293
 H2255 H 0.57956 0.71776 0.23173
 H2256 H 0.51734 0.71503 0.20068
 H2257 H 0.57103 0.72379 0.10267
 H2258 H 0.62877 0.72799 0.13267
 C2259 C 0.03602 0.24966 0.64968
 C2260 C 0.03506 0.27188 0.68650
 C2261 C 0.06792 0.27486 0.70477
 C2262 C 0.09942 0.25418 0.68610
 C2263 C 0.08458 0.21466 0.68177
 C2264 C 0.05164 0.21225 0.66351
 C2265 C 0.06958 0.26620 0.62856
 C2266 C 0.10108 0.26941 0.64743
 H2267 H 0.01040 0.28372 0.69809
 H2268 H 0.07060 0.28910 0.73093
 H2269 H 0.09788 0.19076 0.69375
 H2270 H 0.03795 0.18596 0.66117
 H2271 H 0.07113 0.27188 0.59972
 H2272 H 0.12613 0.27939 0.63447
 C2273 C 0.96016 0.24966 0.64944
 C2274 C 0.96097 0.22724 0.68613
 C2275 C 0.92808 0.22451 0.70422
 C2276 C 0.89676 0.24556 0.68542
 C2277 C 0.91189 0.28493 0.68137
 C2278 C 0.94482 0.28713 0.66338
 C2279 C 0.92651 0.23337 0.62807
 C2280 C 0.89495 0.23045 0.64671
 H2281 H 0.98555 0.21512 0.69776
 H2282 H 0.92526 0.21016 0.73028
 H2283 H 0.89883 0.30889 0.69343
 H2284 H 0.95870 0.31333 0.66143
 H2285 H 0.92499 0.22749 0.59926
 H2286 H 0.86983 0.22061 0.63362
 C2287 C 0.46249 0.74732 0.15150
 C2288 C 0.42870 0.76250 0.13031
 C2289 C 0.39622 0.76009 0.14725
 C2290 C 0.39777 0.74333 0.18568
 C2291 C 0.41620 0.70617 0.18079
 C2292 C 0.44978 0.70811 0.16448
 C2293 C 0.46063 0.76848 0.18874
 C2294 C 0.42695 0.76679 0.20617
 H2295 H 0.42889 0.77461 0.10339
 H2296 H 0.37157 0.77028 0.13381
 H2297 H 0.40597 0.68096 0.19324
 H2298 H 0.46691 0.68414 0.16626
 H2299 H 0.48378 0.78285 0.20102
 H2300 H 0.42199 0.77984 0.23257
 C2301 C 0.46353 0.25193 0.34923
 C2302 C 0.45068 0.29101 0.33627
 C2303 C 0.41689 0.29267 0.32031
 C2304 C 0.39842 0.25536 0.31561
 C2305 C 0.42730 0.23213 0.29487
 C2306 C 0.46122 0.23074 0.31202
 C2307 C 0.43000 0.23639 0.37067
 C2308 C 0.39728 0.23857 0.35398
 H2309 H 0.46783 0.31505 0.33397
 H2310 H 0.40656 0.31775 0.30780
 H2311 H 0.42197 0.21903 0.26851
 H2312 H 0.48422 0.21660 0.29957
 H2313 H 0.43060 0.22406 0.39749
 H2314 H 0.37277 0.22800 0.36743
 C2315 C 0.96224 0.75128 0.84991
 C2316 C 0.94932 0.79036 0.83705
 C2317 C 0.91547 0.79199 0.82124
 C2318 C 0.89702 0.75464 0.81658
 C2319 C 0.92582 0.73147 0.79570
 C2320 C 0.95979 0.73012 0.81270
 C2321 C 0.92880 0.73570 0.87150
 C2322 C 0.89601 0.73784 0.85494
 H2323 H 0.96648 0.81440 0.83468
 H2324 H 0.90505 0.81707 0.80878
 H2325 H 0.92039 0.71837 0.76937
 H2326 H 0.98271 0.71598 0.80012
 H2327 H 0.92952 0.72333 0.89830
 H2328 H 0.87156 0.72724 0.86846
   
