data_POSCAR
  _audit_creation_date              2014-09-24
  _audit_creation_method            'ToBaCCo'
  _symmetry_space_group_name_H-M    'P1'
  _symmetry_Int_Tables_number       1
  _symmetry_cell_setting            triclinic
  loop_
  _symmetry_equiv_pos_as_xyz
 x,y,z
_cell_length_a 43.0845
_cell_length_b 53.9591
_cell_length_c 43.9961
_cell_angle_alpha 89.807600
_cell_angle_beta 89.898400
_cell_angle_gamma 90.119800
loop_
  _atom_site_label
  _atom_site_type_symbol
  _atom_site_fract_x
  _atom_site_fract_y
  _atom_site_fract_z
C1 C 1.20637 0.26144 0.29781
 H2 H 1.20403 0.24155 0.30008
 C3 C 1.18876 0.27715 0.31623
 H4 H 1.17267 0.26940 0.33268
 C5 C 1.23032 0.29598 0.27383
 H6 H 1.24683 0.30332 0.25766
 C7 C 1.21321 0.31229 0.29176
 H8 H 1.21635 0.33211 0.28903
 N9 N 1.22630 0.27105 0.27678
 C10 C 1.23702 0.21494 0.20637
 H11 H 1.26208 0.21454 0.20484
 C12 C 1.21923 0.19969 0.18765
 H13 H 1.23058 0.18742 0.17169
 C14 C 1.19155 0.23124 0.22923
 H15 H 1.18085 0.24369 0.24528
 C16 C 1.17287 0.21626 0.21090
 H17 H 1.14784 0.21702 0.21310
 Zn18 Zn 1.24954 0.24908 0.25211
 N19 N 1.22305 0.22997 0.22704
 C20 C 1.26860 0.20295 0.27666
 N21 N 1.27263 0.22795 0.27813
 C22 C 1.29250 0.23826 0.29855
 C23 C 1.31018 0.22319 0.31778
 C24 C 1.28574 0.18723 0.29542
 C25 C 1.26241 0.28164 0.20435
 C26 C 1.28035 0.29636 0.18494
 C27 C 1.32650 0.28070 0.20947
 C28 C 1.30768 0.26622 0.22845
 N29 N 1.27621 0.26735 0.22598
 H30 H 1.25211 0.19509 0.26096
 H31 H 1.29483 0.25820 0.29965
 H32 H 1.32629 0.23160 0.33361
 H33 H 1.28256 0.16734 0.29368
 H34 H 1.23737 0.28193 0.20263
 H35 H 1.26913 0.30809 0.16824
 H36 H 1.35150 0.28013 0.21196
 H37 H 1.31826 0.25435 0.24527
 C38 C 1.18689 0.20020 0.19014
 C39 C 1.19212 0.30281 0.31300
 C40 C 1.31266 0.29607 0.18774
 C41 C 1.30690 0.19740 0.31602
 C42 C 0.70709 -0.23718 0.29593
 H43 H 0.70482 -0.25705 0.29845
 C44 C 0.68945 -0.22136 0.31417
 H45 H 0.67344 -0.22901 0.33075
 C46 C 0.73088 -0.20279 0.27147
 H47 H 0.74735 -0.19555 0.25518
 C48 C 0.71376 -0.18636 0.28923
 H49 H 0.71685 -0.16656 0.28629
 N50 N 0.72695 -0.22769 0.27476
 C51 C 0.73757 -0.28456 0.20539
 H52 H 0.76263 -0.28508 0.20392
 C53 C 0.71972 -0.29993 0.18690
 H54 H 0.73102 -0.31243 0.17117
 C55 C 0.69217 -0.26776 0.22784
 H56 H 0.68152 -0.25506 0.24362
 C57 C 0.67343 -0.28286 0.20973
 H58 H 0.64840 -0.28194 0.21184
 Zn59 Zn 0.75017 -0.24988 0.25046
 N60 N 0.72366 -0.26923 0.22576
 C61 C 0.76935 -0.29569 0.27583
 N62 N 0.77327 -0.27066 0.27682
 C63 C 0.79310 -0.26004 0.29705
 C64 C 0.81083 -0.27482 0.31654
 C65 C 0.78657 -0.31110 0.29490
 C66 C 0.76306 -0.21782 0.20223
 C67 C 0.78105 -0.20342 0.18252
 C68 C 0.82715 -0.21906 0.20716
 C69 C 0.80828 -0.23322 0.22642
 N70 N 0.77681 -0.23195 0.22403
 H71 H 0.75290 -0.30380 0.26028
 H72 H 0.79536 -0.24008 0.29776
 H73 H 0.82694 -0.26628 0.33224
 H74 H 0.78358 -0.33102 0.29366
 H75 H 0.73801 -0.21743 0.20057
 H76 H 0.76988 -0.19179 0.16568
 H77 H 0.85216 -0.21973 0.20958
 H78 H 0.81882 -0.24499 0.24338
 C79 C 0.68738 -0.29922 0.18929
 C80 C 0.69275 -0.19572 0.31062
 C81 C 0.81336 -0.20386 0.18523
 C82 C 0.80765 -0.30060 0.31526
 C83 C 0.70433 0.26286 -0.20491
 H84 H 0.70200 0.24298 -0.20257
 C85 C 0.68694 0.27861 -0.18632
 H86 H 0.67105 0.27089 -0.16968
 C87 C 0.72809 0.29736 -0.22916
 H88 H 0.74448 0.30467 -0.24547
 C89 C 0.71122 0.31371 -0.21107
 H90 H 0.71442 0.33351 -0.21380
 N91 N 0.72408 0.27244 -0.22613
 C92 C 0.73469 0.21612 -0.29633
 H93 H 0.75974 0.21591 -0.29808
 C94 C 0.71692 0.20064 -0.31476
 H95 H 0.72827 0.18838 -0.33073
 C96 C 0.68924 0.23218 -0.27317
 H97 H 0.67854 0.24461 -0.25710
 C98 C 0.67057 0.21695 -0.29120
 H99 H 0.64556 0.21751 -0.28876
 Zn100 Zn 0.74726 0.25047 -0.25086
 N101 N 0.72073 0.23113 -0.27563
 C102 C 0.76688 0.20451 -0.22618
 N103 N 0.77068 0.22954 -0.22486
 C104 C 0.79057 0.24002 -0.20457
 C105 C 0.80842 0.22510 -0.18533
 C106 C 0.78422 0.18897 -0.20738
 C107 C 0.75962 0.28299 -0.29882
 C108 C 0.77735 0.29783 -0.31828
 C109 C 0.82375 0.28240 -0.29388
 C110 C 0.80509 0.26781 -0.27488
 N111 N 0.77361 0.26877 -0.27724
 H112 H 0.75040 0.19649 -0.24178
 H113 H 0.79275 0.25998 -0.20358
 H114 H 0.82454 0.23354 -0.16956
 H115 H 0.78129 0.16906 -0.20887
 H116 H 0.73457 0.28315 -0.30044
 H117 H 0.76583 0.30950 -0.33489
 H118 H 0.84877 0.28189 -0.29134
 H119 H 0.81582 0.25599 -0.25809
 C120 C 0.68460 0.20089 -0.31197
 C121 C 0.69036 0.30427 -0.18959
 C122 C 0.80971 0.29776 -0.31557
 C123 C 0.80532 0.19933 -0.18693
 C124 C 1.20549 -0.23723 -0.20386
 H125 H 1.20310 -0.25708 -0.20117
 C126 C 1.18808 -0.22124 -0.18564
 H127 H 1.17210 -0.22873 -0.16892
 C128 C 1.22945 -0.20307 -0.22866
 H129 H 1.24591 -0.19600 -0.24506
 C130 C 1.21254 -0.18648 -0.21094
 H131 H 1.21580 -0.16671 -0.21401
 N132 N 1.22535 -0.22794 -0.22516
 C133 C 1.23593 -0.28534 -0.29387
 H134 H 1.26099 -0.28588 -0.29528
 C135 C 1.21810 -0.30081 -0.31226
 H136 H 1.22942 -0.31340 -0.32786
 C137 C 1.19049 -0.26838 -0.27167
 H138 H 1.17982 -0.25558 -0.25602
 C139 C 1.17177 -0.28357 -0.28968
 H140 H 1.14674 -0.28263 -0.28764
 Zn141 Zn 1.24850 -0.25036 -0.24920
 N142 N 1.22198 -0.26987 -0.27368
 C143 C 1.26768 -0.29597 -0.22328
 N144 N 1.27155 -0.27094 -0.22257
 C145 C 1.29136 -0.26013 -0.20248
 C146 C 1.30914 -0.27473 -0.18283
 C147 C 1.28495 -0.31121 -0.20404
 C148 C 1.26154 -0.21866 -0.29775
 C149 C 1.27961 -0.20444 -0.31759
 C150 C 1.32562 -0.22012 -0.29280
 C151 C 1.30667 -0.23409 -0.27341
 N152 N 1.27521 -0.23271 -0.27581
 H153 H 1.25125 -0.30423 -0.23874
 H154 H 1.29358 -0.24015 -0.20201
 H155 H 1.32525 -0.26604 -0.16726
 H156 H 1.28203 -0.33114 -0.20507
 H157 H 1.23649 -0.21819 -0.29942
 H158 H 1.26851 -0.19287 -0.33453
 H159 H 1.35062 -0.22086 -0.29036
 H160 H 1.31714 -0.24579 -0.25635
 C161 C 1.18576 -0.30006 -0.30995
 C162 C 1.19159 -0.19564 -0.18936
 C163 C 1.31192 -0.20499 -0.31486
 C164 C 1.30602 -0.30052 -0.18383
 C165 C 0.26484 0.21786 0.70235
 H166 H 0.23979 0.21767 0.70064
 C167 C 0.28261 0.20341 0.68269
 H168 H 0.27127 0.19197 0.66582
 C169 C 0.31028 0.23274 0.72666
 H170 H 0.32099 0.24430 0.74366
 C171 C 0.32894 0.21852 0.70744
 H172 H 0.35395 0.21896 0.70993
 N173 N 0.27880 0.23175 0.72419
 C174 C 0.20909 0.23689 0.79604
 H175 H 0.20708 0.25676 0.79857
 C176 C 0.19128 0.22105 0.81431
 H177 H 0.17541 0.22874 0.83090
 C178 C 0.23243 0.20253 0.77154
 H179 H 0.24880 0.19532 0.75523
 C180 C 0.21513 0.18607 0.78931
 H181 H 0.21806 0.16628 0.78630
 Zn182 Zn 0.25237 0.24966 0.75059
 N183 N 0.22881 0.22743 0.77484
 C184 C 0.19466 0.26804 0.72801
 N185 N 0.22616 0.26932 0.72589
 C186 C 0.24029 0.28484 0.70570
 C187 C 0.22266 0.30067 0.68753
 C188 C 0.17613 0.28358 0.71021
 C189 C 0.29537 0.25942 0.79728
 C190 C 0.31301 0.27406 0.81697
 C191 C 0.28884 0.31048 0.79549
 C192 C 0.27171 0.29521 0.77623
 N193 N 0.27562 0.27019 0.77706
 H194 H 0.18383 0.25521 0.74365
 H195 H 0.26535 0.28523 0.70422
 H196 H 0.23413 0.31339 0.67204
 H197 H 0.15110 0.28286 0.71243
 H198 H 0.29760 0.23946 0.79789
 H199 H 0.32903 0.26541 0.83268
 H200 H 0.28583 0.33039 0.79440
 H201 H 0.25530 0.30344 0.76072
 C202 C 0.19426 0.19540 0.81076
 C203 C 0.31492 0.20356 0.68547
 C204 C 0.30980 0.29984 0.81588
 C205 C 0.19032 0.30021 0.69004
 C206 C 0.76287 0.71741 0.70190
 H207 H 0.73783 0.71696 0.70021
 C208 C 0.78086 0.70292 0.68247
 H209 H 0.76969 0.69119 0.66579
 C210 C 0.80809 0.73300 0.72594
 H211 H 0.81863 0.74485 0.74275
 C212 C 0.82696 0.71875 0.70695
 H213 H 0.85196 0.71947 0.70941
 N214 N 0.77662 0.73168 0.72351
 C215 C 0.70684 0.73672 0.79540
 H216 H 0.70445 0.75658 0.79768
 C217 C 0.68929 0.72082 0.81383
 H218 H 0.67323 0.72846 0.83029
 C219 C 0.73086 0.70244 0.77137
 H220 H 0.74738 0.69529 0.75517
 C221 C 0.71382 0.68592 0.78930
 H222 H 0.71710 0.66614 0.78653
 Zn223 Zn 0.74989 0.74961 0.74969
 N224 N 0.72677 0.72733 0.77434
 C225 C 0.69178 0.76720 0.72694
 N226 N 0.72326 0.76872 0.72469
 C227 C 0.73710 0.78401 0.70406
 C228 C 0.71918 0.79932 0.68548
 C229 C 0.67297 0.78223 0.70875
 C230 C 0.79288 0.76041 0.79609
 C231 C 0.81048 0.77548 0.81533
 C232 C 0.78582 0.81139 0.79311
 C233 C 0.76874 0.79570 0.77432
 N234 N 0.77291 0.77072 0.77572
 H235 H 0.68118 0.75455 0.74295
 H236 H 0.76215 0.78460 0.70247
 H237 H 0.73043 0.81181 0.66955
 H238 H 0.64795 0.78129 0.71102
 H239 H 0.79534 0.74048 0.79715
 H240 H 0.82669 0.76719 0.83115
 H241 H 0.78263 0.83127 0.79154
 H242 H 0.75219 0.80357 0.75866
 C243 C 0.69271 0.69517 0.81060
 C244 C 0.81317 0.70341 0.68523
 C245 C 0.80703 0.80122 0.81363
 C246 C 0.68686 0.79858 0.68805
 C247 C 0.76320 0.21805 0.20119
 H248 H 0.73816 0.21760 0.19956
 C249 C 0.78115 0.20372 0.18154
 H250 H 0.76994 0.19211 0.16477
 C251 C 0.80847 0.23350 0.22527
 H252 H 0.81905 0.24524 0.24217
 C253 C 0.82731 0.21942 0.20606
 H254 H 0.85231 0.22014 0.20846
 N255 N 0.77700 0.23216 0.22292
 C256 C 0.70750 0.23699 0.29497
 H257 H 0.70527 0.25685 0.29742
 C258 C 0.68995 0.22109 0.31338
 H259 H 0.67403 0.22866 0.33000
 C260 C 0.73113 0.20272 0.27056
 H261 H 0.74751 0.19557 0.25422
 C262 C 0.71408 0.18621 0.28848
 H263 H 0.71713 0.16642 0.28562
 Zn264 Zn 0.75043 0.24993 0.24932
 N265 N 0.72725 0.22761 0.27375
 C266 C 0.69239 0.26769 0.22677
 N267 N 0.72387 0.26927 0.22461
 C268 C 0.73773 0.28472 0.20417
 C269 C 0.71983 0.30008 0.18566
 C270 C 0.67359 0.28276 0.20865
 C271 C 0.79336 0.26000 0.29585
 C272 C 0.81107 0.27473 0.31536
 C273 C 0.78691 0.31105 0.29361
 C274 C 0.76971 0.29569 0.27453
 N275 N 0.77358 0.27067 0.27558
 H276 H 0.68178 0.25490 0.24262
 H277 H 0.76279 0.28534 0.20265
 H278 H 0.73108 0.31267 0.16986
 H279 H 0.64857 0.28174 0.21081
 H280 H 0.79557 0.24004 0.29661
 H281 H 0.82712 0.26615 0.33111
 H282 H 0.78397 0.33097 0.29234
 H283 H 0.75330 0.30383 0.25894
 C284 C 0.69320 0.19547 0.30994
 C285 C 0.81347 0.20423 0.18422
 C286 C 0.80792 0.30050 0.31404
 C287 C 0.68750 0.29923 0.18811
 C288 C 0.26254 0.71843 0.20275
 H289 H 0.23749 0.71811 0.20100
 C290 C 0.28045 0.70371 0.18350
 H291 H 0.26921 0.69195 0.16689
 C292 C 0.30783 0.73388 0.22678
 H293 H 0.31843 0.74575 0.24353
 C294 C 0.32662 0.71940 0.20797
 H295 H 0.35162 0.71998 0.21050
 N296 N 0.27635 0.73273 0.22427
 C297 C 0.20661 0.73827 0.29616
 H298 H 0.20422 0.75814 0.29832
 C299 C 0.18911 0.72245 0.31475
 H300 H 0.17307 0.73010 0.33121
 C301 C 0.23060 0.70388 0.27236
 H302 H 0.24710 0.69665 0.25620
 C303 C 0.21362 0.68746 0.29046
 H304 H 0.21686 0.66767 0.28790
 Zn305 Zn 0.24972 0.75089 0.25032
 N306 N 0.22652 0.72879 0.27515
 C307 C 0.19168 0.76865 0.22753
 N308 N 0.22317 0.76999 0.22520
 C309 C 0.23709 0.78512 0.20443
 C310 C 0.21926 0.80044 0.18579
 C311 C 0.17296 0.78371 0.20928
 C312 C 0.29268 0.76175 0.29672
 C313 C 0.31031 0.77682 0.31593
 C314 C 0.28595 0.81276 0.29335
 C315 C 0.26885 0.79703 0.27462
 N316 N 0.27285 0.77204 0.27622
 H317 H 0.18102 0.75613 0.24365
 H318 H 0.26214 0.78557 0.20279
 H319 H 0.23057 0.81280 0.16976
 H320 H 0.14794 0.78292 0.21162
 H321 H 0.29499 0.74181 0.29793
 H322 H 0.32637 0.76842 0.33185
 H323 H 0.28277 0.83264 0.29153
 H324 H 0.25240 0.80489 0.25885
 C325 C 0.19258 0.69681 0.31171
 C326 C 0.31275 0.70400 0.18636
 C327 C 0.30704 0.80260 0.31407
 C328 C 0.18693 0.79990 0.18845
 N329 N 1.05250 0.02681 0.03394
 N330 N 1.07233 0.04510 0.03850
 N331 N 1.03092 -0.02546 0.05497
 N332 N 1.03539 -0.04382 0.07438
 N333 N 1.05254 -0.02536 0.03388
 N334 N 1.07234 -0.04364 0.03833
 N335 N 1.03088 0.02667 0.05502
 N336 N 1.03537 0.04487 0.07453
 C337 C 1.06117 0.05619 0.06375
 C338 C 1.06118 -0.05498 0.06354
 N339 N 0.94266 -0.02562 0.03364
 N340 N 0.92368 -0.04464 0.03725
 N341 N 0.96411 0.02655 0.05482
 N342 N 0.96038 0.04547 0.07340
 N343 N 0.94261 0.02658 0.03369
 N344 N 0.92364 0.04553 0.03728
 N345 N 0.96415 -0.02562 0.05477
 N346 N 0.96042 -0.04464 0.07337
 Mn347 Mn 0.99749 0.00054 0.05526
 C348 C 0.93514 -0.05624 0.06208
 C349 C 0.93510 0.05704 0.06210
 N350 N 1.05281 -0.02509 -0.03159
 N351 N 1.07325 -0.04281 -0.03659
 N352 N 1.03131 0.02705 -0.05269
 N353 N 1.03667 0.04479 -0.07278
 N354 N 1.05278 0.02701 -0.03153
 N355 N 1.07335 0.04472 -0.03662
 N356 N 1.03133 -0.02506 -0.05275
 N357 N 1.03656 -0.04276 -0.07274
 Mn358 Mn 1.05301 0.00084 0.00119
 C359 C 1.06258 -0.05373 -0.06214
 C360 C 1.06275 0.05572 -0.06220
 N361 N 0.94275 0.02679 -0.03173
 N362 N 0.92290 0.04504 -0.03621
 N363 N 0.96446 -0.02524 -0.05285
 N364 N 0.96005 -0.04352 -0.07224
 N365 N 0.94281 -0.02536 -0.03179
 N366 N 0.92305 -0.04372 -0.03626
 N367 N 0.96441 0.02693 -0.05278
 N368 N 0.95991 0.04529 -0.07218
 Mn369 Mn 0.94233 0.00060 0.00097
 Mn370 Mn 0.99787 0.00092 -0.05312
 Cl371 Cl 0.99769 0.00073 0.00106
 C372 C 0.93407 0.05641 -0.06139
 C373 C 0.93426 -0.05487 -0.06145
 N374 N 1.05210 0.52536 0.53552
 N375 N 1.07185 0.54370 0.54008
 N376 N 1.03031 0.47312 0.55640
 N377 N 1.03516 0.45516 0.57627
 N378 N 1.05203 0.47324 0.53541
 N379 N 1.07228 0.45536 0.54041
 N380 N 1.03039 0.52523 0.55653
 N381 N 1.03476 0.54347 0.57598
 C382 C 1.06057 0.55481 0.56527
 C383 C 1.06124 0.44421 0.56578
 N384 N 0.94206 0.47319 0.53475
 N385 N 0.92253 0.45456 0.53863
 N386 N 0.96363 0.52526 0.55610
 N387 N 0.95986 0.54413 0.57475
 N388 N 0.94225 0.52539 0.53487
 N389 N 0.92330 0.54435 0.53846
 N390 N 0.96346 0.47307 0.55597
 N391 N 0.95911 0.45434 0.57490
 Mn392 Mn 0.99693 0.49916 0.55661
 C393 C 0.93358 0.44302 0.56368
 C394 C 0.93466 0.55578 0.56339
 N395 N 1.05260 0.47351 0.46994
 N396 N 1.07295 0.45569 0.46506
 N397 N 1.03134 0.52573 0.44880
 N398 N 1.03672 0.54358 0.42886
 N399 N 1.05272 0.52565 0.47005
 N400 N 1.07325 0.54343 0.46516
 N401 N 1.03122 0.47361 0.44869
 N402 N 1.03641 0.45585 0.42876
 Mn403 Mn 1.05271 0.49944 0.50274
 C404 C 1.06232 0.44479 0.43948
 C405 C 1.06273 0.55451 0.43959
 N406 N 0.94275 0.52564 0.46946
 N407 N 0.92320 0.54413 0.46515
 N408 N 0.96436 0.47358 0.44838
 N409 N 0.96018 0.45516 0.42914
 N410 N 0.94261 0.47350 0.46934
 N411 N 0.92301 0.45502 0.46496
 N412 N 0.96448 0.52574 0.44849
 N413 N 0.96035 0.54431 0.42931
 Mn414 Mn 0.94204 0.49943 0.50211
 Mn415 Mn 0.99783 0.49967 0.44824
 Cl416 Cl 0.99739 0.49942 0.50242
 C417 C 0.93463 0.55557 0.44014
 C418 C 0.93442 0.44378 0.43991
 N419 N 0.55169 0.02532 0.53421
 N420 N 0.57140 0.04371 0.53865
 N421 N 0.53009 -0.02698 0.55512
 N422 N 0.53459 -0.04536 0.57448
 N423 N 0.55168 -0.02684 0.53401
 N424 N 0.57150 -0.04513 0.53840
 N425 N 0.53010 0.02516 0.55532
 N426 N 0.53450 0.04342 0.57474
 C427 C 0.56022 0.05481 0.56389
 C428 C 0.56037 -0.05651 0.56359
 N429 N 0.44180 -0.02702 0.53389
 N430 N 0.42282 -0.04605 0.53744
 N431 N 0.46335 0.02508 0.55521
 N432 N 0.45972 0.04398 0.57383
 N433 N 0.44183 0.02519 0.53410
 N434 N 0.42294 0.04418 0.53776
 N435 N 0.46332 -0.02709 0.55499
 N436 N 0.45962 -0.04617 0.57351
 Mn437 Mn 0.49669 -0.00096 0.55552
 C438 C 0.43432 -0.05773 0.56220
 C439 C 0.43447 0.05564 0.56259
 N440 N 0.55188 -0.02647 0.46854
 N441 N 0.57236 -0.04414 0.46343
 N442 N 0.53040 0.02571 0.44760
 N443 N 0.53575 0.04347 0.42755
 N444 N 0.55190 0.02562 0.46873
 N445 N 0.57247 0.04333 0.46367
 N446 N 0.53038 -0.02640 0.44741
 N447 N 0.53563 -0.04402 0.42731
 Mn448 Mn 0.55214 -0.00059 0.50139
 C449 C 0.56169 -0.05499 0.43784
 C450 C 0.56185 0.05437 0.43811
 N451 N 0.44189 0.02550 0.46868
 N452 N 0.42211 0.04383 0.46432
 N453 N 0.46348 -0.02652 0.44740
 N454 N 0.45897 -0.04471 0.42790
 N455 N 0.44185 -0.02664 0.46847
 N456 N 0.42200 -0.04493 0.46391
 N457 N 0.46352 0.02565 0.44760
 N458 N 0.45907 0.04409 0.42830
 Mn459 Mn 0.44146 -0.00074 0.50131
 Mn460 Mn 0.49693 -0.00039 0.44715
 Cl461 Cl 0.49682 -0.00067 0.50132
 C462 C 0.43330 0.05524 0.43918
 C463 C 0.43314 -0.05602 0.43865
 N464 N 0.55263 0.52652 0.03517
 N465 N 0.57239 0.54489 0.03951
 N466 N 0.53120 0.47427 0.05634
 N467 N 0.53569 0.45582 0.07560
 N468 N 0.55269 0.47438 0.03513
 N469 N 0.57241 0.45601 0.03934
 N470 N 0.53113 0.52639 0.05638
 N471 N 0.53566 0.54466 0.07577
 C472 C 0.56134 0.55602 0.06478
 C473 C 0.56135 0.44462 0.06455
 N474 N 0.44281 0.47406 0.03561
 N475 N 0.42365 0.45519 0.03954
 N476 N 0.46434 0.52625 0.05665
 N477 N 0.46049 0.54501 0.07546
 N478 N 0.44272 0.52626 0.03565
 N479 N 0.42353 0.54503 0.03956
 N480 N 0.46442 0.47407 0.05662
 N481 N 0.46060 0.45520 0.07545
 Mn482 Mn 0.49777 0.50024 0.05686
 C483 C 0.43514 0.44367 0.06442
 C484 C 0.43501 0.55648 0.06442
 N485 N 0.55263 0.47461 -0.03034
 N486 N 0.57306 0.45689 -0.03546
 N487 N 0.53097 0.52675 -0.05133
 N488 N 0.53626 0.54443 -0.07152
 N489 N 0.55258 0.52672 -0.03030
 N490 N 0.57317 0.54438 -0.03559
 N491 N 0.53104 0.47463 -0.05137
 N492 N 0.53615 0.45692 -0.07140
 Mn493 Mn 0.55298 0.50056 0.00243
 C494 C 0.56224 0.44596 -0.06095
 C495 C 0.56244 0.55534 -0.06116
 N496 N 0.44256 0.52644 -0.02977
 N497 N 0.42294 0.54491 -0.03387
 N498 N 0.46418 0.47443 -0.05100
 N499 N 0.46002 0.45588 -0.07005
 N500 N 0.44266 0.47429 -0.02982
 N501 N 0.42323 0.45565 -0.03386
 N502 N 0.46409 0.52659 -0.05095
 N503 N 0.45974 0.54517 -0.07006
 Mn504 Mn 0.44231 0.50026 0.00292
 Mn505 Mn 0.49754 0.50061 -0.05151
 Cl506 Cl 0.49766 0.50042 0.00266
 C507 C 0.43410 0.55638 -0.05898
 C508 C 0.43449 0.44438 -0.05894
 C509 C 1.10510 0.11364 0.10633
 C510 C 1.08822 0.13142 0.12319
 C511 C 1.10429 0.15011 0.13960
 C512 C 1.13714 0.15093 0.13899
 C513 C 1.15398 0.13355 0.12148
 C514 C 1.13791 0.11485 0.10511
 C515 C 1.15527 0.09759 0.08789
 C516 C 1.18756 0.09879 0.08686
 C517 C 1.20327 0.11707 0.10287
 C518 C 1.18681 0.13428 0.12002
 C519 C 1.08695 0.16758 0.15645
 C520 C 1.05461 0.16667 0.15698
 C521 C 1.03889 0.14844 0.14087
 C522 C 1.05538 0.13093 0.12418
 C523 C 1.15379 0.16912 0.15699
 C524 C 1.16844 0.18363 0.17205
 C525 C 1.08891 0.09369 0.09093
 C526 C 1.07599 0.07675 0.07839
 H527 H 1.14411 0.08305 0.07500
 H528 H 1.20046 0.08546 0.07356
 H529 H 1.22836 0.11793 0.10199
 H530 H 1.20010 0.14817 0.13203
 H531 H 1.09816 0.18214 0.16928
 H532 H 1.04168 0.18022 0.16992
 H533 H 1.01379 0.14787 0.14127
 H534 H 1.04214 0.11710 0.11201
 C535 C 1.10429 0.61246 0.60754
 C536 C 1.08732 0.63115 0.62274
 C537 C 1.10332 0.65001 0.63894
 C538 C 1.13617 0.65006 0.63976
 C539 C 1.15314 0.63170 0.62395
 C540 C 1.13715 0.61285 0.60779
 C541 C 1.15462 0.59462 0.59227
 C542 C 1.18695 0.59502 0.59270
 C543 C 1.20259 0.61345 0.60851
 C544 C 1.18601 0.63162 0.62400
 C545 C 1.08589 0.66841 0.65412
 C546 C 1.05355 0.66825 0.65322
 C547 C 1.03790 0.64986 0.63732
 C548 C 1.05448 0.63143 0.62226
 C549 C 1.15267 0.66850 0.65746
 C550 C 1.16727 0.68320 0.67227
 C551 C 1.08811 0.59245 0.59228
 C552 C 1.07525 0.57544 0.57984
 H553 H 1.14353 0.57992 0.57960
 H554 H 1.19993 0.58095 0.58069
 H555 H 1.22772 0.61369 0.60878
 H556 H 1.19926 0.64559 0.63592
 H557 H 1.09705 0.68313 0.66672
 H558 H 1.04056 0.68251 0.66489
 H559 H 1.01280 0.64988 0.63660
 H560 H 1.04129 0.61751 0.61019
 C561 C 0.60357 0.11288 0.60580
 C562 C 0.58648 0.13079 0.62225
 C563 C 0.60236 0.14977 0.63835
 C564 C 0.63520 0.15074 0.63785
 C565 C 0.65224 0.13320 0.62076
 C566 C 0.63638 0.11421 0.60470
 C567 C 0.65393 0.09680 0.58791
 C568 C 0.68622 0.09812 0.58702
 C569 C 0.70173 0.11668 0.60273
 C570 C 0.68507 0.13406 0.61944
 C571 C 0.58481 0.16737 0.65479
 C572 C 0.55248 0.16633 0.65520
 C573 C 0.53696 0.14781 0.63938
 C574 C 0.55365 0.13016 0.62311
 C575 C 0.65165 0.16926 0.65552
 C576 C 0.66619 0.18403 0.67030
 C577 C 0.58758 0.09268 0.59067
 C578 C 0.57485 0.07555 0.57833
 H579 H 0.64293 0.08204 0.57526
 H580 H 0.69927 0.08466 0.57406
 H581 H 0.72682 0.11763 0.60196
 H582 H 0.69821 0.14817 0.63122
 H583 H 0.59586 0.18215 0.66738
 H584 H 0.53940 0.17998 0.66782
 H585 H 0.51186 0.14714 0.63968
 H586 H 0.54056 0.11612 0.61116
 C587 C 0.60535 0.61371 0.10668
 C588 C 0.58849 0.63182 0.12303
 C589 C 0.60461 0.65064 0.13917
 C590 C 0.63747 0.65123 0.13882
 C591 C 0.65429 0.63348 0.12184
 C592 C 0.63818 0.61467 0.10572
 C593 C 0.65550 0.59704 0.08906
 C594 C 0.68782 0.59797 0.08834
 C595 C 0.70358 0.61636 0.10411
 C596 C 0.68714 0.63395 0.12071
 C597 C 0.58731 0.66844 0.15552
 C598 C 0.55496 0.66773 0.15583
 C599 C 0.53919 0.64935 0.14000
 C600 C 0.55565 0.63153 0.12379
 C601 C 0.65415 0.66954 0.15656
 C602 C 0.66885 0.68414 0.17143
 C603 C 0.58909 0.59368 0.09153
 C604 C 0.57615 0.57666 0.07920
 H605 H 0.64431 0.58240 0.07637
 H606 H 0.70069 0.58435 0.07547
 H607 H 0.72868 0.61702 0.10349
 H608 H 0.70047 0.64792 0.13255
 H609 H 0.59856 0.68311 0.16811
 H610 H 0.54206 0.68152 0.16839
 H611 H 0.51408 0.64893 0.14024
 H612 H 0.54237 0.61761 0.11182
 C613 C 0.89598 -0.11756 0.10142
 C614 C 0.90904 -0.12745 0.12836
 C615 C 0.89345 -0.14678 0.14427
 C616 C 0.86491 -0.15609 0.13313
 C617 C 0.85268 -0.14706 0.10538
 C618 C 0.86828 -0.12773 0.08946
 C619 C 0.85549 -0.11884 0.06190
 C620 C 0.82807 -0.12878 0.05038
 C621 C 0.81280 -0.14768 0.06595
 C622 C 0.82484 -0.15676 0.09317
 C623 C 0.90677 -0.15622 0.17131
 C624 C 0.93473 -0.14683 0.18229
 C625 C 0.94996 -0.12791 0.16676
 C626 C 0.93737 -0.11825 0.14008
 C627 C 0.84727 -0.17384 0.15107
 C628 C 0.83209 -0.18789 0.16643
 C629 C 0.91021 -0.09618 0.08688
 C630 C 0.92169 -0.07807 0.07533
 H631 H 0.86659 -0.10423 0.04892
 H632 H 0.81861 -0.12178 0.02926
 H633 H 0.79152 -0.15535 0.05689
 H634 H 0.81219 -0.17152 0.10442
 H635 H 0.89581 -0.17099 0.18414
 H636 H 0.94463 -0.15430 0.20298
 H637 H 0.97166 -0.12067 0.17540
 H638 H 0.95014 -0.10361 0.12873
 C639 C 0.89187 0.38304 0.60379
 C640 C 0.90430 0.37308 0.63097
 C641 C 0.88813 0.35394 0.64671
 C642 C 0.85964 0.34489 0.63516
 C643 C 0.84787 0.35415 0.60732
 C644 C 0.86405 0.37328 0.59158
 C645 C 0.85172 0.38236 0.56391
 C646 C 0.82419 0.37282 0.55213
 C647 C 0.80837 0.35413 0.56752
 C648 C 0.81995 0.34484 0.59483
 C649 C 0.90086 0.34442 0.67398
 C650 C 0.92882 0.35350 0.68534
 C651 C 0.94464 0.37220 0.66994
 C652 C 0.93262 0.38196 0.64308
 C653 C 0.84175 0.32697 0.65264
 C654 C 0.82654 0.31268 0.66768
 C655 C 0.90702 0.40398 0.58911
 C656 C 0.91928 0.42168 0.57733
 H657 H 0.86324 0.39685 0.55107
 H658 H 0.81508 0.37999 0.53095
 H659 H 0.78700 0.34677 0.55826
 H660 H 0.80685 0.33026 0.60595
 H661 H 0.88945 0.32982 0.68671
 H662 H 0.93826 0.34598 0.70620
 H663 H 0.96636 0.37918 0.67885
 H664 H 0.94581 0.39644 0.63188
 C665 C 0.39510 -0.11912 0.60127
 C666 C 0.40811 -0.12909 0.62819
 C667 C 0.39241 -0.14838 0.64406
 C668 C 0.36382 -0.15757 0.63291
 C669 C 0.35166 -0.14849 0.60515
 C670 C 0.36737 -0.12921 0.58927
 C671 C 0.35465 -0.12026 0.56170
 C672 C 0.32719 -0.13010 0.55015
 C673 C 0.31182 -0.14896 0.56568
 C674 C 0.32378 -0.15810 0.59291
 C675 C 0.40567 -0.15789 0.67109
 C676 C 0.43368 -0.14862 0.68209
 C677 C 0.44902 -0.12974 0.66658
 C678 C 0.43649 -0.12001 0.63992
 C679 C 0.34604 -0.17522 0.65086
 C680 C 0.33075 -0.18917 0.66626
 C681 C 0.40938 -0.09773 0.58683
 C682 C 0.42088 -0.07959 0.57536
 H683 H 0.36583 -0.10567 0.54875
 H684 H 0.31778 -0.12305 0.52903
 H685 H 0.29051 -0.15656 0.55660
 H686 H 0.31105 -0.17283 0.60413
 H687 H 0.39463 -0.17264 0.68390
 H688 H 0.44354 -0.15614 0.70277
 H689 H 0.47076 -0.12259 0.67524
 H690 H 0.44935 -0.10540 0.62859
 C691 C 0.39518 0.38287 0.10431
 C692 C 0.40886 0.37215 0.13047
 C693 C 0.39316 0.35286 0.14638
 C694 C 0.36390 0.34441 0.13604
 C695 C 0.35093 0.35434 0.10908
 C696 C 0.36663 0.37362 0.09316
 C697 C 0.35308 0.38340 0.06640
 C698 C 0.32483 0.37438 0.05568
 C699 C 0.30947 0.35554 0.07125
 C700 C 0.32224 0.34558 0.09767
 C701 C 0.40715 0.34258 0.17262
 C702 C 0.43585 0.35109 0.18283
 C703 C 0.45118 0.36997 0.16729
 C704 C 0.43795 0.38044 0.14139
 C705 C 0.34641 0.32652 0.15394
 C706 C 0.33132 0.31229 0.16917
 C707 C 0.40975 0.40409 0.08971
 C708 C 0.42147 0.42204 0.07799
 H709 H 0.36421 0.39801 0.05344
 H710 H 0.31480 0.38208 0.03519
 H711 H 0.28754 0.34860 0.06282
 H712 H 0.30947 0.33090 0.10895
 H713 H 0.39614 0.32781 0.18542
 H714 H 0.44624 0.34300 0.20292
 H715 H 0.47345 0.37653 0.17533
 H716 H 0.45082 0.39501 0.13000
 C717 C 0.89119 0.11420 -0.10459
 C718 C 0.89547 0.11705 -0.13633
 C719 C 0.87887 0.13568 -0.15237
 C720 C 0.85807 0.15137 -0.13658
 C721 C 0.85452 0.14902 -0.10470
 C722 C 0.87114 0.13038 -0.08865
 C723 C 0.86711 0.12830 -0.05681
 C724 C 0.84726 0.14421 -0.04124
 C725 C 0.83097 0.16241 -0.05694
 C726 C 0.83445 0.16485 -0.08831
 C727 C 0.88338 0.13805 -0.18413
 C728 C 0.90372 0.12248 -0.19960
 C729 C 0.91995 0.10427 -0.18391
 C730 C 0.91596 0.10149 -0.15265
 C731 C 0.83956 0.16920 -0.15343
 C732 C 0.82403 0.18333 -0.16825
 C733 C 0.90667 0.09412 -0.08864
 C734 C 0.91928 0.07707 -0.07594
 H735 H 0.87931 0.11446 -0.04361
 H736 H 0.84452 0.14243 -0.01688
 H737 H 0.81558 0.17471 -0.04474
 H738 H 0.82136 0.17932 -0.09954
 H739 H 0.87134 0.15197 -0.19735
 H740 H 0.90691 0.12458 -0.22388
 H741 H 0.93574 0.09223 -0.19603
 H742 H 0.92916 0.08708 -0.14146
 C743 C 0.89302 0.61441 0.39801
 C744 C 0.87061 0.62888 0.41339
 C745 C 0.85417 0.64766 0.39743
 C746 C 0.86030 0.65186 0.36620
 C747 C 0.88356 0.63802 0.35113
 C748 C 0.89997 0.61924 0.36709
 C749 C 0.92296 0.60552 0.35148
 C750 C 0.92956 0.61022 0.32099
 C751 C 0.91350 0.62858 0.30538
 C752 C 0.89074 0.64236 0.32015
 C753 C 0.83167 0.66174 0.41319
 C754 C 0.82565 0.65745 0.44391
 C755 C 0.84176 0.63912 0.45953
 C756 C 0.86397 0.62491 0.44455
 C757 C 0.84182 0.66954 0.34913
 C758 C 0.82630 0.68354 0.33414
 C759 C 0.90809 0.59395 0.41355
 C760 C 0.92033 0.57658 0.42593
 H761 H 0.93613 0.59108 0.36267
 H762 H 0.94724 0.59957 0.30942
 H763 H 0.91872 0.63218 0.28169
 H764 H 0.87895 0.65649 0.30705
 H765 H 0.81863 0.67625 0.40200
 H766 H 0.80842 0.66843 0.45565
 H767 H 0.83704 0.63590 0.48339
 H768 H 0.87595 0.61089 0.45767
 C769 C 0.39073 0.11333 0.39632
 C770 C 0.39489 0.11617 0.36456
 C771 C 0.37838 0.13489 0.34861
 C772 C 0.35779 0.15068 0.36449
 C773 C 0.35436 0.14834 0.39639
 C774 C 0.37090 0.12962 0.41236
 C775 C 0.36700 0.12756 0.44422
 C776 C 0.34735 0.14357 0.45987
 C777 C 0.33114 0.16185 0.44425
 C778 C 0.33450 0.16428 0.41286
 C779 C 0.38275 0.13724 0.31682
 C780 C 0.40289 0.12157 0.30126
 C781 C 0.41905 0.10327 0.31686
 C782 C 0.41518 0.10051 0.34814
 C783 C 0.33932 0.16857 0.34772
 C784 C 0.32382 0.18274 0.33291
 C785 C 0.40609 0.09315 0.41218
 C786 C 0.41861 0.07601 0.42477
 H787 H 0.37915 0.11365 0.45735
 H788 H 0.34471 0.14179 0.48425
 H789 H 0.31589 0.17423 0.45652
 H790 H 0.32147 0.17881 0.40169
 H791 H 0.37076 0.15122 0.30366
 H792 H 0.40597 0.12364 0.27696
 H793 H 0.43468 0.09115 0.30468
 H794 H 0.42832 0.08603 0.35927
 C795 C 0.39211 0.61516 -0.10083
 C796 C 0.39918 0.62013 -0.13170
 C797 C 0.38262 0.63882 -0.14766
 C798 C 0.35910 0.65243 -0.13266
 C799 C 0.35288 0.64812 -0.10147
 C800 C 0.36946 0.62943 -0.08550
 C801 C 0.36274 0.62534 -0.05438
 C802 C 0.34030 0.63936 -0.03945
 C803 C 0.32405 0.65761 -0.05508
 C804 C 0.33015 0.66200 -0.08576
 C805 C 0.38991 0.64331 -0.17859
 C806 C 0.41293 0.62975 -0.19330
 C807 C 0.42912 0.61148 -0.17769
 C808 C 0.42242 0.60663 -0.14724
 C809 C 0.34044 0.66995 -0.14977
 C810 C 0.32479 0.68381 -0.16484
 C811 C 0.40729 0.59474 -0.08533
 C812 C 0.41964 0.57739 -0.07303
 H813 H 0.37482 0.61138 -0.04126
 H814 H 0.33551 0.63605 -0.01562
 H815 H 0.30664 0.66843 -0.04338
 H816 H 0.31700 0.67644 -0.09696
 H817 H 0.37803 0.65738 -0.19169
 H818 H 0.41823 0.63346 -0.21695
 H819 H 0.44700 0.60100 -0.18921
 H820 H 0.43571 0.59228 -0.13605
 C821 C 1.10911 -0.10832 -0.10745
 C822 C 1.13025 -0.10121 -0.13059
 C823 C 1.14691 -0.11960 -0.14688
 C824 C 1.14233 -0.14500 -0.13994
 C825 C 1.12123 -0.15211 -0.11678
 C826 C 1.10456 -0.13371 -0.10048
 C827 C 1.08359 -0.14126 -0.07744
 C828 C 1.07921 -0.16628 -0.07068
 C829 C 1.09551 -0.18426 -0.08663
 C830 C 1.11631 -0.17737 -0.10944
 C831 C 1.16791 -0.11203 -0.16992
 C832 C 1.17232 -0.08702 -0.17667
 C833 C 1.15603 -0.06904 -0.16074
 C834 C 1.13521 -0.07594 -0.13795
 C835 C 1.15934 -0.16368 -0.15677
 C836 C 1.17384 -0.17861 -0.17130
 C837 C 1.09215 -0.08945 -0.09091
 C838 C 1.07843 -0.07336 -0.07756
 H839 H 1.07039 -0.12794 -0.06443
 H840 H 1.06308 -0.17173 -0.05298
 H841 H 1.09202 -0.20367 -0.08129
 H842 H 1.12846 -0.19202 -0.12122
 H843 H 1.18114 -0.12531 -0.18296
 H844 H 1.18847 -0.08157 -0.19435
 H845 H 1.15954 -0.04964 -0.16606
 H846 H 1.12310 -0.06126 -0.12622
 C847 C 1.10819 0.38977 0.39420
 C848 C 1.11125 0.36565 0.40660
 C849 C 1.12797 0.34721 0.39040
 C850 C 1.14153 0.35301 0.36191
 C851 C 1.13830 0.37709 0.34942
 C852 C 1.12158 0.39552 0.36560
 C853 C 1.11872 0.41947 0.35267
 C854 C 1.13200 0.42506 0.32456
 C855 C 1.14836 0.40705 0.30875
 C856 C 1.15155 0.38333 0.32092
 C857 C 1.13076 0.32325 0.40327
 C858 C 1.11743 0.31766 0.43135
 C859 C 1.10109 0.33568 0.44720
 C860 C 1.09797 0.35944 0.43507
 C861 C 1.15906 0.33440 0.34543
 C862 C 1.17395 0.31960 0.33105
 C863 C 1.09155 0.40880 0.41083
 C864 C 1.07804 0.42501 0.42417
 H865 H 1.10621 0.43412 0.36407
 H866 H 1.12958 0.44347 0.31502
 H867 H 1.15864 0.41149 0.28693
 H868 H 1.16449 0.36997 0.30772
 H869 H 1.14324 0.30862 0.39177
 H870 H 1.11978 0.29923 0.44088
 H871 H 1.09078 0.33124 0.46901
 H872 H 1.08504 0.37284 0.44822
 C873 C 0.60866 -0.10920 0.39225
 C874 C 0.62968 -0.10190 0.36910
 C875 C 0.64665 -0.12013 0.35285
 C876 C 0.64250 -0.14556 0.35983
 C877 C 0.62147 -0.15287 0.38295
 C878 C 0.60449 -0.13463 0.39922
 C879 C 0.58361 -0.14237 0.42224
 C880 C 0.57961 -0.16743 0.42901
 C881 C 0.59621 -0.18526 0.41310
 C882 C 0.61694 -0.17817 0.39031
 C883 C 0.66754 -0.11236 0.32980
 C884 C 0.67154 -0.08732 0.32301
 C885 C 0.65495 -0.06949 0.33890
 C886 C 0.63423 -0.07659 0.36170
 C887 C 0.65987 -0.16407 0.34308
 C888 C 0.67467 -0.17887 0.32862
 C889 C 0.59148 -0.09048 0.40885
 C890 C 0.57763 -0.07450 0.42228
 H891 H 0.57018 -0.12918 0.43522
 H892 H 0.56354 -0.17304 0.44669
 H893 H 0.59302 -0.20470 0.41845
 H894 H 0.62934 -0.19271 0.37856
 H895 H 0.68100 -0.12551 0.31679
 H896 H 0.68761 -0.08172 0.30532
 H897 H 0.65813 -0.05006 0.33355
 H898 H 0.62187 -0.06201 0.37340
 C899 C 0.60840 0.39131 -0.10663
 C900 C 0.62857 0.39838 -0.13061
 C901 C 0.64508 0.37999 -0.14707
 C902 C 0.64133 0.35463 -0.13946
 C903 C 0.62120 0.34756 -0.11548
 C904 C 0.60469 0.36596 -0.09900
 C905 C 0.58470 0.35844 -0.07512
 C906 C 0.58113 0.33346 -0.06771
 C907 C 0.59728 0.31549 -0.08381
 C908 C 0.61712 0.32235 -0.10745
 C909 C 0.66510 0.38754 -0.17094
 C910 C 0.66870 0.41251 -0.17834
 C911 C 0.65256 0.43047 -0.16226
 C912 C 0.63270 0.42361 -0.13865
 C913 C 0.65821 0.33596 -0.15646
 C914 C 0.67263 0.32110 -0.17120
 C915 C 0.59160 0.41020 -0.08992
 C916 C 0.57799 0.42630 -0.07646
 H917 H 0.57166 0.37176 -0.06195
 H918 H 0.56575 0.32803 -0.04937
 H919 H 0.59443 0.29611 -0.07796
 H920 H 0.62920 0.30771 -0.11932
 H921 H 0.67818 0.37427 -0.18414
 H922 H 0.68411 0.41793 -0.19666
 H923 H 0.65544 0.44985 -0.16809
 H924 H 0.62067 0.43828 -0.12682
 C925 C 1.11026 0.10993 -0.10801
 C926 C 1.10631 0.13537 -0.10126
 C927 C 1.12348 0.15357 -0.11764
 C928 C 1.14449 0.14621 -0.14067
 C929 C 1.14845 0.12076 -0.14742
 C930 C 1.13128 0.10258 -0.13105
 C931 C 1.13564 0.07725 -0.13822
 C932 C 1.15635 0.07011 -0.16090
 C933 C 1.17314 0.08789 -0.17690
 C934 C 1.16933 0.11295 -0.17034
 C935 C 1.11916 0.17888 -0.11051
 C936 C 1.09846 0.18602 -0.08781
 C937 C 1.08167 0.16823 -0.07179
 C938 C 1.08545 0.14316 -0.07834
 C939 C 1.16205 0.16468 -0.15755
 C940 C 1.17700 0.17944 -0.17214
 C941 C 1.09288 0.09124 -0.09130
 C942 C 1.07887 0.07526 -0.07781
 H943 H 1.12312 0.06271 -0.12642
 H944 H 1.15939 0.05067 -0.16607
 H945 H 1.18921 0.08226 -0.19450
 H946 H 1.18293 0.12607 -0.18343
 H947 H 1.13171 0.19338 -0.12236
 H948 H 1.09543 0.20546 -0.08263
 H949 H 1.06561 0.17387 -0.05418
 H950 H 1.07188 0.13000 -0.06527
 C951 C 1.10960 0.60940 0.39429
 C952 C 1.10582 0.63473 0.40174
 C953 C 1.12257 0.65320 0.38537
 C954 C 1.14298 0.64623 0.36165
 C955 C 1.14678 0.62089 0.35423
 C956 C 1.13004 0.60243 0.37058
 C957 C 1.13423 0.57723 0.36271
 C958 C 1.15436 0.57046 0.33937
 C959 C 1.17073 0.58850 0.32338
 C960 C 1.16708 0.61345 0.33062
 C961 C 1.11841 0.67839 0.39321
 C962 C 1.09828 0.68515 0.41657
 C963 C 1.08191 0.66710 0.43257
 C964 C 1.08555 0.64214 0.42534
 C965 C 1.16007 0.66497 0.34473
 C966 C 1.17466 0.67990 0.33005
 C967 C 1.09254 0.59044 0.41088
 C968 C 1.07872 0.57426 0.42423
 H969 H 1.12203 0.56250 0.37447
 H970 H 1.15727 0.55110 0.33366
 H971 H 1.18634 0.58315 0.30526
 H972 H 1.18034 0.62677 0.31751
 H973 H 1.13065 0.69308 0.38140
 H974 H 1.09537 0.70450 0.42228
 H975 H 1.06631 0.67245 0.45070
 H976 H 1.07232 0.62877 0.43842
 C977 C 0.60917 0.10870 0.39237
 C978 C 0.60570 0.13408 0.39971
 C979 C 0.62272 0.15235 0.38330
 C980 C 0.64309 0.14513 0.35967
 C981 C 0.64658 0.11975 0.35235
 C982 C 0.62957 0.10148 0.36874
 C983 C 0.63344 0.07623 0.36099
 C984 C 0.65354 0.06922 0.33773
 C985 C 0.67018 0.08708 0.32171
 C986 C 0.66684 0.11207 0.32883
 C987 C 0.61889 0.17760 0.39103
 C988 C 0.59881 0.18460 0.41432
 C989 C 0.58217 0.16673 0.43037
 C990 C 0.58548 0.14173 0.42324
 C991 C 0.66045 0.16369 0.34274
 C992 C 0.67520 0.17853 0.32812
 C993 C 0.59190 0.08994 0.40907
 C994 C 0.57794 0.07394 0.42254
 H995 H 0.62101 0.06163 0.37279
 H996 H 0.65621 0.04982 0.33212
 H997 H 0.68578 0.08154 0.30366
 H998 H 0.68031 0.12525 0.31570
 H999 H 0.63135 0.19216 0.37919
 H1000 H 0.59615 0.20400 0.41995
 H1001 H 0.56660 0.17227 0.44844
 H1002 H 0.57205 0.12850 0.43635
 C1003 C 0.60957 0.60951 -0.10750
 C1004 C 0.60635 0.63490 -0.10011
 C1005 C 0.62333 0.65312 -0.11667
 C1006 C 0.64342 0.64584 -0.14050
 C1007 C 0.64662 0.62045 -0.14791
 C1008 C 0.62964 0.60224 -0.13137
 C1009 C 0.63324 0.57697 -0.13921
 C1010 C 0.65302 0.56990 -0.16270
 C1011 C 0.66962 0.58770 -0.17887
 C1012 C 0.66655 0.61270 -0.17166
 C1013 C 0.61974 0.67837 -0.10887
 C1014 C 0.59993 0.68544 -0.08539
 C1015 C 0.58333 0.66763 -0.06920
 C1016 C 0.58641 0.64262 -0.07638
 C1017 C 0.66083 0.66434 -0.15752
 C1018 C 0.67564 0.67914 -0.17219
 C1019 C 0.59239 0.59080 -0.09060
 C1020 C 0.57849 0.57484 -0.07694
 H1021 H 0.62083 0.56242 -0.12731
 H1022 H 0.65548 0.55050 -0.16838
 H1023 H 0.68496 0.58212 -0.19710
 H1024 H 0.67996 0.62584 -0.18492
 H1025 H 0.63217 0.69289 -0.12082
 H1026 H 0.59745 0.70484 -0.07972
 H1027 H 0.56798 0.67322 -0.05098
 H1028 H 0.57302 0.62944 -0.06316
 C1029 C 0.89185 -0.11284 -0.10452
 C1030 C 0.87265 -0.12969 -0.08838
 C1031 C 0.85623 -0.14847 -0.10434
 C1032 C 0.85914 -0.15028 -0.13632
 C1033 C 0.87907 -0.13388 -0.15232
 C1034 C 0.89547 -0.11512 -0.13638
 C1035 C 0.91510 -0.09886 -0.15292
 C1036 C 0.91845 -0.10107 -0.18429
 C1037 C 0.90240 -0.11941 -0.19989
 C1038 C 0.88290 -0.13567 -0.18422
 C1039 C 0.83701 -0.16499 -0.08776
 C1040 C 0.83417 -0.16307 -0.05629
 C1041 C 0.85026 -0.14475 -0.04069
 C1042 C 0.86928 -0.12817 -0.05644
 C1043 C 0.84086 -0.16831 -0.15302
 C1044 C 0.82551 -0.18261 -0.16775
 C1045 C 0.90714 -0.09269 -0.08861
 C1046 C 0.91963 -0.07559 -0.07595
 H1047 H 0.92812 -0.08432 -0.14180
 H1048 H 0.93358 -0.08849 -0.19657
 H1049 H 0.90508 -0.12106 -0.22427
 H1050 H 0.87098 -0.14965 -0.19737
 H1051 H 0.82411 -0.17957 -0.09891
 H1052 H 0.81942 -0.17589 -0.04395
 H1053 H 0.84803 -0.14338 -0.01625
 H1054 H 0.88136 -0.11425 -0.04331
 C1055 C 0.89288 0.38530 0.39721
 C1056 C 0.87173 0.36966 0.41281
 C1057 C 0.85540 0.35094 0.39669
 C1058 C 0.86036 0.34799 0.36509
 C1059 C 0.88237 0.36304 0.34973
 C1060 C 0.89868 0.38175 0.36584
 C1061 C 0.92040 0.39668 0.34995
 C1062 C 0.92588 0.39321 0.31904
 C1063 C 0.90993 0.37492 0.30328
 C1064 C 0.88839 0.35996 0.31832
 C1065 C 0.83419 0.33566 0.41270
 C1066 C 0.82934 0.33871 0.44379
 C1067 C 0.84535 0.35698 0.45957
 C1068 C 0.86629 0.37236 0.44436
 C1069 C 0.84196 0.33030 0.34800
 C1070 C 0.82651 0.31631 0.33297
 C1071 C 0.90786 0.40562 0.41304
 C1072 C 0.92008 0.42288 0.42559
 H1073 H 0.93345 0.41112 0.36123
 H1074 H 0.94261 0.40477 0.30726
 H1075 H 0.91427 0.37228 0.27926
 H1076 H 0.87663 0.34594 0.30508
 H1077 H 0.82128 0.32115 0.40140
 H1078 H 0.81309 0.32681 0.45572
 H1079 H 0.84155 0.35923 0.48372
 H1080 H 0.87824 0.38629 0.45760
 C1081 C 0.39041 -0.11357 0.39504
 C1082 C 0.37111 -0.13048 0.41097
 C1083 C 0.35463 -0.14909 0.39480
 C1084 C 0.35758 -0.15070 0.36281
 C1085 C 0.37759 -0.13424 0.34700
 C1086 C 0.39405 -0.11563 0.36315
 C1087 C 0.41377 -0.09931 0.34681
 C1088 C 0.41714 -0.10132 0.31541
 C1089 C 0.40104 -0.11950 0.29961
 C1090 C 0.38146 -0.13582 0.31509
 C1091 C 0.33532 -0.16567 0.41118
 C1092 C 0.33244 -0.16396 0.44267
 C1093 C 0.34858 -0.14579 0.45848
 C1094 C 0.36770 -0.12916 0.44293
 C1095 C 0.33924 -0.16857 0.34590
 C1096 C 0.32385 -0.18273 0.33100
 C1097 C 0.40579 -0.09358 0.41117
 C1098 C 0.41836 -0.07660 0.42400
 H1099 H 0.42684 -0.08488 0.35808
 H1100 H 0.43234 -0.08870 0.30328
 H1101 H 0.40374 -0.12099 0.27522
 H1102 H 0.36949 -0.14968 0.30178
 H1103 H 0.32237 -0.18015 0.39987
 H1104 H 0.31762 -0.17683 0.45486
 H1105 H 0.34632 -0.14458 0.48294
 H1106 H 0.37982 -0.11536 0.45621
 C1107 C 0.39366 0.38510 -0.10067
 C1108 C 0.37103 0.37053 -0.08550
 C1109 C 0.35499 0.35159 -0.10152
 C1110 C 0.36172 0.34734 -0.13258
 C1111 C 0.38522 0.36127 -0.14739
 C1112 C 0.40123 0.38020 -0.13139
 C1113 C 0.42445 0.39402 -0.14676
 C1114 C 0.43167 0.38924 -0.17706
 C1115 C 0.41601 0.37073 -0.19272
 C1116 C 0.39302 0.35685 -0.17818
 C1117 C 0.33227 0.33741 -0.08598
 C1118 C 0.32566 0.34175 -0.05543
 C1119 C 0.34137 0.36025 -0.03976
 C1120 C 0.36379 0.37456 -0.05452
 C1121 C 0.34355 0.32959 -0.14980
 C1122 C 0.32825 0.31559 -0.16498
 C1123 C 0.40833 0.40572 -0.08515
 C1124 C 0.42033 0.42322 -0.07289
 H1125 H 0.43734 0.40858 -0.13554
 H1126 H 0.44952 0.39997 -0.18845
 H1127 H 0.42170 0.36708 -0.21625
 H1128 H 0.38156 0.34260 -0.19130
 H1129 H 0.31952 0.32278 -0.09721
 H1130 H 0.30827 0.33069 -0.04386
 H1131 H 0.33618 0.36351 -0.01603
 H1132 H 0.37544 0.38870 -0.04138
 C1133 C 1.10492 -0.11293 0.10551
 C1134 C 1.08812 -0.13032 0.12326
 C1135 C 1.10421 -0.14918 0.13945
 C1136 C 1.13699 -0.15053 0.13773
 C1137 C 1.15370 -0.13355 0.11930
 C1138 C 1.13762 -0.11469 0.10315
 C1139 C 1.15485 -0.09784 0.08502
 C1140 C 1.18705 -0.09957 0.08289
 C1141 C 1.20277 -0.11800 0.09868
 C1142 C 1.18642 -0.13483 0.11672
 C1143 C 1.08696 -0.16625 0.15721
 C1144 C 1.05470 -0.16480 0.15885
 C1145 C 1.03896 -0.14641 0.14297
 C1146 C 1.05537 -0.12929 0.12539
 C1147 C 1.15372 -0.16883 0.15556
 C1148 C 1.16843 -0.18343 0.17049
 C1149 C 1.08879 -0.09278 0.09036
 C1150 C 1.07593 -0.07569 0.07800
 H1151 H 1.14368 -0.08320 0.07225
 H1152 H 1.19985 -0.08654 0.06890
 H1153 H 1.22779 -0.11928 0.09695
 H1154 H 1.19972 -0.14887 0.12852
 H1155 H 1.09818 -0.18091 0.16990
 H1156 H 1.04184 -0.17805 0.17249
 H1157 H 1.01391 -0.14542 0.14425
 H1158 H 1.04211 -0.11532 0.11342
 C1159 C 1.10711 0.38885 0.61060
 C1160 C 1.13227 0.39549 0.62959
 C1161 C 1.14886 0.37683 0.64557
 C1162 C 1.14018 0.35163 0.64248
 C1163 C 1.11503 0.34499 0.62350
 C1164 C 1.09844 0.36366 0.60750
 C1165 C 1.07338 0.35659 0.58864
 C1166 C 1.06495 0.33176 0.58568
 C1167 C 1.08117 0.31351 0.60133
 C1168 C 1.10595 0.31994 0.62006
 C1169 C 1.17395 0.38393 0.66441
 C1170 C 1.18238 0.40875 0.66738
 C1171 C 1.16615 0.42699 0.65176
 C1172 C 1.14137 0.42055 0.63306
 C1173 C 1.15724 0.33269 0.65890
 C1174 C 1.17199 0.31752 0.67290
 C1175 C 1.09027 0.40800 0.59432
 C1176 C 1.07675 0.42432 0.58111
 H1177 H 1.06007 0.37013 0.57602
 H1178 H 1.04572 0.32667 0.57116
 H1179 H 1.07453 0.29426 0.59894
 H1180 H 1.11787 0.30509 0.63178
 H1181 H 1.18731 0.37043 0.67703
 H1182 H 1.20162 0.41384 0.68189
 H1183 H 1.17279 0.44625 0.65415
 H1184 H 1.12948 0.43543 0.62138
 C1185 C 0.60433 -0.11442 0.60537
 C1186 C 0.58764 -0.13184 0.62319
 C1187 C 0.60384 -0.15067 0.63931
 C1188 C 0.63661 -0.15197 0.63746
 C1189 C 0.65321 -0.13496 0.61898
 C1190 C 0.63702 -0.11613 0.60289
 C1191 C 0.65415 -0.09926 0.58469
 C1192 C 0.68634 -0.10094 0.58244
 C1193 C 0.70217 -0.11934 0.59818
 C1194 C 0.68593 -0.13620 0.61627
 C1195 C 0.58669 -0.16777 0.65713
 C1196 C 0.55444 -0.16637 0.65889
 C1197 C 0.53860 -0.14800 0.64308
 C1198 C 0.55489 -0.13085 0.62544
 C1199 C 0.65346 -0.17023 0.65524
 C1200 C 0.66825 -0.18479 0.67014
 C1201 C 0.58810 -0.09429 0.59030
 C1202 C 0.57517 -0.07721 0.57800
 H1203 H 0.64289 -0.08464 0.57196
 H1204 H 0.69906 -0.08789 0.56840
 H1205 H 0.72718 -0.12058 0.59636
 H1206 H 0.69930 -0.15021 0.62802
 H1207 H 0.59800 -0.18242 0.66977
 H1208 H 0.54167 -0.17964 0.67258
 H1209 H 0.51355 -0.14704 0.64446
 H1210 H 0.54155 -0.11690 0.61353
 C1211 C 0.60517 0.38643 0.10576
 C1212 C 0.63794 0.38512 0.10393
 C1213 C 0.65409 0.36622 0.11991
 C1214 C 0.63737 0.34874 0.13762
 C1215 C 0.60455 0.34963 0.13877
 C1216 C 0.58839 0.36854 0.12275
 C1217 C 0.55558 0.36912 0.12429
 C1218 C 0.53920 0.35150 0.14114
 C1219 C 0.55501 0.33306 0.15686
 C1220 C 0.58732 0.33205 0.15578
 C1221 C 0.68688 0.36537 0.11788
 C1222 C 0.70322 0.38268 0.10052
 C1223 C 0.68742 0.40116 0.08489
 C1224 C 0.65517 0.40247 0.08651
 C1225 C 0.65414 0.33044 0.15536
 C1226 C 0.66891 0.31586 0.17023
 C1227 C 0.58895 0.40664 0.09089
 C1228 C 0.57607 0.42381 0.07876
 H1229 H 0.54227 0.38310 0.11242
 H1230 H 0.51411 0.35215 0.14197
 H1231 H 0.54217 0.31943 0.16993
 H1232 H 0.59860 0.31732 0.16831
 H1233 H 0.70023 0.35132 0.12958
 H1234 H 0.72828 0.38173 0.09919
 H1235 H 0.70022 0.41456 0.07143
 H1236 H 0.64394 0.41717 0.07389
 C1237 C 0.89592 0.11817 0.10103
 C1238 C 0.86789 0.12792 0.08929
 C1239 C 0.85230 0.14720 0.10504
 C1240 C 0.86487 0.15662 0.13240
 C1241 C 0.89369 0.14773 0.14328
 C1242 C 0.90927 0.12844 0.12755
 C1243 C 0.93790 0.11966 0.13902
 C1244 C 0.95078 0.12968 0.16530
 C1245 C 0.93557 0.14857 0.18067
 C1246 C 0.90732 0.15755 0.16991
 C1247 C 0.82414 0.15648 0.09306
 C1248 C 0.81177 0.14701 0.06624
 C1249 C 0.82702 0.12815 0.05084
 C1250 C 0.85477 0.11864 0.06213
 C1251 C 0.84729 0.17432 0.15023
 C1252 C 0.83215 0.18833 0.16551
 C1253 C 0.91019 0.09685 0.08669
 C1254 C 0.92168 0.07879 0.07527
 H1255 H 0.95067 0.10507 0.12778
 H1256 H 0.97270 0.12276 0.17376
 H1257 H 0.94570 0.15632 0.20104
 H1258 H 0.89639 0.17231 0.18260
 H1259 H 0.81148 0.17119 0.10420
 H1260 H 0.79024 0.15435 0.05737
 H1261 H 0.81730 0.12084 0.03003
 H1262 H 0.86584 0.10404 0.04929
 C1263 C 0.89536 0.61694 0.60225
 C1264 C 0.86668 0.62601 0.59120
 C1265 C 0.85113 0.64532 0.60693
 C1266 C 0.86438 0.65548 0.63358
 C1267 C 0.89379 0.64727 0.64373
 C1268 C 0.90934 0.62794 0.62801
 C1269 C 0.93859 0.61987 0.63875
 C1270 C 0.95210 0.63060 0.66428
 C1271 C 0.93692 0.64953 0.67963
 C1272 C 0.90807 0.65782 0.66959
 C1273 C 0.82232 0.65390 0.59565
 C1274 C 0.80929 0.64372 0.56954
 C1275 C 0.82451 0.62483 0.55416
 C1276 C 0.85287 0.61600 0.56476
 C1277 C 0.84695 0.67328 0.65144
 C1278 C 0.83187 0.68738 0.66667
 C1279 C 0.90971 0.59560 0.58799
 C1280 C 0.92123 0.57754 0.57658
 H1281 H 0.95135 0.60528 0.62748
 H1282 H 0.97449 0.62422 0.67218
 H1283 H 0.94755 0.65783 0.69942
 H1284 H 0.89719 0.67264 0.68222
 H1285 H 0.80966 0.66861 0.60679
 H1286 H 0.78727 0.65052 0.56119
 H1287 H 0.81427 0.61697 0.53390
 H1288 H 0.86388 0.60134 0.55197
 C1289 C 0.39595 0.11692 0.60181
 C1290 C 0.36800 0.12691 0.59023
 C1291 C 0.35273 0.14629 0.60611
 C1292 C 0.36554 0.15555 0.63344
 C1293 C 0.39429 0.14640 0.64418
 C1294 C 0.40955 0.12701 0.62831
 C1295 C 0.43812 0.11798 0.63964
 C1296 C 0.45124 0.12784 0.66590
 C1297 C 0.43634 0.14682 0.68139
 C1298 C 0.40816 0.15605 0.67078
 C1299 C 0.32463 0.15582 0.59429
 C1300 C 0.31202 0.14651 0.56748
 C1301 C 0.32696 0.12756 0.55196
 C1302 C 0.35463 0.11779 0.56310
 C1303 C 0.34828 0.17339 0.65138
 C1304 C 0.33338 0.18752 0.66672
 C1305 C 0.40992 0.09553 0.58733
 C1306 C 0.42121 0.07743 0.57581
 H1307 H 0.45065 0.10331 0.62830
 H1308 H 0.47311 0.12072 0.67424
 H1309 H 0.44666 0.15444 0.70174
 H1310 H 0.39748 0.17088 0.68355
 H1311 H 0.31220 0.17061 0.60552
 H1312 H 0.29055 0.15404 0.55872
 H1313 H 0.31706 0.12038 0.53117
 H1314 H 0.36545 0.10312 0.55017
 C1315 C 0.39501 0.61708 0.10397
 C1316 C 0.36634 0.62611 0.09286
 C1317 C 0.35067 0.64537 0.10857
 C1318 C 0.36379 0.65552 0.13529
 C1319 C 0.39314 0.64728 0.14559
 C1320 C 0.40880 0.62800 0.12988
 C1321 C 0.43800 0.61993 0.14074
 C1322 C 0.45136 0.63061 0.16639
 C1323 C 0.43605 0.64947 0.18175
 C1324 C 0.40725 0.65776 0.17159
 C1325 C 0.32189 0.65392 0.09720
 C1326 C 0.30901 0.64378 0.07099
 C1327 C 0.32434 0.62495 0.05562
 C1328 C 0.35267 0.61613 0.06633
 C1329 C 0.34638 0.67346 0.15296
 C1330 C 0.33136 0.68773 0.16801
 C1331 C 0.40961 0.59592 0.08954
 C1332 C 0.42134 0.57803 0.07792
 H1333 H 0.45085 0.60539 0.12949
 H1334 H 0.47372 0.62423 0.17438
 H1335 H 0.44655 0.65772 0.20164
 H1336 H 0.39626 0.67251 0.18424
 H1337 H 0.30913 0.66858 0.10833
 H1338 H 0.28701 0.65057 0.06257
 H1339 H 0.31421 0.61711 0.03530
 H1340 H 0.36377 0.60151 0.05354
   
