data_POSCAR
  _audit_creation_date              2014-09-24
  _audit_creation_method            'ToBaCCo'
  _symmetry_space_group_name_H-M    'P1'
  _symmetry_Int_Tables_number       1
  _symmetry_cell_setting            triclinic
  loop_
  _symmetry_equiv_pos_as_xyz
 x,y,z
_cell_length_a 62.4999
_cell_length_b 64.4096
_cell_length_c 63.8675
_cell_angle_alpha 91.231000
_cell_angle_beta 90.501000
_cell_angle_gamma 90.998800
loop_
  _atom_site_label
  _atom_site_type_symbol
  _atom_site_fract_x
  _atom_site_fract_y
  _atom_site_fract_z
N1 N 0.17878 0.22122 0.22282
 N2 N 0.18364 0.20341 0.23111
 C3 C 0.17055 0.19976 0.24728
 C4 C 0.15660 0.21616 0.24926
 C5 C 0.16236 0.22952 0.23342
 H6 H 0.17129 0.18620 0.25691
 H7 H 0.15497 0.24402 0.22961
 Cu8 Cu 0.20644 0.18643 0.22013
 Cu9 Cu 0.19359 0.23180 0.19842
 Cu10 Cu 0.23845 0.20513 0.18263
 N11 N 0.23401 0.17440 0.21418
 N12 N 0.24666 0.18188 0.19975
 C13 C 0.26469 0.17075 0.19913
 C14 C 0.26318 0.15538 0.21392
 C15 C 0.24346 0.15819 0.22316
 H16 H 0.27775 0.17343 0.18848
 H17 H 0.23657 0.14929 0.23566
 N18 N 0.22741 0.22910 0.16757
 N19 N 0.21074 0.23974 0.17399
 C20 C 0.20726 0.25521 0.16059
 C21 C 0.22228 0.25407 0.14486
 C22 C 0.23477 0.23733 0.14976
 H23 H 0.19431 0.26609 0.16175
 H24 H 0.24825 0.23160 0.14100
 H25 H 0.20551 0.20415 0.18684
 H26 H 0.22196 0.21845 0.20735
 N27 N 0.67543 0.72691 0.72648
 N28 N 0.67950 0.71045 0.73753
 C29 C 0.66576 0.70966 0.75364
 C30 C 0.65227 0.72649 0.75258
 C31 C 0.65898 0.73709 0.73510
 H32 H 0.66530 0.69749 0.76503
 H33 H 0.65234 0.75113 0.72898
 Cu34 Cu 0.70201 0.69145 0.72938
 Cu35 Cu 0.69109 0.73351 0.70123
 Cu36 Cu 0.73122 0.69998 0.68622
 N37 N 0.72531 0.67335 0.72134
 N38 N 0.73669 0.67678 0.70451
 C39 C 0.75179 0.66221 0.70276
 C40 C 0.74977 0.64882 0.71936
 C41 C 0.73276 0.65641 0.73081
 H42 H 0.76327 0.66135 0.69023
 H43 H 0.72646 0.65022 0.74514
 N44 N 0.72329 0.72440 0.66993
 N45 N 0.70854 0.73755 0.67611
 C46 C 0.70724 0.75289 0.66220
 C47 C 0.72170 0.74914 0.64639
 C48 C 0.73157 0.73092 0.65174
 H49 H 0.69625 0.76564 0.66321
 H50 H 0.74406 0.72318 0.64314
 H51 H 0.69932 0.70333 0.69345
 H52 H 0.71913 0.71893 0.70953
 N53 N 0.32302 0.77370 0.72373
 N54 N 0.31835 0.78995 0.73549
 C55 C 0.33279 0.79181 0.75124
 C56 C 0.34721 0.77579 0.74930
 C57 C 0.34046 0.76462 0.73162
 H58 H 0.33261 0.80372 0.76342
 H59 H 0.34776 0.75097 0.72487
 Cu60 Cu 0.29360 0.80674 0.72917
 Cu61 Cu 0.30620 0.76543 0.69907
 Cu62 Cu 0.26249 0.79552 0.68702
 N63 N 0.26921 0.82371 0.72208
 N64 N 0.25709 0.81922 0.70565
 C65 C 0.24149 0.83329 0.70436
 C66 C 0.24387 0.84754 0.72093
 C67 C 0.26174 0.84083 0.73182
 H68 H 0.22941 0.83306 0.69216
 H69 H 0.26890 0.84781 0.74577
 N70 N 0.27065 0.77091 0.67015
 N71 N 0.28732 0.75954 0.67477
 C72 C 0.28877 0.74399 0.66047
 C73 C 0.27223 0.74556 0.64607
 C74 C 0.26104 0.76284 0.65275
 H75 H 0.30089 0.73225 0.66069
 H76 H 0.24703 0.76918 0.64542
 H77 H 0.29500 0.79475 0.69277
 H78 H 0.27757 0.77778 0.70902
 N79 N 0.82453 0.27603 0.23313
 N80 N 0.81843 0.29208 0.24447
 C81 C 0.83250 0.29544 0.26030
 C82 C 0.84846 0.28072 0.25888
 C83 C 0.84275 0.26868 0.24130
 H84 H 0.83118 0.30779 0.27188
 H85 H 0.85099 0.25539 0.23494
 Cu86 Cu 0.79280 0.30714 0.23727
 Cu87 Cu 0.80806 0.26566 0.20887
 Cu88 Cu 0.76169 0.29197 0.19649
 N89 N 0.76708 0.32204 0.23010
 N90 N 0.75491 0.31604 0.21413
 C91 C 0.73853 0.32922 0.21237
 C92 C 0.74053 0.34438 0.22806
 C93 C 0.75886 0.33922 0.23901
 H94 H 0.72633 0.32804 0.20029
 H95 H 0.76579 0.34740 0.25243
 N96 N 0.77136 0.26731 0.18056
 N97 N 0.78917 0.25755 0.18503
 C98 C 0.79150 0.24168 0.17119
 C99 C 0.77430 0.24135 0.15738
 C100 C 0.76186 0.25784 0.16383
 H101 H 0.80460 0.23095 0.17132
 H102 H 0.74711 0.26274 0.15668
 H103 H 0.79437 0.29357 0.20139
 H104 H 0.77874 0.27623 0.21884
 N105 N 0.82159 0.72285 0.26692
 N106 N 0.81332 0.70809 0.25468
 C107 C 0.82532 0.70628 0.23734
 C108 C 0.84203 0.72072 0.23874
 C109 C 0.83907 0.73094 0.25779
 H110 H 0.82207 0.69531 0.22463
 H111 H 0.84898 0.74323 0.26468
 Cu112 Cu 0.78772 0.69259 0.26266
 Cu113 Cu 0.80923 0.73052 0.29379
 Cu114 Cu 0.76429 0.70266 0.30894
 N115 N 0.76289 0.67663 0.27185
 N116 N 0.75384 0.68071 0.28992
 C117 C 0.73727 0.66746 0.29253
 C118 C 0.73573 0.65422 0.27515
 C119 C 0.75234 0.66057 0.26235
 H120 H 0.72720 0.66748 0.30618
 H121 H 0.75657 0.65391 0.24731
 N122 N 0.77721 0.72543 0.32608
 N123 N 0.79439 0.73597 0.32039
 C124 C 0.79916 0.75052 0.33525
 C125 C 0.78422 0.74913 0.35107
 C126 C 0.77056 0.73301 0.34468
 H127 H 0.81230 0.76159 0.33440
 H128 H 0.75679 0.72720 0.35297
 H129 H 0.79576 0.70162 0.29919
 H130 H 0.77829 0.72105 0.28650
 N131 N 0.32784 0.22673 -0.22694
 N132 N 0.31974 0.21286 -0.24026
 C133 C 0.33275 0.21111 -0.25685
 C134 C 0.35008 0.22474 -0.25387
 C135 C 0.34627 0.23437 -0.23459
 H136 H 0.32966 0.20066 -0.27002
 H137 H 0.35608 0.24605 -0.22657
 Cu138 Cu 0.29293 0.19844 -0.23481
 Cu139 Cu 0.31378 0.23390 -0.20075
 Cu140 Cu 0.26961 0.20383 -0.18768
 N141 N 0.27097 0.17914 -0.22562
 N142 N 0.26181 0.18126 -0.20729
 C143 C 0.24737 0.16573 -0.20505
 C144 C 0.24749 0.15313 -0.22296
 C145 C 0.26275 0.16221 -0.23565
 H146 H 0.23757 0.16381 -0.19134
 H147 H 0.26776 0.15686 -0.25095
 N148 N 0.28030 0.22745 -0.17010
 N149 N 0.29729 0.23871 -0.17503
 C150 C 0.30058 0.25359 -0.16018
 C151 C 0.28490 0.25170 -0.14514
 C152 C 0.27229 0.23494 -0.15199
 H153 H 0.31320 0.26525 -0.16054
 H154 H 0.25834 0.22863 -0.14434
 H155 H 0.30084 0.20424 -0.19786
 H156 H 0.28278 0.22441 -0.20854
 N157 N 0.67694 0.26831 -0.23053
 N158 N 0.68034 0.28593 -0.24000
 C159 C 0.66644 0.28726 -0.25613
 C160 C 0.65348 0.26948 -0.25685
 C161 C 0.66078 0.25782 -0.24026
 H162 H 0.66588 0.30028 -0.26647
 H163 H 0.65475 0.24290 -0.23535
 Cu164 Cu 0.70253 0.30564 -0.23051
 Cu165 Cu 0.69328 0.26049 -0.20597
 Cu166 Cu 0.73499 0.29336 -0.19025
 N167 N 0.72690 0.32318 -0.22195
 N168 N 0.73984 0.31803 -0.20666
 C169 C 0.75535 0.33268 -0.20434
 C170 C 0.75192 0.34792 -0.21887
 C171 C 0.73369 0.34137 -0.22978
 H172 H 0.76793 0.33248 -0.19262
 H173 H 0.72610 0.34917 -0.24261
 N174 N 0.72753 0.26772 -0.17553
 N175 N 0.71158 0.25522 -0.18146
 C176 C 0.70999 0.23959 -0.16786
 C177 C 0.72567 0.24237 -0.15253
 C178 C 0.73650 0.26039 -0.15799
 H179 H 0.69793 0.22738 -0.16877
 H180 H 0.74979 0.26780 -0.14969
 H181 H 0.70244 0.29013 -0.19595
 H182 H 0.72062 0.27657 -0.21472
 N183 N 0.18264 0.77291 0.26746
 N184 N 0.18869 0.79041 0.25897
 C185 C 0.17658 0.79361 0.24186
 C186 C 0.16201 0.77722 0.23946
 C187 C 0.16641 0.76437 0.25607
 H188 H 0.17825 0.80697 0.23203
 H189 H 0.15824 0.75003 0.25986
 Cu190 Cu 0.21136 0.80779 0.27126
 Cu191 Cu 0.19595 0.76288 0.29292
 Cu192 Cu 0.24100 0.78996 0.31107
 N193 N 0.23856 0.82068 0.27932
 N194 N 0.25019 0.81374 0.29480
 C195 C 0.26789 0.82581 0.29714
 C196 C 0.26737 0.84131 0.28230
 C197 C 0.24841 0.83737 0.27125
 H198 H 0.28000 0.82354 0.30900
 H199 H 0.24201 0.84597 0.25836
 N200 N 0.22897 0.76554 0.32526
 N201 N 0.21173 0.75532 0.31840
 C202 C 0.20725 0.73983 0.33158
 C203 C 0.22240 0.74025 0.34754
 C204 C 0.23594 0.75678 0.34297
 H205 H 0.19396 0.72898 0.32963
 H206 H 0.24964 0.76227 0.35205
 H207 H 0.20850 0.79072 0.30485
 H208 H 0.22530 0.77611 0.28563
 N209 N 0.47659 0.42313 0.48428
 N210 N 0.45939 0.42886 0.49441
 C211 C 0.45656 0.41640 0.51089
 C212 C 0.47299 0.40223 0.51114
 C213 C 0.48534 0.40697 0.49396
 H214 H 0.44392 0.41791 0.52224
 H215 H 0.49968 0.39926 0.48888
 Cu216 Cu 0.44340 0.45295 0.48577
 Cu217 Cu 0.48678 0.43719 0.45956
 Cu218 Cu 0.45942 0.48084 0.44456
 N219 N 0.42777 0.47711 0.47675
 N220 N 0.43475 0.48851 0.46131
 C221 C 0.42193 0.50492 0.45918
 C222 C 0.40592 0.50364 0.47392
 C223 C 0.41007 0.48577 0.48477
 H224 H 0.42392 0.51677 0.44758
 H225 H 0.40116 0.47987 0.49788
 N226 N 0.48461 0.47037 0.42953
 N227 N 0.49469 0.45346 0.43500
 C228 C 0.51033 0.44965 0.42116
 C229 C 0.51018 0.46491 0.40626
 C230 C 0.49370 0.47783 0.41211
 H231 H 0.52106 0.43670 0.42184
 H232 H 0.48829 0.49129 0.40389
 H233 H 0.47527 0.46600 0.46824
 H234 H 0.45776 0.44951 0.45055
 N235 N -0.02365 -0.07125 0.98412
 N236 N -0.04087 -0.06439 0.99348
 C237 C -0.04535 -0.07657 1.00982
 C238 C -0.03006 -0.09183 1.01082
 C239 C -0.01651 -0.08791 0.99426
 H240 H -0.05869 -0.07447 1.02026
 H241 H -0.00279 -0.09684 0.98960
 Cu242 Cu -0.05573 -0.04025 0.98338
 Cu243 Cu -0.01239 -0.05868 0.95889
 Cu244 Cu -0.03977 -0.01656 0.93975
 N245 N -0.07071 -0.01639 0.97274
 N246 N -0.06442 -0.00723 0.95562
 C247 C -0.07724 0.00887 0.95188
 C248 C -0.09247 0.00995 0.96752
 C249 C -0.08777 -0.00642 0.98046
 H250 H -0.07541 0.01911 0.93881
 H251 H -0.09606 -0.01074 0.99452
 N252 N -0.01443 -0.02821 0.92597
 N253 N -0.00368 -0.04390 0.93350
 C254 C 0.01305 -0.04778 0.92091
 C255 C 0.01273 -0.03397 0.90461
 C256 C -0.00493 -0.02182 0.90834
 H257 H 0.02448 -0.05993 0.92327
 H258 H -0.01022 -0.00901 0.89908
 H259 H -0.02374 -0.02921 0.96473
 H260 H -0.04125 -0.04726 0.94869
 N261 N 1.02494 0.57801 0.98864
 N262 N 1.04328 0.57334 0.99740
 C263 C 1.04724 0.58661 1.01364
 C264 C 1.03049 0.60039 1.01506
 C265 C 1.01665 0.59440 0.99890
 H266 H 1.06133 0.58639 1.02355
 H267 H 1.00153 0.60128 0.99496
 Cu268 Cu 1.05987 0.55025 0.98660
 Cu269 Cu 1.01299 0.56258 0.96461
 Cu270 Cu 1.04209 0.52093 0.94570
 N271 N 1.07648 0.52729 0.97553
 N272 N 1.06901 0.51542 0.96004
 C273 C 1.08296 0.50017 0.95606
 C274 C 1.10020 0.50275 0.96965
 C275 C 1.09559 0.52015 0.98175
 H276 H 1.08084 0.48823 0.94402
 H277 H 1.10521 0.52674 0.99446
 N278 N 1.01456 0.52919 0.93331
 N279 N 1.00357 0.54509 0.94047
 C280 C 0.98604 0.54724 0.92837
 C281 C 0.98593 0.53199 0.91272
 C282 C 1.00430 0.52082 0.91644
 H283 H 0.97438 0.55923 0.93065
 H284 H 1.01007 0.50783 0.90727
 H285 H 1.02742 0.53479 0.97104
 H286 H 1.04177 0.55234 0.95278
 N287 N 0.52985 0.06854 0.48298
 N288 N 0.54816 0.06426 0.49204
 C289 C 0.55195 0.07799 0.50788
 C290 C 0.53513 0.09173 0.50878
 C291 C 0.52142 0.08521 0.49266
 H292 H 0.56595 0.07796 0.51793
 H293 H 0.50625 0.09184 0.48848
 Cu294 Cu 0.56539 0.04113 0.48252
 Cu295 Cu 0.51811 0.05192 0.45963
 Cu296 Cu 0.54383 0.00604 0.44829
 N297 N 0.57758 0.01382 0.47834
 N298 N 0.56866 -0.00008 0.46550
 C299 C 0.58009 -0.01758 0.46583
 C300 C 0.59720 -0.01444 0.47950
 C301 C 0.59512 0.00571 0.48713
 H302 H 0.57657 -0.03136 0.45638
 H303 H 0.60548 0.01378 0.49837
 N304 N 0.51860 0.01514 0.43253
 N305 N 0.50889 0.03275 0.43667
 C306 C 0.49287 0.03499 0.42270
 C307 C 0.49248 0.01795 0.40903
 C308 C 0.50906 0.00572 0.41583
 H309 H 0.48242 0.04816 0.42240
 H310 H 0.51423 -0.00873 0.40881
 H311 H 0.53152 0.02547 0.47128
 H312 H 0.54596 0.03825 0.44927
 N313 N -0.02417 0.08128 0.52012
 N314 N -0.04155 0.07554 0.50963
 C315 C -0.04434 0.08837 0.49354
 C316 C -0.02784 0.10301 0.49384
 C317 C -0.01535 0.09803 0.51103
 H318 H -0.05747 0.08717 0.48245
 H319 H -0.00076 0.10579 0.51636
 Cu320 Cu -0.05868 0.05156 0.51755
 Cu321 Cu -0.01421 0.06628 0.54454
 Cu322 Cu -0.04408 0.02272 0.55809
 N323 N -0.07560 0.02749 0.52572
 N324 N -0.06921 0.01576 0.54106
 C325 C -0.08316 -0.00020 0.54309
 C326 C -0.09930 0.00173 0.52835
 C327 C -0.09403 0.01951 0.51761
 H328 H -0.08196 -0.01205 0.55475
 H329 H -0.10283 0.02594 0.50470
 N330 N -0.01829 0.03226 0.57357
 N331 N -0.00693 0.04889 0.56868
 C332 C 0.00900 0.05169 0.58293
 C333 C 0.00744 0.03613 0.59755
 C334 C -0.01000 0.02410 0.59099
 H335 H 0.02048 0.06442 0.58302
 H336 H -0.01636 0.01048 0.59849
 H337 H -0.02718 0.03805 0.53504
 H338 H -0.04371 0.05444 0.55286
 N339 N 0.47241 0.58141 0.01904
 N340 N 0.45292 0.57904 0.01142
 C341 C 0.45015 0.59246 -0.00422
 C342 C 0.46900 0.60386 -0.00655
 C343 C 0.48272 0.59637 0.00855
 H344 H 0.43560 0.59361 -0.01337
 H345 H 0.49898 0.60151 0.01184
 Cu346 Cu 0.43302 0.55852 0.02246
 Cu347 Cu 0.48305 0.56512 0.04202
 Cu348 Cu 0.45119 0.52390 0.05708
 N349 N 0.41699 0.53326 0.02865
 N350 N 0.42442 0.51957 0.04169
 C351 C 0.41047 0.50349 0.04265
 C352 C 0.39327 0.50733 0.02959
 C353 C 0.39793 0.52642 0.02098
 H354 H 0.41252 0.49013 0.05239
 H355 H 0.38836 0.53455 0.00971
 N356 N 0.47878 0.53105 0.07075
 N357 N 0.49093 0.54682 0.06499
 C358 C 0.50842 0.54804 0.07743
 C359 C 0.50726 0.53227 0.09181
 C360 C 0.48820 0.52182 0.08706
 H361 H 0.52085 0.55982 0.07637
 H362 H 0.48160 0.50850 0.09492
 H363 H 0.46462 0.53958 0.03240
 H364 H 0.45403 0.55580 0.05462
 N365 N 0.52920 -0.07406 0.02067
 N366 N 0.54530 -0.06659 0.00992
 C367 C 0.54974 -0.08002 -0.00585
 C368 C 0.53568 -0.09686 -0.00492
 C369 C 0.52288 -0.09247 0.01217
 H370 H 0.56230 -0.07772 -0.01712
 H371 H 0.50970 -0.10179 0.01785
 Cu372 Cu 0.55875 -0.03997 0.01752
 Cu373 Cu 0.51734 -0.05925 0.04466
 Cu374 Cu 0.54047 -0.01142 0.05807
 N375 N 0.57127 -0.01291 0.02497
 N376 N 0.56413 -0.00187 0.04089
 C377 C 0.57579 0.01585 0.04286
 C378 C 0.59110 0.01600 0.02729
 C379 C 0.58769 -0.00254 0.01623
 H380 H 0.57328 0.02771 0.05476
 H381 H 0.59678 -0.00825 0.00307
 N382 N 0.51638 -0.02374 0.07351
 N383 N 0.50760 -0.04195 0.06841
 C384 C 0.49169 -0.04609 0.08187
 C385 C 0.49034 -0.02972 0.09619
 C386 C 0.50628 -0.01584 0.09035
 H387 H 0.48196 -0.06012 0.08138
 H388 H 0.51021 -0.00100 0.09774
 H389 H 0.52590 -0.02984 0.03498
 H390 H 0.54494 -0.04282 0.05297
 N391 N 1.01796 0.42623 0.52053
 N392 N 1.03582 0.43114 0.51098
 C393 C 1.03887 0.41743 0.49510
 C394 C 1.02196 0.40320 0.49464
 C395 C 1.00902 0.40932 0.51106
 H396 H 1.05226 0.41790 0.48452
 H397 H 0.99429 0.40192 0.51594
 Cu398 Cu 1.05307 0.45513 0.52019
 Cu399 Cu 1.00763 0.44193 0.54462
 Cu400 Cu 1.03855 0.48421 0.56193
 N401 N 1.07041 0.47875 0.53018
 N402 N 1.06468 0.49002 0.54651
 C403 C 1.07929 0.50534 0.54995
 C404 C 1.09508 0.50367 0.53492
 C405 C 1.08886 0.48656 0.52265
 H406 H 1.07828 0.51701 0.56229
 H407 H 1.09718 0.48020 0.50928
 N408 N 1.01155 0.47576 0.57537
 N409 N 0.99983 0.45966 0.56873
 C410 C 0.98263 0.45772 0.58110
 C411 C 0.98345 0.47335 0.59631
 C412 C 1.00204 0.48451 0.59215
 H413 H 0.97034 0.44583 0.57911
 H414 H 1.00835 0.49784 0.60088
 H415 H 1.02199 0.47003 0.53732
 H416 H 1.03738 0.45280 0.55487
 C417 C 0.37376 0.00159 0.25107
 C418 C 0.12603 -0.00125 0.74900
 C419 C 0.62063 0.49612 0.24819
 C420 C 0.87135 0.50148 0.75403
 C421 C 0.24555 0.37758 -0.00035
 C422 C 0.75324 0.12610 -0.00097
 C423 C 0.25078 0.61981 0.49531
 C424 C 0.75369 0.87123 0.50124
 C425 C 0.00674 0.24950 0.37283
 C426 C -0.00051 0.75808 0.12656
 C427 C 0.49865 0.24816 0.62068
 C428 C 0.49893 0.75212 0.87405
 C429 C 0.13246 0.20183 0.27688
 C430 C 0.11604 0.20415 0.29141
 C431 C 0.10581 0.22322 0.29405
 C432 C 0.11268 0.24014 0.28207
 C433 C 0.12910 0.23782 0.26751
 C434 C 0.13917 0.21863 0.26471
 C435 C 0.08863 0.22488 0.30986
 C436 C 0.07377 0.23966 0.30987
 C437 C 0.05691 0.24138 0.32595
 C438 C 0.04779 0.26078 0.32976
 C439 C 0.03197 0.26318 0.34485
 C440 C 0.02501 0.24631 0.35696
 C441 C 0.03325 0.22654 0.35200
 C442 C 0.04916 0.22416 0.33693
 H443 H 0.13970 0.18678 0.27514
 H444 H 0.11119 0.19090 0.30052
 H445 H 0.10583 0.25533 0.28409
 H446 H 0.13406 0.25120 0.25870
 H447 H 0.08827 0.21326 0.32185
 H448 H 0.07405 0.25139 0.29801
 H449 H 0.05300 0.27420 0.32109
 H450 H 0.02519 0.27840 0.34721
 H451 H 0.02716 0.21270 0.35933
 H452 H 0.05486 0.20870 0.33354
 C453 C 0.61900 0.74632 0.76066
 C454 C 0.60181 0.75098 0.77368
 C455 C 0.59927 0.74103 0.79284
 C456 C 0.61468 0.72663 0.79898
 C457 C 0.63187 0.72194 0.78594
 C458 C 0.63419 0.73165 0.76657
 C459 C 0.58070 0.74648 0.80608
 C460 C 0.57264 0.73393 0.82066
 C461 C 0.55382 0.73901 0.83372
 C462 C 0.54294 0.72276 0.84356
 C463 C 0.52544 0.72669 0.85640
 C464 C 0.51869 0.74720 0.86048
 C465 C 0.52910 0.76333 0.84969
 C466 C 0.54666 0.75941 0.83689
 H467 H 0.62015 0.75409 0.74586
 H468 H 0.59029 0.76226 0.76863
 H469 H 0.61380 0.71917 0.81396
 H470 H 0.64345 0.71086 0.79121
 H471 H 0.57282 0.76087 0.80275
 H472 H 0.57941 0.71874 0.82260
 H473 H 0.54782 0.70685 0.84108
 H474 H 0.51708 0.71345 0.86274
 H475 H 0.52380 0.77918 0.85151
 H476 H 0.55464 0.77249 0.82983
 C477 C 0.37483 0.75157 0.76287
 C478 C 0.39196 0.74724 0.77617
 C479 C 0.40048 0.76258 0.78991
 C480 C 0.39121 0.78234 0.79036
 C481 C 0.37397 0.78665 0.77714
 C482 C 0.36560 0.77132 0.76322
 C483 C 0.41826 0.75708 0.80415
 C484 C 0.43249 0.77105 0.81208
 C485 C 0.44978 0.76587 0.82708
 C486 C 0.45928 0.78199 0.83918
 C487 C 0.47506 0.77790 0.85407
 C488 C 0.48146 0.75735 0.85775
 C489 C 0.47305 0.74148 0.84432
 C490 C 0.45729 0.74559 0.82940
 H491 H 0.36864 0.73929 0.75257
 H492 H 0.39864 0.73182 0.77570
 H493 H 0.39685 0.79440 0.80120
 H494 H 0.36727 0.80202 0.77784
 H495 H 0.41949 0.74089 0.80800
 H496 H 0.43119 0.78719 0.80795
 H497 H 0.45440 0.79789 0.83718
 H498 H 0.48229 0.79101 0.86245
 H499 H 0.47853 0.72570 0.84563
 H500 H 0.45134 0.73282 0.81963
 C501 C -0.13073 0.29164 0.29013
 C502 C -0.11311 0.28949 0.30344
 C503 C -0.09786 0.27423 0.29949
 C504 C -0.10050 0.26125 0.28161
 C505 C -0.11821 0.26330 0.26830
 C506 C -0.13367 0.27855 0.27232
 C507 C -0.07932 0.27295 0.31411
 C508 C -0.06618 0.25670 0.31496
 C509 C -0.04789 0.25558 0.32990
 C510 C -0.03911 0.23615 0.33382
 C511 C -0.02186 0.23436 0.34767
 C512 C -0.01318 0.25189 0.35858
 C513 C -0.02129 0.27153 0.35357
 C514 C -0.03845 0.27333 0.33961
 H515 H -0.14199 0.30361 0.29408
 H516 H -0.11143 0.29983 0.31698
 H517 H -0.08886 0.24969 0.27750
 H518 H -0.11947 0.25298 0.25477
 H519 H -0.07711 0.28573 0.32521
 H520 H -0.06934 0.24314 0.30508
 H521 H -0.04559 0.22226 0.32609
 H522 H -0.01525 0.21914 0.34997
 H523 H -0.01408 0.28570 0.35993
 H524 H -0.04377 0.28876 0.33609
 C525 C -0.13758 0.71043 0.20647
 C526 C -0.12097 0.71366 0.19231
 C527 C -0.10708 0.73093 0.19461
 C528 C -0.11005 0.74484 0.21159
 C529 C -0.12664 0.74160 0.22574
 C530 C -0.14060 0.72433 0.22342
 C531 C -0.08916 0.73322 0.17966
 C532 C -0.07852 0.75116 0.17659
 C533 C -0.05961 0.75289 0.16283
 C534 C -0.04457 0.76887 0.16693
 C535 C -0.02600 0.77047 0.15505
 C536 C -0.02165 0.75588 0.13889
 C537 C -0.03777 0.74094 0.13372
 C538 C -0.05633 0.73930 0.14569
 H539 H -0.14782 0.69684 0.20420
 H540 H -0.11893 0.70257 0.17952
 H541 H -0.09935 0.75798 0.21443
 H542 H -0.12838 0.75268 0.23855
 H543 H -0.08449 0.71934 0.17114
 H544 H -0.08304 0.76508 0.18508
 H545 H -0.04698 0.77995 0.17966
 H546 H -0.01461 0.78288 0.15883
 H547 H -0.03642 0.73057 0.12031
 H548 H -0.06820 0.72758 0.14121
 C549 C 0.38375 0.24284 0.73783
 C550 C 0.40098 0.24617 0.72446
 C551 C 0.40253 0.23502 0.70547
 C552 C 0.38653 0.22011 0.70024
 C553 C 0.36926 0.21677 0.71359
 C554 C 0.36753 0.22809 0.73263
 C555 C 0.42136 0.23907 0.69205
 C556 C 0.42243 0.23356 0.67171
 C557 C 0.44158 0.23764 0.65882
 C558 C 0.44544 0.22466 0.64143
 C559 C 0.46353 0.22775 0.62910
 C560 C 0.47859 0.24376 0.63408
 C561 C 0.47364 0.25766 0.65067
 C562 C 0.45561 0.25453 0.66301
 H563 H 0.38336 0.25197 0.75221
 H564 H 0.41314 0.25764 0.72898
 H565 H 0.38735 0.21065 0.68611
 H566 H 0.35745 0.20511 0.70886
 H567 H 0.43490 0.24706 0.69945
 H568 H 0.40919 0.22532 0.66412
 H569 H 0.43443 0.21199 0.63739
 H570 H 0.46529 0.21770 0.61549
 H571 H 0.48401 0.27094 0.65422
 H572 H 0.45255 0.26560 0.67556
 C573 C 0.62483 0.24570 0.73044
 C574 C 0.60762 0.24113 0.71691
 C575 C 0.60155 0.25511 0.70153
 C576 C 0.61313 0.27393 0.69998
 C577 C 0.63039 0.27853 0.71347
 C578 C 0.63647 0.26457 0.72907
 C579 C 0.58237 0.25000 0.68840
 C580 C 0.57788 0.25913 0.67021
 C581 C 0.55791 0.25494 0.65793
 C582 C 0.55732 0.26012 0.63673
 C583 C 0.53847 0.25758 0.62495
 C584 C 0.51930 0.25058 0.63422
 C585 C 0.52042 0.24420 0.65522
 C586 C 0.53925 0.24676 0.66700
 H587 H 0.62873 0.23434 0.74201
 H588 H 0.59890 0.22657 0.71858
 H589 H 0.60864 0.28548 0.68880
 H590 H 0.63860 0.29329 0.71172
 H591 H 0.57184 0.23784 0.69393
 H592 H 0.58936 0.26989 0.66366
 H593 H 0.57151 0.26622 0.62923
 H594 H 0.53867 0.26160 0.60857
 H595 H 0.50687 0.23708 0.66282
 H596 H 0.53884 0.24262 0.68330
 C597 C 0.14075 0.79032 0.20901
 C598 C 0.12417 0.78807 0.19428
 C599 C 0.11123 0.77007 0.19351
 C600 C 0.11576 0.75393 0.20728
 C601 C 0.13236 0.75616 0.22201
 C602 C 0.14492 0.77450 0.22325
 C603 C 0.09326 0.76874 0.17820
 C604 C 0.07561 0.75703 0.18108
 C605 C 0.05675 0.75704 0.16684
 C606 C 0.03678 0.75118 0.17476
 C607 C 0.01843 0.75146 0.16217
 C608 C 0.01940 0.75810 0.14123
 C609 C 0.03986 0.76244 0.13299
 C610 C 0.05822 0.76222 0.14563
 H611 H 0.15003 0.80465 0.20934
 H612 H 0.12117 0.80065 0.18371
 H613 H 0.10667 0.73948 0.20666
 H614 H 0.13527 0.74345 0.23238
 H615 H 0.09396 0.77904 0.16504
 H616 H 0.07408 0.74826 0.19527
 H617 H 0.03531 0.74639 0.19086
 H618 H 0.00365 0.74606 0.16898
 H619 H 0.04156 0.76626 0.11665
 H620 H 0.07350 0.76577 0.13862
 C621 C 0.30065 0.14199 0.21363
 C622 C 0.31542 0.12656 0.21798
 C623 C 0.30869 0.10786 0.22688
 C624 C 0.28700 0.10512 0.23199
 C625 C 0.27230 0.12062 0.22790
 C626 C 0.27892 0.13916 0.21854
 C627 C 0.32454 0.09167 0.23117
 C628 C 0.31949 0.07139 0.22969
 C629 C 0.33464 0.05470 0.23438
 C630 C 0.33139 0.03519 0.22470
 C631 C 0.34432 0.01859 0.22981
 C632 C 0.36021 0.02067 0.24560
 C633 C 0.36428 0.04073 0.25427
 C634 C 0.35146 0.05744 0.24898
 H635 H 0.30628 0.15622 0.20665
 H636 H 0.33210 0.12910 0.21414
 H637 H 0.28140 0.09110 0.23942
 H638 H 0.25570 0.11792 0.23185
 H639 H 0.34087 0.09660 0.23461
 H640 H 0.30368 0.06666 0.22410
 H641 H 0.31875 0.03276 0.21315
 H642 H 0.34146 0.00378 0.22183
 H643 H 0.37737 0.04373 0.26515
 H644 H 0.35446 0.07232 0.25672
 C645 C 0.75546 0.61528 0.73772
 C646 C 0.76771 0.59788 0.74189
 C647 C 0.78777 0.59533 0.73260
 C648 C 0.79520 0.61041 0.71866
 C649 C 0.78288 0.62777 0.71438
 C650 C 0.76288 0.63044 0.72390
 C651 C 0.80000 0.57640 0.73717
 C652 C 0.82136 0.57537 0.73572
 C653 C 0.83340 0.55639 0.74050
 C654 C 0.85488 0.55833 0.74681
 C655 C 0.86673 0.54076 0.75134
 C656 C 0.85735 0.52065 0.75011
 C657 C 0.83612 0.51882 0.74238
 C658 C 0.82426 0.53640 0.73795
 H659 H 0.74004 0.61666 0.74513
 H660 H 0.76151 0.58638 0.75250
 H661 H 0.81030 0.60870 0.71071
 H662 H 0.78912 0.63911 0.70367
 H663 H 0.79105 0.56320 0.74295
 H664 H 0.83057 0.58917 0.73196
 H665 H 0.86253 0.57352 0.74828
 H666 H 0.88336 0.54286 0.75589
 H667 H 0.82865 0.50383 0.73913
 H668 H 0.80814 0.53421 0.73190
 C669 C 0.75548 0.38454 0.76894
 C670 C 0.76746 0.40284 0.76647
 C671 C 0.78901 0.40404 0.77277
 C672 C 0.79826 0.38672 0.78209
 C673 C 0.78619 0.36851 0.78482
 C674 C 0.76470 0.36720 0.77819
 C675 C 0.80116 0.42372 0.77007
 C676 C 0.82226 0.42437 0.76649
 C677 C 0.83428 0.44402 0.76328
 C678 C 0.85227 0.44388 0.75036
 C679 C 0.86401 0.46214 0.74699
 C680 C 0.85794 0.48123 0.75631
 C681 C 0.84069 0.48082 0.77045
 C682 C 0.82878 0.46262 0.77357
 H683 H 0.73889 0.38412 0.76391
 H684 H 0.75993 0.41605 0.75945
 H685 H 0.81468 0.38731 0.78763
 H686 H 0.79377 0.35542 0.79199
 H687 H 0.79218 0.43795 0.76979
 H688 H 0.83084 0.40999 0.76457
 H689 H 0.85726 0.42956 0.74283
 H690 H 0.87815 0.46101 0.73744
 H691 H 0.83638 0.49477 0.77907
 H692 H 0.81561 0.46304 0.78446
 C693 C 0.30098 -0.14027 0.29193
 C694 C 0.31537 -0.12364 0.28937
 C695 C 0.31137 -0.10848 0.27449
 C696 C 0.29315 -0.11073 0.26155
 C697 C 0.27884 -0.12736 0.26398
 C698 C 0.28231 -0.14231 0.27941
 C699 C 0.32651 -0.09068 0.27250
 C700 C 0.32001 -0.07194 0.26662
 C701 C 0.33440 -0.05365 0.26412
 C702 C 0.32539 -0.03390 0.26472
 C703 C 0.33783 -0.01622 0.26098
 C704 C 0.35961 -0.01778 0.25551
 C705 C 0.36889 -0.03758 0.25645
 C706 C 0.35642 -0.05533 0.26028
 H707 H 0.30463 -0.15138 0.30384
 H708 H 0.32947 -0.12239 0.29933
 H709 H 0.28998 -0.09977 0.24935
 H710 H 0.26502 -0.12820 0.25370
 H711 H 0.34302 -0.09289 0.27708
 H712 H 0.30308 -0.06952 0.26413
 H713 H 0.30857 -0.03211 0.26818
 H714 H 0.33019 -0.00135 0.26252
 H715 H 0.38583 -0.03937 0.25362
 H716 H 0.36401 -0.07028 0.25968
 C717 C 0.23589 -0.12188 0.74299
 C718 C 0.22343 -0.10455 0.74744
 C719 C 0.20577 -0.09991 0.73481
 C720 C 0.20098 -0.11289 0.71735
 C721 C 0.21343 -0.13023 0.71285
 C722 C 0.23114 -0.13506 0.72558
 C723 C 0.19346 -0.08098 0.73992
 C724 C 0.17328 -0.07799 0.73344
 C725 C 0.16136 -0.05870 0.73798
 C726 C 0.14419 -0.05374 0.72486
 C727 C 0.13282 -0.03550 0.72820
 C728 C 0.13865 -0.02130 0.74452
 C729 C 0.15481 -0.02729 0.75863
 C730 C 0.16621 -0.04552 0.75528
 H731 H 0.24926 -0.12470 0.75332
 H732 H 0.22761 -0.09473 0.76089
 H733 H 0.18795 -0.10955 0.70677
 H734 H 0.20909 -0.13964 0.69920
 H735 H 0.20157 -0.06913 0.74944
 H736 H 0.16514 -0.08980 0.72390
 H737 H 0.13957 -0.06401 0.71189
 H738 H 0.11929 -0.03277 0.71803
 H739 H 0.15876 -0.01766 0.77227
 H740 H 0.17849 -0.04934 0.76652
 C741 C 0.73297 0.37841 0.24622
 C742 C 0.72013 0.39565 0.24964
 C743 C 0.70051 0.39743 0.23906
 C744 C 0.69408 0.38157 0.22472
 C745 C 0.70697 0.36430 0.22127
 C746 C 0.72660 0.36251 0.23195
 C747 C 0.68791 0.41645 0.24287
 C748 C 0.66705 0.41811 0.23816
 C749 C 0.65511 0.43760 0.24143
 C750 C 0.63712 0.44114 0.22886
 C751 C 0.62588 0.45963 0.23087
 C752 C 0.63261 0.47541 0.24531
 C753 C 0.64963 0.47090 0.25907
 C754 C 0.66091 0.45245 0.25700
 H755 H 0.74803 0.37780 0.25462
 H756 H 0.72559 0.40770 0.26062
 H757 H 0.67942 0.38252 0.21573
 H758 H 0.70149 0.35242 0.21015
 H759 H 0.69644 0.42968 0.24984
 H760 H 0.65837 0.40512 0.23098
 H761 H 0.63181 0.42959 0.21728
 H762 H 0.61177 0.46122 0.22119
 H763 H 0.65443 0.48197 0.27130
 H764 H 0.67392 0.44981 0.26783
 C765 C 0.70456 0.63211 0.28650
 C766 C 0.69000 0.61566 0.28316
 C767 C 0.69056 0.60343 0.26475
 C768 C 0.70571 0.60840 0.24939
 C769 C 0.72030 0.62489 0.25272
 C770 C 0.72002 0.63689 0.27139
 C771 C 0.67493 0.58593 0.26222
 C772 C 0.67778 0.56950 0.24933
 C773 C 0.66283 0.55135 0.24826
 C774 C 0.67053 0.53210 0.24139
 C775 C 0.65728 0.51440 0.24108
 C776 C 0.63594 0.51532 0.24815
 C777 C 0.62787 0.53513 0.25327
 C778 C 0.64113 0.55281 0.25359
 H779 H 0.70363 0.64094 0.30103
 H780 H 0.67838 0.61231 0.29518
 H781 H 0.70626 0.59982 0.23467
 H782 H 0.73173 0.62818 0.24057
 H783 H 0.66129 0.58603 0.27255
 H784 H 0.69235 0.56840 0.24039
 H785 H 0.68697 0.53069 0.23641
 H786 H 0.66392 0.50014 0.23502
 H787 H 0.61123 0.53681 0.25744
 H788 H 0.63421 0.56758 0.25781
 C789 C 0.23517 0.12406 0.75267
 C790 C 0.22294 0.10609 0.74836
 C791 C 0.20945 0.09775 0.76358
 C792 C 0.20878 0.10755 0.78346
 C793 C 0.22105 0.12552 0.78780
 C794 C 0.23438 0.13405 0.77245
 C795 C 0.19693 0.07854 0.75831
 C796 C 0.17880 0.07314 0.76806
 C797 C 0.16603 0.05412 0.76263
 C798 C 0.14431 0.05351 0.76780
 C799 C 0.13174 0.03581 0.76337
 C800 C 0.14069 0.01776 0.75440
 C801 C 0.16238 0.01884 0.74839
 C802 C 0.17496 0.03658 0.75281
 H803 H 0.24516 0.13006 0.74039
 H804 H 0.22389 0.09876 0.73297
 H805 H 0.19916 0.10123 0.79587
 H806 H 0.22018 0.13253 0.80330
 H807 H 0.20235 0.06921 0.74517
 H808 H 0.17231 0.08353 0.77984
 H809 H 0.13693 0.06689 0.77513
 H810 H 0.11490 0.03614 0.76716
 H811 H 0.16976 0.00612 0.74003
 H812 H 0.19168 0.03633 0.74866
 C813 C 0.23209 0.25933 0.10745
 C814 C 0.23357 0.27182 0.08988
 C815 C 0.22770 0.29271 0.09110
 C816 C 0.21970 0.30080 0.11003
 C817 C 0.21776 0.28818 0.12748
 C818 C 0.22411 0.26738 0.12639
 C819 C 0.22956 0.30557 0.07231
 C820 C 0.23580 0.32556 0.07343
 C821 C 0.23839 0.33830 0.05464
 C822 C 0.25507 0.35304 0.05409
 C823 C 0.25785 0.36547 0.03663
 C824 C 0.24327 0.36427 0.01955
 C825 C 0.22676 0.34899 0.02021
 C826 C 0.22430 0.33627 0.03749
 H827 H 0.23684 0.24327 0.10611
 H828 H 0.23959 0.26523 0.07538
 H829 H 0.21462 0.31676 0.11126
 H830 H 0.21155 0.29476 0.14189
 H831 H 0.22712 0.29802 0.05713
 H832 H 0.24049 0.33246 0.08844
 H833 H 0.26631 0.35461 0.06706
 H834 H 0.27170 0.37568 0.03675
 H835 H 0.21550 0.34711 0.00729
 H836 H 0.21113 0.32514 0.03756
 C837 C 0.73246 0.75272 0.60891
 C838 C 0.73538 0.76477 0.59116
 C839 C 0.73197 0.78623 0.59210
 C840 C 0.72508 0.79541 0.61098
 C841 C 0.72176 0.78332 0.62859
 C842 C 0.72549 0.76188 0.62775
 C843 C 0.73496 0.79864 0.57312
 C844 C 0.74296 0.81807 0.57402
 C845 C 0.74595 0.83077 0.55525
 C846 C 0.76345 0.84454 0.55450
 C847 C 0.76641 0.85728 0.53731
 C848 C 0.75124 0.85741 0.52074
 C849 C 0.73392 0.84302 0.52150
 C850 C 0.73126 0.82996 0.53850
 H851 H 0.73523 0.73619 0.60778
 H852 H 0.74050 0.75736 0.57671
 H853 H 0.72186 0.81186 0.61204
 H854 H 0.71642 0.79080 0.64291
 H855 H 0.73152 0.79125 0.55804
 H856 H 0.74852 0.82461 0.58891
 H857 H 0.77513 0.84519 0.56715
 H858 H 0.78083 0.86673 0.53723
 H859 H 0.72220 0.84214 0.50891
 H860 H 0.71744 0.81960 0.53875
 C861 C 0.80011 0.77519 0.37686
 C862 C 0.79855 0.78799 0.39472
 C863 C 0.77957 0.78847 0.40628
 C864 C 0.76238 0.77531 0.40001
 C865 C 0.76396 0.76247 0.38221
 C866 C 0.78277 0.76238 0.37029
 C867 C 0.77838 0.80263 0.42482
 C868 C 0.75993 0.81045 0.43174
 C869 C 0.75865 0.82555 0.44950
 C870 C 0.74115 0.83879 0.45043
 C871 C 0.73934 0.85345 0.46671
 C872 C 0.75526 0.85556 0.48252
 C873 C 0.77209 0.84119 0.48212
 C874 C 0.77394 0.82659 0.46575
 H875 H 0.81497 0.77532 0.36830
 H876 H 0.81212 0.79778 0.39936
 H877 H 0.74774 0.77472 0.40890
 H878 H 0.75029 0.75280 0.37772
 H879 H 0.79335 0.80784 0.43199
 H880 H 0.74522 0.80683 0.42324
 H881 H 0.72877 0.83784 0.43845
 H882 H 0.72511 0.86271 0.46683
 H883 H 0.78404 0.84148 0.49451
 H884 H 0.78713 0.81596 0.46613
 C885 C 0.29887 0.27811 -0.11879
 C886 C 0.29606 0.29127 -0.10141
 C887 C 0.27631 0.29197 -0.09119
 C888 C 0.25957 0.27865 -0.09830
 C889 C 0.26242 0.26539 -0.11566
 C890 C 0.28203 0.26515 -0.12626
 C891 C 0.27395 0.30660 -0.07314
 C892 C 0.25512 0.31447 -0.06735
 C893 C 0.25298 0.33021 -0.05024
 C894 C 0.23527 0.34324 -0.05043
 C895 C 0.23270 0.35849 -0.03482
 C896 C 0.24803 0.36142 -0.01856
 C897 C 0.26516 0.34739 -0.01791
 C898 C 0.26772 0.33218 -0.03356
 H899 H 0.31432 0.27810 -0.12630
 H900 H 0.30930 0.30117 -0.09610
 H901 H 0.24432 0.27825 -0.09043
 H902 H 0.24912 0.25558 -0.12091
 H903 H 0.28851 0.31216 -0.06544
 H904 H 0.24085 0.31042 -0.07636
 H905 H 0.22332 0.34163 -0.06278
 H906 H 0.21835 0.36753 -0.03556
 H907 H 0.27673 0.34837 -0.00518
 H908 H 0.28106 0.32179 -0.03228
 C909 C 0.74338 0.23646 -0.11773
 C910 C 0.74655 0.22457 -0.09997
 C911 C 0.73602 0.20533 -0.09790
 C912 C 0.72198 0.19829 -0.11398
 C913 C 0.71878 0.21020 -0.13176
 C914 C 0.72942 0.22946 -0.13386
 C915 C 0.73953 0.19360 -0.07845
 C916 C 0.73577 0.17312 -0.07685
 C917 C 0.73979 0.16170 -0.05731
 C918 C 0.74365 0.14035 -0.05861
 C919 C 0.74787 0.12919 -0.04057
 C920 C 0.74884 0.13911 -0.02063
 C921 C 0.74332 0.16029 -0.01938
 C922 C 0.73912 0.17144 -0.03744
 H923 H 0.75173 0.25126 -0.11858
 H924 H 0.75731 0.23047 -0.08775
 H925 H 0.71305 0.18384 -0.11278
 H926 H 0.70790 0.20425 -0.14379
 H927 H 0.74649 0.20218 -0.06523
 H928 H 0.73075 0.16405 -0.09053
 H929 H 0.74360 0.13230 -0.07368
 H930 H 0.75075 0.11270 -0.04218
 H931 H 0.74176 0.16838 -0.00450
 H932 H 0.73485 0.18758 -0.03566
 C933 C 0.20622 0.71338 0.37084
 C934 C 0.20749 0.70009 0.38780
 C935 C 0.22635 0.69909 0.39978
 C936 C 0.24379 0.71212 0.39478
 C937 C 0.24249 0.72547 0.37786
 C938 C 0.22373 0.72619 0.36561
 C939 C 0.22700 0.68475 0.41762
 C940 C 0.24520 0.67686 0.42507
 C941 C 0.24595 0.66218 0.44262
 C942 C 0.26368 0.64931 0.44445
 C943 C 0.26531 0.63549 0.46091
 C944 C 0.24897 0.63385 0.47599
 C945 C 0.23169 0.64761 0.47453
 C946 C 0.23006 0.66139 0.45803
 H947 H 0.19139 0.71370 0.36200
 H948 H 0.19374 0.69041 0.39147
 H949 H 0.25836 0.71232 0.40404
 H950 H 0.25629 0.73511 0.37436
 H951 H 0.21182 0.67971 0.42396
 H952 H 0.26015 0.68035 0.41737
 H953 H 0.27648 0.65006 0.43314
 H954 H 0.27976 0.62660 0.46194
 H955 H 0.21938 0.64768 0.48637
 H956 H 0.21663 0.67174 0.45776
 C957 C 0.24788 0.73249 0.61692
 C958 C 0.24343 0.71906 0.59987
 C959 C 0.25857 0.70464 0.59304
 C960 C 0.27822 0.70370 0.60387
 C961 C 0.28266 0.71708 0.62092
 C962 C 0.26755 0.73163 0.62770
 C963 C 0.25298 0.69025 0.57530
 C964 C 0.26768 0.68093 0.56332
 C965 C 0.26236 0.66590 0.54604
 C966 C 0.27760 0.66233 0.53048
 C967 C 0.27365 0.64769 0.51441
 C968 C 0.25465 0.63548 0.51379
 C969 C 0.23899 0.63989 0.52902
 C970 C 0.24294 0.65457 0.54509
 H971 H 0.23575 0.74330 0.62177
 H972 H 0.22807 0.71996 0.59196
 H973 H 0.29006 0.69237 0.59960
 H974 H 0.29799 0.71591 0.62874
 H975 H 0.23616 0.68793 0.57168
 H976 H 0.28444 0.68486 0.56571
 H977 H 0.29262 0.67097 0.53068
 H978 H 0.28568 0.64561 0.50249
 H979 H 0.22343 0.63232 0.52861
 H980 H 0.23078 0.65672 0.55684
 C981 C 0.74940 0.22406 0.13109
 C982 C 0.74545 0.21012 0.11436
 C983 C 0.76213 0.19867 0.10555
 C984 C 0.78284 0.20102 0.11420
 C985 C 0.78676 0.21482 0.13105
 C986 C 0.77011 0.22659 0.13961
 C987 C 0.75728 0.18412 0.08777
 C988 C 0.77168 0.17911 0.07314
 C989 C 0.76656 0.16532 0.05485
 C990 C 0.77809 0.16783 0.03636
 C991 C 0.77357 0.15528 0.01873
 C992 C 0.75715 0.13993 0.01890
 C993 C 0.74664 0.13660 0.03808
 C994 C 0.75105 0.14930 0.05568
 H995 H 0.73614 0.23264 0.13747
 H996 H 0.72931 0.20843 0.10813
 H997 H 0.79599 0.19201 0.10822
 H998 H 0.80290 0.21637 0.13721
 H999 H 0.74093 0.17848 0.08601
 H1000 H 0.78742 0.18641 0.07373
 H1001 H 0.79054 0.17969 0.03547
 H1002 H 0.78282 0.15768 0.00470
 H1003 H 0.73532 0.12392 0.03989
 H1004 H 0.74268 0.14618 0.07006
 C1005 C 0.49767 0.37810 0.52923
 C1006 C 0.50152 0.36254 0.54359
 C1007 C 0.48478 0.35421 0.55541
 C1008 C 0.46412 0.36226 0.55312
 C1009 C 0.46030 0.37803 0.53889
 C1010 C 0.47700 0.38594 0.52663
 C1011 C 0.48955 0.33729 0.56997
 C1012 C 0.47524 0.32245 0.57479
 C1013 C 0.48093 0.30432 0.58743
 C1014 C 0.47012 0.28538 0.58364
 C1015 C 0.47590 0.26769 0.59442
 C1016 C 0.49291 0.26829 0.60917
 C1017 C 0.50243 0.28786 0.61413
 C1018 C 0.49675 0.30554 0.60319
 H1019 H 0.51096 0.38409 0.52031
 H1020 H 0.51761 0.35674 0.54523
 H1021 H 0.45095 0.35658 0.56241
 H1022 H 0.44422 0.38379 0.53729
 H1023 H 0.50595 0.33605 0.57535
 H1024 H 0.45944 0.32246 0.56769
 H1025 H 0.45745 0.28416 0.57198
 H1026 H 0.46734 0.25325 0.59094
 H1027 H 0.51408 0.28984 0.62664
 H1028 H 0.50455 0.32021 0.60734
 C1029 C -0.04713 0.88464 0.03689
 C1030 C -0.04613 0.86814 0.05071
 C1031 C -0.02681 0.85796 0.05416
 C1032 C -0.00849 0.86439 0.04322
 C1033 C -0.00954 0.88075 0.02923
 C1034 C -0.02887 0.89106 0.02591
 C1035 C -0.02656 0.83998 0.06824
 C1036 C -0.00906 0.83436 0.07884
 C1037 C -0.00831 0.81564 0.09191
 C1038 C 0.00683 0.81492 0.10817
 C1039 C 0.00915 0.79696 0.11982
 C1040 C -0.00301 0.77878 0.11488
 C1041 C -0.01915 0.78016 0.09937
 C1042 C -0.02154 0.79814 0.08782
 H1043 H -0.06234 0.89206 0.03452
 H1044 H -0.06052 0.86331 0.05875
 H1045 H 0.00653 0.85650 0.04501
 H1046 H 0.00482 0.88532 0.02105
 H1047 H -0.04152 0.83158 0.07035
 H1048 H 0.00527 0.84403 0.07835
 H1049 H 0.01692 0.82836 0.11190
 H1050 H 0.02049 0.79759 0.13268
 H1051 H -0.02945 0.76687 0.09566
 H1052 H -0.03329 0.79796 0.07528
 C1053 C 0.04019 0.61905 0.04891
 C1054 C 0.03757 0.63548 0.06329
 C1055 C 0.02283 0.65113 0.05932
 C1056 C 0.01029 0.64972 0.04094
 C1057 C 0.01284 0.63328 0.02663
 C1058 C 0.02787 0.61778 0.03038
 C1059 C 0.02043 0.66838 0.07482
 C1060 C 0.01421 0.68734 0.06932
 C1061 C 0.01138 0.70490 0.08434
 C1062 C 0.01240 0.72513 0.07679
 C1063 C 0.00886 0.74220 0.09005
 C1064 C 0.00323 0.73953 0.11122
 C1065 C 0.00331 0.71912 0.11890
 C1066 C 0.00696 0.70203 0.10562
 H1067 H 0.05171 0.60726 0.05247
 H1068 H 0.04722 0.63609 0.07747
 H1069 H -0.00175 0.66109 0.03766
 H1070 H 0.00305 0.63286 0.01258
 H1071 H 0.02494 0.66555 0.09089
 H1072 H 0.01185 0.69054 0.05289
 H1073 H 0.01619 0.72779 0.06053
 H1074 H 0.01093 0.75742 0.08351
 H1075 H 0.00008 0.71639 0.13525
 H1076 H 0.00584 0.68665 0.11204
 C1077 C 0.54464 0.11109 0.54225
 C1078 C 0.54178 0.12764 0.55643
 C1079 C 0.52673 0.14297 0.55236
 C1080 C 0.51419 0.14116 0.53398
 C1081 C 0.51699 0.12459 0.51985
 C1082 C 0.53227 0.10937 0.52377
 C1083 C 0.52396 0.16015 0.56789
 C1084 C 0.51664 0.17882 0.56268
 C1085 C 0.51327 0.19614 0.57790
 C1086 C 0.51217 0.21636 0.57035
 C1087 C 0.50786 0.23310 0.58380
 C1088 C 0.50362 0.23004 0.60522
 C1089 C 0.50600 0.20980 0.61289
 C1090 C 0.51033 0.19303 0.59941
 H1091 H 0.55637 0.09954 0.54595
 H1092 H 0.55146 0.12852 0.57059
 H1093 H 0.50192 0.15228 0.53060
 H1094 H 0.50716 0.12383 0.50582
 H1095 H 0.52903 0.15747 0.58383
 H1096 H 0.51359 0.18196 0.54635
 H1097 H 0.51480 0.21927 0.55392
 H1098 H 0.50809 0.24841 0.57721
 H1099 H 0.50389 0.20689 0.62939
 H1100 H 0.51083 0.17769 0.60590
 C1101 C -0.03580 0.11996 0.45973
 C1102 C -0.03304 0.13608 0.44571
 C1103 C -0.01879 0.15265 0.45028
 C1104 C -0.00736 0.15279 0.46939
 C1105 C -0.01011 0.13659 0.48346
 C1106 C -0.02444 0.12002 0.47883
 C1107 C -0.01710 0.16965 0.43501
 C1108 C -0.00077 0.18343 0.43442
 C1109 C 0.00052 0.20005 0.41871
 C1110 C 0.02058 0.20864 0.41386
 C1111 C 0.02242 0.22423 0.39907
 C1112 C 0.00430 0.23137 0.38821
 C1113 C -0.01595 0.22361 0.39426
 C1114 C -0.01779 0.20806 0.40908
 H1115 H -0.04681 0.10741 0.45544
 H1116 H -0.04211 0.13558 0.43117
 H1117 H 0.00333 0.16553 0.47384
 H1118 H -0.00129 0.13729 0.49811
 H1119 H -0.02954 0.17012 0.42315
 H1120 H 0.01271 0.18196 0.44498
 H1121 H 0.03491 0.20325 0.42153
 H1122 H 0.03815 0.23072 0.39599
 H1123 H -0.03057 0.22984 0.38800
 H1124 H -0.03367 0.20283 0.41333
 C1125 C 0.49483 0.62712 0.97486
 C1126 C 0.49928 0.64295 0.96089
 C1127 C 0.48272 0.65268 0.95012
 C1128 C 0.46149 0.64580 0.95322
 C1129 C 0.45703 0.62987 0.96718
 C1130 C 0.47363 0.62045 0.97829
 C1131 C 0.48847 0.66954 0.93563
 C1132 C 0.47487 0.68412 0.92941
 C1133 C 0.48124 0.70122 0.91545
 C1134 C 0.46549 0.71071 0.90340
 C1135 C 0.47085 0.72686 0.89004
 C1136 C 0.49231 0.73375 0.88800
 C1137 C 0.50776 0.72502 0.90129
 C1138 C 0.50240 0.70887 0.91460
 H1139 H 0.50810 0.62005 0.98283
 H1140 H 0.51579 0.64777 0.95863
 H1141 H 0.44828 0.65239 0.94476
 H1142 H 0.44053 0.62510 0.96936
 H1143 H 0.50486 0.67009 0.93032
 H1144 H 0.45839 0.68361 0.93442
 H1145 H 0.44892 0.70563 0.90436
 H1146 H 0.45794 0.73411 0.88172
 H1147 H 0.52416 0.73073 0.90126
 H1148 H 0.51483 0.70283 0.92452
 C1149 C 0.54526 0.88441 0.96162
 C1150 C 0.54349 0.86724 0.94792
 C1151 C 0.53058 0.85004 0.95289
 C1152 C 0.51999 0.85007 0.97224
 C1153 C 0.52176 0.86724 0.98594
 C1154 C 0.53426 0.88471 0.98073
 C1155 C 0.52880 0.83234 0.93769
 C1156 C 0.51192 0.81918 0.93681
 C1157 C 0.50947 0.80213 0.92096
 C1158 C 0.48888 0.79435 0.91625
 C1159 C 0.48578 0.77848 0.90126
 C1160 C 0.50316 0.77013 0.89010
 C1161 C 0.52397 0.77707 0.89601
 C1162 C 0.52705 0.79300 0.91101
 H1163 H 0.55504 0.89753 0.95701
 H1164 H 0.55198 0.86753 0.93321
 H1165 H 0.51054 0.83680 0.97704
 H1166 H 0.51342 0.86667 1.00069
 H1167 H 0.54119 0.83106 0.92602
 H1168 H 0.49858 0.82171 0.94720
 H1169 H 0.47507 0.80066 0.92412
 H1170 H 0.46964 0.77279 0.89815
 H1171 H 0.53805 0.76999 0.88951
 H1172 H 0.54327 0.79771 0.91511
 C1173 C -0.00190 0.37571 0.47799
 C1174 C -0.00530 0.35887 0.46414
 C1175 C 0.01151 0.35112 0.45205
 C1176 C 0.03178 0.36092 0.45371
 C1177 C 0.03516 0.37784 0.46750
 C1178 C 0.01839 0.38536 0.47988
 C1179 C 0.00705 0.33331 0.43750
 C1180 C 0.02209 0.32008 0.43100
 C1181 C 0.01772 0.30226 0.41639
 C1182 C 0.03487 0.29363 0.40546
 C1183 C 0.03158 0.27691 0.39145
 C1184 C 0.01083 0.26859 0.38753
 C1185 C -0.00607 0.27649 0.39966
 C1186 C -0.00278 0.29320 0.41368
 H1187 H -0.01529 0.38124 0.48702
 H1188 H -0.02112 0.35178 0.46298
 H1189 H 0.04499 0.35588 0.44416
 H1190 H 0.05098 0.38490 0.46851
 H1191 H -0.00936 0.33101 0.43234
 H1192 H 0.03847 0.32243 0.43628
 H1193 H 0.05097 0.29982 0.40780
 H1194 H 0.04549 0.27039 0.38402
 H1195 H -0.02199 0.26968 0.39821
 H1196 H -0.01628 0.29856 0.42263
 C1197 C 0.39156 0.53962 0.47364
 C1198 C 0.37521 0.55369 0.47749
 C1199 C 0.35529 0.54674 0.48475
 C1200 C 0.35211 0.52551 0.48862
 C1201 C 0.36864 0.51151 0.48525
 C1202 C 0.38846 0.51842 0.47760
 C1203 C 0.33836 0.56200 0.48878
 C1204 C 0.31769 0.55788 0.48451
 C1205 C 0.30100 0.57355 0.48775
 C1206 C 0.28421 0.57478 0.47322
 C1207 C 0.26849 0.58975 0.47575
 C1208 C 0.26901 0.60391 0.49298
 C1209 C 0.28523 0.60150 0.50827
 C1210 C 0.30123 0.58684 0.50544
 H1211 H 0.40676 0.54538 0.46794
 H1212 H 0.37803 0.57001 0.47456
 H1213 H 0.33701 0.51981 0.49462
 H1214 H 0.36585 0.49524 0.48841
 H1215 H 0.34322 0.57749 0.49408
 H1216 H 0.31306 0.54318 0.47706
 H1217 H 0.28346 0.56436 0.45968
 H1218 H 0.25587 0.59044 0.46408
 H1219 H 0.28559 0.61054 0.52270
 H1220 H 0.31352 0.58555 0.51738
 C1221 C 0.88706 0.04072 -0.04496
 C1222 C 0.87069 0.05508 -0.04262
 C1223 C 0.85715 0.05456 -0.02523
 C1224 C 0.86012 0.03906 -0.01033
 C1225 C 0.87648 0.02470 -0.01266
 C1226 C 0.89020 0.02532 -0.02999
 C1227 C 0.83960 0.06974 -0.02377
 C1228 C 0.82978 0.07483 -0.00582
 C1229 C 0.81125 0.08885 -0.00472
 C1230 C 0.79679 0.08663 0.01174
 C1231 C 0.77858 0.09880 0.01285
 C1232 C 0.77399 0.11337 -0.00271
 C1233 C 0.78960 0.11674 -0.01820
 C1234 C 0.80781 0.10446 -0.01936
 H1235 H 0.89712 0.04172 -0.05859
 H1236 H 0.86862 0.06669 -0.05447
 H1237 H 0.84962 0.03756 0.00292
 H1238 H 0.87817 0.01306 -0.00086
 H1239 H 0.83457 0.07677 -0.03820
 H1240 H 0.83473 0.06784 0.00865
 H1241 H 0.79937 0.07513 0.02359
 H1242 H 0.76762 0.09647 0.02566
 H1243 H 0.78810 0.12897 -0.02940
 H1244 H 0.81929 0.10752 -0.03154
 C1245 C 0.61292 0.04732 0.03909
 C1246 C 0.62939 0.06188 0.03597
 C1247 C 0.64136 0.06140 0.01749
 C1248 C 0.63591 0.04656 0.00176
 C1249 C 0.61947 0.03200 0.00488
 C1250 C 0.60795 0.03203 0.02368
 C1251 C 0.65935 0.07649 0.01522
 C1252 C 0.67635 0.07264 0.00314
 C1253 C 0.69537 0.08664 0.00202
 C1254 C 0.71480 0.07817 -0.00435
 C1255 C 0.73330 0.09053 -0.00531
 C1256 C 0.73310 0.11182 0.00054
 C1257 C 0.71310 0.12050 0.00541
 C1258 C 0.69457 0.10808 0.00647
 H1259 H 0.60443 0.04787 0.05377
 H1260 H 0.63311 0.07326 0.04826
 H1261 H 0.64416 0.04619 -0.01306
 H1262 H 0.61579 0.02080 -0.00754
 H1263 H 0.65929 0.09037 0.02508
 H1264 H 0.67726 0.05784 -0.00513
 H1265 H 0.71571 0.06184 -0.00861
 H1266 H 0.74759 0.08323 -0.01107
 H1267 H 0.71190 0.13701 0.00862
 H1268 H 0.67965 0.11541 0.01040
 C1269 C 0.12062 0.53160 0.54822
 C1270 C 0.13851 0.54460 0.54564
 C1271 C 0.15024 0.54387 0.52702
 C1272 C 0.14404 0.52941 0.51119
 C1273 C 0.12619 0.51637 0.51379
 C1274 C 0.11419 0.51737 0.53229
 C1275 C 0.16909 0.55796 0.52491
 C1276 C 0.17659 0.56404 0.50636
 C1277 C 0.19522 0.57837 0.50411
 C1278 C 0.19730 0.58939 0.48554
 C1279 C 0.21472 0.60285 0.48257
 C1280 C 0.23052 0.60601 0.49834
 C1281 C 0.22884 0.59395 0.51649
 C1282 C 0.21139 0.58054 0.51946
 H1283 H 0.11199 0.53265 0.56280
 H1284 H 0.14309 0.55541 0.55818
 H1285 H 0.15306 0.52786 0.49689
 H1286 H 0.12181 0.50562 0.50118
 H1287 H 0.17620 0.56434 0.53922
 H1288 H 0.16816 0.55924 0.49214
 H1289 H 0.18542 0.58748 0.47315
 H1290 H 0.21588 0.61023 0.46759
 H1291 H 0.24122 0.59498 0.52846
 H1292 H 0.21096 0.57154 0.53356
 C1293 C 0.13886 0.49782 -0.02156
 C1294 C 0.15671 0.48515 -0.01979
 C1295 C 0.15499 0.46383 -0.02452
 C1296 C 0.13531 0.45547 -0.03182
 C1297 C 0.11760 0.46820 -0.03403
 C1298 C 0.11914 0.48945 -0.02868
 C1299 C 0.17390 0.45065 -0.02193
 C1300 C 0.17229 0.43146 -0.01438
 C1301 C 0.19107 0.41838 -0.01073
 C1302 C 0.19129 0.40553 0.00664
 C1303 C 0.20862 0.39270 0.01042
 C1304 C 0.22586 0.39155 -0.00373
 C1305 C 0.22558 0.40493 -0.02100
 C1306 C 0.20845 0.41812 -0.02448
 H1307 H 0.14055 0.51419 -0.01756
 H1308 H 0.17178 0.49193 -0.01431
 H1309 H 0.13367 0.43913 -0.03600
 H1310 H 0.10259 0.46134 -0.03954
 H1311 H 0.18955 0.45743 -0.02482
 H1312 H 0.15684 0.42562 -0.00934
 H1313 H 0.17816 0.40574 0.01760
 H1314 H 0.20827 0.38403 0.02468
 H1315 H 0.23867 0.40496 -0.03200
 H1316 H 0.20861 0.42776 -0.03815
 C1317 C 0.61039 0.94929 0.48247
 C1318 C 0.62668 0.93531 0.48654
 C1319 C 0.64734 0.94255 0.49188
 C1320 C 0.65128 0.96406 0.49386
 C1321 C 0.63487 0.97805 0.49019
 C1322 C 0.61434 0.97080 0.48422
 C1323 C 0.66432 0.92735 0.49567
 C1324 C 0.68472 0.93080 0.49027
 C1325 C 0.70158 0.91530 0.49331
 C1326 C 0.71835 0.91411 0.47899
 C1327 C 0.73456 0.89972 0.48154
 C1328 C 0.73459 0.88608 0.49860
 C1329 C 0.71807 0.88813 0.51346
 C1330 C 0.70167 0.90231 0.51066
 H1331 H 0.59465 0.94326 0.47816
 H1332 H 0.62325 0.91879 0.48515
 H1333 H 0.66694 0.97008 0.49846
 H1334 H 0.63837 0.99454 0.49166
 H1335 H 0.65958 0.91238 0.50171
 H1336 H 0.68898 0.94487 0.48216
 H1337 H 0.71882 0.92424 0.46566
 H1338 H 0.74725 0.89917 0.47012
 H1339 H 0.71780 0.87931 0.52762
 H1340 H 0.68940 0.90352 0.52247
 C1341 C 0.86254 0.99563 0.51729
 C1342 C 0.84458 0.98254 0.51470
 C1343 C 0.84580 0.96139 0.51924
 C1344 C 0.86515 0.95360 0.52691
 C1345 C 0.88295 0.96675 0.52992
 C1346 C 0.88185 0.98786 0.52504
 C1347 C 0.82658 0.94789 0.51657
 C1348 C 0.82773 0.92814 0.50979
 C1349 C 0.80868 0.91441 0.50729
 C1350 C 0.80792 0.89971 0.49085
 C1351 C 0.79042 0.88606 0.48841
 C1352 C 0.77360 0.88597 0.50310
 C1353 C 0.77435 0.90133 0.51927
 C1354 C 0.79164 0.91525 0.52141
 H1355 H 0.86120 1.01189 0.51364
 H1356 H 0.82976 0.98889 0.50896
 H1357 H 0.86640 0.93743 0.53099
 H1358 H 0.89765 0.96035 0.53588
 H1359 H 0.81109 0.95470 0.51928
 H1360 H 0.84302 0.92204 0.50496
 H1361 H 0.82076 0.89904 0.47959
 H1362 H 0.79027 0.87593 0.47474
 H1363 H 0.76153 0.90230 0.53053
 H1364 H 0.79189 0.92633 0.53440
 C1365 C 0.35462 0.50240 0.01945
 C1366 C 0.33644 0.48967 0.01638
 C1367 C 0.33755 0.46817 0.01910
 C1368 C 0.35706 0.45964 0.02544
 C1369 C 0.37512 0.47239 0.02884
 C1370 C 0.37412 0.49389 0.02581
 C1371 C 0.31806 0.45505 0.01599
 C1372 C 0.31881 0.43554 0.00834
 C1373 C 0.29964 0.42194 0.00555
 C1374 C 0.29939 0.40683 -0.01052
 C1375 C 0.28213 0.39291 -0.01298
 C1376 C 0.26496 0.39299 0.00131
 C1377 C 0.26500 0.40893 0.01689
 C1378 C 0.28214 0.42306 0.01912
 H1379 H 0.35331 0.51895 0.01722
 H1380 H 0.32152 0.49660 0.01170
 H1381 H 0.35830 0.44317 0.02818
 H1382 H 0.38991 0.46535 0.03369
 H1383 H 0.30273 0.46196 0.01920
 H1384 H 0.33396 0.42947 0.00311
 H1385 H 0.31256 0.40592 -0.02140
 H1386 H 0.28251 0.38234 -0.02629
 H1387 H 0.25185 0.41006 0.02777
 H1388 H 0.28191 0.43443 0.03183
 C1389 C 0.53440 0.44891 0.37956
 C1390 C 0.54714 0.45030 0.36176
 C1391 C 0.55015 0.46935 0.35189
 C1392 C 0.53981 0.48700 0.35996
 C1393 C 0.52688 0.48556 0.37764
 C1394 C 0.52407 0.46651 0.38766
 C1395 C 0.56324 0.47008 0.33270
 C1396 C 0.57411 0.48712 0.32697
 C1397 C 0.58661 0.48819 0.30741
 C1398 C 0.60375 0.50242 0.30638
 C1399 C 0.61513 0.50480 0.28783
 C1400 C 0.60900 0.49365 0.26936
 C1401 C 0.59252 0.47850 0.27095
 C1402 C 0.58126 0.47603 0.28954
 H1403 H 0.53234 0.43394 0.38671
 H1404 H 0.55471 0.43645 0.35569
 H1405 H 0.54128 0.50182 0.35239
 H1406 H 0.51915 0.49940 0.38348
 H1407 H 0.56458 0.45582 0.32355
 H1408 H 0.57450 0.50070 0.33727
 H1409 H 0.60847 0.51167 0.32008
 H1410 H 0.62876 0.51533 0.28823
 H1411 H 0.58789 0.46896 0.25744
 H1412 H 0.56800 0.46502 0.28962
 C1413 C 0.04886 -0.03997 0.88897
 C1414 C 0.06350 -0.03768 0.87269
 C1415 C 0.05751 -0.02804 0.85409
 C1416 C 0.03663 -0.02044 0.85219
 C1417 C 0.02209 -0.02252 0.86853
 C1418 C 0.02805 -0.03227 0.88712
 C1419 C 0.07366 -0.02499 0.83755
 C1420 C 0.06847 -0.02381 0.81719
 C1421 C 0.08423 -0.01921 0.80065
 C1422 C 0.07976 -0.02589 0.78003
 C1423 C 0.09343 -0.02049 0.76376
 C1424 C 0.11141 -0.00729 0.76743
 C1425 C 0.11654 -0.00184 0.78845
 C1426 C 0.10297 -0.00739 0.80476
 H1427 H 0.05403 -0.04736 0.90316
 H1428 H 0.07956 -0.04344 0.87463
 H1429 H 0.03163 -0.01238 0.83833
 H1430 H 0.00617 -0.01648 0.86656
 H1431 H 0.09032 -0.02424 0.84233
 H1432 H 0.05204 -0.02669 0.81225
 H1433 H 0.06560 -0.03529 0.77648
 H1434 H 0.08962 -0.02619 0.74807
 H1435 H 0.13102 0.00682 0.79247
 H1436 H 0.10698 -0.00194 0.82046
 C1437 C 0.01305 0.02065 0.63276
 C1438 C 0.02532 0.01772 0.65075
 C1439 C 0.04560 0.02715 0.65312
 C1440 C 0.05322 0.04005 0.63719
 C1441 C 0.04083 0.04307 0.61914
 C1442 C 0.02066 0.03327 0.61666
 C1443 C 0.05783 0.02334 0.67263
 C1444 C 0.07914 0.02554 0.67455
 C1445 C 0.09088 0.01987 0.69384
 C1446 C 0.11226 0.01386 0.69236
 C1447 C 0.12338 0.00729 0.71004
 C1448 C 0.11324 0.00594 0.72966
 C1449 C 0.09239 0.01389 0.73132
 C1450 C 0.08130 0.02049 0.71367
 H1451 H -0.00254 0.01313 0.63167
 H1452 H 0.01895 0.00789 0.66285
 H1453 H 0.06853 0.04805 0.63866
 H1454 H 0.04715 0.05295 0.60708
 H1455 H 0.04886 0.01700 0.68551
 H1456 H 0.08853 0.03000 0.66116
 H1457 H 0.12031 0.01392 0.67741
 H1458 H 0.13990 0.00282 0.70833
 H1459 H 0.08455 0.01530 0.74630
 H1460 H 0.06532 0.02636 0.71572
 C1461 C 0.54320 0.53738 0.10926
 C1462 C 0.55760 0.53363 0.12554
 C1463 C 0.55183 0.52061 0.14195
 C1464 C 0.53149 0.51087 0.14142
 C1465 C 0.51710 0.51458 0.12511
 C1466 C 0.52270 0.52800 0.10890
 C1467 C 0.56754 0.51715 0.15899
 C1468 C 0.56178 0.51191 0.17838
 C1469 C 0.57720 0.50855 0.19571
 C1470 C 0.56986 0.50998 0.21634
 C1471 C 0.58350 0.50624 0.23321
 C1472 C 0.60483 0.50012 0.22994
 C1473 C 0.61236 0.49976 0.20915
 C1474 C 0.59870 0.50351 0.19227
 H1475 H 0.54825 0.54756 0.09692
 H1476 H 0.57327 0.54110 0.12543
 H1477 H 0.52669 0.50015 0.15339
 H1478 H 0.50152 0.50701 0.12538
 H1479 H 0.58422 0.52017 0.15560
 H1480 H 0.54495 0.51088 0.18216
 H1481 H 0.55348 0.51425 0.21947
 H1482 H 0.57717 0.50854 0.24875
 H1483 H 0.62888 0.49611 0.20597
 H1484 H 0.60502 0.50203 0.17662
 C1485 C 0.45786 -0.04151 0.11595
 C1486 C 0.44382 -0.03960 0.13278
 C1487 C 0.44671 -0.02367 0.14791
 C1488 C 0.46426 -0.00986 0.14606
 C1489 C 0.47830 -0.01177 0.12925
 C1490 C 0.47529 -0.02761 0.11396
 C1491 C 0.43167 -0.02254 0.16572
 C1492 C 0.42833 -0.00509 0.17699
 C1493 C 0.41397 -0.00403 0.19534
 C1494 C 0.41712 0.01221 0.21004
 C1495 C 0.40425 0.01374 0.22772
 C1496 C 0.38805 -0.00122 0.23158
 C1497 C 0.38403 -0.01668 0.21595
 C1498 C 0.39696 -0.01823 0.19824
 H1499 H 0.45490 -0.05387 0.10451
 H1500 H 0.43056 -0.05057 0.13391
 H1501 H 0.46758 0.00216 0.15777
 H1502 H 0.49170 -0.00097 0.12851
 H1503 H 0.42311 -0.03670 0.16948
 H1504 H 0.43683 0.00906 0.17311
 H1505 H 0.42970 0.02374 0.20792
 H1506 H 0.40708 0.02660 0.23865
 H1507 H 0.37061 -0.02741 0.21697
 H1508 H 0.39315 -0.03024 0.18665
 C1509 C 0.95270 0.46166 0.61842
 C1510 C 0.93835 0.46491 0.63475
 C1511 C 0.93902 0.48346 0.64666
 C1512 C 0.95406 0.49900 0.64151
 C1513 C 0.96846 0.49574 0.62517
 C1514 C 0.96803 0.47698 0.61349
 C1515 C 0.92366 0.48593 0.66407
 C1516 C 0.92693 0.49898 0.68048
 C1517 C 0.91237 0.50009 0.69865
 C1518 C 0.92056 0.50742 0.71796
 C1519 C 0.90767 0.50801 0.73569
 C1520 C 0.88620 0.50078 0.73476
 C1521 C 0.87766 0.49503 0.71490
 C1522 C 0.89057 0.49443 0.69716
 H1523 H 0.95189 0.44697 0.60991
 H1524 H 0.92685 0.45272 0.63828
 H1525 H 0.95464 0.51382 0.64981
 H1526 H 0.97975 0.50805 0.62159
 H1527 H 0.90993 0.47545 0.66399
 H1528 H 0.94163 0.50809 0.68157
 H1529 H 0.93711 0.51261 0.71939
 H1530 H 0.91466 0.51437 0.75003
 H1531 H 0.86090 0.49072 0.71318
 H1532 H 0.88332 0.48979 0.68231
 C1533 C 0.95357 0.54312 0.89241
 C1534 C 0.93917 0.54063 0.87564
 C1535 C 0.94084 0.52388 0.86140
 C1536 C 0.95741 0.50964 0.86426
 C1537 C 0.97180 0.51212 0.88104
 C1538 C 0.97016 0.52896 0.89529
 C1539 C 0.92577 0.52253 0.84330
 C1540 C 0.92202 0.50514 0.83181
 C1541 C 0.90827 0.50442 0.81278
 C1542 C 0.91224 0.48931 0.79729
 C1543 C 0.90029 0.48853 0.77874
 C1544 C 0.88417 0.50310 0.77487
 C1545 C 0.87916 0.51721 0.79127
 C1546 C 0.89124 0.51806 0.80983
 H1547 H 0.95173 0.55636 0.90289
 H1548 H 0.92671 0.55194 0.87374
 H1549 H 0.95979 0.49685 0.85335
 H1550 H 0.98433 0.50089 0.88260
 H1551 H 0.91775 0.53666 0.83920
 H1552 H 0.93000 0.49096 0.83574
 H1553 H 0.92489 0.47823 0.79939
 H1554 H 0.90394 0.47669 0.76708
 H1555 H 0.86575 0.52749 0.79006
 H1556 H 0.88688 0.52914 0.82195
 C1557 C 0.47847 -0.00511 0.37960
 C1558 C 0.46565 -0.00857 0.36181
 C1559 C 0.45207 0.00689 0.35462
 C1560 C 0.45169 0.02608 0.36558
 C1561 C 0.46456 0.02956 0.38338
 C1562 C 0.47821 0.01405 0.39057
 C1563 C 0.43956 0.00278 0.33510
 C1564 C 0.42190 0.01311 0.32990
 C1565 C 0.41006 0.00936 0.30991
 C1566 C 0.38836 0.01437 0.30877
 C1567 C 0.37690 0.01170 0.28999
 C1568 C 0.38703 0.00481 0.27149
 C1569 C 0.40862 -0.00115 0.27309
 C1570 C 0.42005 0.00148 0.29186
 H1571 H 0.48862 -0.01752 0.38461
 H1572 H 0.46639 -0.02343 0.35358
 H1573 H 0.44199 0.03866 0.36018
 H1574 H 0.46406 0.04460 0.39120
 H1575 H 0.44486 -0.00979 0.32501
 H1576 H 0.41532 0.02427 0.34088
 H1577 H 0.38019 0.02023 0.32250
 H1578 H 0.36005 0.01534 0.28981
 H1579 H 0.41686 -0.00806 0.25995
 H1580 H 0.43680 -0.00243 0.29198
   
