data_POSCAR
  _audit_creation_date              2014-09-24
  _audit_creation_method            'ToBaCCo'
  _symmetry_space_group_name_H-M    'P1'
  _symmetry_Int_Tables_number       1
  _symmetry_cell_setting            triclinic
  loop_
  _symmetry_equiv_pos_as_xyz
 x,y,z
_cell_length_a 53.3731
_cell_length_b 53.4607
_cell_length_c 53.4364
_cell_angle_alpha 89.975300
_cell_angle_beta 90.042300
_cell_angle_gamma 89.969800
loop_
  _atom_site_label
  _atom_site_type_symbol
  _atom_site_fract_x
  _atom_site_fract_y
  _atom_site_fract_z
C1 C 0.25173 0.99910 -0.01353
 C2 C 0.25149 0.99872 0.01193
 C3 C 0.24941 0.97514 0.02650
 C4 C 0.25337 1.02183 0.02735
 C5 C 0.25122 1.02281 -0.02807
 C6 C 0.25207 0.97590 -0.02890
 C7 C 0.23040 0.97326 0.04451
 C8 C 0.22974 0.95312 0.06102
 C9 C 0.24799 0.93425 0.05979
 C10 C 0.26648 0.93552 0.04108
 C11 C 0.26736 0.95599 0.02471
 C12 C 0.27146 1.02276 0.04634
 C13 C 0.27234 1.04280 0.06295
 C14 C 0.25526 1.06287 0.06089
 C15 C 0.23755 1.06221 0.04119
 C16 C 0.23634 1.04170 0.02493
 C17 C 0.26985 1.04121 -0.02551
 C18 C 0.26957 1.06246 -0.04089
 C19 C 0.25104 1.06524 -0.05942
 C20 C 0.23239 1.04688 -0.06171
 C21 C 0.23244 1.02598 -0.04616
 C22 C 0.23337 0.95751 -0.02685
 C23 C 0.23298 0.93718 -0.04340
 C24 C 0.25087 0.93533 -0.06264
 C25 C 0.26965 0.95360 -0.06440
 C26 C 0.27030 0.97356 -0.04766
 H27 H 0.21643 0.98787 0.04626
 H28 H 0.21513 0.95256 0.07507
 H29 H 0.28087 0.92129 0.03982
 H30 H 0.28248 0.95733 0.01127
 H31 H 0.28473 1.00758 0.04863
 H32 H 0.28649 1.04232 0.07749
 H33 H 0.22178 1.04112 0.01082
 H34 H 0.28481 1.03888 -0.01202
 H35 H 0.28428 1.07625 -0.03887
 H36 H 0.21778 1.04857 -0.07568
 H37 H 0.21795 1.01199 -0.04849
 H38 H 0.21872 0.95924 -0.01295
 H39 H 0.21817 0.92344 -0.04174
 H40 H 0.28379 0.95259 -0.07889
 H41 H 0.28481 0.98758 -0.04968
 H42 H 0.22395 1.07707 0.03877
 C43 C 0.74799 0.49633 0.48111
 C44 C 0.74870 0.49517 0.50652
 C45 C 0.74789 0.47101 0.52004
 C46 C 0.75044 0.51769 0.52272
 C47 C 0.74945 0.52040 0.46719
 C48 C 0.74561 0.47344 0.46545
 C49 C 0.72494 0.45948 0.52550
 C50 C 0.72408 0.43919 0.54205
 C51 C 0.74626 0.42977 0.55266
 C52 C 0.76930 0.44057 0.54611
 C53 C 0.77004 0.46136 0.53033
 C54 C 0.73318 0.52060 0.54230
 C55 C 0.73563 0.54013 0.55934
 C56 C 0.75524 0.55743 0.55706
 C57 C 0.77218 0.55506 0.53705
 C58 C 0.76999 0.53511 0.52018
 C59 C 0.76713 0.52277 0.44794
 C60 C 0.76769 0.54412 0.43299
 C61 C 0.75061 0.56373 0.43696
 C62 C 0.73325 0.56170 0.45667
 C63 C 0.73251 0.54007 0.47151
 C64 C 0.76343 0.45412 0.46657
 C65 C 0.76192 0.43377 0.45017
 C66 C 0.74301 0.43278 0.43186
 C67 C 0.72523 0.45213 0.43080
 C68 C 0.72647 0.47217 0.44748
 H69 H 0.70766 0.46697 0.51794
 H70 H 0.70613 0.43110 0.54687
 H71 H 0.78660 0.43374 0.55424
 H72 H 0.78784 0.47033 0.52656
 H73 H 0.71788 0.50754 0.54464
 H74 H 0.72213 0.54164 0.57439
 H75 H 0.78383 0.53297 0.50553
 H76 H 0.78033 0.50783 0.44423
 H77 H 0.78140 0.54513 0.41810
 H78 H 0.71973 0.57641 0.46005
 H79 H 0.71835 0.53844 0.48592
 H80 H 0.77896 0.45514 0.47953
 H81 H 0.77609 0.41930 0.45119
 H82 H 0.71041 0.45185 0.41695
 H83 H 0.71270 0.48701 0.44609
 H84 H 0.78756 0.56809 0.53497
 C85 C 0.74954 1.00858 0.99371
 C86 C 0.75069 0.98317 0.99312
 C87 C 0.75326 0.96882 0.96945
 C88 C 0.74953 0.96771 1.01626
 C89 C 0.75006 1.02285 1.01754
 C90 C 0.74821 1.02432 0.97077
 C91 C 0.73557 0.97049 0.95003
 C92 C 0.73743 0.95477 0.92910
 C93 C 0.75667 0.93682 0.92764
 C94 C 0.77452 0.93561 0.94690
 C95 C 0.77286 0.95146 0.96749
 C96 C 0.76690 0.97049 1.03585
 C97 C 0.76598 0.95463 1.05671
 C98 C 0.74813 0.93532 1.05795
 C99 C 0.73088 0.93259 1.03828
 C100 C 0.73153 0.94866 1.01776
 C101 C 0.76871 1.04102 1.02076
 C102 C 0.76836 1.05681 1.04144
 C103 C 0.74941 1.05470 1.05952
 C104 C 0.73116 1.03592 1.05683
 C105 C 0.73131 1.02026 1.03580
 C106 C 0.72958 1.04278 0.96939
 C107 C 0.72966 1.06042 0.95020
 C108 C 0.74824 1.05991 0.93152
 C109 C 0.76634 1.04064 0.93231
 C110 C 0.76656 1.02329 0.95198
 H111 H 0.72000 0.98341 0.95138
 H112 H 0.72332 0.95599 0.91459
 H113 H 0.78966 0.92213 0.94624
 H114 H 0.78667 0.94982 0.98228
 H115 H 0.78139 0.98462 1.03481
 H116 H 0.77966 0.95699 1.07149
 H117 H 0.71807 0.94607 1.00280
 H118 H 0.78329 1.04335 1.00685
 H119 H 0.78279 1.07095 1.04310
 H120 H 0.71624 1.03401 1.07042
 H121 H 0.71648 1.00664 1.03342
 H122 H 0.71529 1.04401 0.98372
 H123 H 0.71519 1.07463 0.95028
 H124 H 0.78101 1.03954 0.91836
 H125 H 0.78151 1.00962 0.95296
 H126 H 0.71685 0.91798 1.03873
 C127 C 0.24595 0.51028 0.49945
 C128 C 0.24730 0.48489 0.49976
 C129 C 0.24843 0.47114 0.52377
 C130 C 0.24822 0.46924 0.47675
 C131 C 0.24368 0.52519 0.47612
 C132 C 0.24793 0.52521 0.52285
 C133 C 0.27121 0.46809 0.53650
 C134 C 0.27233 0.45327 0.55804
 C135 C 0.25052 0.44202 0.56750
 C136 C 0.22760 0.44586 0.55519
 C137 C 0.22666 0.45994 0.53321
 C138 C 0.26706 0.45103 0.47462
 C139 C 0.26745 0.43457 0.45443
 C140 C 0.24915 0.43602 0.43563
 C141 C 0.23059 0.45466 0.43727
 C142 C 0.22995 0.47096 0.45784
 C143 C 0.22492 0.54354 0.47477
 C144 C 0.22446 0.56065 0.45511
 C145 C 0.24266 0.55969 0.43620
 C146 C 0.26087 0.54065 0.43691
 C147 C 0.26156 0.52368 0.45690
 C148 C 0.22988 0.52353 0.54189
 C149 C 0.23112 0.53939 0.56270
 C150 C 0.25003 0.55762 0.56442
 C151 C 0.26814 0.55907 0.54542
 C152 C 0.26714 0.54298 0.52493
 H153 H 0.28816 0.47660 0.52933
 H154 H 0.29018 0.45053 0.56729
 H155 H 0.21061 0.43716 0.56205
 H156 H 0.20899 0.46208 0.52346
 H157 H 0.28147 0.44931 0.48877
 H158 H 0.28213 0.42061 0.45360
 H159 H 0.21493 0.48450 0.45926
 H160 H 0.21105 0.54512 0.48947
 H161 H 0.21007 0.57494 0.45497
 H162 H 0.27522 0.53957 0.42263
 H163 H 0.27656 0.51007 0.45785
 H164 H 0.21444 0.51052 0.54029
 H165 H 0.21675 0.53806 0.57692
 H166 H 0.28300 0.57284 0.54627
 H167 H 0.28113 0.54470 0.51034
 H168 H 0.21615 0.45609 0.42310
 C169 C 0.99545 0.25085 0.01567
 C170 C 0.99568 0.25093 -0.00979
 C171 C 0.97245 0.24919 -0.02506
 C172 C 1.01921 0.25290 -0.02456
 C173 C 1.01886 0.25037 0.03080
 C174 C 0.97184 0.25072 0.03042
 C175 C 0.97142 0.23118 -0.04409
 C176 C 0.95195 0.23123 -0.06141
 C177 C 0.93266 0.24915 -0.06001
 C178 C 0.93302 0.26645 -0.04006
 C179 C 0.95296 0.26671 -0.02298
 C180 C 1.03873 0.23544 -0.02221
 C181 C 1.05949 0.23655 -0.03822
 C182 C 1.06067 0.25463 -0.05744
 C183 C 1.04110 0.27223 -0.05935
 C184 C 1.02081 0.27143 -0.04304
 C185 C 1.03761 0.26862 0.02828
 C186 C 1.05868 0.26824 0.04393
 C187 C 1.06094 0.25011 0.06300
 C188 C 1.04199 0.23192 0.06531
 C189 C 1.02139 0.23200 0.04934
 C190 C 0.96876 0.26872 0.04926
 C191 C 0.94860 0.26738 0.06574
 C192 C 0.93089 0.24810 0.06364
 C193 C 0.93337 0.23054 0.04420
 C194 C 0.95389 0.23165 0.02788
 H195 H 0.98628 0.21750 -0.04605
 H196 H 0.95235 0.21733 -0.07614
 H197 H 0.91855 0.28055 -0.03825
 H198 H 0.95362 0.28111 -0.00876
 H199 H 1.03763 0.22062 -0.00845
 H200 H 1.07408 0.22262 -0.03610
 H201 H 1.00590 0.28503 -0.04524
 H202 H 1.03577 0.28336 0.01450
 H203 H 1.07274 0.28266 0.04157
 H204 H 1.04292 0.21749 0.07951
 H205 H 1.00712 0.21778 0.05168
 H206 H 0.98244 0.28350 0.05163
 H207 H 0.94708 0.28130 0.08038
 H208 H 0.92005 0.21539 0.04227
 H209 H 0.95619 0.21722 0.01386
 H210 H 1.04124 0.28663 -0.07361
 C211 C 0.49566 0.74803 0.49181
 C212 C 0.49675 0.75001 0.51711
 C213 C 0.47349 0.74967 0.53225
 C214 C 0.52084 0.75101 0.53117
 C215 C 0.51832 0.74823 0.47560
 C216 C 0.47124 0.74763 0.47862
 C217 C 0.46293 0.77201 0.54109
 C218 C 0.44288 0.77139 0.55788
 C219 C 0.43251 0.74843 0.56537
 C220 C 0.44212 0.72615 0.55529
 C221 C 0.46268 0.72676 0.53906
 C222 C 0.52483 0.77008 0.54876
 C223 C 0.54634 0.77028 0.56355
 C224 C 0.56458 0.75153 0.56102
 C225 C 0.56106 0.73278 0.54290
 C226 C 0.53924 0.73238 0.52828
 C227 C 0.52144 0.72952 0.45745
 C228 C 0.54104 0.73075 0.44029
 C229 C 0.55823 0.75057 0.44103
 C230 C 0.55573 0.76892 0.45971
 C231 C 0.53575 0.76792 0.47669
 C232 C 0.46091 0.72497 0.47039
 C233 C 0.44046 0.72499 0.45405
 C234 C 0.42953 0.74765 0.44641
 C235 C 0.43873 0.77023 0.45621
 C236 C 0.45966 0.77023 0.47197
 H237 H 0.47062 0.78989 0.53548
 H238 H 0.43553 0.78883 0.56513
 H239 H 0.43443 0.70822 0.56078
 H240 H 0.47054 0.70937 0.53225
 H241 H 0.51130 0.78489 0.55126
 H242 H 0.54861 0.78515 0.57713
 H243 H 0.53645 0.71724 0.51511
 H244 H 0.50860 0.71395 0.45628
 H245 H 0.54267 0.71617 0.42632
 H246 H 0.56868 0.78448 0.46064
 H247 H 0.53353 0.78282 0.49022
 H248 H 0.46935 0.70734 0.47576
 H249 H 0.43347 0.70734 0.44698
 H250 H 0.43062 0.78794 0.45057
 H251 H 0.46742 0.78787 0.47824
 H252 H 0.57475 0.71800 0.54064
 C253 C -0.01697 0.74763 0.00322
 C254 C 0.00850 0.74724 0.00352
 C255 C 0.02355 0.74799 -0.01969
 C256 C 0.02330 0.74614 0.02688
 C257 C -0.03224 0.74615 0.02644
 C258 C -0.03130 0.74985 -0.02054
 C259 C 0.02910 0.72580 -0.03246
 C260 C 0.04524 0.72600 -0.05300
 C261 C 0.05743 0.74822 -0.06029
 C262 C 0.05203 0.77042 -0.04708
 C263 C 0.03506 0.77031 -0.02715
 C264 C 0.03365 0.72335 0.03481
 C265 C 0.05134 0.72285 0.05416
 C266 C 0.05861 0.74512 0.06608
 C267 C 0.04774 0.76781 0.05851
 C268 C 0.03070 0.76837 0.03868
 C269 C -0.03100 0.76479 0.04487
 C270 C -0.04718 0.76428 0.06545
 C271 C -0.06580 0.74569 0.06753
 C272 C -0.06701 0.72710 0.04885
 C273 C -0.05036 0.72730 0.02868
 C274 C -0.04683 0.77065 -0.02436
 C275 C -0.06198 0.77226 -0.04565
 C276 C -0.06172 0.75316 -0.06385
 C277 C -0.04587 0.73241 -0.05997
 C278 C -0.03132 0.73054 -0.03829
 H279 H 0.02138 0.70817 -0.02615
 H280 H 0.04906 0.70842 -0.06232
 H281 H 0.06092 0.78794 -0.05205
 H282 H 0.03143 0.78752 -0.01709
 H283 H 0.02873 0.70611 0.02538
 H284 H 0.05955 0.70514 0.05963
 H285 H 0.02389 0.78625 0.03200
 H286 H -0.01827 0.78036 0.04291
 H287 H -0.04574 0.77916 0.07913
 H288 H -0.08093 0.71239 0.04963
 H289 H -0.05197 0.71297 0.01445
 H290 H -0.04746 0.78554 -0.01063
 H291 H -0.07386 0.78855 -0.04777
 H292 H -0.04536 0.71705 -0.07318
 H293 H -0.02070 0.71364 -0.03506
 H294 H 0.05337 0.78528 0.06710
 C295 C 0.48237 0.25050 0.50369
 C296 C 0.50782 0.25005 0.50294
 C297 C 0.52203 0.24735 0.47922
 C298 C 0.52363 0.25173 0.52574
 C299 C 0.46814 0.25030 0.52760
 C300 C 0.46683 0.25116 0.48058
 C301 C 0.53931 0.22769 0.47721
 C302 C 0.55523 0.22608 0.45667
 C303 C 0.55413 0.24402 0.43753
 C304 C 0.53620 0.26326 0.43900
 C305 C 0.52042 0.26510 0.45988
 C306 C 0.52240 0.23374 0.54485
 C307 C 0.54005 0.23392 0.56427
 C308 C 0.55945 0.25173 0.56449
 C309 C 0.56013 0.27006 0.54569
 C310 C 0.54237 0.27009 0.52660
 C311 C 0.47128 0.26890 0.54593
 C312 C 0.45590 0.26921 0.56720
 C313 C 0.43683 0.25129 0.57011
 C314 C 0.43410 0.23255 0.55190
 C315 C 0.44960 0.23205 0.53097
 C316 C 0.44878 0.27007 0.47807
 C317 C 0.43269 0.27047 0.45754
 C318 C 0.43440 0.25205 0.43890
 C319 C 0.45272 0.23327 0.44114
 C320 C 0.46860 0.23262 0.46202
 H321 H 0.54088 0.21386 0.49196
 H322 H 0.56869 0.21092 0.45596
 H323 H 0.53507 0.27743 0.42456
 H324 H 0.50754 0.28068 0.46130
 H325 H 0.50843 0.21907 0.54423
 H326 H 0.53916 0.21950 0.57849
 H327 H 0.54371 0.28405 0.51196
 H328 H 0.48513 0.28348 0.54347
 H329 H 0.45830 0.28398 0.58085
 H330 H 0.41973 0.21837 0.55367
 H331 H 0.44682 0.21758 0.51704
 H332 H 0.44699 0.28445 0.49223
 H333 H 0.41884 0.28524 0.45629
 H334 H 0.45427 0.21869 0.42717
 H335 H 0.48194 0.21747 0.46388
 H336 H 0.57469 0.28416 0.54548
 C337 C 1.00152 0.01393 0.25162
 C338 C 1.00135 -0.01146 0.25310
 C339 C 0.97741 -0.02544 0.25409
 C340 C 1.02441 -0.02710 0.25350
 C341 C 1.02486 0.02898 0.24956
 C342 C 0.97788 0.02861 0.25292
 C343 C 0.96579 -0.03059 0.27701
 C344 C 0.94508 -0.04658 0.27797
 C345 C 0.93500 -0.05689 0.25585
 C346 C 0.94606 -0.05044 0.23278
 C347 C 0.96743 -0.03543 0.23203
 C348 C 1.02682 -0.04563 0.27194
 C349 C 1.04646 -0.06272 0.27123
 C350 C 1.06468 -0.06162 0.25223
 C351 C 1.06292 -0.04229 0.23430
 C352 C 1.04275 -0.02544 0.23472
 C353 C 1.02610 0.04770 0.23119
 C354 C 1.04610 0.06442 0.23057
 C355 C 1.06551 0.06274 0.24823
 C356 C 1.06483 0.04345 0.26614
 C357 C 1.04450 0.02686 0.26699
 C358 C 0.95952 0.02685 0.23417
 C359 C 0.93824 0.04213 0.23494
 C360 C 0.93537 0.05995 0.25406
 C361 C 0.95381 0.06166 0.27277
 C362 C 0.97479 0.04608 0.27223
 H363 H 0.97334 -0.02298 0.29422
 H364 H 0.93700 -0.05081 0.29607
 H365 H 0.93903 -0.05793 0.21531
 H366 H 0.97638 -0.03175 0.21421
 H367 H 1.01319 -0.04725 0.28682
 H368 H 1.04716 -0.07694 0.28567
 H369 H 1.04111 -0.01160 0.22001
 H370 H 1.01116 0.04976 0.21761
 H371 H 1.04618 0.07893 0.21642
 H372 H 1.07948 0.04182 0.28008
 H373 H 1.04369 0.01298 0.28172
 H374 H 0.96198 0.01421 0.21856
 H375 H 0.92452 0.04067 0.22007
 H376 H 0.95210 0.07518 0.28776
 H377 H 0.98889 0.04793 0.28671
 H378 H 1.07652 -0.04073 0.21935
 C379 C 0.50618 0.51690 0.75283
 C380 C 0.50533 0.49155 0.75469
 C381 C 0.48115 0.47827 0.75706
 C382 C 0.52785 0.47517 0.75398
 C383 C 0.52993 0.53110 0.74981
 C384 C 0.48299 0.53233 0.75442
 C385 C 0.46966 0.47531 0.78047
 C386 C 0.44853 0.46002 0.78287
 C387 C 0.43825 0.44826 0.76174
 C388 C 0.44922 0.45211 0.73820
 C389 C 0.47082 0.46660 0.73597
 C390 C 0.53061 0.45662 0.77240
 C391 C 0.54939 0.43863 0.77051
 C392 C 0.56613 0.43887 0.75029
 C393 C 0.56414 0.45802 0.73231
 C394 C 0.54493 0.47587 0.73398
 C395 C 0.53126 0.54949 0.73113
 C396 C 0.55176 0.56554 0.72974
 C397 C 0.57157 0.56350 0.74693
 C398 C 0.57079 0.54444 0.76508
 C399 C 0.54999 0.52852 0.76669
 C400 C 0.46357 0.52989 0.73683
 C401 C 0.44264 0.54564 0.73784
 C402 C 0.44113 0.56459 0.75601
 C403 C 0.46065 0.56705 0.77349
 C404 C 0.48130 0.55103 0.77275
 H405 H 0.47763 0.48405 0.79693
 H406 H 0.44031 0.45724 0.80119
 H407 H 0.44172 0.44299 0.72172
 H408 H 0.47970 0.46852 0.71785
 H409 H 0.51781 0.45568 0.78807
 H410 H 0.55064 0.42433 0.78482
 H411 H 0.54291 0.48965 0.71926
 H412 H 0.51601 0.55187 0.71796
 H413 H 0.55190 0.57986 0.71540
 H414 H 0.58573 0.54253 0.77866
 H415 H 0.54915 0.51484 0.78161
 H416 H 0.46489 0.51626 0.72193
 H417 H 0.42806 0.54352 0.72391
 H418 H 0.46001 0.58144 0.78774
 H419 H 0.49620 0.55342 0.78632
 H420 H 0.57677 0.45858 0.71648
 C421 C 1.01969 1.00423 0.74854
 C422 C 0.99421 1.00452 0.74703
 C423 C 0.97904 0.98119 0.74718
 C424 C 0.97932 1.02800 0.74517
 C425 C 1.03490 1.02745 0.75073
 C426 C 1.03437 0.98055 0.74762
 C427 C 0.98169 0.96269 0.72869
 C428 C 0.96543 0.94210 0.72820
 C429 C 0.94592 0.94013 0.74577
 C430 C 0.94357 0.95854 0.76435
 C431 C 0.96000 0.97875 0.76509
 C432 C 0.96137 1.02990 0.72609
 C433 C 0.94451 1.04976 0.72551
 C434 C 0.94528 1.06862 0.74389
 C435 C 0.96410 1.06732 0.76243
 C436 C 0.98069 1.04697 0.76329
 C437 C 1.05271 1.02901 0.76999
 C438 C 1.06927 1.04912 0.77123
 C439 C 1.06829 1.06832 0.75334
 C440 C 1.05001 1.06720 0.73438
 C441 C 1.03364 1.04674 0.73289
 C442 C 1.03052 0.96095 0.76470
 C443 C 1.04552 0.93943 0.76380
 C444 C 1.06521 0.93745 0.74629
 C445 C 1.06891 0.95730 0.72933
 C446 C 1.05364 0.97842 0.72995
 H447 H 0.99590 0.96448 0.71435
 H448 H 0.96754 0.92826 0.71357
 H449 H 0.92885 0.95744 0.77824
 H450 H 0.95755 0.99288 0.77941
 H451 H 0.95993 1.01548 0.71192
 H452 H 0.93065 1.05005 0.71070
 H453 H 0.99401 1.04565 0.77852
 H454 H 1.05412 1.01429 0.78387
 H455 H 1.08301 1.04951 0.78615
 H456 H 1.04896 1.08165 0.72022
 H457 H 1.02049 1.04566 0.71749
 H458 H 1.01616 0.96242 0.77892
 H459 H 1.04208 0.92472 0.77730
 H460 H 1.08367 0.95667 0.71545
 H461 H 1.05703 0.99335 0.71665
 H462 H 0.96539 1.08140 0.77694
 C463 C 0.48973 0.50142 0.24592
 C464 C 0.51515 0.50142 0.24705
 C465 C 0.52969 0.47783 0.24483
 C466 C 0.53029 0.52463 0.24971
 C467 C 0.47440 0.52456 0.24567
 C468 C 0.47531 0.47779 0.24518
 C469 C 0.52763 0.45865 0.26267
 C470 C 0.54268 0.43730 0.26090
 C471 C 0.56051 0.43514 0.24167
 C472 C 0.56251 0.45439 0.22389
 C473 C 0.54719 0.47547 0.22542
 C474 C 0.54899 0.52540 0.26817
 C475 C 0.56547 0.54556 0.26963
 C476 C 0.56356 0.56559 0.25274
 C477 C 0.54440 0.56524 0.23463
 C478 C 0.52807 0.54477 0.23294
 C479 C 0.45683 0.52786 0.22641
 C480 C 0.43983 0.54757 0.22714
 C481 C 0.44016 0.56466 0.24703
 C482 C 0.45843 0.56211 0.26584
 C483 C 0.47529 0.54199 0.26532
 C484 C 0.47009 0.46588 0.22239
 C485 C 0.45344 0.44567 0.22165
 C486 C 0.44252 0.43669 0.24382
 C487 C 0.44869 0.44797 0.26671
 C488 C 0.46457 0.46868 0.26731
 H489 H 0.51490 0.46049 0.27831
 H490 H 0.54099 0.42292 0.27507
 H491 H 0.57603 0.45323 0.20884
 H492 H 0.54921 0.49018 0.21162
 H493 H 0.55115 0.51004 0.28123
 H494 H 0.57989 0.54533 0.28389
 H495 H 0.51423 0.54434 0.21812
 H496 H 0.45587 0.51482 0.21095
 H497 H 0.42618 0.54925 0.21222
 H498 H 0.45900 0.57503 0.28144
 H499 H 0.48845 0.53959 0.28056
 H500 H 0.47812 0.47285 0.20514
 H501 H 0.44894 0.43718 0.20382
 H502 H 0.44032 0.44147 0.28398
 H503 H 0.46823 0.47791 0.28498
 H504 H 0.54260 0.58033 0.22123
 O505 O 0.25445 0.18659 0.21010
 O506 O 0.28149 0.17956 0.24540
 O507 O 0.18842 0.21602 0.24589
 O508 O 0.17909 0.24850 0.27073
 O509 O 0.21837 0.25262 0.17979
 O510 O 0.25388 0.27894 0.17266
 O511 O 0.25353 0.28619 0.30929
 O512 O 0.22430 0.25320 0.31608
 O513 O 0.31767 0.25140 0.27972
 O514 O 0.32526 0.22382 0.24315
 O515 O 0.28733 0.31606 0.24467
 O516 O 0.25057 0.32297 0.21643
 O517 O 0.25276 0.31620 0.27911
 O518 O 0.22538 0.32403 0.24390
 O519 O 0.31747 0.28605 0.24698
 O520 O 0.32578 0.25134 0.21776
 O521 O 0.28740 0.25344 0.30957
 O522 O 0.25347 0.22420 0.31760
 O523 O 0.25271 0.21661 0.17988
 O524 O 0.28122 0.25077 0.17307
 O525 O 0.18828 0.25019 0.20984
 O526 O 0.18192 0.27983 0.24402
 O527 O 0.21883 0.18614 0.24602
 O528 O 0.25376 0.17919 0.27268
 Zr529 Zr 0.25251 0.20652 0.24411
 O530 O 0.27564 0.22814 0.26753
 Zr531 Zr 0.20813 0.25006 0.24383
 O532 O 0.22936 0.27369 0.26723
 Zr533 Zr 0.25221 0.25039 0.19999
 O534 O 0.27547 0.27388 0.22146
 Zr535 Zr 0.25362 0.25223 0.28948
 O536 O 0.23018 0.22829 0.26829
 Zr537 Zr 0.29767 0.25217 0.24571
 O538 O 0.27659 0.22846 0.22197
 Zr539 Zr 0.25333 0.29596 0.24530
 O540 O 0.22983 0.27442 0.22169
 O541 O 0.22909 0.22694 0.22071
 O542 O 0.27698 0.27576 0.26893
 C543 C 0.25412 0.19373 0.18710
 C544 C 0.19580 0.19313 0.24670
 C545 C 0.19541 0.25188 0.18695
 C546 C 0.25298 0.30911 0.30208
 C547 C 0.31038 0.25249 0.30260
 C548 C 0.31030 0.30892 0.24584
 H549 H 0.28607 0.21685 0.27782
 H550 H 0.28575 0.28424 0.21011
 H551 H 0.21841 0.21608 0.21015
 H552 H 0.21800 0.28388 0.27767
 H553 H 0.21179 0.24059 0.31075
 H554 H 0.18411 0.25917 0.28500
 H555 H 0.32181 0.26444 0.20531
 H556 H 0.29437 0.23927 0.17931
 H557 H 0.26660 0.21180 0.31357
 H558 H 0.24302 0.18548 0.28640
 H559 H 0.26469 0.32026 0.20476
 H560 H 0.24238 0.29233 0.17831
 H561 H 0.29460 0.18529 0.23362
 H562 H 0.32204 0.21156 0.25665
 H563 H 0.18713 0.29171 0.23080
 H564 H 0.21198 0.31922 0.25574
 O565 O 0.74711 0.82085 0.21838
 O566 O 0.71874 0.82830 0.25262
 O567 O 0.81181 0.79282 0.25859
 O568 O 0.82221 0.75997 0.28138
 O569 O 0.78363 0.75392 0.19094
 O570 O 0.74869 0.72719 0.18378
 O571 O 0.74565 0.72412 0.32089
 O572 O 0.77528 0.75744 0.32683
 O573 O 0.68264 0.75539 0.28875
 O574 O 0.67512 0.78370 0.25226
 O575 O 0.71402 0.69209 0.25779
 O576 O 0.75033 0.68412 0.22954
 O577 O 0.74814 0.69358 0.29140
 O578 O 0.77637 0.68508 0.25637
 O579 O 0.68350 0.72161 0.25471
 O580 O 0.67563 0.75668 0.22641
 O581 O 0.71216 0.75821 0.31934
 O582 O 0.74576 0.78630 0.32714
 O583 O 0.74798 0.78984 0.18921
 O584 O 0.72117 0.75459 0.18250
 O585 O 0.81331 0.75790 0.22130
 O586 O 0.81859 0.72855 0.25679
 O587 O 0.78153 0.82234 0.25319
 O588 O 0.74661 0.82973 0.28069
 Zr589 Zr 0.74805 0.80169 0.25283
 O590 O 0.72458 0.78063 0.27646
 Zr591 Zr 0.79269 0.75854 0.25498
 O592 O 0.77115 0.73559 0.27880
 Zr593 Zr 0.74936 0.75657 0.21024
 O594 O 0.72594 0.73352 0.23195
 Zr595 Zr 0.74627 0.75752 0.29984
 O596 O 0.77000 0.78091 0.27829
 Zr597 Zr 0.70308 0.75571 0.25501
 O598 O 0.72443 0.77894 0.23098
 Zr599 Zr 0.74778 0.71253 0.25703
 O600 O 0.77152 0.73344 0.23316
 O601 O 0.77208 0.78071 0.23058
 O602 O 0.72350 0.73317 0.27953
 C603 C 0.74707 0.81298 0.19566
 C604 C 0.80438 0.81560 0.25652
 C605 C 0.80651 0.75505 0.19839
 C606 C 0.74693 0.70107 0.31417
 C607 C 0.68937 0.75685 0.31180
 C608 C 0.69096 0.69884 0.25626
 H609 H 0.71386 0.79214 0.28618
 H610 H 0.71597 0.72275 0.22070
 H611 H 0.78286 0.79128 0.21984
 H612 H 0.78238 0.72583 0.28982
 H613 H 0.78765 0.77017 0.32147
 H614 H 0.81615 0.75182 0.29684
 H615 H 0.68016 0.74386 0.21387
 H616 H 0.70775 0.76626 0.18772
 H617 H 0.73482 0.79987 0.32093
 H618 H 0.75874 0.82477 0.29382
 H619 H 0.73636 0.68646 0.21760
 H620 H 0.75951 0.71377 0.19059
 H621 H 0.70575 0.82178 0.24112
 H622 H 0.67776 0.79578 0.26603
 H623 H 0.81430 0.71686 0.24308
 H624 H 0.78899 0.68976 0.26908
 O625 O 0.75491 0.18514 0.78276
 O626 O 0.72745 0.17606 0.74909
 O627 O 0.81858 0.21762 0.74844
 O628 O 0.82661 0.24963 0.72277
 O629 O 0.78523 0.25293 0.81277
 O630 O 0.74963 0.27779 0.81937
 O631 O 0.75211 0.28230 0.68149
 O632 O 0.78102 0.24961 0.67595
 O633 O 0.68759 0.24696 0.71239
 O634 O 0.67933 0.22088 0.74704
 O635 O 0.71574 0.31312 0.74395
 O636 O 0.75041 0.32286 0.77252
 O637 O 0.74859 0.31303 0.71070
 O638 O 0.77808 0.32202 0.74672
 O639 O 0.68637 0.28236 0.74527
 O640 O 0.68072 0.24572 0.77539
 O641 O 0.71764 0.24955 0.68233
 O642 O 0.74865 0.22034 0.67560
 O643 O 0.75132 0.21546 0.81248
 O644 O 0.72227 0.25015 0.81818
 O645 O 0.81599 0.25247 0.78328
 O646 O 0.82114 0.28155 0.74736
 O647 O 0.78969 0.18637 0.74742
 O648 O 0.75255 0.17692 0.72064
 Zr649 Zr 0.75468 0.20477 0.74874
 O650 O 0.73057 0.22505 0.72508
 Zr651 Zr 0.79681 0.25031 0.74881
 O652 O 0.77492 0.27218 0.72427
 Zr653 Zr 0.75200 0.24933 0.79204
 O654 O 0.72850 0.27195 0.76985
 Zr655 Zr 0.75161 0.24922 0.70250
 O656 O 0.77629 0.22690 0.72429
 Zr657 Zr 0.70736 0.24883 0.74621
 O658 O 0.72913 0.22593 0.77017
 Zr659 Zr 0.75003 0.29406 0.74535
 O660 O 0.77366 0.27398 0.77014
 O661 O 0.77660 0.22673 0.77213
 O662 O 0.72730 0.27237 0.72233
 C663 C 0.75284 0.19244 0.80555
 C664 C 0.81237 0.19445 0.74753
 C665 C 0.80830 0.25364 0.80606
 C666 C 0.75007 0.30530 0.68797
 C667 C 0.69469 0.24802 0.68950
 C668 C 0.69298 0.30547 0.74420
 H669 H 0.72079 0.21323 0.71472
 H670 H 0.71776 0.28225 0.78083
 H671 H 0.78763 0.21666 0.78311
 H672 H 0.78601 0.28245 0.71360
 H673 H 0.79304 0.23644 0.68103
 H674 H 0.82011 0.25673 0.70697
 H675 H 0.68186 0.26098 0.78579
 H676 H 0.71027 0.23700 0.81305
 H677 H 0.76039 0.20704 0.68077
 H678 H 0.76752 0.17863 0.70988
 H679 H 0.73729 0.31902 0.78500
 H680 H 0.75911 0.29223 0.81267
 H681 H 0.71389 0.18174 0.76038
 H682 H 0.68585 0.20633 0.73767
 H683 H 0.81577 0.29319 0.76072
 H684 H 0.78922 0.31968 0.73212
 O685 O 0.24433 0.80935 0.78666
 O686 O 0.27142 0.81640 0.75173
 O687 O 0.17920 0.77739 0.75205
 O688 O 0.17121 0.74488 0.72671
 O689 O 0.20985 0.74539 0.81817
 O690 O 0.24449 0.71742 0.82580
 O691 O 0.24739 0.70804 0.68941
 O692 O 0.21740 0.73980 0.68153
 O693 O 0.30999 0.74431 0.71926
 O694 O 0.31693 0.77266 0.75497
 O695 O 0.28068 0.67973 0.75348
 O696 O 0.24523 0.67199 0.78232
 O697 O 0.24646 0.67850 0.72003
 O698 O 0.21835 0.67129 0.75605
 O699 O 0.31020 0.71040 0.75405
 O700 O 0.31722 0.74666 0.78153
 O701 O 0.28017 0.74116 0.68900
 O702 O 0.24533 0.77022 0.68058
 O703 O 0.24436 0.77993 0.81747
 O704 O 0.27248 0.74554 0.82541
 O705 O 0.17996 0.74247 0.78789
 O706 O 0.17467 0.71342 0.75325
 O707 O 0.20909 0.80774 0.75024
 O708 O 0.24435 0.81519 0.72393
 Zr709 Zr 0.24335 0.78854 0.75315
 O710 O 0.26736 0.76707 0.73052
 Zr711 Zr 0.19999 0.74391 0.75395
 O712 O 0.22207 0.72054 0.73100
 Zr713 Zr 0.24376 0.74569 0.79813
 O714 O 0.26767 0.72221 0.77736
 Zr715 Zr 0.24613 0.74218 0.70871
 O716 O 0.22175 0.76576 0.72925
 Zr717 Zr 0.28970 0.74395 0.75310
 O718 O 0.26781 0.76772 0.77602
 Zr719 Zr 0.24634 0.69922 0.75356
 O720 O 0.22221 0.72062 0.77672
 O721 O 0.22023 0.76805 0.77670
 O722 O 0.26981 0.71959 0.72998
 C723 C 0.24476 0.80269 0.80979
 C724 C 0.18618 0.80035 0.75023
 C725 C 0.18698 0.74362 0.81087
 C726 C 0.24721 0.68525 0.69697
 C727 C 0.30304 0.74271 0.69629
 C728 C 0.30351 0.68734 0.75393
 H729 H 0.27765 0.77841 0.72017
 H730 H 0.27808 0.71229 0.78901
 H731 H 0.20931 0.77893 0.78697
 H732 H 0.21108 0.70993 0.72055
 H733 H 0.20433 0.75201 0.68643
 H734 H 0.17666 0.73436 0.71250
 H735 H 0.31354 0.73373 0.79425
 H736 H 0.28540 0.75746 0.81954
 H737 H 0.25917 0.78209 0.68372
 H738 H 0.23380 0.80843 0.71028
 H739 H 0.25829 0.67627 0.79472
 H740 H 0.23296 0.70412 0.82002
 H741 H 0.28480 0.81103 0.76340
 H742 H 0.31313 0.78491 0.74161
 H743 H 0.18006 0.70161 0.76648
 H744 H 0.20615 0.67424 0.74242
 O745 O 0.24943 0.32485 0.72567
 O746 O 0.22200 0.33124 0.76103
 O747 O 0.31552 0.29655 0.76519
 O748 O 0.32556 0.26310 0.78798
 O749 O 0.28818 0.25913 0.69681
 O750 O 0.25306 0.23271 0.68838
 O751 O 0.25242 0.22510 0.82513
 O752 O 0.27935 0.26090 0.83198
 O753 O 0.18663 0.25806 0.79376
 O754 O 0.17962 0.28702 0.75761
 O755 O 0.21841 0.19506 0.76045
 O756 O 0.25543 0.18850 0.73220
 O757 O 0.25132 0.19544 0.79466
 O758 O 0.28063 0.18804 0.76012
 O759 O 0.18773 0.22456 0.75879
 O760 O 0.17943 0.25973 0.73192
 O761 O 0.21611 0.25568 0.82442
 O762 O 0.24441 0.28568 0.83377
 O763 O 0.25391 0.29500 0.69564
 O764 O 0.22574 0.26072 0.68781
 O765 O 0.31771 0.26240 0.72738
 O766 O 0.32329 0.23280 0.76227
 O767 O 0.28495 0.32586 0.76031
 O768 O 0.24943 0.33281 0.78780
 Zr769 Zr 0.25161 0.30498 0.75972
 O770 O 0.22847 0.28285 0.78272
 Zr771 Zr 0.29672 0.26218 0.76085
 O772 O 0.27531 0.23801 0.78353
 Zr773 Zr 0.25378 0.26123 0.71577
 O774 O 0.23032 0.23738 0.73649
 Zr775 Zr 0.25020 0.25897 0.80518
 O776 O 0.27364 0.28365 0.78471
 Zr777 Zr 0.20722 0.25867 0.76017
 O778 O 0.22843 0.28275 0.73693
 Zr779 Zr 0.25213 0.21558 0.76092
 O780 O 0.27598 0.23753 0.73806
 O781 O 0.27605 0.28493 0.73706
 O782 O 0.22765 0.23530 0.78391
 C783 C 0.25134 0.31780 0.70276
 C784 C 0.30786 0.31930 0.76361
 C785 C 0.31100 0.26019 0.70437
 C786 C 0.25196 0.20226 0.81768
 C787 C 0.19332 0.25637 0.81680
 C788 C 0.19531 0.20177 0.75930
 H789 H 0.21786 0.29382 0.79319
 H790 H 0.22047 0.22696 0.72481
 H791 H 0.28688 0.29583 0.72671
 H792 H 0.28669 0.22801 0.79417
 H793 H 0.28935 0.27600 0.82805
 H794 H 0.31856 0.25594 0.80352
 H795 H 0.18516 0.24884 0.71810
 H796 H 0.21269 0.27276 0.69313
 H797 H 0.25020 0.30184 0.82700
 H798 H 0.26355 0.32996 0.79948
 H799 H 0.24119 0.19077 0.72056
 H800 H 0.26418 0.21923 0.69456
 H801 H 0.20923 0.32550 0.74888
 H802 H 0.18184 0.29843 0.77201
 H803 H 0.31872 0.22082 0.74890
 H804 H 0.29310 0.19243 0.77309
 O805 O 0.76166 0.68354 0.70720
 O806 O 0.78957 0.67755 0.74198
 O807 O 0.69668 0.71456 0.74125
 O808 O 0.68735 0.74731 0.76552
 O809 O 0.72692 0.74711 0.67454
 O810 O 0.76124 0.77514 0.66709
 O811 O 0.76207 0.78582 0.80349
 O812 O 0.73324 0.75314 0.81143
 O813 O 0.82631 0.75076 0.77460
 O814 O 0.83437 0.72233 0.73968
 O815 O 0.79572 0.81407 0.73982
 O816 O 0.76058 0.82102 0.71031
 O817 O 0.76090 0.81505 0.77258
 O818 O 0.73327 0.82129 0.73600
 O819 O 0.82609 0.78420 0.73962
 O820 O 0.83362 0.74740 0.71206
 O821 O 0.79606 0.75400 0.80438
 O822 O 0.76215 0.72371 0.81291
 O823 O 0.76315 0.71272 0.67617
 O824 O 0.78958 0.74796 0.66794
 O825 O 0.69697 0.74906 0.70477
 O826 O 0.69061 0.77833 0.73911
 O827 O 0.72692 0.68457 0.74325
 O828 O 0.76220 0.67834 0.76997
 Zr829 Zr 0.76074 0.70465 0.74046
 O830 O 0.78415 0.72682 0.76311
 Zr831 Zr 0.71663 0.74840 0.73887
 O832 O 0.73789 0.77241 0.76181
 Zr833 Zr 0.76074 0.74715 0.69504
 O834 O 0.78394 0.77131 0.71589
 Zr835 Zr 0.76221 0.75146 0.78449
 O836 O 0.73852 0.72719 0.76397
 Zr837 Zr 0.80623 0.75023 0.74058
 O838 O 0.78500 0.72580 0.71769
 Zr839 Zr 0.76184 0.79400 0.73927
 O840 O 0.73845 0.77192 0.71605
 O841 O 0.73746 0.72450 0.71641
 O842 O 0.78555 0.77436 0.76325
 C843 C 0.76309 0.69002 0.68407
 C844 C 0.70392 0.69169 0.74314
 C845 C 0.70399 0.74849 0.68179
 C846 C 0.76136 0.80853 0.79571
 C847 C 0.81904 0.75290 0.79742
 C848 C 0.81875 0.80708 0.73970
 H849 H 0.79462 0.71584 0.77369
 H850 H 0.79426 0.78136 0.70430
 H851 H 0.72679 0.71340 0.70610
 H852 H 0.72651 0.78284 0.77201
 H853 H 0.72059 0.74050 0.80652
 H854 H 0.69276 0.75737 0.78007
 H855 H 0.83058 0.76102 0.69989
 H856 H 0.80303 0.73685 0.67420
 H857 H 0.77661 0.71245 0.81024
 H858 H 0.75158 0.68513 0.78354
 H859 H 0.77406 0.81708 0.69825
 H860 H 0.74977 0.78851 0.67282
 H861 H 0.80262 0.68303 0.73002
 H862 H 0.83013 0.70963 0.75246
 H863 H 0.69569 0.79004 0.72569
 H864 H 0.72095 0.81821 0.74948
 O865 O 0.24952 0.68520 0.28581
 O866 O 0.22274 0.67727 0.25129
 O867 O 0.31503 0.71580 0.25225
 O868 O 0.32490 0.74776 0.22757
 O869 O 0.28221 0.75193 0.31670
 O870 O 0.24726 0.77784 0.32292
 O871 O 0.25044 0.78250 0.18480
 O872 O 0.27892 0.75015 0.17895
 O873 O 0.18568 0.75109 0.21489
 O874 O 0.17596 0.72368 0.24901
 O875 O 0.21551 0.81454 0.24674
 O876 O 0.24964 0.82341 0.27560
 O877 O 0.24941 0.81322 0.21422
 O878 O 0.27831 0.82102 0.25108
 O879 O 0.18526 0.78470 0.24892
 O880 O 0.17792 0.74772 0.27778
 O881 O 0.21609 0.74867 0.18518
 O882 O 0.25173 0.71972 0.17946
 O883 O 0.24737 0.71546 0.31572
 O884 O 0.21909 0.75097 0.32123
 O885 O 0.31336 0.75013 0.28767
 O886 O 0.31953 0.78000 0.25232
 O887 O 0.28517 0.68542 0.25116
 O888 O 0.25012 0.67783 0.22329
 Zr889 Zr 0.25090 0.70505 0.25198
 O890 O 0.22757 0.72598 0.22814
 Zr891 Zr 0.29451 0.74925 0.25293
 O892 O 0.27359 0.77161 0.22796
 Zr893 Zr 0.24913 0.74943 0.29549
 O894 O 0.22668 0.77285 0.27304
 Zr895 Zr 0.24985 0.74935 0.20581
 O896 O 0.27357 0.72666 0.22812
 Zr897 Zr 0.20505 0.75057 0.24905
 O898 O 0.22578 0.72690 0.27319
 Zr899 Zr 0.24915 0.79427 0.24880
 O900 O 0.27178 0.77352 0.27399
 O901 O 0.27324 0.72616 0.27578
 O902 O 0.22606 0.77335 0.22536
 C903 C 0.24782 0.69244 0.30865
 C904 C 0.30809 0.69283 0.25141
 C905 C 0.30541 0.75160 0.31034
 C906 C 0.25001 0.80556 0.19143
 C907 C 0.19304 0.74979 0.19208
 C908 C 0.19253 0.80756 0.24748
 H909 H 0.21729 0.71444 0.21799
 H910 H 0.21618 0.78346 0.28396
 H911 H 0.28374 0.71562 0.28683
 H912 H 0.28508 0.78155 0.21741
 H913 H 0.29245 0.73923 0.18541
 H914 H 0.31963 0.75657 0.21217
 H915 H 0.17983 0.76243 0.28884
 H916 H 0.20694 0.73798 0.31607
 H917 H 0.23769 0.70811 0.18269
 H918 H 0.26265 0.68306 0.21067
 H919 H 0.23685 0.81949 0.28840
 H920 H 0.25719 0.79203 0.31635
 H921 H 0.20884 0.68361 0.26179
 H922 H 0.18156 0.70942 0.23865
 H923 H 0.31469 0.79121 0.26625
 H924 H 0.28956 0.81847 0.23661
 O925 O 0.73997 0.30589 0.28211
 O926 O 0.76853 0.31240 0.24797
 O927 O 0.67564 0.27506 0.24629
 O928 O 0.66708 0.24234 0.22160
 O929 O 0.70531 0.24074 0.31302
 O930 O 0.74011 0.21394 0.32115
 O931 O 0.74289 0.20490 0.18454
 O932 O 0.71333 0.23719 0.17669
 O933 O 0.80582 0.23961 0.21483
 O934 O 0.81360 0.26763 0.24990
 O935 O 0.77540 0.17575 0.24843
 O936 O 0.73946 0.16868 0.27739
 O937 O 0.74119 0.17522 0.21499
 O938 O 0.71305 0.16817 0.25065
 O939 O 0.80533 0.20598 0.24966
 O940 O 0.81238 0.24264 0.27746
 O941 O 0.77614 0.23786 0.18431
 O942 O 0.74174 0.26706 0.17581
 O943 O 0.74098 0.27630 0.31277
 O944 O 0.76788 0.24123 0.32087
 O945 O 0.67542 0.24150 0.28262
 O946 O 0.67010 0.21113 0.24870
 O947 O 0.70594 0.30500 0.24535
 O948 O 0.74168 0.31202 0.21957
 Zr949 Zr 0.73980 0.28519 0.24858
 O950 O 0.76355 0.26344 0.22598
 Zr951 Zr 0.69580 0.24132 0.24892
 O952 O 0.71756 0.21765 0.22600
 Zr953 Zr 0.73943 0.24206 0.29334
 O954 O 0.76300 0.21827 0.27257
 Zr955 Zr 0.74204 0.23901 0.20392
 O956 O 0.71798 0.26292 0.22443
 Zr957 Zr 0.78540 0.23983 0.24853
 O958 O 0.76384 0.26387 0.27143
 Zr959 Zr 0.74137 0.19580 0.24856
 O960 O 0.71752 0.21752 0.27168
 O961 O 0.71631 0.26494 0.27198
 O962 O 0.76526 0.21591 0.22518
 C963 C 0.74095 0.29913 0.30519
 C964 C 0.68296 0.29791 0.24481
 C965 C 0.68239 0.24080 0.30562
 C966 C 0.74223 0.18208 0.19199
 C967 C 0.79898 0.23861 0.19179
 C968 C 0.79832 0.18303 0.24928
 H969 H 0.77407 0.27464 0.21570
 H970 H 0.77319 0.20813 0.28423
 H971 H 0.70547 0.27592 0.28224
 H972 H 0.70645 0.20726 0.21547
 H973 H 0.70036 0.24945 0.18172
 H974 H 0.67238 0.23155 0.20753
 H975 H 0.80917 0.22902 0.28958
 H976 H 0.78118 0.25276 0.31509
 H977 H 0.75544 0.27900 0.17932
 H978 H 0.73105 0.30562 0.20580
 H979 H 0.75333 0.17193 0.28923
 H980 H 0.72930 0.20021 0.31498
 H981 H 0.78139 0.30681 0.26011
 H982 H 0.80923 0.28067 0.23752
 H983 H 0.67504 0.19972 0.26245
 H984 H 0.70049 0.17195 0.23756
 C985 C 0.25562 0.11886 0.11267
 N986 N 0.27101 0.09885 0.11514
 N987 N 0.27111 0.08081 0.09800
 C988 C 0.25561 0.08177 0.07777
 N989 N 0.24020 0.10195 0.07540
 N990 N 0.24032 0.12019 0.09241
 C991 C 0.25533 0.13843 0.13189
 N992 N 0.24624 0.16158 0.12673
 N993 N 0.24609 0.17928 0.14428
 C994 C 0.25473 0.17436 0.16769
 N995 N 0.26367 0.15117 0.17288
 N996 N 0.26412 0.13358 0.15524
 C997 C 0.76229 0.61361 0.61127
 N998 N 0.75100 0.59158 0.61676
 N999 N 0.74888 0.57380 0.59949
 C1000 C 0.75813 0.57726 0.57607
 N1001 N 0.76970 0.59923 0.57062
 N1002 N 0.77162 0.61715 0.58788
 C1003 C 0.76365 0.63336 0.63025
 N1004 N 0.76944 0.65723 0.62382
 N1005 N 0.76948 0.67528 0.64102
 C1006 C 0.76392 0.67006 0.66527
 N1007 N 0.75838 0.64614 0.67171
 N1008 N 0.75814 0.62815 0.65449
 C1009 C 0.74713 0.88416 0.11749
 N1010 N 0.73730 0.87805 0.09490
 N1011 N 0.73753 0.89440 0.07612
 C1012 C 0.74780 0.91745 0.07909
 N1013 N 0.75776 0.92354 0.10170
 N1014 N 0.75733 0.90723 0.12059
 C1015 C 0.74690 0.86588 0.13800
 N1016 N 0.75199 0.87290 0.16189
 N1017 N 0.75175 0.85611 0.18035
 C1018 C 0.74662 0.83169 0.17555
 N1019 N 0.74161 0.82470 0.15165
 N1020 N 0.74162 0.84150 0.13325
 C1021 C 0.25258 0.39173 0.62742
 N1022 N 0.23363 0.40854 0.62540
 N1023 N 0.23313 0.42483 0.60651
 C1024 C 0.25178 0.42515 0.58924
 N1025 N 0.27092 0.40857 0.59151
 N1026 N 0.27122 0.39205 0.61016
 C1027 C 0.25243 0.37279 0.64725
 N1028 N 0.26424 0.35059 0.64375
 N1029 N 0.26363 0.33301 0.66140
 C1030 C 0.25148 0.33712 0.68331
 N1031 N 0.23984 0.35942 0.68693
 N1032 N 0.24011 0.37687 0.66911
 C1033 C 0.75104 0.11601 0.87848
 N1034 N 0.76621 0.09570 0.87655
 N1035 N 0.76535 0.07753 0.89363
 C1036 C 0.74902 0.07876 0.91312
 N1037 N 0.73373 0.09907 0.91478
 N1038 N 0.73480 0.11736 0.89792
 C1039 C 0.75196 0.13609 0.85978
 N1040 N 0.74251 0.15911 0.86500
 N1041 N 0.74306 0.17726 0.84788
 C1042 C 0.75281 0.17290 0.82484
 N1043 N 0.76219 0.14987 0.81963
 N1044 N 0.76192 0.13184 0.83683
 C1045 C 0.24492 0.61617 0.38175
 N1046 N 0.23342 0.62008 0.40402
 N1047 N 0.23254 0.60200 0.42114
 C1048 C 0.24325 0.57936 0.41674
 N1049 N 0.25487 0.57550 0.39447
 N1050 N 0.25556 0.59353 0.37724
 C1051 C 0.24575 0.63609 0.36287
 N1052 N 0.25254 0.63087 0.33898
 N1053 N 0.25307 0.64888 0.32177
 C1054 C 0.24705 0.67280 0.32783
 N1055 N 0.24040 0.67808 0.35177
 N1056 N 0.23965 0.66000 0.36895
 C1057 C 0.24733 0.87857 0.88331
 N1058 N 0.25854 0.90073 0.87815
 N1059 N 0.25972 0.91862 0.89542
 C1060 C 0.24958 0.91516 0.91847
 N1061 N 0.23820 0.89301 0.92358
 N1062 N 0.23721 0.87499 0.90635
 C1063 C 0.24636 0.85886 0.86421
 N1064 N 0.24040 0.83499 0.87049
 N1065 N 0.23997 0.81709 0.85314
 C1066 C 0.24528 0.82245 0.82886
 N1067 N 0.25107 0.84635 0.82257
 N1068 N 0.25173 0.86419 0.83995
 C1069 C 0.74195 0.37528 0.37848
 N1070 N 0.73104 0.39768 0.37361
 N1071 N 0.73117 0.41580 0.39070
 C1072 C 0.74237 0.41231 0.41327
 N1073 N 0.75336 0.38988 0.41810
 N1074 N 0.75303 0.37165 0.40108
 C1075 C 0.74185 0.35543 0.35949
 N1076 N 0.74786 0.33152 0.36564
 N1077 N 0.74755 0.31356 0.34836
 C1078 C 0.74147 0.31890 0.32425
 N1079 N 0.73560 0.34284 0.31809
 N1080 N 0.73569 0.36074 0.33541
 C1081 C 0.11925 0.25121 0.11372
 N1082 N 0.11966 0.26649 0.09342
 N1083 N 0.10089 0.26617 0.07692
 C1084 C 0.08115 0.25034 0.07993
 N1085 N 0.08108 0.23491 0.10016
 N1086 N 0.09962 0.23544 0.11677
 C1087 C 0.13920 0.25186 0.13255
 N1088 N 0.13476 0.24291 0.15588
 N1089 N 0.15266 0.24320 0.17321
 C1090 C 0.17579 0.25217 0.16777
 N1091 N 0.18034 0.26104 0.14437
 N1092 N 0.16229 0.26104 0.12709
 C1093 C 0.62570 0.75054 0.61050
 N1094 N 0.62730 0.73876 0.58802
 N1095 N 0.60795 0.73901 0.57217
 C1096 C 0.58641 0.75122 0.57814
 N1097 N 0.58499 0.76305 0.60057
 N1098 N 0.60418 0.76263 0.61646
 C1099 C 0.64643 0.74995 0.62861
 N1100 N 0.64219 0.75677 0.65268
 N1101 N 0.66060 0.75626 0.66947
 C1102 C 0.68407 0.74917 0.66280
 N1103 N 0.68844 0.74247 0.63865
 N1104 N 0.66990 0.74275 0.62186
 C1105 C 0.11103 0.74673 0.88414
 N1106 N 0.09539 0.72704 0.88749
 N1107 N 0.07801 0.72757 0.90537
 C1108 C 0.07527 0.74798 0.92033
 N1109 N 0.09075 0.76783 0.91658
 N1110 N 0.10842 0.76713 0.89899
 C1111 C 0.13076 0.74579 0.86511
 N1112 N 0.15265 0.75819 0.86865
 N1113 N 0.17074 0.75711 0.85152
 C1114 C 0.16743 0.74390 0.83009
 N1115 N 0.14545 0.73166 0.82645
 N1116 N 0.12752 0.73237 0.84379
 C1117 C 0.60763 0.24201 0.38021
 N1118 N 0.58525 0.25354 0.37644
 N1119 N 0.56812 0.25422 0.39459
 C1120 C 0.57267 0.24317 0.41705
 N1121 N 0.59503 0.23157 0.42066
 N1122 N 0.61220 0.23108 0.40265
 C1123 C 0.62687 0.24156 0.36065
 N1124 N 0.65079 0.23513 0.36643
 N1125 N 0.66847 0.23486 0.34888
 C1126 C 0.66281 0.24076 0.32484
 N1127 N 0.63885 0.24706 0.31900
 N1128 N 0.62120 0.24756 0.33662
 C1129 C 0.88167 0.74826 0.12421
 N1130 N 0.87930 0.73173 0.10511
 N1131 N 0.89650 0.73061 0.08709
 C1132 C 0.91664 0.74619 0.08721
 N1133 N 0.91894 0.76271 0.10645
 N1134 N 0.90190 0.76362 0.12466
 C1135 C 0.86231 0.74986 0.14369
 N1136 N 0.86732 0.76058 0.16618
 N1137 N 0.84962 0.76209 0.18372
 C1138 C 0.82618 0.75325 0.17925
 N1139 N 0.82117 0.74266 0.15671
 N1140 N 0.83894 0.74086 0.13931
 C1141 C 0.38489 0.25518 0.62889
 N1142 N 0.37938 0.24291 0.60738
 N1143 N 0.39604 0.24156 0.58894
 C1144 C 0.41885 0.25257 0.59114
 N1145 N 0.42438 0.26496 0.61267
 N1146 N 0.40774 0.26614 0.63127
 C1147 C 0.36603 0.25671 0.64881
 N1148 N 0.37211 0.26429 0.67231
 N1149 N 0.35468 0.26531 0.69018
 C1150 C 0.33055 0.25897 0.68508
 N1151 N 0.32453 0.25152 0.66158
 N1152 N 0.34195 0.25030 0.64383
 C1153 C 0.87980 0.25303 0.88377
 N1154 N 0.87720 0.26710 0.90475
 N1155 N 0.89419 0.26585 0.92303
 C1156 C 0.91421 0.25019 0.92120
 N1157 N 0.91648 0.23597 0.90023
 N1158 N 0.89973 0.23745 0.88185
 C1159 C 0.86144 0.25434 0.86341
 N1160 N 0.86767 0.24639 0.84010
 N1161 N 0.85089 0.24676 0.82166
 C1162 C 0.82718 0.25484 0.82593
 N1163 N 0.82093 0.26281 0.84925
 N1164 N 0.83782 0.26274 0.86763
 C1165 C 0.37592 0.74960 0.38917
 N1166 N 0.37460 0.76599 0.40853
 N1167 N 0.39148 0.76527 0.42693
 C1168 C 0.41001 0.74783 0.42685
 N1169 N 0.41111 0.73129 0.40760
 N1170 N 0.39447 0.73224 0.38904
 C1171 C 0.35776 0.75069 0.36855
 N1172 N 0.36360 0.74107 0.34577
 N1173 N 0.34711 0.74184 0.32706
 C1174 C 0.32406 0.75200 0.33053
 N1175 N 0.31818 0.76154 0.35334
 N1176 N 0.33481 0.76110 0.37195
 C1177 C 0.12158 0.11776 0.24896
 N1178 N 0.09884 0.12241 0.23863
 N1179 N 0.08121 0.10482 0.23831
 C1180 C 0.08551 0.08192 0.24846
 N1181 N 0.10826 0.07730 0.25896
 N1182 N 0.12602 0.09486 0.25909
 C1183 C 0.14093 0.13732 0.24898
 N1184 N 0.16522 0.13175 0.25410
 N1185 N 0.18272 0.14953 0.25346
 C1186 C 0.17652 0.17355 0.24789
 N1187 N 0.15220 0.17912 0.24295
 N1188 N 0.13476 0.16132 0.24338
 C1189 C 0.62881 0.61729 0.74627
 N1190 N 0.60619 0.62213 0.73576
 N1191 N 0.58822 0.60489 0.73582
 C1192 C 0.59204 0.58217 0.74653
 N1193 N 0.61468 0.57734 0.75717
 N1194 N 0.63278 0.59455 0.75692
 C1195 C 0.64843 0.63655 0.74602
 N1196 N 0.67258 0.63082 0.75166
 N1197 N 0.69029 0.64839 0.75083
 C1198 C 0.68445 0.67233 0.74457
 N1199 N 0.66028 0.67804 0.73911
 N1200 N 0.64263 0.66046 0.73973
 C1201 C 0.89033 0.12301 0.74518
 N1202 N 0.88886 0.10347 0.72911
 N1203 N 0.90685 0.08625 0.72846
 C1204 C 0.92696 0.08761 0.74405
 N1205 N 0.92836 0.10726 0.76018
 N1206 N 0.91049 0.12471 0.76061
 C1207 C 0.87014 0.14164 0.74598
 N1208 N 0.87425 0.16490 0.75528
 N1209 N 0.85586 0.18179 0.75563
 C1210 C 0.83265 0.17591 0.74700
 N1211 N 0.82851 0.15259 0.73789
 N1212 N 0.84697 0.13583 0.73723
 C1213 C 0.38414 0.61948 0.25041
 N1214 N 0.38010 0.59752 0.23842
 N1215 N 0.39801 0.58024 0.23736
 C1216 C 0.42059 0.58414 0.24841
 N1217 N 0.42459 0.60606 0.26062
 N1218 N 0.40672 0.62349 0.26148
 C1219 C 0.36438 0.63852 0.25108
 N1220 N 0.36968 0.66249 0.25754
 N1221 N 0.35172 0.67981 0.25753
 C1222 C 0.32782 0.67374 0.25126
 N1223 N 0.32250 0.64974 0.24497
 N1224 N 0.34050 0.63248 0.24475
 C1225 C 0.11373 0.87726 0.74605
 N1226 N 0.11788 0.89737 0.73119
 N1227 N 0.10196 0.91653 0.73104
 C1228 C 0.08135 0.91659 0.74598
 N1229 N 0.07721 0.89633 0.76085
 N1230 N 0.09302 0.87699 0.76081
 C1231 C 0.13208 0.85680 0.74672
 N1232 N 0.12609 0.83395 0.75610
 N1233 N 0.14315 0.81571 0.75685
 C1234 C 0.16685 0.81981 0.74851
 N1235 N 0.17278 0.84266 0.73922
 N1236 N 0.15568 0.86075 0.73819
 C1237 C 0.61078 0.37491 0.24028
 N1238 N 0.61645 0.39681 0.22879
 N1239 N 0.60026 0.41574 0.22894
 C1240 C 0.57786 0.41362 0.24076
 N1241 N 0.57218 0.39166 0.25226
 N1242 N 0.58830 0.37261 0.25194
 C1243 C 0.62917 0.35454 0.24080
 N1244 N 0.62254 0.33108 0.24796
 N1245 N 0.63957 0.31285 0.24887
 C1246 C 0.66386 0.31752 0.24289
 N1247 N 0.67044 0.34098 0.23576
 N1248 N 0.65339 0.35911 0.23462
 C1249 C 0.87788 0.89125 0.25789
 N1250 N 0.88446 0.90232 0.23605
 N1251 N 0.90280 0.91917 0.23544
 C1252 C 0.91499 0.92602 0.25672
 N1253 N 0.90798 0.91518 0.27867
 N1254 N 0.88995 0.89795 0.27921
 C1255 C 0.85844 0.87194 0.25821
 N1256 N 0.86059 0.85167 0.27339
 N1257 N 0.84341 0.83359 0.27282
 C1258 C 0.82330 0.83538 0.25736
 N1259 N 0.82103 0.85579 0.24240
 N1260 N 0.83843 0.87362 0.24263
 C1261 C 0.38038 0.39589 0.76633
 N1262 N 0.38052 0.41333 0.74787
 N1263 N 0.39870 0.43034 0.74669
 C1264 C 0.41714 0.43079 0.76419
 N1265 N 0.41678 0.41359 0.78289
 N1266 N 0.39879 0.39634 0.78386
 C1267 C 0.36122 0.37629 0.76659
 N1268 N 0.36585 0.35383 0.77754
 N1269 N 0.34886 0.33559 0.77662
 C1270 C 0.32654 0.33931 0.76500
 N1271 N 0.32184 0.36186 0.75430
 N1272 N 0.33895 0.37995 0.75490
 C1273 C 0.11744 0.25459 0.89021
 N1274 N 0.11886 0.23953 0.91064
 N1275 N 0.10058 0.23953 0.92764
 C1276 C 0.08036 0.25482 0.92507
 N1277 N 0.07925 0.27002 0.90468
 N1278 N 0.09732 0.26981 0.88755
 C1279 C 0.13713 0.25447 0.87111
 N1280 N 0.13233 0.26348 0.84784
 N1281 N 0.15016 0.26376 0.83044
 C1282 C 0.17354 0.25532 0.83577
 N1283 N 0.17838 0.24636 0.85907
 N1284 N 0.16045 0.24579 0.87640
 C1285 C 0.61405 0.75499 0.38599
 N1286 N 0.59234 0.74258 0.38156
 N1287 N 0.57474 0.74118 0.39913
 C1288 C 0.57802 0.75228 0.42175
 N1289 N 0.59969 0.76488 0.42612
 N1290 N 0.61744 0.76609 0.40861
 C1291 C 0.63354 0.75604 0.36665
 N1292 N 0.65723 0.76323 0.37242
 N1293 N 0.67500 0.76352 0.35492
 C1294 C 0.66968 0.75685 0.33097
 N1295 N 0.64594 0.74984 0.32517
 N1296 N 0.62823 0.74933 0.34272
 C1297 C 0.89062 0.75569 0.87527
 N1298 N 0.88867 0.77276 0.89395
 N1299 N 0.90437 0.77223 0.91332
 C1300 C 0.92245 0.75437 0.91506
 N1301 N 0.92436 0.73734 0.89623
 N1302 N 0.90886 0.73806 0.87667
 C1303 C 0.87252 0.75566 0.85456
 N1304 N 0.87797 0.74440 0.83243
 N1305 N 0.86114 0.74388 0.81397
 C1306 C 0.83813 0.75427 0.81716
 N1307 N 0.83270 0.76545 0.83930
 N1308 N 0.84964 0.76629 0.85759
 C1309 C 0.38282 0.25246 0.37966
 N1310 N 0.37742 0.26382 0.40169
 N1311 N 0.39393 0.26377 0.42035
 C1312 C 0.41642 0.25217 0.41784
 N1313 N 0.42181 0.24068 0.39579
 N1314 N 0.40534 0.24092 0.37700
 C1315 C 0.36428 0.25249 0.35938
 N1316 N 0.37066 0.24586 0.33569
 N1317 N 0.35358 0.24605 0.31746
 C1318 C 0.32949 0.25266 0.32235
 N1319 N 0.32315 0.25920 0.34604
 N1320 N 0.34025 0.25923 0.36418
 C1321 C 0.11600 0.74662 0.11960
 N1322 N 0.11668 0.72993 0.10047
 N1323 N 0.09815 0.72908 0.08374
 C1324 C 0.07840 0.74505 0.08539
 N1325 N 0.07781 0.76177 0.10450
 N1326 N 0.09615 0.76239 0.12140
 C1327 C 0.13628 0.74763 0.13816
 N1328 N 0.13218 0.75807 0.16092
 N1329 N 0.15036 0.75882 0.17798
 C1330 C 0.17345 0.74953 0.17278
 N1331 N 0.17767 0.73929 0.14991
 N1332 N 0.15936 0.73823 0.13295
 C1333 C 0.61741 0.24856 0.61738
 N1334 N 0.62084 0.26013 0.59507
 N1335 N 0.60232 0.26123 0.57842
 C1336 C 0.57969 0.25070 0.58334
 N1337 N 0.57632 0.23897 0.60564
 N1338 N 0.59480 0.23804 0.62241
 C1339 C 0.63770 0.24781 0.63588
 N1340 N 0.63295 0.24102 0.65986
 N1341 N 0.65121 0.24099 0.67684
 C1342 C 0.67493 0.24753 0.67043
 N1343 N 0.67976 0.25413 0.64638
 N1344 N 0.66143 0.25436 0.62943
 C1345 C 0.87447 0.24191 0.11787
 N1346 N 0.87110 0.23196 0.09472
 N1347 N 0.88900 0.23379 0.07741
 C1348 C 0.91080 0.24589 0.08254
 N1349 N 0.91404 0.25584 0.10570
 N1350 N 0.89629 0.25382 0.12304
 C1351 C 0.85490 0.24020 0.13708
 N1352 N 0.86027 0.24586 0.16126
 N1353 N 0.84252 0.24500 0.17874
 C1354 C 0.81868 0.23864 0.17264
 N1355 N 0.81329 0.23296 0.14845
 N1356 N 0.83110 0.23362 0.13099
 C1357 C 0.37709 0.74561 0.62083
 N1358 N 0.37680 0.72912 0.60150
 N1359 N 0.39436 0.73002 0.58379
 C1360 C 0.41261 0.74772 0.58453
 N1361 N 0.41273 0.76433 0.60375
 N1362 N 0.39539 0.76321 0.62164
 C1363 C 0.35799 0.74446 0.64056
 N1364 N 0.36252 0.75447 0.66348
 N1365 N 0.34516 0.75356 0.68138
 C1366 C 0.32252 0.74290 0.67690
 N1367 N 0.31795 0.73298 0.65395
 N1368 N 0.33544 0.73357 0.63617
 C1369 C 0.25204 0.12477 0.88949
 N1370 N 0.24084 0.10278 0.88366
 N1371 N 0.24047 0.08404 0.90003
 C1372 C 0.25147 0.08642 0.92281
 N1373 N 0.26284 0.10842 0.92863
 N1374 N 0.26302 0.12731 0.91230
 C1375 C 0.25231 0.14514 0.87109
 N1376 N 0.25839 0.16889 0.87776
 N1377 N 0.25819 0.18723 0.86082
 C1378 C 0.25211 0.18238 0.83660
 N1379 N 0.24616 0.15862 0.82999
 N1380 N 0.24614 0.14038 0.84693
 C1381 C 0.74930 0.62417 0.38678
 N1382 N 0.73870 0.62646 0.40978
 N1383 N 0.73912 0.60736 0.42589
 C1384 C 0.75034 0.58537 0.41964
 N1385 N 0.76101 0.58328 0.39669
 N1386 N 0.76043 0.60223 0.38058
 C1387 C 0.74847 0.64457 0.36836
 N1388 N 0.75459 0.63979 0.34421
 N1389 N 0.75397 0.65786 0.32712
 C1390 C 0.74740 0.68152 0.33352
 N1391 N 0.74135 0.68644 0.35773
 N1392 N 0.74177 0.66824 0.37485
 C1393 C 0.74580 0.10774 0.11713
 N1394 N 0.73510 0.08489 0.12016
 N1395 N 0.73617 0.06789 0.10191
 C1396 C 0.74821 0.07309 0.08011
 N1397 N 0.75894 0.09592 0.07724
 N1398 N 0.75769 0.11293 0.09534
 C1399 C 0.74451 0.12684 0.13676
 N1400 N 0.75045 0.15091 0.13133
 N1401 N 0.74954 0.16847 0.14894
 C1402 C 0.74288 0.16258 0.17271
 N1403 N 0.73701 0.13847 0.17822
 N1404 N 0.73770 0.12091 0.16052
 C1405 C 0.24987 0.61063 0.62224
 N1406 N 0.23862 0.58809 0.62552
 N1407 N 0.23871 0.57112 0.60723
 C1408 C 0.25028 0.57599 0.58510
 N1409 N 0.26165 0.59849 0.58199
 N1410 N 0.26137 0.61551 0.60015
 C1411 C 0.24927 0.62979 0.64189
 N1412 N 0.25532 0.65381 0.63637
 N1413 N 0.25458 0.67143 0.65394
 C1414 C 0.24799 0.66565 0.67777
 N1415 N 0.24207 0.64158 0.68338
 N1416 N 0.24258 0.62397 0.66571
 C1417 C 0.75912 0.88363 0.87000
 N1418 N 0.74731 0.90586 0.86636
 N1419 N 0.74648 0.92289 0.88459
 C1420 C 0.75764 0.91839 0.90702
 N1421 N 0.76951 0.89619 0.91050
 N1422 N 0.77016 0.87912 0.89241
 C1423 C 0.75972 0.86438 0.85043
 N1424 N 0.76651 0.84063 0.85629
 N1425 N 0.76700 0.82290 0.83882
 C1426 C 0.76095 0.82831 0.81475
 N1427 N 0.75429 0.85212 0.80881
 N1428 N 0.75358 0.86983 0.82636
 C1429 C 0.25011 0.38285 0.37786
 N1430 N 0.23900 0.40545 0.37425
 N1431 N 0.23848 0.42239 0.39258
 C1432 C 0.24925 0.41743 0.41510
 N1433 N 0.26036 0.39483 0.41858
 N1434 N 0.26069 0.37785 0.40039
 C1435 C 0.25074 0.36387 0.35797
 N1436 N 0.25715 0.33992 0.36349
 N1437 N 0.25785 0.32254 0.34567
 C1438 C 0.25241 0.32849 0.32158
 N1439 N 0.24610 0.35248 0.31599
 N1440 N 0.24519 0.36986 0.33389
 C1441 C 0.24933 0.87862 0.11510
 N1442 N 0.26008 0.87440 0.09245
 N1443 N 0.25970 0.89200 0.07475
 C1444 C 0.24831 0.91434 0.07900
 N1445 N 0.23751 0.91841 0.10163
 N1446 N 0.23808 0.90095 0.11936
 C1447 C 0.24984 0.85956 0.13486
 N1448 N 0.24386 0.86579 0.15875
 N1449 N 0.24411 0.84861 0.17680
 C1450 C 0.25012 0.82451 0.17158
 N1451 N 0.25604 0.81824 0.14766
 N1452 N 0.25601 0.83548 0.12963
 C1453 C 0.74615 0.37562 0.60920
 N1454 N 0.76373 0.37508 0.59087
 N1455 N 0.76353 0.39207 0.57263
 C1456 C 0.74546 0.40993 0.57178
 N1457 N 0.72766 0.41026 0.58994
 N1458 N 0.72808 0.39348 0.60840
 C1459 C 0.74701 0.35742 0.62974
 N1460 N 0.73646 0.36268 0.65226
 N1461 N 0.73772 0.34626 0.67101
 C1462 C 0.74934 0.32389 0.66778
 N1463 N 0.75973 0.31859 0.64521
 N1464 N 0.75878 0.33514 0.62661
 C1465 C 0.12190 0.12568 0.75557
 N1466 N 0.09949 0.12944 0.74407
 N1467 N 0.08241 0.11125 0.74324
 C1468 C 0.08701 0.08872 0.75411
 N1469 N 0.10940 0.08509 0.76565
 N1470 N 0.12654 0.10316 0.76629
 C1471 C 0.14092 0.14552 0.75643
 N1472 N 0.16484 0.14012 0.76324
 N1473 N 0.18219 0.15801 0.76408
 C1474 C 0.17620 0.18203 0.75837
 N1475 N 0.15224 0.18745 0.75167
 N1476 N 0.13494 0.16951 0.75061
 C1477 C 0.61717 0.62301 0.25467
 N1478 N 0.59454 0.62688 0.24365
 N1479 N 0.57744 0.60870 0.24299
 C1480 C 0.58224 0.58606 0.25354
 N1481 N 0.60486 0.58233 0.26463
 N1482 N 0.62200 0.60040 0.26511
 C1483 C 0.63626 0.64281 0.25517
 N1484 N 0.66022 0.63742 0.26185
 N1485 N 0.67766 0.65525 0.26217
 C1486 C 0.67173 0.67917 0.25605
 N1487 N 0.64773 0.68458 0.24949
 N1488 N 0.63033 0.66671 0.24897
 C1489 C 0.11908 0.88359 0.24848
 N1490 N 0.12041 0.90400 0.23339
 N1491 N 0.10288 0.92177 0.23451
 C1492 C 0.08357 0.92001 0.25103
 N1493 N 0.08256 0.89961 0.26621
 N1494 N 0.09983 0.88173 0.26487
 C1495 C 0.13804 0.86373 0.24735
 N1496 N 0.13274 0.84057 0.25633
 N1497 N 0.14998 0.82255 0.25599
 C1498 C 0.17327 0.82715 0.24695
 N1499 N 0.17861 0.85033 0.23798
 N1500 N 0.16125 0.86827 0.23803
 C1501 C 0.61911 0.38120 0.74420
 N1502 N 0.62348 0.40383 0.73347
 N1503 N 0.60659 0.42216 0.73512
 C1504 C 0.58484 0.41861 0.74782
 N1505 N 0.58054 0.39593 0.75848
 N1506 N 0.59728 0.37757 0.75664
 C1507 C 0.63798 0.36121 0.74316
 N1508 N 0.63203 0.33741 0.74983
 N1509 N 0.64939 0.31947 0.74977
 C1510 C 0.67339 0.32476 0.74327
 N1511 N 0.67930 0.34855 0.73656
 N1512 N 0.66191 0.36642 0.73639
 C1513 C 0.87556 0.11085 0.25286
 N1514 N 0.87339 0.08829 0.24138
 N1515 N 0.89232 0.07200 0.24182
 C1516 C 0.91401 0.07757 0.25395
 N1517 N 0.91601 0.10006 0.26556
 N1518 N 0.89722 0.11642 0.26493
 C1519 C 0.85523 0.12932 0.25189
 N1520 N 0.85986 0.15349 0.25807
 N1521 N 0.84169 0.17051 0.25710
 C1522 C 0.81813 0.16399 0.25014
 N1523 N 0.81341 0.13977 0.24406
 N1524 N 0.83169 0.12275 0.24479
 C1525 C 0.38144 0.61572 0.75589
 N1526 N 0.37868 0.59278 0.74534
 N1527 N 0.39759 0.57646 0.74541
 C1528 C 0.41987 0.58238 0.75622
 N1529 N 0.42248 0.60528 0.76690
 N1530 N 0.40369 0.62166 0.76664
 C1531 C 0.36098 0.63411 0.75541
 N1532 N 0.36564 0.65842 0.76101
 N1533 N 0.34731 0.67531 0.76044
 C1534 C 0.32356 0.66850 0.75447
 N1535 N 0.31882 0.64414 0.74898
 N1536 N 0.33723 0.62726 0.74932
 C1537 C 0.89244 0.88282 0.74194
 N1538 N 0.88695 0.90501 0.75292
 N1539 N 0.90405 0.92306 0.75418
 C1540 C 0.92727 0.91974 0.74436
 N1541 N 0.93274 0.89755 0.73321
 N1542 N 0.91566 0.87937 0.73214
 C1543 C 0.87340 0.86305 0.74086
 N1544 N 0.87970 0.83912 0.73511
 N1545 N 0.86230 0.82123 0.73473
 C1546 C 0.83798 0.82669 0.73987
 N1547 N 0.83170 0.85064 0.74546
 N1548 N 0.84910 0.86846 0.74605
 C1549 C 0.38700 0.38151 0.24365
 N1550 N 0.38751 0.39932 0.22554
 N1551 N 0.40560 0.41649 0.22520
 C1552 C 0.42366 0.41662 0.24311
 N1553 N 0.42310 0.39883 0.26124
 N1554 N 0.40523 0.38144 0.26137
 C1555 C 0.36696 0.36277 0.24427
 N1556 N 0.37072 0.34040 0.25567
 N1557 N 0.35260 0.32329 0.25618
 C1558 C 0.32992 0.32810 0.24572
 N1559 N 0.32605 0.35058 0.23453
 N1560 N 0.34431 0.36756 0.23369
   
