data_POSCAR
  _audit_creation_date              2014-09-24
  _audit_creation_method            'ToBaCCo'
  _symmetry_space_group_name_H-M    'P1'
  _symmetry_Int_Tables_number       1
  _symmetry_cell_setting            triclinic
  loop_
  _symmetry_equiv_pos_as_xyz
 x,y,z
_cell_length_a 86.5460
_cell_length_b 86.6045
_cell_length_c 86.9499
_cell_angle_alpha 89.973100
_cell_angle_beta 89.977900
_cell_angle_gamma 89.937700
loop_
  _atom_site_label
  _atom_site_type_symbol
  _atom_site_fract_x
  _atom_site_fract_y
  _atom_site_fract_z
N1 N 0.35770 0.31499 0.32621
 N2 N 0.35726 0.32542 0.31525
 C3 C 0.36914 0.32299 0.30553
 C4 C 0.37755 0.31035 0.31069
 C5 C 0.36984 0.30557 0.32386
 H6 H 0.37159 0.33008 0.29562
 H7 H 0.37293 0.29615 0.33140
 Cu8 Cu 0.34160 0.34160 0.31529
 Cu9 Cu 0.34323 0.31523 0.34336
 Cu10 Cu 0.31314 0.34160 0.34171
 N11 N 0.32553 0.35733 0.31526
 N12 N 0.31430 0.35706 0.32543
 C13 C 0.30496 0.36925 0.32308
 C14 C 0.31063 0.37775 0.31078
 C15 C 0.32371 0.36975 0.30611
 H16 H 0.29491 0.37180 0.33000
 H17 H 0.33149 0.37282 0.29689
 N18 N 0.31441 0.32513 0.35737
 N19 N 0.32595 0.31519 0.35811
 C20 C 0.32393 0.30603 0.37047
 C21 C 0.31051 0.31045 0.37800
 C22 C 0.30478 0.32258 0.36926
 H23 H 0.33185 0.29701 0.37385
 H24 H 0.29450 0.32928 0.37151
 H25 H 0.32543 0.32455 0.33054
 H26 H 0.33644 0.33845 0.34274
 N27 N 0.35772 0.81481 -0.17455
 N28 N 0.35775 0.82575 -0.18500
 C29 C 0.37010 0.82380 -0.19427
 C30 C 0.37832 0.81088 -0.18936
 C31 C 0.36996 0.80551 -0.17679
 H32 H 0.37286 0.83131 -0.20380
 H33 H 0.37258 0.79570 -0.16958
 Cu34 Cu 0.34180 0.84164 -0.18503
 Cu35 Cu 0.34223 0.81374 -0.15830
 Cu36 Cu 0.31380 0.84202 -0.15835
 N37 N 0.32583 0.85752 -0.18507
 N38 N 0.31486 0.85747 -0.17464
 C39 C 0.30553 0.86967 -0.17692
 C40 C 0.31091 0.87803 -0.18948
 C41 C 0.32387 0.86984 -0.19436
 H42 H 0.29570 0.87229 -0.16972
 H43 H 0.33140 0.87262 -0.20386
 N44 N 0.31478 0.82543 -0.14284
 N45 N 0.32559 0.81468 -0.14282
 C46 C 0.32351 0.80547 -0.13051
 C47 C 0.31080 0.81067 -0.12228
 C48 C 0.30556 0.82334 -0.13054
 H49 H 0.33088 0.79582 -0.12767
 H50 H 0.29588 0.83069 -0.12771
 H51 H 0.32485 0.82469 -0.17042
 H52 H 0.33714 0.83706 -0.15780
 N53 N 0.85727 0.31516 -0.17415
 N54 N 0.85729 0.32604 -0.18467
 C55 C 0.86971 0.32414 -0.19382
 C56 C 0.87792 0.31129 -0.18884
 C57 C 0.86958 0.30592 -0.17631
 H58 H 0.87256 0.33159 -0.20336
 H59 H 0.87226 0.29606 -0.16919
 Cu60 Cu 0.84109 0.34166 -0.18554
 Cu61 Cu 0.84168 0.31406 -0.15809
 Cu62 Cu 0.81351 0.34235 -0.15806
 N63 N 0.82555 0.35793 -0.18463
 N64 N 0.81468 0.35796 -0.17410
 C65 C 0.80547 0.37029 -0.17626
 C66 C 0.81084 0.37863 -0.18882
 C67 C 0.82368 0.37034 -0.19379
 H68 H 0.79565 0.37294 -0.16907
 H69 H 0.83119 0.37307 -0.20332
 N70 N 0.81425 0.32565 -0.14270
 N71 N 0.82500 0.31486 -0.14272
 C72 C 0.82291 0.30563 -0.13043
 C73 C 0.81023 0.31086 -0.12216
 C74 C 0.80503 0.32357 -0.13040
 H75 H 0.83029 0.29599 -0.12759
 H76 H 0.79541 0.33098 -0.12751
 H77 H 0.82427 0.32494 -0.17032
 H78 H 0.83691 0.33750 -0.15815
 N79 N 0.85702 0.81474 0.32558
 N80 N 0.85690 0.82554 0.31496
 C81 C 0.86923 0.82361 0.30571
 C82 C 0.87758 0.81089 0.31077
 C83 C 0.86937 0.80555 0.32340
 H84 H 0.87202 0.83107 0.29615
 H85 H 0.87219 0.79581 0.33064
 Cu86 Cu 0.84107 0.84154 0.31479
 Cu87 Cu 0.84165 0.81381 0.34191
 Cu88 Cu 0.81333 0.84211 0.34191
 N89 N 0.82507 0.85735 0.31495
 N90 N 0.81427 0.85748 0.32558
 C91 C 0.80509 0.86982 0.32343
 C92 C 0.81040 0.87807 0.31076
 C93 C 0.82313 0.86966 0.30569
 H94 H 0.79537 0.87258 0.33072
 H95 H 0.83062 0.87235 0.29613
 N96 N 0.81436 0.82560 0.35748
 N97 N 0.82514 0.81483 0.35748
 C98 C 0.82308 0.80564 0.36980
 C99 C 0.81039 0.81085 0.37806
 C100 C 0.80516 0.82353 0.36981
 H101 H 0.83045 0.79598 0.37263
 H102 H 0.79548 0.83089 0.37264
 H103 H 0.82427 0.82476 0.32985
 H104 H 0.83674 0.83722 0.34218
 N105 N 0.64270 0.68545 0.32590
 N106 N 0.64283 0.67466 0.31530
 C107 C 0.63043 0.67649 0.30613
 C108 C 0.62207 0.68921 0.31118
 C109 C 0.63029 0.69458 0.32378
 H110 H 0.62769 0.66901 0.29657
 H111 H 0.62752 0.70438 0.33094
 Cu112 Cu 0.65917 0.65924 0.31420
 Cu113 Cu 0.65822 0.68648 0.34201
 Cu114 Cu 0.68648 0.65830 0.34199
 N115 N 0.67462 0.64293 0.31528
 N116 N 0.68544 0.64281 0.32586
 C117 C 0.69457 0.63041 0.32373
 C118 C 0.68918 0.62219 0.31115
 C119 C 0.67645 0.63053 0.30611
 H120 H 0.70440 0.62764 0.33088
 H121 H 0.66895 0.62779 0.29657
 N122 N 0.68561 0.67489 0.35743
 N123 N 0.67482 0.68564 0.35743
 C124 C 0.67681 0.69477 0.36980
 C125 C 0.68946 0.68951 0.37809
 C126 C 0.69476 0.67689 0.36979
 H127 H 0.66938 0.70437 0.37268
 H128 H 0.70438 0.66949 0.37266
 H129 H 0.67579 0.67583 0.32977
 H130 H 0.66303 0.66304 0.34162
 N131 N 0.64281 0.18509 -0.17438
 N132 N 0.64280 0.17414 -0.18480
 C133 C 0.63048 0.17608 -0.19409
 C134 C 0.62227 0.18895 -0.18918
 C135 C 0.63055 0.19438 -0.17663
 H136 H 0.62766 0.16858 -0.20358
 H137 H 0.62784 0.20423 -0.16952
 Cu138 Cu 0.65886 0.15837 -0.18484
 Cu139 Cu 0.65828 0.18619 -0.15809
 Cu140 Cu 0.68667 0.15782 -0.15805
 N141 N 0.67470 0.14238 -0.18483
 N142 N 0.68560 0.14234 -0.17435
 C143 C 0.69489 0.13008 -0.17658
 C144 C 0.68953 0.12181 -0.18922
 C145 C 0.67667 0.13011 -0.19417
 H146 H 0.70469 0.12741 -0.16938
 H147 H 0.66918 0.12743 -0.20370
 N148 N 0.68566 0.17444 -0.14258
 N149 N 0.67489 0.18522 -0.14261
 C150 C 0.67695 0.19445 -0.13033
 C151 C 0.68962 0.18924 -0.12206
 C152 C 0.69486 0.17654 -0.13026
 H153 H 0.66959 0.20411 -0.12752
 H154 H 0.70450 0.16917 -0.12738
 H155 H 0.67569 0.17521 -0.17007
 H156 H 0.66326 0.16281 -0.15754
 N157 N 0.14289 0.68562 -0.17442
 N158 N 0.14301 0.67481 -0.18500
 C159 C 0.13073 0.67677 -0.19431
 C160 C 0.12239 0.68951 -0.18929
 C161 C 0.13056 0.69483 -0.17664
 H162 H 0.12797 0.66931 -0.20386
 H163 H 0.12771 0.70455 -0.16939
 Cu164 Cu 0.15883 0.65883 -0.18510
 Cu165 Cu 0.15821 0.68651 -0.15803
 Cu166 Cu 0.18653 0.65811 -0.15803
 N167 N 0.17477 0.64296 -0.18499
 N168 N 0.18559 0.64280 -0.17441
 C169 C 0.19476 0.63045 -0.17662
 C170 C 0.18941 0.62231 -0.18928
 C171 C 0.17669 0.63069 -0.19430
 H172 H 0.20449 0.62758 -0.16938
 H173 H 0.16922 0.62795 -0.20386
 N174 N 0.18546 0.67458 -0.14242
 N175 N 0.17469 0.68537 -0.14242
 C176 C 0.17673 0.69452 -0.13007
 C177 C 0.18939 0.68925 -0.12180
 C178 C 0.19462 0.67658 -0.13007
 H179 H 0.16938 0.70418 -0.12723
 H180 H 0.20427 0.66921 -0.12723
 H181 H 0.17563 0.67556 -0.17002
 H182 H 0.16313 0.66311 -0.15768
 N183 N 0.14272 0.18545 0.32579
 N184 N 0.14298 0.17481 0.31505
 C185 C 0.13063 0.17672 0.30582
 C186 C 0.12214 0.18928 0.31103
 C187 C 0.13026 0.19452 0.32375
 H188 H 0.12800 0.16941 0.29612
 H189 H 0.12732 0.20412 0.33111
 Cu190 Cu 0.15916 0.15919 0.31427
 Cu191 Cu 0.15814 0.18639 0.34202
 Cu192 Cu 0.18644 0.15815 0.34197
 N193 N 0.17481 0.14304 0.31499
 N194 N 0.18548 0.14278 0.32571
 C195 C 0.19456 0.13033 0.32363
 C196 C 0.18928 0.12221 0.31092
 C197 C 0.17670 0.13071 0.30574
 H198 H 0.20418 0.12738 0.33097
 H199 H 0.16935 0.12808 0.29606
 N200 N 0.18547 0.17466 0.35750
 N201 N 0.17468 0.18541 0.35752
 C202 C 0.17674 0.19459 0.36984
 C203 C 0.18943 0.18937 0.37808
 C204 C 0.19468 0.17671 0.36981
 H205 H 0.16935 0.20424 0.37269
 H206 H 0.20435 0.16935 0.37263
 H207 H 0.17573 0.17573 0.32991
 H208 H 0.16301 0.16298 0.34178
 N209 N 0.64266 0.31465 0.67437
 N210 N 0.64263 0.32560 0.68480
 C211 C 0.63029 0.32370 0.69407
 C212 C 0.62212 0.31081 0.68919
 C213 C 0.63041 0.30539 0.67665
 H214 H 0.62742 0.33123 0.70355
 H215 H 0.62770 0.29555 0.66952
 Cu216 Cu 0.65855 0.34146 0.68481
 Cu217 Cu 0.65813 0.31355 0.65809
 Cu218 Cu 0.68652 0.34183 0.65809
 N219 N 0.67448 0.35730 0.68483
 N220 N 0.68545 0.35727 0.67439
 C221 C 0.69475 0.36949 0.67669
 C222 C 0.68931 0.37777 0.68924
 C223 C 0.67639 0.36962 0.69411
 H224 H 0.70460 0.37220 0.66956
 H225 H 0.66885 0.37249 0.70358
 N226 N 0.68552 0.32525 0.64257
 N227 N 0.67474 0.31450 0.64258
 C228 C 0.67680 0.30530 0.63027
 C229 C 0.68948 0.31049 0.62201
 C230 C 0.69472 0.32316 0.63025
 H231 H 0.66943 0.29566 0.62744
 H232 H 0.70438 0.33049 0.62740
 H233 H 0.67543 0.32458 0.67002
 H234 H 0.66309 0.33696 0.65746
 N235 N 0.64266 0.81471 1.17434
 N236 N 0.64289 0.82537 1.18507
 C237 C 0.63053 0.82350 1.19429
 C238 C 0.62204 0.81095 1.18909
 C239 C 0.63019 0.80567 1.17640
 H240 H 0.62787 0.83084 1.20397
 H241 H 0.62728 0.79605 1.16905
 Cu242 Cu 0.65909 0.84095 1.18582
 Cu243 Cu 0.65810 0.81369 1.15813
 Cu244 Cu 0.68639 0.84189 1.15813
 N245 N 0.67473 0.85709 1.18506
 N246 N 0.68541 0.85731 1.17434
 C247 C 0.69449 0.86973 1.17641
 C248 C 0.68923 0.87787 1.18911
 C249 C 0.67663 0.86942 1.19430
 H250 H 0.70414 0.87263 1.16907
 H251 H 0.66928 0.87208 1.20399
 N252 N 0.68545 0.82533 1.14264
 N253 N 0.67467 0.81459 1.14264
 C254 C 0.67674 0.80538 1.13034
 C255 C 0.68944 0.81057 1.12209
 C256 C 0.69467 0.82324 1.13034
 H257 H 0.66937 0.79575 1.12751
 H258 H 0.70434 0.83058 1.12751
 H259 H 0.67568 0.82435 1.17019
 H260 H 0.66296 0.83709 1.15830
 N261 N 0.14271 0.31471 1.17440
 N262 N 0.14278 0.32555 1.18496
 C263 C 0.13048 0.32361 1.19424
 C264 C 0.12217 0.31087 1.18923
 C265 C 0.13038 0.30552 1.17660
 H266 H 0.12770 0.33108 1.20379
 H267 H 0.12754 0.29581 1.16934
 Cu268 Cu 0.15858 0.34153 1.18510
 Cu269 Cu 0.15809 0.31373 1.15809
 Cu270 Cu 0.18638 0.34199 1.15803
 N271 N 0.17456 0.35732 1.18489
 N272 N 0.18540 0.35738 1.17431
 C273 C 0.19460 0.36969 1.17648
 C274 C 0.18927 0.37791 1.18911
 C275 C 0.17651 0.36961 1.19415
 H276 H 0.20431 0.37252 1.16920
 H277 H 0.16905 0.37239 1.20372
 N278 N 0.18538 0.32546 1.14250
 N279 N 0.17461 0.31470 1.14252
 C280 C 0.17668 0.30549 1.13022
 C281 C 0.18936 0.31069 1.12196
 C282 C 0.19458 0.32337 1.13018
 H283 H 0.16932 0.29584 1.12741
 H284 H 0.20424 0.33072 1.12734
 H285 H 0.17544 0.32473 1.17019
 H286 H 0.16297 0.33717 1.15774
 N287 N 0.14264 0.81469 0.67430
 N288 N 0.14258 0.82568 0.68471
 C289 C 0.13025 0.82375 0.69398
 C290 C 0.12210 0.81084 0.68913
 C291 C 0.13044 0.80538 0.67663
 H292 H 0.12734 0.83133 0.70341
 H293 H 0.12781 0.79545 0.66959
 Cu294 Cu 0.15831 0.84171 0.68459
 Cu295 Cu 0.15802 0.81368 0.65796
 Cu296 Cu 0.18623 0.84213 0.65778
 N297 N 0.17419 0.85762 0.68449
 N298 N 0.18511 0.85762 0.67400
 C299 C 0.19436 0.86987 0.67624
 C300 C 0.18898 0.87813 0.68881
 C301 C 0.17612 0.86994 0.69375
 H302 H 0.20423 0.87255 0.66911
 H303 H 0.16860 0.87279 0.70324
 N304 N 0.18529 0.82550 0.64233
 N305 N 0.17459 0.81467 0.64241
 C306 C 0.17670 0.80543 0.63014
 C307 C 0.18931 0.81071 0.62182
 C308 C 0.19446 0.82345 0.62999
 H309 H 0.16939 0.79573 0.62736
 H310 H 0.20403 0.83088 0.62706
 H311 H 0.17532 0.82478 0.66988
 H312 H 0.16294 0.83708 0.65731
 N313 N 0.35725 0.68544 0.67449
 N314 N 0.35714 0.67461 0.68506
 C315 C 0.36943 0.67654 0.69437
 C316 C 0.37776 0.68928 0.68935
 C317 C 0.36957 0.69463 0.67670
 H318 H 0.37219 0.66909 0.70394
 H319 H 0.37241 0.70434 0.66944
 Cu320 Cu 0.34120 0.65878 0.68505
 Cu321 Cu 0.34190 0.68646 0.65811
 Cu322 Cu 0.31356 0.65810 0.65806
 N323 N 0.32538 0.64282 0.68501
 N324 N 0.31456 0.64271 0.67442
 C325 C 0.30539 0.63038 0.67661
 C326 C 0.31073 0.62219 0.68926
 C327 C 0.32345 0.63052 0.69430
 H328 H 0.29569 0.62754 0.66934
 H329 H 0.33090 0.62776 0.70388
 N330 N 0.31462 0.67465 0.64250
 N331 N 0.32538 0.68542 0.64252
 C332 C 0.32332 0.69463 0.63020
 C333 C 0.31066 0.68942 0.62194
 C334 C 0.30543 0.67673 0.63017
 H335 H 0.33067 0.70429 0.62739
 H336 H 0.29577 0.66940 0.62733
 H337 H 0.32440 0.67558 0.67000
 H338 H 0.33691 0.66312 0.65769
 N339 N 0.35753 0.18526 1.17424
 N340 N 0.35729 0.17458 1.18496
 C341 C 0.36963 0.17647 1.19420
 C342 C 0.37810 0.18904 1.18902
 C343 C 0.36997 0.19432 1.17631
 H344 H 0.37227 0.16912 1.20389
 H345 H 0.37289 0.20395 1.16898
 Cu346 Cu 0.34112 0.15900 1.18574
 Cu347 Cu 0.34209 0.18630 1.15804
 Cu348 Cu 0.31383 0.15810 1.15805
 N349 N 0.32551 0.14285 1.18496
 N350 N 0.31484 0.14265 1.17424
 C351 C 0.30576 0.13021 1.17628
 C352 C 0.31103 0.12205 1.18897
 C353 C 0.32361 0.13049 1.19418
 H354 H 0.29613 0.12733 1.16894
 H355 H 0.33094 0.12782 1.20387
 N356 N 0.31475 0.17467 1.14258
 N357 N 0.32552 0.18542 1.14257
 C358 C 0.32344 0.19464 1.13026
 C359 C 0.31074 0.18944 1.12203
 C360 C 0.30553 0.17676 1.13029
 H361 H 0.33080 0.20428 1.12742
 H362 H 0.29587 0.16941 1.12747
 H363 H 0.32454 0.17563 1.17015
 H364 H 0.33727 0.16290 1.15825
 N365 N 0.85733 0.68536 1.17441
 N366 N 0.85736 0.67440 1.18485
 C367 C 0.86968 0.67632 1.19412
 C368 C 0.87786 0.68920 1.18923
 C369 C 0.86957 0.69464 1.17669
 H370 H 0.87254 0.66879 1.20361
 H371 H 0.87224 0.70451 1.16958
 Cu372 Cu 0.84142 0.65858 1.18486
 Cu373 Cu 0.84188 0.68645 1.15813
 Cu374 Cu 0.81356 0.65809 1.15812
 N375 N 0.82562 0.64260 1.18483
 N376 N 0.81466 0.64263 1.17439
 C377 C 0.80539 0.63039 1.17666
 C378 C 0.81083 0.62210 1.18920
 C379 C 0.82372 0.63027 1.19409
 H380 H 0.79553 0.62771 1.16955
 H381 H 0.83124 0.62743 1.20359
 N382 N 0.81453 0.67469 1.14263
 N383 N 0.82529 0.68546 1.14262
 C384 C 0.82322 0.69466 1.13031
 C385 C 0.81056 0.68943 1.12206
 C386 C 0.80533 0.67677 1.13031
 H387 H 0.83059 0.70430 1.12746
 H388 H 0.79569 0.66940 1.12747
 H389 H 0.82452 0.67542 1.17008
 H390 H 0.83694 0.66306 1.15756
 N391 N 0.85725 0.18537 0.67433
 N392 N 0.85714 0.17456 0.68492
 C393 C 0.86945 0.17650 0.69420
 C394 C 0.87777 0.18923 0.68917
 C395 C 0.86956 0.19457 0.67653
 H396 H 0.87222 0.16904 0.70377
 H397 H 0.87236 0.20433 0.66932
 Cu398 Cu 0.84137 0.15856 0.68507
 Cu399 Cu 0.84189 0.18631 0.65798
 Cu400 Cu 0.81365 0.15799 0.65795
 N401 N 0.82542 0.14273 0.68488
 N402 N 0.81462 0.14262 0.67427
 C403 C 0.80543 0.13030 0.67646
 C404 C 0.81076 0.12210 0.68910
 C405 C 0.82348 0.13042 0.69415
 H406 H 0.79568 0.12750 0.66924
 H407 H 0.83091 0.12766 0.70374
 N408 N 0.81466 0.17450 0.64239
 N409 N 0.82541 0.18528 0.64239
 C410 C 0.82334 0.19447 0.63007
 C411 C 0.81066 0.18923 0.62182
 C412 C 0.80546 0.17655 0.63007
 H413 H 0.83068 0.20413 0.62723
 H414 H 0.79582 0.16919 0.62724
 H415 H 0.82453 0.17534 0.66999
 H416 H 0.83704 0.16291 0.65765
 N417 N 0.31441 0.35713 0.67444
 N418 N 0.32522 0.35701 0.68504
 C419 C 0.32332 0.36935 0.69426
 C420 C 0.31058 0.37768 0.68923
 C421 C 0.30523 0.36948 0.67662
 H422 H 0.33083 0.37218 0.70377
 H423 H 0.29551 0.37233 0.66939
 Cu424 Cu 0.34127 0.34127 0.68536
 Cu425 Cu 0.31352 0.34179 0.65812
 Cu426 Cu 0.34177 0.31353 0.65813
 N427 N 0.35700 0.32521 0.68506
 N428 N 0.35711 0.31441 0.67446
 C429 C 0.36945 0.30521 0.67664
 C430 C 0.37767 0.31055 0.68925
 C431 C 0.36935 0.32329 0.69428
 H432 H 0.37228 0.29549 0.66942
 H433 H 0.37219 0.33079 0.70379
 N434 N 0.32529 0.31455 0.64255
 N435 N 0.31452 0.32533 0.64254
 C436 C 0.30534 0.32329 0.63021
 C437 C 0.31059 0.31063 0.62194
 C438 C 0.32325 0.30537 0.63023
 H439 H 0.29568 0.33066 0.62739
 H440 H 0.33061 0.29570 0.62742
 H441 H 0.32453 0.32452 0.67031
 H442 H 0.33705 0.33703 0.65797
 N443 N 0.31458 0.85748 0.17417
 N444 N 0.32545 0.85738 0.18470
 C445 C 0.32356 0.86968 0.19398
 C446 C 0.31078 0.87799 0.18902
 C447 C 0.30537 0.86979 0.17641
 H448 H 0.33108 0.87246 0.20349
 H449 H 0.29552 0.87255 0.16929
 Cu450 Cu 0.34121 0.84135 0.18476
 Cu451 Cu 0.31357 0.84210 0.15780
 Cu452 Cu 0.34194 0.81367 0.15788
 N453 N 0.35721 0.82557 0.18478
 N454 N 0.35730 0.81468 0.17427
 C455 C 0.36960 0.80546 0.17656
 C456 C 0.37780 0.81088 0.18916
 C457 C 0.36951 0.82368 0.19408
 H458 H 0.37236 0.79560 0.16946
 H459 H 0.37230 0.83122 0.20357
 N460 N 0.32542 0.81475 0.14228
 N461 N 0.31464 0.82553 0.14225
 C462 C 0.30548 0.82348 0.12990
 C463 C 0.31074 0.81082 0.12166
 C464 C 0.32339 0.80557 0.12995
 H465 H 0.29582 0.83084 0.12704
 H466 H 0.33074 0.79589 0.12714
 H467 H 0.32441 0.82459 0.16971
 H468 H 0.33691 0.83701 0.15739
 N469 N 0.81468 0.35759 0.17398
 N470 N 0.82537 0.35734 0.18469
 C471 C 0.82347 0.36968 0.19393
 C472 C 0.81089 0.37816 0.18875
 C473 C 0.80561 0.37004 0.17604
 H474 H 0.83082 0.37231 0.20361
 H475 H 0.79598 0.37298 0.16871
 Cu476 Cu 0.84099 0.34116 0.18546
 Cu477 Cu 0.81369 0.34214 0.15778
 Cu478 Cu 0.84195 0.31384 0.15783
 N479 N 0.85715 0.32552 0.18475
 N480 N 0.85738 0.31483 0.17404
 C481 C 0.86983 0.30575 0.17612
 C482 C 0.87797 0.31102 0.18882
 C483 C 0.86950 0.32361 0.19398
 H484 H 0.87276 0.29612 0.16879
 H485 H 0.87215 0.33096 0.20366
 N486 N 0.82538 0.31478 0.14233
 N487 N 0.81461 0.32556 0.14231
 C488 C 0.80538 0.32346 0.13003
 C489 C 0.81059 0.31075 0.12181
 C490 C 0.82329 0.30554 0.13006
 H491 H 0.79572 0.33081 0.12719
 H492 H 0.83064 0.29587 0.12725
 H493 H 0.82441 0.32460 0.16984
 H494 H 0.83713 0.33727 0.15792
 N495 N 0.81470 0.85770 0.67414
 N496 N 0.82537 0.85745 0.68486
 C497 C 0.82346 0.86978 0.69410
 C498 C 0.81087 0.87826 0.68892
 C499 C 0.80561 0.87014 0.67621
 H500 H 0.83079 0.87241 0.70380
 H501 H 0.79597 0.87306 0.66888
 Cu502 Cu 0.84100 0.84128 0.68563
 Cu503 Cu 0.81369 0.84226 0.65795
 Cu504 Cu 0.84194 0.81397 0.65798
 N505 N 0.85716 0.82565 0.68488
 N506 N 0.85739 0.81496 0.67418
 C507 C 0.86983 0.80587 0.67626
 C508 C 0.87796 0.81112 0.68896
 C509 C 0.86950 0.82372 0.69413
 H510 H 0.87274 0.79622 0.66894
 H511 H 0.87214 0.83106 0.70381
 N512 N 0.82536 0.81489 0.64251
 N513 N 0.81460 0.82568 0.64249
 C514 C 0.80537 0.82358 0.63021
 C515 C 0.81057 0.81086 0.62200
 C516 C 0.82326 0.80565 0.63024
 H517 H 0.79571 0.83095 0.62737
 H518 H 0.83062 0.79598 0.62743
 H519 H 0.82437 0.82471 0.67009
 H520 H 0.83711 0.83739 0.65816
 N521 N 0.68540 0.64261 0.67440
 N522 N 0.67473 0.64288 0.68513
 C523 C 0.67660 0.63053 0.69437
 C524 C 0.68916 0.62201 0.68916
 C525 C 0.69443 0.63013 0.67644
 H526 H 0.66924 0.62790 0.70405
 H527 H 0.70405 0.62717 0.66909
 Cu528 Cu 0.65917 0.65911 0.68596
 Cu529 Cu 0.68641 0.65806 0.65819
 Cu530 Cu 0.65822 0.68643 0.65831
 N531 N 0.64302 0.67478 0.68524
 N532 N 0.64282 0.68551 0.67457
 C533 C 0.63041 0.69462 0.67668
 C534 C 0.62224 0.68932 0.68936
 C535 C 0.63067 0.67669 0.69449
 H536 H 0.62753 0.70431 0.66939
 H537 H 0.62798 0.66929 0.70412
 N538 N 0.67474 0.68546 0.64277
 N539 N 0.68546 0.67463 0.64269
 C540 C 0.69462 0.67667 0.63034
 C541 C 0.68944 0.68943 0.62216
 C542 C 0.67683 0.69470 0.63049
 H543 H 0.70422 0.66925 0.62742
 H544 H 0.66952 0.70442 0.62773
 H545 H 0.67571 0.67559 0.67024
 H546 H 0.66295 0.66291 0.65839
 N547 N 0.68541 0.14224 0.17411
 N548 N 0.67456 0.14232 0.18467
 C549 C 0.67648 0.12998 0.19392
 C550 C 0.68925 0.12167 0.18889
 C551 C 0.69460 0.12990 0.17628
 H552 H 0.66902 0.12720 0.20349
 H553 H 0.70434 0.12709 0.16903
 Cu554 Cu 0.65860 0.15819 0.18479
 Cu555 Cu 0.68647 0.15770 0.15787
 Cu556 Cu 0.65814 0.18608 0.15792
 N557 N 0.64275 0.17417 0.18472
 N558 N 0.64269 0.18504 0.17417
 C559 C 0.63036 0.19424 0.17637
 C560 C 0.62211 0.18887 0.18897
 C561 C 0.63041 0.17610 0.19398
 H562 H 0.62756 0.20399 0.16914
 H563 H 0.62762 0.16862 0.20353
 N564 N 0.67475 0.18513 0.14242
 N565 N 0.68552 0.17434 0.14240
 C566 C 0.69478 0.17648 0.13013
 C567 C 0.68959 0.18922 0.12194
 C568 C 0.67688 0.19441 0.13018
 H569 H 0.70444 0.16914 0.12727
 H570 H 0.66955 0.20410 0.12737
 H571 H 0.67550 0.17506 0.16986
 H572 H 0.66310 0.16271 0.15740
 N573 N 0.18527 0.64263 0.17400
 N574 N 0.17454 0.64285 0.18467
 C575 C 0.17638 0.63048 0.19388
 C576 C 0.18900 0.62202 0.18875
 C577 C 0.19434 0.63018 0.17609
 H578 H 0.16895 0.62781 0.20350
 H579 H 0.20408 0.62733 0.16886
 Cu580 Cu 0.15901 0.65911 0.18558
 Cu581 Cu 0.18629 0.65810 0.15782
 Cu582 Cu 0.15805 0.68639 0.15784
 N583 N 0.14278 0.67466 0.18469
 N584 N 0.14258 0.68539 0.17403
 C585 C 0.13014 0.69448 0.17614
 C586 C 0.12197 0.68915 0.18880
 C587 C 0.13041 0.67651 0.19391
 H588 H 0.12730 0.70424 0.16892
 H589 H 0.12772 0.66908 0.20352
 N590 N 0.17463 0.68547 0.14236
 N591 N 0.18539 0.67468 0.14234
 C592 C 0.19462 0.67677 0.13005
 C593 C 0.18942 0.68947 0.12182
 C594 C 0.17674 0.69471 0.13007
 H595 H 0.20428 0.66940 0.12722
 H596 H 0.16939 0.70439 0.12726
 H597 H 0.17553 0.67559 0.16983
 H598 H 0.16276 0.66286 0.15800
 N599 N 0.18542 0.14234 0.67444
 N600 N 0.17455 0.14243 0.68498
 C601 C 0.17647 0.13014 0.69428
 C602 C 0.18926 0.12183 0.68931
 C603 C 0.19464 0.13003 0.67668
 H604 H 0.16896 0.12734 0.70377
 H605 H 0.20443 0.12720 0.66950
 Cu606 Cu 0.15864 0.15832 0.68503
 Cu607 Cu 0.18639 0.15770 0.65807
 Cu608 Cu 0.15804 0.18610 0.65813
 N609 N 0.14276 0.17424 0.68503
 N610 N 0.14268 0.18512 0.67452
 C611 C 0.13037 0.19434 0.67676
 C612 C 0.12216 0.18895 0.68937
 C613 C 0.13045 0.17616 0.69432
 H614 H 0.12754 0.20413 0.66957
 H615 H 0.12764 0.16863 0.70380
 N616 N 0.17456 0.18504 0.64253
 N617 N 0.18533 0.17425 0.64250
 C618 C 0.19451 0.17632 0.63016
 C619 C 0.18926 0.18899 0.62192
 C620 C 0.17661 0.19423 0.63021
 H621 H 0.20418 0.16897 0.62731
 H622 H 0.16926 0.20391 0.62740
 H623 H 0.17548 0.17512 0.67003
 H624 H 0.16298 0.16270 0.65765
 N625 N 0.31473 0.64243 0.32579
 N626 N 0.32563 0.64242 0.31528
 C627 C 0.32376 0.63003 0.30611
 C628 C 0.31095 0.62179 0.31111
 C629 C 0.30555 0.63009 0.32364
 H630 H 0.33124 0.62720 0.29658
 H631 H 0.29572 0.62739 0.33079
 Cu632 Cu 0.34126 0.65858 0.31450
 Cu633 Cu 0.31359 0.65798 0.34187
 Cu634 Cu 0.34182 0.68621 0.34185
 N635 N 0.35742 0.67420 0.31527
 N636 N 0.35739 0.68509 0.32577
 C637 C 0.36973 0.69427 0.32363
 C638 C 0.37807 0.68888 0.31111
 C639 C 0.36984 0.67607 0.30611
 H640 H 0.37241 0.70410 0.33076
 H641 H 0.37269 0.66860 0.29659
 N642 N 0.32514 0.68541 0.35723
 N643 N 0.31438 0.67465 0.35725
 C644 C 0.30515 0.67676 0.36955
 C645 C 0.31035 0.68945 0.37777
 C646 C 0.32303 0.69465 0.36951
 H647 H 0.29552 0.66938 0.37242
 H648 H 0.33040 0.70429 0.37233
 H649 H 0.32441 0.67538 0.32965
 H650 H 0.33700 0.66280 0.34187
 N651 N 0.31456 0.14242 0.82570
 N652 N 0.32551 0.14241 0.81526
 C653 C 0.32364 0.13006 0.80603
 C654 C 0.31076 0.12188 0.81092
 C655 C 0.30529 0.13016 0.82346
 H656 H 0.33119 0.12721 0.79656
 H657 H 0.29544 0.12745 0.83057
 Cu658 Cu 0.34145 0.15826 0.81516
 Cu659 Cu 0.31349 0.15785 0.84198
 Cu660 Cu 0.34183 0.18618 0.84198
 N661 N 0.35730 0.17421 0.81525
 N662 N 0.35728 0.18514 0.82570
 C663 C 0.36953 0.19442 0.82344
 C664 C 0.37783 0.18899 0.81089
 C665 C 0.36965 0.17611 0.80600
 H666 H 0.37222 0.20427 0.83055
 H667 H 0.37252 0.16858 0.79654
 N668 N 0.32522 0.18519 0.85747
 N669 N 0.31445 0.17443 0.85747
 C670 C 0.30525 0.17649 0.86979
 C671 C 0.31048 0.18915 0.87805
 C672 C 0.32315 0.19438 0.86978
 H673 H 0.29561 0.16913 0.87264
 H674 H 0.33051 0.20402 0.87262
 H675 H 0.32451 0.17519 0.82995
 H676 H 0.33690 0.16280 0.84251
 N677 N 0.81475 0.64241 0.82576
 N678 N 0.82572 0.64239 0.81532
 C679 C 0.82382 0.63006 0.80607
 C680 C 0.81093 0.62188 0.81095
 C681 C 0.80548 0.63017 0.82349
 H682 H 0.83135 0.62721 0.79657
 H683 H 0.79561 0.62749 0.83060
 Cu684 Cu 0.84156 0.65833 0.81530
 Cu685 Cu 0.81363 0.65786 0.84204
 Cu686 Cu 0.84194 0.68624 0.84199
 N687 N 0.85746 0.67420 0.81528
 N688 N 0.85740 0.68518 0.82570
 C689 C 0.86963 0.69447 0.82342
 C690 C 0.87795 0.68904 0.81089
 C691 C 0.86980 0.67613 0.80603
 H692 H 0.87227 0.70435 0.83051
 H693 H 0.87269 0.66860 0.79654
 N694 N 0.82533 0.68526 0.85750
 N695 N 0.81458 0.67447 0.85753
 C696 C 0.80538 0.67655 0.86986
 C697 C 0.81060 0.68923 0.87808
 C698 C 0.82325 0.69446 0.86980
 H699 H 0.79574 0.66919 0.87272
 H700 H 0.83060 0.70412 0.87262
 H701 H 0.82459 0.67521 0.83007
 H702 H 0.83700 0.66286 0.84259
 N703 N 0.81464 0.14243 0.32562
 N704 N 0.82554 0.14251 0.31511
 C705 C 0.82368 0.13021 0.30584
 C706 C 0.81089 0.12191 0.31077
 C707 C 0.80545 0.13010 0.32337
 H708 H 0.83118 0.12748 0.29631
 H709 H 0.79563 0.12730 0.33052
 Cu710 Cu 0.84125 0.15856 0.31474
 Cu711 Cu 0.81359 0.15784 0.34190
 Cu712 Cu 0.84179 0.18630 0.34177
 N713 N 0.85716 0.17443 0.31497
 N714 N 0.85714 0.18538 0.32541
 C715 C 0.86937 0.19467 0.32309
 C716 C 0.87765 0.18923 0.31054
 C717 C 0.86947 0.17634 0.30569
 H718 H 0.87207 0.20456 0.33017
 H719 H 0.87228 0.16881 0.29622
 N720 N 0.82529 0.18522 0.35737
 N721 N 0.81459 0.17439 0.35746
 C722 C 0.80545 0.17642 0.36984
 C723 C 0.81062 0.18915 0.37802
 C724 C 0.82320 0.19445 0.36966
 H725 H 0.79585 0.16902 0.37275
 H726 H 0.83046 0.20419 0.37240
 H727 H 0.82437 0.17536 0.32989
 H728 H 0.83693 0.16291 0.34216
 N729 N 0.68540 0.35736 0.32560
 N730 N 0.67439 0.35743 0.31519
 C731 C 0.67628 0.36978 0.30597
 C732 C 0.68920 0.37793 0.31082
 C733 C 0.69467 0.36960 0.32332
 H734 H 0.66869 0.37269 0.29653
 H735 H 0.70453 0.37228 0.33043
 Cu736 Cu 0.65848 0.34157 0.31519
 Cu737 Cu 0.68649 0.34189 0.34185
 Cu738 Cu 0.65817 0.31353 0.34184
 N739 N 0.64264 0.32564 0.31516
 N740 N 0.64272 0.31463 0.32557
 C741 C 0.63050 0.30534 0.32327
 C742 C 0.62218 0.31080 0.31076
 C743 C 0.63031 0.32374 0.30592
 H744 H 0.62783 0.29547 0.33037
 H745 H 0.62739 0.33132 0.29648
 N746 N 0.67476 0.31451 0.35733
 N747 N 0.68553 0.32528 0.35734
 C748 C 0.69472 0.32320 0.36966
 C749 C 0.68950 0.31053 0.37790
 C750 C 0.67684 0.30531 0.36964
 H751 H 0.70437 0.33056 0.37250
 H752 H 0.66948 0.29565 0.37247
 H753 H 0.67539 0.32464 0.32992
 H754 H 0.66303 0.33696 0.34253
 N755 N 0.68526 0.85746 0.82576
 N756 N 0.67457 0.85727 0.81506
 C757 C 0.67649 0.86961 0.80582
 C758 C 0.68909 0.87804 0.81100
 C759 C 0.69435 0.86988 0.82369
 H760 H 0.66913 0.87230 0.79615
 H761 H 0.70398 0.87278 0.83103
 Cu762 Cu 0.65891 0.84113 0.81435
 Cu763 Cu 0.68624 0.84202 0.84199
 Cu764 Cu 0.65797 0.81383 0.84204
 N765 N 0.64273 0.82553 0.81510
 N766 N 0.64251 0.81485 0.82583
 C767 C 0.63008 0.80577 0.82377
 C768 C 0.62194 0.81102 0.81105
 C769 C 0.63039 0.82361 0.80587
 H770 H 0.62718 0.79615 0.83112
 H771 H 0.62773 0.83095 0.79617
 N772 N 0.67455 0.81473 0.85752
 N773 N 0.68533 0.82547 0.85750
 C774 C 0.69455 0.82340 0.86980
 C775 C 0.68933 0.81074 0.87807
 C776 C 0.67663 0.80553 0.86984
 H777 H 0.70421 0.83074 0.87261
 H778 H 0.66927 0.79589 0.87270
 H779 H 0.67553 0.82446 0.82987
 H780 H 0.66283 0.83719 0.84180
 N781 N 0.18535 0.35723 0.82551
 N782 N 0.17459 0.35705 0.81486
 C783 C 0.17653 0.36932 0.80554
 C784 C 0.18919 0.37773 0.81064
 C785 C 0.19449 0.36960 0.82334
 H786 H 0.16911 0.37203 0.79593
 H787 H 0.20413 0.37251 0.83066
 Cu788 Cu 0.15873 0.34114 0.81486
 Cu789 Cu 0.18628 0.34193 0.84195
 Cu790 Cu 0.15793 0.31359 0.84196
 N791 N 0.14281 0.32529 0.81487
 N792 N 0.14262 0.31453 0.82553
 C793 C 0.13025 0.30541 0.82336
 C794 C 0.12212 0.31071 0.81065
 C795 C 0.13054 0.32336 0.80555
 H796 H 0.12733 0.29577 0.83069
 H797 H 0.12783 0.33078 0.79593
 N798 N 0.17440 0.31470 0.85761
 N799 N 0.18517 0.32546 0.85760
 C800 C 0.19434 0.32341 0.86995
 C801 C 0.18911 0.31075 0.87821
 C802 C 0.17643 0.30554 0.86996
 H803 H 0.20401 0.33075 0.87277
 H804 H 0.16908 0.29588 0.87279
 H805 H 0.17540 0.32446 0.83011
 H806 H 0.16286 0.33698 0.84232
 N807 N 0.18527 0.85753 0.32555
 N808 N 0.17430 0.85756 0.31510
 C809 C 0.17619 0.86991 0.30586
 C810 C 0.18906 0.87811 0.31076
 C811 C 0.19450 0.86981 0.32330
 H812 H 0.16864 0.87279 0.29639
 H813 H 0.20434 0.87251 0.33042
 Cu814 Cu 0.15845 0.84162 0.31507
 Cu815 Cu 0.18637 0.84206 0.34181
 Cu816 Cu 0.15811 0.81364 0.34173
 N817 N 0.14260 0.82569 0.31503
 N818 N 0.14269 0.81468 0.32543
 C819 C 0.13047 0.80539 0.32314
 C820 C 0.12212 0.81086 0.31065
 C821 C 0.13025 0.82379 0.30579
 H822 H 0.12782 0.79550 0.33022
 H823 H 0.12732 0.83137 0.29636
 N824 N 0.17470 0.81462 0.35725
 N825 N 0.18542 0.82543 0.35731
 C826 C 0.19458 0.82336 0.36965
 C827 C 0.18940 0.81064 0.37785
 C828 C 0.17679 0.80538 0.36953
 H829 H 0.20419 0.83076 0.37254
 H830 H 0.16948 0.79568 0.37232
 H831 H 0.17540 0.82470 0.32979
 H832 H 0.16303 0.83701 0.34236
 C833 C 0.26005 0.96749 0.24004
 C834 C 0.25001 0.95963 0.24984
 C835 C 0.23999 0.96748 0.25967
 C836 C 0.23986 0.98378 0.25981
 C837 C 0.25000 0.99195 0.24986
 C838 C 0.26015 0.98379 0.23992
 C839 C 0.27010 0.99209 0.23019
 C840 C 0.27010 1.00819 0.23020
 C841 C 0.26015 1.01649 0.23995
 C842 C 0.25000 1.00832 0.24988
 C843 C 0.22992 0.99208 0.26955
 C844 C 0.22991 1.00818 0.26956
 C845 C 0.23985 1.01649 0.25982
 C846 C 0.23997 1.03278 0.25971
 C847 C 0.24999 1.04065 0.24989
 C848 C 0.26003 1.03279 0.24008
 H849 H 0.27797 0.98619 0.22249
 H850 H 0.27797 1.01410 0.22252
 H851 H 0.22207 0.98617 0.27725
 H852 H 0.22205 1.01409 0.27726
 H853 H 0.25002 0.94709 0.24983
 H854 H 0.24999 1.05318 0.24990
 C855 C 0.26009 0.46731 0.74029
 C856 C 0.24999 0.45946 0.75004
 C857 C 0.23990 0.46732 0.75979
 C858 C 0.23981 0.48363 0.75993
 C859 C 0.25001 0.49179 0.75005
 C860 C 0.26020 0.48361 0.74015
 C861 C 0.27018 0.49190 0.73044
 C862 C 0.27017 0.50801 0.73042
 C863 C 0.26019 0.51633 0.74012
 C864 C 0.25002 0.50816 0.75004
 C865 C 0.22982 0.49195 0.76962
 C866 C 0.22985 0.50805 0.76964
 C867 C 0.23984 0.51635 0.75994
 C868 C 0.23996 0.53265 0.75981
 C869 C 0.25000 0.54049 0.75001
 C870 C 0.26006 0.53263 0.74022
 H871 H 0.27807 0.48598 0.72278
 H872 H 0.27806 0.51391 0.72275
 H873 H 0.22191 0.48605 0.77727
 H874 H 0.22195 0.51397 0.77730
 H875 H 0.24996 0.44692 0.75002
 H876 H 0.24999 0.55303 0.75000
 C877 C 0.76007 -0.03298 0.26004
 C878 C 0.75004 -0.04081 0.25022
 C879 C 0.74004 -0.03293 0.24040
 C880 C 0.73994 -0.01663 0.24026
 C881 C 0.75009 -0.00848 0.25020
 C882 C 0.76020 -0.01668 0.26016
 C883 C 0.77014 -0.00839 0.26990
 C884 C 0.77017 0.00771 0.26988
 C885 C 0.76028 0.01604 0.26010
 C886 C 0.75013 0.00789 0.25016
 C887 C 0.73004 -0.00830 0.23049
 C888 C 0.73011 0.00779 0.23043
 C889 C 0.74007 0.01608 0.24015
 C890 C 0.74029 0.03238 0.24016
 C891 C 0.75033 0.04021 0.24997
 C892 C 0.76027 0.03234 0.25988
 H893 H 0.77798 -0.01432 0.27761
 H894 H 0.77804 0.01360 0.27757
 H895 H 0.72217 -0.01419 0.22281
 H896 H 0.72231 0.01372 0.22268
 H897 H 0.75004 -0.05335 0.25021
 H898 H 0.75042 0.05275 0.24988
 C899 C 0.76014 0.46718 0.75990
 C900 C 0.75014 0.45934 0.75006
 C901 C 0.74013 0.46721 0.74023
 C902 C 0.74001 0.48351 0.74010
 C903 C 0.75015 0.49167 0.75004
 C904 C 0.76028 0.48348 0.75999
 C905 C 0.77020 0.49177 0.76975
 C906 C 0.77019 0.50787 0.76976
 C907 C 0.76025 0.51620 0.76003
 C908 C 0.75013 0.50804 0.75006
 C909 C 0.73007 0.49184 0.73037
 C910 C 0.73005 0.50794 0.73039
 C911 C 0.73998 0.51623 0.74014
 C912 C 0.74004 0.53254 0.74031
 C913 C 0.75005 0.54037 0.75015
 C914 C 0.76010 0.53250 0.75994
 H915 H 0.77806 0.48585 0.77745
 H916 H 0.77803 0.51377 0.77747
 H917 H 0.72221 0.48593 0.72268
 H918 H 0.72217 0.51386 0.72272
 H919 H 0.75013 0.44680 0.75009
 H920 H 0.75002 0.55291 0.75018
 C921 C 0.26002 0.46734 0.25972
 C922 C 0.25000 0.45949 0.24990
 C923 C 0.23999 0.46735 0.24007
 C924 C 0.23987 0.48364 0.23992
 C925 C 0.25000 0.49181 0.24986
 C926 C 0.26013 0.48364 0.25982
 C927 C 0.27005 0.49194 0.26957
 C928 C 0.27002 0.50804 0.26958
 C929 C 0.26008 0.51635 0.25983
 C930 C 0.24998 0.50818 0.24986
 C931 C 0.22994 0.49195 0.23017
 C932 C 0.22992 0.50806 0.23017
 C933 C 0.23983 0.51636 0.23992
 C934 C 0.23988 0.53266 0.24010
 C935 C 0.24984 0.54051 0.24997
 C936 C 0.25988 0.53265 0.25977
 H937 H 0.27790 0.48603 0.27728
 H938 H 0.27785 0.51395 0.27730
 H939 H 0.22209 0.48605 0.22247
 H940 H 0.22206 0.51397 0.22247
 H941 H 0.25000 0.44695 0.24992
 H942 H 0.24977 0.55305 0.25003
 C943 C 0.75993 0.96752 0.74030
 C944 C 0.74994 0.95965 0.75014
 C945 C 0.73991 0.96751 0.75998
 C946 C 0.73978 0.98381 0.76010
 C947 C 0.74989 0.99199 0.75013
 C948 C 0.76002 0.98381 0.74016
 C949 C 0.76991 0.99212 0.73038
 C950 C 0.76990 1.00822 0.73038
 C951 C 0.75998 1.01653 0.74015
 C952 C 0.74988 1.00836 0.75013
 C953 C 0.72986 0.99212 0.76987
 C954 C 0.72985 1.00823 0.76987
 C955 C 0.73976 1.01654 0.76010
 C956 C 0.73988 1.03284 0.75998
 C957 C 0.74988 1.04069 0.75013
 C958 C 0.75987 1.03282 0.74028
 H959 H 0.77775 0.98622 0.72264
 H960 H 0.77773 1.01413 0.72266
 H961 H 0.72203 0.98621 0.77759
 H962 H 0.72202 1.01414 0.77760
 H963 H 0.74995 0.94712 0.75014
 H964 H 0.74989 1.05323 0.75013
 C965 C 0.73987 0.53271 0.25983
 C966 C 0.74988 0.54058 0.25000
 C967 C 0.75995 0.53272 0.24022
 C968 C 0.76012 0.51643 0.24012
 C969 C 0.74999 0.50825 0.25007
 C970 C 0.73982 0.51641 0.26000
 C971 C 0.72990 0.50809 0.26974
 C972 C 0.72994 0.49199 0.26975
 C973 C 0.73990 0.48369 0.26000
 C974 C 0.75003 0.49188 0.25007
 C975 C 0.77008 0.50814 0.23038
 C976 C 0.77011 0.49204 0.23038
 C977 C 0.76019 0.48372 0.24011
 C978 C 0.76009 0.46743 0.24022
 C979 C 0.75008 0.45955 0.25004
 C980 C 0.74005 0.46740 0.25986
 H981 H 0.72201 0.51399 0.27743
 H982 H 0.72210 0.48606 0.27745
 H983 H 0.77792 0.51406 0.22268
 H984 H 0.77798 0.48615 0.22268
 H985 H 0.74984 0.55312 0.24997
 H986 H 0.75010 0.44701 0.25003
 C987 C 0.26039 -0.03299 0.75991
 C988 C 0.25045 -0.04086 0.75002
 C989 C 0.24045 -0.03300 0.74017
 C990 C 0.24025 -0.01671 0.74009
 C991 C 0.25034 -0.00853 0.75005
 C992 C 0.26049 -0.01669 0.76001
 C993 C 0.27039 -0.00837 0.76975
 C994 C 0.27033 0.00774 0.76975
 C995 C 0.26036 0.01603 0.76002
 C996 C 0.25026 0.00784 0.75007
 C997 C 0.23027 -0.00842 0.73036
 C998 C 0.23017 0.00768 0.73040
 C999 C 0.24007 0.01600 0.74015
 C1000 C 0.24008 0.03229 0.74032
 C1001 C 0.25007 0.04017 0.75014
 C1002 C 0.26015 0.03233 0.75993
 H1003 H 0.27826 -0.01427 0.77745
 H1004 H 0.27817 0.01366 0.77745
 H1005 H 0.22243 -0.01434 0.72266
 H1006 H 0.22227 0.01357 0.72273
 H1007 H 0.25048 -0.05340 0.75001
 H1008 H 0.25000 0.05271 0.75017
 C1009 C 0.25980 0.23989 0.96747
 C1010 C 0.24985 0.24983 0.95965
 C1011 C 0.23993 0.25980 0.96748
 C1012 C 0.23984 0.25995 0.98371
 C1013 C 0.24991 0.24988 0.99185
 C1014 C 0.25996 0.23979 0.98371
 C1015 C 0.26983 0.22993 0.99199
 C1016 C 0.26985 0.22996 1.00803
 C1017 C 0.26001 0.23984 1.01630
 C1018 C 0.24994 0.24991 1.00816
 C1019 C 0.23000 0.26983 0.99199
 C1020 C 0.23003 0.26986 1.00802
 C1021 C 0.23990 0.26000 1.01629
 C1022 C 0.24005 0.25992 1.03253
 C1023 C 0.24999 0.24997 1.04036
 C1024 C 0.25991 0.24000 1.03254
 H1025 H 0.27761 0.22212 0.98610
 H1026 H 0.27765 0.22216 1.01391
 H1027 H 0.22219 0.27762 0.98610
 H1028 H 0.22224 0.27767 1.01391
 H1029 H 0.24983 0.24982 0.94716
 H1030 H 0.25001 0.25000 1.05285
 C1031 C 0.24016 0.76010 0.53245
 C1032 C 0.25011 0.75015 0.54028
 C1033 C 0.26006 0.74021 0.53245
 C1034 C 0.26017 0.74010 0.51621
 C1035 C 0.25010 0.75017 0.50808
 C1036 C 0.24003 0.76023 0.51622
 C1037 C 0.23015 0.77008 0.50796
 C1038 C 0.23011 0.77007 0.49192
 C1039 C 0.23997 0.76020 0.48364
 C1040 C 0.25007 0.75016 0.49177
 C1041 C 0.27003 0.73024 0.50793
 C1042 C 0.27001 0.73023 0.49189
 C1043 C 0.26012 0.74008 0.48363
 C1044 C 0.25995 0.74017 0.46739
 C1045 C 0.24996 0.75008 0.45957
 C1046 C 0.24003 0.76003 0.46741
 H1047 H 0.22235 0.77788 0.51385
 H1048 H 0.22229 0.77784 0.48604
 H1049 H 0.27783 0.72244 0.51382
 H1050 H 0.27780 0.72243 0.48600
 H1051 H 0.25010 0.75014 0.55277
 H1052 H 0.24991 0.75005 0.44708
 C1053 C 0.24037 0.74009 -0.03269
 C1054 C 0.25032 0.75001 -0.04052
 C1055 C 0.26024 0.75995 -0.03271
 C1056 C 0.26033 0.76009 -0.01647
 C1057 C 0.25026 0.75003 -0.00832
 C1058 C 0.24022 0.73997 -0.01646
 C1059 C 0.23035 0.73012 -0.00819
 C1060 C 0.23031 0.73013 0.00784
 C1061 C 0.24014 0.73999 0.01612
 C1062 C 0.25022 0.75004 0.00798
 C1063 C 0.27017 0.76995 -0.00819
 C1064 C 0.27013 0.76995 0.00785
 C1065 C 0.26026 0.76010 0.01613
 C1066 C 0.26010 0.75999 0.03236
 C1067 C 0.25014 0.75007 0.04019
 C1068 C 0.24022 0.74013 0.03236
 H1069 H 0.22258 0.72233 -0.01408
 H1070 H 0.22251 0.72234 0.01373
 H1071 H 0.27797 0.77773 -0.01407
 H1072 H 0.27791 0.77775 0.01374
 H1073 H 0.25033 0.74999 -0.05301
 H1074 H 0.25011 0.75009 0.05268
 C1075 C 0.25989 0.25983 0.46757
 C1076 C 0.24997 0.24988 0.45975
 C1077 C 0.24005 0.23993 0.46758
 C1078 C 0.23992 0.23980 0.48381
 C1079 C 0.24996 0.24986 0.49195
 C1080 C 0.26001 0.25993 0.48381
 C1081 C 0.26985 0.26979 0.49208
 C1082 C 0.26984 0.26979 0.50812
 C1083 C 0.25998 0.25993 0.51639
 C1084 C 0.24995 0.24986 0.50825
 C1085 C 0.23006 0.22994 0.49208
 C1086 C 0.23005 0.22994 0.50812
 C1087 C 0.23989 0.23980 0.51639
 C1088 C 0.23999 0.23994 0.53263
 C1089 C 0.24990 0.24989 0.54046
 C1090 C 0.25984 0.25982 0.53263
 H1091 H 0.27764 0.27759 0.48619
 H1092 H 0.27762 0.27759 0.51401
 H1093 H 0.22228 0.22215 0.48619
 H1094 H 0.22226 0.22215 0.51401
 H1095 H 0.24997 0.24990 0.44726
 H1096 H 0.24988 0.24990 0.55295
 C1097 C 0.74008 0.75995 1.03256
 C1098 C 0.75001 0.74998 1.04038
 C1099 C 0.75995 0.74004 1.03255
 C1100 C 0.76009 0.73994 1.01632
 C1101 C 0.75004 0.75002 1.00818
 C1102 C 0.73998 0.76009 1.01633
 C1103 C 0.73013 0.76997 1.00806
 C1104 C 0.73014 0.76999 0.99202
 C1105 C 0.74001 0.76013 0.98374
 C1106 C 0.75006 0.75004 0.99188
 C1107 C 0.76996 0.73007 1.00805
 C1108 C 0.76998 0.73009 0.99201
 C1109 C 0.76013 0.73998 0.98374
 C1110 C 0.76003 0.74012 0.96751
 C1111 C 0.75011 0.75009 0.95968
 C1112 C 0.74016 0.76004 0.96750
 H1113 H 0.72233 0.77777 1.01395
 H1114 H 0.72235 0.77780 0.98613
 H1115 H 0.77774 0.72226 1.01394
 H1116 H 0.77778 0.72230 0.98613
 H1117 H 0.75000 0.74996 1.05287
 H1118 H 0.75013 0.75010 0.94719
 C1119 C 0.75992 0.23997 0.46739
 C1120 C 0.74999 0.24992 0.45956
 C1121 C 0.74001 0.25983 0.46739
 C1122 C 0.73985 0.25993 0.48362
 C1123 C 0.74990 0.24984 0.49176
 C1124 C 0.75998 0.23979 0.48362
 C1125 C 0.76982 0.22991 0.49190
 C1126 C 0.76979 0.22988 0.50794
 C1127 C 0.75992 0.23974 0.51621
 C1128 C 0.74987 0.24983 0.50806
 C1129 C 0.72998 0.26979 0.49188
 C1130 C 0.72996 0.26978 0.50792
 C1131 C 0.73980 0.25990 0.51620
 C1132 C 0.73991 0.25978 0.53243
 C1133 C 0.74983 0.24981 0.54026
 C1134 C 0.75978 0.23985 0.53244
 H1135 H 0.77763 0.22212 0.48602
 H1136 H 0.77757 0.22207 0.51383
 H1137 H 0.72220 0.27760 0.48599
 H1138 H 0.72216 0.27759 0.51380
 H1139 H 0.75003 0.24996 0.44707
 H1140 H 0.74982 0.24981 0.55275
 C1141 C 0.73995 0.24013 -0.03260
 C1142 C 0.74983 0.25013 -0.04043
 C1143 C 0.75974 0.26009 -0.03261
 C1144 C 0.75989 0.26018 -0.01637
 C1145 C 0.74988 0.25007 -0.00822
 C1146 C 0.73986 0.23999 -0.01636
 C1147 C 0.73005 0.23008 -0.00807
 C1148 C 0.73008 0.23006 0.00796
 C1149 C 0.73991 0.23994 0.01623
 C1150 C 0.74992 0.25004 0.00808
 C1151 C 0.76972 0.27006 -0.00810
 C1152 C 0.76975 0.27002 0.00794
 C1153 C 0.75996 0.26012 0.01622
 C1154 C 0.75988 0.25995 0.03246
 C1155 C 0.74999 0.24997 0.04028
 C1156 C 0.74006 0.24003 0.03246
 H1157 H 0.72229 0.22227 -0.01396
 H1158 H 0.72233 0.22223 0.01386
 H1159 H 0.77747 0.27789 -0.01400
 H1160 H 0.77752 0.27783 0.01382
 H1161 H 0.74981 0.25014 -0.05292
 H1162 H 0.75001 0.24994 0.05278
 C1163 C 0.74002 0.74015 0.53266
 C1164 C 0.74996 0.75008 0.54048
 C1165 C 0.75989 0.76002 0.53265
 C1166 C 0.76001 0.76015 0.51642
 C1167 C 0.74996 0.75009 0.50828
 C1168 C 0.73991 0.74002 0.51643
 C1169 C 0.73005 0.73017 0.50816
 C1170 C 0.73004 0.73018 0.49212
 C1171 C 0.73988 0.74004 0.48384
 C1172 C 0.74994 0.75010 0.49197
 C1173 C 0.76985 0.77001 0.50813
 C1174 C 0.76983 0.77003 0.49209
 C1175 C 0.75997 0.76018 0.48382
 C1176 C 0.75982 0.76009 0.46758
 C1177 C 0.74988 0.75015 0.45977
 C1178 C 0.73997 0.74018 0.46760
 H1179 H 0.72227 0.72238 0.51406
 H1180 H 0.72225 0.72239 0.48625
 H1181 H 0.77764 0.77780 0.51401
 H1182 H 0.77760 0.77783 0.48620
 H1183 H 0.74995 0.75009 0.55297
 H1184 H 0.74986 0.75016 0.44728
 C1185 C 1.03268 0.24015 0.25990
 C1186 C 1.04054 0.25022 0.25013
 C1187 C 1.03266 0.26025 0.24032
 C1188 C 1.01635 0.26033 0.24016
 C1189 C 1.00818 0.25015 0.25007
 C1190 C 1.01637 0.24001 0.26000
 C1191 C 1.00808 0.23004 0.26972
 C1192 C 0.99196 0.23002 0.26971
 C1193 C 0.98364 0.23996 0.25997
 C1194 C 0.99180 0.25012 0.25005
 C1195 C 1.00802 0.27024 0.23041
 C1196 C 0.99191 0.27019 0.23036
 C1197 C 0.98361 0.26024 0.24009
 C1198 C 0.96730 0.26007 0.24017
 C1199 C 0.95945 0.25005 0.24999
 C1200 C 0.96733 0.24004 0.25981
 H1201 H 1.01400 0.22217 0.27740
 H1202 H 0.98606 0.22214 0.27739
 H1203 H 1.01393 0.27812 0.22273
 H1204 H 0.98599 0.27803 0.22264
 H1205 H 1.05308 0.25025 0.25015
 H1206 H 0.94690 0.25003 0.24997
 C1207 C 0.53270 0.23979 0.75983
 C1208 C 0.54055 0.24981 0.75002
 C1209 C 0.53269 0.25984 0.74021
 C1210 C 0.51638 0.25997 0.74009
 C1211 C 0.50820 0.24982 0.75002
 C1212 C 0.51639 0.23967 0.75994
 C1213 C 0.50808 0.22971 0.76967
 C1214 C 0.49197 0.22973 0.76967
 C1215 C 0.48365 0.23969 0.75996
 C1216 C 0.49182 0.24984 0.75003
 C1217 C 0.50806 0.26993 0.73037
 C1218 C 0.49195 0.26996 0.73038
 C1219 C 0.48364 0.26002 0.74012
 C1220 C 0.46732 0.25995 0.74029
 C1221 C 0.45947 0.24991 0.75009
 C1222 C 0.46734 0.23984 0.75986
 H1223 H 0.51400 0.22183 0.77734
 H1224 H 0.48605 0.22186 0.77736
 H1225 H 0.51398 0.27780 0.72269
 H1226 H 0.48603 0.27784 0.72271
 H1227 H 0.55310 0.24980 0.75002
 H1228 H 0.44692 0.24992 0.75011
 C1229 C -0.03282 0.23995 0.74026
 C1230 C -0.04069 0.24998 0.75007
 C1231 C -0.03284 0.26003 0.75984
 C1232 C -0.01652 0.26017 0.75994
 C1233 C -0.00834 0.25000 0.75003
 C1234 C -0.01651 0.23984 0.74012
 C1235 C -0.00819 0.22987 0.73042
 C1236 C 0.00792 0.22985 0.73042
 C1237 C 0.01623 0.23979 0.74014
 C1238 C 0.00805 0.24998 0.75003
 C1239 C -0.00821 0.27011 0.76966
 C1240 C 0.00790 0.27009 0.76966
 C1241 C 0.01622 0.26013 0.75994
 C1242 C 0.03253 0.26001 0.75981
 C1243 C 0.04040 0.24993 0.75005
 C1244 C 0.03254 0.23986 0.74029
 H1245 H -0.01410 0.22199 0.72276
 H1246 H 0.01384 0.22197 0.72275
 H1247 H -0.01413 0.27798 0.77734
 H1248 H 0.01381 0.27796 0.77733
 H1249 H -0.05324 0.24996 0.75011
 H1250 H 0.05295 0.24992 0.75005
 C1251 C 0.46743 0.23968 0.24031
 C1252 C 0.45955 0.24968 0.25012
 C1253 C 0.46739 0.25971 0.25993
 C1254 C 0.48369 0.25984 0.26007
 C1255 C 0.49189 0.24972 0.25012
 C1256 C 0.48374 0.23958 0.24018
 C1257 C 0.49207 0.22969 0.23041
 C1258 C 0.50817 0.22974 0.23036
 C1259 C 0.51646 0.23969 0.24010
 C1260 C 0.50827 0.24976 0.25009
 C1261 C 0.49198 0.26976 0.26981
 C1262 C 0.50810 0.26979 0.26980
 C1263 C 0.51643 0.25990 0.26003
 C1264 C 0.53274 0.25984 0.25984
 C1265 C 0.54062 0.24992 0.24993
 C1266 C 0.53276 0.23989 0.24013
 H1267 H 0.48617 0.22182 0.22272
 H1268 H 0.51410 0.22193 0.22263
 H1269 H 0.48605 0.27760 0.27752
 H1270 H 0.51400 0.27764 0.27750
 H1271 H 0.44700 0.24967 0.25012
 H1272 H 0.55316 0.24999 0.24985
 C1273 C 0.96729 0.76024 0.74029
 C1274 C 0.95942 0.75021 0.75009
 C1275 C 0.96728 0.74018 0.75990
 C1276 C 0.98359 0.74008 0.76006
 C1277 C 0.99177 0.75022 0.75013
 C1278 C 0.98359 0.76035 0.74017
 C1279 C 0.99190 0.77026 0.73041
 C1280 C 1.00801 0.77023 0.73039
 C1281 C 1.01632 0.76030 0.74014
 C1282 C 1.00815 0.75021 0.75013
 C1283 C 0.99191 0.73016 0.76982
 C1284 C 1.00802 0.73016 0.76984
 C1285 C 1.01633 0.74008 0.76008
 C1286 C 1.03264 0.74015 0.75991
 C1287 C 1.04049 0.75010 0.75003
 C1288 C 1.03262 0.76011 0.74020
 H1289 H 0.98599 0.77811 0.72270
 H1290 H 1.01392 0.77805 0.72265
 H1291 H 0.98599 0.72230 0.77751
 H1292 H 1.01394 0.72231 0.77754
 H1293 H 0.94687 0.75021 0.75007
 H1294 H 1.05304 0.75005 0.74997
 C1295 C 0.53266 0.73996 0.25983
 C1296 C 0.54054 0.75001 0.25006
 C1297 C 0.53268 0.76009 0.24029
 C1298 C 0.51638 0.76021 0.24014
 C1299 C 0.50818 0.75004 0.25004
 C1300 C 0.51635 0.73986 0.25996
 C1301 C 0.50803 0.72991 0.26967
 C1302 C 0.49191 0.72994 0.26967
 C1303 C 0.48361 0.73991 0.25994
 C1304 C 0.49181 0.75005 0.25002
 C1305 C 0.50808 0.77019 0.23043
 C1306 C 0.49197 0.77019 0.23040
 C1307 C 0.48365 0.76022 0.24009
 C1308 C 0.46734 0.76014 0.24022
 C1309 C 0.45946 0.75013 0.25003
 C1310 C 0.46730 0.74009 0.25984
 H1311 H 0.51393 0.72202 0.27734
 H1312 H 0.48599 0.72209 0.27736
 H1313 H 0.51400 0.77808 0.22278
 H1314 H 0.48607 0.77808 0.22272
 H1315 H 0.55308 0.74999 0.25006
 H1316 H 0.44691 0.75018 0.25004
 C1317 C -0.03277 0.74010 0.24024
 C1318 C -0.04063 0.75014 0.25004
 C1319 C -0.03277 0.76018 0.25982
 C1320 C -0.01646 0.76029 0.25993
 C1321 C -0.00828 0.75013 0.24999
 C1322 C -0.01646 0.73998 0.24009
 C1323 C -0.00815 0.73004 0.23035
 C1324 C 0.00796 0.73003 0.23032
 C1325 C 0.01628 0.73997 0.24004
 C1326 C 0.00810 0.75012 0.24997
 C1327 C -0.00814 0.77022 0.26964
 C1328 C 0.00797 0.77019 0.26964
 C1329 C 0.01628 0.76025 0.25991
 C1330 C 0.03259 0.76008 0.25980
 C1331 C 0.04045 0.75005 0.24999
 C1332 C 0.03259 0.74006 0.24017
 H1333 H -0.01406 0.72217 0.22268
 H1334 H 0.01388 0.72216 0.22264
 H1335 H -0.01405 0.77809 0.27733
 H1336 H 0.01389 0.77804 0.27733
 H1337 H -0.05318 0.75015 0.25005
 H1338 H 0.05300 0.75003 0.25000
 C1339 C 0.46721 0.74012 0.74034
 C1340 C 0.45933 0.75011 0.75019
 C1341 C 0.46718 0.76014 0.75999
 C1342 C 0.48349 0.76030 0.76006
 C1343 C 0.49169 0.75017 0.75012
 C1344 C 0.48353 0.74001 0.74021
 C1345 C 0.49186 0.73006 0.73050
 C1346 C 0.50798 0.73006 0.73050
 C1347 C 0.51628 0.74002 0.74021
 C1348 C 0.50807 0.75018 0.75012
 C1349 C 0.49179 0.77027 0.76976
 C1350 C 0.50790 0.77029 0.76975
 C1351 C 0.51623 0.76033 0.76005
 C1352 C 0.53254 0.76020 0.75995
 C1353 C 0.54043 0.75018 0.75015
 C1354 C 0.53259 0.74014 0.74034
 H1355 H 0.48596 0.72217 0.72284
 H1356 H 0.51391 0.72218 0.72284
 H1357 H 0.48586 0.77814 0.77744
 H1358 H 0.51380 0.77817 0.77741
 H1359 H 0.44679 0.75008 0.75022
 H1360 H 0.55298 0.75019 0.75016
 C1361 C 0.41913 0.29132 0.29136
 C1362 C 0.41215 0.30412 0.28431
 C1363 C 0.39861 0.31032 0.29068
 C1364 C 0.39197 0.30378 0.30401
 C1365 C 0.39923 0.29093 0.31091
 C1366 C 0.41277 0.28465 0.30463
 C1367 C 0.43306 0.28442 0.28439
 C1368 C 0.43966 0.27119 0.29109
 C1369 C 0.45210 0.26392 0.28372
 C1370 C 0.45772 0.26971 0.26971
 C1371 C 0.45146 0.28330 0.26345
 C1372 C 0.43903 0.29069 0.27072
 C1373 C 0.41994 0.27167 0.31123
 C1374 C 0.43315 0.26505 0.30457
 C1375 C 0.41872 0.31034 0.27088
 C1376 C 0.43193 0.30373 0.26419
 H1377 H 0.41515 0.26643 0.32149
 H1378 H 0.43813 0.25485 0.30984
 H1379 H 0.41347 0.32025 0.26535
 H1380 H 0.43643 0.30867 0.25366
 H1381 H 0.39326 0.32014 0.28513
 H1382 H 0.39436 0.28566 0.32110
 H1383 H 0.45674 0.25322 0.28828
 H1384 H 0.45562 0.28749 0.25244
 C1385 C 0.41933 0.79206 0.79184
 C1386 C 0.41279 0.80527 0.78514
 C1387 C 0.39926 0.81157 0.79148
 C1388 C 0.39213 0.80472 0.80444
 C1389 C 0.39909 0.79149 0.81105
 C1390 C 0.41261 0.78513 0.80479
 C1391 C 0.43316 0.78500 0.78482
 C1392 C 0.43929 0.77138 0.79115
 C1393 C 0.45159 0.76398 0.78367
 C1394 C 0.45756 0.77005 0.76992
 C1395 C 0.45179 0.78404 0.76405
 C1396 C 0.43949 0.79155 0.77144
 C1397 C 0.41936 0.77177 0.81107
 C1398 C 0.43246 0.76500 0.80436
 C1399 C 0.41973 0.81176 0.77202
 C1400 C 0.43285 0.80500 0.76528
 H1401 H 0.41430 0.76634 0.82110
 H1402 H 0.43710 0.75452 0.80937
 H1403 H 0.41483 0.82199 0.76675
 H1404 H 0.43764 0.81018 0.75498
 H1405 H 0.39431 0.82168 0.78609
 H1406 H 0.39404 0.78590 0.82097
 H1407 H 0.45588 0.75301 0.78794
 H1408 H 0.45623 0.78848 0.75326
 C1409 C -0.08066 0.29191 0.79179
 C1410 C -0.08714 0.30520 0.78518
 C1411 C -0.10058 0.31157 0.79163
 C1412 C -0.10761 0.30472 0.80459
 C1413 C -0.10081 0.29141 0.81110
 C1414 C -0.08739 0.28495 0.80473
 C1415 C -0.06686 0.28485 0.78472
 C1416 C -0.06077 0.27117 0.79098
 C1417 C -0.04848 0.26379 0.78347
 C1418 C -0.04248 0.26993 0.76976
 C1419 C -0.04824 0.28394 0.76395
 C1420 C -0.06052 0.29145 0.77137
 C1421 C -0.08071 0.27150 0.81091
 C1422 C -0.06763 0.26473 0.80414
 C1423 C -0.08021 0.31173 0.77208
 C1424 C -0.06712 0.30496 0.76529
 H1425 H -0.08578 0.26603 0.82092
 H1426 H -0.06303 0.25419 0.80907
 H1427 H -0.08508 0.32201 0.76688
 H1428 H -0.06233 0.31018 0.75502
 H1429 H -0.10558 0.32172 0.78637
 H1430 H -0.10599 0.28588 0.82099
 H1431 H -0.04421 0.25280 0.78769
 H1432 H -0.04378 0.28843 0.75319
 C1433 C -0.08067 0.79203 0.29163
 C1434 C -0.08751 0.80500 0.28473
 C1435 C -0.10103 0.81121 0.29111
 C1436 C -0.10783 0.80452 0.30428
 C1437 C -0.10065 0.79157 0.31111
 C1438 C -0.08713 0.78527 0.30481
 C1439 C -0.06683 0.78504 0.28458
 C1440 C -0.06042 0.77164 0.29110
 C1441 C -0.04810 0.76428 0.28361
 C1442 C -0.04239 0.77016 0.26967
 C1443 C -0.04848 0.78391 0.26358
 C1444 C -0.06079 0.79139 0.27097
 C1445 C -0.08012 0.77213 0.31126
 C1446 C -0.06700 0.76542 0.30451
 C1447 C -0.08085 0.81130 0.27138
 C1448 C -0.06773 0.80460 0.26461
 H1449 H -0.08497 0.76682 0.32146
 H1450 H -0.06216 0.75508 0.30964
 H1451 H -0.08599 0.82134 0.26597
 H1452 H -0.06318 0.80962 0.25413
 H1453 H -0.10631 0.82112 0.28563
 H1454 H -0.10561 0.78621 0.32121
 H1455 H -0.04360 0.75346 0.28804
 H1456 H -0.04427 0.78818 0.25263
 C1457 C 0.58060 0.70821 0.29164
 C1458 C 0.58773 0.69551 0.28456
 C1459 C 0.60120 0.68929 0.29104
 C1460 C 0.60762 0.69569 0.30452
 C1461 C 0.60020 0.70842 0.31149
 C1462 C 0.58673 0.71474 0.30508
 C1463 C 0.56676 0.71515 0.28454
 C1464 C 0.56002 0.72827 0.29127
 C1465 C 0.54767 0.73559 0.28378
 C1466 C 0.54227 0.72992 0.26963
 C1467 C 0.54868 0.71642 0.26334
 C1468 C 0.56102 0.70900 0.27072
 C1469 C 0.57942 0.72763 0.31170
 C1470 C 0.56629 0.73428 0.30491
 C1471 C 0.58140 0.68943 0.27097
 C1472 C 0.56827 0.69606 0.26417
 H1473 H 0.58403 0.73278 0.32208
 H1474 H 0.56118 0.74440 0.31021
 H1475 H 0.58679 0.67961 0.26541
 H1476 H 0.56394 0.69120 0.25353
 H1477 H 0.60672 0.67962 0.28541
 H1478 H 0.60490 0.71356 0.32182
 H1479 H 0.54289 0.74621 0.28838
 H1480 H 0.54468 0.71231 0.25225
 C1481 C 0.58064 0.20795 0.79158
 C1482 C 0.58709 0.21469 0.80477
 C1483 C 0.60058 0.20834 0.81109
 C1484 C 0.60773 0.19539 0.80427
 C1485 C 0.60098 0.18874 0.79107
 C1486 C 0.58748 0.19499 0.78467
 C1487 C 0.56681 0.21496 0.78454
 C1488 C 0.56077 0.20862 0.77094
 C1489 C 0.54843 0.21608 0.76358
 C1490 C 0.54233 0.22982 0.76968
 C1491 C 0.54805 0.23570 0.78361
 C1492 C 0.56039 0.22835 0.79107
 C1493 C 0.58083 0.18872 0.77132
 C1494 C 0.56771 0.19543 0.76455
 C1495 C 0.58008 0.22782 0.81122
 C1496 C 0.56697 0.23455 0.80448
 H1497 H 0.58598 0.17870 0.76589
 H1498 H 0.56317 0.19044 0.75407
 H1499 H 0.58494 0.23312 0.82142
 H1500 H 0.56213 0.24488 0.80962
 H1501 H 0.60550 0.21366 0.82122
 H1502 H 0.60625 0.17883 0.78560
 H1503 H 0.54420 0.21182 0.75263
 H1504 H 0.54353 0.24650 0.78805
 C1505 C 1.08059 0.70823 0.79156
 C1506 C 1.08772 0.69557 0.78440
 C1507 C 1.10127 0.68940 0.79078
 C1508 C 1.10779 0.69584 0.80420
 C1509 C 1.10032 0.70847 0.81128
 C1510 C 1.08678 0.71473 0.80499
 C1511 C 1.06674 0.71520 0.78452
 C1512 C 1.06004 0.72834 0.79129
 C1513 C 1.04771 0.73572 0.78383
 C1514 C 1.04228 0.73010 0.76968
 C1515 C 1.04864 0.71660 0.76334
 C1516 C 1.06097 0.70912 0.77069
 C1517 C 1.07947 0.72758 0.81169
 C1518 C 1.06635 0.73428 0.80494
 C1519 C 1.08132 0.68951 0.77083
 C1520 C 1.06818 0.69619 0.76408
 H1521 H 1.08411 0.73268 0.82208
 H1522 H 1.06128 0.74440 0.81028
 H1523 H 1.08668 0.67971 0.76522
 H1524 H 1.06382 0.69138 0.75343
 H1525 H 1.10679 0.67975 0.78509
 H1526 H 1.10505 0.71360 0.82159
 H1527 H 1.04301 0.74636 0.78845
 H1528 H 1.04462 0.71254 0.75225
 C1529 C 1.08045 0.20819 0.29182
 C1530 C 1.08729 0.19522 0.28493
 C1531 C 1.10079 0.18898 0.29135
 C1532 C 1.10755 0.19566 0.30453
 C1533 C 1.10037 0.20860 0.31135
 C1534 C 1.08687 0.21493 0.30502
 C1535 C 1.06665 0.21522 0.28472
 C1536 C 1.06024 0.22863 0.29123
 C1537 C 1.04797 0.23602 0.28370
 C1538 C 1.04231 0.23017 0.26974
 C1539 C 1.04839 0.21641 0.26367
 C1540 C 1.06066 0.20890 0.27110
 C1541 C 1.07985 0.22807 0.31146
 C1542 C 1.06677 0.23481 0.30467
 C1543 C 1.08066 0.18894 0.27157
 C1544 C 1.06758 0.19567 0.26476
 H1545 H 1.08468 0.23336 0.32167
 H1546 H 1.06192 0.24514 0.30979
 H1547 H 1.08580 0.17890 0.26617
 H1548 H 1.06305 0.19067 0.25427
 H1549 H 1.10607 0.17907 0.28588
 H1550 H 1.10531 0.21395 0.32145
 H1551 H 1.04345 0.24683 0.28813
 H1552 H 1.04420 0.21216 0.25271
 C1553 C 0.58055 0.29177 0.70847
 C1554 C 0.58735 0.30472 0.71538
 C1555 C 0.60083 0.31101 0.70896
 C1556 C 0.60759 0.30438 0.69575
 C1557 C 0.60045 0.29145 0.68891
 C1558 C 0.58699 0.28507 0.69525
 C1559 C 0.56676 0.28472 0.71554
 C1560 C 0.56038 0.27134 0.70899
 C1561 C 0.54807 0.26396 0.71645
 C1562 C 0.54233 0.26983 0.73039
 C1563 C 0.54840 0.28354 0.73652
 C1564 C 0.56072 0.29103 0.72916
 C1565 C 0.58004 0.27193 0.68880
 C1566 C 0.56696 0.26516 0.69556
 C1567 C 0.58073 0.31095 0.72878
 C1568 C 0.56764 0.30421 0.73556
 H1569 H 0.58490 0.26665 0.67859
 H1570 H 0.56216 0.25484 0.69042
 H1571 H 0.58586 0.32096 0.73422
 H1572 H 0.56309 0.30918 0.74606
 H1573 H 0.60609 0.32090 0.71445
 H1574 H 0.60537 0.28615 0.67876
 H1575 H 0.54358 0.25317 0.71200
 H1576 H 0.54417 0.28778 0.74748
 C1577 C 0.58039 0.79206 0.20834
 C1578 C 0.58719 0.80504 0.21522
 C1579 C 0.60068 0.81128 0.20878
 C1580 C 0.60746 0.80460 0.19560
 C1581 C 0.60030 0.79166 0.18878
 C1582 C 0.58682 0.78533 0.19513
 C1583 C 0.56661 0.78503 0.21545
 C1584 C 0.56023 0.77162 0.20895
 C1585 C 0.54798 0.76422 0.21648
 C1586 C 0.54231 0.77007 0.23045
 C1587 C 0.54835 0.78383 0.23652
 C1588 C 0.56060 0.79135 0.22909
 C1589 C 0.57983 0.77219 0.18870
 C1590 C 0.56677 0.76544 0.19551
 C1591 C 0.58056 0.81131 0.22859
 C1592 C 0.56750 0.80458 0.23541
 H1593 H 0.58467 0.76690 0.17849
 H1594 H 0.56195 0.75511 0.19038
 H1595 H 0.58568 0.82135 0.23399
 H1596 H 0.56296 0.80957 0.24591
 H1597 H 0.60594 0.82119 0.21424
 H1598 H 0.60524 0.78631 0.17868
 H1599 H 0.54349 0.75341 0.21206
 H1600 H 0.54414 0.78808 0.24748
 C1601 C 1.08041 0.29212 0.20837
 C1602 C 1.08724 0.30508 0.21526
 C1603 C 1.10077 0.31127 0.20886
 C1604 C 1.10757 0.30455 0.19571
 C1605 C 1.10038 0.29164 0.18887
 C1606 C 1.08686 0.28536 0.19518
 C1607 C 1.06662 0.28512 0.21547
 C1608 C 1.06021 0.27173 0.20897
 C1609 C 1.04793 0.26436 0.21650
 C1610 C 1.04227 0.27023 0.23046
 C1611 C 1.04834 0.28397 0.23653
 C1612 C 1.06061 0.29146 0.22910
 C1613 C 1.07984 0.27223 0.18875
 C1614 C 1.06675 0.26552 0.19553
 C1615 C 1.08060 0.31139 0.22860
 C1616 C 1.06751 0.30468 0.23542
 H1617 H 1.08468 0.26692 0.17854
 H1618 H 1.06190 0.25521 0.19041
 H1619 H 1.08573 0.32142 0.23400
 H1620 H 1.06296 0.30970 0.24590
 H1621 H 1.10605 0.32116 0.21433
 H1622 H 1.10532 0.28628 0.17877
 H1623 H 1.04342 0.25356 0.21208
 H1624 H 1.04415 0.28823 0.24750
 C1625 C 1.08044 0.79184 0.70826
 C1626 C 1.08724 0.78482 0.69538
 C1627 C 1.10074 0.79116 0.68911
 C1628 C 1.10757 0.80441 0.69566
 C1629 C 1.10045 0.81137 0.70852
 C1630 C 1.08693 0.80511 0.71489
 C1631 C 1.06663 0.78482 0.71529
 C1632 C 1.06026 0.79145 0.72862
 C1633 C 1.04795 0.78398 0.73602
 C1634 C 1.04224 0.76996 0.73023
 C1635 C 1.04828 0.76378 0.71657
 C1636 C 1.06058 0.77113 0.70907
 C1637 C 1.07995 0.81166 0.72795
 C1638 C 1.06685 0.80493 0.73471
 C1639 C 1.08058 0.77138 0.68922
 C1640 C 1.06750 0.76463 0.69596
 H1641 H 1.08483 0.82192 0.73316
 H1642 H 1.06205 0.81014 0.74499
 H1643 H 1.08572 0.76586 0.67927
 H1644 H 1.06295 0.75407 0.69107
 H1645 H 1.10593 0.78560 0.67925
 H1646 H 1.10545 0.82153 0.71376
 H1647 H 1.04347 0.78848 0.74677
 H1648 H 1.04406 0.75277 0.71239
 C1649 C 0.41943 0.70817 0.70851
 C1650 C 0.41260 0.69523 0.71544
 C1651 C 0.39910 0.68899 0.70905
 C1652 C 0.39233 0.69565 0.69585
 C1653 C 0.39951 0.70856 0.68898
 C1654 C 0.41301 0.71488 0.69529
 C1655 C 0.43322 0.71521 0.71558
 C1656 C 0.43963 0.72859 0.70903
 C1657 C 0.45191 0.73598 0.71653
 C1658 C 0.45759 0.73014 0.73050
 C1659 C 0.45150 0.71641 0.73662
 C1660 C 0.43923 0.70891 0.72923
 C1661 C 0.42002 0.72799 0.68880
 C1662 C 0.43309 0.73474 0.69557
 C1663 C 0.41923 0.68898 0.72882
 C1664 C 0.43231 0.69571 0.73561
 H1665 H 0.41518 0.73326 0.67856
 H1666 H 0.43793 0.74504 0.69039
 H1667 H 0.41411 0.67896 0.73426
 H1668 H 0.43685 0.69073 0.74611
 H1669 H 0.39382 0.67911 0.71454
 H1670 H 0.39459 0.71388 0.67885
 H1671 H 0.45641 0.74677 0.71207
 H1672 H 0.45570 0.71218 0.74759
 C1673 C 0.41971 0.20790 0.20831
 C1674 C 0.41289 0.19492 0.21517
 C1675 C 0.39941 0.18869 0.20873
 C1676 C 0.39266 0.19540 0.19555
 C1677 C 0.39981 0.20837 0.18877
 C1678 C 0.41329 0.21468 0.19512
 C1679 C 0.43350 0.21489 0.21543
 C1680 C 0.43991 0.22830 0.20894
 C1681 C 0.45219 0.23565 0.21648
 C1682 C 0.45784 0.22974 0.23043
 C1683 C 0.45176 0.21598 0.23648
 C1684 C 0.43950 0.20852 0.22904
 C1685 C 0.42029 0.22784 0.18872
 C1686 C 0.43337 0.23454 0.19552
 C1687 C 0.41951 0.18860 0.22853
 C1688 C 0.43258 0.19530 0.23536
 H1689 H 0.41545 0.23318 0.17853
 H1690 H 0.43821 0.24488 0.19042
 H1691 H 0.41437 0.17856 0.23392
 H1692 H 0.43710 0.19027 0.24585
 H1693 H 0.39415 0.17877 0.21417
 H1694 H 0.39487 0.21376 0.17868
 H1695 H 0.45670 0.24646 0.21207
 H1696 H 0.45595 0.21170 0.24744
 C1697 C -0.08057 0.70819 0.20849
 C1698 C -0.08702 0.71493 0.19528
 C1699 C -0.10049 0.70858 0.18895
 C1700 C -0.10763 0.69564 0.19578
 C1701 C -0.10087 0.68898 0.20899
 C1702 C -0.08738 0.69523 0.21540
 C1703 C -0.06677 0.71521 0.21554
 C1704 C -0.06073 0.70888 0.22916
 C1705 C -0.04844 0.71638 0.23654
 C1706 C -0.04239 0.73011 0.23043
 C1707 C -0.04809 0.73598 0.21647
 C1708 C -0.06038 0.72860 0.20900
 C1709 C -0.08073 0.68896 0.22877
 C1710 C -0.06765 0.69568 0.23554
 C1711 C -0.08004 0.72806 0.18882
 C1712 C -0.06695 0.73480 0.19558
 H1713 H -0.08585 0.67893 0.23420
 H1714 H -0.06309 0.69069 0.24603
 H1715 H -0.08489 0.73335 0.17861
 H1716 H -0.06214 0.74512 0.19043
 H1717 H -0.10541 0.71390 0.17882
 H1718 H -0.10614 0.67909 0.21447
 H1719 H -0.04423 0.71213 0.24750
 H1720 H -0.04360 0.74678 0.21203
 C1721 C -0.08056 0.20807 0.70837
 C1722 C -0.08697 0.21480 0.69515
 C1723 C -0.10048 0.20850 0.68883
 C1724 C -0.10768 0.19560 0.69569
 C1725 C -0.10093 0.18893 0.70890
 C1726 C -0.08743 0.19514 0.71530
 C1727 C -0.06676 0.21505 0.71545
 C1728 C -0.06078 0.20874 0.72911
 C1729 C -0.04852 0.21624 0.73653
 C1730 C -0.04243 0.22997 0.73042
 C1731 C -0.04806 0.23580 0.71643
 C1732 C -0.06033 0.22842 0.70891
 C1733 C -0.08081 0.18885 0.72868
 C1734 C -0.06773 0.19555 0.73548
 C1735 C -0.07993 0.22789 0.68867
 C1736 C -0.06684 0.23460 0.69545
 H1737 H -0.08597 0.17883 0.73409
 H1738 H -0.06322 0.19055 0.74598
 H1739 H -0.08473 0.23317 0.67843
 H1740 H -0.06198 0.24490 0.69029
 H1741 H -0.10539 0.21384 0.67871
 H1742 H -0.10623 0.17907 0.71441
 H1743 H -0.04436 0.21200 0.74752
 H1744 H -0.04355 0.24660 0.71198
 C1745 C 0.29180 0.41948 0.29160
 C1746 C 0.30480 0.41266 0.28474
 C1747 C 0.31100 0.39913 0.29113
 C1748 C 0.30426 0.39233 0.30427
 C1749 C 0.29129 0.39949 0.31106
 C1750 C 0.28499 0.41300 0.30475
 C1751 C 0.28482 0.43331 0.28454
 C1752 C 0.27138 0.43970 0.29102
 C1753 C 0.26403 0.45201 0.28351
 C1754 C 0.26997 0.45772 0.26960
 C1755 C 0.28377 0.45168 0.26356
 C1756 C 0.29123 0.43937 0.27097
 C1757 C 0.27181 0.41999 0.31116
 C1758 C 0.26511 0.43311 0.30440
 C1759 C 0.31116 0.41933 0.27143
 C1760 C 0.30448 0.43245 0.26465
 H1761 H 0.26646 0.41512 0.32133
 H1762 H 0.25475 0.43793 0.30949
 H1763 H 0.32122 0.41421 0.26603
 H1764 H 0.30953 0.43703 0.25420
 H1765 H 0.32091 0.39384 0.28566
 H1766 H 0.28592 0.39454 0.32116
 H1767 H 0.25319 0.45650 0.28791
 H1768 H 0.28808 0.45591 0.25264
 C1769 C 0.29216 -0.08094 0.79174
 C1770 C 0.30537 -0.08750 0.78505
 C1771 C 0.31163 -0.10104 0.79137
 C1772 C 0.30475 -0.10818 0.80432
 C1773 C 0.29150 -0.10122 0.81089
 C1774 C 0.28517 -0.08768 0.80465
 C1775 C 0.28515 -0.06708 0.78474
 C1776 C 0.27152 -0.06093 0.79106
 C1777 C 0.26416 -0.04860 0.78359
 C1778 C 0.27029 -0.04261 0.76987
 C1779 C 0.28429 -0.04840 0.76403
 C1780 C 0.29175 -0.06074 0.77140
 C1781 C 0.27180 -0.08093 0.81091
 C1782 C 0.26508 -0.06779 0.80422
 C1783 C 0.31190 -0.08055 0.77196
 C1784 C 0.30520 -0.06740 0.76524
 H1785 H 0.26632 -0.08601 0.82091
 H1786 H 0.25458 -0.06315 0.80921
 H1787 H 0.32213 -0.08547 0.76669
 H1788 H 0.31041 -0.06261 0.75496
 H1789 H 0.32175 -0.10600 0.78599
 H1790 H 0.28587 -0.10628 0.82079
 H1791 H 0.25318 -0.04431 0.78784
 H1792 H 0.28876 -0.04395 0.75325
 C1793 C 0.79186 0.41937 0.79199
 C1794 C 0.80511 0.41281 0.78538
 C1795 C 0.81146 0.39940 0.79188
 C1796 C 0.80463 0.39238 0.80490
 C1797 C 0.79133 0.39932 0.81139
 C1798 C 0.78490 0.41273 0.80497
 C1799 C 0.78484 0.43317 0.78489
 C1800 C 0.77120 0.43934 0.79115
 C1801 C 0.76385 0.45163 0.78360
 C1802 C 0.77000 0.45754 0.76986
 C1803 C 0.78398 0.45170 0.76404
 C1804 C 0.79144 0.43942 0.77150
 C1805 C 0.77149 0.41949 0.81115
 C1806 C 0.76475 0.43257 0.80435
 C1807 C 0.81164 0.41966 0.77224
 C1808 C 0.80491 0.43273 0.76540
 H1809 H 0.76601 0.41450 0.82119
 H1810 H 0.75424 0.43723 0.80929
 H1811 H 0.82189 0.41473 0.76703
 H1812 H 0.81012 0.43745 0.75509
 H1813 H 0.82159 0.39445 0.78653
 H1814 H 0.78570 0.39430 0.82130
 H1815 H 0.75289 0.45598 0.78783
 H1816 H 0.78847 0.45610 0.75326
 C1817 C 0.79186 -0.08086 0.29191
 C1818 C 0.80488 -0.08764 0.28507
 C1819 C 0.81110 -0.10116 0.29145
 C1820 C 0.80435 -0.10809 0.30457
 C1821 C 0.79130 -0.10090 0.31131
 C1822 C 0.78502 -0.08737 0.30501
 C1823 C 0.78488 -0.06702 0.28485
 C1824 C 0.77142 -0.06065 0.29132
 C1825 C 0.76407 -0.04834 0.28382
 C1826 C 0.77002 -0.04261 0.26991
 C1827 C 0.78383 -0.04864 0.26389
 C1828 C 0.79130 -0.06094 0.27130
 C1829 C 0.77183 -0.08039 0.31141
 C1830 C 0.76514 -0.06727 0.30467
 C1831 C 0.81127 -0.08093 0.27179
 C1832 C 0.80457 -0.06782 0.26500
 H1833 H 0.76646 -0.08528 0.32157
 H1834 H 0.75477 -0.06246 0.30977
 H1835 H 0.82136 -0.08602 0.26643
 H1836 H 0.80965 -0.06323 0.25457
 H1837 H 0.82107 -0.10628 0.28594
 H1838 H 0.78578 -0.10580 0.32134
 H1839 H 0.75322 -0.04387 0.28820
 H1840 H 0.78815 -0.04440 0.25297
 C1841 C 0.29191 0.58046 0.70838
 C1842 C 0.30488 0.58727 0.71528
 C1843 C 0.31109 0.60079 0.70889
 C1844 C 0.30438 0.60760 0.69574
 C1845 C 0.29145 0.60044 0.68891
 C1846 C 0.28514 0.58693 0.69520
 C1847 C 0.28491 0.56665 0.71544
 C1848 C 0.27150 0.56027 0.70893
 C1849 C 0.26413 0.54797 0.71642
 C1850 C 0.27003 0.54225 0.73036
 C1851 C 0.28379 0.54830 0.73643
 C1852 C 0.29127 0.56060 0.72904
 C1853 C 0.27200 0.57995 0.68876
 C1854 C 0.26528 0.56685 0.69552
 C1855 C 0.31119 0.58060 0.72861
 C1856 C 0.30448 0.56750 0.73539
 H1857 H 0.26669 0.58482 0.67857
 H1858 H 0.25495 0.56204 0.69039
 H1859 H 0.32122 0.58572 0.73403
 H1860 H 0.30950 0.56293 0.74586
 H1861 H 0.32100 0.60605 0.71437
 H1862 H 0.28608 0.60540 0.67882
 H1863 H 0.25331 0.54350 0.71200
 H1864 H 0.28807 0.54407 0.74737
 C1865 C 0.29205 1.08042 0.20814
 C1866 C 0.30510 1.08713 0.21498
 C1867 C 0.31137 1.10062 0.20858
 C1868 C 0.30463 1.10748 0.19546
 C1869 C 0.29162 1.10041 0.18869
 C1870 C 0.28526 1.08694 0.19499
 C1871 C 0.28499 1.06665 0.21522
 C1872 C 0.27152 1.06035 0.20876
 C1873 C 0.26410 1.04811 0.21629
 C1874 C 0.27000 1.04238 0.23021
 C1875 C 0.28383 1.04833 0.23623
 C1876 C 0.29137 1.06056 0.22880
 C1877 C 0.27206 1.08003 0.18859
 C1878 C 0.26529 1.06696 0.19537
 C1879 C 0.31143 1.08041 0.22827
 C1880 C 0.30467 1.06735 0.23508
 H1881 H 0.26674 1.08493 0.17842
 H1882 H 0.25492 1.06220 0.19027
 H1883 H 0.32154 1.08544 0.23364
 H1884 H 0.30971 1.06273 0.24552
 H1885 H 0.32133 1.10581 0.21400
 H1886 H 0.28622 1.10543 0.17864
 H1887 H 0.25324 1.04369 0.21190
 H1888 H 0.28812 1.04407 0.24716
 C1889 C 0.79184 0.58052 0.20843
 C1890 C 0.80486 0.58726 0.21529
 C1891 C 0.81112 0.60075 0.20889
 C1892 C 0.80440 0.60759 0.19575
 C1893 C 0.79138 0.60052 0.18898
 C1894 C 0.78504 0.58704 0.19530
 C1895 C 0.78482 0.56671 0.21548
 C1896 C 0.77136 0.56040 0.20900
 C1897 C 0.76399 0.54811 0.21648
 C1898 C 0.76992 0.54233 0.23037
 C1899 C 0.78373 0.54830 0.23641
 C1900 C 0.79121 0.56060 0.22903
 C1901 C 0.77184 0.58013 0.18890
 C1902 C 0.76510 0.56705 0.19564
 C1903 C 0.81119 0.58054 0.22859
 C1904 C 0.80447 0.56744 0.23536
 H1905 H 0.76650 0.58505 0.17874
 H1906 H 0.75473 0.56228 0.19055
 H1907 H 0.82127 0.58561 0.23398
 H1908 H 0.80951 0.56283 0.24580
 H1909 H 0.82107 0.60596 0.21432
 H1910 H 0.78601 0.60550 0.17891
 H1911 H 0.75314 0.54368 0.21209
 H1912 H 0.78803 0.54402 0.24732
 C1913 C 0.79180 1.08050 0.70833
 C1914 C 0.80482 1.08725 0.71518
 C1915 C 0.81107 1.10074 0.70877
 C1916 C 0.80436 1.10756 0.69563
 C1917 C 0.79136 1.10046 0.68885
 C1918 C 0.78502 1.08698 0.69517
 C1919 C 0.78478 1.06671 0.71542
 C1920 C 0.77133 1.06038 0.70894
 C1921 C 0.76392 1.04813 0.71647
 C1922 C 0.76983 1.04242 0.73040
 C1923 C 0.78363 1.04841 0.73644
 C1924 C 0.79115 1.06065 0.72900
 C1925 C 0.77184 1.08004 0.68876
 C1926 C 0.76510 1.06697 0.69555
 C1927 C 0.81116 1.08056 0.72850
 C1928 C 0.80442 1.06750 0.73531
 H1929 H 0.76653 1.08491 0.67857
 H1930 H 0.75473 1.06219 0.69045
 H1931 H 0.82125 1.08563 0.73386
 H1932 H 0.80947 1.06291 0.74576
 H1933 H 0.82101 1.10596 0.71422
 H1934 H 0.78598 1.10544 0.67878
 H1935 H 0.75307 1.04370 0.71209
 H1936 H 0.78791 1.04418 0.74738
 C1937 C 0.70819 0.58074 0.29159
 C1938 C 0.71472 0.58686 0.30504
 C1939 C 0.70840 0.60032 0.31146
 C1940 C 0.69567 0.60774 0.30449
 C1941 C 0.68927 0.60134 0.29100
 C1942 C 0.69549 0.58788 0.28450
 C1943 C 0.71512 0.56690 0.28449
 C1944 C 0.70897 0.56117 0.27067
 C1945 C 0.71636 0.54880 0.26331
 C1946 C 0.72984 0.54235 0.26963
 C1947 C 0.73553 0.54775 0.28377
 C1948 C 0.72824 0.56013 0.29124
 C1949 C 0.68942 0.58157 0.27090
 C1950 C 0.69605 0.56844 0.26410
 C1951 C 0.72761 0.57953 0.31166
 C1952 C 0.73426 0.56640 0.30487
 H1953 H 0.67961 0.58697 0.26533
 H1954 H 0.69119 0.56413 0.25346
 H1955 H 0.73276 0.58414 0.32205
 H1956 H 0.74437 0.56129 0.31018
 H1957 H 0.71354 0.60499 0.32179
 H1958 H 0.67959 0.60686 0.28536
 H1959 H 0.71226 0.54482 0.25222
 H1960 H 0.74614 0.54297 0.28838
 C1961 C 0.70820 1.08087 0.79177
 C1962 C 0.71503 1.08735 0.80488
 C1963 C 0.70873 1.10085 0.81121
 C1964 C 0.69566 1.10803 0.80451
 C1965 C 0.68895 1.10117 0.79135
 C1966 C 0.69519 1.08767 0.78494
 C1967 C 0.71516 1.06701 0.78472
 C1968 C 0.70874 1.06094 0.77117
 C1969 C 0.71617 1.04859 0.76380
 C1970 C 0.72993 1.04249 0.76986
 C1971 C 0.73589 1.04823 0.78375
 C1972 C 0.72859 1.06060 0.79121
 C1973 C 0.68883 1.08099 0.77163
 C1974 C 0.69551 1.06787 0.76485
 C1975 C 0.72820 1.08035 0.81128
 C1976 C 0.73488 1.06721 0.80455
 H1977 H 0.67876 1.08611 0.76626
 H1978 H 0.69045 1.06331 0.75441
 H1979 H 0.73356 1.08522 0.82144
 H1980 H 0.74523 1.06238 0.80965
 H1981 H 0.71420 1.10570 0.82129
 H1982 H 0.67898 1.10630 0.78586
 H1983 H 0.71185 1.04435 0.75289
 H1984 H 0.74672 1.04373 0.78815
 C1985 C 0.20805 0.58053 0.79154
 C1986 C 0.19537 0.58766 0.78441
 C1987 C 0.18922 0.60121 0.79080
 C1988 C 0.19570 0.60771 0.80421
 C1989 C 0.20835 0.60023 0.81127
 C1990 C 0.21459 0.58670 0.80496
 C1991 C 0.21501 0.56669 0.78448
 C1992 C 0.22816 0.55999 0.79122
 C1993 C 0.23554 0.54768 0.78373
 C1994 C 0.22990 0.54227 0.76958
 C1995 C 0.21637 0.54863 0.76327
 C1996 C 0.20890 0.56094 0.77065
 C1997 C 0.22745 0.57939 0.81164
 C1998 C 0.23414 0.56627 0.80487
 C1999 C 0.18928 0.58128 0.77085
 C2000 C 0.19594 0.56815 0.76408
 H2001 H 0.23258 0.58402 0.82202
 H2002 H 0.24427 0.56120 0.81019
 H2003 H 0.17946 0.58665 0.76526
 H2004 H 0.19111 0.56381 0.75343
 H2005 H 0.17956 0.60673 0.78514
 H2006 H 0.21351 0.60495 0.82156
 H2007 H 0.24619 0.54297 0.78834
 H2008 H 0.21230 0.54463 0.75218
 C2009 C 0.20810 1.08052 0.29169
 C2010 C 0.21487 1.08693 0.30489
 C2011 C 0.20857 1.10043 0.31122
 C2012 C 0.19563 1.10763 0.30441
 C2013 C 0.18892 1.10089 0.29124
 C2014 C 0.19513 1.08738 0.28482
 C2015 C 0.21510 1.06672 0.28459
 C2016 C 0.20875 1.06075 0.27096
 C2017 C 0.21624 1.04849 0.26352
 C2018 C 0.23000 1.04239 0.26958
 C2019 C 0.23588 1.04801 0.28355
 C2020 C 0.22851 1.06028 0.29109
 C2021 C 0.18882 1.08078 0.27146
 C2022 C 0.19553 1.06770 0.26464
 C2023 C 0.22801 1.07988 0.31131
 C2024 C 0.23472 1.06679 0.30452
 H2025 H 0.17878 1.08594 0.26606
 H2026 H 0.19051 1.06318 0.25415
 H2027 H 0.23333 1.08470 0.32152
 H2028 H 0.24505 1.06192 0.30964
 H2029 H 0.21394 1.10535 0.32131
 H2030 H 0.17901 1.10618 0.28578
 H2031 H 0.21197 1.04432 0.25256
 H2032 H 0.24669 1.04347 0.28796
 C2033 C 0.70829 0.41934 0.70850
 C2034 C 0.69534 0.41250 0.71543
 C2035 C 0.68909 0.39903 0.70902
 C2036 C 0.69574 0.39228 0.69580
 C2037 C 0.70868 0.39945 0.68895
 C2038 C 0.71502 0.41291 0.69528
 C2039 C 0.71530 0.43314 0.71555
 C2040 C 0.72868 0.43955 0.70900
 C2041 C 0.73603 0.45187 0.71645
 C2042 C 0.73015 0.45758 0.73040
 C2043 C 0.71643 0.45149 0.73653
 C2044 C 0.70897 0.43916 0.72918
 C2045 C 0.72816 0.41990 0.68882
 C2046 C 0.73489 0.43299 0.69558
 C2047 C 0.68909 0.41912 0.72882
 C2048 C 0.69579 0.43221 0.73558
 H2049 H 0.73346 0.41505 0.67862
 H2050 H 0.74521 0.43782 0.69042
 H2051 H 0.67908 0.41396 0.73427
 H2052 H 0.69080 0.43675 0.74608
 H2053 H 0.67921 0.39374 0.71451
 H2054 H 0.71399 0.39454 0.67881
 H2055 H 0.74682 0.45638 0.71199
 H2056 H 0.71216 0.45571 0.74748
 C2057 C 0.70814 -0.08054 0.20838
 C2058 C 0.71496 -0.08703 0.19524
 C2059 C 0.70863 -0.10049 0.18889
 C2060 C 0.69561 -0.10758 0.19564
 C2061 C 0.68885 -0.10077 0.20877
 C2062 C 0.69510 -0.08729 0.21520
 C2063 C 0.71517 -0.06678 0.21549
 C2064 C 0.70875 -0.06072 0.22906
 C2065 C 0.71625 -0.04848 0.23650
 C2066 C 0.73009 -0.04250 0.23051
 C2067 C 0.73603 -0.04821 0.21659
 C2068 C 0.72864 -0.06045 0.20905
 C2069 C 0.68873 -0.08061 0.22850
 C2070 C 0.69546 -0.06756 0.23533
 C2071 C 0.72818 -0.08010 0.18887
 C2072 C 0.73491 -0.06704 0.19567
 H2073 H 0.67863 -0.08569 0.23386
 H2074 H 0.69039 -0.06298 0.24577
 H2075 H 0.73354 -0.08497 0.17871
 H2076 H 0.74530 -0.06226 0.19059
 H2077 H 0.71405 -0.10548 0.17885
 H2078 H 0.67888 -0.10598 0.21417
 H2079 H 0.71193 -0.04424 0.24743
 H2080 H 0.74689 -0.04376 0.21222
 C2081 C 0.20812 0.41959 0.20820
 C2082 C 0.21493 0.41309 0.19507
 C2083 C 0.20862 0.39959 0.18878
 C2084 C 0.19563 0.39248 0.19557
 C2085 C 0.18886 0.39934 0.20867
 C2086 C 0.19509 0.41285 0.21505
 C2087 C 0.21514 0.43338 0.21527
 C2088 C 0.20874 0.43947 0.22883
 C2089 C 0.21623 0.45173 0.23624
 C2090 C 0.23004 0.45773 0.23021
 C2091 C 0.23598 0.45199 0.21631
 C2092 C 0.22861 0.43971 0.20880
 C2093 C 0.18873 0.41956 0.22834
 C2094 C 0.19545 0.43263 0.23513
 C2095 C 0.22813 0.42002 0.18867
 C2096 C 0.23487 0.43310 0.19543
 H2097 H 0.17864 0.41450 0.23372
 H2098 H 0.19039 0.43724 0.24557
 H2099 H 0.23349 0.41512 0.17851
 H2100 H 0.24524 0.43788 0.19033
 H2101 H 0.21402 0.39459 0.17872
 H2102 H 0.17890 0.39413 0.21410
 H2103 H 0.21192 0.45599 0.24716
 H2104 H 0.24683 0.45644 0.21192
 C2105 C 0.20831 -0.08052 0.70819
 C2106 C 0.21511 -0.08709 0.69509
 C2107 C 0.20866 -0.10049 0.68874
 C2108 C 0.19552 -0.10743 0.69542
 C2109 C 0.18879 -0.10053 0.70852
 C2110 C 0.19515 -0.08711 0.71496
 C2111 C 0.21545 -0.06681 0.71530
 C2112 C 0.20902 -0.06062 0.72880
 C2113 C 0.21658 -0.04841 0.73622
 C2114 C 0.23051 -0.04260 0.73028
 C2115 C 0.23648 -0.04844 0.71643
 C2116 C 0.22902 -0.06064 0.70890
 C2117 C 0.18879 -0.08031 0.72821
 C2118 C 0.19561 -0.06729 0.73501
 C2119 C 0.22842 -0.08031 0.68876
 C2120 C 0.23527 -0.06731 0.69555
 H2121 H 0.17861 -0.08525 0.73353
 H2122 H 0.19052 -0.06259 0.74539
 H2123 H 0.23376 -0.08526 0.67862
 H2124 H 0.24570 -0.06263 0.69048
 H2125 H 0.21405 -0.10552 0.67870
 H2126 H 0.17872 -0.10561 0.71388
 H2127 H 0.21221 -0.04404 0.74707
 H2128 H 0.24739 -0.04409 0.71209
 C2129 C 0.29149 0.29155 0.41963
 C2130 C 0.30474 0.28482 0.41316
 C2131 C 0.31097 0.29110 0.39964
 C2132 C 0.30402 0.30399 0.39250
 C2133 C 0.29078 0.31065 0.39930
 C2134 C 0.28445 0.30444 0.41281
 C2135 C 0.28452 0.28460 0.43348
 C2136 C 0.27085 0.29093 0.43953
 C2137 C 0.26354 0.28350 0.45188
 C2138 C 0.26975 0.26981 0.45797
 C2139 C 0.28376 0.26395 0.45225
 C2140 C 0.29118 0.27127 0.43991
 C2141 C 0.27103 0.31071 0.41946
 C2142 C 0.26433 0.30405 0.43258
 C2143 C 0.31132 0.27175 0.42018
 C2144 C 0.30464 0.26508 0.43331
 H2145 H 0.26550 0.32068 0.41432
 H2146 H 0.25379 0.30902 0.43714
 H2147 H 0.32156 0.26645 0.41531
 H2148 H 0.30988 0.25480 0.43816
 H2149 H 0.32109 0.28574 0.39465
 H2150 H 0.28525 0.32056 0.39410
 H2151 H 0.25253 0.28773 0.45610
 H2152 H 0.28828 0.25318 0.45677
 C2153 C 0.29195 0.79177 -0.08056
 C2154 C 0.30505 0.78492 -0.08720
 C2155 C 0.31126 0.79124 -0.10071
 C2156 C 0.30442 0.80428 -0.10770
 C2157 C 0.29134 0.81107 -0.10071
 C2158 C 0.28505 0.80484 -0.08720
 C2159 C 0.28497 0.78476 -0.06675
 C2160 C 0.27143 0.79121 -0.06053
 C2161 C 0.26409 0.78374 -0.04822
 C2162 C 0.27015 0.76989 -0.04232
 C2163 C 0.28402 0.76389 -0.04823
 C2164 C 0.29147 0.77125 -0.06054
 C2165 C 0.27177 0.81122 -0.08037
 C2166 C 0.26506 0.80451 -0.06728
 C2167 C 0.31149 0.77168 -0.08039
 C2168 C 0.30480 0.76494 -0.06730
 H2169 H 0.26634 0.82133 -0.08537
 H2170 H 0.25463 0.80958 -0.06260
 H2171 H 0.32162 0.76629 -0.08539
 H2172 H 0.30991 0.75453 -0.06262
 H2173 H 0.32128 0.78581 -0.10581
 H2174 H 0.28587 0.82107 -0.10581
 H2175 H 0.25318 0.78808 -0.04387
 H2176 H 0.28841 0.75299 -0.04389
 C2177 C 0.79149 0.29202 -0.08036
 C2178 C 0.80458 0.28517 -0.08701
 C2179 C 0.81078 0.29149 -0.10053
 C2180 C 0.80391 0.30452 -0.10753
 C2181 C 0.79088 0.31134 -0.10050
 C2182 C 0.78460 0.30510 -0.08697
 C2183 C 0.78449 0.28498 -0.06656
 C2184 C 0.77095 0.29141 -0.06034
 C2185 C 0.76360 0.28391 -0.04806
 C2186 C 0.76964 0.27004 -0.04221
 C2187 C 0.78352 0.26406 -0.04810
 C2188 C 0.79098 0.27145 -0.06038
 C2189 C 0.77133 0.31149 -0.08013
 C2190 C 0.76461 0.30474 -0.06706
 C2191 C 0.81102 0.27191 -0.08021
 C2192 C 0.80432 0.26515 -0.06714
 H2193 H 0.76591 0.32161 -0.08510
 H2194 H 0.75417 0.30981 -0.06237
 H2195 H 0.82115 0.26653 -0.08522
 H2196 H 0.80943 0.25473 -0.06248
 H2197 H 0.82080 0.28606 -0.10564
 H2198 H 0.78541 0.32135 -0.10558
 H2199 H 0.75268 0.28825 -0.04371
 H2200 H 0.78791 0.25316 -0.04377
 C2201 C 0.79155 0.79196 0.41978
 C2202 C 0.80466 0.78512 0.41315
 C2203 C 0.81086 0.79143 0.39963
 C2204 C 0.80401 0.80446 0.39264
 C2205 C 0.79093 0.81125 0.39962
 C2206 C 0.78464 0.80502 0.41314
 C2207 C 0.78457 0.78495 0.43360
 C2208 C 0.77102 0.79139 0.43981
 C2209 C 0.76367 0.78390 0.45210
 C2210 C 0.76972 0.77004 0.45798
 C2211 C 0.78362 0.76406 0.45210
 C2212 C 0.79108 0.77145 0.43982
 C2213 C 0.77138 0.81142 0.41998
 C2214 C 0.76467 0.80470 0.43307
 C2215 C 0.81112 0.77189 0.41999
 C2216 C 0.80443 0.76516 0.43309
 H2217 H 0.76596 0.82153 0.41499
 H2218 H 0.75425 0.80979 0.43777
 H2219 H 0.82127 0.76652 0.41501
 H2220 H 0.80957 0.75477 0.43779
 H2221 H 0.82089 0.78600 0.39453
 H2222 H 0.78546 0.82124 0.39451
 H2223 H 0.75275 0.78824 0.45645
 H2224 H 0.78802 0.75318 0.45646
 C2225 C 0.70821 0.29164 0.58023
 C2226 C 0.69514 0.28480 0.58690
 C2227 C 0.68897 0.29109 0.60044
 C2228 C 0.69583 0.30411 0.60741
 C2229 C 0.70887 0.31090 0.60040
 C2230 C 0.71512 0.30470 0.58685
 C2231 C 0.71516 0.28465 0.56639
 C2232 C 0.72867 0.29110 0.56014
 C2233 C 0.73601 0.28361 0.54784
 C2234 C 0.72999 0.26974 0.54200
 C2235 C 0.71611 0.26378 0.54790
 C2236 C 0.70866 0.27116 0.56019
 C2237 C 0.72835 0.31110 0.57998
 C2238 C 0.73502 0.30440 0.56686
 C2239 C 0.68868 0.27158 0.58008
 C2240 C 0.69534 0.26487 0.56696
 H2241 H 0.73376 0.32120 0.58495
 H2242 H 0.74542 0.30949 0.56213
 H2243 H 0.67856 0.26622 0.58509
 H2244 H 0.69021 0.25448 0.56228
 H2245 H 0.67898 0.28565 0.60557
 H2246 H 0.71435 0.32088 0.60549
 H2247 H 0.74690 0.28796 0.54346
 H2248 H 0.71171 0.25290 0.54356
 C2249 C 0.70827 0.79175 1.08035
 C2250 C 0.69519 0.78489 1.08699
 C2251 C 0.68897 0.79119 1.10051
 C2252 C 0.69580 0.80420 1.10750
 C2253 C 0.70886 0.81100 1.10052
 C2254 C 0.71516 0.80480 1.08700
 C2255 C 0.71528 0.78476 1.06654
 C2256 C 0.72881 0.79120 1.06034
 C2257 C 0.73618 0.78373 1.04805
 C2258 C 0.73016 0.76989 1.04216
 C2259 C 0.71629 0.76389 1.04804
 C2260 C 0.70881 0.77126 1.06033
 C2261 C 0.72841 0.81120 1.08018
 C2262 C 0.73514 0.80450 1.06708
 C2263 C 0.68877 0.77167 1.08016
 C2264 C 0.69548 0.76495 1.06706
 H2265 H 0.73382 0.82130 1.08517
 H2266 H 0.74556 0.80958 1.06240
 H2267 H 0.67864 0.76628 1.08514
 H2268 H 0.69038 0.75455 1.06237
 H2269 H 0.67896 0.78575 1.10561
 H2270 H 0.71432 0.82098 1.10563
 H2271 H 0.74710 0.78807 1.04371
 H2272 H 0.71192 0.75300 1.04370
 C2273 C 0.20825 0.29177 1.08028
 C2274 C 0.19517 0.28492 1.08692
 C2275 C 0.18895 0.29124 1.10043
 C2276 C 0.19576 0.30428 1.10740
 C2277 C 0.20883 0.31106 1.10042
 C2278 C 0.21514 0.30483 1.08691
 C2279 C 0.21525 0.28477 1.06647
 C2280 C 0.22877 0.29122 1.06025
 C2281 C 0.23614 0.28373 1.04796
 C2282 C 0.23012 0.26987 1.04210
 C2283 C 0.21623 0.26390 1.04797
 C2284 C 0.20876 0.27127 1.06026
 C2285 C 0.22840 0.31122 1.08008
 C2286 C 0.23511 0.30452 1.06698
 C2287 C 0.18874 0.27169 1.08010
 C2288 C 0.19544 0.26497 1.06701
 H2289 H 0.23380 0.32132 1.08507
 H2290 H 0.24553 0.30960 1.06229
 H2291 H 0.17862 0.26631 1.08510
 H2292 H 0.19033 0.25457 1.06232
 H2293 H 0.17893 0.28581 1.10553
 H2294 H 0.21429 0.32104 1.10552
 H2295 H 0.24704 0.28808 1.04361
 H2296 H 0.21185 0.25302 1.04362
 C2297 C 0.20816 0.79185 0.58012
 C2298 C 0.21486 0.80509 0.58658
 C2299 C 0.20853 0.81132 0.60007
 C2300 C 0.19566 0.80435 0.60722
 C2301 C 0.18900 0.79116 0.60040
 C2302 C 0.19524 0.78483 0.58690
 C2303 C 0.21521 0.78482 0.56635
 C2304 C 0.20893 0.77115 0.56032
 C2305 C 0.21644 0.76380 0.54805
 C2306 C 0.23017 0.76996 0.54203
 C2307 C 0.23601 0.78396 0.54774
 C2308 C 0.22860 0.79143 0.56000
 C2309 C 0.18901 0.77142 0.58026
 C2310 C 0.19575 0.76468 0.56720
 C2311 C 0.22797 0.81163 0.57963
 C2312 C 0.23474 0.80490 0.56657
 H2313 H 0.17902 0.76590 0.58538
 H2314 H 0.19081 0.75414 0.56265
 H2315 H 0.23323 0.82187 0.58449
 H2316 H 0.24506 0.81010 0.56178
 H2317 H 0.21383 0.82147 0.60504
 H2318 H 0.17912 0.78559 0.60562
 H2319 H 0.21221 0.75281 0.54382
 H2320 H 0.24682 0.78844 0.54328
 C2321 C 0.29180 0.70837 0.58026
 C2322 C 0.30487 0.71522 0.58691
 C2323 C 0.31108 0.70890 0.60042
 C2324 C 0.30427 0.69584 0.60738
 C2325 C 0.29122 0.68905 0.60039
 C2326 C 0.28493 0.69529 0.58688
 C2327 C 0.28482 0.71538 0.56645
 C2328 C 0.27131 0.70892 0.56021
 C2329 C 0.26396 0.71641 0.54792
 C2330 C 0.26998 0.73027 0.54205
 C2331 C 0.28384 0.73627 0.54795
 C2332 C 0.29129 0.72890 0.56025
 C2333 C 0.27169 0.68889 0.58004
 C2334 C 0.26499 0.69560 0.56694
 C2335 C 0.31129 0.72847 0.58010
 C2336 C 0.30460 0.73521 0.56701
 H2337 H 0.26630 0.67877 0.58501
 H2338 H 0.25458 0.69051 0.56224
 H2339 H 0.32141 0.73385 0.58511
 H2340 H 0.30970 0.74562 0.56233
 H2341 H 0.32108 0.71433 0.60554
 H2342 H 0.28577 0.67905 0.60548
 H2343 H 0.25307 0.71205 0.54356
 H2344 H 0.28820 0.74717 0.54362
 C2345 C 0.29180 0.20828 1.08034
 C2346 C 0.30487 0.21516 1.08695
 C2347 C 0.31112 0.20887 1.10046
 C2348 C 0.30434 0.19582 1.10746
 C2349 C 0.29129 0.18899 1.10050
 C2350 C 0.28495 0.19520 1.08699
 C2351 C 0.28477 0.21526 1.06653
 C2352 C 0.27126 0.20877 1.06033
 C2353 C 0.26388 0.21622 1.04804
 C2354 C 0.26986 0.23008 1.04213
 C2355 C 0.28372 0.23611 1.04799
 C2356 C 0.29121 0.22877 1.06029
 C2357 C 0.27171 0.18877 1.08019
 C2358 C 0.26496 0.19546 1.06710
 C2359 C 0.31125 0.22841 1.08011
 C2360 C 0.30452 0.23511 1.06702
 H2361 H 0.26634 0.17866 1.08520
 H2362 H 0.25455 0.19035 1.06243
 H2363 H 0.32136 0.23382 1.08509
 H2364 H 0.30959 0.24553 1.06231
 H2365 H 0.32113 0.21432 1.10554
 H2366 H 0.28586 0.17898 1.10561
 H2367 H 0.25298 0.21184 1.04370
 H2368 H 0.28807 0.24700 1.04362
 C2369 C 0.79177 0.70821 1.08029
 C2370 C 0.80485 0.71508 1.08692
 C2371 C 0.81104 0.70880 1.10045
 C2372 C 0.80421 0.69578 1.10745
 C2373 C 0.79117 0.68896 1.10047
 C2374 C 0.78489 0.69515 1.08694
 C2375 C 0.78477 0.71521 1.06648
 C2376 C 0.77124 0.70875 1.06028
 C2377 C 0.76387 0.71624 1.04801
 C2378 C 0.76988 0.73010 1.04213
 C2379 C 0.78375 0.73609 1.04798
 C2380 C 0.79124 0.72872 1.06026
 C2381 C 0.77165 0.68874 1.08012
 C2382 C 0.76492 0.69544 1.06703
 C2383 C 0.81127 0.72831 1.08008
 C2384 C 0.80456 0.73503 1.06698
 H2385 H 0.76625 0.67863 1.08512
 H2386 H 0.75451 0.69036 1.06235
 H2387 H 0.82138 0.73370 1.08506
 H2388 H 0.80965 0.74544 1.06229
 H2389 H 0.82104 0.71425 1.10555
 H2390 H 0.78571 0.67898 1.10559
 H2391 H 0.75296 0.71189 1.04367
 H2392 H 0.78811 0.74698 1.04363
 C2393 C 0.79171 0.20808 0.58016
 C2394 C 0.80479 0.21495 0.58676
 C2395 C 0.81104 0.20866 0.60026
 C2396 C 0.80425 0.19562 0.60726
 C2397 C 0.79119 0.18880 0.60032
 C2398 C 0.78485 0.19501 0.58682
 C2399 C 0.78467 0.21507 0.56636
 C2400 C 0.77115 0.20860 0.56018
 C2401 C 0.76374 0.21606 0.54791
 C2402 C 0.76973 0.22993 0.54202
 C2403 C 0.78362 0.23593 0.54784
 C2404 C 0.79112 0.22857 0.56012
 C2405 C 0.77160 0.18859 0.58003
 C2406 C 0.76485 0.19528 0.56694
 C2407 C 0.81119 0.22818 0.57990
 C2408 C 0.80446 0.23489 0.56681
 H2409 H 0.76622 0.17847 0.58504
 H2410 H 0.75444 0.19017 0.56227
 H2411 H 0.82132 0.23358 0.58486
 H2412 H 0.80955 0.24528 0.56209
 H2413 H 0.82105 0.21410 0.60534
 H2414 H 0.78575 0.17881 0.60544
 H2415 H 0.75284 0.21169 0.54358
 H2416 H 0.78798 0.24681 0.54346
 C2417 C 0.70815 0.70827 0.41992
 C2418 C 0.71504 0.69518 0.41330
 C2419 C 0.70875 0.68896 0.39979
 C2420 C 0.69573 0.69580 0.39277
 C2421 C 0.68886 0.70882 0.39976
 C2422 C 0.69506 0.71513 0.41327
 C2423 C 0.71516 0.71530 0.43370
 C2424 C 0.70869 0.72884 0.43987
 C2425 C 0.71617 0.73623 0.45213
 C2426 C 0.73005 0.73024 0.45802
 C2427 C 0.73607 0.71636 0.45217
 C2428 C 0.72870 0.70886 0.43991
 C2429 C 0.68864 0.72839 0.42007
 C2430 C 0.69536 0.73514 0.43313
 C2431 C 0.72831 0.68879 0.42013
 C2432 C 0.73504 0.69553 0.43320
 H2433 H 0.67852 0.73378 0.41506
 H2434 H 0.69026 0.74558 0.43778
 H2435 H 0.73372 0.67867 0.41516
 H2436 H 0.74548 0.69045 0.43787
 H2437 H 0.71421 0.67895 0.39470
 H2438 H 0.67885 0.71426 0.39465
 H2439 H 0.71179 0.74713 0.45646
 H2440 H 0.74698 0.71200 0.45653
 C2441 C 0.70833 0.20817 -0.08035
 C2442 C 0.69524 0.21501 -0.08702
 C2443 C 0.68907 0.20867 -0.10052
 C2444 C 0.69594 0.19563 -0.10747
 C2445 C 0.70899 0.18884 -0.10044
 C2446 C 0.71526 0.19510 -0.08694
 C2447 C 0.71530 0.21522 -0.06655
 C2448 C 0.72883 0.20880 -0.06031
 C2449 C 0.73615 0.21631 -0.04803
 C2450 C 0.73007 0.23017 -0.04219
 C2451 C 0.71621 0.23615 -0.04812
 C2452 C 0.70878 0.22875 -0.06040
 C2453 C 0.72852 0.18873 -0.08008
 C2454 C 0.73521 0.19548 -0.06701
 C2455 C 0.68879 0.22827 -0.08026
 C2456 C 0.69546 0.23504 -0.06718
 H2457 H 0.73396 0.17862 -0.08504
 H2458 H 0.74564 0.19043 -0.06230
 H2459 H 0.67866 0.23364 -0.08528
 H2460 H 0.69033 0.24546 -0.06255
 H2461 H 0.67906 0.21409 -0.10565
 H2462 H 0.71448 0.17884 -0.10551
 H2463 H 0.74705 0.21198 -0.04365
 H2464 H 0.71180 0.24705 -0.04381
 C2465 C 0.20841 0.70821 -0.08025
 C2466 C 0.21526 0.69510 -0.08686
 C2467 C 0.20889 0.68884 -0.10030
 C2468 C 0.19580 0.69564 -0.10725
 C2469 C 0.18902 0.70872 -0.10030
 C2470 C 0.19530 0.71507 -0.08685
 C2471 C 0.21548 0.71525 -0.06651
 C2472 C 0.20903 0.72879 -0.06032
 C2473 C 0.21654 0.73618 -0.04809
 C2474 C 0.23044 0.73017 -0.04226
 C2475 C 0.23644 0.71629 -0.04811
 C2476 C 0.22903 0.70880 -0.06033
 C2477 C 0.18891 0.72834 -0.08005
 C2478 C 0.19567 0.73510 -0.06702
 C2479 C 0.22854 0.68870 -0.08007
 C2480 C 0.23532 0.69545 -0.06704
 H2481 H 0.17876 0.73373 -0.08501
 H2482 H 0.19059 0.74553 -0.06234
 H2483 H 0.23392 0.67856 -0.08504
 H2484 H 0.24576 0.69036 -0.06238
 H2485 H 0.21432 0.67881 -0.10539
 H2486 H 0.17899 0.71416 -0.10537
 H2487 H 0.21218 0.74709 -0.04374
 H2488 H 0.24735 0.71193 -0.04378
 C2489 C 0.20830 0.20822 0.41977
 C2490 C 0.21518 0.19514 0.41313
 C2491 C 0.20887 0.18893 0.39963
 C2492 C 0.19582 0.19575 0.39265
 C2493 C 0.18900 0.20881 0.39963
 C2494 C 0.19522 0.21511 0.41313
 C2495 C 0.21529 0.21520 0.43358
 C2496 C 0.20881 0.22872 0.43979
 C2497 C 0.21626 0.23605 0.45210
 C2498 C 0.23013 0.23002 0.45799
 C2499 C 0.23615 0.21616 0.45210
 C2500 C 0.22881 0.20872 0.43980
 C2501 C 0.18881 0.22836 0.41995
 C2502 C 0.19550 0.23506 0.43304
 C2503 C 0.22844 0.18872 0.41996
 C2504 C 0.23515 0.19541 0.43305
 H2505 H 0.17869 0.23377 0.41495
 H2506 H 0.19040 0.24548 0.43773
 H2507 H 0.23385 0.17861 0.41496
 H2508 H 0.24557 0.19031 0.43774
 H2509 H 0.21433 0.17892 0.39453
 H2510 H 0.17899 0.21426 0.39452
 H2511 H 0.21189 0.24694 0.45645
 H2512 H 0.24705 0.21178 0.45646
 C2513 C 0.29182 0.41935 0.70852
 C2514 C 0.28525 0.41318 0.69512
 C2515 C 0.29152 0.39968 0.68875
 C2516 C 0.30422 0.39224 0.69576
 C2517 C 0.31070 0.39872 0.70917
 C2518 C 0.30454 0.41223 0.71560
 C2519 C 0.28490 0.43319 0.71561
 C2520 C 0.29108 0.43895 0.72941
 C2521 C 0.28366 0.45129 0.73678
 C2522 C 0.27012 0.45767 0.73050
 C2523 C 0.26442 0.45224 0.71638
 C2524 C 0.27174 0.43990 0.70890
 C2525 C 0.31066 0.41859 0.72916
 C2526 C 0.30404 0.43172 0.73595
 C2527 C 0.27235 0.42048 0.68850
 C2528 C 0.26569 0.43360 0.69529
 H2529 H 0.32050 0.41320 0.73471
 H2530 H 0.30891 0.43605 0.74658
 H2531 H 0.26717 0.41585 0.67814
 H2532 H 0.25554 0.43867 0.69002
 H2533 H 0.28635 0.39496 0.67846
 H2534 H 0.32039 0.39322 0.71480
 H2535 H 0.28778 0.45531 0.74786
 H2536 H 0.25377 0.45698 0.71181
 C2537 C 0.29195 0.91961 0.20834
 C2538 C 0.28541 0.91343 0.19494
 C2539 C 0.29168 0.89992 0.18861
 C2540 C 0.30437 0.89249 0.19563
 C2541 C 0.31083 0.89898 0.20906
 C2542 C 0.30465 0.91251 0.21546
 C2543 C 0.28499 0.93346 0.21540
 C2544 C 0.29112 0.93923 0.22921
 C2545 C 0.28364 0.95155 0.23657
 C2546 C 0.27011 0.95788 0.23027
 C2547 C 0.26446 0.95246 0.21612
 C2548 C 0.27184 0.94014 0.20865
 C2549 C 0.31075 0.91890 0.22902
 C2550 C 0.30409 0.93203 0.23578
 C2551 C 0.27253 0.92072 0.18827
 C2552 C 0.26584 0.93384 0.19502
 H2553 H 0.32058 0.91354 0.23460
 H2554 H 0.30893 0.93639 0.24642
 H2555 H 0.26739 0.91607 0.17790
 H2556 H 0.25571 0.93889 0.18971
 H2557 H 0.28653 0.89521 0.17830
 H2558 H 0.32052 0.89349 0.21470
 H2559 H 0.28774 0.95558 0.24765
 H2560 H 0.25382 0.95718 0.21150
 C2561 C 0.79197 0.41975 0.20812
 C2562 C 0.80498 0.41291 0.21495
 C2563 C 0.81123 0.39945 0.20847
 C2564 C 0.80452 0.39272 0.19529
 C2565 C 0.79154 0.39990 0.18853
 C2566 C 0.78520 0.41335 0.19492
 C2567 C 0.78494 0.43350 0.21528
 C2568 C 0.77150 0.43992 0.20882
 C2569 C 0.76413 0.45218 0.21638
 C2570 C 0.77005 0.45782 0.23033
 C2571 C 0.78382 0.45173 0.23636
 C2572 C 0.79131 0.43947 0.22890
 C2573 C 0.77201 0.42036 0.18856
 C2574 C 0.76527 0.43341 0.19540
 C2575 C 0.81129 0.41949 0.22832
 C2576 C 0.80456 0.43253 0.23519
 H2577 H 0.76668 0.41555 0.17836
 H2578 H 0.75491 0.43825 0.19032
 H2579 H 0.82135 0.41434 0.23369
 H2580 H 0.80958 0.43703 0.24568
 H2581 H 0.82117 0.39418 0.21389
 H2582 H 0.78616 0.39498 0.17844
 H2583 H 0.75330 0.45669 0.21199
 H2584 H 0.78811 0.45590 0.24731
 C2585 C 0.79191 0.91987 0.70822
 C2586 C 0.80492 0.91305 0.71507
 C2587 C 0.81117 0.89956 0.70863
 C2588 C 0.80447 0.89281 0.69546
 C2589 C 0.79149 0.89998 0.68868
 C2590 C 0.78515 0.91345 0.69503
 C2591 C 0.78488 0.93364 0.71535
 C2592 C 0.77144 0.94004 0.70888
 C2593 C 0.76404 0.95229 0.71644
 C2594 C 0.76991 0.95791 0.73041
 C2595 C 0.78371 0.95186 0.73644
 C2596 C 0.79123 0.93963 0.72897
 C2597 C 0.77199 0.92048 0.68862
 C2598 C 0.76525 0.93354 0.69543
 C2599 C 0.81124 0.91967 0.72842
 C2600 C 0.80450 0.93273 0.73526
 H2601 H 0.76669 0.91567 0.67840
 H2602 H 0.75492 0.93840 0.69031
 H2603 H 0.82132 0.91455 0.73378
 H2604 H 0.80953 0.93726 0.74573
 H2605 H 0.82110 0.89430 0.71407
 H2606 H 0.78611 0.89504 0.67859
 H2607 H 0.75322 0.95680 0.71204
 H2608 H 0.78798 0.95603 0.74739
 C2609 C 0.70806 0.58040 0.70854
 C2610 C 0.71452 0.58652 0.69505
 C2611 C 0.70818 0.59998 0.68866
 C2612 C 0.69552 0.60745 0.69572
 C2613 C 0.68913 0.60100 0.70920
 C2614 C 0.69537 0.58753 0.71567
 C2615 C 0.71508 0.56661 0.71566
 C2616 C 0.70902 0.56091 0.72954
 C2617 C 0.71650 0.54860 0.73692
 C2618 C 0.72999 0.54219 0.73056
 C2619 C 0.73560 0.54758 0.71638
 C2620 C 0.72821 0.55990 0.70889
 C2621 C 0.68937 0.58122 0.72932
 C2622 C 0.69609 0.56814 0.73614
 C2623 C 0.72740 0.57922 0.68839
 C2624 C 0.73415 0.56615 0.69520
 H2625 H 0.67957 0.58660 0.73493
 H2626 H 0.69131 0.56385 0.74684
 H2627 H 0.73250 0.58382 0.67796
 H2628 H 0.74427 0.56108 0.68987
 H2629 H 0.71329 0.60466 0.67831
 H2630 H 0.67946 0.60651 0.71487
 H2631 H 0.71246 0.54462 0.74804
 H2632 H 0.74622 0.54284 0.71174
 C2633 C 0.70834 0.08004 0.20805
 C2634 C 0.71536 0.08681 0.19516
 C2635 C 0.70896 0.10028 0.18886
 C2636 C 0.69567 0.10710 0.19539
 C2637 C 0.68870 0.09998 0.20825
 C2638 C 0.69502 0.08649 0.21464
 C2639 C 0.71544 0.06627 0.21514
 C2640 C 0.70881 0.05991 0.22846
 C2641 C 0.71634 0.04767 0.23592
 C2642 C 0.73043 0.04200 0.23018
 C2643 C 0.73661 0.04803 0.21650
 C2644 C 0.72918 0.06026 0.20894
 C2645 C 0.68845 0.07951 0.22770
 C2646 C 0.69524 0.06645 0.23450
 C2647 C 0.72883 0.08017 0.18901
 C2648 C 0.73564 0.06712 0.19580
 H2649 H 0.67814 0.08435 0.23287
 H2650 H 0.69000 0.06164 0.24475
 H2651 H 0.73434 0.08527 0.17903
 H2652 H 0.74622 0.06258 0.19090
 H2653 H 0.71454 0.10549 0.17902
 H2654 H 0.67851 0.10496 0.21347
 H2655 H 0.71182 0.04318 0.24666
 H2656 H 0.74765 0.04382 0.21234
 C2657 C 0.20796 0.58049 0.20825
 C2658 C 0.21445 0.58661 0.19477
 C2659 C 0.20810 0.60005 0.18835
 C2660 C 0.19540 0.60750 0.19536
 C2661 C 0.18901 0.60108 0.20886
 C2662 C 0.19526 0.58762 0.21536
 C2663 C 0.21496 0.56670 0.21538
 C2664 C 0.20888 0.56100 0.22925
 C2665 C 0.21634 0.54870 0.23664
 C2666 C 0.22983 0.54229 0.23031
 C2667 C 0.23547 0.54766 0.21613
 C2668 C 0.22810 0.55998 0.20863
 C2669 C 0.18924 0.58133 0.22900
 C2670 C 0.19595 0.56825 0.23584
 C2671 C 0.22734 0.57931 0.18813
 C2672 C 0.23407 0.56624 0.19496
 H2673 H 0.17944 0.58671 0.23460
 H2674 H 0.19116 0.56396 0.24653
 H2675 H 0.23246 0.58391 0.17772
 H2676 H 0.24421 0.56117 0.18965
 H2677 H 0.21321 0.60472 0.17799
 H2678 H 0.17932 0.60658 0.21449
 H2679 H 0.21228 0.54473 0.24776
 H2680 H 0.24609 0.54291 0.21151
 C2681 C 0.20811 0.08018 0.70864
 C2682 C 0.21461 0.08635 0.69520
 C2683 C 0.20831 0.09985 0.68886
 C2684 C 0.19564 0.10729 0.69590
 C2685 C 0.18921 0.10080 0.70935
 C2686 C 0.19541 0.08729 0.71578
 C2687 C 0.21509 0.06634 0.71570
 C2688 C 0.20899 0.06057 0.72954
 C2689 C 0.21647 0.04825 0.73689
 C2690 C 0.22999 0.04190 0.73056
 C2691 C 0.23561 0.04732 0.71639
 C2692 C 0.22823 0.05964 0.70893
 C2693 C 0.18936 0.08091 0.72937
 C2694 C 0.19604 0.06778 0.73614
 C2695 C 0.22749 0.07906 0.68852
 C2696 C 0.23419 0.06595 0.69527
 H2697 H 0.17955 0.08627 0.73499
 H2698 H 0.19123 0.06343 0.74680
 H2699 H 0.23261 0.08371 0.67813
 H2700 H 0.24432 0.06089 0.68994
 H2701 H 0.21345 0.10455 0.67853
 H2702 H 0.17954 0.10631 0.71502
 H2703 H 0.21241 0.04423 0.74799
 H2704 H 0.24624 0.04260 0.71175
 C2705 C 0.29168 0.58038 0.29176
 C2706 C 0.28468 0.58712 0.30468
 C2707 C 0.29112 0.60053 0.31104
 C2708 C 0.30443 0.60731 0.30454
 C2709 C 0.31134 0.60026 0.29161
 C2710 C 0.30499 0.58684 0.28517
 C2711 C 0.28462 0.56661 0.28468
 C2712 C 0.29126 0.56026 0.27135
 C2713 C 0.28378 0.54799 0.26393
 C2714 C 0.26974 0.54227 0.26972
 C2715 C 0.26356 0.54828 0.28340
 C2716 C 0.27093 0.56055 0.29092
 C2717 C 0.31154 0.57989 0.27208
 C2718 C 0.30478 0.56684 0.26528
 C2719 C 0.27122 0.58047 0.31083
 C2720 C 0.26445 0.56742 0.30406
 H2721 H 0.32183 0.58475 0.26689
 H2722 H 0.31002 0.56204 0.25502
 H2723 H 0.26571 0.58556 0.32081
 H2724 H 0.25389 0.56285 0.30897
 H2725 H 0.28556 0.60571 0.32091
 H2726 H 0.32152 0.60524 0.28639
 H2727 H 0.28829 0.54352 0.25318
 H2728 H 0.25256 0.54403 0.28760
 C2729 C 0.29184 0.08027 0.79167
 C2730 C 0.30484 0.08705 0.78481
 C2731 C 0.31107 0.10055 0.79121
 C2732 C 0.30435 0.10735 0.80435
 C2733 C 0.29135 0.10023 0.81114
 C2734 C 0.28504 0.08675 0.80483
 C2735 C 0.28486 0.06644 0.78463
 C2736 C 0.27143 0.06007 0.79113
 C2737 C 0.26411 0.04774 0.78367
 C2738 C 0.27007 0.04197 0.76978
 C2739 C 0.28384 0.04802 0.76371
 C2740 C 0.29127 0.06036 0.77107
 C2741 C 0.27185 0.07979 0.81123
 C2742 C 0.26515 0.06669 0.80449
 C2743 C 0.31118 0.08037 0.77148
 C2744 C 0.30450 0.06726 0.76472
 H2745 H 0.26650 0.08468 0.82139
 H2746 H 0.25479 0.06189 0.80959
 H2747 H 0.32123 0.08548 0.76607
 H2748 H 0.30955 0.06268 0.75427
 H2749 H 0.32101 0.10578 0.78576
 H2750 H 0.28598 0.10518 0.82123
 H2751 H 0.25328 0.04325 0.78807
 H2752 H 0.28817 0.04376 0.75280
 C2753 C 0.79192 0.58033 0.79171
 C2754 C 0.78515 0.58680 0.80489
 C2755 C 0.79149 0.60027 0.81121
 C2756 C 0.80447 0.60739 0.80439
 C2757 C 0.81115 0.60060 0.79122
 C2758 C 0.80490 0.58712 0.78481
 C2759 C 0.78491 0.56652 0.78466
 C2760 C 0.79128 0.56046 0.77107
 C2761 C 0.78382 0.54815 0.76371
 C2762 C 0.77006 0.54210 0.76980
 C2763 C 0.76415 0.54784 0.78372
 C2764 C 0.77150 0.56015 0.79118
 C2765 C 0.81120 0.58046 0.77147
 C2766 C 0.80450 0.56737 0.76470
 C2767 C 0.77198 0.57984 0.81132
 C2768 C 0.76526 0.56675 0.80457
 H2769 H 0.82124 0.58558 0.76604
 H2770 H 0.80952 0.56280 0.75423
 H2771 H 0.76666 0.58471 0.82150
 H2772 H 0.75491 0.56194 0.80970
 H2773 H 0.78616 0.60521 0.82132
 H2774 H 0.82108 0.60585 0.78575
 H2775 H 0.78811 0.54391 0.75278
 H2776 H 0.75333 0.54335 0.78815
 C2777 C 0.79217 0.08024 0.29145
 C2778 C 0.80476 0.08743 0.28424
 C2779 C 0.81093 0.10095 0.29064
 C2780 C 0.80456 0.10737 0.30416
 C2781 C 0.79198 0.09986 0.31127
 C2782 C 0.78572 0.08635 0.30495
 C2783 C 0.78522 0.06639 0.28442
 C2784 C 0.77216 0.05963 0.29128
 C2785 C 0.76480 0.04730 0.28384
 C2786 C 0.77035 0.04194 0.26962
 C2787 C 0.78380 0.04835 0.26322
 C2788 C 0.79125 0.06068 0.27054
 C2789 C 0.77294 0.07899 0.31172
 C2790 C 0.76627 0.06586 0.30499
 C2791 C 0.81075 0.08110 0.27059
 C2792 C 0.80411 0.06795 0.26386
 H2793 H 0.76788 0.08358 0.32216
 H2794 H 0.75622 0.06075 0.31040
 H2795 H 0.82050 0.08650 0.26491
 H2796 H 0.80888 0.06364 0.25316
 H2797 H 0.82053 0.10651 0.28491
 H2798 H 0.78691 0.10451 0.32165
 H2799 H 0.75423 0.04252 0.28854
 H2800 H 0.78782 0.04436 0.25209
 C2801 C 0.70819 0.41951 0.29159
 C2802 C 0.71492 0.41306 0.30479
 C2803 C 0.70856 0.39960 0.31113
 C2804 C 0.69562 0.39246 0.30429
 C2805 C 0.68896 0.39923 0.29109
 C2806 C 0.69522 0.41271 0.28468
 C2807 C 0.71522 0.43331 0.28452
 C2808 C 0.70888 0.43935 0.27091
 C2809 C 0.71635 0.45167 0.26356
 C2810 C 0.73008 0.45775 0.26968
 C2811 C 0.73597 0.45201 0.28361
 C2812 C 0.72861 0.43969 0.29106
 C2813 C 0.68897 0.41935 0.27130
 C2814 C 0.69569 0.43243 0.26452
 C2815 C 0.72808 0.42002 0.31123
 C2816 C 0.73482 0.43310 0.30447
 H2817 H 0.67895 0.41422 0.26586
 H2818 H 0.69071 0.43699 0.25403
 H2819 H 0.73339 0.41514 0.32142
 H2820 H 0.74516 0.43790 0.30960
 H2821 H 0.71387 0.39467 0.32126
 H2822 H 0.67906 0.39397 0.28561
 H2823 H 0.71209 0.45591 0.25261
 H2824 H 0.74677 0.45651 0.28805
 C2825 C 0.70801 0.91972 0.79184
 C2826 C 0.69502 0.91293 0.78495
 C2827 C 0.68879 0.89942 0.79134
 C2828 C 0.69548 0.89261 0.80450
 C2829 C 0.70844 0.89975 0.81132
 C2830 C 0.71476 0.91325 0.80502
 C2831 C 0.71502 0.93353 0.78477
 C2832 C 0.72843 0.93991 0.79129
 C2833 C 0.73581 0.95220 0.78379
 C2834 C 0.72994 0.95789 0.76984
 C2835 C 0.71617 0.95186 0.76377
 C2836 C 0.70867 0.93958 0.77117
 C2837 C 0.72790 0.92024 0.81147
 C2838 C 0.73462 0.93334 0.80472
 C2839 C 0.68871 0.91962 0.77162
 C2840 C 0.69542 0.93271 0.76484
 H2841 H 0.73320 0.91538 0.82168
 H2842 H 0.74493 0.93818 0.80987
 H2843 H 0.67864 0.91453 0.76623
 H2844 H 0.69038 0.93730 0.75439
 H2845 H 0.67887 0.89419 0.78587
 H2846 H 0.71381 0.89477 0.82140
 H2847 H 0.74661 0.95669 0.78823
 H2848 H 0.71189 0.95609 0.75282
 C2849 C 0.20788 0.41951 0.79151
 C2850 C 0.21440 0.41329 0.80492
 C2851 C 0.20811 0.39978 0.81124
 C2852 C 0.19546 0.39236 0.80417
 C2853 C 0.18898 0.39892 0.79078
 C2854 C 0.19517 0.41245 0.78439
 C2855 C 0.21488 0.43332 0.78443
 C2856 C 0.20878 0.43911 0.77061
 C2857 C 0.21628 0.45140 0.76324
 C2858 C 0.22982 0.45771 0.76955
 C2859 C 0.23546 0.45223 0.78369
 C2860 C 0.22805 0.43995 0.79117
 C2861 C 0.18910 0.41886 0.77081
 C2862 C 0.19581 0.43196 0.76403
 C2863 C 0.22729 0.42053 0.81158
 C2864 C 0.23403 0.43361 0.80481
 H2865 H 0.17927 0.41355 0.76523
 H2866 H 0.19099 0.43632 0.75338
 H2867 H 0.23242 0.41586 0.82196
 H2868 H 0.24418 0.43861 0.81011
 H2869 H 0.21328 0.39502 0.82153
 H2870 H 0.17930 0.39345 0.78512
 H2871 H 0.21222 0.45544 0.75214
 H2872 H 0.24612 0.45689 0.78829
 C2873 C 0.20810 0.91966 0.29147
 C2874 C 0.21480 0.91324 0.30471
 C2875 C 0.20843 0.89978 0.31105
 C2876 C 0.19550 0.89263 0.30421
 C2877 C 0.18888 0.89936 0.29097
 C2878 C 0.19515 0.91283 0.28454
 C2879 C 0.21513 0.93345 0.28440
 C2880 C 0.20882 0.93946 0.27076
 C2881 C 0.21630 0.95176 0.26338
 C2882 C 0.23001 0.95786 0.26951
 C2883 C 0.23586 0.95218 0.28348
 C2884 C 0.22849 0.93987 0.29096
 C2885 C 0.18891 0.91945 0.27114
 C2886 C 0.19564 0.93253 0.26436
 C2887 C 0.22792 0.92025 0.31118
 C2888 C 0.23466 0.93333 0.30441
 H2889 H 0.17890 0.91431 0.26570
 H2890 H 0.19067 0.93707 0.25385
 H2891 H 0.23318 0.91541 0.32141
 H2892 H 0.24496 0.93817 0.30958
 H2893 H 0.21372 0.89488 0.32121
 H2894 H 0.17899 0.89409 0.28548
 H2895 H 0.21206 0.95597 0.25242
 H2896 H 0.24664 0.95670 0.28795
 C2897 C 0.41934 0.29173 0.70855
 C2898 C 0.41318 0.28520 0.69512
 C2899 C 0.39967 0.29149 0.68876
 C2900 C 0.39223 0.30417 0.69578
 C2901 C 0.39871 0.31061 0.70921
 C2902 C 0.41222 0.30443 0.71564
 C2903 C 0.43318 0.28479 0.71563
 C2904 C 0.43893 0.29093 0.72945
 C2905 C 0.45128 0.28349 0.73682
 C2906 C 0.45768 0.26999 0.73051
 C2907 C 0.45225 0.26432 0.71638
 C2908 C 0.43990 0.27165 0.70890
 C2909 C 0.41857 0.31052 0.72922
 C2910 C 0.43170 0.30387 0.73602
 C2911 C 0.42048 0.27232 0.68848
 C2912 C 0.43360 0.26564 0.69527
 H2913 H 0.41319 0.32034 0.73479
 H2914 H 0.43602 0.30871 0.74666
 H2915 H 0.41585 0.26718 0.67811
 H2916 H 0.43867 0.25551 0.68997
 H2917 H 0.39496 0.28635 0.67845
 H2918 H 0.39321 0.32029 0.71486
 H2919 H 0.45528 0.28758 0.74791
 H2920 H 0.45699 0.25369 0.71177
 C2921 C 0.41945 0.79206 0.20850
 C2922 C 0.41328 0.78554 0.19508
 C2923 C 0.39976 0.79181 0.18875
 C2924 C 0.39231 0.80448 0.19578
 C2925 C 0.39878 0.81091 0.20923
 C2926 C 0.41232 0.80473 0.21564
 C2927 C 0.43331 0.78511 0.21556
 C2928 C 0.43906 0.79121 0.22939
 C2929 C 0.45138 0.78373 0.23676
 C2930 C 0.45773 0.77021 0.23044
 C2931 C 0.45233 0.76460 0.21628
 C2932 C 0.44001 0.77198 0.20880
 C2933 C 0.41869 0.81080 0.22922
 C2934 C 0.43184 0.80414 0.23598
 C2935 C 0.42059 0.77269 0.18839
 C2936 C 0.43373 0.76601 0.19515
 H2937 H 0.41331 0.82060 0.23482
 H2938 H 0.43618 0.80896 0.24663
 H2939 H 0.41596 0.76757 0.17801
 H2940 H 0.43880 0.75590 0.18982
 H2941 H 0.39506 0.78668 0.17843
 H2942 H 0.39326 0.82057 0.21489
 H2943 H 0.45540 0.78780 0.24785
 H2944 H 0.45706 0.75397 0.21165
 C2945 C 0.91956 0.29201 0.20815
 C2946 C 0.91313 0.28526 0.19496
 C2947 C 0.89967 0.29163 0.18859
 C2948 C 0.89254 0.30463 0.19535
 C2949 C 0.89932 0.31133 0.20851
 C2950 C 0.91278 0.30504 0.21498
 C2951 C 0.93332 0.28495 0.21528
 C2952 C 0.93934 0.29130 0.22889
 C2953 C 0.95161 0.28380 0.23633
 C2954 C 0.95767 0.27002 0.23029
 C2955 C 0.95197 0.26411 0.21636
 C2956 C 0.93969 0.27150 0.20883
 C2957 C 0.91940 0.31132 0.22834
 C2958 C 0.93244 0.30456 0.23519
 C2959 C 0.92009 0.27205 0.18859
 C2960 C 0.93314 0.26528 0.19542
 H2961 H 0.91429 0.32139 0.23371
 H2962 H 0.93698 0.30957 0.24567
 H2963 H 0.91523 0.26674 0.17841
 H2964 H 0.93794 0.25491 0.19033
 H2965 H 0.89473 0.28627 0.17850
 H2966 H 0.89409 0.32129 0.21392
 H2967 H 0.95582 0.28808 0.24727
 H2968 H 0.95645 0.25327 0.21197
 C2969 C 0.91959 0.79216 0.70825
 C2970 C 0.91314 0.78538 0.69509
 C2971 C 0.89965 0.79172 0.68874
 C2972 C 0.89252 0.80472 0.69550
 C2973 C 0.89930 0.81143 0.70865
 C2974 C 0.91279 0.80518 0.71508
 C2975 C 0.93337 0.78513 0.71537
 C2976 C 0.93939 0.79151 0.72896
 C2977 C 0.95164 0.78400 0.73642
 C2978 C 0.95768 0.77020 0.73040
 C2979 C 0.95202 0.76430 0.71646
 C2980 C 0.93975 0.77169 0.70891
 C2981 C 0.91944 0.81151 0.72841
 C2982 C 0.93251 0.80477 0.73524
 C2983 C 0.92013 0.77220 0.68870
 C2984 C 0.93321 0.76547 0.69550
 H2985 H 0.91433 0.82159 0.73377
 H2986 H 0.93707 0.80981 0.74570
 H2987 H 0.91528 0.76688 0.67851
 H2988 H 0.93804 0.75511 0.69040
 H2989 H 0.89469 0.78633 0.67867
 H2990 H 0.89405 0.82138 0.71407
 H2991 H 0.95585 0.78829 0.74736
 H2992 H 0.95651 0.75347 0.71207
 C2993 C 0.58062 0.29173 0.29152
 C2994 C 0.58705 0.28505 0.30476
 C2995 C 0.60050 0.29143 0.31109
 C2996 C 0.60766 0.30435 0.30422
 C2997 C 0.60091 0.31096 0.29099
 C2998 C 0.58744 0.30467 0.28457
 C2999 C 0.56683 0.28469 0.28447
 C3000 C 0.56081 0.29098 0.27083
 C3001 C 0.54848 0.28352 0.26349
 C3002 C 0.54237 0.26982 0.26966
 C3003 C 0.54809 0.26396 0.28361
 C3004 C 0.56042 0.27132 0.29105
 C3005 C 0.58084 0.31087 0.27116
 C3006 C 0.56775 0.30414 0.26439
 C3007 C 0.58008 0.27191 0.31123
 C3008 C 0.56700 0.26515 0.30448
 H3009 H 0.58599 0.32086 0.26568
 H3010 H 0.56322 0.30908 0.25387
 H3011 H 0.58494 0.26663 0.32145
 H3012 H 0.56218 0.25484 0.30965
 H3013 H 0.60541 0.28616 0.32126
 H3014 H 0.60619 0.32083 0.28548
 H3015 H 0.54426 0.28775 0.25253
 H3016 H 0.54357 0.25319 0.28809
 C3017 C 0.58032 0.79206 0.79182
 C3018 C 0.58677 0.78531 0.80502
 C3019 C 0.60025 0.79165 0.81134
 C3020 C 0.60739 0.80461 0.80453
 C3021 C 0.60061 0.81128 0.79134
 C3022 C 0.58712 0.80503 0.78493
 C3023 C 0.56652 0.78504 0.78475
 C3024 C 0.56048 0.79140 0.77114
 C3025 C 0.54820 0.78392 0.76374
 C3026 C 0.54214 0.77016 0.76982
 C3027 C 0.54783 0.76428 0.78378
 C3028 C 0.56012 0.77165 0.79128
 C3029 C 0.58047 0.81133 0.77158
 C3030 C 0.56738 0.80462 0.76479
 C3031 C 0.57977 0.77217 0.81147
 C3032 C 0.56668 0.76545 0.80471
 H3033 H 0.58558 0.82137 0.76617
 H3034 H 0.56282 0.80964 0.75432
 H3035 H 0.58462 0.76687 0.82168
 H3036 H 0.56184 0.75514 0.80986
 H3037 H 0.60521 0.78629 0.82144
 H3038 H 0.60585 0.82120 0.78588
 H3039 H 0.54398 0.78820 0.75280
 H3040 H 0.54333 0.75348 0.78821
 C3041 C 0.08035 0.29200 0.79151
 C3042 C 0.08657 0.28548 0.80493
 C3043 C 0.10007 0.29177 0.81124
 C3044 C 0.10750 0.30443 0.80418
 C3045 C 0.10093 0.31091 0.79079
 C3046 C 0.08741 0.30472 0.78439
 C3047 C 0.06654 0.28500 0.78444
 C3048 C 0.06075 0.29110 0.77062
 C3049 C 0.04847 0.28360 0.76324
 C3050 C 0.04216 0.27006 0.76956
 C3051 C 0.04763 0.26442 0.78370
 C3052 C 0.05992 0.27182 0.79118
 C3053 C 0.08100 0.31078 0.77082
 C3054 C 0.06790 0.30407 0.76404
 C3055 C 0.07934 0.27258 0.81159
 C3056 C 0.06625 0.26585 0.80482
 H3057 H 0.08631 0.32062 0.76523
 H3058 H 0.06354 0.30889 0.75338
 H3059 H 0.08400 0.26746 0.82197
 H3060 H 0.06125 0.25570 0.81013
 H3061 H 0.10483 0.28660 0.82153
 H3062 H 0.10640 0.32060 0.78513
 H3063 H 0.04444 0.28766 0.75215
 H3064 H 0.04297 0.25376 0.78831
 C3065 C 0.08048 0.79185 0.29154
 C3066 C 0.08711 0.78497 0.30458
 C3067 C 0.10061 0.79132 0.31085
 C3068 C 0.10758 0.80442 0.30414
 C3069 C 0.10063 0.81122 0.29111
 C3070 C 0.08713 0.80496 0.28475
 C3071 C 0.06666 0.78483 0.28452
 C3072 C 0.06045 0.79132 0.27105
 C3073 C 0.04813 0.78385 0.26369
 C3074 C 0.04222 0.77000 0.26967
 C3075 C 0.04810 0.76396 0.28348
 C3076 C 0.06043 0.77131 0.29093
 C3077 C 0.08031 0.81137 0.27153
 C3078 C 0.06721 0.80465 0.26479
 C3079 C 0.08029 0.77169 0.31091
 C3080 C 0.06718 0.76496 0.30419
 H3081 H 0.08530 0.82152 0.26620
 H3082 H 0.06252 0.80976 0.25441
 H3083 H 0.08529 0.76628 0.32100
 H3084 H 0.06249 0.75453 0.30924
 H3085 H 0.10568 0.78587 0.32085
 H3086 H 0.10576 0.82124 0.28573
 H3087 H 0.04378 0.78822 0.25283
 H3088 H 0.04373 0.75307 0.28781
 C3089 C 0.58054 0.70824 0.70859
 C3090 C 0.58689 0.71488 0.69529
 C3091 C 0.60038 0.70855 0.68896
 C3092 C 0.60766 0.69571 0.69588
 C3093 C 0.60099 0.68913 0.70917
 C3094 C 0.58748 0.69537 0.71558
 C3095 C 0.56672 0.71526 0.71566
 C3096 C 0.56079 0.70902 0.72936
 C3097 C 0.54847 0.71650 0.73674
 C3098 C 0.54226 0.73015 0.73054
 C3099 C 0.54789 0.73594 0.71652
 C3100 C 0.56021 0.72856 0.70904
 C3101 C 0.58094 0.68920 0.72905
 C3102 C 0.56784 0.69591 0.73583
 C3103 C 0.57979 0.72793 0.68876
 C3104 C 0.56669 0.73468 0.69554
 H3105 H 0.58617 0.67925 0.73455
 H3106 H 0.56337 0.69100 0.74639
 H3107 H 0.58456 0.73316 0.67849
 H3108 H 0.56179 0.74494 0.69033
 H3109 H 0.60524 0.71380 0.67876
 H3110 H 0.60635 0.67932 0.71472
 H3111 H 0.54433 0.71232 0.74775
 H3112 H 0.54331 0.74669 0.71201
 C3113 C 0.58047 0.20796 0.20812
 C3114 C 0.58724 0.21495 0.19521
 C3115 C 0.60071 0.20856 0.18892
 C3116 C 0.60754 0.19529 0.19547
 C3117 C 0.60044 0.18835 0.20835
 C3118 C 0.58695 0.19466 0.21473
 C3119 C 0.56669 0.21505 0.21519
 C3120 C 0.56034 0.20844 0.22853
 C3121 C 0.54808 0.21597 0.23596
 C3122 C 0.54238 0.23001 0.23018
 C3123 C 0.54840 0.23617 0.21650
 C3124 C 0.56066 0.22876 0.20896
 C3125 C 0.57998 0.18813 0.22781
 C3126 C 0.56691 0.19491 0.23460
 C3127 C 0.58059 0.22841 0.18904
 C3128 C 0.56753 0.23521 0.19582
 H3129 H 0.58483 0.17784 0.23301
 H3130 H 0.56210 0.18970 0.24487
 H3131 H 0.58569 0.23390 0.17906
 H3132 H 0.56297 0.24578 0.19091
 H3133 H 0.60590 0.21412 0.17906
 H3134 H 0.60543 0.17817 0.21358
 H3135 H 0.54359 0.21148 0.24672
 H3136 H 0.54418 0.24719 0.21230
 C3137 C 0.08047 0.70817 0.20834
 C3138 C 0.08662 0.71468 0.19488
 C3139 C 0.10006 0.70831 0.18845
 C3140 C 0.10746 0.69557 0.19543
 C3141 C 0.10101 0.68917 0.20890
 C3142 C 0.08756 0.69544 0.21542
 C3143 C 0.06668 0.71518 0.21547
 C3144 C 0.06095 0.70908 0.22931
 C3145 C 0.04862 0.71654 0.23670
 C3146 C 0.04223 0.73003 0.23038
 C3147 C 0.04766 0.73570 0.21624
 C3148 C 0.05999 0.72835 0.20875
 C3149 C 0.08124 0.68942 0.22905
 C3150 C 0.06817 0.69614 0.23589
 C3151 C 0.07938 0.72762 0.18828
 C3152 C 0.06630 0.73435 0.19511
 H3153 H 0.08660 0.67959 0.23463
 H3154 H 0.06387 0.69134 0.24658
 H3155 H 0.08401 0.73275 0.17790
 H3156 H 0.06128 0.74452 0.18983
 H3157 H 0.10475 0.71343 0.17811
 H3158 H 0.10648 0.67945 0.21451
 H3159 H 0.04464 0.71246 0.24781
 H3160 H 0.04293 0.74634 0.21163
 C3161 C 0.08049 0.20785 0.70868
 C3162 C 0.08671 0.21436 0.69526
 C3163 C 0.10020 0.20804 0.68892
 C3164 C 0.10760 0.19533 0.69594
 C3165 C 0.10106 0.18889 0.70937
 C3166 C 0.08755 0.19512 0.71579
 C3167 C 0.06666 0.21486 0.71573
 C3168 C 0.06083 0.20875 0.72954
 C3169 C 0.04850 0.21625 0.73688
 C3170 C 0.04219 0.22979 0.73055
 C3171 C 0.04768 0.23542 0.71642
 C3172 C 0.06002 0.22803 0.70897
 C3173 C 0.08112 0.18906 0.72936
 C3174 C 0.06799 0.19577 0.73612
 C3175 C 0.07948 0.22728 0.68860
 C3176 C 0.06637 0.23401 0.69535
 H3177 H 0.08643 0.17922 0.73495
 H3178 H 0.06360 0.19094 0.74676
 H3179 H 0.08416 0.23240 0.67823
 H3180 H 0.06136 0.24417 0.69004
 H3181 H 0.10494 0.21318 0.67862
 H3182 H 0.10652 0.17918 0.71501
 H3183 H 0.04443 0.21217 0.74795
 H3184 H 0.04300 0.24608 0.71179
 C3185 C 0.41951 0.70820 0.29178
 C3186 C 0.41277 0.71515 0.30473
 C3187 C 0.39935 0.70869 0.31108
 C3188 C 0.39257 0.69540 0.30455
 C3189 C 0.39962 0.68855 0.29160
 C3190 C 0.41305 0.69492 0.28516
 C3191 C 0.43328 0.71529 0.28471
 C3192 C 0.43963 0.70871 0.27135
 C3193 C 0.45191 0.71621 0.26394
 C3194 C 0.45765 0.73021 0.26976
 C3195 C 0.45162 0.73634 0.28346
 C3196 C 0.43934 0.72896 0.29097
 C3197 C 0.41999 0.68843 0.27204
 C3198 C 0.43305 0.69522 0.26525
 C3199 C 0.41941 0.72858 0.31091
 C3200 C 0.43247 0.73538 0.30414
 H3201 H 0.41514 0.67816 0.26683
 H3202 H 0.43785 0.69003 0.25496
 H3203 H 0.41433 0.73404 0.32091
 H3204 H 0.43704 0.74592 0.30907
 H3205 H 0.39417 0.71420 0.32098
 H3206 H 0.39464 0.67839 0.28635
 H3207 H 0.45639 0.71173 0.25318
 H3208 H 0.45587 0.74733 0.28769
 C3209 C 0.41944 0.20800 0.79162
 C3210 C 0.41266 0.19501 0.78474
 C3211 C 0.39916 0.18876 0.79115
 C3212 C 0.39235 0.19543 0.80431
 C3213 C 0.39947 0.20840 0.81112
 C3214 C 0.41295 0.21475 0.80479
 C3215 C 0.43326 0.21501 0.78457
 C3216 C 0.43962 0.22842 0.79109
 C3217 C 0.45195 0.23577 0.78363
 C3218 C 0.45771 0.22987 0.76971
 C3219 C 0.45168 0.21611 0.76363
 C3220 C 0.43935 0.20865 0.77099
 C3221 C 0.41990 0.22791 0.81122
 C3222 C 0.43300 0.23464 0.80447
 C3223 C 0.41934 0.18873 0.77139
 C3224 C 0.43245 0.19544 0.76463
 H3225 H 0.41500 0.23323 0.82140
 H3226 H 0.43780 0.24498 0.80960
 H3227 H 0.41424 0.17869 0.76597
 H3228 H 0.43704 0.19043 0.75416
 H3229 H 0.39393 0.17883 0.78569
 H3230 H 0.39451 0.21374 0.82122
 H3231 H 0.45643 0.24658 0.78805
 H3232 H 0.45595 0.21183 0.75271
 C3233 C 0.91949 0.70816 0.79164
 C3234 C 0.91301 0.71486 0.80485
 C3235 C 0.89955 0.70848 0.81117
 C3236 C 0.89245 0.69552 0.80434
 C3237 C 0.89924 0.68889 0.79114
 C3238 C 0.91272 0.69518 0.78473
 C3239 C 0.93328 0.71522 0.78458
 C3240 C 0.93934 0.70891 0.77097
 C3241 C 0.95163 0.71643 0.76359
 C3242 C 0.95766 0.73018 0.76971
 C3243 C 0.95192 0.73602 0.78366
 C3244 C 0.93963 0.72862 0.79113
 C3245 C 0.91939 0.68894 0.77136
 C3246 C 0.93247 0.69570 0.76459
 C3247 C 0.91995 0.72802 0.81130
 C3248 C 0.93303 0.73479 0.80454
 H3249 H 0.91430 0.67890 0.76594
 H3250 H 0.93705 0.69072 0.75410
 H3251 H 0.91507 0.73329 0.82151
 H3252 H 0.93781 0.74512 0.80969
 H3253 H 0.89461 0.71377 0.82130
 H3254 H 0.89401 0.67898 0.78566
 H3255 H 0.95588 0.71220 0.75265
 H3256 H 0.95639 0.74683 0.78811
 C3257 C 0.91937 0.20808 0.29138
 C3258 C 0.91298 0.21472 0.30465
 C3259 C 0.89946 0.20841 0.31092
 C3260 C 0.89220 0.19561 0.30397
 C3261 C 0.89891 0.18903 0.29069
 C3262 C 0.91246 0.19525 0.28434
 C3263 C 0.93323 0.21508 0.28438
 C3264 C 0.93922 0.20886 0.27069
 C3265 C 0.95155 0.21636 0.26337
 C3266 C 0.95770 0.22999 0.26960
 C3267 C 0.95206 0.23574 0.28363
 C3268 C 0.93972 0.22835 0.29105
 C3269 C 0.91907 0.18908 0.27090
 C3270 C 0.93221 0.19578 0.26419
 C3271 C 0.92007 0.22772 0.31125
 C3272 C 0.93320 0.23443 0.30455
 H3273 H 0.91388 0.17915 0.26537
 H3274 H 0.93673 0.19087 0.25364
 H3275 H 0.91526 0.23292 0.32152
 H3276 H 0.93810 0.24466 0.30981
 H3277 H 0.89459 0.21365 0.32112
 H3278 H 0.89357 0.17924 0.28512
 H3279 H 0.95574 0.21220 0.25236
 H3280 H 0.95662 0.24646 0.28818
 C3281 C 0.29173 0.29175 0.58023
 C3282 C 0.30483 0.28490 0.58686
 C3283 C 0.31106 0.29122 0.60036
 C3284 C 0.30423 0.30426 0.60734
 C3285 C 0.29117 0.31108 0.60035
 C3286 C 0.28486 0.30484 0.58685
 C3287 C 0.28470 0.28471 0.56647
 C3288 C 0.27114 0.29115 0.56028
 C3289 C 0.26374 0.28363 0.54805
 C3290 C 0.26976 0.26976 0.54220
 C3291 C 0.28365 0.26377 0.54806
 C3292 C 0.29116 0.27117 0.56029
 C3293 C 0.27159 0.31124 0.58003
 C3294 C 0.26483 0.30449 0.56699
 C3295 C 0.31125 0.27164 0.58005
 C3296 C 0.30451 0.26488 0.56700
 H3297 H 0.26619 0.32137 0.58500
 H3298 H 0.25439 0.30957 0.56231
 H3299 H 0.32139 0.26626 0.58502
 H3300 H 0.30961 0.25445 0.56233
 H3301 H 0.32108 0.28578 0.60545
 H3302 H 0.28572 0.32109 0.60544
 H3303 H 0.25282 0.28798 0.54372
 H3304 H 0.28802 0.25286 0.54373
 C3305 C 0.29193 0.79192 0.07997
 C3306 C 0.30503 0.78507 0.08662
 C3307 C 0.31124 0.79140 0.10010
 C3308 C 0.30441 0.80446 0.10706
 C3309 C 0.29137 0.81127 0.10005
 C3310 C 0.28506 0.80503 0.08656
 C3311 C 0.28491 0.78487 0.06621
 C3312 C 0.27138 0.79132 0.06000
 C3313 C 0.26400 0.78381 0.04776
 C3314 C 0.27001 0.76992 0.04193
 C3315 C 0.28389 0.76392 0.04781
 C3316 C 0.29138 0.77133 0.06005
 C3317 C 0.27180 0.81142 0.07973
 C3318 C 0.26506 0.80467 0.06668
 C3319 C 0.31144 0.77179 0.07984
 C3320 C 0.30472 0.76502 0.06679
 H3321 H 0.26640 0.82156 0.08468
 H3322 H 0.25463 0.80975 0.06199
 H3323 H 0.32157 0.76641 0.08483
 H3324 H 0.30981 0.75459 0.06214
 H3325 H 0.32126 0.78596 0.10521
 H3326 H 0.28592 0.82130 0.10512
 H3327 H 0.25310 0.78817 0.04340
 H3328 H 0.28826 0.75301 0.04350
 C3329 C 0.79168 0.29179 0.08019
 C3330 C 0.80475 0.28490 0.08685
 C3331 C 0.81098 0.29123 0.10034
 C3332 C 0.80419 0.30433 0.10727
 C3333 C 0.79114 0.31115 0.10026
 C3334 C 0.78483 0.30490 0.08677
 C3335 C 0.78468 0.28477 0.06640
 C3336 C 0.77117 0.29125 0.06015
 C3337 C 0.76381 0.28377 0.04788
 C3338 C 0.76981 0.26987 0.04205
 C3339 C 0.78366 0.26384 0.04797
 C3340 C 0.79113 0.27122 0.06023
 C3341 C 0.77160 0.31134 0.07991
 C3342 C 0.76487 0.30461 0.06684
 C3343 C 0.81115 0.27163 0.08007
 C3344 C 0.80445 0.26489 0.06700
 H3345 H 0.76622 0.32149 0.08485
 H3346 H 0.75447 0.30973 0.06212
 H3347 H 0.82127 0.26623 0.08507
 H3348 H 0.80954 0.25445 0.06234
 H3349 H 0.82097 0.28577 0.10546
 H3350 H 0.78571 0.32119 0.10532
 H3351 H 0.75291 0.28815 0.04352
 H3352 H 0.78801 0.25292 0.04366
 C3353 C 0.79166 0.79190 0.58037
 C3354 C 0.78478 0.80499 0.58698
 C3355 C 0.79109 0.81124 0.60046
 C3356 C 0.80416 0.80445 0.60745
 C3357 C 0.81098 0.79139 0.60049
 C3358 C 0.80476 0.78505 0.58701
 C3359 C 0.78466 0.78487 0.56658
 C3360 C 0.79115 0.77135 0.56040
 C3361 C 0.78369 0.76396 0.54813
 C3362 C 0.76981 0.76996 0.54224
 C3363 C 0.76377 0.78383 0.54810
 C3364 C 0.77113 0.79132 0.56037
 C3365 C 0.81119 0.77180 0.58021
 C3366 C 0.80449 0.76505 0.56714
 C3367 C 0.77151 0.81138 0.58015
 C3368 C 0.76479 0.80465 0.56708
 H3369 H 0.82133 0.76642 0.58520
 H3370 H 0.80960 0.75463 0.56248
 H3371 H 0.76610 0.82151 0.58511
 H3372 H 0.75436 0.80974 0.56239
 H3373 H 0.78563 0.82126 0.60555
 H3374 H 0.82101 0.78595 0.60559
 H3375 H 0.78807 0.75307 0.54380
 H3376 H 0.75286 0.78818 0.54374
 C3377 C 0.29162 0.70828 0.41957
 C3378 C 0.30473 0.71509 0.41294
 C3379 C 0.31092 0.70878 0.39941
 C3380 C 0.30402 0.69580 0.39239
 C3381 C 0.29095 0.68904 0.39939
 C3382 C 0.28468 0.69526 0.41292
 C3383 C 0.28465 0.71530 0.43339
 C3384 C 0.27109 0.70891 0.43959
 C3385 C 0.26376 0.71640 0.45189
 C3386 C 0.26984 0.73021 0.45779
 C3387 C 0.28374 0.73615 0.45192
 C3388 C 0.29118 0.72877 0.43961
 C3389 C 0.27138 0.68893 0.41973
 C3390 C 0.26469 0.69566 0.43283
 C3391 C 0.31120 0.72829 0.41977
 C3392 C 0.30452 0.73503 0.43287
 H3393 H 0.26592 0.67887 0.41472
 H3394 H 0.25422 0.69064 0.43750
 H3395 H 0.32134 0.73365 0.41477
 H3396 H 0.30965 0.74542 0.43755
 H3397 H 0.32095 0.71418 0.39432
 H3398 H 0.28545 0.67908 0.39427
 H3399 H 0.25283 0.71210 0.45624
 H3400 H 0.28815 0.74702 0.45628
 C3401 C 0.29167 0.20796 0.91979
 C3402 C 0.30477 0.21479 0.91317
 C3403 C 0.31098 0.20850 0.89965
 C3404 C 0.30413 0.19549 0.89265
 C3405 C 0.29108 0.18870 0.89964
 C3406 C 0.28478 0.19491 0.91315
 C3407 C 0.28465 0.21499 0.93358
 C3408 C 0.27109 0.20857 0.93976
 C3409 C 0.26370 0.21608 0.95201
 C3410 C 0.26973 0.22993 0.95789
 C3411 C 0.28363 0.23589 0.95204
 C3412 C 0.29113 0.22849 0.93979
 C3413 C 0.27151 0.18853 0.91997
 C3414 C 0.26477 0.19526 0.93304
 C3415 C 0.31121 0.22801 0.92000
 C3416 C 0.30449 0.23476 0.93307
 H3417 H 0.26611 0.17842 0.91498
 H3418 H 0.25433 0.19020 0.93771
 H3419 H 0.32136 0.23337 0.91503
 H3420 H 0.30960 0.24515 0.93776
 H3421 H 0.32100 0.21392 0.89456
 H3422 H 0.28561 0.17872 0.89452
 H3423 H 0.25277 0.21176 0.95634
 H3424 H 0.28800 0.24678 0.95638
 C3425 C 0.79181 0.70815 0.91981
 C3426 C 0.78494 0.69506 0.91323
 C3427 C 0.79122 0.68881 0.89971
 C3428 C 0.80424 0.69562 0.89268
 C3429 C 0.81107 0.70867 0.89962
 C3430 C 0.80487 0.71500 0.91312
 C3431 C 0.78482 0.71519 0.93360
 C3432 C 0.79129 0.72873 0.93975
 C3433 C 0.78382 0.73614 0.95202
 C3434 C 0.76995 0.73016 0.95793
 C3435 C 0.76395 0.71627 0.95212
 C3436 C 0.77131 0.70875 0.93986
 C3437 C 0.81130 0.72826 0.91990
 C3438 C 0.80460 0.73502 0.93298
 C3439 C 0.77171 0.68866 0.92011
 C3440 C 0.76499 0.69541 0.93319
 H3441 H 0.82141 0.73363 0.91488
 H3442 H 0.80970 0.74544 0.93762
 H3443 H 0.76631 0.67853 0.91517
 H3444 H 0.75459 0.69033 0.93791
 H3445 H 0.78577 0.67880 0.89465
 H3446 H 0.82106 0.71411 0.89448
 H3447 H 0.78818 0.74704 0.95632
 H3448 H 0.75306 0.71192 0.95651
 C3449 C 0.79189 0.20810 0.41975
 C3450 C 0.78521 0.19480 0.41337
 C3451 C 0.79149 0.18855 0.39986
 C3452 C 0.80430 0.19554 0.39262
 C3453 C 0.81093 0.20880 0.39936
 C3454 C 0.80474 0.21514 0.41287
 C3455 C 0.78488 0.21515 0.43353
 C3456 C 0.79113 0.22888 0.43947
 C3457 C 0.78362 0.23628 0.45172
 C3458 C 0.76993 0.23009 0.45782
 C3459 C 0.76415 0.21603 0.45222
 C3460 C 0.77156 0.20852 0.43998
 C3461 C 0.81096 0.22860 0.41944
 C3462 C 0.80425 0.23536 0.43250
 C3463 C 0.77218 0.18822 0.42044
 C3464 C 0.76545 0.19498 0.43350
 H3465 H 0.82091 0.23412 0.41426
 H3466 H 0.80918 0.24594 0.43698
 H3467 H 0.76694 0.17793 0.41566
 H3468 H 0.75518 0.18976 0.43837
 H3469 H 0.78620 0.17836 0.39496
 H3470 H 0.82074 0.21439 0.39407
 H3471 H 0.78781 0.24732 0.45586
 H3472 H 0.75338 0.21153 0.45674
 C3473 C 0.70825 0.29171 0.41967
 C3474 C 0.69516 0.28487 0.41304
 C3475 C 0.68899 0.29115 0.39950
 C3476 C 0.69585 0.30415 0.39249
 C3477 C 0.70890 0.31094 0.39947
 C3478 C 0.71516 0.30475 0.41301
 C3479 C 0.71521 0.28472 0.43350
 C3480 C 0.72875 0.29115 0.43970
 C3481 C 0.73611 0.28365 0.45196
 C3482 C 0.73009 0.26979 0.45782
 C3483 C 0.71618 0.26384 0.45200
 C3484 C 0.70871 0.27124 0.43973
 C3485 C 0.72840 0.31115 0.41985
 C3486 C 0.73509 0.30445 0.43296
 C3487 C 0.68868 0.27168 0.41991
 C3488 C 0.69535 0.26497 0.43302
 H3489 H 0.73381 0.32125 0.41486
 H3490 H 0.74551 0.30953 0.43766
 H3491 H 0.67854 0.26632 0.41493
 H3492 H 0.69021 0.25459 0.43774
 H3493 H 0.67899 0.28572 0.39439
 H3494 H 0.71439 0.32091 0.39434
 H3495 H 0.74703 0.28797 0.45630
 H3496 H 0.71179 0.25296 0.45636
 C3497 C 0.70827 0.79187 0.91976
 C3498 C 0.69516 0.78504 0.91318
 C3499 C 0.68890 0.79135 0.89968
 C3500 C 0.69572 0.80437 0.89266
 C3501 C 0.70880 0.81116 0.89960
 C3502 C 0.71514 0.80493 0.91309
 C3503 C 0.71531 0.78486 0.93355
 C3504 C 0.72886 0.79129 0.93971
 C3505 C 0.73625 0.78381 0.95199
 C3506 C 0.73023 0.76998 0.95791
 C3507 C 0.71633 0.76400 0.95208
 C3508 C 0.70884 0.77137 0.93980
 C3509 C 0.72844 0.81130 0.91986
 C3510 C 0.73519 0.80458 0.93293
 C3511 C 0.68876 0.77180 0.92003
 C3512 C 0.69549 0.76507 0.93310
 H3513 H 0.73384 0.82140 0.91484
 H3514 H 0.74565 0.80964 0.93757
 H3515 H 0.67862 0.76642 0.91507
 H3516 H 0.69040 0.75466 0.93780
 H3517 H 0.67887 0.78593 0.89462
 H3518 H 0.71424 0.82115 0.89448
 H3519 H 0.74717 0.78815 0.95630
 H3520 H 0.71196 0.75312 0.95646
 C3521 C 0.20805 0.29175 0.91983
 C3522 C 0.21491 0.30484 0.91322
 C3523 C 0.20859 0.31110 0.89973
 C3524 C 0.19553 0.30432 0.89275
 C3525 C 0.18874 0.29124 0.89970
 C3526 C 0.19498 0.28490 0.91319
 C3527 C 0.21507 0.28471 0.93362
 C3528 C 0.20861 0.27118 0.93980
 C3529 C 0.21611 0.26377 0.95205
 C3530 C 0.22999 0.26975 0.95791
 C3531 C 0.23598 0.28364 0.95208
 C3532 C 0.22859 0.29116 0.93983
 C3533 C 0.18857 0.27164 0.91999
 C3534 C 0.19528 0.26489 0.93307
 C3535 C 0.22815 0.31124 0.92006
 C3536 C 0.23488 0.30450 0.93313
 H3537 H 0.17845 0.26626 0.91500
 H3538 H 0.19018 0.25448 0.93775
 H3539 H 0.23354 0.32137 0.91509
 H3540 H 0.24529 0.30960 0.93784
 H3541 H 0.21403 0.32111 0.89464
 H3542 H 0.17875 0.28579 0.89459
 H3543 H 0.21175 0.25287 0.95639
 H3544 H 0.24688 0.28799 0.95643
 C3545 C 0.20812 0.79177 0.41963
 C3546 C 0.21481 0.80504 0.41320
 C3547 C 0.20854 0.81126 0.39967
 C3548 C 0.19573 0.80426 0.39246
 C3549 C 0.18909 0.79103 0.39925
 C3550 C 0.19526 0.78472 0.41278
 C3551 C 0.21510 0.78476 0.43345
 C3552 C 0.20883 0.77106 0.43945
 C3553 C 0.21632 0.76370 0.45174
 C3554 C 0.23001 0.76990 0.45782
 C3555 C 0.23581 0.78394 0.45216
 C3556 C 0.22842 0.79141 0.43988
 C3557 C 0.18903 0.77129 0.41941
 C3558 C 0.19572 0.76456 0.43251
 C3559 C 0.22784 0.81163 0.42025
 C3560 C 0.23455 0.80492 0.43334
 H3561 H 0.17907 0.76576 0.41425
 H3562 H 0.19077 0.75401 0.43703
 H3563 H 0.23308 0.82191 0.41542
 H3564 H 0.24481 0.81016 0.43819
 H3565 H 0.21384 0.82142 0.39472
 H3566 H 0.17927 0.78542 0.39397
 H3567 H 0.21213 0.75268 0.45592
 H3568 H 0.24658 0.78845 0.45666
 C3569 C 0.70818 0.70836 0.58042
 C3570 C 0.69530 0.71540 0.58727
 C3571 C 0.68913 0.70908 0.60080
 C3572 C 0.69579 0.69583 0.60757
 C3573 C 0.70864 0.68885 0.60037
 C3574 C 0.71490 0.69509 0.58684
 C3575 C 0.71514 0.71537 0.56660
 C3576 C 0.72849 0.70873 0.56017
 C3577 C 0.73586 0.71622 0.54789
 C3578 C 0.73003 0.73027 0.54225
 C3579 C 0.71631 0.73644 0.54832
 C3580 C 0.70884 0.72907 0.56060
 C3581 C 0.72795 0.68850 0.57979
 C3582 C 0.73464 0.69522 0.56668
 C3583 C 0.68902 0.72882 0.58065
 C3584 C 0.69569 0.73555 0.56754
 H3585 H 0.73322 0.67822 0.58460
 H3586 H 0.74491 0.68997 0.56181
 H3587 H 0.67905 0.73434 0.58580
 H3588 H 0.69071 0.74609 0.56301
 H3589 H 0.67929 0.71467 0.60608
 H3590 H 0.71397 0.67870 0.60531
 H3591 H 0.74664 0.71171 0.54338
 H3592 H 0.71208 0.74746 0.54413
 C3593 C 0.70844 0.20819 0.08028
 C3594 C 0.69535 0.21504 0.08694
 C3595 C 0.68916 0.20871 0.10045
 C3596 C 0.69600 0.19566 0.10740
 C3597 C 0.70908 0.18889 0.10042
 C3598 C 0.71536 0.19513 0.08691
 C3599 C 0.71539 0.21519 0.06646
 C3600 C 0.72893 0.20875 0.06022
 C3601 C 0.73625 0.21623 0.04792
 C3602 C 0.73018 0.23008 0.04205
 C3603 C 0.71630 0.23607 0.04795
 C3604 C 0.70887 0.22870 0.06025
 C3605 C 0.72863 0.18875 0.08007
 C3606 C 0.73531 0.19546 0.06696
 C3607 C 0.68889 0.22828 0.08013
 C3608 C 0.69555 0.23501 0.06702
 H3609 H 0.73407 0.17865 0.08506
 H3610 H 0.74575 0.19039 0.06226
 H3611 H 0.67877 0.23366 0.08514
 H3612 H 0.69042 0.24542 0.06235
 H3613 H 0.67914 0.21414 0.10556
 H3614 H 0.71457 0.17890 0.10552
 H3615 H 0.74716 0.21190 0.04356
 H3616 H 0.71190 0.24696 0.04361
 C3617 C 0.20826 0.70828 0.08005
 C3618 C 0.19519 0.71518 0.08670
 C3619 C 0.18898 0.70889 0.10022
 C3620 C 0.19579 0.69583 0.10720
 C3621 C 0.20880 0.68896 0.10018
 C3622 C 0.21510 0.69516 0.08666
 C3623 C 0.21529 0.71529 0.06625
 C3624 C 0.22880 0.70880 0.06003
 C3625 C 0.23622 0.71630 0.04778
 C3626 C 0.23026 0.73021 0.04195
 C3627 C 0.21638 0.73624 0.04783
 C3628 C 0.20886 0.72885 0.06008
 C3629 C 0.22833 0.68871 0.07980
 C3630 C 0.23507 0.69542 0.06672
 C3631 C 0.18880 0.72845 0.07989
 C3632 C 0.19553 0.73518 0.06681
 H3633 H 0.23369 0.67855 0.08476
 H3634 H 0.24547 0.69029 0.06202
 H3635 H 0.17868 0.73385 0.08488
 H3636 H 0.19045 0.74561 0.06214
 H3637 H 0.17899 0.71436 0.10535
 H3638 H 0.21423 0.67893 0.10527
 H3639 H 0.24711 0.71190 0.04342
 H3640 H 0.21204 0.74716 0.04351
 C3641 C 0.20812 0.20796 0.58025
 C3642 C 0.21498 0.19484 0.58683
 C3643 C 0.20867 0.18858 0.60032
 C3644 C 0.19563 0.19539 0.60734
 C3645 C 0.18882 0.20847 0.60040
 C3646 C 0.19504 0.21482 0.58691
 C3647 C 0.21514 0.21502 0.56648
 C3648 C 0.20869 0.22858 0.56034
 C3649 C 0.21619 0.23600 0.54810
 C3650 C 0.23006 0.23000 0.54220
 C3651 C 0.23606 0.21609 0.54801
 C3652 C 0.22867 0.20856 0.56025
 C3653 C 0.18863 0.22811 0.58014
 C3654 C 0.19536 0.23488 0.56709
 C3655 C 0.22822 0.18843 0.57997
 C3656 C 0.23497 0.19519 0.56692
 H3657 H 0.17850 0.23349 0.58515
 H3658 H 0.19027 0.24533 0.56245
 H3659 H 0.23360 0.17827 0.58491
 H3660 H 0.24538 0.19010 0.56221
 H3661 H 0.21410 0.17854 0.60538
 H3662 H 0.17881 0.21392 0.60553
 H3663 H 0.21183 0.24693 0.54380
 H3664 H 0.24696 0.21173 0.54364
   
