data_POSCAR
  _audit_creation_date              2014-09-24
  _audit_creation_method            'ToBaCCo'
  _symmetry_space_group_name_H-M    'P1'
  _symmetry_Int_Tables_number       1
  _symmetry_cell_setting            triclinic
  loop_
  _symmetry_equiv_pos_as_xyz
 x,y,z
_cell_length_a 61.5666
_cell_length_b 62.9991
_cell_length_c 61.9280
_cell_angle_alpha 90.197300
_cell_angle_beta 89.693400
_cell_angle_gamma 90.064400
loop_
  _atom_site_label
  _atom_site_type_symbol
  _atom_site_fract_x
  _atom_site_fract_y
  _atom_site_fract_z
O1 O 0.31957 0.34454 0.01630
 O2 O 0.34514 0.31627 -0.02911
 O3 O 0.31449 0.34567 -0.02456
 O4 O 0.34893 0.31597 0.01286
 O5 O 0.32344 0.29152 0.01600
 O6 O 0.29133 0.31900 -0.02580
 O7 O 0.32148 0.29019 -0.02568
 O8 O 0.29312 0.32087 0.01674
 Cu9 Cu 0.33463 0.33304 -0.00665
 Cu10 Cu 0.30472 0.30295 -0.00445
 C11 C 0.30176 0.33778 0.02404
 C12 C 0.33822 0.29805 -0.03466
 C13 C 0.29706 0.33750 -0.03169
 C14 C 0.34191 0.29891 0.02125
 O15 O 0.64062 0.67600 -0.01219
 O16 O 0.67153 0.64409 0.02610
 O17 O 0.64471 0.67562 0.02907
 O18 O 0.66837 0.64484 -0.01601
 O19 O 0.69660 0.66637 -0.01644
 O20 O 0.67107 0.69918 0.02585
 O21 O 0.69829 0.66739 0.02525
 O22 O 0.66849 0.69779 -0.01614
 Cu23 Cu 0.65365 0.65777 0.00686
 Cu24 Cu 0.68635 0.68498 0.00434
 C25 C 0.64911 0.69238 -0.02058
 C26 C 0.68999 0.65035 0.03256
 C27 C 0.65360 0.69294 0.03484
 C28 C 0.68690 0.64999 -0.02356
 O29 O 0.67976 0.35216 0.98348
 O30 O 0.64881 0.32413 1.02524
 O31 O 0.67693 0.35514 1.02542
 O32 O 0.65304 0.32072 0.98365
 O33 O 0.68016 0.29814 0.98728
 O34 O 0.70375 0.33238 1.02934
 O35 O 0.67538 0.30095 1.02875
 O36 O 0.70725 0.33005 0.98750
 Cu37 Cu 0.66197 0.34034 1.00419
 Cu38 Cu 0.69439 0.31315 1.00873
 C39 C 0.69864 0.34591 0.97821
 C40 C 0.65647 0.30748 1.03377
 C41 C 0.69461 0.34978 1.03443
 C42 C 0.66254 0.30357 0.97829
 O43 O 0.35363 0.66931 1.01810
 O44 O 0.32773 0.64322 0.97172
 O45 O 0.35862 0.67135 0.97685
 O46 O 0.32259 0.64198 1.01367
 O47 O 0.29891 0.66816 1.01277
 O48 O 0.33374 0.69636 0.97357
 O49 O 0.30262 0.66821 0.97116
 O50 O 0.33052 0.69592 1.01566
 Cu51 Cu 0.34299 0.65381 0.99515
 Cu52 Cu 0.31405 0.68480 0.99311
 C53 C 0.34679 0.68724 1.02459
 C54 C 0.31049 0.65098 0.96384
 C55 C 0.35235 0.68887 0.96899
 C56 C 0.30464 0.65007 1.01976
 O57 O 0.01702 0.32930 0.36392
 O58 O -0.02075 0.35692 0.32785
 O59 O -0.02431 0.33026 0.35887
 O60 O 0.02127 0.35798 0.33313
 O61 O 0.02355 0.33279 0.30840
 O62 O -0.02055 0.30355 0.33608
 O63 O -0.01824 0.33058 0.30438
 O64 O 0.02165 0.30424 0.33930
 Cu65 Cu -0.00174 0.34631 0.34827
 Cu66 Cu 0.00207 0.31517 0.31967
 C67 C 0.02544 0.31185 0.35791
 C68 C -0.02629 0.34828 0.31014
 C69 C -0.03018 0.31208 0.35216
 C70 C 0.02973 0.35057 0.31596
 O71 O 0.02021 0.68837 0.66144
 O72 O -0.02308 0.65235 0.67920
 O73 O -0.02049 0.68586 0.65332
 O74 O 0.01798 0.65620 0.68686
 O75 O 0.01065 0.67749 0.71432
 O76 O -0.02965 0.70581 0.68122
 O77 O -0.03060 0.67343 0.70681
 O78 O 0.01198 0.71050 0.68794
 Cu79 Cu -0.00082 0.66850 0.66744
 Cu80 Cu -0.01005 0.69400 0.70034
 C81 C 0.02328 0.70576 0.67135
 C82 C -0.03382 0.65640 0.69629
 C83 C -0.03148 0.70107 0.66135
 C84 C 0.02089 0.66175 0.70636
 O85 O 1.03096 0.65749 0.31712
 O86 O 0.98657 0.68811 0.34150
 O87 O 0.98893 0.65827 0.31294
 O88 O 1.02872 0.68883 0.34472
 O89 O 1.03131 0.71211 0.31836
 O90 O 0.99137 0.68188 0.28680
 O91 O 0.98947 0.71214 0.31574
 O92 O 1.03338 0.68050 0.29045
 Cu93 Cu 1.00865 0.67082 0.33168
 Cu94 Cu 1.01173 0.69898 0.30017
 C95 C 1.03952 0.66343 0.29946
 C96 C 0.98053 0.70537 0.33295
 C97 C 0.98328 0.66494 0.29445
 C98 C 1.03656 0.70598 0.33714
 O99 O 0.97867 0.32235 0.64767
 O100 O 1.01761 0.34669 0.68529
 O101 O 1.02088 0.32081 0.65349
 O102 O 0.97618 0.34905 0.68028
 O103 O 0.97079 0.32189 0.70212
 O104 O 1.01592 0.29346 0.67507
 O105 O 1.01254 0.32015 0.70800
 O106 O 0.97423 0.29539 0.66990
 Cu107 Cu 0.99863 0.33734 0.66431
 Cu108 Cu 0.99297 0.30499 0.69101
 C109 C 0.96990 0.30463 0.65225
 C110 C 1.02153 0.33769 0.70315
 C111 C 1.02619 0.30233 0.65965
 C112 C 0.96612 0.34056 0.69598
 O113 O 0.33976 0.02316 0.31634
 O114 O 0.31379 -0.01641 0.35149
 O115 O 0.34297 -0.01774 0.32141
 O116 O 0.30970 0.02389 0.34656
 O117 O 0.28479 0.01988 0.32128
 O118 O 0.31750 -0.02317 0.29705
 O119 O 0.28777 -0.02091 0.32753
 O120 O 0.31494 0.01758 0.29141
 Cu121 Cu 0.32915 0.00387 0.33632
 Cu122 Cu 0.29870 -0.00216 0.30684
 C123 C 0.33211 0.02688 0.29772
 C124 C 0.29619 -0.02523 0.34573
 C125 C 0.33590 -0.02769 0.30502
 C126 C 0.29152 0.02876 0.33842
 O127 O 0.65702 0.01597 0.67832
 O128 O 0.69072 -0.02341 0.65014
 O129 O 0.65923 -0.02532 0.67764
 O130 O 0.68913 0.01790 0.65116
 O131 O 0.71269 0.01855 0.67790
 O132 O 0.68226 -0.02433 0.70484
 O133 O 0.71448 -0.02257 0.67674
 O134 O 0.68029 0.01697 0.70526
 Cu135 Cu 0.67169 -0.00375 0.66164
 Cu136 Cu 0.69977 -0.00282 0.69393
 C137 C 0.66279 0.02326 0.69655
 C138 C 0.70834 -0.02967 0.65852
 C139 C 0.66559 -0.03215 0.69578
 C140 C 0.70605 0.02555 0.65990
 O141 O 0.35517 0.97968 0.68345
 O142 O 0.32600 1.02020 0.65203
 O143 O 0.35772 1.02081 0.67984
 O144 O 0.32535 0.97928 0.65422
 O145 O 0.30000 0.98272 0.67932
 O146 O 0.33404 1.02321 0.70660
 O147 O 0.30258 1.02418 0.67890
 O148 O 0.33039 0.98232 0.70922
 Cu149 Cu 0.34353 0.99976 0.66482
 Cu150 Cu 0.31424 1.00330 0.69612
 C151 C 0.34771 0.97414 0.70177
 C152 C 0.30939 1.02916 0.66024
 C153 C 0.35173 1.02897 0.69765
 C154 C 0.30706 0.97406 0.66204
 O155 O 0.68105 1.01766 0.34416
 O156 O 0.65165 0.97500 0.31551
 O157 O 0.68161 0.97627 0.34499
 O158 O 0.64974 1.01621 0.31640
 O159 O 0.67391 1.01681 0.28999
 O160 O 0.70685 0.97744 0.31956
 O161 O 0.67655 0.97554 0.28979
 O162 O 0.70549 1.01834 0.31804
 Cu163 Cu 0.66357 0.99617 0.33286
 Cu164 Cu 0.69312 0.99704 0.30169
 C165 C 0.69842 1.02528 0.33603
 C166 C 0.65904 0.96809 0.29761
 C167 C 0.69980 0.97030 0.33745
 C168 C 0.65618 1.02330 0.29832
 C169 C 0.80192 0.88979 0.51087
 C170 C 0.80045 0.89071 0.48881
 C171 C 0.81699 0.87810 0.48060
 N172 N 0.82867 0.86973 0.49694
 C173 C 0.81933 0.87664 0.51548
 C174 C 0.82186 0.87562 0.45839
 C175 C 0.83813 0.86182 0.45033
 C176 C 0.84586 0.86176 0.42924
 C177 C 0.86047 0.84537 0.42759
 C178 C 0.86121 0.83571 0.44767
 N179 N 0.84737 0.84571 0.46135
 C180 C 0.87313 0.81711 0.45234
 C181 C 0.87519 0.80875 0.47338
 C182 C 0.88321 0.78879 0.47820
 C183 C 0.88390 0.78747 0.50026
 C184 C 0.87692 0.80691 0.50826
 N185 N 0.87148 0.81983 0.49178
 C186 C 0.87754 0.81315 0.53026
 C187 C 0.86714 0.83182 0.53791
 C188 C 0.87057 0.84110 0.55795
 C189 C 0.85611 0.85764 0.55984
 C190 C 0.84455 0.85838 0.54070
 N191 N 0.85130 0.84253 0.52748
 C192 C 0.82722 0.87247 0.53648
 H193 H 0.79158 0.89824 0.52216
 H194 H 0.78874 0.89994 0.47988
 H195 H 0.84370 0.83772 0.51333
 H196 H 0.84127 0.87217 0.41620
 H197 H 0.86907 0.84079 0.41303
 H198 H 0.88816 0.77640 0.46712
 H199 H 0.88929 0.77381 0.50931
 H200 H 0.85434 0.86788 0.57378
 H201 H 0.84263 0.84037 0.47648
 H202 H 0.88211 0.83635 0.57013
 C203 C 0.13302 0.22522 0.49984
 C204 C 0.13384 0.22412 0.52192
 C205 C 0.14349 0.20488 0.52695
 N206 N 0.14800 0.19397 0.50860
 C207 C 0.14147 0.20632 0.49199
 C208 C 0.14613 0.19675 0.54811
 C209 C 0.15941 0.17900 0.55272
 C210 C 0.15980 0.16818 0.57222
 C211 C 0.17551 0.15274 0.57037
 C212 C 0.18455 0.15474 0.54995
 N213 N 0.17480 0.17091 0.53940
 C214 C 0.20187 0.14234 0.54170
 C215 C 0.20750 0.14226 0.51959
 C216 C 0.22634 0.13353 0.51101
 C217 C 0.22391 0.13346 0.48903
 C218 C 0.20375 0.14229 0.48497
 N219 N 0.19378 0.14774 0.50363
 C220 C 0.19356 0.14256 0.46466
 C221 C 0.17557 0.15570 0.46033
 C222 C 0.16250 0.15428 0.44224
 C223 C 0.14769 0.17058 0.44375
 C224 C 0.15208 0.18138 0.46280
 N225 N 0.16914 0.17227 0.47275
 C226 C 0.14126 0.19987 0.47004
 H227 H 0.12649 0.23834 0.49072
 H228 H 0.12777 0.23618 0.53280
 H229 H 0.17729 0.17840 0.48608
 H230 H 0.14998 0.17109 0.58645
 H231 H 0.17980 0.14143 0.58275
 H232 H 0.24009 0.12724 0.51973
 H233 H 0.23537 0.12711 0.47737
 H234 H 0.13507 0.17405 0.43219
 H235 H 0.17977 0.17736 0.52474
 H236 H 0.16357 0.14279 0.42924
 C237 C 0.19399 0.89627 0.49694
 C238 C 0.19367 0.89711 0.51909
 C239 C 0.18521 0.87792 0.52609
 N240 N 0.18050 0.86535 0.50901
 C241 C 0.18587 0.87653 0.49116
 C242 C 0.18367 0.87165 0.54793
 C243 C 0.17238 0.85331 0.55477
 C244 C 0.17428 0.84413 0.57500
 C245 C 0.16023 0.82715 0.57547
 C246 C 0.15012 0.82646 0.55553
 N247 N 0.15747 0.84257 0.54307
 C248 C 0.13394 0.81169 0.54958
 C249 C 0.12724 0.80866 0.52803
 C250 C 0.10913 0.79712 0.52185
 C251 C 0.10958 0.79618 0.49973
 C252 C 0.12806 0.80704 0.49315
 N253 N 0.13879 0.81473 0.51049
 C254 C 0.13582 0.80810 0.47166
 C255 C 0.15263 0.82211 0.46528
 C256 C 0.16400 0.82089 0.44592
 C257 C 0.17783 0.83805 0.44536
 C258 C 0.17463 0.84922 0.46444
 N259 N 0.15920 0.83944 0.47647
 C260 C 0.18511 0.86849 0.46982
 H261 H 0.19982 0.90868 0.48635
 H262 H 0.19923 0.91025 0.52893
 H263 H 0.15191 0.84553 0.49036
 H264 H 0.18475 0.84910 0.58806
 H265 H 0.15777 0.81652 0.58896
 H266 H 0.09701 0.78992 0.53223
 H267 H 0.09780 0.78816 0.48968
 H268 H 0.18899 0.84184 0.43237
 H269 H 0.15119 0.84716 0.52825
 H270 H 0.16246 0.80893 0.43344
 C271 C 0.87798 0.20787 0.48156
 C272 C 0.87896 0.20813 0.50368
 C273 C 0.85923 0.20035 0.51109
 N274 N 0.84628 0.19528 0.49426
 C275 C 0.85773 0.19984 0.47619
 C276 C 0.85287 0.19931 0.53303
 C277 C 0.83399 0.18841 0.53991
 C278 C 0.82421 0.19065 0.56002
 C279 C 0.80735 0.17630 0.56078
 C280 C 0.80733 0.16572 0.54111
 N281 N 0.82362 0.17316 0.52852
 C282 C 0.79346 0.14868 0.53572
 C283 C 0.79106 0.14108 0.51440
 C284 C 0.78102 0.12215 0.50881
 C285 C 0.78038 0.12155 0.48671
 C286 C 0.78998 0.14018 0.47954
 N287 N 0.79654 0.15208 0.49649
 C288 C 0.79100 0.14673 0.45776
 C289 C 0.80440 0.16365 0.45084
 C290 C 0.80302 0.17364 0.43098
 C291 C 0.81963 0.18829 0.43019
 C292 C 0.83064 0.18684 0.44961
 N293 N 0.82133 0.17173 0.46204
 C294 C 0.84953 0.19843 0.45495
 H295 H 0.89069 0.21311 0.47067
 H296 H 0.89259 0.21355 0.51318
 H297 H 0.82761 0.16571 0.47632
 H298 H 0.82884 0.20140 0.57287
 H299 H 0.79649 0.17380 0.57434
 H300 H 0.77470 0.11009 0.51955
 H301 H 0.77349 0.10892 0.47704
 H302 H 0.82324 0.19874 0.41681
 H303 H 0.82892 0.16648 0.51404
 H304 H 0.79134 0.17064 0.41833
 C305 C 0.49407 0.76134 0.84970
 C306 C 0.51630 0.76191 0.85088
 C307 C 0.52258 0.78206 0.84443
 N308 N 0.50499 0.79376 0.83927
 C309 C 0.48754 0.78116 0.84258
 C310 C 0.54394 0.79015 0.84568
 C311 C 0.55029 0.80919 0.83540
 C312 C 0.56958 0.81994 0.83913
 C313 C 0.57008 0.83682 0.82513
 C314 C 0.55090 0.83617 0.81349
 N315 N 0.53906 0.81914 0.81968
 C316 C 0.54537 0.85036 0.79677
 C317 C 0.52410 0.85242 0.78850
 C318 C 0.51843 0.86544 0.77143
 C319 C 0.49630 0.86435 0.76963
 C320 C 0.48906 0.85074 0.78570
 N321 N 0.50609 0.84362 0.79733
 C322 C 0.46696 0.84676 0.79061
 C323 C 0.46008 0.83262 0.80696
 C324 C 0.43951 0.83227 0.81618
 C325 C 0.43931 0.81599 0.83092
 C326 C 0.45959 0.80645 0.82993
 N327 N 0.47211 0.81667 0.81523
 C328 C 0.46577 0.78815 0.84161
 H329 H 0.48384 0.74801 0.85401
 H330 H 0.52663 0.74912 0.85629
 H331 H 0.48721 0.81173 0.80953
 H332 H 0.58211 0.81602 0.85062
 H333 H 0.58318 0.84820 0.82375
 H334 H 0.52900 0.87520 0.76159
 H335 H 0.48665 0.87314 0.75818
 H336 H 0.42565 0.81165 0.84105
 H337 H 0.52526 0.81336 0.81203
 H338 H 0.42600 0.84268 0.81280
 C339 C 0.48626 0.10676 0.20024
 C340 C 0.50847 0.10584 0.19877
 C341 C 0.51508 0.12419 0.18833
 N342 N 0.49767 0.13622 0.18328
 C343 C 0.48003 0.12557 0.19053
 C344 C 0.53691 0.13044 0.18522
 C345 C 0.54292 0.14811 0.17255
 C346 C 0.56298 0.15810 0.17328
 C347 C 0.56264 0.17381 0.15793
 C348 C 0.54243 0.17290 0.14817
 N349 N 0.53051 0.15716 0.15717
 C350 C 0.53596 0.18557 0.13055
 C351 C 0.51413 0.18727 0.12387
 C352 C 0.50743 0.19651 0.10477
 C353 C 0.48515 0.19630 0.10512
 C354 C 0.47897 0.18708 0.12451
 N355 N 0.49673 0.18156 0.13594
 C356 C 0.45732 0.18540 0.13211
 C357 C 0.45152 0.17365 0.15068
 C358 C 0.43196 0.17553 0.16174
 C359 C 0.43236 0.16090 0.17819
 C360 C 0.45210 0.15041 0.17666
 N361 N 0.46363 0.15821 0.15978
 C362 C 0.45855 0.13340 0.19003
 H363 H 0.47588 0.09500 0.20775
 H364 H 0.51860 0.09325 0.20496
 H365 H 0.47792 0.15191 0.15346
 H366 H 0.57646 0.15445 0.18377
 H367 H 0.57586 0.18458 0.15430
 H368 H 0.51754 0.20281 0.09195
 H369 H 0.47471 0.20245 0.09261
 H370 H 0.41952 0.15826 0.18988
 H371 H 0.51575 0.15138 0.15154
 H372 H 0.41879 0.18637 0.15835
 C373 C 0.52084 0.11523 0.79795
 C374 C 0.49857 0.11553 0.79766
 C375 C 0.49232 0.13554 0.80464
 N376 N 0.50999 0.14747 0.80917
 C377 C 0.52746 0.13507 0.80511
 C378 C 0.47069 0.14300 0.80522
 C379 C 0.46464 0.16235 0.81511
 C380 C 0.44495 0.17258 0.81212
 C381 C 0.44490 0.19001 0.82555
 C382 C 0.46455 0.18991 0.83638
 N383 N 0.47646 0.17299 0.82996
 C384 C 0.47050 0.20444 0.85273
 C385 C 0.49208 0.20665 0.86000
 C386 C 0.49829 0.21800 0.87816
 C387 C 0.52053 0.21766 0.87852
 C388 C 0.52717 0.20607 0.86059
 N389 N 0.50976 0.19936 0.84928
 C390 C 0.54899 0.20333 0.85403
 C391 C 0.55547 0.18845 0.83815
 C392 C 0.57573 0.18789 0.82829
 C393 C 0.57581 0.17051 0.81474
 C394 C 0.55560 0.16093 0.81676
 N395 N 0.54337 0.17190 0.83115
 C396 C 0.54929 0.14195 0.80623
 H397 H 0.53101 0.10197 0.79326
 H398 H 0.48819 0.10255 0.79269
 H399 H 0.52850 0.16711 0.83753
 H400 H 0.43190 0.16789 0.80146
 H401 H 0.43182 0.20136 0.82727
 H402 H 0.48789 0.22583 0.88986
 H403 H 0.53067 0.22521 0.89053
 H404 H 0.58925 0.16548 0.80462
 H405 H 0.49068 0.16764 0.83710
 H406 H 0.58908 0.19883 0.83065
 C407 C 0.48409 0.78414 0.12265
 C408 C 0.50616 0.78249 0.12487
 C409 C 0.51133 0.79204 0.14438
 N410 N 0.49316 0.79940 0.15418
 C411 C 0.47649 0.79458 0.14091
 C412 C 0.53229 0.79239 0.15355
 C413 C 0.53785 0.80532 0.17139
 C414 C 0.55678 0.80349 0.18327
 C415 C 0.55649 0.81960 0.19836
 C416 C 0.53738 0.83081 0.19526
 N417 N 0.52621 0.82208 0.17871
 C418 C 0.53123 0.84926 0.20683
 C419 C 0.50996 0.85767 0.20634
 C420 C 0.50403 0.87739 0.21441
 C421 C 0.48191 0.87879 0.21241
 C422 C 0.47506 0.85986 0.20321
 N423 N 0.49222 0.84697 0.19951
 C424 C 0.45314 0.85413 0.19985
 C425 C 0.44695 0.83643 0.18723
 C426 C 0.42632 0.82755 0.18696
 C427 C 0.42664 0.81173 0.17158
 C428 C 0.44747 0.81137 0.16297
 N429 N 0.45972 0.82649 0.17255
 C430 C 0.45436 0.79810 0.14584
 H431 H 0.47470 0.77816 0.10920
 H432 H 0.51714 0.77499 0.11347
 H433 H 0.47511 0.83136 0.16761
 H434 H 0.56953 0.79183 0.18122
 H435 H 0.56896 0.82275 0.21020
 H436 H 0.51453 0.88948 0.22114
 H437 H 0.47201 0.89216 0.21731
 H438 H 0.41307 0.80171 0.16719
 H439 H 0.51260 0.82854 0.17137
 H440 H 0.41243 0.83208 0.19670
 C441 C 0.77941 0.48695 0.87820
 C442 C 0.77719 0.50857 0.87778
 C443 C 0.79182 0.51607 0.86248
 N444 N 0.80314 0.49969 0.85382
 C445 C 0.79543 0.48184 0.86327
 C446 C 0.79581 0.53781 0.85817
 C447 C 0.81034 0.54485 0.84187
 C448 C 0.81899 0.56515 0.84043
 C449 C 0.83187 0.56558 0.82224
 C450 C 0.83025 0.54575 0.81261
 N451 N 0.81704 0.53324 0.82466
 C452 C 0.84006 0.53985 0.79272
 C453 C 0.84079 0.51855 0.78564
 C454 C 0.84593 0.51206 0.76482
 C455 C 0.84847 0.49045 0.76554
 C456 C 0.84470 0.48450 0.78676
 N457 N 0.83990 0.50167 0.79898
 C458 C 0.84851 0.46406 0.79516
 C459 C 0.83998 0.45757 0.81535
 C460 C 0.84554 0.43911 0.82613
 C461 C 0.83261 0.43814 0.84430
 C462 C 0.81990 0.45630 0.84440
 N463 N 0.82430 0.46790 0.82660
 C464 C 0.80383 0.46117 0.85998
 H465 H 0.77064 0.47631 0.88882
 H466 H 0.76640 0.51765 0.88808
 H467 H 0.81545 0.48094 0.82135
 H468 H 0.81650 0.57840 0.85129
 H469 H 0.84121 0.57910 0.81677
 H470 H 0.84828 0.52196 0.75075
 H471 H 0.85314 0.48033 0.75215
 H472 H 0.83270 0.42554 0.85612
 H473 H 0.81119 0.51835 0.82029
 H474 H 0.85751 0.42740 0.82139
 C475 C 0.20766 0.50174 0.10910
 C476 C 0.20536 0.48010 0.10970
 C477 C 0.19557 0.47535 0.12930
 N478 N 0.19183 0.49332 0.14070
 C479 C 0.19922 0.50947 0.12838
 C480 C 0.19194 0.45465 0.13718
 C481 C 0.17930 0.45044 0.15575
 C482 C 0.17910 0.43134 0.16680
 C483 C 0.16391 0.43332 0.18304
 C484 C 0.15521 0.45356 0.18140
 N485 N 0.16468 0.46388 0.16471
 C486 C 0.13794 0.46147 0.19422
 C487 C 0.13273 0.48329 0.19545
 C488 C 0.11418 0.49153 0.20506
 C489 C 0.11597 0.51321 0.20397
 C490 C 0.13559 0.51751 0.19377
 N491 N 0.14582 0.49919 0.18861
 C492 C 0.14439 0.53802 0.19064
 C493 C 0.16299 0.54189 0.17776
 C494 C 0.17521 0.56038 0.17826
 C495 C 0.19102 0.55834 0.16260
 C496 C 0.18793 0.53872 0.15288
 N497 N 0.17078 0.52881 0.16221
 C498 C 0.20004 0.53091 0.13508
 H499 H 0.21492 0.51073 0.09606
 H500 H 0.21052 0.46910 0.09723
 H501 H 0.16331 0.51501 0.15672
 H502 H 0.18881 0.41739 0.16344
 H503 H 0.15964 0.42117 0.19462
 H504 H 0.10077 0.48284 0.21216
 H505 H 0.10421 0.52451 0.21009
 H506 H 0.20330 0.57006 0.15874
 H507 H 0.15968 0.47828 0.15827
 H508 H 0.17296 0.57396 0.18879
 C509 C 0.79619 0.49157 0.12072
 C510 C 0.79693 0.51332 0.12007
 C511 C 0.80503 0.52000 0.13979
 N512 N 0.80915 0.50310 0.15251
 C513 C 0.80373 0.48569 0.14089
 C514 C 0.80685 0.54142 0.14638
 C515 C 0.81861 0.54786 0.16481
 C516 C 0.81748 0.56782 0.17429
 C517 C 0.83221 0.56800 0.19093
 C518 C 0.84186 0.54813 0.19117
 N519 N 0.83359 0.53601 0.17513
 C520 C 0.85863 0.54195 0.20529
 C521 C 0.86469 0.52056 0.20824
 C522 C 0.88302 0.51392 0.21920
 C523 C 0.88191 0.49222 0.22017
 C524 C 0.86296 0.48635 0.20974
 N525 N 0.85244 0.50369 0.20246
 C526 C 0.85479 0.46543 0.20863
 C527 C 0.83762 0.45942 0.19489
 C528 C 0.82635 0.44040 0.19611
 C529 C 0.81194 0.44020 0.17920
 C530 C 0.81486 0.45910 0.16811
 N531 N 0.83059 0.47068 0.17775
 C532 C 0.80406 0.46469 0.14886
 H533 H 0.79057 0.48130 0.10787
 H534 H 0.79196 0.52310 0.10664
 H535 H 0.83780 0.48432 0.17157
 H536 H 0.80719 0.58093 0.16965
 H537 H 0.83547 0.58125 0.20160
 H538 H 0.89576 0.52369 0.22598
 H539 H 0.89363 0.48196 0.22785
 H540 H 0.80068 0.42753 0.17544
 H541 H 0.83945 0.52133 0.17006
 H542 H 0.82839 0.42791 0.20788
 C543 C 0.22264 0.48921 0.86554
 C544 C 0.22349 0.51083 0.86351
 C545 C 0.20420 0.51697 0.85392
 N546 N 0.19143 0.49981 0.85053
 C547 C 0.20258 0.48281 0.85777
 C548 C 0.19772 0.53821 0.85043
 C549 C 0.17987 0.54383 0.83732
 C550 C 0.17160 0.56421 0.83537
 C551 C 0.15535 0.56326 0.82027
 C552 C 0.15402 0.54232 0.81339
 N553 N 0.16928 0.53068 0.82361
 C554 C 0.13990 0.53484 0.79705
 C555 C 0.13649 0.51307 0.79247
 C556 C 0.12421 0.50539 0.77543
 C557 C 0.12407 0.48371 0.77719
 C558 C 0.13612 0.47878 0.79535
 N559 N 0.14347 0.49677 0.80479
 C560 C 0.13873 0.45805 0.80370
 C561 C 0.15084 0.45356 0.82246
 C562 C 0.14882 0.43532 0.83476
 C563 C 0.16407 0.43669 0.85087
 C564 C 0.17550 0.45540 0.84759
 N565 N 0.16719 0.46564 0.83029
 C566 C 0.19398 0.46199 0.85946
 H567 H 0.23525 0.47940 0.87239
 H568 H 0.23681 0.52075 0.86873
 H569 H 0.17393 0.47877 0.82264
 H570 H 0.17696 0.57846 0.84356
 H571 H 0.14590 0.57665 0.81481
 H572 H 0.11593 0.51441 0.76314
 H573 H 0.11555 0.47291 0.76658
 H574 H 0.16655 0.42501 0.86339
 H575 H 0.17375 0.51524 0.81982
 H576 H 0.13750 0.42237 0.83251
 C577 C 0.29265 0.37855 0.06794
 C578 C 0.27014 0.37673 0.07233
 C579 C 0.25833 0.36092 0.06097
 C580 C 0.26883 0.34760 0.04592
 C581 C 0.29100 0.35013 0.04138
 C582 C 0.30277 0.36555 0.05270
 C583 C 0.23601 0.35886 0.06423
 C584 C 0.22487 0.37274 0.07780
 C585 C 0.23574 0.38916 0.08897
 C586 C 0.25888 0.39055 0.08696
 C587 C 0.26998 0.40585 0.09946
 C588 C 0.25886 0.42022 0.11237
 C589 C 0.23627 0.42005 0.11334
 C590 C 0.22428 0.40441 0.10192
 C591 C 0.20129 0.40521 0.10345
 C592 C 0.19087 0.42117 0.11532
 C593 C 0.20294 0.43671 0.12604
 C594 C 0.22560 0.43581 0.12539
 H595 H 0.30287 0.39029 0.07543
 H596 H 0.25954 0.33581 0.03712
 H597 H 0.31994 0.36782 0.04955
 H598 H 0.22692 0.34667 0.05580
 H599 H 0.20764 0.37011 0.07921
 H600 H 0.28740 0.40715 0.09973
 H601 H 0.26808 0.43190 0.12140
 H602 H 0.19085 0.39416 0.09521
 H603 H 0.17328 0.42170 0.11571
 H604 H 0.23491 0.44786 0.13383
 C605 C 0.70219 0.60799 0.07378
 C606 C 0.72445 0.61134 0.07829
 C607 C 0.73517 0.62818 0.06741
 C608 C 0.72380 0.64119 0.05294
 C609 C 0.70182 0.63746 0.04857
 C610 C 0.69119 0.62080 0.05917
 C611 C 0.75724 0.63176 0.07076
 C612 C 0.76918 0.61862 0.08418
 C613 C 0.75940 0.60144 0.09515
 C614 C 0.73650 0.59824 0.09277
 C615 C 0.72638 0.58207 0.10495
 C616 C 0.73827 0.56880 0.11819
 C617 C 0.76071 0.57094 0.11976
 C618 C 0.77170 0.58730 0.10840
 C619 C 0.79462 0.58844 0.11045
 C620 C 0.80593 0.57379 0.12301
 C621 C 0.79485 0.55768 0.13393
 C622 C 0.77224 0.55652 0.13250
 H623 H 0.69282 0.59532 0.08080
 H624 H 0.73225 0.65394 0.04469
 H625 H 0.67421 0.61750 0.05609
 H626 H 0.76549 0.64470 0.06263
 H627 H 0.78613 0.62252 0.08576
 H628 H 0.70913 0.57929 0.10484
 H629 H 0.72979 0.55649 0.12708
 H630 H 0.80437 0.60009 0.10221
 H631 H 0.82347 0.57481 0.12394
 H632 H 0.76368 0.54402 0.14105
 C633 C 0.70928 0.37823 0.92819
 C634 C 0.73205 0.38124 0.92861
 C635 C 0.74376 0.37213 0.94594
 C636 C 0.73300 0.35980 0.96161
 C637 C 0.71041 0.35730 0.96099
 C638 C 0.69871 0.36664 0.94423
 C639 C 0.76602 0.37584 0.94783
 C640 C 0.77677 0.38921 0.93348
 C641 C 0.76576 0.39884 0.91614
 C642 C 0.74339 0.39368 0.91292
 C643 C 0.73308 0.40103 0.89406
 C644 C 0.74377 0.41418 0.87958
 C645 C 0.76494 0.42092 0.88352
 C646 C 0.77632 0.41345 0.90185
 C647 C 0.79746 0.42163 0.90553
 C648 C 0.80660 0.43674 0.89170
 C649 C 0.79520 0.44379 0.87365
 C650 C 0.77457 0.43559 0.86943
 H651 H 0.69901 0.38535 0.91619
 H652 H 0.74207 0.35291 0.97481
 H653 H 0.68121 0.36500 0.94353
 H654 H 0.77513 0.36879 0.96091
 H655 H 0.79391 0.39137 0.93615
 H656 H 0.71677 0.39652 0.88979
 H657 H 0.73515 0.41957 0.86540
 H658 H 0.80696 0.41736 0.91941
 H659 H 0.82247 0.44326 0.89530
 H660 H 0.76568 0.44136 0.85557
 C661 C 0.29965 0.61549 0.91572
 C662 C 0.27666 0.61524 0.91493
 C663 C 0.26516 0.62736 0.93058
 C664 C 0.27637 0.63980 0.94572
 C665 C 0.29907 0.63952 0.94649
 C666 C 0.31060 0.62724 0.93147
 C667 C 0.24254 0.62658 0.93145
 C668 C 0.23105 0.61313 0.91788
 C669 C 0.24176 0.60045 0.90231
 C670 C 0.26473 0.60271 0.89977
 C671 C 0.27493 0.59249 0.88211
 C672 C 0.26326 0.57956 0.86810
 C673 C 0.24124 0.57558 0.87166
 C674 C 0.23024 0.58569 0.88906
 C675 C 0.20838 0.57988 0.89310
 C676 C 0.19803 0.56467 0.88038
 C677 C 0.20881 0.55520 0.86292
 C678 C 0.23027 0.56106 0.85832
 H679 H 0.30960 0.60606 0.90501
 H680 H 0.26736 0.64894 0.95763
 H681 H 0.32818 0.62666 0.93195
 H682 H 0.23364 0.63602 0.94319
 H683 H 0.21361 0.61339 0.91958
 H684 H 0.29191 0.59464 0.87839
 H685 H 0.27174 0.57205 0.85472
 H686 H 0.19919 0.58601 0.90660
 H687 H 0.18152 0.56005 0.88433
 H688 H 0.23869 0.55354 0.84489
 C689 C 0.04302 0.28471 0.40892
 C690 C 0.06153 0.27314 0.40211
 C691 C 0.06920 0.27630 0.38072
 C692 C 0.05742 0.28897 0.36626
 C693 C 0.03873 0.29969 0.37317
 C694 C 0.03199 0.29791 0.39468
 C695 C 0.08851 0.26677 0.37391
 C696 C 0.10066 0.25450 0.38802
 C697 C 0.09334 0.25040 0.40925
 C698 C 0.07282 0.25883 0.41590
 C699 C 0.06388 0.25209 0.43577
 C700 C 0.07497 0.23814 0.44906
 C701 C 0.09578 0.23118 0.44359
 C702 C 0.10554 0.23766 0.42389
 C703 C 0.12733 0.23157 0.41995
 C704 C 0.13874 0.21944 0.43493
 C705 C 0.12874 0.21252 0.45401
 C706 C 0.10703 0.21804 0.45795
 H707 H 0.03699 0.28423 0.42529
 H708 H 0.06290 0.29068 0.34968
 H709 H 0.01766 0.30627 0.40034
 H710 H 0.09448 0.26909 0.35758
 H711 H 0.11535 0.24763 0.38153
 H712 H 0.04786 0.25670 0.44109
 H713 H 0.06736 0.23315 0.46403
 H714 H 0.13627 0.23668 0.40588
 H715 H 0.15560 0.21558 0.43168
 H716 H 0.09911 0.21261 0.47261
 C717 C 0.05142 0.75690 0.65556
 C718 C 0.06671 0.74978 0.63991
 C719 C 0.06896 0.72755 0.63703
 C720 C 0.05555 0.71336 0.64829
 C721 C 0.03957 0.72074 0.66261
 C722 C 0.03809 0.74256 0.66667
 C723 C 0.08409 0.71947 0.62240
 C724 C 0.09641 0.73292 0.60961
 C725 C 0.09392 0.75517 0.61074
 C726 C 0.07929 0.76380 0.62657
 C727 C 0.07725 0.78609 0.62803
 C728 C 0.08830 0.79948 0.61395
 C729 C 0.10184 0.79129 0.59785
 C730 C 0.10516 0.76905 0.59619
 C731 C 0.11912 0.76160 0.57955
 C732 C 0.12866 0.77557 0.56490
 C733 C 0.12478 0.79736 0.56631
 C734 C 0.11170 0.80523 0.58304
 H735 H 0.04890 0.77343 0.65922
 H736 H 0.05707 0.69645 0.64531
 H737 H 0.02593 0.74865 0.67777
 H738 H 0.08613 0.70248 0.62046
 H739 H 0.10753 0.72520 0.59869
 H740 H 0.06689 0.79379 0.63971
 H741 H 0.08588 0.81646 0.61545
 H742 H 0.12276 0.74508 0.57702
 H743 H 0.13892 0.76929 0.55212
 H744 H 0.10877 0.82217 0.58413
 C745 C 0.93067 0.71888 0.36576
 C746 C 0.93253 0.74115 0.36829
 C747 C 0.95028 0.75146 0.35803
 C748 C 0.96507 0.73988 0.34529
 C749 C 0.96331 0.71780 0.34362
 C750 C 0.94603 0.70744 0.35387
 C751 C 0.95365 0.77314 0.36117
 C752 C 0.94058 0.78461 0.37535
 C753 C 0.92309 0.77493 0.38638
 C754 C 0.91804 0.75329 0.38153
 C755 C 0.89871 0.74455 0.39008
 C756 C 0.88550 0.75611 0.40406
 C757 C 0.89142 0.77648 0.41066
 C758 C 0.91043 0.78614 0.40210
 C759 C 0.91652 0.80624 0.41039
 C760 C 0.90426 0.81616 0.42650
 C761 C 0.88536 0.80667 0.43453
 C762 C 0.87873 0.78704 0.42624
 H763 H 0.91820 0.70970 0.37368
 H764 H 0.97873 0.74787 0.33772
 H765 H 0.94455 0.69032 0.35290
 H766 H 0.96699 0.78120 0.35315
 H767 H 0.94433 0.80125 0.37703
 H768 H 0.89310 0.72887 0.38587
 H769 H 0.87085 0.74874 0.41030
 H770 H 0.93119 0.81427 0.40546
 H771 H 0.90967 0.83126 0.43296
 H772 H 0.86413 0.77966 0.43262
 C773 C 0.93291 0.29582 0.60425
 C774 C 0.92586 0.27458 0.60716
 C775 C 0.93391 0.26346 0.62530
 C776 C 0.94791 0.27345 0.64000
 C777 C 0.95467 0.29448 0.63689
 C778 C 0.94709 0.30550 0.61884
 C779 C 0.92809 0.24235 0.62868
 C780 C 0.91478 0.23173 0.61422
 C781 C 0.90640 0.24194 0.59580
 C782 C 0.91144 0.26392 0.59259
 C783 C 0.90173 0.27454 0.57507
 C784 C 0.88805 0.26400 0.56085
 C785 C 0.88374 0.24241 0.56321
 C786 C 0.89296 0.23096 0.58058
 C787 C 0.88859 0.20889 0.58174
 C788 C 0.87556 0.19883 0.56642
 C789 C 0.86637 0.21032 0.54951
 C790 C 0.87037 0.23215 0.54809
 H791 H 0.92812 0.30533 0.59067
 H792 H 0.95384 0.26465 0.65378
 H793 H 0.95213 0.32172 0.61595
 H794 H 0.93408 0.23383 0.64261
 H795 H 0.91106 0.21551 0.61821
 H796 H 0.90407 0.29120 0.57205
 H797 H 0.88095 0.27285 0.54767
 H798 H 0.89533 0.19878 0.59398
 H799 H 0.87280 0.18188 0.56762
 H800 H 0.86324 0.24109 0.53498
 C801 C 0.35010 0.05576 0.24707
 C802 C 0.36839 0.06748 0.25424
 C803 C 0.37341 0.06659 0.27655
 C804 C 0.36121 0.05379 0.29065
 C805 C 0.34371 0.04169 0.28310
 C806 C 0.33806 0.04313 0.26128
 C807 C 0.39082 0.07819 0.28470
 C808 C 0.40377 0.09040 0.27120
 C809 C 0.40001 0.09135 0.24874
 C810 C 0.38200 0.07972 0.24010
 C811 C 0.37858 0.08027 0.21757
 C812 C 0.39245 0.09133 0.20387
 C813 C 0.41018 0.10252 0.21198
 C814 C 0.41401 0.10309 0.23457
 C815 C 0.43195 0.11517 0.24194
 C816 C 0.44589 0.12533 0.22745
 C817 C 0.44246 0.12393 0.20520
 C818 C 0.42436 0.11285 0.19754
 H819 H 0.34469 0.05586 0.23057
 H820 H 0.36562 0.05303 0.30756
 H821 H 0.32451 0.03408 0.25499
 H822 H 0.39463 0.07768 0.30177
 H823 H 0.41697 0.09857 0.27895
 H824 H 0.36550 0.07190 0.20982
 H825 H 0.38937 0.09094 0.18666
 H826 H 0.43585 0.11706 0.25875
 H827 H 0.45970 0.13409 0.23362
 H828 H 0.42164 0.11188 0.18028
 C829 C 0.61793 0.06311 0.70670
 C830 C 0.62135 0.06933 0.72842
 C831 C 0.63891 0.05985 0.73955
 C832 C 0.65259 0.04513 0.72906
 C833 C 0.64887 0.03919 0.70756
 C834 C 0.63142 0.04833 0.69658
 C835 C 0.64261 0.06491 0.76115
 C836 C 0.62899 0.07880 0.77222
 C837 C 0.61116 0.08854 0.76198
 C838 C 0.60773 0.08426 0.73952
 C839 C 0.59084 0.09511 0.72887
 C840 C 0.57718 0.10893 0.73987
 C841 C 0.57959 0.11244 0.76193
 C842 C 0.59661 0.10241 0.77340
 C843 C 0.59798 0.10641 0.79592
 C844 C 0.58291 0.11950 0.80643
 C845 C 0.56613 0.12909 0.79491
 C846 C 0.56477 0.12577 0.77263
 H847 H 0.60472 0.06899 0.69712
 H848 H 0.66594 0.03804 0.73781
 H849 H 0.62807 0.04401 0.67997
 H850 H 0.65608 0.05782 0.76973
 H851 H 0.63305 0.08174 0.78885
 H852 H 0.58780 0.09347 0.71185
 H853 H 0.56435 0.11676 0.73100
 H854 H 0.61014 0.09931 0.80601
 H855 H 0.58411 0.12187 0.82372
 H856 H 0.55177 0.13328 0.76371
 C857 C 0.37077 0.94544 0.74990
 C858 C 0.38434 0.92995 0.74019
 C859 C 0.38421 0.92831 0.71734
 C860 C 0.37230 0.94276 0.70487
 C861 C 0.35958 0.95844 0.71480
 C862 C 0.35854 0.95932 0.73736
 C863 C 0.39605 0.91234 0.70703
 C864 C 0.40804 0.89785 0.71887
 C865 C 0.40932 0.89924 0.74160
 C866 C 0.39795 0.91606 0.75234
 C867 C 0.40125 0.91897 0.77471
 C868 C 0.41517 0.90595 0.78621
 C869 C 0.42574 0.88903 0.77612
 C870 C 0.42237 0.88492 0.75385
 C871 C 0.43231 0.86666 0.74478
 C872 C 0.44601 0.85389 0.75705
 C873 C 0.45034 0.85894 0.77859
 C874 C 0.43998 0.87637 0.78815
 H875 H 0.36896 0.94703 0.76715
 H876 H 0.37278 0.94170 0.68739
 H877 H 0.34858 0.97116 0.74539
 H878 H 0.39598 0.91097 0.68957
 H879 H 0.41693 0.88621 0.70961
 H880 H 0.39401 0.93185 0.78368
 H881 H 0.41766 0.90915 0.80323
 H882 H 0.42967 0.86169 0.72834
 H883 H 0.45377 0.84029 0.74955
 H884 H 0.44327 0.88017 0.80491
 C885 C 0.64078 0.93196 0.25216
 C886 C 0.62202 0.92210 0.26091
 C887 C 0.61658 0.92679 0.28270
 C888 C 0.62887 0.94146 0.29468
 C889 C 0.64692 0.95162 0.28547
 C890 C 0.65292 0.94643 0.26425
 C891 C 0.59872 0.91706 0.29241
 C892 C 0.58578 0.90299 0.28093
 C893 C 0.59000 0.89824 0.25900
 C894 C 0.60837 0.90802 0.24878
 C895 C 0.61211 0.90390 0.22662
 C896 C 0.59821 0.89112 0.21472
 C897 C 0.58019 0.88161 0.22436
 C898 C 0.57607 0.88455 0.24675
 C899 C 0.55792 0.87388 0.25580
 C900 C 0.54393 0.86192 0.24293
 C901 C 0.54753 0.86008 0.22069
 C902 C 0.56596 0.86953 0.21156
 H903 H 0.64657 0.92893 0.23602
 H904 H 0.62421 0.94513 0.31118
 H905 H 0.66690 0.95386 0.25674
 H906 H 0.59455 0.92050 0.30909
 H907 H 0.57218 0.89651 0.28969
 H908 H 0.62541 0.91079 0.21773
 H909 H 0.60151 0.88882 0.19765
 H910 H 0.55391 0.87451 0.27273
 H911 H 0.52990 0.85441 0.25028
 H912 H 0.56884 0.86795 0.19434
 C913 C 0.35793 0.25147 0.93192
 C914 C 0.37619 0.25999 0.92095
 C915 C 0.38031 0.28203 0.92337
 C916 C 0.36750 0.29449 0.93732
 C917 C 0.35023 0.28550 0.94894
 C918 C 0.34527 0.26403 0.94567
 C919 C 0.39749 0.29148 0.91226
 C920 C 0.41109 0.27951 0.89909
 C921 C 0.40832 0.25736 0.89680
 C922 C 0.39065 0.24741 0.90801
 C923 C 0.38851 0.22511 0.90659
 C924 C 0.40333 0.21288 0.89508
 C925 C 0.42065 0.22230 0.88418
 C926 C 0.42310 0.24470 0.88431
 C927 C 0.44052 0.25341 0.87216
 C928 C 0.45541 0.24035 0.86148
 C929 C 0.45349 0.21826 0.86250
 C930 C 0.43582 0.20932 0.87347
 H931 H 0.35298 0.23515 0.93038
 H932 H 0.37129 0.31118 0.93944
 H933 H 0.33184 0.25669 0.95420
 H934 H 0.40062 0.30834 0.91394
 H935 H 0.42413 0.28811 0.89146
 H936 H 0.37589 0.21643 0.91479
 H937 H 0.40130 0.19578 0.89491
 H938 H 0.44318 0.27022 0.87056
 H939 H 0.46877 0.24750 0.85267
 H940 H 0.43422 0.19219 0.87406
 C941 C 0.60061 0.72120 0.95757
 C942 C 0.60853 0.72997 0.93807
 C943 C 0.63035 0.72557 0.93206
 C944 C 0.64394 0.71397 0.94591
 C945 C 0.63569 0.70552 0.96515
 C946 C 0.61396 0.70904 0.97071
 C947 C 0.63829 0.73244 0.91211
 C948 C 0.62484 0.74295 0.89767
 C949 C 0.60308 0.74783 0.90304
 C950 C 0.59528 0.74234 0.92408
 C951 C 0.57464 0.74974 0.93064
 C952 C 0.56156 0.76119 0.91677
 C953 C 0.56821 0.76520 0.89565
 C954 C 0.58892 0.75836 0.88828
 C955 C 0.59428 0.76192 0.86629
 C956 C 0.57972 0.77205 0.85246
 C957 C 0.55960 0.77923 0.86014
 C958 C 0.55409 0.77593 0.88181
 H959 H 0.58395 0.72275 0.96276
 H960 H 0.66068 0.71084 0.94137
 H961 H 0.60725 0.70242 0.98544
 H962 H 0.65495 0.72922 0.90741
 H963 H 0.63216 0.74763 0.88257
 H964 H 0.56836 0.74749 0.94675
 H965 H 0.54586 0.76663 0.92255
 H966 H 0.60929 0.75649 0.85916
 H967 H 0.58413 0.77426 0.83566
 H968 H 0.53850 0.78148 0.88781
 C969 C 0.38542 0.69738 0.07075
 C970 C 0.38292 0.71940 0.07469
 C971 C 0.36754 0.73053 0.06206
 C972 C 0.35521 0.71986 0.04634
 C973 C 0.35830 0.69816 0.04238
 C974 C 0.37339 0.68706 0.05484
 C975 C 0.36486 0.75234 0.06483
 C976 C 0.37770 0.76361 0.07926
 C977 C 0.39363 0.75341 0.09184
 C978 C 0.39562 0.73081 0.09019
 C979 C 0.41030 0.72038 0.10401
 C980 C 0.42347 0.73164 0.11808
 C981 C 0.42274 0.75372 0.11889
 C982 C 0.40775 0.76501 0.10593
 C983 C 0.40804 0.78750 0.10722
 C984 C 0.42283 0.79811 0.12047
 C985 C 0.43768 0.78676 0.13290
 C986 C 0.43728 0.76458 0.13236
 H987 H 0.39698 0.68770 0.07918
 H988 H 0.34370 0.72866 0.03666
 H989 H 0.37613 0.67028 0.05214
 H990 H 0.35297 0.76091 0.05541
 H991 H 0.37459 0.78040 0.08027
 H992 H 0.41196 0.70339 0.10450
 H993 H 0.43467 0.72294 0.12819
 H994 H 0.39752 0.79741 0.09779
 H995 H 0.42300 0.81531 0.12070
 H996 H 0.44877 0.75580 0.14209
 C997 C 0.61033 0.29334 0.07153
 C998 C 0.61320 0.27126 0.07463
 C999 C 0.63157 0.26158 0.06478
 C1000 C 0.64630 0.27366 0.05245
 C1001 C 0.64273 0.29534 0.04902
 C1002 C 0.62476 0.30504 0.05885
 C1003 C 0.63486 0.23979 0.06678
 C1004 C 0.61993 0.22715 0.07767
 C1005 C 0.60113 0.23588 0.08736
 C1006 C 0.59817 0.25841 0.08656
 C1007 C 0.58028 0.26734 0.09768
 C1008 C 0.56532 0.25473 0.10850
 C1009 C 0.56735 0.23272 0.10852
 C1010 C 0.58520 0.22288 0.09792
 C1011 C 0.58608 0.20038 0.09806
 C1012 C 0.57008 0.18839 0.10849
 C1013 C 0.55276 0.19834 0.11913
 C1014 C 0.55150 0.22049 0.11911
 H1015 H 0.59672 0.30201 0.07803
 H1016 H 0.66003 0.26595 0.04469
 H1017 H 0.62161 0.32178 0.05644
 H1018 H 0.64896 0.23232 0.05947
 H1019 H 0.62376 0.21049 0.07838
 H1020 H 0.57743 0.28417 0.09861
 H1021 H 0.55183 0.26234 0.11677
 H1022 H 0.59867 0.19150 0.08998
 H1023 H 0.57119 0.17123 0.10825
 H1024 H 0.53806 0.22819 0.12738
 C1025 C 0.27968 0.07944 0.64579
 C1026 C 0.27301 0.07529 0.62433
 C1027 C 0.27846 0.05528 0.61518
 C1028 C 0.29119 0.04076 0.62667
 C1029 C 0.29756 0.04519 0.64782
 C1030 C 0.29150 0.06443 0.65740
 C1031 C 0.27090 0.04971 0.59477
 C1032 C 0.25743 0.06327 0.58341
 C1033 C 0.25171 0.08342 0.59171
 C1034 C 0.26068 0.09002 0.61187
 C1035 C 0.25754 0.11126 0.61857
 C1036 C 0.24580 0.12549 0.60607
 C1037 C 0.23585 0.11887 0.58701
 C1038 C 0.23795 0.09749 0.58005
 C1039 C 0.22592 0.09095 0.56182
 C1040 C 0.21363 0.10543 0.55017
 C1041 C 0.21316 0.12693 0.55597
 C1042 C 0.22394 0.13351 0.57470
 H1043 H 0.27532 0.09379 0.65429
 H1044 H 0.29542 0.02558 0.61948
 H1045 H 0.29603 0.06789 0.67393
 H1046 H 0.27511 0.03451 0.58764
 H1047 H 0.25244 0.05787 0.56766
 H1048 H 0.26481 0.11762 0.63301
 H1049 H 0.24428 0.14179 0.61153
 H1050 H 0.22534 0.07467 0.55644
 H1051 H 0.20476 0.09989 0.53616
 H1052 H 0.22325 0.15006 0.57952
 C1053 C 0.74280 0.06260 0.35100
 C1054 C 0.73508 0.07141 0.37063
 C1055 C 0.71390 0.06562 0.37754
 C1056 C 0.70183 0.05040 0.36607
 C1057 C 0.71008 0.04114 0.34706
 C1058 C 0.73048 0.04788 0.33944
 C1059 C 0.70491 0.07491 0.39598
 C1060 C 0.71647 0.08981 0.40785
 C1061 C 0.73792 0.09554 0.40212
 C1062 C 0.74762 0.08568 0.38360
 C1063 C 0.76979 0.08970 0.37919
 C1064 C 0.78212 0.10271 0.39252
 C1065 C 0.77277 0.11281 0.41032
 C1066 C 0.75034 0.11007 0.41490
 C1067 C 0.74134 0.12187 0.43226
 C1068 C 0.75443 0.13446 0.44543
 C1069 C 0.77686 0.13566 0.44186
 C1070 C 0.78586 0.12529 0.42391
 H1071 H 0.75819 0.06698 0.34394
 H1072 H 0.68589 0.04584 0.37202
 H1073 H 0.73729 0.04145 0.32464
 H1074 H 0.68870 0.07061 0.40134
 H1075 H 0.70842 0.09589 0.42206
 H1076 H 0.77841 0.08224 0.36604
 H1077 H 0.79923 0.10480 0.38887
 H1078 H 0.72424 0.12180 0.43604
 H1079 H 0.74711 0.14287 0.45890
 H1080 H 0.80319 0.12647 0.42090
 C1081 C 0.72379 0.92467 0.62211
 C1082 C 0.74665 0.92666 0.62054
 C1083 C 0.75674 0.94328 0.63233
 C1084 C 0.74433 0.95675 0.64572
 C1085 C 0.72170 0.95475 0.64663
 C1086 C 0.71159 0.93867 0.63474
 C1087 C 0.77902 0.94678 0.63016
 C1088 C 0.79139 0.93485 0.61571
 C1089 C 0.78202 0.91835 0.60337
 C1090 C 0.75963 0.91332 0.60692
 C1091 C 0.75097 0.89509 0.59681
 C1092 C 0.76330 0.88298 0.58259
 C1093 C 0.78454 0.88882 0.57743
 C1094 C 0.79425 0.90665 0.58761
 C1095 C 0.81548 0.91249 0.58089
 C1096 C 0.82634 0.90119 0.56463
 C1097 C 0.81662 0.88352 0.55495
 C1098 C 0.79590 0.87720 0.56166
 H1099 H 0.71471 0.91309 0.61301
 H1100 H 0.75216 0.96950 0.65457
 H1101 H 0.69407 0.93702 0.63509
 H1102 H 0.78690 0.95931 0.63926
 H1103 H 0.80844 0.93865 0.61485
 H1104 H 0.73471 0.88949 0.59992
 H1105 H 0.75592 0.86918 0.57510
 H1106 H 0.82376 0.92623 0.58720
 H1107 H 0.84224 0.90645 0.55930
 H1108 H 0.78830 0.86367 0.55387
 C1109 C 0.28624 0.93881 0.39359
 C1110 C 0.26423 0.93277 0.39111
 C1111 C 0.25303 0.94058 0.37281
 C1112 C 0.26365 0.95368 0.35770
 C1113 C 0.28535 0.95972 0.36066
 C1114 C 0.29649 0.95206 0.37868
 C1115 C 0.23118 0.93559 0.36985
 C1116 C 0.21992 0.92347 0.38492
 C1117 C 0.23018 0.91554 0.40357
 C1118 C 0.25288 0.91970 0.40635
 C1119 C 0.26347 0.91064 0.42427
 C1120 C 0.25225 0.89860 0.43937
 C1121 C 0.22999 0.89519 0.43744
 C1122 C 0.21854 0.90356 0.41955
 C1123 C 0.19583 0.89984 0.41869
 C1124 C 0.18516 0.88841 0.43489
 C1125 C 0.19666 0.88029 0.45242
 C1126 C 0.21910 0.88354 0.45348
 H1127 H 0.29597 0.93402 0.40711
 H1128 H 0.25479 0.95967 0.34392
 H1129 H 0.31326 0.95648 0.38143
 H1130 H 0.22256 0.94138 0.35584
 H1131 H 0.20311 0.92046 0.38131
 H1132 H 0.28062 0.91235 0.42708
 H1133 H 0.26110 0.89207 0.45289
 H1134 H 0.18572 0.90582 0.40596
 H1135 H 0.16776 0.88605 0.43386
 H1136 H 0.22803 0.87715 0.46703
 C1137 C 0.04432 0.36050 0.75477
 C1138 C 0.06219 0.37261 0.74714
 C1139 C 0.06768 0.37086 0.72493
 C1140 C 0.05454 0.35913 0.71079
 C1141 C 0.03633 0.34816 0.71847
 C1142 C 0.03172 0.34837 0.74060
 C1143 C 0.08601 0.38115 0.71682
 C1144 C 0.09901 0.39340 0.73019
 C1145 C 0.09372 0.39652 0.75218
 C1146 C 0.07462 0.38650 0.76064
 C1147 C 0.06799 0.39156 0.78191
 C1148 C 0.07937 0.40618 0.79437
 C1149 C 0.09830 0.41566 0.78652
 C1150 C 0.10628 0.41024 0.76569
 C1151 C 0.12643 0.41902 0.75914
 C1152 C 0.13723 0.43375 0.77207
 C1153 C 0.12837 0.44023 0.79183
 C1154 C 0.10909 0.43090 0.79921
 H1155 H 0.03977 0.35996 0.77159
 H1156 H 0.05842 0.35860 0.69369
 H1157 H 0.01783 0.33975 0.74687
 H1158 H 0.09033 0.37978 0.69987
 H1159 H 0.11259 0.40111 0.72247
 H1160 H 0.05336 0.38524 0.78906
 H1161 H 0.07325 0.41013 0.81032
 H1162 H 0.13436 0.41476 0.74419
 H1163 H 0.15232 0.44064 0.76633
 H1164 H 0.10233 0.43582 0.81463
 C1165 C 0.08013 0.61922 0.29100
 C1166 C 0.08480 0.62046 0.26862
 C1167 C 0.07511 0.63721 0.25683
 C1168 C 0.06124 0.65185 0.26715
 C1169 C 0.05621 0.64982 0.28914
 C1170 C 0.06602 0.63357 0.30095
 C1171 C 0.07878 0.63894 0.23468
 C1172 C 0.09109 0.62390 0.22368
 C1173 C 0.10052 0.60651 0.23450
 C1174 C 0.09809 0.60528 0.25747
 C1175 C 0.10884 0.58879 0.26850
 C1176 C 0.12055 0.57336 0.25746
 C1177 C 0.12196 0.57358 0.23502
 C1178 C 0.11214 0.59020 0.22313
 C1179 C 0.11390 0.58939 0.20029
 C1180 C 0.12461 0.57266 0.18991
 C1181 C 0.13396 0.55628 0.20184
 C1182 C 0.13289 0.55700 0.22439
 H1183 H 0.08649 0.60696 0.30123
 H1184 H 0.05361 0.66429 0.25781
 H1185 H 0.06247 0.63165 0.31799
 H1186 H 0.07164 0.65184 0.22562
 H1187 H 0.09296 0.62642 0.20659
 H1188 H 0.10863 0.58732 0.28581
 H1189 H 0.12829 0.56087 0.26663
 H1190 H 0.10674 0.60110 0.18991
 H1191 H 0.12530 0.57229 0.17243
 H1192 H 0.14025 0.54432 0.23362
 C1193 C 0.94139 0.36397 0.26089
 C1194 C 0.92860 0.38106 0.26874
 C1195 C 0.93029 0.38626 0.29097
 C1196 C 0.94490 0.37546 0.30431
 C1197 C 0.95787 0.35906 0.29609
 C1198 C 0.95571 0.35319 0.27439
 C1199 C 0.91758 0.40238 0.29983
 C1200 C 0.90340 0.41385 0.28710
 C1201 C 0.90157 0.40988 0.26472
 C1202 C 0.91447 0.39330 0.25534
 C1203 C 0.91334 0.38997 0.23280
 C1204 C 0.90062 0.40275 0.21976
 C1205 C 0.88820 0.41910 0.22860
 C1206 C 0.88791 0.42252 0.25127
 C1207 C 0.87428 0.43883 0.25943
 C1208 C 0.86285 0.45206 0.24554
 C1209 C 0.86441 0.44939 0.22319
 C1210 C 0.87653 0.43251 0.21479
 H1211 H 0.94074 0.35845 0.24444
 H1212 H 0.94617 0.37988 0.32120
 H1213 H 0.96540 0.34040 0.26768
 H1214 H 0.91873 0.40632 0.31685
 H1215 H 0.89453 0.42621 0.29530
 H1216 H 0.92265 0.37797 0.22452
 H1217 H 0.90075 0.39996 0.20247
 H1218 H 0.87223 0.44201 0.27640
 H1219 H 0.85320 0.46489 0.25224
 H1220 H 0.87753 0.43037 0.19742
 C1221 C 0.94347 0.60396 0.71442
 C1222 C 0.92419 0.60994 0.72540
 C1223 C 0.91759 0.63145 0.72421
 C1224 C 0.93120 0.64667 0.71451
 C1225 C 0.95079 0.64054 0.70473
 C1226 C 0.95642 0.61906 0.70415
 C1227 C 0.89762 0.63763 0.73295
 C1228 C 0.88399 0.62288 0.74281
 C1229 C 0.89041 0.60152 0.74538
 C1230 C 0.91131 0.59527 0.73744
 C1231 C 0.91916 0.57492 0.74272
 C1232 C 0.90692 0.56102 0.75513
 C1233 C 0.88602 0.56643 0.76189
 C1234 C 0.87707 0.58641 0.75645
 C1235 C 0.85510 0.59027 0.76218
 C1236 C 0.84293 0.57510 0.77347
 C1237 C 0.85241 0.55596 0.77994
 C1238 C 0.87403 0.55186 0.77411
 H1239 H 0.94879 0.58770 0.71324
 H1240 H 0.92656 0.66328 0.71451
 H1241 H 0.97136 0.61400 0.69638
 H1242 H 0.89238 0.65402 0.73200
 H1243 H 0.86892 0.62890 0.74930
 H1244 H 0.93527 0.56965 0.73840
 H1245 H 0.91383 0.54575 0.75927
 H1246 H 0.84674 0.60457 0.75760
 H1247 H 0.82608 0.57838 0.77732
 H1248 H 0.88149 0.53704 0.77897
 C1249 C 0.69552 0.60852 0.93423
 C1250 C 0.71788 0.61087 0.92939
 C1251 C 0.72971 0.62644 0.94098
 C1252 C 0.71911 0.64000 0.95566
 C1253 C 0.69694 0.63736 0.96051
 C1254 C 0.68538 0.62129 0.94978
 C1255 C 0.75216 0.62812 0.93824
 C1256 C 0.76331 0.61405 0.92492
 C1257 C 0.75223 0.59838 0.91293
 C1258 C 0.72904 0.59780 0.91403
 C1259 C 0.71780 0.58455 0.89945
 C1260 C 0.72891 0.57171 0.88481
 C1261 C 0.75155 0.57074 0.88491
 C1262 C 0.76353 0.58357 0.89946
 C1263 C 0.78628 0.58049 0.90049
 C1264 C 0.79662 0.56559 0.88725
 C1265 C 0.78482 0.55393 0.87204
 C1266 C 0.76229 0.55669 0.87083
 H1267 H 0.68566 0.59632 0.92692
 H1268 H 0.72852 0.65196 0.96411
 H1269 H 0.66833 0.61862 0.95323
 H1270 H 0.76130 0.64008 0.94695
 H1271 H 0.78064 0.61630 0.92366
 H1272 H 0.70032 0.58439 0.89844
 H1273 H 0.71964 0.56200 0.87367
 H1274 H 0.79633 0.58868 0.91205
 H1275 H 0.81394 0.56312 0.88888
 H1276 H 0.75308 0.54724 0.85942
 C1277 C 0.25704 0.35127 0.92566
 C1278 C 0.25765 0.37371 0.92612
 C1279 C 0.27076 0.38365 0.94194
 C1280 C 0.28468 0.37156 0.95484
 C1281 C 0.28397 0.34928 0.95428
 C1282 C 0.26946 0.33930 0.94006
 C1283 C 0.26962 0.40557 0.94507
 C1284 C 0.25526 0.41779 0.93319
 C1285 C 0.24276 0.40870 0.91652
 C1286 C 0.24525 0.38664 0.91187
 C1287 C 0.23620 0.37854 0.89263
 C1288 C 0.22525 0.39178 0.87833
 C1289 C 0.22135 0.41303 0.88360
 C1290 C 0.22881 0.42127 0.90352
 C1291 C 0.22176 0.44167 0.90985
 C1292 C 0.20923 0.45402 0.89607
 C1293 C 0.20442 0.44705 0.87508
 C1294 C 0.21021 0.42625 0.86910
 H1295 H 0.24638 0.34268 0.91495
 H1296 H 0.29511 0.37957 0.96636
 H1297 H 0.26825 0.32214 0.93949
 H1298 H 0.27951 0.41328 0.95723
 H1299 H 0.25518 0.43463 0.93644
 H1300 H 0.23861 0.36227 0.88763
 H1301 H 0.21943 0.38521 0.86323
 H1302 H 0.22521 0.44815 0.92563
 H1303 H 0.20398 0.46955 0.90155
 H1304 H 0.20617 0.42039 0.85314
 C1305 C 0.25652 0.63495 0.05310
 C1306 C 0.26297 0.61520 0.06184
 C1307 C 0.28427 0.60802 0.05705
 C1308 C 0.29789 0.61956 0.04313
 C1309 C 0.29107 0.63885 0.03409
 C1310 C 0.27035 0.64653 0.03959
 C1311 C 0.29193 0.58925 0.06607
 C1312 C 0.27897 0.57736 0.07987
 C1313 C 0.25747 0.58352 0.08485
 C1314 C 0.24910 0.60241 0.07516
 C1315 C 0.22700 0.60749 0.07857
 C1316 C 0.21352 0.59460 0.09094
 C1317 C 0.22158 0.57648 0.10093
 C1318 C 0.24382 0.57100 0.09859
 C1319 C 0.25144 0.55314 0.11011
 C1320 C 0.23729 0.54066 0.12233
 C1321 C 0.21514 0.54544 0.12347
 C1322 C 0.20742 0.56360 0.11307
 H1323 H 0.24100 0.64207 0.05662
 H1324 H 0.31396 0.61346 0.03946
 H1325 H 0.26457 0.66147 0.03321
 H1326 H 0.30820 0.58366 0.06245
 H1327 H 0.28611 0.56294 0.08580
 H1328 H 0.21935 0.62102 0.07124
 H1329 H 0.19655 0.59890 0.09270
 H1330 H 0.26825 0.54846 0.11024
 H1331 H 0.24362 0.52694 0.13072
 H1332 H 0.19029 0.56749 0.11418
 C1333 C 0.70403 0.39617 0.07063
 C1334 C 0.72484 0.39182 0.07916
 C1335 C 0.73519 0.37278 0.07251
 C1336 C 0.72481 0.35863 0.05834
 C1337 C 0.70429 0.36332 0.04973
 C1338 C 0.69407 0.38224 0.05615
 C1339 C 0.75605 0.36809 0.07971
 C1340 C 0.76731 0.38224 0.09274
 C1341 C 0.75792 0.40159 0.09953
 C1342 C 0.73595 0.40595 0.09352
 C1343 C 0.72581 0.42422 0.10216
 C1344 C 0.73698 0.43826 0.11539
 C1345 C 0.75880 0.43497 0.12019
 C1346 C 0.76970 0.41669 0.11226
 C1347 C 0.79212 0.41462 0.11693
 C1348 C 0.80306 0.43006 0.12891
 C1349 C 0.79209 0.44792 0.13680
 C1350 C 0.76988 0.45012 0.13265
 H1351 H 0.69524 0.41053 0.07426
 H1352 H 0.73313 0.34419 0.05352
 H1353 H 0.67829 0.38651 0.04984
 H1354 H 0.76397 0.35344 0.07488
 H1355 H 0.78332 0.37733 0.09755
 H1356 H 0.70901 0.42797 0.09931
 H1357 H 0.72852 0.45209 0.12161
 H1358 H 0.80185 0.40164 0.11101
 H1359 H 0.82030 0.42822 0.13181
 H1360 H 0.76136 0.46396 0.13877
 C1361 C 0.92565 0.73877 0.64367
 C1362 C 0.92941 0.73974 0.62115
 C1363 C 0.94675 0.72758 0.61247
 C1364 C 0.95847 0.71362 0.62563
 C1365 C 0.95494 0.71317 0.64806
 C1366 C 0.93863 0.72617 0.65692
 C1367 C 0.95276 0.72991 0.59085
 C1368 C 0.94252 0.74476 0.57788
 C1369 C 0.92485 0.75681 0.58571
 C1370 C 0.91712 0.75299 0.60711
 C1371 C 0.89710 0.76201 0.61349
 C1372 C 0.88518 0.77457 0.59938
 C1373 C 0.89353 0.77985 0.57907
 C1374 C 0.91405 0.77192 0.57250
 C1375 C 0.92324 0.77984 0.55319
 C1376 C 0.91181 0.79403 0.54030
 C1377 C 0.89047 0.79996 0.54559
 C1378 C 0.88153 0.79300 0.56524
 H1379 H 0.91354 0.74847 0.65158
 H1380 H 0.97145 0.70424 0.61854
 H1381 H 0.93563 0.72641 0.67418
 H1382 H 0.96600 0.72067 0.58407
 H1383 H 0.94808 0.74581 0.56136
 H1384 H 0.88973 0.75864 0.62895
 H1385 H 0.86953 0.78061 0.60461
 H1386 H 0.93952 0.77585 0.54808
 H1387 H 0.91946 0.79997 0.52573
 H1388 H 0.86525 0.79786 0.56977
 C1389 C 0.92562 0.30085 0.39155
 C1390 C 0.91984 0.27968 0.38650
 C1391 C 0.93101 0.26959 0.36922
 C1392 C 0.94702 0.28054 0.35737
 C1393 C 0.95286 0.30143 0.36290
 C1394 C 0.94181 0.31139 0.38003
 C1395 C 0.92650 0.24845 0.36416
 C1396 C 0.91189 0.23674 0.37650
 C1397 C 0.90078 0.24591 0.39423
 C1398 C 0.90398 0.26802 0.39856
 C1399 C 0.89133 0.27773 0.41491
 C1400 C 0.87727 0.26600 0.42771
 C1401 C 0.87531 0.24416 0.42488
 C1402 C 0.88675 0.23373 0.40796
 C1403 C 0.88425 0.21140 0.40610
 C1404 C 0.87157 0.20005 0.42088
 C1405 C 0.86092 0.21055 0.43779
 C1406 C 0.86237 0.23263 0.43935
 H1407 H 0.91852 0.30957 0.40478
 H1408 H 0.95540 0.27247 0.34426
 H1409 H 0.94579 0.32748 0.38487
 H1410 H 0.93478 0.24068 0.35082
 H1411 H 0.90955 0.22049 0.37161
 H1412 H 0.89177 0.29451 0.41819
 H1413 H 0.86820 0.27409 0.44033
 H1414 H 0.89246 0.20212 0.39393
 H1415 H 0.87060 0.18293 0.41954
 H1416 H 0.85401 0.24071 0.45247
 C1417 C 0.07460 0.29281 0.62487
 C1418 C 0.07703 0.27056 0.62602
 C1419 C 0.06183 0.25900 0.63862
 C1420 C 0.04587 0.26967 0.65083
 C1421 C 0.04332 0.29176 0.64911
 C1422 C 0.05777 0.30310 0.63582
 C1423 C 0.06220 0.23683 0.63835
 C1424 C 0.07646 0.22593 0.62480
 C1425 C 0.09182 0.23686 0.61198
 C1426 C 0.09331 0.25937 0.61412
 C1427 C 0.11110 0.26990 0.60446
 C1428 C 0.12614 0.25893 0.59189
 C1429 C 0.12334 0.23737 0.58752
 C1430 C 0.10586 0.22609 0.59715
 C1431 C 0.10240 0.20482 0.59061
 C1432 C 0.11561 0.19539 0.57489
 C1433 C 0.13319 0.20645 0.56594
 C1434 C 0.13741 0.22721 0.57288
 H1435 H 0.08478 0.30255 0.61470
 H1436 H 0.03456 0.26054 0.66059
 H1437 H 0.05628 0.32013 0.63398
 H1438 H 0.05076 0.22782 0.64804
 H1439 H 0.07562 0.20883 0.62515
 H1440 H 0.11412 0.28661 0.60693
 H1441 H 0.13959 0.26762 0.58479
 H1442 H 0.08885 0.19555 0.59640
 H1443 H 0.11191 0.17944 0.56943
 H1444 H 0.15093 0.23585 0.56583
 C1445 C 0.06900 0.75223 0.35605
 C1446 C 0.07535 0.74582 0.37695
 C1447 C 0.07030 0.72480 0.38334
 C1448 C 0.05771 0.71156 0.37004
 C1449 C 0.05052 0.71855 0.34977
 C1450 C 0.05694 0.73879 0.34273
 C1451 C 0.07756 0.71716 0.40313
 C1452 C 0.08972 0.72993 0.41683
 C1453 C 0.09447 0.75124 0.41160
 C1454 C 0.08649 0.75953 0.39168
 C1455 C 0.08906 0.78144 0.38758
 C1456 C 0.09903 0.79481 0.40241
 C1457 C 0.10754 0.78682 0.42154
 C1458 C 0.10612 0.76480 0.42607
 C1459 C 0.11643 0.75731 0.44494
 C1460 C 0.12654 0.77130 0.45923
 C1461 C 0.12650 0.79319 0.45541
 C1462 C 0.11729 0.80082 0.43633
 H1463 H 0.07331 0.76745 0.34939
 H1464 H 0.05344 0.69579 0.37562
 H1465 H 0.05214 0.74464 0.32703
 H1466 H 0.07381 0.70108 0.40811
 H1467 H 0.09436 0.72286 0.43193
 H1468 H 0.08263 0.78897 0.37340
 H1469 H 0.10011 0.81161 0.39883
 H1470 H 0.11729 0.74070 0.44895
 H1471 H 0.13417 0.76503 0.47358
 H1472 H 0.11754 0.81773 0.43314
 C1473 C 0.63052 0.91938 0.70384
 C1474 C 0.62751 0.91902 0.72652
 C1475 C 0.63750 0.93528 0.73890
 C1476 C 0.65073 0.95058 0.72890
 C1477 C 0.65326 0.95077 0.70643
 C1478 C 0.64300 0.93516 0.69402
 C1479 C 0.63381 0.93649 0.76111
 C1480 C 0.61959 0.92251 0.77122
 C1481 C 0.60909 0.90620 0.75955
 C1482 C 0.61426 0.90359 0.73717
 C1483 C 0.60620 0.88556 0.72623
 C1484 C 0.59256 0.87118 0.73647
 C1485 C 0.58584 0.87454 0.75773
 C1486 C 0.59375 0.89225 0.76955
 C1487 C 0.58530 0.89569 0.79060
 C1488 C 0.56977 0.88202 0.79942
 C1489 C 0.56259 0.86432 0.78781
 C1490 C 0.57085 0.86050 0.76710
 H1491 H 0.62274 0.90823 0.69315
 H1492 H 0.65831 0.96294 0.73851
 H1493 H 0.64462 0.93518 0.67659
 H1494 H 0.64155 0.94874 0.77070
 H1495 H 0.61756 0.92453 0.78840
 H1496 H 0.61063 0.88182 0.70979
 H1497 H 0.58677 0.85754 0.72745
 H1498 H 0.58968 0.90925 0.80029
 H1499 H 0.56316 0.88535 0.81532
 H1500 H 0.56494 0.84694 0.75801
 C1501 C 0.38003 0.93134 0.29720
 C1502 C 0.37719 0.92493 0.27546
 C1503 C 0.36007 0.93443 0.26368
 C1504 C 0.34618 0.94927 0.27360
 C1505 C 0.34946 0.95557 0.29505
 C1506 C 0.36647 0.94646 0.30670
 C1507 C 0.35716 0.92941 0.24195
 C1508 C 0.37137 0.91578 0.23131
 C1509 C 0.38888 0.90617 0.24219
 C1510 C 0.39114 0.90998 0.26487
 C1511 C 0.40721 0.89866 0.27622
 C1512 C 0.42134 0.88495 0.26565
 C1513 C 0.42034 0.88223 0.24336
 C1514 C 0.40417 0.89280 0.23120
 C1515 C 0.40445 0.88999 0.20848
 C1516 C 0.42014 0.87731 0.19843
 C1517 C 0.43591 0.86692 0.21063
 C1518 C 0.43572 0.86918 0.23310
 H1519 H 0.39301 0.92552 0.30715
 H1520 H 0.33323 0.95646 0.26436
 H1521 H 0.36941 0.95113 0.32329
 H1522 H 0.34398 0.93645 0.23291
 H1523 H 0.36795 0.91281 0.21453
 H1524 H 0.40909 0.89975 0.29346
 H1525 H 0.43348 0.87667 0.27504
 H1526 H 0.39321 0.89785 0.19792
 H1527 H 0.42020 0.87583 0.18100
 H1528 H 0.44795 0.86109 0.24255
 C1529 C 0.61214 0.06355 0.28764
 C1530 C 0.61430 0.06742 0.26522
 C1531 C 0.63117 0.05669 0.25394
 C1532 C 0.64529 0.04291 0.26487
 C1533 C 0.64257 0.03902 0.28698
 C1534 C 0.62597 0.04956 0.29820
 C1535 C 0.63359 0.05942 0.23173
 C1536 C 0.61920 0.07199 0.22023
 C1537 C 0.60188 0.08269 0.23061
 C1538 C 0.59995 0.08105 0.25360
 C1539 C 0.58371 0.09307 0.26420
 C1540 C 0.56917 0.10542 0.25276
 C1541 C 0.57002 0.10621 0.23031
 C1542 C 0.58639 0.09497 0.21881
 C1543 C 0.58617 0.09615 0.19595
 C1544 C 0.57030 0.10781 0.18517
 C1545 C 0.55421 0.11866 0.19675
 C1546 C 0.55434 0.11807 0.21930
 H1547 H 0.59956 0.07055 0.29746
 H1548 H 0.65797 0.03467 0.25598
 H1549 H 0.62348 0.04686 0.31530
 H1550 H 0.64655 0.05143 0.22302
 H1551 H 0.62225 0.07312 0.20314
 H1552 H 0.58187 0.09350 0.28149
 H1553 H 0.55688 0.11423 0.26162
 H1554 H 0.59770 0.08789 0.18585
 H1555 H 0.57036 0.10813 0.16768
 H1556 H 0.54191 0.12661 0.22824
 C1557 C 0.39749 0.06801 0.70643
 C1558 C 0.39471 0.07410 0.72830
 C1559 C 0.37686 0.06530 0.73978
 C1560 C 0.36250 0.05112 0.72960
 C1561 C 0.36581 0.04503 0.70805
 C1562 C 0.38333 0.05372 0.69661
 C1563 C 0.37362 0.07038 0.76148
 C1564 C 0.38805 0.08352 0.77234
 C1565 C 0.40632 0.09239 0.76181
 C1566 C 0.40929 0.08816 0.73924
 C1567 C 0.42676 0.09810 0.72838
 C1568 C 0.44135 0.11099 0.73924
 C1569 C 0.43929 0.11446 0.76136
 C1570 C 0.42176 0.10532 0.77306
 C1571 C 0.42072 0.10924 0.79561
 C1572 C 0.43648 0.12156 0.80590
 C1573 C 0.45368 0.13035 0.79415
 C1574 C 0.45489 0.12694 0.77188
 H1575 H 0.41072 0.07354 0.69650
 H1576 H 0.34906 0.04438 0.73866
 H1577 H 0.38630 0.04931 0.67993
 H1578 H 0.35991 0.06385 0.77030
 H1579 H 0.38429 0.08651 0.78907
 H1580 H 0.42962 0.09640 0.71130
 H1581 H 0.45459 0.11814 0.73021
 H1582 H 0.40823 0.10276 0.80587
 H1583 H 0.43538 0.12406 0.82319
 H1584 H 0.46823 0.13387 0.76280
 C1585 C 0.63859 0.74038 0.06951
 C1586 C 0.62068 0.73272 0.08169
 C1587 C 0.61504 0.71101 0.07919
 C1588 C 0.62613 0.69806 0.06430
 C1589 C 0.64317 0.70619 0.05173
 C1590 C 0.64957 0.72731 0.05483
 C1591 C 0.59807 0.70236 0.09124
 C1592 C 0.58605 0.71484 0.10537
 C1593 C 0.59030 0.73675 0.10783
 C1594 C 0.60796 0.74585 0.09585
 C1595 C 0.61181 0.76788 0.09787
 C1596 C 0.59847 0.78073 0.11044
 C1597 C 0.58095 0.77222 0.12180
 C1598 C 0.57695 0.75002 0.12124
 C1599 C 0.55934 0.74218 0.13372
 C1600 C 0.54555 0.75593 0.14490
 C1601 C 0.54888 0.77786 0.14424
 C1602 C 0.56696 0.78591 0.13323
 H1603 H 0.64450 0.75642 0.07078
 H1604 H 0.62125 0.68163 0.06229
 H1605 H 0.66284 0.73396 0.04549
 H1606 H 0.59383 0.68573 0.08953
 H1607 H 0.57305 0.70682 0.11370
 H1608 H 0.62470 0.77591 0.08939
 H1609 H 0.60172 0.79765 0.11098
 H1610 H 0.55551 0.72555 0.13498
 H1611 H 0.53176 0.74948 0.15364
 H1612 H 0.56960 0.80293 0.13287
 C1613 C 0.38712 0.28731 0.06059
 C1614 C 0.38337 0.26584 0.06619
 C1615 C 0.36529 0.25547 0.05671
 C1616 C 0.35145 0.26643 0.04259
 C1617 C 0.35561 0.28762 0.03709
 C1618 C 0.37352 0.29788 0.04626
 C1619 C 0.36131 0.23412 0.06107
 C1620 C 0.37525 0.22253 0.07407
 C1621 C 0.39367 0.23199 0.08364
 C1622 C 0.39726 0.25422 0.08037
 C1623 C 0.41458 0.26409 0.09139
 C1624 C 0.42860 0.25256 0.10428
 C1625 C 0.42615 0.23071 0.10656
 C1626 C 0.40866 0.22002 0.09638
 C1627 C 0.40731 0.19769 0.09896
 C1628 C 0.42284 0.18662 0.11084
 C1629 C 0.44009 0.19736 0.12060
 C1630 C 0.44142 0.21944 0.11875
 H1631 H 0.40074 0.29631 0.06648
 H1632 H 0.33775 0.25824 0.03540
 H1633 H 0.37718 0.31423 0.04227
 H1634 H 0.34742 0.22613 0.05403
 H1635 H 0.37096 0.20614 0.07650
 H1636 H 0.41767 0.28090 0.09063
 H1637 H 0.44177 0.26084 0.11227
 H1638 H 0.39484 0.18819 0.09155
 H1639 H 0.42163 0.16951 0.11208
 H1640 H 0.45476 0.22777 0.12641
 C1641 C 0.64837 0.25485 0.94534
 C1642 C 0.63209 0.26254 0.93129
 C1643 C 0.62725 0.28454 0.93217
 C1644 C 0.63737 0.29779 0.94735
 C1645 C 0.65279 0.28972 0.96165
 C1646 C 0.65852 0.26826 0.96019
 C1647 C 0.61212 0.29322 0.91812
 C1648 C 0.60123 0.28053 0.90338
 C1649 C 0.60472 0.25840 0.90237
 C1650 C 0.62028 0.24920 0.91668
 C1651 C 0.62287 0.22692 0.91650
 C1652 C 0.61027 0.21399 0.90337
 C1653 C 0.59492 0.22268 0.88953
 C1654 C 0.59245 0.24504 0.88821
 C1655 C 0.57735 0.25302 0.87309
 C1656 C 0.56410 0.23936 0.86127
 C1657 C 0.56555 0.21740 0.86393
 C1658 C 0.58148 0.20908 0.87749
 H1659 H 0.65371 0.23858 0.94528
 H1660 H 0.63314 0.31449 0.94807
 H1661 H 0.67060 0.26168 0.97091
 H1662 H 0.60848 0.31005 0.91863
 H1663 H 0.58954 0.28858 0.89348
 H1664 H 0.63401 0.21880 0.92695
 H1665 H 0.61236 0.19693 0.90431
 H1666 H 0.57515 0.26971 0.87013
 H1667 H 0.55209 0.24598 0.85049
 H1668 H 0.58274 0.19201 0.87934
 C1669 C 0.40305 0.71594 0.94904
 C1670 C 0.39632 0.72503 0.92931
 C1671 C 0.37487 0.72080 0.92222
 C1672 C 0.36032 0.70942 0.93542
 C1673 C 0.36726 0.70094 0.95507
 C1674 C 0.38875 0.70392 0.96154
 C1675 C 0.36819 0.72779 0.90195
 C1676 C 0.38251 0.73843 0.88829
 C1677 C 0.40384 0.74344 0.89487
 C1678 C 0.41035 0.73772 0.91620
 C1679 C 0.43037 0.74540 0.92402
 C1680 C 0.44398 0.75759 0.91116
 C1681 C 0.43862 0.76190 0.88978
 C1682 C 0.41874 0.75449 0.88109
 C1683 C 0.41491 0.75803 0.85884
 C1684 C 0.43012 0.76875 0.84601
 C1685 C 0.44929 0.77674 0.85501
 C1686 C 0.45325 0.77344 0.87699
 H1687 H 0.41944 0.71729 0.95492
 H1688 H 0.34377 0.70666 0.93018
 H1689 H 0.39442 0.69719 0.97657
 H1690 H 0.35182 0.72464 0.89641
 H1691 H 0.37614 0.74329 0.87290
 H1692 H 0.43561 0.74291 0.94039
 H1693 H 0.45909 0.76337 0.91792
 H1694 H 0.40070 0.75204 0.85075
 H1695 H 0.42696 0.77077 0.82895
 H1696 H 0.46810 0.77952 0.88405
 C1697 C 0.71498 0.92704 0.37650
 C1698 C 0.73780 0.92939 0.37808
 C1699 C 0.74789 0.94527 0.36529
 C1700 C 0.73558 0.95769 0.35105
 C1701 C 0.71299 0.95540 0.35013
 C1702 C 0.70284 0.94003 0.36293
 C1703 C 0.77010 0.94912 0.36722
 C1704 C 0.78245 0.93816 0.38221
 C1705 C 0.77315 0.92234 0.39546
 C1706 C 0.75075 0.91706 0.39245
 C1707 C 0.74213 0.89950 0.40374
 C1708 C 0.75467 0.88799 0.41810
 C1709 C 0.77607 0.89384 0.42229
 C1710 C 0.78556 0.91134 0.41135
 C1711 C 0.80695 0.91734 0.41717
 C1712 C 0.81851 0.90598 0.43266
 C1713 C 0.80928 0.88822 0.44259
 C1714 C 0.78805 0.88227 0.43744
 H1715 H 0.70587 0.91598 0.38621
 H1716 H 0.74343 0.96993 0.34152
 H1717 H 0.68535 0.93819 0.36261
 H1718 H 0.77796 0.96111 0.35737
 H1719 H 0.79948 0.94209 0.38268
 H1720 H 0.72580 0.89384 0.40136
 H1721 H 0.74740 0.87453 0.42627
 H1722 H 0.81501 0.93101 0.41044
 H1723 H 0.83483 0.91093 0.43679
 H1724 H 0.78086 0.86864 0.44542
 C1725 C 0.29238 0.93107 0.62227
 C1726 C 0.26940 0.93075 0.62314
 C1727 C 0.25905 0.94390 0.63876
 C1728 C 0.27135 0.95728 0.65228
 C1729 C 0.29401 0.95812 0.65026
 C1730 C 0.30433 0.94460 0.63546
 C1731 C 0.23646 0.94404 0.64041
 C1732 C 0.22378 0.93191 0.62655
 C1733 C 0.23322 0.91906 0.61028
 C1734 C 0.25644 0.91826 0.60876
 C1735 C 0.26594 0.90532 0.59260
 C1736 C 0.25336 0.89396 0.57813
 C1737 C 0.23081 0.89486 0.57911
 C1738 C 0.22028 0.90720 0.59527
 C1739 C 0.19722 0.90723 0.59549
 C1740 C 0.18539 0.89571 0.58019
 C1741 C 0.19608 0.88392 0.56423
 C1742 C 0.21874 0.88345 0.56383
 H1743 H 0.30176 0.92141 0.61133
 H1744 H 0.26322 0.96770 0.66370
 H1745 H 0.32186 0.94470 0.63379
 H1746 H 0.22843 0.95392 0.65240
 H1747 H 0.20650 0.93318 0.62890
 H1748 H 0.28320 0.90369 0.59044
 H1749 H 0.26145 0.88444 0.56588
 H1750 H 0.18779 0.91599 0.60717
 H1751 H 0.16780 0.89607 0.58073
 H1752 H 0.22696 0.87411 0.55152
 C1753 C 0.25917 0.07784 0.35246
 C1754 C 0.25234 0.07339 0.37390
 C1755 C 0.25763 0.05320 0.38249
 C1756 C 0.27054 0.03896 0.37072
 C1757 C 0.27763 0.04394 0.34993
 C1758 C 0.27150 0.06316 0.34061
 C1759 C 0.25020 0.04732 0.40288
 C1760 C 0.23759 0.06104 0.41514
 C1761 C 0.23246 0.08159 0.40774
 C1762 C 0.24057 0.08816 0.38712
 C1763 C 0.23749 0.10949 0.38088
 C1764 C 0.22726 0.12401 0.39451
 C1765 C 0.21888 0.11769 0.41446
 C1766 C 0.22046 0.09615 0.42086
 C1767 C 0.21014 0.09011 0.44036
 C1768 C 0.20058 0.10517 0.45383
 C1769 C 0.20090 0.12669 0.44839
 C1770 C 0.20940 0.13285 0.42835
 H1771 H 0.25498 0.09235 0.34432
 H1772 H 0.27497 0.02378 0.37767
 H1773 H 0.27665 0.06700 0.32433
 H1774 H 0.25420 0.03189 0.40947
 H1775 H 0.23298 0.05537 0.43090
 H1776 H 0.24378 0.11573 0.36592
 H1777 H 0.22597 0.14041 0.38941
 H1778 H 0.20910 0.07386 0.44564
 H1779 H 0.19344 0.10009 0.46898
 H1780 H 0.20923 0.14949 0.42392
 C1781 C 0.75190 0.06172 0.64234
 C1782 C 0.74238 0.07334 0.62527
 C1783 C 0.72003 0.06985 0.62108
 C1784 C 0.70829 0.05448 0.63260
 C1785 C 0.71823 0.04255 0.64878
 C1786 C 0.73996 0.04663 0.65387
 C1787 C 0.70951 0.08146 0.60517
 C1788 C 0.72072 0.09624 0.59288
 C1789 C 0.74318 0.09974 0.59571
 C1790 C 0.75425 0.08799 0.61207
 C1791 C 0.77694 0.09065 0.61410
 C1792 C 0.78855 0.10377 0.60024
 C1793 C 0.77804 0.11514 0.58412
 C1794 C 0.75513 0.11392 0.58208
 C1795 C 0.74521 0.12662 0.56608
 C1796 C 0.75769 0.13857 0.55174
 C1797 C 0.78035 0.13843 0.55295
 C1798 C 0.79044 0.12726 0.56958
 H1799 H 0.76851 0.06386 0.64725
 H1800 H 0.69133 0.05173 0.62885
 H1801 H 0.74795 0.03777 0.66651
 H1802 H 0.69239 0.07895 0.60201
 H1803 H 0.71133 0.10414 0.58070
 H1804 H 0.78645 0.08220 0.62579
 H1805 H 0.80603 0.10480 0.60200
 H1806 H 0.72789 0.12757 0.56401
 H1807 H 0.74967 0.14752 0.53919
 H1808 H 0.80802 0.12739 0.57063
 C1809 C 0.95019 0.64476 0.24727
 C1810 C 0.93748 0.62845 0.25674
 C1811 C 0.93956 0.62519 0.27929
 C1812 C 0.95445 0.63711 0.29144
 C1813 C 0.96726 0.65278 0.28166
 C1814 C 0.96475 0.65668 0.25958
 C1815 C 0.92690 0.60995 0.28966
 C1816 C 0.91225 0.59763 0.27819
 C1817 C 0.90989 0.59979 0.25562
 C1818 C 0.92295 0.61524 0.24466
 C1819 C 0.92151 0.61653 0.22194
 C1820 C 0.90815 0.60300 0.21027
 C1821 C 0.89532 0.58792 0.22069
 C1822 C 0.89548 0.58647 0.24356
 C1823 C 0.88138 0.57148 0.25333
 C1824 C 0.86889 0.55769 0.24085
 C1825 C 0.86991 0.55840 0.21831
 C1826 C 0.88267 0.57391 0.20830
 H1827 H 0.94921 0.64886 0.23045
 H1828 H 0.95600 0.63420 0.30861
 H1829 H 0.97431 0.66884 0.25164
 H1830 H 0.92838 0.60744 0.30690
 H1831 H 0.90343 0.58606 0.28751
 H1832 H 0.93106 0.62745 0.21250
 H1833 H 0.90800 0.60426 0.19281
 H1834 H 0.87963 0.56988 0.27056
 H1835 H 0.85874 0.54600 0.24882
 H1836 H 0.88325 0.57458 0.19080
 C1837 C 0.91619 0.35520 0.72883
 C1838 C 0.91838 0.37753 0.73083
 C1839 C 0.93694 0.38713 0.72132
 C1840 C 0.95188 0.37498 0.70944
 C1841 C 0.94945 0.35298 0.70761
 C1842 C 0.93167 0.34314 0.71760
 C1843 C 0.94070 0.40880 0.72386
 C1844 C 0.92680 0.42118 0.73625
 C1845 C 0.90810 0.41245 0.74607
 C1846 C 0.90314 0.39058 0.74230
 C1847 C 0.88294 0.38269 0.74964
 C1848 C 0.86825 0.39566 0.76061
 C1849 C 0.87349 0.41667 0.76557
 C1850 C 0.89383 0.42512 0.75900
 C1851 C 0.89929 0.44582 0.76600
 C1852 C 0.88470 0.45793 0.77804
 C1853 C 0.86405 0.45009 0.78326
 C1854 C 0.85857 0.42933 0.77712
 H1855 H 0.90309 0.34654 0.73634
 H1856 H 0.96591 0.38262 0.70217
 H1857 H 0.92967 0.32608 0.71660
 H1858 H 0.95476 0.41624 0.71646
 H1859 H 0.93075 0.43783 0.73719
 H1860 H 0.87767 0.36667 0.74643
 H1861 H 0.85274 0.38905 0.76557
 H1862 H 0.91496 0.45289 0.76299
 H1863 H 0.88951 0.47369 0.78321
 H1864 H 0.84272 0.42306 0.78141
 C1865 C 0.04609 0.63551 0.75506
 C1866 C 0.06175 0.62184 0.74554
 C1867 C 0.06498 0.62323 0.72290
 C1868 C 0.05191 0.63657 0.71034
 C1869 C 0.03584 0.64925 0.71993
 C1870 C 0.03344 0.64900 0.74241
 C1871 C 0.08101 0.61108 0.71282
 C1872 C 0.09401 0.59746 0.72466
 C1873 C 0.09106 0.59495 0.74714
 C1874 C 0.07421 0.60686 0.75763
 C1875 C 0.06987 0.60283 0.77966
 C1876 C 0.08158 0.58780 0.79108
 C1877 C 0.09851 0.57662 0.78129
 C1878 C 0.10393 0.58041 0.75934
 C1879 C 0.12211 0.56951 0.75059
 C1880 C 0.13380 0.55501 0.76294
 C1881 C 0.12769 0.55073 0.78424
 C1882 C 0.11008 0.56159 0.79337
 H1883 H 0.04331 0.63628 0.77223
 H1884 H 0.05417 0.63697 0.69296
 H1885 H 0.02128 0.65883 0.75024
 H1886 H 0.08357 0.61210 0.69552
 H1887 H 0.10576 0.58848 0.71550
 H1888 H 0.05692 0.61054 0.78841
 H1889 H 0.07738 0.58497 0.80785
 H1890 H 0.12800 0.57211 0.73440
 H1891 H 0.14762 0.54693 0.75580
 H1892 H 0.10555 0.55843 0.81000
 C1893 C 0.07021 0.39391 0.30274
 C1894 C 0.07426 0.39061 0.28043
 C1895 C 0.06405 0.37298 0.27040
 C1896 C 0.05051 0.35935 0.28234
 C1897 C 0.04619 0.36328 0.30422
 C1898 C 0.05632 0.38054 0.31430
 C1899 C 0.06693 0.36930 0.24837
 C1900 C 0.07906 0.38316 0.23577
 C1901 C 0.08916 0.40123 0.24481
 C1902 C 0.08750 0.40451 0.26766
 C1903 C 0.09914 0.42156 0.27694
 C1904 C 0.11135 0.43536 0.26434
 C1905 C 0.11221 0.43303 0.24198
 C1906 C 0.10101 0.41606 0.23180
 C1907 C 0.10186 0.41492 0.20894
 C1908 C 0.11364 0.42973 0.19693
 C1909 C 0.12499 0.44611 0.20718
 C1910 C 0.12422 0.44768 0.22971
 H1911 H 0.07690 0.40707 0.31164
 H1912 H 0.04255 0.34617 0.27429
 H1913 H 0.05322 0.38398 0.33119
 H1914 H 0.05936 0.35572 0.24066
 H1915 H 0.08043 0.37905 0.21893
 H1916 H 0.09945 0.42454 0.29406
 H1917 H 0.12002 0.44819 0.27222
 H1918 H 0.09329 0.40305 0.19977
 H1919 H 0.11391 0.42843 0.17948
 H1920 H 0.13301 0.46041 0.23765
   
