data_POSCAR
  _audit_creation_date              2014-09-24
  _audit_creation_method            'ToBaCCo'
  _symmetry_space_group_name_H-M    'P1'
  _symmetry_Int_Tables_number       1
  _symmetry_cell_setting            triclinic
  loop_
  _symmetry_equiv_pos_as_xyz
 x,y,z
_cell_length_a 57.3914
_cell_length_b 57.3971
_cell_length_c 57.3192
_cell_angle_alpha 89.991000
_cell_angle_beta 90.028000
_cell_angle_gamma 89.995500
loop_
  _atom_site_label
  _atom_site_type_symbol
  _atom_site_fract_x
  _atom_site_fract_y
  _atom_site_fract_z
C1 C 0.35466 1.35427 0.32689
 N2 N 0.33391 1.36250 0.33491
 C3 C 0.32465 1.35457 0.35524
 N4 N 0.33596 1.33746 0.36706
 C5 C 0.35631 1.32852 0.35901
 N6 N 0.36582 1.33728 0.33916
 C7 C 0.35800 0.85756 0.83036
 N8 N 0.36762 0.83877 0.84106
 C9 C 0.35813 0.83011 0.86095
 N10 N 0.33890 0.84042 0.87014
 C11 C 0.32895 0.85915 0.85952
 N12 N 0.33862 0.86753 0.83956
 C13 C 0.85547 1.35528 0.82777
 N14 N 0.83476 1.36358 0.83584
 C15 C 0.82562 1.35581 0.85629
 N16 N 0.83699 1.33878 0.86817
 C17 C 0.85728 1.32976 0.86006
 N18 N 0.86668 1.33838 0.84009
 C19 C 0.85692 0.85594 0.32689
 N20 N 0.83790 0.86614 0.33675
 C21 C 0.82650 0.85562 0.35470
 N22 N 0.83458 0.83503 0.36316
 C23 C 0.85393 0.82502 0.35398
 N24 N 0.86480 0.83541 0.33572
 C25 C 0.64169 0.64085 0.33130
 N26 N 0.66096 0.63161 0.34150
 C27 C 0.67043 0.64170 0.36073
 N28 N 0.66054 0.66125 0.36970
 C29 C 0.64127 0.67065 0.35964
 N30 N 0.63195 0.66039 0.34042
 C31 C 0.64280 0.14314 0.82844
 N32 N 0.66153 0.13320 0.83911
 C33 C 0.67294 0.14447 0.85666
 N34 N 0.66493 0.16559 0.86390
 C35 C 0.64571 0.17525 0.85407
 N36 N 0.63498 0.16409 0.83621
 C37 C 1.14521 0.64338 0.82767
 N38 N 1.13622 0.66359 0.83611
 C39 C 1.14479 0.67325 0.85595
 N40 N 1.16290 0.66283 0.86706
 C41 C 1.17225 0.64277 0.85869
 N42 N 1.16319 0.63297 0.83909
 C43 C 1.14349 0.14187 0.32783
 N44 N 1.16210 0.13187 0.33869
 C45 C 1.17322 0.14303 0.35651
 N46 N 1.16504 0.16407 0.36380
 C47 C 1.14594 0.17374 0.35379
 N48 N 1.13551 0.16271 0.33571
 C49 C 0.64361 1.35584 0.67165
 N50 N 0.63533 1.33531 0.66332
 C51 C 0.64624 1.32420 0.64553
 N52 N 0.66588 1.33361 0.63629
 C53 C 0.67423 1.35439 0.64411
 N54 N 0.66283 1.36549 0.66174
 C55 C 0.64281 0.85710 1.17127
 N56 N 0.63192 0.83936 1.15987
 C57 C 0.64174 0.82952 1.14067
 N58 N 0.66220 0.83803 1.13243
 C59 C 0.67308 0.85594 1.14335
 N60 N 0.66353 0.86510 1.16296
 C61 C 1.14289 1.35924 1.17056
 N62 N 1.16353 1.36715 1.16206
 C63 C 1.17474 1.35588 1.14452
 N64 N 1.16520 1.33606 1.13571
 C65 C 1.14434 1.32811 1.14363
 N66 N 1.13318 1.33989 1.16091
 C67 C 1.14331 0.85708 0.67208
 N68 N 1.13495 0.83656 0.66379
 C69 C 1.14562 0.82554 0.64581
 N70 N 1.16512 0.83501 0.63634
 C71 C 1.17355 0.85577 0.64411
 N72 N 1.16238 0.86680 0.66194
 C73 C 0.35703 0.64358 0.66993
 N74 N 0.33769 0.63373 0.66049
 C75 C 0.32821 0.64226 0.64049
 N76 N 0.33831 0.66101 0.63007
 C77 C 0.35751 0.67118 0.63948
 N78 N 0.36681 0.66238 0.65941
 C79 C 0.35701 0.14261 1.17109
 N80 N 0.36611 0.16206 1.16105
 C81 C 0.35691 0.17078 1.14105
 N82 N 0.33827 0.16009 1.13113
 C83 C 0.32869 0.14083 1.14106
 N84 N 0.33827 0.13219 1.16098
 C85 C 0.85681 0.64281 1.17163
 N86 N 0.83732 0.63316 1.16223
 C87 C 0.82631 0.64363 1.14402
 N88 N 0.83506 0.66377 1.13513
 C89 C 0.85482 0.67326 1.14404
 N90 N 0.86550 0.66278 1.16237
 C91 C 0.85857 0.14079 0.66984
 N92 N 0.83878 0.13190 0.66029
 C93 C 0.82859 0.14209 0.64146
 N94 N 0.83840 0.16159 0.63223
 C95 C 0.85830 0.17057 0.64140
 N96 N 0.86830 0.16008 0.66014
 C97 C 1.35757 0.35792 0.67071
 N98 N 1.36776 0.33892 0.66078
 C99 C 1.35681 0.32695 0.64341
 N100 N 1.33582 0.33469 0.63554
 C101 C 1.32593 0.35415 0.64458
 N102 N 1.33673 0.36544 0.66231
 C103 C 1.35796 0.85886 1.17075
 N104 N 1.36777 0.83947 1.16128
 C105 C 1.35693 0.82786 1.14361
 N106 N 1.33631 0.83616 1.13531
 C107 C 1.32680 0.85594 1.14409
 N108 N 1.33760 0.86707 1.16192
 C109 C 0.85652 0.35805 1.17094
 N110 N 0.83777 0.36803 1.16036
 C111 C 0.82690 0.35718 1.14227
 N112 N 0.83523 0.33644 1.13443
 C113 C 0.85433 0.32665 1.14435
 N114 N 0.86468 0.33740 1.16269
 C115 C 0.85770 0.85697 0.67089
 N116 N 0.86643 0.83676 0.66223
 C117 C 0.85610 0.82603 0.64384
 N118 N 0.83665 0.83553 0.63426
 C119 C 0.82789 0.85592 0.64254
 N120 N 0.83854 0.86662 0.66083
 C121 C 0.64395 0.64505 0.67153
 N122 N 0.66414 0.63613 0.66303
 C123 C 0.67381 0.64482 0.64326
 N124 N 0.66341 0.66300 0.63226
 C125 C 0.64333 0.67228 0.64069
 N126 N 0.63352 0.66309 0.66023
 C127 C 0.64380 1.14444 1.17232
 N128 N 0.63375 1.16312 1.16179
 C129 C 0.64279 1.17236 1.14191
 N130 N 0.66212 1.16249 1.13242
 C131 C 0.67247 1.14388 1.14279
 N132 N 0.66332 1.13503 1.16276
 C133 C 0.14740 0.64801 1.17544
 N134 N 0.16717 0.63883 1.16621
 C135 C 0.17550 0.64644 1.14536
 N136 N 0.16414 0.66381 1.13387
 C137 C 0.14482 0.67384 1.14330
 N138 N 0.13652 0.66559 1.16392
 C139 C 0.14172 1.14265 0.67097
 N140 N 0.16167 1.13328 0.66236
 C141 C 0.17226 1.14290 0.64349
 N142 N 0.16287 1.16216 0.63339
 C143 C 0.14283 1.17167 0.64173
 N144 N 0.13235 1.16171 0.66052
 C145 C 1.35751 0.64138 0.32968
 N146 N 1.36752 0.66032 0.33990
 C147 C 1.35670 0.67149 0.35781
 N148 N 1.33600 0.66329 0.36584
 C149 C 1.32618 0.64403 0.35629
 N150 N 1.33687 0.63337 0.33811
 C151 C 1.35704 1.14341 0.82811
 N152 N 1.33617 1.13580 0.83630
 C153 C 1.32524 1.14693 0.85403
 N154 N 1.33503 1.16633 0.86330
 C155 C 1.35606 1.17417 0.85565
 N156 N 1.36714 1.16235 0.83825
 C157 C 0.85695 0.64297 0.82876
 N158 N 0.83763 0.63341 0.83859
 C159 C 0.82682 0.64420 0.85672
 N160 N 0.83558 0.66455 0.86508
 C161 C 0.85516 0.67397 0.85572
 N162 N 0.86565 0.66317 0.83749
 C163 C 0.85710 1.14266 0.32826
 N164 N 0.83620 1.13501 0.33630
 C165 C 0.82514 1.14605 0.35400
 N166 N 0.83484 1.16545 0.36340
 C167 C 0.85591 1.17334 0.35588
 N168 N 0.86709 1.16160 0.33850
 C169 C 0.64299 0.35602 0.32806
 N170 N 0.66251 0.36531 0.33779
 C171 C 0.67147 0.35638 0.35783
 N172 N 0.66093 0.33782 0.36809
 C173 C 0.64160 0.32808 0.35845
 N174 N 0.63276 0.33738 0.33851
 C175 C 0.64105 0.85861 0.83076
 N176 N 0.63176 0.83935 0.84091
 C177 C 0.64160 0.83006 0.86035
 N178 N 0.66095 0.84011 0.86959
 C179 C 0.67038 0.85938 0.85959
 N180 N 0.66038 0.86852 0.84015
 C181 C 0.14499 0.35614 0.82761
 N182 N 0.13641 0.33588 0.83633
 C183 C 0.14471 0.32686 0.85662
 N184 N 0.16235 0.33807 0.86778
 C185 C 0.17152 0.35804 0.85898
 N186 N 0.16257 0.36719 0.83903
 C187 C 0.14546 0.85430 0.32524
 N188 N 0.13430 0.83673 0.33651
 C189 C 0.14296 0.82768 0.35662
 N190 N 0.16281 0.83672 0.36586
 C191 C 0.17425 0.85425 0.35475
 N192 N 0.16565 0.86271 0.33434
 O193 O 0.97731 0.91791 0.88261
 O194 O 0.97741 0.89117 0.85498
 C195 C 0.96943 0.90999 0.86347
 C196 C 0.95021 0.92229 0.85145
 C197 C 0.94218 0.91450 0.82968
 H198 H 0.95135 0.90052 0.82096
 O199 O 1.02135 1.08548 0.88435
 O200 O 1.02122 1.11278 0.85727
 C201 C 1.02918 1.09373 0.86535
 C202 C 1.04822 1.08141 0.85297
 C203 C 1.05589 1.08914 0.83104
 H204 H 1.04669 1.10324 0.82251
 O205 O 0.88385 0.97880 0.91610
 O206 O 0.85638 0.97892 0.88919
 C207 C 0.86473 0.97100 0.90815
 C208 C 0.85254 0.95198 0.92065
 C209 C 0.83064 0.94419 0.91302
 H210 H 0.82198 0.95334 0.89896
 O211 O 1.11562 1.02513 0.91588
 O212 O 1.14275 1.02568 0.88864
 C213 C 1.13440 1.03346 0.90763
 C214 C 1.14632 1.05271 0.92002
 C215 C 1.16730 1.06189 0.91142
 H216 H 1.17476 1.05469 0.89564
 O217 O 0.91642 0.88479 0.97645
 O218 O 0.88926 0.85762 0.97614
 C219 C 0.90817 0.86597 0.96822
 C220 C 0.92026 0.85416 0.94871
 C221 C 0.91196 0.83284 0.94008
 H222 H 0.89764 0.82429 0.94890
 O223 O 1.08327 1.11702 0.97778
 O224 O 1.11025 1.14437 0.97798
 C225 C 1.09151 1.13592 0.96972
 C226 C 1.07941 1.14790 0.95025
 C227 C 1.08818 1.16887 0.94117
 H228 H 1.10409 1.17593 0.94840
 O229 O 0.91599 1.02355 0.88351
 O230 O 0.88878 1.02358 0.85632
 C231 C 0.90786 1.03136 0.86445
 C232 C 0.92026 1.05036 0.85215
 C233 C 0.91294 1.05776 0.83000
 H234 H 0.89960 1.04783 0.82115
 O235 O 1.08443 0.97927 0.88380
 O236 O 1.11155 0.97962 0.85656
 C237 C 1.09272 0.97141 0.86481
 C238 C 1.08050 0.95222 0.85254
 C239 C 1.08884 0.94372 0.83109
 H240 H 1.10435 0.95132 0.82351
 O241 O 1.02251 0.88529 0.91428
 O242 O 1.02247 0.85841 0.88680
 C243 C 1.03039 0.86637 0.90589
 C244 C 1.04949 0.85398 0.91809
 C245 C 1.05763 0.83240 0.90986
 H246 H 1.04879 0.82409 0.89539
 O247 O 0.97609 1.11715 0.91665
 O248 O 0.97588 1.14470 0.88982
 C249 C 0.96806 1.13619 0.90873
 C250 C 0.94915 1.14823 0.92153
 C251 C 0.94092 1.17007 0.91412
 H252 H 0.94852 1.17808 0.89881
 O253 O 0.88368 1.08407 0.97823
 O254 O 0.85635 1.11107 0.97869
 C255 C 0.86464 1.09228 0.97044
 C256 C 0.85249 1.08030 0.95102
 C257 C 0.83069 1.08821 0.94314
 H258 H 0.82203 1.10195 0.95270
 O259 O 1.11591 0.91653 0.97552
 O260 O 1.14325 0.88955 0.97506
 C261 C 1.13486 0.90854 0.96734
 C262 C 1.14705 0.92135 0.94850
 C263 C 1.16858 0.91344 0.93997
 H264 H 1.17581 0.89754 0.94704
 O265 O 0.97591 1.08590 0.88417
 O266 O 0.97570 1.11327 0.85718
 C267 C 0.96782 1.09424 0.86530
 C268 C 0.94892 1.08173 0.85292
 C269 C 0.94049 1.08972 0.83132
 H270 H 0.94768 1.10556 0.82410
 O271 O 1.02273 0.91807 0.88311
 O272 O 1.02281 0.89130 0.85552
 C273 C 1.03073 0.91016 0.86404
 C274 C 1.04992 0.92261 0.85205
 C275 C 1.05807 0.91481 0.83034
 H276 H 1.04912 0.90063 0.82171
 O277 O 1.11628 0.97969 0.91588
 O278 O 1.14354 0.98019 0.88879
 C279 C 1.13539 0.97207 0.90773
 C280 C 1.14771 0.95290 0.91994
 C281 C 1.16979 0.94545 0.91244
 H282 H 1.17857 0.95528 0.89896
 O283 O 0.88397 1.02427 0.91530
 O284 O 0.85661 1.02446 0.88827
 C285 C 0.86507 1.03244 0.90713
 C286 C 0.85302 1.05157 0.91962
 C287 C 0.83171 1.06039 0.91138
 H288 H 0.82442 1.05329 0.89549
 O289 O 0.91567 1.11607 0.97871
 O290 O 0.88844 1.14318 0.97921
 C291 C 0.90747 1.13520 0.97117
 C292 C 0.91982 1.14788 0.95237
 C293 C 0.91230 1.17003 0.94520
 H294 H 0.89835 1.17847 0.95468
 O295 O 1.08413 0.88458 0.97537
 O296 O 1.11135 0.85746 0.97491
 C297 C 1.09237 0.86578 0.96709
 C298 C 1.07999 0.85384 0.94782
 C299 C 1.08822 0.83254 0.93902
 H300 H 1.10369 0.82481 0.94657
 O301 O 1.08363 1.02479 0.88410
 O302 O 1.11064 1.02521 0.85675
 C303 C 1.09164 1.03295 0.86513
 C304 C 1.07898 1.05195 0.85302
 C305 C 1.08680 1.06038 0.83138
 H306 H 1.10223 1.05282 0.82360
 O307 O 0.91506 0.97824 0.88345
 O308 O 0.88772 0.97821 0.85640
 C309 C 0.90671 0.97025 0.86454
 C310 C 0.91911 0.95131 0.85217
 C311 C 0.91088 0.94283 0.83068
 H312 H 0.89523 0.95022 0.82316
 O313 O 1.02149 1.11733 0.91645
 O314 O 1.02140 1.14480 0.88955
 C315 C 1.02940 1.13640 0.90845
 C316 C 1.04866 1.14844 0.92078
 C317 C 1.05699 1.16999 0.91271
 H318 H 1.04783 1.17860 0.89865
 O319 O 0.97701 0.88576 0.91426
 O320 O 0.97692 0.85894 0.88672
 C321 C 0.96891 0.86701 0.90574
 C322 C 0.94965 0.85481 0.91788
 C323 C 0.94070 0.83375 0.90913
 H324 H 0.94806 0.82638 0.89339
 O325 O 1.11543 1.08553 0.97817
 O326 O 1.14250 1.11280 0.97849
 C327 C 1.13438 1.09388 0.97035
 C328 C 1.14656 1.08196 0.95096
 C329 C 1.16784 1.09055 0.94245
 H330 H 1.17618 1.10499 0.95127
 O331 O 0.88432 0.91653 0.97693
 O332 O 0.85706 0.88946 0.97667
 C333 C 0.86532 0.90848 0.96891
 C334 C 0.85299 0.92114 0.95004
 C335 C 0.83137 0.91319 0.94172
 H336 H 0.82372 0.89770 0.94928
 Cu337 Cu 0.99991 0.90442 0.90135
 Cu338 Cu 0.99994 0.87226 0.86824
 Cu339 Cu 0.99872 1.09872 0.90309
 Cu340 Cu 0.99857 1.13165 0.87075
 Cu341 Cu 0.90244 1.00119 0.90231
 Cu342 Cu 0.86959 1.00130 0.86985
 Cu343 Cu 1.09727 1.00215 0.90263
 Cu344 Cu 1.12984 1.00271 0.86994
 C345 C 0.93880 0.94094 0.86236
 H346 H 0.94487 0.94696 0.87921
 C347 C 0.92231 0.92439 0.81923
 C348 C 1.05963 1.06255 0.86362
 H349 H 1.05387 1.05655 0.88059
 C350 C 1.07533 1.07891 0.82011
 C351 C 0.86339 0.94059 0.93942
 H352 H 0.88034 0.94644 0.94532
 C353 C 0.81995 0.92463 0.92324
 C354 C 1.13614 1.06281 0.93985
 H355 H 1.11966 1.05619 0.94623
 C356 C 1.17832 1.08075 0.92255
 C357 C 0.93933 0.86483 0.93771
 H358 H 0.94574 0.88134 0.94421
 C359 C 0.92185 0.82256 0.92013
 C360 C 1.05969 1.13778 0.93986
 H361 H 1.05329 1.12121 0.94624
 C362 C 1.07703 1.18031 0.92249
 C363 C 0.93861 1.06210 0.86320
 H364 H 0.94443 1.05635 0.88024
 C365 C 0.92258 1.07775 0.81943
 C366 C 1.06102 0.94155 0.86283
 H367 H 1.05486 0.94759 0.87964
 C368 C 1.07774 0.92498 0.81980
 C369 C 1.06056 0.86435 0.93730
 H370 H 1.05447 0.88105 0.94364
 C371 C 1.07711 0.82155 0.92010
 C372 C 0.93851 1.13733 0.94068
 H373 H 0.94435 1.12021 0.94610
 C374 C 0.92253 1.18125 0.92590
 C375 C 0.86327 1.06168 0.93941
 H376 H 0.88004 1.05544 0.94544
 C377 C 0.82017 1.07863 0.92309
 C378 C 1.13674 0.94105 0.93833
 H379 H 1.11977 0.94678 0.94428
 C380 C 1.18041 0.92549 0.92211
 O381 O 1.02430 0.91427 1.11454
 O382 O 1.02474 0.88678 1.14140
 C383 C 1.03269 0.90574 1.13319
 C384 C 1.05201 0.91792 1.14527
 C385 C 1.06120 0.90913 1.16622
 H386 H 1.05430 0.89301 1.17313
 O387 O 0.97718 1.08343 1.11771
 O388 O 0.97721 1.11020 1.14531
 C389 C 0.96929 1.09135 1.13684
 C390 C 0.95050 1.07860 1.14911
 C391 C 0.94209 1.08644 1.17074
 H392 H 0.94928 1.10223 1.17809
 O393 O 0.88510 1.02225 1.08590
 O394 O 0.85801 1.02192 1.11316
 C395 C 0.86624 1.03021 1.09433
 C396 C 0.85404 1.04951 1.08221
 C397 C 0.83281 1.05827 1.09077
 H398 H 0.82540 1.05085 1.10646
 O399 O 1.11599 0.97668 1.08343
 O400 O 1.14338 0.97645 1.11043
 C401 C 1.13491 0.96852 1.09155
 C402 C 1.14690 0.94931 1.07915
 C403 C 1.16804 0.94035 1.08762
 H404 H 1.17558 0.94767 1.10331
 O405 O 1.08457 0.88391 1.02094
 O406 O 1.11179 0.85680 1.02056
 C407 C 1.09288 0.86492 1.02874
 C408 C 1.08055 0.85245 1.04774
 C409 C 1.08891 0.83104 1.05627
 H410 H 1.10479 0.82397 1.04901
 O411 O 0.91567 1.11545 1.02418
 O412 O 0.88837 1.14248 1.02461
 C413 C 0.90738 1.13425 1.03242
 C414 C 0.91955 1.14623 1.05180
 C415 C 0.91112 1.16751 1.06043
 H416 H 0.89663 1.17589 1.05172
 O417 O 0.91676 0.97568 1.11647
 O418 O 0.88974 0.97515 1.14381
 C419 C 0.90862 0.96730 1.13529
 C420 C 0.92118 0.94814 1.14722
 C421 C 0.91327 0.93948 1.16872
 H422 H 0.89749 0.94665 1.17609
 O423 O 1.08478 1.02246 1.11563
 O424 O 1.11217 1.02238 1.14262
 C425 C 1.09319 1.03042 1.13453
 C426 C 1.08086 1.04938 1.14700
 C427 C 1.08916 1.05772 1.16852
 H428 H 1.10501 1.05041 1.17563
 O429 O 0.97743 0.88346 1.08355
 O430 O 0.97760 0.85601 1.11047
 C431 C 0.96931 0.86458 1.09179
 C432 C 0.94980 0.85276 1.07968
 C433 C 0.94074 0.83168 1.08823
 H434 H 0.94814 0.82408 1.10385
 O435 O 1.02240 1.11584 1.08595
 O436 O 1.02251 1.14270 1.11344
 C437 C 1.03038 1.13472 1.09434
 C438 C 1.04934 1.14715 1.08193
 C439 C 1.05805 1.16842 1.09045
 H440 H 1.05068 1.17585 1.10616
 O441 O 0.88463 0.91600 1.02252
 O442 O 0.85740 0.88889 1.02229
 C443 C 0.86575 0.90768 1.03053
 C444 C 0.85373 0.91970 1.04999
 C445 C 0.83258 0.91109 1.05881
 H446 H 0.82499 0.89561 1.05115
 O447 O 1.11502 1.08543 1.02366
 O448 O 1.14206 1.11271 1.02402
 C449 C 1.13390 1.09365 1.03180
 C450 C 1.14629 1.08095 1.05060
 C451 C 1.16785 1.08894 1.05908
 H452 H 1.17497 1.10491 1.05207
 O453 O 1.02254 1.08299 1.11706
 O454 O 1.02261 1.10969 1.14472
 C455 C 1.03049 1.09082 1.13618
 C456 C 1.04968 1.07829 1.14813
 C457 C 1.05746 1.08554 1.17017
 H458 H 1.04780 1.09899 1.17917
 O459 O 0.97885 0.91515 1.11568
 O460 O 0.97924 0.88783 1.14273
 C461 C 0.97131 0.90694 1.13483
 C462 C 0.95242 0.91928 1.14744
 C463 C 0.94500 0.91165 1.16952
 H464 H 0.95475 0.89800 1.17812
 O465 O 1.11617 1.02214 1.08315
 O466 O 1.14369 1.02191 1.11002
 C467 C 1.13530 1.02992 1.09113
 C468 C 1.14736 1.04916 1.07886
 C469 C 1.16947 1.05662 1.08621
 H470 H 1.17843 1.04661 1.09943
 O471 O 0.88482 0.97680 1.08461
 O472 O 0.85767 0.97638 1.11182
 C473 C 0.86584 0.96878 1.09266
 C474 C 0.85361 0.94984 1.08009
 C475 C 0.83217 0.94137 1.08826
 H476 H 0.82380 0.94996 1.10283
 O477 O 1.08279 1.11707 1.02344
 O478 O 1.10971 1.14447 1.02367
 C479 C 1.09081 1.13605 1.03154
 C480 C 1.07854 1.14794 1.05091
 C481 C 1.08663 1.16942 1.05935
 H482 H 1.10085 1.17805 1.05045
 O483 O 0.91635 0.88398 1.02197
 O484 O 0.88920 0.85679 1.02167
 C485 C 0.90812 0.86495 1.02976
 C486 C 0.92023 0.85272 1.04902
 C487 C 0.91178 0.83135 1.05744
 H488 H 0.89731 0.82305 1.04864
 O489 O 1.08427 0.97695 1.11547
 O490 O 1.11157 0.97684 1.14256
 C491 C 1.09259 0.96889 1.13436
 C492 C 1.08062 0.94938 1.14630
 C493 C 1.08884 0.94099 1.16781
 H494 H 1.10264 0.95039 1.17656
 O495 O 0.91721 1.02105 1.11772
 O496 O 0.89026 1.02056 1.14513
 C497 C 0.90926 1.02852 1.13700
 C498 C 0.92174 1.04732 1.14954
 C499 C 0.91436 1.05463 1.17172
 H500 H 0.90086 1.04481 1.18044
 O501 O 0.97687 1.11527 1.08586
 O502 O 0.97683 1.14216 1.11333
 C503 C 0.96874 1.13401 1.09436
 C504 C 0.94929 1.14602 1.08232
 C505 C 0.94021 1.16700 1.09109
 H506 H 0.94766 1.17448 1.10675
 O507 O 1.02285 0.88297 1.08196
 O508 O 1.02306 0.85535 1.10871
 C509 C 1.03066 0.86373 1.08964
 C510 C 1.04949 0.85154 1.07683
 C511 C 1.05727 0.82956 1.08419
 H512 H 1.04762 0.82070 1.09774
 O513 O 1.11611 0.91615 1.02103
 O514 O 1.14345 0.88916 1.02063
 C515 C 1.13513 0.90796 1.02885
 C516 C 1.14720 0.91998 1.04826
 C517 C 1.16862 0.91163 1.05666
 H518 H 1.17705 0.89727 1.04779
 O519 O 0.88416 1.08317 1.02382
 O520 O 0.85680 1.11014 1.02423
 C521 C 0.86522 1.09119 1.03199
 C522 C 0.85334 1.07884 1.05131
 C523 C 0.83181 1.08684 1.05966
 H524 H 0.82315 1.10096 1.05063
 Cu525 Cu 1.00082 0.90171 1.09625
 Cu526 Cu 1.00121 0.86873 1.12853
 Cu527 Cu 0.99977 1.09674 1.09886
 Cu528 Cu 0.99985 1.12892 1.13194
 Cu529 Cu 0.90315 0.90305 0.99949
 Cu530 Cu 0.87050 0.87046 0.99914
 Cu531 Cu 1.09744 0.90298 0.99827
 Cu532 Cu 1.13021 0.87052 0.99774
 Cu533 Cu 0.90252 1.09696 1.00114
 Cu534 Cu 0.86972 1.12940 1.00171
 Cu535 Cu 1.09641 1.09855 1.00077
 Cu536 Cu 1.12880 1.13137 1.00111
 Cu537 Cu 0.90367 0.99902 1.09844
 Cu538 Cu 0.87118 0.99846 1.13120
 Cu539 Cu 1.09755 0.99960 1.09673
 Cu540 Cu 1.13045 0.99940 1.12912
 C541 C 1.06189 0.93801 1.13543
 H542 H 1.05541 0.94445 1.11889
 C543 C 1.07952 0.92063 1.17789
 C544 C 0.94017 1.05908 1.13865
 H545 H 0.94600 1.05346 1.12158
 C546 C 0.92409 1.07450 1.18246
 C547 C 0.86414 1.05994 1.06247
 H548 H 0.88080 1.05373 1.05614
 C549 C 0.82148 1.07696 1.07959
 C550 C 1.13665 0.93904 1.05941
 H551 H 1.12007 0.94549 1.05311
 C552 C 1.17914 0.92155 1.07647
 C553 C 1.06090 0.86258 1.05824
 H554 H 1.05490 0.87950 1.05240
 C555 C 1.07736 0.81923 1.07450
 C556 C 0.93885 1.13582 1.06264
 H557 H 0.94536 1.11934 1.05612
 C558 C 0.92113 1.17798 1.08024
 C559 C 0.94072 0.93788 1.13671
 H560 H 0.94642 0.94394 1.11975
 C561 C 0.92517 0.92138 1.18034
 C562 C 1.06119 1.05987 1.13692
 H563 H 1.05519 1.05410 1.11996
 C564 C 1.07753 1.07576 1.18047
 C565 C 0.93945 0.86309 1.06004
 H566 H 0.94597 0.87962 1.05369
 C567 C 0.92175 0.82073 1.07720
 C568 C 1.05967 1.13713 1.06210
 H569 H 1.05346 1.12046 1.05578
 C570 C 1.07673 1.17973 1.07929
 C571 C 0.86406 0.93912 1.06072
 H572 H 0.88068 0.94548 1.05442
 C573 C 0.82157 0.92183 1.07793
 C574 C 1.13617 1.06111 1.06070
 H575 H 1.11917 1.05533 1.05485
 C576 C 1.17985 1.07680 1.07680
 O577 O 1.08593 0.52118 0.61542
 O578 O 1.11361 0.52087 0.64211
 C579 C 1.09459 0.52904 0.63425
 C580 C 1.08258 0.54817 0.64679
 C581 C 1.09150 0.55693 0.66790
 H582 H 1.10730 0.54953 0.67510
 O583 O 0.91709 0.47538 0.61757
 O584 O 0.89001 0.47515 0.64485
 C585 C 0.90899 0.46733 0.63655
 C586 C 0.92125 0.44801 0.64849
 C587 C 0.91316 0.43948 0.66995
 H588 H 0.89918 0.44864 0.67866
 O589 O 1.02342 0.61421 0.58629
 O590 O 1.02354 0.64108 0.61378
 C591 C 1.03141 0.63308 0.59468
 C592 C 1.05044 0.64547 0.58236
 C593 C 1.05951 0.66643 0.59121
 H594 H 1.05233 0.67364 0.60711
 O595 O 0.97841 0.38302 0.58336
 O596 O 0.97875 0.35537 0.61007
 C597 C 0.97072 0.36382 0.59119
 C598 C 0.95165 0.35169 0.57869
 C599 C 0.94363 0.32993 0.58645
 H600 H 0.95270 0.32128 0.60057
 O601 O 1.11536 0.58411 0.52309
 O602 O 1.14258 0.61123 0.52318
 C603 C 1.13438 0.59222 0.53104
 C604 C 1.14689 0.57952 0.54977
 C605 C 1.16831 0.58776 0.55833
 H606 H 1.17526 0.60382 0.55135
 O607 O 0.88453 0.41543 0.52257
 O608 O 0.85738 0.38824 0.52240
 C609 C 0.86559 0.40714 0.53051
 C610 C 0.85350 0.41913 0.54995
 C611 C 0.83178 0.41114 0.55793
 H612 H 0.82310 0.39739 0.54838
 O613 O 0.97846 0.58150 0.61817
 O614 O 0.97862 0.60826 0.64577
 C615 C 0.97068 0.58939 0.63735
 C616 C 0.95159 0.57698 0.64951
 C617 C 0.94354 0.58484 0.67124
 H618 H 0.95259 0.59898 0.67985
 O619 O 1.02317 0.41514 0.61598
 O620 O 1.02355 0.38773 0.64294
 C621 C 1.03126 0.40686 0.63486
 C622 C 1.05044 0.41919 0.64699
 C623 C 1.05881 0.41115 0.66855
 H624 H 1.05001 0.39682 0.67711
 O625 O 1.11637 0.47528 0.58266
 O626 O 1.14405 0.47480 0.60935
 C627 C 1.13530 0.46695 0.59056
 C628 C 1.14696 0.44762 0.57805
 C629 C 1.16806 0.43845 0.58640
 H630 H 1.17574 0.44572 0.60204
 O631 O 0.88482 0.52056 0.58564
 O632 O 0.85756 0.52033 0.61274
 C633 C 0.86581 0.52840 0.59382
 C634 C 0.85366 0.54765 0.58162
 C635 C 0.83206 0.55586 0.58972
 H636 H 0.82356 0.54698 0.60403
 O637 O 0.91696 0.61455 0.52438
 O638 O 0.88977 0.64169 0.52495
 C639 C 0.90882 0.63339 0.53264
 C640 C 0.92112 0.64530 0.55199
 C641 C 0.91291 0.66668 0.56054
 H642 H 0.89861 0.67524 0.55169
 O643 O 1.08309 0.38292 0.52055
 O644 O 1.11016 0.35564 0.51992
 C645 C 1.09135 0.36387 0.52823
 C646 C 1.07946 0.35168 0.54765
 C647 C 1.08730 0.32979 0.55530
 H648 H 1.10080 0.32106 0.54546
 O649 O 0.91657 0.52075 0.61774
 O650 O 0.88945 0.52061 0.64499
 C651 C 0.90835 0.52865 0.63674
 C652 C 0.92075 0.54766 0.64904
 C653 C 0.91251 0.55622 0.67048
 H654 H 0.89691 0.54878 0.67803
 O655 O 1.08515 0.47574 0.61519
 O656 O 1.11274 0.47535 0.64198
 C657 C 1.09356 0.46763 0.63402
 C658 C 1.08116 0.44867 0.64641
 C659 C 1.08959 0.44006 0.66774
 H660 H 1.10520 0.44755 0.67524
 O661 O 1.02384 0.38322 0.58409
 O662 O 1.02425 0.35568 0.61091
 C663 C 1.03210 0.36428 0.59206
 C664 C 1.05112 0.35229 0.57937
 C665 C 1.05999 0.33095 0.58747
 H666 H 1.05310 0.32376 0.60348
 O667 O 0.97790 0.61369 0.58648
 O668 O 0.97793 0.64057 0.61395
 C669 C 0.96985 0.63247 0.59496
 C670 C 0.95057 0.64468 0.58280
 C671 C 0.94169 0.66580 0.59148
 H672 H 0.94909 0.67321 0.60719
 O673 O 0.88489 0.58281 0.52473
 O674 O 0.85764 0.60990 0.52533
 C675 C 0.86605 0.59093 0.53305
 C676 C 0.85402 0.57844 0.55219
 C677 C 0.83270 0.58671 0.56087
 H678 H 0.82512 0.60229 0.55342
 O679 O 1.11529 0.41460 0.52029
 O680 O 1.14244 0.38742 0.51967
 C681 C 1.13434 0.40628 0.52795
 C682 C 1.14672 0.41820 0.54725
 C683 C 1.16812 0.40962 0.55554
 H684 H 1.17633 0.39512 0.54670
 O685 O 0.97769 0.41375 0.61639
 O686 O 0.97797 0.38623 0.64323
 C687 C 0.96972 0.40513 0.63520
 C688 C 0.95041 0.41707 0.64752
 C689 C 0.94138 0.40811 0.66848
 H690 H 0.94856 0.39213 0.67546
 O691 O 1.02390 0.58161 0.61745
 O692 O 1.02409 0.60838 0.64504
 C693 C 1.03210 0.58962 0.63640
 C694 C 1.05171 0.57746 0.64800
 C695 C 1.06052 0.58561 0.66932
 H696 H 1.05178 0.59986 0.67806
 O697 O 0.88511 0.47507 0.58574
 O698 O 0.85790 0.47476 0.61289
 C699 C 0.86625 0.46688 0.59393
 C700 C 0.85414 0.44781 0.58140
 C701 C 0.83293 0.43887 0.58976
 H702 H 0.82576 0.44588 0.60573
 O703 O 1.11700 0.52079 0.58261
 O704 O 1.14480 0.52034 0.60918
 C705 C 1.13623 0.52848 0.59043
 C706 C 1.14819 0.54780 0.57813
 C707 C 1.17015 0.55559 0.58562
 H708 H 1.17914 0.54581 0.59900
 O709 O 0.91651 0.38355 0.52227
 O710 O 0.88945 0.35627 0.52222
 C711 C 0.90838 0.36454 0.53021
 C712 C 0.92085 0.35223 0.54924
 C713 C 0.91263 0.33078 0.55774
 H714 H 0.89704 0.32326 0.55023
 O715 O 1.08321 0.61573 0.52352
 O716 O 1.11033 0.64296 0.52359
 C717 C 1.09148 0.63458 0.53165
 C718 C 1.07953 0.64635 0.55127
 C719 C 1.08797 0.66758 0.56002
 H720 H 1.10226 0.67616 0.55117
 Cu721 Cu 1.09834 0.49831 0.59630
 Cu722 Cu 1.13160 0.49780 0.62831
 Cu723 Cu 0.90360 0.49798 0.59895
 Cu724 Cu 0.87098 0.49769 0.63159
 Cu725 Cu 1.00089 0.59508 0.59933
 Cu726 Cu 1.00103 0.62726 0.63241
 Cu727 Cu 1.00074 0.40156 0.59730
 Cu728 Cu 1.00117 0.36849 0.62949
 C729 C 1.06265 0.55853 0.63705
 H730 H 1.05601 0.55225 0.62051
 C731 C 1.08060 0.57569 0.67934
 C732 C 0.94018 0.43698 0.63767
 H733 H 0.94653 0.44352 0.62113
 C734 C 0.92275 0.41923 0.68002
 C735 C 1.06054 0.63563 0.56234
 H736 H 1.05405 0.61917 0.55577
 C737 C 1.07828 0.67770 0.58015
 C738 C 0.94039 0.36250 0.55982
 H739 H 0.94643 0.37934 0.55380
 C740 C 0.92393 0.31938 0.57633
 C741 C 1.13695 0.55957 0.55985
 H742 H 1.12006 0.55359 0.55392
 C743 C 1.18034 0.57584 0.57616
 C744 C 0.86429 0.43777 0.56152
 H745 H 0.88100 0.44407 0.55541
 C746 C 0.82138 0.42061 0.57808
 C747 C 0.94033 0.55814 0.63874
 H748 H 0.94640 0.55206 0.62192
 C749 C 0.92378 0.57484 0.68178
 C750 C 1.06150 0.43820 0.63626
 H751 H 1.05526 0.44437 0.61952
 C752 C 1.07852 0.42132 0.67904
 C753 C 1.13647 0.43743 0.55841
 H754 H 1.11991 0.44405 0.55222
 C755 C 1.17891 0.41953 0.57523
 C756 C 0.86431 0.55884 0.56261
 H757 H 0.88103 0.55271 0.55636
 C758 C 0.82146 0.57550 0.57956
 C759 C 0.94019 0.63462 0.56301
 H760 H 0.94651 0.61804 0.55657
 C761 C 0.92284 0.67700 0.58046
 C762 C 1.06104 0.36254 0.55950
 H763 H 1.05481 0.37936 0.55360
 C764 C 1.07795 0.31927 0.57545
 O765 O 1.08260 0.47861 0.38221
 O766 O 1.10978 0.47894 0.35503
 C767 C 1.09073 0.47100 0.36307
 C768 C 1.07836 0.45213 0.35052
 C769 C 1.08582 0.44487 0.32836
 H770 H 1.09934 0.45475 0.31974
 O771 O 0.91525 0.52310 0.38408
 O772 O 0.88787 0.52361 0.35708
 C773 C 0.90697 0.53132 0.36525
 C774 C 0.91955 0.55031 0.35304
 C775 C 0.91162 0.55870 0.33141
 H776 H 0.89614 0.55118 0.32369
 O777 O 0.97600 0.61584 0.41614
 O778 O 0.97546 0.64332 0.38926
 C779 C 0.96756 0.63464 0.40805
 C780 C 0.94813 0.64629 0.42040
 C781 C 0.93886 0.66728 0.41191
 H782 H 0.94602 0.67484 0.39616
 O783 O 1.02182 0.38427 0.41314
 O784 O 1.02155 0.35739 0.38566
 C785 C 1.02966 0.36538 0.40467
 C786 C 1.04884 0.35303 0.41677
 C787 C 1.05800 0.33219 0.40772
 H788 H 1.05073 0.32499 0.39186
 O789 O 1.11418 0.41515 0.47465
 O790 O 1.14134 0.38798 0.47404
 C791 C 1.13293 0.40694 0.46624
 C792 C 1.14486 0.41935 0.44697
 C793 C 1.16587 0.41075 0.43783
 H794 H 1.17293 0.39474 0.44482
 O795 O 0.88427 0.58286 0.47918
 O796 O 0.85695 0.60988 0.47985
 C797 C 0.86512 0.59101 0.47162
 C798 C 0.85267 0.57888 0.45250
 C799 C 0.83078 0.58680 0.44492
 H800 H 0.82234 0.60084 0.45427
 O801 O 1.02277 0.58590 0.38421
 O802 O 1.02247 0.61348 0.35743
 C803 C 1.03086 0.59467 0.36553
 C804 C 1.05042 0.58298 0.35338
 C805 C 1.06000 0.59246 0.33291
 H806 H 1.05312 0.60872 0.32632
 O807 O 0.97697 0.41741 0.38163
 O808 O 0.97667 0.39068 0.35400
 C809 C 0.96902 0.40966 0.36247
 C810 C 0.95001 0.42233 0.35043
 C811 C 0.94225 0.41508 0.32840
 H812 H 0.95192 0.40164 0.31941
 O813 O 1.11443 0.52360 0.41492
 O814 O 1.14176 0.52389 0.38789
 C815 C 1.13336 0.53173 0.40685
 C816 C 1.14542 0.55087 0.41933
 C817 C 1.16659 0.55978 0.41089
 H818 H 1.17412 0.55244 0.39521
 O819 O 0.88360 0.47727 0.41567
 O820 O 0.85604 0.47763 0.38886
 C821 C 0.86459 0.46934 0.40756
 C822 C 0.85268 0.44994 0.41979
 C823 C 0.83132 0.44121 0.41157
 H824 H 0.82356 0.44883 0.39614
 O825 O 1.08324 0.61647 0.47798
 O826 O 1.11035 0.64368 0.47800
 C827 C 1.09135 0.63550 0.47009
 C828 C 1.07876 0.64791 0.45123
 C829 C 1.08681 0.66947 0.44281
 H830 H 1.10239 0.67704 0.45028
 O831 O 0.91649 0.38402 0.47660
 O832 O 0.88951 0.35667 0.47657
 C833 C 0.90835 0.36508 0.46851
 C834 C 0.92041 0.35319 0.44895
 C835 C 0.91256 0.33145 0.44091
 H836 H 0.89893 0.32263 0.45048
 O837 O 0.91483 0.47771 0.38322
 O838 O 0.88742 0.47809 0.35625
 C839 C 0.90643 0.47000 0.36422
 C840 C 0.91882 0.45119 0.35158
 C841 C 0.91049 0.44284 0.33007
 H842 H 0.89460 0.45011 0.32300
 O843 O 1.08291 0.52397 0.38271
 O844 O 1.11017 0.52428 0.35560
 C845 C 1.09124 0.53220 0.36390
 C846 C 1.07934 0.55187 0.35219
 C847 C 1.08795 0.56088 0.33112
 H848 H 1.10199 0.55179 0.32245
 O849 O 0.97632 0.38509 0.41325
 O850 O 0.97589 0.35819 0.38579
 C851 C 0.96806 0.36634 0.40487
 C852 C 0.94900 0.35412 0.41737
 C853 C 0.94019 0.33285 0.40899
 H854 H 0.94724 0.32570 0.39302
 O855 O 1.02142 0.61676 0.41710
 O856 O 1.02092 0.64443 0.39041
 C857 C 1.02893 0.63606 0.40933
 C858 C 1.04784 0.64838 0.42191
 C859 C 1.05567 0.67024 0.41423
 H860 H 1.04648 0.67886 0.40018
 O861 O 0.88431 0.41580 0.47707
 O862 O 0.85723 0.38854 0.47694
 C863 C 0.86532 0.40762 0.46914
 C864 C 0.85292 0.42005 0.45016
 C865 C 0.83123 0.41204 0.44215
 H866 H 0.82289 0.39769 0.45111
 O867 O 1.11478 0.58414 0.47757
 O868 O 1.14201 0.61124 0.47762
 C869 C 1.13369 0.59236 0.46956
 C870 C 1.14572 0.58026 0.45017
 C871 C 1.16718 0.58853 0.44182
 H872 H 1.17564 0.60285 0.45072
 O873 O 1.02234 0.41654 0.38174
 O874 O 1.02211 0.38979 0.35413
 C875 C 1.03029 0.40851 0.36269
 C876 C 1.04940 0.42101 0.35065
 C877 C 1.05795 0.41318 0.32905
 H878 H 1.05069 0.39747 0.32160
 O879 O 0.97728 0.58400 0.38416
 O880 O 0.97694 0.61137 0.35716
 C881 C 0.96933 0.59216 0.36517
 C882 C 0.95042 0.57964 0.35278
 C883 C 0.94266 0.58733 0.33087
 H884 H 0.95184 0.60140 0.32229
 O885 O 0.88358 0.52277 0.41627
 O886 O 0.85603 0.52328 0.38946
 C887 C 0.86456 0.53094 0.40844
 C888 C 0.85255 0.54982 0.42134
 C889 C 0.83094 0.55840 0.41364
 H890 H 0.82307 0.55105 0.39813
 O891 O 1.11455 0.47803 0.41430
 O892 O 1.14185 0.47831 0.38725
 C893 C 1.13352 0.47012 0.40608
 C894 C 1.14552 0.45061 0.41807
 C895 C 1.16708 0.44237 0.40988
 H896 H 1.17572 0.45170 0.39595
 O897 O 1.08249 0.38310 0.47506
 O898 O 1.10962 0.35588 0.47449
 C899 C 1.09060 0.36421 0.46683
 C900 C 1.07832 0.35234 0.44749
 C901 C 1.08681 0.33121 0.43861
 H902 H 1.10128 0.32273 0.44728
 O903 O 0.91578 0.61520 0.47877
 O904 O 0.88853 0.64229 0.47939
 C905 C 0.90731 0.63413 0.47099
 C906 C 0.91898 0.64631 0.45143
 C907 C 0.91029 0.66761 0.44300
 H908 H 0.89587 0.67589 0.45191
 Cu909 Cu 1.09591 0.50098 0.40127
 Cu910 Cu 1.12866 0.50133 0.36875
 Cu911 Cu 0.90204 0.50018 0.40251
 Cu912 Cu 0.86905 0.50074 0.37023
 Cu913 Cu 1.09642 0.59741 0.50052
 Cu914 Cu 1.12904 0.63001 0.50059
 Cu915 Cu 1.09606 0.40168 0.49773
 Cu916 Cu 1.12863 0.36902 0.49698
 Cu917 Cu 0.90323 0.59616 0.50169
 Cu918 Cu 0.87051 0.62867 0.50245
 Cu919 Cu 0.90318 0.40240 0.49964
 Cu920 Cu 0.87071 0.36968 0.49950
 Cu921 Cu 0.99942 0.59785 0.40307
 Cu922 Cu 0.99888 0.63091 0.37087
 Cu923 Cu 0.99938 0.40348 0.40021
 Cu924 Cu 0.99896 0.37129 0.36714
 C925 C 1.05981 0.44042 0.36126
 H926 H 1.05388 0.44606 0.37829
 C927 C 1.07609 0.42508 0.31749
 C928 C 0.93900 0.56086 0.36353
 H929 H 0.94482 0.55491 0.38050
 C930 C 0.92309 0.57719 0.32008
 C931 C 0.93811 0.63598 0.44020
 H932 H 0.94484 0.61952 0.44654
 C933 C 0.92001 0.67822 0.42313
 C934 C 1.05909 0.36291 0.43670
 H935 H 1.05258 0.37931 0.44339
 C936 C 1.07704 0.32110 0.41853
 C937 C 1.13480 0.43927 0.43693
 H938 H 1.11822 0.44556 0.44339
 C939 C 1.17739 0.42223 0.41943
 C940 C 0.86322 0.56014 0.44082
 H941 H 0.88016 0.55403 0.44651
 C942 C 0.81980 0.57685 0.42535
 C943 C 1.06029 0.56275 0.36291
 H944 H 1.05351 0.55580 0.37911
 C945 C 1.07875 0.58148 0.32140
 C946 C 0.93852 0.44074 0.36163
 H947 H 0.94452 0.44647 0.37861
 C948 C 0.92213 0.42478 0.31814
 C949 C 1.13515 0.56119 0.43903
 H950 H 1.11853 0.55481 0.44529
 C951 C 1.17770 0.57857 0.42204
 C952 C 0.86331 0.43924 0.43911
 H953 H 0.88007 0.44546 0.44517
 C954 C 0.82033 0.42227 0.42267
 C955 C 1.05923 0.63757 0.44068
 H956 H 1.05334 0.62065 0.44662
 C957 C 1.07538 0.68087 0.42429
 C958 C 0.93893 0.36416 0.43732
 H959 H 0.94511 0.38090 0.44347
 C960 C 0.92203 0.32117 0.42069
 O961 O 0.47668 0.91691 0.38338
 O962 O 0.47632 0.88991 0.35602
 C963 C 0.46859 0.90892 0.36439
 C964 C 0.44971 0.92171 0.35221
 C965 C 0.44144 0.91407 0.33045
 H966 H 0.44898 0.89867 0.32261
 O967 O 0.52265 1.08630 0.38417
 O968 O 0.52264 1.11401 0.35752
 C969 C 0.53075 1.09500 0.36547
 C970 C 0.54987 1.08288 0.35304
 C971 C 0.55891 1.09179 0.33206
 H972 H 0.55207 1.10803 0.32538
 O973 O 0.38404 0.97868 0.41548
 O974 O 0.35670 0.97885 0.38843
 C975 C 0.36508 0.97069 0.40725
 C976 C 0.35312 0.95121 0.41933
 C977 C 0.33176 0.94263 0.41097
 H978 H 0.32332 0.95131 0.39648
 O979 O 0.61442 1.02342 0.41361
 O980 O 0.64138 1.02372 0.38621
 C981 C 0.63322 1.03159 0.40525
 C982 C 0.64535 1.05080 0.41755
 C983 C 0.66621 1.06007 0.40870
 H984 H 0.67347 1.05297 0.39279
 O985 O 0.41591 0.88441 0.47678
 O986 O 0.38882 0.85715 0.47685
 C987 C 0.40778 0.86537 0.46892
 C988 C 0.42006 0.85309 0.44984
 C989 C 0.41219 0.83132 0.44195
 H990 H 0.39800 0.82281 0.45102
 O991 O 0.58407 1.11559 0.47752
 O992 O 0.61116 1.14283 0.47770
 C993 C 0.59217 1.13469 0.46976
 C994 C 0.57954 1.14730 0.45104
 C995 C 0.58777 1.16880 0.44262
 H996 H 0.60373 1.17581 0.44976
 O997 O 0.41541 1.02482 0.38390
 O998 O 0.38813 1.02506 0.35680
 C999 C 0.40704 1.03303 0.36509
 C1000 C 0.41934 1.05223 0.35296
 C1001 C 0.41099 1.06103 0.33167
 H1002 H 0.39509 1.05386 0.32455
 O1003 O 0.58234 0.97806 0.38172
 O1004 O 0.60920 0.97825 0.35423
 C1005 C 0.59034 0.97025 0.36261
 C1006 C 0.57806 0.95101 0.35054
 C1007 C 0.58588 0.94294 0.32880
 H1008 H 0.59965 0.95236 0.32004
 O1009 O 0.52189 0.88462 0.41515
 O1010 O 0.52165 0.85735 0.38805
 C1011 C 0.52972 0.86561 0.40699
 C1012 C 0.54895 0.85351 0.41926
 C1013 C 0.55681 0.83165 0.41159
 H1014 H 0.54760 0.82294 0.39760
 O1015 O 0.47619 1.11658 0.41618
 O1016 O 0.47597 1.14433 0.38958
 C1017 C 0.46799 1.13558 0.40830
 C1018 C 0.44884 1.14739 0.42095
 C1019 C 0.44041 1.16910 0.41338
 H1020 H 0.44791 1.17706 0.39799
 O1021 O 0.38383 1.08378 0.47944
 O1022 O 0.35657 1.11085 0.47993
 C1023 C 0.36470 1.09193 0.47180
 C1024 C 0.35234 1.07973 0.45261
 C1025 C 0.33040 1.08746 0.44491
 H1026 H 0.32173 1.10118 0.45450
 O1027 O 0.61597 0.91758 0.47568
 O1028 O 0.64322 0.89049 0.47538
 C1029 C 0.63488 0.90945 0.46753
 C1030 C 0.64680 0.92170 0.44815
 C1031 C 0.66828 0.91361 0.43970
 H1032 H 0.67689 0.89936 0.44859
 O1033 O 0.47726 1.08517 0.38378
 O1034 O 0.47713 1.11276 0.35700
 C1035 C 0.46941 1.09354 0.36484
 C1036 C 0.45040 1.08124 0.35242
 C1037 C 0.44258 1.08901 0.33053
 H1038 H 0.45215 1.10274 0.32189
 O1039 O 0.52213 0.91587 0.38266
 O1040 O 0.52188 0.88876 0.35541
 C1041 C 0.53003 0.90760 0.36367
 C1042 C 0.54911 0.91989 0.35137
 C1043 C 0.55790 0.91137 0.33013
 H1044 H 0.55074 0.89545 0.32302
 O1045 O 0.61471 0.97792 0.41330
 O1046 O 0.64170 0.97812 0.38593
 C1047 C 0.63364 0.97005 0.40493
 C1048 C 0.64605 0.95101 0.41724
 C1049 C 0.66731 0.94231 0.40869
 H1050 H 0.67472 0.94973 0.39299
 O1051 O 0.38413 1.02417 0.41636
 O1052 O 0.35674 1.02442 0.38938
 C1053 C 0.36510 1.03219 0.40839
 C1054 C 0.35286 1.05100 0.42118
 C1055 C 0.33142 1.05964 0.41313
 H1056 H 0.32413 1.05254 0.39725
 O1057 O 0.41584 1.11572 0.47883
 O1058 O 0.38870 1.14292 0.47934
 C1059 C 0.40756 1.13475 0.47110
 C1060 C 0.41964 1.14716 0.45194
 C1061 C 0.41193 1.16918 0.44456
 H1062 H 0.39798 1.17765 0.45402
 O1063 O 0.58435 0.88536 0.47552
 O1064 O 0.61153 0.85819 0.47523
 C1065 C 0.59252 0.86644 0.46741
 C1066 C 0.57996 0.85414 0.44846
 C1067 C 0.58796 0.83255 0.44014
 H1068 H 0.60351 0.82496 0.44767
 O1069 O 0.58225 1.02347 0.38206
 O1070 O 0.60909 1.02367 0.35454
 C1071 C 0.59027 1.03160 0.36308
 C1072 C 0.57818 1.05120 0.35144
 C1073 C 0.58611 1.05960 0.32987
 H1074 H 0.59958 1.05000 0.32085
 O1075 O 0.41618 0.97934 0.38368
 O1076 O 0.38899 0.97955 0.35649
 C1077 C 0.40803 0.97161 0.36459
 C1078 C 0.42043 0.95265 0.35214
 C1079 C 0.41284 0.94516 0.33008
 H1080 H 0.39884 0.95447 0.32152
 O1081 O 0.52156 1.11707 0.41721
 O1082 O 0.52140 1.14492 0.39070
 C1083 C 0.52923 1.13637 0.40960
 C1084 C 0.54817 1.14845 0.42232
 C1085 C 0.55581 1.17051 0.41507
 H1086 H 0.54600 1.17949 0.40170
 O1087 O 0.47650 0.88436 0.41467
 O1088 O 0.47615 0.85719 0.38747
 C1089 C 0.46838 0.86546 0.40648
 C1090 C 0.44941 0.85328 0.41902
 C1091 C 0.44094 0.83174 0.41101
 H1092 H 0.44847 0.82399 0.39554
 O1093 O 0.61547 1.08322 0.47660
 O1094 O 0.64263 1.11040 0.47667
 C1095 C 0.63426 1.09161 0.46846
 C1096 C 0.64602 1.07987 0.44869
 C1097 C 0.66716 1.08851 0.43993
 H1098 H 0.67564 1.10285 0.44878
 O1099 O 0.38439 0.91669 0.47647
 O1100 O 0.35725 0.88949 0.47633
 C1101 C 0.36555 0.90839 0.46831
 C1102 C 0.35350 0.92060 0.44897
 C1103 C 0.33239 0.91198 0.44005
 H1104 H 0.32491 0.89636 0.44752
 Cu1105 Cu 0.49931 0.90316 0.40168
 Cu1106 Cu 0.49895 0.87058 0.36900
 Cu1107 Cu 0.49943 1.09849 0.40298
 Cu1108 Cu 0.49928 1.13180 0.37102
 Cu1109 Cu 0.40266 1.00172 0.40256
 Cu1110 Cu 0.36989 1.00196 0.37007
 Cu1111 Cu 0.59575 1.00065 0.40043
 Cu1112 Cu 0.62805 1.00094 0.36747
 C1113 C 0.43913 0.94105 0.36286
 H1114 H 0.44501 0.94667 0.37992
 C1115 C 0.42305 0.92572 0.31913
 C1116 C 0.55974 1.06266 0.36263
 H1117 H 0.55346 1.05615 0.37922
 C1118 C 0.57701 1.08021 0.32011
 C1119 C 0.36367 0.94027 0.43854
 H1120 H 0.38021 0.94669 0.44499
 C1121 C 0.32128 0.92289 0.42108
 C1122 C 0.63543 1.06080 0.43759
 H1123 H 0.61906 1.05413 0.44419
 C1124 C 0.67734 1.07891 0.41979
 C1125 C 0.43891 0.86375 0.43849
 H1126 H 0.44497 0.88062 0.44441
 C1127 C 0.42233 0.82054 0.42238
 C1128 C 0.55980 1.13725 0.44068
 H1129 H 0.55390 1.12026 0.44643
 C1130 C 0.57597 1.18078 0.42465
 C1131 C 0.43901 1.06250 0.36319
 H1132 H 0.44504 1.05634 0.38001
 C1133 C 0.42261 1.07928 0.31998
 C1134 C 0.55937 0.93967 0.36144
 H1135 H 0.55321 0.94587 0.37818
 C1136 C 0.57625 0.92283 0.31850
 C1137 C 0.56041 0.86443 0.43794
 H1138 H 0.55450 0.88134 0.44389
 C1139 C 0.57645 0.82103 0.42177
 C1140 C 0.43834 1.13658 0.44025
 H1141 H 0.44437 1.11959 0.44584
 C1142 C 0.42200 1.18027 0.42511
 C1143 C 0.36316 1.06118 0.44092
 H1144 H 0.38005 1.05511 0.44678
 C1145 C 0.31979 1.07777 0.42494
 C1146 C 0.63601 0.94062 0.43702
 H1147 H 0.61936 0.94684 0.44336
 C1148 C 0.67861 0.92358 0.41980
 O1149 O 0.52346 0.91561 0.61607
 O1150 O 0.52382 0.88800 0.64283
 C1151 C 0.53156 0.90717 0.63488
 C1152 C 0.55062 0.91945 0.64722
 C1153 C 0.55845 0.91161 0.66906
 H1154 H 0.54937 0.89740 0.67752
 O1155 O 0.47697 1.08273 0.61764
 O1156 O 0.47717 1.10976 0.64497
 C1157 C 0.46901 1.09095 0.63660
 C1158 C 0.44992 1.07858 0.64881
 C1159 C 0.44143 1.08669 0.67032
 H1160 H 0.44871 1.10248 0.67756
 O1161 O 0.38472 1.02139 0.58589
 O1162 O 0.35749 1.02118 0.61302
 C1163 C 0.36579 1.02935 0.59416
 C1164 C 0.35376 1.04877 0.58209
 C1165 C 0.33212 1.05691 0.59015
 H1166 H 0.32358 1.04786 0.60434
 O1167 O 0.61654 0.97713 0.58422
 O1168 O 0.64403 0.97685 0.61111
 C1169 C 0.63557 0.96907 0.59215
 C1170 C 0.64762 0.95008 0.57944
 C1171 C 0.66902 0.94131 0.58750
 H1172 H 0.67676 0.94866 0.60308
 O1173 O 0.58415 0.88526 0.52105
 O1174 O 0.61128 0.85805 0.52070
 C1175 C 0.59230 0.86617 0.52874
 C1176 C 0.57997 0.85365 0.54770
 C1177 C 0.58775 0.83168 0.55516
 H1178 H 0.60187 0.82329 0.54588
 O1179 O 0.41678 1.11575 0.52426
 O1180 O 0.38967 1.14298 0.52473
 C1181 C 0.40881 1.13477 0.53229
 C1182 C 0.42145 1.14698 0.55124
 C1183 C 0.41380 1.16880 0.55921
 H1184 H 0.39992 1.17749 0.54986
 O1185 O 0.41627 0.97538 0.61733
 O1186 O 0.38918 0.97508 0.64461
 C1187 C 0.40808 0.96719 0.63620
 C1188 C 0.42052 0.94801 0.64819
 C1189 C 0.41252 0.93933 0.66964
 H1190 H 0.39704 0.94681 0.67740
 O1191 O 0.58489 1.02203 0.61706
 O1192 O 0.61220 1.02193 0.64413
 C1193 C 0.59315 1.02985 0.63607
 C1194 C 0.58056 1.04860 0.64860
 C1195 C 0.58869 1.05704 0.67015
 H1196 H 0.60457 1.04987 0.67735
 O1197 O 0.47776 0.88418 0.58398
 O1198 O 0.47804 0.85642 0.61058
 C1199 C 0.46980 0.86511 0.59191
 C1200 C 0.45045 0.85325 0.57952
 C1201 C 0.44188 0.83171 0.58745
 H1202 H 0.44956 0.82377 0.60276
 O1203 O 0.52323 1.11372 0.58596
 O1204 O 0.52366 1.14080 0.61323
 C1205 C 0.53161 1.13243 0.59429
 C1206 C 0.55108 1.14429 0.58208
 C1207 C 0.56030 1.16521 0.59084
 H1208 H 0.55306 1.17263 0.60661
 O1209 O 0.38375 0.91648 0.52210
 O1210 O 0.35653 0.88937 0.52194
 C1211 C 0.36473 0.90831 0.52995
 C1212 C 0.35254 0.92042 0.54925
 C1213 C 0.33074 0.91255 0.55712
 H1214 H 0.32203 0.89886 0.54752
 O1215 O 0.61650 1.08277 0.52215
 O1216 O 0.64371 1.10989 0.52217
 C1217 C 0.63559 1.09084 0.52997
 C1218 C 0.64791 1.07851 0.54905
 C1219 C 0.66978 1.08629 0.55680
 H1220 H 0.67845 1.09991 0.54710
 O1221 O 0.52234 1.08195 0.61810
 O1222 O 0.52256 1.10891 0.64551
 C1223 C 0.53022 1.08986 0.63724
 C1224 C 0.54919 1.07729 0.64947
 C1225 C 0.55679 1.08465 0.67154
 H1226 H 0.54701 1.09809 0.68041
 O1227 O 0.47814 0.91519 0.61671
 O1228 O 0.47845 0.88756 0.64346
 C1229 C 0.47040 0.90664 0.63563
 C1230 C 0.45129 0.91865 0.64811
 C1231 C 0.44346 0.91058 0.66988
 H1232 H 0.45259 0.89636 0.67827
 O1233 O 0.61638 1.02259 0.58479
 O1234 O 0.64386 1.02248 0.61169
 C1235 C 0.63536 1.03060 0.59289
 C1236 C 0.64741 1.04974 0.58041
 C1237 C 0.66868 1.05862 0.58868
 H1238 H 0.67584 1.05158 0.60465
 O1239 O 0.38447 0.97591 0.58539
 O1240 O 0.35725 0.97560 0.61253
 C1241 C 0.36551 0.96785 0.59349
 C1242 C 0.35324 0.94901 0.58077
 C1243 C 0.33194 0.94019 0.58903
 H1244 H 0.32478 0.94718 0.60501
 O1245 O 0.58403 1.11418 0.52315
 O1246 O 0.61116 1.14138 0.52331
 C1247 C 0.59234 1.13296 0.53141
 C1248 C 0.58044 1.14471 0.55114
 C1249 C 0.58900 1.16591 0.55986
 H1250 H 0.60339 1.17436 0.55106
 O1251 O 0.41626 0.88500 0.52224
 O1252 O 0.38914 0.85779 0.52223
 C1253 C 0.40814 0.86599 0.53013
 C1254 C 0.42058 0.85362 0.54912
 C1255 C 0.41274 0.83178 0.55684
 H1256 H 0.39850 0.82341 0.54772
 O1257 O 0.58506 0.97660 0.61645
 O1258 O 0.61236 0.97636 0.64353
 C1259 C 0.59341 0.96841 0.63526
 C1260 C 0.58112 0.94914 0.64729
 C1261 C 0.58912 0.94064 0.66884
 H1262 H 0.60447 0.94831 0.67668
 O1263 O 0.41660 1.02075 0.61794
 O1264 O 0.38954 1.02052 0.64525
 C1265 C 0.40854 1.02845 0.63708
 C1266 C 0.42095 1.04746 0.64942
 C1267 C 0.41350 1.05506 0.67147
 H1268 H 0.39991 1.04538 0.68023
 O1269 O 0.47762 1.11495 0.58612
 O1270 O 0.47796 1.14210 0.61332
 C1271 C 0.46985 1.13397 0.59438
 C1272 C 0.45084 1.14638 0.58203
 C1273 C 0.44222 1.16772 0.59047
 H1274 H 0.44960 1.17497 0.60624
 O1275 O 0.52336 0.88424 0.58358
 O1276 O 0.52373 0.85647 0.61016
 C1277 C 0.53151 0.86517 0.59132
 C1278 C 0.55054 0.85328 0.57850
 C1279 C 0.55902 0.83160 0.58611
 H1280 H 0.55149 0.82362 0.60147
 O1281 O 0.61635 0.91704 0.52129
 O1282 O 0.64357 0.88993 0.52096
 C1283 C 0.63536 0.90879 0.52912
 C1284 C 0.64762 0.92085 0.54843
 C1285 C 0.66928 0.91269 0.55642
 H1286 H 0.67768 0.89845 0.54734
 O1287 O 0.38484 1.08382 0.52508
 O1288 O 0.35764 1.11094 0.52557
 C1289 C 0.36606 1.09203 0.53343
 C1290 C 0.35410 1.07965 0.55272
 C1291 C 0.33277 1.08790 0.56145
 H1292 H 0.32519 1.10348 0.55401
 Cu1293 Cu 0.50065 0.90254 0.59740
 Cu1294 Cu 0.50108 0.86928 0.62939
 Cu1295 Cu 0.50000 1.09567 0.59920
 Cu1296 Cu 0.50041 1.12815 0.63196
 Cu1297 Cu 0.40277 0.90340 0.49942
 Cu1298 Cu 0.37019 0.87075 0.49937
 Cu1299 Cu 0.59751 0.90404 0.49842
 Cu1300 Cu 0.63015 0.87147 0.49807
 Cu1301 Cu 0.40301 1.09702 0.50184
 Cu1302 Cu 0.37039 1.12962 0.50244
 Cu1303 Cu 0.59730 1.09623 0.49983
 Cu1304 Cu 0.62988 1.12885 0.50000
 Cu1305 Cu 0.40322 0.99839 0.59891
 Cu1306 Cu 0.37061 0.99811 0.63157
 Cu1307 Cu 0.59798 0.99962 0.59794
 Cu1308 Cu 0.63089 0.99939 0.63032
 C1309 C 0.56183 0.93845 0.63667
 H1310 H 0.55591 0.94453 0.61979
 C1311 C 0.57784 0.92192 0.68000
 C1312 C 0.43950 1.05902 0.63850
 H1313 H 0.44543 1.05315 0.62154
 C1314 C 0.42330 1.07497 0.68206
 C1315 C 0.36442 1.06005 0.56314
 H1316 H 0.38114 1.05392 0.55687
 C1317 C 0.32150 1.07660 0.58009
 C1318 C 0.63712 0.93978 0.55984
 H1319 H 0.62035 0.94606 0.55386
 C1320 C 0.68007 0.92263 0.57610
 C1321 C 0.56111 0.86413 0.55924
 H1322 H 0.55508 0.88112 0.55364
 C1323 C 0.57759 0.82055 0.57453
 C1324 C 0.44029 1.13617 0.56244
 H1325 H 0.44627 1.11934 0.55634
 C1326 C 0.42369 1.17925 0.57914
 C1327 C 0.43995 0.93760 0.63763
 H1328 H 0.44585 0.94386 0.62081
 C1329 C 0.42396 0.92070 0.68079
 C1330 C 0.56086 1.05891 0.63840
 H1331 H 0.55501 1.05311 0.62140
 C1332 C 0.57688 1.07506 0.68197
 C1333 C 0.43967 0.86405 0.56034
 H1334 H 0.44576 0.88093 0.55449
 C1335 C 0.42303 0.82074 0.57619
 C1336 C 0.56127 1.13419 0.56219
 H1337 H 0.55463 1.11778 0.55564
 C1338 C 0.57923 1.17625 0.57984
 C1339 C 0.36339 0.93898 0.56089
 H1340 H 0.38018 0.94516 0.55489
 C1341 C 0.32032 0.92203 0.57726
 C1342 C 0.63713 1.05989 0.56064
 H1343 H 0.62032 1.05372 0.55465
 C1344 C 0.68029 1.07681 0.57691
 O1345 O 0.58257 0.52159 1.11789
 O1346 O 0.60986 0.52116 1.14499
 C1347 C 0.59088 0.52924 1.13696
 C1348 C 0.57876 0.54833 1.14940
 C1349 C 0.58671 0.55602 1.17125
 H1350 H 0.60077 0.54673 1.17974
 O1351 O 0.41770 0.47602 1.11794
 O1352 O 0.39050 0.47577 1.14510
 C1353 C 0.40947 0.46790 1.13684
 C1354 C 0.42158 0.44845 1.14874
 C1355 C 0.41341 0.43989 1.17016
 H1356 H 0.39949 0.44912 1.17891
 O1357 O 0.52259 0.61580 1.08620
 O1358 O 0.52284 0.64303 1.11333
 C1359 C 0.53064 0.63474 1.09430
 C1360 C 0.54953 0.64691 1.08161
 C1361 C 0.55779 0.66866 1.08926
 H1362 H 0.55021 0.67655 1.10464
 O1363 O 0.47656 0.38267 1.08353
 O1364 O 0.47665 0.35477 1.11000
 C1365 C 0.46852 0.36360 1.09136
 C1366 C 0.44924 0.35188 1.07884
 C1367 C 0.44051 0.33040 1.08666
 H1368 H 0.44799 0.32248 1.10207
 O1369 O 0.61473 0.58339 1.02364
 O1370 O 0.64203 0.61042 1.02400
 C1371 C 0.63366 0.59146 1.03180
 C1372 C 0.64565 0.57911 1.05109
 C1373 C 0.66717 0.58719 1.05949
 H1374 H 0.67568 0.60153 1.05068
 O1375 O 0.38469 0.41665 1.02215
 O1376 O 0.35720 0.38981 1.02176
 C1377 C 0.36569 0.40850 1.03008
 C1378 C 0.35388 0.42034 1.04979
 C1379 C 0.33240 0.41210 1.05815
 H1380 H 0.32364 0.39836 1.04868
 O1381 O 0.47731 0.58401 1.11818
 O1382 O 0.47736 0.61098 1.14557
 C1383 C 0.46938 0.59209 1.13720
 C1384 C 0.45047 0.57946 1.14941
 C1385 C 0.44193 0.58737 1.17096
 H1386 H 0.44909 0.60317 1.17831
 O1387 O 0.52277 0.41331 1.11550
 O1388 O 0.52306 0.38557 1.14211
 C1389 C 0.53103 0.40463 1.13414
 C1390 C 0.55024 0.41681 1.14642
 C1391 C 0.55928 0.40809 1.16749
 H1392 H 0.55233 0.39198 1.17436
 O1393 O 0.61431 0.47676 1.08486
 O1394 O 0.64173 0.47634 1.11182
 C1395 C 0.63337 0.46872 1.09276
 C1396 C 0.64568 0.45001 1.07985
 C1397 C 0.66725 0.44154 1.08778
 H1398 H 0.67491 0.44886 1.10341
 O1399 O 0.38586 0.52167 1.08608
 O1400 O 0.35855 0.52146 1.11312
 C1401 C 0.36687 0.52960 1.09425
 C1402 C 0.35478 0.54896 1.08207
 C1403 C 0.33325 0.55730 1.09026
 H1404 H 0.32482 0.54854 1.10470
 O1405 O 0.41714 0.61638 1.02420
 O1406 O 0.38981 0.64340 1.02436
 C1407 C 0.40892 0.63536 1.03213
 C1408 C 0.42121 0.64766 1.05123
 C1409 C 0.41338 0.66947 1.05910
 H1410 H 0.39958 0.67810 1.04959
 O1411 O 0.58385 0.38421 1.02165
 O1412 O 0.61119 0.35723 1.02137
 C1413 C 0.59227 0.36529 1.02952
 C1414 C 0.58003 0.35274 1.04851
 C1415 C 0.58859 0.33140 1.05704
 H1416 H 0.60459 0.32452 1.04985
 O1417 O 0.41766 0.52138 1.11830
 O1418 O 0.39048 0.52112 1.14547
 C1419 C 0.40948 0.52909 1.13738
 C1420 C 0.42175 0.54812 1.14980
 C1421 C 0.41425 0.55551 1.17190
 H1422 H 0.40075 0.54567 1.18061
 O1423 O 0.58251 0.47613 1.11697
 O1424 O 0.60981 0.47572 1.14405
 C1425 C 0.59083 0.46786 1.13576
 C1426 C 0.57882 0.44829 1.14757
 C1427 C 0.58676 0.44007 1.16922
 H1428 H 0.60032 0.44969 1.17810
 O1429 O 0.52189 0.38246 1.08256
 O1430 O 0.52208 0.35454 1.10900
 C1431 C 0.52978 0.36322 1.09011
 C1432 C 0.54883 0.35136 1.07737
 C1433 C 0.55677 0.32943 1.08469
 H1434 H 0.54711 0.32039 1.09811
 O1435 O 0.47721 0.61606 1.08658
 O1436 O 0.47726 0.64323 1.11377
 C1437 C 0.46923 0.63498 1.09484
 C1438 C 0.45018 0.64718 1.08240
 C1439 C 0.44140 0.66847 1.09072
 H1440 H 0.44858 0.67571 1.10659
 O1441 O 0.38579 0.58385 1.02482
 O1442 O 0.35842 0.61081 1.02513
 C1443 C 0.36692 0.59196 1.03308
 C1444 C 0.35498 0.57960 1.05241
 C1445 C 0.33371 0.58794 1.06117
 H1446 H 0.32607 0.60346 1.05364
 O1447 O 0.61495 0.41699 1.02141
 O1448 O 0.64238 0.39009 1.02109
 C1449 C 0.63403 0.40893 1.02921
 C1450 C 0.64617 0.42112 1.04852
 C1451 C 0.66797 0.41327 1.05639
 H1452 H 0.67661 0.39927 1.04715
 O1453 O 0.47728 0.41364 1.11621
 O1454 O 0.47738 0.38589 1.14282
 C1455 C 0.46941 0.40503 1.13504
 C1456 C 0.45044 0.41723 1.14761
 C1457 C 0.44136 0.40828 1.16855
 H1458 H 0.44838 0.39218 1.17542
 O1459 O 0.52267 0.58403 1.11820
 O1460 O 0.52293 0.61104 1.14556
 C1461 C 0.53075 0.59208 1.13719
 C1462 C 0.54970 0.57941 1.14932
 C1463 C 0.55829 0.58727 1.17088
 H1464 H 0.55093 0.60281 1.17863
 O1465 O 0.38598 0.47605 1.08583
 O1466 O 0.35870 0.47579 1.11290
 C1467 C 0.36708 0.46789 1.09396
 C1468 C 0.35493 0.44880 1.08145
 C1469 C 0.33401 0.43956 1.09019
 H1470 H 0.32716 0.44633 1.10640
 O1471 O 0.61417 0.52225 1.08566
 O1472 O 0.64156 0.52189 1.11265
 C1473 C 0.63315 0.53015 1.09388
 C1474 C 0.64527 0.54945 1.08169
 C1475 C 0.66653 0.55817 1.09019
 H1476 H 0.67410 0.55062 1.10575
 O1477 O 0.41601 0.38413 1.02159
 O1478 O 0.38858 0.35723 1.02110
 C1479 C 0.40762 0.36510 1.02919
 C1480 C 0.41976 0.35242 1.04814
 C1481 C 0.41167 0.33061 1.05576
 H1482 H 0.39742 0.32236 1.04656
 O1483 O 0.58302 0.61564 1.02368
 O1484 O 0.61026 0.64274 1.02392
 C1485 C 0.59120 0.63459 1.03169
 C1486 C 0.57881 0.64692 1.05070
 C1487 C 0.58637 0.66895 1.05816
 H1488 H 0.60031 0.67752 1.04879
 Cu1489 Cu 0.59565 0.49922 1.09865
 Cu1490 Cu 0.62849 0.49871 1.13109
 Cu1491 Cu 0.40450 0.49883 1.09931
 Cu1492 Cu 0.37178 0.49854 1.13183
 Cu1493 Cu 0.49994 0.59727 1.09956
 Cu1494 Cu 0.50014 0.62981 1.13231
 Cu1495 Cu 0.49961 0.40083 1.09683
 Cu1496 Cu 0.49985 0.36740 1.12866
 C1497 C 0.56001 0.55989 1.13879
 H1498 H 0.55387 0.55410 1.12188
 C1499 C 0.57676 0.57564 1.18212
 C1500 C 0.44040 0.43730 1.13787
 H1501 H 0.44677 0.44384 1.12134
 C1502 C 0.42284 0.41952 1.18015
 C1503 C 0.56014 0.63622 1.06229
 H1504 H 0.55430 0.61918 1.05665
 C1505 C 0.57620 0.67991 1.07761
 C1506 C 0.43878 0.36271 1.05954
 H1507 H 0.44505 0.37955 1.05378
 C1508 C 0.42178 0.31947 1.07517
 C1509 C 0.63501 0.56003 1.06210
 H1510 H 0.61834 0.55379 1.05579
 C1511 C 0.67769 0.57705 1.07921
 C1512 C 0.36476 0.43901 1.06128
 H1513 H 0.38128 0.44551 1.05488
 C1514 C 0.32234 0.42130 1.07860
 C1515 C 0.44020 0.55988 1.13896
 H1516 H 0.44614 0.55418 1.12196
 C1517 C 0.42389 0.57542 1.18261
 C1518 C 0.56023 0.43685 1.13657
 H1519 H 0.55393 0.44321 1.11993
 C1520 C 0.57747 0.41968 1.17930
 C1521 C 0.63533 0.43974 1.06015
 H1522 H 0.61843 0.44577 1.05428
 C1523 C 0.67861 0.42318 1.07616
 C1524 C 0.36533 0.56004 1.06293
 H1525 H 0.38199 0.55383 1.05660
 C1526 C 0.32260 0.57691 1.08005
 C1527 C 0.43993 0.63693 1.06269
 H1528 H 0.44608 0.62013 1.05666
 C1529 C 0.42305 0.67999 1.07912
 C1530 C 0.56023 0.36262 1.05891
 H1531 H 0.55407 0.37948 1.05308
 C1532 C 0.57704 0.31939 1.07513
 O1533 O 0.58365 0.47854 0.88249
 O1534 O 0.61093 0.47870 0.85542
 C1535 C 0.59197 0.47065 0.86354
 C1536 C 0.57962 0.45163 0.85118
 C1537 C 0.58791 0.44307 0.82975
 H1538 H 0.60352 0.45053 0.82222
 O1539 O 0.41578 0.52500 0.88291
 O1540 O 0.38828 0.52547 0.85604
 C1541 C 0.40728 0.53334 0.86422
 C1542 C 0.41950 0.55262 0.85220
 C1543 C 0.41126 0.56133 0.83083
 H1544 H 0.39574 0.55382 0.82318
 O1545 O 0.47707 0.61676 0.91591
 O1546 O 0.47696 0.64454 0.88933
 C1547 C 0.46898 0.63582 0.90809
 C1548 C 0.44984 0.64766 0.92078
 C1549 C 0.44125 0.66927 0.91311
 H1550 H 0.44873 0.67724 0.89773
 O1551 O 0.52216 0.38576 0.91358
 O1552 O 0.52224 0.35870 0.88628
 C1553 C 0.53029 0.36694 0.90523
 C1554 C 0.54964 0.35486 0.91743
 C1555 C 0.55889 0.33401 0.90852
 H1556 H 0.55169 0.32672 0.89266
 O1557 O 0.61498 0.41653 0.97576
 O1558 O 0.64231 0.38952 0.97548
 C1559 C 0.63385 0.40836 0.96752
 C1560 C 0.64584 0.42066 0.94820
 C1561 C 0.66689 0.41203 0.93917
 H1562 H 0.67400 0.39611 0.94632
 O1563 O 0.38493 0.58386 0.97915
 O1564 O 0.35748 0.61074 0.97955
 C1565 C 0.36575 0.59186 0.97147
 C1566 C 0.35335 0.57955 0.95241
 C1567 C 0.33129 0.58717 0.94502
 H1568 H 0.32270 0.60103 0.95451
 O1569 O 0.52267 0.58575 0.88345
 O1570 O 0.52278 0.61338 0.85672
 C1571 C 0.53071 0.59429 0.86467
 C1572 C 0.54981 0.58208 0.85233
 C1573 C 0.55850 0.59061 0.83107
 H1574 H 0.55102 0.60624 0.82360
 O1575 O 0.47639 0.41751 0.88190
 O1576 O 0.47629 0.39053 0.85451
 C1577 C 0.46834 0.40941 0.86290
 C1578 C 0.44937 0.42201 0.85071
 C1579 C 0.44093 0.41417 0.82909
 H1580 H 0.44820 0.39844 0.82171
 O1581 O 0.61492 0.52407 0.91489
 O1582 O 0.64231 0.52441 0.88792
 C1583 C 0.63388 0.53220 0.90688
 C1584 C 0.64597 0.55117 0.91957
 C1585 C 0.66737 0.55988 0.91149
 H1586 H 0.67502 0.55257 0.89585
 O1587 O 0.38472 0.47862 0.91431
 O1588 O 0.35711 0.47894 0.88754
 C1589 C 0.36566 0.47071 0.90627
 C1590 C 0.35357 0.45156 0.91871
 C1591 C 0.33190 0.44322 0.91081
 H1592 H 0.32411 0.45082 0.89538
 O1593 O 0.58317 0.61595 0.97822
 O1594 O 0.61044 0.64302 0.97857
 C1595 C 0.59144 0.63499 0.97052
 C1596 C 0.57920 0.64753 0.95154
 C1597 C 0.58712 0.66941 0.94397
 H1598 H 0.60132 0.67774 0.95318
 O1599 O 0.41627 0.38502 0.97613
 O1600 O 0.38885 0.35811 0.97571
 C1601 C 0.40795 0.36620 0.96797
 C1602 C 0.42022 0.35404 0.94874
 C1603 C 0.41241 0.33226 0.94077
 H1604 H 0.39854 0.32363 0.95017
 O1605 O 0.41638 0.47962 0.88207
 O1606 O 0.38896 0.47999 0.85511
 C1607 C 0.40810 0.47205 0.86297
 C1608 C 0.42044 0.45317 0.85038
 C1609 C 0.41299 0.44583 0.82822
 H1610 H 0.39940 0.45561 0.81956
 O1611 O 0.58326 0.52398 0.88272
 O1612 O 0.61051 0.52423 0.85561
 C1613 C 0.59150 0.53207 0.86382
 C1614 C 0.57927 0.55135 0.85176
 C1615 C 0.58737 0.55978 0.83026
 H1616 H 0.60169 0.55097 0.82171
 O1617 O 0.47659 0.38559 0.91372
 O1618 O 0.47654 0.35847 0.88647
 C1619 C 0.46856 0.36669 0.90544
 C1620 C 0.44945 0.35450 0.91781
 C1621 C 0.44070 0.33321 0.90943
 H1622 H 0.44800 0.32592 0.89364
 O1623 O 0.52257 0.61698 0.91593
 O1624 O 0.52260 0.64478 0.88938
 C1625 C 0.53057 0.63609 0.90815
 C1626 C 0.54968 0.64797 0.92083
 C1627 C 0.55826 0.66955 0.91310
 H1628 H 0.55071 0.67752 0.89773
 O1629 O 0.38464 0.41738 0.97653
 O1630 O 0.35713 0.39057 0.97621
 C1631 C 0.36555 0.40954 0.96851
 C1632 C 0.35336 0.42214 0.94952
 C1633 C 0.33141 0.41459 0.94186
 H1634 H 0.32277 0.40063 0.95115
 O1635 O 0.61509 0.58396 0.97799
 O1636 O 0.64243 0.61096 0.97841
 C1637 C 0.63411 0.59217 0.97017
 C1638 C 0.64626 0.58018 0.95076
 C1639 C 0.66791 0.58830 0.94274
 H1640 H 0.67643 0.60244 0.95187
 O1641 O 0.52178 0.41790 0.88186
 O1642 O 0.52175 0.39096 0.85442
 C1643 C 0.52965 0.40990 0.86277
 C1644 C 0.54879 0.42228 0.85064
 C1645 C 0.55689 0.41443 0.82893
 H1646 H 0.54784 0.40029 0.82031
 O1647 O 0.47731 0.58569 0.88323
 O1648 O 0.47728 0.61330 0.85646
 C1649 C 0.46937 0.59419 0.86437
 C1650 C 0.45020 0.58208 0.85204
 C1651 C 0.44213 0.59016 0.83037
 H1652 H 0.45115 0.60440 0.82191
 O1653 O 0.38475 0.52404 0.91560
 O1654 O 0.35708 0.52449 0.88889
 C1655 C 0.36561 0.53207 0.90792
 C1656 C 0.35344 0.55069 0.92105
 C1657 C 0.33167 0.55901 0.91354
 H1658 H 0.32383 0.55167 0.89801
 O1659 O 0.61523 0.47866 0.91480
 O1660 O 0.64265 0.47892 0.88786
 C1661 C 0.63431 0.47086 0.90675
 C1662 C 0.64641 0.45160 0.91899
 C1663 C 0.66801 0.44337 0.91091
 H1664 H 0.67661 0.45260 0.89690
 O1665 O 0.58279 0.38500 0.97606
 O1666 O 0.61006 0.35793 0.97577
 C1667 C 0.59106 0.36617 0.96789
 C1668 C 0.57899 0.35429 0.94836
 C1669 C 0.58758 0.33314 0.93955
 H1670 H 0.60201 0.32471 0.94831
 O1671 O 0.41684 0.61594 0.97870
 O1672 O 0.38947 0.64291 0.97896
 C1673 C 0.40844 0.63486 0.97085
 C1674 C 0.42051 0.64729 0.95168
 C1675 C 0.41262 0.66921 0.94418
 H1676 H 0.39856 0.67760 0.95353
 Cu1677 Cu 0.59652 0.50127 0.90142
 Cu1678 Cu 0.62935 0.50159 0.86899
 Cu1679 Cu 0.40316 0.50175 0.90139
 Cu1680 Cu 0.37007 0.50225 0.86921
 Cu1681 Cu 0.59630 0.59699 1.00084
 Cu1682 Cu 0.62906 0.62946 1.00127
 Cu1683 Cu 0.59641 0.40338 0.99879
 Cu1684 Cu 0.62923 0.37099 0.99842
 Cu1685 Cu 0.40390 0.59730 1.00168
 Cu1686 Cu 0.37102 0.62963 1.00200
 Cu1687 Cu 0.40314 0.40350 0.99913
 Cu1688 Cu 0.37015 0.37127 0.99861
 Cu1689 Cu 0.49990 0.59853 0.90230
 Cu1690 Cu 0.49989 0.63181 0.87031
 Cu1691 Cu 0.49922 0.40436 0.90052
 Cu1692 Cu 0.49923 0.37192 0.86770
 C1693 C 0.56003 0.44113 0.86142
 H1694 H 0.55391 0.44721 0.87823
 C1695 C 0.57667 0.42443 0.81842
 C1696 C 0.43901 0.56308 0.86260
 H1697 H 0.44510 0.55682 0.87936
 C1698 C 0.42253 0.58002 0.81962
 C1699 C 0.43936 0.63684 0.94010
 H1700 H 0.44549 0.61991 0.94578
 C1701 C 0.42269 0.68032 0.92475
 C1702 C 0.55979 0.36482 0.93739
 H1703 H 0.55317 0.38121 0.94401
 C1704 C 0.57786 0.32293 0.91947
 C1705 C 0.63572 0.44042 0.93796
 H1706 H 0.61910 0.44671 0.94432
 C1707 C 0.67837 0.42335 0.92063
 C1708 C 0.36410 0.56104 0.94055
 H1709 H 0.38117 0.55516 0.94607
 C1710 C 0.32034 0.57723 0.92543
 C1711 C 0.56025 0.56239 0.86246
 H1712 H 0.55402 0.55607 0.87913
 C1713 C 0.57729 0.57956 0.81982
 C1714 C 0.43897 0.44147 0.86120
 H1715 H 0.44488 0.44712 0.87824
 C1716 C 0.42286 0.42607 0.81739
 C1717 C 0.63560 0.56139 0.93926
 H1718 H 0.61884 0.55513 0.94527
 C1719 C 0.67858 0.57841 0.92298
 C1720 C 0.36414 0.44087 0.93808
 H1721 H 0.38112 0.44674 0.94389
 C1722 C 0.32061 0.42471 0.92228
 C1723 C 0.56024 0.63714 0.94010
 H1724 H 0.55411 0.62022 0.94580
 C1725 C 0.57694 0.68054 0.92460
 C1726 C 0.43905 0.36477 0.93744
 H1727 H 0.44518 0.38155 0.94353
 C1728 C 0.42223 0.32173 0.92085
 C1729 C 1.11414 1.11272 1.26699
 C1730 C 1.12865 1.09887 1.28102
 C1731 C 1.13853 1.10852 1.30129
 C1732 C 1.13321 1.13161 1.30802
 C1733 C 1.11784 1.14483 1.29399
 C1734 C 1.10880 1.13572 1.27325
 C1735 C 1.10456 1.10309 1.24514
 C1736 C 1.09118 1.11741 1.23053
 C1737 C 1.08285 1.10852 1.20938
 C1738 C 1.08675 1.08503 1.20311
 C1739 C 1.09981 1.07076 1.21842
 C1740 C 1.10918 1.07986 1.23916
 C1741 C 1.09489 1.14937 1.25842
 C1742 C 1.08647 1.14046 1.23727
 C1743 C 1.13305 1.07570 1.27438
 C1744 C 1.12326 1.06628 1.25395
 H1745 H 1.09077 1.16720 1.26303
 H1746 H 1.07607 1.15167 1.22617
 H1747 H 1.14409 1.06474 1.28508
 H1748 H 1.12703 1.04832 1.24954
 H1749 H 1.15009 1.09796 1.31188
 H1750 H 1.11359 1.16266 1.29857
 H1751 H 1.07365 1.12018 1.19774
 H1752 H 1.10271 1.05257 1.21438
 C1753 C 1.11816 0.61431 0.76443
 C1754 C 1.12882 0.59956 0.78081
 C1755 C 1.13789 0.60915 0.80144
 C1756 C 1.13589 0.63322 0.80587
 C1757 C 1.12496 0.64769 0.78930
 C1758 C 1.11628 0.63837 0.76845
 C1759 C 1.10874 0.60439 0.74264
 C1760 C 1.09849 0.61922 0.72610
 C1761 C 1.08969 0.60976 0.70537
 C1762 C 1.09052 0.58554 0.70126
 C1763 C 1.10085 0.57091 0.71814
 C1764 C 1.11016 0.58028 0.73877
 C1765 C 1.10582 0.65264 0.75152
 C1766 C 1.09719 0.64324 0.73064
 C1767 C 1.13007 0.57553 0.77626
 C1768 C 1.12080 0.56604 0.75566
 H1769 H 1.10434 0.67123 0.75440
 H1770 H 1.08930 0.65486 0.71800
 H1771 H 1.13820 0.56394 0.78877
 H1772 H 1.12204 0.54741 0.75289
 H1773 H 1.14617 0.59789 0.81416
 H1774 H 1.12354 0.66626 0.79247
 H1775 H 1.08237 0.62135 0.69238
 H1776 H 1.10140 0.55224 0.71541
 C1777 C 0.61313 1.11313 0.76817
 C1778 C 0.62773 1.09951 0.78231
 C1779 C 0.63764 1.10945 0.80242
 C1780 C 0.63229 1.13262 0.80888
 C1781 C 0.61679 1.14560 0.79478
 C1782 C 0.60770 1.13618 0.77418
 C1783 C 0.60360 1.10320 0.74643
 C1784 C 0.59015 1.11730 0.73166
 C1785 C 0.58190 1.10814 0.71059
 C1786 C 0.58598 1.08461 0.70454
 C1787 C 0.59910 1.07057 0.72002
 C1788 C 0.60838 1.07994 0.74068
 C1789 C 0.59370 1.14958 0.75921
 C1790 C 0.58531 1.14039 0.73817
 C1791 C 0.63225 1.07630 0.77593
 C1792 C 0.62252 1.06660 0.75562
 H1793 H 0.58949 1.16745 0.76362
 H1794 H 0.57485 1.15142 0.72695
 H1795 H 0.64337 1.06551 0.78674
 H1796 H 0.62640 1.04862 0.75139
 H1797 H 0.64929 1.09905 0.81307
 H1798 H 0.61251 1.16347 0.79918
 H1799 H 0.57266 1.11962 0.69882
 H1800 H 0.60214 1.05237 0.71613
 C1801 C 0.61367 0.61149 1.26871
 C1802 C 0.59870 0.62273 1.28447
 C1803 C 0.60796 0.63233 1.30498
 C1804 C 0.63190 0.63026 1.30997
 C1805 C 0.64658 0.61851 1.29420
 C1806 C 0.63761 0.60937 1.27337
 C1807 C 0.60416 0.60197 1.24679
 C1808 C 0.61926 0.59145 1.23068
 C1809 C 0.61024 0.58298 1.20960
 C1810 C 0.58617 0.58445 1.20472
 C1811 C 0.57125 0.59473 1.22137
 C1812 C 0.58019 0.60379 1.24226
 C1813 C 0.65212 0.59843 1.25696
 C1814 C 0.64313 0.58976 1.23591
 C1815 C 0.57480 0.62423 1.27933
 C1816 C 0.56568 0.61479 1.25865
 H1817 H 0.67063 0.59675 1.26032
 H1818 H 0.65495 0.58163 1.22363
 H1819 H 0.56305 0.63278 1.29138
 H1820 H 0.54715 0.61632 1.25536
 H1821 H 0.59655 0.64122 1.31714
 H1822 H 0.66506 0.61705 1.29784
 H1823 H 0.62209 0.57564 1.19686
 H1824 H 0.55267 0.59565 1.21815
 C1825 C 0.88803 0.88466 1.26673
 C1826 C 0.87327 0.89859 1.28038
 C1827 C 0.86280 0.88900 1.30034
 C1828 C 0.86780 0.86590 1.30726
 C1829 C 0.88347 0.85256 1.29369
 C1830 C 0.89309 0.86163 1.27315
 C1831 C 0.89812 0.89425 1.24509
 C1832 C 0.91169 0.87987 1.23073
 C1833 C 0.92031 0.88871 1.20962
 C1834 C 0.91637 0.91216 1.20318
 C1835 C 0.90338 0.92653 1.21845
 C1836 C 0.89372 0.91750 1.23903
 C1837 C 0.90727 0.84793 1.25862
 C1838 C 0.91617 0.85681 1.23762
 C1839 C 0.86917 0.92179 1.27369
 C1840 C 0.87945 0.93117 1.25353
 H1841 H 0.91121 0.83008 1.26333
 H1842 H 0.92672 0.84554 1.22674
 H1843 H 0.85794 0.93281 1.28414
 H1844 H 0.87587 0.94915 1.24903
 H1845 H 0.85107 0.89968 1.31060
 H1846 H 0.88747 0.83472 1.29847
 H1847 H 0.92963 0.87703 1.19813
 H1848 H 0.90062 0.94474 1.21442
 C1849 C 0.88392 0.38174 0.76527
 C1850 C 0.89795 0.36826 0.78010
 C1851 C 0.88830 0.35901 0.80060
 C1852 C 0.86499 0.36398 0.80686
 C1853 C 0.85136 0.37795 0.79181
 C1854 C 0.86059 0.38644 0.77084
 C1855 C 0.89386 0.39118 0.74349
 C1856 C 0.87957 0.40388 0.72826
 C1857 C 0.88895 0.41246 0.70740
 C1858 C 0.91280 0.40941 0.70207
 C1859 C 0.92694 0.39684 0.71788
 C1860 C 0.91745 0.38734 0.73836
 C1861 C 0.84688 0.39945 0.75525
 C1862 C 0.85614 0.40780 0.73419
 C1863 C 0.92143 0.36448 0.77420
 C1864 C 0.93107 0.37406 0.75382
 H1865 H 0.82880 0.40308 0.75928
 H1866 H 0.84493 0.41763 0.72259
 H1867 H 0.93250 0.35420 0.78554
 H1868 H 0.94929 0.37089 0.75004
 H1869 H 0.89919 0.34851 0.81193
 H1870 H 0.83337 0.38183 0.79605
 H1871 H 0.87749 0.42134 0.69531
 H1872 H 0.94535 0.39459 0.71448
 C1873 C 0.38732 0.88459 0.76735
 C1874 C 0.38912 0.86066 0.77215
 C1875 C 0.37985 0.85194 0.79304
 C1876 C 0.36831 0.86690 0.80871
 C1877 C 0.36649 0.89081 0.80353
 C1878 C 0.37622 0.89980 0.78298
 C1879 C 0.39709 0.89386 0.74545
 C1880 C 0.39565 0.91783 0.74084
 C1881 C 0.40496 0.92657 0.71999
 C1882 C 0.41508 0.91145 0.70342
 C1883 C 0.41623 0.88738 0.70840
 C1884 C 0.40751 0.87856 0.72947
 C1885 C 0.37507 0.92368 0.77774
 C1886 C 0.38476 0.93257 0.75709
 C1887 C 0.39995 0.84592 0.75587
 C1888 C 0.40885 0.85470 0.73481
 H1889 H 0.36663 0.93561 0.78970
 H1890 H 0.38352 0.95111 0.75372
 H1891 H 0.40139 0.82742 0.75934
 H1892 H 0.41689 0.84270 0.72264
 H1893 H 0.38115 0.83349 0.79687
 H1894 H 0.35777 0.90242 0.81563
 H1895 H 0.40433 0.94515 0.71673
 H1896 H 0.42349 0.87540 0.69574
 C1897 C 0.38353 0.38139 1.26487
 C1898 C 0.36017 0.38606 1.27035
 C1899 C 0.35081 0.37734 1.29117
 C1900 C 0.36432 0.36317 1.30614
 C1901 C 0.38765 0.35823 1.29995
 C1902 C 0.39745 0.36770 1.27961
 C1903 C 0.39361 0.39106 1.24326
 C1904 C 0.41721 0.38720 1.23820
 C1905 C 0.42681 0.39687 1.21786
 C1906 C 0.41279 0.40963 1.20211
 C1907 C 0.38894 0.41275 1.20738
 C1908 C 0.37943 0.40397 1.22810
 C1909 C 0.42094 0.36393 1.27380
 C1910 C 0.43071 0.37371 1.25358
 C1911 C 0.34658 0.39930 1.25485
 C1912 C 0.35598 0.40789 1.23396
 H1913 H 0.43193 0.35349 1.28508
 H1914 H 0.44894 0.37053 1.24985
 H1915 H 0.32849 0.40292 1.25882
 H1916 H 0.34486 0.41788 1.22241
 H1917 H 0.33279 0.38120 1.29535
 H1918 H 0.39846 0.34757 1.31123
 H1919 H 0.44523 0.39457 1.21451
 H1920 H 0.37757 0.42179 1.19533
 C1921 C 0.88656 1.11240 0.73166
 C1922 C 0.86390 1.10634 0.72475
 C1923 C 0.85509 1.11499 0.70365
 C1924 C 0.86826 1.13074 0.69004
 C1925 C 0.89096 1.13678 0.69747
 C1926 C 0.90035 1.12724 0.71797
 C1927 C 0.89591 1.10326 0.75382
 C1928 C 0.91886 1.10858 0.76034
 C1929 C 0.92773 1.09964 0.78134
 C1930 C 0.91346 1.08642 0.79649
 C1931 C 0.89022 1.08179 0.78967
 C1932 C 0.88161 1.08963 0.76819
 C1933 C 0.92321 1.13235 0.72515
 C1934 C 0.93241 1.12293 0.74581
 C1935 C 0.85029 1.09214 0.73935
 C1936 C 0.85889 1.08419 0.76084
 H1937 H 0.93411 1.14365 0.71467
 H1938 H 0.95015 1.12722 0.75065
 H1939 H 0.83272 1.08745 0.73429
 H1940 H 0.84770 1.07357 0.77173
 H1941 H 0.83755 1.11024 0.69846
 H1942 H 0.90152 1.14859 0.68718
 H1943 H 0.94576 1.10303 0.78569
 H1944 H 0.87853 1.07241 0.80111
 C1945 C 0.88670 0.61419 0.23373
 C1946 C 0.87544 0.59927 0.21791
 C1947 C 0.86570 0.60863 0.19747
 C1948 C 0.86766 0.63262 0.19266
 C1949 C 0.87943 0.64721 0.20853
 C1950 C 0.88871 0.63815 0.22923
 C1951 C 0.89633 0.60461 0.25558
 C1952 C 0.90683 0.61969 0.27173
 C1953 C 0.91540 0.61064 0.29274
 C1954 C 0.91410 0.58655 0.29753
 C1955 C 0.90378 0.57164 0.28087
 C1956 C 0.89461 0.58063 0.26002
 C1957 C 0.89964 0.65263 0.24567
 C1958 C 0.90841 0.64358 0.26664
 C1959 C 0.87404 0.57535 0.22295
 C1960 C 0.88359 0.56617 0.24358
 H1961 H 0.90122 0.67116 0.24240
 H1962 H 0.91653 0.65538 0.27895
 H1963 H 0.86548 0.56362 0.21087
 H1964 H 0.88214 0.54762 0.24678
 H1965 H 0.85673 0.59731 0.18528
 H1966 H 0.88079 0.66573 0.20509
 H1967 H 0.92271 0.62249 0.30551
 H1968 H 0.90294 0.55305 0.28404
 C1969 C 0.38561 1.11558 0.23327
 C1970 C 0.37087 1.10156 0.21969
 C1971 C 0.36099 1.11079 0.19930
 C1972 C 0.36666 1.13355 0.19177
 C1973 C 0.38211 1.14708 0.20539
 C1974 C 0.39110 1.13839 0.22643
 C1975 C 0.39538 1.10622 0.25516
 C1976 C 0.40905 1.12063 0.26940
 C1977 C 0.41757 1.11193 0.29061
 C1978 C 0.41351 1.08853 0.29725
 C1979 C 0.40033 1.07417 0.28215
 C1980 C 0.39072 1.08308 0.26149
 C1981 C 0.40527 1.15217 0.24091
 C1982 C 0.41383 1.14354 0.26218
 C1983 C 0.36637 1.07854 0.22674
 C1984 C 0.37638 1.06937 0.24712
 H1985 H 0.40955 1.16986 0.23591
 H1986 H 0.42445 1.15485 0.27296
 H1987 H 0.35516 1.06748 0.21633
 H1988 H 0.37259 1.05148 0.25184
 H1989 H 0.34941 1.09996 0.18902
 H1990 H 0.38655 1.16467 0.20013
 H1991 H 0.42702 1.12363 0.30198
 H1992 H 0.39745 1.05600 0.28630
 C1993 C 0.38577 0.61637 0.73316
 C1994 C 0.37469 0.60121 0.71745
 C1995 C 0.36511 0.61026 0.69684
 C1996 C 0.36710 0.63416 0.69167
 C1997 C 0.37859 0.64905 0.70744
 C1998 C 0.38769 0.64029 0.72838
 C1999 C 0.39544 0.60704 0.75509
 C2000 C 0.40588 0.62229 0.77111
 C2001 C 0.41459 0.61341 0.79217
 C2002 C 0.41344 0.58934 0.79709
 C2003 C 0.40322 0.57427 0.78052
 C2004 C 0.39392 0.58307 0.75967
 C2005 C 0.39851 0.65498 0.74473
 C2006 C 0.40731 0.64616 0.76581
 C2007 C 0.37342 0.57733 0.72268
 C2008 C 0.38302 0.56839 0.74337
 H2009 H 0.40004 0.67348 0.74128
 H2010 H 0.41537 0.65811 0.77802
 H2011 H 0.36500 0.56544 0.71067
 H2012 H 0.38171 0.54985 0.74671
 H2013 H 0.35643 0.59869 0.68467
 H2014 H 0.38000 0.66750 0.70363
 H2015 H 0.42189 0.62536 0.80484
 H2016 H 0.40257 0.55569 0.78374
 C2017 C 1.11424 0.88673 0.73409
 C2018 C 1.11227 0.86270 0.73001
 C2019 C 1.12125 0.85333 0.70935
 C2020 C 1.13270 0.86768 0.69304
 C2021 C 1.13466 0.89176 0.69742
 C2022 C 1.12521 0.90143 0.71786
 C2023 C 1.10485 0.89662 0.75589
 C2024 C 1.10649 0.92069 0.75990
 C2025 C 1.09739 0.92999 0.78065
 C2026 C 1.08715 0.91531 0.79756
 C2027 C 1.08608 0.89113 0.79325
 C2028 C 1.09459 0.88176 0.77238
 C2029 C 1.12659 0.92543 0.72251
 C2030 C 1.11726 0.93492 0.74310
 C2031 C 1.10164 0.84843 0.74683
 C2032 C 1.09307 0.85778 0.76773
 H2033 H 1.13493 0.93700 0.71012
 H2034 H 1.11866 0.95352 0.74597
 H2035 H 1.10009 0.82984 0.74389
 H2036 H 1.08514 0.84616 0.78033
 H2037 H 1.11991 0.83474 0.70628
 H2038 H 1.14341 0.90291 0.68492
 H2039 H 1.09812 0.94863 0.78351
 H2040 H 1.07889 0.87946 0.80624
 C2041 C 1.11330 0.38966 0.23058
 C2042 C 1.09962 0.37487 0.21671
 C2043 C 1.10942 0.36480 0.19666
 C2044 C 1.13250 0.37019 0.18992
 C2045 C 1.14551 0.38600 0.20363
 C2046 C 1.13625 0.39520 0.22427
 C2047 C 1.10357 0.39918 0.25241
 C2048 C 1.11777 0.41267 0.26703
 C2049 C 1.10884 0.42074 0.28828
 C2050 C 1.08543 0.41644 0.29464
 C2051 C 1.07125 0.40343 0.27920
 C2052 C 1.08041 0.39427 0.25843
 C2053 C 1.14973 0.40933 0.23904
 C2054 C 1.14075 0.41767 0.26021
 C2055 C 1.07649 0.37027 0.22333
 C2056 C 1.06696 0.38004 0.24368
 H2057 H 1.16752 0.41363 0.23442
 H2058 H 1.15186 0.42818 0.27129
 H2059 H 1.06566 0.35902 0.21270
 H2060 H 1.04905 0.37607 0.24812
 H2061 H 1.09899 0.35295 0.18626
 H2062 H 1.16331 0.39029 0.19899
 H2063 H 1.12044 0.42996 0.29994
 H2064 H 1.05309 0.40031 0.28321
 C2065 C 0.61425 0.88550 0.23283
 C2066 C 0.60023 0.87158 0.21841
 C2067 C 0.60985 0.86184 0.19812
 C2068 C 0.63312 0.86673 0.19166
 C2069 C 0.64667 0.88132 0.20619
 C2070 C 0.63750 0.89026 0.22699
 C2071 C 0.60445 0.89518 0.25455
 C2072 C 0.61881 0.90815 0.26949
 C2073 C 0.60963 0.91674 0.29043
 C2074 C 0.58591 0.91339 0.29615
 C2075 C 0.57167 0.90071 0.28053
 C2076 C 0.58097 0.89117 0.26001
 C2077 C 0.65123 0.90367 0.24221
 C2078 C 0.64212 0.91224 0.26323
 C2079 C 0.57684 0.86773 0.22457
 C2080 C 0.56730 0.87757 0.24488
 H2081 H 0.66925 0.90736 0.23796
 H2082 H 0.65337 0.92229 0.27459
 H2083 H 0.56576 0.85713 0.21353
 H2084 H 0.54916 0.87427 0.24890
 H2085 H 0.59902 0.85090 0.18716
 H2086 H 0.66464 0.88516 0.20179
 H2087 H 0.62119 0.92574 0.30233
 H2088 H 0.55332 0.89828 0.28418
 C2089 C 0.61371 0.38581 0.73311
 C2090 C 0.61163 0.36179 0.72904
 C2091 C 0.62088 0.35232 0.70854
 C2092 C 0.63270 0.36656 0.69240
 C2093 C 0.63475 0.39063 0.69676
 C2094 C 0.62504 0.40040 0.71703
 C2095 C 0.60409 0.39581 0.75476
 C2096 C 0.60587 0.41987 0.75877
 C2097 C 0.59660 0.42926 0.77940
 C2098 C 0.58608 0.41468 0.79622
 C2099 C 0.58481 0.39051 0.79189
 C2100 C 0.59348 0.38106 0.77113
 C2101 C 0.62653 0.42441 0.72166
 C2102 C 0.61698 0.43399 0.74210
 C2103 C 0.60063 0.34763 0.74571
 C2104 C 0.59184 0.35709 0.76648
 H2105 H 0.63515 0.43589 0.70939
 H2106 H 0.61850 0.45259 0.74497
 H2107 H 0.59899 0.32906 0.74279
 H2108 H 0.58365 0.34553 0.77898
 H2109 H 0.61946 0.33374 0.70549
 H2110 H 0.64378 0.40170 0.68439
 H2111 H 0.59748 0.44790 0.78226
 H2112 H 0.57740 0.37890 0.80481
 C2113 C 1.26727 1.11184 1.11297
 C2114 C 1.27417 1.10587 1.13569
 C2115 C 1.29515 1.11472 1.14455
 C2116 C 1.30864 1.13055 1.13136
 C2117 C 1.30123 1.13647 1.10859
 C2118 C 1.28085 1.12678 1.09917
 C2119 C 1.24522 1.10255 1.10357
 C2120 C 1.23870 1.10785 1.08059
 C2121 C 1.21779 1.09881 1.07168
 C2122 C 1.20273 1.08549 1.08595
 C2123 C 1.20956 1.08083 1.10920
 C2124 C 1.23095 1.08880 1.11786
 C2125 C 1.27369 1.13183 1.07627
 C2126 C 1.25313 1.12228 1.06704
 C2127 C 1.25968 1.09156 1.14928
 C2128 C 1.23830 1.08342 1.14063
 H2129 H 1.28410 1.14320 1.06537
 H2130 H 1.24829 1.12656 1.04927
 H2131 H 1.26473 1.08691 1.16690
 H2132 H 1.22748 1.07272 1.15181
 H2133 H 1.30033 1.11005 1.16214
 H2134 H 1.31143 1.14834 1.09801
 H2135 H 1.21341 1.10221 1.05364
 H2136 H 1.19818 1.07133 1.12086
 C2137 C 1.26677 0.61292 0.61271
 C2138 C 1.27351 0.60743 0.63559
 C2139 C 1.29435 0.61660 0.64446
 C2140 C 1.30792 0.63218 0.63104
 C2141 C 1.30057 0.63774 0.60816
 C2142 C 1.28032 0.62775 0.59877
 C2143 C 1.24497 0.60311 0.60324
 C2144 C 1.23864 0.60787 0.58009
 C2145 C 1.21801 0.59831 0.57110
 C2146 C 1.20301 0.58496 0.58541
 C2147 C 1.20964 0.58078 0.60881
 C2148 C 1.23078 0.58933 0.61759
 C2149 C 1.27332 0.63230 0.57572
 C2150 C 1.25299 0.62230 0.56644
 C2151 C 1.25908 0.59315 0.64929
 C2152 C 1.23794 0.58449 0.64054
 H2153 H 1.28370 0.64359 0.56470
 H2154 H 1.24829 0.62618 0.54855
 H2155 H 1.26402 0.58887 0.66703
 H2156 H 1.22718 0.57380 0.65179
 H2157 H 1.29946 0.61222 0.66213
 H2158 H 1.31081 0.64943 0.59741
 H2159 H 1.21377 0.60133 0.55295
 H2160 H 1.19831 0.57122 0.62046
 C2161 C 0.76665 1.11422 0.61334
 C2162 C 0.77323 1.13705 0.60760
 C2163 C 0.79421 1.14601 0.61640
 C2164 C 0.80803 1.13274 0.63190
 C2165 C 0.80076 1.10995 0.63780
 C2166 C 0.78043 1.10045 0.62812
 C2167 C 0.74481 1.10457 0.60379
 C2168 C 0.73873 1.08142 0.60868
 C2169 C 0.71812 1.07223 0.59926
 C2170 C 0.70288 1.08634 0.58598
 C2171 C 0.70924 1.10978 0.58174
 C2172 C 0.73038 1.11876 0.59008
 C2173 C 0.77364 1.07740 0.63286
 C2174 C 0.75330 1.06796 0.62307
 C2175 C 0.75854 1.15058 0.59341
 C2176 C 0.73733 1.14169 0.58506
 H2177 H 0.78421 1.06652 0.64412
 H2178 H 0.74878 1.05007 0.62705
 H2179 H 0.76334 1.16829 0.58896
 H2180 H 0.72638 1.15281 0.57441
 H2181 H 0.79927 1.16362 0.61179
 H2182 H 0.81120 1.09930 0.64942
 H2183 H 0.71414 1.05406 0.60233
 H2184 H 0.69772 1.12131 0.57226
 C2185 C 0.76323 0.61502 1.11628
 C2186 C 0.76732 0.63908 1.11466
 C2187 C 0.78815 0.64826 1.12350
 C2188 C 0.80461 0.63364 1.13437
 C2189 C 0.80013 0.60956 1.13608
 C2190 C 0.77954 0.60012 1.12682
 C2191 C 0.74141 0.60526 1.10680
 C2192 C 0.73748 0.58115 1.10800
 C2193 C 0.71678 0.57195 1.09875
 C2194 C 0.69985 0.58673 1.08874
 C2195 C 0.70408 0.61095 1.08802
 C2196 C 0.72490 0.62025 1.09676
 C2197 C 0.77493 0.57609 1.12782
 C2198 C 0.75432 0.56675 1.11846
 C2199 C 0.75043 0.65351 1.10434
 C2200 C 0.72952 0.64426 1.09567
 H2201 H 0.78740 0.56439 1.13585
 H2202 H 0.75150 0.54812 1.11953
 H2203 H 0.75335 0.67211 1.10306
 H2204 H 0.71690 0.65600 1.08793
 H2205 H 0.79137 0.66684 1.12231
 H2206 H 0.81278 0.59818 1.14430
 H2207 H 0.71400 0.55328 1.09916
 H2208 H 0.69107 0.62266 1.08094
 C2209 C 1.26743 0.88889 0.88662
 C2210 C 1.27427 0.89412 0.86371
 C2211 C 1.29515 0.88484 0.85507
 C2212 C 1.30864 0.86937 0.86873
 C2213 C 1.30120 0.86410 0.89164
 C2214 C 1.28092 0.87422 0.90080
 C2215 C 1.24556 0.89877 0.89584
 C2216 C 1.23914 0.89425 0.91900
 C2217 C 1.21840 0.90378 0.92772
 C2218 C 1.20334 0.91676 0.91314
 C2219 C 1.21012 0.92082 0.88978
 C2220 C 1.23138 0.91232 0.88124
 C2221 C 1.27384 0.86995 0.92387
 C2222 C 1.25346 0.88003 0.93291
 C2223 C 1.25988 0.90823 0.84977
 C2224 C 1.23867 0.91693 0.85829
 H2225 H 1.28418 0.85879 0.93507
 H2226 H 1.24868 0.87635 0.95082
 H2227 H 1.26490 0.91230 0.83202
 H2228 H 1.22793 0.92746 0.84685
 H2229 H 1.30035 0.88901 0.83737
 H2230 H 1.31138 0.85252 0.90257
 H2231 H 1.21411 0.90094 0.94589
 H2232 H 1.19879 0.93018 0.87795
 C2233 C 1.26265 0.38345 0.38218
 C2234 C 1.26877 0.38780 0.35888
 C2235 C 1.28958 0.37847 0.35004
 C2236 C 1.30380 0.36402 0.36406
 C2237 C 1.29692 0.35943 0.38729
 C2238 C 1.27670 0.36952 0.39655
 C2239 C 1.24109 0.39368 0.39173
 C2240 C 1.23549 0.39012 0.41527
 C2241 C 1.21516 0.40014 0.42436
 C2242 C 1.19975 0.41277 0.40987
 C2243 C 1.20565 0.41585 0.38612
 C2244 C 1.22648 0.40676 0.37711
 C2245 C 1.27038 0.36611 0.41998
 C2246 C 1.25026 0.37646 0.42925
 C2247 C 1.25387 0.40129 0.34486
 C2248 C 1.23296 0.41039 0.35375
 H2249 H 1.28116 0.35551 0.43130
 H2250 H 1.24609 0.37352 0.44745
 H2251 H 1.25832 0.40469 0.32681
 H2252 H 1.22187 0.42051 0.34228
 H2253 H 1.29435 0.38208 0.33210
 H2254 H 1.30762 0.34861 0.39850
 H2255 H 1.21148 0.39805 0.44276
 H2256 H 1.19396 0.42497 0.37443
 C2257 C 0.76378 0.88496 0.38257
 C2258 C 0.76774 0.86089 0.38435
 C2259 C 0.78846 0.85152 0.37548
 C2260 C 0.80498 0.86595 0.36446
 C2261 C 0.80065 0.89005 0.36261
 C2262 C 0.78014 0.89969 0.37187
 C2263 C 0.74205 0.89491 0.39206
 C2264 C 0.73821 0.91902 0.39066
 C2265 C 0.71759 0.92839 0.39992
 C2266 C 0.70066 0.91376 0.41016
 C2267 C 0.70479 0.88954 0.41103
 C2268 C 0.72552 0.88008 0.40228
 C2269 C 0.77563 0.92373 0.37069
 C2270 C 0.75509 0.93325 0.38003
 C2271 C 0.75083 0.84663 0.39483
 C2272 C 0.73002 0.85605 0.40353
 H2273 H 0.78812 0.93531 0.36254
 H2274 H 0.75235 0.95188 0.37881
 H2275 H 0.75366 0.82802 0.39624
 H2276 H 0.71739 0.84443 0.41140
 H2277 H 0.79151 0.83293 0.37678
 H2278 H 0.81332 0.90129 0.35425
 H2279 H 0.71485 0.94706 0.39935
 H2280 H 0.69178 0.87794 0.41828
 C2281 C 0.76364 0.38464 0.88332
 C2282 C 0.77781 0.37086 0.89772
 C2283 C 0.79803 0.36081 0.88844
 C2284 C 0.80480 0.36528 0.86515
 C2285 C 0.79048 0.37960 0.85111
 C2286 C 0.76966 0.38888 0.85997
 C2287 C 0.74206 0.39481 0.89289
 C2288 C 0.72734 0.40773 0.87825
 C2289 C 0.70650 0.41678 0.88727
 C2290 C 0.70070 0.41383 0.91106
 C2291 C 0.71620 0.40133 0.92557
 C2292 C 0.73655 0.39135 0.91647
 C2293 C 0.75465 0.40223 0.84593
 C2294 C 0.73372 0.41126 0.85484
 C2295 C 0.77157 0.36755 0.92119
 C2296 C 0.75143 0.37784 0.93047
 H2297 H 0.75901 0.40554 0.82784
 H2298 H 0.72254 0.42126 0.84335
 H2299 H 0.78244 0.35705 0.93253
 H2300 H 0.74733 0.37497 0.94870
 H2301 H 0.80882 0.35009 0.89968
 H2302 H 0.79516 0.38312 0.83313
 H2303 H 0.69474 0.42576 0.87556
 H2304 H 0.71257 0.39932 0.94399
 C2305 C 0.73637 0.88386 1.11558
 C2306 C 0.73220 0.88518 1.13969
 C2307 C 0.71136 0.87616 1.14872
 C2308 C 0.69504 0.86541 1.13386
 C2309 C 0.69965 0.86397 1.10977
 C2310 C 0.72017 0.87341 1.10049
 C2311 C 0.75808 0.89363 1.10594
 C2312 C 0.76200 0.89279 1.08178
 C2313 C 0.78258 0.90232 1.07268
 C2314 C 0.79947 0.91220 1.08760
 C2315 C 0.79526 0.91260 1.11186
 C2316 C 0.77451 0.90361 1.12107
 C2317 C 0.72477 0.87274 1.07643
 C2318 C 0.74528 0.88239 1.06721
 C2319 C 0.74900 0.89545 1.15427
 C2320 C 0.76986 0.90438 1.14513
 H2321 H 0.71238 0.86479 1.06460
 H2322 H 0.74811 0.88160 1.04854
 H2323 H 0.74603 0.89651 1.17291
 H2324 H 0.78240 0.91206 1.15699
 H2325 H 0.70798 0.87720 1.16730
 H2326 H 0.68706 0.85590 1.09820
 H2327 H 0.78532 0.90219 1.05398
 H2328 H 0.80822 0.91963 1.12366
 C2329 C 0.73568 0.38277 0.61536
 C2330 C 0.72134 0.39685 0.62930
 C2331 C 0.70110 0.38727 0.63914
 C2332 C 0.69461 0.36399 0.63437
 C2333 C 0.70905 0.35037 0.61977
 C2334 C 0.72980 0.35951 0.61069
 C2335 C 0.75735 0.39253 0.60557
 C2336 C 0.77222 0.37815 0.59257
 C2337 C 0.79316 0.38729 0.58392
 C2338 C 0.79896 0.41098 0.58733
 C2339 C 0.78336 0.42526 0.59998
 C2340 C 0.76285 0.41601 0.60954
 C2341 C 0.74494 0.34575 0.59723
 C2342 C 0.76592 0.35483 0.58854
 C2343 C 0.72752 0.42024 0.63307
 C2344 C 0.74779 0.42972 0.62316
 H2345 H 0.74067 0.32772 0.59359
 H2346 H 0.77722 0.34355 0.57846
 H2347 H 0.71655 0.43135 0.64369
 H2348 H 0.75185 0.44787 0.62641
 H2349 H 0.69020 0.39816 0.65009
 H2350 H 0.70462 0.33240 0.61600
 H2351 H 0.80500 0.37574 0.57488
 H2352 H 0.78703 0.44360 0.60240
 C2353 C 0.23469 0.88424 0.61480
 C2354 C 0.22048 0.89829 0.62890
 C2355 C 0.20033 0.88869 0.63891
 C2356 C 0.19380 0.86542 0.63415
 C2357 C 0.20810 0.85184 0.61937
 C2358 C 0.22877 0.86100 0.61012
 C2359 C 0.25631 0.89401 0.60487
 C2360 C 0.27108 0.87964 0.59173
 C2361 C 0.29199 0.88878 0.58301
 C2362 C 0.29786 0.91244 0.58647
 C2363 C 0.28234 0.92672 0.59922
 C2364 C 0.26186 0.91747 0.60887
 C2365 C 0.24380 0.84726 0.59651
 C2366 C 0.26472 0.85635 0.58769
 C2367 C 0.22671 0.92167 0.63267
 C2368 C 0.24691 0.93116 0.62263
 H2369 H 0.23948 0.82925 0.59286
 H2370 H 0.27594 0.84508 0.57751
 H2371 H 0.21583 0.93276 0.64341
 H2372 H 0.25101 0.94929 0.62591
 H2373 H 0.18954 0.89955 0.64998
 H2374 H 0.20363 0.83388 0.61560
 H2375 H 0.30377 0.87722 0.57389
 H2376 H 0.28606 0.94504 0.60169
 C2377 C 0.23714 0.38321 1.11685
 C2378 C 0.23084 0.36015 1.11170
 C2379 C 0.20991 0.35118 1.12063
 C2380 C 0.19576 0.36479 1.13552
 C2381 C 0.20285 0.38775 1.14096
 C2382 C 0.22317 0.39718 1.13124
 C2383 C 0.25878 0.39295 1.10693
 C2384 C 0.26452 0.41631 1.11123
 C2385 C 0.28486 0.42562 1.10140
 C2386 C 0.30012 0.41151 1.08818
 C2387 C 0.29412 0.38789 1.08448
 C2388 C 0.27328 0.37871 1.09337
 C2389 C 0.22968 0.42041 1.13544
 C2390 C 0.24986 0.42989 1.12538
 C2391 C 0.24566 0.34650 1.09776
 C2392 C 0.26665 0.35554 1.08899
 H2393 H 0.21897 0.43142 1.14641
 H2394 H 0.25413 0.44793 1.12891
 H2395 H 0.24109 0.32863 1.09375
 H2396 H 0.27766 0.34436 1.07849
 H2397 H 0.20499 0.33345 1.11638
 H2398 H 0.19220 0.39866 1.15213
 H2399 H 0.28861 0.44391 1.10403
 H2400 H 0.30570 0.37643 1.07498
 C2401 C 0.73412 1.11606 0.88606
 C2402 C 0.71972 1.10187 0.87229
 C2403 C 0.69948 1.11140 0.86234
 C2404 C 0.69310 1.13477 0.86679
 C2405 C 0.70758 1.14848 0.88129
 C2406 C 0.72830 1.13937 0.89050
 C2407 C 0.75585 1.10638 0.89586
 C2408 C 0.77079 1.12089 0.90866
 C2409 C 0.79180 1.11183 0.91726
 C2410 C 0.79762 1.08813 0.91397
 C2411 C 0.78196 1.07373 0.90154
 C2412 C 0.76135 1.08288 0.89204
 C2413 C 0.74349 1.15325 0.90379
 C2414 C 0.76450 1.14423 0.91250
 C2415 C 0.72588 1.07844 0.86871
 C2416 C 0.74621 1.06905 0.87862
 H2417 H 0.73925 1.17132 0.90725
 H2418 H 0.77585 1.15560 0.92243
 H2419 H 0.71486 1.06724 0.85823
 H2420 H 0.75026 1.05088 0.87550
 H2421 H 0.68857 1.10044 0.85147
 H2422 H 0.70324 1.16652 0.88484
 H2423 H 0.80369 1.12347 0.92615
 H2424 H 0.78566 1.05539 0.89921
 C2425 C 0.73311 0.61374 0.38990
 C2426 C 0.71724 0.59872 0.37887
 C2427 C 0.69670 0.60796 0.36936
 C2428 C 0.69180 0.63193 0.37127
 C2429 C 0.70770 0.64666 0.38280
 C2430 C 0.72855 0.63769 0.39188
 C2431 C 0.75506 0.60423 0.39934
 C2432 C 0.77127 0.61936 0.40966
 C2433 C 0.79237 0.61034 0.41805
 C2434 C 0.79717 0.58626 0.41668
 C2435 C 0.78043 0.57131 0.40659
 C2436 C 0.75951 0.58025 0.39763
 C2437 C 0.74506 0.65224 0.40262
 C2438 C 0.76613 0.64325 0.41122
 C2439 C 0.72230 0.57481 0.37749
 C2440 C 0.74301 0.56571 0.38684
 H2441 H 0.74177 0.67076 0.40419
 H2442 H 0.77848 0.65510 0.41919
 H2443 H 0.71016 0.56303 0.36910
 H2444 H 0.74624 0.54716 0.38540
 H2445 H 0.68446 0.59652 0.36063
 H2446 H 0.70414 0.66516 0.38415
 H2447 H 0.80517 0.62219 0.42525
 H2448 H 0.78361 0.55273 0.40574
 C2449 C 0.23395 1.11476 0.38697
 C2450 C 0.21985 1.10054 0.37291
 C2451 C 0.19979 1.11001 0.36256
 C2452 C 0.19325 1.13336 0.36692
 C2453 C 0.20742 1.14709 0.38171
 C2454 C 0.22799 1.13805 0.39130
 C2455 C 0.25553 1.10515 0.39717
 C2456 C 0.27021 1.11971 0.41022
 C2457 C 0.29114 1.11076 0.41912
 C2458 C 0.29716 1.08710 0.41585
 C2459 C 0.28167 1.07262 0.40326
 C2460 C 0.26117 1.08168 0.39346
 C2461 C 0.24289 1.15197 0.40487
 C2462 C 0.26377 1.14303 0.41396
 C2463 C 0.22615 1.07712 0.36947
 C2464 C 0.24632 1.06779 0.37977
 H2465 H 0.23853 1.17003 0.40826
 H2466 H 0.27491 1.15445 0.42408
 H2467 H 0.21537 1.06589 0.35878
 H2468 H 0.25049 1.04963 0.37672
 H2469 H 0.18911 1.09904 0.35148
 H2470 H 0.20297 1.16512 0.38520
 H2471 H 0.30286 1.12246 0.42815
 H2472 H 0.28548 1.05429 0.40098
 C2473 C 0.23388 0.61413 0.88943
 C2474 C 0.22930 0.63806 0.89152
 C2475 C 0.20871 0.64714 0.88204
 C2476 C 0.19305 0.63258 0.86997
 C2477 C 0.19790 0.60860 0.86800
 C2478 C 0.21822 0.59923 0.87793
 C2479 C 0.25568 0.60456 0.89914
 C2480 C 0.26021 0.58061 0.89725
 C2481 C 0.28107 0.57164 0.90637
 C2482 C 0.29766 0.58655 0.91678
 C2483 C 0.29274 0.61059 0.91836
 C2484 C 0.27171 0.61962 0.90983
 C2485 C 0.22333 0.57533 0.87642
 C2486 C 0.24390 0.56616 0.88605
 C2487 C 0.24560 0.65252 0.90268
 C2488 C 0.26652 0.64348 0.91155
 H2489 H 0.21136 0.56363 0.86768
 H2490 H 0.24718 0.54763 0.88446
 H2491 H 0.24229 0.67103 0.90435
 H2492 H 0.27874 0.65527 0.91982
 H2493 H 0.20524 0.66565 0.88341
 H2494 H 0.18587 0.59729 0.85881
 H2495 H 0.28433 0.55308 0.90533
 H2496 H 0.30543 0.62243 0.92577
 C2497 C 1.11527 1.26512 1.11605
 C2498 C 1.13936 1.26906 1.11437
 C2499 C 1.14870 1.28986 1.12314
 C2500 C 1.13419 1.30647 1.13394
 C2501 C 1.11007 1.30215 1.13563
 C2502 C 1.10049 1.28157 1.12652
 C2503 C 1.10536 1.24331 1.10671
 C2504 C 1.08124 1.23949 1.10803
 C2505 C 1.07189 1.21879 1.09892
 C2506 C 1.08655 1.20180 1.08885
 C2507 C 1.11078 1.20591 1.08803
 C2508 C 1.12023 1.22670 1.09668
 C2509 C 1.07644 1.27708 1.12763
 C2510 C 1.06696 1.25646 1.11844
 C2511 C 1.15366 1.25206 1.10409
 C2512 C 1.14427 1.23118 1.09550
 H2513 H 1.06483 1.28965 1.13561
 H2514 H 1.04832 1.25373 1.11960
 H2515 H 1.17228 1.25487 1.10276
 H2516 H 1.15591 1.21849 1.08778
 H2517 H 1.16730 1.29293 1.12192
 H2518 H 1.09876 1.31488 1.14380
 H2519 H 1.05322 1.21606 1.09944
 H2520 H 1.12239 1.19285 1.08090
 C2521 C 1.11710 0.76235 0.61830
 C2522 C 1.10236 0.77842 0.62938
 C2523 C 1.11190 0.79889 0.63869
 C2524 C 1.13590 0.80357 0.63651
 C2525 C 1.15041 0.78735 0.62518
 C2526 C 1.14112 0.76656 0.61625
 C2527 C 1.10717 0.74072 0.60859
 C2528 C 1.12196 0.72444 0.59792
 C2529 C 1.11247 0.70381 0.58891
 C2530 C 1.08825 0.69959 0.58998
 C2531 C 1.07369 0.71630 0.60062
 C2532 C 1.08308 0.73676 0.61015
 C2533 C 1.15535 0.74989 0.60534
 C2534 C 1.14595 0.72913 0.59646
 C2535 C 1.07836 0.77377 0.63077
 C2536 C 1.06887 0.75335 0.62120
 H2537 H 1.17392 0.75289 0.60371
 H2538 H 1.15755 0.71670 0.58824
 H2539 H 1.06680 0.78608 0.63922
 H2540 H 1.05026 0.75049 0.62256
 H2541 H 1.10058 0.81139 0.64721
 H2542 H 1.16892 0.79077 0.62356
 H2543 H 1.12402 0.69097 0.58130
 H2544 H 1.05503 0.71354 0.60130
 C2545 C 0.61788 1.26103 0.61783
 C2546 C 0.64194 1.26515 0.61609
 C2547 C 0.65118 1.28593 0.62507
 C2548 C 0.63658 1.30225 0.63615
 C2549 C 0.61253 1.29767 0.63800
 C2550 C 0.60305 1.27720 0.62864
 C2551 C 0.60800 1.23939 0.60809
 C2552 C 0.58388 1.23553 0.60936
 C2553 C 0.57454 1.21505 0.59984
 C2554 C 0.58918 1.19820 0.58954
 C2555 C 0.61342 1.20234 0.58870
 C2556 C 0.62287 1.22300 0.59770
 C2557 C 0.57902 1.27266 0.62972
 C2558 C 0.56958 1.25223 0.62013
 C2559 C 0.65625 1.24838 0.60544
 C2560 C 0.64689 1.22760 0.59653
 H2561 H 0.56739 1.28504 0.63796
 H2562 H 0.55094 1.24944 0.62125
 H2563 H 0.67485 1.25130 0.60405
 H2564 H 0.65855 1.21509 0.58853
 H2565 H 0.66972 1.28928 0.62370
 H2566 H 0.60114 1.31024 0.64632
 H2567 H 0.55586 1.21237 0.60030
 H2568 H 0.62502 1.18941 0.58131
 C2569 C 0.61298 0.76706 1.11190
 C2570 C 0.59805 0.78310 1.12280
 C2571 C 0.60741 0.80375 1.13205
 C2572 C 0.63140 0.80850 1.12997
 C2573 C 0.64597 0.79242 1.11849
 C2574 C 0.63692 0.77154 1.10972
 C2575 C 0.60345 0.74496 1.10289
 C2576 C 0.61855 0.72861 1.09278
 C2577 C 0.60955 0.70740 1.08479
 C2578 C 0.58549 0.70259 1.08624
 C2579 C 0.57054 0.71941 1.09620
 C2580 C 0.57948 0.74050 1.10481
 C2581 C 0.65143 0.75489 1.09919
 C2582 C 0.64242 0.73371 1.09099
 C2583 C 0.57415 0.77803 1.12441
 C2584 C 0.56500 0.75716 1.11543
 H2585 H 0.66995 0.75815 1.09748
 H2586 H 0.65424 0.72123 1.08317
 H2587 H 0.56241 0.79028 1.13271
 H2588 H 0.54647 0.75394 1.11704
 H2589 H 0.59610 0.81608 1.14082
 H2590 H 0.66450 0.79578 1.11706
 H2591 H 0.62143 0.69451 1.07778
 H2592 H 0.55196 0.71619 1.09718
 C2593 C 0.88610 1.26836 0.89099
 C2594 C 0.90101 1.28401 0.87949
 C2595 C 0.89167 1.30439 0.86963
 C2596 C 0.86770 1.30928 0.87170
 C2597 C 0.85318 1.29368 0.88387
 C2598 C 0.86220 1.27304 0.89322
 C2599 C 0.89558 1.24642 0.90044
 C2600 C 0.88045 1.23035 0.91098
 C2601 C 0.88935 1.20916 0.91917
 C2602 C 0.91336 1.20409 0.91749
 C2603 C 0.92835 1.22073 0.90725
 C2604 C 0.91948 1.24174 0.89839
 C2605 C 0.84769 1.25673 0.90430
 C2606 C 0.85664 1.23567 0.91288
 C2607 C 0.92488 1.27877 0.87784
 C2608 C 0.93398 1.25808 0.88728
 H2609 H 0.82920 1.26014 0.90606
 H2610 H 0.84480 1.22343 0.92105
 H2611 H 0.93660 1.29072 0.86911
 H2612 H 0.95247 1.25469 0.88557
 H2613 H 0.90294 1.31635 0.86032
 H2614 H 0.83466 1.29714 0.88529
 H2615 H 0.87742 1.19645 0.92640
 H2616 H 0.94689 1.21738 0.90614
 C2617 C 0.88188 0.76265 0.38382
 C2618 C 0.85781 0.76685 0.38520
 C2619 C 0.84868 0.78737 0.37550
 C2620 C 0.86342 0.80330 0.36403
 C2621 C 0.88746 0.79863 0.36254
 C2622 C 0.89683 0.77847 0.37265
 C2623 C 0.89163 0.74127 0.39425
 C2624 C 0.91574 0.73733 0.39327
 C2625 C 0.92494 0.71702 0.40325
 C2626 C 0.91017 0.70032 0.41363
 C2627 C 0.88596 0.70462 0.41437
 C2628 C 0.87664 0.72516 0.40492
 C2629 C 0.92086 0.77387 0.37193
 C2630 C 0.93017 0.75371 0.38219
 C2631 C 0.84338 0.75041 0.39621
 C2632 C 0.85262 0.72985 0.40577
 H2633 H 0.93258 0.78599 0.36343
 H2634 H 0.94881 0.75085 0.38129
 H2635 H 0.82477 0.75340 0.39735
 H2636 H 0.84086 0.71756 0.41398
 H2637 H 0.83014 0.79080 0.37660
 H2638 H 0.89895 0.81093 0.35394
 H2639 H 0.94361 0.71428 0.40293
 H2640 H 0.87428 0.69183 0.42189
 C2641 C 0.38526 1.26715 0.38993
 C2642 C 0.36135 1.27177 0.39217
 C2643 C 0.35226 1.29238 0.38279
 C2644 C 0.36675 1.30803 0.37063
 C2645 C 0.39073 1.30319 0.36856
 C2646 C 0.40012 1.28283 0.37842
 C2647 C 0.39480 1.24525 0.39942
 C2648 C 0.41872 1.24064 0.39737
 C2649 C 0.42765 1.21968 0.40628
 C2650 C 0.41273 1.20303 0.41658
 C2651 C 0.38870 1.20802 0.41827
 C2652 C 0.37973 1.22916 0.41000
 C2653 C 0.42400 1.27765 0.37677
 C2654 C 0.43317 1.25700 0.38623
 C2655 C 0.34688 1.25543 0.40327
 C2656 C 0.35590 1.23442 0.41190
 H2657 H 0.43570 1.28963 0.36803
 H2658 H 0.45167 1.25367 0.38453
 H2659 H 0.32839 1.25879 0.40503
 H2660 H 0.34410 1.22216 0.42010
 H2661 H 0.33374 1.29580 0.38422
 H2662 H 0.40198 1.31518 0.35926
 H2663 H 0.44620 1.21639 0.40518
 H2664 H 0.37683 1.19530 0.42557
 C2665 C 0.38611 0.76754 0.89023
 C2666 C 0.40113 0.78336 0.87915
 C2667 C 0.39191 0.80396 0.86972
 C2668 C 0.36798 0.80895 0.87180
 C2669 C 0.35327 0.79316 0.88347
 C2670 C 0.36219 0.77224 0.89242
 C2671 C 0.39554 0.74546 0.89941
 C2672 C 0.38038 0.72926 0.90968
 C2673 C 0.38931 0.70801 0.91778
 C2674 C 0.41336 0.70306 0.91623
 C2675 C 0.42835 0.71981 0.90621
 C2676 C 0.41948 0.74086 0.89749
 C2677 C 0.34763 0.75574 0.90314
 C2678 C 0.35654 0.73454 0.91148
 C2679 C 0.42500 0.77816 0.87756
 C2680 C 0.43405 0.75735 0.88672
 H2681 H 0.32913 0.75913 0.90487
 H2682 H 0.34467 0.72220 0.91942
 H2683 H 0.43679 0.79027 0.86914
 H2684 H 0.45256 0.75401 0.88512
 H2685 H 0.40333 0.81612 0.86085
 H2686 H 0.33479 0.79679 0.88491
 H2687 H 0.37741 0.69522 0.92490
 H2688 H 0.44691 0.71655 0.90524
 C2689 C 1.11518 0.73600 0.88328
 C2690 C 1.11409 0.73168 0.85918
 C2691 C 1.12359 0.71097 0.85033
 C2692 C 1.13458 0.69494 0.86534
 C2693 C 1.13572 0.69967 0.88943
 C2694 C 1.12581 0.72007 0.89853
 C2695 C 1.10507 0.75767 0.89271
 C2696 C 1.10581 0.76179 0.91683
 C2697 C 1.09618 0.78241 0.92572
 C2698 C 1.08635 0.79918 0.91064
 C2699 C 1.08587 0.79469 0.88642
 C2700 C 1.09499 0.77389 0.87742
 C2701 C 1.12627 0.72484 0.92256
 C2702 C 1.11632 0.74528 0.93158
 C2703 C 1.10364 0.74823 0.84444
 C2704 C 1.09438 0.76904 0.85339
 H2705 H 1.13435 0.71264 0.93452
 H2706 H 1.11702 0.74828 0.95023
 H2707 H 1.10275 0.74514 0.82582
 H2708 H 1.08663 0.78140 0.84140
 H2709 H 1.12279 0.70752 0.83175
 H2710 H 1.14398 0.68732 0.90111
 H2711 H 1.09631 0.78533 0.94439
 H2712 H 1.07882 0.80753 0.87450
 C2713 C 1.11687 0.23695 0.38048
 C2714 C 1.10231 0.22063 0.36953
 C2715 C 1.11207 0.20018 0.36045
 C2716 C 1.13611 0.19575 0.36276
 C2717 C 1.15045 0.21221 0.37395
 C2718 C 1.14094 0.23300 0.38261
 C2719 C 1.10669 0.25854 0.38999
 C2720 C 1.12130 0.27505 0.40054
 C2721 C 1.11156 0.29559 0.40945
 C2722 C 1.08727 0.29945 0.40848
 C2723 C 1.07290 0.28254 0.39790
 C2724 C 1.08255 0.26219 0.38843
 C2725 C 1.15499 0.24993 0.39338
 C2726 C 1.14535 0.27067 0.40205
 C2727 C 1.07826 0.22499 0.36807
 C2728 C 1.06853 0.24536 0.37748
 H2729 H 1.17358 0.24715 0.39506
 H2730 H 1.15680 0.28330 0.41018
 H2731 H 1.06684 0.21248 0.35972
 H2732 H 1.04988 0.24798 0.37612
 H2733 H 1.10088 0.18748 0.35205
 H2734 H 1.16898 0.20895 0.37566
 H2735 H 1.12297 0.30861 0.41698
 H2736 H 1.05420 0.28504 0.39728
 C2737 C 0.61247 0.73397 0.38643
 C2738 C 0.61041 0.72892 0.36254
 C2739 C 0.61945 0.70791 0.35398
 C2740 C 0.63101 0.69231 0.36901
 C2741 C 0.63307 0.69771 0.39289
 C2742 C 0.62358 0.71843 0.40175
 C2743 C 0.60297 0.75605 0.39553
 C2744 C 0.60468 0.76095 0.41945
 C2745 C 0.59559 0.78196 0.42802
 C2746 C 0.58536 0.79834 0.41275
 C2747 C 0.58401 0.79309 0.38873
 C2748 C 0.59253 0.77190 0.38009
 C2749 C 0.62501 0.72397 0.42558
 C2750 C 0.61559 0.74480 0.43431
 C2751 C 0.59959 0.74510 0.34768
 C2752 C 0.59093 0.76629 0.35628
 H2753 H 0.63346 0.71209 0.43760
 H2754 H 0.61704 0.74838 0.45281
 H2755 H 0.59796 0.74143 0.32921
 H2756 H 0.58287 0.77837 0.34419
 H2757 H 0.61800 0.70395 0.33554
 H2758 H 0.64182 0.68570 0.40457
 H2759 H 0.59642 0.78547 0.44657
 H2760 H 0.57671 0.80562 0.37663
 C2761 C 0.61712 0.23857 0.88116
 C2762 C 0.60243 0.22242 0.87012
 C2763 C 0.61204 0.20197 0.86086
 C2764 C 0.63605 0.19735 0.86308
 C2765 C 0.65052 0.21365 0.87435
 C2766 C 0.64117 0.23445 0.88321
 C2767 C 0.60710 0.26014 0.89088
 C2768 C 0.62182 0.27649 0.90154
 C2769 C 0.61222 0.29706 0.91059
 C2770 C 0.58797 0.30113 0.90958
 C2771 C 0.57349 0.28434 0.89897
 C2772 C 0.58298 0.26396 0.88938
 C2773 C 0.65533 0.25119 0.89410
 C2774 C 0.64584 0.27193 0.90298
 C2775 C 0.57841 0.22694 0.86875
 C2776 C 0.56883 0.24730 0.87834
 H2777 H 0.67391 0.24828 0.89572
 H2778 H 0.65739 0.28441 0.91118
 H2779 H 0.56689 0.21457 0.86033
 H2780 H 0.55020 0.25006 0.87702
 H2781 H 0.60074 0.18940 0.85241
 H2782 H 0.66903 0.21026 0.87602
 H2783 H 0.62372 0.30996 0.91818
 H2784 H 0.55480 0.28695 0.89835
 C2785 C 0.88332 0.73581 1.11512
 C2786 C 0.89818 0.71966 1.12594
 C2787 C 0.88869 0.69932 1.13558
 C2788 C 0.86460 0.69486 1.13400
 C2789 C 0.84998 0.71111 1.12283
 C2790 C 0.85923 0.73177 1.11359
 C2791 C 0.89316 0.75741 1.10526
 C2792 C 0.87824 0.77383 1.09497
 C2793 C 0.88764 0.79451 1.08597
 C2794 C 0.91188 0.79866 1.08672
 C2795 C 0.92658 0.78175 1.09688
 C2796 C 0.91729 0.76125 1.10641
 C2797 C 0.84487 0.74853 1.10297
 C2798 C 0.85420 0.76927 1.09394
 C2799 C 0.92223 0.72416 1.12685
 C2800 C 0.93164 0.74454 1.11712
 H2801 H 0.82625 0.74566 1.10173
 H2802 H 0.84251 0.78180 1.08601
 H2803 H 0.93389 0.71179 1.13508
 H2804 H 0.95029 0.74731 1.11814
 H2805 H 0.90008 0.68680 1.14400
 H2806 H 0.83141 0.70786 1.12169
 H2807 H 0.87600 0.80748 1.07871
 H2808 H 0.94526 0.78444 1.09727
 C2809 C 0.88714 0.23330 0.61336
 C2810 C 0.87569 0.21766 0.59841
 C2811 C 0.86615 0.19714 0.60768
 C2812 C 0.86853 0.19203 0.63160
 C2813 C 0.88042 0.20772 0.64625
 C2814 C 0.88947 0.22855 0.63728
 C2815 C 0.89673 0.25516 0.60382
 C2816 C 0.90748 0.27112 0.61891
 C2817 C 0.91612 0.29209 0.60986
 C2818 C 0.91468 0.29697 0.58576
 C2819 C 0.90409 0.28049 0.57085
 C2820 C 0.89482 0.25973 0.57984
 C2821 C 0.90060 0.24484 0.65179
 C2822 C 0.90931 0.26585 0.64278
 C2823 C 0.87403 0.22288 0.57451
 C2824 C 0.88357 0.24348 0.56536
 H2825 H 0.90244 0.24141 0.67029
 H2826 H 0.91762 0.27802 0.65460
 H2827 H 0.86532 0.21091 0.56277
 H2828 H 0.88194 0.24680 0.54682
 H2829 H 0.85713 0.18505 0.59630
 H2830 H 0.88211 0.20397 0.66472
 H2831 H 0.92364 0.30471 0.62173
 H2832 H 0.90314 0.28371 0.55226
 C2833 C 0.38588 0.73383 0.61084
 C2834 C 0.40082 0.71777 0.62170
 C2835 C 0.39148 0.69715 0.63094
 C2836 C 0.36750 0.69237 0.62887
 C2837 C 0.35287 0.70842 0.61744
 C2838 C 0.36191 0.72935 0.60870
 C2839 C 0.39545 0.75591 0.60180
 C2840 C 0.38037 0.77231 0.59174
 C2841 C 0.38944 0.79349 0.58368
 C2842 C 0.41357 0.79817 0.58499
 C2843 C 0.42846 0.78127 0.59490
 C2844 C 0.41945 0.76026 0.60360
 C2845 C 0.34742 0.74607 0.59821
 C2846 C 0.35647 0.76726 0.59002
 C2847 C 0.42475 0.72276 0.62323
 C2848 C 0.43393 0.74357 0.61419
 H2849 H 0.32889 0.74286 0.59653
 H2850 H 0.34466 0.77978 0.58224
 H2851 H 0.43648 0.71047 0.63148
 H2852 H 0.45248 0.74672 0.61571
 H2853 H 0.40283 0.68480 0.63964
 H2854 H 0.33435 0.70494 0.61602
 H2855 H 0.37759 0.80643 0.57671
 H2856 H 0.44707 0.78434 0.59574
 C2857 C 0.38483 0.23320 1.11149
 C2858 C 0.39984 0.21748 1.12277
 C2859 C 0.39059 0.19707 1.13254
 C2860 C 0.36664 0.19212 1.13053
 C2861 C 0.35193 0.20784 1.11877
 C2862 C 0.36088 0.22860 1.10951
 C2863 C 0.39435 0.25500 1.10177
 C2864 C 0.37922 0.27109 1.09125
 C2865 C 0.38825 0.29210 1.08264
 C2866 C 0.41235 0.29688 1.08394
 C2867 C 0.42729 0.28020 1.09414
 C2868 C 0.41834 0.25942 1.10339
 C2869 C 0.34634 0.24498 1.09855
 C2870 C 0.35533 0.26595 1.08973
 C2871 C 0.42375 0.22253 1.12409
 C2872 C 0.43287 0.24307 1.11442
 H2873 H 0.32782 0.24167 1.09698
 H2874 H 0.34349 0.27821 1.08161
 H2875 H 0.43553 0.21050 1.13266
 H2876 H 0.45142 0.24629 1.11580
 H2877 H 0.40200 0.18493 1.14145
 H2878 H 0.33344 0.20420 1.11737
 H2879 H 0.37638 0.30484 1.07536
 H2880 H 0.44589 0.28330 1.09490
 C2881 C 1.11167 1.11501 0.73338
 C2882 C 1.12300 1.09990 0.71781
 C2883 C 1.13284 1.10900 0.69733
 C2884 C 1.13087 1.13291 0.69219
 C2885 C 1.11901 1.14771 0.70776
 C2886 C 1.10967 1.13892 0.72856
 C2887 C 1.10195 1.10569 0.75529
 C2888 C 1.09141 1.12095 0.77124
 C2889 C 1.08281 1.11213 0.79235
 C2890 C 1.08415 1.08809 0.79741
 C2891 C 1.09441 1.07300 0.78089
 C2892 C 1.10363 1.08176 0.75999
 C2893 C 1.09868 1.15359 0.74479
 C2894 C 1.08984 1.14478 0.76584
 C2895 C 1.12436 1.07603 0.72312
 C2896 C 1.11470 1.06709 0.74378
 H2897 H 1.09709 1.17207 0.74129
 H2898 H 1.08169 1.15673 0.77799
 H2899 H 1.13297 1.06417 0.71122
 H2900 H 1.11613 1.04858 0.74720
 H2901 H 1.14185 1.09751 0.68533
 H2902 H 1.11765 1.16618 0.70401
 H2903 H 1.07551 1.12411 0.80497
 H2904 H 1.09523 1.05444 0.78422
 C2905 C 1.11886 0.62088 0.23758
 C2906 C 1.14199 0.61558 0.23169
 C2907 C 1.15137 0.62439 0.21087
 C2908 C 1.13809 0.63929 0.19642
 C2909 C 1.11507 0.64496 0.20313
 C2910 C 1.10523 0.63535 0.22334
 C2911 C 1.10865 0.61096 0.25901
 C2912 C 1.08519 0.61530 0.26430
 C2913 C 1.07538 0.60527 0.28434
 C2914 C 1.08911 0.59176 0.29973
 C2915 C 1.11289 0.58822 0.29429
 C2916 C 1.12254 0.59727 0.27374
 C2917 C 1.08190 0.63966 0.22943
 C2918 C 1.07198 0.62959 0.24941
 C2919 C 1.15530 0.60158 0.24676
 C2920 C 1.14583 0.59282 0.26757
 H2921 H 1.07115 0.65071 0.21851
 H2922 H 1.05386 0.63317 0.25333
 H2923 H 1.17323 0.59747 0.24252
 H2924 H 1.15674 0.58222 0.27878
 H2925 H 1.16915 0.61998 0.20625
 H2926 H 1.10443 0.65616 0.19225
 H2927 H 1.05702 0.60789 0.28771
 H2928 H 1.12409 0.57861 0.30604
 C2929 C 0.61545 1.11719 0.23445
 C2930 C 0.63823 1.11115 0.22796
 C2931 C 0.64736 1.11971 0.20695
 C2932 C 0.63429 1.13523 0.19298
 C2933 C 0.61157 1.14147 0.20015
 C2934 C 0.60190 1.13206 0.22055
 C2935 C 0.60560 1.10780 0.25627
 C2936 C 0.58247 1.11296 0.26226
 C2937 C 0.57303 1.10353 0.28278
 C2938 C 0.58686 1.08985 0.29792
 C2939 C 0.61033 1.08551 0.29176
 C2940 C 0.61954 1.09390 0.27075
 C2941 C 0.57890 1.13713 0.22728
 C2942 C 0.56926 1.12751 0.24763
 C2943 C 0.65154 1.09684 0.24273
 C2944 C 0.64246 1.08861 0.26391
 H2945 H 0.56820 1.14848 0.21662
 H2946 H 0.55140 1.13171 0.25207
 H2947 H 0.66921 1.09217 0.23801
 H2948 H 0.65338 1.07782 0.27491
 H2949 H 0.66492 1.11485 0.20197
 H2950 H 0.60109 1.15314 0.18960
 H2951 H 0.55488 1.10677 0.28671
 H2952 H 0.62166 1.07580 0.30329
 C2953 C 0.61526 0.61727 0.73457
 C2954 C 0.63933 0.61574 0.73053
 C2955 C 0.64852 0.62471 0.70975
 C2956 C 0.63390 0.63557 0.69328
 C2957 C 0.60981 0.63724 0.69772
 C2958 C 0.60036 0.62787 0.71827
 C2959 C 0.60549 0.60759 0.75629
 C2960 C 0.58137 0.60870 0.76019
 C2961 C 0.57216 0.59926 0.78081
 C2962 C 0.58696 0.58917 0.79770
 C2963 C 0.61117 0.58852 0.79351
 C2964 C 0.62048 0.59745 0.77277
 C2965 C 0.57632 0.62878 0.72284
 C2966 C 0.56697 0.61924 0.74338
 C2967 C 0.65376 0.60534 0.74737
 C2968 C 0.64451 0.59647 0.76820
 H2969 H 0.56461 0.63684 0.71039
 H2970 H 0.54833 0.62024 0.74618
 H2971 H 0.67238 0.60413 0.74447
 H2972 H 0.65625 0.58867 0.78078
 H2973 H 0.66710 0.62354 0.70657
 H2974 H 0.59844 0.64546 0.68505
 H2975 H 0.55350 0.59962 0.78358
 H2976 H 0.62288 0.58136 0.80649
 C2977 C 0.88631 0.88634 0.73323
 C2978 C 0.88860 0.86237 0.72895
 C2979 C 0.87972 0.85307 0.70819
 C2980 C 0.86809 0.86743 0.69202
 C2981 C 0.86582 0.89144 0.69661
 C2982 C 0.87514 0.90104 0.71713
 C2983 C 0.89559 0.89618 0.75511
 C2984 C 0.89363 0.92019 0.75931
 C2985 C 0.90262 0.92944 0.78014
 C2986 C 0.91306 0.91476 0.79692
 C2987 C 0.91449 0.89063 0.79241
 C2988 C 0.90609 0.88132 0.77147
 C2989 C 0.87345 0.92499 0.72197
 C2990 C 0.88266 0.93442 0.74264
 C2991 C 0.89945 0.84811 0.74564
 C2992 C 0.90792 0.85741 0.76662
 H2993 H 0.86495 0.93654 0.70968
 H2994 H 0.88101 0.95298 0.74566
 H2995 H 0.90124 0.82957 0.74255
 H2996 H 0.91602 0.84578 0.77911
 H2997 H 0.88131 0.83453 0.70494
 H2998 H 0.85695 0.90260 0.68419
 H2999 H 0.90163 0.94805 0.78315
 H3000 H 0.92186 0.87897 0.80531
 C3001 C 0.88568 0.38731 0.23179
 C3002 C 0.89113 0.36431 0.22558
 C3003 C 0.88216 0.35511 0.20483
 C3004 C 0.86675 0.36825 0.19079
 C3005 C 0.86132 0.39132 0.19749
 C3006 C 0.87113 0.40106 0.21773
 C3007 C 0.89518 0.39706 0.25362
 C3008 C 0.89045 0.42029 0.25953
 C3009 C 0.89977 0.42952 0.28023
 C3010 C 0.91288 0.41536 0.29559
 C3011 C 0.91686 0.39185 0.28942
 C3012 C 0.90859 0.38283 0.26830
 C3013 C 0.86661 0.42423 0.22429
 C3014 C 0.87633 0.43376 0.24468
 C3015 C 0.90507 0.35077 0.24048
 C3016 C 0.91341 0.35978 0.26163
 H3017 H 0.85553 0.43511 0.21353
 H3018 H 0.87248 0.45172 0.24903
 H3019 H 0.90929 0.33294 0.23593
 H3020 H 0.92384 0.34866 0.27278
 H3021 H 0.88648 0.33730 0.20025
 H3022 H 0.84974 0.40184 0.18687
 H3023 H 0.89679 0.44770 0.28421
 H3024 H 0.92609 0.38026 0.30111
 C3025 C 0.38652 0.88941 0.23257
 C3026 C 0.36257 0.89129 0.22801
 C3027 C 0.35358 0.88183 0.20738
 C3028 C 0.36821 0.87000 0.19162
 C3029 C 0.39222 0.86818 0.19645
 C3030 C 0.40151 0.87811 0.21684
 C3031 C 0.39600 0.89916 0.25440
 C3032 C 0.41997 0.89752 0.25892
 C3033 C 0.42885 0.90672 0.27981
 C3034 C 0.41384 0.91695 0.29642
 C3035 C 0.38978 0.91826 0.29151
 C3036 C 0.38083 0.90966 0.27047
 C3037 C 0.42543 0.87682 0.22196
 C3038 C 0.43452 0.88650 0.24257
 C3039 C 0.34800 0.90225 0.24435
 C3040 C 0.35696 0.91114 0.26530
 H3041 H 0.43722 0.86824 0.20996
 H3042 H 0.45306 0.88510 0.24585
 H3043 H 0.32947 0.90374 0.24103
 H3044 H 0.34509 0.91925 0.27755
 H3045 H 0.33504 0.88307 0.20396
 H3046 H 0.40358 0.85915 0.18436
 H3047 H 0.44743 0.90589 0.28307
 H3048 H 0.37786 0.92551 0.30423
 C3049 C 0.38648 0.38929 0.73066
 C3050 C 0.36346 0.39435 0.72423
 C3051 C 0.35439 0.38473 0.70369
 C3052 C 0.36771 0.36904 0.69013
 C3053 C 0.39085 0.36411 0.69700
 C3054 C 0.40044 0.37456 0.71698
 C3055 C 0.39602 0.39929 0.75237
 C3056 C 0.41924 0.39484 0.75851
 C3057 C 0.42819 0.40438 0.77920
 C3058 C 0.41376 0.41732 0.79447
 C3059 C 0.39034 0.42128 0.78794
 C3060 C 0.38158 0.41279 0.76676
 C3061 C 0.42362 0.37044 0.72373
 C3062 C 0.43295 0.38064 0.74398
 C3063 C 0.34972 0.40848 0.73876
 C3064 C 0.35854 0.41730 0.75981
 H3065 H 0.43467 0.35925 0.71328
 H3066 H 0.45091 0.37701 0.74852
 H3067 H 0.33187 0.41242 0.73404
 H3068 H 0.34724 0.42780 0.77071
 H3069 H 0.33653 0.38870 0.69897
 H3070 H 0.40151 0.35235 0.68674
 H3071 H 0.44638 0.40157 0.78332
 H3072 H 0.37860 0.43053 0.79944
 C3073 C 1.11765 0.88245 1.26319
 C3074 C 1.10364 0.86824 1.27731
 C3075 C 1.11315 0.85845 1.29761
 C3076 C 1.13625 0.86361 1.30446
 C3077 C 1.14986 0.87837 1.29018
 C3078 C 1.14081 0.88738 1.26931
 C3079 C 1.10788 0.89235 1.24154
 C3080 C 1.12217 0.90569 1.22688
 C3081 C 1.11297 0.91454 1.20601
 C3082 C 1.08930 0.91103 1.20013
 C3083 C 1.07513 0.89801 1.21552
 C3084 C 1.08445 0.88822 1.23591
 C3085 C 1.15449 0.90112 1.25435
 C3086 C 1.14541 0.90990 1.23336
 C3087 C 1.08033 0.86424 1.27095
 C3088 C 1.07083 0.87428 1.25074
 H3089 H 1.17244 0.90496 1.25880
 H3090 H 1.15663 0.92023 1.22223
 H3091 H 1.06929 0.85341 1.28178
 H3092 H 1.05273 0.87090 1.24656
 H3093 H 1.10226 0.84737 1.30837
 H3094 H 1.16770 0.88241 1.29491
 H3095 H 1.12446 0.92387 1.19431
 H3096 H 1.05681 0.89551 1.21182
 C3097 C 1.11672 0.38406 0.76441
 C3098 C 1.11548 0.35999 0.76860
 C3099 C 1.12466 0.35100 0.78939
 C3100 C 1.13544 0.36584 0.80572
 C3101 C 1.13681 0.38991 0.80112
 C3102 C 1.12725 0.39915 0.78057
 C3103 C 1.10680 0.39364 0.74270
 C3104 C 1.10765 0.41774 0.73868
 C3105 C 1.09805 0.42676 0.71805
 C3106 C 1.08807 0.41180 0.70125
 C3107 C 1.08761 0.38761 0.70559
 C3108 C 1.09672 0.37848 0.72635
 C3109 C 1.12787 0.42318 0.77588
 C3110 C 1.11813 0.43233 0.75535
 C3111 C 1.10511 0.34539 0.75189
 C3112 C 1.09600 0.35446 0.73106
 H3113 H 1.13588 0.43502 0.78823
 H3114 H 1.11892 0.45096 0.75245
 H3115 H 1.10411 0.32678 0.75489
 H3116 H 1.08825 0.34259 0.71858
 H3117 H 1.12369 0.33243 0.79271
 H3118 H 1.14493 0.40146 0.81368
 H3119 H 1.09825 0.44542 0.71518
 H3120 H 1.08049 0.37579 0.69269
 C3121 C 0.61280 0.88590 0.76734
 C3122 C 0.61087 0.86197 0.77209
 C3123 C 0.61962 0.85324 0.79319
 C3124 C 0.63081 0.86816 0.80915
 C3125 C 0.63272 0.89209 0.80406
 C3126 C 0.62349 0.90111 0.78327
 C3127 C 0.60366 0.89517 0.74515
 C3128 C 0.60524 0.91913 0.74054
 C3129 C 0.59645 0.92785 0.71944
 C3130 C 0.58664 0.91272 0.70269
 C3131 C 0.58548 0.88864 0.70762
 C3132 C 0.59368 0.87984 0.72891
 C3133 C 0.62481 0.92499 0.77802
 C3134 C 0.61570 0.93387 0.75709
 C3135 C 0.60050 0.84722 0.75551
 C3136 C 0.59219 0.85599 0.73422
 H3137 H 0.63294 0.93691 0.79021
 H3138 H 0.61705 0.95240 0.75374
 H3139 H 0.59897 0.82872 0.75894
 H3140 H 0.58447 0.84399 0.72183
 H3141 H 0.61831 0.83476 0.79690
 H3142 H 0.64120 0.90367 0.81636
 H3143 H 0.59713 0.94643 0.71616
 H3144 H 0.57853 0.87664 0.69481
 C3145 C 0.61515 0.38330 1.26565
 C3146 C 0.60143 0.36857 1.27953
 C3147 C 0.61093 0.35918 1.30002
 C3148 C 0.63366 0.36529 1.30733
 C3149 C 0.64688 0.38070 1.29339
 C3150 C 0.63793 0.38924 1.27228
 C3151 C 0.60549 0.39262 1.24370
 C3152 C 0.61960 0.40635 1.22923
 C3153 C 0.61058 0.41461 1.20806
 C3154 C 0.58714 0.41030 1.20172
 C3155 C 0.57314 0.39687 1.21690
 C3156 C 0.58238 0.38755 1.23756
 C3157 C 0.65140 0.40339 1.25752
 C3158 C 0.64250 0.41155 1.23622
 C3159 C 0.57845 0.36361 1.27267
 C3160 C 0.56899 0.37317 1.25220
 H3161 H 0.66907 0.40799 1.26235
 H3162 H 0.65356 0.42221 1.22524
 H3163 H 0.56761 0.35238 1.28330
 H3164 H 0.55113 0.36905 1.24765
 H3165 H 0.60031 0.34761 1.31054
 H3166 H 0.66445 0.38546 1.29849
 H3167 H 0.62204 0.42417 1.19654
 H3168 H 0.55499 0.39369 1.21288
 C3169 C 0.88675 1.11153 1.26859
 C3170 C 0.86368 1.10639 1.27477
 C3171 C 0.85438 1.11598 1.29518
 C3172 C 0.86749 1.13171 1.30890
 C3173 C 0.89067 1.13676 1.30228
 C3174 C 0.90050 1.12634 1.28239
 C3175 C 0.89654 1.10152 1.24702
 C3176 C 0.91981 1.10605 1.24112
 C3177 C 0.92901 1.09646 1.22056
 C3178 C 0.91478 1.08337 1.20522
 C3179 C 0.89131 1.07937 1.21149
 C3180 C 0.88231 1.08792 1.23252
 C3181 C 0.92373 1.13056 1.27588
 C3182 C 0.93330 1.12036 1.25575
 C3183 C 0.85015 1.09217 1.26012
 C3184 C 0.85921 1.08333 1.23920
 H3185 H 0.93462 1.14181 1.28644
 H3186 H 0.95130 1.12404 1.25140
 H3187 H 0.83227 1.08817 1.26466
 H3188 H 0.84807 1.07276 1.22821
 H3189 H 0.83649 1.11191 1.29970
 H3190 H 0.90117 1.14857 1.31265
 H3191 H 0.94721 1.09934 1.21659
 H3192 H 0.87971 1.07006 1.19990
 C3193 C 0.88657 0.61331 0.76706
 C3194 C 0.87530 0.59866 0.78312
 C3195 C 0.86559 0.60836 0.80341
 C3196 C 0.86761 0.63243 0.80782
 C3197 C 0.87934 0.64674 0.79169
 C3198 C 0.88859 0.63734 0.77116
 C3199 C 0.89626 0.60336 0.74542
 C3200 C 0.90685 0.61816 0.72907
 C3201 C 0.91559 0.60874 0.70832
 C3202 C 0.91439 0.58457 0.70399
 C3203 C 0.90391 0.56994 0.72079
 C3204 C 0.89458 0.57930 0.74141
 C3205 C 0.89955 0.65154 0.75450
 C3206 C 0.90839 0.64214 0.73374
 C3207 C 0.87390 0.57465 0.77848
 C3208 C 0.88350 0.56512 0.75805
 H3209 H 0.90113 0.67012 0.75745
 H3210 H 0.91657 0.65372 0.72126
 H3211 H 0.86532 0.56314 0.79074
 H3212 H 0.88207 0.54652 0.75516
 H3213 H 0.85666 0.59724 0.81580
 H3214 H 0.88073 0.66532 0.79481
 H3215 H 0.92299 0.62037 0.69541
 H3216 H 0.90311 0.55131 0.71793
 C3217 C 0.38631 1.11227 0.76825
 C3218 C 0.36325 1.10720 0.77451
 C3219 C 0.35407 1.11677 0.79500
 C3220 C 0.36730 1.13243 0.80869
 C3221 C 0.39047 1.13741 0.80198
 C3222 C 0.40017 1.12700 0.78203
 C3223 C 0.39598 1.10226 0.74662
 C3224 C 0.41925 1.10669 0.74065
 C3225 C 0.42835 1.09706 0.72006
 C3226 C 0.41404 1.08401 0.70478
 C3227 C 0.39055 1.08015 0.71110
 C3228 C 0.38164 1.08873 0.73215
 C3229 C 0.42340 1.13113 0.77543
 C3230 C 0.43286 1.12093 0.75526
 C3231 C 0.34960 1.09307 0.75989
 C3232 C 0.35856 1.08423 0.73892
 H3233 H 0.43437 1.14233 0.78597
 H3234 H 0.45085 1.12454 0.75085
 H3235 H 0.33172 1.08913 0.76449
 H3236 H 0.34733 1.07372 0.72795
 H3237 H 0.33619 1.11277 0.79959
 H3238 H 0.40106 1.14916 0.81233
 H3239 H 0.44657 1.09985 0.71607
 H3240 H 0.37889 1.07087 0.69954
 C3241 C 0.38671 0.61144 1.26922
 C3242 C 0.36369 0.60612 1.27546
 C3243 C 0.35450 0.61530 1.29612
 C3244 C 0.36768 0.63083 1.31000
 C3245 C 0.39078 0.63610 1.30328
 C3246 C 0.40050 0.62606 1.28317
 C3247 C 0.39641 0.60180 1.24744
 C3248 C 0.41965 0.60647 1.24151
 C3249 C 0.42879 0.59716 1.22081
 C3250 C 0.41456 0.58421 1.20538
 C3251 C 0.39109 0.58013 1.21165
 C3252 C 0.38214 0.58839 1.23281
 C3253 C 0.42369 0.63045 1.27661
 C3254 C 0.43318 0.62059 1.25628
 C3255 C 0.35011 0.59211 1.26065
 C3256 C 0.35909 0.58364 1.23954
 H3257 H 0.43460 0.64157 1.28728
 H3258 H 0.45115 0.62437 1.25190
 H3259 H 0.33227 0.58798 1.26523
 H3260 H 0.34792 0.57321 1.22844
 H3261 H 0.33667 0.61111 1.30074
 H3262 H 0.40134 0.64774 1.31378
 H3263 H 0.44699 0.60010 1.21683
 H3264 H 0.37948 0.57092 1.19997
 C3265 C 1.11596 1.26521 0.88446
 C3266 C 1.13001 1.27936 0.89861
 C3267 C 1.14005 1.29951 0.88911
 C3268 C 1.13524 1.30621 0.86587
 C3269 C 1.12062 1.29191 0.85211
 C3270 C 1.11141 1.27117 0.86116
 C3271 C 1.10582 1.24370 0.89422
 C3272 C 1.09268 1.22899 0.87978
 C3273 C 1.08364 1.20823 0.88896
 C3274 C 1.08673 1.20251 0.91276
 C3275 C 1.09950 1.21798 0.92708
 C3276 C 1.10952 1.23824 0.91778
 C3277 C 1.09785 1.25618 0.84732
 C3278 C 1.08888 1.23531 0.85640
 C3279 C 1.13359 1.27316 0.92207
 C3280 C 1.12329 1.25310 0.93156
 H3281 H 1.09431 1.26051 0.82927
 H3282 H 1.07870 1.22414 0.84507
 H3283 H 1.14429 1.28401 0.93323
 H3284 H 1.12636 1.24905 0.94977
 H3285 H 1.15101 1.31030 0.90010
 H3286 H 1.11686 1.29652 0.83415
 H3287 H 1.07453 1.19648 0.87736
 H3288 H 1.10167 1.21443 0.94550
 C3289 C 1.11240 0.76644 0.38626
 C3290 C 1.11009 0.77082 0.36228
 C3291 C 1.11952 0.79129 0.35293
 C3292 C 1.13177 0.80704 0.36723
 C3293 C 1.13402 0.80238 0.39127
 C3294 C 1.12411 0.78217 0.40093
 C3295 C 1.10265 0.74479 0.39612
 C3296 C 1.10466 0.74047 0.42013
 C3297 C 1.09535 0.71981 0.42939
 C3298 C 1.08460 0.70322 0.41470
 C3299 C 1.08305 0.70789 0.39056
 C3300 C 1.09173 0.72871 0.38127
 C3301 C 1.12580 0.77724 0.42489
 C3302 C 1.11611 0.75683 0.43435
 C3303 C 1.09875 0.75446 0.34803
 C3304 C 1.08986 0.73368 0.35734
 H3305 H 1.13470 0.78925 0.43643
 H3306 H 1.11781 0.75371 0.45292
 H3307 H 1.09693 0.75762 0.32948
 H3308 H 1.08142 0.72142 0.34571
 H3309 H 1.11795 0.79459 0.33437
 H3310 H 1.14337 0.81447 0.40238
 H3311 H 1.09643 0.71674 0.44800
 H3312 H 1.07546 0.69518 0.37885
 C3313 C 0.61240 1.26715 0.38733
 C3314 C 0.60646 1.27379 0.36454
 C3315 C 0.61545 1.29458 0.35542
 C3316 C 0.63139 1.30813 0.36842
 C3317 C 0.63736 1.30093 0.39125
 C3318 C 0.62749 1.28075 0.40094
 C3319 C 0.60284 1.24534 0.39703
 C3320 C 0.60803 1.23909 0.42011
 C3321 C 0.59865 1.21844 0.42931
 C3322 C 0.58510 1.20338 0.41525
 C3323 C 0.58064 1.20991 0.39187
 C3324 C 0.58892 1.23106 0.38292
 C3325 C 0.63247 1.27383 0.42393
 C3326 C 0.62266 1.25352 0.43345
 C3327 C 0.59199 1.25928 0.35112
 C3328 C 0.58363 1.23812 0.36005
 H3329 H 0.64397 1.28426 0.43470
 H3330 H 0.62688 1.24888 0.45129
 H3331 H 0.58739 1.26415 0.33345
 H3332 H 0.57280 1.22728 0.34901
 H3333 H 0.61076 1.29957 0.33779
 H3334 H 0.64933 1.31119 0.40167
 H3335 H 0.60197 1.21427 0.44742
 H3336 H 0.57106 1.19850 0.38032
 C3337 C 0.61373 0.76729 0.88930
 C3338 C 0.59866 0.78325 0.87844
 C3339 C 0.60788 0.80382 0.86898
 C3340 C 0.63186 0.80867 0.87081
 C3341 C 0.64664 0.79270 0.88217
 C3342 C 0.63770 0.77181 0.89117
 C3343 C 0.60425 0.74532 0.89866
 C3344 C 0.61943 0.72903 0.90878
 C3345 C 0.61044 0.70791 0.91711
 C3346 C 0.58633 0.70317 0.91592
 C3347 C 0.57133 0.71999 0.90603
 C3348 C 0.58025 0.74093 0.89711
 C3349 C 0.65230 0.75521 0.90171
 C3350 C 0.64334 0.73411 0.91023
 C3351 C 0.57473 0.77824 0.87718
 C3352 C 0.56565 0.75751 0.88650
 H3353 H 0.67084 0.75846 0.90319
 H3354 H 0.65523 0.72169 0.91805
 H3355 H 0.56291 0.79044 0.86894
 H3356 H 0.54709 0.75433 0.88517
 H3357 H 0.59640 0.81612 0.86037
 H3358 H 0.66515 0.79623 0.88344
 H3359 H 0.62233 0.69504 0.92414
 H3360 H 0.55273 0.71688 0.90532
 C3361 C 0.88262 1.26315 1.11747
 C3362 C 0.85857 1.26732 1.11557
 C3363 C 0.84937 1.28825 1.12423
 C3364 C 0.86398 1.30462 1.13521
 C3365 C 0.88799 1.29999 1.13727
 C3366 C 0.89746 1.27940 1.12817
 C3367 C 0.89246 1.24137 1.10804
 C3368 C 0.91657 1.23746 1.10941
 C3369 C 0.92589 1.21687 1.10010
 C3370 C 0.91122 1.19997 1.08991
 C3371 C 0.88699 1.20413 1.08905
 C3372 C 0.87757 1.22490 1.09780
 C3373 C 0.92147 1.27479 1.12940
 C3374 C 0.93089 1.25424 1.12005
 C3375 C 0.84424 1.25046 1.10508
 C3376 C 0.85356 1.22954 1.09649
 H3377 H 0.93311 1.28723 1.13755
 H3378 H 0.94952 1.25142 1.12126
 H3379 H 0.82566 1.25343 1.10358
 H3380 H 0.84189 1.21696 1.08860
 H3381 H 0.83084 1.29165 1.12274
 H3382 H 0.89937 1.31262 1.14552
 H3383 H 0.94456 1.21418 1.10059
 H3384 H 0.87535 1.19115 1.08180
 C3385 C 0.88452 0.76254 0.61703
 C3386 C 0.86050 0.76678 0.61495
 C3387 C 0.85130 0.78775 0.62350
 C3388 C 0.86587 0.80412 0.63454
 C3389 C 0.88988 0.79945 0.63671
 C3390 C 0.89934 0.77879 0.62774
 C3391 C 0.89433 0.74065 0.60780
 C3392 C 0.91841 0.73663 0.60940
 C3393 C 0.92770 0.71592 0.60029
 C3394 C 0.91302 0.69906 0.59005
 C3395 C 0.88881 0.70333 0.58901
 C3396 C 0.87944 0.72419 0.59756
 C3397 C 0.92333 0.77408 0.62918
 C3398 C 0.93272 0.75341 0.62005
 C3399 C 0.84617 0.74993 0.60447
 C3400 C 0.85546 0.72893 0.59605
 H3401 H 0.93496 0.78651 0.63735
 H3402 H 0.95133 0.75051 0.62142
 H3403 H 0.82761 0.75295 0.60283
 H3404 H 0.84379 0.71635 0.58815
 H3405 H 0.83278 0.79115 0.62193
 H3406 H 0.90123 0.81206 0.64503
 H3407 H 0.94635 0.71310 0.60096
 H3408 H 0.87717 0.69037 0.58174
 C3409 C 0.38562 1.26516 0.61580
 C3410 C 0.39969 1.27989 0.62934
 C3411 C 0.39003 1.30031 0.63880
 C3412 C 0.36667 1.30652 0.63401
 C3413 C 0.35308 1.29164 0.61982
 C3414 C 0.36229 1.27078 0.61115
 C3415 C 0.39545 1.24334 0.60639
 C3416 C 0.38104 1.22813 0.59379
 C3417 C 0.39025 1.20715 0.58541
 C3418 C 0.41404 1.20161 0.58855
 C3419 C 0.42832 1.21743 0.60094
 C3420 C 0.41899 1.23805 0.61028
 C3421 C 0.34851 1.25527 0.59814
 C3422 C 0.35765 1.23419 0.58983
 C3423 C 0.42316 1.27390 0.63308
 C3424 C 0.43270 1.25347 0.62351
 H3425 H 0.33043 1.25936 0.59454
 H3426 H 0.34637 1.22262 0.58006
 H3427 H 0.43427 1.28516 0.64339
 H3428 H 0.45090 1.24960 0.62671
 H3429 H 0.40089 1.31152 0.64947
 H3430 H 0.33504 1.29582 0.61605
 H3431 H 0.37865 1.19508 0.57671
 H3432 H 0.44670 1.21388 0.60327
 C3433 C 0.38528 0.76596 1.11586
 C3434 C 0.36206 0.77185 1.11102
 C3435 C 0.35296 0.79272 1.11979
 C3436 C 0.36655 0.80731 1.13429
 C3437 C 0.38978 0.80079 1.13932
 C3438 C 0.39934 0.78041 1.12973
 C3439 C 0.39503 0.74418 1.10630
 C3440 C 0.41849 0.73867 1.11037
 C3441 C 0.42774 0.71809 1.10094
 C3442 C 0.41346 0.70244 1.08834
 C3443 C 0.38976 0.70823 1.08491
 C3444 C 0.38064 0.72923 1.09338
 C3445 C 0.42271 0.77419 1.13364
 C3446 C 0.43219 0.75382 1.12392
 C3447 C 0.34829 0.75661 1.09767
 C3448 C 0.35735 0.73553 1.08923
 H3449 H 0.43382 0.78524 1.14420
 H3450 H 0.45033 0.74976 1.12726
 H3451 H 0.33029 0.76090 1.09391
 H3452 H 0.34607 0.72417 1.07921
 H3453 H 0.33502 0.79716 1.11586
 H3454 H 0.40063 0.81179 1.15019
 H3455 H 0.44608 0.71442 1.10341
 H3456 H 0.37817 0.69633 1.07596
 C3457 C 0.88354 0.73727 0.88300
 C3458 C 0.85951 0.73306 0.88492
 C3459 C 0.85031 0.71217 0.87620
 C3460 C 0.86491 0.69584 0.86515
 C3461 C 0.88893 0.70047 0.86313
 C3462 C 0.89839 0.72106 0.87227
 C3463 C 0.89335 0.75908 0.89242
 C3464 C 0.91744 0.76307 0.89096
 C3465 C 0.92671 0.78370 0.90022
 C3466 C 0.91202 0.80054 0.91048
 C3467 C 0.88781 0.79629 0.91142
 C3468 C 0.87844 0.77550 0.90270
 C3469 C 0.92238 0.72574 0.87098
 C3470 C 0.93177 0.74633 0.88029
 C3471 C 0.84516 0.74987 0.89545
 C3472 C 0.85445 0.77080 0.90406
 H3473 H 0.93403 0.71333 0.86280
 H3474 H 0.95038 0.74921 0.87902
 H3475 H 0.82659 0.74687 0.89697
 H3476 H 0.84277 0.78334 0.91198
 H3477 H 0.83178 0.70879 0.87765
 H3478 H 0.90030 0.68789 0.85480
 H3479 H 0.94537 0.78650 0.89965
 H3480 H 0.87617 0.80923 0.91872
 C3481 C 0.88439 0.23503 0.38413
 C3482 C 0.89850 0.22050 0.37042
 C3483 C 0.88896 0.20010 0.36083
 C3484 C 0.86564 0.19371 0.36557
 C3485 C 0.85200 0.20835 0.37996
 C3486 C 0.86112 0.22920 0.38882
 C3487 C 0.89410 0.25686 0.39363
 C3488 C 0.87967 0.27187 0.40643
 C3489 C 0.88877 0.29291 0.41486
 C3490 C 0.91246 0.29871 0.41145
 C3491 C 0.92677 0.28305 0.39892
 C3492 C 0.91757 0.26238 0.38960
 C3493 C 0.84731 0.24450 0.40204
 C3494 C 0.85636 0.26559 0.41048
 C3495 C 0.92189 0.22669 0.36659
 C3496 C 0.93132 0.24714 0.37622
 H3497 H 0.82928 0.24026 0.40569
 H3498 H 0.84504 0.27700 0.42040
 H3499 H 0.93304 0.21559 0.35615
 H3500 H 0.94946 0.25120 0.37292
 H3501 H 0.89986 0.18908 0.35003
 H3502 H 0.83401 0.20401 0.38372
 H3503 H 0.87718 0.30483 0.42377
 H3504 H 0.94509 0.28677 0.39645
 C3505 C 0.38511 0.73437 0.38617
 C3506 C 0.40013 0.71813 0.37569
 C3507 C 0.39081 0.69753 0.36634
 C3508 C 0.36673 0.69300 0.36785
 C3509 C 0.35201 0.70938 0.37870
 C3510 C 0.36106 0.73019 0.38767
 C3511 C 0.39471 0.75626 0.39562
 C3512 C 0.37959 0.77272 0.40553
 C3513 C 0.38871 0.79367 0.41411
 C3514 C 0.41288 0.79811 0.41331
 C3515 C 0.42782 0.78121 0.40351
 C3516 C 0.41879 0.76036 0.39443
 C3517 C 0.34651 0.74700 0.39791
 C3518 C 0.35560 0.76796 0.40657
 C3519 C 0.42414 0.72287 0.37477
 C3520 C 0.43332 0.74357 0.38409
 H3521 H 0.32791 0.74398 0.39910
 H3522 H 0.34376 0.78053 0.41421
 H3523 H 0.43594 0.71047 0.36680
 H3524 H 0.45194 0.74653 0.38304
 H3525 H 0.40226 0.68497 0.35810
 H3526 H 0.33342 0.70616 0.37974
 H3527 H 0.37689 0.80665 0.42105
 H3528 H 0.44645 0.78417 0.40305
 C3529 C 0.38458 0.23577 0.88395
 C3530 C 0.39875 0.22116 0.87038
 C3531 C 0.38919 0.20081 0.86069
 C3532 C 0.36582 0.19453 0.86528
 C3533 C 0.35212 0.20926 0.87952
 C3534 C 0.36124 0.23007 0.88841
 C3535 C 0.39430 0.25755 0.89355
 C3536 C 0.37981 0.27265 0.90616
 C3537 C 0.38891 0.29364 0.91467
 C3538 C 0.41268 0.29929 0.91157
 C3539 C 0.42706 0.28352 0.89924
 C3540 C 0.41785 0.26291 0.88980
 C3541 C 0.34737 0.24545 0.90147
 C3542 C 0.35642 0.26650 0.90997
 C3543 C 0.42222 0.22722 0.86681
 C3544 C 0.43166 0.24761 0.87656
 H3545 H 0.32928 0.24130 0.90493
 H3546 H 0.34506 0.27799 0.91975
 H3547 H 0.43341 0.21606 0.85649
 H3548 H 0.44986 0.25155 0.87348
 H3549 H 0.40012 0.18971 0.85001
 H3550 H 0.33407 0.20501 0.88314
 H3551 H 0.37727 0.30564 0.92339
 H3552 H 0.44544 0.28712 0.89701
 C3553 C 1.11458 0.73362 1.11296
 C3554 C 1.12964 0.71981 1.09952
 C3555 C 1.13978 0.69989 1.10958
 C3556 C 1.13414 0.69322 1.13265
 C3557 C 1.11817 0.70696 1.14543
 C3558 C 1.10891 0.72742 1.13593
 C3559 C 1.10482 0.75520 1.10294
 C3560 C 1.09096 0.76969 1.11690
 C3561 C 1.08252 0.79063 1.10767
 C3562 C 1.08672 0.79679 1.08415
 C3563 C 1.10025 0.78156 1.07024
 C3564 C 1.10979 0.76108 1.07972
 C3565 C 1.09448 0.74210 1.14919
 C3566 C 1.08591 0.76303 1.13993
 C3567 C 1.13437 0.72633 1.07635
 C3568 C 1.12438 0.74645 1.06654
 H3569 H 1.09008 0.73756 1.16700
 H3570 H 1.07513 0.77403 1.15086
 H3571 H 1.14583 0.71577 1.06570
 H3572 H 1.12842 0.75078 1.04859
 H3573 H 1.15178 0.68951 1.09934
 H3574 H 1.11369 0.70241 1.16323
 H3575 H 1.07301 0.80220 1.11912
 H3576 H 1.10342 0.78546 1.05205
 C3577 C 1.11484 0.23282 0.61204
 C3578 C 1.10091 0.21912 0.62675
 C3579 C 1.11038 0.19895 0.63680
 C3580 C 1.13334 0.19182 0.63144
 C3581 C 1.14674 0.20548 0.61593
 C3582 C 1.13778 0.22628 0.60671
 C3583 C 1.10528 0.25459 0.60225
 C3584 C 1.11961 0.26897 0.58865
 C3585 C 1.11074 0.29012 0.58019
 C3586 C 1.08731 0.29656 0.58432
 C3587 C 1.07303 0.28132 0.59741
 C3588 C 1.08208 0.26070 0.60689
 C3589 C 1.15145 0.24088 0.59257
 C3590 C 1.14261 0.26201 0.58393
 C3591 C 1.07780 0.22589 0.63114
 C3592 C 1.06845 0.24617 0.62114
 H3593 H 1.16923 0.23611 0.58841
 H3594 H 1.15384 0.27291 0.57337
 H3595 H 1.06680 0.21538 0.64233
 H3596 H 1.05052 0.25071 0.62491
 H3597 H 1.09963 0.18862 0.64841
 H3598 H 1.16447 0.20051 0.61170
 H3599 H 1.12233 0.30162 0.57077
 H3600 H 1.05485 0.28538 0.60032
 C3601 C 0.61468 0.73409 0.61035
 C3602 C 0.63867 0.72969 0.60852
 C3603 C 0.64776 0.70905 0.61786
 C3604 C 0.63315 0.69316 0.62956
 C3605 C 0.60912 0.69784 0.63130
 C3606 C 0.59974 0.71820 0.62148
 C3607 C 0.60508 0.75592 0.60075
 C3608 C 0.58107 0.76025 0.60235
 C3609 C 0.57207 0.78112 0.59328
 C3610 C 0.58699 0.79791 0.58322
 C3611 C 0.61109 0.79319 0.58196
 C3612 C 0.62016 0.77216 0.59043
 C3613 C 0.57579 0.72314 0.62273
 C3614 C 0.56659 0.74373 0.61319
 C3615 C 0.65316 0.74621 0.59773
 C3616 C 0.64408 0.76716 0.58897
 H3617 H 0.56405 0.71100 0.63118
 H3618 H 0.54802 0.74687 0.61455
 H3619 H 0.67171 0.74303 0.59627
 H3620 H 0.65590 0.77954 0.58100
 H3621 H 0.66631 0.70570 0.61668
 H3622 H 0.59778 0.68563 0.64020
 H3623 H 0.55347 0.78422 0.59406
 H3624 H 0.62294 0.80603 0.57483
 C3625 C 0.61392 0.23339 1.11286
 C3626 C 0.60793 0.22680 1.13565
 C3627 C 0.61684 0.20600 1.14482
 C3628 C 0.63275 0.19237 1.13188
 C3629 C 0.63881 0.19952 1.10907
 C3630 C 0.62901 0.21972 1.09932
 C3631 C 0.60438 0.25516 1.10309
 C3632 C 0.60956 0.26134 1.07999
 C3633 C 0.60011 0.28192 1.07069
 C3634 C 0.58647 0.29696 1.08467
 C3635 C 0.58211 0.29056 1.10809
 C3636 C 0.59044 0.26949 1.11713
 C3637 C 0.63402 0.22658 1.07632
 C3638 C 0.62422 0.24687 1.06672
 C3639 C 0.59348 0.24136 1.14901
 C3640 C 0.58515 0.26250 1.14002
 H3641 H 0.64552 0.21612 1.06560
 H3642 H 0.62843 0.25145 1.04887
 H3643 H 0.58885 0.23653 1.16669
 H3644 H 0.57430 0.27338 1.15101
 H3645 H 0.61209 0.20105 1.16245
 H3646 H 0.65077 0.18921 1.09870
 H3647 H 0.60340 0.28602 1.05256
 H3648 H 0.57250 0.30199 1.11960
 C3649 C 1.26253 1.11903 0.88307
 C3650 C 1.26668 1.14310 0.88447
 C3651 C 1.28725 1.15224 0.87493
 C3652 C 1.30330 1.13751 0.86363
 C3653 C 1.29865 1.11347 0.86207
 C3654 C 1.27843 1.10409 0.87200
 C3655 C 1.24115 1.10924 0.89344
 C3656 C 1.23729 1.08512 0.89250
 C3657 C 1.21702 1.07588 0.90250
 C3658 C 1.20031 1.09062 0.91289
 C3659 C 1.20451 1.11485 0.91355
 C3660 C 1.22500 1.12421 0.90407
 C3661 C 1.27389 1.08005 0.87128
 C3662 C 1.25372 1.07071 0.88148
 C3663 C 1.25017 1.15751 0.89540
 C3664 C 1.22962 1.14824 0.90491
 H3665 H 1.28607 1.06834 0.86286
 H3666 H 1.25091 1.05206 0.88060
 H3667 H 1.25313 1.17612 0.89655
 H3668 H 1.21729 1.15998 0.91308
 H3669 H 1.29069 1.17078 0.87610
 H3670 H 1.31104 1.10198 0.85361
 H3671 H 1.21433 1.05720 0.90222
 H3672 H 1.19170 1.12650 0.92105
 C3673 C 1.26292 0.61628 0.38422
 C3674 C 1.26725 0.64031 0.38590
 C3675 C 1.28807 0.64934 0.37684
 C3676 C 1.30420 0.63457 0.36571
 C3677 C 1.29942 0.61057 0.36390
 C3678 C 1.27892 0.60129 0.37337
 C3679 C 1.24123 0.60663 0.39404
 C3680 C 1.23715 0.58255 0.39282
 C3681 C 1.21659 0.57343 0.40236
 C3682 C 1.19986 0.58826 0.41258
 C3683 C 1.20424 0.61245 0.41340
 C3684 C 1.22499 0.62167 0.40441
 C3685 C 1.27416 0.57730 0.37236
 C3686 C 1.25369 0.56806 0.38204
 C3687 C 1.25064 0.65480 0.39656
 C3688 C 1.22980 0.64565 0.40553
 H3689 H 1.28641 0.56554 0.36409
 H3690 H 1.25073 0.54945 0.38096
 H3691 H 1.25374 0.67337 0.39791
 H3692 H 1.21741 0.65744 0.41352
 H3693 H 1.29160 0.66785 0.37817
 H3694 H 1.31186 0.59908 0.35554
 H3695 H 1.21373 0.55478 0.40193
 H3696 H 1.19140 0.62419 0.42072
 C3697 C 0.76191 1.11778 0.38161
 C3698 C 0.76612 1.14181 0.38357
 C3699 C 0.78690 1.15108 0.37460
 C3700 C 0.80310 1.13652 0.36329
 C3701 C 0.79840 1.11251 0.36120
 C3702 C 0.77796 1.10301 0.37056
 C3703 C 0.74031 1.10786 0.39137
 C3704 C 0.73638 1.08376 0.38989
 C3705 C 0.71596 1.07437 0.39945
 C3706 C 0.69922 1.08894 0.41002
 C3707 C 0.70341 1.11316 0.41107
 C3708 C 0.72403 1.12265 0.40203
 C3709 C 0.77335 1.07900 0.36924
 C3710 C 0.75297 1.06952 0.37886
 C3711 C 0.74945 1.15605 0.39448
 C3712 C 0.72870 1.14666 0.40342
 H3713 H 0.78566 1.06743 0.36082
 H3714 H 0.75013 1.05090 0.37757
 H3715 H 0.75244 1.17462 0.39605
 H3716 H 0.71627 1.15826 0.41162
 H3717 H 0.79036 1.16958 0.37617
 H3718 H 0.81089 1.10114 0.35273
 H3719 H 0.71325 1.05570 0.39883
 H3720 H 0.69056 1.12470 0.41867
 C3721 C 0.76421 0.61589 0.88578
 C3722 C 0.76844 0.63993 0.88732
 C3723 C 0.78913 0.64901 0.87806
 C3724 C 0.80530 0.63431 0.86688
 C3725 C 0.80070 0.61025 0.86531
 C3726 C 0.78026 0.60091 0.87496
 C3727 C 0.74250 0.60624 0.89558
 C3728 C 0.73839 0.58217 0.89435
 C3729 C 0.71771 0.57310 0.90372
 C3730 C 0.70093 0.58797 0.91382
 C3731 C 0.70539 0.61213 0.91474
 C3732 C 0.72621 0.62131 0.90586
 C3733 C 0.77551 0.57691 0.87401
 C3734 C 0.75499 0.56768 0.88365
 C3735 C 0.75182 0.65443 0.89794
 C3736 C 0.73100 0.64529 0.90694
 H3737 H 0.78777 0.56515 0.86578
 H3738 H 0.75202 0.54907 0.88257
 H3739 H 0.75486 0.67302 0.89917
 H3740 H 0.71857 0.65710 0.91485
 H3741 H 0.79244 0.66758 0.87916
 H3742 H 0.81312 0.59880 0.85686
 H3743 H 0.71476 0.55446 0.90320
 H3744 H 0.69252 0.62390 0.92197
 C3745 C 1.26403 0.88378 1.11502
 C3746 C 1.26822 0.85970 1.11367
 C3747 C 1.28889 0.85064 1.12308
 C3748 C 1.30500 0.86544 1.13421
 C3749 C 1.30037 0.88949 1.13565
 C3750 C 1.28002 0.89880 1.12585
 C3751 C 1.24247 0.89345 1.10492
 C3752 C 1.23850 0.91756 1.10587
 C3753 C 1.21803 0.92669 1.09615
 C3754 C 1.20127 0.91184 1.08599
 C3755 C 1.20555 0.88763 1.08535
 C3756 C 1.22622 0.87839 1.09457
 C3757 C 1.27540 0.92282 1.12656
 C3758 C 1.25505 0.93206 1.11662
 C3759 C 1.25162 0.84520 1.10300
 C3760 C 1.23091 0.85437 1.09374
 H3761 H 1.28765 0.93459 1.13480
 H3762 H 1.25217 0.95070 1.11750
 H3763 H 1.25461 0.82660 1.10190
 H3764 H 1.21850 0.84257 1.08577
 H3765 H 1.29228 0.83209 1.12203
 H3766 H 1.31280 0.90102 1.14399
 H3767 H 1.21523 0.94535 1.09642
 H3768 H 1.19269 0.87590 1.07805
 C3769 C 1.26335 0.38172 0.61481
 C3770 C 1.26749 0.35763 0.61374
 C3771 C 1.28803 0.34860 0.62351
 C3772 C 1.30404 0.36346 0.63472
 C3773 C 1.29940 0.38753 0.63593
 C3774 C 1.27922 0.39679 0.62576
 C3775 C 1.24199 0.39138 0.60425
 C3776 C 1.23812 0.41552 0.60490
 C3777 C 1.21783 0.42463 0.59482
 C3778 C 1.20107 0.40977 0.58467
 C3779 C 1.20530 0.38554 0.58422
 C3780 C 1.22583 0.37630 0.59379
 C3781 C 1.27469 0.42084 0.62615
 C3782 C 1.25455 0.43006 0.61578
 C3783 C 1.25101 0.34309 0.60293
 C3784 C 1.23046 0.35225 0.59326
 H3785 H 1.28686 0.43265 0.63447
 H3786 H 1.25174 0.44872 0.61642
 H3787 H 1.25396 0.32447 0.60203
 H3788 H 1.21814 0.34042 0.58521
 H3789 H 1.29146 0.33005 0.62260
 H3790 H 1.31176 0.39912 0.64430
 H3791 H 1.21513 0.44331 0.59490
 H3792 H 1.19247 0.37380 0.57688
 C3793 C 0.76556 0.88463 0.61322
 C3794 C 0.76962 0.86055 0.61173
 C3795 C 0.79026 0.85133 0.62101
 C3796 C 0.80652 0.86594 0.63220
 C3797 C 0.80209 0.89004 0.63369
 C3798 C 0.78172 0.89951 0.62401
 C3799 C 0.74389 0.89441 0.60344
 C3800 C 0.73994 0.91851 0.60464
 C3801 C 0.71929 0.92772 0.59530
 C3802 C 0.70238 0.91294 0.58525
 C3803 C 0.70668 0.88874 0.58439
 C3804 C 0.72747 0.87944 0.59323
 C3805 C 0.77714 0.92355 0.62492
 C3806 C 0.75667 0.93290 0.61528
 C3807 C 0.75287 0.84615 0.60116
 C3808 C 0.73209 0.85542 0.59218
 H3809 H 0.78950 0.93524 0.63312
 H3810 H 0.75383 0.95154 0.61634
 H3811 H 0.75578 0.82754 0.59996
 H3812 H 0.71956 0.84369 0.58432
 H3813 H 0.79343 0.83274 0.61997
 H3814 H 0.81459 0.90141 0.64215
 H3815 H 0.71647 0.94637 0.59579
 H3816 H 0.69371 0.87704 0.57723
 C3817 C 0.76452 0.38577 1.11290
 C3818 C 0.76877 0.36174 1.11124
 C3819 C 0.78944 0.35262 1.12049
 C3820 C 0.80560 0.36725 1.13181
 C3821 C 0.80101 0.39132 1.13344
 C3822 C 0.78056 0.40071 1.12381
 C3823 C 0.74275 0.39543 1.10322
 C3824 C 0.73856 0.41948 1.10464
 C3825 C 0.71779 0.42855 1.09541
 C3826 C 0.70103 0.41369 1.08524
 C3827 C 0.70557 0.38955 1.08417
 C3828 C 0.72646 0.38038 1.09290
 C3829 C 0.77575 0.42469 1.12492
 C3830 C 0.75517 0.43393 1.11539
 C3831 C 0.75216 0.34727 1.10056
 C3832 C 0.73129 0.35642 1.09166
 H3833 H 0.78800 0.43642 1.13321
 H3834 H 0.75215 0.45253 1.11661
 H3835 H 0.75522 0.32869 1.09922
 H3836 H 0.71887 0.34463 1.08371
 H3837 H 0.79270 0.33405 1.11934
 H3838 H 0.81340 0.40271 1.14202
 H3839 H 0.71476 0.44717 1.09608
 H3840 H 0.69271 0.37778 1.07692
 C3841 C 0.73549 1.11510 1.11537
 C3842 C 0.73096 1.13901 1.11267
 C3843 C 0.71001 1.14822 1.12119
 C3844 C 0.69398 1.13382 1.13292
 C3845 C 0.69887 1.10993 1.13566
 C3846 C 0.71950 1.10041 1.12664
 C3847 C 0.75746 1.10531 1.10632
 C3848 C 0.76179 1.08134 1.10854
 C3849 C 0.78260 1.07208 1.09962
 C3850 C 0.79929 1.08670 1.08901
 C3851 C 0.79471 1.11082 1.08742
 C3852 C 0.77373 1.12013 1.09569
 C3853 C 0.72451 1.07653 1.12869
 C3854 C 0.74522 1.06713 1.11964
 C3855 C 0.74760 1.15325 1.10174
 C3856 C 0.76869 1.14400 1.09354
 H3857 H 0.71228 1.06499 1.13728
 H3858 H 0.74835 1.04860 1.12150
 H3859 H 0.74435 1.17173 1.09964
 H3860 H 0.78111 1.15561 1.08533
 H3861 H 0.70643 1.16666 1.11925
 H3862 H 0.68651 1.09876 1.14458
 H3863 H 0.78562 1.05348 1.10073
 H3864 H 0.80753 1.12248 1.07993
 C3865 C 0.73635 0.61469 0.61609
 C3866 C 0.73194 0.61362 0.64016
 C3867 C 0.71135 0.62339 0.64895
 C3868 C 0.69550 0.63460 0.63390
 C3869 C 0.70034 0.63577 0.60985
 C3870 C 0.72063 0.62560 0.60080
 C3871 C 0.75786 0.60423 0.60671
 C3872 C 0.76208 0.60495 0.58261
 C3873 C 0.78257 0.59500 0.57379
 C3874 C 0.79913 0.58490 0.58893
 C3875 C 0.79455 0.58442 0.61311
 C3876 C 0.77386 0.59386 0.62205
 C3877 C 0.72548 0.62602 0.57679
 C3878 C 0.74580 0.61575 0.56783
 C3879 C 0.74825 0.60287 0.65494
 C3880 C 0.76893 0.59328 0.64606
 H3881 H 0.71346 0.63431 0.56480
 H3882 H 0.74887 0.61644 0.54919
 H3883 H 0.74508 0.60199 0.67355
 H3884 H 0.78113 0.58530 0.65808
 H3885 H 0.70780 0.62256 0.66751
 H3886 H 0.68812 0.64420 0.59814
 H3887 H 0.78557 0.59513 0.55513
 H3888 H 0.80724 0.57715 0.62506
 C3889 C 0.23529 1.11376 0.61639
 C3890 C 0.21970 1.12494 0.60119
 C3891 C 0.19916 1.13464 0.61021
 C3892 C 0.19395 1.13270 0.63413
 C3893 C 0.20961 1.12111 0.64908
 C3894 C 0.23048 1.11186 0.64034
 C3895 C 0.25715 1.10396 0.60708
 C3896 C 0.27307 1.09340 0.62237
 C3897 C 0.29406 1.08458 0.61350
 C3898 C 0.29901 1.08575 0.58940
 C3899 C 0.28253 1.09606 0.57430
 C3900 C 0.26176 1.10546 0.58308
 C3901 C 0.24672 1.10093 0.65506
 C3902 C 0.26773 1.09200 0.64626
 C3903 C 0.22495 1.12618 0.57728
 C3904 C 0.24556 1.11647 0.56836
 H3905 H 0.24325 1.09942 0.67358
 H3906 H 0.27985 1.08386 0.65824
 H3907 H 0.21302 1.13469 0.56536
 H3908 H 0.24892 1.11777 0.54981
 H3909 H 0.18708 1.14339 0.59859
 H3910 H 0.20577 1.11972 0.66754
 H3911 H 0.30666 1.07718 0.62547
 H3912 H 0.28578 1.09673 0.55570
 C3913 C 0.23772 0.61616 1.11730
 C3914 C 0.22168 0.62678 1.10214
 C3915 C 0.20142 0.63692 1.11139
 C3916 C 0.19699 0.63606 1.13556
 C3917 C 0.21321 0.62514 1.15045
 C3918 C 0.23370 0.61537 1.14144
 C3919 C 0.25920 0.60576 1.10773
 C3920 C 0.27548 0.59563 1.12295
 C3921 C 0.29609 0.58619 1.11382
 C3922 C 0.30036 0.58643 1.08958
 C3923 C 0.28356 0.59635 1.07456
 C3924 C 0.26310 0.60626 1.08357
 C3925 C 0.25031 0.60490 1.15610
 C3926 C 0.27090 0.59531 1.14703
 C3927 C 0.22621 0.62698 1.07805
 C3928 C 0.24651 0.61679 1.06891
 H3929 H 0.24742 0.60422 1.17477
 H3930 H 0.28331 0.58753 1.15896
 H3931 H 0.21396 0.63504 1.06615
 H3932 H 0.24932 0.61732 1.05023
 H3933 H 0.18897 0.64515 1.09979
 H3934 H 0.21006 0.62454 1.16908
 H3935 H 0.30896 0.57907 1.12568
 H3936 H 0.28635 0.59635 1.05587
 C3937 C 0.73330 0.88843 0.88707
 C3938 C 0.71759 0.87738 0.90225
 C3939 C 0.69698 0.86784 0.89317
 C3940 C 0.69187 0.86977 0.86921
 C3941 C 0.70763 0.88128 0.85433
 C3942 C 0.72853 0.89037 0.86312
 C3943 C 0.75527 0.89797 0.89640
 C3944 C 0.77129 0.90833 0.88110
 C3945 C 0.79238 0.91687 0.88995
 C3946 C 0.79736 0.91566 0.91404
 C3947 C 0.78083 0.90549 0.92916
 C3948 C 0.75991 0.89636 0.92039
 C3949 C 0.74487 0.90112 0.84840
 C3950 C 0.76596 0.90981 0.85722
 C3951 C 0.72285 0.87606 0.92616
 C3952 C 0.74359 0.88552 0.93510
 H3953 H 0.74142 0.90266 0.82988
 H3954 H 0.77818 0.91782 0.84524
 H3955 H 0.71084 0.86766 0.93806
 H3956 H 0.74696 0.88415 0.95364
 H3957 H 0.68485 0.85912 0.90473
 H3958 H 0.70390 0.88263 0.83583
 H3959 H 0.80505 0.92410 0.87795
 H3960 H 0.78414 0.90474 0.94775
 C3961 C 0.73424 0.38472 0.38632
 C3962 C 0.71833 0.39960 0.37515
 C3963 C 0.69781 0.39022 0.36571
 C3964 C 0.69294 0.36628 0.36796
 C3965 C 0.70889 0.35169 0.37959
 C3966 C 0.72974 0.36077 0.38851
 C3967 C 0.75611 0.39438 0.39578
 C3968 C 0.77235 0.37938 0.40623
 C3969 C 0.79333 0.38855 0.41475
 C3970 C 0.79794 0.41269 0.41350
 C3971 C 0.78118 0.42749 0.40321
 C3972 C 0.76042 0.41839 0.39404
 C3973 C 0.74631 0.34635 0.39934
 C3974 C 0.76733 0.35547 0.40790
 C3975 C 0.72329 0.42353 0.37365
 C3976 C 0.74390 0.43279 0.38308
 H3977 H 0.74308 0.32783 0.40106
 H3978 H 0.77971 0.34372 0.41598
 H3979 H 0.71112 0.43521 0.36515
 H3980 H 0.74701 0.45135 0.38160
 H3981 H 0.68550 0.40153 0.35689
 H3982 H 0.70532 0.33321 0.38116
 H3983 H 0.80615 0.37676 0.42202
 H3984 H 0.78417 0.44611 0.40243
 C3985 C 0.23682 0.88343 0.38312
 C3986 C 0.23286 0.88446 0.35897
 C3987 C 0.21230 0.87492 0.34983
 C3988 C 0.19598 0.86403 0.36460
 C3989 C 0.20039 0.86286 0.38875
 C3990 C 0.22070 0.87277 0.39814
 C3991 C 0.25827 0.89374 0.39286
 C3992 C 0.26206 0.89311 0.41704
 C3993 C 0.28243 0.90304 0.42622
 C3994 C 0.29924 0.91313 0.41136
 C3995 C 0.29512 0.91343 0.38708
 C3996 C 0.27459 0.90397 0.37779
 C3997 C 0.22515 0.87238 0.42225
 C3998 C 0.24542 0.88248 0.43155
 C3999 C 0.24953 0.89498 0.34445
 C4000 C 0.27011 0.90446 0.35369
 H4001 H 0.21282 0.86427 0.43404
 H4002 H 0.24815 0.88185 0.45024
 H4003 H 0.24670 0.89582 0.32578
 H4004 H 0.28257 0.91232 0.34187
 H4005 H 0.20914 0.87576 0.33120
 H4006 H 0.18784 0.85467 0.40025
 H4007 H 0.28511 0.90299 0.44493
 H4008 H 0.30802 0.92066 0.37534
 C4009 C 0.23369 0.38728 0.88791
 C4010 C 0.22920 0.36337 0.89045
 C4011 C 0.20835 0.35417 0.88173
 C4012 C 0.19234 0.36854 0.86991
 C4013 C 0.19708 0.39250 0.86749
 C4014 C 0.21767 0.40203 0.87671
 C4015 C 0.25576 0.39698 0.89683
 C4016 C 0.26020 0.42092 0.89458
 C4017 C 0.28124 0.43003 0.90317
 C4018 C 0.29805 0.41525 0.91343
 C4019 C 0.29330 0.39118 0.91510
 C4020 C 0.27212 0.38203 0.90717
 C4021 C 0.22272 0.42591 0.87476
 C4022 C 0.24354 0.43522 0.88369
 C4023 C 0.24586 0.34904 0.90123
 C4024 C 0.26704 0.35819 0.90931
 H4025 H 0.21048 0.43751 0.86624
 H4026 H 0.24674 0.45373 0.88183
 H4027 H 0.24262 0.33055 0.90321
 H4028 H 0.27952 0.34650 0.91733
 H4029 H 0.20498 0.33565 0.88339
 H4030 H 0.18480 0.40366 0.85844
 H4031 H 0.28441 0.44860 0.90199
 H4032 H 0.30619 0.37940 0.92229
   
