data_POSCAR
  _audit_creation_date              2014-09-24
  _audit_creation_method            'ToBaCCo'
  _symmetry_space_group_name_H-M    'P1'
  _symmetry_Int_Tables_number       1
  _symmetry_cell_setting            triclinic
  loop_
  _symmetry_equiv_pos_as_xyz
 x,y,z
_cell_length_a 60.6481
_cell_length_b 39.9232
_cell_length_c 42.2423
_cell_angle_alpha 89.671700
_cell_angle_beta 89.974600
_cell_angle_gamma 90.021500
loop_
  _atom_site_label
  _atom_site_type_symbol
  _atom_site_fract_x
  _atom_site_fract_y
  _atom_site_fract_z
C1 C -0.00005 -0.00355 0.10208
 C2 C 0.00108 0.00500 -0.10533
 C3 C -0.05189 -0.05430 0.04438
 C4 C -0.05130 0.05444 0.04719
 C5 C -0.05092 -0.05114 -0.05203
 C6 C 0.05187 -0.04950 -0.05258
 C7 C 0.05169 0.05359 -0.05092
 C8 C 0.04988 -0.05298 0.05001
 C9 C -0.04942 0.05878 -0.04936
 C10 C 0.05045 0.05061 0.05251
 O11 O -0.03068 -0.05891 -0.05905
 O12 O -0.05652 -0.02870 -0.03174
 O13 O -0.02904 0.06584 -0.05514
 O14 O -0.05599 0.03515 -0.03054
 O15 O 0.03014 0.05757 0.05911
 O16 O 0.05665 0.03029 0.03050
 O17 O 0.00116 0.03276 -0.08983
 O18 O 0.00080 -0.02412 -0.09190
 O19 O -0.00022 0.02562 0.08883
 O20 O -0.00068 -0.03141 0.08689
 O21 O 0.03164 -0.05624 -0.06057
 O22 O 0.05714 -0.02927 -0.03004
 O23 O -0.03181 -0.06212 0.05189
 O24 O -0.05725 -0.03103 0.02447
 O25 O 0.02952 -0.06055 0.05578
 O26 O 0.05626 -0.03112 0.02925
 O27 O 0.03148 0.06134 -0.05713
 O28 O 0.05743 0.03176 -0.02966
 O29 O 0.00069 0.09290 0.04946
 O30 O 0.00244 0.09617 -0.04706
 O31 O 0.00108 -0.09120 -0.05290
 O32 O -0.00021 -0.09488 0.04258
 O33 O -0.01925 -0.04288 -0.00340
 O34 O -0.01870 0.04543 -0.00056
 O35 O 0.01861 -0.04304 -0.00238
 O36 O -0.02058 -0.00039 0.04024
 O37 O -0.05688 0.03277 0.02610
 O38 O -0.03115 0.06091 0.05540
 O39 O 0.01961 -0.00094 0.04131
 O40 O 0.02083 0.00211 -0.04338
 O41 O 0.01908 0.04459 0.00043
 O42 O -0.01946 0.00266 -0.04415
 Zr43 Zr -0.00033 0.04090 0.04100
 Zr44 Zr 0.00036 -0.03927 -0.04404
 Zr45 Zr -0.03755 0.00165 -0.00240
 Zr46 Zr -0.00078 -0.04221 0.03825
 Zr47 Zr 0.00085 0.04372 -0.04114
 Zr48 Zr 0.03781 0.00064 -0.00048
 H49 H 0.02748 -0.06384 -0.00262
 H50 H -0.03060 -0.00092 0.05873
 H51 H 0.02810 0.06524 0.00108
 H52 H -0.02919 0.00364 -0.06293
 H53 H -0.00310 0.10361 0.02901
 H54 H 0.00139 0.10551 -0.02548
 H55 H -0.00567 -0.10342 0.02209
 H56 H 0.00226 -0.10202 -0.03185
 C57 C 0.25333 0.25458 0.14549
 C58 C 0.24756 0.24665 0.35271
 C59 C 0.19998 0.30620 0.19868
 C60 C 0.20132 0.19560 0.19633
 C61 C 0.19657 0.30245 0.29566
 C62 C 0.29832 0.30281 0.30448
 C63 C 0.29939 0.19856 0.30233
 C64 C 0.30105 0.30607 0.20235
 C65 C 0.19778 0.19373 0.29323
 C66 C 0.30312 0.20214 0.20049
 O67 O 0.21649 0.30961 0.30438
 O68 O 0.19154 0.28052 0.27443
 O69 O 0.21784 0.18682 0.30152
 O70 O 0.19230 0.21652 0.27289
 O71 O 0.28323 0.19460 0.19186
 O72 O 0.30794 0.22283 0.22282
 O73 O 0.24776 0.21875 0.33758
 O74 O 0.24718 0.27576 0.33934
 O75 O 0.25314 0.22556 0.15910
 O76 O 0.25225 0.28242 0.16078
 O77 O 0.27779 0.30902 0.31048
 O78 O 0.30515 0.28240 0.28299
 O79 O 0.22035 0.31403 0.19380
 O80 O 0.19339 0.28244 0.21738
 O81 O 0.28091 0.31288 0.19496
 O82 O 0.30694 0.28421 0.22343
 O83 O 0.27904 0.19049 0.30758
 O84 O 0.30580 0.22076 0.28192
 O85 O 0.25346 0.15882 0.19834
 O86 O 0.25006 0.15520 0.29352
 O87 O 0.24775 0.34282 0.29984
 O88 O 0.25078 0.34602 0.20346
 O89 O 0.23003 0.29433 0.24916
 O90 O 0.23118 0.20628 0.24661
 O91 O 0.26783 0.29513 0.25162
 O92 O 0.23091 0.25159 0.20563
 O93 O 0.19430 0.21775 0.21617
 O94 O 0.22189 0.18947 0.19061
 O95 O 0.27129 0.25288 0.20809
 O96 O 0.26849 0.24980 0.29276
 O97 O 0.26904 0.20763 0.24925
 O98 O 0.22821 0.24878 0.28984
 Zr99 Zr 0.25166 0.21075 0.20698
 Zr100 Zr 0.24784 0.29078 0.29142
 Zr101 Zr 0.21184 0.24983 0.24650
 Zr102 Zr 0.25037 0.29352 0.20938
 Zr103 Zr 0.24878 0.20783 0.28899
 Zr104 Zr 0.28744 0.25199 0.25161
 H105 H 0.27639 0.31621 0.25264
 H106 H 0.22168 0.25197 0.18632
 H107 H 0.27820 0.18712 0.24938
 H108 H 0.21790 0.24793 0.30798
 H109 H 0.25415 0.14809 0.21947
 H110 H 0.24504 0.14640 0.27290
 H111 H 0.24920 0.35530 0.22499
 H112 H 0.24429 0.35337 0.27920
 C113 C 0.49846 -0.00446 0.10325
 C114 C 0.50033 0.00396 -0.10363
 C115 C 0.55014 0.05311 0.05121
 C116 C 0.55005 -0.05657 0.04906
 C117 C 0.55176 0.05577 -0.04668
 C118 C 0.45061 0.05394 -0.05214
 C119 C 0.44940 -0.04951 -0.05391
 C120 C 0.44823 0.05037 0.05034
 C121 C 0.55200 -0.05321 -0.04863
 C122 C 0.44789 -0.05262 0.04843
 O123 O 0.53149 0.06329 -0.05297
 O124 O 0.55753 0.03237 -0.02692
 O125 O 0.53178 -0.05995 -0.05675
 O126 O 0.55725 -0.03150 -0.02731
 O127 O 0.46804 -0.06045 0.05571
 O128 O 0.44273 -0.03090 0.02685
 O129 O 0.50046 -0.02521 -0.09041
 O130 O 0.50101 0.03181 -0.08844
 O131 O 0.49860 -0.03237 0.08814
 O132 O 0.49872 0.02467 0.08994
 O133 O 0.47097 0.06127 -0.05768
 O134 O 0.44403 0.03217 -0.03141
 O135 O 0.52976 0.05993 0.05762
 O136 O 0.55650 0.03104 0.03083
 O137 O 0.46833 0.05714 0.05848
 O138 O 0.44282 0.03009 0.02796
 O139 O 0.46966 -0.05743 -0.06053
 O140 O 0.44364 -0.02868 -0.03224
 O141 O 0.49770 -0.09578 0.04399
 O142 O 0.50026 -0.09241 -0.05125
 O143 O 0.50025 0.09530 -0.04502
 O144 O 0.49845 0.09179 0.05126
 O145 O 0.51926 0.04396 0.00182
 O146 O 0.51902 -0.04427 -0.00090
 O147 O 0.48140 0.04401 0.00048
 O148 O 0.51939 -0.00174 0.04241
 O149 O 0.55632 -0.03324 0.02959
 O150 O 0.52957 -0.06392 0.05464
 O151 O 0.47912 -0.00152 0.04154
 O152 O 0.48063 0.00147 -0.04319
 O153 O 0.48109 -0.04380 -0.00213
 O154 O 0.52081 0.00110 -0.04171
 Zr155 Zr 0.49921 -0.04316 0.03956
 Zr156 Zr 0.50091 0.04271 -0.03985
 Zr157 Zr 0.53790 -0.00019 0.00098
 Zr158 Zr 0.49939 0.03991 0.04215
 Zr159 Zr 0.50059 -0.04042 -0.04262
 Zr160 Zr 0.46244 0.00037 -0.00147
 H161 H 0.47256 0.06484 0.00064
 H162 H 0.52898 -0.00237 0.06134
 H163 H 0.47200 -0.06438 -0.00274
 H164 H 0.53082 0.00174 -0.06020
 H165 H 0.50373 -0.10460 0.02394
 H166 H 0.49757 -0.10308 -0.03042
 H167 H 0.49890 0.10278 0.03023
 H168 H 0.50432 0.10427 -0.02404
 C169 C 0.75339 0.25408 0.14671
 C170 C 0.74821 0.24557 0.35341
 C171 C 0.70032 0.30543 0.19985
 C172 C 0.70174 0.19510 0.19697
 C173 C 0.69705 0.30108 0.29700
 C174 C 0.79879 0.30155 0.30573
 C175 C 0.80010 0.19774 0.30343
 C176 C 0.80153 0.30522 0.20313
 C177 C 0.69837 0.19297 0.29443
 C178 C 0.80359 0.20197 0.20086
 O179 O 0.71697 0.30833 0.30570
 O180 O 0.69205 0.27938 0.27556
 O181 O 0.71845 0.18600 0.30263
 O182 O 0.69288 0.21558 0.27391
 O183 O 0.78371 0.19441 0.19224
 O184 O 0.80843 0.22224 0.22350
 O185 O 0.74844 0.21767 0.33828
 O186 O 0.74775 0.27470 0.34012
 O187 O 0.75334 0.22497 0.16001
 O188 O 0.75248 0.28196 0.16184
 O189 O 0.77825 0.30784 0.31165
 O190 O 0.80563 0.28138 0.28405
 O191 O 0.72068 0.31352 0.19507
 O192 O 0.69382 0.28148 0.21839
 O193 O 0.78138 0.31221 0.19589
 O194 O 0.80743 0.28334 0.22418
 O195 O 0.77968 0.18967 0.30839
 O196 O 0.80636 0.21995 0.28283
 O197 O 0.75404 0.15810 0.19917
 O198 O 0.75071 0.15418 0.29390
 O199 O 0.74828 0.34194 0.30056
 O200 O 0.75122 0.34544 0.20466
 O201 O 0.73045 0.29353 0.25020
 O202 O 0.73167 0.20535 0.24742
 O203 O 0.76836 0.29436 0.25259
 O204 O 0.73139 0.25091 0.20664
 O205 O 0.69478 0.21711 0.21698
 O206 O 0.72231 0.18884 0.19128
 O207 O 0.77168 0.25223 0.20903
 O208 O 0.76900 0.24887 0.29354
 O209 O 0.76961 0.20676 0.24998
 O210 O 0.72881 0.24779 0.29068
 Zr211 Zr 0.75211 0.21002 0.20779
 Zr212 Zr 0.74834 0.28986 0.29233
 Zr213 Zr 0.71235 0.24893 0.24747
 Zr214 Zr 0.75079 0.29292 0.21043
 Zr215 Zr 0.74938 0.20683 0.28972
 Zr216 Zr 0.78795 0.25117 0.25246
 H217 H 0.77695 0.31540 0.25369
 H218 H 0.72209 0.25137 0.18740
 H219 H 0.77884 0.18631 0.25003
 H220 H 0.71854 0.24688 0.30887
 H221 H 0.75488 0.14738 0.22029
 H222 H 0.74514 0.14550 0.27352
 H223 H 0.75046 0.35465 0.22631
 H224 H 0.74389 0.35235 0.28022
 C225 C 0.00054 0.49687 0.10342
 C226 C -0.00086 0.50520 -0.10393
 C227 C -0.05042 0.44309 0.04723
 C228 C -0.05224 0.55266 0.04997
 C229 C -0.05132 0.44655 -0.04878
 C230 C 0.05122 0.45278 -0.05230
 C231 C 0.04935 0.55610 -0.05030
 C232 C 0.05064 0.44918 0.05025
 C233 C -0.05182 0.55686 -0.04641
 C234 C 0.04963 0.55302 0.05264
 O235 O -0.03105 0.44008 -0.05673
 O236 O -0.05711 0.46870 -0.02833
 O237 O -0.03164 0.56474 -0.05265
 O238 O -0.05778 0.53288 -0.02753
 O239 O 0.02928 0.55919 0.05972
 O240 O 0.05591 0.53285 0.03054
 O241 O -0.00119 0.53297 -0.08845
 O242 O -0.00053 0.47611 -0.09046
 O243 O -0.00024 0.52604 0.09024
 O244 O 0.00029 0.46904 0.08816
 O245 O 0.03108 0.44516 -0.05983
 O246 O 0.05666 0.47329 -0.03012
 O247 O -0.03005 0.43624 0.05337
 O248 O -0.05693 0.46657 0.02817
 O249 O 0.03048 0.44099 0.05622
 O250 O 0.05661 0.47130 0.02944
 O251 O 0.02901 0.56309 -0.05638
 O252 O 0.05583 0.53440 -0.02946
 O253 O -0.00090 0.59327 0.05065
 O254 O -0.00068 0.59642 -0.04577
 O255 O 0.00126 0.40918 -0.05159
 O256 O 0.00173 0.40574 0.04443
 O257 O -0.01914 0.45660 -0.00145
 O258 O -0.02018 0.54475 0.00140
 O259 O 0.01876 0.45802 -0.00153
 O260 O -0.02066 0.49907 0.04225
 O261 O -0.05777 0.53063 0.02919
 O262 O -0.03210 0.55998 0.05755
 O263 O 0.01961 0.50027 0.04227
 O264 O 0.01960 0.50319 -0.04242
 O265 O 0.01766 0.54554 0.00135
 O266 O -0.02080 0.50206 -0.04211
 Zr267 Zr -0.00113 0.54120 0.04241
 Zr268 Zr -0.00020 0.46104 -0.04260
 Zr269 Zr -0.03835 0.50020 0.00019
 Zr270 Zr -0.00005 0.45829 0.03951
 Zr271 Zr -0.00112 0.54393 -0.03972
 Zr272 Zr 0.03724 0.50239 0.00003
 H273 H 0.02793 0.43753 -0.00194
 H274 H -0.03041 0.49802 0.06102
 H275 H 0.02629 0.56658 0.00180
 H276 H -0.03077 0.50257 -0.06065
 H277 H -0.00537 0.60372 0.03035
 H278 H -0.00111 0.60575 -0.02414
 H279 H -0.00275 0.39666 0.02366
 H280 H 0.00248 0.39834 -0.03056
 C281 C 0.25431 0.75451 0.14656
 C282 C 0.24699 0.74725 0.35327
 C283 C 0.20166 0.80781 0.19814
 C284 C 0.20132 0.69742 0.19619
 C285 C 0.19722 0.80459 0.29509
 C286 C 0.29877 0.80167 0.30599
 C287 C 0.29819 0.69674 0.30440
 C288 C 0.30347 0.80308 0.20410
 C289 C 0.19670 0.69603 0.29322
 C290 C 0.30314 0.70039 0.20264
 O291 O 0.21715 0.81125 0.30412
 O292 O 0.19212 0.78275 0.27383
 O293 O 0.21658 0.68839 0.30186
 O294 O 0.19181 0.71892 0.27264
 O295 O 0.28326 0.69360 0.19345
 O296 O 0.30800 0.72073 0.22522
 O297 O 0.24674 0.71928 0.33829
 O298 O 0.24715 0.77631 0.33981
 O299 O 0.25368 0.72550 0.16005
 O300 O 0.25388 0.78254 0.16147
 O301 O 0.27829 0.80875 0.31139
 O302 O 0.30550 0.78057 0.28504
 O303 O 0.22221 0.81499 0.19325
 O304 O 0.19473 0.78448 0.21702
 O305 O 0.28361 0.81091 0.19550
 O306 O 0.30821 0.78160 0.22603
 O307 O 0.27767 0.68938 0.30915
 O308 O 0.30513 0.71880 0.28423
 O309 O 0.25300 0.65881 0.19926
 O310 O 0.24820 0.65545 0.29462
 O311 O 0.24850 0.84318 0.30066
 O312 O 0.25386 0.84636 0.20493
 O313 O 0.23115 0.79525 0.24922
 O314 O 0.23082 0.70703 0.24707
 O315 O 0.26892 0.79467 0.25263
 O316 O 0.23185 0.75248 0.20610
 O317 O 0.19449 0.71990 0.21583
 O318 O 0.22185 0.69048 0.19095
 O319 O 0.27211 0.75213 0.20946
 O320 O 0.26825 0.74939 0.29408
 O321 O 0.26861 0.70697 0.25060
 O322 O 0.22810 0.74987 0.29017
 Zr323 Zr 0.25178 0.71077 0.20790
 Zr324 Zr 0.24833 0.79121 0.29193
 Zr325 Zr 0.21228 0.75133 0.24649
 Zr326 Zr 0.25204 0.79381 0.20989
 Zr327 Zr 0.24796 0.70809 0.28985
 Zr328 Zr 0.28763 0.75063 0.25343
 H329 H 0.27790 0.81534 0.25365
 H330 H 0.22274 0.75304 0.18669
 H331 H 0.27744 0.68612 0.25094
 H332 H 0.21759 0.74950 0.30809
 H333 H 0.25283 0.64802 0.22039
 H334 H 0.24348 0.64677 0.27380
 H335 H 0.24793 0.85548 0.22492
 H336 H 0.25024 0.85394 0.27967
 C337 C 0.49959 0.49558 0.10361
 C338 C 0.49890 0.50554 -0.10316
 C339 C 0.54972 0.55543 0.05067
 C340 C 0.55118 0.44534 0.04713
 C341 C 0.54983 0.55886 -0.04673
 C342 C 0.44869 0.55300 -0.04986
 C343 C 0.44907 0.45016 -0.05241
 C344 C 0.44793 0.54892 0.05265
 C345 C 0.55165 0.44952 -0.04936
 C346 C 0.45003 0.44528 0.05014
 O347 O 0.52948 0.56577 -0.05297
 O348 O 0.55629 0.53557 -0.02745
 O349 O 0.53152 0.44207 -0.05709
 O350 O 0.55709 0.47161 -0.02856
 O351 O 0.47036 0.43825 0.05615
 O352 O 0.44354 0.46724 0.02952
 O353 O 0.49964 0.47634 -0.09009
 O354 O 0.49914 0.53333 -0.08784
 O355 O 0.50017 0.46786 0.08822
 O356 O 0.49921 0.52483 0.09056
 O357 O 0.46886 0.56110 -0.05593
 O358 O 0.44272 0.53096 -0.02899
 O359 O 0.52932 0.56151 0.05762
 O360 O 0.55616 0.53369 0.03005
 O361 O 0.46804 0.55642 0.06018
 O362 O 0.44247 0.52850 0.03044
 O363 O 0.46936 0.44320 -0.05981
 O364 O 0.44329 0.47018 -0.03008
 O365 O 0.49997 0.40488 0.04402
 O366 O 0.50035 0.40896 -0.05168
 O367 O 0.49768 0.59643 -0.04372
 O368 O 0.49752 0.59220 0.05232
 O369 O 0.51832 0.54543 0.00203
 O370 O 0.51950 0.45734 -0.00145
 O371 O 0.48042 0.54401 0.00181
 O372 O 0.51986 0.49960 0.04240
 O373 O 0.55713 0.46935 0.02826
 O374 O 0.53098 0.43727 0.05314
 O375 O 0.47956 0.49821 0.04262
 O376 O 0.47968 0.50192 -0.04203
 O377 O 0.48152 0.45635 -0.00145
 O378 O 0.51996 0.50300 -0.04175
 Zr379 Zr 0.50040 0.45754 0.03951
 Zr380 Zr 0.49940 0.54384 -0.03912
 Zr381 Zr 0.53769 0.50201 0.00047
 Zr382 Zr 0.49911 0.54043 0.04288
 Zr383 Zr 0.50030 0.46084 -0.04246
 Zr384 Zr 0.46207 0.49967 0.00026
 H385 H 0.47125 0.56451 0.00234
 H386 H 0.52971 0.49906 0.06107
 H387 H 0.47282 0.43538 -0.00203
 H388 H 0.52974 0.50411 -0.06048
 H389 H 0.50482 0.39627 0.02325
 H390 H 0.49856 0.39794 -0.03082
 H391 H 0.49696 0.60330 0.03135
 H392 H 0.50225 0.60535 -0.02293
 C393 C 0.75388 0.75462 0.14654
 C394 C 0.74675 0.74785 0.35325
 C395 C 0.70102 0.80746 0.19768
 C396 C 0.70106 0.69763 0.19623
 C397 C 0.69680 0.80450 0.29533
 C398 C 0.79835 0.80203 0.30611
 C399 C 0.79802 0.69770 0.30471
 C400 C 0.80283 0.80327 0.20364
 C401 C 0.69650 0.69648 0.29362
 C402 C 0.80286 0.70127 0.20241
 O403 O 0.71673 0.81135 0.30425
 O404 O 0.69173 0.78280 0.27394
 O405 O 0.71640 0.68889 0.30223
 O406 O 0.69156 0.71912 0.27283
 O407 O 0.78299 0.69432 0.19329
 O408 O 0.80769 0.72142 0.22515
 O409 O 0.74655 0.71983 0.33834
 O410 O 0.74683 0.77688 0.33973
 O411 O 0.75331 0.72564 0.16011
 O412 O 0.75336 0.78270 0.16137
 O413 O 0.77787 0.80920 0.31141
 O414 O 0.80509 0.78109 0.28503
 O415 O 0.72155 0.81483 0.19280
 O416 O 0.69420 0.78433 0.21688
 O417 O 0.78296 0.81101 0.19509
 O418 O 0.80768 0.78213 0.22582
 O419 O 0.77752 0.69013 0.30939
 O420 O 0.80488 0.71964 0.28435
 O421 O 0.75284 0.65902 0.19963
 O422 O 0.74811 0.65586 0.29465
 O423 O 0.74799 0.84371 0.30025
 O424 O 0.75318 0.84668 0.20502
 O425 O 0.73064 0.79558 0.24916
 O426 O 0.73054 0.70728 0.24720
 O427 O 0.76847 0.79514 0.25247
 O428 O 0.73145 0.75262 0.20615
 O429 O 0.69420 0.72004 0.21591
 O430 O 0.72159 0.69064 0.19104
 O431 O 0.77164 0.75252 0.20949
 O432 O 0.76791 0.74994 0.29402
 O433 O 0.76838 0.70737 0.25066
 O434 O 0.72782 0.75021 0.29015
 Zr435 Zr 0.75147 0.71102 0.20801
 Zr436 Zr 0.74793 0.79168 0.29181
 Zr437 Zr 0.71192 0.75152 0.24654
 Zr438 Zr 0.75146 0.79410 0.20979
 Zr439 Zr 0.74775 0.70850 0.28994
 Zr440 Zr 0.78726 0.75116 0.25339
 H441 H 0.77744 0.81582 0.25346
 H442 H 0.72235 0.75306 0.18672
 H443 H 0.77730 0.68661 0.25103
 H444 H 0.71736 0.74983 0.30812
 H445 H 0.75284 0.64835 0.22081
 H446 H 0.74297 0.64717 0.27404
 H447 H 0.74659 0.85571 0.22462
 H448 H 0.75029 0.85433 0.27931
 C449 C 0.00371 0.00448 0.39602
 C450 C -0.00357 -0.00317 0.60303
 C451 C -0.04900 0.05746 0.44793
 C452 C -0.04913 -0.05315 0.44611
 C453 C -0.05346 0.05396 0.54429
 C454 C 0.04810 0.05106 0.55623
 C455 C 0.04794 -0.05301 0.55422
 C456 C 0.05277 0.05268 0.45349
 C457 C -0.05354 -0.05474 0.54252
 C458 C 0.05269 -0.04912 0.45146
 O459 O -0.03359 0.06077 0.55356
 O460 O -0.05839 0.03197 0.52316
 O461 O -0.03366 -0.06230 0.55122
 O462 O -0.05846 -0.03176 0.52207
 O463 O 0.03280 -0.05601 0.44245
 O464 O 0.05759 -0.02918 0.47439
 O465 O -0.00366 -0.03114 0.58798
 O466 O -0.00356 0.02590 0.58957
 O467 O 0.00309 -0.02459 0.40944
 O468 O 0.00322 0.03245 0.41104
 O469 O 0.02760 0.05819 0.56139
 O470 O 0.05493 0.03029 0.53502
 O471 O -0.02846 0.06472 0.44299
 O472 O -0.05583 0.03396 0.46672
 O473 O 0.03291 0.06043 0.44494
 O474 O 0.05762 0.03158 0.47568
 O475 O 0.02744 -0.06065 0.55887
 O476 O 0.05481 -0.03111 0.53385
 O477 O 0.00282 -0.09141 0.44872
 O478 O -0.00187 -0.09493 0.54424
 O479 O -0.00211 0.09278 0.55041
 O480 O 0.00326 0.09613 0.45480
 O481 O -0.01942 0.04486 0.49890
 O482 O -0.01949 -0.04337 0.49663
 O483 O 0.01833 0.04442 0.50231
 O484 O -0.01867 0.00215 0.45561
 O485 O -0.05590 -0.03059 0.46564
 O486 O -0.02862 -0.06001 0.44063
 O487 O 0.02156 0.00199 0.45911
 O488 O 0.01778 -0.00087 0.54365
 O489 O 0.01826 -0.04328 0.50008
 O490 O -0.02236 -0.00065 0.53981
 Zr491 Zr 0.00134 -0.03947 0.45736
 Zr492 Zr -0.00228 0.04083 0.54164
 Zr493 Zr -0.03810 0.00082 0.49607
 Zr494 Zr 0.00140 0.04357 0.45955
 Zr495 Zr -0.00234 -0.04230 0.53945
 Zr496 Zr 0.03718 0.00047 0.50302
 H497 H 0.02731 0.06510 0.50340
 H498 H -0.02783 0.00270 0.43624
 H499 H 0.02720 -0.06403 0.50036
 H500 H -0.03290 -0.00110 0.55770
 H501 H 0.00248 -0.10220 0.46984
 H502 H -0.00643 -0.10368 0.52338
 H503 H -0.00286 0.10518 0.47471
 H504 H -0.00026 0.10356 0.52945
 C505 C 0.25008 0.24510 0.85425
 C506 C 0.24970 0.25372 0.64703
 C507 C 0.19993 0.19084 0.79792
 C508 C 0.19776 0.30082 0.79979
 C509 C 0.19977 0.19387 0.70074
 C510 C 0.30157 0.20095 0.69832
 C511 C 0.29941 0.30459 0.70031
 C512 C 0.30098 0.19761 0.80094
 C513 C 0.19826 0.30439 0.70378
 C514 C 0.30039 0.30027 0.80295
 O515 O 0.22017 0.18792 0.69369
 O516 O 0.19331 0.21578 0.72119
 O517 O 0.21845 0.31233 0.69762
 O518 O 0.19230 0.28042 0.72271
 O519 O 0.28010 0.30713 0.81041
 O520 O 0.30619 0.28023 0.78064
 O521 O 0.24914 0.28151 0.66235
 O522 O 0.25013 0.22454 0.66025
 O523 O 0.24946 0.27424 0.84100
 O524 O 0.25022 0.21725 0.83898
 O525 O 0.28147 0.19335 0.69086
 O526 O 0.30702 0.22150 0.72044
 O527 O 0.22031 0.18430 0.80417
 O528 O 0.19333 0.21401 0.77858
 O529 O 0.28083 0.18957 0.80719
 O530 O 0.30689 0.21942 0.77982
 O531 O 0.27906 0.31146 0.69426
 O532 O 0.30593 0.28281 0.72108
 O533 O 0.24923 0.34132 0.80215
 O534 O 0.24941 0.34474 0.70608
 O535 O 0.25211 0.15747 0.69901
 O536 O 0.25221 0.15393 0.79521
 O537 O 0.23129 0.20449 0.74913
 O538 O 0.22997 0.29249 0.75210
 O539 O 0.26913 0.20608 0.74923
 O540 O 0.22955 0.24716 0.79268
 O541 O 0.19235 0.27829 0.77940
 O542 O 0.21789 0.30849 0.80735
 O543 O 0.26989 0.24846 0.79292
 O544 O 0.26993 0.25154 0.70813
 O545 O 0.26789 0.29370 0.75205
 O546 O 0.22956 0.25003 0.70846
 Zr547 Zr 0.24915 0.28941 0.79317
 Zr548 Zr 0.25039 0.20930 0.70812
 Zr549 Zr 0.21178 0.24777 0.75050
 Zr550 Zr 0.25024 0.20647 0.79026
 Zr551 Zr 0.24904 0.29213 0.71106
 Zr552 Zr 0.28743 0.25047 0.75050
 H553 H 0.27833 0.18562 0.74881
 H554 H 0.21971 0.24613 0.81135
 H555 H 0.27655 0.31470 0.75249
 H556 H 0.21967 0.25043 0.68984
 H557 H 0.25021 0.35223 0.78113
 H558 H 0.24492 0.35357 0.72694
 H559 H 0.24783 0.14481 0.77442
 H560 H 0.25240 0.14651 0.72005
 C561 C 0.50241 0.00467 0.39635
 C562 C 0.49512 -0.00371 0.60302
 C563 C 0.55233 -0.05241 0.45398
 C564 C 0.55267 0.05551 0.45641
 C565 C 0.54799 -0.05608 0.55144
 C566 C 0.44627 -0.05204 0.54517
 C567 C 0.44627 0.05056 0.54720
 C568 C 0.45078 -0.05015 0.44341
 C569 C 0.54802 0.05363 0.55379
 C570 C 0.45120 0.05472 0.44543
 O571 O 0.52747 -0.06352 0.55624
 O572 O 0.55483 -0.03279 0.53246
 O573 O 0.52751 0.06063 0.55900
 O574 O 0.55488 0.03139 0.53395
 O575 O 0.47170 0.06224 0.44070
 O576 O 0.44432 0.03255 0.46552
 O577 O 0.49570 0.02540 0.58968
 O578 O 0.49564 -0.03163 0.58795
 O579 O 0.50262 0.03260 0.41141
 O580 O 0.50230 -0.02443 0.40971
 O581 O 0.46613 -0.05984 0.55371
 O582 O 0.44144 -0.03049 0.52336
 O583 O 0.53241 -0.05920 0.44499
 O584 O 0.55738 -0.03085 0.47551
 O585 O 0.47127 -0.05715 0.43796
 O586 O 0.44405 -0.02915 0.46444
 O587 O 0.46613 0.05738 0.55642
 O588 O 0.44145 0.03033 0.52452
 O589 O 0.50117 0.09623 0.45546
 O590 O 0.49635 0.09236 0.55072
 O591 O 0.49594 -0.09519 0.54408
 O592 O 0.50117 -0.09151 0.44859
 O593 O 0.51845 -0.04381 0.50013
 O594 O 0.51858 0.04448 0.50270
 O595 O 0.48067 -0.04329 0.49677
 O596 O 0.52132 0.00185 0.45942
 O597 O 0.55757 0.03275 0.47709
 O598 O 0.53280 0.06320 0.44779
 O599 O 0.48123 0.00220 0.45551
 O600 O 0.47742 -0.00101 0.54010
 O601 O 0.48080 0.04443 0.49919
 O602 O 0.51763 -0.00118 0.54346
 Zr603 Zr 0.50143 0.04357 0.45991
 Zr604 Zr 0.49761 -0.04259 0.53947
 Zr605 Zr 0.53716 0.00022 0.50307
 Zr606 Zr 0.50120 -0.03958 0.45749
 Zr607 Zr 0.49763 0.04045 0.54187
 Zr608 Zr 0.46189 0.00070 0.49615
 H609 H 0.47173 -0.06399 0.49565
 H610 H 0.53180 0.00235 0.44147
 H611 H 0.47193 0.06523 0.49895
 H612 H 0.52671 -0.00180 0.56290
 H613 H 0.50606 0.10478 0.47625
 H614 H 0.49650 0.10324 0.52963
 H615 H 0.49920 -0.10236 0.46950
 H616 H 0.50219 -0.10413 0.52422
 C617 C 0.75106 0.24440 0.85348
 C618 C 0.74920 0.25359 0.64668
 C619 C 0.69976 0.19093 0.79816
 C620 C 0.69794 0.30022 0.80003
 C621 C 0.69947 0.19397 0.70030
 C622 C 0.80124 0.20099 0.69708
 C623 C 0.79921 0.30395 0.69930
 C624 C 0.80087 0.19699 0.79993
 C625 C 0.69800 0.30417 0.70378
 C626 C 0.80054 0.30009 0.80166
 O627 O 0.71983 0.18789 0.69317
 O628 O 0.69309 0.21572 0.72096
 O629 O 0.71817 0.31225 0.69755
 O630 O 0.69211 0.28012 0.72263
 O631 O 0.78030 0.30662 0.80963
 O632 O 0.80618 0.28003 0.77931
 O633 O 0.74871 0.28138 0.66198
 O634 O 0.74965 0.22440 0.65982
 O635 O 0.75021 0.27356 0.84035
 O636 O 0.75076 0.21656 0.83824
 O637 O 0.78111 0.19339 0.68974
 O638 O 0.80675 0.22118 0.71944
 O639 O 0.72016 0.18412 0.80414
 O640 O 0.69319 0.21403 0.77871
 O641 O 0.78075 0.18867 0.80604
 O642 O 0.80673 0.21909 0.77905
 O643 O 0.77885 0.31113 0.69355
 O644 O 0.80573 0.28208 0.71997
 O645 O 0.74926 0.34081 0.80178
 O646 O 0.74926 0.34456 0.70579
 O647 O 0.75176 0.15721 0.69840
 O648 O 0.75186 0.15329 0.79413
 O649 O 0.73104 0.20410 0.74862
 O650 O 0.72989 0.29220 0.75183
 O651 O 0.76897 0.20562 0.74845
 O652 O 0.72962 0.24673 0.79231
 O653 O 0.69241 0.27803 0.77939
 O654 O 0.71811 0.30772 0.80755
 O655 O 0.76988 0.24786 0.79215
 O656 O 0.76961 0.25127 0.70749
 O657 O 0.76784 0.29333 0.75144
 O658 O 0.72932 0.24985 0.70817
 Zr659 Zr 0.74926 0.28892 0.79267
 Zr660 Zr 0.75009 0.20904 0.70756
 Zr661 Zr 0.71166 0.24750 0.75031
 Zr662 Zr 0.75015 0.20589 0.78956
 Zr663 Zr 0.74881 0.29194 0.71066
 Zr664 Zr 0.78726 0.25002 0.74967
 H665 H 0.77818 0.18517 0.74785
 H666 H 0.71995 0.24571 0.81116
 H667 H 0.77652 0.31433 0.75180
 H668 H 0.71937 0.25034 0.68962
 H669 H 0.75037 0.35178 0.78079
 H670 H 0.74478 0.35335 0.72666
 H671 H 0.74680 0.14436 0.77358
 H672 H 0.75269 0.14626 0.71941
 C673 C 0.00279 0.50389 0.39724
 C674 C -0.00261 0.49585 0.60428
 C675 C -0.05009 0.55524 0.45052
 C676 C -0.04906 0.44502 0.44799
 C677 C -0.05345 0.55159 0.54686
 C678 C 0.04827 0.55125 0.55639
 C679 C 0.04906 0.44690 0.55426
 C680 C 0.05184 0.55318 0.45354
 C681 C -0.05187 0.44170 0.54449
 C682 C 0.05278 0.45103 0.45147
 O683 O -0.03354 0.55893 0.55554
 O684 O -0.05844 0.52936 0.52597
 O685 O -0.03172 0.43480 0.55196
 O686 O -0.05775 0.46523 0.52506
 O687 O 0.03285 0.44383 0.44286
 O688 O 0.05777 0.47112 0.47426
 O689 O -0.00243 0.46792 0.58914
 O690 O -0.00294 0.52491 0.59087
 O691 O 0.00264 0.47476 0.41057
 O692 O 0.00204 0.53178 0.41236
 O693 O 0.02775 0.55777 0.56206
 O694 O 0.05514 0.53070 0.53500
 O695 O -0.02968 0.56295 0.44515
 O696 O -0.05653 0.53157 0.46943
 O697 O 0.03178 0.56047 0.44553
 O698 O 0.05716 0.53205 0.47551
 O699 O 0.02870 0.43892 0.55900
 O700 O 0.05571 0.46911 0.53399
 O701 O 0.00346 0.40778 0.45004
 O702 O -0.00006 0.40435 0.54644
 O703 O -0.00247 0.59171 0.55163
 O704 O 0.00180 0.59529 0.45644
 O705 O -0.01986 0.54323 0.50068
 O706 O -0.01891 0.45514 0.49819
 O707 O 0.01804 0.54383 0.50323
 O708 O -0.01908 0.50077 0.45742
 O709 O -0.05590 0.46705 0.46802
 O710 O -0.02852 0.43880 0.44199
 O711 O 0.02124 0.50163 0.45989
 O712 O 0.01846 0.49863 0.54448
 O713 O 0.01891 0.45623 0.50073
 O714 O -0.02184 0.49772 0.54160
 Zr715 Zr 0.00142 0.45971 0.45847
 Zr716 Zr -0.00216 0.53973 0.54295
 Zr717 Zr -0.03816 0.49872 0.49830
 Zr718 Zr 0.00062 0.54265 0.46092
 Zr719 Zr -0.00124 0.45682 0.54050
 Zr720 Zr 0.03743 0.50038 0.50341
 H721 H 0.02679 0.56474 0.50411
 H722 H -0.02841 0.50119 0.43820
 H723 H 0.02800 0.43565 0.50076
 H724 H -0.03219 0.49678 0.55969
 H725 H -0.00073 0.39689 0.47025
 H726 H -0.00073 0.39504 0.52482
 H727 H -0.00457 0.60405 0.47630
 H728 H -0.00020 0.60249 0.53075
 C729 C 0.24896 0.74533 0.85350
 C730 C 0.25153 0.75490 0.64663
 C731 C 0.19808 0.69312 0.79485
 C732 C 0.19765 0.80289 0.79794
 C733 C 0.19985 0.69663 0.69833
 C734 C 0.30172 0.69984 0.69967
 C735 C 0.30176 0.80262 0.70234
 C736 C 0.29905 0.69560 0.80208
 C737 C 0.19993 0.80690 0.70140
 C738 C 0.30012 0.79906 0.80443
 O739 O 0.22025 0.68996 0.69193
 O740 O 0.19342 0.71878 0.71856
 O741 O 0.22034 0.81428 0.69566
 O742 O 0.19349 0.78329 0.72034
 O743 O 0.27983 0.80693 0.81093
 O744 O 0.30597 0.77834 0.78272
 O745 O 0.25132 0.78270 0.66192
 O746 O 0.25128 0.72569 0.65977
 O747 O 0.24883 0.77453 0.84039
 O748 O 0.24838 0.71754 0.83822
 O749 O 0.28165 0.69313 0.69131
 O750 O 0.30704 0.71994 0.72222
 O751 O 0.21821 0.68574 0.80188
 O752 O 0.19224 0.71685 0.77564
 O753 O 0.27868 0.68818 0.80744
 O754 O 0.30566 0.71753 0.78154
 O755 O 0.28173 0.81056 0.69482
 O756 O 0.30706 0.78087 0.72373
 O757 O 0.24937 0.84186 0.80180
 O758 O 0.25216 0.84580 0.70628
 O759 O 0.25165 0.65836 0.69808
 O760 O 0.24949 0.65428 0.79482
 O761 O 0.23061 0.70589 0.74771
 O762 O 0.23071 0.79402 0.75090
 O763 O 0.26838 0.70580 0.74931
 O764 O 0.22877 0.74840 0.79149
 O765 O 0.19233 0.78094 0.77694
 O766 O 0.21775 0.80973 0.80637
 O767 O 0.26898 0.74811 0.79329
 O768 O 0.27076 0.75160 0.70853
 O769 O 0.26859 0.79357 0.75239
 O770 O 0.23046 0.75175 0.70727
 Zr771 Zr 0.24898 0.78996 0.79273
 Zr772 Zr 0.25053 0.71016 0.70750
 Zr773 Zr 0.21188 0.74995 0.74861
 Zr774 Zr 0.24877 0.70685 0.78957
 Zr775 Zr 0.25060 0.79317 0.71057
 Zr776 Zr 0.28729 0.74944 0.75168
 H777 H 0.27723 0.68498 0.74910
 H778 H 0.21863 0.74758 0.80984
 H779 H 0.27765 0.81418 0.75321
 H780 H 0.22089 0.75251 0.68832
 H781 H 0.25182 0.85273 0.78101
 H782 H 0.24647 0.85456 0.72656
 H783 H 0.24652 0.64527 0.77348
 H784 H 0.25031 0.64721 0.71896
 C785 C 0.50120 0.50330 0.39679
 C786 C 0.49687 0.49569 0.60355
 C787 C 0.55260 0.44788 0.45302
 C788 C 0.55144 0.55606 0.45515
 C789 C 0.54963 0.44390 0.55009
 C790 C 0.44846 0.44428 0.54767
 C791 C 0.44653 0.54809 0.54932
 C792 C 0.45079 0.44731 0.44533
 C793 C 0.54835 0.55436 0.55263
 C794 C 0.44977 0.55162 0.44739
 O795 O 0.52928 0.43590 0.55503
 O796 O 0.55611 0.46781 0.53150
 O797 O 0.52781 0.56067 0.55842
 O798 O 0.55526 0.53225 0.53268
 O799 O 0.47011 0.55964 0.44198
 O800 O 0.44342 0.52944 0.46788
 O801 O 0.49685 0.52473 0.59014
 O802 O 0.49774 0.46775 0.58852
 O803 O 0.50110 0.53125 0.41182
 O804 O 0.50167 0.47422 0.41017
 O805 O 0.46864 0.43744 0.55486
 O806 O 0.44249 0.46605 0.52655
 O807 O 0.53264 0.44064 0.44450
 O808 O 0.55770 0.46967 0.47433
 O809 O 0.47130 0.44106 0.43918
 O810 O 0.44405 0.46775 0.46686
 O811 O 0.46646 0.55560 0.55776
 O812 O 0.44158 0.52741 0.52704
 O813 O 0.49921 0.59493 0.45593
 O814 O 0.49618 0.59142 0.55081
 O815 O 0.49865 0.40411 0.54596
 O816 O 0.50138 0.40717 0.44989
 O817 O 0.51936 0.45576 0.50004
 O818 O 0.51827 0.54393 0.50249
 O819 O 0.48146 0.45498 0.49795
 O820 O 0.52093 0.50128 0.45934
 O821 O 0.55698 0.53349 0.47569
 O822 O 0.53133 0.56301 0.44708
 O823 O 0.48069 0.50029 0.45682
 O824 O 0.47830 0.49732 0.54141
 O825 O 0.48034 0.54254 0.50022
 O826 O 0.51865 0.49855 0.54343
 Zr827 Zr 0.50043 0.54229 0.46033
 Zr828 Zr 0.49916 0.45660 0.53996
 Zr829 Zr 0.53755 0.50032 0.50244
 Zr830 Zr 0.50132 0.45926 0.45802
 Zr831 Zr 0.49795 0.53947 0.54228
 Zr832 Zr 0.46190 0.49818 0.49809
 H833 H 0.47287 0.43392 0.49705
 H834 H 0.53113 0.50209 0.44106
 H835 H 0.47119 0.56305 0.50016
 H836 H 0.52802 0.49815 0.56260
 H837 H 0.50473 0.60368 0.47630
 H838 H 0.49533 0.60210 0.52967
 H839 H 0.50559 0.39679 0.47033
 H840 H 0.49960 0.39478 0.52437
 C841 C 0.74903 0.74493 0.85332
 C842 C 0.75127 0.75550 0.64650
 C843 C 0.69786 0.69349 0.79489
 C844 C 0.69770 0.80261 0.79849
 C845 C 0.69961 0.69736 0.69778
 C846 C 0.80145 0.70043 0.69886
 C847 C 0.80164 0.80246 0.70184
 C848 C 0.79890 0.69537 0.80154
 C849 C 0.69982 0.80704 0.70131
 C850 C 0.80017 0.79849 0.80438
 O851 O 0.71999 0.69058 0.69139
 O852 O 0.69322 0.71928 0.71828
 O853 O 0.72022 0.81453 0.69561
 O854 O 0.69340 0.78354 0.72037
 O855 O 0.77991 0.80629 0.81110
 O856 O 0.80593 0.77812 0.78234
 O857 O 0.75112 0.78324 0.66189
 O858 O 0.75099 0.72623 0.65952
 O859 O 0.74892 0.77419 0.84032
 O860 O 0.74840 0.71719 0.83794
 O861 O 0.78138 0.69375 0.69055
 O862 O 0.80682 0.72012 0.72170
 O863 O 0.71799 0.68579 0.80169
 O864 O 0.69207 0.71723 0.77566
 O865 O 0.77854 0.68775 0.80677
 O866 O 0.80548 0.71750 0.78118
 O867 O 0.78161 0.81058 0.69449
 O868 O 0.80693 0.78080 0.72333
 O869 O 0.74944 0.84172 0.80182
 O870 O 0.75214 0.84615 0.70684
 O871 O 0.75142 0.65866 0.69768
 O872 O 0.74920 0.65408 0.79425
 O873 O 0.73039 0.70598 0.74740
 O874 O 0.73063 0.79417 0.75099
 O875 O 0.76820 0.70580 0.74888
 O876 O 0.72874 0.74831 0.79134
 O877 O 0.69232 0.78107 0.77714
 O878 O 0.71782 0.80933 0.80689
 O879 O 0.76889 0.74787 0.79301
 O880 O 0.77054 0.75183 0.70833
 O881 O 0.76856 0.79363 0.75234
 O882 O 0.73031 0.75211 0.70721
 Zr883 Zr 0.74899 0.78982 0.79272
 Zr884 Zr 0.75030 0.71045 0.70717
 Zr885 Zr 0.71177 0.75015 0.74856
 Zr886 Zr 0.74862 0.70668 0.78921
 Zr887 Zr 0.75048 0.79348 0.71059
 Zr888 Zr 0.78714 0.74942 0.75136
 H889 H 0.77705 0.68499 0.74849
 H890 H 0.71866 0.74744 0.80975
 H891 H 0.77768 0.81416 0.75320
 H892 H 0.72074 0.75297 0.68827
 H893 H 0.75242 0.85257 0.78115
 H894 H 0.74593 0.85472 0.72689
 H895 H 0.74607 0.64519 0.77291
 H896 H 0.74964 0.64747 0.71846
 C897 C 0.00041 -0.03634 0.15294
 C898 C 0.00206 -0.03805 0.18589
 C899 C 0.00423 -0.00883 0.20391
 C900 C 0.00506 0.02232 0.18811
 C901 C 0.00339 0.02405 0.15513
 C902 C 0.00104 -0.00525 0.13713
 C903 C 0.00619 -0.01215 0.23882
 C904 C 0.00172 0.01274 0.25906
 C905 C 0.00325 0.00939 0.29401
 C906 C 0.00482 0.03866 0.31209
 C907 C 0.00541 0.03703 0.34511
 C908 C 0.00429 0.00599 0.36093
 C909 C 0.00286 -0.02340 0.34286
 C910 C 0.00226 -0.02176 0.30979
 H911 H -0.00127 -0.05946 0.13987
 H912 H 0.00154 -0.06238 0.19738
 H913 H 0.00749 0.04541 0.20087
 H914 H 0.00426 0.04838 0.14373
 H915 H 0.01118 -0.03636 0.24788
 H916 H -0.00330 0.03693 0.24996
 H917 H 0.00549 0.06298 0.30061
 H918 H 0.00650 0.06021 0.35821
 H919 H 0.00176 -0.04771 0.35425
 H920 H 0.00037 -0.04491 0.29694
 C921 C 0.25455 0.28692 1.09712
 C922 C 0.25538 0.28822 1.06407
 C923 C 0.25596 0.25877 1.04617
 C924 C 0.25630 0.22776 1.06216
 C925 C 0.25550 0.22634 1.09523
 C926 C 0.25445 0.25591 1.11342
 C927 C 0.25669 0.26166 1.01110
 C928 C 0.25047 0.23709 0.99143
 C929 C 0.25080 0.24019 0.95637
 C930 C 0.25114 0.21082 0.93827
 C931 C 0.25104 0.21238 0.90520
 C932 C 0.25039 0.24345 0.88937
 C933 C 0.24986 0.27289 0.90748
 C934 C 0.24999 0.27132 0.94057
 H935 H 0.25392 0.31046 1.10973
 H936 H 0.25533 0.31245 1.05240
 H937 H 0.25755 0.20445 1.04940
 H938 H 0.25574 0.20183 1.10639
 H939 H 0.26222 0.28535 1.00143
 H940 H 0.24495 0.21338 1.00109
 H941 H 0.25158 0.18651 0.94978
 H942 H 0.25141 0.18916 0.89208
 H943 H 0.24916 0.29726 0.89612
 H944 H 0.24896 0.29456 0.95349
 C945 C 0.06160 0.08807 0.09715
 C946 C 0.07762 0.10361 0.11569
 C947 C 0.10011 0.09909 0.10934
 C948 C 0.10628 0.07799 0.08420
 C949 C 0.09021 0.06233 0.06563
 C950 C 0.06766 0.06729 0.07181
 C951 C 0.11633 0.11629 0.12998
 C952 C 0.13730 0.12253 0.12166
 C953 C 0.15316 0.14076 0.14207
 C954 C 0.17579 0.13634 0.13670
 C955 C 0.19138 0.15371 0.15460
 C956 C 0.18470 0.17626 0.17821
 C957 C 0.16201 0.18079 0.18359
 C958 C 0.14641 0.16335 0.16569
 H959 H 0.04442 0.09231 0.10285
 H960 H 0.07237 0.11946 0.13502
 H961 H 0.12341 0.07293 0.07905
 H962 H 0.09548 0.04621 0.04653
 H963 H 0.11038 0.12470 0.15273
 H964 H 0.14338 0.11399 0.09904
 H965 H 0.18146 0.11935 0.11852
 H966 H 0.20869 0.14968 0.14962
 H967 H 0.15625 0.19814 0.20138
 H968 H 0.12916 0.16840 0.16996
 C969 C 0.31201 0.35094 0.16417
 C970 C 0.32758 0.36709 0.14533
 C971 C 0.34978 0.35769 0.14658
 C972 C 0.35619 0.33166 0.16732
 C973 C 0.34052 0.31536 0.18625
 C974 C 0.31821 0.32464 0.18463
 C975 C 0.36530 0.37482 0.12489
 C976 C 0.38702 0.37667 0.12997
 C977 C 0.40237 0.39401 0.10814
 C978 C 0.42458 0.38456 0.10861
 C979 C 0.43986 0.40067 0.08918
 C980 C 0.43330 0.42694 0.06891
 C981 C 0.41101 0.43643 0.06829
 C982 C 0.39568 0.42024 0.08782
 H983 H 0.29498 0.35886 0.16227
 H984 H 0.32221 0.38696 0.12954
 H985 H 0.37307 0.32302 0.16833
 H986 H 0.34577 0.29494 0.20147
 H987 H 0.35827 0.38669 0.10413
 H988 H 0.39411 0.36470 0.15063
 H989 H 0.43017 0.36460 0.12414
 H990 H 0.45690 0.39270 0.09037
 H991 H 0.40550 0.45689 0.05332
 H992 H 0.37884 0.42907 0.08750
 C993 C 0.34368 0.19313 0.19202
 C994 C 0.36125 0.17827 0.17593
 C995 C 0.35741 0.15566 0.15124
 C996 C 0.33546 0.14868 0.14255
 C997 C 0.31787 0.16357 0.15863
 C998 C 0.32174 0.18593 0.18362
 C999 C 0.37669 0.14093 0.13462
 C1000 C 0.37580 0.11230 0.11815
 C1001 C 0.39489 0.09753 0.10113
 C1002 C 0.39064 0.07422 0.07716
 C1003 C 0.40791 0.05920 0.06061
 C1004 C 0.42999 0.06690 0.06777
 C1005 C 0.43431 0.09000 0.09201
 C1006 C 0.41698 0.10512 0.10856
 H1007 H 0.34735 0.21037 0.21101
 H1008 H 0.37795 0.18437 0.18294
 H1009 H 0.33170 0.13235 0.12295
 H1010 H 0.30121 0.15774 0.15125
 H1011 H 0.39214 0.15429 0.13652
 H1012 H 0.36033 0.09894 0.11648
 H1013 H 0.37384 0.06767 0.07108
 H1014 H 0.40389 0.04138 0.04226
 H1015 H 0.45110 0.09628 0.09838
 H1016 H 0.42107 0.12212 0.12749
 C1017 C 0.19012 0.35010 0.15868
 C1018 C 0.17476 0.36715 0.14012
 C1019 C 0.15221 0.36033 0.14312
 C1020 C 0.14528 0.33575 0.16505
 C1021 C 0.16070 0.31855 0.18363
 C1022 C 0.18331 0.32543 0.18054
 C1023 C 0.13670 0.37833 0.12202
 C1024 C 0.11545 0.38315 0.12919
 C1025 C 0.09962 0.40020 0.10787
 C1026 C 0.07717 0.39340 0.11201
 C1027 C 0.06145 0.40891 0.09294
 C1028 C 0.06777 0.43197 0.06929
 C1029 C 0.09028 0.43905 0.06517
 C1030 C 0.10610 0.42336 0.08431
 H1031 H 0.20741 0.35600 0.15547
 H1032 H 0.18053 0.38576 0.12327
 H1033 H 0.12809 0.32897 0.16736
 H1034 H 0.15492 0.29950 0.20000
 H1035 H 0.14328 0.38805 0.10000
 H1036 H 0.10901 0.37353 0.15134
 H1037 H 0.07173 0.37586 0.13008
 H1038 H 0.04426 0.40294 0.09705
 H1039 H 0.09568 0.45698 0.04746
 H1040 H 0.12321 0.43008 0.08098
 C1041 C 0.31046 0.15815 0.34509
 C1042 C 0.32651 0.14193 0.36321
 C1043 C 0.34899 0.14790 0.35777
 C1044 C 0.35511 0.17107 0.33408
 C1045 C 0.33904 0.18737 0.31596
 C1046 C 0.31651 0.18104 0.32119
 C1047 C 0.36530 0.13018 0.37792
 C1048 C 0.38638 0.12519 0.36955
 C1049 C 0.40250 0.10704 0.38970
 C1050 C 0.42506 0.11316 0.38509
 C1051 C 0.44085 0.09640 0.40328
 C1052 C 0.43444 0.07285 0.42641
 C1053 C 0.41184 0.06640 0.43076
 C1054 C 0.39605 0.08318 0.41257
 H1055 H 0.29328 0.15282 0.34999
 H1056 H 0.32133 0.12446 0.38147
 H1057 H 0.37221 0.17729 0.32979
 H1058 H 0.34429 0.20510 0.29799
 H1059 H 0.35939 0.12051 0.40034
 H1060 H 0.39239 0.13494 0.34722
 H1061 H 0.43048 0.13114 0.36742
 H1062 H 0.45811 0.10184 0.39909
 H1063 H 0.40630 0.04814 0.44809
 H1064 H 0.37890 0.07677 0.41612
 C1065 C 0.15617 0.31421 0.30304
 C1066 C 0.13885 0.32947 0.31939
 C1067 C 0.14304 0.35101 0.34486
 C1068 C 0.16509 0.35689 0.35369
 C1069 C 0.18241 0.34166 0.33732
 C1070 C 0.17819 0.31997 0.31190
 C1071 C 0.12396 0.36547 0.36221
 C1072 C 0.12528 0.39234 0.38115
 C1073 C 0.10626 0.40637 0.39893
 C1074 C 0.11052 0.42728 0.42484
 C1075 C 0.09323 0.44148 0.44210
 C1076 C 0.07117 0.43525 0.43373
 C1077 C 0.06688 0.41451 0.40763
 C1078 C 0.08417 0.40034 0.39036
 H1079 H 0.15225 0.29762 0.28364
 H1080 H 0.12206 0.32430 0.31215
 H1081 H 0.16917 0.37242 0.37372
 H1082 H 0.19914 0.34643 0.34506
 H1083 H 0.10826 0.35313 0.35900
 H1084 H 0.14097 0.40468 0.38439
 H1085 H 0.12733 0.43261 0.43185
 H1086 H 0.09720 0.45747 0.46191
 H1087 H 0.05012 0.40949 0.40021
 H1088 H 0.08004 0.38535 0.36999
 C1089 C 0.15770 0.17976 0.29914
 C1090 C 0.14032 0.16512 0.31591
 C1091 C 0.14434 0.14563 0.34304
 C1092 C 0.16632 0.14071 0.35285
 C1093 C 0.18374 0.15533 0.33601
 C1094 C 0.17961 0.17541 0.30921
 C1095 C 0.12511 0.13259 0.36105
 C1096 C 0.12620 0.10750 0.38228
 C1097 C 0.10692 0.09501 0.40055
 C1098 C 0.11077 0.07627 0.42820
 C1099 C 0.09322 0.06319 0.44579
 C1100 C 0.07132 0.06845 0.43605
 C1101 C 0.06742 0.08731 0.40842
 C1102 C 0.08498 0.10030 0.39076
 H1103 H 0.15388 0.19502 0.27858
 H1104 H 0.12360 0.16940 0.30784
 H1105 H 0.17023 0.12667 0.37405
 H1106 H 0.20039 0.15177 0.34463
 H1107 H 0.10946 0.14457 0.35638
 H1108 H 0.14185 0.09556 0.38705
 H1109 H 0.12747 0.07162 0.43621
 H1110 H 0.09687 0.04864 0.46687
 H1111 H 0.05078 0.09140 0.39993
 H1112 H 0.08115 0.11358 0.36910
 C1113 C 0.30909 0.34282 0.34754
 C1114 C 0.32509 0.35940 0.36541
 C1115 C 0.34763 0.35435 0.35956
 C1116 C 0.35385 0.33167 0.33577
 C1117 C 0.33786 0.31507 0.31791
 C1118 C 0.31527 0.32052 0.32347
 C1119 C 0.36396 0.37237 0.37940
 C1120 C 0.38495 0.37793 0.37063
 C1121 C 0.40132 0.39590 0.39045
 C1122 C 0.42384 0.39095 0.38439
 C1123 C 0.43989 0.40748 0.40221
 C1124 C 0.43378 0.42964 0.42643
 C1125 C 0.41121 0.43497 0.43222
 C1126 C 0.39516 0.41842 0.41442
 H1127 H 0.29187 0.34750 0.35267
 H1128 H 0.31982 0.37645 0.38379
 H1129 H 0.37098 0.32605 0.33116
 H1130 H 0.34325 0.29778 0.29982
 H1131 H 0.35815 0.38161 0.40192
 H1132 H 0.39074 0.36871 0.34809
 H1133 H 0.42906 0.37403 0.36589
 H1134 H 0.45709 0.40289 0.39690
 H1135 H 0.40586 0.45214 0.45045
 H1136 H 0.37804 0.42394 0.41921
 C1137 C 0.49780 -0.03706 0.15410
 C1138 C 0.49896 -0.03864 0.18707
 C1139 C 0.50088 -0.00932 0.20497
 C1140 C 0.50182 0.02178 0.18916
 C1141 C 0.50064 0.02338 0.15618
 C1142 C 0.49870 -0.00603 0.13825
 C1143 C 0.50266 -0.01244 0.23982
 C1144 C 0.49769 0.01241 0.25981
 C1145 C 0.49955 0.00935 0.29465
 C1146 C 0.50150 0.03870 0.31249
 C1147 C 0.50281 0.03718 0.34545
 C1148 C 0.50203 0.00617 0.36135
 C1149 C 0.50002 -0.02327 0.34349
 C1150 C 0.49869 -0.02173 0.31052
 H1151 H 0.49638 -0.06024 0.14105
 H1152 H 0.49836 -0.06292 0.19865
 H1153 H 0.50406 0.04492 0.20192
 H1154 H 0.50164 0.04767 0.14473
 H1155 H 0.50811 -0.03636 0.24904
 H1156 H 0.49223 0.03633 0.25058
 H1157 H 0.50203 0.06296 0.30088
 H1158 H 0.50425 0.06038 0.35845
 H1159 H 0.49907 -0.04755 0.35499
 H1160 H 0.49642 -0.04490 0.29780
 C1161 C 0.75399 0.28661 1.09576
 C1162 C 0.75352 0.28801 1.06274
 C1163 C 0.75311 0.25854 1.04483
 C1164 C 0.75305 0.22744 1.06072
 C1165 C 0.75353 0.22603 1.09375
 C1166 C 0.75389 0.25559 1.11168
 C1167 C 0.75178 0.26145 1.00989
 C1168 C 0.75764 0.23692 0.99002
 C1169 C 0.75580 0.23977 0.95514
 C1170 C 0.75448 0.21031 0.93729
 C1171 C 0.75277 0.21175 0.90434
 C1172 C 0.75248 0.24279 0.88845
 C1173 C 0.75409 0.27231 0.90630
 C1174 C 0.75583 0.27085 0.93924
 H1175 H 0.75421 0.30989 1.10879
 H1176 H 0.75342 0.31228 1.05111
 H1177 H 0.75201 0.20411 1.04795
 H1178 H 0.75322 0.20170 1.10523
 H1179 H 0.74571 0.28495 1.00049
 H1180 H 0.76367 0.21337 0.99936
 H1181 H 0.75463 0.18605 0.94892
 H1182 H 0.75171 0.18850 0.89136
 H1183 H 0.75425 0.29664 0.89482
 H1184 H 0.75763 0.29413 0.95192
 C1185 C 0.56121 0.09494 0.09234
 C1186 C 0.57717 0.11105 0.11056
 C1187 C 0.59966 0.10432 0.10619
 C1188 C 0.60586 0.08080 0.08307
 C1189 C 0.58985 0.06461 0.06481
 C1190 C 0.56731 0.07137 0.06932
 C1191 C 0.61578 0.12151 0.12704
 C1192 C 0.63735 0.12469 0.12051
 C1193 C 0.65326 0.14235 0.14136
 C1194 C 0.67584 0.13566 0.13776
 C1195 C 0.69152 0.15230 0.15613
 C1196 C 0.68501 0.17631 0.17852
 C1197 C 0.66239 0.18304 0.18218
 C1198 C 0.64671 0.16641 0.16376
 H1199 H 0.54403 0.10075 0.09664
 H1200 H 0.57188 0.12887 0.12826
 H1201 H 0.62293 0.07408 0.07944
 H1202 H 0.59515 0.04639 0.04751
 H1203 H 0.60927 0.13222 0.14856
 H1204 H 0.64394 0.11386 0.09910
 H1205 H 0.68140 0.11748 0.12057
 H1206 H 0.70878 0.14654 0.15251
 H1207 H 0.65677 0.20161 0.19893
 H1208 H 0.62960 0.17325 0.16671
 C1209 C -0.18725 0.35137 0.16649
 C1210 C -0.17188 0.36700 0.14690
 C1211 C -0.15011 0.35546 0.14552
 C1212 C -0.14391 0.32792 0.16459
 C1213 C -0.15938 0.31219 0.18432
 C1214 C -0.18129 0.32351 0.18514
 C1215 C -0.13493 0.37220 0.12296
 C1216 C -0.11292 0.37098 0.12517
 C1217 C -0.09791 0.38869 0.10300
 C1218 C -0.07596 0.37796 0.10126
 C1219 C -0.06079 0.39492 0.08224
 C1220 C -0.06719 0.42327 0.06457
 C1221 C -0.08928 0.43370 0.06571
 C1222 C -0.10448 0.41673 0.08487
 H1223 H -0.20398 0.36087 0.16656
 H1224 H -0.17710 0.38811 0.13252
 H1225 H -0.12744 0.31765 0.16367
 H1226 H -0.15437 0.29051 0.19808
 H1227 H -0.14247 0.38653 0.10406
 H1228 H -0.10533 0.35651 0.14394
 H1229 H -0.07043 0.35654 0.11499
 H1230 H -0.04390 0.38612 0.08190
 H1231 H -0.09466 0.45567 0.05270
 H1232 H -0.12106 0.42655 0.08616
 C1233 C 0.90852 0.06675 0.05459
 C1234 C 0.89122 0.08192 0.07091
 C1235 C 0.89540 0.10323 0.09649
 C1236 C 0.91745 0.10908 0.10545
 C1237 C 0.93481 0.09382 0.08910
 C1238 C 0.93055 0.07227 0.06360
 C1239 C 0.87623 0.11743 0.11372
 C1240 C 0.87726 0.14448 0.13238
 C1241 C 0.85794 0.15827 0.14960
 C1242 C 0.86173 0.17883 0.17586
 C1243 C 0.84413 0.19270 0.19265
 C1244 C 0.82222 0.18649 0.18345
 C1245 C 0.81839 0.16613 0.15697
 C1246 C 0.83601 0.15230 0.14014
 H1247 H 0.90453 0.05033 0.03509
 H1248 H 0.87445 0.07684 0.06356
 H1249 H 0.92145 0.12457 0.12555
 H1250 H 0.95156 0.09840 0.09686
 H1251 H 0.86062 0.10482 0.11050
 H1252 H 0.89287 0.15704 0.13580
 H1253 H 0.87841 0.18411 0.18352
 H1254 H 0.84776 0.20840 0.21281
 H1255 H 0.80175 0.16120 0.14892
 H1256 H 0.83227 0.13762 0.11940
 C1257 C 0.68981 0.35247 0.16346
 C1258 C 0.67453 0.36906 0.14433
 C1259 C 0.65256 0.35827 0.14299
 C1260 C 0.64615 0.33036 0.16144
 C1261 C 0.66147 0.31376 0.18069
 C1262 C 0.68353 0.32444 0.18168
 C1263 C 0.63731 0.37604 0.12117
 C1264 C 0.61531 0.37486 0.12381
 C1265 C 0.59992 0.39242 0.10206
 C1266 C 0.57799 0.38146 0.10118
 C1267 C 0.56245 0.39800 0.08253
 C1268 C 0.56839 0.42622 0.06433
 C1269 C 0.59046 0.43694 0.06465
 C1270 C 0.60609 0.42032 0.08342
 H1271 H 0.70667 0.36143 0.16357
 H1272 H 0.67996 0.39035 0.13033
 H1273 H 0.62958 0.32048 0.16047
 H1274 H 0.65614 0.29202 0.19409
 H1275 H 0.64474 0.39078 0.10244
 H1276 H 0.60791 0.36021 0.14261
 H1277 H 0.57277 0.36012 0.11528
 H1278 H 0.54562 0.38892 0.08286
 H1279 H 0.59553 0.45879 0.05118
 H1280 H 0.62268 0.43018 0.08397
 C1281 C -0.19009 0.15793 0.34418
 C1282 C -0.17405 0.14230 0.36281
 C1283 C -0.15164 0.14983 0.35889
 C1284 C -0.14558 0.17388 0.33599
 C1285 C -0.16160 0.18966 0.31728
 C1286 C -0.18423 0.18203 0.32102
 C1287 C -0.13542 0.13264 0.37978
 C1288 C -0.11382 0.12991 0.37323
 C1289 C -0.09781 0.11186 0.39380
 C1290 C -0.07525 0.11881 0.39016
 C1291 C -0.05947 0.10165 0.40809
 C1292 C -0.06584 0.07684 0.43003
 C1293 C -0.08843 0.06990 0.43378
 C1294 C -0.10423 0.08707 0.41583
 H1295 H -0.20715 0.15108 0.34830
 H1296 H -0.17923 0.12405 0.38039
 H1297 H -0.12858 0.18125 0.33275
 H1298 H -0.15611 0.20812 0.30011
 H1299 H -0.14188 0.12135 0.40118
 H1300 H -0.10731 0.14130 0.35191
 H1301 H -0.06980 0.13756 0.37324
 H1302 H -0.04223 0.10760 0.40441
 H1303 H -0.09396 0.05077 0.45024
 H1304 H -0.12132 0.08005 0.41879
 C1305 C 0.65663 0.31232 0.30454
 C1306 C 0.63923 0.32681 0.32130
 C1307 C 0.64329 0.34749 0.34743
 C1308 C 0.66531 0.35331 0.35650
 C1309 C 0.68272 0.33887 0.33969
 C1310 C 0.67861 0.31803 0.31361
 C1311 C 0.62413 0.36121 0.36509
 C1312 C 0.62532 0.38753 0.38470
 C1313 C 0.60619 0.40126 0.40242
 C1314 C 0.61033 0.42210 0.42841
 C1315 C 0.59298 0.43664 0.44523
 C1316 C 0.57097 0.43084 0.43636
 C1317 C 0.56678 0.40981 0.41044
 C1318 C 0.58415 0.39530 0.39357
 H1319 H 0.65280 0.29635 0.28464
 H1320 H 0.62247 0.32171 0.31387
 H1321 H 0.66930 0.36817 0.37701
 H1322 H 0.69942 0.34351 0.34761
 H1323 H 0.60847 0.34892 0.36139
 H1324 H 0.64099 0.39983 0.38836
 H1325 H 0.62711 0.42730 0.43569
 H1326 H 0.59687 0.45275 0.46500
 H1327 H 0.55005 0.40507 0.40268
 H1328 H 0.58009 0.38029 0.37319
 C1329 C 0.65830 0.17923 0.30067
 C1330 C 0.64087 0.16561 0.31807
 C1331 C 0.64480 0.14749 0.34607
 C1332 C 0.66677 0.14280 0.35603
 C1333 C 0.68424 0.15638 0.33854
 C1334 C 0.68019 0.17520 0.31092
 C1335 C 0.62549 0.13555 0.36459
 C1336 C 0.62645 0.11183 0.38720
 C1337 C 0.60701 0.09983 0.40547
 C1338 C 0.61067 0.08130 0.43332
 C1339 C 0.59302 0.06789 0.45049
 C1340 C 0.57121 0.07264 0.44016
 C1341 C 0.56747 0.09173 0.41263
 C1342 C 0.58512 0.10500 0.39536
 H1343 H 0.65453 0.19355 0.27950
 H1344 H 0.62416 0.16966 0.30981
 H1345 H 0.67065 0.12977 0.37781
 H1346 H 0.70089 0.15315 0.34733
 H1347 H 0.60985 0.14709 0.35895
 H1348 H 0.64210 0.10034 0.39287
 H1349 H 0.62731 0.07681 0.44166
 H1350 H 0.59654 0.05328 0.47158
 H1351 H 0.55090 0.09549 0.40373
 H1352 H 0.58137 0.11823 0.37365
 C1353 C -0.19051 0.34152 0.34882
 C1354 C -0.17455 0.35744 0.36727
 C1355 C -0.15202 0.35119 0.36247
 C1356 C -0.14579 0.32799 0.33914
 C1357 C -0.16175 0.31207 0.32067
 C1358 C -0.18431 0.31872 0.32519
 C1359 C -0.13575 0.36871 0.38278
 C1360 C -0.11450 0.37316 0.37482
 C1361 C -0.09826 0.39118 0.39478
 C1362 C -0.07571 0.38561 0.38948
 C1363 C -0.05975 0.40267 0.40699
 C1364 C -0.06598 0.42602 0.43013
 C1365 C -0.08857 0.43168 0.43542
 C1366 C -0.10453 0.41459 0.41792
 H1367 H -0.20772 0.34710 0.35315
 H1368 H -0.17983 0.37493 0.38527
 H1369 H -0.12871 0.32145 0.33534
 H1370 H -0.15635 0.29431 0.30300
 H1371 H -0.14184 0.37869 0.40486
 H1372 H -0.10843 0.36319 0.35272
 H1373 H -0.07039 0.36794 0.37167
 H1374 H -0.04253 0.39775 0.40213
 H1375 H -0.09400 0.44968 0.45285
 H1376 H -0.12165 0.42054 0.42215
 C1377 C 0.00229 0.46393 0.15412
 C1378 C 0.00388 0.46220 0.18707
 C1379 C 0.00488 0.49149 0.20521
 C1380 C 0.00467 0.52273 0.18955
 C1381 C 0.00307 0.52447 0.15656
 C1382 C 0.00181 0.49510 0.13844
 C1383 C 0.00668 0.48820 0.24012
 C1384 C 0.00096 0.51251 0.26033
 C1385 C 0.00235 0.50916 0.29527
 C1386 C 0.00286 0.53844 0.31345
 C1387 C 0.00338 0.53672 0.34646
 C1388 C 0.00323 0.50557 0.36217
 C1389 C 0.00277 0.47618 0.34399
 C1390 C 0.00225 0.47791 0.31093
 H1391 H 0.00150 0.44077 0.14095
 H1392 H 0.00421 0.43783 0.19847
 H1393 H 0.00619 0.54592 0.20243
 H1394 H 0.00305 0.54889 0.14527
 H1395 H 0.01261 0.46449 0.24922
 H1396 H -0.00500 0.53620 0.25122
 H1397 H 0.00280 0.56282 0.30205
 H1398 H 0.00369 0.55990 0.35964
 H1399 H 0.00244 0.45177 0.35529
 H1400 H 0.00117 0.45471 0.29795
 C1401 C 0.25581 0.78679 1.09558
 C1402 C 0.25491 0.78820 1.06259
 C1403 C 0.25312 0.75880 1.04477
 C1404 C 0.25221 0.72775 1.06070
 C1405 C 0.25313 0.72632 1.09371
 C1406 C 0.25477 0.75583 1.11155
 C1407 C 0.25124 0.76185 1.00993
 C1408 C 0.25592 0.73693 0.98987
 C1409 C 0.25370 0.74007 0.95506
 C1410 C 0.25134 0.71080 0.93717
 C1411 C 0.24947 0.71248 0.90426
 C1412 C 0.25005 0.74357 0.88846
 C1413 C 0.25255 0.77289 0.90637
 C1414 C 0.25446 0.77119 0.93926
 H1415 H 0.25703 0.81004 1.10854
 H1416 H 0.25551 0.81243 1.05093
 H1417 H 0.25013 0.70454 1.04800
 H1418 H 0.25205 0.70208 1.10525
 H1419 H 0.24581 0.78581 1.00077
 H1420 H 0.26129 0.71293 0.99899
 H1421 H 0.25089 0.68651 0.94872
 H1422 H 0.24772 0.68936 0.89121
 H1423 H 0.25339 0.79721 0.89495
 H1424 H 0.25707 0.79429 0.95195
 C1425 C 0.06078 0.59193 0.09624
 C1426 C 0.07680 0.60793 0.11445
 C1427 C 0.09931 0.60314 0.10834
 C1428 C 0.10547 0.58140 0.08369
 C1429 C 0.08940 0.56531 0.06543
 C1430 C 0.06684 0.57042 0.07145
 C1431 C 0.11555 0.62061 0.12885
 C1432 C 0.13673 0.62583 0.12098
 C1433 C 0.15271 0.64388 0.14142
 C1434 C 0.17532 0.63861 0.13650
 C1435 C 0.19104 0.65560 0.15451
 C1436 C 0.18453 0.67862 0.17782
 C1437 C 0.16187 0.68405 0.18271
 C1438 C 0.14614 0.66699 0.16469
 H1439 H 0.04359 0.59637 0.10179
 H1440 H 0.07154 0.62429 0.13339
 H1441 H 0.12259 0.57611 0.07869
 H1442 H 0.09468 0.54864 0.04677
 H1443 H 0.10945 0.62988 0.15120
 H1444 H 0.14295 0.61642 0.09875
 H1445 H 0.18088 0.62121 0.11860
 H1446 H 0.20832 0.65086 0.14990
 H1447 H 0.15625 0.70178 0.20025
 H1448 H 0.12894 0.67270 0.16864
 C1449 C 0.40893 0.94033 0.05778
 C1450 C 0.39169 0.92591 0.07503
 C1451 C 0.39586 0.90282 0.09943
 C1452 C 0.41792 0.89448 0.10628
 C1453 C 0.43529 0.90889 0.08903
 C1454 C 0.43116 0.93231 0.06450
 C1455 C 0.37671 0.88919 0.11745
 C1456 C 0.37743 0.86182 0.13608
 C1457 C 0.35803 0.84832 0.15363
 C1458 C 0.36174 0.82666 0.17938
 C1459 C 0.34409 0.81250 0.19607
 C1460 C 0.32218 0.81947 0.18729
 C1461 C 0.31842 0.84115 0.16149
 C1462 C 0.33609 0.85531 0.14478
 H1463 H 0.40464 0.95811 0.03931
 H1464 H 0.37491 0.93295 0.06925
 H1465 H 0.42205 0.87747 0.12536
 H1466 H 0.45197 0.90192 0.09541
 H1467 H 0.36130 0.90253 0.11482
 H1468 H 0.39281 0.84854 0.13909
 H1469 H 0.37841 0.82060 0.18662
 H1470 H 0.34768 0.79580 0.21569
 H1471 H 0.30179 0.84676 0.15378
 H1472 H 0.33236 0.87093 0.12450
 C1473 C 0.34365 0.69105 0.19452
 C1474 C 0.36121 0.67602 0.17860
 C1475 C 0.35735 0.65315 0.15415
 C1476 C 0.33542 0.64603 0.14552
 C1477 C 0.31782 0.66112 0.16141
 C1478 C 0.32172 0.68379 0.18613
 C1479 C 0.37658 0.63838 0.13759
 C1480 C 0.37574 0.60932 0.12184
 C1481 C 0.39474 0.59468 0.10465
 C1482 C 0.39045 0.57119 0.08088
 C1483 C 0.40768 0.55654 0.06398
 C1484 C 0.42974 0.56482 0.07062
 C1485 C 0.43411 0.58801 0.09475
 C1486 C 0.41682 0.60274 0.11165
 H1487 H 0.34732 0.70855 0.21329
 H1488 H 0.37792 0.68221 0.18553
 H1489 H 0.33168 0.62948 0.12608
 H1490 H 0.30117 0.65522 0.15407
 H1491 H 0.39193 0.65209 0.13885
 H1492 H 0.36036 0.59563 0.12080
 H1493 H 0.37364 0.56429 0.07517
 H1494 H 0.40363 0.53861 0.04574
 H1495 H 0.45090 0.59470 0.10073
 H1496 H 0.42094 0.61987 0.13047
 C1497 C 0.06099 0.90605 0.09229
 C1498 C 0.07698 0.89065 0.11115
 C1499 C 0.09941 0.89818 0.10715
 C1500 C 0.10552 0.92185 0.08389
 C1501 C 0.08950 0.93730 0.06498
 C1502 C 0.06703 0.92964 0.06900
 C1503 C 0.11559 0.88148 0.12836
 C1504 C 0.13718 0.87876 0.12193
 C1505 C 0.15312 0.86120 0.14291
 C1506 C 0.17564 0.86855 0.13970
 C1507 C 0.19136 0.85178 0.15805
 C1508 C 0.18491 0.82698 0.17997
 C1509 C 0.16234 0.81969 0.18330
 C1510 C 0.14663 0.83646 0.16492
 H1511 H 0.04386 0.89964 0.09625
 H1512 H 0.07178 0.87271 0.12899
 H1513 H 0.12251 0.92923 0.08057
 H1514 H 0.09473 0.95563 0.04754
 H1515 H 0.10911 0.87061 0.14995
 H1516 H 0.14375 0.88976 0.10047
 H1517 H 0.18113 0.88729 0.12279
 H1518 H 0.20859 0.85797 0.15471
 H1519 H 0.15678 0.80053 0.19971
 H1520 H 0.12957 0.82913 0.16751
 C1521 C 0.30840 0.65517 0.34674
 C1522 C 0.32414 0.63827 0.36495
 C1523 C 0.34672 0.64402 0.36023
 C1524 C 0.35326 0.66769 0.33722
 C1525 C 0.33753 0.68463 0.31902
 C1526 C 0.31490 0.67852 0.32348
 C1527 C 0.36277 0.62571 0.38041
 C1528 C 0.38383 0.62045 0.37203
 C1529 C 0.40012 0.60261 0.39218
 C1530 C 0.42261 0.60813 0.38641
 C1531 C 0.43866 0.59180 0.40445
 C1532 C 0.43261 0.56923 0.42862
 C1533 C 0.41007 0.56335 0.43420
 C1534 C 0.39399 0.57978 0.41616
 H1535 H 0.29113 0.64999 0.35104
 H1536 H 0.31863 0.62046 0.38272
 H1537 H 0.37044 0.67384 0.33356
 H1538 H 0.34315 0.70271 0.30159
 H1539 H 0.35673 0.61606 0.40276
 H1540 H 0.38976 0.62999 0.34957
 H1541 H 0.42781 0.62533 0.36793
 H1542 H 0.45584 0.59679 0.39926
 H1543 H 0.40481 0.54589 0.45241
 H1544 H 0.37688 0.57393 0.42076
 C1545 C 0.15689 -0.18280 0.30168
 C1546 C 0.13952 -0.16770 0.31802
 C1547 C 0.14360 -0.14689 0.34406
 C1548 C 0.16561 -0.14144 0.35336
 C1549 C 0.18300 -0.15651 0.33698
 C1550 C 0.17886 -0.17760 0.31109
 C1551 C 0.12442 -0.13284 0.36148
 C1552 C 0.12565 -0.10674 0.38136
 C1553 C 0.10650 -0.09316 0.39916
 C1554 C 0.11057 -0.07311 0.42573
 C1555 C 0.09317 -0.05923 0.44297
 C1556 C 0.07117 -0.06492 0.43394
 C1557 C 0.06706 -0.08489 0.40725
 C1558 C 0.08448 -0.09874 0.38999
 H1559 H 0.15304 -0.19891 0.28189
 H1560 H 0.12277 -0.17251 0.31039
 H1561 H 0.16961 -0.12644 0.37378
 H1562 H 0.19968 -0.15220 0.34512
 H1563 H 0.10870 -0.14487 0.35753
 H1564 H 0.14137 -0.09472 0.38537
 H1565 H 0.12733 -0.06817 0.43324
 H1566 H 0.09700 -0.04384 0.46326
 H1567 H 0.05036 -0.08946 0.39932
 H1568 H 0.08048 -0.11305 0.36913
 C1569 C 0.15627 0.68395 0.29956
 C1570 C 0.13872 0.66943 0.31619
 C1571 C 0.14256 0.64887 0.34270
 C1572 C 0.16452 0.64297 0.35210
 C1573 C 0.18207 0.65740 0.33541
 C1574 C 0.17817 0.67836 0.30914
 C1575 C 0.12324 0.63563 0.36056
 C1576 C 0.12429 0.60996 0.38121
 C1577 C 0.10518 0.59718 0.39979
 C1578 C 0.10943 0.57699 0.42641
 C1579 C 0.09216 0.56341 0.44424
 C1580 C 0.07009 0.56953 0.43580
 C1581 C 0.06577 0.58990 0.40924
 C1582 C 0.08308 0.60349 0.39136
 H1583 H 0.15261 0.69998 0.27948
 H1584 H 0.12203 0.67458 0.30846
 H1585 H 0.16838 0.62818 0.37286
 H1586 H 0.19870 0.65286 0.34372
 H1587 H 0.10763 0.64793 0.35634
 H1588 H 0.13988 0.59760 0.38530
 H1589 H 0.12624 0.57156 0.43343
 H1590 H 0.09618 0.54774 0.46444
 H1591 H 0.04899 0.59480 0.40179
 H1592 H 0.07893 0.61809 0.37059
 C1593 C 0.30959 -0.15844 0.34904
 C1594 C 0.32560 -0.14150 0.36655
 C1595 C 0.34811 -0.14607 0.36021
 C1596 C 0.35432 -0.16875 0.33642
 C1597 C 0.33832 -0.18575 0.31893
 C1598 C 0.31575 -0.18066 0.32489
 C1599 C 0.36445 -0.12746 0.37947
 C1600 C 0.38513 -0.12097 0.36985
 C1601 C 0.40146 -0.10236 0.38911
 C1602 C 0.42397 -0.10692 0.38278
 C1603 C 0.43998 -0.08999 0.40030
 C1604 C 0.43382 -0.06779 0.42447
 C1605 C 0.41124 -0.06271 0.43041
 C1606 C 0.39525 -0.07969 0.41291
 H1607 H 0.29238 -0.15406 0.35447
 H1608 H 0.32036 -0.12447 0.38496
 H1609 H 0.37147 -0.17397 0.33149
 H1610 H 0.34369 -0.20292 0.30074
 H1611 H 0.35890 -0.11848 0.40223
 H1612 H 0.39067 -0.12995 0.34709
 H1613 H 0.42922 -0.12394 0.36436
 H1614 H 0.45719 -0.09436 0.39489
 H1615 H 0.40587 -0.04555 0.44862
 H1616 H 0.37810 -0.07446 0.41783
 C1617 C 0.49987 0.46247 0.15420
 C1618 C 0.50080 0.46066 0.18718
 C1619 C 0.50161 0.48992 0.20535
 C1620 C 0.50180 0.52120 0.18978
 C1621 C 0.50086 0.52302 0.15679
 C1622 C 0.49992 0.49368 0.13860
 C1623 C 0.50303 0.48667 0.24022
 C1624 C 0.49681 0.51090 0.26017
 C1625 C 0.49841 0.50790 0.29505
 C1626 C 0.49908 0.53733 0.31297
 C1627 C 0.50027 0.53586 0.34593
 C1628 C 0.50063 0.50479 0.36178
 C1629 C 0.49980 0.47526 0.34385
 C1630 C 0.49862 0.47676 0.31085
 H1631 H 0.49923 0.43934 0.14095
 H1632 H 0.50081 0.43628 0.19857
 H1633 H 0.50320 0.54434 0.20278
 H1634 H 0.50118 0.54746 0.14556
 H1635 H 0.50926 0.46321 0.24947
 H1636 H 0.49053 0.53433 0.25088
 H1637 H 0.49876 0.56162 0.30140
 H1638 H 0.50076 0.55912 0.35896
 H1639 H 0.49977 0.45092 0.35530
 H1640 H 0.49735 0.45347 0.29805
 C1641 C 0.75542 0.78670 1.09543
 C1642 C 0.75461 0.78797 1.06243
 C1643 C 0.75292 0.75850 1.04469
 C1644 C 0.75203 0.72751 1.06072
 C1645 C 0.75285 0.72622 1.09376
 C1646 C 0.75439 0.75581 1.11151
 C1647 C 0.75114 0.76144 1.00980
 C1648 C 0.75568 0.73640 0.98979
 C1649 C 0.75359 0.73954 0.95495
 C1650 C 0.75106 0.71031 0.93703
 C1651 C 0.74928 0.71202 0.90410
 C1652 C 0.75012 0.74309 0.88830
 C1653 C 0.75283 0.77236 0.90623
 C1654 C 0.75466 0.77064 0.93913
 H1655 H 0.75657 0.81001 1.10831
 H1656 H 0.75521 0.81216 1.05069
 H1657 H 0.75004 0.70423 1.04811
 H1658 H 0.75180 0.70202 1.10538
 H1659 H 0.74589 0.78545 1.00055
 H1660 H 0.76085 0.71231 0.99896
 H1661 H 0.75038 0.68603 0.94858
 H1662 H 0.74734 0.68894 0.89104
 H1663 H 0.75389 0.79667 0.89482
 H1664 H 0.75742 0.79369 0.95183
 C1665 C 0.56062 0.59803 0.09115
 C1666 C 0.57653 0.61444 0.10922
 C1667 C 0.59903 0.60767 0.10502
 C1668 C 0.60530 0.58386 0.08222
 C1669 C 0.58935 0.56739 0.06411
 C1670 C 0.56680 0.57414 0.06848
 C1671 C 0.61509 0.62506 0.12577
 C1672 C 0.63666 0.62816 0.11924
 C1673 C 0.65256 0.64570 0.14013
 C1674 C 0.67509 0.63852 0.13688
 C1675 C 0.69077 0.65493 0.15542
 C1676 C 0.68430 0.67918 0.17758
 C1677 C 0.66173 0.68645 0.18085
 C1678 C 0.64604 0.67004 0.16228
 H1679 H 0.54343 0.60385 0.09531
 H1680 H 0.57120 0.63249 0.12668
 H1681 H 0.62238 0.57709 0.07876
 H1682 H 0.59471 0.54890 0.04709
 H1683 H 0.60857 0.63589 0.14723
 H1684 H 0.64326 0.61723 0.09789
 H1685 H 0.68060 0.62011 0.11989
 H1686 H 0.70800 0.64876 0.15209
 H1687 H 0.65616 0.70523 0.19742
 H1688 H 0.62896 0.67723 0.16490
 C1689 C 0.90788 0.93329 0.05140
 C1690 C 0.89051 0.91869 0.06822
 C1691 C 0.89458 0.89810 0.09460
 C1692 C 0.91660 0.89214 0.10365
 C1693 C 0.93402 0.90674 0.08675
 C1694 C 0.92986 0.92780 0.06064
 C1695 C 0.87535 0.88487 0.11258
 C1696 C 0.87635 0.85912 0.13311
 C1697 C 0.85705 0.84635 0.15121
 C1698 C 0.86089 0.82679 0.17837
 C1699 C 0.84333 0.81342 0.19576
 C1700 C 0.82141 0.81917 0.18631
 C1701 C 0.81752 0.83881 0.15915
 C1702 C 0.83510 0.85211 0.14170
 H1703 H 0.90402 0.94934 0.03139
 H1704 H 0.87375 0.92381 0.06073
 H1705 H 0.92059 0.87721 0.12426
 H1706 H 0.95073 0.90226 0.09474
 H1707 H 0.85976 0.89725 0.10846
 H1708 H 0.89194 0.84678 0.13740
 H1709 H 0.87758 0.82174 0.18615
 H1710 H 0.84698 0.79828 0.21645
 H1711 H 0.80088 0.84333 0.15088
 H1712 H 0.83128 0.86605 0.12040
 C1713 C 0.90753 0.56355 0.05849
 C1714 C 0.89027 0.57854 0.07500
 C1715 C 0.89452 0.60055 0.10001
 C1716 C 0.91660 0.60718 0.10830
 C1717 C 0.93393 0.59211 0.09175
 C1718 C 0.92959 0.56999 0.06674
 C1719 C 0.87544 0.61481 0.11730
 C1720 C 0.87645 0.64246 0.13514
 C1721 C 0.85717 0.65644 0.15219
 C1722 C 0.86097 0.67729 0.17823
 C1723 C 0.84337 0.69146 0.19476
 C1724 C 0.82147 0.68528 0.18546
 C1725 C 0.81764 0.66459 0.15922
 C1726 C 0.83527 0.65043 0.14267
 H1727 H 0.90351 0.54663 0.03939
 H1728 H 0.87346 0.57285 0.06819
 H1729 H 0.92066 0.62320 0.12799
 H1730 H 0.95071 0.59738 0.09894
 H1731 H 0.85989 0.60182 0.11478
 H1732 H 0.89198 0.65541 0.13793
 H1733 H 0.87765 0.68258 0.18590
 H1734 H 0.84698 0.70743 0.21473
 H1735 H 0.80102 0.65967 0.15112
 H1736 H 0.83157 0.63551 0.12207
 C1737 C 0.55994 0.90136 0.08770
 C1738 C 0.57599 0.88530 0.10600
 C1739 C 0.59839 0.89326 0.10259
 C1740 C 0.60444 0.91767 0.08001
 C1741 C 0.58841 0.93381 0.06159
 C1742 C 0.56577 0.92633 0.06536
 C1743 C 0.61449 0.87638 0.12393
 C1744 C 0.63640 0.87576 0.11913
 C1745 C 0.65230 0.85873 0.14069
 C1746 C 0.67469 0.86746 0.13869
 C1747 C 0.69042 0.85142 0.15763
 C1748 C 0.68417 0.82601 0.17902
 C1749 C 0.66173 0.81734 0.18118
 C1750 C 0.64600 0.83335 0.16218
 H1751 H 0.54289 0.89440 0.09166
 H1752 H 0.57079 0.86665 0.12319
 H1753 H 0.62141 0.92524 0.07691
 H1754 H 0.59390 0.95274 0.04487
 H1755 H 0.60770 0.86393 0.14453
 H1756 H 0.64331 0.88838 0.09872
 H1757 H 0.68008 0.88674 0.12226
 H1758 H 0.70755 0.85869 0.15518
 H1759 H 0.65631 0.79764 0.19710
 H1760 H 0.62911 0.82495 0.16394
 C1761 C -0.19157 0.65571 0.34664
 C1762 C -0.17582 0.63958 0.36546
 C1763 C -0.15332 0.64715 0.36229
 C1764 C -0.14693 0.67179 0.34010
 C1765 C -0.16268 0.68792 0.32124
 C1766 C -0.18520 0.68006 0.32423
 C1767 C -0.13730 0.62949 0.38314
 C1768 C -0.11570 0.62677 0.37660
 C1769 C -0.09957 0.60890 0.39708
 C1770 C -0.07707 0.61587 0.39291
 C1771 C -0.06110 0.59896 0.41064
 C1772 C -0.06721 0.57435 0.43294
 C1773 C -0.08976 0.56741 0.43727
 C1774 C -0.10576 0.58439 0.41951
 H1775 H -0.20876 0.64914 0.34979
 H1776 H -0.18125 0.62096 0.38252
 H1777 H -0.12991 0.67934 0.33756
 H1778 H -0.15719 0.70684 0.30455
 H1779 H -0.14385 0.61800 0.40439
 H1780 H -0.10922 0.63817 0.35526
 H1781 H -0.07179 0.63445 0.37571
 H1782 H -0.04391 0.60493 0.40651
 H1783 H -0.09507 0.54845 0.45405
 H1784 H -0.12283 0.57747 0.42294
 C1785 C 0.65647 -0.18337 0.30230
 C1786 C 0.63908 -0.16921 0.31932
 C1787 C 0.64314 -0.14955 0.34615
 C1788 C 0.66515 -0.14421 0.35552
 C1789 C 0.68255 -0.15830 0.33845
 C1790 C 0.67843 -0.17831 0.31181
 C1791 C 0.62397 -0.13645 0.36418
 C1792 C 0.62519 -0.11123 0.38501
 C1793 C 0.60601 -0.09816 0.40305
 C1794 C 0.61006 -0.07859 0.42994
 C1795 C 0.59266 -0.06449 0.44699
 C1796 C 0.57071 -0.06951 0.43744
 C1797 C 0.56660 -0.08941 0.41072
 C1798 C 0.58401 -0.10344 0.39362
 H1799 H 0.65265 -0.19869 0.28196
 H1800 H 0.62233 -0.17388 0.31160
 H1801 H 0.66914 -0.13011 0.37650
 H1802 H 0.69923 -0.15420 0.34670
 H1803 H 0.60827 -0.14836 0.35975
 H1804 H 0.64088 -0.09933 0.38945
 H1805 H 0.62681 -0.07396 0.43769
 H1806 H 0.59648 -0.04925 0.46739
 H1807 H 0.54992 -0.09348 0.40244
 H1808 H 0.58002 -0.11746 0.37259
 C1809 C 0.65613 0.68412 0.29988
 C1810 C 0.63856 0.67037 0.31699
 C1811 C 0.64233 0.65134 0.34452
 C1812 C 0.66427 0.64611 0.35439
 C1813 C 0.68185 0.65974 0.33719
 C1814 C 0.67800 0.67925 0.30994
 C1815 C 0.62295 0.63885 0.36270
 C1816 C 0.62403 0.61472 0.38493
 C1817 C 0.60480 0.60227 0.40340
 C1818 C 0.60889 0.58346 0.43095
 C1819 C 0.59155 0.56950 0.44833
 C1820 C 0.56958 0.57388 0.43853
 C1821 C 0.56538 0.59330 0.41132
 C1822 C 0.58277 0.60724 0.39385
 H1823 H 0.65252 0.69905 0.27903
 H1824 H 0.62189 0.67493 0.30884
 H1825 H 0.66811 0.63251 0.37586
 H1826 H 0.69845 0.65585 0.34589
 H1827 H 0.60726 0.65032 0.35728
 H1828 H 0.63972 0.60319 0.39028
 H1829 H 0.62564 0.57916 0.43889
 H1830 H 0.59544 0.55471 0.46917
 H1831 H 0.54868 0.59685 0.40288
 H1832 H 0.57875 0.62082 0.37243
 C1833 C -0.19082 -0.15788 0.34902
 C1834 C -0.17480 -0.14181 0.36725
 C1835 C -0.15229 -0.14803 0.36228
 C1836 C -0.14613 -0.17141 0.33907
 C1837 C -0.16214 -0.18750 0.32085
 C1838 C -0.18469 -0.18083 0.32548
 C1839 C -0.13595 -0.13027 0.38227
 C1840 C -0.11480 -0.12559 0.37390
 C1841 C -0.09849 -0.10730 0.39352
 C1842 C -0.07596 -0.11273 0.38793
 C1843 C -0.05994 -0.09550 0.40518
 C1844 C -0.06610 -0.07213 0.42834
 C1845 C -0.08868 -0.06658 0.43388
 C1846 C -0.10469 -0.08384 0.41664
 H1847 H -0.20801 -0.15228 0.35344
 H1848 H -0.18003 -0.12419 0.38516
 H1849 H -0.12905 -0.17793 0.33518
 H1850 H -0.15680 -0.20534 0.30321
 H1851 H -0.14191 -0.12028 0.40441
 H1852 H -0.10887 -0.13556 0.35172
 H1853 H -0.07070 -0.13043 0.37011
 H1854 H -0.04273 -0.10032 0.40013
 H1855 H -0.09404 -0.04860 0.45137
 H1856 H -0.12181 -0.07800 0.42107
 C1857 C 0.00074 0.03776 0.84652
 C1858 C -0.00038 0.03939 0.81351
 C1859 C -0.00131 0.01013 0.79535
 C1860 C -0.00116 -0.02105 0.81108
 C1861 C -0.00001 -0.02280 0.84411
 C1862 C 0.00080 0.00659 0.86257
 C1863 C -0.00322 0.01347 0.76038
 C1864 C 0.00149 -0.01120 0.73999
 C1865 C -0.00060 -0.00794 0.70506
 C1866 C -0.00203 -0.03728 0.68704
 C1867 C -0.00340 -0.03571 0.65405
 C1868 C -0.00322 -0.00466 0.63816
 C1869 C -0.00179 0.02479 0.65617
 C1870 C -0.00042 0.02321 0.68921
 H1871 H 0.00135 0.06118 0.85933
 H1872 H -0.00057 0.06375 0.80208
 H1873 H -0.00250 -0.04428 0.79822
 H1874 H -0.00013 -0.04741 0.85507
 H1875 H -0.00868 0.03749 0.75140
 H1876 H 0.00693 -0.03523 0.74893
 H1877 H -0.00205 -0.06160 0.69854
 H1878 H -0.00437 -0.05894 0.64101
 H1879 H -0.00134 0.04912 0.64472
 H1880 H 0.00135 0.04643 0.70198
 C1881 C 0.24821 0.21392 0.40361
 C1882 C 0.24923 0.21228 0.43662
 C1883 C 0.24981 0.24159 0.45476
 C1884 C 0.24958 0.27280 0.43902
 C1885 C 0.24856 0.27446 0.40596
 C1886 C 0.24789 0.24504 0.38783
 C1887 C 0.25142 0.23829 0.48974
 C1888 C 0.24589 0.26265 0.51003
 C1889 C 0.24746 0.25926 0.54500
 C1890 C 0.24813 0.28850 0.56325
 C1891 C 0.24912 0.28671 0.59626
 C1892 C 0.24930 0.25553 0.61193
 C1893 C 0.24854 0.22619 0.59369
 C1894 C 0.24755 0.22799 0.56064
 H1895 H 0.24782 0.19071 0.39048
 H1896 H 0.24955 0.18792 0.44804
 H1897 H 0.25071 0.29604 0.45191
 H1898 H 0.24859 0.29885 0.39461
 H1899 H 0.25724 0.21451 0.49881
 H1900 H 0.24010 0.28646 0.50097
 H1901 H 0.24793 0.31290 0.55190
 H1902 H 0.24962 0.30986 0.60949
 H1903 H 0.24842 0.20175 0.60495
 H1904 H 0.24632 0.20480 0.54768
 C1905 C 0.05847 0.09095 0.59953
 C1906 C 0.07423 0.10675 0.61843
 C1907 C 0.09678 0.10027 0.61432
 C1908 C 0.10323 0.07694 0.59119
 C1909 C 0.08747 0.06113 0.57226
 C1910 C 0.06489 0.06802 0.57610
 C1911 C 0.11283 0.11773 0.63510
 C1912 C 0.13418 0.12202 0.62769
 C1913 C 0.15034 0.13988 0.64798
 C1914 C 0.17287 0.13445 0.64254
 C1915 C 0.18883 0.15147 0.66003
 C1916 C 0.18267 0.17467 0.68336
 C1917 C 0.16009 0.18008 0.68896
 C1918 C 0.14409 0.16298 0.67144
 H1919 H 0.04124 0.09674 0.60337
 H1920 H 0.06875 0.12432 0.63623
 H1921 H 0.12034 0.07023 0.58791
 H1922 H 0.09301 0.04329 0.55476
 H1923 H 0.10648 0.12784 0.65697
 H1924 H 0.14043 0.11203 0.60571
 H1925 H 0.17819 0.11700 0.62454
 H1926 H 0.20603 0.14668 0.65491
 H1927 H 0.15473 0.19795 0.70655
 H1928 H 0.12695 0.16871 0.67589
 C1929 C 0.30950 0.34864 0.66058
 C1930 C 0.32480 0.36483 0.64120
 C1931 C 0.34713 0.35603 0.64229
 C1932 C 0.35389 0.33035 0.66319
 C1933 C 0.33853 0.31408 0.68266
 C1934 C 0.31614 0.32294 0.68144
 C1935 C 0.36250 0.37343 0.62045
 C1936 C 0.38422 0.37566 0.62564
 C1937 C 0.39975 0.39282 0.60390
 C1938 C 0.42205 0.38398 0.60564
 C1939 C 0.43762 0.40010 0.58674
 C1940 C 0.43133 0.42583 0.56569
 C1941 C 0.40894 0.43459 0.56362
 C1942 C 0.39327 0.41831 0.58262
 H1943 H 0.29238 0.35613 0.65888
 H1944 H 0.31914 0.38434 0.62523
 H1945 H 0.37083 0.32200 0.66405
 H1946 H 0.34413 0.29408 0.69811
 H1947 H 0.35542 0.38511 0.59964
 H1948 H 0.39124 0.36408 0.64654
 H1949 H 0.42749 0.36455 0.62186
 H1950 H 0.45470 0.39259 0.58904
 H1951 H 0.40360 0.45455 0.54794
 H1952 H 0.37632 0.42654 0.58118
 C1953 C 0.34183 0.19317 0.68708
 C1954 C 0.35904 0.17857 0.67012
 C1955 C 0.35472 0.15529 0.64617
 C1956 C 0.33263 0.14734 0.63911
 C1957 C 0.31536 0.16201 0.65608
 C1958 C 0.31976 0.18503 0.68035
 C1959 C 0.37370 0.14075 0.62886
 C1960 C 0.37282 0.11189 0.61280
 C1961 C 0.39205 0.09726 0.59611
 C1962 C 0.38818 0.07474 0.57137
 C1963 C 0.40575 0.05987 0.55532
 C1964 C 0.42767 0.06697 0.56384
 C1965 C 0.43156 0.08930 0.58884
 C1966 C 0.41398 0.10421 0.60488
 H1967 H 0.34589 0.21094 0.70545
 H1968 H 0.37585 0.18537 0.67589
 H1969 H 0.32849 0.13038 0.62017
 H1970 H 0.29856 0.15545 0.65003
 H1971 H 0.38910 0.15438 0.63005
 H1972 H 0.35745 0.09825 0.61136
 H1973 H 0.37148 0.06869 0.56434
 H1974 H 0.40208 0.04264 0.53632
 H1975 H 0.44822 0.09505 0.59630
 H1976 H 0.41771 0.12048 0.62453
 C1977 C 0.18734 0.35018 0.66644
 C1978 C 0.17170 0.36720 0.64841
 C1979 C 0.14936 0.35864 0.65037
 C1980 C 0.14290 0.33258 0.67104
 C1981 C 0.15864 0.31538 0.68914
 C1982 C 0.18109 0.32379 0.68679
 C1983 C 0.13376 0.37652 0.62929
 C1984 C 0.11210 0.37897 0.63492
 C1985 C 0.09663 0.39662 0.61341
 C1986 C 0.07427 0.38799 0.61474
 C1987 C 0.05898 0.40398 0.59522
 C1988 C 0.06566 0.42928 0.57394
 C1989 C 0.08806 0.43817 0.57270
 C1990 C 0.10340 0.42213 0.59231
 H1991 H 0.20446 0.35746 0.66394
 H1992 H 0.17713 0.38706 0.63264
 H1993 H 0.12590 0.32460 0.67263
 H1994 H 0.15329 0.29502 0.70436
 H1995 H 0.14069 0.38828 0.60841
 H1996 H 0.10513 0.36710 0.65573
 H1997 H 0.06859 0.36865 0.63090
 H1998 H 0.04185 0.39654 0.59701
 H1999 H 0.09371 0.45788 0.55694
 H2000 H 0.12035 0.43040 0.59128
 C2001 C 0.44065 0.09358 0.90412
 C2002 C 0.42516 0.11001 0.88526
 C2003 C 0.40257 0.10543 0.89055
 C2004 C 0.39571 0.08339 0.91481
 C2005 C 0.41124 0.06680 0.93368
 C2006 C 0.43390 0.07181 0.92860
 C2007 C 0.38685 0.12326 0.86966
 C2008 C 0.36629 0.13099 0.87854
 C2009 C 0.35028 0.14827 0.85769
 C2010 C 0.32782 0.14379 0.86397
 C2011 C 0.31196 0.15953 0.84529
 C2012 C 0.31818 0.18053 0.81994
 C2013 C 0.34073 0.18547 0.81381
 C2014 C 0.35666 0.16949 0.83252
 H2015 H 0.45796 0.09783 0.89925
 H2016 H 0.43087 0.12655 0.86655
 H2017 H 0.37843 0.07827 0.91891
 H2018 H 0.40550 0.04988 0.95204
 H2019 H 0.39270 0.13059 0.84643
 H2020 H 0.36056 0.12375 0.90186
 H2021 H 0.32247 0.12784 0.88334
 H2022 H 0.29476 0.15536 0.85100
 H2023 H 0.34606 0.20178 0.79472
 H2024 H 0.37386 0.17443 0.82755
 C2025 C 0.09159 0.44608 0.93644
 C2026 C 0.10907 0.43171 0.91984
 C2027 C 0.10521 0.40773 0.89638
 C2028 C 0.08322 0.39888 0.88941
 C2029 C 0.06565 0.41336 0.90603
 C2030 C 0.06962 0.43705 0.92986
 C2031 C 0.12456 0.39343 0.87952
 C2032 C 0.12415 0.36433 0.86379
 C2033 C 0.14357 0.34975 0.84733
 C2034 C 0.13977 0.32590 0.82373
 C2035 C 0.15733 0.31055 0.80813
 C2036 C 0.17930 0.31840 0.81589
 C2037 C 0.18319 0.34232 0.83955
 C2038 C 0.16554 0.35780 0.85517
 H2039 H 0.09538 0.46442 0.95443
 H2040 H 0.12576 0.43926 0.92556
 H2041 H 0.07938 0.38131 0.87084
 H2042 H 0.04896 0.40607 0.90009
 H2043 H 0.13980 0.40744 0.88079
 H2044 H 0.10893 0.35031 0.86246
 H2045 H 0.12308 0.31904 0.81730
 H2046 H 0.15358 0.29225 0.79009
 H2047 H 0.19987 0.34877 0.84634
 H2048 H 0.16927 0.37532 0.87383
 C2049 C 0.06151 0.09274 0.90805
 C2050 C 0.07734 0.10763 0.88874
 C2051 C 0.09968 0.09993 0.89232
 C2052 C 0.10597 0.07675 0.91594
 C2053 C 0.09007 0.06165 0.93546
 C2054 C 0.06748 0.06916 0.93167
 C2055 C 0.11547 0.11617 0.87026
 C2056 C 0.13715 0.11873 0.87559
 C2057 C 0.15241 0.13630 0.85370
 C2058 C 0.17477 0.12765 0.85446
 C2059 C 0.18999 0.14462 0.83553
 C2060 C 0.18324 0.17100 0.81551
 C2061 C 0.16078 0.17944 0.81436
 C2062 C 0.14551 0.16238 0.83335
 H2063 H 0.04448 0.09966 0.90392
 H2064 H 0.07202 0.12534 0.87076
 H2065 H 0.12299 0.06947 0.91905
 H2066 H 0.09557 0.04363 0.95303
 H2067 H 0.10862 0.12706 0.84891
 H2068 H 0.14427 0.10757 0.89661
 H2069 H 0.18054 0.10781 0.86999
 H2070 H 0.20716 0.13738 0.83711
 H2071 H 0.15507 0.19988 0.79951
 H2072 H 0.12852 0.17057 0.83276
 C2073 C 0.40926 0.44753 0.93244
 C2074 C 0.39165 0.43322 0.91618
 C2075 C 0.39486 0.40533 0.89677
 C2076 C 0.41642 0.39255 0.89325
 C2077 C 0.43419 0.40711 0.90943
 C2078 C 0.43076 0.43458 0.92950
 C2079 C 0.37534 0.39119 0.88024
 C2080 C 0.37412 0.35949 0.87011
 C2081 C 0.35461 0.34533 0.85359
 C2082 C 0.35782 0.31741 0.83423
 C2083 C 0.34021 0.30304 0.81802
 C2084 C 0.31870 0.31595 0.82096
 C2085 C 0.31526 0.34347 0.84097
 C2086 C 0.33304 0.35809 0.85711
 H2087 H 0.40596 0.46898 0.94728
 H2088 H 0.37534 0.44385 0.91907
 H2089 H 0.41973 0.37173 0.87770
 H2090 H 0.45055 0.39675 0.90641
 H2091 H 0.36133 0.40762 0.87705
 H2092 H 0.38813 0.34306 0.87331
 H2093 H 0.37414 0.30680 0.83135
 H2094 H 0.34352 0.28156 0.80321
 H2095 H 0.29890 0.35382 0.84399
 H2096 H 0.32972 0.37895 0.87262
 C2097 C 0.49954 0.03682 0.84563
 C2098 C 0.49764 0.03855 0.81273
 C2099 C 0.49545 0.00931 0.79476
 C2100 C 0.49488 -0.02186 0.81050
 C2101 C 0.49681 -0.02362 0.84342
 C2102 C 0.49914 0.00570 0.86139
 C2103 C 0.49321 0.01260 0.75994
 C2104 C 0.49785 -0.01219 0.73971
 C2105 C 0.49605 -0.00883 0.70485
 C2106 C 0.49429 -0.03807 0.68678
 C2107 C 0.49349 -0.03637 0.65380
 C2108 C 0.49459 -0.00529 0.63804
 C2109 C 0.49619 0.02406 0.65612
 C2110 C 0.49701 0.02235 0.68914
 H2111 H 0.50118 0.05994 0.85870
 H2112 H 0.49796 0.06289 0.80125
 H2113 H 0.49244 -0.04496 0.79775
 H2114 H 0.49613 -0.04797 0.85480
 H2115 H 0.48786 0.03667 0.75094
 H2116 H 0.50321 -0.03624 0.74871
 H2117 H 0.49365 -0.06239 0.69825
 H2118 H 0.49228 -0.05952 0.64066
 H2119 H 0.49730 0.04839 0.64476
 H2120 H 0.49907 0.04546 0.70202
 C2121 C 0.74886 0.21290 0.40424
 C2122 C 0.74984 0.21136 0.43722
 C2123 C 0.75038 0.24077 0.45520
 C2124 C 0.75024 0.27193 0.43943
 C2125 C 0.74926 0.27348 0.40642
 C2126 C 0.74856 0.24399 0.38843
 C2127 C 0.75181 0.23773 0.49010
 C2128 C 0.74552 0.26196 0.51001
 C2129 C 0.74692 0.25883 0.54490
 C2130 C 0.74758 0.28817 0.56298
 C2131 C 0.74856 0.28650 0.59597
 C2132 C 0.74871 0.25535 0.61167
 C2133 C 0.74789 0.22594 0.59358
 C2134 C 0.74691 0.22762 0.56058
 H2135 H 0.74847 0.18965 0.39115
 H2136 H 0.75012 0.18706 0.44876
 H2137 H 0.75141 0.29520 0.45228
 H2138 H 0.74934 0.29784 0.39502
 H2139 H 0.75809 0.21433 0.49944
 H2140 H 0.73926 0.28539 0.50069
 H2141 H 0.74742 0.31251 0.55151
 H2142 H 0.74909 0.30969 0.60913
 H2143 H 0.74773 0.20153 0.60490
 H2144 H 0.74563 0.20440 0.54766
 C2145 C 0.55833 0.09615 0.59474
 C2146 C 0.57401 0.11228 0.61348
 C2147 C 0.59650 0.10475 0.61049
 C2148 C 0.60299 0.08034 0.58841
 C2149 C 0.58731 0.06421 0.56963
 C2150 C 0.56478 0.07183 0.57263
 C2151 C 0.61240 0.12203 0.63154
 C2152 C 0.63398 0.12494 0.62510
 C2153 C 0.65005 0.14209 0.64597
 C2154 C 0.67252 0.13500 0.64192
 C2155 C 0.68846 0.15126 0.66004
 C2156 C 0.68234 0.17530 0.68260
 C2157 C 0.65981 0.18231 0.68686
 C2158 C 0.64383 0.16600 0.66869
 H2159 H 0.54113 0.10257 0.59786
 H2160 H 0.56852 0.13077 0.63043
 H2161 H 0.62003 0.07287 0.58600
 H2162 H 0.59286 0.04535 0.55311
 H2163 H 0.60579 0.13293 0.65291
 H2164 H 0.64050 0.11416 0.60362
 H2165 H 0.67780 0.11685 0.62452
 H2166 H 0.70563 0.14523 0.65598
 H2167 H 0.65451 0.20093 0.70378
 H2168 H 0.62678 0.17299 0.67202
 C2169 C -0.19033 0.34905 0.66081
 C2170 C -0.17510 0.36469 0.64089
 C2171 C -0.15317 0.35376 0.63978
 C2172 C -0.14675 0.32661 0.65921
 C2173 C -0.16202 0.31098 0.67928
 C2174 C -0.18403 0.32188 0.68012
 C2175 C -0.13794 0.37081 0.61737
 C2176 C -0.11593 0.36946 0.61967
 C2177 C -0.10065 0.38707 0.59778
 C2178 C -0.07873 0.37611 0.59660
 C2179 C -0.06319 0.39310 0.57827
 C2180 C -0.06914 0.42176 0.56072
 C2181 C -0.09123 0.43233 0.56112
 C2182 C -0.10684 0.41526 0.57959
 H2183 H -0.20716 0.35813 0.66077
 H2184 H -0.18054 0.38540 0.62616
 H2185 H -0.13021 0.31662 0.65850
 H2186 H -0.15673 0.28979 0.69348
 H2187 H -0.14540 0.38540 0.59857
 H2188 H -0.10844 0.35488 0.63843
 H2189 H -0.07349 0.35453 0.61034
 H2190 H -0.04635 0.38411 0.57844
 H2191 H -0.09628 0.45450 0.54815
 H2192 H -0.12343 0.42512 0.58038
 C2193 C 0.90613 0.06597 0.54972
 C2194 C 0.88845 0.08111 0.56525
 C2195 C 0.89209 0.10266 0.59082
 C2196 C 0.91392 0.10872 0.60063
 C2197 C 0.93163 0.09354 0.58510
 C2198 C 0.92795 0.07178 0.55960
 C2199 C 0.87268 0.11677 0.60748
 C2200 C 0.87350 0.14461 0.62506
 C2201 C 0.85444 0.15814 0.64295
 C2202 C 0.85870 0.18022 0.66789
 C2203 C 0.84147 0.19379 0.68555
 C2204 C 0.81942 0.18578 0.67856
 C2205 C 0.81506 0.16393 0.65335
 C2206 C 0.83236 0.15030 0.63565
 H2207 H 0.90262 0.04933 0.53020
 H2208 H 0.87183 0.07583 0.55733
 H2209 H 0.91747 0.12427 0.62087
 H2210 H 0.94819 0.09831 0.59356
 H2211 H 0.85728 0.10340 0.60497
 H2212 H 0.88893 0.15799 0.62727
 H2213 H 0.87550 0.18690 0.67391
 H2214 H 0.84551 0.21071 0.70463
 H2215 H 0.79827 0.15755 0.64706
 H2216 H 0.82824 0.13424 0.61602
 C2217 C 0.68663 0.35236 0.66961
 C2218 C 0.67117 0.36896 0.65089
 C2219 C 0.64944 0.35732 0.64897
 C2220 C 0.64334 0.32874 0.66669
 C2221 C 0.65887 0.31205 0.68555
 C2222 C 0.68077 0.32341 0.68681
 C2223 C 0.63422 0.37490 0.62706
 C2224 C 0.61221 0.37316 0.62907
 C2225 C 0.59712 0.39095 0.60709
 C2226 C 0.57532 0.37961 0.60486
 C2227 C 0.56014 0.39622 0.58561
 C2228 C 0.56638 0.42482 0.56817
 C2229 C 0.58830 0.43601 0.56999
 C2230 C 0.60350 0.41939 0.58938
 H2231 H 0.70333 0.36195 0.67008
 H2232 H 0.67632 0.39085 0.63752
 H2233 H 0.62690 0.31838 0.66530
 H2234 H 0.65391 0.28963 0.69823
 H2235 H 0.64174 0.39006 0.60871
 H2236 H 0.60468 0.35792 0.64735
 H2237 H 0.56993 0.35788 0.61828
 H2238 H 0.54340 0.38685 0.58480
 H2239 H 0.59355 0.45821 0.55720
 H2240 H 0.61994 0.42968 0.59107
 C2241 C 0.94044 0.10537 0.91367
 C2242 C 0.92506 0.12257 0.89526
 C2243 C 0.90273 0.11371 0.89624
 C2244 C 0.89601 0.08718 0.91618
 C2245 C 0.91143 0.06993 0.93465
 C2246 C 0.93385 0.07862 0.93335
 C2247 C 0.88730 0.13154 0.87493
 C2248 C 0.86563 0.13355 0.88047
 C2249 C 0.84988 0.14982 0.85857
 C2250 C 0.82774 0.14008 0.86031
 C2251 C 0.81205 0.15486 0.84070
 C2252 C 0.81808 0.18008 0.81896
 C2253 C 0.84029 0.18991 0.81709
 C2254 C 0.85607 0.17499 0.83677
 H2255 H 0.95758 0.11276 0.91201
 H2256 H 0.93066 0.14275 0.87999
 H2257 H 0.87906 0.07882 0.91686
 H2258 H 0.90585 0.04921 0.94926
 H2259 H 0.89425 0.14323 0.85402
 H2260 H 0.85879 0.12200 0.90152
 H2261 H 0.82254 0.12088 0.87694
 H2262 H 0.79510 0.14667 0.84295
 H2263 H 0.84540 0.20958 0.80091
 H2264 H 0.87288 0.18390 0.83535
 C2265 C 0.59201 0.43856 0.94328
 C2266 C 0.60958 0.42394 0.92711
 C2267 C 0.60580 0.40250 0.90151
 C2268 C 0.58385 0.39609 0.89232
 C2269 C 0.56620 0.41079 0.90856
 C2270 C 0.57007 0.43236 0.93415
 C2271 C 0.62524 0.38861 0.88464
 C2272 C 0.62452 0.36133 0.86627
 C2273 C 0.64394 0.34742 0.84934
 C2274 C 0.64009 0.32587 0.82386
 C2275 C 0.65761 0.31120 0.80763
 C2276 C 0.67958 0.31746 0.81660
 C2277 C 0.68352 0.33916 0.84207
 C2278 C 0.66591 0.35392 0.85836
 H2279 H 0.59573 0.45503 0.96285
 H2280 H 0.62625 0.42948 0.93464
 H2281 H 0.58013 0.38053 0.87217
 H2282 H 0.54954 0.40574 0.90067
 H2283 H 0.64076 0.40147 0.88797
 H2284 H 0.60901 0.34846 0.86297
 H2285 H 0.62340 0.32027 0.81645
 H2286 H 0.65384 0.29464 0.78815
 H2287 H 0.70020 0.34427 0.84982
 H2288 H 0.66968 0.36960 0.87841
 C2289 C 0.56161 0.09813 0.91519
 C2290 C 0.57739 0.11402 0.89644
 C2291 C 0.59972 0.10561 0.89888
 C2292 C 0.60604 0.08116 0.92135
 C2293 C 0.59019 0.06513 0.94035
 C2294 C 0.56757 0.07286 0.93717
 C2295 C 0.61529 0.12242 0.87667
 C2296 C 0.63733 0.12108 0.87876
 C2297 C 0.65237 0.13836 0.85614
 C2298 C 0.67427 0.12736 0.85419
 C2299 C 0.68938 0.14370 0.83451
 C2300 C 0.68300 0.17169 0.81630
 C2301 C 0.66098 0.18246 0.81776
 C2302 C 0.64584 0.16614 0.83759
 H2303 H 0.54458 0.10552 0.91175
 H2304 H 0.57198 0.13282 0.87955
 H2305 H 0.62302 0.07352 0.92397
 H2306 H 0.59572 0.04602 0.95685
 H2307 H 0.60791 0.13647 0.85745
 H2308 H 0.64497 0.10651 0.89738
 H2309 H 0.67980 0.10617 0.86822
 H2310 H 0.70621 0.13467 0.83404
 H2311 H 0.65560 0.20422 0.80444
 H2312 H 0.62934 0.17622 0.83898
 C2313 C 0.90870 0.43182 0.94729
 C2314 C 0.89091 0.41694 0.93193
 C2315 C 0.89413 0.39771 0.90472
 C2316 C 0.91581 0.39350 0.89320
 C2317 C 0.93374 0.40854 0.90863
 C2318 C 0.93034 0.42820 0.93568
 C2319 C 0.87431 0.38405 0.88859
 C2320 C 0.87478 0.35792 0.86884
 C2321 C 0.85506 0.34453 0.85221
 C2322 C 0.85858 0.32431 0.82572
 C2323 C 0.84088 0.31049 0.80931
 C2324 C 0.81899 0.31627 0.81903
 C2325 C 0.81533 0.33648 0.84566
 C2326 C 0.83318 0.35043 0.86216
 H2327 H 0.90535 0.44660 0.96817
 H2328 H 0.87447 0.42068 0.94133
 H2329 H 0.91901 0.37960 0.87180
 H2330 H 0.95013 0.40551 0.89890
 H2331 H 0.85877 0.39614 0.89367
 H2332 H 0.89036 0.34582 0.86397
 H2333 H 0.87517 0.31917 0.81755
 H2334 H 0.84448 0.29503 0.78898
 H2335 H 0.79874 0.34113 0.85401
 H2336 H 0.82966 0.36509 0.88298
 C2337 C -0.00191 0.53774 0.84778
 C2338 C -0.00283 0.53917 0.81473
 C2339 C -0.00296 0.50980 0.79667
 C2340 C -0.00237 0.47872 0.81253
 C2341 C -0.00143 0.47717 0.84560
 C2342 C -0.00127 0.50667 0.86396
 C2343 C -0.00450 0.51287 0.76163
 C2344 C 0.00113 0.48841 0.74146
 C2345 C -0.00047 0.49142 0.70644
 C2346 C -0.00081 0.46198 0.68844
 C2347 C -0.00180 0.46338 0.65539
 C2348 C -0.00232 0.49438 0.63943
 C2349 C -0.00190 0.52392 0.65742
 C2350 C -0.00092 0.52251 0.69050
 H2351 H -0.00184 0.56123 0.86051
 H2352 H -0.00341 0.56346 0.80320
 H2353 H -0.00314 0.45539 0.79974
 H2354 H -0.00112 0.45261 0.85664
 H2355 H -0.01041 0.53653 0.75239
 H2356 H 0.00704 0.46474 0.75067
 H2357 H -0.00031 0.43770 0.70001
 H2358 H -0.00197 0.44009 0.64238
 H2359 H -0.00203 0.54825 0.64594
 H2360 H 0.00002 0.54586 0.70324
 C2361 C 0.24668 0.71475 0.40417
 C2362 C 0.24808 0.71317 0.43711
 C2363 C 0.25006 0.74248 0.45502
 C2364 C 0.25081 0.77360 0.43919
 C2365 C 0.24939 0.77520 0.40620
 C2366 C 0.24739 0.74579 0.38829
 C2367 C 0.25206 0.73926 0.48985
 C2368 C 0.24736 0.76406 0.51004
 C2369 C 0.24918 0.76062 0.54488
 C2370 C 0.25128 0.78976 0.56302
 C2371 C 0.25243 0.78789 0.59598
 C2372 C 0.25135 0.75674 0.61162
 C2373 C 0.24926 0.72752 0.59347
 C2374 C 0.24808 0.72940 0.56049
 H2375 H 0.24525 0.69155 0.39116
 H2376 H 0.24762 0.68888 0.44868
 H2377 H 0.25305 0.79675 0.45193
 H2378 H 0.25028 0.79949 0.39472
 H2379 H 0.25740 0.71521 0.49892
 H2380 H 0.24207 0.78814 0.50101
 H2381 H 0.25201 0.81412 0.55162
 H2382 H 0.25399 0.81094 0.60920
 H2383 H 0.24811 0.70315 0.60475
 H2384 H 0.24570 0.70639 0.54757
 C2385 C 0.05863 0.59136 0.59949
 C2386 C 0.07440 0.60768 0.61794
 C2387 C 0.09698 0.60203 0.61310
 C2388 C 0.10346 0.57900 0.58973
 C2389 C 0.08768 0.56266 0.57126
 C2390 C 0.06506 0.56873 0.57582
 C2391 C 0.11306 0.61995 0.63343
 C2392 C 0.13417 0.62520 0.62523
 C2393 C 0.15038 0.64323 0.64524
 C2394 C 0.17289 0.63817 0.63938
 C2395 C 0.18888 0.65512 0.65687
 C2396 C 0.18274 0.67789 0.68058
 C2397 C 0.16017 0.68309 0.68646
 C2398 C 0.14415 0.66603 0.66896
 H2399 H 0.04137 0.59652 0.60386
 H2400 H 0.06893 0.62501 0.63595
 H2401 H 0.12062 0.57292 0.58593
 H2402 H 0.09325 0.54507 0.55355
 H2403 H 0.10696 0.62949 0.65568
 H2404 H 0.14019 0.61575 0.60290
 H2405 H 0.17818 0.62097 0.62114
 H2406 H 0.20607 0.65055 0.65151
 H2407 H 0.15484 0.70063 0.70436
 H2408 H 0.12702 0.67150 0.67366
 C2409 C 0.40579 0.93794 0.55295
 C2410 C 0.38827 0.92375 0.56978
 C2411 C 0.39219 0.90265 0.59583
 C2412 C 0.41412 0.89621 0.60492
 C2413 C 0.43166 0.91036 0.58807
 C2414 C 0.42772 0.93149 0.56196
 C2415 C 0.37301 0.88906 0.61350
 C2416 C 0.37399 0.86151 0.63176
 C2417 C 0.35501 0.84796 0.64988
 C2418 C 0.35931 0.82625 0.67535
 C2419 C 0.34206 0.81208 0.69272
 C2420 C 0.32000 0.81914 0.68489
 C2421 C 0.31565 0.84091 0.65937
 C2422 C 0.33294 0.85509 0.64197
 H2423 H 0.40211 0.95422 0.53305
 H2424 H 0.37155 0.92934 0.56242
 H2425 H 0.41793 0.88108 0.62550
 H2426 H 0.44832 0.90524 0.59596
 H2427 H 0.35759 0.90240 0.61098
 H2428 H 0.38942 0.84815 0.63408
 H2429 H 0.37612 0.82016 0.68184
 H2430 H 0.34607 0.79530 0.71211
 H2431 H 0.29886 0.84655 0.65242
 H2432 H 0.32882 0.87083 0.62193
 C2433 C 0.34206 0.69093 0.68970
 C2434 C 0.35936 0.67596 0.67317
 C2435 C 0.35514 0.65292 0.64898
 C2436 C 0.33307 0.64555 0.64127
 C2437 C 0.31572 0.66059 0.65779
 C2438 C 0.32000 0.68342 0.68227
 C2439 C 0.37422 0.63815 0.63198
 C2440 C 0.37329 0.60943 0.61567
 C2441 C 0.39249 0.59466 0.59895
 C2442 C 0.38853 0.57191 0.57441
 C2443 C 0.40603 0.55702 0.55821
 C2444 C 0.42800 0.56432 0.56633
 C2445 C 0.43199 0.58682 0.59117
 C2446 C 0.41447 0.60175 0.60737
 H2447 H 0.34605 0.70854 0.70825
 H2448 H 0.37616 0.68234 0.67945
 H2449 H 0.32902 0.62878 0.62213
 H2450 H 0.29894 0.65449 0.65120
 H2451 H 0.38967 0.65155 0.63355
 H2452 H 0.35783 0.59604 0.61397
 H2453 H 0.37180 0.56574 0.56762
 H2454 H 0.40227 0.53967 0.53934
 H2455 H 0.44868 0.59274 0.59833
 H2456 H 0.41832 0.61820 0.62684
 C2457 C 0.05840 0.90493 0.59605
 C2458 C 0.07414 0.88920 0.61517
 C2459 C 0.09656 0.89749 0.61257
 C2460 C 0.10288 0.92241 0.59063
 C2461 C 0.08714 0.93812 0.57146
 C2462 C 0.06471 0.92957 0.57390
 C2463 C 0.11257 0.88026 0.63371
 C2464 C 0.13424 0.87814 0.62755
 C2465 C 0.15039 0.86056 0.64821
 C2466 C 0.17285 0.86790 0.64429
 C2467 C 0.18885 0.85108 0.66204
 C2468 C 0.18279 0.82621 0.68410
 C2469 C 0.16027 0.81901 0.68829
 C2470 C 0.14424 0.83587 0.67050
 H2471 H 0.04126 0.89784 0.59877
 H2472 H 0.06876 0.87034 0.63203
 H2473 H 0.11982 0.93051 0.58854
 H2474 H 0.09258 0.95732 0.55501
 H2475 H 0.10595 0.86854 0.65480
 H2476 H 0.14078 0.88974 0.60634
 H2477 H 0.17809 0.88663 0.62722
 H2478 H 0.20602 0.85726 0.65806
 H2479 H 0.15500 0.79984 0.70489
 H2480 H 0.12721 0.82867 0.67375
 C2481 C 0.43780 0.59221 0.90660
 C2482 C 0.42199 0.60797 0.88785
 C2483 C 0.39951 0.60256 0.89331
 C2484 C 0.39308 0.58045 0.91777
 C2485 C 0.40897 0.56448 0.93655
 C2486 C 0.43153 0.57026 0.93120
 C2487 C 0.38355 0.61978 0.87231
 C2488 C 0.36270 0.62636 0.88057
 C2489 C 0.34701 0.64411 0.85954
 C2490 C 0.32443 0.63859 0.86400
 C2491 C 0.30897 0.65498 0.84506
 C2492 C 0.31574 0.67764 0.82132
 C2493 C 0.33838 0.68353 0.81704
 C2494 C 0.35389 0.66699 0.83600
 H2495 H 0.45501 0.59709 0.90151
 H2496 H 0.42738 0.62463 0.86904
 H2497 H 0.37590 0.57479 0.92208
 H2498 H 0.40360 0.54743 0.95504
 H2499 H 0.38957 0.62792 0.84941
 H2500 H 0.35657 0.61811 0.90338
 H2501 H 0.31870 0.62137 0.88214
 H2502 H 0.29166 0.65000 0.84929
 H2503 H 0.34414 0.70114 0.79927
 H2504 H 0.37114 0.67284 0.83256
 C2505 C 0.09089 0.94279 0.93926
 C2506 C 0.10834 0.92842 0.92261
 C2507 C 0.10448 0.90627 0.89762
 C2508 C 0.08245 0.89902 0.88941
 C2509 C 0.06484 0.91347 0.90607
 C2510 C 0.06870 0.93574 0.93136
 C2511 C 0.12397 0.89235 0.88062
 C2512 C 0.12338 0.86537 0.86180
 C2513 C 0.14304 0.85128 0.84536
 C2514 C 0.13953 0.82992 0.81960
 C2515 C 0.15724 0.81491 0.80399
 C2516 C 0.17910 0.82060 0.81383
 C2517 C 0.18272 0.84216 0.83952
 C2518 C 0.16492 0.85727 0.85519
 H2519 H 0.09505 0.95971 0.95832
 H2520 H 0.12506 0.93467 0.92943
 H2521 H 0.07860 0.88277 0.86981
 H2522 H 0.04821 0.90730 0.89878
 H2523 H 0.13952 0.90497 0.88436
 H2524 H 0.10785 0.85279 0.85782
 H2525 H 0.12293 0.82467 0.81153
 H2526 H 0.15368 0.79850 0.78431
 H2527 H 0.19929 0.84688 0.84795
 H2528 H 0.16846 0.87278 0.87544
 C2529 C 0.05987 0.60160 0.91178
 C2530 C 0.07508 0.61725 0.89188
 C2531 C 0.09693 0.60601 0.89046
 C2532 C 0.10330 0.57856 0.90953
 C2533 C 0.08805 0.56291 0.92958
 C2534 C 0.06612 0.57410 0.93071
 C2535 C 0.11213 0.62301 0.86808
 C2536 C 0.13411 0.62171 0.87057
 C2537 C 0.14937 0.63918 0.84864
 C2538 C 0.17117 0.62781 0.84706
 C2539 C 0.18668 0.64461 0.82857
 C2540 C 0.18081 0.67348 0.81130
 C2541 C 0.15883 0.68450 0.81213
 C2542 C 0.14324 0.66761 0.83074
 H2543 H 0.04310 0.61090 0.91201
 H2544 H 0.06971 0.63821 0.87742
 H2545 H 0.11978 0.56834 0.90850
 H2546 H 0.09327 0.54145 0.94347
 H2547 H 0.10470 0.63749 0.84918
 H2548 H 0.14158 0.60725 0.88943
 H2549 H 0.17633 0.60603 0.86058
 H2550 H 0.20345 0.63529 0.82839
 H2551 H 0.15385 0.70686 0.79937
 H2552 H 0.12674 0.67776 0.83191
 C2553 C 0.40984 0.94901 0.92949
 C2554 C 0.39218 0.93449 0.91350
 C2555 C 0.39510 0.90527 0.89579
 C2556 C 0.41645 0.89142 0.89357
 C2557 C 0.43428 0.90618 0.90947
 C2558 C 0.43111 0.93495 0.92794
 C2559 C 0.37554 0.89087 0.87957
 C2560 C 0.37382 0.85857 0.87139
 C2561 C 0.35428 0.84416 0.85513
 C2562 C 0.35722 0.81489 0.83750
 C2563 C 0.33960 0.80039 0.82141
 C2564 C 0.31835 0.81453 0.82276
 C2565 C 0.31514 0.84333 0.84117
 C2566 C 0.33294 0.85808 0.85717
 H2567 H 0.40677 0.97144 0.94310
 H2568 H 0.37604 0.94596 0.91532
 H2569 H 0.41956 0.86952 0.87931
 H2570 H 0.45046 0.89491 0.90756
 H2571 H 0.36189 0.90765 0.87496
 H2572 H 0.38747 0.84180 0.87602
 H2573 H 0.37335 0.80337 0.83581
 H2574 H 0.34269 0.77792 0.80786
 H2575 H 0.29897 0.85466 0.84292
 H2576 H 0.32980 0.88002 0.87136
 C2577 C 0.49737 0.53830 0.84602
 C2578 C 0.49582 0.53980 0.81305
 C2579 C 0.49470 0.51036 0.79513
 C2580 C 0.49472 0.47925 0.81098
 C2581 C 0.49630 0.47774 0.84393
 C2582 C 0.49769 0.50723 0.86185
 C2583 C 0.49296 0.51326 0.76023
 C2584 C 0.49889 0.48874 0.74037
 C2585 C 0.49750 0.49156 0.70544
 C2586 C 0.49708 0.46204 0.68762
 C2587 C 0.49650 0.46333 0.65459
 C2588 C 0.49651 0.49431 0.63859
 C2589 C 0.49690 0.52392 0.65643
 C2590 C 0.49748 0.52261 0.68947
 H2591 H 0.49825 0.56154 0.85906
 H2592 H 0.49562 0.56408 0.80146
 H2593 H 0.49306 0.45598 0.79826
 H2594 H 0.49619 0.45339 0.85535
 H2595 H 0.48690 0.53677 0.75087
 H2596 H 0.50501 0.46528 0.74979
 H2597 H 0.49723 0.43781 0.69930
 H2598 H 0.49626 0.44001 0.64164
 H2599 H 0.49714 0.54821 0.64489
 H2600 H 0.49852 0.54598 0.70218
 C2601 C 0.74652 0.71547 0.40420
 C2602 C 0.74795 0.71397 0.43713
 C2603 C 0.74988 0.74333 0.45497
 C2604 C 0.75056 0.77442 0.43909
 C2605 C 0.74913 0.77594 0.40610
 C2606 C 0.74716 0.74648 0.38826
 C2607 C 0.75190 0.74019 0.48980
 C2608 C 0.74714 0.76498 0.50996
 C2609 C 0.74893 0.76150 0.54479
 C2610 C 0.75113 0.79059 0.56297
 C2611 C 0.75228 0.78864 0.59594
 C2612 C 0.75107 0.75746 0.61150
 C2613 C 0.74886 0.72830 0.59330
 C2614 C 0.74768 0.73026 0.56033
 H2615 H 0.74512 0.69224 0.39124
 H2616 H 0.74753 0.68971 0.44875
 H2617 H 0.75276 0.79761 0.45179
 H2618 H 0.74996 0.80021 0.39457
 H2619 H 0.75727 0.71617 0.49890
 H2620 H 0.74184 0.78906 0.50092
 H2621 H 0.75197 0.81496 0.55161
 H2622 H 0.75393 0.81163 0.60920
 H2623 H 0.74760 0.70391 0.60452
 H2624 H 0.74520 0.70731 0.54737
 C2625 C 0.55857 0.59726 0.59331
 C2626 C 0.57424 0.61403 0.61156
 C2627 C 0.59682 0.60752 0.60779
 C2628 C 0.60340 0.58352 0.58536
 C2629 C 0.58772 0.56673 0.56707
 C2630 C 0.56510 0.57328 0.57090
 C2631 C 0.61271 0.62531 0.62853
 C2632 C 0.63420 0.62891 0.62171
 C2633 C 0.65027 0.64621 0.64251
 C2634 C 0.67277 0.63957 0.63817
 C2635 C 0.68868 0.65570 0.65645
 C2636 C 0.68250 0.67921 0.67950
 C2637 C 0.65995 0.68593 0.68393
 C2638 C 0.64400 0.66971 0.66560
 H2639 H 0.54131 0.60289 0.59705
 H2640 H 0.56868 0.63218 0.62877
 H2641 H 0.62054 0.57683 0.58232
 H2642 H 0.59335 0.54819 0.55029
 H2643 H 0.60618 0.63588 0.65009
 H2644 H 0.64067 0.61843 0.60007
 H2645 H 0.67810 0.62177 0.62048
 H2646 H 0.70587 0.64993 0.65221
 H2647 H 0.65460 0.70412 0.70123
 H2648 H 0.62691 0.67638 0.66917
 C2649 C 0.90608 0.93288 0.54834
 C2650 C 0.88851 0.91827 0.56477
 C2651 C 0.89230 0.89771 0.59126
 C2652 C 0.91421 0.89186 0.60088
 C2653 C 0.93180 0.90640 0.58440
 C2654 C 0.92795 0.92740 0.55816
 C2655 C 0.87299 0.88449 0.60900
 C2656 C 0.87397 0.85824 0.62895
 C2657 C 0.85493 0.84557 0.64762
 C2658 C 0.85920 0.82499 0.67393
 C2659 C 0.84195 0.81166 0.69191
 C2660 C 0.81989 0.81845 0.68391
 C2661 C 0.81555 0.83917 0.65761
 C2662 C 0.83284 0.85249 0.63958
 H2663 H 0.90248 0.94893 0.52824
 H2664 H 0.87183 0.92336 0.55691
 H2665 H 0.91797 0.87709 0.62170
 H2666 H 0.94840 0.90195 0.59287
 H2667 H 0.85748 0.89727 0.60533
 H2668 H 0.88948 0.84539 0.63242
 H2669 H 0.87601 0.81909 0.68061
 H2670 H 0.84596 0.79569 0.71190
 H2671 H 0.79876 0.84454 0.65050
 H2672 H 0.82868 0.86738 0.61900
 C2673 C 0.90613 0.56323 0.55305
 C2674 C 0.88855 0.57843 0.56876
 C2675 C 0.89233 0.60016 0.59416
 C2676 C 0.91423 0.60628 0.60365
 C2677 C 0.93185 0.59106 0.58792
 C2678 C 0.92801 0.56919 0.56254
 C2679 C 0.87301 0.61453 0.61087
 C2680 C 0.87396 0.64225 0.62862
 C2681 C 0.85487 0.65613 0.64619
 C2682 C 0.85907 0.67776 0.67152
 C2683 C 0.84177 0.69176 0.68875
 C2684 C 0.81972 0.68468 0.68092
 C2685 C 0.81544 0.66324 0.65536
 C2686 C 0.83280 0.64917 0.63810
 H2687 H 0.90251 0.54651 0.53363
 H2688 H 0.87188 0.57310 0.56108
 H2689 H 0.91793 0.62195 0.62374
 H2690 H 0.94845 0.59594 0.59610
 H2691 H 0.85750 0.60148 0.60819
 H2692 H 0.88948 0.65532 0.63113
 H2693 H 0.87587 0.68376 0.67814
 H2694 H 0.84576 0.70834 0.70814
 H2695 H 0.79867 0.65756 0.64843
 H2696 H 0.82875 0.63351 0.61815
 C2697 C 0.55856 0.89961 0.59102
 C2698 C 0.57428 0.88361 0.60998
 C2699 C 0.59660 0.89275 0.60829
 C2700 C 0.60288 0.91843 0.58714
 C2701 C 0.58718 0.93437 0.56813
 C2702 C 0.56481 0.92533 0.56998
 C2703 C 0.61248 0.87584 0.62981
 C2704 C 0.63434 0.87522 0.62484
 C2705 C 0.65038 0.85848 0.64623
 C2706 C 0.67271 0.86729 0.64364
 C2707 C 0.68866 0.85130 0.66213
 C2708 C 0.68267 0.82586 0.68362
 C2709 C 0.66027 0.81726 0.68656
 C2710 C 0.64430 0.83326 0.66801
 H2711 H 0.54147 0.89208 0.59321
 H2712 H 0.56894 0.86409 0.62617
 H2713 H 0.61973 0.92714 0.58571
 H2714 H 0.59257 0.95434 0.55248
 H2715 H 0.60563 0.86335 0.65035
 H2716 H 0.64113 0.88759 0.60419
 H2717 H 0.67788 0.88650 0.62700
 H2718 H 0.70574 0.85854 0.65912
 H2719 H 0.65508 0.79757 0.70265
 H2720 H 0.62742 0.82494 0.67026
 C2721 C 0.93705 0.60383 0.91776
 C2722 C 0.92142 0.62060 0.89948
 C2723 C 0.89931 0.61054 0.89986
 C2724 C 0.89303 0.58334 0.91928
 C2725 C 0.90874 0.56645 0.93765
 C2726 C 0.93098 0.57626 0.93675
 C2727 C 0.88380 0.62805 0.87840
 C2728 C 0.86194 0.62855 0.88269
 C2729 C 0.84654 0.64567 0.86076
 C2730 C 0.82447 0.63536 0.86059
 C2731 C 0.80918 0.65102 0.84084
 C2732 C 0.81558 0.67761 0.82086
 C2733 C 0.83771 0.68802 0.82096
 C2734 C 0.85303 0.67234 0.84082
 H2735 H 0.95402 0.61219 0.91647
 H2736 H 0.92670 0.64139 0.88470
 H2737 H 0.87626 0.57418 0.91962
 H2738 H 0.90357 0.54513 0.95178
 H2739 H 0.89095 0.64107 0.85836
 H2740 H 0.85477 0.61544 0.90268
 H2741 H 0.81901 0.61505 0.87581
 H2742 H 0.79225 0.64239 0.84149
 H2743 H 0.84309 0.70877 0.80625
 H2744 H 0.86971 0.68188 0.84098
 C2745 C 0.59101 0.93793 0.94426
 C2746 C 0.60847 0.92323 0.92788
 C2747 C 0.60463 0.90087 0.90303
 C2748 C 0.58259 0.89329 0.89510
 C2749 C 0.56498 0.90799 0.91155
 C2750 C 0.56883 0.93096 0.93627
 C2751 C 0.62416 0.88726 0.88586
 C2752 C 0.62351 0.86183 0.86517
 C2753 C 0.64318 0.84865 0.84808
 C2754 C 0.63967 0.82918 0.82101
 C2755 C 0.65736 0.81505 0.80464
 C2756 C 0.67920 0.81979 0.81498
 C2757 C 0.68284 0.83955 0.84194
 C2758 C 0.66506 0.85373 0.85839
 H2759 H 0.59515 0.95518 0.96307
 H2760 H 0.62518 0.92961 0.93463
 H2761 H 0.57867 0.87666 0.87583
 H2762 H 0.54835 0.90171 0.90432
 H2763 H 0.63981 0.89915 0.89068
 H2764 H 0.60791 0.85006 0.85987
 H2765 H 0.62308 0.82469 0.81250
 H2766 H 0.65382 0.80003 0.78399
 H2767 H 0.69939 0.84344 0.85079
 H2768 H 0.66861 0.86777 0.87958
 C2769 C 0.56063 0.60708 0.91859
 C2770 C 0.57581 0.62338 0.89906
 C2771 C 0.59741 0.61133 0.89609
 C2772 C 0.60364 0.58270 0.91365
 C2773 C 0.58845 0.56646 0.93336
 C2774 C 0.56669 0.57816 0.93564
 C2775 C 0.61236 0.62848 0.87341
 C2776 C 0.63432 0.62498 0.87366
 C2777 C 0.64934 0.64180 0.85090
 C2778 C 0.67069 0.62891 0.84759
 C2779 C 0.68608 0.64493 0.82826
 C2780 C 0.68053 0.67446 0.81181
 C2781 C 0.65895 0.68694 0.81427
 C2782 C 0.64350 0.67089 0.83376
 H2783 H 0.54399 0.61682 0.91983
 H2784 H 0.57053 0.64529 0.88584
 H2785 H 0.61988 0.57185 0.91153
 H2786 H 0.59354 0.54397 0.94583
 H2787 H 0.60472 0.64457 0.85591
 H2788 H 0.64199 0.60895 0.89116
 H2789 H 0.67563 0.60658 0.86044
 H2790 H 0.70254 0.63453 0.82682
 H2791 H 0.65427 0.70988 0.80222
 H2792 H 0.62741 0.68220 0.83616
 C2793 C 0.90883 0.94323 0.93627
 C2794 C 0.89112 0.92834 0.92077
 C2795 C 0.89444 0.90138 0.90029
 C2796 C 0.91615 0.88984 0.89525
 C2797 C 0.93404 0.90499 0.91070
 C2798 C 0.93057 0.93186 0.93147
 C2799 C 0.87487 0.88720 0.88402
 C2800 C 0.87390 0.85590 0.87283
 C2801 C 0.85436 0.84196 0.85624
 C2802 C 0.85762 0.81476 0.83600
 C2803 C 0.84001 0.80085 0.81944
 C2804 C 0.81847 0.81353 0.82287
 C2805 C 0.81500 0.84024 0.84380
 C2806 C 0.83276 0.85436 0.86033
 H2807 H 0.90538 0.96401 0.95188
 H2808 H 0.87466 0.93792 0.92493
 H2809 H 0.91949 0.86970 0.87892
 H2810 H 0.95054 0.89579 0.90626
 H2811 H 0.86062 0.90334 0.88179
 H2812 H 0.88817 0.83980 0.87508
 H2813 H 0.87397 0.80443 0.83264
 H2814 H 0.84338 0.77998 0.80389
 H2815 H 0.79861 0.85036 0.84725
 H2816 H 0.82938 0.87459 0.87653
   
