data_POSCAR
  _audit_creation_date              2014-09-24
  _audit_creation_method            'ToBaCCo'
  _symmetry_space_group_name_H-M    'P1'
  _symmetry_Int_Tables_number       1
  _symmetry_cell_setting            triclinic
  loop_
  _symmetry_equiv_pos_as_xyz
 x,y,z
_cell_length_a 58.2000
_cell_length_b 62.0878
_cell_length_c 59.1581
_cell_angle_alpha 89.241200
_cell_angle_beta 90.752400
_cell_angle_gamma 90.333400
loop_
  _atom_site_label
  _atom_site_type_symbol
  _atom_site_fract_x
  _atom_site_fract_y
  _atom_site_fract_z
C1 C 0.22976 0.22297 0.23369
 C2 C 0.24276 0.20397 0.23422
 C3 C 0.25975 0.20033 0.21806
 C4 C 0.26388 0.21621 0.20145
 C5 C 0.25121 0.23538 0.20078
 C6 C 0.23406 0.23858 0.21686
 H7 H 0.23950 0.19192 0.24720
 H8 H 0.27654 0.21342 0.18857
 H9 H 0.22445 0.25347 0.21659
 C10 C 0.73253 0.73607 0.72792
 C11 C 0.73587 0.75038 0.70968
 C12 C 0.75349 0.74687 0.69414
 C13 C 0.76741 0.72855 0.69669
 C14 C 0.76402 0.71387 0.71463
 C15 C 0.74675 0.71801 0.73033
 H16 H 0.72514 0.76452 0.70792
 H17 H 0.78043 0.72541 0.68425
 H18 H 0.74415 0.70698 0.74441
 C19 C 0.31061 0.79654 0.72456
 C20 C 0.29406 0.81277 0.72624
 C21 C 0.27493 0.81389 0.71125
 C22 C 0.27274 0.79774 0.69465
 C23 C 0.28924 0.78145 0.69277
 C24 C 0.30803 0.78098 0.70780
 H25 H 0.29582 0.82390 0.74007
 H26 H 0.25906 0.79838 0.68211
 H27 H 0.32086 0.76852 0.70629
 C28 C 0.81657 0.26554 0.21396
 C29 C 0.80454 0.28523 0.21531
 C30 C 0.78642 0.29019 0.20026
 C31 C 0.78002 0.27535 0.18370
 C32 C 0.79151 0.25572 0.18195
 C33 C 0.80971 0.25094 0.19694
 H34 H 0.80861 0.29663 0.22846
 H35 H 0.76595 0.27906 0.17214
 H36 H 0.81877 0.23596 0.19475
 C37 C 0.78201 0.70576 0.28981
 C38 C 0.77640 0.72229 0.30469
 C39 C 0.75660 0.72085 0.31800
 C40 C 0.74234 0.70257 0.31627
 C41 C 0.74766 0.68587 0.30144
 C42 C 0.76745 0.68774 0.28819
 H43 H 0.78753 0.73628 0.30597
 H44 H 0.72744 0.70110 0.32697
 H45 H 0.77132 0.67531 0.27615
 C46 C 0.29641 0.24272 -0.21533
 C47 C 0.29128 0.25716 -0.19786
 C48 C 0.27151 0.25452 -0.18473
 C49 C 0.25680 0.23700 -0.18875
 C50 C 0.26152 0.22223 -0.20576
 C51 C 0.28112 0.22532 -0.21906
 H52 H 0.30191 0.27127 -0.19511
 H53 H 0.24196 0.23451 -0.17813
 H54 H 0.28472 0.21354 -0.23182
 C55 C 0.68091 0.28480 -0.22539
 C56 C 0.68803 0.26646 -0.21276
 C57 C 0.70848 0.26664 -0.19997
 C58 C 0.72211 0.28524 -0.19964
 C59 C 0.71530 0.30394 -0.21136
 C60 C 0.69477 0.30359 -0.22417
 H61 H 0.67746 0.25207 -0.21212
 H62 H 0.73799 0.28518 -0.18989
 H63 H 0.69012 0.31794 -0.23366
 C64 C 0.17850 0.76431 0.28171
 C65 C 0.19479 0.78068 0.27790
 C66 C 0.21187 0.78565 0.29430
 C67 C 0.21186 0.77363 0.31481
 C68 C 0.19568 0.75720 0.31876
 C69 C 0.17915 0.75262 0.30209
 H70 H 0.19457 0.78864 0.26153
 H71 H 0.22359 0.77764 0.32845
 H72 H 0.16662 0.73994 0.30502
 C73 C 0.44807 0.43655 0.46959
 C74 C 0.46562 0.44108 0.45409
 C75 C 0.46560 0.46038 0.44141
 C76 C 0.44773 0.47515 0.44428
 C77 C 0.43013 0.47091 0.45971
 C78 C 0.43048 0.45166 0.47239
 H79 H 0.47926 0.42953 0.45183
 H80 H 0.44743 0.48996 0.43440
 H81 H 0.41691 0.44838 0.48434
 C82 C -0.02850 -0.06858 0.96170
 C83 C -0.01666 -0.06577 0.94143
 C84 C -0.02148 -0.04822 0.92697
 C85 C -0.03847 -0.03339 0.93300
 C86 C -0.05030 -0.03561 0.95362
 C87 C -0.04499 -0.05342 0.96776
 H88 H -0.00363 -0.07729 0.93691
 H89 H -0.04175 -0.01973 0.92188
 H90 H -0.05421 -0.05610 0.98333
 C91 C 1.03011 0.56183 0.99314
 C92 C 1.01387 0.56045 0.97547
 C93 C 1.01518 0.54417 0.95928
 C94 C 1.03291 0.52896 0.96115
 C95 C 1.04920 0.52990 0.97889
 C96 C 1.04766 0.54645 0.99479
 H97 H 1.00031 0.57229 0.97417
 H98 H 1.03448 0.51676 0.94836
 H99 H 1.05987 0.54718 1.00874
 C100 C 0.52261 0.05842 0.46333
 C101 C 0.54002 0.04289 0.46498
 C102 C 0.54017 0.02487 0.45068
 C103 C 0.52234 0.02298 0.43442
 C104 C 0.50463 0.03824 0.43261
 C105 C 0.50486 0.05584 0.44729
 H106 H 0.55278 0.04448 0.47832
 H107 H 0.52289 0.01028 0.42212
 H108 H 0.49136 0.06773 0.44610
 C109 C -0.01877 0.05671 0.50905
 C110 C -0.00088 0.05250 0.52461
 C111 C -0.00014 0.03295 0.53672
 C112 C -0.01751 0.01756 0.53320
 C113 C -0.03583 0.02130 0.51780
 C114 C -0.03610 0.04113 0.50580
 H115 H 0.01241 0.06449 0.52743
 H116 H -0.01732 0.00322 0.54378
 H117 H -0.04914 0.04425 0.49299
 C118 C 0.47295 0.58593 0.04015
 C119 C 0.45293 0.57333 0.03861
 C120 C 0.44943 0.55562 0.05315
 C121 C 0.46649 0.55037 0.06927
 C122 C 0.48672 0.56277 0.07107
 C123 C 0.48987 0.58051 0.05634
 H124 H 0.44014 0.57716 0.02572
 H125 H 0.46366 0.53707 0.08096
 H126 H 0.50535 0.59021 0.05763
 C127 C 0.53969 -0.07406 0.02999
 C128 C 0.56027 -0.06226 0.02715
 C129 C 0.56714 -0.04629 0.04242
 C130 C 0.55305 -0.04172 0.06078
 C131 C 0.53239 -0.05308 0.06407
 C132 C 0.52590 -0.06914 0.04867
 H133 H 0.57061 -0.06453 0.01232
 H134 H 0.55822 -0.02933 0.07255
 H135 H 0.51064 -0.07857 0.05214
 C136 C 1.01135 0.44718 0.51637
 C137 C 0.99539 0.44856 0.53382
 C138 C 0.99655 0.46536 0.54932
 C139 C 1.01365 0.48120 0.54696
 C140 C 1.03012 0.48024 0.52970
 C141 C 1.02893 0.46274 0.51465
 H142 H 0.98234 0.43616 0.53569
 H143 H 1.01445 0.49389 0.55930
 H144 H 1.04072 0.46178 0.50070
 C145 C 0.39097 -0.01284 0.20921
 H146 H 0.39508 -0.00013 0.22079
 C147 C 0.40489 -0.01576 0.19047
 H148 H 0.41956 -0.00523 0.18798
 C149 C 0.36652 -0.04136 0.19767
 H150 H 0.35136 -0.05115 0.20028
 C151 C 0.37992 -0.04477 0.17865
 H152 H 0.37517 -0.05748 0.16710
 N153 N 0.37230 -0.02573 0.21268
 C154 C 0.32490 0.01077 0.25362
 H155 H 0.32428 0.00061 0.26859
 C156 C 0.31253 0.02993 0.25268
 H157 H 0.30241 0.03456 0.26704
 C158 C 0.33904 0.01714 0.21669
 H159 H 0.34927 0.01196 0.20267
 C160 C 0.32722 0.03664 0.21518
 H161 H 0.32835 0.04641 0.19993
 Zn162 Zn 0.35346 -0.02169 0.23846
 N163 N 0.33757 0.00464 0.23568
 C164 C 0.36984 -0.03524 0.28217
 N165 N 0.37166 -0.02015 0.26538
 C166 C 0.38551 -0.00262 0.26794
 C167 C 0.39909 -0.00029 0.28736
 C168 C 0.38284 -0.03336 0.30209
 C169 C 0.30901 -0.04082 0.23974
 C170 C 0.29314 -0.05765 0.24169
 C171 C 0.32468 -0.08267 0.24466
 C172 C 0.33996 -0.06532 0.24278
 N173 N 0.33196 -0.04484 0.24064
 H174 H 0.35806 -0.04860 0.28042
 H175 H 0.38571 0.00989 0.25511
 H176 H 0.41047 0.01351 0.28851
 H177 H 0.38079 -0.04540 0.31532
 H178 H 0.30288 -0.02454 0.23757
 H179 H 0.27498 -0.05397 0.24153
 H180 H 0.33144 -0.09884 0.24618
 H181 H 0.35828 -0.06817 0.24304
 C182 C 0.31362 0.04310 0.23327
 C183 C 0.39948 -0.03195 0.17493
 C184 C 0.30089 -0.07894 0.24430
 C185 C 0.39791 -0.01577 0.30485
 C186 C 0.11089 0.00750 0.71084
 H187 H 0.10807 -0.00760 0.71974
 C188 C 0.09806 0.01240 0.69133
 H189 H 0.08531 0.00099 0.68531
 C190 C 0.13020 0.04114 0.70848
 H191 H 0.14243 0.05250 0.71539
 C192 C 0.11766 0.04675 0.68904
 H193 H 0.12072 0.06223 0.68095
 N194 N 0.12669 0.02177 0.71892
 C195 C 0.17514 -0.01466 0.76121
 H196 H 0.17481 -0.00500 0.77628
 C197 C 0.19026 -0.03196 0.75998
 H198 H 0.20133 -0.03569 0.77434
 C199 C 0.16122 -0.02129 0.72412
 H200 H 0.15026 -0.01680 0.70998
 C201 C 0.17602 -0.03882 0.72220
 H202 H 0.17627 -0.04766 0.70656
 Zn203 Zn 0.14243 0.01511 0.74633
 N204 N 0.16098 -0.00968 0.74346
 C205 C 0.11961 -0.00755 0.78179
 N206 N 0.12007 0.01080 0.76898
 C207 C 0.10428 0.02657 0.77175
 C208 C 0.08768 0.02460 0.78850
 C209 C 0.10330 -0.01021 0.79873
 C210 C 0.18073 0.04180 0.74065
 C211 C 0.19579 0.05888 0.74497
 C212 C 0.17280 0.06818 0.77709
 C213 C 0.15829 0.05080 0.77227
 N214 N 0.16225 0.03826 0.75405
 H215 H 0.13200 -0.02010 0.77906
 H216 H 0.10476 0.04083 0.76105
 H217 H 0.07532 0.03738 0.79048
 H218 H 0.10363 -0.02467 0.80915
 H219 H 0.18357 0.03147 0.72638
 H220 H 0.21015 0.06173 0.73384
 H221 H 0.16935 0.07810 0.79156
 H222 H 0.14383 0.04748 0.78303
 C223 C 0.19092 -0.04423 0.74024
 C224 C 0.10128 0.03233 0.68027
 C225 C 0.19175 0.07246 0.76326
 C226 C 0.08717 0.00609 0.80241
 C227 C 0.60185 0.46660 0.22257
 H228 H 0.59873 0.45234 0.23281
 C229 C 0.58804 0.47086 0.20355
 H230 H 0.57420 0.45981 0.19943
 C231 C 0.62293 0.49884 0.21639
 H232 H 0.63631 0.50989 0.22159
 C233 C 0.60970 0.50361 0.19713
 H234 H 0.61349 0.51811 0.18750
 N235 N 0.61885 0.48056 0.22865
 C236 C 0.67109 0.44737 0.26922
 H237 H 0.67163 0.45777 0.28374
 C238 C 0.68613 0.43001 0.26807
 H239 H 0.69839 0.42732 0.28172
 C240 C 0.65466 0.43866 0.23361
 H241 H 0.64235 0.44210 0.22024
 C242 C 0.66933 0.42104 0.23181
 H243 H 0.66790 0.41089 0.21711
 Zn244 Zn 0.63556 0.47480 0.25576
 N245 N 0.65559 0.45121 0.25227
 C246 C 0.61534 0.44920 0.29023
 N247 N 0.61408 0.46828 0.27871
 C248 C 0.59697 0.48252 0.28263
 C249 C 0.58057 0.47805 0.29910
 C250 C 0.59924 0.44403 0.30675
 C251 C 0.67248 0.50328 0.25067
 C252 C 0.68673 0.52084 0.25542
 C253 C 0.66245 0.52930 0.28687
 C254 C 0.64878 0.51143 0.28165
 N255 N 0.65380 0.49903 0.26360
 H256 H 0.62873 0.43786 0.28659
 H257 H 0.59605 0.49737 0.27288
 H258 H 0.56699 0.48952 0.30191
 H259 H 0.60072 0.42889 0.31593
 H260 H 0.67621 0.49303 0.23655
 H261 H 0.70133 0.52416 0.24475
 H262 H 0.65822 0.53905 0.30127
 H263 H 0.63418 0.50756 0.29204
 C264 C 0.68525 0.41642 0.24927
 C265 C 0.59179 0.48966 0.19057
 C266 C 0.68168 0.53418 0.27365
 C267 C 0.58160 0.45856 0.31140
 C268 C 0.90350 0.50782 0.73300
 H269 H 0.90454 0.52211 0.74308
 C270 C 0.91934 0.50505 0.71582
 H271 H 0.93255 0.51714 0.71316
 C272 C 0.88424 0.47557 0.72297
 H273 H 0.87039 0.46421 0.72550
 C274 C 0.89966 0.47224 0.70549
 H275 H 0.89771 0.45814 0.69504
 N276 N 0.88646 0.49307 0.73649
 C277 C 0.83469 0.52997 0.77147
 H278 H 0.83297 0.52038 0.78677
 C279 C 0.82194 0.54879 0.76856
 H280 H 0.81052 0.55375 0.78179
 C281 C 0.85168 0.53506 0.73557
 H282 H 0.86294 0.52942 0.72257
 C283 C 0.83943 0.55411 0.73206
 H284 H 0.84141 0.56304 0.71635
 Zn285 Zn 0.86487 0.49729 0.76002
 N286 N 0.84907 0.52343 0.75503
 C287 C 0.87618 0.48445 0.80559
 N288 N 0.88036 0.49892 0.78862
 C289 C 0.89569 0.51528 0.79165
 C290 C 0.90876 0.51659 0.81151
 C291 C 0.88871 0.48529 0.82589
 C292 C 0.82123 0.47795 0.75296
 C293 C 0.80537 0.46103 0.75167
 C294 C 0.83506 0.43661 0.76467
 C295 C 0.85047 0.45391 0.76525
 N296 N 0.84330 0.47416 0.75977
 H297 H 0.86311 0.47223 0.80358
 H298 H 0.89783 0.52744 0.77869
 H299 H 0.92153 0.52925 0.81295
 H300 H 0.88512 0.47357 0.83911
 H301 H 0.81596 0.49403 0.74814
 H302 H 0.78788 0.46423 0.74619
 H303 H 0.84097 0.42059 0.76915
 H304 H 0.86825 0.45117 0.76993
 C305 C 0.82421 0.56107 0.74862
 C306 C 0.91754 0.48707 0.70182
 C307 C 0.81225 0.44012 0.75773
 C308 C 0.90562 0.50128 0.82890
 C309 C 0.23307 0.43323 0.02649
 H310 H 0.24426 0.43325 0.04124
 C311 C 0.21583 0.44865 0.02415
 H312 H 0.21366 0.46040 0.03730
 C313 C 0.22232 0.41777 -0.00854
 H314 H 0.22509 0.40586 -0.02135
 C315 C 0.20470 0.43280 -0.01147
 H316 H 0.19406 0.43236 -0.02661
 N317 N 0.23593 0.41815 0.01032
 C318 C 0.26650 0.36085 0.04083
 H319 H 0.28110 0.35886 0.02993
 C320 C 0.26192 0.34553 0.05766
 H321 H 0.27299 0.33165 0.05945
 C322 C 0.23397 0.38111 0.05111
 H323 H 0.22305 0.39493 0.04843
 C324 C 0.22880 0.36623 0.06824
 H325 H 0.21410 0.36900 0.07882
 Zn326 Zn 0.26013 0.39825 0.01476
 N327 N 0.25273 0.37832 0.03802
 C328 C 0.30004 0.40807 0.04103
 N329 N 0.28693 0.41396 0.02279
 C330 C 0.29245 0.43145 0.00985
 C331 C 0.31207 0.44360 0.01484
 C332 C 0.31995 0.41966 0.04650
 C333 C 0.24961 0.36739 -0.01816
 C334 C 0.25378 0.35405 -0.03648
 C335 C 0.29025 0.37210 -0.04159
 C336 C 0.28545 0.38499 -0.02312
 N337 N 0.26541 0.38242 -0.01180
 H338 H 0.29520 0.39436 0.05134
 H339 H 0.28162 0.43586 -0.00446
 H340 H 0.31639 0.45730 0.00416
 H341 H 0.33023 0.41476 0.06105
 H342 H 0.23400 0.36540 -0.00860
 H343 H 0.24127 0.34177 -0.04085
 H344 H 0.30626 0.37451 -0.05041
 H345 H 0.29795 0.39679 -0.01766
 C346 C 0.24292 0.34818 0.07176
 C347 C 0.20133 0.44852 0.00499
 C348 C 0.27445 0.35618 -0.04835
 C349 C 0.32617 0.43765 0.03330
 C350 C 0.72108 0.07659 -0.01429
 H351 H 0.72906 0.07338 -0.03030
 C352 C 0.70249 0.06404 -0.00712
 H353 H 0.69611 0.05123 -0.01779
 C354 C 0.71933 0.09760 0.01880
 H355 H 0.72594 0.11066 0.02890
 C356 C 0.70060 0.08559 0.02651
 H357 H 0.69303 0.08946 0.04257
 N358 N 0.72889 0.09320 -0.00148
 C359 C 0.75536 0.14494 -0.04415
 H360 H 0.77227 0.14729 -0.03673
 C361 C 0.74754 0.15878 -0.06134
 H362 H 0.75852 0.17186 -0.06698
 C363 C 0.72021 0.12551 -0.04510
 H364 H 0.70950 0.11265 -0.03862
 C365 C 0.71171 0.13896 -0.06231
 H366 H 0.69463 0.13605 -0.06912
 Zn367 Zn 0.75307 0.11068 -0.01273
 N368 N 0.74177 0.12858 -0.03652
 C369 C 0.78696 0.09688 -0.04341
 N370 N 0.77674 0.09268 -0.02327
 C371 C 0.78314 0.07551 -0.01020
 C372 C 0.80073 0.06197 -0.01708
 C373 C 0.80480 0.08392 -0.05081
 C374 C 0.75162 0.14577 0.01643
 C375 C 0.75898 0.15931 0.03374
 C376 C 0.79301 0.13752 0.03841
 C377 C 0.78504 0.12445 0.02090
 N378 N 0.76453 0.12861 0.01051
 H379 H 0.78154 0.11045 -0.05369
 H380 H 0.77456 0.07237 0.00563
 H381 H 0.80531 0.04824 -0.00652
 H382 H 0.81312 0.08800 -0.06656
 H383 H 0.73548 0.14885 0.00772
 H384 H 0.74850 0.17297 0.03805
 H385 H 0.80909 0.13359 0.04686
 H386 H 0.79513 0.11083 0.01585
 C387 C 0.72544 0.15586 -0.07068
 C388 C 0.69182 0.06870 0.01339
 C389 C 0.77985 0.15516 0.04516
 C390 C 0.81202 0.06620 -0.03756
 C391 C 0.21506 0.58251 0.50189
 H392 H 0.22822 0.58343 0.48916
 C393 C 0.19770 0.56700 0.50028
 H394 H 0.19742 0.55626 0.48601
 C395 C 0.19952 0.59564 0.53583
 H396 H 0.20053 0.60661 0.54984
 C397 C 0.18187 0.58031 0.53493
 H398 H 0.16945 0.57963 0.54839
 N399 N 0.21553 0.59659 0.51931
 C400 C 0.25463 0.65156 0.49364
 H401 H 0.26755 0.65302 0.50685
 C402 C 0.25464 0.66589 0.47526
 H403 H 0.26757 0.67848 0.47449
 C404 C 0.22178 0.63359 0.47892
 H405 H 0.20887 0.62112 0.48047
 C406 C 0.22112 0.64759 0.46027
 H407 H 0.20792 0.64543 0.44742
 Zn408 Zn 0.24025 0.61650 0.52012
 N409 N 0.23863 0.63556 0.49492
 C410 C 0.28305 0.60333 0.50250
 N411 N 0.26758 0.60017 0.51926
 C412 C 0.27034 0.58412 0.53491
 C413 C 0.28917 0.57033 0.53396
 C414 C 0.30221 0.59004 0.50102
 C415 C 0.22170 0.64732 0.54864
 C416 C 0.22154 0.66199 0.56634
 C417 C 0.25824 0.64808 0.57909
 C418 C 0.25766 0.63363 0.56119
 N419 N 0.23962 0.63360 0.54633
 H420 H 0.28040 0.61586 0.48994
 H421 H 0.25755 0.58174 0.54783
 H422 H 0.29065 0.55727 0.54617
 H423 H 0.31436 0.59295 0.48761
 H424 H 0.20780 0.64725 0.53631
 H425 H 0.20743 0.67319 0.56752
 H426 H 0.27282 0.64799 0.59064
 H427 H 0.27194 0.62289 0.55883
 C428 C 0.23782 0.66389 0.45817
 C429 C 0.18075 0.56575 0.51693
 C430 C 0.24016 0.66271 0.58166
 C431 C 0.30531 0.57307 0.51669
 C432 C 0.72137 0.92689 0.50240
 H433 H 0.73308 0.92785 0.51671
 C434 C 0.70399 0.94207 0.49967
 H435 H 0.70218 0.95443 0.51225
 C436 C 0.70975 0.90949 0.46868
 H437 H 0.71239 0.89699 0.45645
 C438 C 0.69211 0.92444 0.46522
 H439 H 0.68128 0.92331 0.45027
 N440 N 0.72389 0.91099 0.48708
 C441 C 0.76148 0.86058 0.52347
 H442 H 0.77612 0.85868 0.51260
 C443 C 0.75864 0.84686 0.54215
 H444 H 0.77117 0.83435 0.54544
 C445 C 0.72675 0.87846 0.53150
 H446 H 0.71407 0.89047 0.52709
 C447 C 0.72332 0.86522 0.55042
 H448 H 0.70829 0.86766 0.56063
 Zn449 Zn 0.74942 0.89278 0.49181
 N450 N 0.74564 0.87600 0.51851
 C451 C 0.79032 0.91026 0.51191
 N452 N 0.77535 0.91112 0.49407
 C453 C 0.77761 0.92619 0.47735
 C454 C 0.79551 0.94119 0.47808
 C455 C 0.80863 0.92489 0.51323
 C456 C 0.73712 0.85767 0.46458
 C457 C 0.74054 0.84169 0.44855
 C458 C 0.77637 0.85898 0.43862
 C459 C 0.77233 0.87452 0.45489
 N460 N 0.75304 0.87353 0.46758
 H461 H 0.78797 0.89842 0.52524
 H462 H 0.76531 0.92661 0.46348
 H463 H 0.79708 0.95299 0.46454
 H464 H 0.82029 0.92419 0.52763
 H465 H 0.72211 0.85705 0.47517
 H466 H 0.72807 0.82877 0.44697
 H467 H 0.79188 0.86007 0.42876
 H468 H 0.78497 0.88702 0.45772
 C469 C 0.73928 0.84901 0.55588
 C470 C 0.68918 0.94111 0.48078
 C471 C 0.76059 0.84203 0.43555
 C472 C 0.81127 0.94069 0.49622
 C473 C 0.03542 0.22633 0.40205
 H474 H 0.04945 0.23777 0.40331
 C475 C 0.03568 0.20758 0.41532
 H476 H 0.04991 0.20484 0.42696
 C477 C -0.00032 0.21633 0.38554
 H478 H -0.01430 0.21982 0.37390
 C479 C -0.00074 0.19733 0.39850
 H480 H -0.01499 0.18620 0.39644
 N481 N 0.01779 0.23019 0.38727
 C482 C 0.04639 0.26946 0.33282
 H483 H 0.03492 0.28311 0.33294
 C484 C 0.06383 0.26858 0.31688
 H485 H 0.06588 0.28177 0.30490
 C486 C 0.05769 0.23576 0.34847
 H487 H 0.05505 0.22283 0.36056
 C488 C 0.07539 0.23425 0.33289
 H489 H 0.08618 0.22010 0.33316
 Zn490 Zn 0.01971 0.25565 0.36937
 N491 N 0.04382 0.25332 0.34837
 C492 C 0.04449 0.29174 0.38630
 N493 N 0.02558 0.27901 0.38901
 C494 C 0.01060 0.28243 0.40603
 C495 C 0.01379 0.29979 0.42052
 C496 C 0.04840 0.30922 0.40050
 C497 C -0.01284 0.24661 0.33531
 C498 C -0.03176 0.25039 0.32103
 C499 C -0.04019 0.28215 0.34246
 C500 C -0.02102 0.27788 0.35617
 N501 N -0.00778 0.26033 0.35243
 H502 H 0.05652 0.28850 0.37306
 H503 H -0.00403 0.27179 0.40811
 H504 H 0.00157 0.30237 0.43385
 H505 H 0.06323 0.31948 0.39773
 H506 H -0.00178 0.23301 0.33240
 H507 H -0.03503 0.23961 0.30710
 H508 H -0.05054 0.29613 0.34591
 H509 H -0.01656 0.28887 0.36952
 C510 C 0.07871 0.25085 0.31689
 C511 C 0.01756 0.19264 0.41348
 C512 C -0.04565 0.26849 0.32439
 C513 C 0.03278 0.31358 0.41769
 C514 C -0.04081 0.72045 0.10066
 H515 H -0.05517 0.73119 0.09782
 C516 C -0.03951 0.70132 0.08865
 H517 H -0.05287 0.69758 0.07639
 C518 C -0.00555 0.71288 0.11949
 H519 H 0.00777 0.71753 0.13136
 C520 C -0.00362 0.69351 0.10794
 H521 H 0.01104 0.68328 0.11141
 N522 N -0.02406 0.72579 0.11584
 C523 C -0.05505 0.76772 0.16536
 H524 H -0.04364 0.78151 0.16444
 C525 C -0.07315 0.76748 0.18064
 H526 H -0.07546 0.78112 0.19158
 C527 C -0.06551 0.73300 0.15250
 H528 H -0.06243 0.71952 0.14161
 C529 C -0.08378 0.73207 0.16753
 H530 H -0.09483 0.71797 0.16772
 Zn531 Zn -0.02713 0.75230 0.13090
 N532 N -0.05179 0.75077 0.15145
 C533 C -0.05137 0.78689 0.10991
 N534 N -0.03277 0.77384 0.10859
 C535 C -0.01811 0.77539 0.09093
 C536 C -0.02163 0.79084 0.07388
 C537 C -0.05547 0.80263 0.09332
 C538 C 0.00507 0.74628 0.16592
 C539 C 0.02447 0.75071 0.17922
 C540 C 0.03271 0.78122 0.15483
 C541 C 0.01313 0.77622 0.14200
 N542 N -0.00011 0.75888 0.14761
 H543 H -0.06308 0.78519 0.12382
 H544 H -0.00366 0.76455 0.09010
 H545 H -0.00988 0.79167 0.05986
 H546 H -0.07009 0.81317 0.09501
 H547 H -0.00601 0.73283 0.17025
 H548 H 0.02811 0.74064 0.19390
 H549 H 0.04320 0.79491 0.14991
 H550 H 0.00852 0.78629 0.12765
 C551 C -0.08788 0.74951 0.18178
 C552 C -0.02075 0.68749 0.09226
 C553 C 0.03861 0.76838 0.17372
 C554 C -0.04050 0.80479 0.07499
 C555 C 0.46949 0.21716 0.58217
 H556 H 0.45619 0.22924 0.58097
 C557 C 0.46896 0.19961 0.56768
 H558 H 0.45527 0.19838 0.55519
 C559 C 0.50370 0.20439 0.59975
 H560 H 0.51727 0.20637 0.61218
 C561 C 0.50388 0.18659 0.58552
 H562 H 0.51746 0.17484 0.58742
 N563 N 0.48645 0.21904 0.59807
 C564 C 0.45377 0.25738 0.64982
 H565 H 0.46547 0.27094 0.65103
 C566 C 0.43403 0.25668 0.66303
 H567 H 0.43050 0.26998 0.67408
 C568 C 0.44412 0.22378 0.63365
 H569 H 0.44829 0.21077 0.62253
 C570 C 0.42434 0.22233 0.64666
 H571 H 0.41357 0.20812 0.64533
 Zn572 Zn 0.48501 0.24311 0.61734
 N573 N 0.45817 0.24130 0.63513
 C574 C 0.46686 0.28232 0.59904
 N575 N 0.48454 0.26810 0.59855
 C576 C 0.50229 0.27098 0.58406
 C577 C 0.50314 0.28912 0.56987
 C578 C 0.46701 0.30067 0.58512
 C579 C 0.51304 0.22743 0.65269
 C580 C 0.53144 0.22729 0.66810
 C581 C 0.54432 0.26121 0.65216
 C582 C 0.52567 0.26070 0.63708
 N583 N 0.51065 0.24384 0.63741
 H584 H 0.45259 0.27951 0.61018
 H585 H 0.51589 0.25920 0.58368
 H586 H 0.51741 0.29110 0.55847
 H587 H 0.45303 0.31203 0.58615
 H588 H 0.50059 0.21442 0.65289
 H589 H 0.53296 0.21413 0.68021
 H590 H 0.55632 0.27457 0.65130
 H591 H 0.52323 0.27387 0.62521
 C592 C 0.41889 0.23903 0.66143
 C593 C 0.48621 0.18393 0.56936
 C594 C 0.54744 0.24432 0.66792
 C595 C 0.48540 0.30433 0.57039
 C596 C 0.53984 0.72305 0.89628
 H597 H 0.55426 0.73402 0.89478
 C598 C 0.54034 0.70659 0.91261
 H599 H 0.55526 0.70494 0.92363
 C600 C 0.50234 0.71264 0.88455
 H601 H 0.48737 0.71531 0.87394
 C602 C 0.50206 0.69610 0.90075
 H603 H 0.48697 0.68589 0.90211
 N604 N 0.52105 0.72574 0.88263
 C605 C 0.54317 0.76321 0.82366
 H606 H 0.52996 0.77540 0.82324
 C607 C 0.56023 0.76340 0.80728
 H608 H 0.56017 0.77591 0.79435
 C609 C 0.55953 0.73236 0.84139
 H610 H 0.55910 0.72017 0.85456
 C611 C 0.57700 0.73204 0.82545
 H612 H 0.58988 0.71953 0.82650
 Zn613 Zn 0.52036 0.74991 0.86274
 N614 N 0.54336 0.74808 0.84051
 C615 C 0.54305 0.78836 0.87603
 N616 N 0.52560 0.77443 0.88074
 C617 C 0.51268 0.77662 0.89955
 C618 C 0.51733 0.79319 0.91471
 C619 C 0.54817 0.80525 0.89061
 C620 C 0.48644 0.73606 0.83241
 C621 C 0.46570 0.73656 0.82032
 C622 C 0.45597 0.76933 0.83950
 C623 C 0.47694 0.76820 0.85123
 N624 N 0.49159 0.75164 0.84761
 H625 H 0.55339 0.78619 0.86123
 H626 H 0.49917 0.76507 0.90309
 H627 H 0.50734 0.79420 0.92996
 H628 H 0.56211 0.81618 0.88650
 H629 H 0.49858 0.72325 0.82964
 H630 H 0.46209 0.72414 0.80808
 H631 H 0.44439 0.78246 0.84283
 H632 H 0.48149 0.78059 0.86316
 C633 C 0.57763 0.74785 0.80826
 C634 C 0.52115 0.69304 0.91517
 C635 C 0.45011 0.75335 0.82381
 C636 C 0.53548 0.80764 0.91046
 C637 C 0.19000 0.23452 0.24385
 C638 C 0.17242 0.23686 0.25965
 C639 C 0.17647 0.23103 0.28254
 C640 C 0.19805 0.22316 0.28927
 C641 C 0.21540 0.22079 0.27344
 C642 C 0.21153 0.22630 0.25058
 C643 C 0.15884 0.23297 0.29831
 C644 C 0.13716 0.24056 0.29146
 C645 C 0.13314 0.24655 0.26861
 C646 C 0.15081 0.24469 0.25285
 C647 C 0.11145 0.25419 0.26188
 C648 C 0.09383 0.25572 0.27759
 C649 C 0.09756 0.24961 0.30031
 C650 C 0.11937 0.24214 0.30712
 H651 H 0.18675 0.23859 0.22623
 H652 H 0.20147 0.21871 0.30676
 H653 H 0.23193 0.21472 0.27909
 H654 H 0.16194 0.22841 0.31584
 H655 H 0.14769 0.24919 0.23530
 H656 H 0.10806 0.25883 0.24444
 H657 H 0.07713 0.26132 0.27188
 H658 H 0.12255 0.23769 0.32466
 C659 C 0.69147 0.74407 0.73691
 C660 C 0.67347 0.74518 0.75244
 C661 C 0.67815 0.74205 0.77578
 C662 C 0.70073 0.73823 0.78322
 C663 C 0.71845 0.73690 0.76766
 C664 C 0.71397 0.73951 0.74439
 C665 C 0.66016 0.74237 0.79129
 C666 C 0.63749 0.74558 0.78378
 C667 C 0.63278 0.74901 0.76050
 C668 C 0.65082 0.74885 0.74497
 C669 C 0.61005 0.75234 0.75314
 C670 C 0.59214 0.75207 0.76866
 C671 C 0.59662 0.74837 0.79179
 C672 C 0.61940 0.74525 0.79922
 H673 H 0.68786 0.74592 0.71896
 H674 H 0.70463 0.73591 0.80104
 H675 H 0.73571 0.73362 0.77379
 H676 H 0.66377 0.73980 0.80916
 H677 H 0.64719 0.75129 0.72709
 H678 H 0.60612 0.75500 0.73538
 H679 H 0.57470 0.75440 0.76254
 H680 H 0.62307 0.74274 0.81707
 C681 C 0.33881 0.77645 0.74933
 C682 C 0.35864 0.77583 0.76307
 C683 C 0.37076 0.79511 0.76770
 C684 C 0.36265 0.81470 0.75875
 C685 C 0.34292 0.81517 0.74505
 C686 C 0.33092 0.79607 0.74004
 C687 C 0.39090 0.79448 0.78099
 C688 C 0.39913 0.77480 0.78966
 C689 C 0.38685 0.75556 0.78523
 C690 C 0.36666 0.75620 0.77203
 C691 C 0.39510 0.73593 0.79391
 C692 C 0.41549 0.73529 0.80662
 C693 C 0.42804 0.75426 0.81091
 C694 C 0.41960 0.77402 0.80247
 H695 H 0.32951 0.76166 0.74584
 H696 H 0.37172 0.82963 0.76212
 H697 H 0.33733 0.83044 0.73792
 H698 H 0.40028 0.80926 0.78440
 H699 H 0.35735 0.74140 0.76853
 H700 H 0.38585 0.72104 0.79079
 H701 H 0.42139 0.71991 0.81321
 H702 H 0.42923 0.78873 0.80540
 C703 C -0.15161 0.27698 0.23926
 C704 C -0.13349 0.27206 0.25433
 C705 C -0.12865 0.25036 0.25991
 C706 C -0.14189 0.23396 0.25018
 C707 C -0.15976 0.23893 0.23504
 C708 C -0.16510 0.26053 0.22928
 C709 C -0.11060 0.24540 0.27505
 C710 C -0.09712 0.26190 0.28447
 C711 C -0.10182 0.28361 0.27869
 C712 C -0.12000 0.28855 0.26374
 C713 C -0.08818 0.30005 0.28788
 C714 C -0.07002 0.29507 0.30265
 C715 C -0.06519 0.27356 0.30873
 C716 C -0.07893 0.25703 0.29952
 H717 H -0.15438 0.29371 0.23468
 H718 H -0.13852 0.21723 0.25437
 H719 H -0.16994 0.22565 0.22868
 H720 H -0.10697 0.22872 0.27937
 H721 H -0.12360 0.30523 0.25938
 H722 H -0.09145 0.31676 0.28351
 H723 H -0.05950 0.30814 0.30904
 H724 H -0.07563 0.24039 0.30419
 C725 C -0.19074 0.72655 0.26503
 C726 C -0.17115 0.72763 0.25144
 C727 C -0.15747 0.70909 0.24885
 C728 C -0.16350 0.68987 0.26000
 C729 C -0.18304 0.68891 0.27341
 C730 C -0.19692 0.70715 0.27597
 C731 C -0.13810 0.70998 0.23501
 C732 C -0.13230 0.72914 0.22357
 C733 C -0.14587 0.74773 0.22627
 C734 C -0.16517 0.74688 0.24022
 C735 C -0.13998 0.76683 0.21478
 C736 C -0.12101 0.76745 0.20054
 C737 C -0.10754 0.74900 0.19754
 C738 C -0.11324 0.72992 0.20930
 H739 H -0.20145 0.74065 0.26669
 H740 H -0.15316 0.67554 0.25828
 H741 H -0.18725 0.67388 0.28192
 H742 H -0.12769 0.69572 0.23297
 H743 H -0.17563 0.76111 0.24220
 H744 H -0.15019 0.78122 0.21661
 H745 H -0.11716 0.78228 0.19149
 H746 H -0.10280 0.71568 0.20741
 C747 C 0.31699 0.23808 0.74883
 C748 C 0.33686 0.24027 0.73581
 C749 C 0.35676 0.24991 0.74521
 C750 C 0.35628 0.25758 0.76734
 C751 C 0.33638 0.25552 0.78018
 C752 C 0.31639 0.24549 0.77132
 C753 C 0.37682 0.25169 0.73237
 C754 C 0.37713 0.24410 0.71013
 C755 C 0.35704 0.23483 0.70059
 C756 C 0.33708 0.23295 0.71348
 C757 C 0.35728 0.22749 0.67831
 C758 C 0.37727 0.22910 0.66562
 C759 C 0.39753 0.23794 0.67497
 C760 C 0.39723 0.24553 0.69729
 H761 H 0.30177 0.23126 0.74093
 H762 H 0.37140 0.26498 0.77485
 H763 H 0.33724 0.26094 0.79747
 H764 H 0.39215 0.25894 0.73968
 H765 H 0.32174 0.22568 0.70618
 H766 H 0.34198 0.22051 0.67069
 H767 H 0.37679 0.22355 0.64835
 H768 H 0.41274 0.25217 0.70485
 C769 C 0.65233 0.26483 0.75163
 C770 C 0.63269 0.26441 0.73758
 C771 C 0.62071 0.28367 0.73279
 C772 C 0.62847 0.30298 0.74221
 C773 C 0.64809 0.30334 0.75604
 C774 C 0.66055 0.28432 0.76099
 C775 C 0.60127 0.28338 0.71850
 C776 C 0.59381 0.26405 0.70872
 C777 C 0.60577 0.24475 0.71354
 C778 C 0.62509 0.24503 0.72798
 C779 C 0.59830 0.22548 0.70370
 C780 C 0.57928 0.22535 0.68904
 C781 C 0.56732 0.24446 0.68397
 C782 C 0.57466 0.26377 0.69405
 H783 H 0.66172 0.24998 0.75419
 H784 H 0.61933 0.31787 0.73890
 H785 H 0.65283 0.31859 0.76344
 H786 H 0.59212 0.29821 0.71480
 H787 H 0.63429 0.23021 0.73160
 H788 H 0.60729 0.21054 0.70716
 H789 H 0.57419 0.21031 0.68131
 H790 H 0.56540 0.27856 0.69057
 C791 C 0.14770 0.77619 0.25441
 C792 C 0.12953 0.77154 0.23938
 C793 C 0.12438 0.74987 0.23408
 C794 C 0.13761 0.73327 0.24374
 C795 C 0.15545 0.73802 0.25890
 C796 C 0.16053 0.75946 0.26451
 C797 C 0.10586 0.74512 0.21955
 C798 C 0.09220 0.76173 0.21049
 C799 C 0.09742 0.78340 0.21567
 C800 C 0.11613 0.78818 0.22996
 C801 C 0.08363 0.79993 0.20667
 C802 C 0.06466 0.79504 0.19291
 C803 C 0.05916 0.77355 0.18782
 C804 C 0.07319 0.75697 0.19656
 H805 H 0.15138 0.79276 0.25884
 H806 H 0.13395 0.71659 0.23982
 H807 H 0.16529 0.72491 0.26632
 H808 H 0.10186 0.72849 0.21560
 H809 H 0.12004 0.80480 0.23403
 H810 H 0.08734 0.81662 0.21048
 H811 H 0.05400 0.80810 0.18663
 H812 H 0.06935 0.74036 0.19249
 C813 C 0.26186 0.16021 0.22366
 C814 C 0.27414 0.14084 0.22402
 C815 C 0.29772 0.14093 0.21858
 C816 C 0.30865 0.16045 0.21311
 C817 C 0.29637 0.17972 0.21307
 C818 C 0.27285 0.17983 0.21829
 C819 C 0.31000 0.12154 0.21880
 C820 C 0.29906 0.10212 0.22473
 C821 C 0.27553 0.10210 0.23046
 C822 C 0.26318 0.12142 0.22987
 C823 C 0.26477 0.08276 0.23688
 C824 C 0.27721 0.06361 0.23779
 C825 C 0.30052 0.06342 0.23197
 C826 C 0.31133 0.08272 0.22530
 H827 H 0.24367 0.15995 0.22734
 H828 H 0.32674 0.16084 0.20902
 H829 H 0.30538 0.19459 0.20921
 H830 H 0.32807 0.12160 0.21454
 H831 H 0.24512 0.12137 0.23418
 H832 H 0.24677 0.08246 0.24136
 H833 H 0.26857 0.04885 0.24285
 H834 H 0.32940 0.08268 0.22104
 C835 C 0.76777 0.67453 0.72399
 C836 C 0.78089 0.65583 0.72691
 C837 C 0.80463 0.65633 0.72218
 C838 C 0.81481 0.67562 0.71467
 C839 C 0.80165 0.69429 0.71211
 C840 C 0.77803 0.69398 0.71684
 C841 C 0.81778 0.63761 0.72518
 C842 C 0.80752 0.61849 0.73314
 C843 C 0.78380 0.61810 0.73804
 C844 C 0.77061 0.63671 0.73473
 C845 C 0.77364 0.59912 0.74635
 C846 C 0.78686 0.58067 0.74986
 C847 C 0.81040 0.58079 0.74494
 C848 C 0.82063 0.59977 0.73647
 H849 H 0.74949 0.67388 0.72724
 H850 H 0.83299 0.67633 0.71102
 H851 H 0.81006 0.70908 0.70681
 H852 H 0.83599 0.63796 0.72151
 H853 H 0.75241 0.63637 0.73846
 H854 H 0.75549 0.59856 0.75018
 H855 H 0.77860 0.56615 0.75616
 H856 H 0.83885 0.60004 0.73286
 C857 C 0.73303 0.33712 0.77085
 C858 C 0.74741 0.35533 0.77206
 C859 C 0.75895 0.36011 0.79259
 C860 C 0.75537 0.34705 0.81170
 C861 C 0.74082 0.32917 0.81044
 C862 C 0.72976 0.32376 0.78997
 C863 C 0.77396 0.37781 0.79371
 C864 C 0.77739 0.39099 0.77463
 C865 C 0.76534 0.38664 0.75425
 C866 C 0.75056 0.36874 0.75305
 C867 C 0.76835 0.40027 0.73541
 C868 C 0.78333 0.41791 0.73667
 C869 C 0.79579 0.42196 0.75666
 C870 C 0.79271 0.40848 0.77560
 H871 H 0.72483 0.33311 0.75488
 H872 H 0.76386 0.35064 0.82764
 H873 H 0.73820 0.31955 0.82560
 H874 H 0.78301 0.38128 0.80940
 H875 H 0.74154 0.36524 0.73734
 H876 H 0.75917 0.39727 0.71970
 H877 H 0.78556 0.42816 0.72190
 H878 H 0.80213 0.41175 0.79113
 C879 C 0.22408 -0.18056 0.27507
 C880 C 0.24038 -0.16415 0.27146
 C881 C 0.26154 -0.16461 0.28338
 C882 C 0.26619 -0.18161 0.29844
 C883 C 0.25001 -0.19797 0.30186
 C884 C 0.22849 -0.19779 0.29042
 C885 C 0.27769 -0.14804 0.28014
 C886 C 0.27297 -0.13099 0.26503
 C887 C 0.25190 -0.13063 0.25288
 C888 C 0.23571 -0.14716 0.25621
 C889 C 0.24732 -0.11365 0.23767
 C890 C 0.26334 -0.09705 0.23469
 C891 C 0.28423 -0.09703 0.24693
 C892 C 0.28894 -0.11420 0.26202
 H893 H 0.20761 -0.17914 0.26650
 H894 H 0.28247 -0.18237 0.30750
 H895 H 0.25501 -0.21113 0.31298
 H896 H 0.29389 -0.14837 0.28943
 H897 H 0.21950 -0.14679 0.24696
 H898 H 0.23132 -0.11319 0.22809
 H899 H 0.25941 -0.08427 0.22265
 H900 H 0.30481 -0.11429 0.27181
 C901 C 0.26492 -0.14901 0.72207
 C902 C 0.24899 -0.13224 0.72365
 C903 C 0.22627 -0.13519 0.71563
 C904 C 0.21989 -0.15492 0.70617
 C905 C 0.23579 -0.17162 0.70471
 C906 C 0.25867 -0.16911 0.71268
 C907 C 0.21033 -0.11838 0.71718
 C908 C 0.21688 -0.09865 0.72674
 C909 C 0.23966 -0.09575 0.73480
 C910 C 0.25556 -0.11251 0.73313
 C911 C 0.24617 -0.07613 0.74447
 C912 C 0.23029 -0.05951 0.74622
 C913 C 0.20759 -0.06211 0.73828
 C914 C 0.20102 -0.08177 0.72845
 H915 H 0.28245 -0.14582 0.72741
 H916 H 0.20247 -0.15754 0.70007
 H917 H 0.22963 -0.18677 0.69808
 H918 H 0.19287 -0.12067 0.71100
 H919 H 0.27303 -0.11022 0.73931
 H920 H 0.26357 -0.07364 0.75068
 H921 H 0.23588 -0.04444 0.75355
 H922 H 0.18350 -0.08403 0.72245
 C923 C 0.76527 0.31740 0.22289
 C924 C 0.75199 0.33614 0.22424
 C925 C 0.74742 0.34856 0.20448
 C926 C 0.75627 0.34206 0.18375
 C927 C 0.76919 0.32324 0.18250
 C928 C 0.77371 0.31071 0.20198
 C929 C 0.73382 0.36708 0.20568
 C930 C 0.72443 0.37320 0.22633
 C931 C 0.72900 0.36079 0.24609
 C932 C 0.74285 0.34243 0.24495
 C933 C 0.71943 0.36685 0.26664
 C934 C 0.70532 0.38492 0.26763
 C935 C 0.70058 0.39739 0.24811
 C936 C 0.71034 0.39143 0.22750
 H937 H 0.76846 0.30767 0.23794
 H938 H 0.75298 0.35139 0.16845
 H939 H 0.77568 0.31843 0.16626
 H940 H 0.73029 0.37655 0.19050
 H941 H 0.74628 0.33289 0.26010
 H942 H 0.72267 0.35749 0.28193
 H943 H 0.69777 0.38892 0.28366
 H944 H 0.70710 0.40104 0.21237
 C945 C 0.74251 0.64598 0.29690
 C946 C 0.72857 0.62770 0.29405
 C947 C 0.70440 0.62971 0.29440
 C948 C 0.69463 0.65001 0.29769
 C949 C 0.70865 0.66820 0.30022
 C950 C 0.73272 0.66643 0.29969
 C951 C 0.69041 0.61149 0.29117
 C952 C 0.70032 0.59133 0.28726
 C953 C 0.72451 0.58936 0.28689
 C954 C 0.73847 0.60750 0.29049
 C955 C 0.73437 0.56930 0.28262
 C956 C 0.72042 0.55139 0.27845
 C957 C 0.69637 0.55314 0.27870
 C958 C 0.68642 0.57317 0.28334
 H959 H 0.76103 0.64427 0.29689
 H960 H 0.67613 0.65187 0.29795
 H961 H 0.70062 0.68375 0.30208
 H962 H 0.67186 0.61304 0.29139
 H963 H 0.75702 0.60597 0.29015
 H964 H 0.75287 0.56751 0.28231
 H965 H 0.72844 0.53607 0.27514
 H966 H 0.66787 0.57471 0.28332
 C967 C 0.25556 0.18289 0.78649
 C968 C 0.24118 0.16497 0.78308
 C969 C 0.21707 0.16739 0.78401
 C970 C 0.20778 0.18770 0.78825
 C971 C 0.22221 0.20548 0.79149
 C972 C 0.24622 0.20329 0.79065
 C973 C 0.20266 0.14950 0.78065
 C974 C 0.21204 0.12925 0.77620
 C975 C 0.23615 0.12687 0.77514
 C976 C 0.25057 0.14471 0.77870
 C977 C 0.24545 0.10667 0.77038
 C978 C 0.23101 0.08900 0.76658
 C979 C 0.20703 0.09116 0.76766
 C980 C 0.19767 0.11136 0.77259
 H981 H 0.27404 0.18089 0.78618
 H982 H 0.18934 0.18986 0.78894
 H983 H 0.21456 0.22104 0.79441
 H984 H 0.18416 0.15135 0.78140
 H985 H 0.26907 0.14287 0.77791
 H986 H 0.26388 0.10455 0.76951
 H987 H 0.23860 0.07355 0.76299
 H988 H 0.17918 0.11323 0.77316
 C989 C 0.23769 0.26182 0.17118
 C990 C 0.24214 0.27722 0.15418
 C991 C 0.26510 0.28304 0.14932
 C992 C 0.28319 0.27332 0.16146
 C993 C 0.27861 0.25788 0.17819
 C994 C 0.25588 0.25199 0.18320
 C995 C 0.26964 0.29836 0.13232
 C996 C 0.25153 0.30779 0.11992
 C997 C 0.22857 0.30191 0.12469
 C998 C 0.22401 0.28672 0.14185
 C999 C 0.21056 0.31127 0.11213
 C1000 C 0.21522 0.32626 0.09495
 C1001 C 0.23798 0.33227 0.09006
 C1002 C 0.25605 0.32296 0.10275
 H1003 H 0.22011 0.25718 0.17477
 H1004 H 0.30088 0.27761 0.15797
 H1005 H 0.29287 0.25064 0.18740
 H1006 H 0.28726 0.30283 0.12862
 H1007 H 0.20640 0.28222 0.14551
 H1008 H 0.19287 0.30689 0.11548
 H1009 H 0.20098 0.33294 0.08526
 H1010 H 0.27366 0.32767 0.09943
 C1011 C 0.73874 0.76999 0.66210
 C1012 C 0.74243 0.78428 0.64390
 C1013 C 0.76502 0.79116 0.63884
 C1014 C 0.78353 0.78350 0.65199
 C1015 C 0.77973 0.76911 0.66991
 C1016 C 0.75735 0.76225 0.67516
 C1017 C 0.76877 0.80546 0.62068
 C1018 C 0.75024 0.81280 0.60733
 C1019 C 0.72767 0.80578 0.61228
 C1020 C 0.72390 0.79166 0.63058
 C1021 C 0.70924 0.81294 0.59877
 C1022 C 0.71307 0.82690 0.58049
 C1023 C 0.73539 0.83415 0.57543
 C1024 C 0.75392 0.82698 0.58903
 H1025 H 0.72144 0.76458 0.66587
 H1026 H 0.80095 0.78859 0.64836
 H1027 H 0.79429 0.76348 0.67988
 H1028 H 0.78610 0.81075 0.61686
 H1029 H 0.70657 0.78633 0.63438
 H1030 H 0.69185 0.80763 0.60223
 H1031 H 0.69851 0.83178 0.57010
 H1032 H 0.77119 0.83260 0.58553
 C1033 C 0.76845 0.74776 0.34722
 C1034 C 0.76338 0.76447 0.36205
 C1035 C 0.74056 0.77192 0.36366
 C1036 C 0.72318 0.76241 0.35045
 C1037 C 0.72837 0.74574 0.33574
 C1038 C 0.75104 0.73832 0.33389
 C1039 C 0.73551 0.78874 0.37840
 C1040 C 0.75299 0.79814 0.39162
 C1041 C 0.77578 0.79056 0.39004
 C1042 C 0.78083 0.77381 0.37529
 C1043 C 0.79321 0.79985 0.40330
 C1044 C 0.78818 0.81652 0.41798
 C1045 C 0.76564 0.82435 0.41967
 C1046 C 0.74808 0.81500 0.40640
 H1047 H 0.78593 0.74194 0.34620
 H1048 H 0.70559 0.76790 0.35144
 H1049 H 0.71470 0.73885 0.32550
 H1050 H 0.71800 0.79449 0.37960
 H1051 H 0.79833 0.76806 0.37409
 H1052 H 0.81073 0.79415 0.40239
 H1053 H 0.80195 0.82308 0.42832
 H1054 H 0.73067 0.82098 0.40738
 C1055 C 0.28351 0.27728 -0.15186
 C1056 C 0.27842 0.29176 -0.13463
 C1057 C 0.25571 0.29932 -0.13234
 C1058 C 0.23847 0.29224 -0.14730
 C1059 C 0.24365 0.27771 -0.16430
 C1060 C 0.26617 0.27010 -0.16675
 C1061 C 0.25056 0.31374 -0.11508
 C1062 C 0.26780 0.32055 -0.09994
 C1063 C 0.29049 0.31293 -0.10221
 C1064 C 0.29568 0.29865 -0.11957
 C1065 C 0.30763 0.31963 -0.08698
 C1066 C 0.30238 0.33368 -0.06959
 C1067 C 0.27989 0.34145 -0.06713
 C1068 C 0.26268 0.33480 -0.08248
 H1069 H 0.30087 0.27130 -0.15344
 H1070 H 0.22098 0.29788 -0.14582
 H1071 H 0.23006 0.27257 -0.17573
 H1072 H 0.23313 0.31953 -0.11334
 H1073 H 0.31309 0.29281 -0.12127
 H1074 H 0.32509 0.31386 -0.08840
 H1075 H 0.31590 0.33819 -0.05780
 H1076 H 0.24533 0.34082 -0.08096
 C1077 C 0.69995 0.23885 -0.17023
 C1078 C 0.70730 0.22281 -0.15487
 C1079 C 0.73017 0.21526 -0.15562
 C1080 C 0.74517 0.22365 -0.17190
 C1081 C 0.73785 0.23991 -0.18680
 C1082 C 0.71532 0.24781 -0.18591
 C1083 C 0.73787 0.19990 -0.13971
 C1084 C 0.72315 0.19232 -0.12275
 C1085 C 0.70023 0.19969 -0.12213
 C1086 C 0.69239 0.21474 -0.13831
 C1087 C 0.68564 0.19217 -0.10506
 C1088 C 0.69379 0.17779 -0.08850
 C1089 C 0.71664 0.17057 -0.08875
 C1090 C 0.73115 0.17776 -0.10614
 H1091 H 0.68263 0.24510 -0.16929
 H1092 H 0.76272 0.21802 -0.17275
 H1093 H 0.74989 0.24658 -0.19885
 H1094 H 0.75546 0.19426 -0.14018
 H1095 H 0.67486 0.22054 -0.13770
 H1096 H 0.66804 0.19767 -0.10430
 H1097 H 0.68231 0.17269 -0.07518
 H1098 H 0.74870 0.17206 -0.10672
 C1099 C 0.21681 0.73760 0.34994
 C1100 C 0.21704 0.72527 0.36999
 C1101 C 0.19610 0.72016 0.38075
 C1102 C 0.17535 0.72766 0.37141
 C1103 C 0.17527 0.73986 0.35142
 C1104 C 0.19594 0.74483 0.34041
 C1105 C 0.19621 0.70748 0.40054
 C1106 C 0.21698 0.69971 0.40964
 C1107 C 0.23794 0.70497 0.39901
 C1108 C 0.23784 0.71775 0.37928
 C1109 C 0.25865 0.69718 0.40819
 C1110 C 0.25860 0.68406 0.42756
 C1111 C 0.23785 0.67850 0.43811
 C1112 C 0.21709 0.68656 0.42911
 H1113 H 0.23282 0.74115 0.34147
 H1114 H 0.15916 0.72398 0.37948
 H1115 H 0.15901 0.74552 0.34459
 H1116 H 0.18013 0.70348 0.40871
 H1117 H 0.25391 0.72168 0.37106
 H1118 H 0.27486 0.70103 0.40026
 H1119 H 0.27479 0.67787 0.43401
 H1120 H 0.20101 0.68264 0.43730
 C1121 C 0.26646 0.75461 0.67005
 C1122 C 0.26511 0.73865 0.65343
 C1123 C 0.28493 0.73343 0.64107
 C1124 C 0.30565 0.74427 0.64543
 C1125 C 0.30688 0.75998 0.66205
 C1126 C 0.28741 0.76522 0.67461
 C1127 C 0.28378 0.71740 0.62463
 C1128 C 0.26310 0.70640 0.62039
 C1129 C 0.24325 0.71159 0.63267
 C1130 C 0.24437 0.72769 0.64911
 C1131 C 0.22260 0.70056 0.62825
 C1132 C 0.22161 0.68461 0.61179
 C1133 C 0.24126 0.67930 0.59951
 C1134 C 0.26198 0.69031 0.60397
 H1135 H 0.25139 0.75845 0.67976
 H1136 H 0.32096 0.74053 0.63605
 H1137 H 0.32311 0.76814 0.66504
 H1138 H 0.29901 0.71342 0.61519
 H1139 H 0.22915 0.73165 0.65856
 H1140 H 0.20721 0.70429 0.63750
 H1141 H 0.20549 0.67626 0.60878
 H1142 H 0.27716 0.68664 0.59435
 C1143 C 0.80061 0.23128 0.14990
 C1144 C 0.79359 0.21744 0.13250
 C1145 C 0.77002 0.21222 0.12978
 C1146 C 0.75392 0.22093 0.14445
 C1147 C 0.76101 0.23491 0.16148
 C1148 C 0.78434 0.24025 0.16432
 C1149 C 0.76288 0.19859 0.11231
 C1150 C 0.77893 0.19035 0.09727
 C1151 C 0.80247 0.19560 0.09989
 C1152 C 0.80968 0.20901 0.11757
 C1153 C 0.81839 0.18746 0.08465
 C1154 C 0.81106 0.17435 0.06690
 C1155 C 0.78768 0.16902 0.06410
 C1156 C 0.77174 0.17704 0.07951
 H1157 H 0.81862 0.23553 0.15187
 H1158 H 0.73581 0.21709 0.14262
 H1159 H 0.74824 0.24155 0.17254
 H1160 H 0.74480 0.19461 0.11025
 H1161 H 0.82775 0.21305 0.11957
 H1162 H 0.83650 0.19138 0.08634
 H1163 H 0.82369 0.16865 0.05515
 H1164 H 0.75372 0.17279 0.07783
 C1165 C 0.46818 0.40791 0.49267
 C1166 C 0.46783 0.38873 0.50552
 C1167 C 0.44689 0.37740 0.50836
 C1168 C 0.42672 0.38536 0.49821
 C1169 C 0.42721 0.40448 0.48553
 C1170 C 0.44786 0.41600 0.48271
 C1171 C 0.44639 0.35838 0.52140
 C1172 C 0.46654 0.35058 0.53178
 C1173 C 0.48750 0.36184 0.52888
 C1174 C 0.48803 0.38082 0.51574
 C1175 C 0.50759 0.35397 0.53931
 C1176 C 0.50690 0.33524 0.55263
 C1177 C 0.48613 0.32397 0.55578
 C1178 C 0.46600 0.33174 0.54515
 H1179 H 0.48417 0.41677 0.49079
 H1180 H 0.41055 0.37684 0.50013
 H1181 H 0.41140 0.41020 0.47776
 H1182 H 0.43030 0.34974 0.52361
 H1183 H 0.50411 0.38948 0.51359
 H1184 H 0.52380 0.36241 0.53731
 H1185 H 0.52259 0.32976 0.56083
 H1186 H 0.44994 0.32305 0.54717
 C1187 C -0.04230 0.90049 -0.01454
 C1188 C -0.03824 0.88324 0.00047
 C1189 C -0.01544 0.87793 0.00683
 C1190 C 0.00292 0.88972 -0.00236
 C1191 C -0.00129 0.90686 -0.01739
 C1192 C -0.02391 0.91255 -0.02336
 C1193 C -0.01140 0.86109 0.02242
 C1194 C -0.02988 0.84950 0.03168
 C1195 C -0.05264 0.85458 0.02495
 C1196 C -0.05667 0.87139 0.00939
 C1197 C -0.07105 0.84290 0.03408
 C1198 C -0.06703 0.82655 0.05003
 C1199 C -0.04453 0.82159 0.05726
 C1200 C -0.02600 0.83307 0.04780
 H1201 H -0.05979 0.90460 -0.01936
 H1202 H 0.02050 0.88584 0.00226
 H1203 H 0.01311 0.91601 -0.02394
 H1204 H 0.00607 0.85715 0.02747
 H1205 H -0.07415 0.87541 0.00441
 H1206 H -0.08858 0.84647 0.02897
 H1207 H -0.08160 0.81770 0.05667
 H1208 H -0.00858 0.82961 0.05336
 C1209 C 0.00786 0.58616 0.01820
 C1210 C 0.00654 0.60414 0.03223
 C1211 C 0.02671 0.61590 0.03764
 C1212 C 0.04790 0.60918 0.02931
 C1213 C 0.04906 0.59128 0.01532
 C1214 C 0.02904 0.57979 0.00939
 C1215 C 0.02532 0.63435 0.05098
 C1216 C 0.00400 0.64121 0.05896
 C1217 C -0.01609 0.62920 0.05390
 C1218 C -0.01469 0.61072 0.04062
 C1219 C -0.03732 0.63602 0.06200
 C1220 C -0.03874 0.65476 0.07469
 C1221 C -0.01897 0.66711 0.07949
 C1222 C 0.00242 0.66006 0.07167
 H1223 H -0.00763 0.57721 0.01398
 H1224 H 0.06354 0.61798 0.03332
 H1225 H 0.06554 0.58678 0.00859
 H1226 H 0.04076 0.64350 0.05493
 H1227 H -0.03015 0.60165 0.03656
 H1228 H -0.05286 0.62693 0.05842
 H1229 H -0.05536 0.65954 0.08084
 H1230 H 0.01778 0.66952 0.07498
 C1231 C 0.50295 0.08502 0.48821
 C1232 C 0.50357 0.10303 0.50234
 C1233 C 0.52470 0.11364 0.50670
 C1234 C 0.54482 0.10609 0.49684
 C1235 C 0.54406 0.08819 0.48279
 C1236 C 0.52318 0.07745 0.47834
 C1237 C 0.52540 0.13161 0.52083
 C1238 C 0.50522 0.13916 0.53065
 C1239 C 0.48407 0.12858 0.52624
 C1240 C 0.48338 0.11057 0.51216
 C1241 C 0.46393 0.13623 0.53599
 C1242 C 0.46468 0.15419 0.54994
 C1243 C 0.48559 0.16485 0.55449
 C1244 C 0.50584 0.15717 0.54476
 H1245 H 0.48679 0.07674 0.48514
 H1246 H 0.56116 0.11406 0.49994
 H1247 H 0.55983 0.08289 0.47516
 H1248 H 0.54163 0.13972 0.52417
 H1249 H 0.46715 0.10247 0.50881
 H1250 H 0.44758 0.12830 0.53284
 H1251 H 0.44890 0.15960 0.55746
 H1252 H 0.52202 0.16540 0.54792
 C1253 C 0.00074 0.08599 0.48657
 C1254 C 0.00013 0.10540 0.47411
 C1255 C -0.02089 0.11647 0.47120
 C1256 C -0.04093 0.10791 0.48078
 C1257 C -0.04018 0.08854 0.49307
 C1258 C -0.01939 0.07738 0.49609
 C1259 C -0.02157 0.13586 0.45873
 C1260 C -0.00149 0.14430 0.44904
 C1261 C 0.01951 0.13319 0.45194
 C1262 C 0.02020 0.11385 0.46445
 C1263 C 0.03952 0.14161 0.44223
 C1264 C 0.03880 0.16086 0.42978
 C1265 C 0.01806 0.17214 0.42679
 C1266 C -0.00207 0.16368 0.43650
 H1267 H 0.01682 0.07739 0.48854
 H1268 H -0.05718 0.11618 0.47876
 H1269 H -0.05588 0.08238 0.50045
 H1270 H -0.03770 0.14434 0.45652
 H1271 H 0.03633 0.10536 0.46665
 H1272 H 0.05575 0.13327 0.44420
 H1273 H 0.05448 0.16679 0.42219
 H1274 H -0.01813 0.17231 0.43455
 C1275 C 0.49622 0.60816 1.01286
 C1276 C 0.49788 0.62499 0.99681
 C1277 C 0.47892 0.63879 0.99297
 C1278 C 0.45885 0.63582 1.00545
 C1279 C 0.45726 0.61895 1.02115
 C1280 C 0.47574 0.60480 1.02479
 C1281 C 0.48012 0.65512 0.97645
 C1282 C 0.49996 0.65776 0.96351
 C1283 C 0.51907 0.64422 0.96749
 C1284 C 0.51795 0.62794 0.98417
 C1285 C 0.53891 0.64709 0.95453
 C1286 C 0.53968 0.66305 0.93763
 C1287 C 0.52060 0.67633 0.93332
 C1288 C 0.50085 0.67366 0.94649
 H1289 H 0.51050 0.59722 1.01548
 H1290 H 0.44423 0.64632 1.00280
 H1291 H 0.44144 0.61682 1.03037
 H1292 H 0.46549 0.66556 0.97343
 H1293 H 0.53253 0.61742 0.98709
 H1294 H 0.55375 0.63691 0.95735
 H1295 H 0.55506 0.66478 0.92765
 H1296 H 0.48619 0.68408 0.94357
 C1297 C 0.54994 0.89838 1.00227
 C1298 C 0.54367 0.88263 0.98656
 C1299 C 0.52024 0.87772 0.98275
 C1300 C 0.50349 0.88853 0.99494
 C1301 C 0.50983 0.90419 1.01063
 C1302 C 0.53317 0.90962 1.01448
 C1303 C 0.51397 0.86209 0.96685
 C1304 C 0.53091 0.85121 0.95484
 C1305 C 0.55437 0.85602 0.95887
 C1306 C 0.56059 0.87169 0.97467
 C1307 C 0.57129 0.84506 0.94705
 C1308 C 0.56507 0.82943 0.93135
 C1309 C 0.54181 0.82453 0.92703
 C1310 C 0.52479 0.83555 0.93890
 H1311 H 0.56806 0.90117 1.00545
 H1312 H 0.48542 0.88502 0.99218
 H1313 H 0.49616 0.91263 1.01891
 H1314 H 0.49596 0.85836 0.96386
 H1315 H 0.57861 0.87539 0.97767
 H1316 H 0.58935 0.84847 0.95004
 H1317 H 0.57857 0.82091 0.92285
 H1318 H 0.50679 0.83211 0.93559
 C1319 C 0.02843 0.41731 0.49386
 C1320 C 0.02588 0.39965 0.47938
 C1321 C 0.00388 0.39436 0.47055
 C1322 C -0.01511 0.40689 0.47611
 C1323 C -0.01247 0.42424 0.49066
 C1324 C 0.00921 0.42950 0.49984
 C1325 C 0.00110 0.37650 0.45653
 C1326 C 0.02000 0.36369 0.45131
 C1327 C 0.04205 0.36900 0.45995
 C1328 C 0.04487 0.38698 0.47390
 C1329 C 0.06089 0.35614 0.45456
 C1330 C 0.05789 0.33815 0.44083
 C1331 C 0.03601 0.33264 0.43231
 C1332 C 0.01714 0.34558 0.43761
 H1333 H 0.04518 0.42117 0.50100
 H1334 H -0.03206 0.40313 0.46941
 H1335 H -0.02746 0.43359 0.49482
 H1336 H -0.01581 0.37244 0.44986
 H1337 H 0.06177 0.39099 0.48063
 H1338 H 0.07792 0.35993 0.46103
 H1339 H 0.07267 0.32835 0.43712
 H1340 H 0.00024 0.34169 0.43083
 C1341 C 0.40402 0.49253 0.48389
 C1342 C 0.38607 0.50730 0.48629
 C1343 C 0.37494 0.51591 0.46682
 C1344 C 0.38209 0.50980 0.44531
 C1345 C 0.40010 0.49527 0.44308
 C1346 C 0.41116 0.48646 0.46229
 C1347 C 0.35687 0.53051 0.46912
 C1348 C 0.34990 0.53678 0.49064
 C1349 C 0.36116 0.52839 0.51012
 C1350 C 0.37914 0.51364 0.50784
 C1351 C 0.35421 0.53489 0.53157
 C1352 C 0.33621 0.54951 0.53372
 C1353 C 0.32477 0.55785 0.51446
 C1354 C 0.33177 0.55133 0.49294
 H1355 H 0.41266 0.48597 0.49878
 H1356 H 0.37376 0.51625 0.43022
 H1357 H 0.40521 0.49065 0.42629
 H1358 H 0.34828 0.53702 0.45416
 H1359 H 0.38772 0.50712 0.52279
 H1360 H 0.36271 0.52870 0.54669
 H1361 H 0.33140 0.55444 0.55048
 H1362 H 0.32286 0.55728 0.47794
 C1363 C 0.91874 -0.00997 -0.05622
 C1364 C 0.90101 0.00378 -0.04958
 C1365 C 0.89773 0.00777 -0.02639
 C1366 C 0.91205 -0.00212 -0.01024
 C1367 C 0.92917 -0.01623 -0.01687
 C1368 C 0.93279 -0.02058 -0.03994
 C1369 C 0.87998 0.02132 -0.01963
 C1370 C 0.86498 0.03049 -0.03574
 C1371 C 0.86798 0.02630 -0.05893
 C1372 C 0.88612 0.01316 -0.06574
 C1373 C 0.85262 0.03515 -0.07490
 C1374 C 0.83440 0.04796 -0.06797
 C1375 C 0.83131 0.05239 -0.04493
 C1376 C 0.84686 0.04363 -0.02894
 H1377 H 0.92054 -0.01334 -0.07403
 H1378 H 0.90988 0.00090 0.00760
 H1379 H 0.94005 -0.02316 -0.00374
 H1380 H 0.87758 0.02440 -0.00181
 H1381 H 0.88844 0.00999 -0.08355
 H1382 H 0.85454 0.03200 -0.09275
 H1383 H 0.82254 0.05415 -0.08068
 H1384 H 0.84502 0.04715 -0.01116
 C1385 C 0.59007 -0.01183 0.04152
 C1386 C 0.61034 -0.00039 0.03664
 C1387 C 0.62981 -0.01155 0.02897
 C1388 C 0.62884 -0.03397 0.02677
 C1389 C 0.60863 -0.04521 0.03162
 C1390 C 0.58896 -0.03428 0.03875
 C1391 C 0.64983 -0.00013 0.02333
 C1392 C 0.65064 0.02235 0.02520
 C1393 C 0.63134 0.03349 0.03327
 C1394 C 0.61131 0.02206 0.03894
 C1395 C 0.63231 0.05595 0.03532
 C1396 C 0.65210 0.06730 0.02915
 C1397 C 0.67123 0.05643 0.02073
 C1398 C 0.67042 0.03390 0.01893
 H1399 H 0.57497 -0.00319 0.04681
 H1400 H 0.64364 -0.04280 0.02108
 H1401 H 0.60835 -0.06254 0.02973
 H1402 H 0.66467 -0.00870 0.01725
 H1403 H 0.59643 0.03064 0.04490
 H1404 H 0.61770 0.06475 0.04149
 H1405 H 0.65227 0.08468 0.03050
 H1406 H 0.68520 0.02536 0.01271
 C1407 C 0.06946 0.49174 0.51959
 C1408 C 0.08693 0.50749 0.51946
 C1409 C 0.08221 0.52850 0.52695
 C1410 C 0.06018 0.53348 0.53431
 C1411 C 0.04307 0.51769 0.53488
 C1412 C 0.04737 0.49644 0.52784
 C1413 C 0.09964 0.54417 0.52732
 C1414 C 0.12196 0.53900 0.52073
 C1415 C 0.12679 0.51799 0.51327
 C1416 C 0.10922 0.50240 0.51252
 C1417 C 0.14921 0.51288 0.50693
 C1418 C 0.16669 0.52837 0.50812
 C1419 C 0.16210 0.54932 0.51556
 C1420 C 0.13957 0.55451 0.52172
 H1421 H 0.07365 0.47554 0.51454
 H1422 H 0.05620 0.54958 0.53985
 H1423 H 0.02620 0.52253 0.54027
 H1424 H 0.09594 0.56027 0.53310
 H1425 H 0.11297 0.48627 0.50685
 H1426 H 0.15328 0.49684 0.50125
 H1427 H 0.18393 0.52382 0.50354
 H1428 H 0.13567 0.57067 0.52716
 C1429 C 0.09031 0.51997 -0.01285
 C1430 C 0.10796 0.50472 -0.01098
 C1431 C 0.10328 0.48288 -0.01581
 C1432 C 0.08099 0.47668 -0.02235
 C1433 C 0.06349 0.49193 -0.02403
 C1434 C 0.06792 0.51372 -0.01932
 C1435 C 0.12089 0.46759 -0.01395
 C1436 C 0.14310 0.47383 -0.00715
 C1437 C 0.14776 0.49567 -0.00221
 C1438 C 0.13020 0.51098 -0.00427
 C1439 C 0.16989 0.50182 0.00484
 C1440 C 0.18726 0.48648 0.00713
 C1441 C 0.18287 0.46474 0.00224
 C1442 C 0.16072 0.45855 -0.00502
 H1443 H 0.09408 0.53675 -0.00949
 H1444 H 0.07706 0.46000 -0.02603
 H1445 H 0.04635 0.48661 -0.02874
 H1446 H 0.11727 0.45084 -0.01768
 H1447 H 0.13380 0.52773 -0.00050
 H1448 H 0.17377 0.51848 0.00867
 H1449 H 0.20424 0.49166 0.01252
 H1450 H 0.15711 0.44178 -0.00857
 C1451 C 0.58003 1.01459 0.46049
 C1452 C 0.59737 0.99904 0.46240
 C1453 C 0.59264 0.97750 0.45648
 C1454 C 0.57071 0.97194 0.44846
 C1455 C 0.55356 0.98750 0.44639
 C1456 C 0.55778 1.00913 0.45249
 C1457 C 0.60987 0.96187 0.45869
 C1458 C 0.63187 0.96757 0.46662
 C1459 C 0.63669 0.98922 0.47222
 C1460 C 0.61943 1.00480 0.47010
 C1461 C 0.65870 0.99494 0.47998
 C1462 C 0.67573 0.97934 0.48245
 C1463 C 0.67111 0.95767 0.47730
 C1464 C 0.64911 0.95195 0.46919
 H1465 H 0.58436 1.03111 0.46444
 H1466 H 0.56673 0.95546 0.44393
 H1467 H 0.53669 0.98216 0.44091
 H1468 H 0.60616 0.94529 0.45427
 H1469 H 0.62315 1.02137 0.47453
 H1470 H 0.66273 1.01148 0.48419
 H1471 H 0.69264 0.98428 0.48830
 H1472 H 0.64524 0.93529 0.46534
 C1473 C 0.92388 1.01180 0.50832
 C1474 C 0.90610 0.99648 0.50667
 C1475 C 0.91068 0.97456 0.51142
 C1476 C 0.93297 0.96828 0.51746
 C1477 C 0.95055 0.98356 0.51920
 C1478 C 0.94639 1.00569 0.51496
 C1479 C 0.89288 0.95927 0.51023
 C1480 C 0.87048 0.96564 0.50442
 C1481 C 0.86589 0.98757 0.49949
 C1482 C 0.88372 1.00284 0.50066
 C1483 C 0.84352 0.99386 0.49352
 C1484 C 0.82583 0.97860 0.49246
 C1485 C 0.83015 0.95679 0.49745
 C1486 C 0.85257 0.95043 0.50346
 H1487 H 0.91964 1.02859 0.50558
 H1488 H 0.93686 0.95149 0.52086
 H1489 H 0.96759 0.97769 0.52325
 H1490 H 0.89644 0.94245 0.51397
 H1491 H 0.88014 1.01966 0.49698
 H1492 H 0.83968 1.01059 0.48972
 H1493 H 0.80864 0.98391 0.48801
 H1494 H 0.85611 0.93360 0.50708
 C1495 C 0.42814 0.52026 0.05289
 C1496 C 0.40780 0.50827 0.04998
 C1497 C 0.38682 0.51907 0.04567
 C1498 C 0.38645 0.54161 0.04481
 C1499 C 0.40673 0.55340 0.04770
 C1500 C 0.42781 0.54289 0.05146
 C1501 C 0.36659 0.50720 0.04201
 C1502 C 0.36703 0.48463 0.04254
 C1503 C 0.38789 0.47379 0.04725
 C1504 C 0.40815 0.48568 0.05094
 C1505 C 0.38814 0.45121 0.04798
 C1506 C 0.36801 0.43948 0.04376
 C1507 C 0.34730 0.45011 0.03862
 C1508 C 0.34693 0.47274 0.03821
 H1509 H 0.44431 0.51197 0.05562
 H1510 H 0.37050 0.55015 0.04171
 H1511 H 0.40593 0.57081 0.04696
 H1512 H 0.35057 0.51552 0.03851
 H1513 H 0.42419 0.47736 0.05434
 H1514 H 0.40395 0.44262 0.05160
 H1515 H 0.36871 0.42205 0.04403
 H1516 H 0.33095 0.48107 0.03458
 C1517 C 0.49143 0.44918 0.41006
 C1518 C 0.50810 0.45397 0.39376
 C1519 C 0.51759 0.47497 0.39238
 C1520 C 0.51039 0.49074 0.40741
 C1521 C 0.49373 0.48588 0.42349
 C1522 C 0.48399 0.46514 0.42489
 C1523 C 0.53399 0.47991 0.37591
 C1524 C 0.54097 0.46416 0.36072
 C1525 C 0.53158 0.44313 0.36217
 C1526 C 0.51522 0.43817 0.37867
 C1527 C 0.53868 0.42742 0.34701
 C1528 C 0.55491 0.43246 0.33056
 C1529 C 0.56431 0.45332 0.32889
 C1530 C 0.55722 0.46911 0.34408
 H1531 H 0.48385 0.43321 0.41083
 H1532 H 0.51755 0.50688 0.40666
 H1533 H 0.48848 0.49835 0.43492
 H1534 H 0.54120 0.49604 0.37484
 H1535 H 0.50796 0.42206 0.37971
 H1536 H 0.53164 0.41124 0.34784
 H1537 H 0.55991 0.42008 0.31890
 H1538 H 0.56457 0.48518 0.34313
 C1539 C 0.00107 -0.02491 0.90019
 C1540 C 0.01505 -0.02239 0.88116
 C1541 C 0.01958 -0.04033 0.86746
 C1542 C 0.00981 -0.06040 0.87285
 C1543 C -0.00389 -0.06282 0.89193
 C1544 C -0.00822 -0.04519 0.90589
 C1545 C 0.03411 -0.03803 0.84883
 C1546 C 0.04440 -0.01807 0.84386
 C1547 C 0.03969 -0.00007 0.85742
 C1548 C 0.02497 -0.00231 0.87591
 C1549 C 0.05005 0.01983 0.85242
 C1550 C 0.06522 0.02185 0.83440
 C1551 C 0.07030 0.00402 0.82097
 C1552 C 0.05960 -0.01589 0.82572
 H1553 H -0.00195 -0.01127 0.91100
 H1554 H 0.01302 -0.07431 0.86250
 H1555 H -0.01107 -0.07854 0.89586
 H1556 H 0.03769 -0.05185 0.83843
 H1557 H 0.02152 0.01147 0.88639
 H1558 H 0.04667 0.03379 0.86264
 H1559 H 0.07341 0.03729 0.83130
 H1560 H 0.06311 -0.02969 0.81530
 C1561 C 0.02393 0.04437 0.57000
 C1562 C 0.03941 0.03952 0.58774
 C1563 C 0.04945 0.01885 0.58922
 C1564 C 0.04423 0.00355 0.57270
 C1565 C 0.02863 0.00842 0.55528
 C1566 C 0.01809 0.02872 0.55393
 C1567 C 0.06416 0.01363 0.60742
 C1568 C 0.06877 0.02874 0.62432
 C1569 C 0.05905 0.04953 0.62265
 C1570 C 0.04450 0.05482 0.60433
 C1571 C 0.06377 0.06461 0.63954
 C1572 C 0.07771 0.05906 0.65809
 C1573 C 0.08716 0.03833 0.66012
 C1574 C 0.08273 0.02328 0.64304
 H1575 H 0.01570 0.05999 0.56924
 H1576 H 0.05186 -0.01233 0.57350
 H1577 H 0.02456 -0.00380 0.54293
 H1578 H 0.07166 -0.00230 0.60865
 H1579 H 0.03685 0.07070 0.60320
 H1580 H 0.05647 0.08061 0.63854
 H1581 H 0.08069 0.07086 0.67113
 H1582 H 0.09018 0.00734 0.64432
 C1583 C 0.51050 0.53619 0.09340
 C1584 C 0.52595 0.53121 0.11111
 C1585 C 0.53501 0.54791 0.12466
 C1586 C 0.52882 0.56931 0.11997
 C1587 C 0.51351 0.57413 0.10226
 C1588 C 0.50402 0.55765 0.08897
 C1589 C 0.54993 0.54295 0.14278
 C1590 C 0.55602 0.52150 0.14748
 C1591 C 0.54731 0.50484 0.13369
 C1592 C 0.53231 0.50979 0.11561
 C1593 C 0.55364 0.48347 0.13833
 C1594 C 0.56826 0.47859 0.15659
 C1595 C 0.57677 0.49496 0.17070
 C1596 C 0.57055 0.51645 0.16590
 H1597 H 0.50347 0.52339 0.08306
 H1598 H 0.53563 0.58231 0.13016
 H1599 H 0.50861 0.59074 0.09932
 H1600 H 0.55670 0.55576 0.15328
 H1601 H 0.52547 0.49697 0.10516
 H1602 H 0.54726 0.47051 0.12784
 H1603 H 0.57303 0.46196 0.15957
 H1604 H 0.57662 0.52926 0.17676
 C1605 C 0.49365 -0.04851 0.08159
 C1606 C 0.47973 -0.04490 0.10034
 C1607 C 0.49002 -0.04102 0.12170
 C1608 C 0.51403 -0.04085 0.12391
 C1609 C 0.52775 -0.04464 0.10520
 C1610 C 0.51775 -0.04856 0.08386
 C1611 C 0.47616 -0.03752 0.14051
 C1612 C 0.45214 -0.03797 0.13827
 C1613 C 0.44185 -0.04191 0.11692
 C1614 C 0.45571 -0.04525 0.09808
 C1615 C 0.41783 -0.04253 0.11480
 C1616 C 0.40411 -0.03934 0.13365
 C1617 C 0.41412 -0.03537 0.15495
 C1618 C 0.43821 -0.03468 0.15710
 H1619 H 0.48570 -0.05121 0.06519
 H1620 H 0.52220 -0.03799 0.14017
 H1621 H 0.54623 -0.04489 0.10753
 H1622 H 0.48407 -0.03455 0.15689
 H1623 H 0.44780 -0.04826 0.08171
 H1624 H 0.40966 -0.04549 0.09857
 H1625 H 0.38560 -0.03970 0.13151
 H1626 H 0.44613 -0.03191 0.17350
 C1627 C 0.98809 0.47139 0.59014
 C1628 C 0.97272 0.47268 0.60811
 C1629 C 0.94907 0.46858 0.60430
 C1630 C 0.94126 0.46315 0.58258
 C1631 C 0.95668 0.46199 0.56474
 C1632 C 0.98020 0.46622 0.56831
 C1633 C 0.93364 0.47011 0.62221
 C1634 C 0.94155 0.47585 0.64383
 C1635 C 0.96522 0.47990 0.64761
 C1636 C 0.98066 0.47818 0.62976
 C1637 C 0.97305 0.48583 0.66916
 C1638 C 0.95755 0.48798 0.68678
 C1639 C 0.93397 0.48411 0.68321
 C1640 C 0.92611 0.47788 0.66168
 H1641 H 1.00625 0.47429 0.59318
 H1642 H 0.92319 0.45997 0.57934
 H1643 H 0.95017 0.45813 0.54803
 H1644 H 0.91548 0.46703 0.61929
 H1645 H 0.99881 0.48134 0.63266
 H1646 H 0.99113 0.48894 0.67236
 H1647 H 0.96401 0.49257 0.70329
 H1648 H 0.90792 0.47513 0.65870
 C1649 C 0.98963 0.52366 0.93240
 C1650 C 0.97388 0.52302 0.91422
 C1651 C 0.96655 0.54247 0.90378
 C1652 C 0.97518 0.56216 0.91157
 C1653 C 0.99099 0.56264 0.92950
 C1654 C 0.99835 0.54345 0.94016
 C1655 C 0.95091 0.54193 0.88557
 C1656 C 0.94277 0.52218 0.87738
 C1657 C 0.95013 0.50272 0.88774
 C1658 C 0.96549 0.50326 0.90621
 C1659 C 0.94223 0.48303 0.87921
 C1660 C 0.92754 0.48259 0.86034
 C1661 C 0.92021 0.50183 0.84977
 C1662 C 0.92768 0.52161 0.85871
 H1663 H 0.99495 0.50875 0.94060
 H1664 H 0.96987 0.57720 0.90367
 H1665 H 0.99773 0.57808 0.93480
 H1666 H 0.94534 0.55687 0.87757
 H1667 H 0.97114 0.48832 0.91415
 H1668 H 0.94775 0.46795 0.88688
 H1669 H 0.92240 0.46710 0.85370
 H1670 H 0.92188 0.53662 0.85109
 C1671 C 0.47852 0.01558 0.40822
 C1672 C 0.46278 0.01335 0.39022
 C1673 C 0.45412 0.03190 0.37904
 C1674 C 0.46144 0.05234 0.38597
 C1675 C 0.47762 0.05440 0.40348
 C1676 C 0.48646 0.03608 0.41475
 C1677 C 0.43868 0.02972 0.36080
 C1678 C 0.43235 0.00920 0.35315
 C1679 C 0.44117 -0.00935 0.36421
 C1680 C 0.45604 -0.00717 0.38289
 C1681 C 0.43531 -0.02979 0.35611
 C1682 C 0.42120 -0.03186 0.33696
 C1683 C 0.41229 -0.01354 0.32574
 C1684 C 0.41772 0.00698 0.33427
 H1685 H 0.48476 0.00128 0.41695
 H1686 H 0.45509 0.06673 0.37749
 H1687 H 0.48362 0.07039 0.40775
 H1688 H 0.43205 0.04398 0.35221
 H1689 H 0.46282 -0.02143 0.39136
 H1690 H 0.44203 -0.04419 0.36430
 H1691 H 0.41771 -0.04786 0.33068
 H1692 H 0.41067 0.02129 0.32621
   
