data_POSCAR
  _audit_creation_date              2014-09-24
  _audit_creation_method            'ToBaCCo'
  _symmetry_space_group_name_H-M    'P1'
  _symmetry_Int_Tables_number       1
  _symmetry_cell_setting            triclinic
  loop_
  _symmetry_equiv_pos_as_xyz
 x,y,z
_cell_length_a 68.5110
_cell_length_b 70.0774
_cell_length_c 70.8313
_cell_angle_alpha 87.261800
_cell_angle_beta 90.559200
_cell_angle_gamma 89.791000
loop_
  _atom_site_label
  _atom_site_type_symbol
  _atom_site_fract_x
  _atom_site_fract_y
  _atom_site_fract_z
C1 C 0.72673 0.65818 0.97536
 H2 H 0.74033 0.65580 0.96817
 C3 C 0.71183 0.66888 0.96624
 H4 H 0.71406 0.67489 0.95205
 C5 C 0.70675 0.65227 1.00211
 H6 H 0.70437 0.64514 1.01572
 C7 C 0.69165 0.66312 0.99369
 H8 H 0.67792 0.66430 1.00100
 N9 N 0.72383 0.64987 0.99286
 C10 C 0.77988 0.63313 1.01815
 H11 H 0.77712 0.61798 1.02008
 C12 C 0.79719 0.64070 1.02489
 H13 H 0.80786 0.63114 1.03168
 C14 C 0.76911 0.66382 1.00691
 H15 H 0.75790 0.67275 1.00019
 C16 C 0.78625 0.67208 1.01367
 H17 H 0.78807 0.68741 1.01214
 Zn18 Zn 0.74284 0.63236 1.00288
 N19 N 0.76628 0.64466 1.00935
 C20 C 0.76593 0.61234 0.97744
 N21 N 0.74757 0.61446 0.98421
 C22 C 0.73212 0.60534 0.97650
 C23 C 0.73482 0.59376 0.96117
 C24 C 0.76931 0.60071 0.96239
 C25 C 0.73141 0.63226 1.04004
 C26 C 0.72445 0.62532 1.05741
 C27 C 0.72375 0.59368 1.04535
 C28 C 0.73038 0.60142 1.02798
 N29 N 0.73373 0.62046 1.02561
 H30 H 0.77795 0.62013 0.98325
 H31 H 0.71762 0.60755 0.98191
 H32 H 0.72237 0.58686 0.95494
 H33 H 0.78395 0.59960 0.95692
 H34 H 0.73488 0.64726 1.03794
 H35 H 0.72353 0.63540 1.06845
 H36 H 0.72043 0.57860 1.04618
 H37 H 0.73267 0.59222 1.01637
 C38 C 0.80046 0.66046 1.02303
 C39 C 0.69395 0.67121 0.97537
 C40 C 0.72012 0.60568 1.06052
 C41 C 0.75363 0.59144 0.95390
 C42 C 0.74296 0.35509 0.52839
 H43 H 0.75724 0.35287 0.53478
 C44 C 0.72707 0.34435 0.53507
 H45 H 0.72920 0.33383 0.54661
 C46 C 0.72259 0.37213 0.50617
 H47 H 0.72073 0.38325 0.49522
 C48 C 0.70633 0.36188 0.51251
 H49 H 0.69221 0.36495 0.50604
 N50 N 0.74049 0.36856 0.51407
 C51 C 0.79805 0.37935 0.49009
 H52 H 0.79734 0.39479 0.48932
 C53 C 0.81449 0.37008 0.48355
 H54 H 0.82630 0.37853 0.47755
 C55 C 0.78315 0.34971 0.49840
 H56 H 0.77082 0.34184 0.50405
 C57 C 0.79939 0.33980 0.49200
 H58 H 0.79952 0.32434 0.49308
 Zn59 Zn 0.76191 0.38394 0.50622
 N60 N 0.78294 0.36915 0.49762
 C61 C 0.78868 0.39585 0.53393
 N62 N 0.77012 0.39787 0.52713
 C63 C 0.75694 0.40917 0.53559
 C64 C 0.76241 0.41933 0.55131
 C65 C 0.79477 0.40577 0.54952
 C66 C 0.74887 0.39198 0.46956
 C67 C 0.74261 0.40290 0.45368
 C68 C 0.74806 0.43141 0.47084
 C69 C 0.75414 0.41989 0.48649
 N70 N 0.75416 0.40054 0.48563
 H71 H 0.79880 0.38637 0.52744
 H72 H 0.74218 0.41030 0.53007
 H73 H 0.75183 0.42847 0.55772
 H74 H 0.80957 0.40384 0.55479
 H75 H 0.74920 0.37656 0.46924
 H76 H 0.73785 0.39567 0.44128
 H77 H 0.74816 0.44679 0.47173
 H78 H 0.75882 0.42643 0.49927
 C79 C 0.81544 0.35003 0.48463
 C80 C 0.70844 0.34784 0.52718
 C81 C 0.74207 0.42291 0.45416
 C82 C 0.78159 0.41776 0.55839
 C83 C 0.24412 -0.14600 0.03031
 H84 H 0.25795 -0.14894 0.03737
 C85 C 0.22727 -0.15549 0.03651
 H86 H 0.22820 -0.16572 0.04843
 C87 C 0.22598 -0.12867 0.00649
 H88 H 0.22545 -0.11802 -0.00505
 C89 C 0.20880 -0.13768 0.01231
 H90 H 0.19525 -0.13413 0.00494
 N91 N 0.24321 -0.13301 0.01543
 C92 C 0.30324 -0.12876 -0.00415
 H93 H 0.30486 -0.11342 -0.00385
 C94 C 0.31862 -0.13991 -0.01019
 H95 H 0.33211 -0.13309 -0.01458
 C96 C 0.28332 -0.15616 0.00050
 H97 H 0.26940 -0.16233 0.00434
 C98 C 0.29826 -0.16784 -0.00586
 H99 H 0.29586 -0.18304 -0.00668
 Zn100 Zn 0.26610 -0.11986 0.00776
 N101 N 0.28610 -0.13698 0.00125
 C102 C 0.29162 -0.11044 0.03708
 N103 N 0.27475 -0.10512 0.02799
 C104 C 0.26385 -0.09028 0.03384
 C105 C 0.27033 -0.07961 0.04890
 C106 C 0.29856 -0.10028 0.05214
 C107 C 0.25713 -0.11555 -0.02976
 C108 C 0.25307 -0.10687 -0.04743
 C109 C 0.25627 -0.07612 -0.03376
 C110 C 0.26062 -0.08553 -0.01631
 N111 N 0.26070 -0.10492 -0.01463
 H112 H 0.29962 -0.12282 0.03292
 H113 H 0.25017 -0.08668 0.02678
 H114 H 0.26171 -0.06758 0.05311
 H115 H 0.31194 -0.10495 0.05924
 H116 H 0.25719 -0.13097 -0.02800
 H117 H 0.24930 -0.11629 -0.05853
 H118 H 0.25700 -0.06071 -0.03443
 H119 H 0.26402 -0.07730 -0.00421
 C120 C 0.31616 -0.15967 -0.01124
 C121 C 0.20930 -0.15129 0.02749
 C122 C 0.25242 -0.08670 -0.04998
 C123 C 0.28804 -0.08448 0.05812
 C124 C 0.23127 0.15497 0.47624
 H125 H 0.24482 0.15464 0.46854
 C126 C 0.21502 0.16465 0.46827
 H127 H 0.21621 0.17177 0.45443
 C128 C 0.21277 0.14470 0.50288
 H129 H 0.21155 0.13640 0.51602
 C130 C 0.19633 0.15427 0.49558
 H131 H 0.18292 0.15359 0.50354
 N132 N 0.22975 0.14492 0.49308
 C133 C 0.28696 0.12969 0.51694
 H134 H 0.28495 0.11437 0.51787
 C135 C 0.30363 0.13760 0.52467
 H136 H 0.31459 0.12818 0.53116
 C137 C 0.27476 0.16042 0.50755
 H138 H 0.26320 0.16919 0.50122
 C139 C 0.29127 0.16901 0.51527
 H140 H 0.29230 0.18444 0.51484
 Zn141 Zn 0.25015 0.12806 0.50145
 N142 N 0.27292 0.14107 0.50865
 C143 C 0.27402 0.10990 0.47508
 N144 N 0.25550 0.11181 0.48151
 C145 C 0.24016 0.10343 0.47285
 C146 C 0.24312 0.09289 0.45684
 C147 C 0.27767 0.09920 0.45939
 C148 C 0.24012 0.12441 0.53898
 C149 C 0.23284 0.11603 0.55564
 C150 C 0.23073 0.08595 0.54039
 C151 C 0.23789 0.09502 0.52384
 N152 N 0.24195 0.11403 0.52336
 H153 H 0.28598 0.11705 0.48176
 H154 H 0.22554 0.10541 0.47808
 H155 H 0.23076 0.08662 0.44984
 H156 H 0.29245 0.09813 0.45423
 H157 H 0.24374 0.13944 0.53824
 H158 H 0.23096 0.12464 0.56780
 H159 H 0.22694 0.07096 0.54053
 H160 H 0.23976 0.08700 0.51131
 C161 C 0.30581 0.15752 0.52427
 C162 C 0.19709 0.16389 0.47778
 C163 C 0.22771 0.09667 0.55637
 C164 C 0.26208 0.09078 0.44993
 C165 C 0.16073 0.47678 0.22648
 H166 H 0.15966 0.47100 0.24087
 C167 C 0.16989 0.46617 0.21287
 H168 H 0.17619 0.45238 0.21697
 C169 C 0.15290 0.50132 0.20345
 H170 H 0.14564 0.51466 0.19962
 C171 C 0.16200 0.49126 0.18943
 H172 H 0.16167 0.49707 0.17499
 N173 N 0.15227 0.49391 0.22154
 C174 C 0.14222 0.52620 0.27150
 H175 H 0.12747 0.53078 0.26803
 C176 C 0.15100 0.53174 0.28816
 H177 H 0.14303 0.54093 0.29726
 C178 C 0.17030 0.50837 0.26389
 H179 H 0.17762 0.49905 0.25449
 C180 C 0.17968 0.51357 0.28052
 H181 H 0.19416 0.50809 0.28384
 Zn182 Zn 0.13666 0.50560 0.23967
 N183 N 0.15172 0.51437 0.25999
 C184 C 0.11924 0.48227 0.26812
 N185 N 0.11921 0.48669 0.24921
 C186 C 0.10902 0.47604 0.23695
 C187 C 0.09910 0.45965 0.24353
 C188 C 0.10951 0.46613 0.27526
 C189 C 0.13453 0.54209 0.22292
 C190 C 0.12601 0.55851 0.21455
 C191 C 0.09436 0.54373 0.21822
 C192 C 0.10355 0.52748 0.22645
 N193 N 0.12331 0.52692 0.22842
 H194 H 0.12756 0.49067 0.27767
 H195 H 0.10951 0.47970 0.22194
 H196 H 0.09190 0.45075 0.23352
 H197 H 0.11017 0.46258 0.29031
 H198 H 0.15019 0.54135 0.22499
 H199 H 0.13522 0.57045 0.21026
 H200 H 0.07865 0.54392 0.21645
 H201 H 0.09491 0.51533 0.23121
 C202 C 0.16978 0.52502 0.29311
 C203 C 0.17029 0.47327 0.19399
 C204 C 0.10569 0.55944 0.21199
 C205 C 0.09985 0.45422 0.26287
 C206 C -0.13570 0.02641 0.22098
 H207 H -0.12726 0.03730 0.22752
 C208 C -0.14623 0.03117 0.20449
 H209 H -0.14521 0.04573 0.19880
 C210 C -0.14520 -0.00590 0.21972
 H211 H -0.14453 -0.02039 0.22570
 C212 C -0.15579 -0.00183 0.20301
 H213 H -0.16370 -0.01338 0.19688
 N214 N -0.13549 0.00817 0.22839
 C215 C -0.12511 -0.00816 0.28777
 H216 H -0.10988 -0.00418 0.28847
 C217 C -0.13462 -0.01470 0.30410
 H218 H -0.12663 -0.01538 0.31738
 C219 C -0.15396 -0.01152 0.26954
 H220 H -0.16141 -0.01021 0.25602
 C221 C -0.16404 -0.01835 0.28556
 H222 H -0.17915 -0.02253 0.28410
 Zn223 Zn -0.11969 0.00171 0.24994
 N224 N -0.13475 -0.00687 0.27090
 C225 C -0.11639 0.03812 0.26376
 N226 N -0.10572 0.02335 0.25748
 C227 C -0.08586 0.02373 0.25764
 C228 C -0.07599 0.03961 0.26412
 C229 C -0.10714 0.05435 0.27008
 C230 C -0.10227 -0.03495 0.25342
 C231 C -0.09117 -0.05022 0.24744
 C232 C -0.08039 -0.03024 0.22084
 C233 C -0.09166 -0.01531 0.22738
 N234 N -0.10247 -0.01798 0.24328
 H235 H -0.13215 0.03724 0.26387
 H236 H -0.07767 0.01166 0.25297
 H237 H -0.06018 0.03977 0.26419
 H238 H -0.11585 0.06596 0.27509
 H239 H -0.11112 -0.03690 0.26589
 H240 H -0.09134 -0.06366 0.25563
 H241 H -0.07246 -0.02807 0.20777
 H242 H -0.09231 -0.00174 0.21945
 C243 C -0.15430 -0.02019 0.30314
 C244 C -0.15656 0.01702 0.19501
 C245 C -0.08033 -0.04810 0.23075
 C246 C -0.08669 0.05519 0.27035
 C247 C 0.33949 0.50552 0.72676
 H248 H 0.33715 0.51308 0.73951
 C249 C 0.33039 0.51188 0.70983
 H250 H 0.32108 0.52440 0.70969
 C251 C 0.35559 0.48083 0.71122
 H252 H 0.36586 0.46910 0.71160
 C253 C 0.34677 0.48664 0.69407
 H254 H 0.35002 0.47893 0.68157
 N255 N 0.35197 0.49037 0.72710
 C256 C 0.36019 0.47062 0.78595
 H257 H 0.37595 0.47152 0.78654
 C258 C 0.35000 0.46357 0.80167
 H259 H 0.35808 0.45946 0.81444
 C260 C 0.33074 0.47521 0.76848
 H261 H 0.32338 0.47950 0.75538
 C262 C 0.31991 0.46802 0.78390
 H263 H 0.30422 0.46680 0.78249
 Zn264 Zn 0.36661 0.48435 0.74943
 N265 N 0.35052 0.47637 0.76983
 C266 C 0.37757 0.51474 0.77212
 N267 N 0.38060 0.50658 0.75536
 C268 C 0.39249 0.51487 0.74208
 C269 C 0.40190 0.53207 0.74546
 C270 C 0.38674 0.53182 0.77611
 C271 C 0.37466 0.44672 0.74271
 C272 C 0.38564 0.43047 0.73950
 C273 C 0.41500 0.44913 0.74259
 C274 C 0.40338 0.46512 0.74571
 N275 N 0.38359 0.46366 0.74544
 H276 H 0.36773 0.50827 0.78234
 H277 H 0.39434 0.50828 0.72871
 H278 H 0.41097 0.53867 0.73457
 H279 H 0.38423 0.53793 0.78963
 H280 H 0.35889 0.44596 0.74275
 H281 H 0.37813 0.41731 0.73675
 H282 H 0.43073 0.45049 0.74285
 H283 H 0.41018 0.47865 0.74832
 C284 C 0.32959 0.46194 0.80075
 C285 C 0.33430 0.50260 0.69311
 C286 C 0.40611 0.43151 0.73934
 C287 C 0.39891 0.54087 0.76261
 C288 C 0.66240 0.97486 0.72445
 H289 H 0.67110 0.97723 0.73690
 C290 C 0.67101 0.96649 0.70895
 H291 H 0.68620 0.96219 0.70976
 C292 C 0.63215 0.97745 0.70806
 H293 H 0.61715 0.98222 0.70752
 C294 C 0.64008 0.96919 0.69239
 H295 H 0.63097 0.96752 0.68000
 N296 N 0.64313 0.97973 0.72387
 C297 C 0.64292 1.01620 0.76981
 H298 H 0.63259 1.02562 0.76245
 C299 C 0.65223 1.02234 0.78596
 H300 H 0.64942 1.03681 0.78990
 C301 C 0.65899 0.98630 0.77308
 H302 H 0.66091 0.97193 0.76847
 C303 C 0.66877 0.99192 0.78936
 H304 H 0.67805 0.98153 0.79686
 Zn305 Zn 0.62926 0.99014 0.74413
 N306 N 0.64600 0.99829 0.76388
 C307 C 0.61454 0.96388 0.77201
 N308 N 0.61171 0.97118 0.75403
 C309 C 0.59778 0.96386 0.74262
 C310 C 0.58706 0.94781 0.74870
 C311 C 0.60440 0.94770 0.77854
 C312 C 0.62671 1.02425 0.72332
 C313 C 0.61832 1.04056 0.71464
 C314 C 0.58713 1.03087 0.72748
 C315 C 0.59616 1.01460 0.73592
 N316 N 0.61562 1.01166 0.73365
 H317 H 0.62522 0.97006 0.78115
 H318 H 0.59534 0.97005 0.72855
 H319 H 0.57667 0.94161 0.73917
 H320 H 0.60749 0.94154 0.79257
 H321 H 0.64216 1.02155 0.72185
 H322 H 0.62749 1.05049 0.70663
 H323 H 0.57160 1.03299 0.72922
 H324 H 0.58767 1.00440 0.74428
 C325 C 0.66493 1.01000 0.79657
 C326 C 0.65964 0.96324 0.69280
 C327 C 0.59827 1.04401 0.71657
 C328 C 0.59090 0.93917 0.76661
 C329 C 0.01832 0.23371 -0.16108
 H330 H 0.02288 0.24843 -0.16301
 C331 C 0.02807 0.21944 -0.17048
 H332 H 0.03981 0.22341 -0.17999
 C333 C -0.00216 0.21066 -0.14596
 H334 H -0.01342 0.20711 -0.13586
 C335 C 0.00729 0.19598 -0.15486
 H336 H 0.00300 0.18138 -0.15145
 N337 N 0.00332 0.22915 -0.14928
 C338 C -0.02947 0.28170 -0.14153
 H339 H -0.03156 0.27966 -0.12645
 C340 C -0.03742 0.29768 -0.15124
 H341 H -0.04555 0.30799 -0.14350
 C342 C -0.01597 0.27083 -0.16979
 H343 H -0.00781 0.26021 -0.17700
 C344 C -0.02350 0.28682 -0.18006
 H345 H -0.02104 0.28842 -0.19513
 Zn346 Zn -0.00860 0.24833 -0.13520
 N347 N -0.01882 0.26876 -0.15081
 C348 C 0.01683 0.27613 -0.12162
 N349 N 0.01092 0.25769 -0.11904
 C350 C 0.02046 0.24526 -0.10679
 C351 C 0.03701 0.25113 -0.09693
 C352 C 0.03329 0.28255 -0.11215
 C353 C -0.04422 0.23057 -0.13272
 C354 C -0.06013 0.22114 -0.12464
 C355 C -0.04723 0.22767 -0.09378
 C356 C -0.03124 0.23664 -0.10258
 N357 N -0.02990 0.23756 -0.12171
 H358 H 0.00936 0.28570 -0.13169
 H359 H 0.01570 0.23057 -0.10530
 H360 H 0.04491 0.24089 -0.08780
 H361 H 0.03802 0.29716 -0.11473
 H362 H -0.04304 0.23202 -0.14794
 H363 H -0.07126 0.21634 -0.13423
 H364 H -0.04708 0.22648 -0.07851
 H365 H -0.01977 0.24258 -0.09409
 C366 C -0.03437 0.30047 -0.17072
 C367 C 0.02263 0.20022 -0.16735
 C368 C -0.06193 0.21906 -0.10474
 C369 C 0.04388 0.26987 -0.09997
 C370 C 0.49025 0.24061 0.15875
 H371 H 0.48428 0.25484 0.15978
 C372 C 0.48306 0.22552 0.17027
 H373 H 0.47186 0.22841 0.18043
 C374 C 0.51188 0.21965 0.14400
 H375 H 0.52268 0.21725 0.13335
 C376 C 0.50498 0.20415 0.15504
 H377 H 0.51064 0.19004 0.15265
 N378 N 0.50448 0.23746 0.14600
 C379 C 0.52952 0.29320 0.13071
 H380 H 0.52940 0.29197 0.11554
 C381 C 0.53702 0.30955 0.13848
 H382 H 0.54244 0.32096 0.12912
 C383 C 0.52224 0.27981 0.16117
 H384 H 0.51673 0.26805 0.16996
 C385 C 0.52966 0.29598 0.16958
 H386 H 0.52981 0.29650 0.18483
 Zn387 Zn 0.51243 0.25771 0.12917
 N388 N 0.52210 0.27885 0.14203
 C389 C 0.48377 0.28358 0.11422
 N390 N 0.49046 0.26528 0.11415
 C391 C 0.48118 0.25197 0.10398
 C392 C 0.46473 0.25700 0.09298
 C393 C 0.46750 0.28923 0.10336
 C394 C 0.54997 0.24445 0.12308
 C395 C 0.56602 0.23833 0.11301
 C396 C 0.54715 0.24298 0.08414
 C397 C 0.53141 0.24900 0.09481
 N398 N 0.53303 0.24941 0.11394
 H399 H 0.49089 0.29382 0.12283
 H400 H 0.48662 0.23744 0.10441
 H401 H 0.45764 0.24632 0.08478
 H402 H 0.46234 0.30383 0.10371
 H403 H 0.55090 0.24510 0.13829
 H404 H 0.57919 0.23400 0.12064
 H405 H 0.54565 0.24284 0.06892
 H406 H 0.51798 0.25345 0.08776
 C407 C 0.53717 0.31114 0.15816
 C408 C 0.49028 0.20690 0.16836
 C409 C 0.56474 0.23748 0.09326
 C410 C 0.45781 0.27590 0.09249
 C411 C 0.98871 0.73503 0.67139
 H412 H 0.98366 0.74922 0.67431
 C413 C 0.98237 0.71929 0.68253
 H414 H 0.97293 0.72171 0.69435
 C415 C 1.00692 0.71483 0.65223
 H416 H 1.01600 0.71307 0.64005
 C417 C 1.00060 0.69870 0.66270
 H418 H 1.00495 0.68476 0.65827
 N419 N 1.00086 0.73256 0.65664
 C420 C 1.02355 0.78929 0.64146
 H421 H 1.02145 0.78872 0.62634
 C422 C 1.03232 0.80519 0.64893
 H423 H 1.03672 0.81695 0.63946
 C424 C 1.02037 0.77449 0.67206
 H425 H 1.01612 0.76229 0.68096
 C426 C 1.02905 0.79023 0.68018
 H427 H 1.03133 0.79006 0.69534
 Zn428 Zn 1.00723 0.75363 0.64013
 N429 N 1.01770 0.77439 0.65300
 C430 C 0.97625 0.77886 0.62980
 N431 N 0.98404 0.76133 0.62711
 C432 C 0.97472 0.74861 0.61627
 C433 C 0.95691 0.75343 0.60745
 C434 C 0.95847 0.78422 0.62135
 C435 C 1.04423 0.74136 0.63169
 C436 C 1.06008 0.73632 0.62078
 C437 C 1.04009 0.74183 0.59274
 C438 C 1.02456 0.74685 0.60424
 N439 N 1.02690 0.74636 0.62335
 H440 H 0.98356 0.78859 0.63885
 H441 H 0.98102 0.73460 0.61471
 H442 H 0.94955 0.74306 0.59909
 H443 H 0.95254 0.79825 0.62364
 H444 H 1.04570 0.74127 0.64692
 H445 H 1.07364 0.73206 0.62777
 H446 H 1.03809 0.74238 0.57754
 H447 H 1.01078 0.75129 0.59787
 C448 C 1.03527 0.80577 0.66852
 C449 C 0.98800 0.70071 0.67805
 C450 C 1.05815 0.73653 0.60103
 C451 C 0.94850 0.77140 0.61011
 C452 C 0.51778 0.73718 0.35266
 H453 H 0.52366 0.75148 0.35152
 C454 C 0.52678 0.72251 0.34319
 H455 H 0.53923 0.72585 0.33437
 C456 C 0.49479 0.71544 0.36601
 H457 H 0.48275 0.71252 0.37542
 C458 C 0.50345 0.70034 0.35699
 H459 H 0.49783 0.68606 0.35964
 N460 N 0.50201 0.73345 0.36373
 C461 C 0.47143 0.78708 0.37239
 H462 H 0.46802 0.78424 0.38714
 C463 C 0.46483 0.80389 0.36311
 H464 H 0.45567 0.81315 0.37102
 C465 C 0.48649 0.77728 0.34458
 H466 H 0.49500 0.76689 0.33740
 C467 C 0.48035 0.79406 0.33471
 H468 H 0.48499 0.79619 0.32024
 Zn469 Zn 0.49171 0.75311 0.37835
 N470 N 0.48235 0.77434 0.36320
 C471 C 0.51709 0.77998 0.39401
 N472 N 0.51216 0.76120 0.39421
 C473 C 0.52282 0.74776 0.40430
 C474 C 0.53955 0.75300 0.41426
 C475 C 0.53353 0.78584 0.40389
 C476 C 0.45448 0.73825 0.38261
 C477 C 0.43813 0.73085 0.39188
 C478 C 0.45440 0.73538 0.42177
 C479 C 0.47060 0.74253 0.41188
 N480 N 0.47040 0.74359 0.39264
 H481 H 0.50861 0.79045 0.38579
 H482 H 0.51873 0.73288 0.40401
 H483 H 0.54828 0.74200 0.42157
 H484 H 0.53716 0.80088 0.40347
 H485 H 0.45463 0.73956 0.36733
 H486 H 0.42564 0.72652 0.38365
 H487 H 0.45480 0.73432 0.43707
 H488 H 0.48332 0.74715 0.41955
 C489 C 0.46958 0.80807 0.34398
 C490 C 0.51977 0.70370 0.34546
 C491 C 0.43801 0.72922 0.41170
 C492 C 0.54530 0.77224 0.41383
 C493 C 0.39661 -0.00420 0.28253
 H494 H 0.39575 0.00915 0.28954
 C495 C 0.40746 -0.01942 0.29072
 H496 H 0.41536 -0.01738 0.30377
 C497 C 0.38687 -0.02310 0.25727
 H498 H 0.37843 -0.02465 0.24448
 C499 C 0.39726 -0.03876 0.26511
 H500 H 0.39648 -0.05219 0.25822
 N501 N 0.38650 -0.00632 0.26616
 C502 C 0.37236 0.04952 0.23949
 H503 H 0.35730 0.04683 0.23578
 C504 C 0.38108 0.06665 0.23344
 H505 H 0.37263 0.07689 0.22482
 C506 C 0.40172 0.03891 0.25456
 H507 H 0.40976 0.02801 0.26264
 C508 C 0.41097 0.05600 0.24900
 H509 H 0.42599 0.05812 0.25326
 Zn510 Zn 0.36920 0.01330 0.25714
 N511 N 0.38266 0.03609 0.24992
 C512 C 0.34718 0.03626 0.28113
 N513 N 0.35166 0.01804 0.27687
 C514 C 0.34526 0.00284 0.28774
 C515 C 0.33438 0.00569 0.30395
 C516 C 0.33610 0.03974 0.29704
 C517 C 0.36499 0.00711 0.21884
 C518 C 0.35639 0.00066 0.20244
 C519 C 0.32882 -0.01034 0.22092
 C520 C 0.33785 -0.00337 0.23698
 N521 N 0.35569 0.00499 0.23566
 H522 H 0.35263 0.04817 0.27255
 H523 H 0.34921 -0.01150 0.28416
 H524 H 0.32981 -0.00652 0.31273
 H525 H 0.33317 0.05434 0.30054
 H526 H 0.37921 0.01374 0.21820
 H527 H 0.36400 0.00281 0.18920
 H528 H 0.31491 -0.01752 0.22236
 H529 H 0.33080 -0.00503 0.25054
 C530 C 0.40064 0.07019 0.23828
 C531 C 0.40755 -0.03718 0.28224
 C532 C 0.33819 -0.00852 0.20334
 C533 C 0.32990 0.02436 0.30887
 C534 C 0.10572 1.02050 0.78042
 H535 H 0.10476 1.00672 0.78791
 C536 C 0.09446 1.03583 0.78615
 H537 H 0.08481 1.03378 0.79809
 C538 C 0.12009 1.04018 0.75626
 H539 H 0.13039 1.04200 0.74489
 C540 C 0.10929 1.05589 0.76162
 H541 H 0.11108 1.06953 0.75401
 N542 N 0.11809 1.02288 0.76559
 C543 C 0.13022 0.96602 0.74596
 H544 H 0.14594 0.96712 0.74529
 C545 C 0.12098 0.94964 0.74005
 H546 H 0.12978 0.93805 0.73513
 C547 C 0.09979 0.97992 0.75328
 H548 H 0.09159 0.99192 0.75808
 C549 C 0.08991 0.96375 0.74744
 H550 H 0.07412 0.96346 0.74782
 Zn551 Zn 0.13427 1.00233 0.75893
 N552 N 0.11962 0.98069 0.75252
 C553 C 0.15093 0.97813 0.78787
 N554 N 0.15103 0.99610 0.77972
 C555 C 0.16232 1.01006 0.78682
 C556 C 0.17435 1.00608 0.80260
 C557 C 0.16284 0.97350 0.80348
 C558 C 0.13769 1.01320 0.72121
 C559 C 0.14657 1.01907 0.70434
 C560 C 0.17792 1.01679 0.72027
 C561 C 0.16838 1.01102 0.73695
 N562 N 0.14857 1.00966 0.73714
 H563 H 0.14144 0.96737 0.78246
 H564 H 0.16187 1.02432 0.78026
 H565 H 0.18333 1.01728 0.80806
 H566 H 0.16242 0.95915 0.80986
 H567 H 0.12199 1.01167 0.72174
 H568 H 0.13762 1.02196 0.69184
 H569 H 0.19365 1.01826 0.72035
 H570 H 0.17677 1.00778 0.74971
 C571 C 0.10055 0.94838 0.74060
 C572 C 0.09632 1.05384 0.77677
 C573 C 0.16692 1.02117 0.70377
 C574 C 0.17476 0.98754 0.81103
 C575 C 0.59491 0.52395 0.28152
 H576 H 0.59288 0.50950 0.28720
 C577 C 0.58420 0.53897 0.28873
 H578 H 0.57389 0.53599 0.29997
 C579 C 0.61150 0.54559 0.26062
 H580 H 0.62251 0.54827 0.25004
 C581 C 0.60127 0.56097 0.26749
 H582 H 0.60418 0.57525 0.26172
 N583 N 0.60813 0.52747 0.26757
 C584 C 0.61975 0.47312 0.24206
 H585 H 0.63548 0.47443 0.24168
 C586 C 0.61080 0.45735 0.23456
 H587 H 0.61984 0.44643 0.22873
 C588 C 0.58911 0.48582 0.25048
 H589 H 0.58074 0.49712 0.25641
 C590 C 0.57948 0.47022 0.24300
 H591 H 0.56370 0.46966 0.24327
 Zn592 Zn 0.62382 0.50738 0.25884
 N593 N 0.60894 0.48686 0.25000
 C594 C 0.64032 0.47986 0.28497
 N595 N 0.64046 0.49858 0.27894
 C596 C 0.65211 0.51141 0.28740
 C597 C 0.66450 0.50548 0.30237
 C598 C 0.65268 0.47328 0.29963
 C599 C 0.62799 0.52328 0.22263
 C600 C 0.63739 0.53013 0.20635
 C601 C 0.66838 0.52191 0.22129
 C602 C 0.65835 0.51551 0.23749
 N603 N 0.63852 0.51649 0.23789
 H604 H 0.63057 0.46995 0.27853
 H605 H 0.65175 0.52627 0.28248
 H606 H 0.67379 0.51579 0.30894
 H607 H 0.65241 0.45832 0.30424
 H608 H 0.61222 0.52350 0.22323
 H609 H 0.62880 0.53567 0.19438
 H610 H 0.68416 0.52121 0.22109
 H611 H 0.66639 0.50964 0.24964
 C612 C 0.59039 0.45575 0.23484
 C613 C 0.58749 0.55780 0.28180
 C614 C 0.65781 0.52951 0.20558
 C615 C 0.66499 0.48614 0.30848
 C616 C 0.87058 0.48018 0.78578
 H617 H 0.86122 0.48698 0.79563
 C618 C 0.87875 0.46246 0.79097
 H619 H 0.87595 0.45617 0.80494
 C620 C 0.88486 0.47958 0.75548
 H621 H 0.88666 0.48614 0.74147
 C622 C 0.89331 0.46170 0.76010
 H623 H 0.90166 0.45459 0.74957
 N624 N 0.87349 0.48827 0.76821
 C625 C 0.86491 0.54786 0.74877
 H626 H 0.84912 0.54795 0.74823
 C627 C 0.87516 0.56450 0.74406
 H628 H 0.86703 0.57717 0.73945
 C629 C 0.89439 0.53085 0.75498
 H630 H 0.90175 0.51771 0.75948
 C631 C 0.90529 0.54734 0.75070
 H632 H 0.92102 0.54669 0.75207
 Zn633 Zn 0.85863 0.51021 0.76047
 N634 N 0.87457 0.53142 0.75385
 C635 C 0.85350 0.52461 0.79546
 N636 N 0.84318 0.51745 0.78096
 C637 C 0.82347 0.51523 0.78189
 C638 C 0.81355 0.51949 0.79840
 C639 C 0.84426 0.52894 0.81213
 C640 C 0.84563 0.51288 0.72235
 C641 C 0.83636 0.50645 0.70626
 C642 C 0.82227 0.48072 0.72543
 C643 C 0.83176 0.48772 0.74123
 N644 N 0.84331 0.50343 0.73941
 H645 H 0.86913 0.52639 0.79425
 H646 H 0.81552 0.50974 0.77009
 H647 H 0.79797 0.51712 0.79925
 H648 H 0.85284 0.53435 0.82361
 H649 H 0.85526 0.52500 0.72098
 H650 H 0.83856 0.51411 0.69281
 H651 H 0.81376 0.46777 0.72704
 H652 H 0.83054 0.48017 0.75485
 C653 C 0.89566 0.56452 0.74510
 C654 C 0.88982 0.45272 0.77790
 C655 C 0.82482 0.48993 0.70757
 C656 C 0.82410 0.52602 0.81393
 C657 C 0.26923 0.38128 -0.01773
 H658 H 0.27781 0.38074 -0.00488
 C659 C 0.27680 0.39037 -0.03398
 H660 H 0.29115 0.39676 -0.03343
 C661 C 0.24038 0.37341 -0.03427
 H662 H 0.22622 0.36668 -0.03438
 C663 C 0.24734 0.38252 -0.05086
 H664 H 0.23860 0.38247 -0.06367
 N665 N 0.25161 0.37243 -0.01828
 C666 C 0.23435 0.36380 0.04037
 H667 H 0.23706 0.34861 0.04235
 C668 C 0.22942 0.37443 0.05578
 H669 H 0.22859 0.36727 0.06963
 C670 C 0.23302 0.39154 0.01989
 H671 H 0.23451 0.39807 0.00584
 C672 C 0.22785 0.40271 0.03491
 H673 H 0.22514 0.41783 0.03220
 Zn674 Zn 0.24382 0.35698 0.00317
 N675 N 0.23610 0.37245 0.02290
 C676 C 0.27913 0.35169 0.02228
 N677 N 0.26560 0.34222 0.01219
 C678 C 0.26790 0.32335 0.00890
 C679 C 0.28478 0.31356 0.01520
 C680 C 0.29616 0.34255 0.02871
 C681 C 0.20543 0.34226 0.00538
 C682 C 0.18923 0.33215 -0.00077
 C683 C 0.20898 0.31963 -0.02543
 C684 C 0.22484 0.32989 -0.01874
 N685 N 0.22275 0.34115 -0.00376
 H686 H 0.27671 0.36648 0.02532
 H687 H 0.25685 0.31590 0.00121
 H688 H 0.28666 0.29869 0.01210
 H689 H 0.30677 0.35044 0.03662
 H690 H 0.20394 0.35147 0.01708
 H691 H 0.17540 0.33375 0.00627
 H692 H 0.21081 0.31105 -0.03760
 H693 H 0.23866 0.32945 -0.02596
 C694 C 0.22604 0.39418 0.05319
 C695 C 0.26604 0.39060 -0.05094
 C696 C 0.19080 0.32093 -0.01658
 C697 C 0.29932 0.32332 0.02494
 C698 C 0.76586 0.08557 1.01574
 H699 H 0.77363 0.08396 1.00268
 C700 C 0.77319 0.07703 1.03266
 H701 H 0.78659 0.06879 1.03251
 C702 C 0.73989 0.09958 1.03212
 H703 H 0.72726 0.10881 1.03211
 C704 C 0.74665 0.09133 1.04923
 H705 H 0.73887 0.09406 1.06207
 N706 N 0.74969 0.09692 1.01585
 C707 C 0.72266 0.10724 0.96043
 H708 H 0.72076 0.12250 0.96129
 C709 C 0.71454 0.09799 0.94531
 H710 H 0.70653 0.10628 0.93450
 C711 C 0.73558 0.07804 0.97350
 H712 H 0.74367 0.07036 0.98465
 C713 C 0.72779 0.06816 0.95843
 H714 H 0.72984 0.05286 0.95808
 Zn715 Zn 0.74241 0.11207 0.99394
 N716 N 0.73295 0.09726 0.97414
 C717 C 0.76842 0.12814 0.96689
 N718 N 0.76451 0.12621 0.98565
 C719 C 0.77662 0.13366 0.99872
 C720 C 0.79363 0.14322 0.99306
 C721 C 0.78505 0.13781 0.96061
 C722 C 0.70410 0.12085 1.00299
 C723 C 0.68833 0.13207 1.00801
 C724 C 0.70943 0.15966 1.00667
 C725 C 0.72485 0.14787 1.00162
 N726 N 0.72196 0.12880 1.00013
 H727 H 0.75871 0.12213 0.95669
 H728 H 0.77324 0.13184 1.01358
 H729 H 0.80335 0.14854 1.00372
 H730 H 0.78758 0.13942 0.94556
 H731 H 0.70223 0.10565 1.00164
 H732 H 0.67438 0.12532 1.01074
 H733 H 0.71195 0.17480 1.00789
 H734 H 0.73914 0.15390 0.99910
 C735 C 0.71696 0.07819 0.94418
 C736 C 0.76383 0.08038 1.04975
 C737 C 0.69089 0.15174 1.01005
 C738 C 0.79814 0.14528 0.97374
 C739 C 0.26544 0.60017 0.52395
 H740 H 0.27576 0.60879 0.51599
 C741 C 0.27192 0.58960 0.54002
 H742 H 0.28702 0.59072 0.54444
 C743 C 0.23346 0.58813 0.52793
 H744 H 0.21858 0.58721 0.52302
 C745 C 0.23931 0.57731 0.54409
 H746 H 0.22876 0.56832 0.55147
 N747 N 0.24633 0.59978 0.51852
 C748 C 0.21041 0.60573 0.46947
 H749 H 0.20248 0.61827 0.47335
 C750 C 0.20362 0.59534 0.45447
 H751 H 0.19036 0.59988 0.44708
 C752 C 0.23796 0.58530 0.47347
 H753 H 0.25147 0.58169 0.48084
 C754 C 0.23183 0.57466 0.45830
 H755 H 0.24057 0.56269 0.45413
 Zn756 Zn 0.23716 0.61596 0.49779
 N757 N 0.22727 0.60056 0.47866
 C758 C 0.26210 0.62941 0.46880
 N759 N 0.25806 0.63086 0.48744
 C760 C 0.26915 0.64201 0.49853
 C761 C 0.28580 0.65110 0.49124
 C762 C 0.27838 0.63843 0.46090
 C763 C 0.19963 0.62363 0.51111
 C764 C 0.18389 0.63456 0.51674
 C765 C 0.20350 0.66289 0.51189
 C766 C 0.21891 0.65137 0.50621
 N767 N 0.21676 0.63207 0.50601
 H768 H 0.25289 0.62097 0.46002
 H769 H 0.26554 0.64316 0.51327
 H770 H 0.29498 0.65905 0.50056
 H771 H 0.28132 0.63691 0.44606
 H772 H 0.19786 0.60842 0.51022
 H773 H 0.17046 0.62746 0.52081
 H774 H 0.20538 0.67823 0.51184
 H775 H 0.23247 0.65792 0.50183
 C776 C 0.21446 0.57971 0.44862
 C777 C 0.25870 0.57824 0.55053
 C778 C 0.18567 0.65446 0.51714
 C779 C 0.29085 0.64898 0.47226
 C780 C 0.78063 0.89327 0.48251
 H781 H 0.78726 0.89244 0.49645
 C782 C 0.78962 0.90392 0.46787
 H783 H 0.80295 0.91156 0.47075
 C784 C 0.75572 0.88367 0.46162
 H785 H 0.74288 0.87530 0.45898
 C786 C 0.76413 0.89423 0.44663
 H787 H 0.75756 0.89387 0.43268
 N788 N 0.76406 0.88327 0.47915
 C789 C 0.73414 0.87154 0.53255
 H790 H 0.72946 0.85715 0.53013
 C791 C 0.72790 0.88038 0.54863
 H792 H 0.71900 0.87237 0.55874
 C793 C 0.75106 0.89941 0.52207
 H794 H 0.75984 0.90691 0.51158
 C795 C 0.74505 0.90888 0.53799
 H796 H 0.74926 0.92360 0.53951
 Zn797 Zn 0.75345 0.86691 0.49874
 N798 N 0.74579 0.88094 0.51979
 C799 C 0.76959 0.83705 0.52258
 N800 N 0.77261 0.84836 0.50673
 C801 C 0.78974 0.84750 0.49720
 C802 C 0.80506 0.83598 0.50427
 C803 C 0.78452 0.82533 0.53014
 C804 C 0.71538 0.86674 0.48516
 C805 C 0.69839 0.85945 0.47734
 C806 C 0.71296 0.82794 0.47961
 C807 C 0.72985 0.83591 0.48720
 N808 N 0.73079 0.85504 0.48954
 H809 H 0.75580 0.83749 0.52975
 H810 H 0.79180 0.85614 0.48436
 H811 H 0.81887 0.83627 0.49696
 H812 H 0.78198 0.81684 0.54306
 H813 H 0.71650 0.88187 0.48737
 H814 H 0.68637 0.86903 0.47363
 H815 H 0.71248 0.81277 0.47739
 H816 H 0.74228 0.82689 0.49089
 C817 C 0.73334 0.89931 0.55157
 C818 C 0.78144 0.90432 0.44959
 C819 C 0.69714 0.83987 0.47428
 C820 C 0.80275 0.82512 0.52126
 C821 C -0.02723 0.28171 0.37959
 H822 H -0.01992 0.29266 0.37113
 C823 C -0.04256 0.28682 0.39113
 H824 H -0.04687 0.30169 0.39139
 C825 C -0.03110 0.24905 0.38902
 H826 H -0.02657 0.23433 0.38797
 C827 C -0.04673 0.25352 0.40060
 H828 H -0.05410 0.24221 0.40863
 N829 N -0.02167 0.26311 0.37885
 C830 C 0.03830 0.24783 0.36665
 H831 H 0.03828 0.25128 0.35160
 C832 C 0.05568 0.24255 0.37592
 H833 H 0.06899 0.24172 0.36787
 C834 C 0.02086 0.24458 0.39536
 H835 H 0.00729 0.24558 0.40289
 C836 C 0.03791 0.23903 0.40518
 H837 H 0.03732 0.23578 0.42026
 Zn838 Zn -0.00126 0.25649 0.36247
 N839 N 0.02133 0.24865 0.37640
 C840 C 0.01605 0.29172 0.35578
 N841 N 0.00587 0.27801 0.34704
 C842 C 0.00208 0.27945 0.32813
 C843 C 0.00869 0.29528 0.31723
 C844 C 0.02300 0.30763 0.34547
 C845 C -0.02809 0.23772 0.33959
 C846 C -0.03569 0.22245 0.32990
 C847 C -0.00569 0.20505 0.33648
 C848 C 0.00121 0.22052 0.34623
 N849 N -0.01002 0.23642 0.34766
 H850 H 0.01896 0.29013 0.37082
 H851 H -0.00585 0.26825 0.32146
 H852 H 0.00586 0.29616 0.30215
 H853 H 0.03108 0.31839 0.35272
 H854 H -0.03680 0.25045 0.34114
 H855 H -0.05037 0.22354 0.32416
 H856 H 0.00362 0.19265 0.33540
 H857 H 0.01547 0.21967 0.35283
 C858 C 0.05560 0.23797 0.39542
 C859 C -0.05254 0.27265 0.40179
 C860 C -0.02452 0.20572 0.32841
 C861 C 0.01952 0.30947 0.32591
 C862 C 1.01750 0.78600 0.09148
 H863 H 1.00287 0.79158 0.08923
 C864 C 1.03318 0.79457 0.08188
 H865 H 1.03042 0.80652 0.07196
 C866 C 1.03885 0.76382 0.10739
 H867 H 1.04115 0.75221 0.11776
 C868 C 1.05490 0.77202 0.09826
 H869 H 1.06933 0.76653 0.10182
 N870 N 1.02057 0.77083 0.10387
 C871 C 0.96425 0.74311 0.11230
 H872 H 0.96477 0.74189 0.12758
 C873 C 0.94840 0.73578 0.10262
 H874 H 0.93662 0.72925 0.11065
 C875 C 0.97899 0.75349 0.08350
 H876 H 0.99112 0.76013 0.07614
 C877 C 0.96340 0.74618 0.07317
 H878 H 0.96369 0.74727 0.05788
 Zn879 Zn 0.99959 0.76044 0.11818
 N880 N 0.97903 0.75193 0.10272
 C881 C 0.97145 0.78557 0.13230
 N882 N 0.99034 0.77959 0.13389
 C883 C 1.00301 0.78772 0.14602
 C884 C 0.99668 0.80218 0.15749
 C885 C 0.96449 0.79980 0.14358
 C886 C 1.01391 0.72366 0.12226
 C887 C 1.02108 0.70692 0.13120
 C888 C 1.01628 0.72091 0.16135
 C889 C 1.00918 0.73748 0.15177
 N890 N 1.00845 0.73862 0.13255
 H891 H 0.96174 0.77950 0.12213
 H892 H 1.01805 0.78296 0.14675
 H893 H 1.00686 0.80840 0.16721
 H894 H 0.94944 0.80442 0.14203
 H895 H 1.01287 0.72487 0.10700
 H896 H 1.02537 0.69519 0.12271
 H897 H 1.01723 0.72034 0.17664
 H898 H 1.00443 0.74943 0.15969
 C899 C 0.94786 0.73711 0.08277
 C900 C 1.05225 0.78764 0.08532
 C901 C 1.02259 0.70545 0.15100
 C902 C 0.97713 0.80825 0.15642
 C903 C 0.52220 0.27850 0.59894
 H904 H 0.50764 0.28452 0.59800
 C905 C 0.53745 0.28742 0.58903
 H906 H 0.53435 0.30007 0.58013
 C907 C 0.54386 0.25485 0.61200
 H908 H 0.54642 0.24249 0.62139
 C909 C 0.55956 0.26344 0.60256
 H910 H 0.57403 0.25750 0.60493
 N911 N 0.52564 0.26252 0.61012
 C912 C 0.46874 0.23642 0.62018
 H913 H 0.46969 0.23450 0.63541
 C914 C 0.45233 0.23006 0.61061
 H915 H 0.44054 0.22360 0.61869
 C916 C 0.48304 0.24737 0.59135
 H917 H 0.49521 0.25381 0.58389
 C918 C 0.46690 0.24105 0.58115
 H919 H 0.46686 0.24269 0.56588
 Zn920 Zn 0.50522 0.25244 0.62530
 N921 N 0.48357 0.24510 0.61054
 C922 C 0.47898 0.27741 0.64284
 N923 N 0.49790 0.27161 0.64183
 C924 C 0.51226 0.28019 0.65173
 C925 C 0.50782 0.29528 0.66319
 C926 C 0.47386 0.29216 0.65437
 C927 C 0.51748 0.21480 0.62852
 C928 C 0.52374 0.19759 0.63725
 C929 C 0.52259 0.21228 0.66741
 C930 C 0.51621 0.22925 0.65807
 N931 N 0.51399 0.23021 0.63895
 H932 H 0.46783 0.27088 0.63448
 H933 H 0.52723 0.27549 0.65046
 H934 H 0.51939 0.30212 0.67087
 H935 H 0.45877 0.29674 0.65486
 H936 H 0.51532 0.21593 0.61336
 H937 H 0.52617 0.18546 0.62866
 H938 H 0.52468 0.21186 0.68259
 H939 H 0.51311 0.24162 0.66610
 C940 C 0.45127 0.23221 0.59080
 C941 C 0.55654 0.28007 0.59100
 C942 C 0.52655 0.19618 0.65694
 C943 C 0.48839 0.30136 0.66460
 C944 C 0.47138 0.76159 0.88413
 H945 H 0.48567 0.76809 0.88422
 C946 C 0.45647 0.76877 0.89517
 H947 H 0.45944 0.78093 0.90359
 C948 C 0.44992 0.73860 0.87209
 H949 H 0.44713 0.72723 0.86271
 C950 C 0.43473 0.74512 0.88305
 H951 H 0.42068 0.73816 0.88233
 N952 N 0.46788 0.74676 0.87287
 C953 C 0.52459 0.72228 0.86036
 H954 H 0.52316 0.72270 0.84512
 C955 C 0.54180 0.71558 0.86898
 H956 H 0.55362 0.71107 0.86018
 C957 C 0.51100 0.72854 0.89009
 H958 H 0.49891 0.73359 0.89820
 C959 C 0.52798 0.72177 0.89936
 H960 H 0.52870 0.72151 0.91464
 Zn961 Zn 0.48803 0.73863 0.85689
 N962 N 0.50978 0.72889 0.87090
 C963 C 0.51396 0.76757 0.84542
 N964 N 0.49608 0.76018 0.84173
 C965 C 0.48385 0.76888 0.82870
 C966 C 0.48979 0.78533 0.81833
 C967 C 0.52037 0.78398 0.83558
 C968 C 0.47366 0.70243 0.85266
 C969 C 0.46521 0.68713 0.84385
 C970 C 0.46932 0.70418 0.81369
 C971 C 0.47742 0.71941 0.82316
 N972 N 0.47890 0.71844 0.84237
 H973 H 0.52315 0.76110 0.85643
 H974 H 0.46945 0.76308 0.82642
 H975 H 0.48000 0.79190 0.80781
 H976 H 0.53448 0.78976 0.83921
 H977 H 0.47540 0.70190 0.86787
 H978 H 0.46043 0.67476 0.85231
 H979 H 0.46765 0.70522 0.79845
 H980 H 0.48219 0.73204 0.81520
 C981 C 0.54375 0.71532 0.88875
 C982 C 0.43777 0.76057 0.89464
 C983 C 0.46267 0.68806 0.82419
 C984 C 0.50835 0.79305 0.82168
 C985 C 0.45677 -0.15489 0.30563
 C986 C 0.45234 -0.13866 0.31596
 C987 C 0.45362 -0.14069 0.33590
 C988 C 0.45959 -0.15804 0.34492
 C989 C 0.46390 -0.17425 0.33461
 C990 C 0.46238 -0.17221 0.31474
 C991 C 0.44893 -0.12537 0.34690
 C992 C 0.44225 -0.10822 0.33859
 C993 C 0.44035 -0.10552 0.31878
 C994 C 0.44635 -0.12067 0.30725
 C995 C 0.44636 -0.11724 0.28744
 C996 C 0.43996 -0.09994 0.27914
 C997 C 0.43285 -0.08552 0.29015
 C998 C 0.43280 -0.08811 0.31012
 C999 C 0.42465 -0.07335 0.32055
 C1000 C 0.41690 -0.05686 0.31151
 C1001 C 0.41712 -0.05426 0.29176
 C1002 C 0.42544 -0.06862 0.28122
 H1003 H 0.45545 -0.15488 0.29046
 H1004 H 0.46139 -0.15844 0.36012
 H1005 H 0.46466 -0.18418 0.30594
 H1006 H 0.45014 -0.12673 0.36218
 H1007 H 0.43905 -0.09716 0.34815
 H1008 H 0.45158 -0.12758 0.27789
 H1009 H 0.44022 -0.09798 0.26387
 H1010 H 0.42332 -0.07438 0.33570
 H1011 H 0.41010 -0.04638 0.32009
 H1012 H 0.42595 -0.06681 0.26595
 C1013 C 0.96242 0.34637 0.79882
 C1014 C 0.94339 0.35309 0.80272
 C1015 C 0.93138 0.34108 0.81432
 C1016 C 0.93854 0.32373 0.82235
 C1017 C 0.95766 0.31778 0.81905
 C1018 C 0.96937 0.32900 0.80688
 C1019 C 0.91236 0.34657 0.81824
 C1020 C 0.90498 0.36397 0.81132
 C1021 C 0.91646 0.37685 0.80026
 C1022 C 0.93598 0.37132 0.79584
 C1023 C 0.94758 0.38443 0.78517
 C1024 C 0.94057 0.40242 0.77934
 C1025 C 0.92168 0.40809 0.78370
 C1026 C 0.90921 0.39528 0.79391
 C1027 C 0.89002 0.40161 0.79755
 C1028 C 0.88390 0.42002 0.79207
 C1029 C 0.89651 0.43287 0.78266
 C1030 C 0.91529 0.42666 0.77814
 H1031 H 0.97241 0.35423 0.78979
 H1032 H 0.92926 0.31490 0.83146
 H1033 H 0.98421 0.32464 0.80409
 H1034 H 0.90309 0.33736 0.82699
 H1035 H 0.89023 0.36703 0.81533
 H1036 H 0.96240 0.38139 0.78137
 H1037 H 0.95015 0.41209 0.77147
 H1038 H 0.87928 0.39277 0.80463
 H1039 H 0.86909 0.42424 0.79519
 H1040 H 0.92512 0.43647 0.77076
 C1041 C 0.06392 1.17008 0.81439
 C1042 C 0.05425 1.15317 0.80940
 C1043 C 0.03373 1.15242 0.81171
 C1044 C 0.02351 1.16805 0.81847
 C1045 C 0.03336 1.18451 0.82376
 C1046 C 0.05363 1.18537 0.82150
 C1047 C 0.02349 1.13597 0.80757
 C1048 C 0.03321 1.11987 0.80181
 C1049 C 0.05366 1.11970 0.79958
 C1050 C 0.06424 1.13689 0.80266
 C1051 C 0.08441 1.13725 0.79877
 C1052 C 0.09406 1.12127 0.79265
 C1053 C 0.08415 1.10416 0.79051
 C1054 C 0.06387 1.10299 0.79415
 C1055 C 0.05476 1.08499 0.79249
 C1056 C 0.06532 1.06911 0.78704
 C1057 C 0.08520 1.07058 0.78296
 C1058 C 0.09453 1.08816 0.78479
 H1059 H 0.07951 1.17175 0.81362
 H1060 H 0.00778 1.16726 0.81985
 H1061 H 0.06175 1.19768 0.82581
 H1062 H 0.00777 1.13539 0.80912
 H1063 H 0.02414 1.10782 0.79888
 H1064 H 0.09320 1.14985 0.79996
 H1065 H 0.10954 1.12227 0.78976
 H1066 H 0.03959 1.08259 0.79561
 H1067 H 0.05782 1.05564 0.78578
 H1068 H 0.11003 1.08930 0.78204
 C1069 C 0.56006 0.67169 0.32821
 C1070 C 0.54968 0.65569 0.32193
 C1071 C 0.52906 0.65600 0.32336
 C1072 C 0.51941 0.67186 0.33042
 C1073 C 0.52993 0.68752 0.33674
 C1074 C 0.55033 0.68721 0.33551
 C1075 C 0.51812 0.64042 0.31793
 C1076 C 0.52717 0.62424 0.31147
 C1077 C 0.54766 0.62310 0.30984
 C1078 C 0.55905 0.63933 0.31459
 C1079 C 0.57940 0.63876 0.31165
 C1080 C 0.58839 0.62283 0.30467
 C1081 C 0.57762 0.60669 0.30059
 C1082 C 0.55714 0.60640 0.30333
 C1083 C 0.54712 0.58930 0.29958
 C1084 C 0.55698 0.57351 0.29289
 C1085 C 0.57708 0.57420 0.28965
 C1086 C 0.58731 0.59081 0.29371
 H1087 H 0.57574 0.67251 0.32820
 H1088 H 0.50361 0.67193 0.33107
 H1089 H 0.55895 0.69880 0.34070
 H1090 H 0.50234 0.64062 0.31888
 H1091 H 0.51758 0.61293 0.30753
 H1092 H 0.58886 0.65059 0.31425
 H1093 H 0.60404 0.62314 0.30252
 H1094 H 0.53169 0.58754 0.30182
 H1095 H 0.54877 0.56080 0.28992
 H1096 H 0.60297 0.59132 0.29165
 C1097 C 0.56939 0.35389 0.16591
 C1098 C 0.56000 0.36297 0.18080
 C1099 C 0.54342 0.35387 0.18892
 C1100 C 0.53615 0.33690 0.18172
 C1101 C 0.54528 0.32851 0.16651
 C1102 C 0.56211 0.33704 0.15895
 C1103 C 0.53409 0.36181 0.20412
 C1104 C 0.54095 0.37851 0.21165
 C1105 C 0.55729 0.38824 0.20398
 C1106 C 0.56663 0.38060 0.18797
 C1107 C 0.58209 0.39098 0.17944
 C1108 C 0.58874 0.40782 0.18665
 C1109 C 0.58044 0.41499 0.20272
 C1110 C 0.56458 0.40543 0.21168
 C1111 C 0.55693 0.41341 0.22810
 C1112 C 0.56498 0.42991 0.23535
 C1113 C 0.58082 0.43906 0.22651
 C1114 C 0.58817 0.43166 0.20997
 H1115 H 0.58257 0.35922 0.15945
 H1116 H 0.52312 0.33042 0.18772
 H1117 H 0.56982 0.33057 0.14759
 H1118 H 0.52138 0.35496 0.21038
 H1119 H 0.53285 0.38360 0.22337
 H1120 H 0.58928 0.38665 0.16688
 H1121 H 0.60073 0.41522 0.17963
 H1122 H 0.54507 0.40704 0.23599
 H1123 H 0.55911 0.43519 0.24826
 H1124 H 0.60016 0.43883 0.20274
 C1125 C 0.07060 0.84650 0.67414
 C1126 C 0.06342 0.85555 0.69015
 C1127 C 0.04708 0.84719 0.69947
 C1128 C 0.03819 0.83077 0.69266
 C1129 C 0.04521 0.82241 0.67646
 C1130 C 0.06159 0.83032 0.66747
 C1131 C 0.03956 0.85535 0.71544
 C1132 C 0.04778 0.87171 0.72241
 C1133 C 0.06392 0.88076 0.71358
 C1134 C 0.07183 0.87255 0.69713
 C1135 C 0.08776 0.88172 0.68809
 C1136 C 0.09585 0.89816 0.69488
 C1137 C 0.08849 0.90622 0.71093
 C1138 C 0.07241 0.89776 0.72057
 C1139 C 0.06561 0.90675 0.73679
 C1140 C 0.07455 0.92320 0.74314
 C1141 C 0.09055 0.93128 0.73361
 C1142 C 0.09728 0.92276 0.71740
 H1143 H 0.08315 0.85147 0.66636
 H1144 H 0.02546 0.82478 0.69969
 H1145 H 0.06757 0.82388 0.65516
 H1146 H 0.02711 0.84902 0.72265
 H1147 H 0.04100 0.87699 0.73478
 H1148 H 0.09440 0.87665 0.67556
 H1149 H 0.10809 0.90464 0.68744
 H1150 H 0.05351 0.90140 0.74504
 H1151 H 0.06915 0.92942 0.75579
 H1152 H 0.10940 0.92910 0.70966
 C1153 C 0.98276 0.64982 0.69854
 C1154 C 0.96333 0.64953 0.70511
 C1155 C 0.95285 0.66703 0.70432
 C1156 C 0.96101 0.68361 0.69578
 C1157 C 0.97998 0.68348 0.68846
 C1158 C 0.99090 0.66650 0.69047
 C1159 C 0.93411 0.66786 0.71173
 C1160 C 0.92544 0.65167 0.71993
 C1161 C 0.93495 0.63374 0.72047
 C1162 C 0.95393 0.63253 0.71235
 C1163 C 0.96248 0.61428 0.71096
 C1164 C 0.95277 0.59779 0.71713
 C1165 C 0.93453 0.59880 0.72560
 C1166 C 0.92571 0.61683 0.72806
 C1167 C 0.90793 0.61715 0.73802
 C1168 C 0.89871 0.60026 0.74401
 C1169 C 0.90668 0.58239 0.74022
 C1170 C 0.92490 0.58183 0.73135
 H1171 H 0.99218 0.63746 0.69968
 H1172 H 0.95222 0.69649 0.69437
 H1173 H 1.00586 0.66602 0.68573
 H1174 H 0.92602 0.68120 0.71118
 H1175 H 0.91080 0.65353 0.72498
 H1176 H 0.97637 0.61218 0.70435
 H1177 H 0.95967 0.58406 0.71526
 H1178 H 0.90093 0.63024 0.74169
 H1179 H 0.88518 0.60128 0.75168
 H1180 H 0.93142 0.56820 0.72840
 C1181 C 0.48596 0.15833 0.19409
 C1182 C 0.46567 0.15686 0.19742
 C1183 C 0.45389 0.17306 0.19252
 C1184 C 0.46201 0.18939 0.18344
 C1185 C 0.48200 0.19025 0.17939
 C1186 C 0.49390 0.17472 0.18525
 C1187 C 0.43399 0.17278 0.19638
 C1188 C 0.42538 0.15674 0.20495
 C1189 C 0.43631 0.14001 0.20960
 C1190 C 0.45668 0.13991 0.20532
 C1191 C 0.46723 0.12266 0.20838
 C1192 C 0.45822 0.10609 0.21532
 C1193 C 0.43852 0.10608 0.22002
 C1194 C 0.42738 0.12315 0.21775
 C1195 C 0.40773 0.12256 0.22373
 C1196 C 0.39934 0.10555 0.23069
 C1197 C 0.41011 0.08848 0.23192
 C1198 C 0.42983 0.08898 0.22678
 H1199 H 0.49617 0.14716 0.19829
 H1200 H 0.45254 0.20123 0.17900
 H1201 H 0.50950 0.17518 0.18298
 H1202 H 0.42490 0.18513 0.19268
 H1203 H 0.40988 0.15770 0.20711
 H1204 H 0.48241 0.12127 0.20488
 H1205 H 0.46683 0.09310 0.21705
 H1206 H 0.39849 0.13503 0.22351
 H1207 H 0.38430 0.10586 0.23523
 H1208 H 0.43841 0.07594 0.22761
 C1209 C 0.29096 0.45371 -0.16152
 C1210 C 0.29929 0.43878 -0.14982
 C1211 C 0.31761 0.43140 -0.15517
 C1212 C 0.32691 0.43856 -0.17154
 C1213 C 0.31873 0.45363 -0.18273
 C1214 C 0.30058 0.46099 -0.17764
 C1215 C 0.32677 0.41701 -0.14407
 C1216 C 0.31857 0.41017 -0.12729
 C1217 C 0.30058 0.41729 -0.12102
 C1218 C 0.29034 0.43118 -0.13287
 C1219 C 0.27148 0.43684 -0.12744
 C1220 C 0.26310 0.42957 -0.11081
 C1221 C 0.27333 0.41679 -0.09865
 C1222 C 0.29237 0.41073 -0.10340
 C1223 C 0.30256 0.39860 -0.09010
 C1224 C 0.29398 0.39237 -0.07317
 C1225 C 0.27497 0.39792 -0.06882
 C1226 C 0.26468 0.41013 -0.08165
 H1227 H 0.27732 0.46047 -0.15835
 H1228 H 0.34073 0.43241 -0.17551
 H1229 H 0.29400 0.47280 -0.18585
 H1230 H 0.34065 0.41113 -0.14826
 H1231 H 0.32658 0.39895 -0.11971
 H1232 H 0.26257 0.44665 -0.13598
 H1233 H 0.24852 0.43422 -0.10732
 H1234 H 0.31735 0.39392 -0.09212
 H1235 H 0.30221 0.38292 -0.06348
 H1236 H 0.25005 0.41470 -0.07822
 C1237 C 0.80667 0.96899 0.33989
 C1238 C 0.81672 0.95712 0.35357
 C1239 C 0.83665 0.95309 0.35025
 C1240 C 0.84579 0.96027 0.33376
 C1241 C 0.83564 0.97198 0.32036
 C1242 C 0.81601 0.97626 0.32364
 C1243 C 0.84746 0.94189 0.36335
 C1244 C 0.83906 0.93464 0.37990
 C1245 C 0.81925 0.93809 0.38395
 C1246 C 0.80777 0.94916 0.37038
 C1247 C 0.78769 0.95161 0.37391
 C1248 C 0.77907 0.94353 0.39004
 C1249 C 0.79010 0.93298 0.40352
 C1250 C 0.81043 0.93042 0.40091
 C1251 C 0.82103 0.92023 0.41545
 C1252 C 0.81166 0.91226 0.43134
 C1253 C 0.79146 0.91418 0.43342
 C1254 C 0.78082 0.92480 0.41954
 H1255 H 0.79167 0.97323 0.34142
 H1256 H 0.86090 0.95655 0.33131
 H1257 H 0.80786 0.98556 0.31375
 H1258 H 0.86270 0.93872 0.36083
 H1259 H 0.84849 0.92599 0.38907
 H1260 H 0.77801 0.95939 0.36424
 H1261 H 0.76354 0.94556 0.39198
 H1262 H 0.83659 0.91813 0.41506
 H1263 H 0.82023 0.90410 0.44184
 H1264 H 0.76522 0.92667 0.42121
 C1265 C 0.82100 0.01300 1.14679
 C1266 C 0.81444 0.03188 1.14237
 C1267 C 0.81674 0.04536 1.15648
 C1268 C 0.82594 0.04027 1.17379
 C1269 C 0.83313 0.02166 1.17783
 C1270 C 0.83006 0.00803 1.16413
 C1271 C 0.80994 0.06400 1.15333
 C1272 C 0.80101 0.06975 1.13636
 C1273 C 0.79867 0.05707 1.12160
 C1274 C 0.80570 0.03787 1.12455
 C1275 C 0.80408 0.02545 1.10947
 C1276 C 0.79587 0.03150 1.09217
 C1277 C 0.78869 0.05005 1.08917
 C1278 C 0.78977 0.06306 1.10391
 C1279 C 0.78185 0.08157 1.10027
 C1280 C 0.77353 0.08691 1.08280
 C1281 C 0.77269 0.07411 1.06824
 C1282 C 0.78039 0.05568 1.07149
 H1283 H 0.81946 0.00168 1.13714
 H1284 H 0.82688 0.05093 1.18433
 H1285 H 0.83547 -0.00644 1.16621
 H1286 H 0.81160 0.07436 1.16411
 H1287 H 0.79644 0.08446 1.13522
 H1288 H 0.80935 0.01094 1.11045
 H1289 H 0.79510 0.02148 1.08099
 H1290 H 0.78167 0.09234 1.11060
 H1291 H 0.76791 0.10132 1.08059
 H1292 H 0.77966 0.04563 1.06033
 C1293 C 0.33143 0.51805 0.64117
 C1294 C 0.31217 0.52529 0.63903
 C1295 C 0.30021 0.52480 0.65529
 C1296 C 0.30734 0.51723 0.67278
 C1297 C 0.32645 0.51013 0.67458
 C1298 C 0.33835 0.51066 0.65860
 C1299 C 0.28121 0.53196 0.65407
 C1300 C 0.27383 0.53999 0.63717
 C1301 C 0.28518 0.54110 0.62060
 C1302 C 0.30452 0.53324 0.62145
 C1303 C 0.31557 0.53361 0.60471
 C1304 C 0.30834 0.54188 0.58789
 C1305 C 0.28984 0.55019 0.58696
 C1306 C 0.27788 0.54985 0.60321
 C1307 C 0.25922 0.55857 0.60136
 C1308 C 0.25298 0.56740 0.58425
 C1309 C 0.26500 0.56787 0.56836
 C1310 C 0.28335 0.55902 0.56981
 H1311 H 0.34172 0.51813 0.62979
 H1312 H 0.29795 0.51680 0.68503
 H1313 H 0.35332 0.50568 0.65963
 H1314 H 0.27196 0.53152 0.66642
 H1315 H 0.25905 0.54517 0.63760
 H1316 H 0.32998 0.52753 0.60402
 H1317 H 0.31746 0.54194 0.57546
 H1318 H 0.24917 0.55918 0.61290
 H1319 H 0.23882 0.57435 0.58362
 H1320 H 0.29268 0.55905 0.55753
 C1321 C 0.20584 0.53927 0.33093
 C1322 C 0.19409 0.53923 0.34731
 C1323 C 0.17429 0.53377 0.34538
 C1324 C 0.16675 0.52878 0.32784
 C1325 C 0.17843 0.52937 0.31170
 C1326 C 0.19809 0.53440 0.31347
 C1327 C 0.16194 0.53354 0.36089
 C1328 C 0.16849 0.53942 0.37823
 C1329 C 0.18784 0.54572 0.38082
 C1330 C 0.20109 0.54483 0.36536
 C1331 C 0.22081 0.54970 0.36844
 C1332 C 0.22719 0.55610 0.38570
 C1333 C 0.21420 0.55821 0.40049
 C1334 C 0.19434 0.55301 0.39834
 C1335 C 0.18166 0.55599 0.41362
 C1336 C 0.18839 0.56413 0.43003
 C1337 C 0.20795 0.56939 0.43194
 C1338 C 0.22088 0.56603 0.41727
 H1339 H 0.22096 0.54343 0.33097
 H1340 H 0.15160 0.52449 0.32672
 H1341 H 0.20740 0.53506 0.30119
 H1342 H 0.14688 0.52905 0.35953
 H1343 H 0.15795 0.53873 0.38940
 H1344 H 0.23179 0.54866 0.35777
 H1345 H 0.24243 0.55986 0.38733
 H1346 H 0.16631 0.55281 0.41319
 H1347 H 0.17816 0.56657 0.44124
 H1348 H 0.23601 0.57033 0.41858
 C1349 C 0.69808 0.01347 0.83888
 C1350 C 0.68816 0.02687 0.84972
 C1351 C 0.67005 0.03398 0.84258
 C1352 C 0.66268 0.02842 0.82516
 C1353 C 0.67278 0.01542 0.81421
 C1354 C 0.69047 0.00780 0.82159
 C1355 C 0.65919 0.04668 0.85282
 C1356 C 0.66593 0.05274 0.87000
 C1357 C 0.68407 0.04648 0.87768
 C1358 C 0.69550 0.03348 0.86730
 C1359 C 0.71401 0.02789 0.87466
 C1360 C 0.72127 0.03499 0.89133
 C1361 C 0.71033 0.04769 0.90155
 C1362 C 0.69138 0.05327 0.89513
 C1363 C 0.68062 0.06565 0.90638
 C1364 C 0.68882 0.07311 0.92250
 C1365 C 0.70791 0.06839 0.92820
 C1366 C 0.71842 0.05522 0.91797
 H1367 H 0.71176 0.00702 0.84333
 H1368 H 0.64845 0.03376 0.82066
 H1369 H 0.69905 -0.00204 0.81375
 H1370 H 0.64527 0.05212 0.84742
 H1371 H 0.65664 0.06277 0.87668
 H1372 H 0.72354 0.01834 0.86760
 H1373 H 0.73572 0.03058 0.89619
 H1374 H 0.66582 0.07000 0.90318
 H1375 H 0.68019 0.08282 0.93049
 H1376 H 0.73318 0.05140 0.92237
 C1377 C 0.66295 0.93145 0.65132
 C1378 C 0.68112 0.93652 0.64321
 C1379 C 0.69291 0.94967 0.65275
 C1380 C 0.68616 0.95804 0.66918
 C1381 C 0.66770 0.95348 0.67642
 C1382 C 0.65642 0.93985 0.66754
 C1383 C 0.71126 0.95457 0.64575
 C1384 C 0.71825 0.94675 0.62944
 C1385 C 0.70696 0.93387 0.61920
 C1386 C 0.68793 0.92895 0.62603
 C1387 C 0.67615 0.91696 0.61526
 C1388 C 0.68281 0.90959 0.59870
 C1389 C 0.70149 0.91370 0.59217
 C1390 C 0.71393 0.92586 0.60224
 C1391 C 0.73283 0.92932 0.59489
 C1392 C 0.73899 0.92096 0.57840
 C1393 C 0.72659 0.90891 0.56863
 C1394 C 0.70777 0.90557 0.57555
 H1395 H 0.65340 0.92095 0.64563
 H1396 H 0.69505 0.96851 0.67601
 H1397 H 0.64236 0.93562 0.67319
 H1398 H 0.72037 0.96459 0.65297
 H1399 H 0.73254 0.95139 0.62506
 H1400 H 0.66144 0.91318 0.61903
 H1401 H 0.67319 0.90044 0.59094
 H1402 H 0.74338 0.93813 0.60166
 H1403 H 0.75371 0.92361 0.57353
 H1404 H 0.69787 0.89658 0.56795
 C1405 C 0.17859 0.43113 0.16351
 C1406 C 0.18911 0.43933 0.14804
 C1407 C 0.19464 0.45876 0.14885
 C1408 C 0.18892 0.46961 0.16405
 C1409 C 0.17785 0.46142 0.17884
 C1410 C 0.17306 0.44204 0.17856
 C1411 C 0.20564 0.46737 0.13438
 C1412 C 0.21125 0.45721 0.11897
 C1413 C 0.20578 0.43796 0.11721
 C1414 C 0.19423 0.42897 0.13184
 C1415 C 0.18778 0.41010 0.12957
 C1416 C 0.19255 0.40024 0.11373
 C1417 C 0.20415 0.40860 0.09959
 C1418 C 0.21115 0.42748 0.10114
 C1419 C 0.22329 0.43499 0.08652
 C1420 C 0.22798 0.42426 0.07106
 C1421 C 0.22077 0.40571 0.06951
 C1422 C 0.20877 0.39805 0.08388
 H1423 H 0.17435 0.41635 0.16449
 H1424 H 0.19300 0.48453 0.16433
 H1425 H 0.16447 0.43535 0.18978
 H1426 H 0.20994 0.48221 0.13495
 H1427 H 0.21957 0.46509 0.10842
 H1428 H 0.17859 0.40256 0.13963
 H1429 H 0.18712 0.38582 0.11258
 H1430 H 0.22970 0.44898 0.08669
 H1431 H 0.23763 0.43043 0.06043
 H1432 H 0.20285 0.38382 0.08279
 C1433 C -0.13164 0.33923 0.47437
 C1434 C -0.13289 0.32320 0.46299
 C1435 C -0.15162 0.31520 0.46014
 C1436 C -0.16836 0.32365 0.46759
 C1437 C -0.16687 0.34011 0.47801
 C1438 C -0.14833 0.34749 0.48164
 C1439 C -0.15363 0.29904 0.44956
 C1440 C -0.13753 0.29079 0.44134
 C1441 C -0.11865 0.29858 0.44313
 C1442 C -0.11629 0.31506 0.45415
 C1443 C -0.09754 0.32323 0.45547
 C1444 C -0.08175 0.31595 0.44604
 C1445 C -0.08383 0.30010 0.43508
 C1446 C -0.10213 0.29083 0.43379
 C1447 C -0.10310 0.27438 0.42289
 C1448 C -0.08686 0.26814 0.41304
 C1449 C -0.06918 0.27801 0.41370
 C1450 C -0.06768 0.29373 0.42508
 H1451 H -0.11803 0.34585 0.47795
 H1452 H -0.18263 0.31776 0.46471
 H1453 H -0.14668 0.35983 0.49016
 H1454 H -0.16788 0.29278 0.44745
 H1455 H -0.14053 0.27851 0.43324
 H1456 H -0.09457 0.33568 0.46332
 H1457 H -0.06775 0.32298 0.44717
 H1458 H -0.11619 0.26609 0.42150
 H1459 H -0.08833 0.25589 0.40439
 H1460 H -0.05388 0.30120 0.42596
 C1461 C 0.36638 0.82061 0.97938
 C1462 C 0.36298 0.80929 0.96364
 C1463 C 0.34348 0.80785 0.95691
 C1464 C 0.32817 0.81715 0.96584
 C1465 C 0.33195 0.82866 0.98104
 C1466 C 0.35111 0.83023 0.98777
 C1467 C 0.33940 0.79757 0.94100
 C1468 C 0.35432 0.78938 0.93099
 C1469 C 0.37402 0.79080 0.93679
 C1470 C 0.37829 0.79995 0.95397
 C1471 C 0.39770 0.79941 0.96089
 C1472 C 0.41257 0.79097 0.95098
 C1473 C 0.40886 0.78321 0.93355
 C1474 C 0.38958 0.78319 0.92608
 C1475 C 0.38678 0.77606 0.90791
 C1476 C 0.40237 0.76889 0.89787
 C1477 C 0.42132 0.76837 0.90555
 C1478 C 0.42441 0.77558 0.92347
 H1479 H 0.38075 0.82296 0.98509
 H1480 H 0.31338 0.81619 0.96037
 H1481 H 0.35430 0.83919 0.99946
 H1482 H 0.32450 0.79620 0.93594
 H1483 H 0.34987 0.78167 0.91889
 H1484 H 0.40184 0.80507 0.97422
 H1485 H 0.42723 0.79086 0.95688
 H1486 H 0.37283 0.77637 0.90074
 H1487 H 0.39956 0.76407 0.88381
 H1488 H 0.43894 0.77525 0.92965
 C1489 C 1.17360 0.81036 0.04391
 C1490 C 1.15598 0.82077 0.04567
 C1491 C 1.15656 0.84080 0.04180
 C1492 C 1.17390 0.84973 0.03583
 C1493 C 1.19110 0.83915 0.03395
 C1494 C 1.19081 0.81945 0.03819
 C1495 C 1.13988 0.85188 0.04395
 C1496 C 1.12260 0.84365 0.05028
 C1497 C 1.12118 0.82379 0.05442
 C1498 C 1.13795 0.81208 0.05141
 C1499 C 1.13608 0.79208 0.05405
 C1500 C 1.11873 0.78381 0.06012
 C1501 C 1.10262 0.79507 0.06412
 C1502 C 1.10354 0.81522 0.06139
 C1503 C 1.08686 0.82592 0.06617
 C1504 C 1.07021 0.81696 0.07349
 C1505 C 1.06944 0.79704 0.07621
 C1506 C 1.08566 0.78621 0.07115
 H1507 H 1.17470 0.79522 0.04712
 H1508 H 1.17410 0.86507 0.03294
 H1509 H 1.20393 0.81096 0.03685
 H1510 H 1.14021 0.86719 0.04089
 H1511 H 1.11045 0.85329 0.05147
 H1512 H 1.14773 0.78229 0.05125
 H1513 H 1.11803 0.76838 0.06199
 H1514 H 1.08637 0.84129 0.06501
 H1515 H 1.05810 0.82577 0.07760
 H1516 H 1.08520 0.77076 0.07289
 C1517 C 0.67514 0.30777 0.54455
 C1518 C 0.65742 0.31754 0.54783
 C1519 C 0.65723 0.33768 0.54474
 C1520 C 0.67384 0.34734 0.53799
 C1521 C 0.69111 0.33741 0.53452
 C1522 C 0.69167 0.31760 0.53807
 C1523 C 0.64048 0.34816 0.54841
 C1524 C 0.62390 0.33918 0.55547
 C1525 C 0.62326 0.31918 0.55887
 C1526 C 0.64003 0.30811 0.55430
 C1527 C 0.63875 0.28800 0.55608
 C1528 C 0.62194 0.27900 0.56265
 C1529 C 0.60587 0.28961 0.56812
 C1530 C 0.60631 0.30985 0.56648
 C1531 C 0.58989 0.31989 0.57294
 C1532 C 0.57381 0.31022 0.58056
 C1533 C 0.57334 0.29021 0.58194
 C1534 C 0.58943 0.28003 0.57546
 H1535 H 0.67684 0.29258 0.54713
 H1536 H 0.67343 0.36275 0.53568
 H1537 H 0.70489 0.30963 0.53556
 H1538 H 0.64023 0.36355 0.54593
 H1539 H 0.61161 0.34839 0.55774
 H1540 H 0.65042 0.27870 0.55215
 H1541 H 0.62163 0.26352 0.56374
 H1542 H 0.58919 0.33524 0.57289
 H1543 H 0.56192 0.31855 0.58591
 H1544 H 0.58925 0.26454 0.57624
 C1545 C 0.34582 0.16467 0.56038
 C1546 C 0.35659 0.18010 0.55224
 C1547 C 0.34938 0.18900 0.53515
 C1548 C 0.33272 0.18184 0.52613
 C1549 C 0.32280 0.16595 0.53401
 C1550 C 0.32930 0.15779 0.55139
 C1551 C 0.35891 0.20491 0.52711
 C1552 C 0.37538 0.21232 0.53569
 C1553 C 0.38335 0.20378 0.55254
 C1554 C 0.37411 0.18705 0.56061
 C1555 C 0.38292 0.17751 0.57652
 C1556 C 0.39977 0.18438 0.58471
 C1557 C 0.40844 0.20111 0.57759
 C1558 C 0.40041 0.21118 0.56148
 C1559 C 0.40974 0.22832 0.55519
 C1560 C 0.42626 0.23501 0.56454
 C1561 C 0.43409 0.22490 0.58042
 C1562 C 0.42516 0.20783 0.58667
 H1563 H 0.34952 0.15774 0.57384
 H1564 H 0.32772 0.18841 0.51277
 H1565 H 0.32149 0.14599 0.55821
 H1566 H 0.35350 0.21180 0.51405
 H1567 H 0.38182 0.22459 0.52849
 H1568 H 0.37743 0.16435 0.58281
 H1569 H 0.40600 0.17652 0.59690
 H1570 H 0.40444 0.23713 0.54335
 H1571 H 0.43266 0.24840 0.55954
 H1572 H 0.43126 0.19963 0.59870
 C1573 C 0.84246 0.66803 0.05692
 C1574 C 0.85326 0.68281 0.04766
 C1575 C 0.84554 0.69109 0.03050
 C1576 C 0.82834 0.68391 0.02250
 C1577 C 0.81828 0.66871 0.03155
 C1578 C 0.82535 0.66119 0.04899
 C1579 C 0.85505 0.70647 0.02143
 C1580 C 0.87190 0.71407 0.02916
 C1581 C 0.88030 0.70617 0.04609
 C1582 C 0.87121 0.68981 0.05505
 C1583 C 0.88056 0.68070 0.07090
 C1584 C 0.89763 0.68785 0.07838
 C1585 C 0.90600 0.70445 0.07057
 C1586 C 0.89756 0.71393 0.05432
 C1587 C 0.90663 0.73094 0.04729
 C1588 C 0.92310 0.73824 0.05624
 C1589 C 0.93117 0.72884 0.07240
 C1590 C 0.92271 0.71172 0.07919
 H1591 H 0.84655 0.66171 0.07055
 H1592 H 0.82296 0.68998 0.00907
 H1593 H 0.81748 0.65001 0.05674
 H1594 H 0.84927 0.71288 0.00830
 H1595 H 0.87826 0.72596 0.02125
 H1596 H 0.87526 0.66768 0.07769
 H1597 H 0.90422 0.68040 0.09063
 H1598 H 0.90105 0.73928 0.03524
 H1599 H 0.92920 0.75161 0.05079
 H1600 H 0.92905 0.70405 0.09143
 C1601 C 0.64835 0.70085 0.96573
 C1602 C 0.64202 0.69460 0.94795
 C1603 C 0.65391 0.68113 0.93904
 C1604 C 0.67137 0.67447 0.94758
 C1605 C 0.67706 0.68041 0.96538
 C1606 C 0.66550 0.69372 0.97430
 C1607 C 0.64809 0.67395 0.92187
 C1608 C 0.63030 0.67921 0.91362
 C1609 C 0.61770 0.69221 0.92210
 C1610 C 0.62409 0.70077 0.93901
 C1611 C 0.61239 0.71527 0.94634
 C1612 C 0.59483 0.72085 0.93775
 C1613 C 0.58791 0.71190 0.92187
 C1614 C 0.59904 0.69720 0.91400
 C1615 C 0.59084 0.68785 0.89855
 C1616 C 0.57283 0.69349 0.89078
 C1617 C 0.56230 0.70864 0.89801
 C1618 C 0.56988 0.71764 0.91375
 H1619 H 0.64006 0.71069 0.97373
 H1620 H 0.68009 0.66386 0.94079
 H1621 H 0.66960 0.69840 0.98814
 H1622 H 0.65723 0.66385 0.91488
 H1623 H 0.62702 0.67307 0.90031
 H1624 H 0.61663 0.72296 0.95852
 H1625 H 0.58645 0.73217 0.94378
 H1626 H 0.59776 0.67586 0.89235
 H1627 H 0.56707 0.68580 0.87906
 H1628 H 0.56194 0.72939 0.91951
 C1629 C 0.14410 0.16841 0.46254
 C1630 C 0.14345 0.18621 0.45225
 C1631 C 0.16122 0.19635 0.44991
 C1632 C 0.17867 0.18916 0.45824
 C1633 C 0.17887 0.17172 0.46880
 C1634 C 0.16146 0.16138 0.47060
 C1635 C 0.16151 0.21360 0.43927
 C1636 C 0.14463 0.22091 0.43056
 C1637 C 0.12656 0.21139 0.43244
 C1638 C 0.12585 0.19408 0.44399
 C1639 C 0.10755 0.18533 0.44711
 C1640 C 0.09062 0.19276 0.43874
 C1641 C 0.09117 0.20908 0.42675
 C1642 C 0.10910 0.21864 0.42331
 C1643 C 0.10879 0.23488 0.41059
 C1644 C 0.09145 0.24119 0.40176
 C1645 C 0.07383 0.23170 0.40536
 C1646 C 0.07380 0.21574 0.41801
 H1647 H 0.13158 0.15929 0.46432
 H1648 H 0.19206 0.19725 0.45665
 H1649 H 0.16128 0.14753 0.47807
 H1650 H 0.17500 0.22148 0.43749
 H1651 H 0.14621 0.23432 0.42266
 H1652 H 0.10568 0.17279 0.45629
 H1653 H 0.07693 0.18551 0.44156
 H1654 H 0.12170 0.24283 0.40682
 H1655 H 0.09182 0.25362 0.39207
 H1656 H 0.06027 0.20812 0.42063
 C1657 C 0.58764 0.08396 0.68010
 C1658 C 0.57472 0.09593 0.68964
 C1659 C 0.56853 0.08961 0.70794
 C1660 C 0.57582 0.07247 0.71651
 C1661 C 0.58929 0.06129 0.70712
 C1662 C 0.59478 0.06704 0.68874
 C1663 C 0.55531 0.10053 0.71771
 C1664 C 0.54808 0.11769 0.70982
 C1665 C 0.55404 0.12485 0.69181
 C1666 C 0.56781 0.11390 0.68168
 C1667 C 0.57455 0.12146 0.66410
 C1668 C 0.56793 0.13890 0.65649
 C1669 C 0.55421 0.14951 0.66592
 C1670 C 0.54693 0.14270 0.68366
 C1671 C 0.53281 0.15411 0.69239
 C1672 C 0.52634 0.17142 0.68383
 C1673 C 0.53369 0.17802 0.66633
 C1674 C 0.54775 0.16698 0.65758
 H1675 H 0.59251 0.08712 0.66589
 H1676 H 0.57144 0.06812 0.73073
 H1677 H 0.60474 0.05838 0.68096
 H1678 H 0.55050 0.09577 0.73169
 H1679 H 0.53802 0.12519 0.71842
 H1680 H 0.58530 0.11442 0.65589
 H1681 H 0.57361 0.14411 0.64298
 H1682 H 0.52620 0.14999 0.70569
 H1683 H 0.51525 0.17949 0.69080
 H1684 H 0.55383 0.17207 0.64419
 C1685 C 1.09714 0.60207 0.17811
 C1686 C 1.08028 0.61073 0.18542
 C1687 C 1.07165 0.60173 0.20164
 C1688 C 1.07970 0.58484 0.21003
 C1689 C 1.09656 0.57672 0.20271
 C1690 C 1.10508 0.58544 0.18665
 C1691 C 1.05513 0.60970 0.20954
 C1692 C 1.04699 0.62654 0.20186
 C1693 C 1.05502 0.63617 0.18579
 C1694 C 1.07183 0.62801 0.17731
 C1695 C 1.07965 0.63739 0.16101
 C1696 C 1.07149 0.65413 0.15326
 C1697 C 1.05526 0.66233 0.16138
 C1698 C 1.04677 0.65363 0.17780
 C1699 C 1.03040 0.66287 0.18548
 C1700 C 1.02273 0.67973 0.17697
 C1701 C 1.03105 0.68796 0.16056
 C1702 C 1.04744 0.67924 0.15300
 H1703 H 1.10475 0.60778 0.16589
 H1704 H 1.07312 0.57827 0.22258
 H1705 H 1.11797 0.57929 0.18057
 H1706 H 1.04844 0.60286 0.22190
 H1707 H 1.03426 0.63161 0.20889
 H1708 H 1.09210 0.63214 0.15369
 H1709 H 1.07800 0.66075 0.14070
 H1710 H 1.02310 0.65748 0.19801
 H1711 H 1.01000 0.68616 0.18306
 H1712 H 1.05425 0.68572 0.14052
 C1713 C 0.95733 0.92170 0.20669
 C1714 C 0.94840 0.90347 0.20698
 C1715 C 0.92995 0.90158 0.21578
 C1716 C 0.92098 0.91727 0.22375
 C1717 C 0.92990 0.93524 0.22312
 C1718 C 0.94818 0.93726 0.21459
 C1719 C 0.92033 0.88409 0.21640
 C1720 C 0.92827 0.86843 0.20799
 C1721 C 0.94632 0.86958 0.19855
 C1722 C 0.95685 0.88722 0.19853
 C1723 C 0.97537 0.88802 0.18996
 C1724 C 0.98305 0.87246 0.18108
 C1725 C 0.97258 0.85550 0.18021
 C1726 C 0.95410 0.85373 0.18898
 C1727 C 0.94398 0.83628 0.18736
 C1728 C 0.95171 0.82155 0.17717
 C1729 C 0.96981 0.82351 0.16834
 C1730 C 0.98035 0.84041 0.17021
 H1731 H 0.97124 0.92457 0.20023
 H1732 H 0.90666 0.91559 0.22997
 H1733 H 0.95548 0.95096 0.21404
 H1734 H 0.90634 0.88253 0.22331
 H1735 H 0.91979 0.85555 0.20922
 H1736 H 0.98443 0.90055 0.18985
 H1737 H 0.99725 0.87384 0.17455
 H1738 H 0.92984 0.83361 0.19340
 H1739 H 0.94338 0.80852 0.17609
 H1740 H 0.99430 0.84211 0.16324
 C1741 C 0.42129 0.37978 0.73624
 C1742 C 0.43685 0.38092 0.72324
 C1743 C 0.44369 0.39936 0.71752
 C1744 C 0.43415 0.41583 0.72339
 C1745 C 0.41781 0.41435 0.73514
 C1746 C 0.41196 0.39620 0.74198
 C1747 C 0.45963 0.40131 0.70553
 C1748 C 0.46868 0.38537 0.69856
 C1749 C 0.46178 0.36672 0.70296
 C1750 C 0.44552 0.36448 0.71542
 C1751 C 0.43784 0.34598 0.71892
 C1752 C 0.44532 0.33031 0.71015
 C1753 C 0.46102 0.33228 0.69789
 C1754 C 0.46999 0.35033 0.69461
 C1755 C 0.48657 0.35118 0.68277
 C1756 C 0.49298 0.33509 0.67365
 C1757 C 0.48314 0.31771 0.67601
 C1758 C 0.46747 0.31628 0.68849
 H1759 H 0.41587 0.36644 0.74222
 H1760 H 0.43894 0.42979 0.71809
 H1761 H 0.39989 0.39465 0.75168
 H1762 H 0.46505 0.41536 0.70125
 H1763 H 0.48062 0.38825 0.68910
 H1764 H 0.42544 0.34316 0.72782
 H1765 H 0.43853 0.31651 0.71282
 H1766 H 0.49485 0.36405 0.68014
 H1767 H 0.50528 0.33642 0.66418
 H1768 H 0.46009 0.30270 0.69065
 C1769 C 0.43592 0.58094 0.76548
 C1770 C 0.42562 0.59476 0.77550
 C1771 C 0.40611 0.59052 0.78066
 C1772 C 0.39744 0.57329 0.77588
 C1773 C 0.40797 0.55957 0.76639
 C1774 C 0.42720 0.56366 0.76106
 C1775 C 0.39533 0.60334 0.79083
 C1776 C 0.40376 0.61994 0.79692
 C1777 C 0.42335 0.62454 0.79283
 C1778 C 0.43412 0.61231 0.78106
 C1779 C 0.45297 0.61806 0.77530
 C1780 C 0.46140 0.63467 0.78156
 C1781 C 0.45165 0.64594 0.79419
 C1782 C 0.43253 0.64098 0.80012
 C1783 C 0.42365 0.65228 0.81372
 C1784 C 0.43342 0.66768 0.82110
 C1785 C 0.45218 0.67256 0.81507
 C1786 C 0.46114 0.66189 0.80136
 H1787 H 0.45092 0.58274 0.76137
 H1788 H 0.38241 0.57050 0.77974
 H1789 H 0.43576 0.55324 0.75390
 H1790 H 0.38029 0.60033 0.79449
 H1791 H 0.39434 0.62906 0.80463
 H1792 H 0.46156 0.61011 0.76570
 H1793 H 0.47594 0.63847 0.77682
 H1794 H 0.40949 0.64919 0.81954
 H1795 H 0.42636 0.67574 0.83181
 H1796 H 0.47582 0.66551 0.79690
 C1797 C -0.05288 0.08567 0.29868
 C1798 C -0.05912 0.10448 0.29331
 C1799 C -0.07384 0.10663 0.27915
 C1800 C -0.08263 0.09055 0.27165
 C1801 C -0.07670 0.07207 0.27762
 C1802 C -0.06154 0.06980 0.29091
 C1803 C -0.07984 0.12481 0.27261
 C1804 C -0.07156 0.14104 0.27978
 C1805 C -0.05720 0.13974 0.29422
 C1806 C -0.05128 0.12115 0.30146
 C1807 C -0.03817 0.11984 0.31698
 C1808 C -0.03090 0.13605 0.32503
 C1809 C -0.03600 0.15423 0.31774
 C1810 C -0.04892 0.15641 0.30202
 C1811 C -0.05292 0.17524 0.29479
 C1812 C -0.04490 0.19109 0.30321
 C1813 C -0.03264 0.18883 0.31912
 C1814 C -0.02826 0.17027 0.32623
 H1815 H -0.04122 0.08269 0.30871
 H1816 H -0.09411 0.09238 0.26105
 H1817 H -0.05664 0.05563 0.29564
 H1818 H -0.09107 0.12653 0.26177
 H1819 H -0.07723 0.15447 0.27404
 H1820 H -0.03364 0.10642 0.32367
 H1821 H -0.02109 0.13431 0.33709
 H1822 H -0.06191 0.17825 0.28245
 H1823 H -0.04815 0.20520 0.29705
 H1824 H -0.01901 0.16822 0.33867
 C1825 C 0.09679 0.40671 0.29011
 C1826 C 0.07827 0.39971 0.28484
 C1827 C 0.06691 0.41111 0.27174
 C1828 C 0.07401 0.42873 0.26433
 C1829 C 0.09225 0.43549 0.27005
 C1830 C 0.10356 0.42422 0.28283
 C1831 C 0.04844 0.40498 0.26629
 C1832 C 0.04070 0.38802 0.27388
 C1833 C 0.05126 0.37630 0.28720
 C1834 C 0.07056 0.38203 0.29240
 C1835 C 0.08148 0.36996 0.30510
 C1836 C 0.07361 0.35338 0.31318
 C1837 C 0.05459 0.34804 0.30895
 C1838 C 0.04315 0.35915 0.29571
 C1839 C 0.02395 0.35271 0.29189
 C1840 C 0.01644 0.33636 0.30130
 C1841 C 0.02773 0.32593 0.31478
 C1842 C 0.04692 0.33167 0.31821
 H1843 H 0.10643 0.39923 0.30002
 H1844 H 0.06513 0.43741 0.25447
 H1845 H 0.11788 0.42894 0.28720
 H1846 H 0.03972 0.41355 0.25621
 H1847 H 0.02629 0.38451 0.26899
 H1848 H 0.09628 0.37286 0.30923
 H1849 H 0.08249 0.34475 0.32308
 H1850 H 0.01421 0.36013 0.28202
 H1851 H 0.00155 0.33217 0.29841
 H1852 H 0.05589 0.32341 0.32833
 C1853 C 0.58711 0.88744 0.78328
 C1854 C 0.56681 0.88392 0.78230
 C1855 C 0.55433 0.89941 0.77671
 C1856 C 0.56217 0.91737 0.77129
 C1857 C 0.58234 0.92044 0.77221
 C1858 C 0.59465 0.90541 0.77838
 C1859 C 0.53413 0.89695 0.77677
 C1860 C 0.52597 0.87961 0.78289
 C1861 C 0.53778 0.86377 0.78858
 C1862 C 0.55851 0.86570 0.78724
 C1863 C 0.57029 0.84931 0.79063
 C1864 C 0.56226 0.83191 0.79641
 C1865 C 0.54227 0.83019 0.79943
 C1866 C 0.52965 0.84601 0.79554
 C1867 C 0.50954 0.84348 0.79942
 C1868 C 0.50252 0.82617 0.80731
 C1869 C 0.51521 0.81075 0.81140
 C1870 C 0.53496 0.81277 0.80680
 H1871 H 0.59754 0.87678 0.78829
 H1872 H 0.55258 0.92909 0.76677
 H1873 H 0.61029 0.90753 0.77924
 H1874 H 0.52449 0.90868 0.77242
 H1875 H 0.51026 0.87895 0.78263
 H1876 H 0.58585 0.84936 0.78857
 H1877 H 0.57191 0.81975 0.79902
 H1878 H 0.49899 0.85483 0.79730
 H1879 H 0.48722 0.82514 0.81090
 H1880 H 0.54488 0.80083 0.80946
 C1881 C 0.69455 0.60412 0.10637
 C1882 C 0.69637 0.58476 0.11255
 C1883 C 0.70713 0.57257 0.10112
 C1884 C 0.71468 0.57941 0.08366
 C1885 C 0.71265 0.59880 0.07740
 C1886 C 0.70253 0.61093 0.08937
 C1887 C 0.71051 0.55361 0.10726
 C1888 C 0.70360 0.54651 0.12459
 C1889 C 0.69239 0.55799 0.13628
 C1890 C 0.68807 0.57721 0.12977
 C1891 C 0.67517 0.58809 0.14043
 C1892 C 0.66702 0.58063 0.15701
 C1893 C 0.67173 0.56225 0.16394
 C1894 C 0.68484 0.55077 0.15399
 C1895 C 0.68987 0.53258 0.16231
 C1896 C 0.68152 0.52590 0.17930
 C1897 C 0.66783 0.53701 0.18841
 C1898 C 0.66318 0.55524 0.18077
 H1899 H 0.68726 0.61458 0.11449
 H1900 H 0.72319 0.56962 0.07568
 H1901 H 0.69958 0.62574 0.08536
 H1902 H 0.71877 0.54415 0.09863
 H1903 H 0.70676 0.53170 0.12817
 H1904 H 0.67047 0.60229 0.13599
 H1905 H 0.65694 0.58942 0.16453
 H1906 H 0.70036 0.52327 0.15617
 H1907 H 0.68542 0.51181 0.18513
 H1908 H 0.65286 0.56402 0.18803
 C1909 C 0.19392 1.09048 0.59789
 C1910 C 0.20071 1.07335 0.60719
 C1911 C 0.21676 1.06388 0.59918
 C1912 C 0.22520 1.07116 0.58231
 C1913 C 0.21832 1.08821 0.57349
 C1914 C 0.20265 1.09773 0.58141
 C1915 C 0.22448 1.04737 0.60818
 C1916 C 0.21693 1.04020 0.62522
 C1917 C 0.20100 1.04910 0.63382
 C1918 C 0.19234 1.06557 0.62430
 C1919 C 0.17548 1.07362 0.63208
 C1920 C 0.16764 1.06625 0.64882
 C1921 C 0.17632 1.05072 0.65864
 C1922 C 0.19322 1.04197 0.65149
 C1923 C 0.20168 1.02657 0.66249
 C1924 C 0.19334 1.01999 0.67952
 C1925 C 0.17632 1.02843 0.68611
 C1926 C 0.16803 1.04389 0.67565
 H1927 H 0.18221 1.09895 0.60315
 H1928 H 0.23752 1.06388 0.57632
 H1929 H 0.19709 1.11093 0.57477
 H1930 H 0.23668 1.04001 0.60211
 H1931 H 0.22376 1.02738 0.63117
 H1932 H 0.16765 1.08548 0.62540
 H1933 H 0.15462 1.07288 0.65418
 H1934 H 0.21483 1.01941 0.65846
 H1935 H 0.20005 1.00804 0.68742
 H1936 H 0.15510 1.05080 0.68089
 C1937 C 0.24395 0.91989 0.89842
 C1938 C 0.23487 0.93800 0.89667
 C1939 C 0.23351 0.94852 0.91318
 C1940 C 0.24015 0.94068 0.93079
 C1941 C 0.24784 0.92191 0.93271
 C1942 C 0.25014 0.91208 0.91591
 C1943 C 0.22496 0.96665 0.91219
 C1944 C 0.21704 0.97430 0.89534
 C1945 C 0.21725 0.96404 0.87866
 C1946 C 0.22672 0.94576 0.87924
 C1947 C 0.22718 0.93555 0.86252
 C1948 C 0.21798 0.94245 0.84608
 C1949 C 0.20803 0.95981 0.84548
 C1950 C 0.20785 0.97115 0.86154
 C1951 C 0.19776 0.98888 0.85983
 C1952 C 0.18761 0.99449 0.84324
 C1953 C 0.18717 0.98271 0.82784
 C1954 C 0.19783 0.96562 0.82893
 H1955 H 0.24646 0.91116 0.88659
 H1956 H 0.23771 0.94893 0.94307
 H1957 H 0.25747 0.89840 0.91581
 H1958 H 0.22404 0.97492 0.92471
 H1959 H 0.21050 0.98824 0.89599
 H1960 H 0.23421 0.92188 0.86165
 H1961 H 0.21836 0.93386 0.83375
 H1962 H 0.19707 0.99860 0.87112
 H1963 H 0.17950 1.00781 0.84271
 H1964 H 0.19788 0.95662 0.81689
 C1965 C 0.71461 0.46064 0.42409
 C1966 C 0.71807 0.45498 0.40547
 C1967 C 0.73050 0.43902 0.40330
 C1968 C 0.73894 0.42928 0.41913
 C1969 C 0.73480 0.43464 0.43748
 C1970 C 0.72279 0.45057 0.43976
 C1971 C 0.73413 0.43253 0.38538
 C1972 C 0.72487 0.44082 0.36953
 C1973 C 0.71172 0.45623 0.37095
 C1974 C 0.70912 0.46412 0.38903
 C1975 C 0.69759 0.48078 0.39006
 C1976 C 0.68805 0.48884 0.37421
 C1977 C 0.68921 0.48044 0.35680
 C1978 C 0.70102 0.46398 0.35489
 C1979 C 0.70101 0.45551 0.33713
 C1980 C 0.68961 0.46298 0.32210
 C1981 C 0.67805 0.47923 0.32411
 C1982 C 0.67819 0.48812 0.34139
 H1983 H 0.70505 0.47231 0.42712
 H1984 H 0.74851 0.41720 0.41713
 H1985 H 0.71910 0.45491 0.45376
 H1986 H 0.74392 0.42056 0.38362
 H1987 H 0.72851 0.43490 0.35626
 H1988 H 0.69579 0.48810 0.40296
 H1989 H 0.67924 0.50155 0.37571
 H1990 H 0.70905 0.44269 0.33452
 H1991 H 0.68969 0.45590 0.30884
 H1992 H 0.66901 0.50056 0.34308
 C1993 C 0.81287 0.44651 0.59089
 C1994 C 0.80128 0.44743 0.60729
 C1995 C 0.78259 0.43881 0.60692
 C1996 C 0.77607 0.42951 0.59088
 C1997 C 0.78797 0.42841 0.57498
 C1998 C 0.80630 0.43713 0.57512
 C1999 C 0.77055 0.43928 0.62265
 C2000 C 0.77667 0.44791 0.63892
 C2001 C 0.79524 0.45648 0.64018
 C2002 C 0.80767 0.45640 0.62402
 C2003 C 0.82616 0.46513 0.62517
 C2004 C 0.83248 0.47338 0.64153
 C2005 C 0.82071 0.47335 0.65744
 C2006 C 0.80189 0.46502 0.65709
 C2007 C 0.79068 0.46545 0.67380
 C2008 C 0.79801 0.47362 0.69004
 C2009 C 0.81666 0.48171 0.69023
 C2010 C 0.82787 0.48152 0.67380
 H2011 H 0.82717 0.45272 0.58971
 H2012 H 0.76191 0.42265 0.59097
 H2013 H 0.81565 0.43677 0.56290
 H2014 H 0.75622 0.43278 0.62243
 H2015 H 0.76642 0.44753 0.65035
 H2016 H 0.83631 0.46583 0.61367
 H2017 H 0.84685 0.47980 0.64173
 H2018 H 0.77623 0.45954 0.67490
 H2019 H 0.78897 0.47371 0.70249
 H2020 H 0.84250 0.48739 0.67386
 C2021 C 0.32346 -0.06124 0.09119
 C2022 C 0.31132 -0.05556 0.10599
 C2023 C 0.29089 -0.05797 0.10377
 C2024 C 0.28325 -0.06697 0.08798
 C2025 C 0.29567 -0.07349 0.07402
 C2026 C 0.31573 -0.07006 0.07559
 C2027 C 0.27822 -0.05165 0.11747
 C2028 C 0.28533 -0.04300 0.13339
 C2029 C 0.30557 -0.04078 0.13654
 C2030 C 0.31877 -0.04762 0.12283
 C2031 C 0.33901 -0.04692 0.12667
 C2032 C 0.34617 -0.03951 0.14314
 C2033 C 0.33358 -0.03217 0.15631
 C2034 C 0.31311 -0.03239 0.15317
 C2035 C 0.30114 -0.02413 0.16683
 C2036 C 0.30923 -0.01637 0.18296
 C2037 C 0.32946 -0.01662 0.18614
 C2038 C 0.34147 -0.02467 0.17270
 H2039 H 0.33898 -0.05893 0.09110
 H2040 H 0.26768 -0.06942 0.08688
 H2041 H 0.32559 -0.07427 0.06466
 H2042 H 0.26258 -0.05340 0.11586
 H2043 H 0.27452 -0.03871 0.14329
 H2044 H 0.34981 -0.05253 0.11747
 H2045 H 0.36183 -0.03947 0.14554
 H2046 H 0.28551 -0.02308 0.16533
 H2047 H 0.29956 -0.00990 0.19285
 H2048 H 0.35712 -0.02532 0.17505
 C2049 C 0.26001 0.07843 0.39860
 C2050 C 0.27580 0.06543 0.39733
 C2051 C 0.28552 0.05939 0.41437
 C2052 C 0.28059 0.06727 0.43155
 C2053 C 0.26568 0.08090 0.43229
 C2054 C 0.25509 0.08599 0.41583
 C2055 C 0.30043 0.04584 0.41415
 C2056 C 0.30633 0.03839 0.39732
 C2057 C 0.29785 0.04460 0.37982
 C2058 C 0.28247 0.05852 0.37980
 C2059 C 0.27491 0.06569 0.36224
 C2060 C 0.28238 0.05988 0.34528
 C2061 C 0.29732 0.04636 0.34507
 C2062 C 0.30482 0.03799 0.36228
 C2063 C 0.31928 0.02359 0.36116
 C2064 C 0.32680 0.01873 0.34378
 C2065 C 0.32019 0.02796 0.32695
 C2066 C 0.30513 0.04147 0.32767
 H2067 H 0.25120 0.08313 0.38658
 H2068 H 0.28857 0.06302 0.44438
 H2069 H 0.24339 0.09640 0.41615
 H2070 H 0.30780 0.04106 0.42715
 H2071 H 0.31819 0.02827 0.39848
 H2072 H 0.26366 0.07646 0.36104
 H2073 H 0.27649 0.06621 0.33216
 H2074 H 0.32519 0.01583 0.37341
 H2075 H 0.33835 0.00816 0.34356
 H2076 H 0.29967 0.04837 0.31463
 C2077 C 0.75032 0.57536 0.90371
 C2078 C 0.76716 0.56366 0.90248
 C2079 C 0.77808 0.55966 0.91934
 C2080 C 0.77298 0.56800 0.93623
 C2081 C 0.75702 0.58046 0.93686
 C2082 C 0.74542 0.58360 0.92063
 C2083 C 0.79441 0.54781 0.91922
 C2084 C 0.80082 0.54043 0.90256
 C2085 C 0.79123 0.54481 0.88514
 C2086 C 0.77388 0.55630 0.88513
 C2087 C 0.76428 0.56059 0.86769
 C2088 C 0.77175 0.55464 0.85077
 C2089 C 0.78901 0.54406 0.85046
 C2090 C 0.79878 0.53860 0.86765
 C2091 C 0.81606 0.52759 0.86652
 C2092 C 0.82377 0.52319 0.84913
 C2093 C 0.81456 0.52938 0.83220
 C2094 C 0.79685 0.53935 0.83296
 H2095 H 0.74085 0.57880 0.89181
 H2096 H 0.78180 0.56522 0.94887
 H2097 H 0.73296 0.59315 0.92080
 H2098 H 0.80261 0.54447 0.93214
 H2099 H 0.81371 0.53165 0.90386
 H2100 H 0.75108 0.56896 0.86652
 H2101 H 0.76409 0.55868 0.83771
 H2102 H 0.82424 0.52233 0.87874
 H2103 H 0.83719 0.51498 0.84893
 H2104 H 0.78957 0.54414 0.81991
 C2105 C 0.10991 0.73007 0.58406
 C2106 C 0.10758 0.71720 0.56938
 C2107 C 0.08827 0.71193 0.56448
 C2108 C 0.07220 0.71884 0.57433
 C2109 C 0.07490 0.73087 0.58936
 C2110 C 0.09386 0.73667 0.59385
 C2111 C 0.08505 0.69940 0.55010
 C2112 C 0.10058 0.69128 0.54090
 C2113 C 0.12013 0.69535 0.54576
 C2114 C 0.12369 0.70897 0.55983
 C2115 C 0.14324 0.71357 0.56417
 C2116 C 0.15877 0.70454 0.55582
 C2117 C 0.15556 0.69056 0.54282
 C2118 C 0.13623 0.68594 0.53732
 C2119 C 0.13389 0.67165 0.52401
 C2120 C 0.14995 0.66194 0.51717
 C2121 C 0.16892 0.66613 0.52316
 C2122 C 0.17164 0.68081 0.53566
 H2123 H 0.12393 0.73507 0.58866
 H2124 H 0.05760 0.71417 0.57080
 H2125 H 0.09632 0.74629 0.60515
 H2126 H 0.07032 0.69553 0.54613
 H2127 H 0.09666 0.68166 0.53011
 H2128 H 0.14714 0.72403 0.57417
 H2129 H 0.17350 0.70830 0.55990
 H2130 H 0.11987 0.66727 0.51883
 H2131 H 0.14748 0.65092 0.50721
 H2132 H 0.18627 0.68410 0.54045
 C2133 C 0.61667 0.22810 1.07804
 C2134 C 0.61412 0.21523 1.06339
 C2135 C 0.59472 0.21076 1.05806
 C2136 C 0.57874 0.21839 1.06750
 C2137 C 0.58160 0.23056 1.08241
 C2138 C 0.60069 0.23554 1.08734
 C2139 C 0.59128 0.19841 1.04357
 C2140 C 0.60664 0.18991 1.03447
 C2141 C 0.62626 0.19333 1.03959
 C2142 C 0.63007 0.20637 1.05415
 C2143 C 0.64969 0.20977 1.05929
 C2144 C 0.66500 0.20034 1.05102
 C2145 C 0.66152 0.18725 1.03720
 C2146 C 0.64217 0.18377 1.03099
 C2147 C 0.63960 0.17052 1.01668
 C2148 C 0.65543 0.16063 1.00959
 C2149 C 0.67440 0.16361 1.01634
 C2150 C 0.67736 0.17728 1.02987
 H2151 H 0.63078 0.23267 1.08282
 H2152 H 0.56404 0.21433 1.06361
 H2153 H 0.60332 0.24527 1.09851
 H2154 H 0.57647 0.19507 1.03934
 H2155 H 0.60254 0.18043 1.02361
 H2156 H 0.65380 0.21945 1.06996
 H2157 H 0.67978 0.20317 1.05572
 H2158 H 0.62556 0.16724 1.01073
 H2159 H 0.65278 0.15046 0.99882
 H2160 H 0.69196 0.17965 1.03529
 C2161 C 0.89768 0.18445 0.90139
 C2162 C 0.89120 0.18759 0.91982
 C2163 C 0.90053 0.20207 0.92980
 C2164 C 0.91645 0.21217 0.92187
 C2165 C 0.92291 0.20900 0.90335
 C2166 C 0.91298 0.19492 0.89338
 C2167 C 0.89366 0.20667 0.94752
 C2168 C 0.87738 0.19759 0.95531
 C2169 C 0.86770 0.18295 0.94594
 C2170 C 0.87543 0.17719 0.92840
 C2171 C 0.86735 0.16103 0.92014
 C2172 C 0.85158 0.15145 0.92814
 C2173 C 0.84291 0.15780 0.94442
 C2174 C 0.85070 0.17369 0.95356
 C2175 C 0.84080 0.17986 0.96966
 C2176 C 0.82395 0.17062 0.97626
 C2177 C 0.81644 0.15482 0.96719
 C2178 C 0.82630 0.14836 0.95145
 H2179 H 0.89093 0.17424 0.89251
 H2180 H 0.92278 0.22341 0.92988
 H2181 H 0.91749 0.19094 0.87952
 H2182 H 0.90071 0.21770 0.95533
 H2183 H 0.87300 0.20205 0.96899
 H2184 H 0.87324 0.15506 0.90766
 H2185 H 0.84587 0.13912 0.92127
 H2186 H 0.84533 0.19217 0.97711
 H2187 H 0.81651 0.17619 0.98825
 H2188 H 0.82098 0.13593 0.94449
 C2189 C 0.39578 0.72214 0.44553
 C2190 C 0.38679 0.70544 0.43905
 C2191 C 0.39587 0.69623 0.42402
 C2192 C 0.41257 0.70400 0.41540
 C2193 C 0.42090 0.72082 0.42160
 C2194 C 0.41258 0.72963 0.43694
 C2195 C 0.38820 0.67937 0.41750
 C2196 C 0.37165 0.67126 0.42556
 C2197 C 0.36183 0.67990 0.44039
 C2198 C 0.36920 0.69754 0.44691
 C2199 C 0.35847 0.70690 0.46069
 C2200 C 0.34122 0.69930 0.46793
 C2201 C 0.33417 0.68187 0.46211
 C2202 C 0.34457 0.67171 0.44856
 C2203 C 0.33730 0.65366 0.44384
 C2204 C 0.32010 0.64646 0.45165
 C2205 C 0.30939 0.65689 0.46442
 C2206 C 0.31668 0.67455 0.46975
 H2207 H 0.39032 0.72971 0.45727
 H2208 H 0.41921 0.69687 0.40379
 H2209 H 0.41887 0.74259 0.44205
 H2210 H 0.39507 0.67233 0.40597
 H2211 H 0.36662 0.65841 0.41938
 H2212 H 0.36275 0.72049 0.46587
 H2213 H 0.33336 0.70716 0.47828
 H2214 H 0.34471 0.64449 0.43444
 H2215 H 0.31531 0.63245 0.44780
 H2216 H 0.30863 0.68276 0.47969
 C2217 C 0.58779 0.77534 0.44851
 C2218 C 0.59969 0.78960 0.43968
 C2219 C 0.59306 0.79805 0.42218
 C2220 C 0.57557 0.79215 0.41388
 C2221 C 0.56392 0.77809 0.42282
 C2222 C 0.57025 0.76974 0.44019
 C2223 C 0.60386 0.81241 0.41296
 C2224 C 0.62093 0.81907 0.42093
 C2225 C 0.62810 0.81141 0.43846
 C2226 C 0.61772 0.79594 0.44765
 C2227 C 0.62583 0.78725 0.46435
 C2228 C 0.64316 0.79372 0.47209
 C2229 C 0.65293 0.80936 0.46381
 C2230 C 0.64543 0.81860 0.44699
 C2231 C 0.65542 0.83493 0.43963
 C2232 C 0.67214 0.84158 0.44849
 C2233 C 0.67962 0.83223 0.46489
 C2234 C 0.67004 0.81600 0.47242
 H2235 H 0.59138 0.76848 0.46204
 H2236 H 0.57109 0.79849 0.40025
 H2237 H 0.56143 0.75902 0.44756
 H2238 H 0.59896 0.81875 0.39947
 H2239 H 0.62837 0.83007 0.41272
 H2240 H 0.61928 0.77511 0.47168
 H2241 H 0.64885 0.78654 0.48490
 H2242 H 0.65050 0.84323 0.42730
 H2243 H 0.67934 0.85414 0.44242
 H2244 H 0.67563 0.80887 0.48529
 C2245 C 0.09396 0.29180 -0.09562
 C2246 C 0.09912 0.28750 -0.07648
 C2247 C 0.08538 0.27738 -0.06502
 C2248 C 0.06750 0.27145 -0.07271
 C2249 C 0.06272 0.27587 -0.09170
 C2250 C 0.07611 0.28608 -0.10300
 C2251 C 0.08946 0.27336 -0.04592
 C2252 C 0.10668 0.27955 -0.03774
 C2253 C 0.12080 0.28979 -0.04847
 C2254 C 0.11725 0.29322 -0.06830
 C2255 C 0.13199 0.30214 -0.07934
 C2256 C 0.14922 0.30826 -0.07125
 C2257 C 0.15247 0.30595 -0.05184
 C2258 C 0.13839 0.29669 -0.04009
 C2259 C 0.14239 0.29518 -0.02039
 C2260 C 0.15949 0.30271 -0.01285
 C2261 C 0.17325 0.31183 -0.02460
 C2262 C 0.16970 0.31320 -0.04412
 H2263 H 0.10318 0.29985 -0.10527
 H2264 H 0.05711 0.26373 -0.06381
 H2265 H 0.07284 0.28952 -0.11777
 H2266 H 0.07908 0.26553 -0.03710
 H2267 H 0.10860 0.27583 -0.02291
 H2268 H 0.13082 0.30444 -0.09444
 H2269 H 0.16004 0.31514 -0.08031
 H2270 H 0.13245 0.28867 -0.01035
 H2271 H 0.16192 0.30144 0.00229
 H2272 H 0.18009 0.32056 -0.05330
 C2273 C 0.42386 0.30573 0.06057
 C2274 C 0.40644 0.29489 0.06081
 C2275 C 0.40669 0.27700 0.07108
 C2276 C 0.42362 0.27057 0.08086
 C2277 C 0.44046 0.28184 0.08093
 C2278 C 0.44046 0.29930 0.07050
 C2279 C 0.38993 0.26578 0.07189
 C2280 C 0.37263 0.27215 0.06330
 C2281 C 0.37138 0.29010 0.05341
 C2282 C 0.38872 0.30141 0.05169
 C2283 C 0.38770 0.31902 0.04117
 C2284 C 0.37025 0.32586 0.03342
 C2285 C 0.35308 0.31549 0.03574
 C2286 C 0.35333 0.29731 0.04544
 C2287 C 0.33535 0.28740 0.04709
 C2288 C 0.31795 0.29558 0.04000
 C2289 C 0.31785 0.31382 0.03107
 C2290 C 0.33556 0.32348 0.02864
 H2291 H 0.42515 0.31944 0.05318
 H2292 H 0.42344 0.25708 0.08902
 H2293 H 0.45341 0.30814 0.07009
 H2294 H 0.39008 0.25201 0.07956
 H2295 H 0.36040 0.26262 0.06483
 H2296 H 0.40015 0.32807 0.03869
 H2297 H 0.37015 0.33963 0.02576
 H2298 H 0.33409 0.27350 0.05410
 H2299 H 0.30442 0.28784 0.04205
 H2300 H 0.33565 0.33745 0.02137
 C2301 C 0.89739 0.79167 0.60438
 C2302 C 0.89260 0.78813 0.58537
 C2303 C 0.90669 0.77853 0.57470
 C2304 C 0.92468 0.77275 0.58289
 C2305 C 0.92921 0.77668 0.60164
 C2306 C 0.91535 0.78606 0.61228
 C2307 C 0.90291 0.77497 0.55582
 C2308 C 0.88567 0.78120 0.54702
 C2309 C 0.87132 0.79117 0.55685
 C2310 C 0.87458 0.79415 0.57651
 C2311 C 0.85977 0.80315 0.58662
 C2312 C 0.84278 0.80983 0.57776
 C2313 C 0.83981 0.80791 0.55847
 C2314 C 0.85387 0.79843 0.54769
 C2315 C 0.85003 0.79710 0.52809
 C2316 C 0.83325 0.80527 0.51965
 C2317 C 0.81965 0.81490 0.53039
 C2318 C 0.82293 0.81587 0.54987
 H2319 H 0.88779 0.79905 0.61353
 H2320 H 0.93541 0.76566 0.57449
 H2321 H 0.91839 0.78905 0.62688
 H2322 H 0.91354 0.76750 0.54764
 H2323 H 0.88405 0.77790 0.53240
 H2324 H 0.86076 0.80528 0.60155
 H2325 H 0.83195 0.81685 0.58611
 H2326 H 0.85985 0.79023 0.51874
 H2327 H 0.83099 0.80416 0.50459
 H2328 H 0.81268 0.82356 0.55829
   
