data_POSCAR
  _audit_creation_date              2014-09-24
  _audit_creation_method            'ToBaCCo'
  _symmetry_space_group_name_H-M    'P1'
  _symmetry_Int_Tables_number       1
  _symmetry_cell_setting            triclinic
  loop_
  _symmetry_equiv_pos_as_xyz
 x,y,z
_cell_length_a 51.9217
_cell_length_b 52.3938
_cell_length_c 52.2768
_cell_angle_alpha 86.816100
_cell_angle_beta 89.671300
_cell_angle_gamma 87.955600
loop_
  _atom_site_label
  _atom_site_type_symbol
  _atom_site_fract_x
  _atom_site_fract_y
  _atom_site_fract_z
C1 C 0.12909 -0.00096 0.23010
 C2 C 0.36908 -0.00535 0.75467
 C3 C 0.86494 0.51939 0.24491
 C4 C 0.63485 0.49021 0.76572
 C5 C 0.25180 0.12014 0.99367
 C6 C 0.74594 0.37722 0.98344
 C7 C 0.26602 0.87940 0.49424
 C8 C 0.73407 0.62158 0.50973
 C9 C -0.00949 0.23662 0.12005
 C10 C -0.00026 0.76457 0.39033
 C11 C 0.49252 0.25740 0.88674
 C12 C 0.50549 0.73835 0.61760
 C13 C 0.88305 0.98404 0.73234
 C14 C 0.37673 0.49197 0.26457
 C15 C 0.61585 1.02467 0.24847
 C16 C 0.12092 0.50125 0.74408
 C17 C 0.76371 0.86504 -0.00229
 C18 C 0.24381 0.36990 0.48387
 C19 C 0.23725 0.62627 0.00985
 C20 C 0.75548 0.13863 0.49858
 C21 C 1.00348 0.74554 0.88067
 C22 C 0.49410 0.25268 0.37084
 C23 C 0.99468 0.25061 0.63822
 C24 C 0.50120 0.74948 0.12958
 O25 O -0.00924 1.05857 1.02503
 O26 O -0.05048 1.04223 1.02254
 O27 O 0.03910 0.99326 1.04643
 O28 O 0.04807 0.95454 1.03179
 O29 O 0.06153 1.04455 0.98391
 O30 O 0.04783 1.05116 0.94001
 O31 O -0.01584 0.92995 0.96830
 O32 O -0.00784 0.92760 1.01191
 O33 O -0.06719 0.99201 0.95302
 O34 O -0.06769 1.03746 0.96074
 O35 O 0.00297 0.98522 0.90850
 O36 O 0.04819 0.99268 0.91709
 O37 O 0.01061 0.94424 0.93607
 O38 O 0.05520 0.96033 0.93828
 O39 O -0.03577 1.00503 0.91607
 O40 O -0.04328 1.04880 0.93304
 O41 O -0.05664 0.95585 0.97730
 O42 O -0.04455 0.95434 1.02280
 O43 O 0.01742 1.07171 0.99248
 O44 O 0.01427 1.07240 0.94727
 O45 O 0.07111 1.00866 1.00907
 O46 O 0.07111 0.96399 0.99772
 O47 O 0.00232 1.01673 1.05363
 O48 O -0.04209 1.00418 1.04493
 Zr49 Zr -0.01596 1.02022 1.01762
 O50 O -0.03674 0.99867 0.99244
 Zr51 Zr 0.03823 0.98673 1.00712
 O52 O 0.01961 0.96366 0.98177
 Zr53 Zr 0.02376 1.03942 0.97092
 O54 O 0.00460 1.01873 0.94387
 Zr55 Zr -0.01962 0.96182 0.99112
 O56 O -0.00033 0.98240 1.01859
 Zr57 Zr -0.03415 1.01437 0.95475
 O58 O -0.01563 1.03776 0.98034
 Zr59 Zr 0.02031 0.98125 0.94470
 O60 O 0.04163 1.00291 0.96952
 O61 O 0.02276 1.02372 1.00822
 O62 O -0.01863 0.97735 0.95351
 C63 C 0.00402 1.07559 1.01270
 C64 C 0.02350 1.00535 1.06110
 C65 C 0.07683 1.03033 0.99833
 C66 C -0.00335 0.92722 0.94722
 C67 C -0.07243 0.96996 0.96342
 C68 C -0.01920 0.99435 0.90131
 H69 H -0.05478 0.99800 0.99855
 H70 H 0.00629 1.02759 0.92679
 H71 H 0.03199 1.03404 1.02029
 H72 H 0.02784 0.94633 0.98240
 H73 H -0.00261 0.93254 1.02909
 H74 H 0.03990 0.93964 1.02485
 H75 H -0.02956 1.05144 0.92005
 H76 H -0.00453 1.07558 0.94915
 H77 H -0.05288 0.93789 1.02042
 H78 H -0.04271 1.01480 1.06008
 H79 H 0.04259 1.00973 0.90963
 H80 H 0.06069 1.03703 0.93781
 H81 H -0.05279 1.05360 1.00690
 H82 H -0.07552 1.03128 0.97712
 H83 H 0.07803 0.97151 0.98142
 H84 H 0.05604 0.94532 0.95062
 O85 O 0.48129 0.46906 0.44882
 O86 O 0.52394 0.48207 0.44850
 O87 O 0.48314 0.40845 0.50983
 O88 O 0.48873 0.40415 0.55156
 O89 O 0.42179 0.46881 0.50562
 O90 O 0.42068 0.51207 0.51933
 O91 O 0.54464 0.47294 0.57854
 O92 O 0.54802 0.43316 0.56047
 O93 O 0.55092 0.52828 0.51855
 O94 O 0.52905 0.53765 0.47747
 O95 O 0.48991 0.53319 0.57189
 O96 O 0.44861 0.51304 0.57755
 O97 O 0.50766 0.49148 0.59367
 O98 O 0.46159 0.47966 0.59390
 O99 O 0.50961 0.55090 0.53659
 O100 O 0.49687 0.55439 0.49062
 O101 O 0.56654 0.49167 0.53920
 O102 O 0.56678 0.44947 0.52078
 O103 O 0.44563 0.48907 0.46512
 O104 O 0.43903 0.52806 0.48650
 O105 O 0.43843 0.43191 0.52492
 O106 O 0.45944 0.42662 0.56794
 O107 O 0.49993 0.42603 0.47288
 O108 O 0.54188 0.44715 0.47043
 Zr109 Zr 0.50607 0.46440 0.48108
 O110 O 0.53003 0.48588 0.50359
 Zr111 Zr 0.47689 0.43949 0.53308
 O112 O 0.49987 0.45958 0.55746
 Zr113 Zr 0.45338 0.49310 0.50396
 O114 O 0.47516 0.51579 0.52718
 Zr115 Zr 0.53539 0.46727 0.53998
 O116 O 0.51362 0.44428 0.51664
 Zr117 Zr 0.51189 0.52114 0.51099
 O118 O 0.48891 0.50087 0.48612
 Zr119 Zr 0.48245 0.49576 0.56242
 O120 O 0.45780 0.47443 0.54036
 O121 O 0.47019 0.45750 0.49725
 O122 O 0.51870 0.50305 0.54690
 C123 C 0.45845 0.47949 0.44667
 C124 C 0.49177 0.40699 0.48689
 C125 C 0.41994 0.44552 0.51440
 C126 C 0.53085 0.48254 0.59646
 C127 C 0.56911 0.51446 0.52957
 C128 C 0.50042 0.55188 0.55941
 H129 H 0.54671 0.48805 0.49464
 H130 H 0.46571 0.53223 0.52937
 H131 H 0.45976 0.44724 0.48612
 H132 H 0.50230 0.44949 0.57387
 H133 H 0.54466 0.41895 0.54936
 H134 H 0.50466 0.40721 0.56101
 H135 H 0.48070 0.55980 0.49918
 H136 H 0.45288 0.53458 0.47508
 H137 H 0.58195 0.44882 0.53227
 H138 H 0.53955 0.43850 0.45423
 H139 H 0.44254 0.52678 0.56507
 H140 H 0.41766 0.50375 0.53651
 H141 H 0.51695 0.49991 0.44681
 H142 H 0.54258 0.52544 0.47177
 H143 H 0.44467 0.43855 0.57104
 H144 H 0.47051 0.46336 0.59963
 O145 O 0.51650 -0.05467 0.56285
 O146 O 0.55796 -0.03924 0.56464
 O147 O 0.46644 0.01064 0.56995
 O148 O 0.46048 0.04943 0.54991
 O149 O 0.45351 -0.04054 0.50999
 O150 O 0.47318 -0.04729 0.46988
 O151 O 0.53496 0.07354 0.49552
 O152 O 0.52118 0.07523 0.53731
 O153 O 0.58611 0.01020 0.49171
 O154 O 0.58468 -0.03510 0.50577
 O155 O 0.52664 0.02077 0.43857
 O156 O 0.48085 0.01282 0.43883
 O157 O 0.51172 0.06157 0.46163
 O158 O 0.46799 0.04290 0.45770
 O159 O 0.56135 -0.00295 0.45376
 O160 O 0.56411 -0.04656 0.47622
 O161 O 0.57333 0.04673 0.51042
 O162 O 0.55534 0.04762 0.55476
 O163 O 0.49532 -0.06810 0.52822
 O164 O 0.50590 -0.06810 0.48296
 O165 O 0.44054 -0.00449 0.52947
 O166 O 0.44366 0.04070 0.51395
 O167 O 0.50137 -0.01320 0.58455
 O168 O 0.54684 -0.00096 0.58144
 Zr169 Zr 0.52516 -0.01678 0.55225
 O170 O 0.55044 0.00412 0.52834
 Zr171 Zr 0.47390 0.01721 0.53045
 O172 O 0.49722 0.04016 0.50612
 Zr173 Zr 0.49291 -0.03561 0.50225
 O174 O 0.51641 -0.01481 0.47615
 Zr175 Zr 0.53466 0.04115 0.52095
 O176 O 0.51032 0.02108 0.54712
 Zr177 Zr 0.55296 -0.01167 0.49241
 O178 O 0.53023 -0.03467 0.51739
 Zr179 Zr 0.50213 0.02321 0.47082
 O180 O 0.47656 0.00136 0.49430
 O181 O 0.48828 -0.01990 0.53761
 O182 O 0.53917 0.02586 0.48517
 C183 C 0.50525 -0.07176 0.55073
 C184 C 0.47946 -0.00173 0.58781
 C185 C 0.43625 -0.02621 0.52038
 C186 C 0.52451 0.07793 0.47344
 C187 C 0.59025 0.03248 0.49946
 C188 C 0.54900 0.00985 0.43588
 H189 H 0.56744 0.00451 0.53673
 H190 H 0.51739 -0.02343 0.45982
 H191 H 0.47697 -0.03010 0.54920
 H192 H 0.48926 0.05758 0.50410
 H193 H 0.51319 0.07005 0.55396
 H194 H 0.47148 0.06373 0.54434
 H195 H 0.55266 -0.04888 0.46153
 H196 H 0.52332 -0.07284 0.48964
 H197 H 0.56487 0.06359 0.55167
 H198 H 0.54480 -0.01154 0.59761
 H199 H 0.48655 -0.00476 0.43495
 H200 H 0.46304 -0.03211 0.46300
 H201 H 0.56276 -0.05039 0.55057
 H202 H 0.59075 -0.02827 0.52185
 H203 H 0.43837 0.03269 0.49819
 H204 H 0.46497 0.05774 0.46837
 O205 O -0.06385 0.45035 0.99555
 O206 O -0.04151 0.43803 0.95988
 O207 O -0.00739 0.44263 1.05588
 O208 O 0.02988 0.45917 1.06553
 O209 O -0.05689 0.51140 1.04590
 O210 O -0.05584 0.54819 1.01749
 O211 O 0.07275 0.49283 0.98684
 O212 O 0.06758 0.45396 1.00852
 O213 O 0.02011 0.49725 0.92564
 O214 O -0.02565 0.49041 0.92139
 O215 O 0.02309 0.55861 0.97292
 O216 O 0.00793 0.56785 1.01482
 O217 O 0.05896 0.53265 0.99735
 O218 O 0.03364 0.54681 1.03618
 O219 O 0.00521 0.54114 0.93867
 O220 O -0.03925 0.52425 0.93317
 O221 O 0.05249 0.47641 0.94829
 O222 O 0.04528 0.43543 0.97449
 O223 O -0.07732 0.49025 1.00632
 O224 O -0.07144 0.53211 0.98556
 O225 O -0.02563 0.48957 1.06929
 O226 O 0.02147 0.49806 1.07068
 O227 O -0.02575 0.42479 1.02202
 O228 O -0.00677 0.41828 0.97943
 Zr229 Zr -0.02362 0.45303 0.99184
 O230 O 0.00392 0.46861 0.96625
 Zr231 Zr 0.00237 0.47932 1.04178
 O232 O 0.03166 0.49489 1.01836
 Zr233 Zr -0.04353 0.51096 1.00806
 O234 O -0.01639 0.52894 0.98385
 Zr235 Zr 0.03826 0.47322 0.98616
 O236 O 0.01149 0.45549 1.01150
 Zr237 Zr -0.00791 0.50573 0.95323
 O238 O -0.03705 0.48893 0.97616
 Zr239 Zr 0.01884 0.53097 1.00312
 O240 O -0.00964 0.51645 1.02861
 O241 O -0.03218 0.47478 1.02313
 O242 O 0.02714 0.50972 0.97148
 C243 C -0.08148 0.46717 1.00085
 C244 C -0.01765 0.42399 1.04524
 C245 C -0.04721 0.50235 1.06715
 C246 C 0.07669 0.51619 0.99141
 C247 C 0.04254 0.48622 0.92738
 C248 C 0.01651 0.55916 0.94926
 H249 H 0.00681 0.45725 0.95194
 H250 H -0.02337 0.54605 0.97797
 H251 H -0.04519 0.46680 1.03463
 H252 H 0.04758 0.49572 1.02853
 H253 H 0.05925 0.43995 1.01861
 H254 H 0.04581 0.45761 1.05523
 H255 H -0.04234 0.54121 0.94025
 H256 H -0.07386 0.52262 0.96995
 H257 H 0.06303 0.43437 0.96744
 H258 H -0.01867 0.40419 0.98353
 H259 H -0.00863 0.57290 1.00641
 H260 H -0.04262 0.55425 1.02907
 H261 H -0.04920 0.45276 0.94959
 H262 H -0.01974 0.47230 0.92080
 H263 H 0.01332 0.51539 1.07127
 H264 H 0.04767 0.53517 1.04305
 O265 O 0.01142 0.42794 0.50911
 O266 O 0.00234 0.42990 0.46601
 O267 O 0.06281 0.48861 0.51915
 O268 O 0.06302 0.53085 0.51270
 O269 O -0.00359 0.47895 0.56933
 O270 O -0.04810 0.48982 0.56464
 O271 O -0.00063 0.56026 0.44789
 O272 O 0.04013 0.54273 0.44921
 O273 O -0.05053 0.50150 0.43376
 O274 O -0.05707 0.45862 0.45289
 O275 O -0.06885 0.54850 0.49451
 O276 O -0.05398 0.55425 0.53496
 O277 O -0.02592 0.57354 0.48071
 O278 O -0.01908 0.56895 0.52969
 O279 O -0.07920 0.51496 0.47124
 O280 O -0.07807 0.46815 0.48342
 O281 O -0.01493 0.52400 0.42352
 O282 O 0.02949 0.50474 0.42853
 O283 O -0.01540 0.43918 0.54160
 O284 O -0.05830 0.45992 0.54244
 O285 O 0.03204 0.50132 0.55895
 O286 O 0.03548 0.54508 0.53836
 O287 O 0.05241 0.45457 0.49657
 O288 O 0.03547 0.45464 0.45247
 Zr289 Zr 0.01364 0.46175 0.48597
 O290 O -0.00829 0.48505 0.45954
 Zr291 Zr 0.02857 0.51125 0.51953
 O292 O 0.00837 0.53672 0.49371
 Zr293 Zr -0.02366 0.47888 0.53438
 O294 O -0.04646 0.50394 0.51008
 Zr295 Zr 0.00676 0.52162 0.45741
 O296 O 0.03026 0.49783 0.48225
 Zr297 Zr -0.04613 0.49052 0.47293
 O298 O -0.02519 0.46419 0.49785
 Zr299 Zr -0.03026 0.54024 0.50549
 O300 O -0.00949 0.51620 0.53296
 O301 O 0.01451 0.47465 0.52290
 O302 O -0.03163 0.52711 0.46868
 C303 C -0.00139 0.42276 0.52971
 C304 C 0.06843 0.46740 0.50889
 C305 C 0.01761 0.48913 0.57511
 C306 C -0.01334 0.57752 0.45955
 C307 C -0.03655 0.51466 0.41792
 C308 C -0.08469 0.53625 0.48136
 H309 H -0.00777 0.47748 0.44262
 H310 H -0.06406 0.50511 0.51731
 H311 H 0.02497 0.46314 0.53473
 H312 H 0.01698 0.55328 0.49287
 H313 H 0.05510 0.53153 0.45466
 H314 H 0.06089 0.54057 0.49607
 H315 H -0.08644 0.47560 0.49847
 H316 H -0.06084 0.44846 0.52831
 H317 H 0.02993 0.51705 0.41344
 H318 H 0.04623 0.43875 0.45566
 H319 H -0.06265 0.53936 0.54310
 H320 H -0.04322 0.50722 0.56875
 H321 H -0.01623 0.42784 0.46956
 H322 H -0.04268 0.45403 0.44134
 H323 H 0.02158 0.54711 0.55121
 H324 H -0.00410 0.57743 0.52167
 O325 O 0.53690 0.92728 0.00673
 O326 O 0.51807 0.92657 -0.03268
 O327 O 0.58578 0.99285 -0.00185
 O328 O 0.58096 1.03417 -0.01274
 O329 O 0.53817 0.98300 0.06519
 O330 O 0.49412 0.98950 0.07410
 O331 O 0.49689 1.05547 -0.05466
 O332 O 0.53753 1.04177 -0.06570
 O333 O 0.45112 0.99103 -0.04883
 O334 O 0.45402 0.94947 -0.02610
 O335 O 0.44983 1.04157 0.01156
 O336 O 0.47811 1.05024 0.04582
 O337 O 0.48062 1.06729 -0.01633
 O338 O 0.50464 1.06952 0.02563
 O339 O 0.43451 1.00666 -0.00643
 O340 O 0.44294 0.96002 0.00888
 O341 O 0.48024 1.01417 -0.07205
 O342 O 0.52585 1.00090 -0.07952
 O343 O 0.52091 0.93967 0.04495
 O344 O 0.48020 0.95759 0.05855
 O345 O 0.56729 1.00724 0.04319
 O346 O 0.56108 1.04942 0.01923
 O347 O 0.57229 0.95554 -0.01658
 O348 O 0.54389 0.95358 -0.05548
 Zr349 Zr 0.53152 0.96031 -0.01761
 O350 O 0.50054 0.98007 -0.03690
 Zr351 Zr 0.55167 1.01336 0.00622
 O352 O 0.52265 1.03547 -0.01336
 Zr353 Zr 0.50892 0.97831 0.03850
 O354 O 0.47795 0.99979 0.02152
 Zr355 Zr 0.51095 1.01778 -0.04626
 O356 O 0.54295 0.99748 -0.02876
 Zr357 Zr 0.46815 0.98372 -0.01282
 O358 O 0.49785 0.96077 0.00535
 Zr359 Zr 0.48979 1.03661 0.01006
 O360 O 0.51958 1.01635 0.03067
 O361 O 0.54207 0.97595 0.01632
 O362 O 0.47796 1.02096 -0.02352
 C363 C 0.53062 0.92283 0.03031
 C364 C 0.59003 0.97053 -0.01015
 C365 C 0.55896 0.99555 0.06367
 C366 C 0.48541 1.07150 -0.04028
 C367 C 0.45875 1.00278 -0.06949
 C368 C 0.43149 1.02838 0.00374
 H369 H 0.49658 0.97111 -0.05249
 H370 H 0.46339 1.00022 0.03378
 H371 H 0.55603 0.96586 0.02543
 H372 H 0.52892 1.05273 -0.01793
 H373 H 0.55458 1.03273 -0.06436
 H374 H 0.57277 1.04365 -0.02760
 H375 H 0.43732 0.96916 0.02411
 H376 H 0.47330 0.94570 0.04643
 H377 H 0.52049 1.01199 -0.09469
 H378 H 0.55688 0.93921 -0.05478
 H379 H 0.46897 1.03634 0.05520
 H380 H 0.49813 1.00773 0.07527
 H381 H 0.50103 0.92358 -0.02470
 H382 H 0.46430 0.94508 -0.04132
 H383 H 0.55115 1.05182 0.03519
 H384 H 0.51534 1.07828 0.01236
 O385 O 0.42494 0.52806 0.03116
 O386 O 0.41626 0.48829 0.01884
 O387 O 0.49089 0.51392 0.08176
 O388 O 0.53052 0.49657 0.07908
 O389 O 0.49053 0.57623 0.02489
 O390 O 0.49876 0.57892 -0.02003
 O391 O 0.54090 0.44397 0.00479
 O392 O 0.52603 0.44016 0.04648
 O393 O 0.47599 0.45456 -0.04240
 O394 O 0.43779 0.48407 -0.04333
 O395 O 0.53738 0.50352 -0.05337
 O396 O 0.55289 0.53921 -0.03328
 O397 O 0.56026 0.47783 -0.01557
 O398 O 0.56895 0.52250 -0.00140
 O399 O 0.49801 0.49068 -0.06513
 O400 O 0.45490 0.51436 -0.06084
 O401 O 0.49777 0.43205 -0.01043
 O402 O 0.48271 0.43110 0.03488
 O403 O 0.44400 0.56178 0.01019
 O404 O 0.46273 0.56764 -0.03196
 O405 O 0.51193 0.55366 0.05710
 O406 O 0.55025 0.52397 0.05523
 O407 O 0.45061 0.50332 0.07026
 O408 O 0.43974 0.46397 0.04793
 Zr409 Zr 0.45337 0.49847 0.03038
 O410 O 0.46864 0.47314 0.00374
 Zr411 Zr 0.51166 0.51541 0.04726
 O412 O 0.52933 0.49003 0.02225
 Zr413 Zr 0.48096 0.54794 -0.00024
 O414 O 0.49803 0.52455 -0.02764
 Zr415 Zr 0.50523 0.45961 0.01613
 O416 O 0.48903 0.48313 0.04416
 Zr417 Zr 0.47536 0.49263 -0.03170
 O418 O 0.45692 0.51736 -0.00613
 Zr419 Zr 0.53350 0.50894 -0.01394
 O420 O 0.51807 0.53533 0.01187
 O421 O 0.47560 0.52995 0.03569
 O422 O 0.51123 0.47758 -0.01988
 C423 C 0.42480 0.55125 0.02165
 C424 C 0.46738 0.50890 0.08694
 C425 C 0.50289 0.57458 0.04619
 C426 C 0.55992 0.45431 -0.00709
 C427 C 0.48599 0.43378 -0.03203
 C428 C 0.52161 0.49579 -0.06987
 H429 H 0.45688 0.45887 0.00215
 H430 H 0.50009 0.53460 -0.04404
 H431 H 0.46748 0.54155 0.04795
 H432 H 0.54604 0.48374 0.02959
 H433 H 0.51705 0.44439 0.06254
 H434 H 0.53728 0.47994 0.07340
 H435 H 0.46655 0.52725 -0.06849
 H436 H 0.44863 0.55682 -0.03713
 H437 H 0.49134 0.41421 0.03243
 H438 H 0.42588 0.46822 0.06029
 H439 H 0.53967 0.55049 -0.04210
 H440 H 0.51720 0.57767 -0.01521
 H441 H 0.41431 0.49460 0.00073
 H442 H 0.43175 0.46989 -0.03180
 H443 H 0.55488 0.53844 0.04329
 H444 H 0.57579 0.51021 0.01216
 O445 O -0.05613 0.04498 0.49835
 O446 O -0.06148 0.00472 0.48600
 O447 O 0.00025 0.03624 0.55880
 O448 O 0.04105 0.02235 0.56372
 O449 O 0.00652 0.09530 0.49801
 O450 O 0.02250 0.09559 0.45579
 O451 O 0.06445 -0.03752 0.49545
 O452 O 0.04391 -0.03905 0.53410
 O453 O 0.00969 -0.03121 0.43788
 O454 O -0.02813 -0.00429 0.42826
 O455 O 0.07013 0.01863 0.43512
 O456 O 0.08119 0.05545 0.45467
 O457 O 0.08677 -0.00426 0.47777
 O458 O 0.09076 0.04227 0.49072
 O459 O 0.03346 0.00623 0.41657
 O460 O -0.01109 0.02704 0.41347
 O461 O 0.02367 -0.05166 0.47501
 O462 O 0.00257 -0.04893 0.51797
 O463 O -0.03557 0.07779 0.47747
 O464 O -0.00941 0.08093 0.43824
 O465 O 0.02233 0.07664 0.53525
 O466 O 0.06276 0.04814 0.54097
 O467 O -0.03648 0.02191 0.54186
 O468 O -0.04278 -0.01799 0.51931
 Zr469 Zr -0.02717 0.01618 0.50306
 O470 O -0.00670 -0.01015 0.48093
 Zr471 Zr 0.02639 0.03719 0.52812
 O472 O 0.04884 0.01002 0.50862
 Zr473 Zr 0.00322 0.06474 0.47416
 O474 O 0.02623 0.04024 0.45215
 Zr475 Zr 0.02730 -0.02175 0.50024
 O476 O 0.00610 0.00344 0.52350
 Zr477 Zr 0.00566 0.00740 0.44610
 O478 O -0.01817 0.03282 0.46651
 Zr479 Zr 0.05910 0.02641 0.47269
 O480 O 0.03820 0.05454 0.49300
 O481 O -0.00764 0.04908 0.50981
 O482 O 0.03923 -0.00604 0.46477
 C483 C -0.05579 0.06746 0.48720
 C484 C -0.02315 0.02931 0.56060
 C485 C 0.01427 0.09624 0.52116
 C486 C 0.08518 -0.02758 0.48675
 C487 C 0.01646 -0.05141 0.45148
 C488 C 0.05749 0.01128 0.41600
 H489 H -0.01760 -0.02488 0.47829
 H490 H 0.03093 0.04948 0.43590
 H491 H -0.01828 0.06096 0.51992
 H492 H 0.06408 0.00463 0.51910
 H493 H 0.03308 -0.03338 0.54852
 H494 H 0.04644 0.00437 0.56130
 H495 H 0.00077 0.04044 0.40734
 H496 H -0.02368 0.07049 0.43274
 H497 H 0.01132 -0.06605 0.51763
 H498 H -0.05874 -0.01361 0.52890
 H499 H 0.06903 0.06721 0.44497
 H500 H 0.03996 0.09533 0.46333
 H501 H -0.06033 0.00991 0.46755
 H502 H -0.03676 -0.01635 0.44044
 H503 H 0.06785 0.06299 0.52976
 H504 H 0.09595 0.03056 0.50543
 O505 O 0.73966 0.19384 0.25203
 O506 O 0.78255 0.19702 0.24100
 O507 O 0.72963 0.24264 0.31488
 O508 O 0.73354 0.28374 0.32252
 O509 O 0.67501 0.24763 0.25184
 O510 O 0.67592 0.26685 0.20985
 O511 O 0.79337 0.32366 0.25817
 O512 O 0.79495 0.29998 0.29641
 O513 O 0.80629 0.27543 0.19942
 O514 O 0.78879 0.23531 0.18676
 O515 O 0.74224 0.32651 0.19472
 O516 O 0.70087 0.32907 0.21435
 O517 O 0.75816 0.34208 0.23779
 O518 O 0.71026 0.33846 0.24996
 O519 O 0.76546 0.29475 0.17636
 O520 O 0.75667 0.24954 0.17002
 O521 O 0.81876 0.28913 0.23781
 O522 O 0.81672 0.26341 0.27911
 O523 O 0.70355 0.21065 0.23193
 O524 O 0.69923 0.23886 0.19279
 O525 O 0.68644 0.26217 0.29023
 O526 O 0.70529 0.30390 0.29975
 O527 O 0.75195 0.21055 0.29592
 O528 O 0.79589 0.21423 0.27767
 Zr529 Zr 0.76076 0.22585 0.25917
 O530 O 0.78447 0.25214 0.23983
 Zr531 Zr 0.72544 0.27177 0.28557
 O532 O 0.74870 0.30006 0.26819
 Zr533 Zr 0.70858 0.25073 0.22951
 O534 O 0.72999 0.27902 0.20966
 Zr535 Zr 0.78579 0.28484 0.26099
 O536 O 0.76374 0.25761 0.28182
 Zr537 Zr 0.76791 0.26485 0.20472
 O538 O 0.74581 0.23571 0.22246
 Zr539 Zr 0.73395 0.31109 0.23178
 O540 O 0.70908 0.28425 0.25010
 O541 O 0.72307 0.23906 0.26528
 O542 O 0.77142 0.29756 0.22512
 C543 C 0.71780 0.19173 0.24125
 C544 C 0.74038 0.22012 0.31506
 C545 C 0.67004 0.25330 0.27495
 C546 C 0.78050 0.34305 0.24830
 C547 C 0.82308 0.28397 0.21445
 C548 C 0.75441 0.31706 0.17579
 H549 H 0.80184 0.24412 0.23775
 H550 H 0.72142 0.28367 0.19314
 H551 H 0.71243 0.22606 0.27432
 H552 H 0.74950 0.31468 0.27930
 H553 H 0.79089 0.28672 0.30993
 H554 H 0.74923 0.29384 0.32085
 H555 H 0.73997 0.25789 0.16485
 H556 H 0.71352 0.22724 0.18758
 H557 H 0.83137 0.27488 0.28057
 H558 H 0.79431 0.19659 0.28532
 H559 H 0.69473 0.31751 0.20155
 H560 H 0.67152 0.28315 0.21784
 H561 H 0.77764 0.19830 0.22270
 H562 H 0.80220 0.22832 0.19883
 H563 H 0.69163 0.30908 0.28718
 H564 H 0.71950 0.34370 0.26521
 O565 O 0.74891 0.68155 0.71155
 O566 O 0.79012 0.67686 0.72836
 O567 O 0.70096 0.68996 0.77863
 O568 O 0.69618 0.71703 0.80998
 O569 O 0.69044 0.74121 0.71098
 O570 O 0.71225 0.77801 0.69509
 O571 O 0.77526 0.76283 0.82173
 O572 O 0.75957 0.72376 0.83306
 O573 O 0.82541 0.75245 0.75868
 O574 O 0.82180 0.73167 0.71797
 O575 O 0.77071 0.81213 0.75373
 O576 O 0.72558 0.81649 0.74616
 O577 O 0.75636 0.79725 0.79975
 O578 O 0.71153 0.80312 0.78005
 O579 O 0.80309 0.78981 0.73457
 O580 O 0.80317 0.76061 0.69835
 O581 O 0.81258 0.74104 0.79926
 O582 O 0.79166 0.69962 0.81082
 O583 O 0.73051 0.71612 0.68933
 O584 O 0.74320 0.75911 0.67814
 O585 O 0.67717 0.72919 0.75125
 O586 O 0.68292 0.75189 0.79148
 O587 O 0.73287 0.66814 0.75817
 O588 O 0.77893 0.66746 0.76996
 Zr589 Zr 0.75915 0.69615 0.74657
 O590 O 0.78697 0.71947 0.76143
 Zr591 Zr 0.71095 0.72851 0.77355
 O592 O 0.73694 0.75264 0.79023
 Zr593 Zr 0.73028 0.74595 0.71481
 O594 O 0.75654 0.77149 0.72881
 Zr595 Zr 0.77309 0.73390 0.79571
 O596 O 0.74605 0.70850 0.78223
 Zr597 Zr 0.79177 0.75182 0.73669
 O598 O 0.76633 0.72695 0.72017
 Zr599 Zr 0.74410 0.78390 0.76455
 O600 O 0.71586 0.76104 0.74874
 O601 O 0.72345 0.71426 0.73919
 O602 O 0.77995 0.76597 0.77151
 C603 C 0.73870 0.69261 0.69132
 C604 C 0.71173 0.66926 0.77099
 C605 C 0.67294 0.73479 0.72736
 C606 C 0.76753 0.78643 0.81964
 C607 C 0.82973 0.74788 0.78265
 C608 C 0.79260 0.81055 0.74220
 H609 H 0.80330 0.70944 0.76426
 H610 H 0.75846 0.78596 0.71608
 H611 H 0.71114 0.70259 0.73200
 H612 H 0.72966 0.75804 0.80667
 H613 H 0.75017 0.70775 0.83184
 H614 H 0.70914 0.72133 0.82268
 H615 H 0.79271 0.77571 0.69181
 H616 H 0.76005 0.75026 0.67529
 H617 H 0.80199 0.70385 0.82581
 H618 H 0.77508 0.65043 0.76379
 H619 H 0.72883 0.81562 0.72757
 H620 H 0.70222 0.78730 0.70804
 H621 H 0.79625 0.68867 0.71437
 H622 H 0.82716 0.71666 0.72924
 H623 H 0.67812 0.76612 0.77896
 H624 H 0.70888 0.79587 0.79771
 O625 O 0.30587 0.19612 0.74431
 O626 O 0.30491 0.20912 0.70105
 O627 O 0.31298 0.26430 0.78350
 O628 O 0.29149 0.30197 0.78635
 O629 O 0.25482 0.21076 0.80793
 O630 O 0.21456 0.20040 0.79213
 O631 O 0.23392 0.31990 0.71234
 O632 O 0.27613 0.32385 0.72253
 O633 O 0.22779 0.25410 0.67131
 O634 O 0.24306 0.21054 0.67663
 O635 O 0.17803 0.26478 0.73236
 O636 O 0.18023 0.26043 0.77754
 O637 O 0.20119 0.30784 0.73904
 O638 O 0.20042 0.29071 0.78582
 O639 O 0.19162 0.23817 0.70173
 O640 O 0.21775 0.19668 0.70240
 O641 O 0.24705 0.29158 0.67731
 O642 O 0.29250 0.29515 0.69177
 O643 O 0.27257 0.18194 0.76929
 O644 O 0.22630 0.17934 0.76165
 O645 O 0.27524 0.24761 0.81413
 O646 O 0.25673 0.29199 0.80604
 O647 O 0.32687 0.23907 0.75179
 O648 O 0.32091 0.24889 0.70520
 Zr649 Zr 0.29338 0.23277 0.73095
 O650 O 0.26737 0.25106 0.70466
 Zr651 Zr 0.27285 0.26813 0.77829
 O652 O 0.24684 0.28888 0.75355
 Zr653 Zr 0.24542 0.21319 0.76879
 O654 O 0.21743 0.23176 0.74465
 Zr655 Zr 0.25982 0.28846 0.71546
 O656 O 0.28780 0.27101 0.74069
 Zr657 Zr 0.23160 0.23367 0.70692
 O658 O 0.25871 0.21302 0.73076
 Zr659 Zr 0.21168 0.27030 0.75351
 O660 O 0.23698 0.25053 0.78030
 O661 O 0.28056 0.23075 0.76877
 O662 O 0.22399 0.27159 0.71554
 C663 C 0.29486 0.17903 0.75860
 C664 C 0.33071 0.25199 0.77148
 C665 C 0.26648 0.22595 0.82207
 C666 C 0.21225 0.32404 0.72349
 C667 C 0.23520 0.27628 0.66345
 C668 C 0.17404 0.25091 0.71334
 H669 H 0.27484 0.25097 0.68721
 H670 H 0.20135 0.22225 0.74631
 H671 H 0.29312 0.22171 0.78057
 H672 H 0.24482 0.30659 0.75907
 H673 H 0.29328 0.31977 0.73021
 H674 H 0.28603 0.31510 0.77300
 H675 H 0.20384 0.19378 0.71513
 H676 H 0.23347 0.17313 0.74545
 H677 H 0.28847 0.31036 0.68015
 H678 H 0.33761 0.23927 0.70767
 H679 H 0.17819 0.24179 0.77678
 H680 H 0.20731 0.21565 0.80036
 H681 H 0.29077 0.19729 0.69871
 H682 H 0.25994 0.21637 0.67023
 H683 H 0.24215 0.28286 0.81411
 H684 H 0.21006 0.30668 0.78531
 O685 O 0.19960 0.80368 0.26205
 O686 O 0.19020 0.79035 0.22245
 O687 O 0.19498 0.73066 0.30845
 O688 O 0.21761 0.69415 0.31386
 O689 O 0.25791 0.78406 0.31808
 O690 O 0.29679 0.79099 0.29488
 O691 O 0.25872 0.67570 0.23166
 O692 O 0.21822 0.67401 0.24926
 O693 O 0.25918 0.74289 0.18289
 O694 O 0.24652 0.78784 0.18803
 O695 O 0.31920 0.72826 0.23463
 O696 O 0.32564 0.73163 0.27859
 O697 O 0.29612 0.68599 0.25053
 O698 O 0.30582 0.70236 0.29442
 O699 O 0.30036 0.75439 0.20340
 O700 O 0.27876 0.79787 0.20548
 O701 O 0.24093 0.70553 0.19587
 O702 O 0.19843 0.70389 0.21848
 O703 O 0.23723 0.81424 0.28033
 O704 O 0.28104 0.81436 0.26486
 O705 O 0.23816 0.74770 0.33162
 O706 O 0.25429 0.70269 0.32452
 O707 O 0.17725 0.76009 0.27946
 O708 O 0.17431 0.75159 0.23316
 Zr709 Zr 0.20668 0.76565 0.25186
 O710 O 0.22672 0.74661 0.22288
 Zr711 Zr 0.23406 0.72776 0.29790
 O712 O 0.25441 0.70662 0.27073
 Zr713 Zr 0.26161 0.78143 0.27831
 O714 O 0.28393 0.76253 0.25090
 Zr715 Zr 0.23485 0.70849 0.23556
 O716 O 0.21264 0.72678 0.26384
 Zr717 Zr 0.26297 0.76224 0.21670
 O718 O 0.24171 0.78343 0.24334
 Zr719 Zr 0.28975 0.72365 0.26242
 O720 O 0.27045 0.74354 0.29170
 O721 O 0.22604 0.76582 0.28654
 O722 O 0.27069 0.72382 0.22748
 C723 C 0.21420 0.81960 0.27236
 C724 C 0.17596 0.74458 0.29935
 C725 C 0.24826 0.76915 0.33567
 C726 C 0.28188 0.67039 0.23930
 C727 C 0.25044 0.72096 0.17860
 C728 C 0.31949 0.74102 0.21289
 H729 H 0.21628 0.74753 0.20707
 H730 H 0.30045 0.77115 0.24839
 H731 H 0.21581 0.77519 0.29928
 H732 H 0.25664 0.68874 0.27767
 H733 H 0.20278 0.67893 0.25932
 H734 H 0.21690 0.68225 0.29989
 H735 H 0.29510 0.79923 0.21487
 H736 H 0.27258 0.82053 0.24865
 H737 H 0.19983 0.68869 0.20799
 H738 H 0.15856 0.76128 0.23839
 H739 H 0.32738 0.75037 0.27693
 H740 H 0.30347 0.77539 0.30457
 H741 H 0.20444 0.80023 0.21470
 H742 H 0.22979 0.78114 0.18311
 H743 H 0.26990 0.71149 0.32954
 H744 H 0.29557 0.68693 0.29752
 O745 O 0.23005 0.67430 0.75950
 O746 O 0.26922 0.66780 0.74012
 O747 O 0.24763 0.72238 0.82167
 O748 O 0.26417 0.76016 0.82637
 O749 O 0.18191 0.74183 0.77256
 O750 O 0.17739 0.76093 0.73078
 O751 O 0.31456 0.78810 0.75018
 O752 O 0.31999 0.76241 0.78687
 O753 O 0.30118 0.73978 0.69052
 O754 O 0.27167 0.70559 0.68387
 O755 O 0.25216 0.80379 0.69950
 O756 O 0.21705 0.81453 0.72687
 O757 O 0.27974 0.81369 0.73856
 O758 O 0.23586 0.82044 0.75918
 O759 O 0.26207 0.76885 0.67700
 O760 O 0.24011 0.72711 0.67466
 O761 O 0.32549 0.74969 0.72438
 O762 O 0.32788 0.72353 0.76538
 O763 O 0.19542 0.69988 0.74707
 O764 O 0.18819 0.72937 0.71019
 O765 O 0.20597 0.75154 0.80667
 O766 O 0.23637 0.78684 0.81029
 O767 O 0.25709 0.68671 0.80004
 O768 O 0.29523 0.68059 0.77138
 Zr769 Zr 0.25997 0.70023 0.76127
 O770 O 0.28432 0.72103 0.73599
 Zr771 Zr 0.24415 0.75181 0.79292
 O772 O 0.26880 0.77432 0.76981
 Zr773 Zr 0.20927 0.73730 0.74313
 O774 O 0.23170 0.76015 0.71784
 Zr775 Zr 0.29889 0.75171 0.75485
 O776 O 0.27628 0.72965 0.78108
 Zr777 Zr 0.26334 0.73822 0.70500
 O778 O 0.23951 0.71464 0.72849
 Zr779 Zr 0.24836 0.78930 0.73754
 O780 O 0.22279 0.76867 0.76197
 O781 O 0.22874 0.72142 0.77508
 O782 O 0.27942 0.76836 0.72296
 C783 C 0.20626 0.67790 0.75305
 C784 C 0.25271 0.69828 0.82079
 C785 C 0.18437 0.74776 0.79592
 C786 C 0.30376 0.81002 0.74408
 C787 C 0.32276 0.74443 0.70085
 C788 C 0.25738 0.79298 0.67859
 H789 H 0.29844 0.70951 0.73025
 H790 H 0.22079 0.76716 0.70350
 H791 H 0.21754 0.71102 0.78661
 H792 H 0.27560 0.78785 0.78007
 H793 H 0.31624 0.74983 0.80112
 H794 H 0.28105 0.76656 0.82069
 H795 H 0.22591 0.74007 0.67211
 H796 H 0.19829 0.71602 0.70144
 H797 H 0.34489 0.73140 0.76310
 H798 H 0.29137 0.66400 0.78042
 H799 H 0.20583 0.80543 0.71546
 H800 H 0.17933 0.77751 0.73864
 H801 H 0.26136 0.67111 0.72300
 H802 H 0.28545 0.69529 0.69299
 H803 H 0.22142 0.79533 0.80124
 H804 H 0.24870 0.82234 0.77279
 O805 O 0.31855 0.25598 0.25553
 O806 O 0.32212 0.24105 0.21442
 O807 O 0.26616 0.32126 0.24683
 O808 O 0.22662 0.32929 0.23018
 O809 O 0.25430 0.26489 0.30793
 O810 O 0.23675 0.22282 0.30967
 O811 O 0.19616 0.26152 0.17871
 O812 O 0.21948 0.29888 0.17537
 O813 O 0.24829 0.19984 0.18277
 O814 O 0.28795 0.18899 0.20895
 O815 O 0.18997 0.20265 0.23716
 O816 O 0.18221 0.22709 0.27623
 O817 O 0.17474 0.24463 0.21346
 O818 O 0.16920 0.25908 0.25721
 O819 O 0.22563 0.18100 0.22328
 O820 O 0.26959 0.17455 0.24005
 O821 O 0.23378 0.23753 0.16337
 O822 O 0.25868 0.27706 0.16215
 O823 O 0.29634 0.23991 0.29021
 O824 O 0.26991 0.20363 0.29680
 O825 O 0.24063 0.30212 0.28697
 O826 O 0.20269 0.31141 0.26058
 O827 O 0.30193 0.29954 0.23310
 O828 O 0.30592 0.27696 0.19251
 Zr829 Zr 0.28966 0.26234 0.22744
 O830 O 0.26751 0.24186 0.20238
 Zr831 Zr 0.23761 0.29359 0.24855
 O832 O 0.21335 0.27450 0.22448
 Zr833 Zr 0.25775 0.23889 0.27835
 O834 O 0.23453 0.21727 0.25539
 Zr835 Zr 0.23404 0.26361 0.19214
 O836 O 0.25763 0.28546 0.21475
 Zr837 Zr 0.25419 0.20857 0.22142
 O838 O 0.27862 0.22763 0.24593
 Zr839 Zr 0.20231 0.23983 0.24283
 O840 O 0.22407 0.26053 0.26830
 O841 O 0.27037 0.27252 0.26053
 O842 O 0.22121 0.22955 0.20958
 C843 C 0.31719 0.24689 0.27888
 C844 C 0.29014 0.31983 0.24053
 C845 C 0.24711 0.28870 0.30730
 C846 C 0.17578 0.25323 0.18997
 C847 C 0.23997 0.21369 0.16318
 C848 C 0.20178 0.18232 0.22987
 H849 H 0.27783 0.23801 0.18702
 H850 H 0.22955 0.20168 0.26547
 H851 H 0.28127 0.28196 0.27197
 H852 H 0.19831 0.28575 0.21952
 H853 H 0.23214 0.31188 0.17908
 H854 H 0.21469 0.32588 0.21621
 H855 H 0.25970 0.17146 0.25609
 H856 H 0.28221 0.19540 0.28499
 H857 H 0.24877 0.27787 0.14594
 H858 H 0.32282 0.28418 0.19621
 H859 H 0.19127 0.21138 0.28336
 H860 H 0.22006 0.23253 0.31008
 H861 H 0.32065 0.22337 0.22183
 H862 H 0.29484 0.19881 0.19388
 H863 H 0.19484 0.29943 0.27344
 H864 H 0.16711 0.27576 0.24749
 O865 O 0.79783 0.71638 0.26752
 O866 O 0.80317 0.73451 0.22749
 O867 O 0.80005 0.78363 0.31423
 O868 O 0.77731 0.81969 0.31845
 O869 O 0.74294 0.72657 0.32882
 O870 O 0.70351 0.71785 0.30891
 O871 O 0.72593 0.84240 0.24071
 O872 O 0.76717 0.84636 0.25439
 O873 O 0.72584 0.77998 0.19379
 O874 O 0.74266 0.73585 0.19756
 O875 O 0.67124 0.78474 0.25161
 O876 O 0.67026 0.77629 0.29698
 O877 O 0.69128 0.82598 0.26197
 O878 O 0.68787 0.80760 0.30787
 O879 O 0.68783 0.76220 0.21907
 O880 O 0.71424 0.72066 0.21895
 O881 O 0.74479 0.81672 0.20345
 O882 O 0.78771 0.82045 0.22348
 O883 O 0.76334 0.70152 0.29026
 O884 O 0.71896 0.69862 0.27815
 O885 O 0.76035 0.76347 0.34014
 O886 O 0.74123 0.80807 0.33318
 O887 O 0.81826 0.76018 0.28306
 O888 O 0.81613 0.77374 0.23603
 Zr889 Zr 0.78706 0.75499 0.25786
 O890 O 0.76277 0.77482 0.23053
 Zr891 Zr 0.76083 0.78642 0.30560
 O892 O 0.73677 0.80842 0.28002
 Zr893 Zr 0.73618 0.73219 0.28939
 O894 O 0.70998 0.75166 0.26407
 Zr895 Zr 0.75301 0.81132 0.24307
 O896 O 0.77903 0.79234 0.26966
 Zr897 Zr 0.72737 0.75689 0.22793
 O898 O 0.75290 0.73518 0.25271
 Zr899 Zr 0.70263 0.78894 0.27570
 O900 O 0.72573 0.76801 0.30327
 O901 O 0.77077 0.75003 0.29412
 O902 O 0.71801 0.79367 0.23890
 C903 C 0.78566 0.69857 0.27995
 C904 C 0.81939 0.77251 0.30368
 C905 C 0.75232 0.74085 0.34537
 C906 C 0.70268 0.84402 0.24936
 C907 C 0.73406 0.80231 0.18774
 C908 C 0.66913 0.77363 0.23057
 H909 H 0.77179 0.77609 0.21381
 H910 H 0.69410 0.74186 0.26344
 H911 H 0.78251 0.74023 0.30619
 H912 H 0.73356 0.82555 0.28665
 H913 H 0.78352 0.84212 0.26359
 H914 H 0.77359 0.83349 0.30520
 H915 H 0.69913 0.71689 0.22995
 H916 H 0.72677 0.69456 0.26147
 H917 H 0.78445 0.83640 0.21268
 H918 H 0.83309 0.76532 0.24034
 H919 H 0.66791 0.75821 0.29331
 H920 H 0.69607 0.73203 0.31866
 H921 H 0.78891 0.72520 0.22025
 H922 H 0.75846 0.74420 0.19129
 H923 H 0.72653 0.79796 0.33954
 H924 H 0.69657 0.82402 0.30874
 O925 O 0.68819 0.28294 0.75964
 O926 O 0.67893 0.26564 0.72138
 O927 O 0.69303 0.21974 0.81452
 O928 O 0.71442 0.18177 0.81860
 O929 O 0.75190 0.27427 0.81191
 O930 O 0.78795 0.28234 0.78508
 O931 O 0.75467 0.15747 0.73704
 O932 O 0.71618 0.15429 0.75916
 O933 O 0.74898 0.21780 0.68348
 O934 O 0.73322 0.26264 0.68357
 O935 O 0.81195 0.21432 0.73237
 O936 O 0.81926 0.22218 0.77622
 O937 O 0.79269 0.17221 0.75075
 O938 O 0.80328 0.19136 0.79344
 O939 O 0.79017 0.23543 0.69955
 O940 O 0.76501 0.27738 0.69791
 O941 O 0.73311 0.18120 0.70179
 O942 O 0.69208 0.17982 0.72704
 O943 O 0.72571 0.29904 0.77309
 O944 O 0.76862 0.30084 0.75418
 O945 O 0.73798 0.23700 0.83068
 O946 O 0.75293 0.19226 0.82728
 O947 O 0.67111 0.24099 0.78179
 O948 O 0.66617 0.22675 0.73746
 Zr949 Zr 0.69832 0.24515 0.75203
 O950 O 0.71801 0.22453 0.72414
 Zr951 Zr 0.73052 0.21427 0.79983
 O952 O 0.75074 0.19142 0.77401
 Zr953 Zr 0.75294 0.26793 0.77260
 O954 O 0.77517 0.24732 0.74636
 Zr955 Zr 0.72902 0.18853 0.74064
 O956 O 0.70718 0.20818 0.76804
 Zr957 Zr 0.75271 0.24186 0.71397
 O958 O 0.73126 0.26458 0.73924
 Zr959 Zr 0.78412 0.21000 0.76158
 O960 O 0.76508 0.23199 0.78937
 O961 O 0.71950 0.25053 0.78486
 O962 O 0.76320 0.20526 0.72855
 C963 C 0.70160 0.30114 0.76723
 C964 C 0.67255 0.23055 0.80459
 C965 C 0.74614 0.25976 0.83158
 C966 C 0.77885 0.15490 0.74164
 C967 C 0.74141 0.19481 0.68256
 C968 C 0.81062 0.22474 0.70957
 H969 H 0.70673 0.22296 0.70917
 H970 H 0.79085 0.25683 0.74200
 H971 H 0.70989 0.26071 0.79740
 H972 H 0.75473 0.17431 0.78226
 H973 H 0.70075 0.15904 0.76930
 H974 H 0.71801 0.16727 0.80765
 H975 H 0.78127 0.28127 0.70641
 H976 H 0.75834 0.30484 0.73849
 H977 H 0.69379 0.16341 0.71850
 H978 H 0.65016 0.23621 0.74236
 H979 H 0.82083 0.24036 0.77049
 H980 H 0.79684 0.26816 0.79521
 H981 H 0.69195 0.27605 0.71218
 H982 H 0.71666 0.25442 0.68091
 H983 H 0.76955 0.20077 0.82858
 H984 H 0.79493 0.17493 0.79744
 C985 C 0.11616 1.00182 1.20402
 C986 C 0.08996 1.00620 1.19874
 C987 C 0.08048 1.00466 1.17229
 N988 N 0.05563 1.01119 1.16616
 N989 N 0.04717 1.00932 1.14228
 C990 C 0.06326 1.00071 1.12375
 N991 N 0.08798 0.99410 1.12996
 N992 N 0.09641 0.99604 1.15371
 C993 C 0.05472 0.99831 1.09725
 C994 C 0.03057 1.00692 1.08822
 H995 H 0.07632 1.01041 1.21375
 H996 H 0.06849 0.99005 1.08413
 H997 H 0.12910 0.99941 1.18790
 H998 H 0.01695 1.01585 1.10103
 C999 C 0.62498 0.48993 0.73833
 C1000 C 0.59911 0.48889 0.73136
 C1001 C 0.59118 0.48631 0.70462
 N1002 N 0.56577 0.48714 0.69875
 N1003 N 0.55813 0.48469 0.67477
 C1004 C 0.57558 0.48118 0.65569
 N1005 N 0.60104 0.48017 0.66157
 N1006 N 0.60870 0.48271 0.68559
 C1007 C 0.56704 0.47880 0.62905
 C1008 C 0.54130 0.48353 0.62245
 H1009 H 0.58409 0.48954 0.74575
 H1010 H 0.58110 0.47410 0.61451
 H1011 H 0.63942 0.48907 0.72330
 H1012 H 0.52779 0.48921 0.63714
 C1013 C 0.38064 -0.00031 0.72821
 C1014 C 0.40303 -0.01281 0.71977
 C1015 C 0.41357 -0.00778 0.69387
 N1016 N 0.43649 -0.01888 0.68737
 N1017 N 0.44641 -0.01444 0.66407
 C1018 C 0.43378 0.00125 0.64636
 N1019 N 0.41080 0.01229 0.65283
 N1020 N 0.40090 0.00790 0.67617
 C1021 C 0.44448 0.00594 0.62044
 C1022 C 0.46871 -0.00400 0.61386
 H1023 H 0.41347 -0.02631 0.73265
 H1024 H 0.43299 0.01701 0.60628
 H1025 H 0.37005 0.01246 0.71468
 H1026 H 0.48016 -0.01475 0.62830
 C1027 C -0.11480 0.51606 1.22411
 C1028 C -0.12129 0.52003 1.19829
 C1029 C -0.10345 0.51502 1.17712
 N1030 N -0.11153 0.52020 1.15273
 N1031 N -0.09605 0.51550 1.13307
 C1032 C -0.07188 0.50535 1.13698
 N1033 N -0.06374 0.50010 1.16141
 N1034 N -0.07926 0.50486 1.18116
 C1035 C -0.05487 0.50007 1.11506
 C1036 C -0.06278 0.50688 1.09010
 H1037 H -0.14072 0.52673 1.19337
 H1038 H -0.03606 0.49099 1.11857
 H1039 H -0.09551 0.50907 1.22924
 H1040 H -0.08146 0.51641 1.08700
 C1041 C -0.12332 0.51361 0.27123
 C1042 C -0.10266 0.52670 0.28039
 C1043 C -0.09340 0.52196 0.30687
 N1044 N -0.07265 0.53418 0.31508
 N1045 N -0.06434 0.53012 0.33910
 C1046 C -0.07653 0.51373 0.35578
 N1047 N -0.09730 0.50158 0.34757
 N1048 N -0.10556 0.50560 0.32358
 C1049 C -0.06774 0.50900 0.38237
 C1050 C -0.04559 0.51963 0.39144
 H1051 H -0.09342 0.54092 0.26801
 H1052 H -0.07889 0.49652 0.39502
 H1053 H -0.13250 0.49974 0.28413
 H1054 H -0.03420 0.53171 0.37863
 C1055 C 0.38961 0.99266 -0.22456
 C1056 C 0.38316 0.98771 -0.19886
 C1057 C 0.40082 0.99219 -0.17779
 N1058 N 0.39256 0.98879 -0.15324
 N1059 N 0.40784 0.99363 -0.13385
 C1060 C 0.43195 1.00217 -0.13825
 N1061 N 0.44026 1.00556 -0.16283
 N1062 N 0.42495 1.00072 -0.18226
 C1063 C 0.44910 1.00705 -0.11679
 C1064 C 0.44130 1.00235 -0.09147
 H1065 H 0.36375 0.98221 -0.19399
 H1066 H 0.46849 1.01307 -0.12097
 H1067 H 0.40875 0.99912 -0.22923
 H1068 H 0.42207 0.99570 -0.08759
 C1069 C 0.61294 0.49401 -0.21496
 C1070 C 0.60672 0.47679 -0.19465
 C1071 C 0.59044 0.48465 -0.17315
 N1072 N 0.57766 0.46690 -0.15863
 N1073 N 0.56462 0.47348 -0.13783
 C1074 C 0.56425 0.49798 -0.13055
 N1075 N 0.57715 0.51570 -0.14499
 N1076 N 0.58987 0.50920 -0.16601
 C1077 C 0.55190 0.50492 -0.10640
 C1078 C 0.53136 0.49155 -0.09581
 H1079 H 0.61471 0.45746 -0.19353
 H1080 H 0.55920 0.52089 -0.09668
 H1081 H 0.60230 0.51222 -0.21643
 H1082 H 0.52221 0.47750 -0.10681
 C1083 C 0.11050 -0.00021 0.25284
 C1084 C 0.11896 0.00625 0.27695
 C1085 C 0.10330 0.00496 0.30046
 N1086 N 0.11435 0.01051 0.32282
 N1087 N 0.10086 0.00978 0.34454
 C1088 C 0.07574 0.00347 0.34479
 N1089 N 0.06461 -0.00212 0.32240
 N1090 N 0.07816 -0.00143 0.30059
 C1091 C 0.06069 0.00326 0.36883
 C1092 C 0.07197 0.00904 0.39190
 H1093 H 0.13855 0.01222 0.27901
 H1094 H 0.04041 -0.00083 0.36822
 H1095 H 0.09164 -0.00815 0.25138
 H1096 H 0.09228 0.01306 0.39225
 C1097 C 0.22621 1.10851 0.98839
 C1098 C 0.21535 1.08959 1.00441
 C1099 C 0.18897 1.08143 1.00022
 N1100 N 0.17888 1.06265 1.01568
 N1101 N 0.15473 1.05569 1.01242
 C1102 C 0.13976 1.06738 0.99367
 N1103 N 0.14983 1.08618 0.97826
 N1104 N 0.17397 1.09308 0.98149
 C1105 C 0.11312 1.05992 0.98971
 C1106 C 0.10274 1.03914 1.00335
 H1107 H 0.22595 1.08154 1.02090
 H1108 H 0.10176 1.07051 0.97511
 H1109 H 0.21571 1.11530 0.97131
 H1110 H 0.11444 1.02811 1.01738
 C1111 C 0.70824 0.60887 0.51172
 C1112 C 0.70394 0.58292 0.51674
 C1113 C 0.67731 0.57374 0.51771
 N1114 N 0.67251 0.54948 0.52642
 N1115 N 0.64843 0.54136 0.52743
 C1116 C 0.62826 0.55717 0.51968
 N1117 N 0.63311 0.58132 0.51083
 N1118 N 0.65712 0.58945 0.50992
 C1119 C 0.60154 0.54847 0.52016
 C1120 C 0.59512 0.52466 0.53103
 H1121 H 0.71992 0.56942 0.52045
 H1122 H 0.58665 0.56103 0.51143
 H1123 H 0.69152 0.62179 0.50938
 H1124 H 0.61005 0.51240 0.54013
 C1125 C 0.72319 0.39624 -0.01587
 C1126 C 0.69873 0.38763 -0.00946
 C1127 C 0.67512 0.40369 -0.01186
 N1128 N 0.65218 0.39316 -0.00617
 N1129 N 0.63036 0.40715 -0.00836
 C1130 C 0.63064 0.43221 -0.01641
 N1131 N 0.65360 0.44278 -0.02218
 N1132 N 0.67549 0.42875 -0.02000
 C1133 C 0.60669 0.44799 -0.01785
 C1134 C 0.58312 0.43801 -0.01030
 H1135 H 0.69670 0.36770 -0.00332
 H1136 H 0.60791 0.46814 -0.02342
 H1137 H 0.72538 0.41586 -0.02301
 H1138 H 0.58210 0.41792 -0.00440
 C1139 C 0.24458 -0.10003 0.49425
 C1140 C 0.21874 -0.10656 0.49596
 C1141 C 0.19694 -0.08789 0.49286
 N1142 N 0.17256 -0.09622 0.49502
 N1143 N 0.15241 -0.07993 0.49197
 C1144 C 0.15579 -0.05461 0.48656
 N1145 N 0.18021 -0.04623 0.48435
 N1146 N 0.20043 -0.06257 0.48743
 C1147 C 0.13339 -0.03650 0.48348
 C1148 C 0.10833 -0.04468 0.48755
 H1149 H 0.21428 -0.12653 0.49916
 H1150 H 0.13667 -0.01648 0.47878
 H1151 H 0.24918 -0.08020 0.49023
 H1152 H 0.10544 -0.06465 0.49290
 C1153 C 0.29251 -0.10929 0.49453
 C1154 C 0.29966 -0.09039 0.51067
 C1155 C 0.32640 -0.08178 0.51106
 N1156 N 0.33258 -0.06167 0.52485
 N1157 N 0.35671 -0.05373 0.52502
 C1158 C 0.37555 -0.06568 0.51146
 N1159 N 0.36938 -0.08585 0.49783
 N1160 N 0.34530 -0.09372 0.49761
 C1161 C 0.40228 -0.05718 0.51100
 C1162 C 0.40968 -0.03514 0.52234
 H1163 H 0.28545 -0.08167 0.52299
 H1164 H 0.41642 -0.06833 0.50064
 H1165 H 0.30749 -0.11814 0.48308
 H1166 H 0.39546 -0.02364 0.53222
 C1167 C -0.22894 0.39023 0.97778
 C1168 C -0.22086 0.41101 0.99081
 C1169 C -0.19385 0.41847 0.98995
 N1170 N -0.18659 0.43905 1.00240
 N1171 N -0.16194 0.44526 1.00270
 C1172 C -0.14365 0.43101 0.99069
 N1173 N -0.15091 0.41044 0.97827
 N1174 N -0.17555 0.40428 0.97791
 C1175 C -0.11638 0.43744 0.99110
 C1176 C -0.10848 0.45988 1.00118
 H1177 H -0.23419 0.42112 1.00297
 H1178 H -0.10234 0.42456 0.98269
 H1179 H -0.21496 0.38059 0.96583
 H1180 H -0.12272 0.47318 1.00863
 C1181 C -0.24251 0.60296 0.51100
 C1182 C -0.22821 0.59568 0.48962
 C1183 C -0.20146 0.58522 0.49184
 N1184 N -0.18922 0.57602 0.47106
 N1185 N -0.16449 0.56821 0.47233
 C1186 C -0.15096 0.56961 0.49436
 N1187 N -0.16319 0.57887 0.51510
 N1188 N -0.18795 0.58650 0.51389
 C1189 C -0.12345 0.56155 0.49605
 C1190 C -0.11125 0.54674 0.47786
 H1191 H -0.23599 0.59944 0.47057
 H1192 H -0.11290 0.56611 0.51294
 H1193 H -0.23510 0.59671 0.52973
 H1194 H -0.12234 0.54041 0.46205
 C1195 C 0.27342 1.10035 -0.01045
 C1196 C 0.29845 1.10442 -0.00244
 C1197 C 0.32001 1.08574 -0.00398
 N1198 N 0.34242 1.09074 0.00748
 N1199 N 0.36248 1.07438 0.00673
 C1200 C 0.36105 1.05230 -0.00552
 N1201 N 0.33861 1.04726 -0.01718
 N1202 N 0.31836 1.06368 -0.01633
 C1203 C 0.38394 1.03486 -0.00673
 C1204 C 0.40572 1.03991 0.00731
 H1205 H 0.30232 1.12219 0.00625
 H1206 H 0.38426 1.01935 -0.01960
 H1207 H 0.26943 1.08293 -0.01973
 H1208 H 0.40469 1.05550 0.02011
 C1209 C -0.00899 1.21102 1.10789
 C1210 C -0.00094 1.20654 1.08299
 C1211 C -0.00242 1.18087 1.07307
 N1212 N 0.00736 1.17604 1.04965
 N1213 N 0.00595 1.15283 1.04063
 C1214 C -0.00537 1.13365 1.05466
 N1215 N -0.01524 1.13852 1.07800
 N1216 N -0.01378 1.16168 1.08703
 C1217 C -0.00695 1.10788 1.04513
 C1218 C 0.00464 1.10141 1.02222
 H1219 H 0.00664 1.22180 1.07068
 H1220 H -0.01701 1.09359 1.05670
 H1221 H -0.01462 1.19477 1.12017
 H1222 H 0.01511 1.11566 1.01098
 C1223 C 0.50594 0.71468 0.60208
 C1224 C 0.50595 0.69014 0.61398
 C1225 C 0.50692 0.66668 0.59975
 N1226 N 0.50425 0.64374 0.61264
 N1227 N 0.50482 0.62222 0.60022
 C1228 C 0.50818 0.62278 0.57441
 N1229 N 0.51104 0.64573 0.56150
 N1230 N 0.51038 0.66730 0.57393
 C1231 C 0.50839 0.59903 0.56052
 C1232 C 0.50175 0.57582 0.57270
 H1233 H 0.50468 0.68807 0.63468
 H1234 H 0.51295 0.60002 0.54025
 H1235 H 0.50764 0.71672 0.58140
 H1236 H 0.49624 0.57526 0.59274
 C1237 C -0.00505 0.74080 0.40764
 C1238 C 0.01206 0.71985 0.41189
 C1239 C 0.00402 0.69589 0.42523
 N1240 N 0.01779 0.67391 0.42170
 N1241 N 0.01021 0.65178 0.43243
 C1242 C -0.01135 0.65072 0.44726
 N1243 N -0.02489 0.67280 0.45126
 N1244 N -0.01744 0.69496 0.44028
 C1245 C -0.01968 0.62593 0.45870
 C1246 C -0.01177 0.60345 0.44750
 H1247 H 0.03120 0.71996 0.40371
 H1248 H -0.03134 0.62535 0.47595
 H1249 H -0.02393 0.73977 0.41652
 H1250 H -0.00136 0.60498 0.42946
 C1251 C 0.49431 1.23090 -0.09977
 C1252 C 0.47368 1.21477 -0.09561
 C1253 C 0.47822 1.18737 -0.08887
 N1254 N 0.45903 1.17315 -0.07857
 N1255 N 0.46301 1.14821 -0.07291
 C1256 C 0.48618 1.13653 -0.07775
 N1257 N 0.50521 1.15067 -0.08843
 N1258 N 0.50132 1.17563 -0.09384
 C1259 C 0.49124 1.10928 -0.07069
 C1260 C 0.47719 1.09675 -0.05141
 H1261 H 0.45401 1.22198 -0.09815
 H1262 H 0.50814 1.09981 -0.07859
 H1263 H 0.51327 1.22340 -0.09411
 H1264 H 0.46189 1.10713 -0.04180
 C1265 C 0.49447 0.27777 -0.09390
 C1266 C 0.49398 0.30360 -0.10214
 C1267 C 0.49380 0.32469 -0.08485
 N1268 N 0.48905 0.34886 -0.09467
 N1269 N 0.48862 0.36849 -0.07958
 C1270 C 0.49302 0.36472 -0.05407
 N1271 N 0.49796 0.34052 -0.04420
 N1272 N 0.49825 0.32080 -0.05931
 C1273 C 0.49296 0.38655 -0.03753
 C1274 C 0.48412 0.41079 -0.04664
 H1275 H 0.49251 0.30862 -0.12249
 H1276 H 0.50015 0.38358 -0.01814
 H1277 H 0.49531 0.27236 -0.07360
 H1278 H 0.47595 0.41326 -0.06568
 C1279 C -0.00206 -0.21233 0.40675
 C1280 C -0.00181 -0.18740 0.39580
 C1281 C 0.00206 -0.16483 0.41070
 N1282 N 0.00329 -0.14151 0.39826
 N1283 N 0.00761 -0.12086 0.41109
 C1284 C 0.01100 -0.12268 0.43688
 N1285 N 0.00975 -0.14603 0.44939
 N1286 N 0.00542 -0.16675 0.43652
 C1287 C 0.01544 -0.09966 0.45111
 C1288 C 0.01539 -0.07551 0.43847
 H1289 H -0.00293 -0.18450 0.37514
 H1290 H 0.01767 -0.10159 0.47172
 H1291 H -0.00016 -0.21525 0.42736
 H1292 H 0.01247 -0.07389 0.41793
 C1293 C 0.50122 -0.23761 0.60029
 C1294 C 0.50068 -0.21356 0.61058
 C1295 C 0.49859 -0.18928 0.59517
 N1296 N 0.50072 -0.16711 0.60700
 N1297 N 0.49970 -0.14477 0.59360
 C1298 C 0.49644 -0.14370 0.56782
 N1299 N 0.49401 -0.16589 0.55594
 N1300 N 0.49511 -0.18833 0.56938
 C1301 C 0.49626 -0.11893 0.55298
 C1302 C 0.50350 -0.09687 0.56441
 H1303 H 0.50290 -0.21248 0.63109
 H1304 H 0.49154 -0.11823 0.53279
 H1305 H 0.49928 -0.23891 0.57978
 H1306 H 0.50931 -0.09816 0.58433
 C1307 C -0.01026 0.25948 1.10071
 C1308 C -0.00431 0.28379 1.10817
 C1309 C -0.00985 0.30756 1.09275
 N1310 N -0.00569 0.33016 1.10314
 N1311 N -0.01067 0.35216 1.08989
 C1312 C -0.02006 0.35242 1.06571
 N1313 N -0.02426 0.32977 1.05524
 N1314 N -0.01933 0.30769 1.06857
 C1315 C -0.02433 0.37674 1.05062
 C1316 C -0.01945 0.40005 1.06099
 H1317 H 0.00363 0.28577 1.12703
 H1318 H -0.02960 0.37616 1.03065
 H1319 H -0.01968 0.25782 1.08247
 H1320 H -0.01409 0.40039 1.08096
 C1321 C 0.74848 0.36198 0.00899
 C1322 C 0.74731 0.37402 0.03219
 C1323 C 0.75153 0.36032 0.05713
 N1324 N 0.74775 0.37290 0.07890
 N1325 N 0.75140 0.36086 0.10176
 C1326 C 0.75912 0.33580 0.10365
 N1327 N 0.76308 0.32326 0.08186
 N1328 N 0.75935 0.33529 0.05899
 C1329 C 0.76239 0.32196 0.12867
 C1330 C 0.75488 0.33262 0.15154
 H1331 H 0.74280 0.39434 0.03217
 H1332 H 0.76933 0.30220 0.12885
 H1333 H 0.75281 0.34161 0.00933
 H1334 H 0.74714 0.35211 0.15132
 C1335 C 0.26454 0.86043 0.51731
 C1336 C 0.25867 0.86810 0.54192
 C1337 C 0.25972 0.85039 0.56481
 N1338 N 0.25476 0.85946 0.58820
 N1339 N 0.25564 0.84383 0.60919
 C1340 C 0.26151 0.81849 0.60761
 N1341 N 0.26645 0.80939 0.58420
 N1342 N 0.26559 0.82504 0.56318
 C1343 C 0.26234 0.80102 0.63075
 C1344 C 0.25769 0.80985 0.65510
 H1345 H 0.25345 0.88797 0.54462
 H1346 H 0.26646 0.78085 0.62852
 H1347 H 0.27163 0.84096 0.51527
 H1348 H 0.25368 0.83008 0.65713
 C1349 C 0.73508 0.63884 0.53209
 C1350 C 0.73406 0.62868 0.55736
 C1351 C 0.73339 0.64442 0.57974
 N1352 N 0.73435 0.63282 0.60357
 N1353 N 0.73366 0.64660 0.62422
 C1354 C 0.73183 0.67253 0.62179
 N1355 N 0.73072 0.68416 0.59794
 N1356 N 0.73151 0.67036 0.57726
 C1357 C 0.73151 0.68795 0.64445
 C1358 C 0.73643 0.67705 0.66897
 H1359 H 0.73345 0.60814 0.56091
 H1360 H 0.72859 0.70849 0.64159
 H1361 H 0.73524 0.65941 0.52858
 H1362 H 0.74045 0.65664 0.67162
 C1363 C 0.25226 0.12778 0.02136
 C1364 C 0.23655 0.14726 0.03083
 C1365 C 0.23816 0.15435 0.05765
 N1366 N 0.22493 0.17540 0.06520
 N1367 N 0.22699 0.18269 0.08908
 C1368 C 0.24228 0.16918 0.10641
 N1369 N 0.25526 0.14790 0.09897
 N1370 N 0.25328 0.14065 0.07503
 C1371 C 0.24547 0.17798 0.13252
 C1372 C 0.23655 0.20233 0.13841
 H1373 H 0.22337 0.15816 0.01811
 H1374 H 0.25593 0.16586 0.14667
 H1375 H 0.26437 0.11653 0.03488
 H1376 H 0.22712 0.21449 0.12357
 C1377 C 0.25369 0.14371 0.97530
 C1378 C 0.27280 0.14760 0.95666
 C1379 C 0.26785 0.16436 0.93357
 N1380 N 0.28772 0.17249 0.91861
 N1381 N 0.28325 0.18542 0.89629
 C1382 C 0.25873 0.19033 0.88797
 N1383 N 0.23890 0.18219 0.90291
 N1384 N 0.24336 0.16957 0.92535
 C1385 C 0.25348 0.20203 0.86227
 C1386 C 0.27086 0.21753 0.84901
 H1387 H 0.29083 0.13667 0.95749
 H1388 H 0.23530 0.19819 0.85340
 H1389 H 0.23704 0.15683 0.97443
 H1390 H 0.28772 0.22385 0.85864
 C1391 C 0.73351 0.63739 0.48446
 C1392 C 0.75052 0.65674 0.47773
 C1393 C 0.74924 0.66998 0.45213
 N1394 N 0.76265 0.69143 0.44667
 N1395 N 0.76111 0.70346 0.42351
 C1396 C 0.74617 0.69436 0.40502
 N1397 N 0.73299 0.67288 0.41046
 N1398 N 0.73444 0.66098 0.43355
 C1399 C 0.74419 0.70669 0.37919
 C1400 C 0.75456 0.73022 0.37199
 H1401 H 0.76455 0.66236 0.49139
 H1402 H 0.73369 0.69667 0.36522
 H1403 H 0.72021 0.63191 0.46997
 H1404 H 0.76434 0.74089 0.38596
 C1405 C 0.26404 0.86673 0.46888
 C1406 C 0.25376 0.84286 0.46532
 C1407 C 0.25431 0.83195 0.43991
 N1408 N 0.24467 0.80859 0.43664
 N1409 N 0.24555 0.79857 0.41372
 C1410 C 0.25616 0.81156 0.39328
 N1411 N 0.26576 0.83486 0.39659
 N1412 N 0.26488 0.84484 0.41944
 C1413 C 0.25733 0.80130 0.36769
 C1414 C 0.24791 0.77764 0.36210
 H1415 H 0.24537 0.83190 0.48121
 H1416 H 0.26570 0.81327 0.35249
 H1417 H 0.27072 0.87772 0.45209
 H1418 H 0.23953 0.76550 0.37715
 C1419 C 0.74096 0.36022 0.96158
 C1420 C 0.75595 0.33847 0.95645
 C1421 C 0.75407 0.32706 0.93155
 N1422 N 0.76190 0.30240 0.92871
 N1423 N 0.76036 0.29227 0.90595
 C1424 C 0.75127 0.30659 0.88524
 N1425 N 0.74382 0.33131 0.88804
 N1426 N 0.74509 0.34132 0.91080
 C1427 C 0.74962 0.29601 0.86000
 C1428 C 0.74867 0.26987 0.85700
 H1429 H 0.76987 0.33039 0.97024
 H1430 H 0.74758 0.30929 0.84344
 H1431 H 0.72720 0.36731 0.94709
 H1432 H 0.74851 0.25666 0.87370
 C1433 C 0.84386 0.50044 0.24122
 C1434 C 0.85051 0.47437 0.24093
 C1435 C 0.83236 0.45358 0.23995
 N1436 N 0.84191 0.42923 0.24290
 N1437 N 0.82640 0.40965 0.24267
 C1438 C 0.80063 0.41351 0.23941
 N1439 N 0.79096 0.43794 0.23610
 N1440 N 0.80656 0.45769 0.23645
 C1441 C 0.78380 0.39130 0.23967
 C1442 C 0.79352 0.36743 0.24905
 H1443 H 0.87071 0.46860 0.24269
 H1444 H 0.76424 0.39361 0.23262
 H1445 H 0.82380 0.50685 0.24019
 H1446 H 0.81271 0.36618 0.25718
 C1447 C 0.35394 0.97043 0.75429
 C1448 C 0.36576 0.94602 0.75480
 C1449 C 0.35107 0.92295 0.75126
 N1450 N 0.36322 0.89954 0.75245
 N1451 N 0.35013 0.87855 0.74914
 C1452 C 0.32440 0.88024 0.74442
 N1453 N 0.31230 0.90364 0.74315
 N1454 N 0.32537 0.92460 0.74649
 C1455 C 0.30935 0.85736 0.74128
 C1456 C 0.31997 0.83253 0.74416
 H1457 H 0.38638 0.94379 0.75757
 H1458 H 0.28890 0.86026 0.73769
 H1459 H 0.33339 0.97225 0.75076
 H1460 H 0.34034 0.82953 0.74810
 C1461 C 0.14263 0.97280 0.23118
 C1462 C 0.15835 0.96286 0.25122
 C1463 C 0.16536 0.93523 0.25367
 N1464 N 0.18246 0.92582 0.27169
 N1465 N 0.18839 0.90080 0.27410
 C1466 C 0.17723 0.88424 0.25875
 N1467 N 0.16002 0.89364 0.24093
 N1468 N 0.15421 0.91859 0.23845
 C1469 C 0.18393 0.85662 0.26039
 C1470 C 0.20448 0.84611 0.27494
 H1471 H 0.16466 0.97517 0.26572
 H1472 H 0.17359 0.84452 0.24812
 H1473 H 0.13721 0.95964 0.21699
 H1474 H 0.21555 0.85840 0.28635
 C1475 C 0.65056 0.46555 0.77143
 C1476 C 0.64103 0.44178 0.76640
 C1477 C 0.65623 0.41770 0.76992
 N1478 N 0.64508 0.39547 0.76524
 N1479 N 0.65861 0.37343 0.76726
 C1480 C 0.68386 0.37272 0.77400
 N1481 N 0.69505 0.39497 0.77883
 N1482 N 0.68146 0.41710 0.77684
 C1483 C 0.69902 0.34836 0.77509
 C1484 C 0.68759 0.32576 0.76923
 H1485 H 0.62159 0.44084 0.75918
 H1486 H 0.71937 0.34836 0.77955
 H1487 H 0.66956 0.46637 0.77979
 H1488 H 0.66721 0.32617 0.76480
 C1489 C 0.65322 0.51222 0.76595
 C1490 C 0.65225 0.53155 0.78343
 C1491 C 0.66746 0.55459 0.77986
 N1492 N 0.66196 0.57497 0.79411
 N1493 N 0.67458 0.59654 0.79022
 C1494 C 0.69323 0.59847 0.77198
 N1495 N 0.69898 0.57797 0.75796
 N1496 N 0.68626 0.55645 0.76175
 C1497 C 0.70685 0.62231 0.76693
 C1498 C 0.69862 0.64527 0.77713
 H1499 H 0.63890 0.53086 0.79939
 H1500 H 0.72318 0.62196 0.75394
 H1501 H 0.66759 0.51333 0.75081
 H1502 H 0.68168 0.64584 0.78932
 C1503 C 0.14787 0.02071 0.23035
 C1504 C 0.13836 0.04608 0.23015
 C1505 C 0.15438 0.06873 0.22922
 N1506 N 0.14270 0.09222 0.23036
 N1507 N 0.15646 0.11321 0.22936
 C1508 C 0.18250 0.11157 0.22707
 N1509 N 0.19425 0.08805 0.22586
 N1510 N 0.18046 0.06698 0.22693
 C1511 C 0.19787 0.13479 0.22607
 C1512 C 0.18667 0.15905 0.22944
 H1513 H 0.11767 0.04954 0.23069
 H1514 H 0.21851 0.13263 0.22329
 H1515 H 0.16846 0.01662 0.22960
 H1516 H 0.16613 0.16099 0.23296
 C1517 C 0.35104 0.01721 0.76009
 C1518 C 0.36060 0.04154 0.76224
 C1519 C 0.34417 0.06442 0.76583
 N1520 N 0.35523 0.08742 0.76602
 N1521 N 0.34082 0.10871 0.76802
 C1522 C 0.31478 0.10785 0.76998
 N1523 N 0.30368 0.08476 0.77024
 N1524 N 0.31813 0.06339 0.76817
 C1525 C 0.29886 0.13167 0.77012
 C1526 C 0.30972 0.15494 0.76302
 H1527 H 0.38117 0.04405 0.76039
 H1528 H 0.27832 0.13073 0.77356
 H1529 H 0.33044 0.01472 0.76155
 H1530 H 0.33001 0.15525 0.75806
 C1531 C 0.85437 0.54685 0.24317
 C1532 C 0.83781 0.55680 0.26155
 C1533 C 0.83180 0.58447 0.26223
 N1534 N 0.81660 0.59346 0.28114
 N1535 N 0.81149 0.61848 0.28233
 C1536 C 0.82150 0.63549 0.26473
 N1537 N 0.83677 0.62651 0.24585
 N1538 N 0.84188 0.60149 0.24466
 C1539 C 0.81507 0.66312 0.26522
 C1540 C 0.79730 0.67259 0.28269
 H1541 H 0.83037 0.54414 0.27670
 H1542 H 0.82279 0.67587 0.25028
 H1543 H 0.86159 0.55986 0.22817
 H1544 H 0.78896 0.65950 0.29695
 C1545 C 0.96565 0.23822 0.13519
 C1546 C 0.96007 0.25673 0.15281
 C1547 C 0.93328 0.26234 0.16049
 N1548 N 0.92786 0.27729 0.18036
 N1549 N 0.90347 0.28249 0.18701
 C1550 C 0.88373 0.27321 0.17376
 N1551 N 0.88920 0.25860 0.15374
 N1552 N 0.91349 0.25328 0.14723
 C1553 C 0.85676 0.27734 0.18128
 C1554 C 0.84945 0.28689 0.20466
 H1555 H 0.97521 0.26804 0.15998
 H1556 H 0.84229 0.26995 0.16908
 H1557 H 0.94982 0.22721 0.12880
 H1558 H 0.86386 0.29385 0.21719
 C1559 C 0.48350 0.73763 0.63705
 C1560 C 0.45822 0.73391 0.62941
 C1561 C 0.43574 0.73680 0.64642
 N1562 N 0.41176 0.73411 0.63700
 N1563 N 0.39105 0.73700 0.65185
 C1564 C 0.39352 0.74274 0.67671
 N1565 N 0.41752 0.74539 0.68617
 N1566 N 0.43827 0.74252 0.67130
 C1567 C 0.37071 0.74576 0.69336
 C1568 C 0.34575 0.74321 0.68428
 H1569 H 0.45467 0.72957 0.60974
 H1570 H 0.37370 0.74960 0.71325
 H1571 H 0.48680 0.74349 0.65627
 H1572 H 0.34292 0.73931 0.66438
 C1573 C 0.46716 0.26194 0.87247
 C1574 C 0.46062 0.24853 0.85125
 C1575 C 0.43553 0.25284 0.83854
 N1576 N 0.43021 0.24035 0.81726
 N1577 N 0.40742 0.24393 0.80578
 C1578 C 0.38913 0.26013 0.81518
 N1579 N 0.39448 0.27262 0.83644
 N1580 N 0.41727 0.26909 0.84787
 C1581 C 0.36354 0.26356 0.80340
 C1582 C 0.35718 0.25157 0.78129
 H1583 H 0.47416 0.23449 0.84393
 H1584 H 0.34909 0.27509 0.81295
 H1585 H 0.45292 0.27520 0.88002
 H1586 H 0.37178 0.24037 0.77157
 C1587 C 0.97878 0.76634 0.36995
 C1588 C 0.95302 0.77161 0.37618
 C1589 C 0.93150 0.77007 0.35819
 N1590 N 0.90747 0.77712 0.36588
 N1591 N 0.88740 0.77534 0.35048
 C1592 C 0.89044 0.76632 0.32675
 N1593 N 0.91453 0.75916 0.31899
 N1594 N 0.93472 0.76102 0.33444
 C1595 C 0.86780 0.76422 0.30998
 C1596 C 0.84382 0.77413 0.31749
 H1597 H 0.94827 0.77663 0.39552
 H1598 H 0.86993 0.75498 0.29203
 H1599 H 0.98342 0.76098 0.35069
 H1600 H 0.84255 0.78390 0.33522
 C1601 C 0.02624 0.76468 0.37753
 C1602 C 0.03493 0.74726 0.35987
 C1603 C 0.05983 0.75051 0.34667
 N1604 N 0.07419 0.72986 0.33973
 N1605 N 0.09695 0.73283 0.32818
 C1606 C 0.10599 0.75658 0.32282
 N1607 N 0.09141 0.77722 0.32936
 N1608 N 0.06885 0.77424 0.34123
 C1609 C 0.13097 0.76016 0.30989
 C1610 C 0.15102 0.74186 0.31259
 H1611 H 0.02377 0.73074 0.35639
 H1612 H 0.13408 0.77809 0.29918
 H1613 H 0.03905 0.77984 0.38167
 H1614 H 0.14858 0.72512 0.32538
 C1615 C 0.51512 0.25949 0.86820
 C1616 C 0.54051 0.25756 0.87698
 C1617 C 0.56269 0.25446 0.85982
 N1618 N 0.58608 0.24749 0.86987
 N1619 N 0.60631 0.24358 0.85466
 C1620 C 0.60388 0.24654 0.82881
 N1621 N 0.58054 0.25374 0.81875
 N1622 N 0.56025 0.25751 0.83397
 C1623 C 0.62612 0.24262 0.81186
 C1624 C 0.64953 0.23195 0.82096
 H1625 H 0.54410 0.25625 0.89741
 H1626 H 0.62403 0.24850 0.79176
 H1627 H 0.51167 0.26056 0.84774
 H1628 H 0.65128 0.22516 0.84085
 C1629 C 0.53192 0.73982 0.62969
 C1630 C 0.53883 0.72941 0.65400
 C1631 C 0.56505 0.73179 0.66414
 N1632 N 0.57071 0.72355 0.68861
 N1633 N 0.59432 0.72587 0.69795
 C1634 C 0.61314 0.73649 0.68312
 N1635 N 0.60749 0.74462 0.65865
 N1636 N 0.58390 0.74237 0.64936
 C1637 C 0.63943 0.73909 0.69284
 C1638 C 0.64630 0.73291 0.71825
 H1639 H 0.52483 0.71956 0.66595
 H1640 H 0.65383 0.74619 0.67943
 H1641 H 0.54681 0.74849 0.61784
 H1642 H 0.63182 0.72630 0.73182
 C1643 C 0.01401 0.23656 0.13715
 C1644 C 0.03864 0.23874 0.12656
 C1645 C 0.06190 0.24034 0.14210
 N1646 N 0.08466 0.24550 0.13041
 N1647 N 0.10597 0.24741 0.14412
 C1648 C 0.10528 0.24418 0.17005
 N1649 N 0.08253 0.23891 0.18176
 N1650 N 0.06119 0.23709 0.16804
 C1651 C 0.12869 0.24584 0.18543
 C1652 C 0.15210 0.25329 0.17468
 H1653 H 0.04076 0.24048 0.10592
 H1654 H 0.12741 0.24090 0.20579
 H1655 H 0.01172 0.23431 0.15776
 H1656 H 0.15322 0.25893 0.15446
 C1657 C -0.09974 0.97523 0.75471
 C1658 C -0.07798 0.98809 0.76158
 C1659 C -0.07002 0.98769 0.78858
 N1660 N -0.04658 0.99594 0.79504
 N1661 N -0.04018 0.99719 0.81961
 C1662 C -0.05716 0.99063 0.83854
 N1663 N -0.08063 0.98260 0.83206
 N1664 N -0.08690 0.98107 0.80757
 C1665 C -0.05087 0.99277 0.86567
 C1666 C -0.02555 0.99261 0.87416
 H1667 H -0.06867 1.00093 0.74781
 H1668 H -0.06653 0.99321 0.87945
 H1669 H -0.10775 0.96198 0.76909
 H1670 H -0.00990 0.98974 0.86069
 C1671 C 0.39696 0.48722 0.28556
 C1672 C 0.38963 0.48725 0.31134
 C1673 C 0.40729 0.48341 0.33331
 N1674 N 0.39739 0.48503 0.35722
 N1675 N 0.41252 0.48206 0.37767
 C1676 C 0.43826 0.47729 0.37520
 N1677 N 0.44826 0.47545 0.35123
 N1678 N 0.43305 0.47849 0.33062
 C1679 C 0.45487 0.47469 0.39828
 C1680 C 0.44456 0.48043 0.42211
 H1681 H 0.36943 0.49068 0.31576
 H1682 H 0.47504 0.46907 0.39647
 H1683 H 0.41705 0.48400 0.28058
 H1684 H 0.42454 0.48695 0.42301
 C1685 C 0.59879 0.02423 0.27214
 C1686 C 0.60932 0.02448 0.29661
 C1687 C 0.59367 0.02425 0.32012
 N1688 N 0.60556 0.02080 0.34311
 N1689 N 0.59192 0.02008 0.36474
 C1690 C 0.56582 0.02292 0.36426
 N1691 N 0.55387 0.02667 0.34125
 N1692 N 0.56755 0.02726 0.31954
 C1693 C 0.55078 0.02154 0.38828
 C1694 C 0.56229 0.01204 0.41104
 H1695 H 0.63009 0.02403 0.29866
 H1696 H 0.53051 0.02718 0.38792
 H1697 H 0.57802 0.02510 0.27003
 H1698 H 0.58222 0.00518 0.41067
 C1699 C 0.10244 0.50380 0.76656
 C1700 C 0.11167 0.50096 0.79167
 C1701 C 0.09499 0.49958 0.81440
 N1702 N 0.10558 0.49301 0.83761
 N1703 N 0.09091 0.49113 0.85854
 C1704 C 0.06507 0.49580 0.85704
 N1705 N 0.05447 0.50250 0.83384
 N1706 N 0.06915 0.50427 0.81285
 C1707 C 0.04876 0.49434 0.88009
 C1708 C 0.05826 0.48522 0.90394
 H1709 H 0.13222 0.49804 0.79470
 H1710 H 0.02882 0.50096 0.87825
 H1711 H 0.08191 0.50630 0.76321
 H1712 H 0.07795 0.47778 0.90562
 C1713 C 0.10685 0.50536 0.71870
 C1714 C 0.08676 0.49027 0.71144
 C1715 C 0.07590 0.49292 0.68536
 N1716 N 0.05609 0.47839 0.67876
 N1717 N 0.04667 0.48032 0.65499
 C1718 C 0.05681 0.49682 0.63697
 N1719 N 0.07657 0.51130 0.64361
 N1720 N 0.08591 0.50942 0.66732
 C1721 C 0.04732 0.49909 0.61045
 C1722 C 0.02612 0.48625 0.60203
 H1723 H 0.07948 0.47577 0.72489
 H1724 H 0.05749 0.51166 0.59703
 H1725 H 0.11404 0.51950 0.70476
 H1726 H 0.01536 0.47422 0.61545
 C1727 C 0.60042 1.01930 0.22500
 C1728 C 0.61199 1.02048 0.20081
 C1729 C 0.59935 1.01250 0.17778
 N1730 N 0.61169 1.01501 0.15491
 N1731 N 0.60064 1.00788 0.13367
 C1732 C 0.57691 0.99782 0.13458
 N1733 N 0.56462 0.99512 0.15750
 N1734 N 0.57566 1.00231 0.17876
 C1735 C 0.56400 0.99111 0.11114
 C1736 C 0.57421 0.99725 0.08696
 H1737 H 0.63151 1.02702 0.19885
 H1738 H 0.54509 0.98308 0.11294
 H1739 H 0.58110 1.01226 0.22717
 H1740 H 0.59277 1.00601 0.08520
 C1741 C 0.38843 0.48955 0.23808
 C1742 C 0.40805 0.50466 0.22803
 C1743 C 0.41554 0.50387 0.20081
 N1744 N 0.43668 0.51601 0.19182
 N1745 N 0.44330 0.51546 0.16716
 C1746 C 0.42893 0.50291 0.15055
 N1747 N 0.40770 0.49097 0.15950
 N1748 N 0.40117 0.49141 0.18414
 C1749 C 0.43594 0.50201 0.12326
 C1750 C 0.45955 0.51030 0.11394
 H1751 H 0.41754 0.51754 0.24012
 H1752 H 0.42256 0.49385 0.11044
 H1753 H 0.37949 0.47681 0.22538
 H1754 H 0.47328 0.51747 0.12708
 C1755 C -0.10228 -0.01503 0.70696
 C1756 C -0.08963 0.00641 0.69689
 C1757 C -0.08021 0.00814 0.67022
 N1758 N -0.06528 0.02770 0.66200
 N1759 N -0.05730 0.02986 0.63771
 C1760 C -0.06420 0.01268 0.62067
 N1761 N -0.07931 -0.00675 0.62885
 N1762 N -0.08715 -0.00900 0.65316
 C1763 C -0.05518 0.01454 0.59387
 C1764 C -0.03503 0.03008 0.58615
 H1765 H -0.08758 0.02278 0.70838
 H1766 H -0.06323 0.00200 0.58044
 H1767 H -0.10245 -0.03157 0.69544
 H1768 H -0.02584 0.04122 0.60013
 C1769 C -0.21434 0.88346 0.99938
 C1770 C -0.20827 0.90255 0.98072
 C1771 C -0.18229 0.91331 0.97968
 N1772 N -0.17628 0.93202 0.96179
 N1773 N -0.15240 0.94073 0.96019
 C1774 C -0.13367 0.93084 0.97631
 N1775 N -0.13973 0.91220 0.99409
 N1776 N -0.16350 0.90360 0.99574
 C1777 C -0.10703 0.93960 0.97531
 C1778 C -0.09869 0.96057 0.96019
 H1779 H -0.22202 0.90863 0.96598
 H1780 H -0.09355 0.92954 0.98838
 H1781 H -0.20003 0.87880 1.01409
 H1782 H -0.11207 0.97133 0.94755
 C1783 C 0.26468 0.38940 0.47981
 C1784 C 0.29056 0.38121 0.47970
 C1785 C 0.31202 0.39809 0.48332
 N1786 N 0.33558 0.38738 0.48893
 N1787 N 0.35522 0.40191 0.49383
 C1788 C 0.35213 0.42776 0.49326
 N1789 N 0.32864 0.43860 0.48722
 N1790 N 0.30884 0.42399 0.48249
 C1791 C 0.37402 0.44359 0.49903
 C1792 C 0.39574 0.43244 0.51127
 H1793 H 0.29518 0.36086 0.47994
 H1794 H 0.37317 0.46381 0.49344
 H1795 H 0.25981 0.40962 0.48060
 H1796 H 0.39559 0.41246 0.51784
 C1797 C 0.26059 0.60812 0.01420
 C1798 C 0.28560 0.61706 0.01194
 C1799 C 0.30900 0.60122 0.01749
 N1800 N 0.33227 0.61199 0.01469
 N1801 N 0.35392 0.59808 0.01888
 C1802 C 0.35316 0.57283 0.02608
 N1803 N 0.32985 0.56204 0.02907
 N1804 N 0.30812 0.57598 0.02487
 C1805 C 0.37712 0.55709 0.02929
 C1806 C 0.40109 0.56721 0.02345
 H1807 H 0.28829 0.63682 0.00562
 H1808 H 0.37573 0.53689 0.03453
 H1809 H 0.25798 0.58896 0.02240
 H1810 H 0.40222 0.58730 0.01758
 C1811 C -0.22126 0.12077 0.49489
 C1812 C -0.19750 0.13046 0.48737
 C1813 C -0.17338 0.11493 0.48810
 N1814 N -0.15098 0.12593 0.48105
 N1815 N -0.12873 0.11248 0.48244
 C1816 C -0.12806 0.08753 0.49101
 N1817 N -0.15048 0.07649 0.49799
 N1818 N -0.17275 0.08994 0.49659
 C1819 C -0.10362 0.07252 0.49302
 C1820 C -0.08010 0.08273 0.48553
 H1821 H -0.19636 0.15063 0.48188
 H1822 H -0.10425 0.05284 0.50044
 H1823 H -0.22228 0.10082 0.50134
 H1824 H -0.07954 0.10227 0.47766
 C1825 C 0.73085 0.12458 0.50398
 C1826 C 0.72351 0.10329 0.49127
 C1827 C 0.69769 0.09298 0.49508
 N1828 N 0.69110 0.07166 0.48342
 N1829 N 0.66758 0.06252 0.48657
 C1830 C 0.64981 0.07443 0.50142
 N1831 N 0.65640 0.09574 0.51300
 N1832 N 0.67988 0.10482 0.50991
 C1833 C 0.62373 0.06486 0.50507
 C1834 C 0.61629 0.04206 0.49535
 H1835 H 0.73664 0.09435 0.47803
 H1836 H 0.61014 0.07598 0.51612
 H1837 H 0.71686 0.13344 0.51653
 H1838 H 0.63004 0.03064 0.48481
 C1839 C 0.21231 0.61310 1.00514
 C1840 C 0.20944 0.58753 0.99974
 C1841 C 0.18345 0.57757 0.99698
 N1842 N 0.18016 0.55242 0.99337
 N1843 N 0.15653 0.54343 0.99173
 C1844 C 0.13539 0.55932 0.99362
 N1845 N 0.13873 0.58441 0.99704
 N1846 N 0.16226 0.59334 0.99869
 C1847 C 0.10908 0.55008 0.99290
 C1848 C 0.10344 0.52461 0.99000
 H1849 H 0.22600 0.57468 0.99780
 H1850 H 0.09347 0.56403 0.99538
 H1851 H 0.19506 0.62538 1.00574
 H1852 H 0.11884 0.51060 0.98698
 C1853 C 0.21719 0.38270 0.48172
 C1854 C 0.20836 0.40125 0.49816
 C1855 C 0.18136 0.41080 0.49783
 N1856 N 0.17346 0.42935 0.51352
 N1857 N 0.14891 0.43774 0.51364
 C1858 C 0.13138 0.42776 0.49816
 N1859 N 0.13928 0.40919 0.48255
 N1860 N 0.16380 0.40086 0.48238
 C1861 C 0.10425 0.43676 0.49775
 C1862 C 0.09516 0.45735 0.51142
 H1863 H 0.22135 0.40822 0.51212
 H1864 H 0.09123 0.42739 0.48546
 H1865 H 0.20383 0.37589 0.46798
 H1866 H 0.10827 0.46718 0.52321
 C1867 C 0.73772 0.87807 -0.00893
 C1868 C 0.72898 0.90165 -0.00048
 C1869 C 0.70220 0.91113 -0.00523
 N1870 N 0.69449 0.93488 0.00140
 N1871 N 0.67020 0.94333 -0.00238
 C1872 C 0.65267 0.92833 -0.01287
 N1873 N 0.66039 0.90459 -0.01947
 N1874 N 0.68468 0.89618 -0.01577
 C1875 C 0.62549 0.93708 -0.01621
 C1876 C 0.61728 0.96184 -0.01100
 H1877 H 0.74173 0.91305 0.01012
 H1878 H 0.61163 0.92355 -0.02196
 H1879 H 0.72413 0.86681 -0.01873
 H1880 H 0.63144 0.97525 -0.00560
 C1881 C 0.00040 0.76821 0.89739
 C1882 C -0.00323 0.79303 0.88674
 C1883 C -0.00695 0.81536 0.90225
 N1884 N -0.00727 0.83904 0.89049
 N1885 N -0.00974 0.85969 0.90409
 C1886 C -0.01211 0.85748 0.93000
 N1887 N -0.01225 0.83375 0.94181
 N1888 N -0.00966 0.81303 0.92816
 C1889 C -0.01316 0.88047 0.94499
 C1890 C -0.00501 0.90354 0.93382
 H1891 H -0.00257 0.79636 0.86612
 H1892 H -0.01857 0.87895 0.96504
 H1893 H -0.00062 0.76501 0.91802
 H1894 H 0.00204 0.90411 0.91425
 C1895 C 0.48700 0.27547 0.38652
 C1896 C 0.49793 0.27966 0.41019
 C1897 C 0.49614 0.30509 0.42091
 N1898 N 0.50164 0.30785 0.44593
 N1899 N 0.50082 0.33096 0.45545
 C1900 C 0.49477 0.35219 0.44022
 N1901 N 0.48952 0.34944 0.41517
 N1902 N 0.49010 0.32634 0.40572
 C1903 C 0.49428 0.37789 0.45029
 C1904 C 0.49230 0.38150 0.47642
 H1905 H 0.50883 0.26443 0.42050
 H1906 H 0.49445 0.39433 0.43678
 H1907 H 0.47615 0.29126 0.37693
 H1908 H 0.49011 0.36508 0.48969
 C1909 C -0.01362 0.27393 0.62113
 C1910 C 0.00254 0.28493 0.60247
 C1911 C -0.00260 0.31088 0.59079
 N1912 N 0.01345 0.32053 0.57241
 N1913 N 0.00985 0.34441 0.56261
 C1914 C -0.00986 0.35964 0.57091
 N1915 N -0.02594 0.34999 0.58927
 N1916 N -0.02239 0.32607 0.59902
 C1917 C -0.01358 0.38635 0.56068
 C1918 C 0.00114 0.39614 0.54027
 H1919 H 0.02031 0.27488 0.59753
 H1920 H -0.02821 0.39843 0.56927
 H1921 H -0.03107 0.28451 0.62617
 H1922 H 0.01510 0.38361 0.53125
 C1923 C 0.49930 0.77611 0.11668
 C1924 C 0.51645 0.78419 0.09746
 C1925 C 0.51769 0.81121 0.08845
 N1926 N 0.53347 0.81816 0.06868
 N1927 N 0.53507 0.84267 0.06071
 C1928 C 0.52110 0.86112 0.07242
 N1929 N 0.50546 0.85418 0.09227
 N1930 N 0.50378 0.82970 0.10014
 C1931 C 0.52196 0.88820 0.06363
 C1932 C 0.53424 0.89640 0.04100
 H1933 H 0.53000 0.77047 0.08962
 H1934 H 0.51091 0.90189 0.07442
 H1935 H 0.48602 0.79010 0.12454
 H1936 H 0.54449 0.88263 0.02963
 C1937 C 0.49903 0.72925 0.11011
 C1938 C 0.50180 0.70338 0.11776
 C1939 C 0.50044 0.68271 0.10014
 N1940 N 0.50670 0.65850 0.10889
 N1941 N 0.50571 0.63925 0.09347
 C1942 C 0.49834 0.64343 0.06867
 N1943 N 0.49190 0.66767 0.05988
 N1944 N 0.49301 0.68703 0.07533
 C1945 C 0.49684 0.62190 0.05190
 C1946 C 0.50639 0.59767 0.06015
 H1947 H 0.50591 0.69807 0.13769
 H1948 H 0.48774 0.62498 0.03334
 H1949 H 0.49475 0.73483 0.09027
 H1950 H 0.51614 0.59516 0.07844
 C1951 C 0.00432 0.22802 0.62314
 C1952 C -0.00604 0.22138 0.59992
 C1953 C 0.00117 0.19691 0.58854
 N1954 N -0.00719 0.19221 0.56477
 N1955 N -0.00145 0.16990 0.55462
 C1956 C 0.01275 0.15135 0.56789
 N1957 N 0.02106 0.15603 0.59168
 N1958 N 0.01543 0.17839 0.60178
 C1959 C 0.01835 0.12620 0.55722
 C1960 C 0.01235 0.12166 0.53195
 H1961 H -0.02012 0.23406 0.59010
 H1962 H 0.02673 0.11090 0.56962
 H1963 H 0.01824 0.21466 0.63228
 H1964 H 0.00461 0.13734 0.51960
 C1965 C 0.49348 0.22752 0.38703
 C1966 C 0.51497 0.21507 0.39875
 C1967 C 0.51365 0.18888 0.41053
 N1968 N 0.53336 0.17869 0.42519
 N1969 N 0.53258 0.15478 0.43530
 C1970 C 0.51218 0.14008 0.43090
 N1971 N 0.49259 0.15023 0.41610
 N1972 N 0.49329 0.17416 0.40615
 C1973 C 0.51093 0.11357 0.44175
 C1974 C 0.52730 0.10373 0.46122
 H1975 H 0.53324 0.22439 0.39882
 H1976 H 0.49576 0.10192 0.43512
 H1977 H 0.47518 0.21836 0.38932
 H1978 H 0.54140 0.11590 0.46898
 C1979 C 0.01156 0.72171 0.89679
 C1980 C 0.01575 0.69838 0.88555
 C1981 C 0.02087 0.67435 0.90058
 N1982 N 0.02087 0.65195 0.88881
 N1983 N 0.02388 0.62978 0.90233
 C1984 C 0.02715 0.62924 0.92810
 N1985 N 0.02764 0.65166 0.93983
 N1986 N 0.02452 0.67385 0.92631
 C1987 C 0.02816 0.60495 0.94346
 C1988 C 0.02141 0.58222 0.93309
 H1989 H 0.01373 0.69755 0.86500
 H1990 H 0.03163 0.60547 0.96384
 H1991 H 0.01301 0.72241 0.91742
 H1992 H 0.01710 0.58196 0.91285
 C1993 C 0.24107 0.64442 0.98652
 C1994 C 0.24694 0.63466 0.96271
 C1995 C 0.24792 0.65037 0.93856
 N1996 N 0.25293 0.63886 0.91635
 N1997 N 0.25335 0.65248 0.89408
 C1998 C 0.24874 0.67818 0.89319
 N1999 N 0.24380 0.68972 0.91542
 N2000 N 0.24338 0.67608 0.93772
 C2001 C 0.24877 0.69349 0.86870
 C2002 C 0.25319 0.68268 0.84515
 H2003 H 0.25022 0.61420 0.96165
 H2004 H 0.24496 0.71391 0.86931
 H2005 H 0.23689 0.66472 0.98781
 H2006 H 0.25703 0.66227 0.84450
 C2007 C 0.75087 0.15646 0.47516
 C2008 C 0.74960 0.14737 0.45070
 C2009 C 0.74416 0.16430 0.42801
 N2010 N 0.74527 0.15464 0.40453
 N2011 N 0.74119 0.16983 0.38361
 C2012 C 0.73575 0.19522 0.38540
 N2013 N 0.73428 0.20485 0.40893
 N2014 N 0.73843 0.18965 0.42989
 C2015 C 0.73282 0.21223 0.36226
 C2016 C 0.73954 0.20348 0.33842
 H2017 H 0.75330 0.12722 0.44802
 H2018 H 0.72716 0.23214 0.36417
 H2019 H 0.74662 0.17659 0.47758
 H2020 H 0.74622 0.18378 0.33694
 C2021 C 0.24666 0.35012 0.46375
 C2022 C 0.24560 0.35777 0.43779
 C2023 C 0.24770 0.34015 0.41697
 N2024 N 0.24545 0.34989 0.39254
 N2025 N 0.24691 0.33462 0.37310
 C2026 C 0.25071 0.30896 0.37723
 N2027 N 0.25315 0.29912 0.40174
 N2028 N 0.25164 0.31447 0.42130
 C2029 C 0.25183 0.29228 0.35536
 C2030 C 0.24653 0.30276 0.33079
 H2031 H 0.24275 0.37795 0.43243
 H2032 H 0.25644 0.27204 0.35854
 H2033 H 0.24942 0.33002 0.46949
 H2034 H 0.24137 0.32296 0.32831
 C2035 C 0.77041 0.84661 0.97689
 C2036 C 0.76935 0.85482 0.95093
 C2037 C 0.77305 0.83822 0.92934
 N2038 N 0.77029 0.84873 0.90518
 N2039 N 0.77214 0.83429 0.88507
 C2040 C 0.77686 0.80868 0.88830
 N2041 N 0.77991 0.79812 0.91250
 N2042 N 0.77802 0.81262 0.93270
 C2043 C 0.77745 0.79247 0.86609
 C2044 C 0.77095 0.80248 0.84153
 H2045 H 0.76387 0.87455 0.94590
 H2046 H 0.78146 0.77212 0.86938
 H2047 H 0.77584 0.82684 0.98211
 H2048 H 0.76625 0.82274 0.83856
 C2049 C 0.76261 0.85011 0.02369
 C2050 C 0.74132 0.84963 0.04032
 C2051 C 0.74376 0.84181 0.06782
 N2052 N 0.72237 0.83674 0.08201
 N2053 N 0.72410 0.83115 0.10716
 C2054 C 0.74726 0.83083 0.11919
 N2055 N 0.76862 0.83611 0.10504
 N2056 N 0.76692 0.84144 0.07984
 C2057 C 0.74943 0.82489 0.14709
 C2058 C 0.73060 0.81155 0.16081
 H2059 H 0.72247 0.85630 0.03357
 H2060 H 0.76708 0.82929 0.15662
 H2061 H 0.78051 0.84107 0.03073
 H2062 H 0.71427 0.80482 0.15062
 C2063 C 0.24702 0.35751 0.51057
 C2064 C 0.23122 0.33856 0.52093
 C2065 C 0.23331 0.33002 0.54815
 N2066 N 0.22003 0.30979 0.55781
 N2067 N 0.22195 0.30225 0.58255
 C2068 C 0.23709 0.31482 0.59846
 N2069 N 0.25016 0.33511 0.58882
 N2070 N 0.24833 0.34255 0.56416
 C2071 C 0.23993 0.30692 0.62567
 C2072 C 0.22995 0.28452 0.63659
 H2073 H 0.21691 0.33044 0.50910
 H2074 H 0.25133 0.31877 0.63725
 H2075 H 0.26122 0.36513 0.52295
 H2076 H 0.21907 0.27226 0.62498
 C2077 C 0.76064 0.15400 0.52156
 C2078 C 0.76422 0.14184 0.54572
 C2079 C 0.76284 0.15584 0.56912
 N2080 N 0.75937 0.14280 0.59190
 N2081 N 0.75617 0.15525 0.61323
 C2082 C 0.75637 0.18118 0.61254
 N2083 N 0.76031 0.19423 0.58981
 N2084 N 0.76335 0.18177 0.56841
 C2085 C 0.75237 0.19493 0.63593
 C2086 C 0.74301 0.18256 0.65812
 H2087 H 0.76504 0.12112 0.54763
 H2088 H 0.75681 0.21499 0.63565
 H2089 H 0.75904 0.17471 0.51983
 H2090 H 0.73763 0.16278 0.65789
 C2091 C 0.23295 0.64011 0.03432
 C2092 C 0.24830 0.65943 0.04244
 C2093 C 0.24592 0.66823 0.06871
 N2094 N 0.25956 0.68824 0.07593
 N2095 N 0.25787 0.69581 0.09985
 C2096 C 0.24259 0.68356 0.11744
 N2097 N 0.22905 0.66355 0.11023
 N2098 N 0.23066 0.65606 0.08633
 C2099 C 0.24074 0.69128 0.14406
 C2100 C 0.25188 0.71329 0.15196
 H2101 H 0.26266 0.66767 0.02970
 H2102 H 0.23002 0.67944 0.15770
 H2103 H 0.21913 0.63214 0.04792
 H2104 H 0.26184 0.72556 0.13809
 C2105 C 0.14114 0.52148 0.74562
 C2106 C 0.13359 0.54743 0.74499
 C2107 C 0.15119 0.56852 0.74763
 N2108 N 0.14139 0.59289 0.74641
 N2109 N 0.15662 0.61251 0.74884
 C2110 C 0.18231 0.60854 0.75267
 N2111 N 0.19218 0.58412 0.75395
 N2112 N 0.17691 0.56443 0.75148
 C2113 C 0.19929 0.63031 0.75509
 C2114 C 0.18978 0.65561 0.75245
 H2115 H 0.11330 0.55259 0.74269
 H2116 H 0.21966 0.62635 0.75833
 H2117 H 0.16129 0.51580 0.74798
 H2118 H 0.16946 0.65937 0.74872
 C2119 C 0.62576 0.05150 0.24458
 C2120 C 0.64932 0.05914 0.25362
 C2121 C 0.65799 0.08534 0.24858
 N2122 N 0.68205 0.09131 0.25551
 N2123 N 0.69028 0.11489 0.25092
 C2124 C 0.67480 0.13343 0.23923
 N2125 N 0.65068 0.12750 0.23236
 N2126 N 0.64246 0.10386 0.23688
 C2127 C 0.68364 0.15971 0.23486
 C2128 C 0.70873 0.16559 0.24086
 H2129 H 0.66193 0.04562 0.26433
 H2130 H 0.67004 0.17467 0.22799
 H2131 H 0.61304 0.06581 0.23499
 H2132 H 0.72208 0.15034 0.24759
 C2133 C 0.87142 0.01014 0.73788
 C2134 C 0.85380 0.02341 0.72165
 C2135 C 0.84438 0.04939 0.72680
 N2136 N 0.82369 0.05995 0.71395
 N2137 N 0.81470 0.08329 0.71887
 C2138 C 0.82618 0.09701 0.73665
 N2139 N 0.84713 0.08662 0.74920
 N2140 N 0.85603 0.06321 0.74440
 C2141 C 0.81576 0.12240 0.74280
 C2142 C 0.79093 0.13031 0.73544
 H2143 H 0.84670 0.01444 0.70503
 H2144 H 0.82713 0.13435 0.75429
 H2145 H 0.87765 0.01927 0.75479
 H2146 H 0.77930 0.11750 0.72520
 C2147 C 0.36499 0.51887 0.26627
 C2148 C 0.34623 0.52942 0.24931
 C2149 C 0.33768 0.55663 0.24928
 N2150 N 0.31849 0.56587 0.23343
 N2151 N 0.31087 0.59049 0.23304
 C2152 C 0.32228 0.60684 0.24840
 N2153 N 0.34154 0.59761 0.26415
 N2154 N 0.34909 0.57301 0.26459
 C2155 C 0.31390 0.63404 0.24876
 C2156 C 0.29224 0.64424 0.23558
 H2157 H 0.33819 0.51758 0.23525
 H2158 H 0.32430 0.64604 0.26106
 H2159 H 0.37283 0.53109 0.28016
 H2160 H 0.28126 0.63204 0.22399
 C2161 C 0.35630 0.47185 0.26800
 C2162 C 0.36350 0.44587 0.26781
 C2163 C 0.34547 0.42530 0.26448
 N2164 N 0.35514 0.40158 0.25999
 N2165 N 0.33952 0.38267 0.25581
 C2166 C 0.31356 0.38670 0.25598
 N2167 N 0.30381 0.41040 0.26072
 N2168 N 0.31948 0.42942 0.26478
 C2169 C 0.29629 0.36565 0.25143
 C2170 C 0.30592 0.34238 0.24287
 H2171 H 0.38387 0.44054 0.26766
 H2172 H 0.27585 0.36843 0.25505
 H2173 H 0.33605 0.47759 0.26735
 H2174 H 0.32628 0.34016 0.23852
 C2175 C 0.86167 0.96501 0.73122
 C2176 C 0.86746 0.93930 0.72724
 C2177 C 0.84880 0.91898 0.73029
 N2178 N 0.85654 0.89482 0.72528
 N2179 N 0.84065 0.87563 0.72905
 C2180 C 0.81640 0.87977 0.73811
 N2181 N 0.80854 0.90401 0.74308
 N2182 N 0.82448 0.92331 0.73924
 C2183 C 0.79926 0.85817 0.74297
 C2184 C 0.80748 0.83356 0.73710
 H2185 H 0.88719 0.93347 0.72302
 H2186 H 0.78043 0.86153 0.75142
 H2187 H 0.84205 0.97080 0.73599
 H2188 H 0.82621 0.83072 0.72825
 C2189 C 0.63713 1.00385 0.25088
 C2190 C 0.63096 0.97845 0.25656
 C2191 C 0.64880 0.95653 0.25298
 N2192 N 0.63963 0.93265 0.25552
 N2193 N 0.65499 0.91232 0.25192
 C2194 C 0.68019 0.91497 0.24559
 N2195 N 0.68948 0.93891 0.24308
 N2196 N 0.67402 0.95936 0.24660
 C2197 C 0.69726 0.89212 0.24271
 C2198 C 0.68716 0.86781 0.24525
 H2199 H 0.61133 0.97429 0.26204
 H2200 H 0.71783 0.89430 0.24057
 H2201 H 0.65623 1.00782 0.24362
 H2202 H 0.66655 0.86615 0.24780
 C2203 C 0.13305 0.47438 0.74603
 C2204 C 0.14941 0.46438 0.72753
 C2205 C 0.15759 0.43706 0.72905
 N2206 N 0.17406 0.42762 0.71137
 N2207 N 0.18132 0.40290 0.71264
 C2208 C 0.17224 0.38668 0.73154
 N2209 N 0.15568 0.39610 0.74909
 N2210 N 0.14848 0.42078 0.74785
 C2211 C 0.18077 0.35952 0.73390
 C2212 C 0.20005 0.34957 0.71831
 H2213 H 0.15551 0.47654 0.71136
 H2214 H 0.17297 0.34758 0.74945
 H2215 H 0.12747 0.46167 0.76202
 H2216 H 0.20834 0.36182 0.70328
 C2217 C 0.02424 0.74997 0.86038
 C2218 C 0.04902 0.75644 0.86728
 C2219 C 0.07130 0.75507 0.84988
 N2220 N 0.09510 0.75942 0.85886
 N2221 N 0.11578 0.75716 0.84388
 C2222 C 0.11346 0.75042 0.81931
 N2223 N 0.08961 0.74622 0.81023
 N2224 N 0.06890 0.74845 0.82526
 C2225 C 0.13630 0.74744 0.80276
 C2226 C 0.16115 0.75027 0.81196
 H2227 H 0.05257 0.76097 0.88689
 H2228 H 0.13350 0.74279 0.78306
 H2229 H 0.02097 0.74421 0.84112
 H2230 H 0.16379 0.75482 0.83172
 C2231 C 0.52064 0.25712 0.35941
 C2232 C 0.53243 0.24134 0.34182
 C2233 C 0.55904 0.24533 0.33294
 N2234 N 0.56867 0.23276 0.31279
 N2235 N 0.59270 0.23642 0.30461
 C2236 C 0.60803 0.25265 0.31639
 N2237 N 0.59847 0.26501 0.33668
 N2238 N 0.57442 0.26148 0.34475
 C2239 C 0.63456 0.25705 0.30757
 C2240 C 0.64377 0.24858 0.28433
 H2241 H 0.52190 0.22587 0.33444
 H2242 H 0.64681 0.26795 0.31926
 H2243 H 0.53161 0.27255 0.36635
 H2244 H 0.63107 0.23868 0.27216
 C2245 C 0.52722 0.74622 0.14260
 C2246 C 0.53455 0.76164 0.16198
 C2247 C 0.56107 0.76086 0.17170
 N2248 N 0.56739 0.77612 0.19063
 N2249 N 0.59148 0.77599 0.19925
 C2250 C 0.61016 0.76066 0.18921
 N2251 N 0.60386 0.74542 0.17025
 N2252 N 0.57975 0.74553 0.16165
 C2253 C 0.63678 0.76031 0.19874
 C2254 C 0.64323 0.77431 0.21947
 H2255 H 0.52069 0.77527 0.16949
 H2256 H 0.65128 0.74839 0.18974
 H2257 H 0.54153 0.73311 0.13490
 H2258 H 0.62842 0.78568 0.22869
 C2259 C 0.01632 0.25867 0.65525
 C2260 C 0.02897 0.24175 0.67297
 C2261 C 0.05354 0.24791 0.68456
 N2262 N 0.07078 0.22874 0.69134
 N2263 N 0.09397 0.23392 0.70000
 C2264 C 0.10070 0.25847 0.70248
 N2265 N 0.08323 0.27768 0.69631
 N2266 N 0.06011 0.27250 0.68730
 C2267 C 0.12681 0.26407 0.71081
 C2268 C 0.14757 0.24804 0.70451
 H2269 H 0.02248 0.22238 0.67584
 H2270 H 0.12990 0.28131 0.72071
 H2271 H 0.02376 0.27768 0.65213
 H2272 H 0.14428 0.23239 0.69235
 C2273 C 0.97201 0.24233 0.65480
 C2274 C 0.94830 0.23691 0.64421
 C2275 C 0.92532 0.23139 0.65986
 N2276 N 0.90198 0.23091 0.64840
 N2277 N 0.88075 0.22699 0.66227
 C2278 C 0.88207 0.22325 0.68815
 N2279 N 0.90546 0.22339 0.69961
 N2280 N 0.92670 0.22745 0.68573
 C2281 C 0.85861 0.21993 0.70379
 C2282 C 0.83406 0.22502 0.69362
 H2283 H 0.94605 0.23841 0.62360
 H2284 H 0.86080 0.21499 0.72408
 H2285 H 0.97398 0.24121 0.67547
 H2286 H 0.83204 0.23118 0.67358
 C2287 C 0.47946 0.74616 0.14895
 C2288 C 0.45378 0.74845 0.14115
 C2289 C 0.43178 0.74404 0.15843
 N2290 N 0.40760 0.74751 0.14898
 N2291 N 0.38721 0.74384 0.16407
 C2292 C 0.39014 0.73647 0.18923
 N2293 N 0.41438 0.73280 0.19871
 N2294 N 0.43486 0.73652 0.18358
 C2295 C 0.36740 0.73334 0.20603
 C2296 C 0.34290 0.74081 0.19702
 H2297 H 0.44963 0.75359 0.12120
 H2298 H 0.37003 0.72644 0.22579
 H2299 H 0.48387 0.74074 0.16880
 H2300 H 0.34084 0.74868 0.17750
 C2301 C 0.47412 0.25199 0.34964
 C2302 C 0.44798 0.24999 0.35576
 C2303 C 0.42710 0.24988 0.33694
 N2304 N 0.40286 0.24566 0.34550
 N2305 N 0.38326 0.24591 0.32923
 C2306 C 0.38705 0.25049 0.30371
 N2307 N 0.41135 0.25478 0.29506
 N2308 N 0.43107 0.25444 0.31139
 C2309 C 0.36505 0.25129 0.28589
 C2310 C 0.34058 0.24479 0.29467
 H2311 H 0.44238 0.24854 0.37578
 H2312 H 0.36803 0.25730 0.26597
 H2313 H 0.47995 0.25356 0.32970
 H2314 H 0.33814 0.23818 0.31451
 C2315 C 0.97730 0.74102 0.86939
 C2316 C 0.96741 0.75416 0.84744
 C2317 C 0.94068 0.75121 0.83922
 N2318 N 0.93245 0.76205 0.81642
 N2319 N 0.90823 0.75962 0.80889
 C2320 C 0.89132 0.74638 0.82395
 N2321 N 0.89951 0.73568 0.84681
 N2322 N 0.92375 0.73802 0.85429
 C2323 C 0.86453 0.74350 0.81591
 C2324 C 0.85626 0.75098 0.79124
 H2325 H 0.97938 0.76703 0.83613
 H2326 H 0.85125 0.73471 0.82950
 H2327 H 0.96458 0.72875 0.88060
 H2328 H 0.86988 0.75887 0.77744
   
