data_POSCAR
  _audit_creation_date              2014-09-24
  _audit_creation_method            'ToBaCCo'
  _symmetry_space_group_name_H-M    'P1'
  _symmetry_Int_Tables_number       1
  _symmetry_cell_setting            triclinic
  loop_
  _symmetry_equiv_pos_as_xyz
 x,y,z
_cell_length_a 67.2329
_cell_length_b 67.5756
_cell_length_c 68.9131
_cell_angle_alpha 92.140800
_cell_angle_beta 92.141000
_cell_angle_gamma 91.831300
loop_
  _atom_site_label
  _atom_site_type_symbol
  _atom_site_fract_x
  _atom_site_fract_y
  _atom_site_fract_z
N1 N 0.17733 0.22437 0.23419
 N2 N 0.18630 0.21183 0.24538
 C3 C 0.17522 0.20857 0.26087
 C4 C 0.15836 0.21975 0.25936
 C5 C 0.16025 0.22963 0.24222
 H6 H 0.17920 0.19878 0.27234
 H7 H 0.14982 0.23959 0.23583
 Cu8 Cu 0.21133 0.20060 0.23853
 Cu9 Cu 0.18837 0.23262 0.20995
 Cu10 Cu 0.22925 0.20748 0.19421
 N11 N 0.23134 0.18381 0.22794
 N12 N 0.23835 0.18640 0.21065
 C13 C 0.25158 0.17233 0.20691
 C14 C 0.25283 0.16022 0.22271
 C15 C 0.23975 0.16804 0.23577
 H16 H 0.25933 0.17078 0.19350
 H17 H 0.23645 0.16267 0.24991
 N18 N 0.21751 0.22937 0.17996
 N19 N 0.20182 0.23877 0.18592
 C20 C 0.19749 0.25300 0.17346
 C21 C 0.21110 0.25264 0.15889
 C22 C 0.22361 0.23744 0.16352
 H23 H 0.18560 0.26324 0.17516
 H24 H 0.23625 0.23265 0.15555
 H25 H 0.20124 0.20551 0.20503
 H26 H 0.21814 0.22615 0.21537
 N27 N 0.67965 0.72352 0.71875
 N28 N 0.68520 0.70936 0.73011
 C29 C 0.67139 0.70668 0.74349
 C30 C 0.65636 0.71989 0.74037
 C31 C 0.66214 0.73033 0.72449
 H32 H 0.67215 0.69581 0.75458
 H33 H 0.65436 0.74219 0.71775
 Cu34 Cu 0.70989 0.69575 0.72641
 Cu35 Cu 0.69559 0.73212 0.69748
 Cu36 Cu 0.73912 0.70746 0.68957
 N37 N 0.73401 0.68166 0.72132
 N38 N 0.74541 0.68635 0.70700
 C39 C 0.76087 0.67420 0.70664
 C40 C 0.75906 0.66109 0.72151
 C41 C 0.74180 0.66630 0.73051
 H42 H 0.77231 0.67461 0.69604
 H43 H 0.73537 0.65941 0.74282
 N44 N 0.73016 0.72925 0.67355
 N45 N 0.71365 0.73870 0.67669
 C46 C 0.71160 0.75276 0.66351
 C47 C 0.72756 0.75214 0.65143
 C48 C 0.73902 0.73700 0.65822
 H49 H 0.69922 0.76253 0.66258
 H50 H 0.75287 0.73213 0.65251
 H51 H 0.70870 0.70511 0.69259
 H52 H 0.72287 0.72376 0.70886
 N53 N 0.30584 0.75718 0.74108
 N54 N 0.30297 0.77368 0.75112
 C55 C 0.31611 0.77510 0.76642
 C56 C 0.32785 0.75858 0.76592
 C57 C 0.32081 0.74757 0.74959
 H58 H 0.31716 0.78734 0.77699
 H59 H 0.32654 0.73387 0.74389
 Cu60 Cu 0.28268 0.79192 0.74299
 Cu61 Cu 0.29088 0.74980 0.71712
 Cu62 Cu 0.25330 0.78049 0.70301
 N63 N 0.26049 0.80815 0.73534
 N64 N 0.24904 0.80357 0.71987
 C65 C 0.23496 0.81717 0.71810
 C66 C 0.23763 0.83120 0.73334
 C67 C 0.25406 0.82485 0.74397
 H68 H 0.22371 0.81675 0.70648
 H69 H 0.26090 0.83174 0.75706
 N70 N 0.25992 0.75645 0.68785
 N71 N 0.27424 0.74474 0.69328
 C72 C 0.27571 0.73011 0.67966
 C73 C 0.26164 0.73268 0.66483
 C74 C 0.25188 0.74956 0.67062
 H75 H 0.28667 0.71878 0.68023
 H76 H 0.24002 0.75656 0.66272
 H77 H 0.28327 0.77811 0.70975
 H78 H 0.26550 0.76429 0.72502
 N79 N 0.80932 0.25008 0.22821
 N80 N 0.80464 0.26477 0.24002
 C81 C 0.81714 0.26542 0.25576
 C82 C 0.83059 0.25035 0.25379
 C83 C 0.82500 0.24088 0.23603
 H84 H 0.81668 0.27640 0.26750
 H85 H 0.83196 0.22849 0.22901
 Cu86 Cu 0.78328 0.28224 0.23324
 Cu87 Cu 0.79524 0.24444 0.20317
 Cu88 Cu 0.75695 0.27556 0.19121
 N89 N 0.76174 0.29955 0.22644
 N90 N 0.75150 0.29675 0.20991
 C91 C 0.73771 0.31065 0.20853
 C92 C 0.73934 0.32293 0.22510
 C93 C 0.75480 0.31540 0.23616
 H94 H 0.72753 0.31190 0.19617
 H95 H 0.76054 0.32102 0.25023
 N96 N 0.76459 0.25333 0.17416
 N97 N 0.77908 0.24138 0.17858
 C98 C 0.78062 0.22793 0.16378
 C99 C 0.76638 0.23160 0.14936
 C100 C 0.75657 0.24785 0.15655
 H101 H 0.79134 0.21636 0.16352
 H102 H 0.74465 0.25541 0.14935
 H103 H 0.78685 0.27302 0.19904
 H104 H 0.76881 0.25633 0.21103
 N105 N 0.80060 0.73035 0.26594
 N106 N 0.79485 0.71378 0.25647
 C107 C 0.80820 0.70935 0.24308
 C108 C 0.82322 0.72393 0.24407
 C109 C 0.81780 0.73710 0.25877
 H110 H 0.80688 0.69647 0.23327
 H111 H 0.82584 0.75045 0.26410
 Cu112 Cu 0.77036 0.69944 0.26211
 Cu113 Cu 0.78499 0.74150 0.28687
 Cu114 Cu 0.75654 0.70504 0.30797
 N115 N 0.74940 0.68268 0.27217
 N116 N 0.74419 0.68487 0.29027
 C117 C 0.73024 0.67094 0.29390
 C118 C 0.72633 0.65936 0.27708
 C119 C 0.73885 0.66728 0.26357
 H120 H 0.72380 0.66921 0.30789
 H121 H 0.74040 0.66213 0.24868
 N122 N 0.76316 0.73107 0.32067
 N123 N 0.77335 0.74535 0.31254
 C124 C 0.77343 0.76182 0.32425
 C125 C 0.76250 0.75767 0.34039
 C126 C 0.75640 0.73800 0.33760
 H127 H 0.78030 0.77591 0.32091
 H128 H 0.74718 0.72940 0.34691
 H129 H 0.78239 0.71319 0.29385
 H130 H 0.75844 0.72392 0.28551
 N131 N 0.30521 0.23488 -0.22105
 N132 N 0.30272 0.21673 -0.22840
 C133 C 0.31634 0.21344 -0.24181
 C134 C 0.32829 0.23047 -0.24305
 C135 C 0.32068 0.24378 -0.22952
 H136 H 0.31722 0.19960 -0.25003
 H137 H 0.32580 0.25887 -0.22610
 Cu138 Cu 0.28188 0.19889 -0.22016
 Cu139 Cu 0.28788 0.24538 -0.20124
 Cu140 Cu 0.24616 0.21612 -0.19204
 N141 N 0.25686 0.18437 -0.21795
 N142 N 0.24282 0.19103 -0.20694
 C143 C 0.22736 0.17779 -0.20782
 C144 C 0.23197 0.16201 -0.22014
 C145 C 0.25085 0.16679 -0.22628
 H146 H 0.21381 0.17954 -0.20005
 H147 H 0.25978 0.15802 -0.23583
 N148 N 0.25240 0.24193 -0.17848
 N149 N 0.26832 0.25304 -0.18181
 C150 C 0.26896 0.26901 -0.16945
 C151 C 0.25264 0.26793 -0.15772
 C152 C 0.24252 0.25051 -0.16398
 H153 H 0.28075 0.28028 -0.16873
 H154 H 0.22927 0.24412 -0.15800
 H155 H 0.27704 0.21904 -0.19077
 H156 H 0.26384 0.22856 -0.21273
 N157 N 0.67983 0.28417 -0.24854
 N158 N 0.68393 0.30066 -0.25726
 C159 C 0.67032 0.30287 -0.27178
 C160 C 0.65681 0.28682 -0.27229
 C161 C 0.66348 0.27527 -0.25721
 H162 H 0.67042 0.31528 -0.28122
 H163 H 0.65694 0.26150 -0.25261
 Cu164 Cu 0.70659 0.31779 -0.24885
 Cu165 Cu 0.69578 0.27567 -0.22633
 Cu166 Cu 0.73982 0.30232 -0.21538
 N167 N 0.73295 0.33020 -0.24513
 N168 N 0.74592 0.32418 -0.23209
 C169 C 0.76269 0.33556 -0.23246
 C170 C 0.76015 0.34952 -0.24655
 C171 C 0.74102 0.34557 -0.25428
 H172 H 0.77569 0.33380 -0.22307
 H173 H 0.73334 0.35339 -0.26555
 N174 N 0.73081 0.27972 -0.20027
 N175 N 0.71401 0.26957 -0.20443
 C176 C 0.71187 0.25534 -0.19142
 C177 C 0.72812 0.25655 -0.17837
 C178 C 0.73980 0.27222 -0.18451
 H179 H 0.69925 0.24506 -0.19131
 H180 H 0.75384 0.27780 -0.17802
 H181 H 0.70907 0.30270 -0.21729
 H182 H 0.72157 0.28821 -0.23677
 N183 N 0.18832 0.76814 0.26891
 N184 N 0.19458 0.78165 0.25715
 C185 C 0.18101 0.78284 0.24230
 C186 C 0.16548 0.76924 0.24497
 C187 C 0.17074 0.76030 0.26208
 H188 H 0.18233 0.79282 0.23049
 H189 H 0.16231 0.74907 0.26929
 Cu190 Cu 0.21969 0.79632 0.26315
 Cu191 Cu 0.20310 0.76141 0.29232
 Cu192 Cu 0.24837 0.78620 0.30255
 N193 N 0.24508 0.81044 0.26910
 N194 N 0.25618 0.80636 0.28444
 C195 C 0.27235 0.81867 0.28563
 C196 C 0.27144 0.83136 0.27020
 C197 C 0.25383 0.82551 0.26000
 H198 H 0.28363 0.81857 0.29720
 H199 H 0.24753 0.83197 0.24717
 N200 N 0.23761 0.76536 0.31904
 N201 N 0.22007 0.75644 0.31529
 C202 C 0.21638 0.74363 0.32927
 C203 C 0.23235 0.74436 0.34248
 C204 C 0.24563 0.75824 0.33552
 H205 H 0.20317 0.73414 0.32966
 H206 H 0.25990 0.76301 0.34214
 H207 H 0.21829 0.78849 0.29734
 H208 H 0.23106 0.76924 0.28269
 N209 N 0.49185 0.42605 0.49128
 N210 N 0.47555 0.43131 0.49982
 C211 C 0.47138 0.41829 0.51356
 C212 C 0.48593 0.40424 0.51375
 C213 C 0.49870 0.40967 0.49944
 H214 H 0.45888 0.41909 0.52294
 H215 H 0.51178 0.40203 0.49502
 Cu216 Cu 0.46197 0.45508 0.49240
 Cu217 Cu 0.50254 0.44028 0.46963
 Cu218 Cu 0.47802 0.48235 0.45619
 N219 N 0.44841 0.47894 0.48517
 N220 N 0.45518 0.48967 0.47117
 C221 C 0.44404 0.50571 0.46940
 C222 C 0.42941 0.50509 0.48299
 C223 C 0.43257 0.48780 0.49271
 H224 H 0.44637 0.51697 0.45890
 H225 H 0.42426 0.48239 0.50467
 N226 N 0.50136 0.47255 0.44280
 N227 N 0.51086 0.45668 0.44802
 C228 C 0.52578 0.45363 0.43585
 C229 C 0.52565 0.46822 0.42224
 C230 C 0.50996 0.47996 0.42716
 H231 H 0.53564 0.44134 0.43648
 H232 H 0.50508 0.49290 0.41982
 H233 H 0.49230 0.46753 0.47810
 H234 H 0.47611 0.45216 0.46043
 N235 N -0.02775 -0.07189 0.98871
 N236 N -0.04489 -0.06718 0.99587
 C237 C -0.04823 -0.07808 1.01144
 C238 C -0.03239 -0.09043 1.01415
 C239 C -0.01968 -0.08611 0.99939
 H240 H -0.06136 -0.07725 1.01999
 H241 H -0.00548 -0.09259 0.99679
 Cu242 Cu -0.06155 -0.04762 0.98407
 Cu243 Cu -0.01713 -0.05885 0.96637
 Cu244 Cu -0.04348 -0.01945 0.94914
 N245 N -0.07454 -0.02374 0.97631
 N246 N -0.06743 -0.01273 0.96270
 C247 C -0.07947 0.00255 0.95999
 C248 C -0.09503 0.00104 0.97257
 C249 C -0.09133 -0.01587 0.98273
 H250 H -0.07725 0.01367 0.94934
 H251 H -0.10015 -0.02202 0.99398
 N252 N -0.01894 -0.02864 0.93740
 N253 N -0.00894 -0.04367 0.94394
 C254 C 0.00680 -0.04655 0.93277
 C255 C 0.00675 -0.03269 0.91844
 C256 C -0.00983 -0.02159 0.92188
 H257 H 0.01730 -0.05814 0.93471
 H258 H -0.01494 -0.00930 0.91367
 H259 H -0.03084 -0.03261 0.97309
 H260 H -0.04352 -0.04947 0.95400
 N261 N 1.02917 0.57685 0.98605
 N262 N 1.04716 0.57627 0.99410
 C263 C 1.04860 0.58935 1.00947
 C264 C 1.03043 0.59838 1.01109
 C265 C 1.01858 0.59004 0.99594
 H266 H 1.06174 0.59196 1.01886
 H267 H 1.00342 0.59365 0.99212
 Cu268 Cu 1.06652 0.55812 0.98357
 Cu269 Cu 1.02063 0.56127 0.96288
 Cu270 Cu 1.05412 0.52911 0.94350
 N271 N 1.08444 0.53837 0.97337
 N272 N 1.07969 0.52771 0.95742
 C273 C 1.09425 0.51506 0.95383
 C274 C 1.10894 0.51770 0.96836
 C275 C 1.10219 0.53263 0.98058
 H276 H 1.09369 0.50399 0.94207
 H277 H 1.10947 0.53857 0.99389
 N278 N 1.02739 0.53255 0.93168
 N279 N 1.01450 0.54451 0.93944
 C280 C 0.99754 0.54351 0.92843
 C281 C 0.99975 0.53026 0.91294
 C282 C 1.01893 0.52361 0.91546
 H283 H 0.98466 0.55219 0.93123
 H284 H 1.02616 0.51299 0.90621
 H285 H 1.03942 0.53795 0.96779
 H286 H 1.04873 0.55789 0.95199
 N287 N 0.53016 0.08027 0.47126
 N288 N 0.54489 0.07338 0.48182
 C289 C 0.54736 0.08448 0.49843
 C290 C 0.53354 0.09923 0.49819
 C291 C 0.52293 0.09616 0.48068
 H292 H 0.55823 0.08190 0.50994
 H293 H 0.51024 0.10426 0.47566
 Cu294 Cu 0.55914 0.05020 0.47336
 Cu295 Cu 0.51993 0.06660 0.44739
 Cu296 Cu 0.54780 0.02843 0.42933
 N297 N 0.57671 0.03162 0.46103
 N298 N 0.57227 0.02312 0.44391
 C299 C 0.58656 0.01042 0.43937
 C300 C 0.60082 0.01094 0.45448
 C301 C 0.59401 0.02468 0.46795
 H302 H 0.58624 0.00112 0.42626
 H303 H 0.60088 0.02913 0.48192
 N304 N 0.52257 0.03612 0.41677
 N305 N 0.51201 0.05077 0.42358
 C306 C 0.49532 0.05195 0.41232
 C307 C 0.49532 0.03732 0.39768
 C308 C 0.51290 0.02761 0.40098
 H309 H 0.48392 0.06258 0.41474
 H310 H 0.51805 0.01495 0.39280
 H311 H 0.53104 0.03888 0.45199
 H312 H 0.54794 0.05731 0.44053
 N313 N -0.02723 0.08002 0.52617
 N314 N -0.03877 0.06913 0.51389
 C315 C -0.04123 0.07868 0.49727
 C316 C -0.03072 0.09660 0.49916
 C317 C -0.02205 0.09703 0.51775
 H318 H -0.05012 0.07303 0.48475
 H319 H -0.01231 0.10858 0.52445
 Cu320 Cu -0.04954 0.04341 0.52037
 Cu321 Cu -0.01924 0.07070 0.55171
 Cu322 Cu -0.04397 0.02820 0.56598
 N323 N -0.06592 0.02192 0.52966
 N324 N -0.06351 0.01579 0.54743
 C325 C -0.07624 0.00040 0.54983
 C326 C -0.08737 -0.00318 0.53268
 C327 C -0.08045 0.01083 0.52020
 H328 H -0.07750 -0.00745 0.56314
 H329 H -0.08541 0.01264 0.50528
 N330 N -0.02358 0.04282 0.58254
 N331 N -0.01360 0.05861 0.57692
 C332 C 0.00079 0.06373 0.59051
 C333 C -0.00039 0.05064 0.60545
 C334 C -0.01604 0.03768 0.59991
 H335 H 0.01167 0.07573 0.58938
 H336 H -0.02074 0.02468 0.60744
 H337 H -0.02460 0.04066 0.54664
 H338 H -0.04618 0.05576 0.55386
 N339 N 0.47028 0.59209 0.03365
 N340 N 0.45267 0.58930 0.02488
 C341 C 0.45142 0.60105 0.00955
 C342 C 0.46931 0.61168 0.00861
 C343 C 0.48088 0.60561 0.02418
 H344 H 0.43872 0.60133 -0.00053
 H345 H 0.49594 0.61058 0.02830
 Cu346 Cu 0.43351 0.56975 0.03362
 Cu347 Cu 0.47842 0.57782 0.05643
 Cu348 Cu 0.44760 0.53880 0.06856
 N349 N 0.41861 0.54528 0.03789
 N350 N 0.42435 0.53318 0.05134
 C351 C 0.41203 0.51708 0.05057
 C352 C 0.39775 0.51917 0.03586
 C353 C 0.40234 0.53733 0.02817
 H354 H 0.41339 0.50475 0.06004
 H355 H 0.39478 0.54402 0.01606
 N356 N 0.47193 0.54701 0.08397
 N357 N 0.48392 0.56166 0.07905
 C358 C 0.49982 0.56295 0.09153
 C359 C 0.49773 0.54846 0.10503
 C360 C 0.47981 0.53868 0.09983
 H361 H 0.51212 0.57356 0.09078
 H362 H 0.47340 0.52595 0.10666
 H363 H 0.46196 0.55274 0.04667
 H364 H 0.45049 0.56910 0.06547
 N365 N 0.53605 -0.07895 0.02656
 N366 N 0.55255 -0.07622 0.01723
 C367 C 0.55269 -0.08923 0.00203
 C368 C 0.53532 -0.10079 0.00171
 C369 C 0.52502 -0.09378 0.01747
 H370 H 0.56450 -0.09005 -0.00817
 H371 H 0.51082 -0.09934 0.02221
 Cu372 Cu 0.57228 -0.05589 0.02548
 Cu373 Cu 0.53087 -0.06345 0.05017
 Cu374 Cu 0.56276 -0.02290 0.06140
 N375 N 0.58727 -0.03102 0.02901
 N376 N 0.58386 -0.01816 0.04318
 C377 C 0.59618 -0.00218 0.04180
 C378 C 0.60774 -0.00517 0.02576
 C379 C 0.60166 -0.02366 0.01805
 H380 H 0.59623 0.01093 0.05131
 H381 H 0.60716 -0.03119 0.00532
 N382 N 0.54041 -0.03052 0.07773
 N383 N 0.52834 -0.04599 0.07344
 C384 C 0.51455 -0.04717 0.08705
 C385 C 0.51797 -0.03163 0.10053
 C386 C 0.53450 -0.02137 0.09413
 H387 H 0.50255 -0.05820 0.08686
 H388 H 0.54164 -0.00816 0.10086
 H389 H 0.54546 -0.03847 0.04033
 H390 H 0.55969 -0.05342 0.05810
 N391 N 1.03476 0.42652 0.52313
 N392 N 1.04864 0.43383 0.51228
 C393 C 1.04745 0.42428 0.49476
 C394 C 1.03196 0.41022 0.49458
 C395 C 1.02425 0.41211 0.51290
 H396 H 1.05744 0.42703 0.48317
 H397 H 1.01196 0.40363 0.51845
 Cu398 Cu 1.06740 0.45465 0.52214
 Cu399 Cu 1.03145 0.43616 0.54970
 Cu400 Cu 1.06514 0.47257 0.56828
 N401 N 1.08676 0.47433 0.53322
 N402 N 1.08590 0.48126 0.55122
 C403 C 1.10095 0.49466 0.55496
 C404 C 1.11191 0.49625 0.53838
 C405 C 1.10240 0.48304 0.52492
 H406 H 1.10353 0.50278 0.56867
 H407 H 1.10657 0.47992 0.51016
 N408 N 1.04309 0.46182 0.58325
 N409 N 1.03044 0.44779 0.57623
 C410 C 1.01670 0.44421 0.58948
 C411 C 1.02076 0.45668 0.60562
 C412 C 1.03765 0.46761 0.60115
 H413 H 1.00407 0.43399 0.58719
 H414 H 1.04515 0.47924 0.61009
 H415 H 1.04400 0.46423 0.54677
 H416 H 1.06111 0.44470 0.55505
 C417 C 0.36457 0.01946 0.22972
 C418 C 0.35160 0.00035 0.22907
 C419 C 0.36162 -0.01623 0.23330
 C420 C 0.38404 -0.01228 0.23763
 C421 C 0.37507 0.02024 0.24986
 C422 C 0.38537 0.00380 0.25406
 C423 C 0.38118 0.01484 0.21562
 C424 C 0.39142 -0.00162 0.21982
 H425 H 0.33568 0.00015 0.22595
 H426 H 0.39227 -0.02581 0.24092
 H427 H 0.37567 0.03349 0.25923
 H428 H 0.38421 0.02297 0.20282
 C429 C 0.12848 -0.02761 0.75039
 C430 C 0.14161 -0.00882 0.75457
 C431 C 0.13140 0.00749 0.75985
 C432 C 0.10878 0.00360 0.76044
 C433 C 0.11650 -0.02993 0.76871
 C434 C 0.10620 -0.01371 0.77408
 C435 C 0.11325 -0.02129 0.73474
 C436 C 0.10293 -0.00515 0.74014
 H437 H 0.15760 -0.00846 0.75308
 H438 H 0.10046 0.01698 0.76442
 H439 H 0.11576 -0.04366 0.77632
 H440 H 0.11162 -0.02774 0.72017
 C441 C 0.63043 0.46480 0.24467
 C442 C 0.64411 0.48342 0.24515
 C443 C 0.63500 0.50050 0.25006
 C444 C 0.61278 0.49746 0.25411
 C445 C 0.62126 0.46485 0.26467
 C446 C 0.61203 0.48182 0.26973
 C447 C 0.61322 0.46984 0.23050
 C448 C 0.60401 0.48678 0.23557
 H449 H 0.65963 0.48308 0.24150
 H450 H 0.60528 0.51142 0.25786
 H451 H 0.62128 0.45199 0.27359
 H452 H 0.60985 0.46226 0.21663
 C453 C 0.87750 0.52727 0.73937
 C454 C 0.86508 0.50781 0.73705
 C455 C 0.87556 0.49124 0.74019
 C456 C 0.89786 0.49557 0.74488
 C457 C 0.88775 0.52669 0.75956
 C458 C 0.89852 0.51026 0.76245
 C459 C 0.89430 0.52432 0.72510
 C460 C 0.90503 0.50791 0.72809
 H461 H 0.84915 0.50728 0.73401
 H462 H 0.90654 0.48210 0.74716
 H463 H 0.88754 0.53895 0.77013
 H464 H 0.89689 0.53355 0.71291
 C465 C 0.24347 0.36662 0.02725
 C466 C 0.24176 0.35658 0.00699
 C467 C 0.24482 0.36894 -0.00781
 C468 C 0.24926 0.39060 -0.00101
 C469 C 0.26397 0.37736 0.02826
 C470 C 0.26710 0.38984 0.01353
 C471 C 0.22880 0.38364 0.02646
 C472 C 0.23175 0.39613 0.01166
 H473 H 0.23918 0.34074 0.00469
 H474 H 0.25177 0.40069 -0.01308
 H475 H 0.27445 0.37630 0.04047
 H476 H 0.21750 0.38615 0.03691
 C477 C 0.74565 0.14148 -0.04438
 C478 C 0.74881 0.15376 -0.02521
 C479 C 0.75411 0.14298 -0.00964
 C480 C 0.75553 0.12073 -0.01453
 C481 C 0.76492 0.13028 -0.04659
 C482 C 0.77017 0.11940 -0.03109
 C483 C 0.72993 0.12550 -0.03957
 C484 C 0.73507 0.11468 -0.02398
 H485 H 0.74681 0.16959 -0.02410
 H486 H 0.75971 0.11193 -0.00182
 H487 H 0.77331 0.13052 -0.05970
 H488 H 0.71509 0.12431 -0.04618
 C489 C 0.26595 0.63397 0.47714
 C490 C 0.26483 0.64541 0.49661
 C491 C 0.26561 0.63397 0.51244
 C492 C 0.26758 0.61180 0.50736
 C493 C 0.28500 0.62213 0.47900
 C494 C 0.28598 0.61063 0.49480
 C495 C 0.24918 0.61797 0.47728
 C496 C 0.24984 0.60651 0.49315
 H497 H 0.26391 0.66139 0.49767
 H498 H 0.26832 0.60238 0.52019
 H499 H 0.29582 0.62121 0.46780
 H500 H 0.23759 0.61614 0.46597
 C501 C 0.74001 0.86782 0.51823
 C502 C 0.73922 0.85600 0.49875
 C503 C 0.74305 0.86706 0.48311
 C504 C 0.74686 0.88923 0.48826
 C505 C 0.76037 0.87867 0.51919
 C506 C 0.76407 0.88994 0.50364
 C507 C 0.72499 0.88414 0.51501
 C508 C 0.72868 0.89548 0.49958
 H509 H 0.73658 0.84011 0.49755
 H510 H 0.74955 0.89823 0.47542
 H511 H 0.77038 0.87839 0.53186
 H512 H 0.71198 0.88620 0.52352
 C513 C 0.01417 0.24442 0.36189
 C514 C -0.00558 0.24386 0.35008
 C515 C -0.02194 0.24640 0.36083
 C516 C -0.01710 0.24939 0.38276
 C517 C 0.01445 0.26409 0.37372
 C518 C -0.00187 0.26695 0.38452
 C519 C 0.01119 0.22861 0.37711
 C520 C -0.00509 0.23121 0.38794
 H521 H -0.00641 0.24184 0.33440
 H522 H -0.03050 0.25116 0.39149
 H523 H 0.02719 0.27434 0.37421
 H524 H 0.02091 0.21651 0.37969
 C525 C -0.02782 0.75122 0.14757
 C526 C -0.00835 0.75475 0.15964
 C527 C 0.00803 0.75788 0.14899
 C528 C 0.00352 0.75725 0.12696
 C529 C -0.02908 0.76907 0.13456
 C530 C -0.01278 0.77240 0.12384
 C531 C -0.02339 0.73382 0.13343
 C532 C -0.00703 0.73694 0.12267
 H533 H -0.00763 0.75448 0.17536
 H534 H 0.01689 0.75986 0.11834
 H535 H -0.04231 0.77776 0.13336
 H536 H -0.03150 0.71979 0.13254
 C537 C 0.46262 0.23809 0.64152
 C538 C 0.48217 0.24194 0.65328
 C539 C 0.49803 0.24677 0.64253
 C540 C 0.49292 0.24763 0.62064
 C541 C 0.45989 0.25678 0.62992
 C542 C 0.47553 0.26184 0.61887
 C543 C 0.46765 0.22205 0.62609
 C544 C 0.48342 0.22711 0.61525
 H545 H 0.48349 0.23996 0.66881
 H546 H 0.50591 0.25131 0.61183
 H547 H 0.44644 0.26513 0.63045
 H548 H 0.45955 0.20812 0.62338
 C549 C 0.52049 0.73940 0.85361
 C550 C 0.50016 0.74323 0.84392
 C551 C 0.48610 0.74871 0.85661
 C552 C 0.49355 0.74981 0.87801
 C553 C 0.52596 0.75826 0.86577
 C554 C 0.51223 0.76363 0.87883
 C555 C 0.51568 0.72373 0.86849
 C556 C 0.50174 0.72917 0.88133
 H557 H 0.49657 0.74029 0.82863
 H558 H 0.48206 0.75413 0.88836
 H559 H 0.54005 0.76625 0.86450
 H560 H 0.52212 0.70924 0.86833
 C561 C 0.12335 0.20667 0.29909
 C562 C 0.10974 0.22225 0.29871
 C563 C 0.11277 0.23718 0.28510
 C564 C 0.12857 0.23626 0.27239
 C565 C 0.14179 0.22068 0.27290
 C566 C 0.13904 0.20597 0.28642
 C567 C 0.10005 0.25301 0.28421
 C568 C 0.08429 0.25449 0.29653
 C569 C 0.08048 0.24002 0.31031
 C570 C 0.09334 0.22355 0.31134
 C571 C 0.08930 0.20890 0.32487
 C572 C 0.07340 0.21026 0.33703
 C573 C 0.06084 0.22624 0.33633
 C574 C 0.06416 0.24140 0.32303
 C575 C 0.05092 0.25726 0.32304
 C576 C 0.03517 0.25788 0.33561
 C577 C 0.03190 0.24289 0.34878
 C578 C 0.04490 0.22702 0.34891
 H579 H 0.12240 0.19476 0.30898
 H580 H 0.13065 0.24791 0.26220
 H581 H 0.14891 0.19366 0.28713
 H582 H 0.10232 0.26447 0.27383
 H583 H 0.07529 0.26722 0.29474
 H584 H 0.09809 0.19598 0.32642
 H585 H 0.07091 0.19859 0.34713
 H586 H 0.05222 0.26949 0.31356
 H587 H 0.02534 0.27026 0.33502
 H588 H 0.04281 0.21499 0.35854
 C589 C 0.60528 0.73569 0.75517
 C590 C 0.60379 0.72791 0.77389
 C591 C 0.62016 0.71739 0.78127
 C592 C 0.63705 0.71470 0.77023
 C593 C 0.63828 0.72251 0.75176
 C594 C 0.62223 0.73302 0.74438
 C595 C 0.61973 0.70962 0.79969
 C596 C 0.60356 0.71239 0.81127
 C597 C 0.58701 0.72307 0.80485
 C598 C 0.58684 0.73044 0.78563
 C599 C 0.56972 0.74001 0.77879
 C600 C 0.55355 0.74275 0.79043
 C601 C 0.55380 0.73632 0.80942
 C602 C 0.57055 0.72653 0.81698
 C603 C 0.57038 0.72117 0.83662
 C604 C 0.55414 0.72502 0.84799
 C605 C 0.53721 0.73399 0.84027
 C606 C 0.53744 0.74000 0.82099
 H607 H 0.59377 0.74414 0.74848
 H608 H 0.64942 0.70678 0.77630
 H609 H 0.62264 0.73917 0.73012
 H610 H 0.63212 0.70138 0.80530
 H611 H 0.60444 0.70568 0.82518
 H612 H 0.56820 0.74544 0.76434
 H613 H 0.54076 0.75020 0.78453
 H614 H 0.58278 0.71452 0.84392
 H615 H 0.55507 0.72130 0.86314
 H616 H 0.52522 0.74817 0.81501
 C617 C 0.37066 0.73146 0.78875
 C618 C 0.38024 0.74617 0.80129
 C619 C 0.37102 0.76467 0.80332
 C620 C 0.35368 0.76852 0.79220
 C621 C 0.34509 0.75412 0.77897
 C622 C 0.35351 0.73544 0.77781
 C623 C 0.37937 0.77939 0.81613
 C624 C 0.39698 0.77641 0.82666
 C625 C 0.40726 0.75860 0.82452
 C626 C 0.39875 0.74325 0.81157
 C627 C 0.40942 0.72578 0.80870
 C628 C 0.42796 0.72355 0.81763
 C629 C 0.43654 0.73841 0.83005
 C630 C 0.42615 0.75590 0.83426
 C631 C 0.43539 0.77003 0.84777
 C632 C 0.45457 0.76734 0.85566
 C633 C 0.46509 0.75065 0.85025
 C634 C 0.45578 0.73600 0.83790
 H635 H 0.37597 0.71667 0.78697
 H636 H 0.34725 0.78297 0.79353
 H637 H 0.34694 0.72371 0.76830
 H638 H 0.37231 0.79351 0.81788
 H639 H 0.40252 0.78869 0.83594
 H640 H 0.40421 0.71367 0.79905
 H641 H 0.43581 0.71009 0.81453
 H642 H 0.42830 0.78336 0.85244
 H643 H 0.46148 0.77867 0.86546
 H644 H 0.46374 0.72276 0.83415
 C645 C -0.12349 0.22766 0.27387
 C646 C -0.11905 0.23938 0.29104
 C647 C -0.13250 0.25429 0.29597
 C648 C -0.14929 0.25754 0.28389
 C649 C -0.15317 0.24626 0.26649
 C650 C -0.14016 0.23107 0.26191
 C651 C -0.12902 0.26618 0.31281
 C652 C -0.11211 0.26409 0.32463
 C653 C -0.09785 0.24992 0.32009
 C654 C -0.10158 0.23708 0.30321
 C655 C -0.08752 0.22264 0.29886
 C656 C -0.07004 0.22133 0.30997
 C657 C -0.06582 0.23421 0.32593
 C658 C -0.07976 0.24843 0.33157
 C659 C -0.07467 0.26083 0.34823
 C660 C -0.05621 0.25969 0.35812
 C661 C -0.04227 0.24621 0.35180
 C662 C -0.04742 0.23316 0.33603
 H663 H -0.11431 0.21586 0.26899
 H664 H -0.15911 0.26917 0.28813
 H665 H -0.14251 0.22176 0.24888
 H666 H -0.13937 0.27750 0.31677
 H667 H -0.11056 0.27406 0.33718
 H668 H -0.08938 0.21218 0.28672
 H669 H -0.05952 0.21026 0.30578
 H670 H -0.08439 0.27186 0.35380
 H671 H -0.05256 0.26991 0.37031
 H672 H -0.03688 0.22231 0.33136
 C673 C -0.13743 0.70929 0.20871
 C674 C -0.12521 0.72669 0.20812
 C675 C -0.13013 0.74319 0.22012
 C676 C -0.14682 0.74223 0.23185
 C677 C -0.15893 0.72495 0.23199
 C678 C -0.15392 0.70852 0.22039
 C679 C -0.11844 0.76061 0.22035
 C680 C -0.10188 0.76211 0.20897
 C681 C -0.09633 0.74619 0.19667
 C682 C -0.10832 0.72824 0.19610
 C683 C -0.10315 0.71252 0.18338
 C684 C -0.08684 0.71412 0.17175
 C685 C -0.07487 0.73136 0.17228
 C686 C -0.07930 0.74762 0.18479
 C687 C -0.06640 0.76460 0.18487
 C688 C -0.05009 0.76533 0.17292
 C689 C -0.04586 0.74931 0.16035
 C690 C -0.05846 0.73230 0.16024
 H691 H -0.13470 0.69589 0.20046
 H692 H -0.15043 0.75510 0.24070
 H693 H -0.16264 0.69480 0.22033
 H694 H -0.12212 0.77328 0.22948
 H695 H -0.09382 0.77615 0.21005
 H696 H -0.11152 0.69868 0.18185
 H697 H -0.08356 0.70163 0.16219
 H698 H -0.06834 0.77758 0.19404
 H699 H -0.04063 0.77863 0.17348
 H700 H -0.05581 0.71956 0.15095
 C701 C 0.37116 0.25447 0.73278
 C702 C 0.37679 0.23936 0.71947
 C703 C 0.36571 0.22117 0.71905
 C704 C 0.34986 0.21835 0.73145
 C705 C 0.34436 0.23345 0.74461
 C706 C 0.35531 0.25154 0.74504
 C707 C 0.37040 0.20575 0.70621
 C708 C 0.38583 0.20792 0.69358
 C709 C 0.39736 0.22572 0.69329
 C710 C 0.39289 0.24167 0.70657
 C711 C 0.40469 0.25933 0.70653
 C712 C 0.42019 0.26145 0.69394
 C713 C 0.42458 0.24617 0.68081
 C714 C 0.41327 0.22810 0.68021
 C715 C 0.41841 0.21320 0.66646
 C716 C 0.43406 0.21614 0.65400
 C717 C 0.44524 0.23407 0.65464
 C718 C 0.44031 0.24894 0.66826
 H719 H 0.37860 0.26882 0.73410
 H720 H 0.34184 0.20420 0.73060
 H721 H 0.35177 0.26366 0.75485
 H722 H 0.36199 0.19177 0.70585
 H723 H 0.38833 0.19519 0.68426
 H724 H 0.40243 0.27191 0.71614
 H725 H 0.42884 0.27530 0.69448
 H726 H 0.41066 0.19902 0.66484
 H727 H 0.43717 0.20407 0.64404
 H728 H 0.44887 0.26286 0.66904
 C729 C 0.61736 0.29367 0.68904
 C730 C 0.60500 0.27645 0.69035
 C731 C 0.61079 0.26251 0.70417
 C732 C 0.62796 0.26591 0.71620
 C733 C 0.63993 0.28323 0.71505
 C734 C 0.63443 0.29693 0.70111
 C735 C 0.59933 0.24523 0.70614
 C736 C 0.58183 0.24164 0.69515
 C737 C 0.57495 0.25529 0.68161
 C738 C 0.58699 0.27273 0.67875
 C739 C 0.58050 0.28590 0.66455
 C740 C 0.56255 0.28262 0.65407
 C741 C 0.55022 0.26620 0.65734
 C742 C 0.55630 0.25219 0.67104
 C743 C 0.54313 0.23591 0.67397
 C744 C 0.52459 0.23408 0.66429
 C745 C 0.51848 0.24822 0.65121
 C746 C 0.53155 0.26398 0.64735
 H747 H 0.61417 0.30512 0.67903
 H748 H 0.63177 0.25487 0.72656
 H749 H 0.64308 0.31049 0.69953
 H750 H 0.60383 0.23438 0.71651
 H751 H 0.57403 0.22790 0.69773
 H752 H 0.58896 0.29905 0.66118
 H753 H 0.55810 0.29329 0.64352
 H754 H 0.54636 0.22449 0.68399
 H755 H 0.51483 0.22156 0.66720
 H756 H 0.52684 0.27496 0.63723
 C757 C 0.11646 0.74529 0.22628
 C758 C 0.10987 0.75825 0.21194
 C759 C 0.12288 0.77424 0.20748
 C760 C 0.14112 0.77769 0.21800
 C761 C 0.14690 0.76521 0.23289
 C762 C 0.13455 0.74877 0.23651
 C763 C 0.11751 0.78680 0.19269
 C764 C 0.09948 0.78393 0.18224
 C765 C 0.08574 0.76859 0.18652
 C766 C 0.09088 0.75582 0.20192
 C767 C 0.07662 0.74142 0.20725
 C768 C 0.05809 0.73935 0.19780
 C769 C 0.05302 0.75131 0.18249
 C770 C 0.06681 0.76588 0.17631
 C771 C 0.06095 0.77706 0.16016
 C772 C 0.04202 0.77425 0.15113
 C773 C 0.02832 0.76039 0.15794
 C774 C 0.03404 0.74881 0.17347
 H775 H 0.10816 0.73213 0.22986
 H776 H 0.15060 0.79030 0.21476
 H777 H 0.13875 0.73834 0.24732
 H778 H 0.12739 0.79902 0.18912
 H779 H 0.09649 0.79441 0.17119
 H780 H 0.07902 0.73180 0.21915
 H781 H 0.04756 0.72825 0.20261
 H782 H 0.07065 0.78798 0.15406
 H783 H 0.03793 0.78326 0.13903
 H784 H 0.02369 0.73764 0.17846
 C785 C 0.27227 0.11244 0.24198
 C786 C 0.28834 0.10844 0.22989
 C787 C 0.29249 0.12207 0.21529
 C788 C 0.28086 0.13880 0.21295
 C789 C 0.26501 0.14249 0.22507
 C790 C 0.26089 0.12913 0.23957
 C791 C 0.30823 0.11901 0.20307
 C792 C 0.32016 0.10278 0.20502
 C793 C 0.31679 0.08877 0.21935
 C794 C 0.30044 0.09149 0.23182
 C795 C 0.29667 0.07713 0.24573
 C796 C 0.30846 0.06078 0.24752
 C797 C 0.32456 0.05806 0.23568
 C798 C 0.32911 0.07202 0.22153
 C799 C 0.34597 0.06866 0.21031
 C800 C 0.35743 0.05201 0.21277
 C801 C 0.35252 0.03789 0.22641
 C802 C 0.33616 0.04136 0.23801
 H803 H 0.26805 0.10309 0.25354
 H804 H 0.28438 0.14907 0.20179
 H805 H 0.24868 0.13139 0.24910
 H806 H 0.31141 0.12934 0.19183
 H807 H 0.33184 0.10157 0.19483
 H808 H 0.28454 0.07792 0.25545
 H809 H 0.30491 0.05014 0.25837
 H810 H 0.35096 0.07873 0.19963
 H811 H 0.37029 0.05072 0.20400
 H812 H 0.33247 0.03089 0.24898
 C813 C 0.77801 0.61364 0.74205
 C814 C 0.79727 0.61251 0.73448
 C815 C 0.80384 0.62821 0.72295
 C816 C 0.79144 0.64401 0.71898
 C817 C 0.77231 0.64468 0.72629
 C818 C 0.76583 0.62943 0.73799
 C819 C 0.82269 0.62805 0.71524
 C820 C 0.83522 0.61251 0.71847
 C821 C 0.82940 0.59635 0.72962
 C822 C 0.81009 0.59633 0.73775
 C823 C 0.80415 0.57999 0.74863
 C824 C 0.81637 0.56405 0.75113
 C825 C 0.83508 0.56374 0.74311
 C826 C 0.84207 0.58000 0.73258
 C827 C 0.86154 0.57919 0.72552
 C828 C 0.87297 0.56251 0.72787
 C829 C 0.86544 0.54585 0.73710
 C830 C 0.84678 0.54710 0.74548
 H831 H 0.77178 0.60258 0.75110
 H832 H 0.79682 0.65584 0.71016
 H833 H 0.75112 0.62943 0.74384
 H834 H 0.82778 0.64002 0.70643
 H835 H 0.84934 0.61352 0.71165
 H836 H 0.78994 0.57884 0.75524
 H837 H 0.81102 0.55173 0.75935
 H838 H 0.86856 0.59123 0.71826
 H839 H 0.88790 0.56303 0.72259
 H840 H 0.84120 0.53494 0.75379
 C841 C 0.78267 0.39346 0.72829
 C842 C 0.80057 0.39778 0.73933
 C843 C 0.80525 0.38524 0.75479
 C844 C 0.79228 0.36939 0.75907
 C845 C 0.77435 0.36565 0.74829
 C846 C 0.76988 0.37774 0.73274
 C847 C 0.82270 0.38871 0.76612
 C848 C 0.83544 0.40473 0.76290
 C849 C 0.83122 0.41806 0.74811
 C850 C 0.81372 0.41428 0.73585
 C851 C 0.80976 0.42731 0.72073
 C852 C 0.82185 0.44395 0.71820
 C853 C 0.83841 0.44832 0.73053
 C854 C 0.84366 0.43531 0.74543
 C855 C 0.86086 0.44049 0.75731
 C856 C 0.87163 0.45823 0.75503
 C857 C 0.86575 0.47136 0.74086
 C858 C 0.84945 0.46601 0.72831
 H859 H 0.77786 0.40203 0.71624
 H860 H 0.79610 0.36024 0.77113
 H861 H 0.75636 0.37523 0.72389
 H862 H 0.82646 0.37906 0.77783
 H863 H 0.84845 0.40631 0.77248
 H864 H 0.79723 0.42526 0.71060
 H865 H 0.81794 0.45372 0.70663
 H866 H 0.86616 0.43147 0.76884
 H867 H 0.88412 0.46205 0.76500
 H868 H 0.84505 0.47590 0.71700
 C869 C 0.31433 -0.13198 0.27541
 C870 C 0.31080 -0.11954 0.25966
 C871 C 0.29414 -0.12448 0.24700
 C872 C 0.28149 -0.14087 0.25032
 C873 C 0.28481 -0.15279 0.26635
 C874 C 0.30162 -0.14820 0.27864
 C875 C 0.28993 -0.11290 0.23115
 C876 C 0.30153 -0.09613 0.22778
 C877 C 0.31796 -0.09014 0.24023
 C878 C 0.32294 -0.10225 0.25622
 C879 C 0.33969 -0.09651 0.26837
 C880 C 0.35077 -0.07923 0.26548
 C881 C 0.34570 -0.06692 0.25042
 C882 C 0.32938 -0.07226 0.23741
 C883 C 0.32493 -0.05917 0.22238
 C884 C 0.33574 -0.04138 0.22085
 C885 C 0.35144 -0.03595 0.23408
 C886 C 0.35664 -0.04901 0.24858
 H887 H 0.32666 -0.12953 0.28573
 H888 H 0.26888 -0.14402 0.24035
 H889 H 0.30507 -0.15693 0.29107
 H890 H 0.27733 -0.11671 0.22129
 H891 H 0.29703 -0.08810 0.21525
 H892 H 0.34463 -0.10498 0.28044
 H893 H 0.36332 -0.07533 0.27537
 H894 H 0.31300 -0.06198 0.21169
 H895 H 0.33166 -0.03172 0.20926
 H896 H 0.36869 -0.04488 0.25898
 C897 C 0.21989 -0.12227 0.75694
 C898 C 0.20339 -0.11769 0.74475
 C899 C 0.19854 -0.13079 0.72861
 C900 C 0.20985 -0.14757 0.72494
 C901 C 0.22626 -0.15192 0.73712
 C902 C 0.23102 -0.13898 0.75317
 C903 C 0.18242 -0.12714 0.71611
 C904 C 0.17084 -0.11079 0.71923
 C905 C 0.17489 -0.09728 0.73513
 C906 C 0.19157 -0.10067 0.74800
 C907 C 0.19590 -0.08689 0.76362
 C908 C 0.18442 -0.07044 0.76663
 C909 C 0.16807 -0.06702 0.75434
 C910 C 0.16293 -0.08040 0.73850
 C911 C 0.14583 -0.07639 0.72687
 C912 C 0.13475 -0.05962 0.73054
 C913 C 0.14034 -0.04599 0.74580
 C914 C 0.15681 -0.05021 0.75790
 H915 H 0.22465 -0.11331 0.76961
 H916 H 0.20564 -0.15716 0.71244
 H917 H 0.24344 -0.14156 0.76307
 H918 H 0.17868 -0.13705 0.70368
 H919 H 0.15884 -0.10910 0.70870
 H920 H 0.20823 -0.08826 0.77384
 H921 H 0.18841 -0.06025 0.77879
 H922 H 0.14033 -0.08603 0.71494
 H923 H 0.12155 -0.05781 0.72147
 H924 H 0.16088 -0.04028 0.77024
 C925 C 0.72255 0.37088 0.24867
 C926 C 0.70473 0.37448 0.23792
 C927 C 0.69844 0.36038 0.22301
 C928 C 0.70968 0.34366 0.21906
 C929 C 0.72739 0.34046 0.22969
 C930 C 0.73360 0.35418 0.24458
 C931 C 0.68100 0.36301 0.21200
 C932 C 0.66952 0.37938 0.21535
 C933 C 0.67503 0.39392 0.22997
 C934 C 0.69300 0.39151 0.24137
 C935 C 0.69872 0.40627 0.25573
 C936 C 0.68741 0.42283 0.25882
 C937 C 0.66991 0.42537 0.24787
 C938 C 0.66329 0.41093 0.23344
 C939 C 0.64510 0.41414 0.22318
 C940 C 0.63441 0.43120 0.22670
 C941 C 0.64145 0.44584 0.24047
 C942 C 0.65900 0.44241 0.25133
 H943 H 0.72846 0.38063 0.26033
 H944 H 0.70446 0.33307 0.20767
 H945 H 0.74723 0.35223 0.25304
 H946 H 0.67616 0.35229 0.20055
 H947 H 0.65643 0.38024 0.20599
 H948 H 0.71202 0.40563 0.26482
 H949 H 0.69250 0.43382 0.26992
 H950 H 0.63851 0.40370 0.21244
 H951 H 0.62046 0.43249 0.21867
 H952 H 0.66428 0.45324 0.26252
 C953 C 0.68572 0.62105 0.28652
 C954 C 0.68708 0.60719 0.27073
 C955 C 0.70140 0.61132 0.25670
 C956 C 0.71380 0.62847 0.25862
 C957 C 0.71251 0.64179 0.27456
 C958 C 0.69823 0.63796 0.28834
 C959 C 0.70351 0.59821 0.24089
 C960 C 0.69215 0.58072 0.23889
 C961 C 0.67805 0.57557 0.25269
 C962 C 0.67506 0.58928 0.26859
 C963 C 0.66029 0.58453 0.28187
 C964 C 0.64932 0.56675 0.28016
 C965 C 0.65263 0.55288 0.26526
 C966 C 0.66695 0.55708 0.25122
 C967 C 0.66983 0.54235 0.23653
 C968 C 0.65927 0.52425 0.23611
 C969 C 0.64541 0.52012 0.25019
 C970 C 0.64189 0.53465 0.26453
 H971 H 0.67539 0.61920 0.29792
 H972 H 0.72481 0.63111 0.24786
 H973 H 0.69662 0.64805 0.30071
 H974 H 0.71428 0.60140 0.23000
 H975 H 0.69485 0.57154 0.22623
 H976 H 0.65675 0.59427 0.29387
 H977 H 0.63828 0.56371 0.29083
 H978 H 0.68034 0.54410 0.22527
 H979 H 0.66196 0.51340 0.22462
 H980 H 0.63126 0.53150 0.27555
 C981 C 0.21428 0.11359 0.75454
 C982 C 0.19819 0.10736 0.76579
 C983 C 0.19287 0.12015 0.78140
 C984 C 0.20364 0.13806 0.78574
 C985 C 0.21989 0.14365 0.77476
 C986 C 0.22487 0.13133 0.75901
 C987 C 0.17695 0.11493 0.79278
 C988 C 0.16626 0.09716 0.78923
 C989 C 0.17115 0.08369 0.77411
 C990 C 0.18736 0.08891 0.76217
 C991 C 0.19242 0.07537 0.74718
 C992 C 0.18224 0.05732 0.74403
 C993 C 0.16656 0.05195 0.75559
 C994 C 0.16056 0.06504 0.77067
 C995 C 0.14428 0.05877 0.78171
 C996 C 0.13477 0.04022 0.77806
 C997 C 0.14115 0.02730 0.76342
 C998 C 0.15692 0.03338 0.75211
 H999 H 0.21918 0.10516 0.74216
 H1000 H 0.19956 0.14740 0.79797
 H1001 H 0.23704 0.13536 0.74995
 H1002 H 0.17275 0.12467 0.80469
 H1003 H 0.15432 0.09434 0.79882
 H1004 H 0.20442 0.07809 0.73762
 H1005 H 0.18681 0.04737 0.73245
 H1006 H 0.13851 0.06773 0.79331
 H1007 H 0.12262 0.03582 0.78702
 H1008 H 0.16164 0.02367 0.74040
 C1009 C 0.19724 0.29079 0.12225
 C1010 C 0.21492 0.29330 0.11194
 C1011 C 0.23120 0.28145 0.11707
 C1012 C 0.22980 0.26808 0.13214
 C1013 C 0.21233 0.26615 0.14247
 C1014 C 0.19606 0.27752 0.13722
 C1015 C 0.24891 0.28311 0.10731
 C1016 C 0.25099 0.29636 0.09257
 C1017 C 0.23535 0.30867 0.08695
 C1018 C 0.21704 0.30718 0.09686
 C1019 C 0.20156 0.31980 0.09155
 C1020 C 0.20386 0.33347 0.07722
 C1021 C 0.22158 0.33513 0.06745
 C1022 C 0.23750 0.32262 0.07195
 C1023 C 0.25484 0.32453 0.06106
 C1024 C 0.25642 0.33862 0.04688
 C1025 C 0.24101 0.35162 0.04307
 C1026 C 0.22335 0.34930 0.05313
 H1027 H 0.18398 0.29880 0.11918
 H1028 H 0.24256 0.25946 0.13604
 H1029 H 0.18221 0.27614 0.14463
 H1030 H 0.26141 0.27410 0.11118
 H1031 H 0.26528 0.29676 0.08604
 H1032 H 0.18741 0.31970 0.09834
 H1033 H 0.19159 0.34293 0.07379
 H1034 H 0.26745 0.31527 0.06293
 H1035 H 0.26990 0.33935 0.03876
 H1036 H 0.21067 0.35814 0.04974
 C1037 C 0.74736 0.77066 0.60437
 C1038 C 0.73757 0.78876 0.60228
 C1039 C 0.72486 0.79476 0.61723
 C1040 C 0.72180 0.78283 0.63314
 C1041 C 0.73131 0.76480 0.63477
 C1042 C 0.74425 0.75895 0.62033
 C1043 C 0.71512 0.81259 0.61624
 C1044 C 0.71767 0.82478 0.60073
 C1045 C 0.73008 0.81956 0.58540
 C1046 C 0.73990 0.80108 0.58598
 C1047 C 0.75144 0.79540 0.57012
 C1048 C 0.75331 0.80728 0.55424
 C1049 C 0.74408 0.82543 0.55360
 C1050 C 0.73267 0.83204 0.56930
 C1051 C 0.72460 0.85108 0.56833
 C1052 C 0.72695 0.86250 0.55209
 C1053 C 0.73709 0.85535 0.53596
 C1054 C 0.74628 0.83704 0.53728
 H1055 H 0.75760 0.76508 0.59400
 H1056 H 0.71205 0.78777 0.64438
 H1057 H 0.75184 0.74511 0.62117
 H1058 H 0.70532 0.81719 0.62759
 H1059 H 0.70927 0.83807 0.60103
 H1060 H 0.75899 0.78160 0.56929
 H1061 H 0.76214 0.80218 0.54231
 H1062 H 0.71679 0.85786 0.58006
 H1063 H 0.72108 0.87720 0.55259
 H1064 H 0.75533 0.83182 0.52557
 C1065 C 0.73567 0.77858 0.38341
 C1066 C 0.74692 0.79611 0.38877
 C1067 C 0.76333 0.80111 0.37733
 C1068 C 0.76818 0.78883 0.36134
 C1069 C 0.75709 0.77128 0.35660
 C1070 C 0.74071 0.76648 0.36769
 C1071 C 0.77499 0.81815 0.38209
 C1072 C 0.77111 0.83015 0.39825
 C1073 C 0.75522 0.82562 0.41036
 C1074 C 0.74267 0.80854 0.40529
 C1075 C 0.72643 0.80428 0.41705
 C1076 C 0.72309 0.81561 0.43369
 C1077 C 0.73563 0.83174 0.43931
 C1078 C 0.75164 0.83734 0.42761
 C1079 C 0.76360 0.85418 0.43400
 C1080 C 0.76028 0.86427 0.45162
 C1081 C 0.74500 0.85799 0.46341
 C1082 C 0.73243 0.84203 0.45690
 H1083 H 0.72298 0.77350 0.39112
 H1084 H 0.78091 0.79271 0.35289
 H1085 H 0.73154 0.75329 0.36423
 H1086 H 0.78749 0.82214 0.37336
 H1087 H 0.78103 0.84286 0.40093
 H1088 H 0.71596 0.79211 0.41396
 H1089 H 0.71066 0.81147 0.44245
 H1090 H 0.77592 0.85970 0.42600
 H1091 H 0.77025 0.87655 0.45639
 H1092 H 0.72028 0.83735 0.46577
 C1093 C 0.22692 0.28922 -0.11390
 C1094 C 0.23996 0.30509 -0.10722
 C1095 C 0.25668 0.30938 -0.11847
 C1096 C 0.26050 0.29762 -0.13512
 C1097 C 0.24788 0.28136 -0.14100
 C1098 C 0.23087 0.27764 -0.13039
 C1099 C 0.26974 0.32519 -0.11287
 C1100 C 0.26698 0.33655 -0.09602
 C1101 C 0.25103 0.33243 -0.08386
 C1102 C 0.23720 0.31653 -0.08965
 C1103 C 0.22139 0.31219 -0.07739
 C1104 C 0.21954 0.32241 -0.05977
 C1105 C 0.23316 0.33752 -0.05367
 C1106 C 0.24880 0.34321 -0.06577
 C1107 C 0.26177 0.35915 -0.05893
 C1108 C 0.25991 0.36809 -0.04046
 C1109 C 0.24514 0.36149 -0.02826
 C1110 C 0.23147 0.34660 -0.03521
 H1111 H 0.21354 0.28516 -0.10670
 H1112 H 0.27358 0.30100 -0.14323
 H1113 H 0.22049 0.26556 -0.13460
 H1114 H 0.28246 0.32869 -0.12150
 H1115 H 0.27795 0.34825 -0.09272
 H1116 H 0.21033 0.30058 -0.08068
 H1117 H 0.20744 0.31817 -0.05065
 H1118 H 0.27372 0.36488 -0.06730
 H1119 H 0.27062 0.37965 -0.03542
 H1120 H 0.21969 0.34175 -0.02598
 C1121 C 0.75113 0.23757 -0.13174
 C1122 C 0.73957 0.22011 -0.12885
 C1123 C 0.72408 0.21490 -0.14281
 C1124 C 0.72046 0.22675 -0.15882
 C1125 C 0.73204 0.24401 -0.16143
 C1126 C 0.74739 0.24922 -0.14770
 C1127 C 0.71220 0.19788 -0.14078
 C1128 C 0.71530 0.18576 -0.12521
 C1129 C 0.73057 0.19014 -0.11091
 C1130 C 0.74282 0.20768 -0.11268
 C1131 C 0.75786 0.21224 -0.09819
 C1132 C 0.76087 0.20018 -0.08256
 C1133 C 0.74916 0.18303 -0.08068
 C1134 C 0.73393 0.17762 -0.09483
 C1135 C 0.72290 0.15975 -0.09236
 C1136 C 0.72653 0.14815 -0.07633
 C1137 C 0.74111 0.15395 -0.06194
 C1138 C 0.75270 0.17122 -0.06465
 H1139 H 0.76323 0.24273 -0.12199
 H1140 H 0.70862 0.22233 -0.16932
 H1141 H 0.75657 0.26248 -0.14910
 H1142 H 0.70028 0.19387 -0.15136
 H1143 H 0.70527 0.17307 -0.12478
 H1144 H 0.76762 0.22516 -0.09838
 H1145 H 0.77257 0.20436 -0.07179
 H1146 H 0.71150 0.15407 -0.10265
 H1147 H 0.71802 0.13439 -0.07566
 H1148 H 0.76463 0.17549 -0.05415
 C1149 C 0.21896 0.71301 0.38466
 C1150 C 0.23776 0.70758 0.39232
 C1151 C 0.25496 0.71521 0.38344
 C1152 C 0.25320 0.72770 0.36762
 C1153 C 0.23443 0.73247 0.36001
 C1154 C 0.21741 0.72513 0.36879
 C1155 C 0.27383 0.71006 0.39015
 C1156 C 0.27612 0.69719 0.40526
 C1157 C 0.25953 0.68905 0.41453
 C1158 C 0.24003 0.69464 0.40819
 C1159 C 0.22346 0.68706 0.41790
 C1160 C 0.22572 0.67412 0.43290
 C1161 C 0.24451 0.66809 0.43889
 C1162 C 0.26172 0.67547 0.42992
 C1163 C 0.28039 0.66897 0.43687
 C1164 C 0.28177 0.65560 0.45179
 C1165 C 0.26463 0.64781 0.46018
 C1166 C 0.24610 0.65474 0.45395
 H1167 H 0.20507 0.70793 0.39030
 H1168 H 0.26647 0.73318 0.36083
 H1169 H 0.20270 0.72877 0.36339
 H1170 H 0.28703 0.71585 0.38346
 H1171 H 0.29125 0.69394 0.40931
 H1172 H 0.20838 0.69088 0.41435
 H1173 H 0.21252 0.66866 0.43984
 H1174 H 0.29431 0.67399 0.43122
 H1175 H 0.29648 0.65178 0.45693
 H1176 H 0.23275 0.64983 0.46097
 C1177 C 0.24418 0.71681 0.61341
 C1178 C 0.25444 0.69911 0.60996
 C1179 C 0.26669 0.69235 0.62536
 C1180 C 0.26861 0.70305 0.64326
 C1181 C 0.25868 0.72079 0.64627
 C1182 C 0.24632 0.72738 0.63120
 C1183 C 0.27723 0.67507 0.62279
 C1184 C 0.27639 0.66455 0.60507
 C1185 C 0.26482 0.67085 0.58908
 C1186 C 0.25327 0.68816 0.59171
 C1187 C 0.24109 0.69405 0.57596
 C1188 C 0.24080 0.68399 0.55805
 C1189 C 0.25257 0.66767 0.55501
 C1190 C 0.26457 0.66060 0.57046
 C1191 C 0.27609 0.64381 0.56641
 C1192 C 0.27604 0.63493 0.54774
 C1193 C 0.26459 0.64243 0.53251
 C1194 C 0.25259 0.65856 0.53639
 H1195 H 0.23464 0.72320 0.60262
 H1196 H 0.27808 0.69753 0.65476
 H1197 H 0.23844 0.74100 0.63288
 H1198 H 0.28649 0.66973 0.63457
 H1199 H 0.28513 0.65148 0.60441
 H1200 H 0.23155 0.70650 0.57690
 H1201 H 0.23142 0.68927 0.54633
 H1202 H 0.28562 0.63736 0.57718
 H1203 H 0.28553 0.62254 0.54511
 H1204 H 0.24328 0.66419 0.52479
 C1205 C 0.74239 0.21626 0.10021
 C1206 C 0.75568 0.20240 0.09264
 C1207 C 0.77220 0.19749 0.10472
 C1208 C 0.77557 0.20684 0.12320
 C1209 C 0.76257 0.22106 0.13018
 C1210 C 0.74582 0.22536 0.11856
 C1211 C 0.78536 0.18336 0.09825
 C1212 C 0.78253 0.17391 0.08005
 C1213 C 0.76651 0.17848 0.06732
 C1214 C 0.75308 0.19324 0.07360
 C1215 C 0.73772 0.19866 0.06049
 C1216 C 0.73537 0.18989 0.04202
 C1217 C 0.74802 0.17523 0.03582
 C1218 C 0.76364 0.16906 0.04838
 C1219 C 0.77565 0.15367 0.04138
 C1220 C 0.77244 0.14521 0.02265
 C1221 C 0.75730 0.15180 0.01026
 C1222 C 0.74508 0.16673 0.01701
 H1223 H 0.72901 0.22033 0.09249
 H1224 H 0.78850 0.20314 0.13200
 H1225 H 0.73512 0.23581 0.12355
 H1226 H 0.79801 0.17951 0.10740
 H1227 H 0.79350 0.16332 0.07625
 H1228 H 0.72740 0.21002 0.06386
 H1229 H 0.72345 0.19469 0.03244
 H1230 H 0.78756 0.14771 0.04999
 H1231 H 0.78209 0.13366 0.01775
 H1232 H 0.73299 0.17159 0.00766
 C1233 C 0.50717 0.36289 0.54301
 C1234 C 0.48995 0.35408 0.55078
 C1235 C 0.47127 0.36192 0.54549
 C1236 C 0.47015 0.37837 0.53369
 C1237 C 0.48735 0.38702 0.52634
 C1238 C 0.50580 0.37900 0.53092
 C1239 C 0.45374 0.35331 0.55194
 C1240 C 0.45419 0.33681 0.56328
 C1241 C 0.47236 0.32842 0.56904
 C1242 C 0.49056 0.33767 0.56337
 C1243 C 0.50870 0.33051 0.57084
 C1244 C 0.50907 0.31472 0.58323
 C1245 C 0.49147 0.30501 0.58820
 C1246 C 0.47289 0.31140 0.58077
 C1247 C 0.45559 0.30028 0.58518
 C1248 C 0.45664 0.28422 0.59722
 C1249 C 0.47489 0.27860 0.60547
 C1250 C 0.49232 0.28894 0.60062
 H1251 H 0.52188 0.35746 0.54566
 H1252 H 0.45574 0.38420 0.52989
 H1253 H 0.51933 0.38535 0.52534
 H1254 H 0.43944 0.35932 0.54805
 H1255 H 0.43996 0.33132 0.56783
 H1256 H 0.52296 0.33721 0.56786
 H1257 H 0.52334 0.30996 0.58885
 H1258 H 0.44102 0.30327 0.57918
 H1259 H 0.44297 0.27601 0.59980
 H1260 H 0.50659 0.28475 0.60670
 C1261 C -0.03813 0.88295 0.06108
 C1262 C -0.02577 0.86651 0.05873
 C1263 C -0.01555 0.86458 0.04116
 C1264 C -0.01741 0.87883 0.02688
 C1265 C -0.02980 0.89494 0.02947
 C1266 C -0.04009 0.89680 0.04669
 C1267 C -0.00373 0.84831 0.03778
 C1268 C -0.00222 0.83354 0.05120
 C1269 C -0.01224 0.83461 0.06884
 C1270 C -0.02359 0.85175 0.07297
 C1271 C -0.03233 0.85361 0.09124
 C1272 C -0.03091 0.83887 0.10463
 C1273 C -0.02092 0.82159 0.10039
 C1274 C -0.01134 0.81914 0.08252
 C1275 C -0.00165 0.80109 0.07899
 C1276 C -0.00181 0.78616 0.09253
 C1277 C -0.01153 0.78867 0.11001
 C1278 C -0.02075 0.80661 0.11394
 H1279 H -0.04686 0.88538 0.07368
 H1280 H -0.00958 0.87704 0.01350
 H1281 H -0.04971 0.90911 0.04917
 H1282 H 0.00423 0.84681 0.02444
 H1283 H 0.00717 0.82150 0.04737
 H1284 H -0.04026 0.86645 0.09580
 H1285 H -0.03802 0.84092 0.11840
 H1286 H 0.00572 0.79776 0.06572
 H1287 H 0.00519 0.77236 0.08895
 H1288 H -0.02800 0.80891 0.12759
 C1289 C -0.00221 0.63100 0.04108
 C1290 C 0.01148 0.64505 0.05022
 C1291 C 0.03204 0.64249 0.04731
 C1292 C 0.03834 0.62696 0.03499
 C1293 C 0.02439 0.61380 0.02537
 C1294 C 0.00417 0.61581 0.02888
 C1295 C 0.04617 0.65555 0.05655
 C1296 C 0.04042 0.67114 0.06863
 C1297 C 0.02013 0.67454 0.07177
 C1298 C 0.00543 0.66143 0.06215
 C1299 C -0.01488 0.66529 0.06450
 C1300 C -0.02072 0.68095 0.07625
 C1301 C -0.00666 0.69348 0.08619
 C1302 C 0.01398 0.69063 0.08410
 C1303 C 0.02748 0.70398 0.09462
 C1304 C 0.02067 0.71916 0.10680
 C1305 C 0.00025 0.72160 0.10893
 C1306 C -0.01328 0.70883 0.09832
 H1307 H -0.01800 0.63116 0.04307
 H1308 H 0.05405 0.62547 0.03249
 H1309 H -0.00694 0.60552 0.02218
 H1310 H 0.06191 0.65370 0.05444
 H1311 H 0.05233 0.68045 0.07515
 H1312 H -0.02683 0.65661 0.05723
 H1313 H -0.03650 0.68323 0.07764
 H1314 H 0.04339 0.70294 0.09404
 H1315 H 0.03149 0.72865 0.11499
 H1316 H -0.02913 0.71081 0.09953
 C1317 C 0.52788 0.12225 0.54845
 C1318 C 0.51988 0.14088 0.54449
 C1319 C 0.51791 0.14607 0.52478
 C1320 C 0.52233 0.13244 0.50976
 C1321 C 0.52959 0.11382 0.51398
 C1322 C 0.53273 0.10906 0.53342
 C1323 C 0.51146 0.16479 0.52014
 C1324 C 0.50698 0.17860 0.53465
 C1325 C 0.50808 0.17396 0.55446
 C1326 C 0.51388 0.15451 0.55939
 C1327 C 0.51276 0.14908 0.57891
 C1328 C 0.50631 0.16217 0.59317
 C1329 C 0.50140 0.18141 0.58874
 C1330 C 0.50284 0.18785 0.56947
 C1331 C 0.49907 0.20799 0.56612
 C1332 C 0.49324 0.22079 0.58112
 C1333 C 0.49067 0.21388 0.59974
 C1334 C 0.49495 0.19425 0.60353
 H1335 H 0.53089 0.11755 0.56301
 H1336 H 0.52032 0.13641 0.49472
 H1337 H 0.53852 0.09484 0.53706
 H1338 H 0.50995 0.16887 0.50511
 H1339 H 0.50189 0.19261 0.52980
 H1340 H 0.51600 0.13444 0.58355
 H1341 H 0.50527 0.15718 0.60788
 H1342 H 0.50084 0.21438 0.55217
 H1343 H 0.49028 0.23605 0.57805
 H1344 H 0.49345 0.18905 0.61813
 C1345 C -0.02867 0.11946 0.45004
 C1346 C -0.02458 0.13977 0.45486
 C1347 C -0.02319 0.14568 0.47485
 C1348 C -0.02493 0.13157 0.48925
 C1349 C -0.02867 0.11151 0.48413
 C1350 C -0.03070 0.10568 0.46444
 C1351 C -0.02014 0.16563 0.48039
 C1352 C -0.01849 0.17996 0.46655
 C1353 C -0.01936 0.17484 0.44647
 C1354 C -0.02193 0.15435 0.44055
 C1355 C -0.02123 0.14904 0.42058
 C1356 C -0.01820 0.16316 0.40683
 C1357 C -0.01612 0.18319 0.41229
 C1358 C -0.01715 0.18945 0.43209
 C1359 C -0.01577 0.21012 0.43660
 C1360 C -0.01252 0.22371 0.42215
 C1361 C -0.01059 0.21720 0.40287
 C1362 C -0.01267 0.19697 0.39798
 H1363 H -0.03070 0.11369 0.43530
 H1364 H -0.02372 0.13628 0.50447
 H1365 H -0.03364 0.09028 0.46006
 H1366 H -0.01909 0.17025 0.49564
 H1367 H -0.01598 0.19496 0.47214
 H1368 H -0.02236 0.13392 0.41504
 H1369 H -0.01741 0.15832 0.39171
 H1370 H -0.01709 0.21629 0.45111
 H1371 H -0.01078 0.23928 0.42621
 H1372 H -0.01139 0.19197 0.38295
 C1373 C 0.50139 0.64257 0.97657
 C1374 C 0.48721 0.65248 0.96511
 C1375 C 0.46679 0.64899 0.96871
 C1376 C 0.46100 0.63557 0.98274
 C1377 C 0.47529 0.62575 0.99375
 C1378 C 0.49548 0.62950 0.99059
 C1379 C 0.45224 0.65893 0.95836
 C1380 C 0.45743 0.67244 0.94456
 C1381 C 0.47752 0.67632 0.94025
 C1382 C 0.49262 0.66579 0.95036
 C1383 C 0.51260 0.66863 0.94517
 C1384 C 0.51776 0.68147 0.93084
 C1385 C 0.50335 0.69221 0.92123
 C1386 C 0.48305 0.69009 0.92591
 C1387 C 0.46921 0.70195 0.91601
 C1388 C 0.47532 0.71481 0.90178
 C1389 C 0.49530 0.71621 0.89689
 C1390 C 0.50924 0.70502 0.90683
 H1391 H 0.51722 0.64472 0.97532
 H1392 H 0.44533 0.63303 0.98528
 H1393 H 0.50689 0.62213 0.99882
 H1394 H 0.43660 0.65631 0.96103
 H1395 H 0.44522 0.67934 0.93720
 H1396 H 0.52471 0.66080 0.95160
 H1397 H 0.53329 0.68300 0.92724
 H1398 H 0.45360 0.70177 0.91897
 H1399 H 0.46427 0.72336 0.89429
 H1400 H 0.52484 0.70641 0.90344
 C1401 C 0.50435 0.86184 0.96998
 C1402 C 0.51910 0.85168 0.95976
 C1403 C 0.53931 0.85712 0.96445
 C1404 C 0.54432 0.87252 0.97809
 C1405 C 0.52957 0.88269 0.98772
 C1406 C 0.50957 0.87703 0.98379
 C1407 C 0.55455 0.84729 0.95545
 C1408 C 0.55030 0.83188 0.94199
 C1409 C 0.53048 0.82579 0.93674
 C1410 C 0.51461 0.83631 0.94520
 C1411 C 0.49489 0.83140 0.93848
 C1412 C 0.49080 0.81665 0.92411
 C1413 C 0.50608 0.80576 0.91628
 C1414 C 0.52608 0.80986 0.92288
 C1415 C 0.54090 0.79761 0.91550
 C1416 C 0.53621 0.78272 0.90146
 C1417 C 0.51661 0.77940 0.89412
 C1418 C 0.50152 0.79078 0.90188
 H1419 H 0.48867 0.85826 0.96783
 H1420 H 0.55987 0.87642 0.98138
 H1421 H 0.49787 0.88458 0.99116
 H1422 H 0.57001 0.85153 0.95887
 H1423 H 0.56301 0.82544 0.93548
 H1424 H 0.48223 0.83910 0.94368
 H1425 H 0.47547 0.81362 0.91919
 H1426 H 0.55625 0.79875 0.92060
 H1427 H 0.54808 0.77353 0.89661
 H1428 H 0.48625 0.78818 0.89656
 C1429 C 0.02791 0.38390 0.44500
 C1430 C 0.01615 0.36669 0.44838
 C1431 C 0.00877 0.36473 0.46725
 C1432 C 0.01351 0.37916 0.48205
 C1433 C 0.02579 0.39572 0.47860
 C1434 C 0.03263 0.39804 0.45985
 C1435 C -0.00298 0.34817 0.47141
 C1436 C -0.00700 0.33304 0.45751
 C1437 C 0.00061 0.33384 0.43872
 C1438 C 0.01197 0.35117 0.43393
 C1439 C 0.01919 0.35219 0.41500
 C1440 C 0.01652 0.33644 0.40159
 C1441 C 0.00644 0.31907 0.40637
 C1442 C -0.00220 0.31765 0.42474
 C1443 C -0.01279 0.29979 0.42843
 C1444 C -0.01349 0.28373 0.41502
 C1445 C -0.00367 0.28481 0.39752
 C1446 C 0.00549 0.30290 0.39298
 H1447 H 0.03401 0.38684 0.43114
 H1448 H 0.00806 0.37709 0.49645
 H1449 H 0.04180 0.41083 0.45654
 H1450 H -0.00884 0.34669 0.48575
 H1451 H -0.01592 0.32071 0.46213
 H1452 H 0.02735 0.36488 0.41006
 H1453 H 0.02282 0.33772 0.38742
 H1454 H -0.02036 0.29752 0.44170
 H1455 H -0.02118 0.27023 0.41881
 H1456 H 0.01238 0.30430 0.37910
 C1457 C 0.40290 0.55360 0.48283
 C1458 C 0.38447 0.54881 0.49107
 C1459 C 0.38126 0.52912 0.49701
 C1460 C 0.39611 0.51504 0.49488
 C1461 C 0.41412 0.52004 0.48636
 C1462 C 0.41734 0.53945 0.48051
 C1463 C 0.36312 0.52348 0.50469
 C1464 C 0.34777 0.53671 0.50601
 C1465 C 0.35004 0.55638 0.49996
 C1466 C 0.36897 0.56271 0.49307
 C1467 C 0.37175 0.58272 0.48829
 C1468 C 0.35633 0.59580 0.48900
 C1469 C 0.33748 0.58956 0.49445
 C1470 C 0.33402 0.56990 0.50033
 C1471 C 0.31447 0.56456 0.50576
 C1472 C 0.29906 0.57797 0.50465
 C1473 C 0.30258 0.59709 0.49815
 C1474 C 0.32196 0.60290 0.49359
 H1475 H 0.40657 0.56800 0.47755
 H1476 H 0.39337 0.50000 0.49931
 H1477 H 0.43116 0.54385 0.47407
 H1478 H 0.36061 0.50850 0.50939
 H1479 H 0.33423 0.53103 0.51193
 H1480 H 0.38578 0.58888 0.48396
 H1481 H 0.35912 0.61093 0.48485
 H1482 H 0.31040 0.54997 0.51035
 H1483 H 0.28416 0.57307 0.50814
 H1484 H 0.32491 0.61783 0.48892
 C1485 C 0.85444 0.02025 -0.01473
 C1486 C 0.85444 0.03911 -0.02305
 C1487 C 0.87180 0.04529 -0.03255
 C1488 C 0.88817 0.03294 -0.03380
 C1489 C 0.88780 0.01423 -0.02568
 C1490 C 0.87081 0.00812 -0.01605
 C1491 C 0.87279 0.06375 -0.04087
 C1492 C 0.85686 0.07626 -0.04023
 C1493 C 0.83907 0.07080 -0.03122
 C1494 C 0.83787 0.05195 -0.02239
 C1495 C 0.82009 0.04652 -0.01334
 C1496 C 0.80398 0.05886 -0.01310
 C1497 C 0.80481 0.07713 -0.02181
 C1498 C 0.82237 0.08348 -0.03091
 C1499 C 0.82234 0.10221 -0.03947
 C1500 C 0.80554 0.11380 -0.03930
 C1501 C 0.78817 0.10728 -0.03057
 C1502 C 0.78800 0.08900 -0.02165
 H1503 H 0.84202 0.01429 -0.00716
 H1504 H 0.90127 0.03804 -0.04109
 H1505 H 0.86993 -0.00626 -0.00968
 H1506 H 0.88606 0.06858 -0.04808
 H1507 H 0.85901 0.09016 -0.04709
 H1508 H 0.81801 0.03268 -0.00634
 H1509 H 0.79062 0.05395 -0.00609
 H1510 H 0.83498 0.10842 -0.04653
 H1511 H 0.80623 0.12805 -0.04597
 H1512 H 0.77457 0.08369 -0.01503
 C1513 C 0.64072 0.02005 -0.00980
 C1514 C 0.65149 0.03458 0.00203
 C1515 C 0.64771 0.03549 0.02216
 C1516 C 0.63321 0.02280 0.02979
 C1517 C 0.62267 0.00859 0.01778
 C1518 C 0.62666 0.00732 -0.00200
 C1519 C 0.65850 0.04896 0.03461
 C1520 C 0.67320 0.06143 0.02763
 C1521 C 0.67745 0.06126 0.00770
 C1522 C 0.66598 0.04803 -0.00539
 C1523 C 0.66911 0.04894 -0.02549
 C1524 C 0.68310 0.06206 -0.03260
 C1525 C 0.69482 0.07457 -0.02002
 C1526 C 0.69249 0.07416 0.00034
 C1527 C 0.70541 0.08668 0.01242
 C1528 C 0.71943 0.09946 0.00451
 C1529 C 0.72106 0.10025 -0.01563
 C1530 C 0.70882 0.08763 -0.02779
 H1531 H 0.64300 0.01782 -0.02509
 H1532 H 0.63045 0.02369 0.04520
 H1533 H 0.61872 -0.00348 -0.01166
 H1534 H 0.65567 0.04977 0.05000
 H1535 H 0.68069 0.07142 0.03826
 H1536 H 0.66061 0.04001 -0.03630
 H1537 H 0.68478 0.06236 -0.04817
 H1538 H 0.70518 0.08691 0.02804
 H1539 H 0.72870 0.10912 0.01423
 H1540 H 0.71026 0.08792 -0.04340
 C1541 C 0.15565 0.53269 0.54845
 C1542 C 0.16327 0.53511 0.52975
 C1543 C 0.15363 0.52413 0.51397
 C1544 C 0.13710 0.51151 0.51691
 C1545 C 0.12964 0.50941 0.53549
 C1546 C 0.13917 0.52010 0.55119
 C1547 C 0.16039 0.52583 0.49523
 C1548 C 0.17645 0.53837 0.49162
 C1549 C 0.18652 0.54984 0.50671
 C1550 C 0.17992 0.54810 0.52613
 C1551 C 0.19007 0.55951 0.54122
 C1552 C 0.20582 0.57244 0.53751
 C1553 C 0.21222 0.57455 0.51868
 C1554 C 0.20282 0.56319 0.50299
 C1555 C 0.21005 0.56592 0.48418
 C1556 C 0.22545 0.57965 0.48114
 C1557 C 0.23434 0.59109 0.49665
 C1558 C 0.22783 0.58824 0.51544
 H1559 H 0.16199 0.54032 0.56133
 H1560 H 0.12993 0.50352 0.50452
 H1561 H 0.13398 0.51877 0.56577
 H1562 H 0.15310 0.51743 0.48312
 H1563 H 0.18049 0.53875 0.47668
 H1564 H 0.18615 0.55894 0.55619
 H1565 H 0.21300 0.58101 0.54957
 H1566 H 0.20410 0.55784 0.47140
 H1567 H 0.23045 0.58129 0.46651
 H1568 H 0.23445 0.59718 0.52753
 C1569 C 0.14976 0.48209 -0.04240
 C1570 C 0.15826 0.47883 -0.02372
 C1571 C 0.15088 0.48981 -0.00773
 C1572 C 0.13545 0.50313 -0.01047
 C1573 C 0.12670 0.50549 -0.02896
 C1574 C 0.13424 0.49509 -0.04488
 C1575 C 0.15854 0.48708 0.01100
 C1576 C 0.17279 0.47307 0.01445
 C1577 C 0.18011 0.46120 -0.00083
 C1578 C 0.17331 0.46466 -0.02031
 C1579 C 0.18156 0.45364 -0.03569
 C1580 C 0.19518 0.43906 -0.03218
 C1581 C 0.20109 0.43471 -0.01327
 C1582 C 0.19382 0.44579 0.00271
 C1583 C 0.20016 0.44054 0.02161
 C1584 C 0.21270 0.42475 0.02440
 C1585 C 0.21947 0.41366 0.00855
 C1586 C 0.21393 0.41899 -0.01027
 H1587 H 0.15433 0.47447 -0.05540
 H1588 H 0.12968 0.51100 0.00199
 H1589 H 0.12799 0.49684 -0.05939
 H1590 H 0.15317 0.49561 0.02326
 H1591 H 0.17775 0.47193 0.02938
 H1592 H 0.17779 0.45588 -0.05075
 H1593 H 0.20088 0.43083 -0.04447
 H1594 H 0.19540 0.44799 0.03463
 H1595 H 0.21708 0.42119 0.03911
 H1596 H 0.21897 0.41039 -0.02263
 C1597 C 0.63996 0.97316 0.44344
 C1598 C 0.65101 0.97265 0.46131
 C1599 C 0.64560 0.98576 0.47662
 C1600 C 0.62972 0.99851 0.47409
 C1601 C 0.61855 0.99844 0.45650
 C1602 C 0.62405 0.98580 0.44115
 C1603 C 0.65580 0.98589 0.49459
 C1604 C 0.67068 0.97262 0.49812
 C1605 C 0.67605 0.95859 0.48371
 C1606 C 0.66677 0.95924 0.46472
 C1607 C 0.67343 0.94633 0.44990
 C1608 C 0.68786 0.93256 0.45370
 C1609 C 0.69598 0.93078 0.47244
 C1610 C 0.69025 0.94381 0.48773
 C1611 C 0.69839 0.94095 0.50662
 C1612 C 0.71118 0.92559 0.51015
 C1613 C 0.71654 0.91266 0.49506
 C1614 C 0.70935 0.91562 0.47612
 H1615 H 0.64287 0.96364 0.43105
 H1616 H 0.62580 1.00812 0.48617
 H1617 H 0.61594 0.98542 0.42729
 H1618 H 0.65200 0.99617 0.50623
 H1619 H 0.67778 0.97385 0.51240
 H1620 H 0.66780 0.94653 0.43507
 H1621 H 0.69232 0.92281 0.44190
 H1622 H 0.69465 0.94981 0.51918
 H1623 H 0.71675 0.92364 0.52489
 H1624 H 0.71338 0.90550 0.46443
 C1625 C 0.88156 0.94947 0.53547
 C1626 C 0.86582 0.95211 0.52167
 C1627 C 0.86583 0.97003 0.51160
 C1628 C 0.88139 0.98428 0.51485
 C1629 C 0.89676 0.98142 0.52865
 C1630 C 0.89665 0.96395 0.53892
 C1631 C 0.85015 0.97383 0.49860
 C1632 C 0.83394 0.96062 0.49595
 C1633 C 0.83305 0.94272 0.50587
 C1634 C 0.84978 0.93790 0.51803
 C1635 C 0.84997 0.91899 0.52607
 C1636 C 0.83385 0.90573 0.52337
 C1637 C 0.81673 0.91090 0.51298
 C1638 C 0.81601 0.92944 0.50405
 C1639 C 0.79796 0.93417 0.49429
 C1640 C 0.78137 0.92116 0.49378
 C1641 C 0.78219 0.90294 0.50275
 C1642 C 0.80014 0.89775 0.51191
 H1643 H 0.88234 0.93668 0.54430
 H1644 H 0.88116 0.99792 0.50707
 H1645 H 0.90836 0.96138 0.54966
 H1646 H 0.85018 0.98740 0.49069
 H1647 H 0.82244 0.96471 0.48570
 H1648 H 0.86258 0.91383 0.53430
 H1649 H 0.83460 0.89143 0.52996
 H1650 H 0.79587 0.94816 0.48763
 H1651 H 0.76762 0.92583 0.48697
 H1652 H 0.80113 0.88355 0.51863
 C1653 C 0.34838 0.49771 0.01497
 C1654 C 0.34934 0.47744 0.01946
 C1655 C 0.36718 0.47117 0.02859
 C1656 C 0.38287 0.48479 0.03366
 C1657 C 0.38140 0.50486 0.02967
 C1658 C 0.36418 0.51111 0.01999
 C1659 C 0.36930 0.45135 0.03285
 C1660 C 0.35392 0.43753 0.02871
 C1661 C 0.33554 0.44301 0.02027
 C1662 C 0.33321 0.46329 0.01550
 C1663 C 0.31466 0.46883 0.00744
 C1664 C 0.29876 0.45527 0.00472
 C1665 C 0.30067 0.43558 0.00964
 C1666 C 0.31920 0.42901 0.01703
 C1667 C 0.32039 0.40873 0.02130
 C1668 C 0.30365 0.39600 0.01948
 C1669 C 0.28519 0.40286 0.01316
 C1670 C 0.28393 0.42255 0.00771
 H1671 H 0.33566 0.50378 0.00766
 H1672 H 0.39632 0.47966 0.04072
 H1673 H 0.36269 0.52653 0.01662
 H1674 H 0.38299 0.44647 0.03968
 H1675 H 0.35687 0.42266 0.03277
 H1676 H 0.31172 0.48374 0.00348
 H1677 H 0.28468 0.46034 -0.00108
 H1678 H 0.33394 0.40217 0.02628
 H1679 H 0.30512 0.38069 0.02328
 H1680 H 0.26968 0.42803 0.00284
 C1681 C 0.56890 0.46179 0.38904
 C1682 C 0.56344 0.47314 0.37292
 C1683 C 0.54522 0.48309 0.37359
 C1684 C 0.53321 0.48172 0.38978
 C1685 C 0.53876 0.47025 0.40551
 C1686 C 0.55674 0.46039 0.40496
 C1687 C 0.53887 0.49417 0.35800
 C1688 C 0.54993 0.49527 0.34144
 C1689 C 0.56803 0.48540 0.33983
 C1690 C 0.57518 0.47461 0.35605
 C1691 C 0.59376 0.46559 0.35484
 C1692 C 0.60461 0.46628 0.33814
 C1693 C 0.59742 0.47589 0.32191
 C1694 C 0.57917 0.48579 0.32249
 C1695 C 0.57269 0.49529 0.30547
 C1696 C 0.58362 0.49442 0.28860
 C1697 C 0.60134 0.48417 0.28807
 C1698 C 0.60835 0.47530 0.30495
 H1699 H 0.58231 0.45352 0.38978
 H1700 H 0.51924 0.48927 0.38984
 H1701 H 0.56155 0.45152 0.41690
 H1702 H 0.52501 0.50191 0.35849
 H1703 H 0.54382 0.50408 0.33012
 H1704 H 0.60049 0.45782 0.36662
 H1705 H 0.61869 0.45890 0.33785
 H1706 H 0.55901 0.50311 0.30447
 H1707 H 0.57774 0.50126 0.27573
 H1708 H 0.62229 0.46768 0.30485
 C1709 C 0.05227 -0.03899 0.88817
 C1710 C 0.04794 -0.02764 0.87176
 C1711 C 0.02975 -0.01758 0.87132
 C1712 C 0.01656 -0.01908 0.88660
 C1713 C 0.02098 -0.03063 0.90259
 C1714 C 0.03902 -0.04043 0.90322
 C1715 C 0.02466 -0.00617 0.85557
 C1716 C 0.03706 -0.00466 0.84000
 C1717 C 0.05523 -0.01456 0.83952
 C1718 C 0.06086 -0.02609 0.85576
 C1719 C 0.07914 -0.03581 0.85540
 C1720 C 0.09131 -0.03470 0.83965
 C1721 C 0.08589 -0.02389 0.82359
 C1722 C 0.06790 -0.01349 0.82327
 C1723 C 0.06333 -0.00262 0.80657
 C1724 C 0.07588 -0.00250 0.79086
 C1725 C 0.09338 -0.01316 0.79115
 C1726 C 0.09839 -0.02361 0.80773
 H1727 H 0.06571 -0.04709 0.88990
 H1728 H 0.00265 -0.01147 0.88576
 H1729 H 0.04309 -0.04927 0.91543
 H1730 H 0.01081 0.00162 0.85518
 H1731 H 0.03184 0.00439 0.82848
 H1732 H 0.08455 -0.04457 0.86707
 H1733 H 0.10512 -0.04257 0.84000
 H1734 H 0.05009 0.00581 0.80500
 H1735 H 0.07152 0.00564 0.77825
 H1736 H 0.11214 -0.03155 0.80835
 C1737 C 0.04720 0.05069 0.63652
 C1738 C 0.04112 0.04049 0.65302
 C1739 C 0.02051 0.03588 0.65439
 C1740 C 0.00702 0.03985 0.63911
 C1741 C 0.01353 0.04880 0.62237
 C1742 C 0.03358 0.05475 0.62149
 C1743 C 0.01348 0.02688 0.67077
 C1744 C 0.02648 0.02188 0.68578
 C1745 C 0.04725 0.02523 0.68477
 C1746 C 0.05472 0.03443 0.66798
 C1747 C 0.07555 0.03642 0.66628
 C1748 C 0.08865 0.02929 0.68020
 C1749 C 0.08161 0.02041 0.69665
 C1750 C 0.06085 0.01888 0.69958
 C1751 C 0.05464 0.01078 0.71715
 C1752 C 0.06842 0.00351 0.73054
 C1753 C 0.08867 0.00401 0.72683
 C1754 C 0.09527 0.01274 0.71008
 H1755 H 0.06238 0.05567 0.63472
 H1756 H -0.00861 0.03569 0.64013
 H1757 H 0.03895 0.06192 0.60881
 H1758 H -0.00228 0.02345 0.67194
 H1759 H 0.01978 0.01462 0.69767
 H1760 H 0.08229 0.04273 0.65390
 H1761 H 0.10451 0.03063 0.67798
 H1762 H 0.03928 0.00989 0.72105
 H1763 H 0.06319 -0.00304 0.74360
 H1764 H 0.11109 0.01342 0.70747
 C1765 C 0.54638 0.54299 0.13337
 C1766 C 0.54047 0.53247 0.14971
 C1767 C 0.51981 0.52843 0.15158
 C1768 C 0.50596 0.53371 0.13704
 C1769 C 0.51221 0.54353 0.12068
 C1770 C 0.53247 0.54840 0.11918
 C1771 C 0.51307 0.51904 0.16788
 C1772 C 0.52635 0.51343 0.18242
 C1773 C 0.54711 0.51656 0.18102
 C1774 C 0.55430 0.52583 0.16417
 C1775 C 0.57508 0.52755 0.16199
 C1776 C 0.58840 0.52044 0.17569
 C1777 C 0.58166 0.51173 0.19232
 C1778 C 0.56097 0.51011 0.19558
 C1779 C 0.55509 0.50197 0.21326
 C1780 C 0.56916 0.49488 0.22650
 C1781 C 0.58935 0.49564 0.22252
 C1782 C 0.59559 0.50433 0.20563
 H1783 H 0.56162 0.54745 0.13114
 H1784 H 0.49025 0.53026 0.13856
 H1785 H 0.53773 0.55609 0.10676
 H1786 H 0.49729 0.51596 0.16942
 H1787 H 0.51985 0.50605 0.19435
 H1788 H 0.58163 0.53376 0.14946
 H1789 H 0.60421 0.52173 0.17318
 H1790 H 0.53980 0.50095 0.21735
 H1791 H 0.56424 0.48840 0.23972
 H1792 H 0.61136 0.50513 0.20279
 C1793 C 0.49368 -0.00176 0.14021
 C1794 C 0.48000 -0.01569 0.14762
 C1795 C 0.48013 -0.03544 0.13995
 C1796 C 0.49282 -0.04062 0.12496
 C1797 C 0.50568 -0.02643 0.11730
 C1798 C 0.50623 -0.00709 0.12534
 C1799 C 0.46740 -0.04993 0.14703
 C1800 C 0.45406 -0.04523 0.16126
 C1801 C 0.45275 -0.02566 0.16892
 C1802 C 0.46600 -0.01065 0.16204
 C1803 C 0.46444 0.00900 0.16941
 C1804 C 0.45004 0.01401 0.18244
 C1805 C 0.43679 -0.00031 0.18894
 C1806 C 0.43822 -0.02045 0.18278
 C1807 C 0.42476 -0.03440 0.19056
 C1808 C 0.40997 -0.02836 0.20303
 C1809 C 0.40808 -0.00831 0.20809
 C1810 C 0.42184 0.00556 0.20136
 H1811 H 0.49503 0.01346 0.14541
 H1812 H 0.49254 -0.05576 0.11918
 H1813 H 0.51604 0.00421 0.11981
 H1814 H 0.46755 -0.06509 0.14133
 H1815 H 0.44462 -0.05730 0.16562
 H1816 H 0.47384 0.02110 0.16506
 H1817 H 0.44914 0.02939 0.18731
 H1818 H 0.42508 -0.05007 0.18721
 H1819 H 0.39958 -0.03935 0.20821
 H1820 H 0.42077 0.02108 0.20570
 C1821 C 0.98171 0.44731 0.64276
 C1822 C 0.98214 0.46542 0.65382
 C1823 C 0.99638 0.48026 0.64914
 C1824 C 1.00944 0.47699 0.63401
 C1825 C 1.00835 0.45924 0.62281
 C1826 C 0.99454 0.44438 0.62751
 C1827 C 0.99723 0.49852 0.65925
 C1828 C 0.98358 0.50288 0.67325
 C1829 C 0.96856 0.48897 0.67789
 C1830 C 0.96851 0.46957 0.66882
 C1831 C 0.95474 0.45508 0.67494
 C1832 C 0.94076 0.45965 0.68862
 C1833 C 0.93963 0.47888 0.69646
 C1834 C 0.95349 0.49385 0.69122
 C1835 C 0.95118 0.51330 0.69898
 C1836 C 0.93566 0.51763 0.71112
 C1837 C 0.92205 0.50279 0.71615
 C1838 C 0.92433 0.48334 0.70913
 H1839 H 0.97123 0.43532 0.64506
 H1840 H 1.01989 0.48871 0.63046
 H1841 H 0.99347 0.43042 0.61925
 H1842 H 1.00833 0.50979 0.65599
 H1843 H 0.98535 0.51734 0.68033
 H1844 H 0.95446 0.43992 0.66953
 H1845 H 0.93038 0.44808 0.69274
 H1846 H 0.96065 0.52570 0.69545
 H1847 H 0.93421 0.53276 0.71653
 H1848 H 0.91366 0.47185 0.71284
 C1849 C 0.95111 0.52652 0.88335
 C1850 C 0.95683 0.51861 0.86516
 C1851 C 0.97696 0.51330 0.86351
 C1852 C 0.99075 0.51655 0.87924
 C1853 C 0.98496 0.52525 0.89684
 C1854 C 0.96495 0.52980 0.89879
 C1855 C 0.98336 0.50516 0.84604
 C1856 C 0.97044 0.50272 0.82988
 C1857 C 0.95045 0.50848 0.83047
 C1858 C 0.94344 0.51625 0.84851
 C1859 C 0.92342 0.52189 0.84917
 C1860 C 0.91091 0.52087 0.83269
 C1861 C 0.91769 0.51403 0.81490
 C1862 C 0.93736 0.50726 0.81353
 C1863 C 0.94318 0.50002 0.79508
 C1864 C 0.93032 0.50043 0.77872
 C1865 C 0.91129 0.50799 0.78013
 C1866 C 0.90492 0.51436 0.79835
 H1867 H 0.93613 0.53058 0.88620
 H1868 H 1.00616 0.51287 0.87750
 H1869 H 0.95983 0.53604 0.91233
 H1870 H 0.99868 0.50088 0.84473
 H1871 H 0.97678 0.49656 0.81697
 H1872 H 0.91690 0.52757 0.86217
 H1873 H 0.89580 0.52581 0.83385
 H1874 H 0.95765 0.49425 0.79265
 H1875 H 0.93562 0.49548 0.76476
 H1876 H 0.89003 0.51986 0.79960
 C1877 C 0.44612 0.03678 0.36884
 C1878 C 0.44976 0.02448 0.35234
 C1879 C 0.46889 0.01636 0.35121
 C1880 C 0.48353 0.02040 0.36605
 C1881 C 0.47969 0.03274 0.38220
 C1882 C 0.46082 0.04079 0.38341
 C1883 C 0.47344 0.00440 0.33518
 C1884 C 0.45965 0.00071 0.31987
 C1885 C 0.44053 0.00875 0.32002
 C1886 C 0.43529 0.02034 0.33680
 C1887 C 0.41581 0.02751 0.33742
 C1888 C 0.40226 0.02442 0.32186
 C1889 C 0.40747 0.01413 0.30501
 C1890 C 0.42653 0.00585 0.30387
 C1891 C 0.43091 -0.00449 0.28634
 C1892 C 0.41725 -0.00576 0.27051
 C1893 C 0.39876 0.00306 0.27159
 C1894 C 0.39380 0.01253 0.28909
 H1895 H 0.43218 0.04383 0.37089
 H1896 H 0.49808 0.01418 0.36474
 H1897 H 0.45723 0.05024 0.39572
 H1898 H 0.48798 -0.00200 0.33431
 H1899 H 0.46453 -0.00859 0.30807
 H1900 H 0.41048 0.03566 0.34978
 H1901 H 0.38759 0.03051 0.32290
 H1902 H 0.44495 -0.01126 0.28408
 H1903 H 0.42160 -0.01298 0.25711
 H1904 H 0.37936 0.01911 0.29020
   
