data_POSCAR
  _audit_creation_date              2014-09-24
  _audit_creation_method            'ToBaCCo'
  _symmetry_space_group_name_H-M    'P1'
  _symmetry_Int_Tables_number       1
  _symmetry_cell_setting            triclinic
  loop_
  _symmetry_equiv_pos_as_xyz
 x,y,z
_cell_length_a 74.1936
_cell_length_b 74.2509
_cell_length_c 67.7181
_cell_angle_alpha 91.563200
_cell_angle_beta 89.692100
_cell_angle_gamma 91.879800
loop_
  _atom_site_label
  _atom_site_type_symbol
  _atom_site_fract_x
  _atom_site_fract_y
  _atom_site_fract_z
C1 C 0.37328 0.02262 0.28406
 H2 H 0.36382 0.03099 0.27690
 C3 C 0.38334 0.02987 0.29993
 H4 H 0.38129 0.04362 0.30495
 C5 C 0.38808 -0.00504 0.28591
 H6 H 0.39026 -0.01849 0.28026
 C7 C 0.39856 0.00174 0.30164
 H8 H 0.40828 -0.00682 0.30825
 N9 N 0.37566 0.00536 0.27742
 C10 C 0.37142 -0.01659 0.21711
 H11 H 0.35710 -0.01970 0.21610
 C12 C 0.38274 -0.02057 0.20114
 H13 H 0.37689 -0.02644 0.18775
 C14 C 0.39618 -0.00454 0.23566
 H15 H 0.40138 0.00186 0.24905
 C16 C 0.40801 -0.00855 0.22020
 H17 H 0.42226 -0.00550 0.22218
 Zn18 Zn 0.36221 -0.00381 0.25508
 N19 N 0.37825 -0.00862 0.23389
 C20 C 0.34841 0.02250 0.23033
 N21 N 0.34578 0.01387 0.24763
 C22 C 0.33271 0.01894 0.26062
 C23 C 0.32207 0.03359 0.25672
 C24 C 0.33815 0.03727 0.22591
 C25 C 0.36017 -0.04035 0.26364
 C26 C 0.35233 -0.05729 0.26703
 C27 C 0.32304 -0.04458 0.26403
 C28 C 0.33155 -0.02779 0.26089
 N29 N 0.34983 -0.02594 0.26085
 H30 H 0.35902 0.01850 0.22033
 H31 H 0.33117 0.01217 0.27450
 H32 H 0.31234 0.03796 0.26767
 H33 H 0.34082 0.04434 0.21237
 H34 H 0.37465 -0.03888 0.26275
 H35 H 0.36155 -0.06777 0.27016
 H36 H 0.30853 -0.04521 0.26285
 H37 H 0.32342 -0.01642 0.25785
 C38 C 0.40136 -0.01657 0.20253
 C39 C 0.39622 0.01939 0.30886
 C40 C 0.33332 -0.06007 0.26695
 C41 C 0.32508 0.04323 0.23941
 C42 C 0.10907 0.02501 0.72789
 H43 H 0.10700 0.03062 0.74260
 C44 C 0.09905 0.03108 0.71209
 H45 H 0.08927 0.04139 0.71471
 C46 C 0.12468 0.00504 0.70650
 H47 H 0.13488 -0.00488 0.70429
 C48 C 0.11513 0.01085 0.69029
 H49 H 0.11780 0.00498 0.67580
 N50 N 0.12139 0.01201 0.72489
 C51 C 0.12762 -0.00804 0.78432
 H52 H 0.14213 -0.00665 0.78554
 C53 C 0.11744 -0.01453 0.80012
 H54 H 0.12429 -0.01763 0.81362
 C55 C 0.10126 -0.00526 0.76522
 H56 H 0.09505 -0.00202 0.75142
 C57 C 0.09054 -0.01193 0.78062
 H58 H 0.07613 -0.01364 0.77846
 Zn59 Zn 0.13487 0.00460 0.74679
 N60 N 0.11943 -0.00327 0.76743
 C61 C 0.14633 0.03315 0.77302
 N62 N 0.14953 0.02464 0.75536
 C63 C 0.16223 0.03117 0.74264
 C64 C 0.17225 0.04693 0.74743
 C65 C 0.15599 0.04897 0.77837
 C66 C 0.13944 -0.03022 0.73267
 C67 C 0.14799 -0.04643 0.72920
 C68 C 0.17596 -0.03212 0.74037
 C69 C 0.16687 -0.01602 0.74340
 N70 N 0.14888 -0.01546 0.73973
 H71 H 0.13586 0.02807 0.78271
 H72 H 0.16424 0.02434 0.72852
 H73 H 0.18190 0.05222 0.73685
 H74 H 0.15309 0.05568 0.79237
 H75 H 0.12510 -0.02947 0.73017
 H76 H 0.14012 -0.05798 0.72359
 H77 H 0.19008 -0.03255 0.74421
 H78 H 0.17402 -0.00425 0.74951
 C79 C 0.09860 -0.01660 0.79844
 C80 C 0.10209 0.02400 0.69298
 C81 C 0.16639 -0.04772 0.73357
 C82 C 0.16898 0.05621 0.76538
 C83 C 0.61253 0.51951 0.22766
 H84 H 0.61165 0.52579 0.24222
 C85 C 0.60247 0.52603 0.21213
 H86 H 0.59375 0.53726 0.21482
 C87 C 0.62552 0.49772 0.20621
 H88 H 0.63478 0.48695 0.20383
 C89 C 0.61592 0.50395 0.19027
 H90 H 0.61759 0.49758 0.17582
 N91 N 0.62360 0.50545 0.22451
 C92 C 0.63265 0.48240 0.28191
 H93 H 0.64701 0.48069 0.28033
 C94 C 0.62374 0.47649 0.29881
 H95 H 0.63142 0.47005 0.31001
 C96 C 0.60532 0.49236 0.26872
 H97 H 0.59816 0.49835 0.25686
 C98 C 0.59588 0.48691 0.28561
 H99 H 0.58159 0.48927 0.28672
 Zn100 Zn 0.63783 0.49774 0.24568
 N101 N 0.62346 0.49038 0.26741
 C102 C 0.65136 0.52532 0.27173
 N103 N 0.65322 0.51743 0.25350
 C104 C 0.66480 0.52449 0.23990
 C105 C 0.67485 0.54033 0.24430
 C106 C 0.66105 0.54122 0.27670
 C107 C 0.64121 0.46247 0.23225
 C108 C 0.64945 0.44608 0.22890
 C109 C 0.67813 0.46059 0.23721
 C110 C 0.66933 0.47685 0.24018
 N111 N 0.65114 0.47739 0.23794
 H112 H 0.64186 0.51969 0.28222
 H113 H 0.66578 0.51811 0.22540
 H114 H 0.68351 0.54612 0.23305
 H115 H 0.65911 0.54753 0.29112
 H116 H 0.62673 0.46323 0.23089
 H117 H 0.64120 0.43437 0.22450
 H118 H 0.69247 0.46020 0.23998
 H119 H 0.67690 0.48877 0.24520
 C120 C 0.60516 0.47906 0.30110
 C121 C 0.60423 0.51829 0.19312
 C122 C 0.66808 0.44482 0.23195
 C123 C 0.67273 0.54910 0.26277
 C124 C 0.88398 0.52616 0.77120
 H125 H 0.88589 0.53237 0.75704
 C126 C 0.89360 0.53291 0.78765
 H127 H 0.90277 0.54437 0.78578
 C128 C 0.86869 0.50450 0.79069
 H129 H 0.85878 0.49359 0.79191
 C130 C 0.87753 0.51113 0.80758
 H131 H 0.87473 0.50444 0.82130
 N132 N 0.87210 0.51195 0.77292
 C133 C 0.86406 0.49243 0.71214
 H134 H 0.84952 0.49074 0.71248
 C135 C 0.87359 0.48792 0.69502
 H136 H 0.86621 0.48266 0.68225
 C137 C 0.89122 0.50059 0.72882
 H138 H 0.89810 0.50508 0.74215
 C139 C 0.90130 0.49642 0.71190
 H140 H 0.91582 0.49839 0.71228
 Zn141 Zn 0.85830 0.50367 0.75088
 N142 N 0.87291 0.49886 0.72850
 C143 C 0.84227 0.53135 0.72910
 N144 N 0.84182 0.52176 0.74594
 C145 C 0.83047 0.52593 0.76107
 C146 C 0.81925 0.54052 0.75986
 C147 C 0.83130 0.54618 0.72730
 C148 C 0.85639 0.46792 0.76156
 C149 C 0.84861 0.45093 0.76480
 C150 C 0.81942 0.46267 0.75767
 C151 C 0.82778 0.47954 0.75471
 N152 N 0.84597 0.48179 0.75661
 H153 H 0.85168 0.52802 0.71742
 H154 H 0.83055 0.51817 0.77436
 H155 H 0.81051 0.54376 0.77222
 H156 H 0.83242 0.55420 0.71421
 H157 H 0.87084 0.47008 0.76279
 H158 H 0.85719 0.44010 0.76880
 H159 H 0.80502 0.46095 0.75542
 H160 H 0.81979 0.49064 0.75028
 C161 C 0.89247 0.49010 0.69462
 C162 C 0.89031 0.52557 0.80637
 C163 C 0.82992 0.44803 0.76252
 C164 C 0.81992 0.55116 0.74303
 C165 C 0.21969 0.41806 0.98848
 H166 H 0.23222 0.42151 0.98113
 C167 C 0.20412 0.42709 0.98372
 H168 H 0.20469 0.43705 0.97232
 C169 C 0.20364 0.40124 1.01246
 H170 H 0.20340 0.39137 1.02383
 C171 C 0.18780 0.40982 1.00808
 H172 H 0.17557 0.40637 1.01613
 N173 N 0.21908 0.40497 1.00222
 C174 C 0.27604 0.39723 1.01110
 H175 H 0.27585 0.38273 1.00910
 C176 C 0.29240 0.40680 1.01249
 H177 H 0.30483 0.39955 1.01166
 C178 C 0.25998 0.42426 1.01434
 H179 H 0.24725 0.43094 1.01491
 C180 C 0.27617 0.43443 1.01590
 H181 H 0.27589 0.44898 1.01742
 Zn182 Zn 0.23970 0.39106 1.00686
 N183 N 0.26028 0.40604 1.01162
 C184 C 0.24932 0.35882 0.98640
 N185 N 0.24524 0.37641 0.98425
 C186 C 0.24702 0.38431 0.96644
 C187 C 0.25297 0.37451 0.94995
 C188 C 0.25553 0.34855 0.97029
 C189 C 0.24594 0.37889 1.04529
 C190 C 0.24374 0.36766 1.06136
 C191 C 0.21981 0.35132 1.04380
 C192 C 0.22270 0.36266 1.02788
 N193 N 0.23560 0.37612 1.02889
 H194 H 0.24852 0.35289 1.00078
 H195 H 0.24426 0.39835 0.96501
 H196 H 0.25404 0.38112 0.93592
 H197 H 0.25922 0.33477 0.97251
 H198 H 0.25601 0.38972 1.04591
 H199 H 0.25223 0.36986 1.07422
 H200 H 0.20967 0.34052 1.04275
 H201 H 0.21474 0.36065 1.01461
 C202 C 0.29262 0.42565 1.01446
 C203 C 0.18782 0.42260 0.99322
 C204 C 0.23059 0.35367 1.06066
 C205 C 0.25759 0.35644 0.95176
 C206 C 0.79091 0.10394 0.97566
 H207 H 0.78661 0.11360 0.96517
 C208 C 0.80611 0.09384 0.97150
 H209 H 0.81280 0.09576 0.95746
 C210 C 0.78664 0.08948 1.00609
 H211 H 0.77916 0.08817 1.01976
 C212 C 0.80165 0.07903 1.00252
 H213 H 0.80551 0.07016 1.01405
 N214 N 0.78181 0.10193 0.99296
 C215 C 0.73371 0.10536 1.02580
 H216 H 0.73818 0.11630 1.03559
 C217 C 0.71793 0.09549 1.03029
 H218 H 0.71043 0.09896 1.04353
 C219 C 0.73777 0.08767 0.99657
 H220 H 0.74540 0.08498 0.98321
 C221 C 0.72214 0.07737 1.00056
 H222 H 0.71778 0.06683 0.99013
 Zn223 Zn 0.76253 0.11684 1.00049
 N224 N 0.74293 0.10170 1.00882
 C225 C 0.73802 0.12784 0.97175
 N226 N 0.75495 0.13068 0.97907
 C227 C 0.76627 0.14366 0.97170
 C228 C 0.76090 0.15394 0.95589
 C229 C 0.73216 0.13770 0.95592
 C230 C 0.78715 0.13162 1.02883
 C231 C 0.79281 0.14276 1.04467
 C232 C 0.76419 0.15730 1.04391
 C233 C 0.75905 0.14582 1.02807
 N234 N 0.77032 0.13296 1.02122
 H235 H 0.72897 0.11789 0.97810
 H236 H 0.77955 0.14590 0.97801
 H237 H 0.77023 0.16390 0.94986
 H238 H 0.71868 0.13512 0.95023
 H239 H 0.79620 0.12178 1.02282
 H240 H 0.80614 0.14126 1.05072
 H241 H 0.75477 0.16697 1.04968
 H242 H 0.74587 0.14688 1.02151
 C243 C 0.71173 0.08158 1.01733
 C244 C 0.81208 0.08128 0.98518
 C245 C 0.78116 0.15558 1.05266
 C246 C 0.74370 0.15082 0.94765
 C247 C 0.28066 0.57854 0.49225
 H248 H 0.26796 0.57147 0.49487
 C249 C 0.29613 0.56873 0.48837
 H250 H 0.29513 0.55415 0.48808
 C251 C 0.29733 0.60604 0.48883
 H252 H 0.29766 0.62063 0.48912
 C253 C 0.31308 0.59681 0.48495
 H254 H 0.32554 0.60446 0.48258
 N255 N 0.28163 0.59687 0.49280
 C256 C 0.22552 0.60043 0.49126
 H257 H 0.22609 0.61130 0.48100
 C258 C 0.20961 0.59015 0.49297
 H259 H 0.19822 0.59322 0.48385
 C260 C 0.23916 0.58401 0.51635
 H261 H 0.25076 0.58180 0.52548
 C262 C 0.22337 0.57334 0.51858
 H263 H 0.22294 0.56279 0.52931
 Zn264 Zn 0.26152 0.61121 0.49858
 N265 N 0.24009 0.59695 0.50246
 C266 C 0.25583 0.61643 0.45899
 N267 N 0.25836 0.62575 0.47635
 C268 C 0.25815 0.64408 0.47724
 C269 C 0.25462 0.65368 0.46025
 C270 C 0.25213 0.62541 0.44178
 C271 C 0.28118 0.62307 0.53250
 C272 C 0.28454 0.63344 0.54967
 C273 C 0.25641 0.64816 0.54484
 C274 C 0.25352 0.63742 0.52782
 N275 N 0.26599 0.62539 0.52181
 H276 H 0.25614 0.60186 0.45871
 H277 H 0.26059 0.65128 0.49109
 H278 H 0.25452 0.66825 0.46118
 H279 H 0.24945 0.61755 0.42836
 H280 H 0.29070 0.61311 0.52784
 H281 H 0.29683 0.63158 0.55782
 H282 H 0.24635 0.65768 0.54940
 H283 H 0.24135 0.63870 0.51931
 C284 C 0.20846 0.57618 0.50649
 C285 C 0.31268 0.57789 0.48487
 C286 C 0.27214 0.64628 0.55595
 C287 C 0.25139 0.64430 0.44222
 C288 C 0.72066 0.91274 0.47850
 H289 H 0.73303 0.91545 0.47052
 C290 C 0.70501 0.92145 0.47315
 H291 H 0.70559 0.93113 0.46147
 C292 C 0.70426 0.89585 0.50213
 H293 H 0.70370 0.88554 0.51304
 C294 C 0.68838 0.90403 0.49712
 H295 H 0.67597 0.90022 0.50465
 N296 N 0.72012 0.90038 0.49304
 C297 C 0.77136 0.89650 0.52303
 H298 H 0.76786 0.88379 0.52971
 C299 C 0.78745 0.90552 0.52833
 H300 H 0.79591 0.89983 0.53938
 C301 C 0.76510 0.91878 0.49992
 H302 H 0.75669 0.92377 0.48854
 C303 C 0.78115 0.92826 0.50478
 H304 H 0.78485 0.94034 0.49689
 Zn305 Zn 0.74093 0.88754 0.50048
 N306 N 0.76061 0.90304 0.50886
 C307 C 0.76429 0.86363 0.48123
 N308 N 0.74909 0.87314 0.47895
 C309 C 0.74029 0.87301 0.46138
 C310 C 0.74706 0.86351 0.44507
 C311 C 0.77137 0.85368 0.46534
 C312 C 0.72982 0.88170 0.53899
 C313 C 0.72525 0.87220 0.55583
 C314 C 0.73070 0.84443 0.53769
 C315 C 0.73486 0.85450 0.52100
 N316 N 0.73452 0.87282 0.52204
 H317 H 0.77104 0.86397 0.49536
 H318 H 0.72813 0.88044 0.45989
 H319 H 0.74003 0.86373 0.43110
 H320 H 0.78363 0.84640 0.46725
 H321 H 0.72959 0.89627 0.53936
 H322 H 0.72125 0.87966 0.56900
 H323 H 0.73164 0.82991 0.53677
 H324 H 0.73858 0.84770 0.50734
 C325 C 0.79278 0.92139 0.51881
 C326 C 0.68860 0.91698 0.48246
 C327 C 0.72598 0.85331 0.55550
 C328 C 0.76288 0.85385 0.44691
 C329 C 0.01636 0.27405 0.40970
 H330 H 0.02679 0.26425 0.41046
 C331 C 0.01652 0.28892 0.42286
 H332 H 0.02706 0.29034 0.43383
 C333 C -0.01022 0.28382 0.39466
 H334 H -0.02048 0.28199 0.38347
 C335 C -0.01051 0.29889 0.40739
 H336 H -0.02100 0.30851 0.40568
 N337 N 0.00289 0.27157 0.39624
 C338 C 0.00008 0.21361 0.38406
 H339 H -0.00010 0.21362 0.36808
 C340 C -0.00061 0.19731 0.39381
 H341 H -0.00184 0.18506 0.38485
 C342 C 0.00061 0.22996 0.41450
 H343 H 0.00093 0.24272 0.42253
 C344 C -0.00021 0.21394 0.42494
 H345 H 0.00020 0.21496 0.44088
 Zn346 Zn 0.00249 0.25072 0.37935
 N347 N 0.00114 0.22950 0.39442
 C348 C 0.03570 0.23767 0.36465
 N349 N 0.02381 0.25117 0.36358
 C350 C 0.02702 0.26529 0.35152
 C351 C 0.04235 0.26588 0.33940
 C352 C 0.05117 0.23770 0.35281
 C353 C -0.03448 0.24844 0.37300
 C354 C -0.05065 0.24757 0.36256
 C355 C -0.03366 0.25006 0.33218
 C356 C -0.01775 0.25084 0.34324
 N357 N -0.01846 0.25018 0.36330
 H358 H 0.03332 0.22685 0.37476
 H359 H 0.01751 0.27602 0.35115
 H360 H 0.04443 0.27703 0.32959
 H361 H 0.06048 0.22686 0.35401
 H362 H -0.03466 0.24777 0.38894
 H363 H -0.06324 0.24646 0.37065
 H364 H -0.03287 0.25043 0.31623
 H365 H -0.00489 0.25180 0.33574
 C366 C -0.00045 0.19710 0.41468
 C367 C 0.00282 0.30150 0.42196
 C368 C -0.05041 0.24833 0.34186
 C369 C 0.05460 0.25185 0.33981
 C370 C 0.01317 0.72992 0.09519
 H371 H 0.02436 0.73962 0.09482
 C372 C 0.01295 0.71486 0.08235
 H373 H 0.02393 0.71327 0.07194
 C374 C -0.01486 0.72053 0.10905
 H375 H -0.02553 0.72263 0.11970
 C376 C -0.01549 0.70517 0.09673
 H377 H -0.02667 0.69556 0.09824
 N378 N -0.00077 0.73264 0.10793
 C379 C 0.00185 0.79063 0.11999
 H380 H 0.00150 0.79091 0.13597
 C381 C 0.00276 0.80674 0.10984
 H382 H 0.00308 0.81942 0.11814
 C383 C 0.00126 0.77372 0.08980
 H384 H 0.00032 0.76086 0.08201
 C385 C 0.00207 0.78952 0.07905
 H386 H 0.00223 0.78860 0.06307
 Zn387 Zn 0.00008 0.75333 0.12486
 N388 N 0.00151 0.77454 0.10991
 C389 C 0.03350 0.76484 0.14255
 N390 N 0.02036 0.75164 0.14144
 C391 C 0.02144 0.73637 0.15194
 C392 C 0.03603 0.73402 0.16443
 C393 C 0.04831 0.76307 0.15492
 C394 C -0.03671 0.75700 0.13034
 C395 C -0.05304 0.75822 0.14047
 C396 C -0.03721 0.75404 0.17097
 C397 C -0.02115 0.75304 0.16016
 N398 N -0.02123 0.75435 0.14021
 H399 H 0.03266 0.77667 0.13373
 H400 H 0.01090 0.72600 0.15061
 H401 H 0.03657 0.72183 0.17280
 H402 H 0.05878 0.77358 0.15542
 H403 H -0.03637 0.75799 0.11443
 H404 H -0.06492 0.75935 0.13152
 H405 H -0.03612 0.75363 0.18684
 H406 H -0.00861 0.75144 0.16784
 C407 C 0.00304 0.80631 0.08909
 C408 C -0.00156 0.70222 0.08297
 C409 C -0.05378 0.75677 0.16132
 C410 C 0.04971 0.74748 0.16603
 C411 C 0.51245 0.22738 0.60128
 H412 H 0.52448 0.23602 0.60132
 C413 C 0.51209 0.21112 0.59037
 H414 H 0.52398 0.20724 0.58217
 C415 C 0.48266 0.22157 0.61278
 H416 H 0.47132 0.22548 0.62178
 C417 C 0.48170 0.20526 0.60208
 H418 H 0.46943 0.19699 0.60271
 N419 N 0.49788 0.23226 0.61222
 C420 C 0.50236 0.29056 0.62084
 H421 H 0.50145 0.29160 0.63678
 C422 C 0.50407 0.30613 0.60983
 H423 H 0.50443 0.31916 0.61742
 C424 C 0.50256 0.27226 0.59161
 H425 H 0.50180 0.25903 0.58457
 C426 C 0.50413 0.28752 0.58000
 H427 H 0.50489 0.28589 0.56408
 Zn428 Zn 0.49968 0.25375 0.62788
 N429 N 0.50199 0.27405 0.61167
 C430 C 0.53324 0.26522 0.64522
 N431 N 0.52000 0.25211 0.64446
 C432 C 0.52086 0.23719 0.65558
 C433 C 0.53524 0.23520 0.66845
 C434 C 0.54784 0.26381 0.65796
 C435 C 0.46292 0.25925 0.63413
 C436 C 0.44700 0.26128 0.64491
 C437 C 0.46383 0.25799 0.67497
 C438 C 0.47944 0.25607 0.66361
 N439 N 0.47867 0.25645 0.64355
 H440 H 0.53257 0.27678 0.63595
 H441 H 0.51021 0.22690 0.65456
 H442 H 0.53555 0.22334 0.67738
 H443 H 0.55834 0.27430 0.65825
 H444 H 0.46273 0.25974 0.61817
 H445 H 0.43452 0.26309 0.63709
 H446 H 0.46470 0.25770 0.69091
 H447 H 0.49214 0.25435 0.67090
 C448 C 0.50513 0.30471 0.58914
 C449 C 0.49661 0.19972 0.59086
 C450 C 0.44732 0.26057 0.66562
 C451 C 0.54895 0.24866 0.66981
 C452 C 0.51411 0.77976 0.89308
 H453 H 0.52557 0.77660 0.88388
 C454 C 0.51491 0.79524 0.90526
 H455 H 0.52682 0.80404 0.90481
 C456 C 0.48482 0.77219 0.90487
 H457 H 0.47320 0.76309 0.90493
 C458 C 0.48508 0.78750 0.91736
 H459 H 0.47360 0.78990 0.92689
 N460 N 0.49912 0.76868 0.89286
 C461 C 0.49556 0.71058 0.88223
 H462 H 0.49309 0.70986 0.86649
 C463 C 0.49583 0.69480 0.89294
 H464 H 0.49348 0.68192 0.88534
 C465 C 0.50149 0.72831 0.91125
 H466 H 0.50386 0.74141 0.91827
 C467 C 0.50173 0.71285 0.92257
 H468 H 0.50442 0.71417 0.93826
 Zn469 Zn 0.49828 0.74771 0.87589
 N470 N 0.49857 0.72689 0.89143
 C471 C 0.53047 0.73468 0.85824
 N472 N 0.51860 0.74829 0.85847
 C473 C 0.52125 0.76277 0.84678
 C474 C 0.53628 0.76400 0.83432
 C475 C 0.54564 0.73532 0.84591
 C476 C 0.46093 0.74259 0.87103
 C477 C 0.44436 0.74229 0.86134
 C478 C 0.45997 0.74963 0.83110
 C479 C 0.47627 0.74980 0.84140
 N480 N 0.47645 0.74676 0.86114
 H481 H 0.52837 0.72341 0.86783
 H482 H 0.51178 0.77355 0.84736
 H483 H 0.53813 0.77566 0.82518
 H484 H 0.55510 0.72454 0.84626
 H485 H 0.46139 0.73936 0.88647
 H486 H 0.43218 0.73902 0.86955
 H487 H 0.46008 0.75265 0.81555
 H488 H 0.48869 0.75256 0.83355
 C489 C 0.49907 0.69581 0.91337
 C490 C 0.50023 0.79935 0.91759
 C491 C 0.44370 0.74614 0.84117
 C492 C 0.54876 0.75019 0.83383
 C493 C -0.23113 0.64323 0.98125
 H494 H -0.22548 0.64527 0.99586
 C495 C -0.22440 0.65339 0.96557
 H496 H -0.21360 0.66332 0.96817
 C497 C -0.25167 0.62736 0.95988
 H498 H -0.26196 0.61691 0.95757
 C499 C -0.24520 0.63699 0.94381
 H500 H -0.25096 0.63418 0.92935
 N501 N -0.24471 0.63070 0.97819
 C502 C -0.26371 0.62167 1.03835
 H503 H -0.26295 0.60714 1.03852
 C504 C -0.26952 0.63112 1.05516
 H505 H -0.27225 0.62342 1.06820
 C506 C -0.26014 0.64869 1.02090
 H507 H -0.25708 0.65542 1.00729
 C508 C -0.26605 0.65873 1.03732
 H509 H -0.26748 0.67302 1.03556
 Zn510 Zn -0.25269 0.61625 0.99937
 N511 N -0.25893 0.63052 1.02177
 C512 C -0.22452 0.60149 1.02208
 N513 N -0.23377 0.60081 1.00475
 C514 C -0.22878 0.58987 0.98942
 C515 C -0.21370 0.57933 0.99093
 C516 C -0.20930 0.59110 1.02425
 C517 C -0.28782 0.61238 0.98605
 C518 C -0.30429 0.60377 0.98153
 C519 C -0.29167 0.57541 0.99001
 C520 C -0.27527 0.58457 0.99405
 N521 N -0.27373 0.60275 0.99211
 H522 H -0.22845 0.61061 1.03392
 H523 H -0.23628 0.58975 0.97576
 H524 H -0.20973 0.57097 0.97840
 H525 H -0.20162 0.59231 1.03779
 H526 H -0.28625 0.62684 0.98484
 H527 H -0.31522 0.61175 0.97650
 H528 H -0.29287 0.56106 0.99237
 H529 H -0.26401 0.57724 0.99937
 C530 C -0.27090 0.65008 1.05503
 C531 C -0.23138 0.65017 0.94654
 C532 C -0.30655 0.58508 0.98391
 C533 C -0.20351 0.58017 1.00835
 C534 C -0.22625 0.35886 0.51973
 H535 H -0.22179 0.35497 0.50502
 C536 C -0.22080 0.34982 0.53535
 H537 H -0.21168 0.33891 0.53291
 C538 C -0.24270 0.37944 0.53987
 H539 H -0.25098 0.39108 0.54163
 C540 C -0.23682 0.37013 0.55751
 H541 H -0.24210 0.37480 0.57159
 N542 N -0.23799 0.37377 0.52232
 C543 C -0.25809 0.37754 0.46221
 H544 H -0.25576 0.39184 0.46027
 C545 C -0.26502 0.36676 0.44668
 H546 H -0.26749 0.37289 0.43267
 C547 C -0.25741 0.35236 0.48288
 H548 H -0.25495 0.34690 0.49720
 C549 C -0.26454 0.34108 0.46778
 H550 H -0.26729 0.32699 0.47066
 Zn551 Zn -0.24564 0.38634 0.50005
 N552 N -0.25409 0.37019 0.47975
 C553 C -0.21678 0.39623 0.47438
 N554 N -0.22566 0.40058 0.49139
 C555 C -0.21948 0.41420 0.50365
 C556 C -0.20377 0.42410 0.49897
 C557 C -0.20092 0.40567 0.46923
 C558 C -0.27971 0.39145 0.51495
 C559 C -0.29562 0.40012 0.51945
 C560 C -0.28203 0.42774 0.50746
 C561 C -0.26623 0.41848 0.50337
 N562 N -0.26545 0.40062 0.50703
 H563 H -0.22157 0.38501 0.46514
 H564 H -0.22655 0.41708 0.51733
 H565 H -0.19879 0.43455 0.50918
 H566 H -0.19383 0.40182 0.45582
 H567 H -0.27871 0.37723 0.51772
 H568 H -0.30623 0.39227 0.52648
 H569 H -0.28233 0.44169 0.50335
 H570 H -0.25486 0.42543 0.49661
 C571 C -0.26837 0.34823 0.44930
 C572 C -0.22641 0.35555 0.55571
 C573 C -0.29736 0.41854 0.51528
 C574 C -0.19413 0.41967 0.48171
 C575 C 0.27574 -0.13785 0.02211
 H576 H 0.28194 -0.13982 0.00775
 C577 C 0.28116 -0.14731 0.03744
 H578 H 0.29187 -0.15669 0.03514
 C579 C 0.25497 -0.12144 0.04197
 H580 H 0.24516 -0.11111 0.04386
 C581 C 0.26074 -0.13122 0.05931
 H582 H 0.25388 -0.12840 0.07313
 N583 N 0.26190 -0.12487 0.02465
 C584 C 0.24053 -0.11644 -0.03403
 H585 H 0.23976 -0.10192 -0.03292
 C586 C 0.23367 -0.12577 -0.05062
 H587 H 0.22751 -0.11820 -0.06206
 C588 C 0.24853 -0.14376 -0.01967
 H589 H 0.25388 -0.15078 -0.00737
 C590 C 0.24216 -0.15364 -0.03623
 H591 H 0.24332 -0.16813 -0.03666
 Zn592 Zn 0.25501 -0.11087 0.00313
 N593 N 0.24786 -0.12546 -0.01902
 C594 C 0.28341 -0.09671 -0.02096
 N595 N 0.27508 -0.09570 -0.00304
 C596 C 0.28194 -0.08503 0.01190
 C597 C 0.29805 -0.07513 0.00931
 C598 C 0.29956 -0.08698 -0.02422
 C599 C 0.21967 -0.10724 0.01497
 C600 C 0.20333 -0.09899 0.01834
 C601 C 0.21796 -0.07027 0.01166
 C602 C 0.23417 -0.07915 0.00860
 N603 N 0.23463 -0.09734 0.01006
 H604 H 0.27786 -0.10549 -0.03255
 H605 H 0.27518 -0.08473 0.02610
 H606 H 0.30360 -0.06732 0.02170
 H607 H 0.30609 -0.08808 -0.03852
 H608 H 0.22044 -0.12171 0.01604
 H609 H 0.19206 -0.10750 0.02290
 H610 H 0.21804 -0.05595 0.00926
 H611 H 0.24617 -0.07158 0.00426
 C612 C 0.23461 -0.14465 -0.05207
 C613 C 0.27335 -0.14390 0.05749
 C614 C 0.20191 -0.08021 0.01612
 C615 C 0.30726 -0.07623 -0.00885
 C616 C 0.27194 1.13797 0.48434
 H617 H 0.27859 1.13904 0.49852
 C618 C 0.27857 1.14806 0.46856
 H619 H 0.29027 1.15701 0.47065
 C620 C 0.24899 1.12452 0.46407
 H621 H 0.23774 1.11505 0.46219
 C622 C 0.25534 1.13407 0.44789
 H623 H 0.24863 1.13216 0.43379
 N624 N 0.25722 1.12669 0.48191
 C625 C 0.23586 1.11778 0.54110
 H626 H 0.23393 1.10328 0.54007
 C627 C 0.23020 1.12722 0.55798
 H628 H 0.22382 1.11979 0.56979
 C629 C 0.24560 1.14496 0.52632
 H630 H 0.25120 1.15190 0.51378
 C631 C 0.24038 1.15495 0.54308
 H632 H 0.24263 1.16943 0.54339
 Zn633 Zn 0.24916 1.11234 0.50315
 N634 N 0.24349 1.12668 0.52575
 C635 C 0.27626 1.09637 0.52622
 N636 N 0.26782 1.09648 0.50843
 C637 C 0.27358 1.08630 0.49280
 C638 C 0.28878 1.07592 0.49447
 C639 C 0.29153 1.08606 0.52857
 C640 C 0.21338 1.10938 0.49183
 C641 C 0.19658 1.10115 0.48799
 C642 C 0.20944 1.07220 0.49331
 C643 C 0.22613 1.08103 0.49683
 N644 N 0.22771 1.09931 0.49617
 H645 H 0.27162 1.10480 0.53835
 H646 H 0.26669 1.08679 0.47879
 H647 H 0.29343 1.06826 0.48171
 H648 H 0.29858 1.08667 0.54255
 H649 H 0.21499 1.12391 0.49161
 H650 H 0.18542 1.10950 0.48446
 H651 H 0.20825 1.05771 0.49461
 H652 H 0.23762 1.07331 0.50072
 C653 C 0.23256 1.14609 0.55926
 C654 C 0.27030 1.14600 0.45004
 C655 C 0.19431 1.08234 0.48912
 C656 C 0.29821 1.07604 0.51240
 C657 C 0.16679 0.46829 0.25685
 H658 H 0.16726 0.47991 0.26685
 C659 C 0.17820 0.45400 0.25991
 H660 H 0.18763 0.45481 0.27207
 C661 C 0.15362 0.45278 0.22922
 H662 H 0.14382 0.45203 0.21751
 C663 C 0.16490 0.43837 0.23157
 H664 H 0.16361 0.42675 0.22159
 N665 N 0.15485 0.46750 0.24161
 C666 C 0.14288 0.52007 0.21965
 H667 H 0.12919 0.51688 0.21504
 C668 C 0.15088 0.53669 0.21505
 H669 H 0.14326 0.54606 0.20672
 C670 C 0.16930 0.51173 0.23611
 H671 H 0.17641 0.50207 0.24444
 C672 C 0.17779 0.52830 0.23195
 H673 H 0.19127 0.53125 0.23745
 Zn674 Zn 0.13901 0.48676 0.23746
 N675 N 0.15201 0.50807 0.23026
 C676 C 0.11526 0.50681 0.26108
 N677 N 0.12553 0.49195 0.26066
 C678 C 0.12652 0.48131 0.27662
 C679 C 0.11755 0.48589 0.29412
 C680 C 0.10596 0.51183 0.27825
 C681 C 0.13009 0.47914 0.19814
 C682 C 0.11925 0.47396 0.18212
 C683 C 0.09385 0.47124 0.20441
 C684 C 0.10533 0.47635 0.22004
 N685 N 0.12307 0.48012 0.21664
 H686 H 0.11451 0.51496 0.24815
 H687 H 0.13434 0.46929 0.27588
 H688 H 0.11861 0.47734 0.30673
 H689 H 0.09824 0.52396 0.27849
 H690 H 0.14425 0.48246 0.19584
 H691 H 0.12559 0.47431 0.16774
 H692 H 0.08007 0.46765 0.20820
 H693 H 0.10007 0.47703 0.23495
 C694 C 0.16842 0.54119 0.22162
 C695 C 0.17741 0.43888 0.24702
 C696 C 0.10061 0.46978 0.18481
 C697 C 0.10732 0.50147 0.29517
 C698 C -0.16215 1.02469 0.26813
 H699 H -0.16465 1.01282 0.27674
 C700 C -0.17118 1.04052 0.27295
 H701 H -0.18083 1.04062 0.28500
 C702 C -0.14562 1.03956 0.24301
 H703 H -0.13538 1.03945 0.23166
 C704 C -0.15416 1.05560 0.24743
 H705 H -0.15064 1.06746 0.23909
 N706 N -0.14969 1.02443 0.25325
 C707 C -0.14279 0.97012 0.22893
 H708 H -0.12912 0.97243 0.22378
 C709 C -0.15165 0.95366 0.22463
 H710 H -0.14470 0.94356 0.21596
 C711 C -0.16828 0.98052 0.24645
 H712 H -0.17474 0.99092 0.25505
 C713 C -0.17762 0.96410 0.24266
 H714 H -0.19103 0.96204 0.24873
 Zn715 Zn -0.13609 1.00354 0.24705
 N716 N -0.15099 0.98305 0.24002
 C717 C -0.11211 0.98245 0.26821
 N718 N -0.12194 0.99762 0.26916
 C719 C -0.12247 1.00805 0.28597
 C720 C -0.11354 1.00294 0.30291
 C721 C -0.10279 0.97694 0.28478
 C722 C -0.12947 1.01083 0.20756
 C723 C -0.11955 1.01501 0.19066
 C724 C -0.09227 1.01374 0.20976
 C725 C -0.10281 1.00978 0.22639
 N726 N -0.12105 1.00848 0.22499
 H727 H -0.11176 0.97441 0.25468
 H728 H -0.13002 1.02023 0.28641
 H729 H -0.11434 1.01127 0.31624
 H730 H -0.09541 0.96460 0.28394
 H731 H -0.14403 1.00984 0.20692
 H732 H -0.12711 1.01769 0.17754
 H733 H -0.07781 1.01395 0.21151
 H734 H -0.09637 1.00775 0.24040
 C735 C -0.16910 0.95023 0.23203
 C736 C -0.16702 1.05627 0.26264
 C737 C -0.10051 1.01654 0.19132
 C738 C -0.10377 0.98706 0.30253
 C739 C 0.33587 0.53159 -0.23152
 H740 H 0.33470 0.52064 -0.22132
 C741 C 0.32554 0.54690 -0.22849
 H742 H 0.31634 0.54762 -0.21605
 C743 C 0.34933 0.54419 -0.26001
 H744 H 0.35873 0.54334 -0.27217
 C745 C 0.33905 0.55949 -0.25776
 H746 H 0.34068 0.57020 -0.26823
 N747 N 0.34755 0.53051 -0.24709
 C748 C 0.35699 0.47489 -0.26890
 H749 H 0.37071 0.47718 -0.27395
 C750 C 0.34853 0.45907 -0.27285
 H751 H 0.35564 0.44917 -0.28162
 C752 C 0.33103 0.48706 -0.25343
 H753 H 0.32435 0.49780 -0.24558
 C754 C 0.32111 0.46970 -0.25734
 H755 H 0.30758 0.46839 -0.25145
 Zn756 Zn 0.36217 0.51003 -0.25158
 N757 N 0.34793 0.48903 -0.25841
 C758 C 0.38659 0.49035 -0.23008
 N759 N 0.37596 0.50495 -0.22891
 C760 C 0.37492 0.51513 -0.21196
 C761 C 0.38415 0.51026 -0.19509
 C762 C 0.39618 0.48510 -0.21361
 C763 C 0.37152 0.51342 -0.29153
 C764 C 0.38257 0.51759 -0.30760
 C765 C 0.40697 0.52482 -0.28495
 C766 C 0.39545 0.52045 -0.26928
 N767 N 0.37809 0.51491 -0.27283
 H768 H 0.38744 0.48259 -0.24375
 H769 H 0.36682 0.52695 -0.21139
 H770 H 0.38298 0.51838 -0.18165
 H771 H 0.40419 0.47318 -0.21470
 H772 H 0.35762 0.50909 -0.29391
 H773 H 0.37712 0.51608 -0.32238
 H774 H 0.42065 0.52951 -0.28182
 H775 H 0.40028 0.52177 -0.25426
 C776 C 0.32955 0.45567 -0.26611
 C777 C 0.32699 0.56099 -0.24186
 C778 C 0.40054 0.52349 -0.30444
 C779 C 0.39475 0.49492 -0.19572
 C780 C 0.64767 -0.03415 -0.23174
 H781 H 0.63836 -0.03079 -0.21998
 C782 C 0.65889 -0.04773 -0.22960
 H783 H 0.65808 -0.05512 -0.21608
 C784 C 0.65809 -0.02874 -0.26445
 H785 H 0.65748 -0.02149 -0.27806
 C786 C 0.67072 -0.04348 -0.26277
 H787 H 0.67964 -0.04585 -0.27517
 N788 N 0.64748 -0.02452 -0.24985
 C789 C 0.63317 0.02925 -0.26611
 H790 H 0.61868 0.02724 -0.26687
 C791 C 0.64105 0.04602 -0.27023
 H792 H 0.63221 0.05636 -0.27486
 C793 C 0.66176 0.01740 -0.26007
 H794 H 0.66973 0.00632 -0.25558
 C795 C 0.67026 0.03402 -0.26393
 H796 H 0.68469 0.03520 -0.26189
 Zn797 Zn 0.63105 -0.00626 -0.25467
 N798 N 0.64353 0.01536 -0.26119
 C799 C 0.62619 0.00390 -0.21525
 N800 N 0.61705 -0.00077 -0.23204
 C801 C 0.59879 0.00015 -0.23290
 C802 C 0.58899 0.00573 -0.21626
 C803 C 0.61694 0.00926 -0.19822
 C804 C 0.61918 -0.00726 -0.29412
 C805 C 0.60947 -0.01389 -0.31046
 C806 C 0.59414 -0.03541 -0.28954
 C807 C 0.60438 -0.02852 -0.27360
 N808 N 0.61644 -0.01454 -0.27611
 H809 H 0.64075 0.00348 -0.21513
 H810 H 0.59183 -0.00292 -0.24661
 H811 H 0.57452 0.00675 -0.21740
 H812 H 0.62455 0.01239 -0.18491
 H813 H 0.62922 0.00343 -0.29599
 H814 H 0.61182 -0.00791 -0.32469
 H815 H 0.58459 -0.04653 -0.28739
 H816 H 0.60278 -0.03436 -0.25920
 C817 C 0.65994 0.04892 -0.26884
 C818 C 0.67114 -0.05317 -0.24616
 C819 C 0.59680 -0.02815 -0.30829
 C820 C 0.59806 0.01039 -0.19857
 C821 C 0.01893 0.26421 0.84685
 H822 H 0.00987 0.27528 0.84597
 C823 C 0.03548 0.26491 0.83687
 H824 H 0.03917 0.27667 0.82845
 C825 C 0.02537 0.23571 0.85953
 H826 H 0.02159 0.22445 0.86858
 C827 C 0.04198 0.23584 0.84982
 H828 H 0.05059 0.22446 0.85125
 N829 N 0.01418 0.24971 0.85784
 C830 C -0.04447 0.24912 0.86124
 H831 H -0.04644 0.24872 0.87707
 C832 C -0.05930 0.24981 0.84878
 H833 H -0.07275 0.24999 0.85507
 C834 C -0.02452 0.24934 0.83378
 H835 H -0.01094 0.24906 0.82799
 C836 C -0.03903 0.24975 0.82073
 H837 H -0.03651 0.25010 0.80497
 Zn838 Zn -0.00808 0.24957 0.87169
 N839 N -0.02747 0.24946 0.85365
 C840 C -0.02149 0.28247 0.88781
 N841 N -0.00810 0.27041 0.88856
 C842 C 0.00609 0.27316 0.90104
 C843 C 0.00706 0.28836 0.91366
 C844 C -0.02113 0.29777 0.90029
 C845 C -0.01233 0.21252 0.87633
 C846 C -0.01246 0.19625 0.88614
 C847 C -0.01006 0.21298 0.91717
 C848 C -0.00997 0.22898 0.90673
 N849 N -0.01054 0.22844 0.88664
 H850 H -0.03237 0.28043 0.87741
 H851 H 0.01670 0.26350 0.90115
 H852 H 0.01842 0.29028 0.92355
 H853 H -0.03179 0.30732 0.89931
 H854 H -0.01303 0.21250 0.86037
 H855 H -0.01350 0.18372 0.87761
 H856 H -0.00880 0.21365 0.93309
 H857 H -0.00894 0.24176 0.91470
 C858 C -0.05663 0.25038 0.82827
 C859 C 0.04730 0.25063 0.83841
 C860 C -0.01085 0.19634 0.90680
 C861 C -0.00671 0.30088 0.91339
 C862 C 0.47486 0.26424 0.15616
 H863 H 0.48426 0.27565 0.15758
 C864 C 0.45981 0.26307 0.16865
 H865 H 0.45792 0.27355 0.17982
 C866 C 0.46623 0.23661 0.14009
 H867 H 0.46860 0.22643 0.12876
 C868 C 0.45093 0.23500 0.15206
 H869 H 0.44167 0.22360 0.14960
 N870 N 0.47799 0.25093 0.14250
 C871 C 0.53613 0.25361 0.13182
 H872 H 0.53618 0.25324 0.11584
 C873 C 0.55241 0.25399 0.14206
 H874 H 0.56495 0.25387 0.13381
 C875 C 0.51965 0.25349 0.16187
 H876 H 0.50688 0.25295 0.16956
 C877 C 0.53566 0.25379 0.17273
 H878 H 0.53500 0.25392 0.18871
 Zn879 Zn 0.49889 0.25256 0.12620
 N880 N 0.52017 0.25369 0.14177
 C881 C 0.51093 0.28622 0.11064
 N882 N 0.49743 0.27336 0.11056
 C883 C 0.48239 0.27509 0.09945
 C884 C 0.48062 0.29005 0.08760
 C885 C 0.50980 0.30130 0.09886
 C886 C 0.50332 0.21596 0.11926
 C887 C 0.50551 0.19992 0.10848
 C888 C 0.50145 0.21605 0.07841
 C889 C 0.49943 0.23188 0.08980
 N890 N 0.50035 0.23152 0.10986
 H891 H 0.52259 0.28491 0.11990
 H892 H 0.47176 0.26476 0.09978
 H893 H 0.46862 0.29112 0.07874
 H894 H 0.52063 0.31145 0.09922
 H895 H 0.50412 0.21610 0.13521
 H896 H 0.50778 0.18767 0.11629
 H897 H 0.50095 0.21657 0.06246
 H898 H 0.49739 0.24443 0.08257
 C899 C 0.55234 0.25420 0.16281
 C900 C 0.44761 0.24821 0.16680
 C901 C 0.50473 0.19983 0.08777
 C902 C 0.49451 0.30336 0.08712
 C903 C -0.02791 0.76324 0.65173
 H904 H -0.01784 0.77409 0.65285
 C905 C -0.04211 0.76301 0.66405
 H906 H -0.04280 0.77362 0.67525
 C907 C -0.03771 0.73592 0.63535
 H908 H -0.03628 0.72562 0.62396
 C909 C -0.05357 0.73509 0.64854
 H910 H -0.06334 0.72423 0.64569
 N911 N -0.02564 0.74893 0.63730
 C912 C 0.03243 0.74958 0.62603
 H913 H 0.03242 0.74929 0.61005
 C914 C 0.04875 0.75025 0.63621
 H915 H 0.06126 0.75032 0.62792
 C916 C 0.01605 0.74955 0.65616
 H917 H 0.00330 0.74911 0.66390
 C918 C 0.03209 0.75018 0.66695
 H919 H 0.03147 0.75059 0.68294
 Zn920 Zn -0.00483 0.74979 0.62073
 N921 N 0.01651 0.74969 0.63606
 C922 C 0.00829 0.78376 0.60677
 N923 N -0.00550 0.77121 0.60611
 C924 C -0.02042 0.77363 0.59503
 C925 C -0.02179 0.78903 0.58381
 C926 C 0.00756 0.79927 0.59562
 C927 C -0.00501 0.71269 0.61073
 C928 C -0.00440 0.69741 0.59827
 C929 C -0.00128 0.71685 0.57035
 C930 C -0.00242 0.73177 0.58328
 N931 N -0.00438 0.72946 0.60307
 H932 H 0.01986 0.78185 0.61599
 H933 H -0.03124 0.76350 0.59486
 H934 H -0.03370 0.79066 0.57495
 H935 H 0.01859 0.80917 0.59642
 H936 H -0.00606 0.71121 0.62654
 H937 H -0.00506 0.68413 0.60452
 H938 H 0.00041 0.71883 0.55465
 H939 H -0.00140 0.74519 0.57751
 C940 C 0.04873 0.75084 0.65697
 C941 C -0.05597 0.74796 0.66278
 C942 C -0.00244 0.69946 0.57786
 C943 C -0.00763 0.80206 0.58395
 C944 C 0.51985 0.75991 0.34687
 H945 H 0.51073 0.77089 0.34562
 C946 C 0.53645 0.76050 0.33699
 H947 H 0.54011 0.77208 0.32826
 C948 C 0.52643 0.73180 0.36042
 H949 H 0.52270 0.72076 0.36980
 C950 C 0.54309 0.73183 0.35082
 H951 H 0.55179 0.72057 0.35266
 N952 N 0.51513 0.74564 0.35821
 C953 C 0.45646 0.74498 0.36131
 H954 H 0.45446 0.74471 0.37714
 C955 C 0.44165 0.74554 0.34880
 H956 H 0.42819 0.74573 0.35507
 C957 C 0.47646 0.74505 0.33389
 H958 H 0.49006 0.74477 0.32815
 C959 C 0.46199 0.74535 0.32080
 H960 H 0.46454 0.74562 0.30505
 Zn961 Zn 0.49279 0.74575 0.37189
 N962 N 0.47347 0.74531 0.35376
 C963 C 0.47926 0.77886 0.38727
 N964 N 0.49272 0.76690 0.38825
 C965 C 0.50698 0.76998 0.40056
 C966 C 0.50800 0.78550 0.41269
 C967 C 0.47963 0.79443 0.39931
 C968 C 0.48898 0.70880 0.37748
 C969 C 0.48874 0.69281 0.38782
 C970 C 0.48978 0.71036 0.41840
 C971 C 0.49010 0.72605 0.40744
 N972 N 0.49023 0.72497 0.38735
 H973 H 0.46829 0.77652 0.37703
 H974 H 0.51762 0.76037 0.40087
 H975 H 0.51944 0.78774 0.42242
 H976 H 0.46891 0.80390 0.39821
 H977 H 0.48882 0.70835 0.36150
 H978 H 0.48825 0.68004 0.37969
 H979 H 0.49045 0.71142 0.43436
 H980 H 0.49073 0.73904 0.41502
 C981 C 0.44437 0.74600 0.32830
 C982 C 0.54836 0.74636 0.33902
 C983 C 0.48956 0.69348 0.40854
 C984 C 0.49417 0.79793 0.41217
 B985 B -0.00156 0.01449 1.01519
 B986 B -0.01257 0.00867 0.99404
 B987 B 0.00576 0.02272 0.99349
 B988 B 0.02083 0.01603 1.01018
 B989 B 0.01161 -0.00259 1.02104
 B990 B -0.00924 -0.00698 1.01125
 B991 B 0.01569 -0.01052 0.98164
 B992 B 0.02674 -0.00491 1.00265
 B993 B 0.00837 -0.01876 1.00331
 B994 B -0.00666 -0.01206 0.98667
 B995 B 0.00264 0.00646 0.97570
 B996 B 0.02352 0.01084 0.98571
 B997 B 0.49922 0.51268 0.51860
 B998 B 0.48899 0.50735 0.49679
 B999 B 0.50712 0.52172 0.49761
 B1000 B 0.52173 0.51465 0.51455
 B1001 B 0.51238 0.49561 0.52438
 B1002 B 0.49198 0.49123 0.51355
 B1003 B 0.51798 0.48902 0.48490
 B1004 B 0.52817 0.49407 0.50655
 B1005 B 0.51001 0.47996 0.50593
 B1006 B 0.49552 0.48698 0.48888
 B1007 B 0.50492 0.50608 0.47904
 B1008 B 0.52531 0.51030 0.49010
 B1009 B 0.50457 0.98614 0.51678
 B1010 B 0.51449 0.99092 0.49509
 B1011 B 0.49578 0.97750 0.49552
 B1012 B 0.48193 0.98508 0.51357
 B1013 B 0.49234 1.00362 0.52429
 B1014 B 0.51267 1.00726 0.51281
 B1015 B 0.48614 1.01063 0.48543
 B1016 B 0.47621 1.00589 0.50712
 B1017 B 0.49492 1.01927 0.50673
 B1018 B 0.50874 1.01172 0.48867
 B1019 B 0.49835 0.99312 0.47794
 B1020 B 0.47802 0.98952 0.48942
 B1021 B 0.00303 0.49137 1.01324
 B1022 B 0.01295 0.49479 0.99123
 B1023 B -0.00559 0.48123 0.99262
 B1024 B -0.01956 0.48980 1.01002
 B1025 B -0.00940 0.50916 1.01929
 B1026 B 0.01091 0.51221 1.00758
 B1027 B -0.01559 0.51336 0.97983
 B1028 B -0.02551 0.50999 1.00185
 B1029 B -0.00696 0.52351 1.00044
 B1030 B 0.00698 0.51494 0.98305
 B1031 B -0.00317 0.49562 0.97380
 B1032 B -0.02347 0.49253 0.98552
 B1033 B 0.01670 0.50920 0.47959
 B1034 B 0.02573 0.50867 0.50229
 B1035 B 0.00912 0.52287 0.49789
 B1036 B -0.00561 0.51262 0.48186
 B1037 B 0.00211 0.49167 0.47655
 B1038 B 0.02166 0.48924 0.48929
 B1039 B -0.00542 0.49405 0.51617
 B1040 B -0.01440 0.49458 0.49350
 B1041 B 0.00223 0.48039 0.49787
 B1042 B 0.01691 0.49061 0.51395
 B1043 B 0.00922 0.51160 0.51926
 B1044 B -0.01033 0.51402 0.50649
 B1045 B 0.51950 0.00825 -0.01058
 B1046 B 0.53096 0.00566 0.01040
 B1047 B 0.51334 0.01931 0.01031
 B1048 B 0.49744 0.01018 -0.00495
 B1049 B 0.50543 -0.00970 -0.01425
 B1050 B 0.52634 -0.01231 -0.00465
 B1051 B 0.50213 -0.01225 0.02593
 B1052 B 0.49062 -0.00937 0.00477
 B1053 B 0.50826 -0.02331 0.00509
 B1054 B 0.52422 -0.01411 0.02029
 B1055 B 0.51634 0.00572 0.02948
 B1056 B 0.49540 0.00849 0.02010
 B1057 B 0.48457 0.48877 -0.01510
 B1058 B 0.47549 0.49310 0.00728
 B1059 B 0.49260 0.47884 0.00505
 B1060 B 0.50706 0.48648 -0.01243
 B1061 B 0.49866 0.50588 -0.02088
 B1062 B 0.47897 0.51001 -0.00864
 B1063 B 0.50609 0.51097 0.01850
 B1064 B 0.51519 0.50665 -0.00383
 B1065 B 0.49807 0.52088 -0.00168
 B1066 B 0.48364 0.51328 0.01585
 B1067 B 0.49201 0.49380 0.02433
 B1068 B 0.51173 0.48972 0.01207
 B1069 B -0.01661 0.98839 0.48452
 B1070 B -0.02593 0.99292 0.50672
 B1071 B -0.00843 0.97910 0.50495
 B1072 B 0.00595 0.98675 0.48740
 B1073 B -0.00291 1.00571 0.47841
 B1074 B -0.02280 1.00957 0.49041
 B1075 B 0.00421 1.01176 0.51775
 B1076 B 0.01354 1.00726 0.49556
 B1077 B -0.00397 1.02105 0.49726
 B1078 B -0.01830 1.01345 0.51486
 B1079 B -0.00949 0.99439 0.52387
 B1080 B 0.01040 0.99057 0.51185
 B1081 B 0.76364 0.24148 0.23647
 B1082 B 0.75813 0.23084 0.25735
 B1083 B 0.77151 0.24958 0.25839
 B1084 B 0.76452 0.26398 0.24138
 B1085 B 0.74636 0.25388 0.22982
 B1086 B 0.74239 0.23318 0.23972
 B1087 B 0.73794 0.25879 0.26899
 B1088 B 0.74342 0.26942 0.24808
 B1089 B 0.73006 0.25068 0.24705
 B1090 B 0.73704 0.23630 0.26407
 B1091 B 0.75523 0.24639 0.27562
 B1092 B 0.75919 0.26709 0.26572
 B1093 B 0.73922 0.76044 0.73434
 B1094 B 0.74243 0.77128 0.75623
 B1095 B 0.72748 0.75383 0.75447
 B1096 B 0.73556 0.73825 0.73834
 B1097 B 0.75602 0.74628 0.73030
 B1098 B 0.76030 0.76690 0.74145
 B1099 B 0.75796 0.74201 0.77030
 B1100 B 0.75469 0.73113 0.74844
 B1101 B 0.76968 0.74858 0.75016
 B1102 B 0.76159 0.76419 0.76630
 B1103 B 0.74112 0.75614 0.77437
 B1104 B 0.73686 0.73551 0.76322
 B1105 B 0.26039 0.26674 0.77009
 B1106 B 0.25569 0.27579 0.74830
 B1107 B 0.26952 0.25833 0.74909
 B1108 B 0.26205 0.24421 0.76668
 B1109 B 0.24311 0.25314 0.77669
 B1110 B 0.23915 0.27286 0.76525
 B1111 B 0.23682 0.24540 0.73751
 B1112 B 0.24151 0.23646 0.75935
 B1113 B 0.22766 0.25391 0.75848
 B1114 B 0.23513 0.26800 0.74085
 B1115 B 0.25410 0.25909 0.73087
 B1116 B 0.25806 0.23938 0.74233
 B1117 B 0.23878 0.73129 0.26035
 B1118 B 0.24133 0.72220 0.23752
 B1119 B 0.22738 0.73939 0.24120
 B1120 B 0.23641 0.75378 0.25849
 B1121 B 0.25640 0.74528 0.26535
 B1122 B 0.25947 0.72557 0.25231
 B1123 B 0.25848 0.75273 0.22600
 B1124 B 0.25590 0.76184 0.24877
 B1125 B 0.26986 0.74465 0.24519
 B1126 B 0.26088 0.73027 0.22783
 B1127 B 0.24083 0.73876 0.22094
 B1128 B 0.23777 0.75847 0.23400
 B1129 B 0.25804 0.74675 0.73363
 B1130 B 0.25182 0.73582 0.75428
 B1131 B 0.26637 0.75375 0.75572
 B1132 B 0.26016 0.76904 0.73920
 B1133 B 0.24131 0.76033 0.72762
 B1134 B 0.23635 0.73963 0.73677
 B1135 B 0.23343 0.76469 0.76689
 B1136 B 0.23938 0.77552 0.74623
 B1137 B 0.22502 0.75753 0.74485
 B1138 B 0.23124 0.74233 0.76132
 B1139 B 0.24994 0.75110 0.77297
 B1140 B 0.25504 0.77185 0.76356
 B1141 B 0.24238 0.24958 0.23218
 B1142 B 0.24572 0.26253 0.25281
 B1143 B 0.22977 0.24563 0.25240
 B1144 B 0.23777 0.22820 0.23868
 B1145 B 0.25882 0.23445 0.23082
 B1146 B 0.26356 0.25585 0.23937
 B1147 B 0.25919 0.23418 0.27112
 B1148 B 0.25622 0.22138 0.25051
 B1149 B 0.27184 0.23830 0.25088
 B1150 B 0.26391 0.25563 0.26463
 B1151 B 0.24281 0.24928 0.27265
 B1152 B 0.23814 0.22789 0.26383
 B1153 B 0.76130 0.76093 0.26832
 B1154 B 0.75612 0.77024 0.24681
 B1155 B 0.76977 0.75261 0.24689
 B1156 B 0.76267 0.73839 0.26452
 B1157 B 0.74408 0.74738 0.27531
 B1158 B 0.74002 0.76730 0.26431
 B1159 B 0.73661 0.74025 0.23626
 B1160 B 0.74185 0.73092 0.25773
 B1161 B 0.72816 0.74855 0.25765
 B1162 B 0.73530 0.76282 0.24005
 B1163 B 0.75383 0.75378 0.22925
 B1164 B 0.75791 0.73388 0.24021
 B1165 B 0.73776 0.23728 0.76538
 B1166 B 0.73958 0.22692 0.74311
 B1167 B 0.72563 0.24418 0.74615
 B1168 B 0.73514 0.25955 0.76209
 B1169 B 0.75544 0.25157 0.76873
 B1170 B 0.75820 0.23119 0.75692
 B1171 B 0.75606 0.25674 0.72883
 B1172 B 0.75422 0.26710 0.75107
 B1173 B 0.76819 0.24985 0.74808
 B1174 B 0.75871 0.23448 0.73208
 B1175 B 0.73837 0.24246 0.72543
 B1176 B 0.73560 0.26281 0.73728
 C1177 C 0.42646 1.03697 0.36023
 C1178 C 0.40807 1.04072 0.35869
 C1179 C 0.39841 1.03566 0.34167
 C1180 C 0.40690 1.02659 0.32591
 C1181 C 0.42545 1.02358 0.32704
 C1182 C 0.43517 1.02882 0.34398
 C1183 C 0.43588 1.03958 0.37937
 N1184 N 0.45405 1.03808 0.38063
 N1185 N 0.46212 1.03778 0.39816
 C1186 C 0.45231 1.03889 0.41511
 N1187 N 0.43424 1.04093 0.41384
 N1188 N 0.42621 1.04135 0.39635
 C1189 C 0.46049 1.03486 0.43425
 C1190 C 0.45011 1.02543 0.44815
 C1191 C 0.45815 1.01844 0.46464
 C1192 C 0.47668 1.02145 0.46838
 C1193 C 0.48692 1.03173 0.45491
 C1194 C 0.47894 1.03819 0.43788
 H1195 H 0.40098 1.04704 0.37092
 H1196 H 0.38411 1.03809 0.34119
 H1197 H 0.43236 1.01684 0.31496
 H1198 H 0.44931 1.02572 0.34468
 H1199 H 0.43594 1.02231 0.44558
 H1200 H 0.44983 1.00993 0.47394
 H1201 H 0.50129 1.03396 0.45688
 H1202 H 0.48727 1.04531 0.42726
 C1203 C -0.08135 0.54233 0.85841
 C1204 C -0.09946 0.53635 0.85932
 C1205 C -0.10884 0.53127 0.84221
 C1206 C -0.10053 0.53230 0.82348
 C1207 C -0.08273 0.53962 0.82252
 C1208 C -0.07317 0.54430 0.83981
 C1209 C -0.07087 0.54460 0.87691
 N1210 N -0.05253 0.54446 0.87678
 N1211 N -0.04339 0.54327 0.89359
 C1212 C -0.05227 0.54218 0.91115
 N1213 N -0.07049 0.54310 0.91129
 N1214 N -0.07958 0.54431 0.89456
 C1215 C -0.04296 0.53690 0.92920
 C1216 C -0.05240 0.52590 0.94247
 C1217 C -0.04368 0.51875 0.95839
 C1218 C -0.02540 0.52306 0.96223
 C1219 C -0.01595 0.53443 0.94914
 C1220 C -0.02462 0.54114 0.93262
 H1221 H -0.10631 0.53484 0.87337
 H1222 H -0.12277 0.52673 0.84381
 H1223 H -0.07561 0.54056 0.80858
 H1224 H -0.05922 0.54893 0.83864
 H1225 H -0.06643 0.52202 0.94003
 H1226 H -0.05141 0.50958 0.96754
 H1227 H -0.00176 0.53767 0.95126
 H1228 H -0.01699 0.54944 0.92242
 C1229 C 0.06829 -0.03299 0.84985
 C1230 C 0.08498 -0.04053 0.84539
 C1231 C 0.09442 -0.03582 0.82828
 C1232 C 0.08755 -0.02321 0.81538
 C1233 C 0.07045 -0.01628 0.81945
 C1234 C 0.06087 -0.02122 0.83642
 C1235 C 0.05967 -0.03587 0.86932
 N1236 N 0.04190 -0.03274 0.87231
 N1237 N 0.03476 -0.03315 0.89041
 C1238 C 0.04516 -0.03657 0.90624
 N1239 N 0.06282 -0.04006 0.90319
 N1240 N 0.06989 -0.03984 0.88509
 C1241 C 0.03827 -0.03349 0.92650
 C1242 C 0.04955 -0.02469 0.94046
 C1243 C 0.04258 -0.01833 0.95835
 C1244 C 0.02428 -0.02139 0.96331
 C1245 C 0.01324 -0.03129 0.94974
 C1246 C 0.02012 -0.03704 0.93138
 H1247 H 0.09095 -0.04979 0.85536
 H1248 H 0.10728 -0.04186 0.82537
 H1249 H 0.06478 -0.00641 0.81000
 H1250 H 0.04809 -0.01508 0.83954
 H1251 H 0.06352 -0.02144 0.93694
 H1252 H 0.05144 -0.01007 0.96772
 H1253 H -0.00098 -0.03362 0.95270
 H1254 H 0.01113 -0.04372 0.92075
 C1255 C 0.57842 0.46671 0.35619
 C1256 C 0.59656 0.47274 0.35575
 C1257 C 0.60509 0.47664 0.33793
 C1258 C 0.59587 0.47435 0.31992
 C1259 C 0.57777 0.46798 0.32027
 C1260 C 0.56911 0.46429 0.33824
 C1261 C 0.56928 0.46417 0.37550
 N1262 N 0.55100 0.46277 0.37703
 N1263 N 0.54295 0.46272 0.39471
 C1264 C 0.55289 0.46402 0.41153
 N1265 N 0.57113 0.46479 0.40993
 N1266 N 0.57913 0.46483 0.39233
 C1267 C 0.54435 0.46735 0.43105
 C1268 C 0.55434 0.47683 0.44569
 C1269 C 0.54610 0.48287 0.46297
 C1270 C 0.52774 0.47892 0.46676
 C1271 C 0.51788 0.46857 0.45252
 C1272 C 0.52607 0.46299 0.43472
 H1273 H 0.60413 0.47500 0.36926
 H1274 H 0.61885 0.48194 0.33840
 H1275 H 0.57031 0.46583 0.30667
 H1276 H 0.55512 0.45965 0.33808
 H1277 H 0.56836 0.48070 0.44329
 H1278 H 0.55412 0.49147 0.47288
 H1279 H 0.50363 0.46558 0.45460
 H1280 H 0.51802 0.45575 0.42363
 C1281 C 0.57481 0.53473 0.14244
 C1282 C 0.56600 0.53281 0.16075
 C1283 C 0.57565 0.52814 0.17749
 C1284 C 0.59423 0.52515 0.17615
 C1285 C 0.60315 0.52789 0.15812
 C1286 C 0.59359 0.53271 0.14150
 C1287 C 0.56451 0.53706 0.12400
 N1288 N 0.57328 0.53729 0.10636
 N1289 N 0.56417 0.53684 0.08950
 C1290 C 0.54588 0.53624 0.08947
 N1291 N 0.53702 0.53666 0.10709
 N1292 N 0.54617 0.53705 0.12403
 C1293 C 0.53614 0.53232 0.07078
 C1294 C 0.51812 0.53699 0.06810
 C1295 C 0.50878 0.53130 0.05092
 C1296 C 0.51718 0.52049 0.03638
 C1297 C 0.53526 0.51601 0.03930
 C1298 C 0.54467 0.52218 0.05594
 H1299 H 0.55157 0.53431 0.16202
 H1300 H 0.56848 0.52610 0.19126
 H1301 H 0.61752 0.52599 0.15678
 H1302 H 0.60089 0.53420 0.12772
 H1303 H 0.51119 0.54471 0.07942
 H1304 H 0.49479 0.53473 0.04946
 H1305 H 0.54215 0.50717 0.02903
 H1306 H 0.55842 0.51804 0.05769
 C1307 C 0.07205 1.03845 0.64183
 C1308 C 0.09096 1.03767 0.64113
 C1309 C 0.10070 1.03352 0.65789
 C1310 C 0.09181 1.03016 0.67582
 C1311 C 0.07301 1.03186 0.67688
 C1312 C 0.06320 1.03591 0.66002
 C1313 C 0.06173 1.04020 0.62328
 N1314 N 0.04338 1.03968 0.62321
 N1315 N 0.03429 1.03892 0.60623
 C1316 C 0.04322 1.03863 0.58865
 N1317 N 0.06152 1.03970 0.58877
 N1318 N 0.07056 1.04052 0.60568
 C1319 C 0.03363 1.03439 0.56991
 C1320 C 0.04249 1.02445 0.55515
 C1321 C 0.03326 1.01792 0.53853
 C1322 C 0.01505 1.02184 0.53551
 C1323 C 0.00631 1.03247 0.54996
 C1324 C 0.01547 1.03851 0.56714
 H1325 H 0.09829 1.03968 0.62746
 H1326 H 0.11521 1.03264 0.65675
 H1327 H 0.06581 1.02931 0.69053
 H1328 H 0.04866 1.03642 0.66111
 H1329 H 0.05636 1.02072 0.55697
 H1330 H 0.04043 1.00916 0.52841
 H1331 H -0.00779 1.03544 0.54846
 H1332 H 0.00829 1.04607 0.57841
 C1333 C -0.07770 0.48025 0.64070
 C1334 C -0.07033 0.47595 0.65899
 C1335 C -0.08004 0.47890 0.67653
 C1336 C -0.09726 0.48631 0.67612
 C1337 C -0.10460 0.49044 0.65778
 C1338 C -0.09502 0.48736 0.64034
 C1339 C -0.06730 0.47828 0.62205
 N1340 N -0.07529 0.48147 0.60459
 N1341 N -0.06585 0.48139 0.58787
 C1342 C -0.04797 0.47809 0.58780
 N1343 N -0.03998 0.47441 0.60519
 N1344 N -0.04947 0.47450 0.62200
 C1345 C -0.03737 0.48041 0.56940
 C1346 C -0.01989 0.47385 0.56704
 C1347 C -0.00985 0.47744 0.54985
 C1348 C -0.01704 0.48787 0.53492
 C1349 C -0.03455 0.49431 0.53752
 C1350 C -0.04462 0.49040 0.55427
 H1351 H -0.05704 0.47042 0.65978
 H1352 H -0.07408 0.47532 0.69038
 H1353 H -0.11763 0.49651 0.65688
 H1354 H -0.10110 0.49099 0.62657
 H1355 H -0.01394 0.46614 0.57852
 H1356 H 0.00366 0.47246 0.54852
 H1357 H -0.04059 0.50267 0.52669
 H1358 H -0.05793 0.49587 0.55561
 C1359 C 0.43667 -0.02664 0.15279
 C1360 C 0.44004 -0.01191 0.16584
 C1361 C 0.42863 -0.00870 0.18192
 C1362 C 0.41370 -0.02031 0.18558
 C1363 C 0.41055 -0.03530 0.17272
 C1364 C 0.42183 -0.03834 0.15642
 C1365 C 0.44811 -0.02915 0.13503
 N1366 N 0.44190 -0.03885 0.11903
 N1367 N 0.45162 -0.03974 0.10243
 C1368 C 0.46801 -0.03110 0.10123
 N1369 N 0.47436 -0.02175 0.11738
 N1370 N 0.46461 -0.02077 0.13391
 C1371 C 0.47786 -0.03010 0.08218
 C1372 C 0.49557 -0.02292 0.08156
 C1373 C 0.50372 -0.01881 0.06354
 C1374 C 0.49427 -0.02143 0.04561
 C1375 C 0.47720 -0.03024 0.04628
 C1376 C 0.46910 -0.03452 0.06431
 H1377 H 0.45122 -0.00250 0.16332
 H1378 H 0.43131 0.00319 0.19118
 H1379 H 0.39941 -0.04474 0.17525
 H1380 H 0.41895 -0.04986 0.14666
 H1381 H 0.50290 -0.01971 0.09506
 H1382 H 0.51714 -0.01264 0.06389
 H1383 H 0.46954 -0.03321 0.03317
 H1384 H 0.45552 -0.04035 0.06423
 C1385 C 0.34499 0.45196 0.01386
 C1386 C 0.33212 0.45735 0.02798
 C1387 C 0.31472 0.44934 0.02788
 C1388 C 0.31006 0.43581 0.01374
 C1389 C 0.32264 0.43115 -0.00088
 C1390 C 0.33985 0.43911 -0.00084
 C1391 C 0.36400 0.45864 0.01472
 N1392 N 0.37655 0.45016 0.00360
 N1393 N 0.39379 0.45544 0.00439
 C1394 C 0.39934 0.46946 0.01633
 N1395 N 0.38681 0.47812 0.02747
 N1396 N 0.36945 0.47274 0.02675
 C1397 C 0.41868 0.47503 0.01657
 C1398 C 0.42480 0.49192 0.02420
 C1399 C 0.44298 0.49745 0.02213
 C1400 C 0.45534 0.48616 0.01244
 C1401 C 0.44911 0.46899 0.00570
 C1402 C 0.43118 0.46351 0.00780
 H1403 H 0.33565 0.46728 0.03944
 H1404 H 0.30517 0.45316 0.03927
 H1405 H 0.31924 0.42104 -0.01221
 H1406 H 0.34927 0.43484 -0.01217
 H1407 H 0.41546 0.50110 0.03108
 H1408 H 0.44716 0.51078 0.02751
 H1409 H 0.45777 0.45996 -0.00236
 H1410 H 0.42704 0.45034 0.00186
 C1411 C -0.15354 0.94478 0.52553
 C1412 C -0.16843 0.95597 0.52450
 C1413 C -0.18596 0.94847 0.52275
 C1414 C -0.18893 0.92966 0.52214
 C1415 C -0.17407 0.91855 0.52371
 C1416 C -0.15664 0.92600 0.52539
 C1417 C -0.13478 0.95233 0.52559
 N1418 N -0.12078 0.94115 0.52327
 N1419 N -0.10393 0.94769 0.52198
 C1420 C -0.10029 0.96572 0.52302
 N1421 N -0.11423 0.97698 0.52569
 N1422 N -0.13116 0.97041 0.52690
 C1423 C -0.08159 0.97270 0.51993
 C1424 C -0.07605 0.99032 0.52576
 C1425 C -0.05835 0.99666 0.52206
 C1426 C -0.04592 0.98558 0.51220
 C1427 C -0.05174 0.96802 0.50631
 C1428 C -0.06916 0.96164 0.51031
 H1429 H -0.16652 0.97049 0.52456
 H1430 H -0.19717 0.95738 0.52173
 H1431 H -0.17583 0.90402 0.52294
 H1432 H -0.14555 0.91693 0.52615
 H1433 H -0.08538 0.99919 0.53318
 H1434 H -0.05455 1.01032 0.52668
 H1435 H -0.04309 0.95919 0.49796
 H1436 H -0.07303 0.94810 0.50525
 C1437 C -0.13809 0.05448 0.97868
 C1438 C -0.15226 0.04697 0.98990
 C1439 C -0.16875 0.05544 0.99157
 C1440 C -0.17170 0.07181 0.98208
 C1441 C -0.15761 0.07880 0.97007
 C1442 C -0.14108 0.07031 0.96849
 C1443 C -0.12009 0.04630 0.97843
 N1444 N -0.10597 0.05408 0.96861
 N1445 N -0.08957 0.04733 0.96944
 C1446 C -0.08659 0.03249 0.98012
 N1447 N -0.10075 0.02460 0.98974
 N1448 N -0.11713 0.03135 0.98891
 C1449 C -0.06815 0.02561 0.98216
 C1450 C -0.06507 0.01104 0.99438
 C1451 C -0.04760 0.00538 0.99758
 C1452 C -0.03264 0.01426 0.98883
 C1453 C -0.03584 0.02817 0.97571
 C1454 C -0.05335 0.03389 0.97257
 H1455 H -0.15057 0.03460 0.99770
 H1456 H -0.17922 0.04880 1.00012
 H1457 H -0.15869 0.09146 0.96274
 H1458 H -0.13046 0.07648 0.95969
 H1459 H -0.07614 0.00420 1.00186
 H1460 H -0.04586 -0.00566 1.00743
 H1461 H -0.02489 0.03482 0.96794
 H1462 H -0.05523 0.04497 0.96280
 C1463 C 0.36310 0.55082 0.47918
 C1464 C 0.34945 0.54431 0.49187
 C1465 C 0.33292 0.55278 0.49329
 C1466 C 0.32961 0.56792 0.48201
 C1467 C 0.34301 0.57402 0.46878
 C1468 C 0.35957 0.56559 0.46741
 C1469 C 0.38116 0.54279 0.47899
 N1470 N 0.39511 0.55043 0.46876
 N1471 N 0.41158 0.54386 0.46963
 C1472 C 0.41480 0.52935 0.48074
 N1473 N 0.40080 0.52160 0.49075
 N1474 N 0.38435 0.52817 0.48990
 C1475 C 0.43333 0.52277 0.48295
 C1476 C 0.43644 0.50803 0.49489
 C1477 C 0.45396 0.50283 0.49863
 C1478 C 0.46895 0.51247 0.49087
 C1479 C 0.46576 0.52630 0.47767
 C1480 C 0.44818 0.53155 0.47394
 H1481 H 0.35168 0.53297 0.50116
 H1482 H 0.32300 0.54785 0.50378
 H1483 H 0.34077 0.58544 0.45960
 H1484 H 0.36970 0.57086 0.45735
 H1485 H 0.42534 0.50071 0.50179
 H1486 H 0.45568 0.49166 0.50830
 H1487 H 0.47682 0.53328 0.47036
 H1488 H 0.44626 0.54270 0.46428
 C1489 C 0.15721 0.54753 0.50905
 C1490 C 0.16560 0.55104 0.49086
 C1491 C 0.18260 0.55953 0.49016
 C1492 C 0.19162 0.56487 0.50763
 C1493 C 0.18377 0.56043 0.52589
 C1494 C 0.16668 0.55178 0.52659
 C1495 C 0.13816 0.54091 0.50936
 N1496 N 0.13059 0.53327 0.52559
 N1497 N 0.11315 0.52818 0.52574
 C1498 C 0.10262 0.53076 0.50975
 N1499 N 0.11025 0.53831 0.49359
 N1500 N 0.12763 0.54322 0.49338
 C1501 C 0.08313 0.52596 0.50969
 C1502 C 0.07169 0.53534 0.49752
 C1503 C 0.05353 0.53035 0.49595
 C1504 C 0.04619 0.51558 0.50621
 C1505 C 0.05755 0.50655 0.51901
 C1506 C 0.07584 0.51178 0.52084
 H1507 H 0.15882 0.54764 0.47706
 H1508 H 0.18851 0.56235 0.47587
 H1509 H 0.19043 0.56439 0.53959
 H1510 H 0.16055 0.54922 0.54083
 H1511 H 0.07684 0.54652 0.48896
 H1512 H 0.04541 0.53789 0.48610
 H1513 H 0.05248 0.49518 0.52729
 H1514 H 0.08439 0.50435 0.53040
 C1515 C 0.65879 0.05648 0.02268
 C1516 C 0.67374 0.04595 0.01811
 C1517 C 0.69105 0.05396 0.01679
 C1518 C 0.69377 0.07260 0.02033
 C1519 C 0.67891 0.08297 0.02558
 C1520 C 0.66163 0.07503 0.02665
 C1521 C 0.64019 0.04855 0.02229
 N1522 N 0.62594 0.05939 0.02058
 N1523 N 0.60921 0.05246 0.01934
 C1524 C 0.60596 0.03438 0.01986
 N1525 N 0.62018 0.02348 0.02180
 N1526 N 0.63698 0.03043 0.02290
 C1527 C 0.58731 0.02690 0.01767
 C1528 C 0.58231 0.00965 0.02423
 C1529 C 0.56449 0.00298 0.02216
 C1530 C 0.55135 0.01330 0.01321
 C1531 C 0.55667 0.03039 0.00629
 C1532 C 0.57426 0.03716 0.00869
 H1533 H 0.67199 0.03162 0.01495
 H1534 H 0.70229 0.04563 0.01282
 H1535 H 0.68052 0.09739 0.02815
 H1536 H 0.65043 0.08353 0.03029
 H1537 H 0.59211 0.00141 0.03115
 H1538 H 0.56111 -0.01032 0.02749
 H1539 H 0.54737 0.03859 -0.00138
 H1540 H 0.57773 0.05037 0.00312
 C1541 C 0.63779 0.94092 0.47147
 C1542 C 0.63930 0.92208 0.47129
 C1543 C 0.65595 0.91440 0.47404
 C1544 C 0.67155 0.92532 0.47691
 C1545 C 0.67035 0.94411 0.47589
 C1546 C 0.65358 0.95187 0.47326
 C1547 C 0.61966 0.94879 0.47145
 N1548 N 0.61756 0.96693 0.47185
 N1549 N 0.60120 0.97377 0.47369
 C1550 C 0.58631 0.96272 0.47530
 N1551 N 0.58843 0.94464 0.47454
 N1552 N 0.60472 0.93784 0.47263
 C1553 C 0.56826 0.96996 0.47935
 C1554 C 0.55502 0.95892 0.48820
 C1555 C 0.53823 0.96556 0.49312
 C1556 C 0.53386 0.98335 0.48893
 C1557 C 0.54712 0.99441 0.47986
 C1558 C 0.56420 0.98782 0.47526
 H1559 H 0.62750 0.91319 0.46971
 H1560 H 0.65658 0.89986 0.47441
 H1561 H 0.68222 0.95280 0.47808
 H1562 H 0.65291 0.96641 0.47339
 H1563 H 0.55778 0.94519 0.49193
 H1564 H 0.52891 0.95669 0.50079
 H1565 H 0.54446 1.00824 0.47652
 H1566 H 0.57418 0.99667 0.46848
 C1567 C 0.13718 0.44540 0.97876
 C1568 C 0.13869 0.42670 0.98062
 C1569 C 0.15521 0.41940 0.98491
 C1570 C 0.17069 0.43057 0.98734
 C1571 C 0.16948 0.44918 0.98461
 C1572 C 0.15282 0.45656 0.98043
 C1573 C 0.11911 0.45303 0.97657
 N1574 N 0.11690 0.47111 0.97572
 N1575 N 0.10042 0.47781 0.97570
 C1576 C 0.08555 0.46666 0.97660
 N1577 N 0.08781 0.44863 0.97700
 N1578 N 0.10421 0.44197 0.97695
 C1579 C 0.06729 0.47379 0.97904
 C1580 C 0.05391 0.46313 0.98816
 C1581 C 0.03692 0.46976 0.99186
 C1582 C 0.03246 0.48712 0.98610
 C1583 C 0.04585 0.49777 0.97668
 C1584 C 0.06316 0.49122 0.97334
 H1585 H 0.12700 0.41764 0.97927
 H1586 H 0.15586 0.40496 0.98653
 H1587 H 0.18126 0.45807 0.98639
 H1588 H 0.15213 0.47101 0.97904
 H1589 H 0.05673 0.44978 0.99314
 H1590 H 0.02752 0.46129 0.99991
 H1591 H 0.04311 0.51128 0.97218
 H1592 H 0.07328 0.49976 0.96634
 C1593 C 0.00097 0.34928 0.45957
 C1594 C -0.01492 0.33953 0.45436
 C1595 C -0.01423 0.32374 0.44277
 C1596 C 0.00236 0.31737 0.43587
 C1597 C 0.01833 0.32670 0.44178
 C1598 C 0.01764 0.34246 0.45358
 C1599 C -0.00007 0.36722 0.46958
 N1600 N 0.01458 0.37536 0.47841
 N1601 N 0.01391 0.39222 0.48566
 C1602 C -0.00141 0.40162 0.48420
 N1603 N -0.01611 0.39337 0.47568
 N1604 N -0.01549 0.37650 0.46862
 C1605 C -0.00155 0.42108 0.48928
 C1606 C -0.01113 0.43237 0.47720
 C1607 C -0.01013 0.45096 0.48026
 C1608 C -0.00022 0.45887 0.49612
 C1609 C 0.00904 0.44748 0.50860
 C1610 C 0.00856 0.42874 0.50504
 H1611 H -0.02798 0.34430 0.45894
 H1612 H -0.02677 0.31663 0.43898
 H1613 H 0.03133 0.32225 0.43665
 H1614 H 0.03012 0.34972 0.45725
 H1615 H -0.01877 0.42687 0.46472
 H1616 H -0.01700 0.45913 0.46986
 H1617 H 0.01714 0.45302 0.52068
 H1618 H 0.01617 0.42027 0.51449
 C1619 C 0.50184 -0.15155 -0.04667
 C1620 C 0.51731 -0.16185 -0.04904
 C1621 C 0.51671 -0.17790 -0.06033
 C1622 C 0.50066 -0.18402 -0.06962
 C1623 C 0.48510 -0.17389 -0.06693
 C1624 C 0.48568 -0.15787 -0.05557
 C1625 C 0.50275 -0.13397 -0.03569
 N1626 N 0.48753 -0.12491 -0.03143
 N1627 N 0.48845 -0.10867 -0.02254
 C1628 C 0.50463 -0.10077 -0.01758
 N1629 N 0.51983 -0.10992 -0.02165
 N1630 N 0.51891 -0.12618 -0.03046
 C1631 C 0.50576 -0.08207 -0.00929
 C1632 C 0.52229 -0.07235 -0.00894
 C1633 C 0.52306 -0.05408 -0.00344
 C1634 C 0.50730 -0.04492 0.00188
 C1635 C 0.49106 -0.05513 0.00303
 C1636 C 0.49023 -0.07338 -0.00271
 H1637 H 0.52995 -0.15747 -0.04226
 H1638 H 0.52885 -0.18555 -0.06177
 H1639 H 0.47257 -0.17807 -0.07406
 H1640 H 0.47353 -0.15023 -0.05416
 H1641 H 0.53461 -0.07864 -0.01365
 H1642 H 0.53607 -0.04708 -0.00398
 H1643 H 0.47876 -0.04915 0.00775
 H1644 H 0.47730 -0.08058 -0.00238
 C1645 C 0.00740 -0.14397 1.05774
 C1646 C -0.00431 -0.15805 1.05095
 C1647 C -0.00567 -0.17428 1.06100
 C1648 C 0.00460 -0.17671 1.07806
 C1649 C 0.01646 -0.16274 1.08466
 C1650 C 0.01786 -0.14660 1.07463
 C1651 C 0.00848 -0.12641 1.04782
 N1652 N 0.01955 -0.11294 1.05506
 N1653 N 0.02011 -0.09684 1.04694
 C1654 C 0.00966 -0.09343 1.03117
 N1655 N -0.00129 -0.10696 1.02369
 N1656 N -0.00187 -0.12313 1.03186
 C1657 C 0.00972 -0.07502 1.02324
 C1658 C 0.00120 -0.07126 1.00536
 C1659 C 0.00102 -0.05354 0.99865
 C1660 C 0.00919 -0.03927 1.00980
 C1661 C 0.01770 -0.04322 1.02763
 C1662 C 0.01809 -0.06078 1.03412
 H1663 H -0.01258 -0.15647 1.03802
 H1664 H -0.01501 -0.18479 1.05566
 H1665 H 0.02478 -0.16433 1.09755
 H1666 H 0.02709 -0.13612 1.08026
 H1667 H -0.00536 -0.08198 0.99662
 H1668 H -0.00571 -0.05102 0.98491
 H1669 H 0.02422 -0.03275 1.03673
 H1670 H 0.02473 -0.06308 1.04798
 C1671 C 0.51113 0.35344 0.55632
 C1672 C 0.52157 0.35082 0.57321
 C1673 C 0.51975 0.33491 0.58360
 C1674 C 0.50752 0.32115 0.57734
 C1675 C 0.49746 0.32344 0.56011
 C1676 C 0.49919 0.33947 0.54972
 C1677 C 0.51222 0.37105 0.54646
 N1678 N 0.50142 0.37463 0.53096
 N1679 N 0.50171 0.39099 0.52322
 C1680 C 0.51278 0.40440 0.53073
 N1681 N 0.52375 0.40067 0.54595
 N1682 N 0.52348 0.38439 0.55363
 C1683 C 0.51229 0.42308 0.52363
 C1684 C 0.51981 0.43717 0.53542
 C1685 C 0.51899 0.45493 0.52970
 C1686 C 0.51095 0.45927 0.51173
 C1687 C 0.50351 0.44517 0.49974
 C1688 C 0.50408 0.42722 0.50570
 H1689 H 0.53099 0.36120 0.57870
 H1690 H 0.52792 0.33339 0.59663
 H1691 H 0.48788 0.31304 0.55500
 H1692 H 0.49097 0.34104 0.53676
 H1693 H 0.52613 0.43457 0.54939
 H1694 H 0.52492 0.46525 0.53946
 H1695 H 0.49710 0.44798 0.48589
 H1696 H 0.49813 0.41661 0.49630
 C1697 C 0.49558 1.14725 0.56184
 C1698 C 0.50374 1.16213 0.55252
 C1699 C 0.50409 1.17923 0.56184
 C1700 C 0.49625 1.18175 0.58064
 C1701 C 0.48817 1.16684 0.58991
 C1702 C 0.48780 1.14986 0.58064
 C1703 C 0.49523 1.12896 0.55244
 N1704 N 0.48700 1.11502 0.56182
 N1705 N 0.48683 1.09845 0.55390
 C1706 C 0.49486 1.09500 0.53622
 N1707 N 0.50303 1.10895 0.52667
 N1708 N 0.50321 1.12561 0.53463
 C1709 C 0.49487 1.07624 0.52809
 C1710 C 0.50214 1.07192 0.50937
 C1711 C 0.50214 1.05394 0.50234
 C1712 C 0.49489 1.03999 0.51392
 C1713 C 0.48771 1.04449 0.53262
 C1714 C 0.48762 1.06226 0.53951
 H1715 H 0.50985 1.16060 0.53804
 H1716 H 0.51031 1.19050 0.55427
 H1717 H 0.48235 1.16822 0.60455
 H1718 H 0.48149 1.13873 0.58837
 H1719 H 0.50786 1.08239 0.50021
 H1720 H 0.50790 1.05100 0.48796
 H1721 H 0.48188 1.03431 0.54208
 H1722 H 0.48189 1.06496 0.55399
 C1723 C -0.00355 0.65332 1.04708
 C1724 C -0.01938 0.66243 1.05166
 C1725 C -0.01865 0.67859 1.06269
 C1726 C -0.00208 0.68587 1.06973
 C1727 C 0.01383 0.67702 1.06458
 C1728 C 0.01311 0.66098 1.05324
 C1729 C -0.00464 0.63526 1.03736
 N1730 N 0.00976 0.62836 1.02762
 N1731 N 0.00902 0.61152 1.02021
 C1732 C -0.00608 0.60092 1.02246
 N1733 N -0.02049 0.60790 1.03201
 N1734 N -0.01982 0.62474 1.03922
 C1735 C -0.00645 0.58173 1.01623
 C1736 C -0.01617 0.56922 1.02758
 C1737 C -0.01613 0.55093 1.02258
 C1738 C -0.00700 0.54466 1.00559
 C1739 C 0.00273 0.55725 0.99417
 C1740 C 0.00314 0.57562 0.99957
 H1741 H -0.03240 0.65694 1.04690
 H1742 H -0.03113 0.68526 1.06587
 H1743 H 0.02681 0.68208 1.06990
 H1744 H 0.02552 0.65417 1.05005
 H1745 H -0.02345 0.57353 1.04069
 H1746 H -0.02348 0.54173 1.03206
 H1747 H 0.01025 0.55294 0.98125
 H1748 H 0.01084 0.58505 0.99067
 C1749 C 0.50238 0.64679 -0.05426
 C1750 C 0.51092 0.64865 -0.07273
 C1751 C 0.50984 0.66455 -0.08308
 C1752 C 0.50028 0.67910 -0.07522
 C1753 C 0.49198 0.67747 -0.05660
 C1754 C 0.49293 0.66142 -0.04625
 C1755 C 0.50310 0.62942 -0.04397
 N1756 N 0.49286 0.62594 -0.02768
 N1757 N 0.49293 0.60979 -0.01943
 C1758 C 0.50327 0.59651 -0.02716
 N1759 N 0.51369 0.60019 -0.04317
 N1760 N 0.51361 0.61623 -0.05138
 C1761 C 0.50252 0.57795 -0.01949
 C1762 C 0.50998 0.56405 -0.03097
 C1763 C 0.50867 0.54633 -0.02505
 C1764 C 0.50022 0.54175 -0.00711
 C1765 C 0.49300 0.55566 0.00471
 C1766 C 0.49406 0.57362 -0.00148
 H1767 H 0.51834 0.63772 -0.07940
 H1768 H 0.51661 0.66551 -0.09724
 H1769 H 0.48447 0.68848 -0.05023
 H1770 H 0.48622 0.66044 -0.03207
 H1771 H 0.51654 0.56674 -0.04496
 H1772 H 0.51442 0.53620 -0.03475
 H1773 H 0.48627 0.55267 0.01851
 H1774 H 0.48816 0.58405 0.00772
 C1775 C 0.00028 1.14719 0.44460
 C1776 C 0.00705 1.14871 0.42529
 C1777 C 0.00675 1.16499 0.41559
 C1778 C -0.00027 1.18055 0.42482
 C1779 C -0.00687 1.17900 0.44439
 C1780 C -0.00670 1.16253 0.45405
 C1781 C 0.00054 1.12954 0.45436
 N1782 N -0.00813 1.12656 0.47181
 N1783 N -0.00826 1.11030 0.47983
 C1784 C 0.00030 1.09641 0.47071
 N1785 N 0.00910 1.09956 0.45347
 N1786 N 0.00922 1.11570 0.44549
 C1787 C -0.00037 1.07789 0.47853
 C1788 C 0.00679 1.06388 0.46696
 C1789 C 0.00572 1.04623 0.47315
 C1790 C -0.00229 1.04183 0.49137
 C1791 C -0.00925 1.05585 0.50324
 C1792 C -0.00835 1.07374 0.49684
 H1793 H 0.01266 1.13724 0.41752
 H1794 H 0.01281 1.16533 0.40104
 H1795 H -0.01288 1.19024 0.45214
 H1796 H -0.01209 1.16181 0.46891
 H1797 H 0.01306 1.06641 0.45279
 H1798 H 0.01138 1.03603 0.46346
 H1799 H -0.01560 1.05298 0.51729
 H1800 H -0.01400 1.08426 0.50613
 C1801 C 0.78434 0.67947 0.89505
 C1802 C 0.78185 0.68870 0.91323
 C1803 C 0.77757 0.67916 0.93030
 C1804 C 0.77562 0.66027 0.92942
 C1805 C 0.77920 0.65104 0.91155
 C1806 C 0.78357 0.66051 0.89459
 C1807 C 0.78567 0.68926 0.87627
 N1808 N 0.78448 0.67993 0.85880
 N1809 N 0.78302 0.68843 0.84190
 C1810 C 0.78280 0.70669 0.84169
 N1811 N 0.78462 0.71615 0.85906
 N1812 N 0.78598 0.70759 0.87604
 C1813 C 0.77795 0.71560 0.82334
 C1814 C 0.78425 0.73312 0.81903
 C1815 C 0.77852 0.74141 0.80186
 C1816 C 0.76608 0.73247 0.78904
 C1817 C 0.75966 0.71506 0.79381
 C1818 C 0.76580 0.70664 0.81041
 H1819 H 0.78237 0.70329 0.91411
 H1820 H 0.77489 0.68658 0.94394
 H1821 H 0.77813 0.63646 0.91058
 H1822 H 0.78561 0.65291 0.88093
 H1823 H 0.79354 0.74035 0.82892
 H1824 H 0.78352 0.75493 0.79891
 H1825 H 0.74978 0.70777 0.78470
 H1826 H 0.76044 0.69327 0.81353
 C1827 C 0.28554 0.17479 0.39811
 C1828 C 0.28408 0.15584 0.39768
 C1829 C 0.27986 0.14652 0.41477
 C1830 C 0.27720 0.15588 0.43275
 C1831 C 0.27988 0.17470 0.43360
 C1832 C 0.28393 0.18411 0.41638
 C1833 C 0.28664 0.18451 0.37927
 N1834 N 0.28665 0.20284 0.37890
 N1835 N 0.28499 0.21126 0.36186
 C1836 C 0.28318 0.20165 0.34458
 N1837 N 0.28373 0.18342 0.34493
 N1838 N 0.28547 0.17506 0.36187
 C1839 C 0.27797 0.21026 0.32620
 C1840 C 0.26535 0.20117 0.31393
 C1841 C 0.25939 0.20896 0.29688
 C1842 C 0.26641 0.22584 0.29101
 C1843 C 0.27906 0.23508 0.30335
 C1844 C 0.28465 0.22742 0.32097
 H1845 H 0.28541 0.14816 0.38396
 H1846 H 0.27815 0.13198 0.41384
 H1847 H 0.27791 0.18217 0.44736
 H1848 H 0.28502 0.19868 0.41725
 H1849 H 0.25967 0.18810 0.31781
 H1850 H 0.24932 0.20150 0.28820
 H1851 H 0.28446 0.24825 0.29956
 H1852 H 0.29428 0.23476 0.33036
 C1853 C 0.71407 0.31572 0.39880
 C1854 C 0.72525 0.30852 0.41308
 C1855 C 0.73051 0.31884 0.42979
 C1856 C 0.72455 0.33651 0.43270
 C1857 C 0.71247 0.34324 0.41899
 C1858 C 0.70739 0.33302 0.40219
 C1859 C 0.71107 0.30619 0.37955
 N1860 N 0.70690 0.31564 0.36340
 N1861 N 0.70674 0.30781 0.34549
 C1862 C 0.71053 0.29013 0.34299
 N1863 N 0.71410 0.28048 0.35918
 N1864 N 0.71442 0.28837 0.37711
 C1865 C 0.71390 0.28254 0.32299
 C1866 C 0.71111 0.26410 0.31846
 C1867 C 0.71721 0.25675 0.30043
 C1868 C 0.72669 0.26762 0.28686
 C1869 C 0.72903 0.28616 0.29148
 C1870 C 0.72230 0.29357 0.30899
 H1871 H 0.73072 0.29527 0.41085
 H1872 H 0.73993 0.31324 0.43993
 H1873 H 0.70717 0.35658 0.42101
 H1874 H 0.69858 0.33887 0.39157
 H1875 H 0.70477 0.25530 0.32914
 H1876 H 0.71548 0.24236 0.29776
 H1877 H 0.73704 0.29495 0.28220
 H1878 H 0.72501 0.30776 0.31225
 C1879 C 0.21640 0.82654 0.89499
 C1880 C 0.22372 0.84420 0.89421
 C1881 C 0.22965 0.85336 0.91131
 C1882 C 0.22809 0.84532 0.92982
 C1883 C 0.22048 0.82770 0.93067
 C1884 C 0.21485 0.81834 0.91339
 C1885 C 0.21166 0.81668 0.87634
 N1886 N 0.21163 0.79836 0.87494
 N1887 N 0.21020 0.78981 0.85738
 C1888 C 0.20866 0.79928 0.84060
 N1889 N 0.20787 0.81750 0.84220
 N1890 N 0.20931 0.82599 0.85966
 C1891 C 0.21156 0.79071 0.82093
 C1892 C 0.22080 0.80079 0.80670
 C1893 C 0.22692 0.79262 0.78941
 C1894 C 0.22310 0.77425 0.78501
 C1895 C 0.21295 0.76426 0.79884
 C1896 C 0.20745 0.77237 0.81681
 H1897 H 0.22546 0.85081 0.88024
 H1898 H 0.23588 0.86664 0.90985
 H1899 H 0.21879 0.82114 0.94466
 H1900 H 0.20928 0.80474 0.91443
 H1901 H 0.22462 0.81483 0.80956
 H1902 H 0.23559 0.80073 0.78009
 H1903 H 0.21016 0.74999 0.79632
 H1904 H 0.20048 0.76424 0.82767
 C1905 C 0.28651 0.82581 0.10755
 C1906 C 0.28181 0.84391 0.10971
 C1907 C 0.27792 0.85395 0.09330
 C1908 C 0.27881 0.84632 0.07402
 C1909 C 0.28482 0.82851 0.07183
 C1910 C 0.28838 0.81831 0.08842
 C1911 C 0.28778 0.81469 0.12532
 N1912 N 0.28816 0.79639 0.12389
 N1913 N 0.28661 0.78646 0.13999
 C1914 C 0.28458 0.79448 0.15811
 N1915 N 0.28485 0.81274 0.15955
 N1916 N 0.28644 0.82261 0.14354
 C1917 C 0.27954 0.78390 0.17558
 C1918 C 0.26839 0.79172 0.18995
 C1919 C 0.26194 0.78181 0.20571
 C1920 C 0.26705 0.76392 0.20819
 C1921 C 0.27846 0.75608 0.19390
 C1922 C 0.28451 0.76594 0.17760
 H1923 H 0.28050 0.85029 0.12420
 H1924 H 0.27444 0.86786 0.09590
 H1925 H 0.28562 0.82188 0.05745
 H1926 H 0.29205 0.80440 0.08625
 H1927 H 0.26399 0.80540 0.18864
 H1928 H 0.25279 0.78831 0.21592
 H1929 H 0.28233 0.74222 0.19501
 H1930 H 0.29298 0.75955 0.16658
 C1931 C 0.78480 0.32561 0.60673
 C1932 C 0.78489 0.31721 0.58789
 C1933 C 0.78198 0.32718 0.57098
 C1934 C 0.77856 0.34579 0.57250
 C1935 C 0.77963 0.35423 0.59141
 C1936 C 0.78274 0.34432 0.60817
 C1937 C 0.78516 0.31497 0.62496
 N1938 N 0.78325 0.32342 0.64283
 N1939 N 0.78116 0.31403 0.65914
 C1940 C 0.78096 0.29575 0.65838
 N1941 N 0.78346 0.28720 0.64062
 N1942 N 0.78548 0.29665 0.62421
 C1943 C 0.77578 0.28570 0.67618
 C1944 C 0.78137 0.26810 0.67933
 C1945 C 0.77560 0.25889 0.69623
 C1946 C 0.76388 0.26703 0.70998
 C1947 C 0.75806 0.28449 0.70629
 C1948 C 0.76418 0.29376 0.68993
 H1949 H 0.78650 0.30281 0.58625
 H1950 H 0.78118 0.31988 0.55697
 H1951 H 0.77826 0.36862 0.59347
 H1952 H 0.78299 0.35137 0.62238
 H1953 H 0.79020 0.26153 0.66881
 H1954 H 0.78006 0.24535 0.69830
 H1955 H 0.74875 0.29122 0.71613
 H1956 H 0.75933 0.30716 0.68775
 C1957 C 0.21811 0.17569 0.61257
 C1958 C 0.22446 0.15809 0.61333
 C1959 C 0.22908 0.14861 0.59610
 C1960 C 0.22724 0.15630 0.57752
 C1961 C 0.22056 0.17381 0.57669
 C1962 C 0.21616 0.18345 0.59404
 C1963 C 0.21470 0.18600 0.63120
 N1964 N 0.21372 0.20428 0.63160
 N1965 N 0.21294 0.21352 0.64876
 C1966 C 0.21304 0.20482 0.66617
 N1967 N 0.21334 0.18655 0.66566
 N1968 N 0.21413 0.17735 0.64859
 C1969 C 0.21579 0.21479 0.68522
 C1970 C 0.22435 0.20612 0.70051
 C1971 C 0.23015 0.21570 0.71728
 C1972 C 0.22677 0.23415 0.72000
 C1973 C 0.21726 0.24270 0.70513
 C1974 C 0.21200 0.23315 0.68777
 H1975 H 0.22638 0.15175 0.62734
 H1976 H 0.23455 0.13537 0.59745
 H1977 H 0.21867 0.18008 0.56263
 H1978 H 0.21128 0.19697 0.59296
 H1979 H 0.22784 0.19209 0.69896
 H1980 H 0.23828 0.20862 0.72752
 H1981 H 0.21478 0.25697 0.70637
 H1982 H 0.20549 0.24022 0.67614
 C1983 C 0.71374 0.67903 0.10751
 C1984 C 0.70866 0.66080 0.10467
 C1985 C 0.71318 0.65147 0.08726
 C1986 C 0.72323 0.65998 0.07211
 C1987 C 0.72758 0.67859 0.07484
 C1988 C 0.72284 0.68793 0.09222
 C1989 C 0.71104 0.68817 0.12695
 N1990 N 0.71277 0.70641 0.12908
 N1991 N 0.71248 0.71438 0.14695
 C1992 C 0.71054 0.70442 0.16341
 N1993 N 0.70839 0.68625 0.16124
 N1994 N 0.70854 0.67831 0.14339
 C1995 C 0.71358 0.71279 0.18320
 C1996 C 0.71031 0.73106 0.18710
 C1997 C 0.71611 0.73948 0.20482
 C1998 C 0.72570 0.72988 0.21879
 C1999 C 0.72839 0.71142 0.21493
 C2000 C 0.72205 0.70293 0.19764
 H2001 H 0.70132 0.65363 0.11605
 H2002 H 0.70839 0.63760 0.08581
 H2003 H 0.73560 0.68597 0.06424
 H2004 H 0.72710 0.70197 0.09402
 H2005 H 0.70387 0.73899 0.17612
 H2006 H 0.71407 0.75377 0.20694
 H2007 H 0.73644 0.70362 0.22458
 H2008 H 0.72507 0.68890 0.19492
 C2009 C 0.19109 0.59512 0.21644
 C2010 C 0.17256 0.59207 0.21992
 C2011 C 0.16528 0.57461 0.22121
 C2012 C 0.17628 0.55965 0.21895
 C2013 C 0.19476 0.56261 0.21501
 C2014 C 0.20210 0.58018 0.21374
 C2015 C 0.19876 0.61384 0.21675
 N2016 N 0.21659 0.61745 0.21337
 N2017 N 0.22341 0.63429 0.21498
 C2018 C 0.21265 0.64815 0.22012
 N2019 N 0.19483 0.64452 0.22319
 N2020 N 0.18804 0.62777 0.22151
 C2021 C 0.22007 0.66670 0.22369
 C2022 C 0.21018 0.67877 0.23533
 C2023 C 0.21694 0.69609 0.23959
 C2024 C 0.23369 0.70219 0.23202
 C2025 C 0.24363 0.69010 0.22022
 C2026 C 0.23694 0.67247 0.21620
 H2027 H 0.16364 0.60321 0.22211
 H2028 H 0.15106 0.57288 0.22463
 H2029 H 0.20356 0.55135 0.21299
 H2030 H 0.21642 0.58205 0.21101
 H2031 H 0.19729 0.67472 0.24167
 H2032 H 0.20903 0.70450 0.24932
 H2033 H 0.25666 0.69414 0.21425
 H2034 H 0.24490 0.66341 0.20721
 C2035 C 0.68449 0.10135 0.72563
 C2036 C 0.66607 0.09914 0.73004
 C2037 C 0.65802 0.08202 0.73149
 C2038 C 0.66808 0.06633 0.72853
 C2039 C 0.68655 0.06870 0.72352
 C2040 C 0.69460 0.08595 0.72209
 C2041 C 0.69302 0.11969 0.72586
 N2042 N 0.71076 0.12254 0.72133
 N2043 N 0.71840 0.13905 0.72284
 C2044 C 0.70859 0.15330 0.72903
 N2045 N 0.69085 0.15043 0.73325
 N2046 N 0.68324 0.13402 0.73168
 C2047 C 0.71692 0.17150 0.73231
 C2048 C 0.70816 0.18382 0.74476
 C2049 C 0.71550 0.20101 0.74826
 C2050 C 0.73175 0.20672 0.73922
 C2051 C 0.74068 0.19431 0.72682
 C2052 C 0.73338 0.17680 0.72349
 H2053 H 0.65783 0.11069 0.73294
 H2054 H 0.64406 0.08141 0.73610
 H2055 H 0.69490 0.05733 0.72025
 H2056 H 0.70882 0.08718 0.71849
 H2057 H 0.69562 0.18014 0.75208
 H2058 H 0.70824 0.20980 0.75823
 H2059 H 0.75327 0.19807 0.71965
 H2060 H 0.74046 0.16752 0.71384
 C2061 C 0.80882 0.10751 0.27358
 C2062 C 0.82765 0.10613 0.27232
 C2063 C 0.83541 0.08942 0.26946
 C2064 C 0.82458 0.07361 0.26788
 C2065 C 0.80581 0.07475 0.27017
 C2066 C 0.79798 0.09159 0.27291
 C2067 C 0.80080 0.12558 0.27423
 N2068 N 0.78264 0.12758 0.27482
 N2069 N 0.77567 0.14388 0.27384
 C2070 C 0.78661 0.15883 0.27213
 N2071 N 0.80472 0.15680 0.27186
 N2072 N 0.81164 0.14058 0.27291
 C2073 C 0.77923 0.17688 0.26929
 C2074 C 0.79036 0.19048 0.26130
 C2075 C 0.78369 0.20733 0.25762
 C2076 C 0.76571 0.21139 0.26215
 C2077 C 0.75454 0.19777 0.27034
 C2078 C 0.76120 0.18066 0.27375
 H2079 H 0.83648 0.11803 0.27298
 H2080 H 0.84994 0.08887 0.26811
 H2081 H 0.79718 0.06273 0.26902
 H2082 H 0.78344 0.09216 0.27390
 H2083 H 0.80423 0.18800 0.25731
 H2084 H 0.79268 0.21694 0.25060
 H2085 H 0.74058 0.20021 0.27393
 H2086 H 0.75226 0.17041 0.27989
 C2087 C 0.29786 0.61008 0.76342
 C2088 C 0.29757 0.59969 0.74575
 C2089 C 0.30669 0.58357 0.74426
 C2090 C 0.31610 0.57728 0.76048
 C2091 C 0.31587 0.58724 0.77841
 C2092 C 0.30696 0.60359 0.77983
 C2093 C 0.28931 0.62787 0.76428
 N2094 N 0.29357 0.64034 0.77873
 N2095 N 0.28666 0.65671 0.77866
 C2096 C 0.27515 0.66125 0.76419
 N2097 N 0.27074 0.64869 0.74993
 N2098 N 0.27769 0.63239 0.74995
 C2099 C 0.26817 0.67972 0.76327
 C2100 C 0.25472 0.68347 0.74960
 C2101 C 0.24909 0.70105 0.74740
 C2102 C 0.25701 0.71550 0.75854
 C2103 C 0.26980 0.71160 0.77295
 C2104 C 0.27535 0.69393 0.77526
 H2105 H 0.29071 0.60427 0.73282
 H2106 H 0.30657 0.57605 0.73031
 H2107 H 0.32311 0.58268 0.79109
 H2108 H 0.30736 0.61123 0.79367
 H2109 H 0.24870 0.67285 0.74028
 H2110 H 0.23896 0.70328 0.73638
 H2111 H 0.27576 0.72217 0.78230
 H2112 H 0.28559 0.69149 0.78611
 C2113 C 0.30523 0.40270 0.72953
 C2114 C 0.32402 0.40544 0.72881
 C2115 C 0.33185 0.42276 0.72993
 C2116 C 0.32120 0.43815 0.73183
 C2117 C 0.30222 0.43529 0.73210
 C2118 C 0.29440 0.41784 0.73092
 C2119 C 0.29733 0.38407 0.72980
 N2120 N 0.27919 0.38071 0.72921
 N2121 N 0.27236 0.36391 0.73052
 C2122 C 0.28341 0.34983 0.73256
 N2123 N 0.30149 0.35322 0.73291
 N2124 N 0.30829 0.36992 0.73152
 C2125 C 0.27620 0.33125 0.73563
 C2126 C 0.28721 0.31883 0.74449
 C2127 C 0.28072 0.30150 0.74832
 C2128 C 0.26310 0.29572 0.74302
 C2129 C 0.25205 0.30815 0.73395
 C2130 C 0.25849 0.32579 0.73042
 H2131 H 0.33285 0.39413 0.72781
 H2132 H 0.34640 0.42373 0.73038
 H2133 H 0.29320 0.44643 0.73277
 H2134 H 0.27984 0.41622 0.73136
 H2135 H 0.30080 0.32262 0.74905
 H2136 H 0.28955 0.29290 0.75611
 H2137 H 0.23834 0.30438 0.72981
 H2138 H 0.24966 0.33511 0.72360
 C2139 C 0.80661 0.89661 0.22777
 C2140 C 0.82528 0.89935 0.23049
 C2141 C 0.83302 0.91669 0.23164
 C2142 C 0.82237 0.93186 0.22994
 C2143 C 0.80370 0.92921 0.22696
 C2144 C 0.79589 0.91175 0.22587
 C2145 C 0.79862 0.87802 0.22780
 N2146 N 0.78052 0.87470 0.22630
 N2147 N 0.77358 0.85794 0.22753
 C2148 C 0.78447 0.84387 0.23035
 N2149 N 0.80252 0.84722 0.23152
 N2150 N 0.80943 0.86388 0.23026
 C2151 C 0.77710 0.82535 0.23342
 C2152 C 0.78815 0.81272 0.24187
 C2153 C 0.78151 0.79551 0.24589
 C2154 C 0.76365 0.79005 0.24127
 C2155 C 0.75256 0.80264 0.23255
 C2156 C 0.75919 0.82017 0.22876
 H2157 H 0.83400 0.88808 0.23213
 H2158 H 0.84735 0.91818 0.23440
 H2159 H 0.79515 0.94062 0.22545
 H2160 H 0.78147 0.91012 0.22375
 H2161 H 0.80192 0.81626 0.24600
 H2162 H 0.79042 0.78678 0.25338
 H2163 H 0.73868 0.79911 0.22890
 H2164 H 0.75031 0.82963 0.22226
 C2165 C 0.70129 0.89918 0.75779
 C2166 C 0.69689 0.90594 0.73937
 C2167 C 0.68754 0.92182 0.73804
 C2168 C 0.68210 0.93153 0.75519
 C2169 C 0.68724 0.92497 0.77369
 C2170 C 0.69677 0.90907 0.77494
 C2171 C 0.70912 0.88115 0.75879
 N2172 N 0.71724 0.87552 0.77541
 N2173 N 0.72316 0.85877 0.77631
 C2174 C 0.72098 0.84702 0.76070
 N2175 N 0.71305 0.85275 0.74411
 N2176 N 0.70731 0.86945 0.74316
 C2177 C 0.72590 0.82800 0.76171
 C2178 C 0.71517 0.81495 0.75165
 C2179 C 0.72002 0.79708 0.75080
 C2180 C 0.73601 0.79160 0.75964
 C2181 C 0.74647 0.80461 0.77043
 C2182 C 0.74136 0.82268 0.77159
 H2183 H 0.70021 0.89866 0.72583
 H2184 H 0.68365 0.92559 0.72341
 H2185 H 0.68418 0.93214 0.78734
 H2186 H 0.70008 0.90423 0.78938
 H2187 H 0.70302 0.81863 0.74414
 H2188 H 0.71140 0.78773 0.74242
 H2189 H 0.75879 0.80098 0.77757
 H2190 H 0.74983 0.83256 0.77950
 C2191 C 0.20851 0.39158 0.25356
 C2192 C 0.20736 0.39981 0.23517
 C2193 C 0.19775 0.41549 0.23325
 C2194 C 0.18919 0.42342 0.24967
 C2195 C 0.19103 0.41577 0.26826
 C2196 C 0.20053 0.39993 0.27018
 C2197 C 0.21695 0.37383 0.25495
 N2198 N 0.21565 0.36425 0.27175
 N2199 N 0.22195 0.34767 0.27235
 C2200 C 0.22983 0.33998 0.25617
 N2201 N 0.23138 0.34969 0.23952
 N2202 N 0.22507 0.36624 0.23892
 C2203 C 0.23545 0.32100 0.25612
 C2204 C 0.24241 0.31297 0.23881
 C2205 C 0.24605 0.29466 0.23798
 C2206 C 0.24243 0.28374 0.25427
 C2207 C 0.23689 0.29210 0.27211
 C2208 C 0.23317 0.31046 0.27294
 H2209 H 0.21340 0.39384 0.22207
 H2210 H 0.19673 0.42128 0.21880
 H2211 H 0.18448 0.42161 0.28114
 H2212 H 0.20123 0.39400 0.28458
 H2213 H 0.24476 0.32073 0.22569
 H2214 H 0.25149 0.28908 0.22437
 H2215 H 0.23467 0.28433 0.28525
 H2216 H 0.22815 0.31629 0.28664
 C2217 C 0.09983 0.25142 0.81081
 C2218 C 0.08492 0.25782 0.80071
 C2219 C 0.06783 0.25776 0.80967
 C2220 C 0.06536 0.25126 0.82884
 C2221 C 0.08032 0.24511 0.83896
 C2222 C 0.09729 0.24515 0.83007
 C2223 C 0.11804 0.25117 0.80166
 N2224 N 0.13184 0.24409 0.81156
 N2225 N 0.14833 0.24397 0.80385
 C2226 C 0.15185 0.25090 0.78585
 N2227 N 0.13803 0.25793 0.77578
 N2228 N 0.12144 0.25805 0.78354
 C2229 C 0.17057 0.25115 0.77803
 C2230 C 0.17500 0.25760 0.75920
 C2231 C 0.19300 0.25819 0.75262
 C2232 C 0.20687 0.25242 0.76481
 C2233 C 0.20223 0.24582 0.78351
 C2234 C 0.18443 0.24510 0.78993
 H2235 H 0.08641 0.26275 0.78587
 H2236 H 0.05651 0.26249 0.80147
 H2237 H 0.07896 0.24038 0.85389
 H2238 H 0.10845 0.24026 0.83841
 H2239 H 0.16461 0.26232 0.74963
 H2240 H 0.19605 0.26338 0.73816
 H2241 H 0.21233 0.24105 0.79339
 H2242 H 0.18164 0.23997 0.80448
 C2243 C 0.60093 0.74698 0.31157
 C2244 C 0.58597 0.75300 0.30125
 C2245 C 0.56888 0.75298 0.31015
 C2246 C 0.56643 0.74690 0.32951
 C2247 C 0.58144 0.74113 0.33985
 C2248 C 0.59844 0.74114 0.33100
 C2249 C 0.61912 0.74666 0.30241
 N2250 N 0.63302 0.73988 0.31244
 N2251 N 0.64946 0.73962 0.30462
 C2252 C 0.65282 0.74611 0.28638
 N2253 N 0.63891 0.75285 0.27622
 N2254 N 0.62238 0.75310 0.28408
 C2255 C 0.67143 0.74615 0.27830
 C2256 C 0.67565 0.75282 0.25952
 C2257 C 0.69354 0.75331 0.25264
 C2258 C 0.70751 0.74718 0.26443
 C2259 C 0.70310 0.74033 0.28309
 C2260 C 0.68538 0.73974 0.28983
 H2261 H 0.58743 0.75760 0.28628
 H2262 H 0.55752 0.75739 0.30178
 H2263 H 0.58009 0.73673 0.35491
 H2264 H 0.60964 0.73656 0.33950
 H2265 H 0.66520 0.75784 0.25024
 H2266 H 0.69641 0.75874 0.23826
 H2267 H 0.71332 0.73532 0.29265
 H2268 H 0.68272 0.73441 0.30432
 C2269 C 0.60320 0.25540 0.19359
 C2270 C 0.58860 0.24463 0.20034
 C2271 C 0.57196 0.24442 0.19060
 C2272 C 0.56961 0.25493 0.17388
 C2273 C 0.58407 0.26597 0.16746
 C2274 C 0.60062 0.26622 0.17717
 C2275 C 0.62124 0.25506 0.20296
 N2276 N 0.63539 0.26436 0.19494
 N2277 N 0.65181 0.26365 0.20258
 C2278 C 0.65489 0.25365 0.21862
 N2279 N 0.64072 0.24446 0.22686
 N2280 N 0.62423 0.24514 0.21916
 C2281 C 0.67353 0.25252 0.22626
 C2282 C 0.67722 0.24522 0.24472
 C2283 C 0.69507 0.24453 0.25149
 C2284 C 0.70953 0.25100 0.23984
 C2285 C 0.70566 0.25802 0.22128
 C2286 C 0.68801 0.25886 0.21469
 H2287 H 0.59011 0.23613 0.21293
 H2288 H 0.56109 0.23568 0.19582
 H2289 H 0.58260 0.27448 0.15487
 H2290 H 0.61146 0.27481 0.17161
 H2291 H 0.66634 0.24020 0.25399
 H2292 H 0.69751 0.23897 0.26579
 H2293 H 0.71623 0.26324 0.21175
 H2294 H 0.68578 0.26446 0.20035
 C2295 C 0.09920 0.75598 0.68839
 C2296 C 0.08514 0.74463 0.69536
 C2297 C 0.06869 0.74300 0.68528
 C2298 C 0.06599 0.75264 0.66801
 C2299 C 0.07995 0.76415 0.66124
 C2300 C 0.09632 0.76580 0.67128
 C2301 C 0.11697 0.75732 0.69839
 N2302 N 0.13059 0.76763 0.69073
 N2303 N 0.14681 0.76841 0.69902
 C2304 C 0.15019 0.75894 0.71539
 N2305 N 0.13653 0.74875 0.72325
 N2306 N 0.12025 0.74795 0.71491
 C2307 C 0.16867 0.75921 0.72371
 C2308 C 0.17239 0.75132 0.74185
 C2309 C 0.19013 0.75113 0.74893
 C2310 C 0.20449 0.75868 0.73794
 C2311 C 0.20059 0.76670 0.71992
 C2312 C 0.18299 0.76707 0.71302
 H2313 H 0.08690 0.73686 0.70846
 H2314 H 0.05822 0.73394 0.69079
 H2315 H 0.07818 0.77203 0.64821
 H2316 H 0.10676 0.77476 0.66551
 H2317 H 0.16163 0.74519 0.75048
 H2318 H 0.19259 0.74482 0.76284
 H2319 H 0.21114 0.77279 0.71097
 H2320 H 0.18071 0.77327 0.69900
 C2321 C 0.89737 0.74623 0.70013
 C2322 C 0.90388 0.73042 0.69127
 C2323 C 0.91931 0.73091 0.67940
 C2324 C 0.92883 0.74733 0.67578
 C2325 C 0.92256 0.76308 0.68544
 C2326 C 0.90707 0.76252 0.69739
 C2327 C 0.87995 0.74569 0.71103
 N2328 N 0.87415 0.76024 0.72163
 N2329 N 0.85783 0.75997 0.73006
 C2330 C 0.84665 0.74516 0.72813
 N2331 N 0.85259 0.73057 0.71782
 N2332 N 0.86888 0.73080 0.70953
 C2333 C 0.82773 0.74533 0.73518
 C2334 C 0.81468 0.73459 0.72515
 C2335 C 0.79656 0.73546 0.73024
 C2336 C 0.79085 0.74657 0.74612
 C2337 C 0.80399 0.75710 0.75651
 C2338 C 0.82226 0.75661 0.75097
 H2339 H 0.89696 0.71754 0.69336
 H2340 H 0.92385 0.71816 0.67351
 H2341 H 0.92887 0.77617 0.68308
 H2342 H 0.90237 0.77499 0.70393
 H2343 H 0.81838 0.72596 0.71272
 H2344 H 0.78699 0.72751 0.72138
 H2345 H 0.80014 0.76612 0.76852
 H2346 H 0.83206 0.76512 0.75891
 C2347 C 0.39968 0.24280 0.20306
 C2348 C 0.40925 0.22757 0.19704
 C2349 C 0.42499 0.22939 0.18575
 C2350 C 0.43145 0.24647 0.17991
 C2351 C 0.42208 0.26176 0.18633
 C2352 C 0.40644 0.25994 0.19787
 C2353 C 0.38225 0.24068 0.21368
 N2354 N 0.37495 0.25479 0.22373
 N2355 N 0.35870 0.25308 0.23214
 C2356 C 0.34906 0.23722 0.23074
 N2357 N 0.35645 0.22308 0.22088
 N2358 N 0.37273 0.22475 0.21263
 C2359 C 0.33023 0.23585 0.23805
 C2360 C 0.31792 0.22359 0.22890
 C2361 C 0.29963 0.22380 0.23368
 C2362 C 0.29314 0.23582 0.24832
 C2363 C 0.30568 0.24747 0.25821
 C2364 C 0.32399 0.24760 0.25300
 H2365 H 0.40451 0.21419 0.20097
 H2366 H 0.43207 0.21735 0.18156
 H2367 H 0.42648 0.27511 0.18194
 H2368 H 0.39931 0.27194 0.20215
 H2369 H 0.32226 0.21447 0.21719
 H2370 H 0.29050 0.21491 0.22531
 H2371 H 0.30129 0.25715 0.26931
 H2372 H 0.33319 0.25719 0.26033
 C2373 C 0.39804 0.75100 0.29124
 C2374 C 0.40113 0.76276 0.30760
 C2375 C 0.41628 0.76117 0.31939
 C2376 C 0.42885 0.74795 0.31501
 C2377 C 0.42626 0.73661 0.29825
 C2378 C 0.41089 0.73803 0.28652
 C2379 C 0.38086 0.75173 0.28027
 N2380 N 0.37553 0.73843 0.26714
 N2381 N 0.35908 0.73823 0.25921
 C2382 C 0.34737 0.75133 0.26415
 N2383 N 0.35295 0.76486 0.27676
 N2384 N 0.36931 0.76507 0.28462
 C2385 C 0.32824 0.74999 0.25818
 C2386 C 0.31538 0.75775 0.27069
 C2387 C 0.29716 0.75591 0.26643
 C2388 C 0.29109 0.74683 0.24906
 C2389 C 0.30396 0.73909 0.23636
 C2390 C 0.32242 0.74052 0.24098
 H2391 H 0.39158 0.77294 0.31172
 H2392 H 0.41814 0.77025 0.33207
 H2393 H 0.43584 0.72633 0.29459
 H2394 H 0.40891 0.72879 0.27401
 H2395 H 0.31934 0.76487 0.28423
 H2396 H 0.28785 0.76185 0.27688
 H2397 H 0.29980 0.73167 0.22309
 H2398 H 0.33209 0.73428 0.23116
 C2399 C 0.89697 0.25554 0.79138
 C2400 C 0.90964 0.24237 0.78676
 C2401 C 0.92506 0.24091 0.79842
 C2402 C 0.92784 0.25238 0.81504
 C2403 C 0.91542 0.26576 0.81936
 C2404 C 0.90024 0.26741 0.80761
 C2405 C 0.87979 0.25638 0.78044
 N2406 N 0.86875 0.27029 0.78410
 N2407 N 0.85233 0.27026 0.77638
 C2408 C 0.84618 0.25634 0.76460
 N2409 N 0.85741 0.24265 0.76032
 N2410 N 0.87391 0.24268 0.76810
 C2411 C 0.82695 0.25531 0.75893
 C2412 C 0.82054 0.24457 0.74287
 C2413 C 0.80197 0.24319 0.73880
 C2414 C 0.78955 0.25229 0.75094
 C2415 C 0.79621 0.26276 0.76711
 C2416 C 0.81456 0.26452 0.77078
 H2417 H 0.90752 0.23304 0.77435
 H2418 H 0.93451 0.23049 0.79483
 H2419 H 0.91742 0.27492 0.83194
 H2420 H 0.89081 0.27771 0.81166
 H2421 H 0.82983 0.23718 0.73358
 H2422 H 0.79736 0.23467 0.72650
 H2423 H 0.78726 0.26970 0.77718
 H2424 H 0.81895 0.27267 0.78347
 C2425 C 0.56722 0.95543 0.63954
 C2426 C 0.58619 0.95653 0.63934
 C2427 C 0.59576 0.96119 0.65649
 C2428 C 0.58664 0.96467 0.67431
 C2429 C 0.56778 0.96242 0.67492
 C2430 C 0.55813 0.95791 0.65766
 C2431 C 0.55722 0.95374 0.62063
 N2432 N 0.53895 0.95475 0.62013
 N2433 N 0.53036 0.95596 0.60298
 C2434 C 0.53971 0.95624 0.58568
 N2435 N 0.55786 0.95462 0.58617
 N2436 N 0.56641 0.95335 0.60325
 C2437 C 0.53094 0.96112 0.56710
 C2438 C 0.54107 0.97078 0.55317
 C2439 C 0.53276 0.97808 0.53703
 C2440 C 0.51416 0.97524 0.53368
 C2441 C 0.50409 0.96492 0.54727
 C2442 C 0.51238 0.95807 0.56393
 H2443 H 0.59369 0.95455 0.62574
 H2444 H 0.61033 0.96254 0.65572
 H2445 H 0.56046 0.96503 0.68853
 H2446 H 0.54354 0.95712 0.65837
 H2447 H 0.55532 0.97374 0.55538
 H2448 H 0.54097 0.98664 0.52767
 H2449 H 0.48967 0.96285 0.54560
 H2450 H 0.50423 0.95079 0.57457
 C2451 C 0.06774 0.45851 1.13501
 C2452 C 0.05997 0.46353 1.15316
 C2453 C 0.07069 0.46663 1.16994
 C2454 C 0.08970 0.46499 1.16907
 C2455 C 0.09703 0.45863 1.15090
 C2456 C 0.08628 0.45552 1.13427
 C2457 C 0.05715 0.45816 1.11650
 N2458 N 0.06581 0.45774 1.09880
 N2459 N 0.05688 0.45989 1.08212
 C2460 C 0.03886 0.46243 1.08237
 N2461 N 0.03001 0.46228 1.09999
 N2462 N 0.03900 0.46023 1.11674
 C2463 C 0.02980 0.46785 1.06423
 C2464 C 0.01132 0.46433 1.06105
 C2465 C 0.00287 0.47098 1.04439
 C2466 C 0.01270 0.48157 1.03086
 C2467 C 0.03116 0.48517 1.03443
 C2468 C 0.03965 0.47806 1.05056
 H2469 H 0.04568 0.46595 1.15424
 H2470 H 0.06389 0.47170 1.18298
 H2471 H 0.11109 0.45552 1.14925
 H2472 H 0.09267 0.45113 1.12063
 H2473 H 0.00340 0.45663 1.07155
 H2474 H -0.01146 0.46836 1.04255
 H2475 H 0.03916 0.49387 1.02501
 H2476 H 0.05382 0.48137 1.05285
 C2477 C -0.06958 0.02884 1.13961
 C2478 C -0.06213 0.03176 1.15846
 C2479 C -0.07224 0.02786 1.17543
 C2480 C -0.09014 0.02071 1.17410
 C2481 C -0.09738 0.01783 1.15494
 C2482 C -0.08734 0.02195 1.13808
 C2483 C -0.05875 0.03219 1.12155
 N2484 N -0.06689 0.03287 1.10368
 N2485 N -0.05716 0.03447 1.08721
 C2486 C -0.03886 0.03544 1.08787
 N2487 N -0.03071 0.03506 1.10578
 N2488 N -0.04045 0.03355 1.12228
 C2489 C -0.02817 0.03468 1.06932
 C2490 C -0.00989 0.03041 1.06959
 C2491 C -0.00090 0.02587 1.05205
 C2492 C -0.01000 0.02536 1.03378
 C2493 C -0.02758 0.03188 1.03347
 C2494 C -0.03661 0.03631 1.05099
 H2495 H -0.04849 0.03722 1.16014
 H2496 H -0.06595 0.03111 1.18948
 H2497 H -0.11058 0.01163 1.15253
 H2498 H -0.09339 0.01921 1.12375
 H2499 H -0.00281 0.02940 1.08344
 H2500 H 0.01286 0.02157 1.05307
 H2501 H -0.03474 0.03323 1.01988
 H2502 H -0.05051 0.04024 1.05018
 C2503 C 0.43437 0.53478 0.64511
 C2504 C 0.44146 0.52660 0.66173
 C2505 C 0.43061 0.52325 0.67827
 C2506 C 0.41244 0.52808 0.67858
 C2507 C 0.40556 0.53686 0.66225
 C2508 C 0.41637 0.54014 0.64571
 C2509 C 0.44522 0.53658 0.62678
 N2510 N 0.43731 0.54112 0.60965
 N2511 N 0.44656 0.54106 0.59275
 C2512 C 0.46416 0.53657 0.59225
 N2513 N 0.47219 0.53243 0.60945
 N2514 N 0.46292 0.53243 0.62636
 C2515 C 0.47371 0.53418 0.57313
 C2516 C 0.49225 0.53104 0.57251
 C2517 C 0.50057 0.52581 0.55478
 C2518 C 0.49051 0.52325 0.53724
 C2519 C 0.47225 0.52778 0.53777
 C2520 C 0.46400 0.53327 0.55540
 H2521 H 0.45524 0.52224 0.66176
 H2522 H 0.43629 0.51633 0.69053
 H2523 H 0.39174 0.54111 0.66220
 H2524 H 0.41051 0.54662 0.63325
 H2525 H 0.50022 0.53190 0.58587
 H2526 H 0.51473 0.52276 0.55518
 H2527 H 0.46399 0.52685 0.52484
 H2528 H 0.44972 0.53588 0.55524
 C2529 C 0.42059 0.47798 -0.14274
 C2530 C 0.40254 0.48324 -0.14245
 C2531 C 0.39425 0.48869 -0.15964
 C2532 C 0.40371 0.48888 -0.17763
 C2533 C 0.42161 0.48319 -0.17813
 C2534 C 0.43001 0.47789 -0.16083
 C2535 C 0.42960 0.47369 -0.12399
 N2536 N 0.44773 0.47158 -0.12312
 N2537 N 0.45589 0.46973 -0.10580
 C2538 C 0.44623 0.46987 -0.08868
 N2539 N 0.42809 0.47141 -0.08969
 N2540 N 0.41996 0.47324 -0.10693
 C2541 C 0.45527 0.47119 -0.06921
 C2542 C 0.44632 0.47958 -0.05337
 C2543 C 0.45537 0.48412 -0.03596
 C2544 C 0.47348 0.47964 -0.03326
 C2545 C 0.48216 0.47014 -0.04869
 C2546 C 0.47320 0.46614 -0.06660
 H2547 H 0.39483 0.48351 -0.12883
 H2548 H 0.38036 0.49271 -0.15888
 H2549 H 0.42923 0.48325 -0.19181
 H2550 H 0.44392 0.47395 -0.16158
 H2551 H 0.43262 0.48392 -0.05488
 H2552 H 0.44826 0.49218 -0.02512
 H2553 H 0.49618 0.46675 -0.04742
 H2554 H 0.48046 0.45968 -0.07861
 C2555 C -0.07899 0.97092 0.35640
 C2556 C -0.06936 0.97013 0.33845
 C2557 C -0.07748 0.97496 0.32079
 C2558 C -0.09529 0.98088 0.32082
 C2559 C -0.10502 0.98119 0.33864
 C2560 C -0.09702 0.97620 0.35617
 C2561 C -0.07017 0.96756 0.37553
 N2562 N -0.08000 0.96785 0.39248
 N2563 N -0.07204 0.96702 0.40996
 C2564 C -0.05388 0.96580 0.41132
 N2565 N -0.04403 0.96492 0.39436
 N2566 N -0.05202 0.96576 0.37680
 C2567 C -0.04505 0.96813 0.43086
 C2568 C -0.02696 0.96383 0.43380
 C2569 C -0.01822 0.96877 0.45159
 C2570 C -0.02731 0.97843 0.46659
 C2571 C -0.04558 0.98212 0.46363
 C2572 C -0.05438 0.97672 0.44630
 H2573 H -0.05546 0.96611 0.33810
 H2574 H -0.06969 0.97460 0.30723
 H2575 H -0.11886 0.98540 0.33902
 H2576 H -0.10491 0.97695 0.36965
 H2577 H -0.01940 0.95722 0.42213
 H2578 H -0.00408 0.96594 0.45307
 H2579 H -0.05303 0.99018 0.47418
 H2580 H -0.06825 0.98048 0.44452
 C2581 C 0.08196 0.51639 0.35034
 C2582 C 0.07260 0.51776 0.33246
 C2583 C 0.08088 0.51321 0.31445
 C2584 C 0.09861 0.50708 0.31401
 C2585 C 0.10807 0.50614 0.33181
 C2586 C 0.09988 0.51077 0.34973
 C2587 C 0.07297 0.51969 0.36967
 N2588 N 0.08216 0.51754 0.38666
 N2589 N 0.07391 0.51879 0.40409
 C2590 C 0.05611 0.52231 0.40536
 N2591 N 0.04694 0.52494 0.38841
 N2592 N 0.05522 0.52365 0.37090
 C2593 C 0.04671 0.52121 0.42466
 C2594 C 0.02952 0.52823 0.42780
 C2595 C 0.02028 0.52541 0.44565
 C2596 C 0.02794 0.51523 0.46051
 C2597 C 0.04527 0.50852 0.45726
 C2598 C 0.05460 0.51173 0.43982
 H2599 H 0.05879 0.52203 0.33240
 H2600 H 0.07327 0.51403 0.30092
 H2601 H 0.12186 0.50179 0.33189
 H2602 H 0.10756 0.50961 0.36316
 H2603 H 0.02311 0.53561 0.41634
 H2604 H 0.00691 0.53063 0.44749
 H2605 H 0.05164 0.50037 0.46806
 H2606 H 0.06775 0.50599 0.43790
 C2607 C 0.57034 0.02538 -0.14471
 C2608 C 0.58717 0.03339 -0.14933
 C2609 C 0.59583 0.02904 -0.16711
 C2610 C 0.58802 0.01629 -0.18054
 C2611 C 0.57084 0.00878 -0.17618
 C2612 C 0.56204 0.01338 -0.15853
 C2613 C 0.56235 0.02817 -0.12486
 N2614 N 0.54448 0.02483 -0.12156
 N2615 N 0.53775 0.02542 -0.10327
 C2616 C 0.54867 0.02922 -0.08756
 N2617 N 0.56645 0.03287 -0.09090
 N2618 N 0.57313 0.03246 -0.10918
 C2619 C 0.54194 0.02682 -0.06725
 C2620 C 0.52412 0.03061 -0.06198
 C2621 C 0.51732 0.02599 -0.04338
 C2622 C 0.52810 0.01707 -0.02992
 C2623 C 0.54603 0.01358 -0.03533
 C2624 C 0.55296 0.01876 -0.05353
 H2625 H 0.59380 0.04283 -0.13905
 H2626 H 0.60878 0.03553 -0.17019
 H2627 H 0.56446 -0.00121 -0.18601
 H2628 H 0.54912 0.00688 -0.15529
 H2629 H 0.51534 0.03673 -0.07242
 H2630 H 0.50336 0.02860 -0.04003
 H2631 H 0.55462 0.00607 -0.02593
 H2632 H 0.56665 0.01535 -0.05736
 C2633 C 0.64067 0.55945 -0.02241
 C2634 C 0.64284 0.57718 -0.01479
 C2635 C 0.65990 0.58533 -0.01282
 C2636 C 0.67536 0.57612 -0.01867
 C2637 C 0.67327 0.55839 -0.02645
 C2638 C 0.65607 0.55010 -0.02822
 C2639 C 0.62235 0.55095 -0.02339
 N2640 N 0.61961 0.53282 -0.02597
 N2641 N 0.60301 0.52536 -0.02496
 C2642 C 0.58856 0.53578 -0.02134
 N2643 N 0.59134 0.55388 -0.01934
 N2644 N 0.60782 0.56128 -0.02035
 C2645 C 0.57030 0.52793 -0.01771
 C2646 C 0.55809 0.53820 -0.00675
 C2647 C 0.54101 0.53134 -0.00241
 C2648 C 0.53518 0.51405 -0.00919
 C2649 C 0.54741 0.50363 -0.02022
 C2650 C 0.56490 0.51046 -0.02432
 H2651 H 0.63134 0.58474 -0.00987
 H2652 H 0.66095 0.59877 -0.00624
 H2653 H 0.68490 0.55097 -0.03125
 H2654 H 0.65483 0.53642 -0.03415
 H2655 H 0.56185 0.55155 -0.00103
 H2656 H 0.53252 0.53974 0.00667
 H2657 H 0.54356 0.49019 -0.02557
 H2658 H 0.57411 0.50220 -0.03273
 C2659 C 0.14088 1.05791 0.48377
 C2660 C 0.15582 1.04884 0.47608
 C2661 C 0.17325 1.05668 0.47772
 C2662 C 0.17601 1.07368 0.48716
 C2663 C 0.16105 1.08250 0.49507
 C2664 C 0.14377 1.07480 0.49330
 C2665 C 0.12227 1.05008 0.48234
 N2666 N 0.10815 1.06055 0.48695
 N2667 N 0.09140 1.05371 0.48691
 C2668 C 0.08791 1.03606 0.48228
 N2669 N 0.10199 1.02553 0.47728
 N2670 N 0.11886 1.03243 0.47728
 C2671 C 0.06918 1.02862 0.48411
 C2672 C 0.06410 1.01098 0.47772
 C2673 C 0.04638 1.00425 0.48074
 C2674 C 0.03349 1.01496 0.49037
 C2675 C 0.03884 1.03257 0.49655
 C2676 C 0.05621 1.03931 0.49332
 H2677 H 0.15404 1.03580 0.46867
 H2678 H 0.18449 1.04957 0.47139
 H2679 H 0.16268 1.09533 0.50294
 H2680 H 0.13265 1.08208 0.49969
 H2681 H 0.07383 1.00237 0.47060
 H2682 H 0.04292 0.99057 0.47590
 H2683 H 0.02988 1.04120 0.50474
 H2684 H 0.05956 1.05285 0.49873
 C2685 C 0.15054 -0.05570 1.01885
 C2686 C 0.15197 -0.07426 1.01500
 C2687 C 0.16871 -0.08219 1.01429
 C2688 C 0.18485 -0.07192 1.01753
 C2689 C 0.18330 -0.05322 1.02160
 C2690 C 0.16640 -0.04526 1.02226
 C2691 C 0.13253 -0.04756 1.01858
 N2692 N 0.13045 -0.02951 1.02134
 N2693 N 0.11416 -0.02245 1.02012
 C2694 C 0.09935 -0.03317 1.01605
 N2695 N 0.10149 -0.05117 1.01357
 N2696 N 0.11766 -0.05819 1.01482
 C2697 C 0.08126 -0.02568 1.01336
 C2698 C 0.06764 -0.03662 1.00454
 C2699 C 0.05066 -0.03001 1.00127
 C2700 C 0.04647 -0.01225 1.00693
 C2701 C 0.06009 -0.00122 1.01590
 C2702 C 0.07736 -0.00785 1.01900
 H2703 H 0.14010 -0.08276 1.01207
 H2704 H 0.16871 -0.09634 1.01013
 H2705 H 0.19500 -0.04462 1.02484
 H2706 H 0.16578 -0.03092 1.02539
 H2707 H 0.07013 -0.05034 0.99970
 H2708 H 0.04098 -0.03892 0.99378
 H2709 H 0.05751 0.01255 1.02040
 H2710 H 0.08760 0.00094 1.02582
 C2711 C 0.65194 0.44381 0.52203
 C2712 C 0.65295 0.42501 0.52034
 C2713 C 0.66950 0.41683 0.51834
 C2714 C 0.68586 0.42712 0.51810
 C2715 C 0.68476 0.44609 0.52017
 C2716 C 0.66804 0.45428 0.52211
 C2717 C 0.63400 0.45210 0.52268
 N2718 N 0.63218 0.47030 0.52350
 N2719 N 0.61589 0.47739 0.52271
 C2720 C 0.60082 0.46654 0.52099
 N2721 N 0.60269 0.44843 0.52054
 N2722 N 0.61887 0.44139 0.52140
 C2723 C 0.58274 0.47389 0.51811
 C2724 C 0.56942 0.46287 0.50888
 C2725 C 0.55244 0.46932 0.50532
 C2726 C 0.54789 0.48691 0.51125
 C2727 C 0.56124 0.49802 0.52061
 C2728 C 0.57856 0.49161 0.52387
 H2729 H 0.64086 0.41644 0.52001
 H2730 H 0.66905 0.40239 0.51590
 H2731 H 0.69672 0.45478 0.52080
 H2732 H 0.66774 0.46883 0.52351
 H2733 H 0.57223 0.44928 0.50385
 H2734 H 0.54309 0.46043 0.49732
 H2735 H 0.55840 0.51171 0.52523
 H2736 H 0.58863 0.50043 0.53097
 C2737 C -0.14149 0.44463 0.47405
 C2738 C -0.15635 0.45526 0.47863
 C2739 C -0.17360 0.44727 0.48061
 C2740 C -0.17634 0.42856 0.47773
 C2741 C -0.16160 0.41809 0.47226
 C2742 C -0.14437 0.42602 0.47054
 C2743 C -0.12288 0.45247 0.47450
 N2744 N -0.10880 0.44168 0.47750
 N2745 N -0.09213 0.44862 0.47943
 C2746 C -0.08878 0.46664 0.47830
 N2747 N -0.10279 0.47748 0.47494
 N2748 N -0.11954 0.47053 0.47317
 C2749 C -0.07039 0.47415 0.48200
 C2750 C -0.06396 0.49008 0.47329
 C2751 C -0.04625 0.49657 0.47677
 C2752 C -0.03476 0.48743 0.48933
 C2753 C -0.04167 0.47183 0.49846
 C2754 C -0.05906 0.46517 0.49464
 H2755 H -0.15454 0.46963 0.48147
 H2756 H -0.18477 0.45566 0.48469
 H2757 H -0.16326 0.40362 0.47013
 H2758 H -0.13321 0.41747 0.46690
 H2759 H -0.07250 0.49731 0.46353
 H2760 H -0.04161 0.50875 0.46963
 H2761 H -0.03368 0.46456 0.50867
 H2762 H -0.06375 0.45305 0.50189
 C2763 C 0.36056 -0.05138 -0.01260
 C2764 C 0.35657 -0.06798 -0.02235
 C2765 C 0.33917 -0.07579 -0.02161
 C2766 C 0.32530 -0.06713 -0.01120
 C2767 C 0.32915 -0.05022 -0.00208
 C2768 C 0.34657 -0.04246 -0.00272
 C2769 C 0.37934 -0.04386 -0.01187
 N2770 N 0.38375 -0.02963 0.00039
 N2771 N 0.40077 -0.02348 0.00193
 C2772 C 0.41412 -0.03125 -0.00877
 N2773 N 0.40969 -0.04535 -0.02121
 N2774 N 0.39267 -0.05154 -0.02270
 C2775 C 0.43319 -0.02500 -0.00618
 C2776 C 0.44680 -0.03142 -0.01878
 C2777 C 0.46488 -0.02627 -0.01557
 C2778 C 0.46988 -0.01504 0.00072
 C2779 C 0.45609 -0.00789 0.01266
 C2780 C 0.43804 -0.01290 0.00934
 H2781 H 0.36701 -0.07525 -0.03006
 H2782 H 0.33677 -0.08894 -0.02858
 H2783 H 0.31872 -0.04303 0.00576
 H2784 H 0.34910 -0.02957 0.00478
 H2785 H 0.44352 -0.04054 -0.03109
 H2786 H 0.47499 -0.03152 -0.02557
 H2787 H 0.45921 0.00123 0.02500
 H2788 H 0.42791 -0.00754 0.01924
 C2789 C 0.35025 1.05226 0.51561
 C2790 C 0.33749 1.04943 0.53074
 C2791 C 0.32046 1.05702 0.52976
 C2792 C 0.31582 1.06725 0.51348
 C2793 C 0.32848 1.06971 0.49823
 C2794 C 0.34547 1.06238 0.49932
 C2795 C 0.36873 1.04542 0.51677
 N2796 N 0.38213 1.05316 0.50591
 N2797 N 0.39880 1.04723 0.50655
 C2798 C 0.40287 1.03323 0.51801
 N2799 N 0.38948 1.02538 0.52892
 N2800 N 0.37273 1.03143 0.52839
 C2801 C 0.42153 1.02670 0.51790
 C2802 C 0.42556 1.00926 0.52374
 C2803 C 0.44305 1.00281 0.52116
 C2804 C 0.45683 1.01373 0.51280
 C2805 C 0.45273 1.03145 0.50795
 C2806 C 0.43546 1.03780 0.51047
 H2807 H 0.34083 1.04174 0.54350
 H2808 H 0.31091 1.05491 0.54169
 H2809 H 0.32540 1.07773 0.48564
 H2810 H 0.35493 1.06475 0.48736
 H2811 H 0.41508 1.00037 0.52954
 H2812 H 0.44556 0.98910 0.52511
 H2813 H 0.46251 1.04031 0.50100
 H2814 H 0.43292 1.05136 0.50594
 C2815 C -0.15174 0.55585 1.01042
 C2816 C -0.16374 0.55421 1.02646
 C2817 C -0.18072 0.56193 1.02584
 C2818 C -0.18602 0.57114 1.00906
 C2819 C -0.17413 0.57239 0.99294
 C2820 C -0.15721 0.56489 0.99363
 C2821 C -0.13328 0.54896 1.01114
 N2822 N -0.12049 0.55554 0.99865
 N2823 N -0.10379 0.54967 0.99899
 C2824 C -0.09909 0.53691 1.01177
 N2825 N -0.11187 0.53020 1.02430
 N2826 N -0.12864 0.53619 1.02405
 C2827 C -0.08039 0.53056 1.01151
 C2828 C -0.07590 0.51388 1.01915
 C2829 C -0.05838 0.50752 1.01675
 C2830 C -0.04503 0.51779 1.00679
 C2831 C -0.04960 0.53480 1.00003
 C2832 C -0.06691 0.54105 1.00234
 H2833 H -0.15986 0.54736 1.03961
 H2834 H -0.18969 0.56075 1.03844
 H2835 H -0.17773 0.57963 0.97994
 H2836 H -0.14834 0.56634 0.98099
 H2837 H -0.08604 0.50550 1.02632
 H2838 H -0.05548 0.49438 1.02223
 H2839 H -0.04006 0.54318 0.99206
 H2840 H -0.06981 0.55405 0.99645
 C2841 C 0.00234 0.65181 0.54107
 C2842 C 0.01648 0.66487 0.54210
 C2843 C 0.01468 0.68068 0.55356
 C2844 C -0.00110 0.68346 0.56457
 C2845 C -0.01532 0.67055 0.56341
 C2846 C -0.01371 0.65496 0.55154
 C2847 C 0.00478 0.63444 0.53033
 N2848 N -0.00958 0.62484 0.52270
 N2849 N -0.00751 0.60848 0.51453
 C2850 C 0.00896 0.60104 0.51387
 N2851 N 0.02334 0.61072 0.52131
 N2852 N 0.02131 0.62715 0.52924
 C2853 C 0.01082 0.58199 0.50758
 C2854 C 0.02214 0.57112 0.51825
 C2855 C 0.02210 0.55257 0.51460
 C2856 C 0.01141 0.54441 0.49950
 C2857 C 0.00073 0.55552 0.48813
 C2858 C 0.00024 0.57410 0.49234
 H2859 H 0.02899 0.66277 0.53417
 H2860 H 0.02580 0.69048 0.55434
 H2861 H -0.02760 0.67250 0.57181
 H2862 H -0.02475 0.64505 0.55116
 H2863 H 0.03019 0.57681 0.53032
 H2864 H 0.02999 0.54457 0.52425
 H2865 H -0.00795 0.54980 0.47663
 H2866 H -0.00867 0.58224 0.48396
 C2867 C 0.51241 0.14958 0.05585
 C2868 C 0.49904 0.16128 0.04993
 C2869 C 0.49676 0.17782 0.05995
 C2870 C 0.50772 0.18292 0.07617
 C2871 C 0.52140 0.17146 0.08168
 C2872 C 0.52374 0.15505 0.07165
 C2873 C 0.51413 0.13140 0.04647
 N2874 N 0.52653 0.12006 0.05323
 N2875 N 0.52745 0.10330 0.04595
 C2876 C 0.51605 0.09708 0.03153
 N2877 N 0.50381 0.10849 0.02445
 N2878 N 0.50286 0.12531 0.03179
 C2879 C 0.51628 0.07789 0.02486
 C2880 C 0.50660 0.07140 0.00818
 C2881 C 0.50614 0.05295 0.00299
 C2882 C 0.51521 0.04063 0.01449
 C2883 C 0.52501 0.04730 0.03101
 C2884 C 0.52570 0.06562 0.03597
 H2885 H 0.49009 0.15751 0.03782
 H2886 H 0.48607 0.18638 0.05541
 H2887 H 0.53028 0.17518 0.09386
 H2888 H 0.53428 0.14650 0.07656
 H2889 H 0.49921 0.08052 -0.00070
 H2890 H 0.49831 0.04834 -0.00971
 H2891 H 0.53215 0.03837 0.04037
 H2892 H 0.53325 0.07005 0.04895
 C2893 C -0.00435 0.14651 0.93686
 C2894 C 0.00415 0.14964 0.91861
 C2895 C 0.00193 0.16575 0.90896
 C2896 C -0.00888 0.17919 0.91723
 C2897 C -0.01732 0.17619 0.93556
 C2898 C -0.01511 0.15998 0.94526
 C2899 C -0.00205 0.12912 0.94668
 N2900 N -0.01010 0.12550 0.96429
 N2901 N -0.00823 0.10958 0.97262
 C2902 C 0.00178 0.09667 0.96367
 N2903 N 0.00991 0.10040 0.94618
 N2904 N 0.00805 0.11625 0.93790
 C2905 C 0.00340 0.07858 0.97212
 C2906 C 0.01142 0.06487 0.96084
 C2907 C 0.01238 0.04756 0.96798
 C2908 C 0.00544 0.04327 0.98675
 C2909 C -0.00205 0.05717 0.99837
 C2910 C -0.00321 0.07460 0.99107
 H2911 H 0.01261 0.13965 0.91170
 H2912 H 0.00892 0.16778 0.89508
 H2913 H -0.02580 0.18628 0.94226
 H2914 H -0.02188 0.15799 0.95928
 H2915 H 0.01670 0.06736 0.94620
 H2916 H 0.01836 0.03745 0.95843
 H2917 H -0.00716 0.05475 1.01297
 H2918 H -0.00932 0.08493 1.00023
 C2919 C 0.49589 0.64482 0.44067
 C2920 C 0.50560 0.64795 0.42314
 C2921 C 0.50335 0.66364 0.41274
 C2922 C 0.49140 0.67669 0.41961
 C2923 C 0.48174 0.67371 0.43720
 C2924 C 0.48388 0.65786 0.44758
 C2925 C 0.49838 0.62792 0.45135
 N2926 N 0.48722 0.62293 0.46638
 N2927 N 0.48927 0.60733 0.47532
 C2928 C 0.50262 0.59616 0.46963
 N2929 N 0.51383 0.60130 0.45477
 N2930 N 0.51176 0.61681 0.44585
 C2931 C 0.50453 0.57828 0.47851
 C2932 C 0.51823 0.56705 0.47176
 C2933 C 0.51930 0.54957 0.47841
 C2934 C 0.50674 0.54264 0.49217
 C2935 C 0.49355 0.55422 0.49968
 C2936 C 0.49239 0.57181 0.49286
 H2937 H 0.51497 0.63823 0.41734
 H2938 H 0.51121 0.66571 0.39942
 H2939 H 0.47240 0.68356 0.44279
 H2940 H 0.47621 0.65586 0.46104
 H2941 H 0.52795 0.57155 0.46082
 H2942 H 0.52980 0.54139 0.47213
 H2943 H 0.48357 0.54956 0.51010
 H2944 H 0.48167 0.58013 0.49843
 C2945 C 0.49674 0.84839 0.44499
 C2946 C 0.48082 0.83760 0.44492
 C2947 C 0.48004 0.82105 0.43453
 C2948 C 0.49525 0.81485 0.42427
 C2949 C 0.51134 0.82533 0.42494
 C2950 C 0.51205 0.84197 0.43509
 C2951 C 0.49716 0.86670 0.45424
 N2952 N 0.50995 0.87909 0.44876
 N2953 N 0.50983 0.89591 0.45602
 C2954 C 0.49698 0.90106 0.46917
 N2955 N 0.48432 0.88863 0.47493
 N2956 N 0.48436 0.87179 0.46753
 C2957 C 0.49642 0.92008 0.47614
 C2958 C 0.48826 0.92497 0.49419
 C2959 C 0.48807 0.94311 0.50052
 C2960 C 0.49579 0.95669 0.48876
 C2961 C 0.50347 0.95166 0.47044
 C2962 C 0.50401 0.93363 0.46439
 H2963 H 0.46879 0.84219 0.45237
 H2964 H 0.46752 0.81313 0.43437
 H2965 H 0.52321 0.82094 0.41705
 H2966 H 0.52454 0.84993 0.43493
 H2967 H 0.48225 0.91477 0.50352
 H2968 H 0.48181 0.94645 0.51455
 H2969 H 0.50947 0.96161 0.46081
 H2970 H 0.51021 0.93032 0.45029
 C2971 C -0.00410 0.35082 0.94727
 C2972 C 0.01139 0.34413 0.93795
 C2973 C 0.01064 0.32765 0.92750
 C2974 C -0.00564 0.31755 0.92597
 C2975 C -0.02102 0.32394 0.93576
 C2976 C -0.02023 0.34036 0.94642
 C2977 C -0.00363 0.36915 0.95651
 N2978 N -0.01714 0.37479 0.96861
 N2979 N -0.01719 0.39176 0.97565
 C2980 C -0.00380 0.40375 0.97071
 N2981 N 0.00978 0.39802 0.95885
 N2982 N 0.00989 0.38108 0.95195
 C2983 C -0.00446 0.42300 0.97675
 C2984 C 0.00369 0.43594 0.96464
 C2985 C 0.00299 0.45419 0.96962
 C2986 C -0.00535 0.46010 0.98726
 C2987 C -0.01366 0.44713 0.99938
 C2988 C -0.01335 0.42873 0.99409
 H2989 H 0.02405 0.35181 0.93839
 H2990 H 0.02267 0.32314 0.92000
 H2991 H -0.03370 0.31631 0.93499
 H2992 H -0.03240 0.34514 0.95341
 H2993 H 0.01040 0.43199 0.95103
 H2994 H 0.00939 0.46363 0.95967
 H2995 H -0.02052 0.45114 1.01285
 H2996 H -0.01985 0.41899 1.00363
 C2997 C 0.49028 0.35162 0.05359
 C2998 C 0.50631 0.34202 0.05324
 C2999 C 0.50762 0.32623 0.06390
 C3000 C 0.49286 0.31957 0.07494
 C3001 C 0.47667 0.32884 0.07478
 C3002 C 0.47543 0.34472 0.06432
 C3003 C 0.48930 0.36923 0.04385
 N3004 N 0.47602 0.38067 0.04883
 N3005 N 0.47568 0.39700 0.04123
 C3006 C 0.48853 0.40259 0.02821
 N3007 N 0.50167 0.39105 0.02291
 N3008 N 0.50208 0.37472 0.03063
 C3009 C 0.48886 0.42137 0.02131
 C3010 C 0.49778 0.42636 0.00380
 C3011 C 0.49849 0.44442 -0.00189
 C3012 C 0.49058 0.45787 0.01002
 C3013 C 0.48175 0.45269 0.02755
 C3014 C 0.48066 0.43474 0.03291
 H3015 H 0.51801 0.34696 0.04516
 H3016 H 0.52020 0.31924 0.06359
 H3017 H 0.46513 0.32411 0.08325
 H3018 H 0.46286 0.35174 0.06487
 H3019 H 0.50423 0.41630 -0.00544
 H3020 H 0.50552 0.44787 -0.01538
 H3021 H 0.47560 0.46253 0.03730
 H3022 H 0.47382 0.43142 0.04657
 C3023 C -0.01091 0.85139 0.55221
 C3024 C -0.02587 0.84450 0.56278
 C3025 C -0.02490 0.82831 0.57271
 C3026 C -0.00890 0.81871 0.57247
 C3027 C 0.00596 0.82540 0.56164
 C3028 C 0.00493 0.84151 0.55150
 C3029 C -0.01163 0.86922 0.54297
 N3030 N 0.00103 0.87469 0.52962
 N3031 N 0.00081 0.89117 0.52225
 C3032 C -0.01202 0.90287 0.52806
 N3033 N -0.02475 0.89731 0.54123
 N3034 N -0.02460 0.88084 0.54846
 C3035 C -0.01156 0.92171 0.52140
 C3036 C -0.01935 0.93509 0.53334
 C3037 C -0.01836 0.95306 0.52800
 C3038 C -0.01002 0.95820 0.51020
 C3039 C -0.00241 0.94476 0.49803
 C3040 C -0.00304 0.92669 0.50367
 H3041 H -0.03830 0.85173 0.56359
 H3042 H -0.03652 0.82356 0.58105
 H3043 H 0.01840 0.81817 0.56106
 H3044 H 0.01670 0.84646 0.54354
 H3045 H -0.02586 0.93176 0.54718
 H3046 H -0.02429 0.96291 0.53793
 H3047 H 0.00425 0.94818 0.48432
 H3048 H 0.00310 0.91662 0.49418
 C3049 C 0.22615 0.31723 0.10871
 C3050 C 0.21081 0.32586 0.10212
 C3051 C 0.21211 0.33755 0.08624
 C3052 C 0.22885 0.34107 0.07710
 C3053 C 0.24415 0.33251 0.08375
 C3054 C 0.24279 0.32060 0.09927
 C3055 C 0.22517 0.30492 0.12549
 N3056 N 0.23786 0.29236 0.12738
 N3057 N 0.23790 0.28194 0.14302
 C3058 C 0.22532 0.28364 0.15752
 N3059 N 0.21245 0.29608 0.15556
 N3060 N 0.21233 0.30647 0.13978
 C3061 C 0.22682 0.27310 0.17567
 C3062 C 0.21741 0.27765 0.19307
 C3063 C 0.22135 0.26941 0.21086
 C3064 C 0.23496 0.25668 0.21166
 C3065 C 0.24320 0.25119 0.19379
 C3066 C 0.23919 0.25925 0.17614
 H3067 H 0.19782 0.32346 0.10911
 H3068 H 0.20016 0.34408 0.08131
 H3069 H 0.25715 0.33496 0.07680
 H3070 H 0.25487 0.31423 0.10409
 H3071 H 0.20766 0.28820 0.19317
 H3072 H 0.21452 0.27390 0.22410
 H3073 H 0.25342 0.24113 0.19332
 H3074 H 0.24643 0.25509 0.16294
 C3075 C 0.71712 0.82441 0.60938
 C3076 C 0.72528 0.84176 0.60963
 C3077 C 0.72817 0.85092 0.59219
 C3078 C 0.72268 0.84320 0.57394
 C3079 C 0.71435 0.82587 0.57362
 C3080 C 0.71169 0.81651 0.59118
 C3081 C 0.71533 0.81463 0.62810
 N3082 N 0.71291 0.79639 0.62833
 N3083 N 0.71363 0.78767 0.64530
 C3084 C 0.71674 0.79691 0.66263
 N3085 N 0.71848 0.81514 0.66237
 N3086 N 0.71777 0.82380 0.64552
 C3087 C 0.72083 0.78760 0.68101
 C3088 C 0.73264 0.79628 0.69452
 C3089 C 0.73813 0.78764 0.71122
 C3090 C 0.73145 0.77022 0.71555
 C3091 C 0.71935 0.76151 0.70217
 C3092 C 0.71421 0.77008 0.68489
 H3093 H 0.72993 0.84817 0.62331
 H3094 H 0.73510 0.86397 0.59305
 H3095 H 0.70979 0.81957 0.55986
 H3096 H 0.70538 0.80315 0.59053
 H3097 H 0.73829 0.80963 0.69184
 H3098 H 0.74780 0.79480 0.72070
 H3099 H 0.71421 0.74797 0.70476
 H3100 H 0.70519 0.76303 0.67458
 C3101 C 0.28124 0.67912 0.60863
 C3102 C 0.28498 0.66067 0.60835
 C3103 C 0.28222 0.65005 0.59119
 C3104 C 0.27556 0.65761 0.57400
 C3105 C 0.27208 0.67608 0.57418
 C3106 C 0.27494 0.68673 0.59127
 C3107 C 0.28299 0.69022 0.62710
 N3108 N 0.28002 0.70816 0.62706
 N3109 N 0.28011 0.71793 0.64383
 C3110 C 0.28321 0.71022 0.66140
 N3111 N 0.28654 0.69233 0.66142
 N3112 N 0.28647 0.68254 0.64462
 C3113 C 0.28084 0.72066 0.68016
 C3114 C 0.28276 0.71261 0.69854
 C3115 C 0.27722 0.72146 0.71594
 C3116 C 0.26916 0.73834 0.71531
 C3117 C 0.26924 0.74712 0.69710
 C3118 C 0.27494 0.73840 0.67981
 H3119 H 0.28982 0.65437 0.62145
 H3120 H 0.28491 0.63581 0.59151
 H3121 H 0.26719 0.68232 0.56106
 H3122 H 0.27191 0.70088 0.59092
 H3123 H 0.28789 0.69917 0.69944
 H3124 H 0.27898 0.71480 0.72966
 H3125 H 0.26397 0.76047 0.69588
 H3126 H 0.27375 0.74528 0.66600
 C3127 C 0.79322 0.18541 0.10669
 C3128 C 0.79792 0.16729 0.10427
 C3129 C 0.79450 0.15785 0.08652
 C3130 C 0.78624 0.16626 0.07075
 C3131 C 0.78213 0.18456 0.07287
 C3132 C 0.78567 0.19407 0.09063
 C3133 C 0.79460 0.19452 0.12640
 N3134 N 0.79215 0.21252 0.12876
 N3135 N 0.79130 0.22020 0.14677
 C3136 C 0.79279 0.21015 0.16311
 N3137 N 0.79567 0.19226 0.16072
 N3138 N 0.79664 0.18464 0.14276
 C3139 C 0.78857 0.21777 0.18291
 C3140 C 0.77969 0.20678 0.19661
 C3141 C 0.77263 0.21418 0.21396
 C3142 C 0.77501 0.23269 0.21869
 C3143 C 0.78484 0.24355 0.20540
 C3144 C 0.79136 0.23620 0.18756
 H3145 H 0.80379 0.16021 0.11631
 H3146 H 0.79767 0.14373 0.08542
 H3147 H 0.77595 0.19143 0.06087
 H3148 H 0.78187 0.20800 0.09201
 H3149 H 0.77700 0.19259 0.19328
 H3150 H 0.76441 0.20540 0.22305
 H3151 H 0.78659 0.25792 0.20815
 H3152 H 0.79809 0.24499 0.17714
 C3153 C 0.72836 0.17856 0.89556
 C3154 C 0.72455 0.16001 0.89734
 C3155 C 0.72927 0.15116 0.91438
 C3156 C 0.73802 0.16060 0.93003
 C3157 C 0.74155 0.17922 0.92846
 C3158 C 0.73666 0.18815 0.91143
 C3159 C 0.72489 0.18741 0.87665
 N3160 N 0.72582 0.20565 0.87528
 N3161 N 0.72433 0.21336 0.85782
 C3162 C 0.72193 0.20311 0.84106
 N3163 N 0.72064 0.18492 0.84251
 N3164 N 0.72200 0.17725 0.85994
 C3165 C 0.72324 0.21123 0.82140
 C3166 C 0.73118 0.20145 0.80587
 C3167 C 0.73507 0.20954 0.78801
 C3168 C 0.73035 0.22743 0.78470
 C3169 C 0.72158 0.23699 0.80001
 C3170 C 0.71827 0.22902 0.81830
 H3171 H 0.71818 0.15221 0.88541
 H3172 H 0.72654 0.13677 0.91508
 H3173 H 0.74812 0.18686 0.94039
 H3174 H 0.73985 0.20243 0.91049
 H3175 H 0.73545 0.18782 0.80790
 H3176 H 0.74245 0.20184 0.77707
 H3177 H 0.71804 0.25087 0.79825
 H3178 H 0.71218 0.23687 0.83012
 C3179 C 0.23763 0.67045 0.38845
 C3180 C 0.23163 0.67736 0.40677
 C3181 C 0.23630 0.66911 0.42434
 C3182 C 0.24720 0.65393 0.42389
 C3183 C 0.25362 0.64747 0.40556
 C3184 C 0.24880 0.65553 0.38811
 C3185 C 0.23260 0.67857 0.36960
 N3186 N 0.23453 0.66902 0.35242
 N3187 N 0.23145 0.67644 0.33519
 C3188 C 0.22626 0.69376 0.33429
 N3189 N 0.22387 0.70325 0.35152
 N3190 N 0.22690 0.69577 0.36886
 C3191 C 0.22561 0.70245 0.31484
 C3192 C 0.22017 0.72029 0.31289
 C3193 C 0.22267 0.72910 0.29492
 C3194 C 0.23091 0.72030 0.27871
 C3195 C 0.23546 0.70218 0.28064
 C3196 C 0.23250 0.69332 0.29820
 H3197 H 0.22304 0.68888 0.40750
 H3198 H 0.23099 0.67434 0.43819
 H3199 H 0.26242 0.63614 0.40465
 H3200 H 0.25397 0.65007 0.37429
 H3201 H 0.21475 0.72769 0.32544
 H3202 H 0.21921 0.74311 0.29419
 H3203 H 0.24245 0.69495 0.26901
 H3204 H 0.23688 0.67960 0.29902
 C3205 C 0.78248 0.82634 0.39479
 C3206 C 0.77871 0.84478 0.39464
 C3207 C 0.77273 0.85371 0.41170
 C3208 C 0.77062 0.84451 0.42941
 C3209 C 0.77526 0.82634 0.42996
 C3210 C 0.78102 0.81728 0.41275
 C3211 C 0.78619 0.81651 0.37591
 N3212 N 0.78591 0.79818 0.37475
 N3213 N 0.78651 0.78948 0.35726
 C3214 C 0.78743 0.79879 0.34025
 N3215 N 0.78840 0.81707 0.34151
 N3216 N 0.78783 0.82572 0.35893
 C3217 C 0.78417 0.78963 0.32087
 C3218 C 0.77535 0.79897 0.30626
 C3219 C 0.76897 0.79001 0.28931
 C3220 C 0.77199 0.77158 0.28579
 C3221 C 0.78177 0.76240 0.29997
 C3222 C 0.78761 0.77130 0.31747
 H3223 H 0.77970 0.85224 0.38114
 H3224 H 0.76948 0.86779 0.41100
 H3225 H 0.77374 0.81900 0.44350
 H3226 H 0.78385 0.80309 0.41339
 H3227 H 0.77213 0.81299 0.30854
 H3228 H 0.76072 0.79751 0.27956
 H3229 H 0.78399 0.74812 0.29813
 H3230 H 0.79428 0.76374 0.32859
 C3231 C 0.27620 0.32735 0.89997
 C3232 C 0.26586 0.31841 0.91438
 C3233 C 0.26010 0.32772 0.93139
 C3234 C 0.26472 0.34610 0.93445
 C3235 C 0.27585 0.35474 0.92046
 C3236 C 0.28141 0.34551 0.90338
 C3237 C 0.28007 0.31839 0.88069
 N3238 N 0.28351 0.32844 0.86456
 N3239 N 0.28475 0.32068 0.84668
 C3240 C 0.28282 0.30252 0.84420
 N3241 N 0.27993 0.29238 0.86039
 N3242 N 0.27853 0.30017 0.87828
 C3243 C 0.28091 0.29434 0.82417
 C3244 C 0.28487 0.27623 0.82026
 C3245 C 0.27999 0.26785 0.80219
 C3246 C 0.27060 0.27729 0.78792
 C3247 C 0.26732 0.29563 0.79179
 C3248 C 0.27279 0.30413 0.80944
 H3249 H 0.26152 0.30445 0.91211
 H3250 H 0.25145 0.32067 0.94177
 H3251 H 0.28012 0.36873 0.92258
 H3252 H 0.28954 0.35272 0.89266
 H3253 H 0.29110 0.26839 0.83145
 H3254 H 0.28251 0.25366 0.80005
 H3255 H 0.25947 0.30330 0.78180
 H3256 H 0.26929 0.31803 0.81215
 C3257 C 0.80626 0.39433 0.76514
 C3258 C 0.82339 0.39746 0.75669
 C3259 C 0.83098 0.41482 0.75602
 C3260 C 0.82174 0.42959 0.76389
 C3261 C 0.80464 0.42654 0.77250
 C3262 C 0.79697 0.40906 0.77312
 C3263 C 0.79825 0.37578 0.76495
 N3264 N 0.78132 0.37214 0.77193
 N3265 N 0.77417 0.35540 0.77085
 C3266 C 0.78368 0.34169 0.76271
 N3267 N 0.80061 0.34539 0.75598
 N3268 N 0.80773 0.36201 0.75708
 C3269 C 0.77587 0.32315 0.76033
 C3270 C 0.78492 0.31065 0.74837
 C3271 C 0.77801 0.29321 0.74555
 C3272 C 0.76185 0.28742 0.75471
 C3273 C 0.75268 0.29995 0.76674
 C3274 C 0.75960 0.31768 0.76947
 H3275 H 0.83095 0.38651 0.75029
 H3276 H 0.84398 0.41671 0.74890
 H3277 H 0.79725 0.43765 0.77882
 H3278 H 0.78376 0.40711 0.77975
 H3279 H 0.79738 0.31433 0.74089
 H3280 H 0.78554 0.28433 0.73596
 H3281 H 0.74016 0.29613 0.77400
 H3282 H 0.75229 0.32705 0.77878
 C3283 C 0.30895 0.88775 0.27117
 C3284 C 0.32743 0.89010 0.26728
 C3285 C 0.33546 0.90724 0.26612
 C3286 C 0.32540 0.92303 0.26895
 C3287 C 0.30676 0.92040 0.27344
 C3288 C 0.29873 0.90309 0.27449
 C3289 C 0.30058 0.86931 0.27065
 N3290 N 0.28258 0.86631 0.27367
 N3291 N 0.27520 0.84970 0.27177
 C3292 C 0.28554 0.83549 0.26671
 N3293 N 0.30350 0.83852 0.26406
 N3294 N 0.31084 0.85501 0.26601
 C3295 C 0.27762 0.81720 0.26272
 C3296 C 0.28721 0.80517 0.25073
 C3297 C 0.28025 0.78798 0.24635
 C3298 C 0.26355 0.78192 0.25410
 C3299 C 0.25382 0.79402 0.26611
 C3300 C 0.26073 0.81156 0.27027
 H3301 H 0.33578 0.87860 0.26450
 H3302 H 0.34945 0.90758 0.26170
 H3303 H 0.29814 0.93151 0.27683
 H3304 H 0.28446 0.90175 0.27776
 H3305 H 0.30011 0.80912 0.24433
 H3306 H 0.28811 0.77955 0.23660
 H3307 H 0.24084 0.79001 0.27224
 H3308 H 0.25300 0.82061 0.27953
 C3309 C 0.19071 0.90015 0.73138
 C3310 C 0.20078 0.91557 0.72576
 C3311 C 0.19297 0.93256 0.72630
 C3312 C 0.17497 0.93443 0.73252
 C3313 C 0.16506 0.91898 0.73825
 C3314 C 0.17276 0.90214 0.73761
 C3315 C 0.19856 0.88200 0.73128
 N3316 N 0.18783 0.86742 0.73530
 N3317 N 0.19458 0.85113 0.73620
 C3318 C 0.21240 0.84857 0.73313
 N3319 N 0.22322 0.86310 0.72879
 N3320 N 0.21642 0.87950 0.72788
 C3321 C 0.21961 0.83034 0.73555
 C3322 C 0.23742 0.82611 0.73044
 C3323 C 0.24376 0.80876 0.73352
 C3324 C 0.23244 0.79536 0.74190
 C3325 C 0.21469 0.79986 0.74694
 C3326 C 0.20838 0.81691 0.74373
 H3327 H 0.21464 0.91452 0.72091
 H3328 H 0.20096 0.94418 0.72170
 H3329 H 0.15135 0.91992 0.74364
 H3330 H 0.16459 0.89066 0.74228
 H3331 H 0.24644 0.83619 0.72413
 H3332 H 0.25754 0.80593 0.72951
 H3333 H 0.20558 0.79043 0.75407
 H3334 H 0.19467 0.81961 0.74814
 C3335 C 0.69215 0.39261 0.23100
 C3336 C 0.70182 0.40764 0.22369
 C3337 C 0.69406 0.42463 0.22379
 C3338 C 0.67650 0.42689 0.23123
 C3339 C 0.66697 0.41184 0.23859
 C3340 C 0.67463 0.39497 0.23840
 C3341 C 0.70008 0.37453 0.23143
 N3342 N 0.68977 0.36017 0.23717
 N3343 N 0.69669 0.34398 0.23840
 C3344 C 0.71428 0.34132 0.23396
 N3345 N 0.72464 0.35563 0.22798
 N3346 N 0.71768 0.37191 0.22673
 C3347 C 0.72181 0.32324 0.23644
 C3348 C 0.73975 0.31950 0.23142
 C3349 C 0.74659 0.30242 0.23474
 C3350 C 0.73568 0.28879 0.24326
 C3351 C 0.71773 0.29273 0.24806
 C3352 C 0.71091 0.30955 0.24463
 H3353 H 0.71535 0.40628 0.21788
 H3354 H 0.70174 0.43594 0.21793
 H3355 H 0.65363 0.41313 0.24493
 H3356 H 0.66680 0.38380 0.24435
 H3357 H 0.74853 0.32977 0.22510
 H3358 H 0.76050 0.30004 0.23087
 H3359 H 0.70888 0.28307 0.25520
 H3360 H 0.69707 0.31188 0.24888
 C3361 C 0.69665 0.60232 0.27175
 C3362 C 0.70698 0.58831 0.26378
 C3363 C 0.69939 0.57088 0.26122
 C3364 C 0.68142 0.56709 0.26683
 C3365 C 0.67134 0.58097 0.27543
 C3366 C 0.67884 0.59837 0.27779
 C3367 C 0.70385 0.62118 0.27262
 N3368 N 0.69240 0.63501 0.27455
 N3369 N 0.69851 0.65203 0.27402
 C3370 C 0.71637 0.65599 0.27169
 N3371 N 0.72793 0.64219 0.27009
 N3372 N 0.72178 0.62511 0.27048
 C3373 C 0.72276 0.67492 0.26952
 C3374 C 0.74075 0.68038 0.27325
 C3375 C 0.74666 0.69822 0.27021
 C3376 C 0.73477 0.71092 0.26304
 C3377 C 0.71679 0.70522 0.25930
 C3378 C 0.71084 0.68761 0.26275
 H3379 H 0.72073 0.59092 0.25895
 H3380 H 0.70750 0.56040 0.25468
 H3381 H 0.65740 0.57852 0.27967
 H3382 H 0.67052 0.60883 0.28403
 H3383 H 0.75027 0.67084 0.27845
 H3384 H 0.76066 0.70189 0.27305
 H3385 H 0.70733 0.71402 0.25278
 H3386 H 0.69698 0.68375 0.25931
 C3387 C 0.19402 0.10887 0.77525
 C3388 C 0.20430 0.09446 0.76817
 C3389 C 0.19633 0.07722 0.76538
 C3390 C 0.17798 0.07401 0.76980
 C3391 C 0.16792 0.08828 0.77755
 C3392 C 0.17582 0.10549 0.78020
 C3393 C 0.20168 0.12757 0.77618
 N3394 N 0.19053 0.14168 0.77766
 N3395 N 0.19704 0.15855 0.77698
 C3396 C 0.21500 0.16210 0.77493
 N3397 N 0.22626 0.14803 0.77383
 N3398 N 0.21972 0.13109 0.77438
 C3399 C 0.22175 0.18086 0.77229
 C3400 C 0.23967 0.18629 0.77650
 C3401 C 0.24582 0.20402 0.77305
 C3402 C 0.23426 0.21656 0.76496
 C3403 C 0.21640 0.21082 0.76065
 C3404 C 0.21019 0.19340 0.76454
 H3405 H 0.21835 0.09661 0.76420
 H3406 H 0.20446 0.06643 0.75955
 H3407 H 0.15371 0.08632 0.78088
 H3408 H 0.16751 0.11625 0.78574
 H3409 H 0.24891 0.17685 0.78242
 H3410 H 0.25973 0.20772 0.77633
 H3411 H 0.20723 0.21941 0.75337
 H3412 H 0.19642 0.18954 0.76068
 C3413 C 0.30042 0.09458 0.23544
 C3414 C 0.31867 0.09258 0.23047
 C3415 C 0.32639 0.07574 0.23095
 C3416 C 0.31610 0.06051 0.23659
 C3417 C 0.29770 0.06235 0.24095
 C3418 C 0.28988 0.07923 0.24022
 C3419 C 0.29300 0.11281 0.23693
 N3420 N 0.27494 0.11536 0.23635
 N3421 N 0.26849 0.13188 0.23849
 C3422 C 0.27986 0.14641 0.24153
 N3423 N 0.29786 0.14381 0.24205
 N3424 N 0.30429 0.12738 0.23974
 C3425 C 0.27304 0.16474 0.24464
 C3426 C 0.28341 0.17759 0.25549
 C3427 C 0.27776 0.19519 0.25786
 C3428 C 0.26175 0.20066 0.24910
 C3429 C 0.25107 0.18759 0.23867
 C3430 C 0.25661 0.16976 0.23658
 H3431 H 0.32712 0.10413 0.22661
 H3432 H 0.34065 0.07478 0.22774
 H3433 H 0.28946 0.05079 0.24525
 H3434 H 0.27579 0.08038 0.24415
 H3435 H 0.29599 0.17405 0.26218
 H3436 H 0.28626 0.20455 0.26638
 H3437 H 0.23856 0.19112 0.23185
 H3438 H 0.24832 0.16006 0.22819
 C3439 C 0.79418 0.60229 0.74255
 C3440 C 0.80219 0.59620 0.75978
 C3441 C 0.81010 0.57947 0.75993
 C3442 C 0.81021 0.56831 0.74286
 C3443 C 0.80184 0.57415 0.72568
 C3444 C 0.79380 0.59098 0.72556
 C3445 C 0.78734 0.62079 0.74236
 N3446 N 0.77654 0.62632 0.72767
 N3447 N 0.77107 0.64328 0.72754
 C3448 C 0.77636 0.65535 0.74200
 N3449 N 0.78704 0.64973 0.75665
 N3450 N 0.79237 0.63285 0.75685
 C3451 C 0.77119 0.67440 0.74195
 C3452 C 0.78189 0.68731 0.75231
 C3453 C 0.77693 0.70514 0.75371
 C3454 C 0.76095 0.71077 0.74500
 C3455 C 0.75045 0.69791 0.73405
 C3456 C 0.75558 0.67989 0.73244
 H3457 H 0.80268 0.60452 0.77317
 H3458 H 0.81668 0.57553 0.77331
 H3459 H 0.80164 0.56577 0.71234
 H3460 H 0.78775 0.59532 0.71205
 H3461 H 0.79415 0.68361 0.75957
 H3462 H 0.78558 0.71439 0.76219
 H3463 H 0.73810 0.70165 0.72702
 H3464 H 0.74709 0.67018 0.72430
 C3465 C 0.89654 0.75938 0.19202
 C3466 C 0.91144 0.75176 0.20081
 C3467 C 0.92802 0.75111 0.19086
 C3468 C 0.93024 0.75792 0.17155
 C3469 C 0.91506 0.76591 0.16319
 C3470 C 0.89865 0.76661 0.17322
 C3471 C 0.87866 0.75945 0.20190
 N3472 N 0.86473 0.76751 0.19321
 N3473 N 0.84837 0.76696 0.20126
 C3474 C 0.84512 0.75833 0.21839
 N3475 N 0.85909 0.75043 0.22732
 N3476 N 0.87554 0.75098 0.21922
 C3477 C 0.82648 0.75703 0.22633
 C3478 C 0.82251 0.75001 0.24502
 C3479 C 0.80460 0.74867 0.25181
 C3480 C 0.79038 0.75419 0.23996
 C3481 C 0.79455 0.76111 0.22127
 C3482 C 0.81225 0.76261 0.21466
 H3483 H 0.91025 0.74601 0.21530
 H3484 H 0.93858 0.74423 0.19818
 H3485 H 0.91570 0.77250 0.14917
 H3486 H 0.88753 0.77285 0.16604
 H3487 H 0.83320 0.74557 0.25436
 H3488 H 0.80191 0.74322 0.26622
 H3489 H 0.78416 0.76566 0.21162
 H3490 H 0.81469 0.76803 0.20018
 C3491 C 0.39749 0.26484 0.69813
 C3492 C 0.41042 0.25257 0.70378
 C3493 C 0.42676 0.25140 0.69347
 C3494 C 0.43048 0.26245 0.67731
 C3495 C 0.41778 0.27505 0.67206
 C3496 C 0.40150 0.27624 0.68233
 C3497 C 0.37952 0.26520 0.70780
 N3498 N 0.36652 0.27553 0.70048
 N3499 N 0.34997 0.27510 0.70811
 C3500 C 0.34566 0.26435 0.72344
 N3501 N 0.35873 0.25422 0.73107
 N3502 N 0.37533 0.25461 0.72337
 C3503 C 0.32680 0.26305 0.73064
 C3504 C 0.32222 0.25536 0.74883
 C3505 C 0.30413 0.25398 0.75497
 C3506 C 0.29033 0.26008 0.74292
 C3507 C 0.29509 0.26758 0.72466
 C3508 C 0.31300 0.26921 0.71875
 H3509 H 0.40776 0.24358 0.71585
 H3510 H 0.43625 0.24147 0.69778
 H3511 H 0.42041 0.28399 0.65993
 H3512 H 0.39194 0.28595 0.67766
 H3513 H 0.33259 0.25047 0.75830
 H3514 H 0.30099 0.24803 0.76903
 H3515 H 0.28499 0.27249 0.71486
 H3516 H 0.31598 0.27508 0.70458
 C3517 C 0.39229 0.74895 0.81206
 C3518 C 0.40687 0.74092 0.80227
 C3519 C 0.42362 0.74001 0.81162
 C3520 C 0.42608 0.74704 0.83097
 C3521 C 0.41154 0.75516 0.84062
 C3522 C 0.39489 0.75611 0.83132
 C3523 C 0.37432 0.74979 0.80264
 N3524 N 0.36022 0.75625 0.81316
 N3525 N 0.34396 0.75693 0.80515
 C3526 C 0.34098 0.75121 0.78620
 N3527 N 0.35509 0.74479 0.77554
 N3528 N 0.37143 0.74408 0.78361
 C3529 C 0.32255 0.75179 0.77784
 C3530 C 0.31903 0.74829 0.75768
 C3531 C 0.30139 0.74904 0.75033
 C3532 C 0.28688 0.75290 0.76307
 C3533 C 0.29069 0.75667 0.78316
 C3534 C 0.30813 0.75608 0.79038
 H3535 H 0.40532 0.73522 0.78747
 H3536 H 0.43456 0.73354 0.80386
 H3537 H 0.41308 0.76102 0.85536
 H3538 H 0.38405 0.76252 0.83930
 H3539 H 0.32990 0.74518 0.74755
 H3540 H 0.29931 0.74678 0.73471
 H3541 H 0.28016 0.76009 0.79359
 H3542 H 0.31024 0.75897 0.80598
 C3543 C 0.89880 0.24601 0.31090
 C3544 C 0.91294 0.25764 0.30469
 C3545 C 0.92959 0.25818 0.31443
 C3546 C 0.93242 0.24713 0.33060
 C3547 C 0.91845 0.23515 0.33639
 C3548 C 0.90189 0.23461 0.32670
 C3549 C 0.88068 0.24609 0.30168
 N3550 N 0.86680 0.23624 0.30949
 N3551 N 0.85030 0.23674 0.30201
 C3552 C 0.84687 0.24708 0.28633
 N3553 N 0.86077 0.25683 0.27829
 N3554 N 0.87734 0.25637 0.28585
 C3555 C 0.82816 0.24799 0.27884
 C3556 C 0.82428 0.25565 0.26061
 C3557 C 0.80641 0.25623 0.25397
 C3558 C 0.79208 0.24928 0.26548
 C3559 C 0.79612 0.24189 0.28381
 C3560 C 0.81382 0.24115 0.29028
 H3561 H 0.91104 0.26660 0.29258
 H3562 H 0.94006 0.26762 0.30969
 H3563 H 0.92031 0.22619 0.34851
 H3564 H 0.89141 0.22534 0.33181
 H3565 H 0.83505 0.26106 0.25144
 H3566 H 0.80384 0.26213 0.23987
 H3567 H 0.78563 0.23631 0.29321
 H3568 H 0.81622 0.23526 0.30445
 C3569 C 0.10285 0.25166 0.30373
 C3570 C 0.09673 0.26785 0.31226
 C3571 C 0.08096 0.26798 0.32370
 C3572 C 0.07094 0.25193 0.32693
 C3573 C 0.07685 0.23581 0.31805
 C3574 C 0.09260 0.23568 0.30661
 C3575 C 0.12016 0.25131 0.29258
 N3576 N 0.12653 0.23553 0.28520
 N3577 N 0.14253 0.23505 0.27618
 C3578 C 0.15285 0.25033 0.27409
 N3579 N 0.14638 0.26615 0.28125
 N3580 N 0.13039 0.26663 0.29027
 C3581 C 0.17134 0.24960 0.26559
 C3582 C 0.18238 0.26528 0.26468
 C3583 C 0.20051 0.26432 0.25919
 C3584 C 0.20824 0.24771 0.25442
 C3585 C 0.19674 0.23218 0.25396
 C3586 C 0.17860 0.23310 0.25952
 H3587 H 0.10427 0.28043 0.31039
 H3588 H 0.07688 0.28060 0.33046
 H3589 H 0.06928 0.22326 0.31994
 H3590 H 0.09682 0.22297 0.30020
 H3591 H 0.17720 0.27831 0.26887
 H3592 H 0.20830 0.27671 0.25911
 H3593 H 0.20191 0.21905 0.25022
 H3594 H 0.17046 0.22074 0.25977
 C3595 C 0.59815 0.75424 0.80006
 C3596 C 0.59141 0.76938 0.81022
 C3597 C 0.57521 0.76812 0.82077
 C3598 C 0.56537 0.75167 0.82153
 C3599 C 0.57186 0.73660 0.81103
 C3600 C 0.58804 0.73789 0.80032
 C3601 C 0.61612 0.75538 0.79035
 N3602 N 0.62202 0.74181 0.77831
 N3603 N 0.63866 0.74248 0.77074
 C3604 C 0.65011 0.75671 0.77499
 N3605 N 0.64410 0.77034 0.78679
 N3606 N 0.62748 0.76972 0.79424
 C3607 C 0.66920 0.75684 0.76842
 C3608 C 0.68209 0.76721 0.77915
 C3609 C 0.70032 0.76646 0.77438
 C3610 C 0.70627 0.75578 0.75827
 C3611 C 0.69329 0.74570 0.74717
 C3612 C 0.67494 0.74612 0.75229
 H3613 H 0.59880 0.78220 0.81032
 H3614 H 0.57067 0.77992 0.82886
 H3615 H 0.56445 0.72379 0.81117
 H3616 H 0.59284 0.72597 0.79267
 H3617 H 0.67820 0.77546 0.79180
 H3618 H 0.70978 0.77417 0.78363
 H3619 H 0.69731 0.73708 0.73489
 H3620 H 0.66528 0.73794 0.74376
 C3621 C 0.59599 0.24312 0.70588
 C3622 C 0.58835 0.22819 0.69535
 C3623 C 0.57286 0.22992 0.68406
 C3624 C 0.56464 0.24663 0.68296
 C3625 C 0.57191 0.26144 0.69396
 C3626 C 0.58739 0.25969 0.70538
 C3627 C 0.61357 0.24164 0.71589
 N3628 N 0.62062 0.25537 0.72745
 N3629 N 0.63725 0.25462 0.73473
 C3630 C 0.64749 0.24013 0.73065
 N3631 N 0.64028 0.22628 0.71948
 N3632 N 0.62368 0.22699 0.71232
 C3633 C 0.66675 0.24020 0.73607
 C3634 C 0.67872 0.23078 0.72387
 C3635 C 0.69715 0.23194 0.72734
 C3636 C 0.70423 0.24199 0.74362
 C3637 C 0.69219 0.25108 0.75622
 C3638 C 0.67361 0.25036 0.75234
 H3639 H 0.59459 0.21521 0.69542
 H3640 H 0.56767 0.21830 0.67562
 H3641 H 0.56571 0.27442 0.69360
 H3642 H 0.59292 0.27146 0.71330
 H3643 H 0.67391 0.22303 0.71106
 H3644 H 0.70586 0.22496 0.71702
 H3645 H 0.69712 0.25913 0.76874
 H3646 H 0.66463 0.25782 0.76193
 C3647 C 0.09775 0.74050 0.20003
 C3648 C 0.08996 0.72606 0.18883
 C3649 C 0.07414 0.72823 0.17824
 C3650 C 0.06576 0.74492 0.17849
 C3651 C 0.07322 0.75924 0.19011
 C3652 C 0.08901 0.75702 0.20086
 C3653 C 0.11554 0.73863 0.20944
 N3654 N 0.12235 0.75141 0.22236
 N3655 N 0.13903 0.75035 0.22940
 C3656 C 0.14958 0.73650 0.22368
 N3657 N 0.14264 0.72360 0.21105
 N3658 N 0.12597 0.72461 0.20414
 C3659 C 0.16878 0.73631 0.22931
 C3660 C 0.18104 0.72803 0.21645
 C3661 C 0.19941 0.72889 0.22045
 C3662 C 0.20608 0.73752 0.23782
 C3663 C 0.19373 0.74545 0.25101
 C3664 C 0.17525 0.74502 0.24667
 H3665 H 0.09631 0.71314 0.18789
 H3666 H 0.06880 0.71701 0.16929
 H3667 H 0.06691 0.77219 0.19075
 H3668 H 0.09466 0.76842 0.20932
 H3669 H 0.17653 0.72139 0.20284
 H3670 H 0.20837 0.72276 0.20975
 H3671 H 0.19835 0.75235 0.26442
 H3672 H 0.16603 0.75154 0.25683
   
