data_POSCAR
  _audit_creation_date              2014-09-24
  _audit_creation_method            'ToBaCCo'
  _symmetry_space_group_name_H-M    'P1'
  _symmetry_Int_Tables_number       1
  _symmetry_cell_setting            triclinic
  loop_
  _symmetry_equiv_pos_as_xyz
 x,y,z
_cell_length_a 59.4404
_cell_length_b 59.5792
_cell_length_c 59.6607
_cell_angle_alpha 89.983500
_cell_angle_beta 89.963700
_cell_angle_gamma 90.013500
loop_
  _atom_site_label
  _atom_site_type_symbol
  _atom_site_fract_x
  _atom_site_fract_y
  _atom_site_fract_z
C1 C 0.35952 1.35977 0.33085
 N2 N 0.34083 1.36903 0.34012
 C3 C 0.33161 1.35983 0.35880
 N4 N 0.34099 1.34129 0.36813
 C5 C 0.35967 1.33203 0.35888
 N6 N 0.36889 1.34123 0.34020
 C7 C 0.35875 0.85978 0.83171
 N8 N 0.36805 0.84114 0.84093
 C9 C 0.35879 0.83184 0.85954
 N10 N 0.34014 0.84110 0.86885
 C11 C 0.33083 0.85974 0.85964
 N12 N 0.34010 0.86904 0.84103
 C13 C 0.85828 1.35904 0.82963
 N14 N 0.83960 1.36827 0.83892
 C15 C 0.83034 1.35900 0.85755
 N16 N 0.83971 1.34042 0.86682
 C17 C 0.85839 1.33117 0.85754
 N18 N 0.86763 1.34045 0.83891
 C19 C 0.86045 0.85977 0.33122
 N20 N 0.86975 0.84113 0.34045
 C21 C 0.86047 0.83184 0.35905
 N22 N 0.84181 0.84110 0.36834
 C23 C 0.83251 0.85973 0.35912
 N24 N 0.84179 0.86902 0.34052
 C25 C 0.63965 0.64016 0.33183
 N26 N 0.65834 0.63100 0.34113
 C27 C 0.66757 0.64035 0.35971
 N28 N 0.65818 0.65895 0.36891
 C29 C 0.63948 0.66811 0.35962
 N30 N 0.63026 0.65876 0.34103
 C31 C 0.64119 0.14067 0.83031
 N32 N 0.65981 0.13133 0.83959
 C33 C 0.66903 0.14048 0.85829
 N34 N 0.65970 0.15906 0.86761
 C35 C 0.64108 0.16840 0.85833
 N36 N 0.63187 0.15924 0.83964
 C37 C 1.13941 0.64014 0.83154
 N38 N 1.13006 0.65875 0.84079
 C39 C 1.13925 0.66798 0.85945
 N40 N 1.15787 0.65869 0.86878
 C41 C 1.16722 0.64009 0.85954
 N42 N 1.15803 0.63086 0.84087
 C43 C 1.14143 0.14009 0.33036
 N44 N 1.16010 0.13091 0.33972
 C45 C 1.16923 0.14021 0.35838
 N46 N 1.15977 0.15877 0.36761
 C47 C 1.14111 0.16795 0.35826
 N48 N 1.13199 0.15865 0.33960
 C49 C 0.64021 1.36035 0.66795
 N50 N 0.65887 1.36976 0.65878
 C51 C 0.66827 1.36064 0.64016
 N52 N 0.65910 1.34201 0.63080
 C53 C 0.64044 1.33259 0.63996
 N54 N 0.63105 1.34172 0.65857
 C55 C 0.63964 0.85936 1.16949
 N56 N 0.65828 0.86877 1.16029
 C57 C 0.66768 0.85962 1.14168
 N58 N 0.65851 0.84097 1.13235
 C59 C 0.63987 0.83156 1.14154
 N60 N 0.63048 0.84071 1.16016
 C61 C 1.14044 1.35996 1.16888
 N62 N 1.15908 1.36932 1.15962
 C63 C 1.16837 1.36016 1.14097
 N64 N 1.15912 1.34154 1.13166
 C65 C 1.14049 1.33217 1.14092
 N66 N 1.13119 1.34134 1.15957
 C67 C 1.14097 0.85899 0.66884
 N68 N 1.13188 0.84033 0.65944
 C69 C 1.14135 0.83125 0.64083
 N70 N 1.15998 0.84074 0.63170
 C71 C 1.16908 0.85940 0.64110
 N72 N 1.15960 0.86848 0.65971
 C73 C 0.35898 0.64058 0.66860
 N74 N 0.36826 0.65928 0.65945
 C75 C 0.35908 0.66855 0.64080
 N76 N 0.34054 0.65920 0.63137
 C77 C 0.33126 0.64050 0.64051
 N78 N 0.34044 0.63124 0.65917
 C79 C 0.35899 0.14011 1.16967
 N80 N 0.34038 0.13075 1.16038
 C81 C 0.33111 0.13995 1.14173
 N82 N 0.34038 0.15859 1.13245
 C83 C 0.35899 0.16795 1.14173
 N84 N 0.36825 0.15875 1.16038
 C85 C 0.86065 0.63949 1.16782
 N86 N 0.86983 0.65822 1.15865
 C87 C 0.86050 0.66752 1.14009
 N88 N 0.84188 0.65818 1.13080
 C89 C 0.83270 0.63945 1.13997
 N90 N 0.84203 0.63016 1.15853
 C91 C 0.85884 0.14048 0.66983
 N92 N 0.84024 0.13120 0.66044
 C93 C 0.83109 0.14046 0.64176
 N94 N 0.84046 0.15907 0.63256
 C95 C 0.85906 0.16836 0.64193
 N96 N 0.86821 0.15910 0.66060
 C97 C 1.35968 0.35843 0.67007
 N98 N 1.36909 0.33985 0.66083
 C99 C 1.35992 0.33056 0.64218
 N100 N 1.34126 0.33977 0.63286
 C101 C 1.33184 0.35835 0.64209
 N102 N 1.34101 0.36763 0.66074
 C103 C 1.36006 0.85877 1.16855
 N104 N 1.36928 0.84010 1.15930
 C105 C 1.35996 0.83085 1.14071
 N106 N 1.34133 0.84019 1.13145
 C107 C 1.33210 0.85886 1.14070
 N108 N 1.34143 0.86810 1.15928
 C109 C 0.86043 0.36014 1.16878
 N110 N 0.84171 0.36930 1.15949
 C111 C 0.83257 0.36002 1.14082
 N112 N 0.84204 0.34150 1.13154
 C113 C 0.86074 0.33234 1.14083
 N114 N 0.86989 0.34162 1.15949
 C115 C 0.86048 0.85977 0.66819
 N116 N 0.86983 0.84120 0.65890
 C117 C 0.86060 0.83195 0.64027
 N118 N 0.84192 0.84120 0.63102
 C119 C 0.83256 0.85977 0.64031
 N120 N 0.84180 0.86902 0.65894
 C121 C 0.63993 0.64034 0.66852
 N122 N 0.63058 0.65896 0.65932
 C123 C 0.63980 0.66828 0.64070
 N124 N 0.65845 0.65906 0.63136
 C125 C 0.66781 0.64044 0.64056
 N126 N 0.65859 0.63112 0.65918
 C127 C 0.63967 1.14105 1.16908
 N128 N 0.65835 1.13187 1.15973
 C129 C 0.66750 1.14118 1.14107
 N130 N 0.65807 1.15974 1.13184
 C131 C 0.63939 1.16892 1.14118
 N132 N 0.63024 1.15962 1.15985
 C133 C 0.14023 0.64165 1.16952
 N134 N 0.13084 0.66030 1.16041
 C135 C 0.14001 0.66971 1.14180
 N136 N 0.15866 0.66053 1.13239
 C137 C 0.16805 0.64188 1.14149
 N138 N 0.15887 0.63248 1.16009
 C139 C 0.13943 1.14080 0.66825
 N140 N 0.13008 1.15941 0.65903
 C141 C 0.13932 1.16874 0.64042
 N142 N 0.15801 1.15954 0.63113
 C143 C 0.16737 1.14093 0.64035
 N144 N 0.15812 1.13161 0.65896
 C145 C 1.36077 0.64071 0.33084
 N146 N 1.36995 0.65939 0.34012
 C147 C 1.36064 0.66853 0.35878
 N148 N 1.34208 0.65908 0.36808
 C149 C 1.33290 0.64041 0.35882
 N150 N 1.34220 0.63127 0.34016
 C151 C 1.35992 1.14135 0.83050
 N152 N 1.34132 1.13200 0.83985
 C153 C 1.33209 1.14120 0.85852
 N154 N 1.34137 1.15984 0.86776
 C155 C 1.35996 1.16920 0.85842
 N156 N 1.36920 1.16000 0.83975
 C157 C 0.85997 0.64057 0.83118
 N158 N 0.86926 0.65920 0.84044
 C159 C 0.86004 0.66839 0.85912
 N160 N 0.84144 0.65903 0.86845
 C161 C 0.83215 0.64041 0.85920
 N162 N 0.84137 0.63122 0.84052
 C163 C 0.86063 1.14093 0.33103
 N164 N 0.84204 1.13157 0.34039
 C165 C 0.83283 1.14076 0.35908
 N166 N 0.84212 1.15938 0.36832
 C167 C 0.86071 1.16875 0.35897
 N168 N 0.86992 1.15957 0.34028
 C169 C 0.64020 0.35842 0.33012
 N170 N 0.65882 0.36785 0.33932
 C171 C 0.66820 0.35871 0.35794
 N172 N 0.65904 0.34006 0.36729
 C173 C 0.64042 0.33062 0.35810
 N174 N 0.63104 0.33976 0.33948
 C175 C 0.63920 0.86020 0.83220
 N176 N 0.65782 0.86956 0.84147
 C177 C 0.66713 0.86036 0.86008
 N178 N 0.65791 0.84169 0.86934
 C179 C 0.63930 0.83232 0.86008
 N180 N 0.62999 0.84153 0.84147
 C181 C 0.13911 0.35919 0.83189
 N182 N 0.12991 0.34052 0.84117
 C183 C 0.13924 0.33132 0.85979
 N184 N 0.15786 0.34071 0.86903
 C185 C 0.16705 0.35938 0.85975
 N186 N 0.15772 0.36857 0.84114
 C187 C 0.13991 0.85978 0.33079
 N188 N 0.13080 0.84105 0.34003
 C189 C 0.14017 0.83185 0.35863
 N190 N 0.15873 0.84132 0.36790
 C191 C 0.16784 0.86005 0.35867
 N192 N 0.15847 0.86924 0.34007
 O193 O 0.97771 0.91926 0.88857
 O194 O 0.97758 0.89312 0.86240
 C195 C 0.96999 0.91142 0.87033
 C196 C 0.95168 0.92348 0.85857
 C197 C 0.94404 0.91615 0.83753
 H198 H 0.95190 0.90177 0.82964
 O199 O 1.02178 1.08120 0.88852
 O200 O 1.02193 1.10728 0.86230
 C201 C 1.02951 1.08900 0.87026
 C202 C 1.04784 1.07693 0.85851
 C203 C 1.05552 1.08426 0.83747
 H204 H 1.04769 1.09865 0.82957
 O205 O 0.88782 0.97864 0.91935
 O206 O 0.86147 0.97855 0.89335
 C207 C 0.86949 0.97095 0.91158
 C208 C 0.85771 0.95265 0.92365
 C209 C 0.83663 0.94494 0.91631
 H210 H 0.82870 0.95272 0.90193
 O211 O 1.11188 1.02176 0.91910
 O212 O 1.13815 1.02169 0.89299
 C213 C 1.13021 1.02937 0.91122
 C214 C 1.14208 1.04771 0.92309
 C215 C 1.16310 1.05536 0.91551
 H216 H 1.17116 1.04711 0.90147
 O217 O 0.91859 0.88873 0.97865
 O218 O 0.89236 0.86256 0.97872
 C219 C 0.91066 0.87047 0.97103
 C220 C 0.92257 0.85865 0.95268
 C221 C 0.91510 0.83760 0.94515
 H222 H 0.90109 0.82948 0.95347
 O223 O 1.08142 1.11169 0.97809
 O224 O 1.10763 1.13788 0.97796
 C225 C 1.08930 1.12995 0.97040
 C226 C 1.07727 1.14176 0.95213
 C227 C 1.08470 1.16281 0.94454
 H228 H 1.09877 1.17091 0.95275
 O229 O 0.91853 1.02239 0.88849
 O230 O 0.89234 1.02239 0.86233
 C231 C 0.91064 1.03005 0.87025
 C232 C 0.92265 1.04840 0.85847
 C233 C 0.91514 1.05618 0.83754
 H234 H 0.90067 1.04840 0.82970
 O235 O 1.08094 0.97803 0.88845
 O236 O 1.10711 0.97794 0.86223
 C237 C 1.08880 0.97034 0.87020
 C238 C 1.07680 0.95200 0.85846
 C239 C 1.08432 0.94427 0.83752
 H240 H 1.09842 0.95247 0.82942
 O241 O 1.02149 0.88843 0.91927
 O242 O 1.02142 0.86212 0.89327
 C243 C 1.02910 0.87010 0.91148
 C244 C 1.04741 0.85828 0.92350
 C245 C 1.05506 0.83723 0.91611
 H246 H 1.04722 0.82937 0.90173
 O247 O 0.97798 1.11210 0.91916
 O248 O 0.97805 1.13834 0.89308
 C249 C 0.97033 1.13039 0.91130
 C250 C 0.95190 1.14215 0.92322
 C251 C 0.94405 1.16307 0.91565
 H252 H 0.95185 1.17090 0.90122
 O253 O 0.88784 1.08136 0.97834
 O254 O 0.86160 1.10753 0.97842
 C255 C 0.86952 1.08927 0.97074
 C256 C 0.85769 1.07737 0.95240
 C257 C 0.83668 1.08491 0.94472
 H258 H 0.82857 1.09896 0.95294
 O259 O 1.11147 0.91891 0.97845
 O260 O 1.13771 0.89275 0.97838
 C261 C 1.12976 0.91101 0.97076
 C262 C 1.14156 0.92292 0.95239
 C263 C 1.16260 0.91540 0.94473
 H264 H 1.17070 0.90137 0.95298
 O265 O 0.97790 1.08138 0.88848
 O266 O 0.97799 1.10748 0.86226
 C267 C 0.97025 1.08926 0.87022
 C268 C 0.95179 1.07737 0.85849
 C269 C 0.94407 1.08489 0.83755
 H270 H 0.95234 1.09892 0.82945
 O271 O 1.02159 0.91904 0.88844
 O272 O 1.02152 0.89289 0.86229
 C273 C 1.02924 0.91113 0.87020
 C274 C 1.04766 0.92304 0.85843
 C275 C 1.05543 0.91553 0.83749
 H276 H 1.04759 0.90112 0.82964
 O277 O 1.11166 0.97798 0.91922
 O278 O 1.13796 0.97787 0.89314
 C279 C 1.12996 0.97026 0.91138
 C280 C 1.14169 0.95190 0.92337
 C281 C 1.16272 0.94412 0.91593
 H282 H 1.17065 0.95190 0.90154
 O283 O 0.88775 1.02241 0.91923
 O284 O 0.86140 1.02239 0.89322
 C285 C 0.86941 1.03005 0.91142
 C286 C 0.85762 1.04839 0.92340
 C287 C 0.83661 1.05617 0.91594
 H288 H 0.82874 1.04840 0.90153
 O289 O 0.91869 1.11206 0.97821
 O290 O 0.89259 1.13836 0.97829
 C291 C 0.91083 1.13036 0.97058
 C292 C 0.92278 1.14210 0.95218
 C293 C 0.91519 1.16301 0.94439
 H294 H 0.90107 1.17109 0.95255
 O295 O 1.08057 0.88825 0.97854
 O296 O 1.10669 0.86196 0.97848
 C297 C 1.08840 0.86996 0.97088
 C298 C 1.07640 0.85823 0.95254
 C299 C 1.08380 0.83718 0.94494
 H300 H 1.09779 0.82900 0.95321
 O301 O 1.08092 1.02182 0.88857
 O302 O 1.10707 1.02177 0.86233
 C303 C 1.08880 1.02946 0.87030
 C304 C 1.07684 1.04783 0.85856
 C305 C 1.08426 1.05539 0.83752
 H306 H 1.09826 1.04708 0.82938
 O307 O 0.91857 0.97861 0.88858
 O308 O 0.89237 0.97854 0.86242
 C309 C 0.91068 0.97092 0.87035
 C310 C 0.92266 0.95256 0.85860
 C311 C 0.91528 0.94500 0.83756
 H312 H 0.90129 0.95332 0.82941
 O313 O 1.02188 1.11197 0.91917
 O314 O 1.02201 1.13822 0.89310
 C315 C 1.02964 1.13022 0.91133
 C316 C 1.04807 1.14193 0.92328
 C317 C 1.05576 1.16298 0.91592
 H318 H 1.04786 1.17093 0.90162
 O319 O 0.97764 0.88855 0.91929
 O320 O 0.97749 0.86225 0.89329
 C321 C 0.96990 0.87026 0.91152
 C322 C 0.95155 0.85854 0.92359
 C323 C 0.94384 0.83749 0.91629
 H324 H 0.95165 0.82957 0.90192
 O325 O 1.11225 1.08097 0.97808
 O326 O 1.13861 1.10703 0.97794
 C327 C 1.13058 1.08878 0.97036
 C328 C 1.14229 1.07676 0.95202
 C329 C 1.16331 1.08419 0.94418
 H330 H 1.17125 1.09861 0.95191
 O331 O 0.88793 0.91961 0.97868
 O332 O 0.86156 0.89356 0.97875
 C333 C 0.86958 0.91179 0.97107
 C334 C 0.85778 0.92372 0.95273
 C335 C 0.83669 0.91628 0.94516
 H336 H 0.82854 0.90230 0.95347
 Cu337 Cu 0.99962 0.90644 0.90649
 Cu338 Cu 0.99948 0.87496 0.87519
 Cu339 Cu 0.99987 1.09405 0.90645
 Cu340 Cu 1.00001 1.12546 0.87506
 Cu341 Cu 0.90580 1.00052 0.90652
 Cu342 Cu 0.87426 1.00045 0.87521
 Cu343 Cu 1.09373 0.99990 0.90646
 Cu344 Cu 1.12521 0.99981 0.87504
 C345 C 0.94101 0.94183 0.86886
 H346 H 0.94660 0.94737 0.88522
 C347 C 0.92586 0.92681 0.82689
 C348 C 1.05848 1.05857 0.86881
 H349 H 1.05286 1.05302 0.88517
 C350 C 1.07371 1.07360 0.82684
 C351 C 0.86804 0.94205 0.94200
 H352 H 0.88444 0.94769 0.94755
 C353 C 0.82599 0.92676 0.92696
 C354 C 1.13193 1.05838 0.94149
 H355 H 1.11558 1.05276 0.94722
 C356 C 1.17384 1.07360 0.92592
 C357 C 0.94093 0.86887 0.94193
 H358 H 0.94659 0.88524 0.94746
 C359 C 0.92563 0.82688 0.92697
 C360 C 1.05880 1.13157 0.94153
 H361 H 1.05317 1.11520 0.94710
 C362 C 1.07406 1.17355 0.92644
 C363 C 0.94110 1.05898 0.86870
 H364 H 0.94678 1.05328 0.88498
 C365 C 0.92575 1.07442 0.82694
 C366 C 1.05834 0.94141 0.86866
 H367 H 1.05265 0.94709 0.88495
 C368 C 1.07376 0.92604 0.82690
 C369 C 1.05806 0.86853 0.94185
 H370 H 1.05246 0.88490 0.94744
 C371 C 1.07324 0.82655 0.92673
 C372 C 0.94127 1.13192 0.94162
 H373 H 0.94702 1.11565 0.94734
 C374 C 0.92570 1.17363 0.92612
 C375 C 0.86790 1.05897 0.94177
 H376 H 0.88425 1.05327 0.94741
 C377 C 0.82600 1.07442 0.92649
 C378 C 1.13136 0.94131 0.94174
 H379 H 1.11500 0.94701 0.94736
 C380 C 1.17330 0.92588 0.92651
 O381 O 1.02187 0.91929 1.11218
 O382 O 1.02184 0.89323 1.13844
 C383 C 1.02955 0.91145 1.13044
 C384 C 1.04797 0.92343 1.14213
 C385 C 1.05570 0.91602 1.16311
 H386 H 1.04783 0.90166 1.17103
 O387 O 0.97842 1.08145 1.11180
 O388 O 0.97846 1.10765 1.13790
 C389 C 0.97076 1.08938 1.13003
 C390 C 0.95234 1.07752 1.14185
 C391 C 0.94471 1.08507 1.16282
 H392 H 0.95303 1.09910 1.17085
 O393 O 0.88818 1.02246 1.08146
 O394 O 0.86189 1.02256 1.10756
 C395 C 0.86986 1.03015 1.08930
 C396 C 0.85806 1.04848 1.07732
 C397 C 0.83703 1.05617 1.08482
 H398 H 0.82893 1.04797 1.09888
 O399 O 1.11203 0.97822 1.08115
 O400 O 1.13840 0.97814 1.10713
 C401 C 1.13034 0.97049 1.08894
 C402 C 1.14201 0.95208 1.07698
 C403 C 1.16304 0.94426 1.08437
 H404 H 1.17101 0.95206 1.09871
 O405 O 1.08073 0.88821 1.02230
 O406 O 1.10685 0.86193 1.02226
 C407 C 1.08860 0.86993 1.02996
 C408 C 1.07668 0.85822 1.04838
 C409 C 1.08420 0.83726 1.05612
 H410 H 1.09823 0.82911 1.04787
 O411 O 0.91894 1.11196 1.02193
 O412 O 0.89285 1.13827 1.02205
 C413 C 0.91116 1.13027 1.02960
 C414 C 0.92326 1.14204 1.04784
 C415 C 0.91593 1.16312 1.05539
 H416 H 0.90190 1.17128 1.04717
 O417 O 0.91891 0.97869 1.11225
 O418 O 0.89276 0.97877 1.13848
 C419 C 0.91104 0.97108 1.13053
 C420 C 0.92298 0.95271 1.14230
 C421 C 0.91552 0.94513 1.16332
 H422 H 0.90151 0.95343 1.17144
 O423 O 1.08145 1.02214 1.11184
 O424 O 1.10765 1.02214 1.13799
 C425 C 1.08937 1.02982 1.13006
 C426 C 1.07743 1.04823 1.14178
 C427 C 1.08493 1.05599 1.16272
 H428 H 1.09934 1.04815 1.17059
 O429 O 0.97789 0.88866 1.08158
 O430 O 0.97778 0.86242 1.10766
 C431 C 0.97016 0.87039 1.08942
 C432 C 0.95180 0.85865 1.07741
 C433 C 0.94412 0.83758 1.08472
 H434 H 0.95198 0.82964 1.09905
 O435 O 1.02234 1.11205 1.08096
 O436 O 1.02241 1.13839 1.10693
 C437 C 1.03005 1.13036 1.08872
 C438 C 1.04844 1.14208 1.07670
 C439 C 1.05618 1.16311 1.08404
 H440 H 1.04834 1.17104 1.09839
 O441 O 0.88796 0.91961 1.02243
 O442 O 0.86160 0.89355 1.02253
 C443 C 0.86964 0.91178 1.03014
 C444 C 0.85791 0.92373 1.04852
 C445 C 0.83689 0.91623 1.05626
 H446 H 0.82874 0.90221 1.04805
 O447 O 1.11226 1.08098 1.02181
 O448 O 1.13862 1.10704 1.02172
 C449 C 1.13061 1.08882 1.02942
 C450 C 1.14238 1.07690 1.04779
 C451 C 1.16341 1.08439 1.05546
 H452 H 1.17156 1.09842 1.04723
 O453 O 1.02231 1.08136 1.11171
 O454 O 1.02240 1.10756 1.13781
 C455 C 1.03003 1.08927 1.12992
 C456 C 1.04842 1.07732 1.14168
 C457 C 1.05615 1.08483 1.16262
 H458 H 1.04793 1.09889 1.17070
 O459 O 0.97799 0.91934 1.11231
 O460 O 0.97789 0.89327 1.13856
 C461 C 0.97029 0.91154 1.13059
 C462 C 0.95197 0.92361 1.14235
 C463 C 0.94426 0.91625 1.16337
 H464 H 0.95207 0.90185 1.17126
 O465 O 1.11219 1.02200 1.08106
 O466 O 1.13854 1.02199 1.10706
 C467 C 1.13055 1.02963 1.08884
 C468 C 1.14237 1.04793 1.07682
 C469 C 1.16341 1.05568 1.08427
 H470 H 1.17127 1.04790 1.09869
 O471 O 0.88807 0.97868 1.08161
 O472 O 0.86178 0.97873 1.10769
 C473 C 0.86974 0.97105 1.08947
 C474 C 0.85793 0.95270 1.07754
 C475 C 0.83691 0.94494 1.08505
 H476 H 0.82905 0.95273 1.09948
 O477 O 1.08156 1.11181 1.02180
 O478 O 1.10778 1.13801 1.02171
 C479 C 1.08947 1.13009 1.02940
 C480 C 1.07753 1.14192 1.04771
 C481 C 1.08501 1.16295 1.05528
 H482 H 1.09907 1.17104 1.04701
 O483 O 0.91871 0.88882 1.02239
 O484 O 0.89248 0.86263 1.02247
 C485 C 0.91080 0.87055 1.03007
 C486 C 0.92277 0.85876 1.04839
 C487 C 0.91536 0.83768 1.05592
 H488 H 0.90136 0.82954 1.04761
 O489 O 1.08127 0.97836 1.11190
 O490 O 1.10749 0.97829 1.13804
 C491 C 1.08915 0.97069 1.13015
 C492 C 1.07713 0.95238 1.14196
 C493 C 1.08460 0.94475 1.16295
 H494 H 1.09868 0.95299 1.17102
 O495 O 0.91895 1.02248 1.11217
 O496 O 0.89281 1.02261 1.13842
 C497 C 0.91111 1.03021 1.13042
 C498 C 0.92317 1.04857 1.14208
 C499 C 0.91576 1.05639 1.16305
 H500 H 0.90133 1.04863 1.17098
 O501 O 0.97845 1.11202 1.08093
 O502 O 0.97849 1.13836 1.10689
 C503 C 0.97081 1.13034 1.08870
 C504 C 0.95244 1.14210 1.07671
 C505 C 0.94485 1.16319 1.08403
 H506 H 0.95278 1.17111 1.09833
 O507 O 1.02175 0.88843 1.08163
 O508 O 1.02172 0.86222 1.10773
 C509 C 1.02939 0.87014 1.08948
 C510 C 1.04772 0.85830 1.07749
 C511 C 1.05548 0.83734 1.08500
 H512 H 1.04770 0.82954 1.09946
 O513 O 1.11153 0.91896 1.02217
 O514 O 1.13778 0.89280 1.02213
 C515 C 1.12986 0.91108 1.02978
 C516 C 1.14174 0.92301 1.04806
 C517 C 1.16277 0.91546 1.05567
 H518 H 1.17082 0.90138 1.04744
 O519 O 0.88794 1.08141 1.02209
 O520 O 0.86170 1.10757 1.02221
 C521 C 0.86967 1.08931 1.02983
 C522 C 0.85792 1.07738 1.04823
 C523 C 0.83689 1.08485 1.05599
 H524 H 0.82897 1.09922 1.04815
 Cu525 Cu 0.99988 0.90654 1.09431
 Cu526 Cu 0.99979 0.87516 1.12573
 Cu527 Cu 1.00038 1.09409 1.09375
 Cu528 Cu 1.00044 1.12563 1.12500
 Cu529 Cu 0.90593 0.90680 1.00053
 Cu530 Cu 0.87435 0.87546 1.00063
 Cu531 Cu 1.09345 0.90620 1.00037
 Cu532 Cu 1.12488 0.87472 1.00031
 Cu533 Cu 0.90596 1.09407 1.00013
 Cu534 Cu 0.87455 1.12557 1.00026
 Cu535 Cu 1.09425 1.09375 0.99995
 Cu536 Cu 1.12581 1.12511 0.99982
 Cu537 Cu 0.90615 1.00057 1.09426
 Cu538 Cu 0.87467 1.00068 1.12567
 Cu539 Cu 1.09411 1.00019 1.09388
 Cu540 Cu 1.12566 1.00013 1.12518
 C541 C 1.05867 0.94174 1.13180
 H542 H 1.05302 0.94734 1.11547
 C543 C 1.07400 0.92658 1.17366
 C544 C 0.94160 1.05913 1.13174
 H545 H 0.94721 1.05341 1.11543
 C546 C 0.92643 1.07463 1.17354
 C547 C 0.86826 1.05905 1.05889
 H548 H 0.88462 1.05340 1.05321
 C549 C 0.82632 1.07435 1.07428
 C550 C 1.13161 0.94146 1.05868
 H551 H 1.11525 0.94718 1.05309
 C552 C 1.17354 0.92596 1.07382
 C553 C 1.05830 0.86849 1.05905
 H554 H 1.05261 0.88480 1.05336
 C555 C 1.07371 0.82668 1.07442
 C556 C 0.94167 1.13177 1.05846
 H557 H 0.94722 1.11537 1.05292
 C558 C 0.92661 1.17383 1.07348
 C559 C 0.94135 0.94198 1.13207
 H560 H 0.94699 0.94755 1.11572
 C561 C 0.92605 0.92690 1.17399
 C562 C 1.05904 1.05888 1.13151
 H563 H 1.05336 1.05320 1.11523
 C564 C 1.07439 1.07427 1.17328
 C565 C 0.94113 0.86899 1.05911
 H566 H 0.94675 0.88538 1.05357
 C567 C 0.92592 0.82695 1.07407
 C568 C 1.05910 1.13173 1.05839
 H569 H 1.05342 1.11538 1.05284
 C570 C 1.07445 1.17368 1.07344
 C571 C 0.86817 0.94210 1.05914
 H572 H 0.88452 0.94778 1.05345
 C573 C 0.82627 0.92670 1.07452
 C574 C 1.13211 1.05853 1.05844
 H575 H 1.11575 1.05286 1.05281
 C576 C 1.17406 1.07390 1.07370
 O577 O 0.97804 0.41828 0.38811
 O578 O 0.97789 0.39213 0.36196
 C579 C 0.97032 0.41043 0.36987
 C580 C 0.95202 0.42250 0.35809
 C581 C 0.94429 0.41513 0.33709
 H582 H 0.95207 0.40070 0.32922
 O583 O 1.02294 0.58041 0.38788
 O584 O 1.02305 0.60646 0.36162
 C585 C 1.03063 0.58820 0.36959
 C586 C 1.04894 0.57612 0.35782
 C587 C 1.05671 0.58355 0.33684
 H588 H 1.04895 0.59801 0.32901
 O589 O 0.88821 0.47791 0.41874
 O590 O 0.86197 0.47797 0.39263
 C591 C 0.86988 0.47030 0.41087
 C592 C 0.85801 0.45198 0.42282
 C593 C 0.83703 0.44420 0.41526
 H594 H 0.82922 0.45197 0.40080
 O595 O 1.11245 0.52080 0.41859
 O596 O 1.13879 0.52062 0.39253
 C597 C 1.13083 0.52835 0.41074
 C598 C 1.14272 0.54667 0.42264
 C599 C 1.16378 0.55425 0.41512
 H600 H 1.17185 0.54598 0.40109
 O601 O 0.91862 0.38805 0.47806
 O602 O 0.89234 0.36191 0.47811
 C603 C 0.91068 0.36978 0.47046
 C604 C 0.92265 0.35792 0.45218
 C605 C 0.91518 0.33687 0.44463
 H606 H 0.90111 0.32878 0.45290
 O607 O 1.08231 0.61096 0.47759
 O608 O 1.10861 0.63708 0.47750
 C609 C 1.09027 0.62920 0.46990
 C610 C 1.07831 0.64100 0.45159
 C611 C 1.08575 0.66205 0.44400
 H612 H 1.09979 0.67017 0.45225
 O613 O 0.91934 0.52152 0.38808
 O614 O 0.89324 0.52167 0.36183
 C615 C 0.91156 0.52922 0.36980
 C616 C 0.92372 0.54747 0.35804
 C617 C 0.91640 0.55514 0.33701
 H618 H 0.90196 0.54737 0.32911
 O619 O 1.08146 0.47713 0.38795
 O620 O 1.10764 0.47690 0.36175
 C621 C 1.08929 0.46938 0.36972
 C622 C 1.07718 0.45109 0.35800
 C623 C 1.08453 0.44338 0.33698
 H624 H 1.09896 0.45117 0.32906
 O625 O 1.02179 0.38747 0.41886
 O626 O 1.02173 0.36117 0.39286
 C627 C 1.02942 0.36915 0.41106
 C628 C 1.04778 0.35737 0.42304
 C629 C 1.05556 0.33640 0.41556
 H630 H 1.04777 0.32855 0.40114
 O631 O 0.97914 0.61132 0.41857
 O632 O 0.97923 0.63750 0.39242
 C633 C 0.97152 0.62960 0.41067
 C634 C 0.95313 0.64145 0.42254
 C635 C 0.94558 0.66248 0.41503
 H636 H 0.95394 0.67056 0.40105
 O637 O 0.88859 0.58109 0.47751
 O638 O 0.86240 0.60730 0.47738
 C639 C 0.87030 0.58899 0.46983
 C640 C 0.85846 0.57697 0.45157
 C641 C 0.83740 0.58440 0.44389
 H642 H 0.82953 0.59883 0.45168
 O643 O 1.11189 0.41810 0.47797
 O644 O 1.13807 0.39187 0.47804
 C645 C 1.13019 0.41014 0.47035
 C646 C 1.14206 0.42200 0.45199
 C647 C 1.16315 0.41451 0.44443
 H648 H 1.17125 0.40051 0.45274
 O649 O 0.97905 0.58042 0.38806
 O650 O 0.97913 0.60646 0.36179
 C651 C 0.97140 0.58825 0.36980
 C652 C 0.95297 0.57633 0.35807
 C653 C 0.94542 0.58374 0.33704
 H654 H 0.95380 0.59768 0.32889
 O655 O 1.02191 0.41820 0.38817
 O656 O 1.02182 0.39205 0.36202
 C657 C 1.02955 0.41030 0.36992
 C658 C 1.04798 0.42218 0.35813
 C659 C 1.05556 0.41473 0.33711
 H660 H 1.04720 0.40076 0.32901
 O661 O 1.11224 0.47703 0.41866
 O662 O 1.13858 0.47680 0.39261
 C663 C 1.13054 0.46926 0.41086
 C664 C 1.14224 0.45093 0.42292
 C665 C 1.16332 0.44319 0.41559
 H666 H 1.17128 0.45097 0.40122
 O667 O 0.88843 0.52170 0.41871
 O668 O 0.86219 0.52181 0.39259
 C669 C 0.87017 0.52943 0.41082
 C670 C 0.85843 0.54785 0.42271
 C671 C 0.83737 0.55550 0.41529
 H672 H 0.82919 0.54720 0.40135
 O673 O 0.91956 0.61168 0.47743
 O674 O 0.89353 0.63804 0.47730
 C675 C 0.91181 0.62998 0.46972
 C676 C 0.92393 0.64166 0.45141
 C677 C 0.91660 0.66269 0.44365
 H678 H 0.90217 0.67064 0.45140
 O679 O 1.08098 0.38745 0.47801
 O680 O 1.10702 0.36110 0.47808
 C681 C 1.08878 0.36913 0.47040
 C682 C 1.07682 0.35739 0.45205
 C683 C 1.08434 0.33642 0.44434
 H684 H 1.09840 0.32830 0.45256
 O685 O 1.08176 0.52091 0.38782
 O686 O 1.10795 0.52074 0.36162
 C687 C 1.08970 0.52851 0.36956
 C688 C 1.07786 0.54695 0.35781
 C689 C 1.08538 0.55461 0.33683
 H690 H 1.09940 0.54631 0.32870
 O691 O 0.91909 0.47774 0.38810
 O692 O 0.89299 0.47784 0.36185
 C693 C 0.91122 0.47011 0.36984
 C694 C 0.92312 0.45169 0.35811
 C695 C 0.91565 0.44410 0.33711
 H696 H 0.90168 0.45245 0.32898
 O697 O 1.02304 0.61113 0.41860
 O698 O 1.02316 0.63733 0.39248
 C699 C 1.03078 0.62938 0.41072
 C700 C 1.04919 0.64112 0.42267
 C701 C 1.05687 0.66216 0.41531
 H702 H 1.04899 0.67009 0.40098
 O703 O 0.97791 0.38769 0.41895
 O704 O 0.97779 0.36138 0.39296
 C705 C 0.97017 0.36941 0.41118
 C706 C 0.95176 0.35772 0.42321
 C707 C 0.94405 0.33668 0.41590
 H708 H 0.95191 0.32873 0.40157
 O709 O 1.11290 0.58003 0.47762
 O710 O 1.13936 0.60599 0.47752
 C711 C 1.13126 0.58777 0.46993
 C712 C 1.14296 0.57570 0.45160
 C713 C 1.16403 0.58306 0.44382
 H714 H 1.17200 0.59744 0.45158
 O715 O 0.88793 0.41891 0.47794
 O716 O 0.86152 0.39291 0.47797
 C717 C 0.86960 0.41110 0.47028
 C718 C 0.85790 0.42302 0.45186
 C719 C 0.83692 0.41550 0.44408
 H720 H 0.82875 0.40146 0.45228
 Cu721 Cu 0.99992 0.40553 0.40613
 Cu722 Cu 0.99980 0.37404 0.37483
 Cu723 Cu 1.00105 0.59321 0.40590
 Cu724 Cu 1.00115 0.62457 0.37445
 Cu725 Cu 0.90638 0.49971 0.40603
 Cu726 Cu 0.87497 0.49984 0.37459
 Cu727 Cu 1.09435 0.49898 0.40586
 Cu728 Cu 1.12588 0.49874 0.37450
 C729 C 0.94144 0.44092 0.36835
 H730 H 0.94709 0.44650 0.38468
 C731 C 0.92611 0.42583 0.32647
 C732 C 1.05949 0.55769 0.36804
 H733 H 1.05380 0.55207 0.38436
 C734 C 1.07491 0.57290 0.32621
 C735 C 0.86819 0.44140 0.44125
 H736 H 0.88452 0.44709 0.44697
 C737 C 0.82636 0.42596 0.42578
 C738 C 1.13256 0.55737 0.44102
 H739 H 1.11617 0.55181 0.44672
 C740 C 1.17456 0.57244 0.42558
 C741 C 0.94109 0.36809 0.44149
 H742 H 0.94675 0.38446 0.44702
 C743 C 0.92578 0.32611 0.42651
 C744 C 1.05989 0.63079 0.44095
 H745 H 1.05425 0.61442 0.44652
 C746 C 1.07513 0.67278 0.42588
 C747 C 0.94215 0.55805 0.36833
 H748 H 0.94770 0.55244 0.38469
 C749 C 0.92714 0.57327 0.32638
 C750 C 1.05876 0.44050 0.36832
 H751 H 1.05320 0.44615 0.38467
 C752 C 1.07382 0.42522 0.32640
 C753 C 1.05840 0.36761 0.44142
 H754 H 1.05270 0.38393 0.44708
 C755 C 1.07384 0.32579 0.42610
 C756 C 0.94234 0.63129 0.44087
 H757 H 0.94789 0.61494 0.44655
 C758 C 0.92732 0.67323 0.42547
 C759 C 0.86872 0.55856 0.44100
 H760 H 0.88511 0.55293 0.44662
 C761 C 0.82672 0.57377 0.42576
 C762 C 1.13187 0.44035 0.44126
 H763 H 1.11547 0.44603 0.44681
 C764 C 1.17391 0.42500 0.42625
 O765 O 1.02156 0.41875 0.61158
 O766 O 1.02149 0.39272 0.63787
 C767 C 1.02921 0.41093 0.62986
 C768 C 1.04762 0.42289 0.64157
 C769 C 1.05523 0.41555 0.66263
 H770 H 1.04726 0.40126 0.67058
 O771 O 0.97862 0.58109 0.61085
 O772 O 0.97871 0.60723 0.63700
 C773 C 0.97096 0.58900 0.62908
 C774 C 0.95250 0.57715 0.64087
 C775 C 0.94489 0.58467 0.66185
 H776 H 0.95323 0.59866 0.66992
 O777 O 0.88820 0.52218 0.58050
 O778 O 0.86186 0.52242 0.60654
 C779 C 0.86990 0.52996 0.58829
 C780 C 0.85820 0.54831 0.57625
 C781 C 0.83714 0.55609 0.58361
 H782 H 0.82918 0.54831 0.59798
 O783 O 1.11217 0.47732 0.58065
 O784 O 1.13841 0.47723 0.60676
 C785 C 1.13043 0.46958 0.58854
 C786 C 1.14215 0.45114 0.57665
 C787 C 1.16312 0.44330 0.58417
 H788 H 1.17101 0.45109 0.59856
 O789 O 1.08082 0.38766 0.52176
 O790 O 1.10685 0.36128 0.52186
 C791 C 1.08859 0.36936 0.52947
 C792 C 1.07655 0.35770 0.54785
 C793 C 1.08395 0.33670 0.55556
 H794 H 1.09797 0.32850 0.54733
 O795 O 0.91953 0.61179 0.52114
 O796 O 0.89348 0.63814 0.52107
 C797 C 0.91174 0.63012 0.52873
 C798 C 0.92377 0.64189 0.54702
 C799 C 0.91634 0.66292 0.55465
 H800 H 0.90229 0.67106 0.54643
 O801 O 0.91876 0.47832 0.61136
 O802 O 0.89255 0.47852 0.63754
 C803 C 0.91080 0.47074 0.62962
 C804 C 0.92263 0.45230 0.64141
 C805 C 0.91497 0.44462 0.66233
 H806 H 0.90091 0.45291 0.67037
 O807 O 1.08149 0.52136 0.61109
 O808 O 1.10757 0.52131 0.63737
 C809 C 1.08934 0.52902 0.62935
 C810 C 1.07740 0.54745 0.64103
 C811 C 1.08477 0.55502 0.66207
 H812 H 1.09872 0.54668 0.67026
 O813 O 0.97763 0.38807 0.58097
 O814 O 0.97751 0.36186 0.60708
 C815 C 0.96989 0.36982 0.58884
 C816 C 0.95150 0.35807 0.57687
 C817 C 0.94372 0.33709 0.58433
 H818 H 0.95152 0.32922 0.59872
 O819 O 1.02275 0.61158 0.58017
 O820 O 1.02288 0.63787 0.60619
 C821 C 1.03054 0.62983 0.58799
 C822 C 1.04904 0.64146 0.57605
 C823 C 1.05687 0.66244 0.58344
 H824 H 1.04901 0.67041 0.59776
 O825 O 0.88792 0.41908 0.52168
 O826 O 0.86150 0.39309 0.52176
 C827 C 0.86955 0.41133 0.52935
 C828 C 0.85780 0.42337 0.54766
 C829 C 0.83673 0.41597 0.55536
 H830 H 0.82857 0.40194 0.54718
 O831 O 1.11294 0.58016 0.52136
 O832 O 1.13940 0.60611 0.52132
 C833 C 1.13130 0.58793 0.52900
 C834 C 1.14298 0.57594 0.54739
 C835 C 1.16398 0.58338 0.55521
 H836 H 1.17195 0.59777 0.54743
 O837 O 1.02250 0.58087 0.61090
 O838 O 1.02263 0.60701 0.63707
 C839 C 1.03020 0.58870 0.62916
 C840 C 1.04846 0.57661 0.64097
 C841 C 1.05609 0.58395 0.66201
 H842 H 1.04826 0.59836 0.66987
 O843 O 0.97768 0.41885 0.61160
 O844 O 0.97753 0.39280 0.63787
 C845 C 0.96993 0.41106 0.62987
 C846 C 0.95155 0.42312 0.64156
 C847 C 0.94363 0.41566 0.66247
 H848 H 0.95133 0.40119 0.67035
 O849 O 1.11242 0.52111 0.58050
 O850 O 1.13863 0.52106 0.60664
 C851 C 1.13075 0.52871 0.58837
 C852 C 1.14267 0.54699 0.57644
 C853 C 1.16368 0.55466 0.58401
 H854 H 1.17170 0.54645 0.59810
 O855 O 0.88802 0.47839 0.58061
 O856 O 0.86167 0.47857 0.60665
 C857 C 0.86965 0.47083 0.58846
 C858 C 0.85781 0.45248 0.57655
 C859 C 0.83675 0.44481 0.58402
 H860 H 0.82887 0.45268 0.59839
 O861 O 1.08226 0.61101 0.52130
 O862 O 1.10858 0.63712 0.52126
 C863 C 1.09023 0.62927 0.52891
 C864 C 1.07827 0.64115 0.54719
 C865 C 1.08584 0.66214 0.55480
 H866 H 1.09997 0.67015 0.54660
 O867 O 0.91852 0.38814 0.52180
 O868 O 0.89223 0.36201 0.52187
 C869 C 0.91055 0.36991 0.52950
 C870 C 0.92246 0.35814 0.54788
 C871 C 0.91492 0.33716 0.55556
 H872 H 0.90086 0.32905 0.54733
 O873 O 1.08126 0.47758 0.61126
 O874 O 1.10735 0.47750 0.63752
 C875 C 1.08903 0.46994 0.62957
 C876 C 1.07689 0.45172 0.64139
 C877 C 1.08424 0.44416 0.66245
 H878 H 1.09832 0.45238 0.67054
 O879 O 0.91902 0.52213 0.61116
 O880 O 0.89284 0.52238 0.63736
 C881 C 0.91118 0.52991 0.62938
 C882 C 0.92329 0.54824 0.64106
 C883 C 0.91590 0.55602 0.66204
 H884 H 0.90146 0.54827 0.66997
 O885 O 0.97884 0.61181 0.58013
 O886 O 0.97892 0.63810 0.60614
 C887 C 0.97123 0.63014 0.58793
 C888 C 0.95289 0.64194 0.57595
 C889 C 0.94520 0.66297 0.58335
 H890 H 0.95307 0.67085 0.59771
 O891 O 1.02150 0.38796 0.58096
 O892 O 1.02145 0.36177 0.60709
 C893 C 1.02913 0.36967 0.58884
 C894 C 1.04748 0.35783 0.57688
 C895 C 1.05515 0.33682 0.58436
 H896 H 1.04730 0.32900 0.59877
 O897 O 1.11191 0.41812 0.52171
 O898 O 1.13807 0.39187 0.52181
 C899 C 1.13018 0.41018 0.52940
 C900 C 1.14200 0.42208 0.54774
 C901 C 1.16297 0.41448 0.55548
 H902 H 1.17104 0.40038 0.54730
 O903 O 0.88858 0.58119 0.52123
 O904 O 0.86239 0.60740 0.52116
 C905 C 0.87029 0.58913 0.52885
 C906 C 0.85842 0.57727 0.54721
 C907 C 0.83736 0.58479 0.55479
 H908 H 0.82927 0.59881 0.54650
 Cu909 Cu 0.99960 0.40602 0.59367
 Cu910 Cu 0.99949 0.37466 0.62511
 Cu911 Cu 1.00067 0.59373 0.59290
 Cu912 Cu 1.00080 0.62519 0.62422
 Cu913 Cu 0.90588 0.40615 0.49986
 Cu914 Cu 0.87425 0.37487 0.49994
 Cu915 Cu 1.09379 0.40546 0.49985
 Cu916 Cu 1.12512 0.37388 0.49996
 Cu917 Cu 0.90667 0.59381 0.49933
 Cu918 Cu 0.87533 0.62536 0.49922
 Cu919 Cu 1.09497 0.59294 0.49948
 Cu920 Cu 1.12664 0.62419 0.49939
 Cu921 Cu 0.90613 0.50024 0.59330
 Cu922 Cu 0.87460 0.50050 0.62465
 Cu923 Cu 1.09422 0.49935 0.59325
 Cu924 Cu 1.12562 0.49927 0.62470
 C925 C 1.05844 0.44112 0.63120
 H926 H 1.05288 0.44666 0.61483
 C927 C 1.07352 0.42609 0.67320
 C928 C 0.94172 0.55879 0.63072
 H929 H 0.94731 0.55310 0.61440
 C930 C 0.92660 0.57423 0.67257
 C931 C 0.86859 0.55889 0.55791
 H932 H 0.88497 0.55319 0.55235
 C933 C 0.82658 0.57431 0.57298
 C934 C 1.13185 0.44055 0.55830
 H935 H 1.11553 0.44630 0.55262
 C936 C 1.17367 0.42497 0.57369
 C937 C 1.05817 0.36802 0.55848
 H938 H 1.05256 0.38437 0.55282
 C939 C 1.07338 0.32613 0.57381
 C940 C 0.94218 0.63165 0.55764
 H941 H 0.94780 0.61529 0.55204
 C942 C 0.92694 0.67359 0.57281
 C943 C 0.94106 0.44158 0.63128
 H944 H 0.94686 0.44722 0.61501
 C945 C 0.92535 0.42630 0.67299
 C946 C 1.05910 0.55822 0.63073
 H947 H 1.05352 0.55265 0.61436
 C948 C 1.07422 0.57326 0.67270
 C949 C 0.94089 0.36835 0.55851
 H950 H 0.94659 0.38467 0.55287
 C951 C 0.92544 0.32650 0.57377
 C952 C 1.05973 0.63106 0.55779
 H953 H 1.05399 0.61474 0.55220
 C954 C 1.07525 0.67292 0.57292
 C955 C 0.86809 0.44177 0.55822
 H956 H 0.88447 0.44737 0.55257
 C957 C 0.82608 0.42656 0.57354
 C958 C 1.13258 0.55761 0.55798
 H959 H 1.11623 0.55198 0.55225
 C960 C 1.17446 0.57285 0.57352
 O961 O 0.47779 0.91950 0.38826
 O962 O 0.47764 0.89335 0.36211
 C963 C 0.47007 0.91165 0.37003
 C964 C 0.45174 0.92370 0.35826
 C965 C 0.44404 0.91630 0.33727
 H966 H 0.45185 0.90189 0.32941
 O967 O 0.52253 1.08126 0.38813
 O968 O 0.52265 1.10739 0.36193
 C969 C 0.53023 1.08910 0.36986
 C970 C 0.54855 1.07704 0.35808
 C971 C 0.55627 1.08443 0.33707
 H972 H 0.54847 1.09884 0.32920
 O973 O 0.38801 0.97898 0.41905
 O974 O 0.36167 0.97905 0.39303
 C975 C 0.36964 0.97139 0.41125
 C976 C 0.35779 0.95309 0.42326
 C977 C 0.33676 0.94536 0.41578
 H978 H 0.32892 0.95313 0.40135
 O979 O 0.61220 1.02182 0.41892
 O980 O 0.63853 1.02170 0.39286
 C981 C 0.63057 1.02939 0.41108
 C982 C 0.64246 1.04768 0.42301
 C983 C 0.66352 1.05527 0.41551
 H984 H 0.67159 1.04702 0.40147
 O985 O 0.41845 0.88913 0.47834
 O986 O 0.39218 0.86299 0.47834
 C987 C 0.41051 0.87088 0.47070
 C988 C 0.42247 0.85906 0.45238
 C989 C 0.41503 0.83798 0.44486
 H990 H 0.40100 0.82987 0.45315
 O991 O 0.58198 1.11179 0.47797
 O992 O 0.60825 1.13794 0.47790
 C993 C 0.58993 1.13003 0.47028
 C994 C 0.57800 1.14181 0.45193
 C995 C 0.58553 1.16280 0.44425
 H996 H 0.59961 1.17089 0.45247
 O997 O 0.41899 1.02262 0.38829
 O998 O 0.39280 1.02277 0.36212
 C999 C 0.41115 1.03033 0.37005
 C1000 C 0.42324 1.04862 0.35828
 C1001 C 0.41580 1.05637 0.33731
 H1002 H 0.40132 1.04862 0.32947
 O1003 O 0.58123 0.97815 0.38824
 O1004 O 0.60744 0.97798 0.36206
 C1005 C 0.58909 0.97043 0.37000
 C1006 C 0.57702 0.95213 0.35827
 C1007 C 0.58446 0.94443 0.33729
 H1008 H 0.59857 0.95260 0.32917
 O1009 O 0.52153 0.88865 0.41900
 O1010 O 0.52144 0.86234 0.39301
 C1011 C 0.52913 0.87032 0.41121
 C1012 C 0.54744 0.85850 0.42322
 C1013 C 0.55508 0.83744 0.41584
 H1014 H 0.54723 0.82957 0.40147
 O1015 O 0.47882 1.11210 0.41897
 O1016 O 0.47890 1.13836 0.39291
 C1017 C 0.47121 1.13042 0.41115
 C1018 C 0.45286 1.14225 0.42310
 C1019 C 0.44523 1.16324 0.41559
 H1020 H 0.45350 1.17130 0.40154
 O1021 O 0.38852 1.08190 0.47816
 O1022 O 0.36234 1.10812 0.47812
 C1023 C 0.37023 1.08983 0.47050
 C1024 C 0.35839 1.07791 0.45218
 C1025 C 0.33734 1.08543 0.44456
 H1026 H 0.32925 1.09948 0.45279
 O1027 O 0.61169 0.91907 0.47814
 O1028 O 0.63787 0.89284 0.47815
 C1029 C 0.62998 0.91112 0.47050
 C1030 C 0.64185 0.92300 0.45216
 C1031 C 0.66292 0.91548 0.44458
 H1032 H 0.67100 0.90146 0.45287
 O1033 O 0.47864 1.08144 0.38822
 O1034 O 0.47872 1.10756 0.36203
 C1035 C 0.47097 1.08934 0.36999
 C1036 C 0.45248 1.07749 0.35827
 C1037 C 0.44481 1.08499 0.33731
 H1038 H 0.45314 1.09897 0.32918
 O1039 O 0.52167 0.91932 0.38824
 O1040 O 0.52158 0.89317 0.36209
 C1041 C 0.52932 0.91140 0.37000
 C1042 C 0.54777 0.92328 0.35823
 C1043 C 0.55547 0.91579 0.33726
 H1044 H 0.54755 0.90144 0.32940
 O1045 O 0.61205 0.97805 0.41890
 O1046 O 0.63840 0.97788 0.39286
 C1047 C 0.63036 0.97030 0.41110
 C1048 C 0.64206 0.95195 0.42312
 C1049 C 0.66312 0.94419 0.41576
 H1050 H 0.67109 0.95197 0.40139
 O1051 O 0.38822 1.02276 0.41903
 O1052 O 0.36188 1.02289 0.39302
 C1053 C 0.36992 1.03050 0.41123
 C1054 C 0.35821 1.04888 0.42322
 C1055 C 0.33717 1.05664 0.41584
 H1056 H 0.32923 1.04883 0.40148
 O1057 O 0.41951 1.11248 0.47815
 O1058 O 0.39347 1.13883 0.47809
 C1059 C 0.41173 1.13078 0.47047
 C1060 C 0.42379 1.14247 0.45211
 C1061 C 0.41638 1.16346 0.44433
 H1062 H 0.40196 1.17140 0.45211
 O1063 O 0.58069 0.88852 0.47818
 O1064 O 0.60674 0.86216 0.47818
 C1065 C 0.58848 0.87020 0.47055
 C1066 C 0.57647 0.85847 0.45223
 C1067 C 0.58385 0.83741 0.44463
 H1068 H 0.59785 0.82924 0.45289
 O1069 O 0.58150 1.02193 0.38814
 O1070 O 0.60769 1.02181 0.36194
 C1071 C 0.58943 1.02954 0.36988
 C1072 C 0.57753 1.04794 0.35811
 C1073 C 0.58501 1.05555 0.33710
 H1074 H 0.59902 1.04724 0.32898
 O1075 O 0.41877 0.97884 0.38829
 O1076 O 0.39258 0.97893 0.36212
 C1077 C 0.41085 0.97121 0.37004
 C1078 C 0.42276 0.95280 0.35829
 C1079 C 0.41529 0.94518 0.33730
 H1080 H 0.40128 0.95347 0.32917
 O1081 O 0.52272 1.11196 0.41886
 O1082 O 0.52283 1.13823 0.39281
 C1083 C 0.53047 1.13022 0.41102
 C1084 C 0.54890 1.14192 0.42297
 C1085 C 0.55669 1.16291 0.41553
 H1086 H 0.54886 1.17081 0.40116
 O1087 O 0.47766 0.88888 0.41907
 O1088 O 0.47752 0.86257 0.39309
 C1089 C 0.46991 0.87060 0.41131
 C1090 C 0.45153 0.85891 0.42336
 C1091 C 0.44385 0.83784 0.41608
 H1092 H 0.45171 0.82990 0.40174
 O1093 O 0.61263 1.08090 0.47804
 O1094 O 0.63904 1.10690 0.47798
 C1095 C 0.63098 1.08868 0.47036
 C1096 C 0.64270 1.07665 0.45203
 C1097 C 0.66376 1.08402 0.44426
 H1098 H 0.67174 1.09839 0.45206
 O1099 O 0.38777 0.92000 0.47836
 O1100 O 0.36137 0.89399 0.47835
 C1101 C 0.36943 0.91220 0.47070
 C1102 C 0.35771 0.92416 0.45233
 C1103 C 0.33668 0.91668 0.44462
 H1104 H 0.32851 0.90268 0.45287
 Cu1105 Cu 0.49967 0.90671 0.40624
 Cu1106 Cu 0.49953 0.87522 0.37495
 Cu1107 Cu 0.50068 1.09407 0.40615
 Cu1108 Cu 0.50078 1.12552 0.37480
 Cu1109 Cu 0.40612 1.00079 0.40627
 Cu1110 Cu 0.37459 1.00093 0.37495
 Cu1111 Cu 0.59412 1.00000 0.40616
 Cu1112 Cu 0.62566 0.99983 0.37480
 C1113 C 0.44113 0.94209 0.36852
 H1114 H 0.44678 0.94768 0.38485
 C1115 C 0.42583 0.92694 0.32665
 C1116 C 0.55916 1.05866 0.36834
 H1117 H 0.55350 1.05307 0.38468
 C1118 C 0.57449 1.07378 0.32645
 C1119 C 0.36801 0.94251 0.44167
 H1120 H 0.38437 0.94816 0.44732
 C1121 C 0.32608 0.92715 0.42635
 C1122 C 0.63230 1.05834 0.44141
 H1123 H 0.61591 1.05277 0.44709
 C1124 C 0.67430 1.07344 0.42601
 C1125 C 0.44086 0.86927 0.44165
 H1126 H 0.44650 0.88565 0.44716
 C1127 C 0.42562 0.82724 0.42673
 C1128 C 0.55954 1.13162 0.44131
 H1129 H 0.55384 1.11530 0.44694
 C1130 C 0.57498 1.17349 0.42607
 C1131 C 0.44172 1.05916 0.36851
 H1132 H 0.44735 1.05348 0.38481
 C1133 C 0.42648 1.07455 0.32669
 C1134 C 0.55853 0.94159 0.36848
 H1135 H 0.55290 0.94725 0.38480
 C1136 C 0.57380 0.92627 0.32665
 C1137 C 0.55812 0.86876 0.44155
 H1138 H 0.55253 0.88514 0.44713
 C1139 C 0.57328 0.82677 0.42644
 C1140 C 0.44218 1.13211 0.44151
 H1141 H 0.44778 1.11578 0.44720
 C1142 C 0.42699 1.17397 0.42606
 C1143 C 0.36857 1.05950 0.44153
 H1144 H 0.38494 1.05381 0.44712
 C1145 C 0.32659 1.07490 0.42640
 C1146 C 0.63168 0.94138 0.44146
 H1147 H 0.61530 0.94707 0.44703
 C1148 C 0.67369 0.92596 0.42640
 O1149 O 0.52156 0.91940 0.61178
 O1150 O 0.52152 0.89331 0.63802
 C1151 C 0.52922 0.91155 0.63004
 C1152 C 0.54762 0.92351 0.64177
 C1153 C 0.55524 0.91615 0.66281
 H1154 H 0.54731 0.90183 0.67074
 O1155 O 0.47852 1.08163 0.61170
 O1156 O 0.47864 1.10779 0.63785
 C1157 C 0.47088 1.08956 0.62994
 C1158 C 0.45240 1.07772 0.64172
 C1159 C 0.44472 1.08529 0.66266
 H1160 H 0.45306 1.09930 0.67072
 O1161 O 0.38817 1.02282 0.58120
 O1162 O 0.36181 1.02301 0.60723
 C1163 C 0.36986 1.03058 0.58899
 C1164 C 0.35816 1.04893 0.57694
 C1165 C 0.33708 1.05668 0.58426
 H1166 H 0.32910 1.04889 0.59862
 O1167 O 0.61198 0.97824 0.58098
 O1168 O 0.63829 0.97807 0.60703
 C1169 C 0.63026 0.97048 0.58880
 C1170 C 0.64198 0.95210 0.57681
 C1171 C 0.66303 0.94434 0.58418
 H1172 H 0.67099 0.95214 0.59853
 O1173 O 0.58070 0.88851 0.52192
 O1174 O 0.60676 0.86216 0.52194
 C1175 C 0.58850 0.87021 0.52958
 C1176 C 0.57649 0.85849 0.54793
 C1177 C 0.58391 0.83747 0.55559
 H1178 H 0.59793 0.82931 0.54733
 O1179 O 0.41943 1.11254 0.52190
 O1180 O 0.39337 1.13888 0.52188
 C1181 C 0.41162 1.13085 0.52955
 C1182 C 0.42358 1.14256 0.54792
 C1183 C 0.41605 1.16350 0.55569
 H1184 H 0.40197 1.17163 0.54751
 O1185 O 0.41871 0.97896 0.61201
 O1186 O 0.39254 0.97908 0.63823
 C1187 C 0.41079 0.97133 0.63027
 C1188 C 0.42270 0.95290 0.64199
 C1189 C 0.41518 0.94514 0.66294
 H1190 H 0.40078 0.95300 0.67083
 O1191 O 0.58140 1.02218 0.61167
 O1192 O 0.60756 1.02205 0.63787
 C1193 C 0.58932 1.02980 0.62992
 C1194 C 0.57747 1.04825 0.64166
 C1195 C 0.58506 1.05595 0.66258
 H1196 H 0.59910 1.04766 0.67066
 O1197 O 0.47760 0.88878 0.58116
 O1198 O 0.47750 0.86251 0.60721
 C1199 C 0.46986 0.87051 0.58899
 C1200 C 0.45145 0.85880 0.57702
 C1201 C 0.44368 0.83780 0.58440
 H1202 H 0.45150 0.82987 0.59876
 O1203 O 0.52253 1.11214 0.58089
 O1204 O 0.52268 1.13846 0.60687
 C1205 C 0.53029 1.13041 0.58865
 C1206 C 0.54869 1.14209 0.57659
 C1207 C 0.55640 1.16316 0.58387
 H1208 H 0.54855 1.17114 0.59819
 O1209 O 0.38779 0.91999 0.52212
 O1210 O 0.36140 0.89398 0.52214
 C1211 C 0.36945 0.91219 0.52980
 C1212 C 0.35773 0.92411 0.54821
 C1213 C 0.33677 0.91654 0.55602
 H1214 H 0.32864 0.90249 0.54783
 O1215 O 0.61267 1.08105 0.52177
 O1216 O 0.63907 1.10707 0.52178
 C1217 C 0.63100 1.08886 0.52945
 C1218 C 0.64269 1.07690 0.54785
 C1219 C 0.66365 1.08439 0.55574
 H1220 H 0.67160 1.09881 0.54799
 O1221 O 0.52242 1.08158 0.61177
 O1222 O 0.52260 1.10774 0.63791
 C1223 C 0.53017 1.08944 0.62999
 C1224 C 0.54853 1.07741 0.64173
 C1225 C 0.55638 1.08489 0.66265
 H1226 H 0.54864 1.09935 0.67050
 O1227 O 0.47769 0.91955 0.61180
 O1228 O 0.47758 0.89344 0.63801
 C1229 C 0.46998 0.91172 0.63006
 C1230 C 0.45163 0.92373 0.64184
 C1231 C 0.44389 0.91623 0.66278
 H1232 H 0.45208 0.90214 0.67084
 O1233 O 0.61215 1.02202 0.58092
 O1234 O 0.63844 1.02189 0.60698
 C1235 C 0.63051 1.02959 0.58876
 C1236 C 0.64240 1.04791 0.57686
 C1237 C 0.66336 1.05562 0.58449
 H1238 H 0.67138 1.04741 0.59858
 O1239 O 0.38793 0.97904 0.58133
 O1240 O 0.36160 0.97914 0.60738
 C1241 C 0.36957 0.97144 0.58917
 C1242 C 0.35775 0.95308 0.57724
 C1243 C 0.33678 0.94524 0.58482
 H1244 H 0.32895 0.95298 0.59928
 O1245 O 0.58185 1.11176 0.52170
 O1246 O 0.60810 1.13793 0.52168
 C1247 C 0.58976 1.13003 0.52931
 C1248 C 0.57778 1.14188 0.54760
 C1249 C 0.58523 1.16294 0.55510
 H1250 H 0.59927 1.17103 0.54679
 O1251 O 0.41842 0.88908 0.52208
 O1252 O 0.39215 0.86294 0.52209
 C1253 C 0.41047 0.87082 0.52972
 C1254 C 0.42239 0.85898 0.54804
 C1255 C 0.41486 0.83797 0.55565
 H1256 H 0.40080 0.82990 0.54740
 O1257 O 0.58108 0.97839 0.61162
 O1258 O 0.60725 0.97822 0.63781
 C1259 C 0.58891 0.97069 0.62987
 C1260 C 0.57682 0.95242 0.64166
 C1261 C 0.58418 0.94484 0.66270
 H1262 H 0.59823 0.95308 0.67082
 O1263 O 0.41891 1.02276 0.61194
 O1264 O 0.39272 1.02296 0.63814
 C1265 C 0.41106 1.03051 0.63018
 C1266 C 0.42315 1.04884 0.64187
 C1267 C 0.41571 1.05668 0.66281
 H1268 H 0.40123 1.04896 0.67070
 O1269 O 0.47864 1.11240 0.58104
 O1270 O 0.47874 1.13870 0.60704
 C1271 C 0.47102 1.13073 0.58885
 C1272 C 0.45265 1.14253 0.57690
 C1273 C 0.44486 1.16347 0.58444
 H1274 H 0.45265 1.17128 0.59888
 O1275 O 0.52147 0.88865 0.58111
 O1276 O 0.52143 0.86241 0.60719
 C1277 C 0.52910 0.87035 0.58895
 C1278 C 0.54744 0.85853 0.57696
 C1279 C 0.55512 0.83751 0.58439
 H1280 H 0.54728 0.82965 0.59879
 O1281 O 0.61164 0.91913 0.52187
 O1282 O 0.63782 0.89291 0.52190
 C1283 C 0.62992 0.91120 0.52952
 C1284 C 0.64178 0.92310 0.54783
 C1285 C 0.66283 0.91559 0.55542
 H1286 H 0.67092 0.90156 0.54715
 O1287 O 0.38855 1.08186 0.52191
 O1288 O 0.36236 1.10807 0.52189
 C1289 C 0.37026 1.08979 0.52954
 C1290 C 0.35839 1.07789 0.54788
 C1291 C 0.33730 1.08538 0.55544
 H1292 H 0.32921 1.09939 0.54713
 Cu1293 Cu 0.49959 0.90671 0.59385
 Cu1294 Cu 0.49950 0.87529 0.62524
 Cu1295 Cu 0.50052 1.09432 0.59375
 Cu1296 Cu 0.50068 1.12581 0.62504
 Cu1297 Cu 0.40574 0.90716 0.50023
 Cu1298 Cu 0.37412 0.87586 0.50023
 Cu1299 Cu 0.59357 0.90644 0.50003
 Cu1300 Cu 0.62492 0.87487 0.50005
 Cu1301 Cu 0.40662 1.09457 0.50003
 Cu1302 Cu 0.37526 1.12612 0.49999
 Cu1303 Cu 0.59466 1.09376 0.49987
 Cu1304 Cu 0.62626 1.12508 0.49983
 Cu1305 Cu 0.40605 1.00088 0.59402
 Cu1306 Cu 0.37453 1.00107 0.62537
 Cu1307 Cu 0.59403 1.00022 0.59369
 Cu1308 Cu 0.62552 1.00003 0.62505
 C1309 C 0.55839 0.94179 0.63144
 H1310 H 0.55282 0.94735 0.61508
 C1311 C 0.57351 0.92672 0.67341
 C1312 C 0.44164 1.05935 0.63158
 H1313 H 0.44727 1.05362 0.61529
 C1314 C 0.42639 1.07490 0.67334
 C1315 C 0.36857 1.05952 0.55861
 H1316 H 0.38496 1.05385 0.55307
 C1317 C 0.32652 1.07489 0.57361
 C1318 C 0.63160 0.94150 0.55850
 H1319 H 0.61523 0.94719 0.55293
 C1320 C 0.67359 0.92609 0.57358
 C1321 C 0.55811 0.86877 0.55859
 H1322 H 0.55249 0.88513 0.55297
 C1323 C 0.57335 0.82685 0.57381
 C1324 C 0.44203 1.13232 0.55850
 H1325 H 0.44773 1.11603 0.55280
 C1326 C 0.42656 1.17409 0.57395
 C1327 C 0.44106 0.94221 0.63169
 H1328 H 0.44676 0.94788 0.61540
 C1329 C 0.42566 0.92680 0.67346
 C1330 C 0.55906 1.05896 0.63149
 H1331 H 0.55331 1.05330 0.61522
 C1332 C 0.57464 1.07426 0.67321
 C1333 C 0.44083 0.86914 0.55870
 H1334 H 0.44653 0.88549 0.55311
 C1335 C 0.42539 0.82724 0.57382
 C1336 C 0.55936 1.13170 0.55832
 H1337 H 0.55372 1.11532 0.55282
 C1338 C 0.57466 1.17372 0.57322
 C1339 C 0.36797 0.94252 0.55880
 H1340 H 0.38429 0.94825 0.55306
 C1341 C 0.32617 0.92696 0.57433
 C1342 C 0.63231 1.05852 0.55840
 H1343 H 0.61600 1.05286 0.55263
 C1344 C 0.67411 1.07387 0.57407
 O1345 O 0.47745 0.41880 0.88841
 O1346 O 0.47734 0.39275 0.86216
 C1347 C 0.46972 0.41100 0.87016
 C1348 C 0.45133 0.42303 0.85846
 C1349 C 0.44355 0.41561 0.83750
 H1350 H 0.45135 0.40120 0.82962
 O1351 O 0.52176 0.58069 0.88859
 O1352 O 0.52192 0.60676 0.86235
 C1353 C 0.52950 0.58849 0.87033
 C1354 C 0.54786 0.57644 0.85861
 C1355 C 0.55559 0.58381 0.83760
 H1356 H 0.54776 0.59820 0.82970
 O1357 O 0.38755 0.47820 0.91931
 O1358 O 0.36118 0.47825 0.89333
 C1359 C 0.36920 0.47056 0.91152
 C1360 C 0.35743 0.45218 0.92349
 C1361 C 0.33637 0.44446 0.91608
 H1362 H 0.32844 0.45231 0.90174
 O1363 O 0.61180 0.52119 0.91935
 O1364 O 0.63807 0.52122 0.89323
 C1365 C 0.63011 0.52885 0.91147
 C1366 C 0.64192 0.54721 0.92337
 C1367 C 0.66296 0.55486 0.91585
 H1368 H 0.67109 0.54658 0.90186
 O1369 O 0.41839 0.38795 0.97823
 O1370 O 0.39213 0.36180 0.97824
 C1371 C 0.41044 0.36970 0.97057
 C1372 C 0.42236 0.35793 0.95220
 C1373 C 0.41485 0.33693 0.94455
 H1374 H 0.40080 0.32881 0.95280
 O1375 O 0.58105 0.61128 0.97824
 O1376 O 0.60730 0.63746 0.97820
 C1377 C 0.58897 0.62955 0.97060
 C1378 C 0.57699 0.64137 0.95231
 C1379 C 0.58440 0.66245 0.94478
 H1380 H 0.59842 0.67057 0.95307
 O1381 O 0.41839 0.52193 0.88853
 O1382 O 0.39216 0.52205 0.86240
 C1383 C 0.41050 0.52963 0.87030
 C1384 C 0.42256 0.54794 0.85853
 C1385 C 0.41510 0.55571 0.83757
 H1386 H 0.40063 0.54795 0.82972
 O1387 O 0.58087 0.47755 0.88860
 O1388 O 0.60701 0.47755 0.86236
 C1389 C 0.58870 0.46994 0.87030
 C1390 C 0.57664 0.45170 0.85848
 C1391 C 0.58408 0.44413 0.83746
 H1392 H 0.59817 0.45237 0.82938
 O1393 O 0.52135 0.38796 0.91900
 O1394 O 0.52130 0.36179 0.89287
 C1395 C 0.52900 0.36970 0.91110
 C1396 C 0.54740 0.35787 0.92298
 C1397 C 0.55511 0.33693 0.91538
 H1398 H 0.54687 0.32891 0.90132
 O1399 O 0.47793 0.61161 0.91921
 O1400 O 0.47803 0.63782 0.89310
 C1401 C 0.47032 0.62990 0.91134
 C1402 C 0.45196 0.64175 0.92326
 C1403 C 0.44428 0.66273 0.91572
 H1404 H 0.45253 0.67076 0.90165
 O1405 O 0.38804 0.58125 0.97849
 O1406 O 0.36177 0.60739 0.97849
 C1407 C 0.36971 0.58912 0.97086
 C1408 C 0.35787 0.57715 0.95257
 C1409 C 0.33678 0.58460 0.94501
 H1410 H 0.32868 0.59863 0.95326
 O1411 O 0.61163 0.41816 0.97807
 O1412 O 0.63783 0.39196 0.97804
 C1413 C 0.62992 0.41024 0.97041
 C1414 C 0.64174 0.42216 0.95205
 C1415 C 0.66271 0.41458 0.94425
 H1416 H 0.67078 0.40047 0.95240
 O1417 O 0.47786 0.58086 0.88854
 O1418 O 0.47797 0.60694 0.86229
 C1419 C 0.47022 0.58873 0.87027
 C1420 C 0.45176 0.57685 0.85854
 C1421 C 0.44409 0.58436 0.83759
 H1422 H 0.45240 0.59835 0.82947
 O1423 O 0.52134 0.41866 0.88827
 O1424 O 0.52129 0.39263 0.86199
 C1425 C 0.52900 0.41085 0.86998
 C1426 C 0.54742 0.42282 0.85827
 C1427 C 0.55512 0.41546 0.83725
 H1428 H 0.54722 0.40115 0.82929
 O1429 O 0.61179 0.47738 0.91917
 O1430 O 0.63807 0.47738 0.89306
 C1431 C 0.63009 0.46969 0.91128
 C1432 C 0.64184 0.45126 0.92315
 C1433 C 0.66281 0.44343 0.91558
 H1434 H 0.67068 0.45124 0.90117
 O1435 O 0.38772 0.52200 0.91939
 O1436 O 0.36134 0.52210 0.89342
 C1437 C 0.36940 0.52972 0.91162
 C1438 C 0.35768 0.54809 0.92364
 C1439 C 0.33660 0.55580 0.91630
 H1440 H 0.32863 0.54796 0.90198
 O1441 O 0.41881 0.61203 0.97841
 O1442 O 0.39269 0.63831 0.97841
 C1443 C 0.41096 0.63031 0.97074
 C1444 C 0.42295 0.64199 0.95233
 C1445 C 0.41549 0.66297 0.94453
 H1446 H 0.40109 0.67090 0.95234
 O1447 O 0.58068 0.38757 0.97806
 O1448 O 0.60673 0.36122 0.97801
 C1449 C 0.58848 0.36928 0.97037
 C1450 C 0.57646 0.35762 0.95198
 C1451 C 0.58395 0.33668 0.94411
 H1452 H 0.59838 0.32876 0.95186
 O1453 O 0.58098 0.52132 0.88869
 O1454 O 0.60713 0.52134 0.86244
 C1455 C 0.58885 0.52900 0.87043
 C1456 C 0.57689 0.54738 0.85869
 C1457 C 0.58436 0.55498 0.83768
 H1458 H 0.59838 0.54669 0.82956
 O1459 O 0.41833 0.47814 0.88858
 O1460 O 0.39210 0.47820 0.86245
 C1461 C 0.41040 0.47050 0.87035
 C1462 C 0.42230 0.45210 0.85858
 C1463 C 0.41477 0.44445 0.83762
 H1464 H 0.40072 0.45272 0.82954
 O1465 O 0.52180 0.61150 0.91920
 O1466 O 0.52195 0.63773 0.89311
 C1467 C 0.52955 0.62976 0.91136
 C1468 C 0.54791 0.64150 0.92336
 C1469 C 0.55558 0.66258 0.91604
 H1470 H 0.54771 0.67053 0.90172
 O1471 O 0.47747 0.38793 0.91900
 O1472 O 0.47737 0.36174 0.89289
 C1473 C 0.46975 0.36967 0.91115
 C1474 C 0.45139 0.35790 0.92315
 C1475 C 0.44364 0.33691 0.91573
 H1476 H 0.45145 0.32904 0.90132
 O1477 O 0.61186 0.58055 0.97820
 O1478 O 0.63825 0.60658 0.97815
 C1479 C 0.63022 0.58834 0.97053
 C1480 C 0.64200 0.57631 0.95224
 C1481 C 0.66304 0.58375 0.94447
 H1482 H 0.67094 0.59818 0.95220
 O1483 O 0.38774 0.41885 0.97828
 O1484 O 0.36135 0.39282 0.97830
 C1485 C 0.36937 0.41106 0.97066
 C1486 C 0.35757 0.42307 0.95238
 C1487 C 0.33651 0.41561 0.94475
 H1488 H 0.32840 0.40155 0.95296
 Cu1489 Cu 0.49940 0.40595 0.90628
 Cu1490 Cu 0.49932 0.37460 0.87484
 Cu1491 Cu 0.49983 0.59355 0.90650
 Cu1492 Cu 0.49999 0.62494 0.87508
 Cu1493 Cu 0.40562 0.50006 0.90656
 Cu1494 Cu 0.37405 0.50016 0.87529
 Cu1495 Cu 0.59375 0.49935 0.90658
 Cu1496 Cu 0.62521 0.49937 0.87514
 C1497 C 0.44073 0.44141 0.86875
 H1498 H 0.44643 0.44703 0.88505
 C1499 C 0.42528 0.42622 0.82694
 C1500 C 0.55850 0.55808 0.86891
 H1501 H 0.55285 0.55250 0.88525
 C1502 C 0.57382 0.57318 0.82700
 C1503 C 0.36778 0.44150 0.94178
 H1504 H 0.38416 0.44715 0.94738
 C1505 C 0.32579 0.42617 0.92660
 C1506 C 0.63169 0.55790 0.94170
 H1507 H 0.61532 0.55228 0.94739
 C1508 C 0.67365 0.57313 0.92627
 C1509 C 0.44077 0.36816 0.94153
 H1510 H 0.44646 0.38449 0.94714
 C1511 C 0.42539 0.32628 0.92633
 C1512 C 0.55860 0.63115 0.94163
 H1513 H 0.55298 0.61476 0.94716
 C1514 C 0.57381 0.67319 0.92666
 C1515 C 0.44103 0.55850 0.86876
 H1516 H 0.44667 0.55281 0.88506
 C1517 C 0.42576 0.57391 0.82697
 C1518 C 0.55816 0.44107 0.86863
 H1519 H 0.55253 0.44663 0.88499
 C1520 C 0.57345 0.42602 0.82671
 C1521 C 0.55806 0.36797 0.94142
 H1522 H 0.55240 0.38426 0.94717
 C1523 C 0.57338 0.32621 0.92582
 C1524 C 0.44131 0.63164 0.94171
 H1525 H 0.44695 0.61532 0.94742
 C1526 C 0.42606 0.67346 0.92623
 C1527 C 0.36807 0.55875 0.94191
 H1528 H 0.38447 0.55310 0.94746
 C1529 C 0.32602 0.57404 0.92688
 C1530 C 0.63157 0.44064 0.94152
 H1531 H 0.61525 0.44638 0.94724
 C1532 C 0.67338 0.42510 0.92603
 O1533 O 0.52153 0.41838 1.11184
 O1534 O 0.52148 0.39228 1.13805
 C1535 C 0.52920 0.41051 1.13009
 C1536 C 0.54764 0.42244 1.14180
 C1537 C 0.55542 0.41494 1.16273
 H1538 H 0.54758 0.40054 1.17061
 O1539 O 0.47800 0.58082 1.11185
 O1540 O 0.47810 0.60684 1.13812
 C1541 C 0.47036 0.58864 1.13014
 C1542 C 0.45196 0.57667 1.14190
 C1543 C 0.44428 0.58408 1.16290
 H1544 H 0.45217 0.59844 1.17078
 O1545 O 0.38790 0.52189 1.08108
 O1546 O 0.36159 0.52192 1.10716
 C1547 C 0.36960 0.52959 1.08895
 C1548 C 0.35788 0.54805 1.07709
 C1549 C 0.33690 0.55581 1.08464
 H1550 H 0.32875 0.54756 1.09865
 O1551 O 0.61157 0.47737 1.08082
 O1552 O 0.63790 0.47731 1.10684
 C1553 C 0.62988 0.46967 1.08863
 C1554 C 0.64163 0.45128 1.07671
 C1555 C 0.66265 0.44359 1.08419
 H1556 H 0.67079 0.45186 1.09817
 O1557 O 0.58064 0.38754 1.02181
 O1558 O 0.60671 0.36122 1.02182
 C1559 C 0.58845 0.36924 1.02947
 C1560 C 0.57644 0.35753 1.04784
 C1561 C 0.58388 0.33652 1.05552
 H1562 H 0.59790 0.32836 1.04728
 O1563 O 0.41887 0.61201 1.02216
 O1564 O 0.39276 0.63830 1.02222
 C1565 C 0.41103 0.63029 1.02984
 C1566 C 0.42306 0.64199 1.04820
 C1567 C 0.41563 0.66297 1.05600
 H1568 H 0.40122 0.67091 1.04822
 O1569 O 0.41857 0.47795 1.11173
 O1570 O 0.39238 0.47795 1.13792
 C1571 C 0.41066 0.47028 1.12997
 C1572 C 0.42257 0.45187 1.14173
 C1573 C 0.41506 0.44424 1.16271
 H1574 H 0.40103 0.45255 1.17081
 O1575 O 0.58092 0.52122 1.11160
 O1576 O 0.60712 0.52118 1.13775
 C1577 C 0.58883 0.52885 1.12984
 C1578 C 0.57690 0.54721 1.14163
 C1579 C 0.58435 0.55475 1.16266
 H1580 H 0.59835 0.54641 1.17076
 O1581 O 0.47757 0.38778 1.08116
 O1582 O 0.47746 0.36152 1.10722
 C1583 C 0.46984 0.36951 1.08899
 C1584 C 0.45144 0.35778 1.07700
 C1585 C 0.44365 0.33679 1.08443
 H1586 H 0.45145 0.32890 1.09881
 O1587 O 0.52196 0.61147 1.08116
 O1588 O 0.52211 0.63766 1.10727
 C1589 C 0.52972 0.62971 1.08901
 C1590 C 0.54811 0.64145 1.07701
 C1591 C 0.55586 0.66246 1.08440
 H1592 H 0.54803 0.67036 1.09877
 O1593 O 0.38777 0.41882 1.02200
 O1594 O 0.36137 0.39280 1.02205
 C1595 C 0.36942 0.41103 1.02967
 C1596 C 0.35765 0.42303 1.04800
 C1597 C 0.33659 0.41559 1.05568
 H1598 H 0.32845 0.40155 1.04748
 O1599 O 0.61176 0.58041 1.02190
 O1600 O 0.63815 0.60644 1.02190
 C1601 C 0.63011 0.58820 1.02953
 C1602 C 0.64190 0.57619 1.04781
 C1603 C 0.66298 0.58359 1.05541
 H1604 H 0.67113 0.59760 1.04717
 O1605 O 0.52188 0.58065 1.11178
 O1606 O 0.52203 0.60669 1.13804
 C1607 C 0.52960 0.58842 1.13004
 C1608 C 0.54792 0.57633 1.14176
 C1609 C 0.55563 0.58364 1.16278
 H1610 H 0.54781 0.59802 1.17071
 O1611 O 0.47764 0.41854 1.11181
 O1612 O 0.47753 0.39244 1.13803
 C1613 C 0.46992 0.41072 1.13007
 C1614 C 0.45156 0.42276 1.14181
 C1615 C 0.44378 0.41536 1.16279
 H1616 H 0.45157 0.40094 1.17068
 O1617 O 0.61178 0.52116 1.08092
 O1618 O 0.63812 0.52113 1.10694
 C1619 C 0.63013 0.52880 1.08873
 C1620 C 0.64195 0.54713 1.07675
 C1621 C 0.66303 0.55479 1.08414
 H1622 H 0.67095 0.54694 1.09848
 O1623 O 0.38776 0.47807 1.08105
 O1624 O 0.36143 0.47807 1.10711
 C1625 C 0.36942 0.47043 1.08888
 C1626 C 0.35761 0.45209 1.07692
 C1627 C 0.33655 0.44439 1.08437
 H1628 H 0.32866 0.45223 1.09875
 O1629 O 0.58115 0.61133 1.02197
 O1630 O 0.60740 0.63749 1.02197
 C1631 C 0.58909 0.62958 1.02963
 C1632 C 0.57716 0.64136 1.04798
 C1633 C 0.58466 0.66237 1.05560
 H1634 H 0.59870 0.67049 1.04732
 O1635 O 0.41844 0.38795 1.02198
 O1636 O 0.39217 0.36180 1.02202
 C1637 C 0.41050 0.36970 1.02964
 C1638 C 0.42241 0.35790 1.04799
 C1639 C 0.41488 0.33690 1.05564
 H1640 H 0.40082 0.32881 1.04739
 O1641 O 0.58089 0.47743 1.11166
 O1642 O 0.60710 0.47736 1.13781
 C1643 C 0.58878 0.46974 1.12990
 C1644 C 0.57679 0.45139 1.14168
 C1645 C 0.58432 0.44367 1.16261
 H1646 H 0.59843 0.45187 1.17067
 O1647 O 0.41865 0.52174 1.11182
 O1648 O 0.39247 0.52178 1.13802
 C1649 C 0.41079 0.52940 1.13008
 C1650 C 0.42281 0.54772 1.14185
 C1651 C 0.41537 0.55536 1.16286
 H1652 H 0.40130 0.54713 1.17098
 O1653 O 0.47808 0.61160 1.08120
 O1654 O 0.47817 0.63777 1.10732
 C1655 C 0.47047 0.62988 1.08909
 C1656 C 0.45211 0.64174 1.07719
 C1657 C 0.44446 0.66272 1.08473
 H1658 H 0.45273 0.67076 1.09878
 O1659 O 0.52144 0.38772 1.08109
 O1660 O 0.52140 0.36146 1.10714
 C1661 C 0.52908 0.36941 1.08891
 C1662 C 0.54741 0.35760 1.07690
 C1663 C 0.55511 0.33659 1.08435
 H1664 H 0.54728 0.32875 1.09877
 O1665 O 0.61159 0.41814 1.02179
 O1666 O 0.63781 0.39197 1.02183
 C1667 C 0.62988 0.41025 1.02946
 C1668 C 0.64168 0.42222 1.04778
 C1669 C 0.66271 0.41474 1.05553
 H1670 H 0.67060 0.40032 1.04776
 O1671 O 0.38802 0.58131 1.02220
 O1672 O 0.36175 0.60744 1.02227
 C1673 C 0.36971 0.58917 1.02989
 C1674 C 0.35791 0.57718 1.04821
 C1675 C 0.33693 0.58471 1.05602
 H1676 H 0.32909 0.59919 1.04830
 Cu1677 Cu 0.49955 0.40572 1.09387
 Cu1678 Cu 0.49946 0.37429 1.12524
 Cu1679 Cu 0.49997 0.59352 1.09388
 Cu1680 Cu 0.50011 0.62487 1.12532
 Cu1681 Cu 0.40573 0.40599 1.00012
 Cu1682 Cu 0.37411 0.37468 1.00015
 Cu1683 Cu 0.59352 0.40547 0.99993
 Cu1684 Cu 0.62489 0.37395 0.99993
 Cu1685 Cu 0.40606 0.59404 1.00031
 Cu1686 Cu 0.37461 0.62550 1.00035
 Cu1687 Cu 0.59382 0.59328 1.00007
 Cu1688 Cu 0.62542 0.62462 1.00005
 Cu1689 Cu 0.40584 0.49991 1.09381
 Cu1690 Cu 0.37432 0.49993 1.12517
 Cu1691 Cu 0.59366 0.49931 1.09364
 Cu1692 Cu 0.62520 0.49924 1.12496
 C1693 C 0.55831 0.44080 1.13152
 H1694 H 0.55260 0.44648 1.11524
 C1695 C 0.57376 0.42545 1.17327
 C1696 C 0.44124 0.55835 1.13162
 H1697 H 0.44687 0.55274 1.11529
 C1698 C 0.42600 0.57353 1.17352
 C1699 C 0.36814 0.55871 1.05873
 H1700 H 0.38447 0.55301 1.05301
 C1701 C 0.32629 0.57413 1.07424
 C1702 C 0.63139 0.44062 1.05836
 H1703 H 0.61504 0.44628 1.05270
 C1704 C 0.67332 0.42533 1.07374
 C1705 C 0.55806 0.36782 1.05851
 H1706 H 0.55244 0.38417 1.05287
 C1707 C 0.57333 0.32592 1.07377
 C1708 C 0.44144 0.63163 1.05878
 H1709 H 0.44705 0.61531 1.05307
 C1710 C 0.42623 0.67347 1.07427
 C1711 C 0.44097 0.44116 1.13153
 H1712 H 0.44666 0.44676 1.11520
 C1713 C 0.42554 0.42600 1.17338
 C1714 C 0.55854 0.55798 1.13143
 H1715 H 0.55290 0.55245 1.11508
 C1716 C 0.57382 0.57295 1.17337
 C1717 C 0.44084 0.36809 1.05865
 H1718 H 0.44655 0.38442 1.05303
 C1719 C 0.42538 0.32622 1.07384
 C1720 C 0.55874 0.63115 1.05866
 H1721 H 0.55306 0.61481 1.05307
 C1722 C 0.57411 0.67306 1.07379
 C1723 C 0.36791 0.44143 1.05859
 H1724 H 0.38429 0.44706 1.05295
 C1725 C 0.32592 0.42615 1.07386
 C1726 C 0.63163 0.55781 1.05845
 H1727 H 0.61522 0.55220 1.05287
 C1728 C 0.67367 0.57302 1.07357
 C1729 C 1.09304 1.11401 1.21937
 C1730 C 1.09956 1.09896 1.23617
 C1731 C 1.09769 1.07583 1.23252
 C1732 C 1.08941 1.06776 1.21212
 C1733 C 1.13261 1.13113 1.31138
 C1734 C 1.08475 1.10599 1.19898
 C1735 C 1.10842 1.10733 1.25700
 C1736 C 1.11594 1.11460 1.27430
 C1737 C 1.12487 1.12338 1.29438
 C1738 C 1.08287 1.08277 1.19510
 H1739 H 1.09451 1.13194 1.22198
 H1740 H 1.10267 1.06404 1.24542
 H1741 H 1.08793 1.04981 1.20971
 H1742 H 1.08017 1.11795 1.18610
 C1743 C 1.07533 0.59622 0.73206
 C1744 C 1.09848 0.59793 0.73594
 C1745 C 1.11369 0.59140 0.71926
 C1746 C 1.10581 0.58326 0.69875
 C1747 C 1.13008 0.63075 0.81145
 C1748 C 1.06740 0.58809 0.71154
 C1749 C 1.10671 0.60667 0.75687
 C1750 C 1.11385 0.61412 0.77424
 C1751 C 1.12248 0.62301 0.79440
 C1752 C 1.08257 0.58155 0.69464
 H1753 H 1.06340 0.60121 0.74487
 H1754 H 1.13165 0.59274 0.72205
 H1755 H 1.11790 0.57867 0.68597
 H1756 H 1.04942 0.58674 0.70895
 C1757 C 0.57654 1.09755 0.73244
 C1758 C 0.59975 1.09918 0.73605
 C1759 C 0.61473 1.09254 0.71922
 C1760 C 0.60657 1.08436 0.69883
 C1761 C 0.63227 1.13182 0.81130
 C1762 C 0.56833 1.08938 0.71205
 C1763 C 0.60826 1.10789 0.75689
 C1764 C 0.61563 1.11530 0.77420
 C1765 C 0.62451 1.12413 0.79429
 C1766 C 0.58327 1.08270 0.69500
 H1767 H 0.56479 1.10262 0.74538
 H1768 H 0.63273 1.09382 0.72179
 H1769 H 0.61849 1.07968 0.68592
 H1770 H 0.55032 1.08808 0.70968
 C1771 C 0.61351 0.59109 1.21976
 C1772 C 0.59837 0.59760 1.23651
 C1773 C 0.57520 0.59586 1.23275
 C1774 C 0.56718 0.58773 1.21227
 C1775 C 0.63028 0.63065 1.31181
 C1776 C 0.60553 0.58295 1.19928
 C1777 C 0.60670 0.60638 1.25739
 C1778 C 0.61391 0.61388 1.27472
 C1779 C 0.62262 0.62283 1.29481
 C1780 C 0.58227 0.58122 1.19529
 H1781 H 0.63148 0.59247 1.22245
 H1782 H 0.56334 0.60084 1.24561
 H1783 H 0.54919 0.58636 1.20976
 H1784 H 0.61756 0.57839 1.18643
 C1785 C 0.88632 0.90857 1.22033
 C1786 C 0.90144 0.90199 1.23705
 C1787 C 0.92462 0.90375 1.23329
 C1788 C 0.93266 0.91198 1.21284
 C1789 C 0.86938 0.86874 1.31227
 C1790 C 0.89432 0.91680 1.19988
 C1791 C 0.89309 0.89313 1.25791
 C1792 C 0.88585 0.88557 1.27521
 C1793 C 0.87709 0.87657 1.29529
 C1794 C 0.91758 0.91855 1.19588
 H1795 H 0.86835 0.90718 1.22302
 H1796 H 0.93647 0.89873 1.24614
 H1797 H 0.95065 0.91336 1.21034
 H1798 H 0.88230 0.92141 1.18705
 C1799 C 0.92322 0.40286 0.73217
 C1800 C 0.90000 0.40120 0.73571
 C1801 C 0.88508 0.40791 0.71886
 C1802 C 0.89332 0.41617 0.69852
 C1803 C 0.86724 0.36802 0.81069
 C1804 C 0.93150 0.41112 0.71183
 C1805 C 0.89140 0.39235 0.75648
 C1806 C 0.88398 0.38482 0.77372
 C1807 C 0.87505 0.37584 0.79374
 C1808 C 0.91663 0.41784 0.69475
 H1809 H 0.93492 0.39773 0.74512
 H1810 H 0.86707 0.40660 0.72138
 H1811 H 0.88144 0.42089 0.68560
 H1812 H 0.94953 0.41242 0.70951
 C1813 C 0.40254 0.92500 0.73281
 C1814 C 0.40072 0.90185 0.73639
 C1815 C 0.40713 0.88689 0.71948
 C1816 C 0.41529 0.89500 0.69906
 C1817 C 0.36816 0.86927 0.81168
 C1818 C 0.41071 0.93316 0.71237
 C1819 C 0.39205 0.89337 0.75727
 C1820 C 0.38467 0.88599 0.77459
 C1821 C 0.37586 0.87708 0.79469
 C1822 C 0.41717 0.91823 0.69526
 H1823 H 0.39764 0.93674 0.74579
 H1824 H 0.40568 0.86894 0.72204
 H1825 H 0.41980 0.88309 0.68611
 H1826 H 0.41217 0.95113 0.71002
 C1827 C 0.42389 0.40294 1.23272
 C1828 C 0.40070 0.40126 1.23643
 C1829 C 0.38565 0.40781 1.21964
 C1830 C 0.39372 0.41594 1.19918
 C1831 C 0.36841 0.36864 1.31184
 C1832 C 0.43201 0.41107 1.21226
 C1833 C 0.39227 0.39257 1.25733
 C1834 C 0.38496 0.38517 1.27467
 C1835 C 0.37614 0.37634 1.29480
 C1836 C 0.41700 0.41764 1.19524
 H1837 H 0.43569 0.39794 1.24562
 H1838 H 0.36766 0.40648 1.22229
 H1839 H 0.38174 0.42054 1.18631
 H1840 H 0.45001 0.41240 1.20980
 C1841 C 0.90726 1.11426 0.78084
 C1842 C 0.90063 1.09925 0.76406
 C1843 C 0.90236 1.07611 0.76773
 C1844 C 0.91061 1.06800 0.78813
 C1845 C 0.86769 1.13154 0.68882
 C1846 C 0.91553 1.10619 0.80124
 C1847 C 0.89181 1.10768 0.74322
 C1848 C 0.88432 1.11498 0.72592
 C1849 C 0.87542 1.12379 0.70583
 C1850 C 0.91727 1.08296 0.80513
 H1851 H 0.90590 1.13220 0.77822
 H1852 H 0.89729 1.06435 0.75484
 H1853 H 0.91198 1.05003 0.79054
 H1854 H 0.92019 1.11813 0.81410
 C1855 C 0.90914 0.61293 0.27998
 C1856 C 0.90266 0.59786 0.26320
 C1857 C 0.90430 0.57473 0.26697
 C1858 C 0.91234 0.56669 0.28749
 C1859 C 0.87010 0.63004 0.18782
 C1860 C 0.91719 0.60493 0.30048
 C1861 C 0.89402 0.60622 0.24228
 C1862 C 0.88665 0.61350 0.22493
 C1863 C 0.87783 0.62230 0.20482
 C1864 C 0.91886 0.58172 0.30448
 H1865 H 0.90784 0.63086 0.27728
 H1866 H 0.89933 0.56292 0.25409
 H1867 H 0.91365 0.54874 0.28999
 H1868 H 0.92176 0.61692 0.31334
 C1869 C 0.40803 1.11428 0.28050
 C1870 C 0.40135 1.09923 0.26377
 C1871 C 0.40308 1.07610 0.26749
 C1872 C 0.41138 1.06804 0.28789
 C1873 C 0.36795 1.13123 0.18863
 C1874 C 0.41634 1.10626 0.30089
 C1875 C 0.39243 1.10760 0.24296
 C1876 C 0.38483 1.11483 0.22567
 C1877 C 0.37580 1.12356 0.20561
 C1878 C 0.41806 1.08304 0.30485
 H1879 H 0.40667 1.13222 0.27784
 H1880 H 0.39798 1.06430 0.25464
 H1881 H 0.41273 1.05008 0.29035
 H1882 H 0.42103 1.11823 0.31372
 C1883 C 0.40750 0.61376 0.78081
 C1884 C 0.40091 0.59877 0.76400
 C1885 C 0.40256 0.57562 0.76768
 C1886 C 0.41072 0.56750 0.78812
 C1887 C 0.36833 0.63113 0.68867
 C1888 C 0.41566 0.60569 0.80123
 C1889 C 0.39221 0.60721 0.74313
 C1890 C 0.38482 0.61453 0.72580
 C1891 C 0.37600 0.62337 0.70568
 C1892 C 0.41734 0.58245 0.80514
 H1893 H 0.40620 0.63171 0.77817
 H1894 H 0.39752 0.56386 0.75478
 H1895 H 0.41204 0.54953 0.79055
 H1896 H 0.42030 0.61762 0.81411
 C1897 C 1.11370 0.90746 0.78086
 C1898 C 1.09867 0.90094 0.76404
 C1899 C 1.07547 0.90274 0.76767
 C1900 C 1.06733 0.91098 0.78807
 C1901 C 1.13132 0.86826 0.68886
 C1902 C 1.10560 0.91571 0.80125
 C1903 C 1.10713 0.89218 0.74320
 C1904 C 1.11450 0.88474 0.72590
 C1905 C 1.12344 0.87591 0.70583
 C1906 C 1.08232 0.91755 0.80510
 H1907 H 1.13168 0.90605 0.77827
 H1908 H 1.06368 0.89776 0.75474
 H1909 H 1.04932 0.91242 0.79046
 H1910 H 1.11756 0.92030 0.81415
 C1911 C 1.09681 0.42380 0.26702
 C1912 C 1.09853 0.40067 0.26326
 C1913 C 1.09199 0.38559 0.28003
 C1914 C 1.08384 0.39356 0.30050
 C1915 C 1.13149 0.36879 0.18788
 C1916 C 1.08867 0.43182 0.28750
 C1917 C 1.10729 0.39235 0.24236
 C1918 C 1.11477 0.38514 0.22502
 C1919 C 1.12370 0.37643 0.20490
 C1920 C 1.08213 0.41678 0.30449
 H1921 H 1.10180 0.43562 0.25414
 H1922 H 1.09335 0.36766 0.27733
 H1923 H 1.07926 0.38157 0.31336
 H1924 H 1.08731 0.44977 0.29000
 C1925 C 0.57521 0.90308 0.26738
 C1926 C 0.59838 0.90115 0.26368
 C1927 C 0.61350 0.90759 0.28045
 C1928 C 0.60552 0.91586 0.30088
 C1929 C 0.63061 0.86819 0.18845
 C1930 C 0.56717 0.91134 0.28781
 C1931 C 0.60673 0.89233 0.24282
 C1932 C 0.61399 0.88483 0.22551
 C1933 C 0.62282 0.87592 0.20543
 C1934 C 0.58225 0.91780 0.30481
 H1935 H 0.56335 0.89817 0.25449
 H1936 H 0.63147 0.90607 0.27781
 H1937 H 0.61754 0.92037 0.31374
 H1938 H 0.54919 0.91287 0.29026
 C1939 C 0.61325 0.40786 0.78041
 C1940 C 0.59818 0.40159 0.76353
 C1941 C 0.57499 0.40339 0.76722
 C1942 C 0.56690 0.41139 0.78774
 C1943 C 0.63066 0.36959 0.68801
 C1944 C 0.60521 0.41587 0.80091
 C1945 C 0.60659 0.39307 0.74258
 C1946 C 0.61393 0.38582 0.72519
 C1947 C 0.62283 0.37716 0.70504
 C1948 C 0.58194 0.41772 0.80482
 H1949 H 0.63123 0.40644 0.77777
 H1950 H 0.56317 0.39860 0.75426
 H1951 H 0.54891 0.41284 0.79018
 H1952 H 0.61720 0.42027 0.81384
 C1953 C 1.23340 1.07553 1.09723
 C1954 C 1.23705 1.09866 1.09906
 C1955 C 1.22026 1.11369 1.09238
 C1956 C 1.19984 1.10564 1.08399
 C1957 C 1.31217 1.13093 1.13274
 C1958 C 1.21298 1.06744 1.08885
 C1959 C 1.25788 1.10705 1.10807
 C1960 C 1.27516 1.11434 1.11574
 C1961 C 1.29521 1.12315 1.12485
 C1962 C 1.19594 1.08242 1.08218
 H1963 H 1.24630 1.06374 1.10233
 H1964 H 1.22287 1.13163 1.09381
 H1965 H 1.18695 1.11759 1.07931
 H1966 H 1.21056 1.04948 1.08743
 C1967 C 1.22040 0.59150 0.61354
 C1968 C 1.23737 0.59804 0.59865
 C1969 C 1.23390 0.59617 0.57552
 C1970 C 1.21350 0.58787 0.56731
 C1971 C 1.31238 0.63147 0.63142
 C1972 C 1.20001 0.58319 0.60538
 C1973 C 1.25818 0.60696 0.60718
 C1974 C 1.27544 0.61455 0.61458
 C1975 C 1.29545 0.62360 0.62354
 C1976 C 1.19630 0.58132 0.58216
 H1977 H 1.22287 0.59298 0.63148
 H1978 H 1.24694 0.60117 0.56385
 H1979 H 1.21123 0.58640 0.54936
 H1980 H 1.18698 0.57862 0.61723
 C1981 C 0.71992 1.09233 0.61432
 C1982 C 0.73699 1.09884 0.59952
 C1983 C 0.73359 1.09711 0.57637
 C1984 C 0.71317 1.08893 0.56804
 C1985 C 0.81215 1.13152 0.63269
 C1986 C 0.69952 1.08415 0.60604
 C1987 C 0.75784 1.10754 0.60817
 C1988 C 0.77513 1.11494 0.61569
 C1989 C 0.79519 1.12378 0.62476
 C1990 C 0.69590 1.08236 0.58280
 H1991 H 0.72234 1.09370 0.63227
 H1992 H 0.74669 1.10209 0.56476
 H1993 H 0.71096 1.08754 0.55008
 H1994 H 0.68644 1.07956 0.61783
 C1995 C 0.72012 0.61271 1.09178
 C1996 C 0.73700 0.59766 1.09815
 C1997 C 0.73328 0.57453 1.09640
 C1998 C 0.71272 0.56647 1.08834
 C1999 C 0.81263 0.62997 1.13056
 C2000 C 0.69957 0.60470 1.08371
 C2001 C 0.75799 0.60604 1.10676
 C2002 C 0.77540 0.61335 1.11410
 C2003 C 0.79558 0.62219 1.12288
 C2004 C 0.69562 0.58148 1.08192
 H2005 H 0.72278 0.63065 1.09317
 H2006 H 0.74625 0.56273 1.10129
 H2007 H 0.71025 0.54851 1.08693
 H2008 H 0.68662 0.61667 1.07923
 C2009 C 1.21954 0.88601 0.90814
 C2010 C 1.23644 0.90101 0.90161
 C2011 C 1.23281 0.92415 0.90337
 C2012 C 1.21232 0.93228 0.91155
 C2013 C 1.31184 0.86867 0.86862
 C2014 C 1.19907 0.89409 0.91633
 C2015 C 1.25735 0.89257 0.89283
 C2016 C 1.27470 0.88525 0.88535
 C2017 C 1.29482 0.87642 0.87641
 C2018 C 1.19521 0.91733 0.91811
 H2019 H 1.22214 0.86807 0.90675
 H2020 H 1.24580 0.93590 0.89837
 H2021 H 1.20993 0.95024 0.91295
 H2022 H 1.18610 0.88217 0.92092
 C2023 C 1.22039 0.38539 0.40786
 C2024 C 1.23717 0.40049 0.40128
 C2025 C 1.23343 0.42361 0.40312
 C2026 C 1.21293 0.43161 0.41139
 C2027 C 1.31259 0.36873 0.36776
 C2028 C 1.19989 0.39335 0.41614
 C2029 C 1.25807 0.39221 0.39233
 C2030 C 1.27542 0.38504 0.38470
 C2031 C 1.29555 0.37638 0.37562
 C2032 C 1.19590 0.41656 0.41794
 H2033 H 1.22307 0.36747 0.40642
 H2034 H 1.24633 0.43545 0.39810
 H2035 H 1.21044 0.44956 0.41281
 H2036 H 1.18700 0.38135 0.42074
 C2037 C 0.72007 0.88620 0.40814
 C2038 C 0.73693 0.90123 0.40162
 C2039 C 0.73325 0.92437 0.40339
 C2040 C 0.71273 0.93245 0.41156
 C2041 C 0.81242 0.86915 0.36859
 C2042 C 0.69956 0.89423 0.41631
 C2043 C 0.75786 0.89286 0.39283
 C2044 C 0.77523 0.88560 0.38533
 C2045 C 0.79538 0.87684 0.37638
 C2046 C 0.69564 0.91746 0.41808
 H2047 H 0.72270 0.86826 0.40674
 H2048 H 0.74621 0.93615 0.39841
 H2049 H 0.71030 0.95040 0.41295
 H2050 H 0.68662 0.88228 0.42088
 C2051 C 0.71938 0.38519 0.90708
 C2052 C 0.73624 0.40017 0.90041
 C2053 C 0.73268 0.42331 0.90232
 C2054 C 0.71230 0.43145 0.91078
 C2055 C 0.81136 0.36793 0.86657
 C2056 C 0.69901 0.39328 0.91554
 C2057 C 0.75704 0.39173 0.89134
 C2058 C 0.77431 0.38444 0.88364
 C2059 C 0.79437 0.37565 0.87449
 C2060 C 0.69521 0.41652 0.91744
 H2061 H 0.72192 0.36724 0.90559
 H2062 H 0.74563 0.43506 0.89724
 H2063 H 0.70997 0.44941 0.91226
 H2064 H 0.68607 0.38137 0.92022
 C2065 C 0.76682 0.92495 1.09786
 C2066 C 0.76317 0.90180 1.09959
 C2067 C 0.78006 0.88682 1.09302
 C2068 C 0.80052 0.89491 1.08479
 C2069 C 0.68774 0.86921 1.13232
 C2070 C 0.78730 0.93309 1.08964
 C2071 C 0.74226 0.89334 1.10834
 C2072 C 0.72490 0.88597 1.11577
 C2073 C 0.70477 0.87705 1.12462
 C2074 C 0.80439 0.91815 1.08302
 H2075 H 0.75385 0.93670 1.10288
 H2076 H 0.77745 0.86887 1.09438
 H2077 H 0.81346 0.88300 1.08016
 H2078 H 0.78970 0.95106 1.08825
 C2079 C 0.76657 0.42512 0.59674
 C2080 C 0.76285 0.40199 0.59858
 C2081 C 0.77969 0.38692 0.59210
 C2082 C 0.80020 0.39491 0.58387
 C2083 C 0.68729 0.36969 0.63134
 C2084 C 0.78709 0.43315 0.58852
 C2085 C 0.74189 0.39363 0.60735
 C2086 C 0.72450 0.38635 0.61479
 C2087 C 0.70434 0.37750 0.62365
 C2088 C 0.80415 0.41812 0.58200
 H2089 H 0.75363 0.43693 0.60169
 H2090 H 0.77702 0.36899 0.59355
 H2091 H 0.81311 0.38292 0.57932
 H2092 H 0.78956 0.45110 0.58706
 C2093 C 0.26681 0.92487 0.59790
 C2094 C 0.26329 0.90170 0.59959
 C2095 C 0.28023 0.88682 0.59294
 C2096 C 0.30063 0.89503 0.58466
 C2097 C 0.18804 0.86858 0.63229
 C2098 C 0.28723 0.93313 0.58963
 C2099 C 0.24242 0.89310 0.60836
 C2100 C 0.22511 0.88561 0.61579
 C2101 C 0.20503 0.87654 0.62462
 C2102 C 0.30437 0.91829 0.58292
 H2103 H 0.25380 0.93654 0.60299
 H2104 H 0.27772 0.86885 0.59427
 H2105 H 0.31361 0.88318 0.57996
 H2106 H 0.28954 0.95111 0.58828
 C2107 C 0.27961 0.38643 1.09244
 C2108 C 0.26275 0.40147 1.09895
 C2109 C 0.26643 0.42460 1.09710
 C2110 C 0.28693 0.43267 1.08884
 C2111 C 0.18736 0.36917 1.13204
 C2112 C 0.30009 0.39444 1.08418
 C2113 C 0.24184 0.39309 1.10778
 C2114 C 0.22449 0.38580 1.11531
 C2115 C 0.20437 0.37696 1.12426
 C2116 C 0.30400 0.41766 1.08232
 H2117 H 0.27697 0.36849 1.09390
 H2118 H 0.25349 0.43639 1.10207
 H2119 H 0.28936 0.45062 1.08739
 H2120 H 0.31301 0.38248 1.07961
 C2121 C 0.76667 1.07610 0.90295
 C2122 C 0.76305 1.09924 0.90108
 C2123 C 0.77987 1.11425 0.90775
 C2124 C 0.80027 1.10619 0.91616
 C2125 C 0.68797 1.13148 0.86729
 C2126 C 0.78707 1.06799 0.91135
 C2127 C 0.74225 1.10764 0.89203
 C2128 C 0.72498 1.11491 0.88433
 C2129 C 0.70493 1.12371 0.87519
 C2130 C 0.80413 1.08296 0.91801
 H2131 H 0.75375 1.06433 0.89785
 H2132 H 0.77728 1.13219 0.90629
 H2133 H 0.81318 1.11813 0.92083
 H2134 H 0.78946 1.05003 0.91279
 C2135 C 0.76718 0.59685 0.42433
 C2136 C 0.76340 0.59852 0.40124
 C2137 C 0.78022 0.59197 0.38618
 C2138 C 0.80076 0.58384 0.39415
 C2139 C 0.68770 0.63103 0.36916
 C2140 C 0.78773 0.58873 0.43235
 C2141 C 0.74241 0.60720 0.39291
 C2142 C 0.72499 0.61458 0.38566
 C2143 C 0.70479 0.62337 0.37689
 C2144 C 0.80476 0.58215 0.41734
 H2145 H 0.75426 0.60186 0.43614
 H2146 H 0.77751 0.59329 0.36827
 H2147 H 0.81365 0.57923 0.38218
 H2148 H 0.79024 0.58740 0.45028
 C2149 C 0.26714 1.07641 0.40315
 C2150 C 0.26347 1.09953 0.40123
 C2151 C 0.28029 1.11460 0.40780
 C2152 C 0.30074 1.10660 0.41614
 C2153 C 0.18822 1.13136 0.36744
 C2154 C 0.28760 1.06836 0.41148
 C2155 C 0.24262 1.10786 0.39222
 C2156 C 0.22532 1.11505 0.38453
 C2157 C 0.20523 1.12373 0.37538
 C2158 C 0.30466 1.08338 0.41802
 H2159 H 0.25423 1.06460 0.39814
 H2160 H 0.27766 1.13253 0.40630
 H2161 H 0.31365 1.11857 0.42072
 H2162 H 0.29003 1.05041 0.41296
 C2163 C 0.27960 0.61370 0.90855
 C2164 C 0.26274 0.59864 0.90211
 C2165 C 0.26644 0.57551 0.90396
 C2166 C 0.28697 0.56747 0.91213
 C2167 C 0.18728 0.63066 0.86903
 C2168 C 0.30011 0.60571 0.91672
 C2169 C 0.24181 0.60698 0.89332
 C2170 C 0.22444 0.61421 0.88581
 C2171 C 0.20430 0.62296 0.87684
 C2172 C 0.30405 0.58250 0.91857
 H2173 H 0.27695 0.63164 0.90709
 H2174 H 0.25349 0.56370 0.89904
 H2175 H 0.28942 0.54952 0.91358
 H2176 H 0.31305 0.61769 0.92122
 C2177 C 1.07592 1.23309 1.09645
 C2178 C 1.09910 1.23681 1.09826
 C2179 C 1.11421 1.22001 1.09177
 C2180 C 1.10620 1.19955 1.08356
 C2181 C 1.13108 1.31213 1.13143
 C2182 C 1.06787 1.21262 1.08825
 C2183 C 1.10745 1.25769 1.10709
 C2184 C 1.11467 1.27502 1.11463
 C2185 C 1.12340 1.29512 1.12361
 C2186 C 1.08293 1.19560 1.08176
 H2187 H 1.06408 1.24599 1.10141
 H2188 H 1.13218 1.22268 1.09320
 H2189 H 1.11821 1.18667 1.07902
 H2190 H 1.04988 1.21015 1.08683
 C2191 C 1.07692 0.73233 0.59595
 C2192 C 1.10011 0.73594 0.59785
 C2193 C 1.11516 0.71907 0.59140
 C2194 C 1.10709 0.69864 0.58317
 C2195 C 1.13208 0.81119 0.63123
 C2196 C 1.06880 0.71189 0.58772
 C2197 C 1.10851 0.75678 0.60672
 C2198 C 1.11576 0.77409 0.61429
 C2199 C 1.12446 0.79418 0.62334
 C2200 C 1.08381 0.69480 0.58128
 H2201 H 1.06512 0.74528 0.60087
 H2202 H 1.13314 0.72165 0.59290
 H2203 H 1.11906 0.68571 0.57867
 H2204 H 1.05080 0.70951 0.58624
 C2205 C 0.57606 1.23326 0.59589
 C2206 C 0.59924 1.23701 0.59766
 C2207 C 0.61436 1.22020 0.59127
 C2208 C 0.60638 1.19967 0.58321
 C2209 C 0.63113 1.31253 0.63044
 C2210 C 0.56803 1.21272 0.58784
 C2211 C 0.60757 1.25796 0.60634
 C2212 C 0.61479 1.27534 0.61377
 C2213 C 0.62349 1.29549 0.62266
 C2214 C 0.58311 1.19568 0.58144
 H2215 H 0.56421 1.24618 0.60077
 H2216 H 0.63233 1.22289 0.59267
 H2217 H 0.61840 1.18677 0.57874
 H2218 H 0.55004 1.21023 0.58644
 C2219 C 0.57554 0.73243 1.09691
 C2220 C 0.59872 0.73617 1.09871
 C2221 C 0.61384 0.71940 1.09216
 C2222 C 0.60585 0.69895 1.08393
 C2223 C 0.63054 0.81150 1.13202
 C2224 C 0.56751 0.71196 1.08868
 C2225 C 0.60705 0.75704 1.10757
 C2226 C 0.61424 0.77437 1.11514
 C2227 C 0.62292 0.79448 1.12417
 C2228 C 0.58258 0.69497 1.08214
 H2229 H 0.56369 0.74530 1.10191
 H2230 H 0.63181 0.72208 1.09358
 H2231 H 0.61787 0.68608 1.07934
 H2232 H 0.54952 0.70948 1.08727
 C2233 C 0.92379 1.23279 0.90244
 C2234 C 0.90058 1.23631 0.90060
 C2235 C 0.88560 1.21946 0.90728
 C2236 C 0.89376 1.19914 0.91569
 C2237 C 0.86796 1.31121 0.86704
 C2238 C 0.93199 1.21246 0.91084
 C2239 C 0.89206 1.25706 0.89161
 C2240 C 0.88469 1.27428 0.88397
 C2241 C 0.87578 1.29428 0.87490
 C2242 C 0.91706 1.19538 0.91754
 H2243 H 0.93553 1.24573 0.89734
 H2244 H 0.86761 1.22196 0.90583
 H2245 H 0.88185 1.18621 0.92038
 H2246 H 0.95000 1.21015 0.91229
 C2247 C 0.90438 0.73270 0.42377
 C2248 C 0.90270 0.73638 0.40066
 C2249 C 0.90922 0.71952 0.38568
 C2250 C 0.91733 0.69904 0.39374
 C2251 C 0.86993 0.81178 0.36845
 C2252 C 0.91248 0.71221 0.43188
 C2253 C 0.89399 0.75728 0.39224
 C2254 C 0.88656 0.77463 0.38495
 C2255 C 0.87768 0.79475 0.37616
 C2256 C 0.91902 0.69514 0.41694
 H2257 H 0.89939 0.74564 0.43552
 H2258 H 0.90789 0.72215 0.36776
 H2259 H 0.92191 0.68612 0.38182
 H2260 H 0.91381 0.70978 0.44982
 C2261 C 0.40860 1.22001 0.38612
 C2262 C 0.40212 1.23693 0.40104
 C2263 C 0.40389 1.23337 0.42417
 C2264 C 0.41206 1.21294 0.43235
 C2265 C 0.36919 1.31207 0.36841
 C2266 C 0.41677 1.19959 0.39426
 C2267 C 0.39337 1.25778 0.39254
 C2268 C 0.38591 1.27507 0.38515
 C2269 C 0.37699 1.29512 0.37623
 C2270 C 0.41858 1.19581 0.41747
 H2271 H 0.40719 1.22254 0.36819
 H2272 H 0.39893 1.24637 0.43586
 H2273 H 0.41347 1.21060 0.45029
 H2274 H 0.42133 1.18661 0.38239
 C2275 C 0.40294 0.73288 0.92440
 C2276 C 0.40114 0.73646 0.90129
 C2277 C 0.40762 0.71955 0.88634
 C2278 C 0.41581 0.69912 0.89445
 C2279 C 0.36827 0.81178 0.86895
 C2280 C 0.41113 0.71243 0.93256
 C2281 C 0.39239 0.75734 0.89283
 C2282 C 0.38493 0.77466 0.88550
 C2283 C 0.37603 0.79477 0.87667
 C2284 C 0.41763 0.69531 0.91766
 H2285 H 0.39800 0.74586 0.93612
 H2286 H 0.40619 0.72211 0.86842
 H2287 H 0.42035 0.68616 0.88256
 H2288 H 0.41256 0.71008 0.95050
 C2289 C 1.11287 0.78012 0.90840
 C2290 C 1.09772 0.76338 0.90186
 C2291 C 1.07455 0.76717 0.90362
 C2292 C 1.06655 0.78767 0.91181
 C2293 C 1.12976 0.68801 0.86887
 C2294 C 1.10492 0.80060 0.91660
 C2295 C 1.10603 0.74248 0.89306
 C2296 C 1.11326 0.72513 0.88556
 C2297 C 1.12203 0.70502 0.87663
 C2298 C 1.08166 0.80463 0.91837
 H2299 H 1.13084 0.77740 0.90701
 H2300 H 1.06268 0.75432 0.89862
 H2301 H 1.04856 0.79019 0.91320
 H2302 H 1.11696 0.81344 0.92119
 C2303 C 1.07562 0.26655 0.40266
 C2304 C 1.09882 0.26295 0.40087
 C2305 C 1.11383 0.27978 0.40750
 C2306 C 1.10572 0.30015 0.41581
 C2307 C 1.13148 0.18792 0.36769
 C2308 C 1.06745 0.28694 0.41096
 C2309 C 1.10730 0.24214 0.39199
 C2310 C 1.11468 0.22488 0.38445
 C2311 C 1.12361 0.20486 0.37547
 C2312 C 1.08242 0.30398 0.41761
 H2313 H 1.06385 0.25363 0.39760
 H2314 H 1.13182 0.27720 0.40610
 H2315 H 1.11766 0.31306 0.42046
 H2316 H 1.04945 0.28931 0.41236
 C2317 C 0.61292 0.78035 0.40815
 C2318 C 0.59778 0.76358 0.40167
 C2319 C 0.57461 0.76736 0.40343
 C2320 C 0.56660 0.78787 0.41158
 C2321 C 0.62995 0.68815 0.36897
 C2322 C 0.60496 0.80084 0.41631
 C2323 C 0.60611 0.74265 0.39295
 C2324 C 0.61337 0.72529 0.38552
 C2325 C 0.62218 0.70517 0.37667
 C2326 C 0.58170 0.80485 0.41809
 H2327 H 0.63089 0.77763 0.40676
 H2328 H 0.56274 0.75448 0.39848
 H2329 H 0.54861 0.79038 0.41298
 H2330 H 0.61700 0.81370 0.42085
 C2331 C 0.59668 0.26689 0.92375
 C2332 C 0.59848 0.26341 0.90061
 C2333 C 0.59194 0.28035 0.88574
 C2334 C 0.58368 0.30072 0.89393
 C2335 C 0.63158 0.18837 0.86787
 C2336 C 0.58844 0.28727 0.93199
 C2337 C 0.60730 0.24261 0.89206
 C2338 C 0.61482 0.22534 0.88465
 C2339 C 0.62377 0.20532 0.87570
 C2340 C 0.58186 0.30443 0.91716
 H2341 H 0.60169 0.25388 0.93541
 H2342 H 0.59336 0.27788 0.86781
 H2343 H 0.57909 0.31371 0.88210
 H2344 H 0.58701 0.28955 0.94994
 C2345 C 0.92471 0.76738 1.09673
 C2346 C 0.90154 0.76352 1.09845
 C2347 C 0.88637 0.78029 1.09205
 C2348 C 0.89428 0.80086 1.08403
 C2349 C 0.86982 0.68770 1.13078
 C2350 C 0.93267 0.78797 1.08871
 C2351 C 0.89327 0.74251 1.10705
 C2352 C 0.88610 0.72506 1.11438
 C2353 C 0.87744 0.70482 1.12314
 C2354 C 0.91754 0.80495 1.08230
 H2355 H 0.93660 0.75451 1.10161
 H2356 H 0.86840 0.77751 1.09341
 H2357 H 0.88222 0.81371 1.07954
 H2358 H 0.95066 0.79054 1.08734
 C2359 C 0.88564 0.28030 0.59240
 C2360 C 0.90072 0.26353 0.59901
 C2361 C 0.92391 0.26722 0.59715
 C2362 C 0.93198 0.28763 0.58881
 C2363 C 0.86859 0.18838 0.63250
 C2364 C 0.89366 0.30070 0.58405
 C2365 C 0.89236 0.24271 0.60798
 C2366 C 0.88511 0.22542 0.61561
 C2367 C 0.87633 0.20536 0.62466
 C2368 C 0.91694 0.30463 0.58221
 H2369 H 0.86766 0.27766 0.59386
 H2370 H 0.93574 0.25434 0.60219
 H2371 H 0.94998 0.29007 0.58736
 H2372 H 0.88167 0.31357 0.57943
 C2373 C 0.42383 0.76782 0.59684
 C2374 C 0.40065 0.76412 0.59864
 C2375 C 0.38557 0.78093 0.59215
 C2376 C 0.39360 0.80140 0.58397
 C2377 C 0.36853 0.68866 0.63146
 C2378 C 0.43192 0.78830 0.58867
 C2379 C 0.39226 0.74322 0.60741
 C2380 C 0.38501 0.72586 0.61487
 C2381 C 0.37624 0.70571 0.62375
 C2382 C 0.41688 0.80534 0.58217
 H2383 H 0.43566 0.75490 0.60180
 H2384 H 0.36759 0.77829 0.59357
 H2385 H 0.38161 0.81430 0.57942
 H2386 H 0.44991 0.79074 0.58725
 C2387 C 0.42376 0.26689 1.09710
 C2388 C 0.40057 0.26321 1.09891
 C2389 C 0.38551 0.28001 1.09233
 C2390 C 0.39357 0.30043 1.08405
 C2391 C 0.36842 0.18799 1.13224
 C2392 C 0.43187 0.28732 1.08883
 C2393 C 0.39217 0.24237 1.10781
 C2394 C 0.38490 0.22507 1.11539
 C2395 C 0.37613 0.20499 1.12441
 C2396 C 0.41685 0.30434 1.08225
 H2397 H 0.43557 0.25399 1.10212
 H2398 H 0.36753 0.27738 1.09375
 H2399 H 0.38159 0.31332 1.07944
 H2400 H 0.44987 0.28975 1.08741
 C2401 C 1.11334 1.09182 0.78039
 C2402 C 1.09818 1.09831 0.76366
 C2403 C 1.07501 1.09654 0.76747
 C2404 C 1.06702 1.08839 0.78797
 C2405 C 1.13004 1.13132 0.68829
 C2406 C 1.10539 1.08366 0.80088
 C2407 C 1.10648 1.10708 0.74276
 C2408 C 1.11368 1.11458 0.72541
 C2409 C 1.12238 1.12352 0.70530
 C2410 C 1.08213 1.08190 0.80492
 H2411 H 1.13131 1.09321 0.77765
 H2412 H 1.06314 1.10150 0.75462
 H2413 H 1.04903 1.08700 0.79050
 H2414 H 1.11743 1.07911 0.81370
 C2415 C 1.11468 0.59155 0.28001
 C2416 C 1.09957 0.59832 0.26335
 C2417 C 1.07640 0.59650 0.26708
 C2418 C 1.06835 0.58807 0.28745
 C2419 C 1.13138 0.63252 0.18844
 C2420 C 1.10668 0.58310 0.30037
 C2421 C 1.10791 0.60745 0.24260
 C2422 C 1.11509 0.61524 0.22538
 C2423 C 1.12375 0.62450 0.20537
 C2424 C 1.08341 0.58134 0.30435
 H2425 H 1.13266 0.59297 0.27734
 H2426 H 1.06455 0.60166 0.25429
 H2427 H 1.05035 0.58668 0.28993
 H2428 H 1.11869 0.57837 0.31317
 C2429 C 0.57588 1.09697 0.26716
 C2430 C 0.59905 1.09874 0.26337
 C2431 C 0.61418 1.09214 0.28008
 C2432 C 0.60620 1.08389 0.30053
 C2433 C 0.63085 1.13206 0.18808
 C2434 C 0.56785 1.08873 0.28761
 C2435 C 0.60736 1.10761 0.24251
 C2436 C 0.61455 1.11519 0.22519
 C2437 C 0.62323 1.12421 0.20509
 C2438 C 0.58294 1.08214 0.30455
 H2439 H 0.56401 1.10201 0.25433
 H2440 H 0.63215 1.09353 0.27737
 H2441 H 0.61824 1.07927 0.31334
 H2442 H 0.54986 1.08735 0.29013
 C2443 C 0.61359 0.59145 0.78068
 C2444 C 0.59849 0.59793 0.76390
 C2445 C 0.57531 0.59617 0.76764
 C2446 C 0.56725 0.58803 0.78812
 C2447 C 0.63055 0.63085 0.68856
 C2448 C 0.60558 0.58329 0.80114
 C2449 C 0.60686 0.60668 0.74301
 C2450 C 0.61411 0.61415 0.72568
 C2451 C 0.62287 0.62307 0.70557
 C2452 C 0.58230 0.58152 0.80511
 H2453 H 0.63157 0.59284 0.77800
 H2454 H 0.56347 0.60113 0.75476
 H2455 H 0.54925 0.58663 0.79060
 H2456 H 0.61758 0.57874 0.81401
 C2457 C 0.88636 0.90860 0.78038
 C2458 C 0.90156 0.90212 0.76368
 C2459 C 0.92472 0.90389 0.76751
 C2460 C 0.93266 0.91204 0.78802
 C2461 C 0.86986 0.86919 0.68825
 C2462 C 0.89426 0.91675 0.80088
 C2463 C 0.89332 0.89334 0.74277
 C2464 C 0.88616 0.88586 0.72541
 C2465 C 0.87750 0.87694 0.70528
 C2466 C 0.91750 0.91852 0.80495
 H2467 H 0.86840 0.90720 0.77762
 H2468 H 0.93663 0.89894 0.75468
 H2469 H 0.95064 0.91344 0.79058
 H2470 H 0.88218 0.92129 0.81369
 C2471 C 0.92457 0.40294 0.26708
 C2472 C 0.90138 0.40137 0.26331
 C2473 C 0.88631 0.40790 0.28010
 C2474 C 0.89434 0.41592 0.30060
 C2475 C 0.86924 0.36904 0.18780
 C2476 C 0.93266 0.41095 0.28758
 C2477 C 0.89298 0.39280 0.24238
 C2478 C 0.88570 0.38548 0.22500
 C2479 C 0.87692 0.37672 0.20485
 C2480 C 0.91762 0.41752 0.30458
 H2481 H 0.93640 0.39794 0.25418
 H2482 H 0.86832 0.40666 0.27741
 H2483 H 0.88234 0.42052 0.31346
 H2484 H 0.95066 0.41221 0.29008
 C2485 C 0.38621 0.90844 0.28034
 C2486 C 0.40136 0.90180 0.26366
 C2487 C 0.42453 0.90362 0.26742
 C2488 C 0.43252 0.91194 0.28784
 C2489 C 0.36953 0.86823 0.18855
 C2490 C 0.39415 0.91677 0.30075
 C2491 C 0.39308 0.89282 0.24285
 C2492 C 0.38590 0.88517 0.22557
 C2493 C 0.37721 0.87608 0.20552
 C2494 C 0.41741 0.91856 0.30476
 H2495 H 0.36824 0.90701 0.27764
 H2496 H 0.43641 0.89856 0.25461
 H2497 H 0.45051 0.91336 0.29034
 H2498 H 0.38210 0.92141 0.31356
 C2499 C 0.38545 0.40766 0.78083
 C2500 C 0.40053 0.40103 0.76408
 C2501 C 0.42371 0.40286 0.76773
 C2502 C 0.43180 0.41118 0.78812
 C2503 C 0.36853 0.36743 0.68903
 C2504 C 0.39348 0.41599 0.80121
 C2505 C 0.39215 0.39206 0.74329
 C2506 C 0.38492 0.38441 0.72603
 C2507 C 0.37620 0.37532 0.70599
 C2508 C 0.41676 0.41780 0.80511
 H2509 H 0.36747 0.40623 0.77821
 H2510 H 0.43554 0.39780 0.75487
 H2511 H 0.44979 0.41260 0.79053
 H2512 H 0.38149 0.42063 0.81406
 C2513 C 1.11376 0.90811 1.21985
 C2514 C 1.09866 0.90164 1.23665
 C2515 C 1.07548 0.90351 1.23299
 C2516 C 1.06742 0.91172 1.21255
 C2517 C 1.13090 0.86865 1.31185
 C2518 C 1.10575 0.91633 1.19942
 C2519 C 1.10703 0.89283 1.25750
 C2520 C 1.11430 0.88532 1.27480
 C2521 C 1.12312 0.87640 1.29487
 C2522 C 1.08248 0.91820 1.19552
 H2523 H 1.13174 0.90664 1.22247
 H2524 H 1.06364 0.89857 1.24590
 H2525 H 1.04943 0.91319 1.21012
 H2526 H 1.11776 0.92086 1.18653
 C2527 C 1.07465 0.40330 0.73264
 C2528 C 1.09781 0.40136 0.73641
 C2529 C 1.11301 0.40768 0.71964
 C2530 C 1.10512 0.41583 0.69914
 C2531 C 1.12965 0.36855 0.81185
 C2532 C 1.06672 0.41145 0.71213
 C2533 C 1.10605 0.39261 0.75734
 C2534 C 1.11323 0.38515 0.77470
 C2535 C 1.12195 0.37627 0.79483
 C2536 C 1.08187 0.41778 0.69514
 H2537 H 1.06274 0.39848 0.74553
 H2538 H 1.13097 0.40614 0.72235
 H2539 H 1.11720 0.42024 0.68628
 H2540 H 1.04874 0.41299 0.70962
 C2541 C 0.61303 0.90843 0.71986
 C2542 C 0.59785 0.90210 0.73664
 C2543 C 0.57469 0.90395 0.73286
 C2544 C 0.56673 0.91205 0.71233
 C2545 C 0.62976 0.86955 0.81214
 C2546 C 0.60512 0.91653 0.69935
 C2547 C 0.60612 0.89343 0.75759
 C2548 C 0.61332 0.88604 0.77496
 C2549 C 0.62206 0.87723 0.79511
 C2550 C 0.58187 0.91840 0.69534
 H2551 H 0.63100 0.90697 0.72258
 H2552 H 0.56279 0.89911 0.74575
 H2553 H 0.54875 0.91352 0.70982
 H2554 H 0.61719 0.92097 0.68649
 C2555 C 0.61370 0.40680 1.21925
 C2556 C 0.59866 0.40026 1.23608
 C2557 C 0.57546 0.40211 1.23250
 C2558 C 0.56733 0.41039 1.21212
 C2559 C 0.63115 0.36726 1.31118
 C2560 C 0.60561 0.41509 1.19888
 C2561 C 0.60711 0.39142 1.25690
 C2562 C 0.61445 0.38391 1.27417
 C2563 C 0.62333 0.37499 1.29422
 C2564 C 0.58232 0.41696 1.19506
 H2565 H 0.63168 0.40535 1.22181
 H2566 H 0.56368 0.39712 1.24543
 H2567 H 0.54933 0.41185 1.20975
 H2568 H 0.61757 0.41968 1.18597
 C2569 C 0.90833 1.11459 1.21968
 C2570 C 0.90183 1.09963 1.23657
 C2571 C 0.90348 1.07648 1.23295
 C2572 C 0.91154 1.06830 1.21248
 C2573 C 0.86948 1.13206 1.31200
 C2574 C 0.91639 1.10646 1.19923
 C2575 C 0.89324 1.10812 1.25748
 C2576 C 0.88591 1.11547 1.27483
 C2577 C 0.87715 1.12432 1.29497
 C2578 C 0.91808 1.08322 1.19539
 H2579 H 0.90703 1.13254 1.22227
 H2580 H 0.89851 1.06475 1.24592
 H2581 H 0.91286 1.05033 1.21010
 H2582 H 0.92097 1.11837 1.18629
 C2583 C 0.90361 0.57590 0.73196
 C2584 C 0.90195 0.59904 0.73565
 C2585 C 0.90849 0.61405 0.71882
 C2586 C 0.91659 0.60599 0.69836
 C2587 C 0.86936 0.63120 0.81109
 C2588 C 0.91171 0.56779 0.71149
 C2589 C 0.89328 0.60745 0.75655
 C2590 C 0.88589 0.61474 0.77391
 C2591 C 0.87706 0.62352 0.79405
 C2592 C 0.91827 0.58276 0.69444
 H2593 H 0.89861 0.56413 0.74489
 H2594 H 0.90718 0.63199 0.72146
 H2595 H 0.92119 0.61793 0.68546
 H2596 H 0.91303 0.54983 0.70905
 C2597 C 0.40316 1.07680 0.73264
 C2598 C 0.40154 1.09996 0.73625
 C2599 C 0.40816 1.11490 0.71939
 C2600 C 0.41632 1.10676 0.69899
 C2601 C 0.36883 1.13245 0.81151
 C2602 C 0.41132 1.06861 0.71222
 C2603 C 0.39283 1.10847 0.75711
 C2604 C 0.38541 1.11583 0.77442
 C2605 C 0.37656 1.12470 0.79451
 C2606 C 0.41798 1.08351 0.69515
 H2607 H 0.39810 1.06509 0.74559
 H2608 H 0.40688 1.13286 0.72197
 H2609 H 0.42099 1.11865 0.68606
 H2610 H 0.41261 1.05064 0.70985
 C2611 C 0.38640 0.59212 1.21985
 C2612 C 0.40157 0.59863 1.23656
 C2613 C 0.42473 0.59672 1.23280
 C2614 C 0.43271 0.58843 1.21235
 C2615 C 0.36972 0.63187 1.31185
 C2616 C 0.39434 0.58382 1.19942
 C2617 C 0.39329 0.60753 1.25742
 C2618 C 0.38611 0.61511 1.27474
 C2619 C 0.37741 0.62410 1.29484
 C2620 C 0.41759 0.58192 1.19541
 H2621 H 0.36844 0.59361 1.22256
 H2622 H 0.43662 0.60168 1.24563
 H2623 H 0.45069 0.58694 1.20985
 H2624 H 0.38228 0.57927 1.18660
 C2625 C 1.07538 1.23304 0.90359
 C2626 C 1.09855 1.23679 0.90169
 C2627 C 1.11370 1.21999 0.90806
 C2628 C 1.10574 1.19949 0.91622
 C2629 C 1.13040 1.31230 0.86873
 C2630 C 1.06738 1.21252 0.91174
 C2631 C 1.10685 1.25773 0.89292
 C2632 C 1.11405 1.27510 0.88544
 C2633 C 1.12275 1.29525 0.87651
 C2634 C 1.08248 1.19550 0.91812
 H2635 H 1.06351 1.24595 0.89872
 H2636 H 1.13166 1.22268 0.90656
 H2637 H 1.11778 1.18660 0.92068
 H2638 H 1.04939 1.21003 0.91324
 C2639 C 1.11464 0.71934 0.40753
 C2640 C 1.09945 0.73608 0.40111
 C2641 C 1.07629 0.73225 0.40298
 C2642 C 1.06835 0.71172 0.41115
 C2643 C 1.13092 0.81170 0.36806
 C2644 C 1.10675 0.69882 0.41572
 C2645 C 1.10768 0.75702 0.39230
 C2646 C 1.11479 0.77442 0.38479
 C2647 C 1.12337 0.79461 0.37584
 C2648 C 1.08350 0.69475 0.41757
 H2649 H 1.13260 0.72209 0.40606
 H2650 H 1.06438 0.74510 0.39807
 H2651 H 1.05037 0.70917 0.41262
 H2652 H 1.11882 0.68598 0.42021
 C2653 C 0.57651 1.23279 0.40275
 C2654 C 0.59969 1.23647 0.40086
 C2655 C 0.61478 1.21970 0.40743
 C2656 C 0.60676 1.19928 0.41577
 C2657 C 0.63159 1.31164 0.36716
 C2658 C 0.56844 1.21237 0.41108
 C2659 C 0.60804 1.25729 0.39187
 C2660 C 0.61526 1.27458 0.38420
 C2661 C 0.62395 1.29465 0.37508
 C2662 C 0.58349 1.19536 0.41764
 H2663 H 0.56467 1.24567 0.39773
 H2664 H 0.63276 1.22233 0.40595
 H2665 H 0.61876 1.18641 0.42037
 H2666 H 0.55045 1.20994 0.41255
 C2667 C 0.61337 0.71978 0.90854
 C2668 C 0.59820 0.73655 0.90216
 C2669 C 0.57503 0.73273 0.90396
 C2670 C 0.56706 0.71217 0.91202
 C2671 C 0.62995 0.81220 0.86949
 C2672 C 0.60545 0.69923 0.91662
 C2673 C 0.60647 0.75753 0.89348
 C2674 C 0.61364 0.77494 0.88607
 C2675 C 0.62232 0.79513 0.87722
 C2676 C 0.58220 0.69517 0.91841
 H2677 H 0.63134 0.72253 0.90712
 H2678 H 0.56314 0.74561 0.89908
 H2679 H 0.54908 0.70962 0.91344
 H2680 H 0.61751 0.68637 0.92108
 C2681 C 0.88713 1.22031 1.09193
 C2682 C 0.90232 1.23706 1.09830
 C2683 C 0.92548 1.23328 1.09637
 C2684 C 0.93342 1.21276 1.08818
 C2685 C 0.87033 1.31237 1.13139
 C2686 C 0.89502 1.19981 1.08373
 C2687 C 0.89407 1.25797 1.10713
 C2688 C 0.88687 1.27531 1.11465
 C2689 C 0.87810 1.29540 1.12361
 C2690 C 0.91826 1.19578 1.08180
 H2691 H 0.86917 1.22303 1.09346
 H2692 H 0.93739 1.24615 1.10124
 H2693 H 0.95140 1.21023 1.08666
 H2694 H 0.88294 1.18695 1.07929
 C2695 C 0.88721 0.71988 0.59128
 C2696 C 0.90231 0.73667 0.59776
 C2697 C 0.92549 0.73297 0.59593
 C2698 C 0.93354 0.71250 0.58771
 C2699 C 0.87010 0.81194 0.63081
 C2700 C 0.89521 0.69942 0.58306
 C2701 C 0.89395 0.75755 0.60658
 C2702 C 0.88668 0.77488 0.61408
 C2703 C 0.87787 0.79496 0.62303
 C2704 C 0.91848 0.69548 0.58121
 H2705 H 0.86923 0.72253 0.59273
 H2706 H 0.93734 0.74587 0.60088
 H2707 H 0.95154 0.71004 0.58626
 H2708 H 0.88319 0.68654 0.57852
 C2709 C 0.42478 1.23322 0.59768
 C2710 C 0.40158 1.23680 0.59953
 C2711 C 0.38657 1.22001 0.59282
 C2712 C 0.39468 1.19968 0.58438
 C2713 C 0.36901 1.31167 0.63321
 C2714 C 0.43294 1.21289 0.58924
 C2715 C 0.39311 1.25755 0.60857
 C2716 C 0.38576 1.27477 0.61624
 C2717 C 0.37686 1.29475 0.62534
 C2718 C 0.41797 1.19587 0.58253
 H2719 H 0.43656 1.24612 0.60280
 H2720 H 0.36858 1.22256 0.59427
 H2721 H 0.38273 1.18680 0.57968
 H2722 H 0.45095 1.21053 0.58780
 C2723 C 0.40319 0.73290 1.07614
 C2724 C 0.40144 0.73648 1.09927
 C2725 C 0.40791 0.71956 1.11419
 C2726 C 0.41605 0.69912 1.10607
 C2727 C 0.36884 0.81185 1.13178
 C2728 C 0.41132 0.71245 1.06797
 C2729 C 0.39276 0.75737 1.10776
 C2730 C 0.38537 0.77471 1.11512
 C2731 C 0.37655 0.79483 1.12400
 C2732 C 0.41783 0.69531 1.08285
 H2733 H 0.39824 0.74590 1.06444
 H2734 H 0.40653 0.72211 1.13212
 H2735 H 0.42059 0.68614 1.11794
 H2736 H 0.41271 0.71010 1.05002
 C2737 C 0.88602 0.78042 0.90864
 C2738 C 0.90119 0.76371 0.90206
 C2739 C 0.92435 0.76750 0.90388
 C2740 C 0.93233 0.78797 0.91214
 C2741 C 0.86946 0.68843 0.86859
 C2742 C 0.89396 0.80089 0.91691
 C2743 C 0.89292 0.74285 0.89313
 C2744 C 0.88577 0.72553 0.88551
 C2745 C 0.87711 0.70543 0.87644
 C2746 C 0.91721 0.80493 0.91868
 H2747 H 0.86806 0.77770 0.90722
 H2748 H 0.93624 0.75466 0.89886
 H2749 H 0.95032 0.79050 0.91354
 H2750 H 0.88191 0.81372 0.92150
 C2751 C 0.92451 0.26672 0.40345
 C2752 C 0.90134 0.26297 0.40152
 C2753 C 0.88618 0.27970 0.40803
 C2754 C 0.89411 0.30016 0.41633
 C2755 C 0.86962 0.18773 0.36792
 C2756 C 0.93248 0.28718 0.41174
 C2757 C 0.89308 0.24212 0.39254
 C2758 C 0.88594 0.22481 0.38488
 C2759 C 0.87728 0.20472 0.37578
 C2760 C 0.91736 0.30416 0.41821
 H2761 H 0.93640 0.25386 0.39848
 H2762 H 0.86821 0.27701 0.40651
 H2763 H 0.88205 0.31301 0.42086
 H2764 H 0.95046 0.28968 0.41322
 C2765 C 0.42450 0.76782 0.40375
 C2766 C 0.40135 0.76400 0.40184
 C2767 C 0.38614 0.78069 0.40835
 C2768 C 0.39401 0.80118 0.41662
 C2769 C 0.36996 0.68862 0.36827
 C2770 C 0.43242 0.78831 0.41200
 C2771 C 0.39315 0.74311 0.39289
 C2772 C 0.38607 0.72577 0.38524
 C2773 C 0.37751 0.70565 0.37614
 C2774 C 0.41726 0.80525 0.41847
 H2775 H 0.43642 0.75499 0.39878
 H2776 H 0.36818 0.77794 0.40686
 H2777 H 0.38193 0.81400 0.42115
 H2778 H 0.45040 0.79086 0.41347
 C2779 C 0.38567 0.28002 0.90772
 C2780 C 0.40079 0.26330 0.90107
 C2781 C 0.42396 0.26702 0.90292
 C2782 C 0.43199 0.28744 0.91128
 C2783 C 0.36889 0.18816 0.86738
 C2784 C 0.39365 0.30043 0.91609
 C2785 C 0.39247 0.24249 0.89205
 C2786 C 0.38528 0.22520 0.88437
 C2787 C 0.37657 0.20514 0.87526
 C2788 C 0.41692 0.30439 0.91791
 H2789 H 0.36769 0.27735 0.90628
 H2790 H 0.43582 0.25418 0.89784
 H2791 H 0.44999 0.28991 0.91271
 H2792 H 0.38163 0.31326 0.92075
 C2793 C 1.07535 0.76748 1.09802
 C2794 C 1.09854 0.76381 1.09975
 C2795 C 1.11360 0.78057 1.09302
 C2796 C 1.10553 0.80095 1.08466
 C2797 C 1.13095 0.68867 1.13297
 C2798 C 1.06724 0.78788 1.08967
 C2799 C 1.10696 0.74300 1.10867
 C2800 C 1.11427 0.72571 1.11625
 C2801 C 1.12313 0.70565 1.12522
 C2802 C 1.08225 0.80486 1.08293
 H2803 H 1.06354 0.75461 1.10316
 H2804 H 1.13158 0.77794 1.09438
 H2805 H 1.11751 0.81380 1.07993
 H2806 H 1.04923 0.79030 1.08832
 C2807 C 1.07482 0.26679 0.59705
 C2808 C 1.09800 0.26305 0.59878
 C2809 C 1.11311 0.27983 0.59224
 C2810 C 1.10510 0.30029 0.58403
 C2811 C 1.13031 0.18770 0.63155
 C2812 C 1.06677 0.28727 0.58885
 C2813 C 1.10637 0.24215 0.60753
 C2814 C 1.11367 0.22481 0.61497
 C2815 C 1.12252 0.20470 0.62383
 C2816 C 1.08184 0.30426 0.58227
 H2817 H 1.06297 0.25390 0.60206
 H2818 H 1.13108 0.27716 0.59361
 H2819 H 1.11712 0.31316 0.57942
 H2820 H 1.04877 0.28974 0.58747
 C2821 C 0.61310 0.78053 0.59215
 C2822 C 0.59799 0.76374 0.59868
 C2823 C 0.57481 0.76747 0.59695
 C2824 C 0.56675 0.78796 0.58879
 C2825 C 0.63028 0.68833 0.63134
 C2826 C 0.60509 0.80100 0.58398
 C2827 C 0.60637 0.74282 0.60740
 C2828 C 0.61366 0.72547 0.61482
 C2829 C 0.62250 0.70535 0.62365
 C2830 C 0.58182 0.80496 0.58222
 H2831 H 0.63107 0.77786 0.59351
 H2832 H 0.56297 0.75457 0.60195
 H2833 H 0.54876 0.79043 0.58741
 H2834 H 0.61710 0.81388 0.57938
 C2835 C 0.61308 0.27969 1.09233
 C2836 C 0.59798 0.26294 1.09896
 C2837 C 0.57480 0.26665 1.09718
 C2838 C 0.56674 0.28708 1.08887
 C2839 C 0.63031 0.18784 1.13227
 C2840 C 0.60507 0.30011 1.08401
 C2841 C 0.60635 0.24211 1.10788
 C2842 C 0.61364 0.22483 1.11546
 C2843 C 0.62249 0.20479 1.12446
 C2844 C 0.58180 0.30406 1.08223
 H2845 H 0.63106 0.27704 1.09373
 H2846 H 0.56296 0.25378 1.10225
 H2847 H 0.54875 0.28954 1.08747
 H2848 H 0.61708 0.31296 1.07936
 C2849 C 1.23332 1.09683 0.92389
 C2850 C 1.23685 1.09858 0.90076
 C2851 C 1.21990 1.09203 0.88588
 C2852 C 1.19947 1.08381 0.89405
 C2853 C 1.31208 1.13167 0.86805
 C2854 C 1.21287 1.08862 0.93212
 C2855 C 1.25772 1.10739 0.89222
 C2856 C 1.27503 1.11489 0.88482
 C2857 C 1.29510 1.12385 0.87588
 C2858 C 1.19570 1.08203 0.91728
 H2859 H 1.24634 1.10184 0.93557
 H2860 H 1.22242 1.09341 0.86794
 H2861 H 1.18646 1.07920 0.88221
 H2862 H 1.21054 1.08723 0.95007
 C2863 C 1.23409 0.59555 0.42379
 C2864 C 1.23769 0.59737 0.40067
 C2865 C 1.22079 0.59085 0.38572
 C2866 C 1.20032 0.58262 0.39381
 C2867 C 1.31291 0.63079 0.36830
 C2868 C 1.21361 0.58732 0.43193
 C2869 C 1.25856 0.60625 0.39222
 C2870 C 1.27587 0.61383 0.38490
 C2871 C 1.29594 0.62289 0.37606
 C2872 C 1.19648 0.58080 0.41702
 H2873 H 1.24708 0.60054 0.43551
 H2874 H 1.22336 0.59229 0.36779
 H2875 H 1.18735 0.57806 0.38192
 H2876 H 1.21124 0.58590 0.44987
 C2877 C 0.73387 1.09643 0.42422
 C2878 C 0.73747 1.09826 0.40110
 C2879 C 0.72054 1.09181 0.38615
 C2880 C 0.70005 1.08364 0.39425
 C2881 C 0.81282 1.13124 0.36861
 C2882 C 0.71337 1.08827 0.43236
 C2883 C 0.75838 1.10702 0.39265
 C2884 C 0.77572 1.11450 0.38530
 C2885 C 0.79583 1.12344 0.37641
 C2886 C 0.69622 1.08181 0.41745
 H2887 H 0.74688 1.10136 0.43594
 H2888 H 0.72311 1.09326 0.36823
 H2889 H 0.68706 1.07913 0.38236
 H2890 H 0.71099 1.08683 0.45030
 C2891 C 0.73314 0.59631 0.92442
 C2892 C 0.73677 0.59801 0.90130
 C2893 C 0.71987 0.59144 0.88636
 C2894 C 0.69939 0.58327 0.89448
 C2895 C 0.81212 0.63090 0.86872
 C2896 C 0.71265 0.58814 0.93259
 C2897 C 0.75768 0.60675 0.89281
 C2898 C 0.77502 0.61421 0.88544
 C2899 C 0.79512 0.62312 0.87653
 C2900 C 0.69554 0.58154 0.91770
 H2901 H 0.74613 0.60133 0.93613
 H2902 H 0.72245 0.59279 0.86844
 H2903 H 0.68643 0.57865 0.88260
 H2904 H 0.71026 0.58679 0.95053
 C2905 C 1.23310 0.92409 1.09676
 C2906 C 1.23666 0.90094 1.09857
 C2907 C 1.21970 0.88599 1.09215
 C2908 C 1.19922 0.89412 1.08401
 C2909 C 1.31205 0.86837 1.13128
 C2910 C 1.21262 0.93227 1.08863
 C2911 C 1.25757 0.89245 1.10727
 C2912 C 1.27492 0.88508 1.11469
 C2913 C 1.29504 0.87618 1.12355
 C2914 C 1.19543 0.91736 1.08218
 H2915 H 1.24614 0.93582 1.10167
 H2916 H 1.22223 0.86804 1.09358
 H2917 H 1.18621 0.88223 1.07951
 H2918 H 1.21028 0.95024 1.08719
 C2919 C 1.21970 0.38503 0.59242
 C2920 C 1.23659 0.39999 0.59900
 C2921 C 1.23304 0.42314 0.59713
 C2922 C 1.21263 0.43130 0.58878
 C2923 C 1.31179 0.36775 0.63254
 C2924 C 1.19930 0.39314 0.58406
 C2925 C 1.25742 0.39154 0.60796
 C2926 C 1.27471 0.38424 0.61558
 C2927 C 1.29479 0.37545 0.62466
 C2928 C 1.19551 0.41638 0.58219
 H2929 H 1.22224 0.36708 0.59389
 H2930 H 1.24601 0.43488 0.60215
 H2931 H 1.21030 0.44926 0.58731
 H2932 H 1.18634 0.38123 0.57945
 C2933 C 0.73318 0.92447 0.59646
 C2934 C 0.73686 0.90133 0.59822
 C2935 C 0.71996 0.88631 0.59178
 C2936 C 0.69944 0.89435 0.58367
 C2937 C 0.81245 0.86918 0.63090
 C2938 C 0.71265 0.93256 0.58836
 C2939 C 0.75781 0.89294 0.60692
 C2940 C 0.77521 0.88566 0.61433
 C2941 C 0.79538 0.87688 0.62318
 C2942 C 0.69553 0.91758 0.58190
 H2943 H 0.74616 0.93625 0.60138
 H2944 H 0.72259 0.86837 0.59318
 H2945 H 0.68649 0.88240 0.57915
 H2946 H 0.71022 0.95052 0.58696
 C2947 C 0.71961 0.40730 1.11362
 C2948 C 0.73659 0.40089 1.09869
 C2949 C 0.73294 0.40248 1.07556
 C2950 C 0.71238 0.41043 1.06740
 C2951 C 0.81241 0.36927 1.13135
 C2952 C 0.69907 0.41526 1.10551
 C2953 C 0.75762 0.39248 1.10719
 C2954 C 0.77507 0.38533 1.11459
 C2955 C 0.79530 0.37678 1.12353
 C2956 C 0.69521 0.41693 1.08230
 H2957 H 0.72222 0.40603 1.13155
 H2958 H 0.74598 0.39757 1.06385
 H2959 H 0.70998 0.41174 1.04945
 H2960 H 0.68607 0.41980 1.11740
 C2961 C 0.76678 1.09743 1.07599
 C2962 C 0.76315 1.09925 1.09910
 C2963 C 0.78007 1.09283 1.11407
 C2964 C 0.80056 1.08465 1.10600
 C2965 C 0.68760 1.13184 1.13154
 C2966 C 0.78729 1.08926 1.06787
 C2967 C 0.74220 1.10796 1.10753
 C2968 C 0.72482 1.11536 1.11487
 C2969 C 0.70466 1.12417 1.12374
 C2970 C 0.80442 1.08279 1.08280
 H2971 H 0.75378 1.10234 1.06425
 H2972 H 0.77748 1.09426 1.13199
 H2973 H 0.81354 1.08013 1.11791
 H2974 H 0.78967 1.08781 1.04994
 C2975 C 0.78021 0.61408 0.59127
 C2976 C 0.76335 0.59904 0.59781
 C2977 C 0.76703 0.57591 0.59604
 C2978 C 0.78754 0.56783 0.58784
 C2979 C 0.68789 0.63106 0.63103
 C2980 C 0.80071 0.60605 0.58306
 C2981 C 0.74243 0.60742 0.60665
 C2982 C 0.72507 0.61466 0.61419
 C2983 C 0.70493 0.62339 0.62320
 C2984 C 0.80463 0.58282 0.58130
 H2985 H 0.77757 0.63202 0.59267
 H2986 H 0.75408 0.56412 0.60104
 H2987 H 0.78998 0.54987 0.58645
 H2988 H 0.81364 0.61800 0.57848
 C2989 C 0.28004 1.11462 0.59170
 C2990 C 0.26316 1.09957 0.59817
 C2991 C 0.26688 1.07644 0.59644
 C2992 C 0.28744 1.06838 0.58836
 C2993 C 0.18750 1.13158 0.63090
 C2994 C 0.30059 1.10660 0.58361
 C2995 C 0.24219 1.10794 0.60686
 C2996 C 0.22478 1.11518 0.61429
 C2997 C 0.20458 1.12392 0.62316
 C2998 C 0.30454 1.08338 0.58188
 H2999 H 0.27738 1.13256 0.59307
 H3000 H 0.25392 1.06464 0.60138
 H3001 H 0.28990 1.05042 0.58699
 H3002 H 0.31353 1.11857 0.57908
 C3003 C 0.28020 0.59272 1.11417
 C3004 C 0.26334 0.59941 1.09925
 C3005 C 0.26694 0.59770 1.07612
 C3006 C 0.28737 0.58938 1.06795
 C3007 C 0.18809 0.63251 1.13188
 C3008 C 0.30061 0.58440 1.10605
 C3009 C 0.24248 0.60828 1.10774
 C3010 C 0.22517 0.61581 1.11511
 C3011 C 0.20509 0.62476 1.12403
 C3012 C 0.30445 0.58266 1.08283
 H3013 H 0.27763 0.59407 1.13210
 H3014 H 0.25399 0.60281 1.06442
 H3015 H 0.28974 0.58802 1.05000
 H3016 H 0.31355 0.57969 1.11792
 C3017 C 0.76643 0.92524 0.90398
 C3018 C 0.76270 0.90211 0.90227
 C3019 C 0.77953 0.88706 0.90879
 C3020 C 0.80006 0.89507 0.91693
 C3021 C 0.68719 0.86987 0.86949
 C3022 C 0.78697 0.93330 0.91211
 C3023 C 0.74175 0.89373 0.89354
 C3024 C 0.72437 0.88645 0.88610
 C3025 C 0.70422 0.87764 0.87723
 C3026 C 0.80403 0.91829 0.91865
 H3027 H 0.75350 0.93704 0.89900
 H3028 H 0.77685 0.86912 0.90744
 H3029 H 0.81297 0.88310 0.92150
 H3030 H 0.78945 0.95125 0.91346
 C3031 C 0.76705 0.42414 0.40217
 C3032 C 0.76344 0.40099 0.40043
 C3033 C 0.78028 0.38602 0.40711
 C3034 C 0.80069 0.39414 0.41545
 C3035 C 0.68823 0.36834 0.36733
 C3036 C 0.78746 0.43230 0.41050
 C3037 C 0.74259 0.39251 0.39155
 C3038 C 0.72528 0.38513 0.38402
 C3039 C 0.70521 0.37620 0.37508
 C3040 C 0.80453 0.41738 0.41722
 H3041 H 0.75410 0.43587 0.39706
 H3042 H 0.77771 0.36807 0.40575
 H3043 H 0.81361 0.38223 0.42016
 H3044 H 0.78984 0.45027 0.41188
 C3045 C 0.26670 0.92543 0.40293
 C3046 C 0.26305 0.90229 0.40120
 C3047 C 0.27989 0.88730 0.40784
 C3048 C 0.30033 0.89538 0.41612
 C3049 C 0.18783 0.86968 0.36811
 C3050 C 0.28716 0.93356 0.41120
 C3051 C 0.24218 0.89383 0.39236
 C3052 C 0.22487 0.88647 0.38484
 C3053 C 0.20480 0.87754 0.37589
 C3054 C 0.30421 0.91861 0.41787
 H3055 H 0.25377 0.93719 0.39785
 H3056 H 0.27729 0.86935 0.40648
 H3057 H 0.31325 0.88345 0.42079
 H3058 H 0.28957 0.95153 0.41256
 C3059 C 0.26623 0.42452 0.90361
 C3060 C 0.26259 0.40138 0.90180
 C3061 C 0.27950 0.38637 0.90821
 C3062 C 0.30000 0.39443 0.91636
 C3063 C 0.18711 0.36893 0.86914
 C3064 C 0.28675 0.43263 0.91176
 C3065 C 0.24165 0.39296 0.89310
 C3066 C 0.22428 0.38562 0.88569
 C3067 C 0.20414 0.37674 0.87685
 C3068 C 0.30387 0.41766 0.91821
 H3069 H 0.25324 0.43629 0.89871
 H3070 H 0.27690 0.36843 0.90678
 H3071 H 0.31296 0.38249 0.92087
 H3072 H 0.28915 0.45059 0.91320
   
