data_POSCAR
  _audit_creation_date              2014-09-24
  _audit_creation_method            'ToBaCCo'
  _symmetry_space_group_name_H-M    'P1'
  _symmetry_Int_Tables_number       1
  _symmetry_cell_setting            triclinic
  loop_
  _symmetry_equiv_pos_as_xyz
 x,y,z
_cell_length_a 70.1327
_cell_length_b 70.1164
_cell_length_c 70.0949
_cell_angle_alpha 89.986600
_cell_angle_beta 90.004800
_cell_angle_gamma 89.986600
loop_
  _atom_site_label
  _atom_site_type_symbol
  _atom_site_fract_x
  _atom_site_fract_y
  _atom_site_fract_z
C1 C 0.35797 1.35899 0.33368
 C2 C 0.36610 1.34269 0.34192
 C3 C 0.35790 1.33456 0.35823
 C4 C 0.34157 1.34274 0.36633
 C5 C 0.33341 1.35905 0.35812
 C6 C 0.34163 1.36718 0.34179
 H7 H 0.37868 1.33624 0.33562
 H8 H 0.33519 1.33634 0.37889
 H9 H 0.33526 1.37974 0.33535
 C10 C 0.35783 0.85851 0.83414
 C11 C 0.36598 0.84220 0.84232
 C12 C 0.35776 0.83396 0.85856
 C13 C 0.34139 0.84207 0.86666
 C14 C 0.33321 0.85839 0.85850
 C15 C 0.34146 0.86662 0.84224
 H16 H 0.37858 0.83585 0.83598
 H17 H 0.33498 0.83558 0.87917
 H18 H 0.33511 0.87918 0.83581
 C19 C 0.85740 1.35859 0.83405
 C20 C 0.86558 1.34229 0.84221
 C21 C 0.85745 1.33411 0.85853
 C22 C 0.84114 1.34226 0.86671
 C23 C 0.83294 1.35858 0.85856
 C24 C 0.84109 1.36674 0.84222
 H25 H 0.87813 1.33591 0.83582
 H26 H 0.83482 1.33583 0.87929
 H27 H 0.83473 1.37931 0.83580
 C28 C 0.85873 0.85882 0.33438
 C29 C 0.84237 0.86692 0.34250
 C30 C 0.83417 0.85872 0.35878
 C31 C 0.84235 0.84242 0.36695
 C32 C 0.85871 0.83431 0.35884
 C33 C 0.86690 0.84252 0.34257
 H34 H 0.83596 0.87947 0.33609
 H35 H 0.83593 0.83600 0.37947
 H36 H 0.87949 0.83616 0.33621
 C37 C 0.64082 0.64118 0.33385
 C38 C 0.65726 0.63312 0.34189
 C39 C 0.66566 0.64147 0.35798
 C40 C 0.65760 0.65786 0.36607
 C41 C 0.64118 0.66594 0.35806
 C42 C 0.63278 0.65759 0.34196
 H43 H 0.66363 0.62051 0.33556
 H44 H 0.66420 0.66442 0.37843
 H45 H 0.62015 0.66397 0.33569
 C46 C 0.64209 0.14156 0.83414
 C47 C 0.65853 0.13343 0.84208
 C48 C 0.66699 0.14168 0.85822
 C49 C 0.65896 0.15806 0.86641
 C50 C 0.64253 0.16619 0.85846
 C51 C 0.63409 0.15793 0.84235
 H52 H 0.66478 0.12084 0.83561
 H53 H 0.66555 0.16458 0.87880
 H54 H 0.62146 0.16431 0.83611
 C55 C 1.14067 0.64042 0.83439
 C56 C 1.13262 0.65686 0.84242
 C57 C 1.14100 0.66526 0.85850
 C58 C 1.15740 0.65720 0.86656
 C59 C 1.16546 0.64076 0.85854
 C60 C 1.15707 0.63237 0.84247
 H61 H 1.12002 0.66319 0.83607
 H62 H 1.16399 0.66379 0.87891
 H63 H 1.16340 0.61975 0.83615
 C64 C 1.14219 0.14146 0.33286
 C65 C 1.15866 0.13336 0.34081
 C66 C 1.16701 0.14154 0.35704
 C67 C 1.15886 0.15781 0.36532
 C68 C 1.14241 0.16591 0.35739
 C69 C 1.13407 0.15773 0.34117
 H70 H 1.16503 0.12084 0.33430
 H71 H 1.16536 0.16426 0.37780
 H72 H 1.12140 0.16412 0.33499
 C73 C 0.64203 1.35886 0.66601
 C74 C 0.65834 1.36707 0.65789
 C75 C 0.66655 1.35898 0.64154
 C76 C 0.65840 1.34267 0.63332
 C77 C 0.64209 1.33447 0.64144
 C78 C 0.63391 1.34257 0.65777
 H79 H 0.66466 1.37962 0.66436
 H80 H 0.66477 1.33629 0.62074
 H81 H 0.62136 1.33615 0.66413
 C82 C 0.64094 0.85925 1.16547
 C83 C 0.65726 0.86737 1.15731
 C84 C 0.66542 0.85920 1.14100
 C85 C 0.65722 0.84291 1.13284
 C86 C 0.64090 0.83477 1.14100
 C87 C 0.63276 0.84296 1.15731
 H88 H 0.66367 0.87991 1.16371
 H89 H 0.66361 0.83650 1.12029
 H90 H 0.62020 0.83659 1.16370
 C91 C 1.14081 1.35881 1.16599
 C92 C 1.15714 1.36703 1.15789
 C93 C 1.16537 1.35895 1.14157
 C94 C 1.15727 1.34265 1.13334
 C95 C 1.14097 1.33441 1.14141
 C96 C 1.13273 1.34249 1.15772
 H97 H 1.16352 1.37958 1.16431
 H98 H 1.16372 1.33632 1.12078
 H99 H 1.12017 1.33600 1.16402
 C100 C 1.14231 0.85788 0.66581
 C101 C 1.15862 0.86614 0.65774
 C102 C 1.16691 0.85808 0.64141
 C103 C 1.15883 0.84176 0.63316
 C104 C 1.14252 0.83349 0.64123
 C105 C 1.13427 0.84157 0.65754
 H106 H 1.16488 0.87871 0.66424
 H107 H 1.16526 0.83540 0.62060
 H108 H 1.12172 0.83510 0.66385
 C109 C 0.35795 0.64144 0.66613
 C110 C 0.36607 0.65788 0.65820
 C111 C 0.35798 0.66620 0.64193
 C112 C 0.34177 0.65806 0.63357
 C113 C 0.33364 0.64161 0.64149
 C114 C 0.34174 0.63330 0.65776
 H115 H 0.37855 0.66426 0.66475
 H116 H 0.33542 0.66457 0.62105
 H117 H 0.33537 0.62065 0.66397
 C118 C 0.35848 0.14111 1.16655
 C119 C 0.34218 0.13304 1.15824
 C120 C 0.33419 0.14124 1.14186
 C121 C 0.34250 0.15750 1.13376
 C122 C 0.35879 0.16558 1.14204
 C123 C 0.36678 0.15738 1.15842
 H124 H 0.33564 0.12051 1.16456
 H125 H 0.33624 0.16392 1.12115
 H126 H 0.37932 0.16375 1.16487
 C127 C 0.85870 0.64122 1.16632
 C128 C 0.86691 0.65752 1.15816
 C129 C 0.85877 0.66575 1.14186
 C130 C 0.84243 0.65767 1.13370
 C131 C 0.83420 0.64138 1.14183
 C132 C 0.84234 0.63315 1.15813
 H133 H 0.87950 0.66389 1.16452
 H134 H 0.83606 0.66411 1.12116
 H135 H 0.83587 0.62060 1.16447
 C136 C 0.85744 0.14112 0.66677
 C137 C 0.86546 0.15761 0.65881
 C138 C 0.85725 0.16594 0.64261
 C139 C 0.84101 0.15778 0.63433
 C140 C 0.83294 0.14128 0.64225
 C141 C 0.84118 0.13295 0.65848
 H142 H 0.87797 0.16405 0.66526
 H143 H 0.83460 0.16434 0.62186
 H144 H 0.83487 0.12025 0.66470
 C145 C 1.35855 0.35806 0.66606
 C146 C 1.34223 0.36621 0.65788
 C147 C 1.33408 0.35806 0.64156
 C148 C 1.34225 0.34176 0.63339
 C149 C 1.35858 0.33358 0.64154
 C150 C 1.36672 0.34176 0.65788
 H151 H 1.33583 0.37875 0.66428
 H152 H 1.33583 0.33542 0.62082
 H153 H 1.37929 0.33541 0.66431
 C154 C 1.35884 0.85817 1.16579
 C155 C 1.34257 0.86633 1.15756
 C156 C 1.33442 0.85817 1.14125
 C157 C 1.34257 0.84182 1.13314
 C158 C 1.35886 0.83362 1.14135
 C159 C 1.36699 0.84182 1.15768
 H160 H 1.33619 0.87892 1.16391
 H161 H 1.33615 0.83546 1.12057
 H162 H 1.37953 0.83545 1.16415
 C163 C 0.85902 0.35800 1.16514
 C164 C 0.86717 0.34169 1.15697
 C165 C 0.85900 0.33351 1.14065
 C166 C 0.84268 0.34170 1.13250
 C167 C 0.83453 0.35802 1.14066
 C168 C 0.84271 0.36616 1.15697
 H169 H 0.87973 0.33532 1.16340
 H170 H 0.83624 0.33535 1.11994
 H171 H 0.83633 0.37872 1.16336
 C172 C 0.85874 0.85847 0.66553
 C173 C 0.86681 0.84216 0.65728
 C174 C 0.85857 0.83406 0.64098
 C175 C 0.84226 0.84231 0.63290
 C176 C 0.83417 0.85862 0.64114
 C177 C 0.84242 0.86670 0.65745
 H178 H 0.87937 0.83571 0.66361
 H179 H 0.83580 0.83598 0.62035
 H180 H 0.83609 0.87925 0.66390
 C181 C 0.64138 0.64124 0.66611
 C182 C 0.65776 0.63320 0.65798
 C183 C 0.66609 0.64160 0.64187
 C184 C 0.65801 0.65805 0.63389
 C185 C 0.64163 0.66610 0.64201
 C186 C 0.63331 0.65768 0.65812
 H187 H 0.66410 0.62056 0.66426
 H188 H 0.66454 0.66465 0.62152
 H189 H 0.62072 0.66400 0.66451
 C190 C 0.64147 1.14203 1.16595
 C191 C 0.65787 1.13396 1.15789
 C192 C 0.66629 1.14233 1.14182
 C193 C 0.65829 1.15878 1.13378
 C194 C 0.64187 1.16689 1.14182
 C195 C 0.63346 1.15848 1.15790
 H196 H 0.66416 1.12131 1.16421
 H197 H 0.66493 1.16532 1.12142
 H198 H 0.62085 1.16479 1.16427
 C199 C 0.14133 0.64197 1.16658
 C200 C 0.13332 0.65851 1.15866
 C201 C 0.14153 0.66683 1.14242
 C202 C 0.15774 0.65858 1.13411
 C203 C 0.16574 0.64207 1.14202
 C204 C 0.15753 0.63376 1.15823
 H205 H 0.12085 0.66495 1.16518
 H206 H 0.16421 0.66505 1.12163
 H207 H 0.16385 0.62104 1.16440
 C208 C 0.14075 1.14177 0.66541
 C209 C 0.15721 1.13377 0.65741
 C210 C 0.16554 1.14208 0.64126
 C211 C 0.15739 1.15839 0.63309
 C212 C 0.14091 1.16642 0.64108
 C213 C 0.13259 1.15808 0.65724
 H214 H 0.16362 1.12123 0.66383
 H215 H 0.16396 1.16488 0.62067
 H216 H 0.11992 1.16434 0.66356
 C217 C 1.35856 0.64230 0.33466
 C218 C 1.36672 0.65863 0.34280
 C219 C 1.35857 0.66681 0.35914
 C220 C 1.34228 0.65861 0.36733
 C221 C 1.33413 0.64229 0.35918
 C222 C 1.34228 0.63414 0.34286
 H223 H 1.37926 0.66499 0.33635
 H224 H 1.33585 0.66496 0.37990
 H225 H 1.33590 0.62158 0.33649
 C226 C 1.35856 1.14237 0.83428
 C227 C 1.36673 1.15867 0.84245
 C228 C 1.35859 1.16683 0.85881
 C229 C 1.34229 1.15863 0.86697
 C230 C 1.33412 1.14233 0.85879
 C231 C 1.34227 1.13421 0.84246
 H232 H 1.37927 1.16504 0.83601
 H233 H 1.33588 1.16496 0.87956
 H234 H 1.33588 1.12166 0.83606
 C235 C 0.85853 0.64098 0.83416
 C236 C 0.86678 0.65727 0.84225
 C237 C 0.85873 0.66551 0.85859
 C238 C 0.84243 0.65743 0.86683
 C239 C 0.83416 0.64114 0.85874
 C240 C 0.84223 0.63291 0.84242
 H241 H 0.87933 0.66360 0.83579
 H242 H 0.83612 0.66387 0.87940
 H243 H 0.83576 0.62037 0.83608
 C244 C 0.85958 1.13987 0.33514
 C245 C 0.86781 1.15617 0.34326
 C246 C 0.85971 1.16442 0.35955
 C247 C 0.84337 1.15635 0.36775
 C248 C 0.83513 1.14006 0.35964
 C249 C 0.84325 1.13182 0.34335
 H250 H 0.88038 1.16249 0.33683
 H251 H 0.83701 1.16282 0.38028
 H252 H 0.83679 1.11928 0.33699
 C253 C 0.64125 0.35787 0.33357
 C254 C 0.65758 0.36600 0.34174
 C255 C 0.66576 0.35782 0.35805
 C256 C 0.65759 0.34151 0.36621
 C257 C 0.64126 0.33335 0.35806
 C258 C 0.63309 0.34155 0.34174
 H259 H 0.66401 0.37857 0.33539
 H260 H 0.66402 0.33515 0.37877
 H261 H 0.62051 0.33517 0.33536
 C262 C 0.64112 0.85878 0.83461
 C263 C 0.65739 0.86696 0.84282
 C264 C 0.66546 0.85890 0.85923
 C265 C 0.65725 0.84265 0.86744
 C266 C 0.64098 0.83444 0.85925
 C267 C 0.63291 0.84252 0.84284
 H268 H 0.66383 0.87946 0.83638
 H269 H 0.66358 0.83632 0.88006
 H270 H 0.62040 0.83610 0.83641
 C271 C 0.14165 0.35828 0.83297
 C272 C 0.15795 0.36651 0.84112
 C273 C 0.16614 0.35843 0.85746
 C274 C 0.15802 0.34213 0.86568
 C275 C 0.14174 0.33389 0.85757
 C276 C 0.13355 0.34197 0.84122
 H277 H 0.16433 0.37907 0.83471
 H278 H 0.16443 0.33580 0.87827
 H279 H 0.12100 0.33548 0.83490
 C280 C 0.14196 0.85780 0.33277
 C281 C 0.15835 0.86588 0.34090
 C282 C 0.16654 0.85767 0.35717
 C283 C 0.15834 0.84139 0.36535
 C284 C 0.14197 0.83329 0.35726
 C285 C 0.13378 0.84150 0.34098
 H286 H 0.16480 0.87843 0.33453
 H287 H 0.16476 0.83496 0.37787
 H288 H 0.12117 0.83513 0.33467
 O289 O 0.98151 0.93111 0.90487
 O290 O 0.98144 0.90895 0.88255
 C291 C 0.97497 0.92446 0.88933
 C292 C 0.95942 0.93469 0.87934
 C293 C 0.95304 0.92856 0.86136
 H294 H 0.95984 0.91657 0.85436
 O295 O 1.01847 1.06880 0.90480
 O296 O 1.01850 1.09096 0.88246
 C297 C 1.02497 1.07544 0.88925
 C298 C 1.04050 1.06520 0.87923
 C299 C 1.04681 1.07132 0.86122
 H300 H 1.03998 1.08330 0.85423
 O301 O 0.90508 0.98142 0.93107
 O302 O 0.88273 0.98135 0.90893
 C303 C 0.88954 0.97489 0.92444
 C304 C 0.87958 0.95932 0.93468
 C305 C 0.86158 0.95297 0.92860
 H306 H 0.85455 0.95978 0.91663
 O307 O 1.09501 1.01852 0.93083
 O308 O 1.11730 1.01857 0.90864
 C309 C 1.11054 1.02504 0.92416
 C310 C 1.12054 1.04060 0.93437
 C311 C 1.13850 1.04698 0.92821
 H312 H 1.14547 1.04020 0.91619
 O313 O 0.93136 0.90486 0.98134
 O314 O 0.90920 0.88255 0.98133
 C315 C 0.92470 0.88932 0.97484
 C316 C 0.93490 0.87932 0.95927
 C317 C 0.92876 0.86134 0.95291
 H318 H 0.91678 0.85435 0.95973
 O319 O 1.06889 1.09494 0.98114
 O320 O 1.09105 1.11726 0.98109
 C321 C 1.07554 1.11048 0.97461
 C322 C 1.06532 1.12048 0.95905
 C323 C 1.07149 1.13843 0.95263
 H324 H 1.08352 1.14540 0.95940
 O325 O 0.93106 1.01863 0.90484
 O326 O 0.90886 1.01861 0.88256
 C327 C 0.92437 1.02512 0.88930
 C328 C 0.93454 1.04068 0.87926
 C329 C 0.92832 1.04708 0.86130
 H330 H 0.91629 1.04030 0.85436
 O331 O 1.06895 0.98129 0.90471
 O332 O 1.09110 0.98130 0.88238
 C333 C 1.07561 0.97480 0.88916
 C334 C 1.06542 0.95923 0.87916
 C335 C 1.07162 0.95280 0.86121
 H336 H 1.08365 0.95956 0.85425
 O337 O 1.01872 0.90498 0.93093
 O338 O 1.01872 0.88267 0.90876
 C339 C 1.02522 0.88944 0.92427
 C340 C 1.04078 0.87943 0.93448
 C341 C 1.04722 0.86149 0.92826
 H342 H 1.04047 0.85455 0.91621
 O343 O 0.98133 1.09500 0.93090
 O344 O 0.98132 1.11730 0.90871
 C345 C 0.97484 1.11055 0.92423
 C346 C 0.95931 1.12058 0.93446
 C347 C 0.95290 1.13853 0.92827
 H348 H 0.95964 1.14548 0.91621
 O349 O 0.90510 1.06893 0.98131
 O350 O 0.88280 1.09111 0.98132
 C351 C 0.88956 1.07560 0.97481
 C352 C 0.87954 1.06542 0.95925
 C353 C 0.86166 1.07171 0.95275
 H354 H 0.85475 1.08380 0.95947
 O355 O 1.09510 0.93102 0.98124
 O356 O 1.11743 0.90887 0.98118
 C357 C 1.11063 0.92437 0.97470
 C358 C 1.12061 0.93458 0.95912
 C359 C 1.13855 0.92840 0.95270
 H360 H 1.14553 0.91638 0.95947
 O361 O 0.98128 1.06891 0.90475
 O362 O 0.98127 1.09107 0.88242
 C363 C 0.97477 1.07557 0.88921
 C364 C 0.95920 1.06538 0.87921
 C365 C 0.95277 1.07156 0.86126
 H366 H 0.95953 1.08358 0.85427
 O367 O 1.01870 0.93102 0.90474
 O368 O 1.01869 0.90885 0.88243
 C369 C 1.02519 0.92436 0.88919
 C370 C 1.04074 0.93455 0.87917
 C371 C 1.04716 0.92834 0.86122
 H372 H 1.04039 0.91631 0.85427
 O373 O 1.09502 0.98131 0.93087
 O374 O 1.11731 0.98132 0.90868
 C375 C 1.11055 0.97482 0.92420
 C376 C 1.12057 0.95926 0.93441
 C377 C 1.13852 0.95286 0.92821
 H378 H 1.14547 0.95963 0.91617
 O379 O 0.90503 1.01863 0.93104
 O380 O 0.88269 1.01861 0.90889
 C381 C 0.88948 1.02512 0.92439
 C382 C 0.87950 1.04071 0.93457
 C383 C 0.86162 1.04723 0.92830
 H384 H 0.85468 1.04051 0.91623
 O385 O 0.93119 1.09506 0.98129
 O386 O 0.90902 1.11738 0.98131
 C387 C 0.92452 1.11061 0.97479
 C388 C 0.93469 1.12061 0.95921
 C389 C 0.92850 1.13857 0.95280
 H390 H 0.91649 1.14554 0.95960
 O391 O 1.06898 0.90493 0.98129
 O392 O 1.09117 0.88263 0.98123
 C393 C 1.07565 0.88940 0.97476
 C394 C 1.06545 0.87941 0.95919
 C395 C 1.07166 0.86148 0.95275
 H396 H 1.08370 0.85452 0.95952
 O397 O 1.06884 1.01849 0.90478
 O398 O 1.09098 1.01855 0.88244
 C399 C 1.07546 1.02501 0.88923
 C400 C 1.06521 1.04053 0.87921
 C401 C 1.07129 1.04687 0.86120
 H402 H 1.08328 1.04008 0.85420
 O403 O 0.93117 0.98144 0.90493
 O404 O 0.90896 0.98136 0.88265
 C405 C 0.92450 0.97491 0.88940
 C406 C 0.93472 0.95937 0.87938
 C407 C 0.92857 0.95302 0.86139
 H408 H 0.91656 0.95982 0.85442
 O409 O 1.01852 1.09496 0.93086
 O410 O 1.01856 1.11726 0.90867
 C411 C 1.02504 1.11049 0.92419
 C412 C 1.04061 1.12048 0.93438
 C413 C 1.04701 1.13843 0.92818
 H414 H 1.04022 1.14540 0.91617
 O415 O 0.98154 0.90492 0.93093
 O416 O 0.98149 0.88261 0.90875
 C417 C 0.97504 0.88938 0.92428
 C418 C 0.95953 0.87935 0.93453
 C419 C 0.95316 0.86137 0.92839
 H420 H 0.95994 0.85440 0.91636
 O421 O 1.09501 1.06883 0.98115
 O422 O 1.11731 1.09101 0.98110
 C423 C 1.11054 1.07549 0.97463
 C424 C 1.12054 1.06528 0.95907
 C425 C 1.13850 1.07144 0.95268
 H426 H 1.14548 1.08345 0.95947
 O427 O 0.90528 0.93101 0.98135
 O428 O 0.88298 0.90884 0.98134
 C429 C 0.88973 0.92436 0.97486
 C430 C 0.87968 0.93459 0.95934
 C431 C 0.86169 0.92846 0.95303
 H432 H 0.85473 0.91645 0.95984
 Cu433 Cu 1.00012 0.92023 0.92009
 Cu434 Cu 1.00008 0.89354 0.89338
 Cu435 Cu 0.99990 1.07970 0.92005
 Cu436 Cu 0.99991 1.10638 0.89333
 Cu437 Cu 0.92031 1.00004 0.92019
 Cu438 Cu 0.89357 0.99997 0.89353
 Cu439 Cu 1.07973 0.99990 0.92002
 Cu440 Cu 1.10641 0.99994 0.89330
 C441 C 0.95028 0.95023 0.88815
 H442 H 0.95494 0.95487 0.90213
 C443 C 0.93773 0.93773 0.85241
 C444 C 1.04968 1.04968 0.88802
 H445 H 1.04506 1.04504 0.90202
 C446 C 1.06209 1.06216 0.85223
 C447 C 0.88843 0.95015 0.95018
 H448 H 0.90241 0.95481 0.95480
 C449 C 0.85266 0.93764 0.93777
 C450 C 1.11177 1.04973 0.94994
 H451 H 1.09781 1.04505 0.95461
 C452 C 1.14745 1.06230 0.93736
 C453 C 0.95042 0.88812 0.95010
 H454 H 0.95508 0.90209 0.95476
 C455 C 0.93789 0.85239 0.93758
 C456 C 1.04975 1.11171 0.94994
 H457 H 1.04507 1.09776 0.95464
 C458 C 1.06234 1.14738 0.93730
 C459 C 0.95011 1.04981 0.88800
 H460 H 0.95482 1.04512 0.90195
 C461 C 0.93743 1.06241 0.85233
 C462 C 1.04985 0.95012 0.88792
 H463 H 1.04515 0.95483 0.90187
 C464 C 1.06249 0.93746 0.85227
 C465 C 1.04988 0.88818 0.95007
 H466 H 1.04517 0.90211 0.95479
 C467 C 1.06255 0.85255 0.93740
 C468 C 0.95022 1.11183 0.95005
 H469 H 0.95492 1.09788 0.95475
 C470 C 0.93760 1.14750 0.93743
 C471 C 0.88825 1.04979 0.95018
 H472 H 0.90215 1.04502 0.95493
 C473 C 0.85273 1.06263 0.93738
 C474 C 1.11183 0.95014 0.94999
 H475 H 1.09788 0.95483 0.95470
 C476 C 1.14748 0.93753 0.93735
 O477 O 1.01892 0.93098 1.09495
 O478 O 1.01894 0.90884 1.11730
 C479 C 1.02542 0.92434 1.11050
 C480 C 1.04098 0.93456 1.12050
 C481 C 1.04741 0.92837 1.13845
 H482 H 1.04066 0.91634 1.14543
 O483 O 0.98163 1.06875 1.09490
 O484 O 0.98160 1.09091 1.11723
 C485 C 0.97513 1.07539 1.11045
 C486 C 0.95962 1.06514 1.12048
 C487 C 0.95334 1.07120 1.13852
 H488 H 0.96017 1.08316 1.14554
 O489 O 0.90518 1.01851 1.06877
 O490 O 0.88291 1.01853 1.09099
 C491 C 0.88966 1.02503 1.07547
 C492 C 0.87966 1.04063 1.06530
 C493 C 0.86179 1.04714 1.07160
 H494 H 0.85486 1.04040 1.08368
 O495 O 1.09520 0.98135 1.06875
 O496 O 1.11754 0.98134 1.09089
 C497 C 1.11075 0.97486 1.07539
 C498 C 1.12075 0.95931 1.06516
 C499 C 1.13873 0.95293 1.07129
 H500 H 1.14572 0.95971 1.08330
 O501 O 1.06910 0.90486 1.01851
 O502 O 1.09130 0.88258 1.01850
 C503 C 1.07580 0.88933 1.02502
 C504 C 1.06567 0.87934 1.04064
 C505 C 1.07202 0.86148 1.04719
 H506 H 1.08410 0.85457 1.04047
 O507 O 0.93126 1.09501 1.01850
 O508 O 0.90909 1.11733 1.01857
 C509 C 0.92461 1.11054 1.02503
 C510 C 0.93483 1.12053 1.04060
 C511 C 0.92869 1.13850 1.04698
 H512 H 0.91669 1.14550 1.04020
 O513 O 0.93135 0.98129 1.09483
 O514 O 0.90920 0.98125 1.11717
 C515 C 0.92471 0.97479 1.11039
 C516 C 0.93496 0.95927 1.12042
 C517 C 0.92885 0.95295 1.13843
 H518 H 0.91684 0.95975 1.14541
 O519 O 1.06910 1.01853 1.09491
 O520 O 1.09131 1.01857 1.11719
 C521 C 1.07578 1.02504 1.11044
 C522 C 1.06558 1.04060 1.12046
 C523 C 1.07178 1.04701 1.13841
 H524 H 1.08381 1.04023 1.14537
 O525 O 0.98173 0.90486 1.06885
 O526 O 0.98170 0.88257 1.09105
 C527 C 0.97522 0.88933 1.07552
 C528 C 0.95966 0.87933 1.06531
 C529 C 0.95329 0.86136 1.07148
 H530 H 0.96008 0.85437 1.08349
 O531 O 1.01875 1.09490 1.06876
 O532 O 1.01878 1.11721 1.09094
 C533 C 1.02525 1.11045 1.07541
 C534 C 1.04075 1.12048 1.06516
 C535 C 1.04710 1.13847 1.07128
 H536 H 1.04032 1.14544 1.08330
 O537 O 0.90524 0.93097 1.01855
 O538 O 0.88295 0.90879 1.01858
 C539 C 0.88970 0.92431 1.02505
 C540 C 0.87967 0.93454 1.04057
 C541 C 0.86168 0.92842 1.04691
 H542 H 0.85470 0.91642 1.04011
 O543 O 1.09504 1.06886 1.01836
 O544 O 1.11734 1.09104 1.01836
 C545 C 1.11058 1.07553 1.02486
 C546 C 1.12060 1.06533 1.04042
 C547 C 1.13856 1.07151 1.04681
 H548 H 1.14552 1.08353 1.04001
 O549 O 1.01882 1.06883 1.09493
 O550 O 1.01884 1.09100 1.11725
 C551 C 1.02533 1.07549 1.11047
 C552 C 1.04090 1.06529 1.12048
 C553 C 1.04732 1.07147 1.13843
 H554 H 1.04055 1.08350 1.14540
 O555 O 0.98173 0.93101 1.09493
 O556 O 0.98170 0.90886 1.11728
 C557 C 0.97522 0.92437 1.11048
 C558 C 0.95967 0.93460 1.12048
 C559 C 0.95333 0.92851 1.13849
 H560 H 0.96015 0.91653 1.14550
 O561 O 1.09513 1.01855 1.06872
 O562 O 1.11748 1.01859 1.09086
 C563 C 1.11067 1.02508 1.07536
 C564 C 1.12064 1.04064 1.06513
 C565 C 1.13860 1.04705 1.07128
 H566 H 1.14558 1.04027 1.08330
 O567 O 0.90517 0.98131 1.06877
 O568 O 0.88289 0.98128 1.09097
 C569 C 0.88964 0.97480 1.07544
 C570 C 0.87963 0.95926 1.06523
 C571 C 0.86164 0.95291 1.07135
 H572 H 0.85464 0.95973 1.08333
 O573 O 1.06893 1.09497 1.01835
 O574 O 1.09108 1.11729 1.01835
 C575 C 1.07558 1.11051 1.02485
 C576 C 1.06538 1.12052 1.04041
 C577 C 1.07151 1.13851 1.04676
 H578 H 1.08348 1.14551 1.03994
 O579 O 0.93140 0.90489 1.01856
 O580 O 0.90924 0.88258 1.01859
 C581 C 0.92475 0.88935 1.02507
 C582 C 0.93497 0.87934 1.04063
 C583 C 0.92882 0.86137 1.04701
 H584 H 0.91681 0.85439 1.04023
 O585 O 1.06912 0.98133 1.09490
 O586 O 1.09133 0.98132 1.11718
 C587 C 1.07581 0.97483 1.11044
 C588 C 1.06564 0.95926 1.12046
 C589 C 1.07185 0.95285 1.13841
 H590 H 1.08388 0.95964 1.14536
 O591 O 0.93132 1.01848 1.09487
 O592 O 0.90919 1.01848 1.11722
 C593 C 0.92469 1.02496 1.11043
 C594 C 0.93494 1.04047 1.12047
 C595 C 0.92887 1.04674 1.13851
 H596 H 0.91691 1.03991 1.14551
 O597 O 0.98157 1.09492 1.06883
 O598 O 0.98155 1.11722 1.09102
 C599 C 0.97506 1.11046 1.07550
 C600 C 0.95951 1.12048 1.06529
 C601 C 0.95315 1.13846 1.07146
 H602 H 0.95994 1.14542 1.08347
 O603 O 1.01892 0.90484 1.06886
 O604 O 1.01895 0.88256 1.09107
 C605 C 1.02544 0.88932 1.07555
 C606 C 1.04103 0.87933 1.06537
 C607 C 1.04760 0.86148 1.07170
 H608 H 1.04092 0.85456 1.08381
 O609 O 1.09514 0.93105 1.01845
 O610 O 1.11747 0.90890 1.01843
 C611 C 1.11069 0.92440 1.02493
 C612 C 1.12072 0.93462 1.04047
 C613 C 1.13870 0.92846 1.04683
 H614 H 1.14566 0.91645 1.04003
 O615 O 0.90516 1.06890 1.01851
 O616 O 0.88286 1.09107 1.01859
 C617 C 0.88964 1.07556 1.02505
 C618 C 0.87966 1.06535 1.04063
 C619 C 0.86179 1.07163 1.04716
 H620 H 0.85486 1.08372 1.04045
 Cu621 Cu 1.00032 0.92014 1.07967
 Cu622 Cu 1.00032 0.89347 1.10641
 Cu623 Cu 1.00019 1.07963 1.07963
 Cu624 Cu 1.00019 1.10632 1.10635
 Cu625 Cu 0.92054 0.92015 0.99995
 Cu626 Cu 0.89386 0.89345 0.99996
 Cu627 Cu 1.07986 0.92018 0.99988
 Cu628 Cu 1.10658 0.89351 0.99983
 Cu629 Cu 0.92040 1.07975 0.99990
 Cu630 Cu 0.89370 1.10646 0.99995
 Cu631 Cu 1.07975 1.07968 0.99976
 Cu632 Cu 1.10643 1.10638 0.99972
 Cu633 Cu 0.92047 0.99990 1.07958
 Cu634 Cu 0.89381 0.99988 1.10632
 Cu635 Cu 1.07991 0.99994 1.07960
 Cu636 Cu 1.10665 0.99996 1.10626
 C637 C 1.05007 0.95013 1.11171
 H638 H 1.04536 0.95482 1.09776
 C639 C 1.06275 0.93752 1.14738
 C640 C 0.95044 1.04965 1.11166
 H641 H 0.95504 1.04505 1.09764
 C642 C 0.93807 1.06200 1.14751
 C643 C 0.88839 1.04972 1.04969
 H644 H 0.90228 1.04496 1.04491
 C645 C 0.85288 1.06254 1.06253
 C646 C 1.11196 0.95017 1.04961
 H647 H 1.09799 0.95485 1.04496
 C648 C 1.14767 0.93761 1.06213
 C649 C 1.05005 0.88804 1.04972
 H650 H 1.04524 0.90192 1.04492
 C651 C 1.06299 0.85258 1.06261
 C652 C 0.95037 1.11173 1.04973
 H653 H 0.95502 1.09776 1.04506
 C654 C 0.93784 1.14744 1.06231
 C655 C 0.95051 0.95012 1.11165
 H656 H 0.95515 0.95474 1.09765
 C657 C 0.93803 0.93767 1.14744
 C658 C 1.05001 1.04972 1.11170
 H659 H 1.04531 1.04503 1.09775
 C660 C 1.06265 1.06234 1.14737
 C661 C 0.95052 0.88811 1.04976
 H662 H 0.95519 0.90208 1.04509
 C663 C 0.93797 0.85241 1.06233
 C664 C 1.04988 1.11171 1.04959
 H665 H 1.04523 1.09773 1.04494
 C666 C 1.06237 1.14746 1.06209
 C667 C 0.88844 0.95009 1.04971
 H668 H 0.90242 0.95473 1.04507
 C669 C 0.85269 0.93761 1.06219
 C670 C 1.11185 1.04977 1.04957
 H671 H 1.09789 1.04507 1.04490
 C672 C 1.14753 1.06237 1.06213
 O673 O 0.98141 0.43058 0.40477
 O674 O 0.98137 0.40837 0.38250
 C675 C 0.97489 0.42389 0.38925
 C676 C 0.95934 0.43409 0.37922
 C677 C 0.95301 0.42793 0.36122
 H678 H 0.95984 0.41594 0.35425
 O679 O 1.01852 0.56834 0.40437
 O680 O 1.01851 0.59050 0.38203
 C681 C 1.02502 0.57500 0.38882
 C682 C 1.04060 0.56481 0.37882
 C683 C 1.04701 0.57100 0.36087
 H684 H 1.04022 0.58301 0.35389
 O685 O 0.90490 0.48086 0.43078
 O686 O 0.88260 0.48079 0.40859
 C687 C 0.88937 0.47433 0.42412
 C688 C 0.87937 0.45879 0.43436
 C689 C 0.86142 0.45238 0.42819
 H690 H 0.85445 0.45914 0.41616
 O691 O 1.09493 0.51820 0.43067
 O692 O 1.11725 0.51820 0.40851
 C693 C 1.11047 0.52470 0.42401
 C694 C 1.12046 0.54026 0.43422
 C695 C 1.13843 0.54665 0.42808
 H696 H 1.14541 0.53987 0.41607
 O697 O 0.93109 0.40459 0.48132
 O698 O 0.90895 0.38226 0.48128
 C699 C 0.92447 0.38904 0.47482
 C700 C 0.93474 0.37901 0.45932
 C701 C 0.92869 0.36097 0.45305
 H702 H 0.91672 0.35396 0.45988
 O703 O 1.06870 0.59457 0.48091
 O704 O 1.09087 0.61688 0.48086
 C705 C 1.07537 0.61010 0.47437
 C706 C 1.06518 0.62007 0.45877
 C707 C 1.07136 0.63801 0.45232
 H708 H 1.08337 0.64499 0.45910
 O709 O 0.93099 0.51803 0.40459
 O710 O 0.90883 0.51800 0.38226
 C711 C 0.92434 0.52450 0.38902
 C712 C 0.93454 0.54004 0.37897
 C713 C 0.92834 0.54642 0.36100
 H714 H 0.91631 0.53963 0.35406
 O715 O 1.06884 0.48095 0.40463
 O716 O 1.09101 0.48089 0.38231
 C717 C 1.07550 0.47441 0.38910
 C718 C 1.06530 0.45884 0.37912
 C719 C 1.07143 0.45245 0.36115
 H720 H 1.08343 0.45924 0.35415
 O721 O 1.01864 0.40450 0.43088
 O722 O 1.01866 0.38216 0.40874
 C723 C 1.02516 0.38896 0.42424
 C724 C 1.04074 0.37898 0.43444
 C725 C 1.04720 0.36105 0.42824
 H726 H 1.04045 0.35407 0.41621
 O727 O 0.98132 0.59444 0.43050
 O728 O 0.98127 0.61674 0.40830
 C729 C 0.97481 0.60998 0.42383
 C730 C 0.95928 0.62001 0.43406
 C731 C 0.95297 0.63802 0.42795
 H732 H 0.95978 0.64500 0.41595
 O733 O 0.90491 0.56843 0.48092
 O734 O 0.88261 0.59062 0.48084
 C735 C 0.88937 0.57509 0.47439
 C736 C 0.87937 0.56488 0.45883
 C737 C 0.86148 0.57114 0.45234
 H738 H 0.85455 0.58322 0.45906
 O739 O 1.09500 0.43079 0.48111
 O740 O 1.11731 0.40862 0.48116
 C741 C 1.11054 0.42412 0.47463
 C742 C 1.12055 0.43431 0.45906
 C743 C 1.13852 0.42814 0.45269
 H744 H 1.14550 0.41614 0.45950
 O745 O 0.98132 0.56828 0.40442
 O746 O 0.98126 0.59044 0.38208
 C747 C 0.97479 0.57493 0.38888
 C748 C 0.95923 0.56471 0.37890
 C749 C 0.95281 0.57087 0.36093
 H750 H 0.95958 0.58287 0.35393
 O751 O 1.01860 0.43062 0.40476
 O752 O 1.01861 0.40842 0.38248
 C753 C 1.02509 0.42394 0.38922
 C754 C 1.04062 0.43415 0.37918
 C755 C 1.04698 0.42798 0.36120
 H756 H 1.04019 0.41596 0.35424
 O757 O 1.09499 0.48101 0.43070
 O758 O 1.11731 0.48095 0.40854
 C759 C 1.11053 0.47449 0.42407
 C760 C 1.12055 0.45896 0.43432
 C761 C 1.13852 0.45257 0.42818
 H762 H 1.14550 0.45934 0.41616
 O763 O 0.90488 0.51806 0.43070
 O764 O 0.88258 0.51804 0.40851
 C765 C 0.88935 0.52456 0.42402
 C766 C 0.87935 0.54015 0.43418
 C767 C 0.86146 0.54664 0.42791
 H768 H 0.85452 0.53990 0.41585
 O769 O 0.93104 0.59452 0.48086
 O770 O 0.90888 0.61684 0.48079
 C771 C 0.92439 0.61005 0.47433
 C772 C 0.93462 0.62004 0.45877
 C773 C 0.92853 0.63806 0.45243
 H774 H 0.91655 0.64507 0.45925
 O775 O 1.06894 0.40463 0.48115
 O776 O 1.09112 0.38233 0.48119
 C777 C 1.07561 0.38908 0.47467
 C778 C 1.06543 0.37905 0.45912
 C779 C 1.07167 0.36112 0.45271
 H780 H 1.08372 0.35419 0.45948
 O781 O 1.06889 0.51815 0.40448
 O782 O 1.09106 0.51814 0.38217
 C783 C 1.07555 0.52463 0.38892
 C784 C 1.06533 0.54017 0.37887
 C785 C 1.07152 0.54658 0.36091
 H786 H 1.08357 0.53982 0.35397
 O787 O 0.93103 0.48084 0.40468
 O788 O 0.90888 0.48075 0.38235
 C789 C 0.92439 0.47430 0.38914
 C790 C 0.93463 0.45875 0.37916
 C791 C 0.92852 0.45237 0.36117
 H792 H 0.91653 0.45916 0.35416
 O793 O 1.01850 0.59443 0.43050
 O794 O 1.01850 0.61673 0.40830
 C795 C 1.02499 0.60997 0.42383
 C796 C 1.04053 0.62000 0.43403
 C797 C 1.04693 0.63794 0.42782
 H798 H 1.04017 0.64488 0.41576
 O799 O 0.98145 0.40455 0.43099
 O800 O 0.98142 0.38219 0.40886
 C801 C 0.97495 0.38899 0.42437
 C802 C 0.95944 0.37898 0.43464
 C803 C 0.95316 0.36094 0.42860
 H804 H 0.96000 0.35392 0.41664
 O805 O 1.09486 0.56850 0.48097
 O806 O 1.11716 0.59067 0.48094
 C807 C 1.11040 0.57515 0.47447
 C808 C 1.12043 0.56494 0.45893
 C809 C 1.13840 0.57110 0.45257
 H810 H 1.14537 0.58310 0.45937
 O811 O 0.90490 0.43064 0.48122
 O812 O 0.88262 0.40845 0.48118
 C813 C 0.88938 0.42396 0.47469
 C814 C 0.87939 0.43414 0.45910
 C815 C 0.86143 0.42795 0.45271
 H816 H 0.85447 0.41594 0.45951
 Cu817 Cu 1.00003 0.41979 0.42007
 Cu818 Cu 1.00001 0.39304 0.39341
 Cu819 Cu 0.99992 0.57915 0.41967
 Cu820 Cu 0.99988 0.60583 0.39294
 Cu821 Cu 0.92017 0.49945 0.41991
 Cu822 Cu 0.89349 0.49939 0.39319
 Cu823 Cu 1.07969 0.49958 0.41984
 Cu824 Cu 1.10639 0.49954 0.39315
 C825 C 0.95017 0.44962 0.38798
 H826 H 0.95480 0.45429 0.40196
 C827 C 0.93771 0.43707 0.35223
 C828 C 1.04974 0.54927 0.38761
 H829 H 1.04504 0.54457 0.40157
 C830 C 1.06237 0.56189 0.35194
 C831 C 0.88815 0.44969 0.44994
 H832 H 0.90210 0.45438 0.45463
 C833 C 0.85248 0.43706 0.43736
 C834 C 1.11167 0.54939 0.44978
 H835 H 1.09770 0.54471 0.45444
 C836 C 1.14737 0.56196 0.43725
 C837 C 0.95025 0.38781 0.45013
 H838 H 0.95484 0.40183 0.45472
 C839 C 0.93790 0.35196 0.43780
 C840 C 1.04964 0.61127 0.44964
 H841 H 1.04495 0.59733 0.45436
 C842 C 1.06224 0.64692 0.43695
 C843 C 0.95011 0.54917 0.38771
 H844 H 0.95481 0.54450 0.40167
 C845 C 0.93747 0.56172 0.35201
 C846 C 1.04976 0.44971 0.38793
 H847 H 1.04511 0.45439 0.40190
 C848 C 1.06228 0.43712 0.35221
 C849 C 1.04984 0.38777 0.45001
 H850 H 1.04510 0.40170 0.45471
 C851 C 1.06256 0.35214 0.43738
 C852 C 0.95012 0.61122 0.44960
 H853 H 0.95475 0.59723 0.45424
 C854 C 0.93770 0.64702 0.43713
 C855 C 0.88810 0.54926 0.44977
 H856 H 0.90201 0.54451 0.45452
 C857 C 0.85255 0.56203 0.43699
 C858 C 1.11177 0.44984 0.44989
 H859 H 1.09781 0.45452 0.45454
 C860 C 1.14748 0.43727 0.43736
 O861 O 1.01843 0.43074 0.59487
 O862 O 1.01851 0.40858 0.61720
 C863 C 1.02497 0.42409 0.61041
 C864 C 1.04053 0.43431 0.62040
 C865 C 1.04695 0.42814 0.63836
 H866 H 1.04018 0.41612 0.64535
 O867 O 0.98122 0.56864 0.59455
 O868 O 0.98118 0.59082 0.61684
 C869 C 0.97471 0.57530 0.61009
 C870 C 0.95918 0.56508 0.62012
 C871 C 0.95283 0.57123 0.63811
 H872 H 0.95962 0.58325 0.64507
 O873 O 0.90489 0.51822 0.56856
 O874 O 0.88259 0.51831 0.59074
 C875 C 0.88937 0.52477 0.57521
 C876 C 0.87940 0.54034 0.56498
 C877 C 0.86151 0.54686 0.57123
 H878 H 0.85456 0.54016 0.58331
 O879 O 1.09485 0.48106 0.56866
 O880 O 1.11715 0.48110 0.59084
 C881 C 1.11040 0.47459 0.57533
 C882 C 1.12045 0.45907 0.56512
 C883 C 1.13841 0.45270 0.57132
 H884 H 1.14535 0.45949 0.58335
 O885 O 1.06883 0.40477 0.51836
 O886 O 1.09100 0.38246 0.51845
 C887 C 1.07548 0.38924 0.52490
 C888 C 1.06524 0.37924 0.54044
 C889 C 1.07139 0.36126 0.54682
 H890 H 1.08341 0.35429 0.54004
 O891 O 0.93100 0.59464 0.51807
 O892 O 0.90883 0.61695 0.51804
 C893 C 0.92434 0.61019 0.52454
 C894 C 0.93455 0.62024 0.54007
 C895 C 0.92841 0.63823 0.54640
 H896 H 0.91640 0.64520 0.53959
 O897 O 0.93096 0.48104 0.59477
 O898 O 0.90879 0.48106 0.61708
 C899 C 0.92430 0.47456 0.61032
 C900 C 0.93450 0.45901 0.62036
 C901 C 0.92831 0.45261 0.63832
 H902 H 0.91628 0.45939 0.64528
 O903 O 1.06865 0.51822 0.59472
 O904 O 1.09080 0.51830 0.61706
 C905 C 1.07528 0.52475 0.61026
 C906 C 1.06502 0.54028 0.62026
 C907 C 1.07105 0.54658 0.63830
 H908 H 1.08300 0.53974 0.64535
 O909 O 0.98123 0.40458 0.56881
 O910 O 0.98125 0.38229 0.59102
 C911 C 0.97473 0.38905 0.57551
 C912 C 0.95912 0.37906 0.56537
 C913 C 0.95253 0.36123 0.57175
 H914 H 0.95922 0.35433 0.58386
 O915 O 1.01845 0.59472 0.56845
 O916 O 1.01846 0.61704 0.59061
 C917 C 1.02496 0.61026 0.57511
 C918 C 1.04053 0.62025 0.56490
 C919 C 1.04697 0.63819 0.57110
 H920 H 1.04022 0.64515 0.58314
 O921 O 0.90486 0.43070 0.51844
 O922 O 0.88256 0.40853 0.51844
 C923 C 0.88931 0.42405 0.52492
 C924 C 0.87928 0.43428 0.54046
 C925 C 0.86131 0.42814 0.54683
 H926 H 0.85434 0.41612 0.54005
 O927 O 1.09477 0.56851 0.51818
 O928 O 1.11708 0.59067 0.51820
 C929 C 1.11030 0.57517 0.52470
 C930 C 1.12029 0.56498 0.54029
 C931 C 1.13825 0.57115 0.54667
 H932 H 1.14523 0.58315 0.53986
 O933 O 1.01839 0.56859 0.59455
 O934 O 1.01840 0.59076 0.61686
 C935 C 1.02487 0.57524 0.61011
 C936 C 1.04036 0.56499 0.62017
 C937 C 1.04661 0.57106 0.63822
 H938 H 1.03977 0.58304 0.64520
 O939 O 0.98124 0.43077 0.59484
 O940 O 0.98127 0.40862 0.61718
 C941 C 0.97476 0.42412 0.61040
 C942 C 0.95919 0.43432 0.62040
 C943 C 0.95278 0.42815 0.63836
 H944 H 0.95956 0.41613 0.64534
 O945 O 1.09476 0.51825 0.56861
 O946 O 1.11705 0.51834 0.59080
 C947 C 1.11028 0.52480 0.57527
 C948 C 1.12028 0.54034 0.56503
 C949 C 1.13824 0.54673 0.57119
 H950 H 1.14521 0.53997 0.58323
 O951 O 0.90484 0.48102 0.56865
 O952 O 0.88253 0.48106 0.59082
 C953 C 0.88930 0.47454 0.57532
 C954 C 0.87928 0.45899 0.56512
 C955 C 0.86130 0.45263 0.57128
 H956 H 0.85433 0.45943 0.58328
 O957 O 1.06872 0.59467 0.51813
 O958 O 1.09088 0.61697 0.51813
 C959 C 1.07538 0.61021 0.52462
 C960 C 1.06519 0.62023 0.54019
 C961 C 1.07140 0.63817 0.54661
 H962 H 1.08343 0.64511 0.53983
 O963 O 0.93095 0.40456 0.51853
 O964 O 0.90878 0.38226 0.51855
 C965 C 0.92427 0.38904 0.52506
 C966 C 0.93442 0.37906 0.54068
 C967 C 0.92807 0.36124 0.54728
 H968 H 0.91595 0.35434 0.54060
 O969 O 1.06873 0.48103 0.59477
 O970 O 1.09089 0.48106 0.61709
 C971 C 1.07539 0.47454 0.61032
 C972 C 1.06521 0.45899 0.62035
 C973 C 1.07141 0.45259 0.63831
 H974 H 1.08344 0.45937 0.64526
 O975 O 0.93099 0.51824 0.59469
 O976 O 0.90883 0.51832 0.61701
 C977 C 0.92434 0.52478 0.61022
 C978 C 0.93455 0.54035 0.62019
 C979 C 0.92842 0.54673 0.63818
 H980 H 0.91644 0.53992 0.64519
 O981 O 0.98126 0.59471 0.56838
 O982 O 0.98122 0.61704 0.59053
 C983 C 0.97475 0.61026 0.57502
 C984 C 0.95922 0.62027 0.56477
 C985 C 0.95286 0.63826 0.57089
 H986 H 0.95964 0.64525 0.58289
 O987 O 1.01843 0.40472 0.56867
 O988 O 1.01850 0.38240 0.59085
 C989 C 1.02496 0.38919 0.57533
 C990 C 1.04052 0.37920 0.56511
 C991 C 1.04690 0.36123 0.57125
 H992 H 1.04010 0.35423 0.58325
 O993 O 1.09501 0.43081 0.51833
 O994 O 1.11732 0.40864 0.51842
 C995 C 1.11054 0.42416 0.52487
 C996 C 1.12053 0.43439 0.54043
 C997 C 1.13849 0.42825 0.54684
 H998 H 1.14550 0.41625 0.54006
 O999 O 0.90496 0.56847 0.51813
 O1000 O 0.88265 0.59065 0.51811
 C1001 C 0.88943 0.57515 0.52464
 C1002 C 0.87943 0.56499 0.54024
 C1003 C 0.86154 0.57128 0.54671
 H1004 H 0.85462 0.58335 0.53995
 Cu1005 Cu 0.99983 0.41992 0.57958
 Cu1006 Cu 0.99989 0.39323 0.60630
 Cu1007 Cu 0.99983 0.57945 0.57926
 Cu1008 Cu 0.99982 0.60616 0.60595
 Cu1009 Cu 0.92017 0.41985 0.49988
 Cu1010 Cu 0.89350 0.39313 0.49985
 Cu1011 Cu 1.07973 0.41998 0.49973
 Cu1012 Cu 1.10642 0.39328 0.49981
 Cu1013 Cu 0.92020 0.57929 0.49950
 Cu1014 Cu 0.89350 0.60599 0.49944
 Cu1015 Cu 1.07954 0.57934 0.49955
 Cu1016 Cu 1.10623 0.60604 0.49953
 Cu1017 Cu 0.92014 0.49962 0.57944
 Cu1018 Cu 0.89345 0.49969 0.60615
 Cu1019 Cu 1.07953 0.49963 0.57946
 Cu1020 Cu 1.10621 0.49971 0.60619
 C1021 C 1.04964 0.44986 0.61160
 H1022 H 1.04493 0.45454 0.59765
 C1023 C 1.06228 0.43727 0.64729
 C1024 C 0.95006 0.54951 0.61137
 H1025 H 0.95471 0.54484 0.59740
 C1026 C 0.93756 0.56206 0.64711
 C1027 C 0.88815 0.54939 0.54936
 H1028 H 0.90206 0.54461 0.54462
 C1029 C 0.85261 0.56223 0.56210
 C1030 C 1.11172 0.44993 0.54955
 H1031 H 1.09776 0.45459 0.54485
 C1032 C 1.14741 0.43740 0.56218
 C1033 C 1.04968 0.38801 0.54957
 H1034 H 1.04501 0.40198 0.54491
 C1035 C 1.06223 0.35229 0.56211
 C1036 C 0.95009 0.61147 0.54923
 H1037 H 0.95475 0.59749 0.54460
 C1038 C 0.93756 0.64721 0.56171
 C1039 C 0.95007 0.44988 0.61161
 H1040 H 0.95476 0.45456 0.59765
 C1041 C 0.93745 0.43729 0.64729
 C1042 C 1.04954 0.54946 0.61140
 H1043 H 1.04497 0.54485 0.59738
 C1044 C 1.06184 0.56186 0.64726
 C1045 C 0.95008 0.38776 0.54971
 H1046 H 0.95490 0.40161 0.54487
 C1047 C 0.93711 0.35235 0.56271
 C1048 C 1.04962 0.61149 0.54931
 H1049 H 1.04490 0.59755 0.54461
 C1050 C 1.06230 0.64712 0.56196
 C1051 C 0.88806 0.44983 0.54958
 H1052 H 0.90203 0.45448 0.54492
 C1053 C 0.85235 0.43731 0.56214
 C1054 C 1.11151 0.54945 0.54945
 H1055 H 1.09755 0.54477 0.54478
 C1056 C 1.14719 0.56203 0.56202
 O1057 O 0.56865 1.01907 0.59506
 O1058 O 0.59079 1.01910 0.61741
 C1059 C 0.57528 1.02558 0.61061
 C1060 C 0.56505 1.04112 0.62061
 C1061 C 0.57115 1.04747 0.63861
 H1062 H 0.58313 1.04066 0.64561
 O1063 O 0.43084 0.98188 0.59501
 O1064 O 0.40866 0.98192 0.61731
 C1065 C 0.42417 0.97541 0.61057
 C1066 C 0.43437 0.95988 0.62063
 C1067 C 0.42818 0.95352 0.63860
 H1068 H 0.41615 0.96031 0.64554
 O1069 O 0.51840 1.09549 0.56883
 O1070 O 0.51840 1.11781 0.59099
 C1071 C 0.52490 1.11103 0.57548
 C1072 C 0.54047 1.12104 0.56528
 C1073 C 0.54685 1.13900 0.57144
 H1074 H 0.54006 1.14599 0.58345
 O1075 O 0.48115 0.90544 0.56912
 O1076 O 0.48111 0.88318 0.59136
 C1077 C 0.47464 0.88992 0.57582
 C1078 C 0.45909 0.87990 0.56563
 C1079 C 0.45266 0.86198 0.57189
 H1080 H 0.45941 0.85506 0.58395
 O1081 O 0.59487 1.06934 0.51869
 O1082 O 0.61719 1.09149 0.51868
 C1083 C 0.61041 1.07599 0.52520
 C1084 C 0.62041 1.06580 0.54077
 C1085 C 0.63837 1.07195 0.54718
 H1086 H 0.64536 1.08396 0.54039
 O1087 O 0.40475 0.93142 0.51872
 O1088 O 0.38245 0.90926 0.51877
 C1089 C 0.38921 0.92478 0.52524
 C1090 C 0.37920 0.93500 0.54078
 C1091 C 0.36128 0.92879 0.54724
 H1092 H 0.35434 0.91673 0.54050
 O1093 O 0.48117 1.06939 0.59489
 O1094 O 0.48112 1.09157 0.61720
 C1095 C 0.47464 1.07605 0.61042
 C1096 C 0.45909 1.06585 0.62043
 C1097 C 0.45271 1.07203 0.63840
 H1098 H 0.45950 1.08404 0.64537
 O1099 O 0.51834 0.93159 0.59520
 O1100 O 0.51835 0.90947 0.61758
 C1101 C 0.52484 0.92496 0.61076
 C1102 C 0.54040 0.93517 0.62075
 C1103 C 0.54683 0.92899 0.63871
 H1104 H 0.54006 0.91698 0.64570
 O1105 O 0.59479 0.98185 0.56901
 O1106 O 0.61708 0.98184 0.59121
 C1107 C 0.61032 0.97534 0.57569
 C1108 C 0.62032 0.95977 0.56551
 C1109 C 0.63830 0.95342 0.57166
 H1110 H 0.64529 0.96024 0.58364
 O1111 O 0.40478 1.01904 0.56877
 O1112 O 0.38246 1.01914 0.59093
 C1113 C 0.38925 1.02558 0.57541
 C1114 C 0.37928 1.04115 0.56517
 C1115 C 0.36136 1.04762 0.57137
 H1116 H 0.35439 1.04089 0.58342
 O1117 O 0.43094 1.09550 0.51839
 O1118 O 0.40878 1.11782 0.51839
 C1119 C 0.42429 1.11105 0.52489
 C1120 C 0.43449 1.12106 0.54045
 C1121 C 0.42833 1.13903 0.54683
 H1122 H 0.41632 1.14601 0.54004
 O1123 O 0.56864 0.90530 0.51887
 O1124 O 0.59082 0.88299 0.51897
 C1125 C 0.57531 0.88978 0.52543
 C1126 C 0.56511 0.87981 0.54102
 C1127 C 0.57136 0.86192 0.54754
 H1128 H 0.58343 0.85497 0.54082
 O1129 O 0.43083 1.01908 0.59494
 O1130 O 0.40866 1.01917 0.61725
 C1131 C 0.42417 1.02562 0.61047
 C1132 C 0.43439 1.04118 0.62046
 C1133 C 0.42824 1.04759 0.63843
 H1134 H 0.41623 1.04081 0.64542
 O1135 O 0.56867 0.98188 0.59512
 O1136 O 0.59082 0.98186 0.61746
 C1137 C 0.57531 0.97538 0.61067
 C1138 C 0.56510 0.95984 0.62070
 C1139 C 0.57129 0.95344 0.63866
 H1140 H 0.58333 0.96021 0.64561
 O1141 O 0.51834 0.90540 0.56917
 O1142 O 0.51835 0.88314 0.59140
 C1143 C 0.52485 0.88988 0.57587
 C1144 C 0.54042 0.87985 0.56571
 C1145 C 0.54690 0.86196 0.57200
 H1146 H 0.54016 0.85504 0.58408
 O1147 O 0.48121 1.09549 0.56876
 O1148 O 0.48116 1.11781 0.59092
 C1149 C 0.47470 1.11104 0.57540
 C1150 C 0.45916 1.12105 0.56516
 C1151 C 0.45277 1.13902 0.57132
 H1152 H 0.45955 1.14599 0.58334
 O1153 O 0.40488 1.06935 0.51840
 O1154 O 0.38258 1.09153 0.51839
 C1155 C 0.38935 1.07602 0.52489
 C1156 C 0.37933 1.06583 0.54046
 C1157 C 0.36142 1.07208 0.54688
 H1158 H 0.35449 1.08414 0.54012
 O1159 O 0.59474 0.93141 0.51883
 O1160 O 0.61706 0.90924 0.51892
 C1161 C 0.61028 0.92477 0.52536
 C1162 C 0.62030 0.93503 0.54088
 C1163 C 0.63828 0.92890 0.54725
 H1164 H 0.64525 0.91688 0.54047
 O1165 O 0.48115 0.93159 0.59520
 O1166 O 0.48111 0.90947 0.61757
 C1167 C 0.47463 0.92497 0.61076
 C1168 C 0.45907 0.93520 0.62073
 C1169 C 0.45265 0.92907 0.63870
 H1170 H 0.45943 0.91707 0.64571
 O1171 O 0.51836 1.06938 0.59496
 O1172 O 0.51836 1.09156 0.61727
 C1173 C 0.52484 1.07604 0.61052
 C1174 C 0.54037 1.06582 0.62057
 C1175 C 0.54670 1.07194 0.63857
 H1176 H 0.53989 1.08395 0.64555
 O1177 O 0.40471 0.98183 0.56891
 O1178 O 0.38239 0.98188 0.59107
 C1179 C 0.38917 0.97534 0.57558
 C1180 C 0.37917 0.95975 0.56542
 C1181 C 0.36125 0.95331 0.57165
 H1182 H 0.35429 0.96009 0.58367
 O1183 O 0.59483 1.01906 0.56901
 O1184 O 0.61711 1.01909 0.59122
 C1185 C 0.61036 1.02556 0.57568
 C1186 C 0.62038 1.04111 0.56548
 C1187 C 0.63834 1.04749 0.57166
 H1188 H 0.64530 1.04069 0.58368
 O1189 O 0.43089 0.90533 0.51879
 O1190 O 0.40872 0.88303 0.51884
 C1191 C 0.42422 0.88981 0.52533
 C1192 C 0.43442 0.87984 0.54093
 C1193 C 0.42821 0.86192 0.54741
 H1194 H 0.41618 0.85494 0.54065
 O1195 O 0.56874 1.09543 0.51860
 O1196 O 0.59091 1.11773 0.51859
 C1197 C 0.57539 1.11098 0.52508
 C1198 C 0.56517 1.12101 0.54061
 C1199 C 0.57133 1.13898 0.54699
 H1200 H 0.58336 1.14594 0.54021
 Cu1201 Cu 0.57952 1.00047 0.57982
 Cu1202 Cu 0.60618 1.00047 0.60656
 Cu1203 Cu 0.42001 1.00045 0.57968
 Cu1204 Cu 0.39330 1.00053 0.60637
 Cu1205 Cu 0.49979 1.08022 0.57964
 Cu1206 Cu 0.49976 1.10693 0.60633
 Cu1207 Cu 0.49975 0.92072 0.57995
 Cu1208 Cu 0.49973 0.89408 0.60672
 C1209 C 0.54952 1.05027 0.61179
 H1210 H 0.54489 1.04562 0.59780
 C1211 C 0.56198 1.06277 0.64756
 C1212 C 0.44994 0.95074 0.61190
 H1213 H 0.45464 0.95539 0.59793
 C1214 C 0.43732 0.93823 0.64761
 C1215 C 0.54961 1.11225 0.54974
 H1216 H 0.54493 1.09829 0.54507
 C1217 C 0.56218 1.14795 0.56230
 C1218 C 0.44998 0.88862 0.55002
 H1219 H 0.45469 0.90255 0.54528
 C1220 C 0.43733 0.85302 0.56278
 C1221 C 0.61163 1.05025 0.54991
 H1222 H 0.59767 1.04558 0.54522
 C1223 C 0.64731 1.06280 0.56251
 C1224 C 0.38794 0.95061 0.54985
 H1225 H 0.40186 0.95532 0.54513
 C1226 C 0.35233 0.93793 0.56256
 C1227 C 0.44994 1.05030 0.61167
 H1228 H 0.45462 1.04561 0.59770
 C1229 C 0.43739 1.06290 0.64737
 C1230 C 0.54952 0.95072 0.61195
 H1231 H 0.54482 0.95541 0.59800
 C1232 C 0.56217 0.93812 0.64763
 C1233 C 0.61152 0.95060 0.54999
 H1234 H 0.59755 0.95525 0.54532
 C1235 C 0.64725 0.93809 0.56252
 C1236 C 0.38806 1.05023 0.54958
 H1237 H 0.40199 1.04549 0.54488
 C1238 C 0.35246 1.06299 0.56223
 C1239 C 0.45004 1.11228 0.54960
 H1240 H 0.45472 1.09832 0.54492
 C1241 C 0.43746 1.14798 0.56216
 C1242 C 0.54951 0.88857 0.55009
 H1243 H 0.54477 0.90248 0.54531
 C1244 C 0.56227 0.85302 0.56292
 O1245 O 0.56869 0.98157 0.40522
 O1246 O 0.59086 0.98151 0.38290
 C1247 C 0.57535 0.97505 0.38968
 C1248 C 0.56513 0.95950 0.37967
 C1249 C 0.57126 0.95316 0.36168
 H1250 H 0.58325 0.95998 0.35469
 O1251 O 0.43100 1.01882 0.40503
 O1252 O 0.40887 1.01882 0.38267
 C1253 C 0.42437 1.02531 0.38946
 C1254 C 0.43459 1.04085 0.37944
 C1255 C 0.42843 1.04721 0.36145
 H1256 H 0.41643 1.04040 0.35448
 O1257 O 0.48133 1.09538 0.43099
 O1258 O 0.48133 1.11763 0.40875
 C1259 C 0.47484 1.11091 0.42428
 C1260 C 0.45929 1.12095 0.43446
 C1261 C 0.45293 1.13892 0.42826
 H1262 H 0.45973 1.14587 0.41624
 O1263 O 0.51842 0.90512 0.43136
 O1264 O 0.51846 0.88281 0.40918
 C1265 C 0.52494 0.88959 0.42470
 C1266 C 0.54051 0.87960 0.43491
 C1267 C 0.54699 0.86169 0.42869
 H1268 H 0.54027 0.85473 0.41663
 O1269 O 0.59478 0.93132 0.48163
 O1270 O 0.61710 0.90916 0.48168
 C1271 C 0.61033 0.92466 0.47516
 C1272 C 0.62035 0.93485 0.45960
 C1273 C 0.63832 0.92868 0.45323
 H1274 H 0.64528 0.91667 0.46004
 O1275 O 0.40484 1.06939 0.48119
 O1276 O 0.38254 1.09157 0.48112
 C1277 C 0.38931 1.07605 0.47465
 C1278 C 0.37932 1.06583 0.45908
 C1279 C 0.36144 1.07210 0.45253
 H1280 H 0.35451 1.08420 0.45920
 O1281 O 0.51847 1.06912 0.40496
 O1282 O 0.51852 1.09122 0.38257
 C1283 C 0.52497 1.07572 0.38939
 C1284 C 0.54049 1.06544 0.37940
 C1285 C 0.54684 1.07150 0.36138
 H1286 H 0.54004 1.08347 0.35434
 O1287 O 0.48124 0.93125 0.40522
 O1288 O 0.48122 0.90907 0.38291
 C1289 C 0.47474 0.92459 0.38967
 C1290 C 0.45921 0.93481 0.37963
 C1291 C 0.45286 0.92865 0.36165
 H1292 H 0.45965 0.91662 0.35470
 O1293 O 0.59480 1.01879 0.43129
 O1294 O 0.61712 1.01876 0.40912
 C1295 C 0.61035 1.02526 0.42463
 C1296 C 0.62038 1.04079 0.43485
 C1297 C 0.63842 1.04704 0.42877
 H1298 H 0.64542 1.04018 0.41682
 O1299 O 0.40482 0.98168 0.43117
 O1300 O 0.38256 0.98163 0.40895
 C1301 C 0.38931 0.97516 0.42448
 C1302 C 0.37931 0.95958 0.43468
 C1303 C 0.36143 0.95308 0.42839
 H1304 H 0.35450 0.95980 0.41631
 O1305 O 0.56879 1.09536 0.48139
 O1306 O 0.59097 1.11765 0.48132
 C1307 C 0.57546 1.11087 0.47483
 C1308 C 0.56528 1.12084 0.45922
 C1309 C 0.57148 1.13878 0.45277
 H1310 H 0.58350 1.14575 0.45955
 O1311 O 0.43088 0.90524 0.48157
 O1312 O 0.40872 0.88292 0.48158
 C1313 C 0.42423 0.88968 0.47509
 C1314 C 0.43445 0.87964 0.45956
 C1315 C 0.42828 0.86167 0.45319
 H1316 H 0.41626 0.85472 0.45996
 O1317 O 0.43097 0.98162 0.40508
 O1318 O 0.40884 0.98158 0.38272
 C1319 C 0.42433 0.97510 0.38953
 C1320 C 0.43455 0.95952 0.37956
 C1321 C 0.42842 0.95314 0.36158
 H1322 H 0.41643 0.95993 0.35457
 O1323 O 0.56873 1.01876 0.40512
 O1324 O 0.59090 1.01874 0.38281
 C1325 C 0.57539 1.02523 0.38956
 C1326 C 0.56517 1.04074 0.37949
 C1327 C 0.57129 1.04703 0.36147
 H1328 H 0.58329 1.04020 0.35451
 O1329 O 0.48123 0.90513 0.43134
 O1330 O 0.48122 0.88281 0.40918
 C1331 C 0.47472 0.88959 0.42469
 C1332 C 0.45916 0.87960 0.43489
 C1333 C 0.45277 0.86163 0.42874
 H1334 H 0.45956 0.85464 0.41674
 O1335 O 0.51852 1.09529 0.43102
 O1336 O 0.51858 1.11754 0.40877
 C1337 C 0.52506 1.11080 0.42431
 C1338 C 0.54062 1.12081 0.43450
 C1339 C 0.54705 1.13874 0.42827
 H1340 H 0.54030 1.14568 0.41622
 O1341 O 0.40481 0.93140 0.48151
 O1342 O 0.38252 0.90923 0.48150
 C1343 C 0.38929 0.92473 0.47499
 C1344 C 0.37931 0.93490 0.45939
 C1345 C 0.36143 0.92863 0.45288
 H1346 H 0.35450 0.91656 0.45962
 O1347 O 0.59485 1.06920 0.48150
 O1348 O 0.61718 1.09134 0.48143
 C1349 C 0.61040 1.07582 0.47498
 C1350 C 0.62041 1.06553 0.45949
 C1351 C 0.63845 1.07156 0.45319
 H1352 H 0.64547 1.08353 0.45999
 O1353 O 0.51842 0.93124 0.40523
 O1354 O 0.51846 0.90907 0.38291
 C1355 C 0.52493 0.92458 0.38968
 C1356 C 0.54046 0.93481 0.37967
 C1357 C 0.54682 0.92869 0.36167
 H1358 H 0.54002 0.91669 0.35468
 O1359 O 0.48129 1.06917 0.40498
 O1360 O 0.48129 1.09128 0.38259
 C1361 C 0.47479 1.07579 0.38941
 C1362 C 0.45924 1.06556 0.37941
 C1363 C 0.45286 1.07170 0.36143
 H1364 H 0.45962 1.08371 0.35444
 O1365 O 0.40484 1.01890 0.43109
 O1366 O 0.38258 1.01889 0.40887
 C1367 C 0.38933 1.02542 0.42437
 C1368 C 0.37933 1.04104 0.43449
 C1369 C 0.36146 1.04754 0.42816
 H1370 H 0.35455 1.04077 0.41611
 O1371 O 0.59483 0.98159 0.43130
 O1372 O 0.61714 0.98153 0.40913
 C1373 C 0.61037 0.97506 0.42465
 C1374 C 0.62037 0.95952 0.43489
 C1375 C 0.63834 0.95313 0.42874
 H1376 H 0.64532 0.95990 0.41672
 O1377 O 0.56868 0.90521 0.48166
 O1378 O 0.59086 0.88290 0.48170
 C1379 C 0.57535 0.88966 0.47519
 C1380 C 0.56518 0.87964 0.45962
 C1381 C 0.57144 0.86172 0.45317
 H1382 H 0.58350 0.85480 0.45993
 O1383 O 0.43099 1.09546 0.48119
 O1384 O 0.40883 1.11778 0.48113
 C1385 C 0.42434 1.11100 0.47466
 C1386 C 0.43457 1.12100 0.45912
 C1387 C 0.42843 1.13896 0.45270
 H1388 H 0.41641 1.14595 0.45946
 Cu1389 Cu 0.57954 1.00018 0.42046
 Cu1390 Cu 0.60624 1.00014 0.39376
 Cu1391 Cu 0.42012 1.00026 0.42032
 Cu1392 Cu 0.39348 1.00023 0.39357
 Cu1393 Cu 0.57959 1.08011 0.50005
 Cu1394 Cu 0.60629 1.10679 0.50000
 Cu1395 Cu 0.57949 0.92053 0.50024
 Cu1396 Cu 0.60619 0.89383 0.50033
 Cu1397 Cu 0.42013 1.08020 0.49979
 Cu1398 Cu 0.39345 1.10691 0.49976
 Cu1399 Cu 0.42005 0.92057 0.50014
 Cu1400 Cu 0.39336 0.89388 0.50017
 Cu1401 Cu 0.49990 1.08003 0.42022
 Cu1402 Cu 0.49994 1.10665 0.39343
 Cu1403 Cu 0.49982 0.92040 0.42051
 Cu1404 Cu 0.49984 0.89370 0.39381
 C1405 C 0.54960 0.95035 0.38846
 H1406 H 0.54495 0.95499 0.40245
 C1407 C 0.56211 0.93786 0.35270
 C1408 C 0.45013 1.05001 0.38821
 H1409 H 0.45480 1.04535 0.40219
 C1410 C 0.43756 1.06252 0.35248
 C1411 C 0.45013 1.11220 0.45002
 H1412 H 0.45479 1.09824 0.45472
 C1413 C 0.43760 1.14790 0.43738
 C1414 C 0.54958 0.88836 0.45051
 H1415 H 0.54484 0.90229 0.45523
 C1416 C 0.56236 0.85278 0.43781
 C1417 C 0.61158 0.95040 0.45044
 H1418 H 0.59762 0.95508 0.45510
 C1419 C 0.64728 0.93781 0.43791
 C1420 C 0.38805 1.05018 0.45008
 H1421 H 0.40195 1.04542 0.45487
 C1422 C 0.35255 1.06296 0.43717
 C1423 C 0.54963 1.04993 0.38825
 H1424 H 0.54499 1.04533 0.40225
 C1425 C 0.56213 1.06229 0.35244
 C1426 C 0.45007 0.95037 0.38838
 H1427 H 0.45472 0.95505 0.40236
 C1428 C 0.43757 0.93780 0.35265
 C1429 C 0.61158 1.05002 0.45034
 H1430 H 0.59757 1.04544 0.45495
 C1431 C 0.64742 1.06232 0.43794
 C1432 C 0.38804 0.95051 0.45030
 H1433 H 0.40194 0.95528 0.45507
 C1434 C 0.35252 0.93771 0.43750
 C1435 C 0.54972 1.11207 0.45010
 H1436 H 0.54502 1.09813 0.45482
 C1437 C 0.56238 1.14769 0.43740
 C1438 C 0.45002 0.88839 0.45043
 H1439 H 0.45470 0.90236 0.45510
 C1440 C 0.43744 0.85269 0.43788
 O1441 O 0.48148 0.43090 0.90542
 O1442 O 0.48151 0.40871 0.88314
 C1443 C 0.47499 0.42421 0.88989
 C1444 C 0.45942 0.43438 0.87986
 C1445 C 0.45306 0.42820 0.86188
 H1446 H 0.45988 0.41619 0.85492
 O1447 O 0.51831 0.56872 0.90537
 O1448 O 0.51832 0.59087 0.88303
 C1449 C 0.52481 0.57537 0.88982
 C1450 C 0.54036 0.56515 0.87981
 C1451 C 0.54666 0.57126 0.86179
 H1452 H 0.53982 0.58323 0.85479
 O1453 O 0.40492 0.48106 0.93144
 O1454 O 0.38262 0.48101 0.90926
 C1455 C 0.38939 0.47454 0.92478
 C1456 C 0.37941 0.45898 0.93500
 C1457 C 0.36146 0.45256 0.92882
 H1458 H 0.35449 0.45932 0.91679
 O1459 O 0.59486 0.51859 0.93153
 O1460 O 0.61716 0.51866 0.90936
 C1461 C 0.61038 0.52513 0.92487
 C1462 C 0.62035 0.54069 0.93508
 C1463 C 0.63832 0.54708 0.92893
 H1464 H 0.64530 0.54030 0.91693
 O1465 O 0.43119 0.40480 0.98183
 O1466 O 0.40907 0.38245 0.98184
 C1467 C 0.42456 0.38924 0.97534
 C1468 C 0.43479 0.37923 0.95979
 C1469 C 0.42863 0.36127 0.95339
 H1470 H 0.41660 0.35430 0.96015
 O1471 O 0.56858 0.59497 0.98177
 O1472 O 0.59070 0.61733 0.98172
 C1473 C 0.57520 0.61052 0.97524
 C1474 C 0.56496 0.62050 0.95969
 C1475 C 0.57105 0.63850 0.95332
 H1476 H 0.58303 0.64551 0.96011
 O1477 O 0.43099 0.51828 0.90530
 O1478 O 0.40883 0.51826 0.88297
 C1479 C 0.42432 0.52477 0.88975
 C1480 C 0.43451 0.54033 0.87973
 C1481 C 0.42835 0.54669 0.86175
 H1482 H 0.41636 0.53987 0.85476
 O1483 O 0.56885 0.48131 0.90543
 O1484 O 0.59102 0.48134 0.88311
 C1485 C 0.57553 0.47482 0.88988
 C1486 C 0.56536 0.45925 0.87987
 C1487 C 0.57154 0.45287 0.86190
 H1488 H 0.58354 0.45969 0.85493
 O1489 O 0.51872 0.40489 0.93160
 O1490 O 0.51881 0.38256 0.90945
 C1491 C 0.52527 0.38936 0.92496
 C1492 C 0.54086 0.37942 0.93519
 C1493 C 0.54739 0.36152 0.92897
 H1494 H 0.54069 0.35454 0.91691
 O1495 O 0.48107 0.59482 0.93143
 O1496 O 0.48103 0.61711 0.90923
 C1497 C 0.47455 0.61035 0.92475
 C1498 C 0.45899 0.62036 0.93494
 C1499 C 0.45258 0.63831 0.92874
 H1500 H 0.45936 0.64527 0.91671
 O1501 O 0.40481 0.56864 0.98177
 O1502 O 0.38246 0.59077 0.98167
 C1503 C 0.38928 0.57526 0.97522
 C1504 C 0.37931 0.56502 0.95966
 C1505 C 0.36139 0.57121 0.95320
 H1506 H 0.35442 0.58325 0.95993
 O1507 O 0.59509 0.43121 0.98194
 O1508 O 0.61743 0.40907 0.98197
 C1509 C 0.61064 0.42456 0.97545
 C1510 C 0.62062 0.43475 0.95986
 C1511 C 0.63857 0.42857 0.95344
 H1512 H 0.64556 0.41656 0.96023
 O1513 O 0.48113 0.56869 0.90533
 O1514 O 0.48109 0.59084 0.88298
 C1515 C 0.47463 0.57532 0.88977
 C1516 C 0.45912 0.56507 0.87974
 C1517 C 0.45274 0.57121 0.86175
 H1518 H 0.45950 0.58324 0.85478
 O1519 O 0.51867 0.43095 0.90541
 O1520 O 0.51875 0.40875 0.88312
 C1521 C 0.52520 0.42429 0.88988
 C1522 C 0.54073 0.43452 0.87986
 C1523 C 0.54713 0.42836 0.86190
 H1524 H 0.54038 0.41633 0.85492
 O1525 O 0.59496 0.48139 0.93155
 O1526 O 0.61726 0.48141 0.90937
 C1527 C 0.61051 0.47492 0.92489
 C1528 C 0.62056 0.45939 0.93511
 C1529 C 0.63850 0.45299 0.92891
 H1530 H 0.64544 0.45975 0.91686
 O1531 O 0.40492 0.51826 0.93146
 O1532 O 0.38262 0.51826 0.90927
 C1533 C 0.38938 0.52476 0.92479
 C1534 C 0.37936 0.54031 0.93498
 C1535 C 0.36143 0.54674 0.92874
 H1536 H 0.35450 0.53997 0.91669
 O1537 O 0.43080 0.59486 0.98176
 O1538 O 0.40859 0.61713 0.98167
 C1539 C 0.42412 0.61038 0.97521
 C1540 C 0.43431 0.62038 0.95964
 C1541 C 0.42813 0.63833 0.95322
 H1542 H 0.41611 0.64531 0.95999
 O1543 O 0.56898 0.40510 0.98196
 O1544 O 0.59119 0.38283 0.98200
 C1545 C 0.57567 0.38956 0.97548
 C1546 C 0.56552 0.37952 0.95991
 C1547 C 0.57182 0.36162 0.95347
 H1548 H 0.58390 0.35473 0.96024
 O1549 O 0.56874 0.51851 0.90542
 O1550 O 0.59090 0.51858 0.88310
 C1551 C 0.57537 0.52502 0.88987
 C1552 C 0.56510 0.54052 0.87983
 C1553 C 0.57118 0.54685 0.86181
 H1554 H 0.58318 0.54006 0.85482
 O1555 O 0.43107 0.48108 0.90536
 O1556 O 0.40891 0.48101 0.88303
 C1557 C 0.42443 0.47455 0.88982
 C1558 C 0.43468 0.45901 0.87982
 C1559 C 0.42854 0.45260 0.86185
 H1560 H 0.41652 0.45936 0.85486
 O1561 O 0.51826 0.59486 0.93146
 O1562 O 0.51827 0.61715 0.90925
 C1563 C 0.52475 0.61040 0.92478
 C1564 C 0.54027 0.62044 0.93500
 C1565 C 0.54659 0.63844 0.92885
 H1566 H 0.53977 0.64541 0.91685
 O1567 O 0.48152 0.40481 0.93156
 O1568 O 0.48156 0.38247 0.90942
 C1569 C 0.47505 0.38925 0.92492
 C1570 C 0.45950 0.37924 0.93513
 C1571 C 0.45311 0.36128 0.92894
 H1572 H 0.45990 0.35432 0.91693
 O1573 O 0.59476 0.56892 0.98182
 O1574 O 0.61702 0.59113 0.98178
 C1575 C 0.61028 0.57560 0.97531
 C1576 C 0.62032 0.56539 0.95977
 C1577 C 0.63828 0.57156 0.95339
 H1578 H 0.64524 0.58357 0.96018
 O1579 O 0.40499 0.43084 0.98179
 O1580 O 0.38273 0.40863 0.98181
 C1581 C 0.38947 0.42414 0.97529
 C1582 C 0.37944 0.43431 0.95972
 C1583 C 0.36149 0.42811 0.95332
 H1584 H 0.35454 0.41608 0.96011
 Cu1585 Cu 0.50009 0.42011 0.92072
 Cu1586 Cu 0.50016 0.39338 0.89405
 Cu1587 Cu 0.49969 0.57955 0.92062
 Cu1588 Cu 0.49968 0.60623 0.89389
 Cu1589 Cu 0.42020 0.49967 0.92061
 Cu1590 Cu 0.39351 0.49963 0.89390
 Cu1591 Cu 0.57963 0.49994 0.92071
 Cu1592 Cu 0.60632 0.50000 0.89400
 C1593 C 0.45025 0.44992 0.88861
 H1594 H 0.45490 0.45462 0.90258
 C1595 C 0.43773 0.43730 0.85291
 C1596 C 0.54955 0.54965 0.88863
 H1597 H 0.54494 0.54502 0.90263
 C1598 C 0.56197 0.56211 0.85282
 C1599 C 0.38818 0.44988 0.95058
 H1600 H 0.40213 0.45459 0.95526
 C1601 C 0.35253 0.43723 0.93797
 C1602 C 0.61156 0.54983 0.95063
 H1603 H 0.59760 0.54515 0.95530
 C1604 C 0.64726 0.56241 0.93808
 C1605 C 0.45035 0.38801 0.95068
 H1606 H 0.45503 0.40196 0.95537
 C1607 C 0.43778 0.35233 0.93807
 C1608 C 0.54944 0.61168 0.95054
 H1609 H 0.54482 0.59769 0.95521
 C1610 C 0.56187 0.64744 0.93801
 C1611 C 0.45003 0.54950 0.88852
 H1612 H 0.45470 0.54484 0.90249
 C1613 C 0.43746 0.56202 0.85279
 C1614 C 0.54982 0.45009 0.88864
 H1615 H 0.54513 0.45476 0.90260
 C1616 C 0.56243 0.43754 0.85294
 C1617 C 0.54991 0.38821 0.95079
 H1618 H 0.54512 0.40212 0.95550
 C1619 C 0.56277 0.35265 0.93811
 C1620 C 0.44988 0.61160 0.95052
 H1621 H 0.45457 0.59765 0.95523
 C1622 C 0.43726 0.64727 0.93787
 C1623 C 0.38810 0.54944 0.95057
 H1624 H 0.40203 0.54474 0.95530
 C1625 C 0.35248 0.56208 0.93784
 C1626 C 0.61183 0.45029 0.95072
 H1627 H 0.59788 0.45497 0.95542
 C1628 C 0.64748 0.43768 0.93807
 O1629 O 0.51855 0.43118 1.09561
 O1630 O 0.51858 0.40901 1.11794
 C1631 C 0.52505 0.42453 1.11117
 C1632 C 0.54057 0.43476 1.12119
 C1633 C 0.54698 0.42859 1.13915
 H1634 H 0.54023 0.41656 1.14612
 O1635 O 0.48105 0.56896 1.09539
 O1636 O 0.48099 0.59115 1.11768
 C1637 C 0.47453 0.57563 1.11093
 C1638 C 0.45899 0.56541 1.12094
 C1639 C 0.45258 0.57159 1.13890
 H1640 H 0.45933 0.58363 1.14585
 O1641 O 0.40477 0.51851 1.06932
 O1642 O 0.38245 0.51849 1.09149
 C1643 C 0.38922 0.52499 1.07597
 C1644 C 0.37918 0.54052 1.06575
 C1645 C 0.36121 0.54690 1.07191
 H1646 H 0.35425 0.54012 1.08393
 O1647 O 0.59484 0.48157 1.06950
 O1648 O 0.61714 0.48162 1.09169
 C1649 C 0.61039 0.47511 1.07617
 C1650 C 0.62045 0.45959 1.06595
 C1651 C 0.63844 0.45327 1.07210
 H1652 H 0.64540 0.46007 1.08412
 O1653 O 0.56897 0.40514 1.01917
 O1654 O 0.59118 0.38287 1.01926
 C1655 C 0.57565 0.38962 1.02572
 C1656 C 0.56547 0.37962 1.04130
 C1657 C 0.57175 0.36172 1.04778
 H1658 H 0.58382 0.35480 1.04105
 O1659 O 0.43078 0.59491 1.01897
 O1660 O 0.40856 0.61717 1.01892
 C1661 C 0.42408 0.61044 1.02544
 C1662 C 0.43425 0.62050 1.04099
 C1663 C 0.42805 0.63846 1.04735
 H1664 H 0.41602 0.64540 1.04055
 O1665 O 0.43097 0.48137 1.09546
 O1666 O 0.40878 0.48130 1.11776
 C1667 C 0.42431 0.47484 1.11100
 C1668 C 0.43453 0.45930 1.12102
 C1669 C 0.42835 0.45290 1.13898
 H1670 H 0.41631 0.45966 1.14593
 O1671 O 0.56862 0.51874 1.09556
 O1672 O 0.59077 0.51883 1.11790
 C1673 C 0.57525 0.52527 1.11110
 C1674 C 0.56498 0.54081 1.12109
 C1675 C 0.57106 0.54718 1.13909
 H1676 H 0.58305 0.54039 1.14611
 O1677 O 0.48145 0.40500 1.06944
 O1678 O 0.48145 0.38269 1.09162
 C1679 C 0.47497 0.38944 1.07609
 C1680 C 0.45946 0.37940 1.06586
 C1681 C 0.45313 0.36141 1.07201
 H1682 H 0.45993 0.35445 1.08403
 O1683 O 0.51822 0.59508 1.06926
 O1684 O 0.51822 0.61741 1.09141
 C1685 C 0.52471 0.61063 1.07590
 C1686 C 0.54024 0.62064 1.06566
 C1687 C 0.54657 0.63866 1.07175
 H1688 H 0.53975 0.64566 1.08373
 O1689 O 0.40504 0.43094 1.01900
 O1690 O 0.38278 0.40873 1.01907
 C1691 C 0.38952 0.42426 1.02552
 C1692 C 0.37948 0.43449 1.04105
 C1693 C 0.36150 0.42834 1.04739
 H1694 H 0.35454 0.41633 1.04058
 O1695 O 0.59473 0.56897 1.01903
 O1696 O 0.61699 0.59118 1.01904
 C1697 C 0.61024 0.57566 1.02555
 C1698 C 0.62025 0.56549 1.04114
 C1699 C 0.63821 0.57168 1.04751
 H1700 H 0.64518 0.58368 1.04070
 O1701 O 0.51824 0.56899 1.09542
 O1702 O 0.51823 0.59118 1.11771
 C1703 C 0.52473 0.57566 1.11097
 C1704 C 0.54026 0.56546 1.12102
 C1705 C 0.54656 0.57161 1.13902
 H1706 H 0.53973 0.58360 1.14599
 O1707 O 0.48135 0.43112 1.09554
 O1708 O 0.48134 0.40895 1.11787
 C1709 C 0.47484 0.42445 1.11108
 C1710 C 0.45925 0.43464 1.12106
 C1711 C 0.45284 0.42846 1.13902
 H1712 H 0.45963 0.41645 1.14601
 O1713 O 0.59475 0.51877 1.06946
 O1714 O 0.61705 0.51886 1.09166
 C1715 C 0.61027 0.52531 1.07612
 C1716 C 0.62026 0.54086 1.06589
 C1717 C 0.63822 0.54726 1.07204
 H1718 H 0.64520 0.54050 1.08407
 O1719 O 0.40490 0.48131 1.06930
 O1720 O 0.38258 0.48124 1.09145
 C1721 C 0.38938 0.47477 1.07594
 C1722 C 0.37941 0.45920 1.06572
 C1723 C 0.36143 0.45283 1.07183
 H1724 H 0.35441 0.45964 1.08381
 O1725 O 0.56856 0.59503 1.01897
 O1726 O 0.59068 0.61738 1.01897
 C1727 C 0.57518 0.61059 1.02545
 C1728 C 0.56493 0.62062 1.04097
 C1729 C 0.57103 0.63864 1.04728
 H1730 H 0.58301 0.64562 1.04046
 O1731 O 0.43119 0.40486 1.01904
 O1732 O 0.40907 0.38250 1.01910
 C1733 C 0.42457 0.38931 1.02558
 C1734 C 0.43480 0.37934 1.04114
 C1735 C 0.42869 0.36135 1.04752
 H1736 H 0.41671 0.35434 1.04072
 O1737 O 0.56873 0.48154 1.09562
 O1738 O 0.59088 0.48158 1.11795
 C1739 C 0.57539 0.47505 1.11117
 C1740 C 0.56522 0.45948 1.12119
 C1741 C 0.57141 0.45309 1.13915
 H1742 H 0.58342 0.45987 1.14612
 O1743 O 0.43088 0.51857 1.09544
 O1744 O 0.40871 0.51856 1.11775
 C1745 C 0.42420 0.52508 1.11098
 C1746 C 0.43436 0.54067 1.12098
 C1747 C 0.42818 0.54707 1.13893
 H1748 H 0.41618 0.54027 1.14592
 O1749 O 0.48103 0.59506 1.06927
 O1750 O 0.48098 0.61740 1.09141
 C1751 C 0.47451 0.61060 1.07590
 C1752 C 0.45894 0.62058 1.06568
 C1753 C 0.45252 0.63854 1.07182
 H1754 H 0.45929 0.64555 1.08382
 O1755 O 0.51864 0.40507 1.06949
 O1756 O 0.51869 0.38277 1.09168
 C1757 C 0.52518 0.38955 1.07617
 C1758 C 0.54078 0.37958 1.06599
 C1759 C 0.54729 0.36168 1.07225
 H1760 H 0.54056 0.35473 1.08432
 O1761 O 0.59501 0.43131 1.01915
 O1762 O 0.61736 0.40917 1.01923
 C1763 C 0.61056 0.42468 1.02569
 C1764 C 0.62053 0.43492 1.04124
 C1765 C 0.63853 0.42883 1.04761
 H1766 H 0.64555 0.41685 1.04080
 O1767 O 0.40471 0.56876 1.01898
 O1768 O 0.38235 0.59088 1.01893
 C1769 C 0.38915 0.57539 1.02546
 C1770 C 0.37915 0.56519 1.04102
 C1771 C 0.36117 0.57134 1.04741
 H1772 H 0.35419 0.58334 1.04060
 Cu1773 Cu 0.50000 0.42031 1.08030
 Cu1774 Cu 0.50001 0.39362 1.10702
 Cu1775 Cu 0.49964 0.57980 1.08011
 Cu1776 Cu 0.49961 0.60653 1.10679
 Cu1777 Cu 0.42032 0.42008 1.00041
 Cu1778 Cu 0.39368 0.39334 1.00046
 Cu1779 Cu 0.57979 0.42041 1.00055
 Cu1780 Cu 0.60653 0.39375 1.00062
 Cu1781 Cu 0.42000 0.57958 1.00038
 Cu1782 Cu 0.39324 0.60622 1.00029
 Cu1783 Cu 0.57944 0.57974 1.00040
 Cu1784 Cu 0.60608 0.60649 1.00037
 Cu1785 Cu 0.42010 0.49995 1.08016
 Cu1786 Cu 0.39339 0.49989 1.10685
 Cu1787 Cu 0.57951 0.50015 1.08031
 Cu1788 Cu 0.60619 0.50023 1.10704
 C1789 C 0.54967 0.45034 1.11242
 H1790 H 0.54497 0.45503 1.09846
 C1791 C 0.56229 0.43774 1.14811
 C1792 C 0.44990 0.54982 1.11219
 H1793 H 0.45460 0.54513 1.09824
 C1794 C 0.43728 0.56243 1.14787
 C1795 C 0.38794 0.54965 1.05018
 H1796 H 0.40190 0.54499 1.04551
 C1797 C 0.35223 0.56220 1.06274
 C1798 C 0.61170 0.45043 1.05039
 H1799 H 0.59772 0.45506 1.04573
 C1800 C 0.64746 0.43800 1.06293
 C1801 C 0.54986 0.38834 1.05039
 H1802 H 0.54510 0.40225 1.04564
 C1803 C 0.56267 0.35279 1.06315
 C1804 C 0.44982 0.61177 1.05013
 H1805 H 0.45453 0.59781 1.04548
 C1806 C 0.43718 0.64746 1.06265
 C1807 C 0.45011 0.45019 1.11227
 H1808 H 0.45481 0.45488 1.09831
 C1809 C 0.43749 0.43759 1.14795
 C1810 C 0.54945 0.54993 1.11226
 H1811 H 0.54484 0.54527 1.09826
 C1812 C 0.56185 0.56247 1.14803
 C1813 C 0.45032 0.38815 1.05029
 H1814 H 0.45495 0.40213 1.04562
 C1815 C 0.43785 0.35241 1.06285
 C1816 C 0.54941 0.61183 1.05014
 H1817 H 0.54478 0.59784 1.04552
 C1818 C 0.56185 0.64763 1.06256
 C1819 C 0.38824 0.45005 1.05020
 H1820 H 0.40221 0.45471 1.04556
 C1821 C 0.35250 0.43751 1.06266
 C1822 C 0.61148 0.54996 1.05031
 H1823 H 0.59753 0.54527 1.04564
 C1824 C 0.64717 0.56256 1.06286
 C1825 C 1.13431 1.13377 1.31684
 C1826 C 1.12745 1.12706 1.30257
 C1827 C 1.11938 1.11918 1.28542
 C1828 C 1.10773 1.13043 1.27375
 C1829 C 1.10020 1.12293 1.25688
 C1830 C 1.10427 1.10404 1.25143
 C1831 C 1.11591 1.09281 1.26332
 C1832 C 1.12341 1.10034 1.28020
 C1833 C 1.09661 1.09620 1.23330
 C1834 C 1.10808 1.08465 1.22155
 C1835 C 1.10100 1.07755 1.20431
 C1836 C 1.08238 1.08186 1.19859
 C1837 C 1.07081 1.09325 1.21021
 C1838 C 1.07787 1.10037 1.22745
 C1839 C 1.07526 1.07486 1.18065
 C1840 C 1.06944 1.06909 1.16553
 H1841 H 1.10459 1.14506 1.27762
 H1842 H 1.09151 1.13202 1.24792
 H1843 H 1.11910 1.07815 1.25965
 H1844 H 1.13239 1.09149 1.28914
 H1845 H 1.12264 1.08139 1.22551
 H1846 H 1.11010 1.06881 1.19538
 H1847 H 1.05636 1.09665 1.20592
 H1848 H 1.06861 1.10902 1.23628
 C1849 C 1.13240 0.63213 0.81754
 C1850 C 1.12561 0.62532 0.80329
 C1851 C 1.11767 0.61735 0.78613
 C1852 C 1.12836 0.60453 0.77520
 C1853 C 1.12088 0.59714 0.75826
 C1854 C 1.10257 0.60252 0.75202
 C1855 C 1.09188 0.61531 0.76319
 C1856 C 1.09940 0.62267 0.78013
 C1857 C 1.09482 0.59505 0.73378
 C1858 C 1.08471 0.60711 0.72131
 C1859 C 1.07777 0.60019 0.70395
 C1860 C 1.08080 0.58115 0.69882
 C1861 C 1.09072 0.56900 0.71117
 C1862 C 1.09769 0.57588 0.72854
 C1863 C 1.07400 0.57418 0.68076
 C1864 C 1.06840 0.56849 0.66554
 H1865 H 1.14256 0.60038 0.77967
 H1866 H 1.12956 0.58753 0.74985
 H1867 H 1.07766 0.61953 0.75889
 H1868 H 1.09099 0.63257 0.78851
 H1869 H 1.08249 0.62198 0.72481
 H1870 H 1.07017 0.60974 0.69446
 H1871 H 1.09312 0.55422 0.70734
 H1872 H 1.10521 0.56619 0.73793
 C1873 C 0.63370 1.13340 0.81728
 C1874 C 0.62677 1.12671 0.80304
 C1875 C 0.61864 1.11887 0.78590
 C1876 C 0.62261 1.10004 0.78063
 C1877 C 0.61507 1.09257 0.76375
 C1878 C 0.60343 1.10386 0.75191
 C1879 C 0.59941 1.12274 0.75742
 C1880 C 0.60698 1.13018 0.77430
 C1881 C 0.59576 1.09610 0.73375
 C1882 C 0.57703 1.10033 0.72792
 C1883 C 0.56997 1.09332 0.71063
 C1884 C 0.58153 1.08199 0.69895
 C1885 C 0.60014 1.07761 0.70466
 C1886 C 0.60722 1.08459 0.72195
 C1887 C 0.57444 1.07512 0.68096
 C1888 C 0.56867 1.06944 0.66579
 H1889 H 0.63160 1.09115 0.78953
 H1890 H 0.61823 1.07792 0.76002
 H1891 H 0.59072 1.13187 0.74849
 H1892 H 0.60388 1.14480 0.77821
 H1893 H 0.56778 1.10895 0.73679
 H1894 H 0.55554 1.09677 0.70635
 H1895 H 0.60924 1.06892 0.69569
 H1896 H 0.62178 1.08130 0.72590
 C1897 C 0.63296 0.63335 1.31790
 C1898 C 0.62612 0.62653 1.30367
 C1899 C 0.61812 0.61854 1.28654
 C1900 C 0.60016 0.62447 1.28016
 C1901 C 0.59260 0.61706 1.26326
 C1902 C 0.60292 0.60362 1.25250
 C1903 C 0.62090 0.59765 1.25913
 C1904 C 0.62844 0.60509 1.27602
 C1905 C 0.59512 0.59608 1.23431
 C1906 C 0.59733 0.57673 1.22947
 C1907 C 0.59031 0.56976 1.21215
 C1908 C 0.58099 0.58202 1.19945
 C1909 C 0.57862 0.60126 1.20417
 C1910 C 0.58562 0.60826 1.22148
 C1911 C 0.57413 0.57496 1.18144
 C1912 C 0.56848 0.56918 1.16627
 H1913 H 0.59204 0.63486 1.28821
 H1914 H 0.57862 0.62176 1.25867
 H1915 H 0.62931 0.58753 1.25105
 H1916 H 0.64240 0.60046 1.28079
 H1917 H 0.60436 0.56695 1.23915
 H1918 H 0.59219 0.55483 1.20865
 H1919 H 0.57150 0.61090 1.19440
 H1920 H 0.58392 0.62328 1.22466
 C1921 C 0.86691 0.86697 1.31741
 C1922 C 0.87368 0.87366 1.30309
 C1923 C 0.88167 0.88149 1.28588
 C1924 C 0.87774 0.90035 1.28067
 C1925 C 0.88520 0.90783 1.26375
 C1926 C 0.89671 0.89651 1.25181
 C1927 C 0.90067 0.87760 1.25725
 C1928 C 0.89319 0.87015 1.27417
 C1929 C 0.90434 0.90430 1.23364
 C1930 C 0.92303 0.89999 1.22773
 C1931 C 0.93004 0.90703 1.21044
 C1932 C 0.91849 0.91846 1.19884
 C1933 C 0.89993 0.92292 1.20464
 C1934 C 0.89289 0.91591 1.22192
 C1935 C 0.92555 0.92535 1.18084
 C1936 C 0.93132 0.93102 1.16566
 H1937 H 0.86886 0.90925 1.28965
 H1938 H 0.88209 0.92250 1.26008
 H1939 H 0.90927 0.86846 1.24825
 H1940 H 0.89626 0.85551 1.27803
 H1941 H 0.93226 0.89130 1.23654
 H1942 H 0.94445 0.90352 1.20609
 H1943 H 0.89085 0.93169 1.19572
 H1944 H 0.87837 0.91926 1.22595
 C1945 C 0.86555 0.36675 0.81705
 C1946 C 0.87229 0.37346 0.80273
 C1947 C 0.88024 0.38135 0.78553
 C1948 C 0.86931 0.39356 0.77413
 C1949 C 0.87688 0.40094 0.75722
 C1950 C 0.89551 0.39618 0.75147
 C1951 C 0.90642 0.38398 0.76309
 C1952 C 0.89882 0.37662 0.78000
 C1953 C 0.90342 0.40371 0.73331
 C1954 C 0.91434 0.39192 0.72129
 C1955 C 0.92149 0.39890 0.70403
 C1956 C 0.91785 0.41775 0.69855
 C1957 C 0.90709 0.42963 0.71045
 C1958 C 0.89992 0.42268 0.72771
 C1959 C 0.92490 0.42478 0.68060
 C1960 C 0.93068 0.43055 0.66547
 H1961 H 0.85488 0.39726 0.77824
 H1962 H 0.86803 0.41009 0.74847
 H1963 H 0.92088 0.38024 0.75918
 H1964 H 0.90742 0.36720 0.78874
 H1965 H 0.91707 0.37720 0.72506
 H1966 H 0.92974 0.38956 0.69489
 H1967 H 0.90421 0.44425 0.70636
 H1968 H 0.89176 0.43217 0.73676
 C1969 C 0.36604 0.86670 0.81720
 C1970 C 0.37283 0.87345 0.80291
 C1971 C 0.38082 0.88136 0.78574
 C1972 C 0.37681 0.90022 0.78058
 C1973 C 0.38426 0.90778 0.76369
 C1974 C 0.39584 0.89656 0.75174
 C1975 C 0.39987 0.87764 0.75713
 C1976 C 0.39239 0.87011 0.77401
 C1977 C 0.40347 0.90443 0.73361
 C1978 C 0.42219 0.90022 0.72771
 C1979 C 0.42922 0.90736 0.71046
 C1980 C 0.41765 0.91878 0.69888
 C1981 C 0.39906 0.92314 0.70466
 C1982 C 0.39200 0.91604 0.72190
 C1983 C 0.42473 0.92577 0.68093
 C1984 C 0.43054 0.93151 0.66579
 H1985 H 0.36788 0.90906 0.78957
 H1986 H 0.38110 0.92246 0.76006
 H1987 H 0.40852 0.86856 0.74811
 H1988 H 0.39552 0.85547 0.77784
 H1989 H 0.43144 0.89153 0.73651
 H1990 H 0.44365 0.90391 0.70614
 H1991 H 0.38996 0.93191 0.69576
 H1992 H 0.37746 0.91932 0.72591
 C1993 C 0.36574 0.36666 1.31760
 C1994 C 0.37254 0.37332 1.30328
 C1995 C 0.38057 0.38114 1.28608
 C1996 C 0.37686 0.40008 1.28098
 C1997 C 0.38438 0.40756 1.26408
 C1998 C 0.39572 0.39617 1.25206
 C1999 C 0.39945 0.37717 1.25738
 C2000 C 0.39191 0.36973 1.27427
 C2001 C 0.40343 0.40397 1.23393
 C2002 C 0.42205 0.39945 1.22796
 C2003 C 0.42915 0.40652 1.21071
 C2004 C 0.41774 0.41818 1.19920
 C2005 C 0.39925 0.42284 1.20505
 C2006 C 0.39213 0.41580 1.22230
 C2007 C 0.42489 0.42512 1.18125
 C2008 C 0.43072 0.43085 1.16613
 H2009 H 0.36812 0.40905 1.29004
 H2010 H 0.38145 0.42229 1.26051
 H2011 H 0.40790 0.36797 1.24831
 H2012 H 0.39480 0.35502 1.27805
 H2013 H 0.43118 0.39058 1.23670
 H2014 H 0.44350 0.40284 1.20633
 H2015 H 0.39027 0.43180 1.19621
 H2016 H 0.37765 0.41933 1.22636
 C2017 C 0.86519 1.13327 0.68278
 C2018 C 0.87198 1.12645 0.69704
 C2019 C 0.87997 1.11846 0.71419
 C2020 C 0.86875 1.10698 0.72605
 C2021 C 0.87635 1.09955 0.74292
 C2022 C 0.89531 1.10352 0.74818
 C2023 C 0.90651 1.11498 0.73609
 C2024 C 0.89888 1.12240 0.71922
 C2025 C 0.90326 1.09596 0.76632
 C2026 C 0.91501 1.10744 0.77787
 C2027 C 0.92218 1.10046 0.79512
 C2028 C 0.91775 1.08193 0.80107
 C2029 C 0.90618 1.07036 0.78965
 C2030 C 0.89897 1.07731 0.77239
 C2031 C 0.92483 1.07492 0.81902
 C2032 C 0.93064 1.06916 0.83415
 H2033 H 0.85407 1.10391 0.72233
 H2034 H 0.86729 1.09099 0.75204
 H2035 H 0.92121 1.11810 0.73962
 H2036 H 0.90770 1.13124 0.71012
 H2037 H 0.91835 1.12194 0.77373
 H2038 H 0.93107 1.10957 0.80389
 H2039 H 0.90268 1.05598 0.79410
 H2040 H 0.89017 1.06805 0.76372
 C2041 C 0.86640 0.63344 0.18238
 C2042 C 0.87314 0.62666 0.19668
 C2043 C 0.88107 0.61869 0.21386
 C2044 C 0.87570 0.60042 0.21984
 C2045 C 0.88311 0.59283 0.23673
 C2046 C 0.89601 0.60343 0.24787
 C2047 C 0.90141 0.62174 0.24166
 C2048 C 0.89397 0.62930 0.22477
 C2049 C 0.90360 0.59555 0.26602
 C2050 C 0.92280 0.59835 0.27115
 C2051 C 0.92982 0.59122 0.28841
 C2052 C 0.91777 0.58120 0.30076
 C2053 C 0.89868 0.57824 0.29575
 C2054 C 0.89164 0.58535 0.27850
 C2055 C 0.92487 0.57420 0.31871
 C2056 C 0.93069 0.56845 0.33384
 H2057 H 0.86575 0.59207 0.21148
 H2058 H 0.87887 0.57861 0.24100
 H2059 H 0.91110 0.63035 0.25004
 H2060 H 0.89817 0.64349 0.22030
 H2061 H 0.93243 0.60593 0.26175
 H2062 H 0.94463 0.59356 0.29214
 H2063 H 0.88921 0.57057 0.30525
 H2064 H 0.87674 0.58318 0.27509
 C2065 C 0.36602 1.13337 0.18270
 C2066 C 0.37260 1.12660 0.19708
 C2067 C 0.38032 1.11864 0.21436
 C2068 C 0.36808 1.11281 0.22900
 C2069 C 0.37554 1.10532 0.24591
 C2070 C 0.39537 1.10358 0.24841
 C2071 C 0.40756 1.10943 0.23357
 C2072 C 0.40007 1.11691 0.21666
 C2073 C 0.40329 1.09590 0.26650
 C2074 C 0.41952 1.10422 0.27488
 C2075 C 0.42672 1.09722 0.29211
 C2076 C 0.41783 1.08182 0.30118
 C2077 C 0.40177 1.07336 0.29290
 C2078 C 0.39454 1.08034 0.27567
 C2079 C 0.42497 1.07492 0.31914
 C2080 C 0.43080 1.06922 0.33429
 H2081 H 0.35278 1.11416 0.22739
 H2082 H 0.36579 1.10120 0.25716
 H2083 H 0.42288 1.10806 0.23497
 H2084 H 0.40967 1.12135 0.20539
 H2085 H 0.42642 1.11636 0.26830
 H2086 H 0.43912 1.10392 0.29844
 H2087 H 0.39480 1.06142 0.29979
 H2088 H 0.38218 1.07348 0.26946
 C2089 C 0.36600 0.63315 0.68310
 C2090 C 0.37263 0.62631 0.69742
 C2091 C 0.38041 0.61827 0.71463
 C2092 C 0.36829 0.60998 0.72814
 C2093 C 0.37577 0.60248 0.74504
 C2094 C 0.39549 0.60318 0.74865
 C2095 C 0.40757 0.61147 0.73492
 C2096 C 0.40006 0.61896 0.71802
 C2097 C 0.40339 0.59553 0.76677
 C2098 C 0.41789 0.60538 0.77653
 C2099 C 0.42505 0.59837 0.79378
 C2100 C 0.41784 0.58143 0.80148
 C2101 C 0.40351 0.57146 0.79183
 C2102 C 0.39632 0.57845 0.77458
 C2103 C 0.42492 0.57447 0.81945
 C2104 C 0.43071 0.56873 0.83459
 H2105 H 0.35305 0.60945 0.72569
 H2106 H 0.36607 0.59643 0.75543
 H2107 H 0.42283 0.61201 0.73718
 H2108 H 0.40957 0.62532 0.70764
 H2109 H 0.42345 0.61869 0.77102
 H2110 H 0.43609 0.60625 0.80118
 H2111 H 0.39785 0.55832 0.79766
 H2112 H 0.38533 0.57041 0.76729
 C2113 C 1.13405 0.86592 0.68279
 C2114 C 1.12723 0.87257 0.69711
 C2115 C 1.11920 0.88040 0.71430
 C2116 C 1.10918 0.86862 0.72692
 C2117 C 1.10165 0.87612 0.74379
 C2118 C 1.10407 0.89553 0.74829
 C2119 C 1.11409 0.90728 0.73546
 C2120 C 1.12160 0.89975 0.71858
 C2121 C 1.09638 0.90342 0.76639
 C2122 C 1.10710 0.91652 0.77717
 C2123 C 1.10002 0.92366 0.79439
 C2124 C 1.08214 0.91783 0.80107
 C2125 C 1.07131 0.90489 0.79041
 C2126 C 1.07837 0.89773 0.77318
 C2127 C 1.07507 0.92488 0.81900
 C2128 C 1.06927 0.93068 0.83411
 H2129 H 1.10731 0.85361 0.72378
 H2130 H 1.09424 0.86665 0.75349
 H2131 H 1.11599 0.92232 0.73839
 H2132 H 1.12931 0.90900 0.70890
 H2133 H 1.12111 0.92098 0.77246
 H2134 H 1.10855 0.93361 0.80257
 H2135 H 1.05744 0.90030 0.79543
 H2136 H 1.06968 0.88785 0.76510
 C2137 C 1.13305 0.36643 0.18209
 C2138 C 1.12628 0.37308 0.19643
 C2139 C 1.11833 0.38090 0.21366
 C2140 C 1.12314 0.39940 0.21941
 C2141 C 1.11575 0.40686 0.23636
 C2142 C 1.10344 0.39589 0.24780
 C2143 C 1.09860 0.37735 0.24183
 C2144 C 1.10602 0.36992 0.22488
 C2145 C 1.09588 0.40363 0.26602
 C2146 C 1.07688 0.40020 0.27149
 C2147 C 1.06990 0.40723 0.28880
 C2148 C 1.08180 0.41777 0.30086
 C2149 C 1.10069 0.42135 0.29551
 C2150 C 1.10769 0.41434 0.27821
 C2151 C 1.07475 0.42469 0.31885
 C2152 C 1.06899 0.43041 0.33401
 H2153 H 1.13265 0.40803 0.21081
 H2154 H 1.11955 0.42125 0.24045
 H2155 H 1.08937 0.36846 0.25045
 H2156 H 1.10227 0.35555 0.22060
 H2157 H 1.06737 0.39222 0.26231
 H2158 H 1.05525 0.40440 0.29280
 H2159 H 1.11004 0.42943 0.30478
 H2160 H 1.12245 0.41701 0.27453
 C2161 C 0.63281 0.86738 0.18248
 C2162 C 0.62608 0.87405 0.19682
 C2163 C 0.61814 0.88185 0.21407
 C2164 C 0.60689 0.87041 0.22593
 C2165 C 0.59946 0.87783 0.24288
 C2166 C 0.60321 0.89682 0.24820
 C2167 C 0.61446 0.90823 0.23612
 C2168 C 0.62186 0.90078 0.21916
 C2169 C 0.59563 0.90457 0.26641
 C2170 C 0.60702 0.91637 0.27798
 C2171 C 0.60002 0.92335 0.29530
 C2172 C 0.58157 0.91866 0.30128
 C2173 C 0.57009 0.90704 0.28982
 C2174 C 0.57706 0.90004 0.27250
 C2175 C 0.57456 0.92554 0.31929
 C2176 C 0.56880 0.93121 0.33447
 H2177 H 0.60398 0.85571 0.22216
 H2178 H 0.59108 0.86861 0.25200
 H2179 H 0.61740 0.92296 0.23970
 H2180 H 0.63053 0.90977 0.21005
 H2181 H 0.62146 0.91991 0.27382
 H2182 H 0.60906 0.93227 0.30410
 H2183 H 0.55577 0.90335 0.29430
 H2184 H 0.56786 0.89119 0.26380
 C2185 C 0.63384 0.36693 0.68301
 C2186 C 0.62706 0.37357 0.69736
 C2187 C 0.61907 0.38136 0.71458
 C2188 C 0.60756 0.37000 0.72628
 C2189 C 0.60006 0.37741 0.74320
 C2190 C 0.60401 0.39632 0.74867
 C2191 C 0.61552 0.40765 0.73676
 C2192 C 0.62299 0.40021 0.71983
 C2193 C 0.59635 0.40408 0.76685
 C2194 C 0.60777 0.41569 0.77858
 C2195 C 0.60069 0.42269 0.79586
 C2196 C 0.58212 0.41822 0.80164
 C2197 C 0.57061 0.40677 0.79003
 C2198 C 0.57766 0.39974 0.77274
 C2199 C 0.57501 0.42513 0.81961
 C2200 C 0.56920 0.43083 0.83475
 H2201 H 0.60449 0.35536 0.72239
 H2202 H 0.59147 0.36825 0.75218
 H2203 H 0.61862 0.42232 0.74045
 H2204 H 0.63186 0.40914 0.71086
 H2205 H 0.62229 0.41907 0.77457
 H2206 H 0.60975 0.43148 0.80478
 H2207 H 0.55621 0.40325 0.79435
 H2208 H 0.56845 0.39105 0.76392
 C2209 C 1.31722 1.13320 1.13359
 C2210 C 1.30291 1.12657 1.12676
 C2211 C 1.28571 1.11878 1.11872
 C2212 C 1.28102 1.09962 1.12174
 C2213 C 1.26412 1.09216 1.11425
 C2214 C 1.25168 1.10379 1.10361
 C2215 C 1.25660 1.12301 1.10056
 C2216 C 1.27349 1.13044 1.10808
 C2217 C 1.23354 1.09600 1.09594
 C2218 C 1.22714 1.10114 1.07762
 C2219 C 1.20988 1.09408 1.07058
 C2220 C 1.19880 1.08179 1.08173
 C2221 C 1.20509 1.07649 1.09992
 C2222 C 1.22235 1.08353 1.10699
 C2223 C 1.18084 1.07484 1.07466
 C2224 C 1.16571 1.06911 1.06887
 H2225 H 1.29040 1.09047 1.12993
 H2226 H 1.26085 1.07726 1.11664
 H2227 H 1.24720 1.13239 1.09266
 H2228 H 1.27696 1.14531 1.10572
 H2229 H 1.23555 1.11052 1.06868
 H2230 H 1.20516 1.09824 1.05646
 H2231 H 1.19658 1.06705 1.10871
 H2232 H 1.22675 1.07951 1.12124
 C2233 C 1.31672 0.63351 0.63317
 C2234 C 1.30245 0.62681 0.62632
 C2235 C 1.28529 0.61893 0.61830
 C2236 C 1.27321 0.63041 0.60732
 C2237 C 1.25633 0.62290 0.59984
 C2238 C 1.25129 0.60377 0.60328
 C2239 C 1.26360 0.59232 0.61425
 C2240 C 1.28048 0.59986 0.62171
 C2241 C 1.23317 0.59591 0.59567
 C2242 C 1.22183 0.58375 0.60692
 C2243 C 1.20459 0.57663 0.59990
 C2244 C 1.19845 0.58155 0.58155
 C2245 C 1.20966 0.59353 0.57020
 C2246 C 1.22691 0.60067 0.57720
 C2247 C 1.18050 0.57453 0.57452
 C2248 C 1.16537 0.56877 0.56875
 H2249 H 1.27676 0.64521 0.60466
 H2250 H 1.24704 0.63215 0.59168
 H2251 H 1.26024 0.57749 0.61695
 H2252 H 1.28975 0.59084 0.63017
 H2253 H 1.22613 0.58002 0.62129
 H2254 H 1.19597 0.56743 0.60884
 H2255 H 1.20505 0.59740 0.55596
 H2256 H 1.23542 0.60980 0.56810
 C2257 C 0.81690 1.13360 0.63443
 C2258 C 0.80261 1.12694 0.62757
 C2259 C 0.78543 1.11914 0.61947
 C2260 C 0.77324 1.13080 0.60880
 C2261 C 0.75636 1.12337 0.60123
 C2262 C 0.75144 1.10415 0.60425
 C2263 C 0.76385 1.09252 0.61491
 C2264 C 0.78073 1.09998 0.62246
 C2265 C 0.73331 1.09636 0.59653
 C2266 C 0.72211 1.08384 0.60751
 C2267 C 0.70487 1.07681 0.60040
 C2268 C 0.69858 1.08217 0.58222
 C2269 C 0.70966 1.09452 0.57113
 C2270 C 0.72691 1.10158 0.57822
 C2271 C 0.68063 1.07523 0.57510
 C2272 C 0.66549 1.06952 0.56928
 H2273 H 0.77671 1.14568 0.60646
 H2274 H 0.74700 1.13276 0.59332
 H2275 H 0.76059 1.07761 0.61728
 H2276 H 0.79009 1.09081 0.63067
 H2277 H 0.72650 1.07976 0.62175
 H2278 H 0.69636 1.06732 0.60914
 H2279 H 0.70494 1.09874 0.55703
 H2280 H 0.73532 1.11099 0.56932
 C2281 C 0.81717 0.63334 1.13368
 C2282 C 0.80281 0.62671 1.12694
 C2283 C 0.78556 0.61892 1.11902
 C2284 C 0.78014 0.60020 1.12331
 C2285 C 0.76319 0.59275 1.11591
 C2286 C 0.75143 0.60395 1.10411
 C2287 C 0.75708 0.62272 1.09979
 C2288 C 0.77403 0.63014 1.10721
 C2289 C 0.73324 0.59619 1.09653
 C2290 C 0.72749 0.60015 1.07770
 C2291 C 0.71020 0.59309 1.07071
 C2292 C 0.69845 0.58200 1.08242
 C2293 C 0.70408 0.57790 1.10113
 C2294 C 0.72136 0.58494 1.10815
 C2295 C 0.68049 0.57504 1.07536
 C2296 C 0.66535 0.56930 1.06958
 H2297 H 0.78899 0.59138 1.13241
 H2298 H 0.75936 0.57818 1.11930
 H2299 H 0.74822 0.63179 1.09096
 H2300 H 0.77806 0.64468 1.10386
 H2301 H 0.73642 0.60857 1.06834
 H2302 H 0.70599 0.59632 1.05619
 H2303 H 0.69505 0.56939 1.11034
 H2304 H 0.72526 0.58186 1.12278
 C2305 C 1.31706 0.86603 0.86615
 C2306 C 1.30268 0.87265 0.87286
 C2307 C 1.28541 0.88040 0.88078
 C2308 C 1.27098 0.86814 0.88707
 C2309 C 1.25408 0.87560 0.89458
 C2310 C 1.25139 0.89545 0.89587
 C2311 C 1.26602 0.90765 0.88955
 C2312 C 1.28291 0.90016 0.88206
 C2313 C 1.23333 0.90335 0.90362
 C2314 C 1.22467 0.91931 0.89506
 C2315 C 1.20746 0.92649 0.90212
 C2316 C 1.19869 0.91784 0.91783
 C2317 C 1.20725 0.90205 0.92653
 C2318 C 1.22445 0.89484 0.91949
 C2319 C 1.18076 0.92495 0.92482
 C2320 C 1.16564 0.93077 0.93058
 H2321 H 1.27273 0.85282 0.88608
 H2322 H 1.24300 0.86583 0.89906
 H2323 H 1.26447 0.92298 0.89058
 H2324 H 1.29402 0.90977 0.87727
 H2325 H 1.23101 0.92603 0.88268
 H2326 H 1.20091 0.93868 0.89523
 H2327 H 1.20059 0.89526 0.93872
 H2328 H 1.23088 0.88270 0.92655
 C2329 C 1.31731 0.36676 0.36578
 C2330 C 1.30297 0.37349 0.37247
 C2331 C 1.28576 0.38139 0.38036
 C2332 C 1.27375 0.39255 0.36897
 C2333 C 1.25683 0.39994 0.37650
 C2334 C 1.25169 0.39624 0.39555
 C2335 C 1.26391 0.38508 0.40691
 C2336 C 1.28083 0.37771 0.39936
 C2337 C 1.23353 0.40378 0.40344
 C2338 C 1.22212 0.39240 0.41540
 C2339 C 1.20486 0.39937 0.42254
 C2340 C 1.19878 0.41780 0.41785
 C2341 C 1.21008 0.42928 0.40607
 C2342 C 1.22734 0.42233 0.39890
 C2343 C 1.18081 0.42479 0.42488
 C2344 C 1.16567 0.43054 0.43064
 H2345 H 1.27739 0.39542 0.35423
 H2346 H 1.24761 0.40825 0.36731
 H2347 H 1.26047 0.38218 0.42169
 H2348 H 1.29004 0.36912 0.40831
 H2349 H 1.22636 0.37798 0.41895
 H2350 H 1.19618 0.39034 0.43159
 H2351 H 1.20552 0.44357 0.40237
 H2352 H 1.23592 0.43152 0.38993
 C2353 C 0.81711 0.86677 0.36686
 C2354 C 0.80272 0.87335 0.37357
 C2355 C 0.78542 0.88103 0.38151
 C2356 C 0.77095 0.86873 0.38762
 C2357 C 0.75403 0.87612 0.39512
 C2358 C 0.75134 0.89596 0.39659
 C2359 C 0.76601 0.90821 0.39046
 C2360 C 0.78293 0.90078 0.38297
 C2361 C 0.73325 0.90380 0.40432
 C2362 C 0.72464 0.91985 0.39586
 C2363 C 0.70741 0.92698 0.40290
 C2364 C 0.69856 0.91820 0.41849
 C2365 C 0.70706 0.90232 0.42709
 C2366 C 0.72429 0.89516 0.42007
 C2367 C 0.68060 0.92527 0.42546
 C2368 C 0.66547 0.93106 0.43119
 H2369 H 0.77270 0.85342 0.38648
 H2370 H 0.74291 0.86633 0.39946
 H2371 H 0.76447 0.92353 0.39163
 H2372 H 0.79407 0.91043 0.37832
 H2373 H 0.73105 0.92667 0.38357
 H2374 H 0.70090 0.93923 0.39609
 H2375 H 0.70034 0.89543 0.43919
 H2376 H 0.73067 0.88295 0.42704
 C2377 C 0.81688 0.36629 0.86631
 C2378 C 0.80258 0.37301 0.87311
 C2379 C 0.78541 0.38089 0.88112
 C2380 C 0.77395 0.36976 0.89308
 C2381 C 0.75708 0.37727 0.90061
 C2382 C 0.75144 0.39604 0.89625
 C2383 C 0.76313 0.40715 0.88429
 C2384 C 0.78000 0.39961 0.87679
 C2385 C 0.73333 0.40388 0.90394
 C2386 C 0.72138 0.41513 0.89238
 C2387 C 0.70416 0.42221 0.89950
 C2388 C 0.69866 0.41818 0.91826
 C2389 C 0.71049 0.40711 0.92992
 C2390 C 0.72771 0.40000 0.92283
 C2391 C 0.68074 0.42517 0.92542
 C2392 C 0.66563 0.43092 0.93127
 H2393 H 0.77797 0.35523 0.89647
 H2394 H 0.74828 0.36827 0.90955
 H2395 H 0.75931 0.42171 0.88087
 H2396 H 0.78879 0.40836 0.86758
 H2397 H 0.72517 0.41815 0.87771
 H2398 H 0.69507 0.43070 0.89033
 H2399 H 0.70637 0.40393 0.94448
 H2400 H 0.73671 0.39160 0.93215
 C2401 C 0.68243 0.86730 1.13288
 C2402 C 0.69678 0.87400 1.12619
 C2403 C 0.71403 0.88188 1.11834
 C2404 C 0.72532 0.89412 1.12935
 C2405 C 0.74227 0.90149 1.12190
 C2406 C 0.74818 0.89670 1.10332
 C2407 C 0.73667 0.88447 1.09233
 C2408 C 0.71971 0.87712 1.09981
 C2409 C 0.76640 0.90421 1.09556
 C2410 C 0.77852 0.89238 1.08478
 C2411 C 0.79584 0.89934 1.07778
 C2412 C 0.80127 0.91819 1.08142
 C2413 C 0.78928 0.93011 1.09203
 C2414 C 0.77195 0.92318 1.09906
 C2415 C 0.81928 0.92519 1.07453
 C2416 C 0.83446 0.93093 1.06885
 H2417 H 0.72109 0.89784 1.14374
 H2418 H 0.75094 0.91066 1.13081
 H2419 H 0.74070 0.88071 1.07791
 H2420 H 0.71106 0.86768 1.09116
 H2421 H 0.77478 0.87765 1.08206
 H2422 H 0.80506 0.88998 1.06965
 H2423 H 0.79334 0.94474 1.09491
 H2424 H 0.76283 0.93270 1.10710
 C2425 C 0.68263 0.36673 0.63386
 C2426 C 0.69694 0.37347 0.62714
 C2427 C 0.71413 0.38139 0.61922
 C2428 C 0.72585 0.39304 0.63041
 C2429 C 0.74275 0.40044 0.62285
 C2430 C 0.74817 0.39626 0.60398
 C2431 C 0.73623 0.38461 0.59281
 C2432 C 0.71933 0.37724 0.60040
 C2433 C 0.76631 0.40381 0.59608
 C2434 C 0.77801 0.39224 0.58457
 C2435 C 0.79526 0.39923 0.57743
 C2436 C 0.80105 0.41785 0.58166
 C2437 C 0.78948 0.42951 0.59299
 C2438 C 0.77222 0.42255 0.60016
 C2439 C 0.81902 0.42485 0.57464
 C2440 C 0.83416 0.43060 0.56887
 H2441 H 0.72199 0.39628 0.64502
 H2442 H 0.75174 0.40915 0.63189
 H2443 H 0.73989 0.38133 0.57817
 H2444 H 0.71035 0.36825 0.59160
 H2445 H 0.77399 0.37768 0.58139
 H2446 H 0.80415 0.39005 0.56874
 H2447 H 0.79382 0.44396 0.59633
 H2448 H 0.76343 0.43188 0.60877
 C2449 C 0.18298 0.86590 0.63380
 C2450 C 0.19729 0.87275 0.62717
 C2451 C 0.21448 0.88082 0.61938
 C2452 C 0.21879 0.87848 0.60003
 C2453 C 0.23566 0.88604 0.59255
 C2454 C 0.24845 0.89604 0.60435
 C2455 C 0.24392 0.89840 0.62377
 C2456 C 0.22705 0.89082 0.63121
 C2457 C 0.26654 0.90379 0.59651
 C2458 C 0.27328 0.92180 0.60226
 C2459 C 0.29049 0.92892 0.59513
 C2460 C 0.30119 0.91815 0.58218
 C2461 C 0.29457 0.90027 0.57629
 C2462 C 0.27736 0.89313 0.58339
 C2463 C 0.31910 0.92529 0.57515
 C2464 C 0.33420 0.93113 0.56936
 H2465 H 0.20914 0.87079 0.59073
 H2466 H 0.23863 0.88419 0.57750
 H2467 H 0.25358 0.90579 0.63327
 H2468 H 0.22388 0.89265 0.64623
 H2469 H 0.26517 0.93046 0.61215
 H2470 H 0.29547 0.94279 0.59977
 H2471 H 0.30277 0.89178 0.56632
 H2472 H 0.27269 0.87912 0.57888
 C2473 C 0.18237 0.36714 1.13351
 C2474 C 0.19671 0.37388 1.12685
 C2475 C 0.21394 0.38179 1.11901
 C2476 C 0.21905 0.37794 1.10010
 C2477 C 0.23599 0.38530 1.09261
 C2478 C 0.24807 0.39662 1.10396
 C2479 C 0.24274 0.40051 1.12292
 C2480 C 0.22579 0.39312 1.13039
 C2481 C 0.26626 0.40415 1.09615
 C2482 C 0.27234 0.42276 1.10055
 C2483 C 0.28965 0.42969 1.09348
 C2484 C 0.30110 0.41812 1.08194
 C2485 C 0.29514 0.39963 1.07739
 C2486 C 0.27783 0.39268 1.08443
 C2487 C 0.31911 0.42509 1.07501
 C2488 C 0.33428 0.43082 1.06932
 H2489 H 0.20995 0.36921 1.09117
 H2490 H 0.23958 0.38226 1.07790
 H2491 H 0.25184 0.40895 1.13210
 H2492 H 0.22202 0.39612 1.14507
 H2493 H 0.26364 0.43202 1.10933
 H2494 H 0.29412 0.44404 1.09707
 H2495 H 0.30394 0.39052 1.06853
 H2496 H 0.27368 0.37821 1.08100
 C2497 C 0.68326 1.13407 0.86565
 C2498 C 0.69776 1.12750 0.87214
 C2499 C 0.71521 1.11984 0.87976
 C2500 C 0.71472 1.10610 0.89423
 C2501 C 0.73172 1.09878 0.90169
 C2502 C 0.74944 1.10515 0.89475
 C2503 C 0.74976 1.11894 0.88017
 C2504 C 0.73276 1.12623 0.87274
 C2505 C 0.76753 1.09750 0.90269
 C2506 C 0.78314 1.10966 0.90598
 C2507 C 0.80024 1.10245 0.91325
 C2508 C 0.80198 1.08299 0.91733
 C2509 C 0.78652 1.07077 0.91420
 C2510 C 0.76939 1.07796 0.90694
 C2511 C 0.81972 1.07560 0.92454
 C2512 C 0.83470 1.06959 0.93046
 H2513 H 0.70121 1.10110 0.89981
 H2514 H 0.73100 1.08835 0.91306
 H2515 H 0.76316 1.12394 0.87434
 H2516 H 0.73331 1.13682 0.86150
 H2517 H 0.78207 1.12480 0.90312
 H2518 H 0.81210 1.11204 0.91567
 H2519 H 0.78775 1.05567 0.91725
 H2520 H 0.75772 1.06820 0.90435
 C2521 C 0.68284 0.63351 0.36590
 C2522 C 0.69736 0.62698 0.37240
 C2523 C 0.71483 0.61936 0.38002
 C2524 C 0.73234 0.62689 0.37414
 C2525 C 0.74936 0.61959 0.38151
 C2526 C 0.74909 0.60463 0.39489
 C2527 C 0.73140 0.59712 0.40068
 C2528 C 0.71439 0.60446 0.39329
 C2529 C 0.76719 0.59691 0.40274
 C2530 C 0.76961 0.57716 0.40538
 C2531 C 0.78677 0.56994 0.41253
 C2532 C 0.80170 0.58234 0.41716
 C2533 C 0.79939 0.60201 0.41468
 C2534 C 0.78226 0.60926 0.40752
 C2535 C 0.81948 0.57494 0.42426
 C2536 C 0.83449 0.56894 0.43011
 H2537 H 0.73285 0.63839 0.36382
 H2538 H 0.76274 0.62549 0.37656
 H2539 H 0.73071 0.58575 0.41112
 H2540 H 0.70090 0.59856 0.39797
 H2541 H 0.75836 0.56728 0.40162
 H2542 H 0.78844 0.55468 0.41434
 H2543 H 0.81085 0.61174 0.41826
 H2544 H 0.78075 0.62454 0.40591
 C2545 C 0.18325 1.13392 0.36451
 C2546 C 0.19772 1.12730 0.37104
 C2547 C 0.21510 1.11953 0.37872
 C2548 C 0.21503 1.11023 0.39639
 C2549 C 0.23197 1.10282 0.40388
 C2550 C 0.24921 1.10460 0.39376
 C2551 C 0.24910 1.11395 0.37599
 C2552 C 0.23216 1.12136 0.36854
 C2553 C 0.26725 1.09683 0.40170
 C2554 C 0.28049 1.08761 0.38977
 C2555 C 0.29760 1.08055 0.39718
 C2556 C 0.30171 1.08260 0.41661
 C2557 C 0.28860 1.09165 0.42863
 C2558 C 0.27147 1.09871 0.42124
 C2559 C 0.31949 1.07561 0.42410
 C2560 C 0.33450 1.06981 0.43018
 H2561 H 0.20189 1.10871 0.40437
 H2562 H 0.23154 1.09550 0.41748
 H2563 H 0.26217 1.11578 0.36797
 H2564 H 0.23239 1.12859 0.35488
 H2565 H 0.27755 1.08571 0.37472
 H2566 H 0.30763 1.07353 0.38776
 H2567 H 0.29167 1.09336 0.44368
 H2568 H 0.26168 1.10593 0.43075
 C2569 C 0.18264 0.63284 0.86649
 C2570 C 0.19715 0.62636 0.87303
 C2571 C 0.21463 0.61882 0.88069
 C2572 C 0.21422 0.60388 0.89392
 C2573 C 0.23124 0.59661 0.90136
 C2574 C 0.24890 0.60424 0.89566
 C2575 C 0.24915 0.61925 0.88233
 C2576 C 0.23212 0.62647 0.87491
 C2577 C 0.26701 0.59661 0.90356
 C2578 C 0.28199 0.60903 0.90847
 C2579 C 0.29913 0.60185 0.91566
 C2580 C 0.30156 0.58219 0.91804
 C2581 C 0.28673 0.56971 0.91330
 C2582 C 0.26955 0.57687 0.90612
 C2583 C 0.31936 0.57487 0.92514
 C2584 C 0.33439 0.56893 0.93099
 H2585 H 0.20074 0.59788 0.89853
 H2586 H 0.23057 0.58521 0.91176
 H2587 H 0.26251 0.62524 0.87746
 H2588 H 0.23260 0.63800 0.86462
 H2589 H 0.28038 0.62431 0.90691
 H2590 H 0.31051 0.61164 0.91932
 H2591 H 0.28848 0.55446 0.91504
 H2592 H 0.25837 0.56693 0.90226
 C2593 C 1.13293 1.31742 1.13318
 C2594 C 1.12633 1.30308 1.12638
 C2595 C 1.11859 1.28585 1.11837
 C2596 C 1.09918 1.28170 1.12037
 C2597 C 1.09174 1.26478 1.11289
 C2598 C 1.10365 1.25177 1.10330
 C2599 C 1.12313 1.25614 1.10128
 C2600 C 1.13054 1.27306 1.10878
 C2601 C 1.09587 1.23362 1.09565
 C2602 C 1.10193 1.22660 1.07784
 C2603 C 1.09487 1.20932 1.07084
 C2604 C 1.08167 1.19883 1.08152
 C2605 C 1.07547 1.20574 1.09919
 C2606 C 1.08250 1.22302 1.10622
 C2607 C 1.07474 1.18084 1.07452
 C2608 C 1.06904 1.16567 1.06878
 H2609 H 1.08980 1.29152 1.12774
 H2610 H 1.07665 1.26193 1.11447
 H2611 H 1.13272 1.24631 1.09421
 H2612 H 1.14560 1.27610 1.10722
 H2613 H 1.11202 1.23455 1.06927
 H2614 H 1.09974 1.20412 1.05713
 H2615 H 1.06532 1.19769 1.10761
 H2616 H 1.07775 1.22791 1.12008
 C2617 C 1.13446 0.81651 0.63299
 C2618 C 1.12778 0.80219 0.62620
 C2619 C 1.11988 0.78501 0.61824
 C2620 C 1.10054 0.78079 0.62070
 C2621 C 1.09294 0.76392 0.61326
 C2622 C 1.10462 0.75103 0.60324
 C2623 C 1.12404 0.75546 0.60076
 C2624 C 1.13160 0.77233 0.60822
 C2625 C 1.09666 0.73293 0.59562
 C2626 C 1.10228 0.72608 0.57760
 C2627 C 1.09503 0.70887 0.57061
 C2628 C 1.08209 0.69829 0.58151
 C2629 C 1.07633 0.70503 0.59939
 C2630 C 1.08355 0.72223 0.60641
 C2631 C 1.07496 0.68037 0.57449
 C2632 C 1.06911 0.66526 0.56872
 H2633 H 1.09133 0.79052 0.62840
 H2634 H 1.07790 0.76104 0.61520
 H2635 H 1.13345 0.74572 0.59335
 H2636 H 1.14662 0.77542 0.60630
 H2637 H 1.11216 0.73410 0.56886
 H2638 H 1.09956 0.70380 0.55673
 H2639 H 1.06638 0.69690 0.60798
 H2640 H 1.07914 0.72699 0.62043
 C2641 C 0.63397 1.31750 0.63324
 C2642 C 0.62727 1.30319 0.62646
 C2643 C 0.61939 1.28600 0.61849
 C2644 C 0.63109 1.27340 0.60837
 C2645 C 0.62355 1.25652 0.60091
 C2646 C 0.60417 1.25201 0.60350
 C2647 C 0.59250 1.26483 0.61362
 C2648 C 0.60007 1.28171 0.62105
 C2649 C 0.59624 1.23390 0.59588
 C2650 C 0.58324 1.22312 0.60672
 C2651 C 0.57607 1.20589 0.59971
 C2652 C 0.58177 1.19921 0.58179
 C2653 C 0.59459 1.20988 0.57084
 C2654 C 0.60179 1.22711 0.57782
 C2655 C 0.57471 1.18126 0.57479
 C2656 C 0.56893 1.16613 0.56903
 H2657 H 0.64609 1.27655 0.60637
 H2658 H 0.63296 1.24683 0.59342
 H2659 H 0.57748 1.26188 0.61564
 H2660 H 0.59088 1.29138 0.62884
 H2661 H 0.57889 1.22782 0.62077
 H2662 H 0.56621 1.19770 0.60834
 H2663 H 0.59908 1.20485 0.55692
 H2664 H 0.61158 1.23520 0.56903
 C2665 C 0.63274 0.81778 1.13289
 C2666 C 0.62597 0.80344 1.12624
 C2667 C 0.61799 0.78621 1.11847
 C2668 C 0.62149 0.78122 1.09946
 C2669 C 0.61405 0.76429 1.09202
 C2670 C 0.60299 0.75211 1.10353
 C2671 C 0.59946 0.75732 1.12259
 C2672 C 0.60693 0.77426 1.13000
 C2673 C 0.59538 0.73392 1.09578
 C2674 C 0.57689 0.72773 1.10053
 C2675 C 0.56991 0.71042 1.09354
 C2676 C 0.58129 0.69907 1.08170
 C2677 C 0.59964 0.70515 1.07679
 C2678 C 0.60666 0.72245 1.08376
 C2679 C 0.57426 0.68105 1.07484
 C2680 C 0.56852 0.66586 1.06919
 H2681 H 0.63001 0.79040 1.09040
 H2682 H 0.61681 0.76079 1.07723
 H2683 H 0.59123 0.74813 1.13188
 H2684 H 0.60419 0.77795 1.14475
 H2685 H 0.56778 0.73635 1.10955
 H2686 H 0.55566 0.70586 1.09740
 H2687 H 0.60860 0.69643 1.06770
 H2688 H 0.62103 0.72669 1.08005
 C2689 C 0.86563 1.31713 0.86667
 C2690 C 0.87239 1.30282 0.87339
 C2691 C 0.88035 1.28562 0.88129
 C2692 C 0.89890 1.28004 0.87648
 C2693 C 0.90650 1.26314 0.88385
 C2694 C 0.89563 1.25158 0.89614
 C2695 C 0.87703 1.25738 0.90098
 C2696 C 0.86946 1.27428 0.89358
 C2697 C 0.90354 1.23343 0.90370
 C2698 C 0.90013 1.22792 0.92271
 C2699 C 0.90731 1.21067 0.92969
 C2700 C 0.91798 1.19871 0.91780
 C2701 C 0.92154 1.20411 0.89891
 C2702 C 0.91438 1.22135 0.89190
 C2703 C 0.92503 1.18078 0.92486
 C2704 C 0.93082 1.16566 0.93066
 H2705 H 0.90747 1.28873 0.86700
 H2706 H 0.92094 1.25919 0.88006
 H2707 H 0.86821 1.24868 0.91019
 H2708 H 0.85505 1.27843 0.89733
 H2709 H 0.89204 1.23701 0.93221
 H2710 H 0.90450 1.20664 0.94435
 H2711 H 0.92971 1.19492 0.88956
 H2712 H 0.91704 1.22506 0.87714
 C2713 C 0.86684 0.81731 0.36697
 C2714 C 0.87354 0.80296 0.37367
 C2715 C 0.88142 0.78572 0.38154
 C2716 C 0.87049 0.77445 0.39386
 C2717 C 0.87797 0.75749 0.40121
 C2718 C 0.89651 0.75156 0.39630
 C2719 C 0.90742 0.76306 0.38399
 C2720 C 0.89991 0.78002 0.37667
 C2721 C 0.90430 0.73335 0.40380
 C2722 C 0.91499 0.72120 0.39192
 C2723 C 0.92202 0.70388 0.39886
 C2724 C 0.91849 0.69847 0.41775
 C2725 C 0.90798 0.71049 0.42972
 C2726 C 0.90093 0.72782 0.42280
 C2727 C 0.92539 0.68045 0.42473
 C2728 C 0.93106 0.66526 0.43045
 H2729 H 0.85613 0.77869 0.39766
 H2730 H 0.86912 0.74883 0.41044
 H2731 H 0.92181 0.75901 0.38014
 H2732 H 0.90851 0.78866 0.36716
 H2733 H 0.91761 0.72492 0.37716
 H2734 H 0.93007 0.69463 0.38945
 H2735 H 0.90519 0.70646 0.44438
 H2736 H 0.89296 0.73697 0.43236
 C2737 C 0.36603 1.31759 0.36644
 C2738 C 0.37275 1.30328 0.37320
 C2739 C 0.38067 1.28609 0.38115
 C2740 C 0.36959 1.27455 0.39308
 C2741 C 0.37714 1.25766 0.40051
 C2742 C 0.39590 1.25207 0.39609
 C2743 C 0.40696 1.26383 0.38416
 C2744 C 0.39938 1.28072 0.37675
 C2745 C 0.40378 1.23392 0.40367
 C2746 C 0.41499 1.22203 0.39201
 C2747 C 0.42211 1.20478 0.39903
 C2748 C 0.41815 1.19918 0.41777
 C2749 C 0.40711 1.21094 0.42953
 C2750 C 0.39997 1.22821 0.42254
 C2751 C 0.42515 1.18122 0.42482
 C2752 C 0.43089 1.16608 0.43061
 H2753 H 0.35506 1.27854 0.39651
 H2754 H 0.36818 1.24880 0.40943
 H2755 H 0.42152 1.26004 0.38068
 H2756 H 0.40810 1.28957 0.36755
 H2757 H 0.41796 1.22590 0.37735
 H2758 H 0.43057 1.19574 0.38978
 H2759 H 0.40399 1.20675 0.44407
 H2760 H 0.39159 1.23715 0.43193
 C2761 C 0.36590 0.81697 0.86671
 C2762 C 0.37261 0.80265 0.87346
 C2763 C 0.38049 0.78544 0.88141
 C2764 C 0.36932 0.77386 0.89322
 C2765 C 0.37683 0.75696 0.90067
 C2766 C 0.39563 0.75140 0.89639
 C2767 C 0.40678 0.76320 0.88458
 C2768 C 0.39924 0.78010 0.87715
 C2769 C 0.40348 0.73325 0.90401
 C2770 C 0.41481 0.72140 0.89243
 C2771 C 0.42189 0.70415 0.89948
 C2772 C 0.41778 0.69851 0.91818
 C2773 C 0.40662 0.71023 0.92986
 C2774 C 0.39951 0.72749 0.92283
 C2775 C 0.42476 0.68056 0.92528
 C2776 C 0.43051 0.66543 0.93109
 H2777 H 0.35477 0.77782 0.89655
 H2778 H 0.36781 0.74806 0.90950
 H2779 H 0.42137 0.75943 0.88122
 H2780 H 0.40802 0.78899 0.86805
 H2781 H 0.41790 0.72530 0.87781
 H2782 H 0.43046 0.69514 0.89030
 H2783 H 0.40337 0.70601 0.94437
 H2784 H 0.39103 0.73641 0.93217
 C2785 C 1.13308 0.68246 0.86640
 C2786 C 1.12662 0.69700 0.87290
 C2787 C 1.11911 0.71451 0.88052
 C2788 C 1.12663 0.73199 0.87453
 C2789 C 1.11943 0.74904 0.88191
 C2790 C 1.10459 0.74884 0.89542
 C2791 C 1.09710 0.73118 0.90134
 C2792 C 1.10433 0.71413 0.89393
 C2793 C 1.09700 0.76698 0.90328
 C2794 C 1.07727 0.76946 0.90605
 C2795 C 1.07015 0.78667 0.91320
 C2796 C 1.08263 0.80158 0.91769
 C2797 C 1.10226 0.79921 0.91508
 C2798 C 1.10941 0.78204 0.90793
 C2799 C 1.07533 0.81940 0.92476
 C2800 C 1.06940 0.83445 0.93058
 H2801 H 1.13803 0.73244 0.86411
 H2802 H 1.12532 0.76240 0.87688
 H2803 H 1.08583 0.73055 0.91188
 H2804 H 1.09844 0.70067 0.89871
 H2805 H 1.06734 0.75823 0.90239
 H2806 H 1.05491 0.78838 0.91510
 H2807 H 1.11205 0.81065 0.91856
 H2808 H 1.12468 0.78048 0.90621
 C2809 C 1.13433 0.18288 0.36564
 C2810 C 1.12771 0.19721 0.37246
 C2811 C 1.11998 0.21444 0.38049
 C2812 C 1.10029 0.21633 0.38318
 C2813 C 1.09279 0.23319 0.39076
 C2814 C 1.10491 0.24838 0.39576
 C2815 C 1.12469 0.24630 0.39305
 C2816 C 1.13215 0.22944 0.38546
 C2817 C 1.09699 0.26641 0.40358
 C2818 C 1.10632 0.27601 0.41853
 C2819 C 1.09908 0.29319 0.42561
 C2820 C 1.08243 0.30099 0.41786
 C2821 C 1.07296 0.29149 0.40308
 C2822 C 1.08017 0.27430 0.39599
 C2823 C 1.07525 0.31890 0.42485
 C2824 C 1.06939 0.33400 0.43061
 H2825 H 1.09074 0.20478 0.37941
 H2826 H 1.07754 0.23427 0.39289
 H2827 H 1.13436 0.25783 0.39650
 H2828 H 1.14740 0.22816 0.38337
 H2829 H 1.11915 0.27017 0.42485
 H2830 H 1.10650 0.30041 0.43708
 H2831 H 1.06009 0.29745 0.39693
 H2832 H 1.07279 0.26739 0.38432
 C2833 C 0.63325 0.68310 0.36605
 C2834 C 0.62677 0.69761 0.37263
 C2835 C 0.61923 0.71507 0.38034
 C2836 C 0.62712 0.73257 0.37490
 C2837 C 0.61989 0.74957 0.38237
 C2838 C 0.60464 0.74930 0.39542
 C2839 C 0.59677 0.73163 0.40078
 C2840 C 0.60404 0.71463 0.39329
 C2841 C 0.59700 0.76739 0.40337
 C2842 C 0.57723 0.77004 0.40561
 C2843 C 0.57008 0.78719 0.41284
 C2844 C 0.58256 0.80190 0.41795
 C2845 C 0.60224 0.79936 0.41588
 C2846 C 0.60943 0.78224 0.40864
 C2847 C 0.57523 0.81969 0.42509
 C2848 C 0.56927 0.83471 0.43096
 H2849 H 0.63884 0.73307 0.36484
 H2850 H 0.62607 0.76295 0.37776
 H2851 H 0.58518 0.73094 0.41096
 H2852 H 0.59786 0.70115 0.39763
 H2853 H 0.56729 0.75897 0.40147
 H2854 H 0.55481 0.78904 0.41433
 H2855 H 0.61204 0.81064 0.41983
 H2856 H 0.62472 0.78054 0.40733
 C2857 C 0.63461 0.18331 0.86655
 C2858 C 0.62811 0.19777 0.87320
 C2859 C 0.62051 0.21517 0.88098
 C2860 C 0.60439 0.21475 0.89275
 C2861 C 0.59701 0.23170 0.90024
 C2862 C 0.60570 0.24931 0.89607
 C2863 C 0.62190 0.24956 0.88422
 C2864 C 0.62923 0.23261 0.87674
 C2865 C 0.59790 0.26735 0.90397
 C2866 C 0.61024 0.28171 0.91063
 C2867 C 0.60293 0.29881 0.91779
 C2868 C 0.58321 0.30181 0.91841
 C2869 C 0.57081 0.28758 0.91192
 C2870 C 0.57809 0.27045 0.90477
 C2871 C 0.57578 0.31958 0.92546
 C2872 C 0.56974 0.33459 0.93128
 H2873 H 0.59755 0.20132 0.89616
 H2874 H 0.58467 0.23101 0.90950
 H2875 H 0.62874 0.26290 0.88052
 H2876 H 0.64167 0.23311 0.86759
 H2877 H 0.62554 0.27965 0.91045
 H2878 H 0.61265 0.30971 0.92281
 H2879 H 0.55552 0.28978 0.91228
 H2880 H 0.56824 0.25977 0.89954
 C2881 C 0.86696 0.68273 1.13374
 C2882 C 0.87372 0.69704 1.12705
 C2883 C 0.88169 0.71424 1.11918
 C2884 C 0.87870 0.71883 1.09999
 C2885 C 0.88614 0.73573 1.09245
 C2886 C 0.89669 0.74827 1.10404
 C2887 C 0.89969 0.74346 1.12330
 C2888 C 0.89223 0.72657 1.13081
 C2889 C 0.90431 0.76639 1.09616
 C2890 C 0.92259 0.77288 1.10134
 C2891 C 0.92959 0.79013 1.09420
 C2892 C 0.91845 0.80112 1.08181
 C2893 C 0.90031 0.79474 1.07648
 C2894 C 0.89328 0.77749 1.08359
 C2895 C 0.92548 0.81908 1.07481
 C2896 C 0.93124 0.83422 1.06906
 H2897 H 0.87058 0.70937 1.09085
 H2898 H 0.88378 0.73891 1.07751
 H2899 H 0.90752 0.75293 1.13265
 H2900 H 0.89456 0.72319 1.14571
 H2901 H 0.93152 0.76454 1.11079
 H2902 H 0.94367 0.79492 1.09839
 H2903 H 0.89154 0.80317 1.06695
 H2904 H 0.87907 0.77302 1.07953
 C2905 C 0.86523 0.18314 0.63472
 C2906 C 0.87178 0.19764 0.62820
 C2907 C 0.87945 0.21508 0.62055
 C2908 C 0.87329 0.23265 0.62773
 C2909 C 0.88061 0.24963 0.62028
 C2910 C 0.89422 0.24927 0.60553
 C2911 C 0.90036 0.23152 0.59844
 C2912 C 0.89300 0.21454 0.60590
 C2913 C 0.90193 0.26733 0.59760
 C2914 C 0.92142 0.26904 0.59312
 C2915 C 0.92868 0.28615 0.58585
 C2916 C 0.91656 0.30174 0.58294
 C2917 C 0.89715 0.30015 0.58726
 C2918 C 0.88987 0.28308 0.59453
 C2919 C 0.92401 0.31944 0.57569
 C2920 C 0.93008 0.33438 0.56972
 H2921 H 0.86284 0.23323 0.63910
 H2922 H 0.87580 0.26304 0.62623
 H2923 H 0.91064 0.23077 0.58694
 H2924 H 0.89783 0.20101 0.60020
 H2925 H 0.93111 0.25726 0.59553
 H2926 H 0.94374 0.28724 0.58261
 H2927 H 0.88763 0.31212 0.58501
 H2928 H 0.87476 0.28214 0.59758
 C2929 C 0.36607 0.68334 0.63406
 C2930 C 0.37276 0.69780 0.62758
 C2931 C 0.38063 0.71517 0.62001
 C2932 C 0.38180 0.73142 0.63153
 C2933 C 0.38930 0.74837 0.62419
 C2934 C 0.39573 0.74929 0.60520
 C2935 C 0.39452 0.73286 0.59373
 C2936 C 0.38702 0.71591 0.60111
 C2937 C 0.40354 0.76736 0.59738
 C2938 C 0.39891 0.77329 0.57876
 C2939 C 0.40599 0.79048 0.57155
 C2940 C 0.41781 0.80195 0.58282
 C2941 C 0.42261 0.79612 0.60130
 C2942 C 0.41553 0.77895 0.60855
 C2943 C 0.42479 0.81983 0.57556
 C2944 C 0.43055 0.83491 0.56965
 H2945 H 0.37682 0.73102 0.64616
 H2946 H 0.38979 0.76084 0.63329
 H2947 H 0.39956 0.73306 0.57914
 H2948 H 0.38622 0.70340 0.59208
 H2949 H 0.38953 0.76481 0.56990
 H2950 H 0.40213 0.79490 0.55725
 H2951 H 0.43178 0.80488 0.61014
 H2952 H 0.41957 0.77466 0.62283
 C2953 C 0.36705 0.18254 1.13395
 C2954 C 0.37385 0.19684 1.12727
 C2955 C 0.38183 0.21403 1.11941
 C2956 C 0.37766 0.21934 1.10062
 C2957 C 0.38508 0.23626 1.09311
 C2958 C 0.39677 0.24810 1.10433
 C2959 C 0.40098 0.24257 1.12316
 C2960 C 0.39354 0.22565 1.13064
 C2961 C 0.40434 0.26628 1.09651
 C2962 C 0.42311 0.27211 1.10056
 C2963 C 0.43007 0.28940 1.09348
 C2964 C 0.41840 0.30108 1.08226
 C2965 C 0.39975 0.29536 1.07806
 C2966 C 0.39275 0.27808 1.08512
 C2967 C 0.42542 0.31906 1.07530
 C2968 C 0.43116 0.33421 1.06957
 H2969 H 0.36864 0.21043 1.09180
 H2970 H 0.38178 0.24000 1.07849
 H2971 H 0.40972 0.25150 1.13223
 H2972 H 0.39679 0.22171 1.14523
 H2973 H 0.43244 0.26324 1.10908
 H2974 H 0.44455 0.29368 1.09678
 H2975 H 0.39056 0.30433 1.06946
 H2976 H 0.37817 0.27412 1.08197
 C2977 C 1.13252 1.13351 0.68230
 C2978 C 1.12579 1.12667 0.69656
 C2979 C 1.11795 1.11861 0.71373
 C2980 C 1.09932 1.12309 0.71930
 C2981 C 1.09186 1.11560 0.73621
 C2982 C 1.10296 1.10351 0.74777
 C2983 C 1.12163 1.09899 0.74197
 C2984 C 1.12906 1.10651 0.72506
 C2985 C 1.09522 1.09588 0.76596
 C2986 C 1.09897 1.07696 0.77153
 C2987 C 1.09199 1.06994 0.78885
 C2988 C 1.08120 1.08171 0.80081
 C2989 C 1.07729 1.10050 0.79535
 C2990 C 1.08424 1.10756 0.77804
 C2991 C 1.07436 1.07463 0.81881
 C2992 C 1.06873 1.06885 0.83400
 H2993 H 1.09059 1.13242 0.71061
 H2994 H 1.07736 1.11915 0.74017
 H2995 H 1.13061 1.08994 0.75068
 H2996 H 1.14353 1.10301 0.72092
 H2997 H 1.10717 1.06756 0.76243
 H2998 H 1.09507 1.05535 0.79293
 H2999 H 1.06901 1.10976 0.80454
 H3000 H 1.08133 1.12225 0.77429
 C3001 C 1.13361 0.63412 0.18260
 C3002 C 1.12690 0.62723 0.19686
 C3003 C 1.11904 0.61912 0.21400
 C3004 C 1.10011 0.62284 0.21909
 C3005 C 1.09259 0.61526 0.23594
 C3006 C 1.10394 0.60385 0.24795
 C3007 C 1.12293 0.60010 0.24263
 C3008 C 1.13041 0.60770 0.22578
 C3009 C 1.09612 0.59610 0.26605
 C3010 C 1.10058 0.57744 0.27198
 C3011 C 1.09349 0.57031 0.28920
 C3012 C 1.08185 0.58171 0.30073
 C3013 C 1.07724 0.60024 0.29492
 C3014 C 1.08430 0.60739 0.27770
 C3015 C 1.07488 0.57454 0.31866
 C3016 C 1.06913 0.56868 0.33378
 H3017 H 1.09117 0.63164 0.21006
 H3018 H 1.07787 0.61821 0.23951
 H3019 H 1.13211 0.59159 0.25168
 H3020 H 1.14511 0.60479 0.22202
 H3021 H 1.10944 0.56831 0.26322
 H3022 H 1.09713 0.55593 0.29356
 H3023 H 1.06830 0.60921 0.30377
 H3024 H 1.08081 0.62189 0.27367
 C3025 C 0.63314 1.13372 0.18277
 C3026 C 0.62627 1.12689 0.19698
 C3027 C 0.61823 1.11890 0.21408
 C3028 C 0.62294 1.10031 0.21964
 C3029 C 0.61550 1.09272 0.23651
 C3030 C 0.60322 1.10363 0.24806
 C3031 C 0.59847 1.12225 0.24225
 C3032 C 0.60594 1.12982 0.22539
 C3033 C 0.59566 1.09576 0.26621
 C3034 C 0.57668 1.09924 0.27174
 C3035 C 0.56972 1.09216 0.28903
 C3036 C 0.58160 1.08151 0.30102
 C3037 C 0.60046 1.07787 0.29561
 C3038 C 0.60745 1.08493 0.27832
 C3039 C 0.57458 1.07460 0.31903
 C3040 C 0.56883 1.06892 0.33421
 H3041 H 0.63242 1.09173 0.21097
 H3042 H 0.61923 1.07826 0.24047
 H3043 H 0.58927 1.13110 0.25095
 H3044 H 0.60226 1.14425 0.22125
 H3045 H 0.56719 1.10733 0.26262
 H3046 H 0.55508 1.09503 0.29308
 H3047 H 0.60981 1.06972 0.30483
 H3048 H 0.62219 1.08223 0.27461
 C3049 C 0.63315 0.63291 0.68297
 C3050 C 0.62638 0.62605 0.69721
 C3051 C 0.61844 0.61802 0.71434
 C3052 C 0.59965 0.62220 0.71960
 C3053 C 0.59210 0.61477 0.73649
 C3054 C 0.60326 0.60304 0.74837
 C3055 C 0.62210 0.59882 0.74287
 C3056 C 0.62962 0.60627 0.72598
 C3057 C 0.59542 0.59549 0.76654
 C3058 C 0.59947 0.57672 0.77241
 C3059 C 0.59240 0.56978 0.78972
 C3060 C 0.58120 0.58148 0.80138
 C3061 C 0.57699 0.60012 0.79562
 C3062 C 0.58404 0.60709 0.77832
 C3063 C 0.57428 0.57450 0.81939
 C3064 C 0.56861 0.56878 0.83458
 H3065 H 0.59087 0.63126 0.71068
 H3066 H 0.57748 0.61808 0.74021
 H3067 H 0.63114 0.59005 0.75183
 H3068 H 0.64422 0.60301 0.72208
 H3069 H 0.60799 0.56737 0.76356
 H3070 H 0.59571 0.55532 0.79404
 H3071 H 0.56840 0.60933 0.80458
 H3072 H 0.58089 0.62168 0.77433
 C3073 C 0.86696 0.86654 0.68251
 C3074 C 0.87373 0.87322 0.69684
 C3075 C 0.88167 0.88110 0.71404
 C3076 C 0.87733 0.89982 0.71941
 C3077 C 0.88473 0.90736 0.73633
 C3078 C 0.89658 0.89623 0.74811
 C3079 C 0.90095 0.87746 0.74252
 C3080 C 0.89353 0.86996 0.72560
 C3081 C 0.90415 0.90407 0.76628
 C3082 C 0.92297 0.90018 0.77204
 C3083 C 0.92994 0.90728 0.78933
 C3084 C 0.91821 0.91836 0.80107
 C3085 C 0.89951 0.92240 0.79542
 C3086 C 0.89251 0.91533 0.77815
 C3087 C 0.92524 0.92532 0.81905
 C3088 C 0.93100 0.93104 0.83421
 H3089 H 0.86819 0.90858 0.71055
 H3090 H 0.88130 0.92193 0.74012
 H3091 H 0.90982 0.86845 0.75140
 H3092 H 0.89692 0.85542 0.72161
 H3093 H 0.93235 0.89177 0.76311
 H3094 H 0.94446 0.90409 0.79355
 H3095 H 0.89028 0.93090 0.80445
 H3096 H 0.87788 0.91836 0.77424
 C3097 C 0.86714 0.36615 0.18214
 C3098 C 0.87381 0.37289 0.19647
 C3099 C 0.88163 0.38085 0.21370
 C3100 C 0.90035 0.37656 0.21913
 C3101 C 0.90781 0.38398 0.23607
 C3102 C 0.89662 0.39581 0.24781
 C3103 C 0.87785 0.40013 0.24216
 C3104 C 0.87042 0.39268 0.22522
 C3105 C 0.90438 0.40341 0.26601
 C3106 C 0.90040 0.42223 0.27175
 C3107 C 0.90743 0.42923 0.28905
 C3108 C 0.91850 0.41753 0.30084
 C3109 C 0.92263 0.39883 0.29522
 C3110 C 0.91563 0.39180 0.27792
 C3111 C 0.92539 0.42458 0.31884
 C3112 C 0.93106 0.43035 0.33401
 H3113 H 0.90916 0.36744 0.21030
 H3114 H 0.92237 0.38059 0.23991
 H3115 H 0.86880 0.40897 0.25101
 H3116 H 0.85589 0.39603 0.22119
 H3117 H 0.89199 0.43158 0.26278
 H3118 H 0.90418 0.44373 0.29326
 H3119 H 0.93112 0.38963 0.30427
 H3120 H 0.91872 0.37718 0.27403
 C3121 C 0.36695 0.86635 0.18278
 C3122 C 0.37361 0.87313 0.19711
 C3123 C 0.38141 0.88114 0.21432
 C3124 C 0.40025 0.87720 0.21957
 C3125 C 0.40771 0.88469 0.23649
 C3126 C 0.39639 0.89624 0.24838
 C3127 C 0.37749 0.90021 0.24290
 C3128 C 0.37007 0.89270 0.22599
 C3129 C 0.40415 0.90391 0.26654
 C3130 C 0.39986 0.92262 0.27240
 C3131 C 0.40689 0.92968 0.28968
 C3132 C 0.41829 0.91815 0.30132
 C3133 C 0.42274 0.89956 0.29557
 C3134 C 0.41573 0.89248 0.27830
 C3135 C 0.42520 0.92525 0.31930
 C3136 C 0.43089 0.93106 0.33445
 H3137 H 0.40916 0.86829 0.21062
 H3138 H 0.42237 0.88157 0.24019
 H3139 H 0.36834 0.90884 0.25186
 H3140 H 0.35544 0.89578 0.22209
 H3141 H 0.39118 0.93185 0.26356
 H3142 H 0.40339 0.94410 0.29399
 H3143 H 0.43149 0.89049 0.30452
 H3144 H 0.41908 0.87794 0.27432
 C3145 C 0.36666 0.36621 0.68306
 C3146 C 0.37335 0.37295 0.69739
 C3147 C 0.38120 0.38089 0.71461
 C3148 C 0.40002 0.37684 0.71986
 C3149 C 0.40753 0.38426 0.73678
 C3150 C 0.39628 0.39586 0.74869
 C3151 C 0.37740 0.39994 0.74322
 C3152 C 0.36993 0.39249 0.72631
 C3153 C 0.40410 0.40348 0.76685
 C3154 C 0.39991 0.42222 0.77271
 C3155 C 0.40700 0.42924 0.78998
 C3156 C 0.41836 0.41765 0.80161
 C3157 C 0.42269 0.39904 0.79586
 C3158 C 0.41563 0.39199 0.77860
 C3159 C 0.42531 0.42473 0.81958
 C3160 C 0.43103 0.43053 0.83472
 H3161 H 0.40888 0.36790 0.71089
 H3162 H 0.42217 0.38106 0.74047
 H3163 H 0.36830 0.40861 0.75220
 H3164 H 0.35531 0.39566 0.72242
 H3165 H 0.39128 0.43149 0.76388
 H3166 H 0.40359 0.44368 0.79429
 H3167 H 0.43141 0.38992 0.80480
 H3168 H 0.41890 0.37743 0.77461
 C3169 C 1.13421 0.86556 1.31673
 C3170 C 1.12743 0.87232 1.30244
 C3171 C 1.11943 0.88026 1.28528
 C3172 C 1.12309 0.89925 1.28036
 C3173 C 1.11561 0.90686 1.26350
 C3174 C 1.10436 0.89553 1.25133
 C3175 C 1.10069 0.87648 1.25647
 C3176 C 1.10819 0.86891 1.27333
 C3177 C 1.09670 0.90346 1.23323
 C3178 C 1.07811 0.89894 1.22715
 C3179 C 1.07106 0.90612 1.20993
 C3180 C 1.08247 0.91792 1.19857
 C3181 C 1.10092 0.92259 1.20454
 C3182 C 1.10800 0.91543 1.22175
 C3183 C 1.07537 0.92497 1.18064
 C3184 C 1.06955 0.93075 1.16553
 H3185 H 1.13175 0.90818 1.28953
 H3186 H 1.11849 0.92163 1.26006
 H3187 H 1.09231 0.86732 1.24728
 H3188 H 1.10533 0.85416 1.27696
 H3189 H 1.06898 0.88996 1.23578
 H3190 H 1.05674 0.90244 1.20546
 H3191 H 1.10990 0.93165 1.19581
 H3192 H 1.12244 0.91897 1.22591
 C3193 C 1.13389 0.36592 0.81687
 C3194 C 1.12708 0.37257 0.80254
 C3195 C 1.11906 0.38038 0.78533
 C3196 C 1.12144 0.39973 0.78103
 C3197 C 1.11393 0.40724 0.76414
 C3198 C 1.10391 0.39547 0.75133
 C3199 C 1.10150 0.37607 0.75585
 C3200 C 1.10904 0.36859 0.77273
 C3201 C 1.09621 0.40334 0.73322
 C3202 C 1.07820 0.39764 0.72644
 C3203 C 1.07113 0.40479 0.70921
 C3204 C 1.08195 0.41772 0.69853
 C3205 C 1.09983 0.42356 0.70519
 C3206 C 1.10692 0.41644 0.72242
 C3207 C 1.07487 0.42475 0.68058
 C3208 C 1.06906 0.43052 0.66546
 H3209 H 1.12914 0.40899 0.79070
 H3210 H 1.11581 0.42228 0.76119
 H3211 H 1.09410 0.36659 0.74617
 H3212 H 1.10717 0.35358 0.77589
 H3213 H 1.06951 0.38777 0.73453
 H3214 H 1.05726 0.40019 0.70419
 H3215 H 1.10836 0.43350 0.69699
 H3216 H 1.12093 0.42091 0.72711
 C3217 C 0.63314 0.86680 0.81749
 C3218 C 0.62661 0.87345 0.80303
 C3219 C 0.61903 0.88131 0.78565
 C3220 C 0.63068 0.88289 0.76952
 C3221 C 0.62336 0.89041 0.75257
 C3222 C 0.60425 0.89646 0.75151
 C3223 C 0.59265 0.89483 0.76782
 C3224 C 0.60001 0.88731 0.78478
 C3225 C 0.59646 0.90431 0.73344
 C3226 C 0.57802 0.89936 0.72726
 C3227 C 0.57086 0.90647 0.71005
 C3228 C 0.58201 0.91862 0.69881
 C3229 C 0.60031 0.92374 0.70489
 C3230 C 0.60750 0.91664 0.72209
 C3231 C 0.57483 0.92561 0.68090
 C3232 C 0.56897 0.93137 0.66579
 H3233 H 0.64540 0.87823 0.77003
 H3234 H 0.63257 0.89122 0.74020
 H3235 H 0.57796 0.89956 0.76752
 H3236 H 0.59088 0.88619 0.79719
 H3237 H 0.56927 0.88972 0.73556
 H3238 H 0.55670 0.90236 0.70544
 H3239 H 0.60905 0.93317 0.69632
 H3240 H 0.62164 0.92092 0.72657
 C3241 C 0.63353 0.36562 1.31750
 C3242 C 0.62677 0.37237 1.30319
 C3243 C 0.61881 0.38030 1.28601
 C3244 C 0.62151 0.39960 1.28168
 C3245 C 0.61404 0.40722 1.26482
 C3246 C 0.60376 0.39561 1.25207
 C3247 C 0.60105 0.37625 1.25662
 C3248 C 0.60854 0.36866 1.27348
 C3249 C 0.59609 0.40359 1.23399
 C3250 C 0.57796 0.39817 1.22732
 C3251 C 0.57093 0.40539 1.21010
 C3252 C 0.58191 0.41812 1.19934
 C3253 C 0.59990 0.42369 1.20590
 C3254 C 0.60696 0.41650 1.22312
 C3255 C 0.57486 0.42519 1.18140
 C3256 C 0.56907 0.43098 1.16628
 H3257 H 0.62942 0.40874 1.29130
 H3258 H 0.61617 0.42222 1.26184
 H3259 H 0.59344 0.36689 1.24699
 H3260 H 0.60643 0.35369 1.27666
 H3261 H 0.56915 0.38846 1.23548
 H3262 H 0.55696 0.40100 1.20516
 H3263 H 0.60855 0.43347 1.19764
 H3264 H 0.62107 0.42075 1.22773
 C3265 C 0.86765 1.13169 1.31814
 C3266 C 0.87431 1.12496 1.30379
 C3267 C 0.88216 1.11710 1.28654
 C3268 C 0.90056 1.12214 1.28070
 C3269 C 0.90802 1.11485 1.26370
 C3270 C 0.89715 1.10241 1.25231
 C3271 C 0.87872 1.09732 1.25838
 C3272 C 0.87128 1.10464 1.27538
 C3273 C 0.90489 1.09499 1.23404
 C3274 C 0.90168 1.07595 1.22856
 C3275 C 0.90867 1.06910 1.21118
 C3276 C 0.91896 1.08118 1.19907
 C3277 C 0.92232 1.10010 1.20443
 C3278 C 0.91534 1.10697 1.22180
 C3279 C 0.92582 1.07426 1.18101
 C3280 C 0.93147 1.06860 1.16578
 H3281 H 0.90911 1.13176 1.28925
 H3282 H 0.92235 1.11884 1.25954
 H3283 H 0.86990 1.08798 1.24981
 H3284 H 0.85699 1.10070 1.27973
 H3285 H 0.89388 1.06631 1.23777
 H3286 H 0.90602 1.05442 1.20717
 H3287 H 0.93020 1.10959 1.19511
 H3288 H 0.91783 1.12176 1.22548
 C3289 C 0.86656 0.63277 0.81714
 C3290 C 0.87320 0.62600 0.80280
 C3291 C 0.88100 0.61804 0.78556
 C3292 C 0.90026 0.62075 0.78110
 C3293 C 0.90775 0.61334 0.76417
 C3294 C 0.89606 0.60310 0.75147
 C3295 C 0.87674 0.60036 0.75615
 C3296 C 0.86928 0.60780 0.77308
 C3297 C 0.90389 0.59551 0.73330
 C3298 C 0.89844 0.57740 0.72659
 C3299 C 0.90555 0.57044 0.70930
 C3300 C 0.91818 0.58148 0.69849
 C3301 C 0.92378 0.59946 0.70509
 C3302 C 0.91670 0.60644 0.72238
 C3303 C 0.92515 0.57450 0.68049
 C3304 C 0.93088 0.56877 0.66533
 H3305 H 0.90947 0.62863 0.79068
 H3306 H 0.92273 0.61547 0.76108
 H3307 H 0.86731 0.59278 0.74656
 H3308 H 0.85433 0.60569 0.77637
 H3309 H 0.88880 0.56855 0.73479
 H3310 H 0.90114 0.55649 0.70434
 H3311 H 0.93350 0.60816 0.69679
 H3312 H 0.92097 0.62054 0.72701
 C3313 C 0.36665 1.13424 0.81725
 C3314 C 0.37329 1.12749 0.80290
 C3315 C 0.38105 1.11952 0.78565
 C3316 C 0.36928 1.10929 0.77320
 C3317 C 0.37670 1.10178 0.75629
 C3318 C 0.39602 1.10444 0.75158
 C3319 C 0.40776 1.11468 0.76424
 C3320 C 0.40031 1.12216 0.78116
 C3321 C 0.40382 1.09676 0.73344
 C3322 C 0.41666 1.10760 0.72246
 C3323 C 0.42370 1.10052 0.70519
 C3324 C 0.41803 1.08253 0.69868
 C3325 C 0.40537 1.07158 0.70954
 C3326 C 0.39830 1.07863 0.72681
 C3327 C 0.42497 1.07546 0.68071
 C3328 C 0.43069 1.06966 0.66556
 H3329 H 0.35433 1.10722 0.77651
 H3330 H 0.36724 1.09420 0.74673
 H3331 H 0.42274 1.11676 0.76113
 H3332 H 0.40956 1.13003 0.79071
 H3333 H 0.42098 1.12170 0.72704
 H3334 H 0.43343 1.10915 0.69685
 H3335 H 0.40092 1.05762 0.70464
 H3336 H 0.38864 1.06985 0.73505
 C3337 C 0.36664 0.63415 1.31764
 C3338 C 0.37325 0.62737 1.30329
 C3339 C 0.38096 0.61936 1.28604
 C3340 C 0.40045 0.62096 1.28206
 C3341 C 0.40787 0.61342 1.26514
 C3342 C 0.39586 0.60416 1.25198
 C3343 C 0.37631 0.60255 1.25618
 C3344 C 0.36892 0.61011 1.27308
 C3345 C 0.40364 0.59641 1.23386
 C3346 C 0.39723 0.57879 1.22670
 C3347 C 0.40430 0.57170 1.20945
 C3348 C 0.41785 0.58209 1.19914
 C3349 C 0.42441 0.59957 1.20619
 C3350 C 0.41737 0.60669 1.22344
 C3351 C 0.42481 0.57500 1.18118
 C3352 C 0.43054 0.56919 1.16604
 H3353 H 0.40990 0.62806 1.29201
 H3354 H 0.42301 0.61468 1.26244
 H3355 H 0.36665 0.59575 1.24622
 H3356 H 0.35380 0.60886 1.27599
 H3357 H 0.38686 0.57043 1.23450
 H3358 H 0.39915 0.55813 1.20413
 H3359 H 0.43484 0.60777 1.19828
 H3360 H 0.42240 0.62041 1.22843
 C3361 C 1.13365 1.31691 0.86580
 C3362 C 1.12700 1.30260 0.87261
 C3363 C 1.11918 1.28540 0.88063
 C3364 C 1.13105 1.27260 0.89032
 C3365 C 1.12357 1.25573 0.89784
 C3366 C 1.10409 1.25141 0.89576
 C3367 C 1.09225 1.26442 0.88608
 C3368 C 1.09976 1.28130 0.87857
 C3369 C 1.09622 1.23331 0.90345
 C3370 C 1.08284 1.22272 0.89289
 C3371 C 1.07573 1.20548 0.89996
 C3372 C 1.08186 1.19861 0.91767
 C3373 C 1.09506 1.20910 0.92835
 C3374 C 1.10220 1.22633 0.92131
 C3375 C 1.07484 1.18067 0.92473
 C3376 C 1.06908 1.16554 0.93053
 H3377 H 1.14612 1.27561 0.89193
 H3378 H 1.13310 1.24589 0.90498
 H3379 H 1.07715 1.26162 0.88445
 H3380 H 1.09044 1.29113 0.87113
 H3381 H 1.07815 1.22757 0.87899
 H3382 H 1.06557 1.19744 0.89154
 H3383 H 1.09988 1.20392 0.94210
 H3384 H 1.11229 1.23427 0.92988
 C3385 C 1.13381 0.81633 0.36544
 C3386 C 1.12709 0.80203 0.37221
 C3387 C 1.11923 0.78484 0.38021
 C3388 C 1.13089 0.77242 0.39060
 C3389 C 1.12337 0.75555 0.39811
 C3390 C 1.10406 0.75087 0.39531
 C3391 C 1.09243 0.76351 0.38492
 C3392 C 1.09998 0.78039 0.37743
 C3393 C 1.09617 0.73278 0.40300
 C3394 C 1.08342 0.72178 0.39208
 C3395 C 1.07630 0.70456 0.39916
 C3396 C 1.08179 0.69811 0.41724
 C3397 C 1.09435 0.70900 0.42827
 C3398 C 1.10151 0.72622 0.42121
 C3399 C 1.07476 0.68018 0.42433
 C3400 C 1.06899 0.66507 0.43016
 H3401 H 1.14583 0.77569 0.39277
 H3402 H 1.13275 0.74600 0.40581
 H3403 H 1.07746 0.76043 0.38272
 H3404 H 1.09081 0.78993 0.36944
 H3405 H 1.07925 0.72630 0.37791
 H3406 H 1.06664 0.69619 0.39048
 H3407 H 1.09867 0.70415 0.44230
 H3408 H 1.11110 0.73448 0.43006
 C3409 C 0.63355 1.31726 0.36577
 C3410 C 0.62682 1.30294 0.37249
 C3411 C 0.61888 1.28574 0.38038
 C3412 C 0.62337 1.28027 0.39905
 C3413 C 0.61595 1.26336 0.40660
 C3414 C 0.60393 1.25170 0.39554
 C3415 C 0.59942 1.25739 0.37682
 C3416 C 0.60687 1.27429 0.36931
 C3417 C 0.59631 1.23356 0.40341
 C3418 C 0.57741 1.22794 0.39965
 C3419 C 0.57037 1.21070 0.40680
 C3420 C 0.58210 1.19886 0.41778
 C3421 C 0.60088 1.20436 0.42169
 C3422 C 0.60795 1.22159 0.41456
 C3423 C 0.57499 1.18094 0.42482
 C3424 C 0.56916 1.16584 0.43061
 H3425 H 0.63263 1.28904 0.40776
 H3426 H 0.61948 1.25950 0.42113
 H3427 H 0.59043 1.24860 0.36786
 H3428 H 0.60336 1.27835 0.35481
 H3429 H 0.56803 1.23694 0.39132
 H3430 H 0.55580 1.20659 0.40372
 H3431 H 0.61010 1.19527 0.43011
 H3432 H 0.62262 1.22538 0.41749
 C3433 C 0.63282 0.81748 0.86743
 C3434 C 0.62613 0.80316 0.87419
 C3435 C 0.61829 0.78594 0.88214
 C3436 C 0.62992 0.77363 0.89270
 C3437 C 0.62245 0.75670 0.90013
 C3438 C 0.60323 0.75185 0.89705
 C3439 C 0.59162 0.76438 0.88650
 C3440 C 0.59913 0.78131 0.87909
 C3441 C 0.59540 0.73367 0.90461
 C3442 C 0.58290 0.72257 0.89351
 C3443 C 0.57584 0.70527 0.90047
 C3444 C 0.58115 0.69885 0.91861
 C3445 C 0.59347 0.70983 0.92982
 C3446 C 0.60055 0.72714 0.92289
 C3447 C 0.57421 0.68084 0.92557
 C3448 C 0.56852 0.66566 0.93130
 H3449 H 0.64480 0.77704 0.89508
 H3450 H 0.63181 0.74724 0.90796
 H3451 H 0.57672 0.76116 0.88409
 H3452 H 0.58999 0.79076 0.87096
 H3453 H 0.57887 0.72708 0.87929
 H3454 H 0.56638 0.69684 0.89164
 H3455 H 0.59764 0.70500 0.94390
 H3456 H 0.60995 0.73547 0.93187
 C3457 C 0.86669 1.31741 1.13295
 C3458 C 0.87340 1.30308 1.12622
 C3459 C 0.88128 1.28585 1.11833
 C3460 C 0.89975 1.28011 1.12326
 C3461 C 0.90726 1.26317 1.11590
 C3462 C 0.89639 1.25174 1.10349
 C3463 C 0.87788 1.25771 1.09853
 C3464 C 0.87039 1.27465 1.10592
 C3465 C 0.90420 1.23355 1.09595
 C3466 C 0.90089 1.22813 1.07690
 C3467 C 0.90798 1.21084 1.06993
 C3468 C 0.91845 1.19875 1.08188
 C3469 C 0.92191 1.20406 1.10081
 C3470 C 0.91485 1.22134 1.10781
 C3471 C 0.92541 1.18078 1.07483
 C3472 C 0.93114 1.16563 1.06905
 H3473 H 0.90831 1.28870 1.13284
 H3474 H 0.92164 1.25909 1.11980
 H3475 H 0.86906 1.24911 1.08923
 H3476 H 0.85605 1.27893 1.10207
 H3477 H 0.89296 1.23732 1.06736
 H3478 H 0.90524 1.20687 1.05524
 H3479 H 0.92993 1.19477 1.11020
 H3480 H 0.91742 1.22499 1.12259
 C3481 C 0.86662 0.81707 0.63275
 C3482 C 0.87325 0.80274 0.62596
 C3483 C 0.88105 0.78552 0.61797
 C3484 C 0.86932 0.77310 0.60766
 C3485 C 0.87677 0.75619 0.60018
 C3486 C 0.89608 0.75147 0.60293
 C3487 C 0.90778 0.76411 0.61324
 C3488 C 0.90030 0.78102 0.62070
 C3489 C 0.90390 0.73332 0.59530
 C3490 C 0.91665 0.72232 0.60623
 C3491 C 0.92371 0.70506 0.59921
 C3492 C 0.91816 0.69856 0.58117
 C3493 C 0.90559 0.70944 0.57012
 C3494 C 0.89850 0.72671 0.57713
 C3495 C 0.92512 0.68057 0.57415
 C3496 C 0.93085 0.66542 0.56840
 H3497 H 0.85438 0.77642 0.60553
 H3498 H 0.86734 0.74664 0.59254
 H3499 H 0.92274 0.76099 0.61539
 H3500 H 0.90951 0.79056 0.62863
 H3501 H 0.92087 0.72689 0.62037
 H3502 H 0.93338 0.69670 0.60790
 H3503 H 0.90123 0.70455 0.55613
 H3504 H 0.88890 0.73496 0.56827
 C3505 C 0.36629 1.31752 0.63380
 C3506 C 0.37301 1.30322 0.62701
 C3507 C 0.38087 1.28604 0.61900
 C3508 C 0.36956 1.27434 0.60745
 C3509 C 0.37705 1.25746 0.59992
 C3510 C 0.39597 1.25205 0.60387
 C3511 C 0.40725 1.26398 0.61542
 C3512 C 0.39973 1.28086 0.62293
 C3513 C 0.40380 1.23393 0.59618
 C3514 C 0.41543 1.22221 0.60759
 C3515 C 0.42248 1.20497 0.60048
 C3516 C 0.41804 1.19922 0.58188
 C3517 C 0.40659 1.21084 0.57037
 C3518 C 0.39951 1.22808 0.57746
 C3519 C 0.42500 1.18128 0.57475
 C3520 C 0.43073 1.16616 0.56892
 H3521 H 0.35491 1.27818 0.60438
 H3522 H 0.36792 1.24847 0.59130
 H3523 H 0.42193 1.26033 0.61852
 H3524 H 0.40862 1.28984 0.63182
 H3525 H 0.41877 1.22618 0.62213
 H3526 H 0.43127 1.19605 0.60954
 H3527 H 0.40309 1.20654 0.55594
 H3528 H 0.39080 1.23690 0.56824
 C3529 C 0.36655 0.81751 1.13369
 C3530 C 0.37326 0.80316 1.12700
 C3531 C 0.38116 0.78593 1.11913
 C3532 C 0.39359 0.77474 1.13002
 C3533 C 0.40098 0.75780 1.12255
 C3534 C 0.39600 0.75180 1.10404
 C3535 C 0.38357 0.76321 1.09316
 C3536 C 0.37621 0.78016 1.10067
 C3537 C 0.40354 0.73360 1.09625
 C3538 C 0.39168 0.72139 1.08561
 C3539 C 0.39867 0.70410 1.07857
 C3540 C 0.41759 0.69878 1.08202
 C3541 C 0.42954 0.71086 1.09248
 C3542 C 0.42257 0.72816 1.09955
 C3543 C 0.42463 0.68080 1.07507
 C3544 C 0.43042 0.66565 1.06935
 H3545 H 0.39746 0.77904 1.14436
 H3546 H 0.41030 0.74921 1.13137
 H3547 H 0.37966 0.75911 1.07879
 H3548 H 0.36662 0.78873 1.09210
 H3549 H 0.37690 0.72503 1.08305
 H3550 H 0.38928 0.69481 1.07055
 H3551 H 0.44422 0.70690 1.09521
 H3552 H 0.43212 0.73735 1.10747
 C3553 C 0.86697 0.68249 0.86665
 C3554 C 0.87376 0.69681 0.87331
 C3555 C 0.88175 0.71402 0.88113
 C3556 C 0.89243 0.72624 0.86951
 C3557 C 0.89989 0.74315 0.87698
 C3558 C 0.89675 0.74808 0.89618
 C3559 C 0.88607 0.73564 0.90777
 C3560 C 0.87863 0.71872 0.90027
 C3561 C 0.90435 0.76623 0.90400
 C3562 C 0.89324 0.77743 0.91641
 C3563 C 0.90024 0.79472 0.92346
 C3564 C 0.91843 0.80103 0.91824
 C3565 C 0.92965 0.78994 0.90601
 C3566 C 0.92268 0.77266 0.89893
 C3567 C 0.92544 0.81902 0.92518
 C3568 C 0.93118 0.83418 0.93089
 H3569 H 0.89486 0.72277 0.85465
 H3570 H 0.90782 0.75254 0.86763
 H3571 H 0.88361 0.73891 0.92266
 H3572 H 0.87041 0.70935 0.90940
 H3573 H 0.87898 0.77301 0.92037
 H3574 H 0.89140 0.80323 0.93285
 H3575 H 0.94377 0.79468 0.90191
 H3576 H 0.93167 0.76425 0.88961
 C3577 C 0.86789 0.18142 0.36760
 C3578 C 0.87464 0.19578 0.37423
 C3579 C 0.88255 0.21303 0.38201
 C3580 C 0.89354 0.22505 0.37047
 C3581 C 0.90091 0.24203 0.37787
 C3582 C 0.89736 0.24722 0.39694
 C3583 C 0.88638 0.23498 0.40845
 C3584 C 0.87903 0.21800 0.40102
 C3585 C 0.90485 0.26546 0.40467
 C3586 C 0.89349 0.27686 0.41667
 C3587 C 0.90039 0.29422 0.42363
 C3588 C 0.91872 0.30040 0.41874
 C3589 C 0.93018 0.28911 0.40692
 C3590 C 0.92330 0.27175 0.39993
 C3591 C 0.92563 0.31846 0.42558
 C3592 C 0.93129 0.33368 0.43121
 H3593 H 0.89629 0.22137 0.35571
 H3594 H 0.90908 0.25126 0.36858
 H3595 H 0.88360 0.23847 0.42324
 H3596 H 0.87056 0.20878 0.41008
 H3597 H 0.87914 0.27254 0.42037
 H3598 H 0.89138 0.30289 0.43271
 H3599 H 0.94440 0.29376 0.40307
 H3600 H 0.93247 0.26319 0.39093
 C3601 C 0.36626 0.68291 0.36684
 C3602 C 0.37295 0.69724 0.37357
 C3603 C 0.38081 0.71446 0.38151
 C3604 C 0.36985 0.72570 0.39382
 C3605 C 0.37733 0.74262 0.40127
 C3606 C 0.39590 0.74853 0.39646
 C3607 C 0.40684 0.73706 0.38414
 C3608 C 0.39933 0.72014 0.37672
 C3609 C 0.40371 0.76669 0.40407
 C3610 C 0.41450 0.77885 0.39230
 C3611 C 0.42156 0.79611 0.39935
 C3612 C 0.41798 0.80144 0.41825
 C3613 C 0.40736 0.78940 0.43011
 C3614 C 0.40026 0.77214 0.42309
 C3615 C 0.42495 0.81938 0.42534
 C3616 C 0.43070 0.83452 0.43114
 H3617 H 0.35547 0.72147 0.39756
 H3618 H 0.36846 0.75125 0.41050
 H3619 H 0.42126 0.74109 0.38037
 H3620 H 0.40795 0.71152 0.36722
 H3621 H 0.41717 0.77519 0.37753
 H3622 H 0.42970 0.80536 0.39002
 H3623 H 0.40452 0.79338 0.44477
 H3624 H 0.39222 0.76299 0.43257
 C3625 C 0.36630 0.18290 0.86654
 C3626 C 0.37299 0.19721 0.87333
 C3627 C 0.38083 0.21440 0.88134
 C3628 C 0.36895 0.22727 0.89090
 C3629 C 0.37646 0.24413 0.89843
 C3630 C 0.39598 0.24835 0.89648
 C3631 C 0.40782 0.23527 0.88691
 C3632 C 0.40028 0.21840 0.87940
 C3633 C 0.40387 0.26643 0.90419
 C3634 C 0.41737 0.27695 0.89370
 C3635 C 0.42449 0.29417 0.90078
 C3636 C 0.41827 0.30109 0.91844
 C3637 C 0.40496 0.29068 0.92905
 C3638 C 0.39780 0.27346 0.92199
 C3639 C 0.42529 0.31904 0.92550
 C3640 C 0.43105 0.33416 0.93130
 H3641 H 0.35386 0.22434 0.89241
 H3642 H 0.36692 0.25402 0.90548
 H3643 H 0.42294 0.23800 0.88539
 H3644 H 0.40961 0.20852 0.87205
 H3645 H 0.42213 0.27205 0.87985
 H3646 H 0.43474 0.30216 0.89241
 H3647 H 0.40006 0.29590 0.94275
 H3648 H 0.38762 0.26558 0.93051
 C3649 C 1.13402 0.68314 1.13497
 C3650 C 1.12751 0.69766 1.12845
 C3651 C 1.11991 0.71512 1.12076
 C3652 C 1.12709 0.73267 1.12697
 C3653 C 1.11985 0.74967 1.11946
 C3654 C 1.10532 0.74933 1.10562
 C3655 C 1.09815 0.73160 1.09952
 C3656 C 1.10543 0.71461 1.10704
 C3657 C 1.09771 0.76741 1.09759
 C3658 C 1.07804 0.76967 1.09432
 C3659 C 1.07090 0.78679 1.08698
 C3660 C 1.08331 0.80185 1.08279
 C3661 C 1.10290 0.79971 1.08591
 C3662 C 1.11006 0.78261 1.09325
 C3663 C 1.07597 0.81959 1.07553
 C3664 C 1.06997 0.83457 1.06957
 H3665 H 1.13826 0.73323 1.13763
 H3666 H 1.12547 0.76308 1.12465
 H3667 H 1.08713 0.73087 1.08873
 H3668 H 1.09980 0.70110 1.10210
 H3669 H 1.06814 0.75832 1.09773
 H3670 H 1.05569 0.78833 1.08468
 H3671 H 1.11263 0.81126 1.08268
 H3672 H 1.12529 0.78123 1.09536
 C3673 C 1.13329 0.18256 0.63341
 C3674 C 1.12671 0.19695 0.62668
 C3675 C 1.11906 0.21426 0.61874
 C3676 C 1.13123 0.22948 0.61447
 C3677 C 1.12386 0.24639 0.60694
 C3678 C 1.10417 0.24832 0.60358
 C3679 C 1.09204 0.23292 0.60789
 C3680 C 1.09946 0.21600 0.61541
 C3681 C 1.09633 0.26639 0.59579
 C3682 C 1.07918 0.27399 0.60293
 C3683 C 1.07203 0.29121 0.59585
 C3684 C 1.08188 0.30103 0.58154
 C3685 C 1.09887 0.29353 0.57425
 C3686 C 1.10606 0.27632 0.58131
 C3687 C 1.07477 0.31897 0.57458
 C3688 C 1.06897 0.33410 0.56884
 H3689 H 1.14642 0.22830 0.61706
 H3690 H 1.13352 0.25808 0.60403
 H3691 H 1.07686 0.23388 0.60525
 H3692 H 1.08991 0.20428 0.61863
 H3693 H 1.07149 0.26681 0.61423
 H3694 H 1.05890 0.29694 0.60165
 H3695 H 1.10660 0.30100 0.56315
 H3696 H 1.11915 0.27072 0.57535
 C3697 C 0.63366 0.68330 0.63413
 C3698 C 0.62714 0.69783 0.62764
 C3699 C 0.61954 0.71530 0.62002
 C3700 C 0.62719 0.73281 0.62577
 C3701 C 0.61990 0.74983 0.61839
 C3702 C 0.60483 0.74957 0.60514
 C3703 C 0.59720 0.73189 0.59948
 C3704 C 0.60453 0.71487 0.60687
 C3705 C 0.59713 0.76768 0.59729
 C3706 C 0.57737 0.77017 0.59480
 C3707 C 0.57015 0.78733 0.58763
 C3708 C 0.58257 0.80220 0.58284
 C3709 C 0.60224 0.79983 0.58517
 C3710 C 0.60949 0.78270 0.59234
 C3711 C 0.57518 0.81997 0.57571
 C3712 C 0.56918 0.83497 0.56983
 H3713 H 0.63877 0.73330 0.63599
 H3714 H 0.62590 0.76321 0.62324
 H3715 H 0.58575 0.73122 0.58913
 H3716 H 0.59853 0.70139 0.60229
 H3717 H 0.56748 0.75897 0.59869
 H3718 H 0.55489 0.78904 0.58594
 H3719 H 0.61198 0.81123 0.58146
 H3720 H 0.62477 0.78113 0.59384
 C3721 C 0.63437 0.18316 1.13430
 C3722 C 0.62785 0.19767 1.12775
 C3723 C 0.62024 0.21512 1.12009
 C3724 C 0.62843 0.23260 1.12512
 C3725 C 0.62110 0.24959 1.11773
 C3726 C 0.60544 0.24934 1.10518
 C3727 C 0.59728 0.23169 1.10022
 C3728 C 0.60465 0.21469 1.10762
 C3729 C 0.59768 0.26742 1.09733
 C3730 C 0.57787 0.27020 1.09570
 C3731 C 0.57061 0.28736 1.08856
 C3732 C 0.58303 0.30193 1.08293
 C3733 C 0.60275 0.29926 1.08439
 C3734 C 0.61004 0.28213 1.09153
 C3735 C 0.57561 0.31971 1.07586
 C3736 C 0.56960 0.33472 1.07002
 H3737 H 0.64046 0.23309 1.13481
 H3738 H 0.62752 0.26296 1.12203
 H3739 H 0.58536 0.23100 1.09042
 H3740 H 0.59823 0.20123 1.10360
 H3741 H 0.56799 0.25925 1.10025
 H3742 H 0.55531 0.28931 1.08755
 H3743 H 0.61250 0.31042 1.08003
 H3744 H 0.62535 0.28033 1.09236
 C3745 C 1.31715 1.13417 0.86693
 C3746 C 1.30283 1.12743 0.87365
 C3747 C 1.28562 1.11951 0.88153
 C3748 C 1.27347 1.13094 0.89249
 C3749 C 1.25657 1.12338 0.89987
 C3750 C 1.25158 1.10426 0.89636
 C3751 C 1.26395 1.09286 0.88540
 C3752 C 1.28085 1.10045 0.87804
 C3753 C 1.23345 1.09633 0.90390
 C3754 C 1.22217 1.08417 0.89260
 C3755 C 1.20492 1.07700 0.89956
 C3756 C 1.19872 1.08186 0.91790
 C3757 C 1.20988 1.09385 0.92931
 C3758 C 1.22713 1.10104 0.92237
 C3759 C 1.18076 1.07481 0.92488
 C3760 C 1.16563 1.06904 0.93063
 H3761 H 1.27700 1.14574 0.89521
 H3762 H 1.24724 1.13259 0.90803
 H3763 H 1.26062 1.07803 0.88265
 H3764 H 1.29017 1.09147 0.86960
 H3765 H 1.22651 1.08048 0.87824
 H3766 H 1.19635 1.06780 0.89059
 H3767 H 1.20522 1.09768 0.94354
 H3768 H 1.23560 1.11017 0.93150
 C3769 C 1.31716 0.63412 0.36733
 C3770 C 1.30285 0.62734 0.37403
 C3771 C 1.28566 0.61935 0.38187
 C3772 C 1.27408 0.63033 0.39385
 C3773 C 1.25717 0.62272 0.40117
 C3774 C 1.25160 0.60399 0.39657
 C3775 C 1.26341 0.59303 0.38460
 C3776 C 1.28032 0.60067 0.37731
 C3777 C 1.23345 0.59604 0.40403
 C3778 C 1.22161 0.58491 0.39225
 C3779 C 1.20434 0.57773 0.39915
 C3780 C 1.19868 0.58155 0.41791
 C3781 C 1.21040 0.59250 0.42978
 C3782 C 1.22767 0.59970 0.42291
 C3783 C 1.18071 0.57449 0.42485
 C3784 C 1.16556 0.56870 0.43055
 H3785 H 1.27804 0.64484 0.39741
 H3786 H 1.24827 0.63161 0.41013
 H3787 H 1.25964 0.57849 0.38100
 H3788 H 1.28919 0.59203 0.36807
 H3789 H 1.22553 0.58205 0.37758
 H3790 H 1.19534 0.56933 0.38981
 H3791 H 1.20616 0.59551 0.44434
 H3792 H 1.23657 0.60801 0.43240
 C3793 C 0.81809 1.13206 0.36780
 C3794 C 0.80370 1.12548 0.37453
 C3795 C 0.78641 1.11778 0.38245
 C3796 C 0.78169 1.09862 0.37948
 C3797 C 0.76470 1.09125 0.38685
 C3798 C 0.75219 1.10297 0.39729
 C3799 C 0.75713 1.12219 0.40029
 C3800 C 0.77413 1.12953 0.39290
 C3801 C 0.73395 1.09528 0.40481
 C3802 C 0.72737 1.10055 0.42303
 C3803 C 0.71001 1.09360 0.42993
 C3804 C 0.69900 1.08129 0.41872
 C3805 C 0.70546 1.07587 0.40063
 C3806 C 0.72282 1.08280 0.39371
 C3807 C 0.68093 1.07448 0.42564
 C3808 C 0.66570 1.06888 0.43131
 H3809 H 0.79112 1.08939 0.37143
 H3810 H 0.76141 1.07634 0.38450
 H3811 H 0.74769 1.13164 0.40803
 H3812 H 0.77761 1.14441 0.39521
 H3813 H 0.73572 1.10994 0.43201
 H3814 H 0.70515 1.09786 0.44397
 H3815 H 0.69700 1.06641 0.39181
 H3816 H 0.72736 1.07868 0.37954
 C3817 C 0.81717 0.63309 0.86697
 C3818 C 0.80284 0.62646 0.87375
 C3819 C 0.78562 0.61865 0.88173
 C3820 C 0.77420 0.62980 0.89370
 C3821 C 0.75727 0.62238 0.90116
 C3822 C 0.75152 0.60368 0.89671
 C3823 C 0.76316 0.59254 0.88473
 C3824 C 0.78009 0.59999 0.87730
 C3825 C 0.73334 0.59592 0.90432
 C3826 C 0.72134 0.58482 0.89266
 C3827 C 0.70407 0.57781 0.89971
 C3828 C 0.69855 0.58177 0.91848
 C3829 C 0.71041 0.59270 0.93022
 C3830 C 0.72770 0.59974 0.92320
 C3831 C 0.68058 0.57484 0.92556
 C3832 C 0.66544 0.56913 0.93135
 H3833 H 0.77831 0.64429 0.89716
 H3834 H 0.74850 0.63140 0.91012
 H3835 H 0.75925 0.57802 0.88124
 H3836 H 0.78885 0.59122 0.86807
 H3837 H 0.72515 0.58186 0.87799
 H3838 H 0.69495 0.56943 0.89047
 H3839 H 0.70629 0.59582 0.94479
 H3840 H 0.73672 0.60803 0.93259
 C3841 C 1.31746 0.86634 1.13308
 C3842 C 1.30315 0.87310 1.12637
 C3843 C 1.28595 0.88108 1.11850
 C3844 C 1.28029 0.87639 1.09994
 C3845 C 1.26338 0.88384 1.09245
 C3846 C 1.25190 0.89610 1.10344
 C3847 C 1.25779 0.90082 1.12204
 C3848 C 1.27469 0.89334 1.12951
 C3849 C 1.23374 0.90373 1.09565
 C3850 C 1.22826 0.92272 1.09920
 C3851 C 1.21099 0.92976 1.09214
 C3852 C 1.19897 0.91794 1.08146
 C3853 C 1.20432 0.89908 1.07777
 C3854 C 1.22159 0.89201 1.08480
 C3855 C 1.18101 0.92505 1.07454
 C3856 C 1.16586 0.93086 1.06883
 H3857 H 1.28892 0.86693 1.09129
 H3858 H 1.25936 0.88014 1.07800
 H3859 H 1.24914 0.91000 1.13096
 H3860 H 1.27891 0.89700 1.14392
 H3861 H 1.23741 0.93217 1.10729
 H3862 H 1.20699 0.94440 1.09506
 H3863 H 1.19508 0.88978 1.06959
 H3864 H 1.22527 0.87727 1.08205
 C3865 C 1.31709 0.36621 0.63341
 C3866 C 1.30278 0.37292 0.62666
 C3867 C 1.28558 0.38081 0.61871
 C3868 C 1.27422 0.36978 0.60656
 C3869 C 1.25733 0.37729 0.59910
 C3870 C 1.25155 0.39595 0.60372
 C3871 C 1.26313 0.40695 0.61588
 C3872 C 1.28003 0.39942 0.62331
 C3873 C 1.23341 0.40379 0.59609
 C3874 C 1.22134 0.41475 0.60779
 C3875 C 1.20408 0.42181 0.60072
 C3876 C 1.19867 0.41804 0.58188
 C3877 C 1.21063 0.40725 0.57009
 C3878 C 1.22789 0.40017 0.57713
 C3879 C 1.18072 0.42498 0.57477
 C3880 C 1.16559 0.43070 0.56895
 H3881 H 1.27835 0.35533 0.60297
 H3882 H 1.24860 0.36837 0.59000
 H3883 H 1.25919 0.42144 0.61951
 H3884 H 1.28874 0.40809 0.63268
 H3885 H 1.22506 0.41756 0.62251
 H3886 H 1.19490 0.43007 0.61000
 H3887 H 1.20658 0.40428 0.55547
 H3888 H 1.23698 0.39199 0.56770
 C3889 C 0.81718 0.86684 0.63309
 C3890 C 0.80285 0.87364 0.62645
 C3891 C 0.78563 0.88164 0.61867
 C3892 C 0.78053 0.87795 0.59972
 C3893 C 0.76361 0.88543 0.59227
 C3894 C 0.75156 0.89671 0.60370
 C3895 C 0.75689 0.90042 0.62269
 C3896 C 0.77380 0.89292 0.63011
 C3897 C 0.73340 0.90435 0.59593
 C3898 C 0.72736 0.92295 0.60047
 C3899 C 0.71008 0.92998 0.59344
 C3900 C 0.69860 0.91854 0.58180
 C3901 C 0.70452 0.90006 0.57712
 C3902 C 0.72180 0.89301 0.58412
 C3903 C 0.68062 0.92561 0.57491
 C3904 C 0.66546 0.93138 0.56922
 H3905 H 0.78960 0.86926 0.59073
 H3906 H 0.76003 0.88251 0.57753
 H3907 H 0.74780 0.90883 0.63192
 H3908 H 0.77758 0.89580 0.64482
 H3909 H 0.73608 0.93211 0.60933
 H3910 H 0.70564 0.94432 0.59713
 H3911 H 0.69570 0.89106 0.56818
 H3912 H 0.72592 0.87855 0.58058
 C3913 C 0.81755 0.36619 1.13255
 C3914 C 0.80322 0.37296 1.12588
 C3915 C 0.78601 0.38096 1.11808
 C3916 C 0.77482 0.37026 1.10549
 C3917 C 0.75788 0.37786 1.09821
 C3918 C 0.75190 0.39629 1.10347
 C3919 C 0.76331 0.40697 1.11606
 C3920 C 0.78025 0.39935 1.12330
 C3921 C 0.73370 0.40421 1.09605
 C3922 C 0.72148 0.41463 1.10809
 C3923 C 0.70418 0.42176 1.10122
 C3924 C 0.69886 0.41860 1.08224
 C3925 C 0.71096 0.40836 1.07012
 C3926 C 0.72827 0.40120 1.07696
 C3927 C 0.68085 0.42560 1.07532
 C3928 C 0.66568 0.43133 1.06962
 H3929 H 0.77911 0.35599 1.10142
 H3930 H 0.74929 0.36919 1.08877
 H3931 H 0.75922 0.42128 1.12018
 H3932 H 0.78882 0.40776 1.13302
 H3933 H 0.72513 0.41696 1.12292
 H3934 H 0.69488 0.42961 1.11075
 H3935 H 0.70699 0.40585 1.05539
 H3936 H 0.73747 0.39345 1.06728
 C3937 C 0.68344 1.13433 1.13388
 C3938 C 0.69793 1.12778 1.12735
 C3939 C 0.71537 1.12014 1.11968
 C3940 C 0.71490 1.10475 1.10698
 C3941 C 0.73188 1.09737 1.09956
 C3942 C 0.74956 1.10534 1.10474
 C3943 C 0.74986 1.12080 1.11753
 C3944 C 0.73287 1.12813 1.12495
 C3945 C 0.76763 1.09758 1.09687
 C3946 C 0.78244 1.10993 1.09134
 C3947 C 0.79955 1.10264 1.08417
 C3948 C 0.80210 1.08293 1.08242
 C3949 C 0.78743 1.07051 1.08779
 C3950 C 0.77029 1.07778 1.09495
 C3951 C 0.81985 1.07550 1.07531
 C3952 C 0.83484 1.06948 1.06944
 H3953 H 0.70142 1.09848 1.10278
 H3954 H 0.73117 1.08562 1.08957
 H3955 H 0.76324 1.12706 1.12201
 H3956 H 0.73340 1.14001 1.13482
 H3957 H 0.78074 1.12525 1.09239
 H3958 H 0.81080 1.11238 1.08001
 H3959 H 0.78928 1.05522 1.08655
 H3960 H 0.75925 1.06790 1.09930
 C3961 C 0.68322 0.63366 0.63384
 C3962 C 0.69769 0.62716 0.62723
 C3963 C 0.71511 0.61958 0.61947
 C3964 C 0.71470 0.60357 0.60755
 C3965 C 0.73166 0.59624 0.60005
 C3966 C 0.74926 0.60487 0.60436
 C3967 C 0.74950 0.62095 0.61636
 C3968 C 0.73253 0.62824 0.62386
 C3969 C 0.76731 0.59714 0.59643
 C3970 C 0.78170 0.60953 0.58992
 C3971 C 0.79880 0.60227 0.58272
 C3972 C 0.80178 0.58255 0.58191
 C3973 C 0.78754 0.57010 0.58825
 C3974 C 0.77040 0.57732 0.59545
 C3975 C 0.81956 0.57517 0.57481
 C3976 C 0.83456 0.56917 0.56896
 H3977 H 0.70128 0.59678 0.60403
 H3978 H 0.73100 0.58399 0.59068
 H3979 H 0.76283 0.62775 0.62017
 H3980 H 0.73301 0.64060 0.63312
 H3981 H 0.77965 0.62483 0.59024
 H3982 H 0.80972 0.61204 0.57781
 H3983 H 0.78973 0.55481 0.58775
 H3984 H 0.75970 0.56743 0.60056
 C3985 C 0.18274 1.13417 0.63337
 C3986 C 0.19727 1.12768 0.62686
 C3987 C 0.21474 1.12012 0.61921
 C3988 C 0.21435 1.10456 0.60672
 C3989 C 0.23136 1.09725 0.59930
 C3990 C 0.24898 1.10547 0.60428
 C3991 C 0.24920 1.12110 0.61686
 C3992 C 0.23218 1.12836 0.62426
 C3993 C 0.26708 1.09777 0.59641
 C3994 C 0.28173 1.11019 0.59061
 C3995 C 0.29886 1.10296 0.58344
 C3996 C 0.30158 1.08324 0.58197
 C3997 C 0.28707 1.07076 0.58761
 C3998 C 0.26991 1.07797 0.59478
 C3999 C 0.31937 1.07588 0.57489
 C4000 C 0.33439 1.06990 0.56906
 H4001 H 0.20091 1.09810 0.60268
 H4002 H 0.23072 1.08536 0.58948
 H4003 H 0.26254 1.12756 0.62117
 H4004 H 0.23264 1.14038 0.63397
 H4005 H 0.27988 1.12550 0.59145
 H4006 H 0.30999 1.11274 0.57907
 H4007 H 0.28907 1.05548 0.58660
 H4008 H 0.25900 1.06805 0.59934
 C4009 C 0.18264 0.63387 1.13373
 C4010 C 0.19690 0.62711 1.12691
 C4011 C 0.21405 0.61916 1.11891
 C4012 C 0.22561 0.63026 1.10702
 C4013 C 0.24249 0.62270 1.09956
 C4014 C 0.24804 0.60391 1.10392
 C4015 C 0.23624 0.59282 1.11579
 C4016 C 0.21937 0.60041 1.12323
 C4017 C 0.26618 0.59602 1.09634
 C4018 C 0.27802 0.58474 1.10798
 C4019 C 0.29528 0.57763 1.10098
 C4020 C 0.30093 0.58167 1.08227
 C4021 C 0.28921 0.59277 1.07053
 C4022 C 0.27195 0.59991 1.07751
 C4023 C 0.31890 0.57467 1.07524
 C4024 C 0.33404 0.56892 1.06947
 H4025 H 0.22167 0.64482 1.10365
 H4026 H 0.25137 0.63169 1.09068
 H4027 H 0.24000 0.57824 1.11921
 H4028 H 0.21050 0.59168 1.13239
 H4029 H 0.27412 0.58171 1.12262
 H4030 H 0.30429 0.56911 1.11021
 H4031 H 0.29344 0.59596 1.05601
 H4032 H 0.26304 0.60835 1.06813
 C4033 C 0.68244 0.86705 0.86737
 C4034 C 0.69677 0.87378 0.87407
 C4035 C 0.71400 0.88169 0.88191
 C4036 C 0.72482 0.89460 0.87121
 C4037 C 0.74178 0.90199 0.87862
 C4038 C 0.74816 0.89654 0.89687
 C4039 C 0.73710 0.88364 0.90756
 C4040 C 0.72014 0.87627 0.90011
 C4041 C 0.76639 0.90407 0.90458
 C4042 C 0.77894 0.89204 0.91462
 C4043 C 0.79626 0.89903 0.92157
 C4044 C 0.80126 0.91812 0.91862
 C4045 C 0.78884 0.93024 0.90875
 C4046 C 0.77152 0.92327 0.90177
 C4047 C 0.81927 0.92517 0.92548
 C4048 C 0.83444 0.93094 0.93113
 H4049 H 0.72024 0.89883 0.85706
 H4050 H 0.75009 0.91169 0.86994
 H4051 H 0.74150 0.87936 0.92174
 H4052 H 0.71185 0.86631 0.90853
 H4053 H 0.77553 0.87714 0.91678
 H4054 H 0.80581 0.88951 0.92913
 H4055 H 0.79257 0.94505 0.90642
 H4056 H 0.76206 0.93294 0.89431
 C4057 C 0.68276 0.36595 0.36618
 C4058 C 0.69709 0.37267 0.37287
 C4059 C 0.71430 0.38060 0.38074
 C4060 C 0.71980 0.37612 0.39940
 C4061 C 0.73671 0.38355 0.40691
 C4062 C 0.74836 0.39557 0.39583
 C4063 C 0.74264 0.40008 0.37712
 C4064 C 0.72573 0.39263 0.36964
 C4065 C 0.76651 0.40319 0.40366
 C4066 C 0.77212 0.42209 0.39988
 C4067 C 0.78938 0.42912 0.40697
 C4068 C 0.80124 0.41738 0.41793
 C4069 C 0.79574 0.39861 0.42185
 C4070 C 0.77849 0.39155 0.41478
 C4071 C 0.81919 0.42448 0.42490
 C4072 C 0.83431 0.43029 0.43063
 H4073 H 0.71104 0.36685 0.40813
 H4074 H 0.74060 0.38001 0.42144
 H4075 H 0.75141 0.40907 0.36814
 H4076 H 0.72164 0.39613 0.35514
 H4077 H 0.76311 0.43148 0.39157
 H4078 H 0.79349 0.44369 0.40388
 H4079 H 0.80485 0.38937 0.43025
 H4080 H 0.77470 0.37687 0.41772
 C4081 C 0.18360 0.86571 0.36527
 C4082 C 0.19798 0.87230 0.37198
 C4083 C 0.21527 0.88000 0.37992
 C4084 C 0.21626 0.89926 0.38507
 C4085 C 0.23312 0.90673 0.39266
 C4086 C 0.24921 0.89500 0.39522
 C4087 C 0.24804 0.87565 0.39003
 C4088 C 0.23118 0.86822 0.38243
 C4089 C 0.26718 0.90291 0.40316
 C4090 C 0.27807 0.89231 0.41628
 C4091 C 0.29516 0.89961 0.42348
 C4092 C 0.30160 0.91758 0.41768
 C4093 C 0.29083 0.92830 0.40473
 C4094 C 0.27372 0.92103 0.39752
 C4095 C 0.31942 0.92486 0.42477
 C4096 C 0.33445 0.93081 0.43062
 H4097 H 0.20401 0.90849 0.38322
 H4098 H 0.23350 0.92162 0.39673
 H4099 H 0.26025 0.86633 0.39157
 H4100 H 0.23058 0.85331 0.37843
 H4101 H 0.27329 0.87843 0.42109
 H4102 H 0.30338 0.89121 0.43352
 H4103 H 0.29573 0.94220 0.40009
 H4104 H 0.26579 0.92944 0.38727
 C4105 C 0.18310 0.36663 0.86560
 C4106 C 0.19739 0.37338 0.87236
 C4107 C 0.21456 0.38128 0.88034
 C4108 C 0.22635 0.39289 0.86918
 C4109 C 0.24323 0.40028 0.87680
 C4110 C 0.24856 0.39611 0.89571
 C4111 C 0.23655 0.38450 0.90684
 C4112 C 0.21967 0.37714 0.89920
 C4113 C 0.26667 0.40365 0.90369
 C4114 C 0.27831 0.39208 0.91526
 C4115 C 0.29553 0.39905 0.92248
 C4116 C 0.30135 0.41767 0.91827
 C4117 C 0.28983 0.42934 0.90688
 C4118 C 0.27261 0.42239 0.89962
 C4119 C 0.31927 0.42468 0.92538
 C4120 C 0.33438 0.43045 0.93120
 H4121 H 0.22257 0.39612 0.85455
 H4122 H 0.25228 0.40895 0.86779
 H4123 H 0.24013 0.38124 0.92151
 H4124 H 0.21063 0.36819 0.90797
 H4125 H 0.27427 0.37752 0.91843
 H4126 H 0.30437 0.38988 0.93122
 H4127 H 0.29419 0.44379 0.90355
 H4128 H 0.26386 0.43172 0.89097
   
