data_POSCAR
  _audit_creation_date              2014-09-24
  _audit_creation_method            'ToBaCCo'
  _symmetry_space_group_name_H-M    'P1'
  _symmetry_Int_Tables_number       1
  _symmetry_cell_setting            triclinic
  loop_
  _symmetry_equiv_pos_as_xyz
 x,y,z
_cell_length_a 46.4559
_cell_length_b 47.0177
_cell_length_c 46.0033
_cell_angle_alpha 89.585600
_cell_angle_beta 89.769000
_cell_angle_gamma 90.179400
loop_
  _atom_site_label
  _atom_site_type_symbol
  _atom_site_fract_x
  _atom_site_fract_y
  _atom_site_fract_z
C1 C 0.39374 1.36360 0.34164
 C2 C 0.38813 1.33898 0.35773
 C3 C 0.36205 1.33527 0.37214
 C4 C 0.34117 1.35746 0.37084
 C5 C 0.34743 1.38193 0.35497
 C6 C 0.37350 1.38478 0.34011
 C7 C 0.41442 1.36947 0.32106
 N8 N 0.40656 1.39318 0.30620
 C9 C 0.38190 1.40323 0.31843
 C10 C 0.32381 1.39926 0.35532
 N11 N 0.30274 1.38668 0.37120
 C12 C 0.31298 1.36087 0.38075
 C13 C 0.36275 1.30762 0.38338
 N14 N 0.38843 1.29531 0.37586
 C15 C 0.40372 1.31450 0.36020
 H16 H 0.43189 1.35549 0.31491
 H17 H 0.36908 1.42078 0.31055
 H18 H 0.32204 1.41972 0.34449
 H19 H 0.30110 1.34552 0.39371
 H20 H 0.34572 1.29734 0.39566
 H21 H 0.42474 1.31067 0.35074
 C22 C 0.36796 0.85426 0.83172
 C23 C 0.37166 0.83067 0.85034
 C24 C 0.35279 0.82629 0.87346
 C25 C 0.32993 0.84546 0.87817
 C26 C 0.32682 0.86852 0.85978
 C27 C 0.34556 0.87284 0.83655
 C28 C 0.38153 0.86341 0.80660
 N29 N 0.36755 0.88690 0.79640
 C30 C 0.34544 0.89263 0.81452
 C31 C 0.30288 0.88316 0.86796
 N32 N 0.29064 0.86977 0.89122
 C33 C 0.30703 0.84652 0.89758
 C34 C 0.36097 0.80133 0.88697
 N35 N 0.38431 0.79049 0.87279
 C36 C 0.39076 0.80824 0.85025
 H37 H 0.39936 0.85299 0.79589
 H38 H 0.33004 0.90962 0.81147
 H39 H 0.29479 0.90161 0.85655
 H40 H 0.30242 0.83126 0.91474
 H41 H 0.34998 0.79150 0.90524
 H42 H 0.40794 0.80488 0.83469
 C43 C 0.88502 1.35315 0.83289
 C44 C 0.88034 1.33040 0.85162
 C45 C 0.85687 1.32982 0.87027
 C46 C 0.83732 1.35307 0.86989
 C47 C 0.84222 1.37573 0.85087
 C48 C 0.86622 1.37566 0.83217
 C49 C 0.90459 1.35664 0.81091
 N50 N 0.89815 1.38071 0.79616
 C51 C 0.87477 1.39285 0.80923
 C52 C 0.81969 1.39443 0.85369
 N53 N 0.80090 1.38427 0.87395
 C54 C 0.81147 1.35882 0.88396
 C55 C 0.85788 1.30336 0.88412
 N56 N 0.88104 1.28872 0.87355
 C57 C 0.89455 1.30517 0.85370
 H58 H 0.92129 1.34173 0.80489
 H59 H 0.86350 1.41160 0.80180
 H60 H 0.81703 1.41406 0.84154
 H61 H 0.80128 1.34513 0.89996
 H62 H 0.84235 1.29499 0.89957
 H63 H 0.91322 1.29886 0.84113
 C64 C 0.87231 0.84847 0.33602
 C65 C 0.86703 0.82684 0.35616
 C66 C 0.84269 0.82730 0.37351
 C67 C 0.82311 0.85007 0.37075
 C68 C 0.82857 0.87169 0.35082
 C69 C 0.85339 0.87084 0.33337
 C70 C 0.89292 0.85143 0.31477
 N71 N 0.88709 0.87515 0.29905
 C72 C 0.86296 0.88736 0.31050
 C73 C 0.80574 0.89027 0.35184
 N74 N 0.78640 0.88066 0.37182
 C75 C 0.79690 0.85602 0.38354
 C76 C 0.84302 0.80237 0.38970
 N77 N 0.86695 0.78726 0.38245
 C78 C 0.88156 0.80220 0.36177
 H79 H 0.91020 0.83666 0.31023
 H80 H 0.85180 0.90575 0.30201
 H81 H 0.80320 0.90933 0.33876
 H82 H 0.78652 0.84315 0.40010
 H83 H 0.82683 0.79550 0.40525
 H84 H 0.90096 0.79561 0.35072
 C85 C 0.62138 0.64063 0.34078
 C86 C 0.61902 0.66390 0.35952
 C87 C 0.63968 0.66837 0.38064
 C88 C 0.66305 0.64961 0.38319
 C89 C 0.66514 0.62668 0.36470
 C90 C 0.64430 0.62222 0.34337
 C91 C 0.60599 0.63249 0.31673
 N92 N 0.61927 0.60960 0.30455
 C93 C 0.64265 0.60322 0.32090
 C94 C 0.69072 0.61333 0.37026
 N95 N 0.70443 0.62747 0.39187
 C96 C 0.68771 0.64979 0.39982
 C97 C 0.63299 0.69356 0.39412
 N98 N 0.60876 0.70439 0.38173
 C99 C 0.60025 0.68645 0.36046
 H100 H 0.58738 0.64351 0.30834
 H101 H 0.65801 0.58659 0.31612
 H102 H 0.69912 0.59548 0.35826
 H103 H 0.69352 0.66549 0.41589
 H104 H 0.64567 0.70369 0.41080
 H105 H 0.58209 0.68996 0.34620
 C106 C 0.63225 0.15077 0.82797
 C107 C 0.63035 0.17334 0.84772
 C108 C 0.64983 0.17531 0.87026
 C109 C 0.67153 0.15497 0.87335
 C110 C 0.67340 0.13270 0.85402
 C111 C 0.65361 0.13057 0.83110
 C112 C 0.61700 0.14412 0.80330
 N113 N 0.62858 0.12027 0.79126
 C114 C 0.65097 0.11195 0.80825
 C115 C 0.69733 0.11715 0.86155
 N116 N 0.71014 0.12963 0.88493
 C117 C 0.69432 0.15275 0.89220
 C118 C 0.64384 0.19978 0.88521
 N119 N 0.62108 0.21280 0.87235
 C120 C 0.61280 0.19685 0.84932
 H121 H 0.59916 0.15630 0.79488
 H122 H 0.66470 0.09384 0.80403
 H123 H 0.70501 0.09875 0.84994
 H124 H 0.69943 0.16734 0.90957
 H125 H 0.65595 0.20781 0.90344
 H126 H 0.59557 0.20227 0.83452
 C127 C 1.13990 0.65078 0.81917
 C128 C 1.13653 0.67402 0.83781
 C129 C 1.15568 0.67817 0.86048
 C130 C 1.17874 0.65889 0.86455
 C131 C 1.18170 0.63616 0.84590
 C132 C 1.16241 0.63214 0.82321
 C133 C 1.12518 0.64179 0.79501
 N134 N 1.13840 0.61816 0.78450
 C135 C 1.16131 0.61228 0.80151
 C136 C 1.20550 0.62102 0.85391
 N137 N 1.21775 0.63373 0.87727
 C138 C 1.20150 0.65700 0.88391
 C139 C 1.14705 0.70276 0.87439
 N140 N 1.12330 0.71341 0.86068
 C141 C 1.11697 0.69597 0.83824
 H142 H 1.10683 0.65229 0.78533
 H143 H 1.17623 0.59495 0.79811
 H144 H 1.21309 0.60229 0.84284
 H145 H 1.20597 0.67158 0.90145
 H146 H 1.15784 0.71239 0.89265
 H147 H 1.09941 0.69913 0.82316
 C148 C 1.12225 0.15130 0.34068
 C149 C 1.12099 0.17034 0.36391
 C150 C 1.14071 0.16840 0.38610
 C151 C 1.16224 0.14783 0.38522
 C152 C 1.16424 0.12930 0.36203
 C153 C 1.14363 0.13083 0.33949
 C154 C 1.10596 0.14902 0.31601
 N155 N 1.11637 0.12751 0.29959
 C156 C 1.13964 0.11626 0.31371
 C157 C 1.18917 0.11367 0.36635
 N158 N 1.20182 0.12249 0.39156
 C159 C 1.18520 0.14316 0.40311
 C160 C 1.13614 0.19091 0.40439
 N161 N 1.11439 0.20681 0.39353
 C162 C 1.10467 0.19418 0.36890
 H163 H 1.08768 0.16219 0.31038
 H164 H 1.15291 0.09899 0.30606
 H165 H 1.19749 0.09768 0.35180
 H166 H 1.19011 0.15485 0.42270
 H167 H 1.14888 0.19638 0.42321
 H168 H 1.08779 0.20218 0.35497
 C169 C 0.62648 1.34303 0.67372
 C170 C 0.62378 1.32206 0.65261
 C171 C 0.64463 1.31909 0.63152
 C172 C 0.66859 1.33718 0.63121
 C173 C 0.67159 1.35811 0.65214
 C174 C 0.65022 1.36093 0.67406
 C175 C 0.60940 1.34939 0.69701
 N176 N 0.62185 1.37058 0.71230
 C177 C 0.64700 1.37794 0.69851
 C178 C 0.69738 1.37187 0.64604
 N179 N 0.70967 1.35969 0.62212
 C180 C 0.69225 1.33836 0.61326
 C181 C 0.63724 1.29584 0.61514
 N182 N 0.61238 1.28465 0.62606
 C183 C 0.60405 1.30059 0.64899
 H184 H 0.58942 1.33879 0.70284
 H185 H 0.66195 1.39415 0.70555
 H186 H 0.70656 1.38910 0.65844
 H187 H 0.69646 1.32471 0.59488
 H188 H 0.64992 1.28700 0.59764
 H189 H 0.58551 1.29621 0.66266
 C190 C 0.64607 0.83518 1.18796
 C191 C 0.64627 0.81593 1.16445
 C192 C 0.66900 0.81656 1.14475
 C193 C 0.69173 0.83589 1.14831
 C194 C 0.69195 0.85363 1.17200
 C195 C 0.66926 0.85328 1.19167
 C196 C 0.62624 0.84227 1.20934
 N197 N 0.63743 0.86401 1.22543
 C198 C 0.66381 0.87039 1.21480
 C199 C 0.71529 0.87130 1.16956
 N200 N 0.72903 0.86520 1.14451
 C201 C 0.71509 0.84334 1.13134
 C202 C 0.66384 0.79621 1.12415
 N203 N 0.63893 0.78258 1.13088
 C204 C 0.62774 0.79470 1.15532
 H205 H 0.60528 0.83259 1.21241
 H206 H 0.67763 0.88726 1.22264
 H207 H 0.72095 0.88850 1.18401
 H208 H 0.72094 0.83418 1.11063
 H209 H 0.67768 0.79110 1.10593
 H210 H 0.60782 0.78856 1.16591
 C211 C 1.12254 1.34980 1.16286
 C212 C 1.12664 1.32824 1.14230
 C213 C 1.14946 1.32993 1.12290
 C214 C 1.16842 1.35325 1.12378
 C215 C 1.16407 1.37454 1.14381
 C216 C 1.14110 1.37280 1.16339
 C217 C 1.10434 1.35243 1.18640
 N218 N 1.11152 1.37641 1.20102
 C219 C 1.13401 1.38900 1.18697
 C220 C 1.18667 1.39328 1.14149
 N221 N 1.20497 1.38393 1.12065
 C222 C 1.19384 1.35939 1.10954
 C223 C 1.14931 1.30526 1.10695
 N224 N 1.12691 1.28877 1.11597
 C225 C 1.11301 1.30263 1.13776
 H226 H 1.08796 1.33733 1.19321
 H227 H 1.14571 1.40757 1.19411
 H228 H 1.19013 1.41187 1.15484
 H229 H 1.20359 1.34623 1.09307
 H230 H 1.16471 1.29947 1.09029
 H231 H 1.09489 1.29453 1.15016
 C232 C 1.11999 0.85222 0.66591
 C233 C 1.12386 0.83257 0.64318
 C234 C 1.14475 0.83759 0.62214
 C235 C 1.16190 0.86218 0.62343
 C236 C 1.15786 0.88138 0.64559
 C237 C 1.13690 0.87643 0.66673
 C238 C 1.10362 0.85223 0.69109
 N239 N 1.11037 0.87581 0.70674
 C240 C 1.13081 0.89060 0.69184
 C241 C 1.17946 0.90126 0.64391
 N242 N 1.19665 0.89473 0.62117
 C243 C 1.18608 0.87084 0.60839
 C244 C 1.14533 0.81433 0.60414
 N245 N 1.12517 0.79534 0.61334
 C246 C 1.11203 0.80625 0.63738
 H247 H 1.08862 0.83584 0.69802
 H248 H 1.14168 0.90962 0.69904
 H249 H 1.18350 0.91819 0.65921
 H250 H 1.19638 0.85922 0.59103
 H251 H 1.15972 0.81121 0.58587
 H252 H 1.09577 0.79564 0.65042
 C253 C 0.37101 0.64409 0.67148
 C254 C 0.36950 0.66541 0.64957
 C255 C 0.35027 0.66219 0.62680
 C256 C 0.33227 0.63830 0.62556
 C257 C 0.33384 0.61769 0.64685
 C258 C 0.35306 0.62057 0.66974
 C259 C 0.38566 0.64130 0.69763
 N260 N 0.37646 0.61695 0.71118
 C261 C 0.35652 0.60444 0.69426
 C262 C 0.31218 0.59846 0.64212
 N263 N 0.29697 0.60708 0.61862
 C264 C 0.30938 0.63140 0.60805
 C265 C 0.35203 0.68602 0.60950
 N266 N 0.37172 0.70403 0.62086
 C267 C 0.38260 0.69169 0.64547
 H268 H 0.40076 0.65641 0.70662
 H269 H 0.34482 0.58517 0.69982
 H270 H 0.30673 0.58044 0.65591
 H271 H 0.30170 0.64423 0.59012
 H272 H 0.33953 0.69020 0.59013
 H273 H 0.39873 0.70095 0.65943
 C274 C 0.36699 0.14253 1.16099
 C275 C 0.36894 0.16530 1.14057
 C276 C 0.35201 0.16453 1.11584
 C277 C 0.33330 0.14199 1.11093
 C278 C 0.33120 0.12002 1.13072
 C279 C 0.34812 0.12017 1.15583
 C280 C 0.37868 0.13737 1.18824
 N281 N 0.36735 0.11262 1.19928
 C282 C 0.34850 0.10230 1.17960
 C283 C 0.30830 0.10344 1.12241
 N284 N 0.29627 0.11531 1.09818
 C285 C 0.31185 0.13866 1.09087
 C286 C 0.35513 0.18969 1.10118
 N287 N 0.37384 0.20621 1.11573
 C288 C 0.38264 0.19169 1.13997
 H289 H 0.39357 0.15120 1.19940
 H290 H 0.33564 0.08324 1.18256
 H291 H 0.29998 0.08556 1.13476
 H292 H 0.30654 0.15345 1.07355
 H293 H 0.34382 0.19598 1.08162
 H294 H 0.39663 0.20015 1.15657
 C295 C 0.88089 0.65462 1.15409
 C296 C 0.87836 0.67405 1.13082
 C297 C 0.85562 0.67164 1.11177
 C298 C 0.83516 0.65030 1.11561
 C299 C 0.83733 0.63109 1.13836
 C300 C 0.86054 0.63322 1.15774
 C301 C 0.89909 0.65325 1.17766
 N302 N 0.89050 0.63153 1.19533
 C303 C 0.86678 0.61929 1.18334
 C304 C 0.81222 0.61523 1.13854
 N305 N 0.79527 0.62490 1.11656
 C306 C 0.80916 0.64624 1.10256
 C307 C 0.85596 0.69487 1.09365
 N308 N 0.87842 0.71158 1.10099
 C309 C 0.89237 0.69909 1.12377
 H310 H 0.91683 0.66755 1.18210
 H311 H 0.85403 0.60237 1.19295
 H312 H 0.80598 0.59940 1.15457
 H313 H 0.80024 0.65889 1.08502
 H314 H 0.84002 0.70012 1.07736
 H315 H 0.91002 0.70836 1.13575
 C316 C 0.86463 0.15170 0.66302
 C317 C 0.86513 0.17457 0.64282
 C318 C 0.84573 0.17469 0.62010
 C319 C 0.82611 0.15268 0.61676
 C320 C 0.82539 0.13028 0.63622
 C321 C 0.84483 0.12977 0.65960
 C322 C 0.87952 0.14597 0.68842
 N323 N 0.86926 0.12117 0.70035
 C324 C 0.84808 0.11134 0.68273
 C325 C 0.80217 0.11354 0.62854
 N326 N 0.78920 0.12567 0.60497
 C327 C 0.80380 0.14955 0.59777
 C328 C 0.84873 0.19957 0.60497
 N329 N 0.86983 0.21495 0.61734
 C330 C 0.88023 0.20005 0.64060
 H331 H 0.89621 0.15930 0.69744
 H332 H 0.83553 0.09223 0.68668
 H333 H 0.79446 0.09501 0.64030
 H334 H 0.79776 0.16430 0.58067
 H335 H 0.83610 0.20632 0.58642
 H336 H 0.89662 0.20756 0.65536
 C337 C 1.34805 0.37463 0.66994
 C338 C 1.32879 0.37886 0.64733
 C339 C 1.32706 0.35967 0.62500
 C340 C 1.34471 0.33563 0.62507
 C341 C 1.36413 0.33100 0.64750
 C342 C 1.36602 0.35114 0.67046
 C343 C 1.35194 0.38977 0.69480
 N344 N 1.37233 0.37691 0.71090
 C345 C 1.38131 0.35315 0.69645
 C346 C 1.37688 0.30489 0.64175
 N347 N 1.36557 0.29405 0.61659
 C348 C 1.34595 0.31292 0.60655
 C349 C 1.30449 0.36800 0.60767
 N350 N 1.29267 0.39180 0.61933
 C351 C 1.30747 0.39854 0.64354
 H352 H 1.34048 0.40884 0.70099
 H353 H 1.39691 0.33806 0.70461
 H354 H 1.39289 0.29475 0.65527
 H355 H 1.33310 0.31016 0.58716
 H356 H 1.29619 0.35642 0.58926
 H357 H 1.30206 0.41567 0.65818
 C358 C 1.34666 0.85910 1.17827
 C359 C 1.32383 0.86292 1.15882
 C360 C 1.32031 0.84442 1.13587
 C361 C 1.33953 0.82175 1.13214
 C362 C 1.36209 0.81814 1.15132
 C363 C 1.36568 0.83691 1.17464
 C364 C 1.35471 0.87344 1.20283
 N365 N 1.37834 0.86052 1.21447
 C366 C 1.38509 0.83810 1.19724
 C367 C 1.37679 0.79427 1.14292
 N368 N 1.36370 0.78304 1.11904
 C369 C 1.34083 0.79981 1.11244
 C370 C 1.29603 0.85282 1.12113
 N371 N 1.28480 0.87602 1.13457
 C372 C 1.30160 0.88218 1.15775
 H373 H 1.34349 0.89166 1.21140
 H374 H 1.40273 0.82353 1.20101
 H375 H 1.39520 0.78570 1.15423
 H376 H 1.32601 0.79617 1.09472
 H377 H 1.28690 0.84215 1.10254
 H378 H 1.29771 0.89928 1.17289
 C379 C 0.85600 0.36469 1.16173
 C380 C 0.83345 0.36559 1.14146
 C381 C 0.83178 0.34498 1.12029
 C382 C 0.85212 0.32336 1.11895
 C383 C 0.87416 0.32214 1.13890
 C384 C 0.87620 0.34308 1.16050
 C385 C 0.86218 0.38080 1.18581
 N386 N 0.88569 0.36956 1.19931
 C387 C 0.89425 0.34647 1.18390
 C388 C 0.88888 0.29723 1.13370
 N389 N 0.87597 0.28350 1.11110
 C390 C 0.85359 0.29958 1.10201
 C391 C 0.80666 0.34886 1.10546
 N392 N 0.79280 0.37140 1.11689
 C393 C 0.80896 0.38200 1.13897
 H394 H 0.84978 0.39887 1.19298
 H395 H 0.91207 0.33275 1.18964
 H396 H 0.90688 0.28956 1.14631
 H397 H 0.83871 0.29382 1.08494
 H398 H 0.79837 0.33546 1.08834
 H399 H 0.80269 0.39914 1.15320
 C400 C 0.84772 0.86101 0.66709
 C401 C 0.82396 0.86133 0.64784
 C402 C 0.82241 0.84109 0.62618
 C403 C 0.84392 0.82087 0.62295
 C404 C 0.86715 0.82052 0.64143
 C405 C 0.86903 0.84061 0.66374
 C406 C 0.85497 0.87649 0.69154
 N407 N 0.87996 0.86589 0.70280
 C408 C 0.88847 0.84396 0.68589
 C409 C 0.88364 0.79736 0.63394
 N410 N 0.87066 0.78394 0.61133
 C411 C 0.84634 0.79818 0.60462
 C412 C 0.79705 0.84447 0.61171
 N413 N 0.78277 0.86656 0.62341
 C414 C 0.79887 0.87723 0.64563
 H415 H 0.84239 0.89353 0.70077
 H416 H 0.90730 0.83097 0.68977
 H417 H 0.90285 0.79027 0.64500
 H418 H 0.83110 0.79196 0.58806
 H419 H 0.78927 0.83153 0.59399
 H420 H 0.79246 0.89451 0.65964
 C421 C 0.66841 0.63751 0.67701
 C422 C 0.68809 0.63970 0.65387
 C423 C 0.68795 0.66346 0.63620
 C424 C 0.66812 0.68496 0.64072
 C425 C 0.64795 0.68296 0.66288
 C426 C 0.64839 0.65891 0.68170
 C427 C 0.66472 0.61727 0.69843
 N428 N 0.64323 0.62558 0.71646
 C429 C 0.63293 0.65100 0.70630
 C430 C 0.63119 0.70734 0.66060
 N431 N 0.64141 0.72339 0.63789
 C432 C 0.66405 0.70988 0.62601
 C433 C 0.70949 0.66075 0.61605
 N434 N 0.72268 0.63563 0.62072
 C435 C 0.70995 0.62251 0.64395
 H436 H 0.67720 0.59801 0.70107
 H437 H 0.61568 0.66311 0.71599
 H438 H 0.61322 0.71300 0.67441
 H439 H 0.67635 0.71749 0.60745
 H440 H 0.71526 0.67596 0.59920
 H441 H 0.71648 0.60241 0.65340
 C442 C 0.63942 1.13111 1.16461
 C443 C 0.66078 1.12908 1.14251
 C444 C 0.65991 1.14780 1.11914
 C445 C 0.63902 1.16867 1.11738
 C446 C 0.61879 1.17141 1.13906
 C447 C 0.61866 1.15225 1.16265
 C448 C 0.63428 1.11683 1.19070
 N449 N 0.61091 1.12871 1.20419
 C450 C 0.60165 1.15049 1.18713
 C451 C 0.60425 1.19635 1.13344
 N452 N 0.61564 1.20859 1.10888
 C453 C 0.63653 1.19135 1.09878
 C454 C 0.68400 1.14425 1.10262
 N455 N 0.70012 1.12369 1.11479
 C456 C 0.68627 1.11390 1.13920
 H457 H 0.64686 1.09924 1.19893
 H458 H 0.58363 1.16421 1.19217
 H459 H 0.58772 1.20525 1.14722
 H460 H 0.65044 1.19607 1.08039
 H461 H 0.69023 1.15685 1.08380
 H462 H 0.69492 1.09850 1.15439
 C463 C 0.13904 0.62978 1.15444
 C464 C 0.15880 0.62702 1.13124
 C465 C 0.15662 0.64479 1.10722
 C466 C 0.13550 0.66575 1.10612
 C467 C 0.11652 0.66886 1.12896
 C468 C 0.11808 0.65063 1.15312
 C469 C 0.13616 0.61654 1.18126
 N470 N 0.11391 0.62890 1.19601
 C471 C 0.10302 0.64983 1.17886
 C472 C 0.10100 0.69319 1.12369
 N473 N 0.11045 0.70502 1.09820
 C474 C 0.13124 0.68801 1.08719
 C475 C 0.17942 0.63939 1.08914
 N476 N 0.19586 0.61897 1.10145
 C477 C 0.18341 0.61104 1.12721
 H478 H 0.14965 0.59951 1.18921
 H479 H 0.08543 0.66373 1.18481
 H480 H 0.08523 0.70203 1.13837
 H481 H 0.14377 0.69256 1.06778
 H482 H 0.18447 0.65048 1.06903
 H483 H 0.19186 0.59549 1.14233
 C484 C 0.13550 1.13271 0.66568
 C485 C 0.15794 1.13491 0.64477
 C486 C 0.15572 1.15476 0.62242
 C487 C 0.13147 1.17235 0.62046
 C488 C 0.10933 1.16936 0.64022
 C489 C 0.11130 1.14958 0.66270
 C490 C 0.13227 1.11850 0.69205
 N491 N 0.10679 1.12666 0.70453
 C492 C 0.09394 1.14535 0.68637
 C493 C 0.09020 1.19104 0.63557
 N494 N 0.10045 1.20777 0.61381
 C495 C 0.12558 1.19618 0.60403
 C496 C 0.18067 1.15375 0.60633
 N497 N 0.19809 1.13346 0.61764
 C498 C 0.18455 1.12194 0.64142
 H499 H 0.14784 1.10417 0.70155
 H500 H 0.07395 1.15634 0.69084
 H501 H 0.07137 1.19563 0.64867
 H502 H 0.13970 1.20500 0.58753
 H503 H 0.18579 1.16683 0.58753
 H504 H 0.19339 1.10571 0.65554
 C505 C 1.37012 0.61312 0.33817
 C506 C 1.34574 0.61479 0.35588
 C507 C 1.34328 0.63614 0.37628
 C508 C 1.36572 0.65622 0.37914
 C509 C 1.39014 0.65392 0.36192
 C510 C 1.39226 0.63240 0.34123
 C511 C 1.37533 0.59796 0.31338
 N512 N 1.40005 0.60792 0.30091
 C513 C 1.41083 0.62859 0.31824
 C514 C 1.40702 0.67733 0.36679
 N515 N 1.39359 0.69429 0.38625
 C516 C 1.36823 0.68151 0.39409
 C517 C 1.31591 0.63381 0.38805
 N518 N 1.30214 0.61158 0.37513
 C519 C 1.32020 0.60015 0.35532
 H520 H 1.36078 0.58237 0.30442
 H521 H 1.42940 0.64171 0.31307
 H522 H 1.42705 0.68243 0.35574
 H523 H 1.35219 0.69013 0.40863
 H524 H 1.30650 0.64795 0.40388
 H525 H 1.31484 0.58273 0.34101
 C526 C 1.33194 1.15821 0.79929
 C527 C 1.31587 1.15290 0.82446
 C528 C 1.31972 1.16933 0.84916
 C529 C 1.34082 1.19162 0.84847
 C530 C 1.35570 1.19693 0.82275
 C531 C 1.35128 1.18035 0.79836
 C532 C 1.33603 1.14265 0.77448
 N533 N 1.35778 1.15487 0.75897
 C534 C 1.36676 1.17833 0.77304
 C535 C 1.37570 1.21766 0.82728
 N536 N 1.37447 1.22569 0.85531
 C537 C 1.35310 1.21002 0.86874
 C538 C 1.30085 1.15783 0.86996
 N539 N 1.28635 1.13528 0.85803
 C540 C 1.29596 1.13215 0.83049
 H541 H 1.32563 1.12268 0.76934
 H542 H 1.38533 1.19105 0.76691
 H543 H 1.39091 1.22580 0.81131
 H544 H 1.34707 1.21140 0.89142
 H545 H 1.29813 1.16522 0.89201
 H546 H 1.28854 1.11601 0.81557
 C547 C 0.86558 0.62437 0.82893
 C548 C 0.84255 0.62497 0.84886
 C549 C 0.83935 0.64779 0.86770
 C550 C 0.85960 0.67046 0.86668
 C551 C 0.88214 0.66926 0.84698
 C552 C 0.88514 0.64641 0.82842
 C553 C 0.87241 0.60709 0.80571
 N554 N 0.89554 0.61867 0.79157
 C555 C 0.90340 0.64255 0.80551
 C556 C 0.89722 0.69413 0.84795
 N557 N 0.88506 0.71093 0.86806
 C558 C 0.86196 0.69687 0.87991
 C559 C 0.81416 0.64278 0.88330
 N560 N 0.80239 0.61763 0.87440
 C561 C 0.81966 0.60687 0.85335
 H562 H 0.86016 0.58885 0.79856
 H563 H 0.92014 0.65710 0.79830
 H564 H 0.91549 0.69998 0.83443
 H565 H 0.84730 0.70561 0.89583
 H566 H 0.80521 0.65658 0.89970
 H567 H 0.81567 0.58723 0.84187
 C568 C 0.84761 1.13685 0.33256
 C569 C 0.82397 1.13686 0.35188
 C570 C 0.82168 1.15822 0.37231
 C571 C 0.84266 1.17946 0.37405
 C572 C 0.86587 1.17941 0.35529
 C573 C 0.86831 1.15807 0.33435
 C574 C 0.85485 1.12031 0.30896
 N575 N 0.87931 1.13111 0.29659
 C576 C 0.88754 1.15417 0.31201
 C577 C 0.88187 1.20342 0.36094
 N578 N 0.86876 1.21791 0.38279
 C579 C 0.84474 1.20341 0.39080
 C580 C 0.79620 1.15447 0.38689
 N581 N 0.78281 1.13119 0.37625
 C582 C 0.79952 1.12013 0.35473
 H583 H 0.84243 1.10258 0.30086
 H584 H 0.90582 1.16764 0.30678
 H585 H 0.90097 1.21014 0.34924
 H586 H 0.82954 1.21019 0.40726
 H587 H 0.78769 1.16799 0.40382
 H588 H 0.79394 1.10201 0.34151
 C589 C 0.64859 0.37855 0.35194
 C590 C 0.66799 0.37803 0.37510
 C591 C 0.66671 0.35636 0.39540
 C592 C 0.64611 0.33488 0.39285
 C593 C 0.62708 0.33489 0.36975
 C594 C 0.62827 0.35715 0.34903
 C595 C 0.64639 0.39625 0.32823
 N596 N 0.62522 0.38647 0.31071
 C597 C 0.61397 0.36240 0.32326
 C598 C 0.61144 0.30986 0.37189
 N599 N 0.62070 0.29511 0.39570
 C600 C 0.64176 0.31038 0.40855
 C601 C 0.69028 0.35902 0.41308
 N602 N 0.70597 0.38171 0.40389
 C603 C 0.69237 0.39364 0.38071
 H604 H 0.65972 0.41474 0.32375
 H605 H 0.59711 0.34920 0.31440
 H606 H 0.59494 0.30290 0.35699
 H607 H 0.65371 0.30364 0.42755
 H608 H 0.69668 0.34433 0.43009
 H609 H 0.70057 0.41085 0.36730
 C610 C 0.64427 0.86736 0.83308
 C611 C 0.66648 0.86665 0.85405
 C612 C 0.66610 0.84569 0.87554
 C613 C 0.64384 0.82543 0.87652
 C614 C 0.62241 0.82637 0.85594
 C615 C 0.62263 0.84710 0.83438
 C616 C 0.63921 0.88319 0.80804
 N617 N 0.61535 0.87242 0.79476
 C618 C 0.60535 0.85038 0.81072
 C619 C 0.60516 0.80306 0.85975
 N620 N 0.61534 0.78778 0.88237
 C621 C 0.63908 0.80116 0.89298
 C622 C 0.69085 0.84852 0.89149
 N623 N 0.70642 0.87066 0.88068
 C624 C 0.69175 0.88192 0.85767
 H625 H 0.65259 0.90020 0.79948
 H626 H 0.58712 0.83715 0.80500
 H627 H 0.58712 0.79695 0.84628
 H628 H 0.65278 0.79309 0.91010
 H629 H 0.69743 0.83499 0.90940
 H630 H 0.69920 0.89920 0.84391
 C631 C 0.15512 0.36668 0.82526
 C632 C 0.17849 0.36929 0.84414
 C633 C 0.18155 0.35049 0.86716
 C634 C 0.16115 0.32867 0.87151
 C635 C 0.13802 0.32625 0.85279
 C636 C 0.13503 0.34534 0.82942
 C637 C 0.14762 0.38139 0.80061
 N638 N 0.12330 0.36950 0.78940
 C639 C 0.11551 0.34740 0.80700
 C640 C 0.12236 0.30279 0.86139
 N641 N 0.13528 0.29081 0.88498
 C642 C 0.15912 0.30643 0.89118
 C643 C 0.20678 0.35763 0.88102
 N644 N 0.21892 0.38032 0.86693
 C645 C 0.20180 0.38739 0.84425
 H646 H 0.15973 0.39904 0.79158
 H647 H 0.09720 0.33355 0.80351
 H648 H 0.10354 0.29462 0.85043
 H649 H 0.17414 0.30166 0.90846
 H650 H 0.21589 0.34643 0.89941
 H651 H 0.20620 0.40431 0.82875
 C652 C 0.14861 0.87856 0.33834
 C653 C 0.16847 0.87309 0.36063
 C654 C 0.16454 0.84994 0.37908
 C655 C 0.14053 0.83203 0.37546
 C656 C 0.12101 0.83766 0.35361
 C657 C 0.12501 0.86101 0.33526
 C658 C 0.14823 0.89745 0.31522
 N659 N 0.12492 0.89160 0.29843
 C660 C 0.11061 0.86930 0.31085
 C661 C 0.10167 0.81559 0.35272
 N662 N 0.10865 0.79668 0.37374
 C663 C 0.13245 0.80645 0.38782
 C664 C 0.18823 0.84867 0.39703
 N665 N 0.20618 0.87060 0.39018
 C666 C 0.19430 0.88546 0.36773
 H667 H 0.16435 0.91349 0.31032
 H668 H 0.09205 0.85836 0.30228
 H669 H 0.08446 0.81286 0.33717
 H670 H 0.14411 0.79503 0.40452
 H671 H 0.19241 0.83267 0.41350
 H672 H 0.20409 0.90330 0.35643
 O673 O 0.97119 0.89678 0.85009
 O674 O 0.97212 0.86485 0.81531
 C675 C 0.96185 0.88757 0.82587
 C676 C 0.93842 0.90328 0.81045
 C677 C 0.92675 0.89336 0.78402
 H678 H 0.93576 0.87448 0.77442
 O679 O 1.02731 1.10693 0.85797
 O680 O 1.02860 1.14109 0.82493
 C681 C 1.03820 1.11760 0.83499
 C682 C 1.06253 1.10247 0.82049
 C683 C 1.07303 1.11100 0.79293
 H684 H 1.06321 1.12904 0.78224
 O685 O 0.85820 0.97521 0.88635
 O686 O 0.82462 0.97641 0.85263
 C687 C 0.83453 0.96605 0.87609
 C688 C 0.81874 0.94286 0.89147
 C689 C 0.79155 0.93370 0.88190
 H690 H 0.78173 0.94405 0.86332
 O691 O 1.14795 1.03398 0.89786
 O692 O 1.18124 1.03391 0.86365
 C693 C 1.17109 1.04428 0.88694
 C694 C 1.18517 1.06926 0.90127
 C695 C 1.21049 1.08256 0.89022
 H696 H 1.22066 1.07372 0.87118
 O697 O 0.89469 0.86299 0.96540
 O698 O 0.86103 0.82978 0.96646
 C699 C 0.88454 0.83952 0.95646
 C700 C 0.89984 0.82344 0.93390
 C701 C 0.89074 0.79601 0.92680
 H702 H 0.87291 0.78634 0.93857
 O703 O 1.10147 1.14532 0.97401
 O704 O 1.13432 1.17918 0.97602
 C705 C 1.11126 1.16914 0.96527
 C706 C 1.09595 1.18461 0.94174
 C707 C 1.10540 1.21156 0.93196
 H708 H 1.12327 1.22172 0.94277
 O709 O 0.89796 1.03196 0.84749
 O710 O 0.86459 1.03309 0.81359
 C711 C 0.88783 1.04269 0.82418
 C712 C 0.90289 1.06721 0.81011
 C713 C 0.89347 1.07889 0.78343
 H714 H 0.87546 1.06900 0.77269
 O715 O 1.10643 0.97734 0.86068
 O716 O 1.13974 0.97709 0.82645
 C717 C 1.11618 0.96750 0.83689
 C718 C 1.10023 0.94460 0.82118
 C719 C 1.10910 0.93645 0.79315
 H720 H 1.12726 0.94710 0.78293
 O721 O 1.02686 0.85633 0.88980
 O722 O 1.02815 0.82431 0.85511
 C723 C 1.03743 0.83365 0.87914
 C724 C 1.06124 0.81892 0.89482
 C725 C 1.07283 0.79267 0.88536
 H726 H 1.06363 0.78234 0.86663
 O727 O 0.96936 1.14359 0.89734
 O728 O 0.96962 1.17840 0.86502
 C729 C 0.95932 1.16704 0.88812
 C730 C 0.93521 1.18065 0.90452
 C731 C 0.92464 1.20780 0.89685
 H732 H 0.93477 1.21941 0.87916
 O733 O 0.85513 1.09831 0.97387
 O734 O 0.82207 1.13185 0.97413
 C735 C 0.83238 1.10909 0.96341
 C736 C 0.81856 1.09532 0.93797
 C737 C 0.79116 1.10382 0.92817
 H738 H 0.77964 1.11985 0.94020
 O739 O 1.13955 0.89721 0.97087
 O740 O 1.17269 0.86373 0.97155
 C741 C 1.16340 0.88741 0.96199
 C742 C 1.18012 0.90378 0.94011
 C743 C 1.20758 0.89479 0.93117
 H744 H 1.21671 0.87601 0.94108
 O745 O 0.97110 1.10829 0.85397
 O746 O 0.97210 1.14286 0.82137
 C747 C 0.96211 1.11922 0.83029
 C748 C 0.93931 1.10465 0.81337
 C749 C 0.92980 1.11591 0.78670
 H750 H 0.94004 1.13489 0.77795
 O751 O 1.02711 0.90083 0.85633
 O752 O 1.02871 0.86928 0.82114
 C753 C 1.03802 0.89212 0.83282
 C754 C 1.06210 0.90828 0.81915
 C755 C 1.07129 0.90093 0.79118
 H756 H 1.05952 0.88478 0.77955
 O757 O 1.14546 0.97779 0.90122
 O758 O 1.17888 0.97759 0.86708
 C759 C 1.16857 0.96775 0.89077
 C760 C 1.18280 0.94357 0.90572
 C761 C 1.21016 0.93435 0.89707
 H762 H 1.22152 0.94596 0.88010
 O763 O 0.86123 1.03037 0.89021
 O764 O 0.82750 1.03143 0.85664
 C765 C 0.83761 1.04009 0.88072
 C766 C 0.82163 1.06172 0.89761
 C767 C 0.79434 1.07037 0.88841
 H768 H 0.78503 1.06085 0.86920
 O769 O 0.89357 1.13814 0.97588
 O770 O 0.86066 1.17180 0.97705
 C771 C 0.88392 1.16187 0.96680
 C772 C 0.89917 1.17794 0.94357
 C773 C 0.88943 1.20511 0.93585
 H774 H 0.87173 1.21460 0.94773
 O775 O 1.10010 0.85802 0.96819
 O776 O 1.13316 0.82450 0.96949
 C777 C 1.11043 0.83487 0.95861
 C778 C 1.09647 0.81994 0.93416
 C779 C 1.10731 0.79378 0.92481
 H780 H 1.12521 0.78424 0.93632
 O781 O 1.10518 1.03302 0.86194
 O782 O 1.13827 1.03269 0.82745
 C783 C 1.11494 1.04247 0.83797
 C784 C 1.09957 1.06543 0.82228
 C785 C 1.10936 1.07408 0.79482
 H786 H 1.12744 1.06322 0.78493
 O787 O 0.89988 0.97587 0.84852
 O788 O 0.86624 0.97686 0.81488
 C789 C 0.88938 0.96641 0.82507
 C790 C 0.90347 0.94223 0.81012
 C791 C 0.89236 0.93211 0.78384
 H792 H 0.87435 0.94302 0.77389
 O793 O 1.02578 1.14612 0.89741
 O794 O 1.02621 1.18059 0.86469
 C795 C 1.03558 1.16984 0.88817
 C796 C 1.05869 1.18475 0.90430
 C797 C 1.06824 1.21169 0.89508
 H798 H 1.05781 1.22203 0.87682
 O799 O 0.97056 0.85864 0.89131
 O800 O 0.97127 0.82616 0.85703
 C801 C 0.96089 0.83573 0.88070
 C802 C 0.93685 0.82113 0.89622
 C803 C 0.92721 0.79360 0.88896
 H804 H 0.93820 0.78213 0.87194
 O805 O 1.14251 1.10813 0.97183
 O806 O 1.17539 1.14197 0.97413
 C807 C 1.16594 1.11925 0.96283
 C808 C 1.18205 1.10594 0.93862
 C809 C 1.20723 1.11865 0.92764
 H810 H 1.21530 1.13787 0.93766
 O811 O 0.85533 0.90205 0.96424
 O812 O 0.82171 0.86885 0.96489
 C813 C 0.83199 0.89184 0.95437
 C814 C 0.81731 0.90663 0.92989
 C815 C 0.79005 0.89780 0.92009
 H816 H 0.77926 0.88081 0.93172
 Cu817 Cu 0.99867 0.88102 0.87530
 Cu818 Cu 1.00020 0.84314 0.83362
 Cu819 Cu 0.99825 1.12287 0.87985
 Cu820 Cu 0.99920 1.16413 0.84081
 Cu821 Cu 0.88277 1.00323 0.87131
 Cu822 Cu 0.84256 1.00471 0.83097
 Cu823 Cu 1.12323 1.00551 0.88398
 Cu824 Cu 1.16282 1.00523 0.84278
 C825 C 0.92663 0.92785 0.82309
 H826 H 0.93500 0.93539 0.84359
 C827 C 0.90349 0.90770 0.77053
 C828 C 1.07595 1.07947 0.83483
 H829 H 1.06848 1.07289 0.85619
 C830 C 1.09634 1.09650 0.77977
 C831 C 0.83128 0.92926 0.91551
 H832 H 0.85237 0.93599 0.92275
 C833 C 0.77693 0.91113 0.89586
 C834 C 1.17152 1.08120 0.92559
 H835 H 1.15196 1.07160 0.93405
 C836 C 1.22181 1.10751 0.90348
 C837 C 0.92291 0.83571 0.91878
 H838 H 0.92966 0.85707 0.92431
 C839 C 0.90391 0.78095 0.90437
 C840 C 1.07248 1.17153 0.92782
 H841 H 1.06541 1.15058 0.93478
 C842 C 1.09165 1.22521 0.90843
 C843 C 0.92597 1.08015 0.82460
 H844 H 0.93303 1.07163 0.84531
 C845 C 0.90697 1.10335 0.77132
 C846 C 1.07653 0.93033 0.83402
 H847 H 1.06965 0.93603 0.85573
 C848 C 1.09493 0.91459 0.77810
 C849 C 1.07332 0.83216 0.91929
 H850 H 1.06510 0.85248 0.92647
 C851 C 1.09605 0.77991 0.90050
 C852 C 0.92219 1.16595 0.92802
 H853 H 0.92958 1.14487 0.93390
 C854 C 0.90151 1.22007 0.91248
 C855 C 0.83350 1.07412 0.92256
 H856 H 0.85473 1.06765 0.92962
 C857 C 0.77890 1.09134 0.90325
 C858 C 1.16811 0.92831 0.92748
 H859 H 1.14677 0.93506 0.93397
 C860 C 1.22282 0.91002 0.90958
 O861 O 1.02567 0.90059 1.14552
 O862 O 1.02452 0.86605 1.17824
 C863 C 1.03501 0.88932 1.16875
 C864 C 1.05855 0.90344 1.18451
 C865 C 1.06593 0.89517 1.21277
 H866 H 1.05385 0.87826 1.22340
 O867 O 0.97271 1.09558 1.15337
 O868 O 0.97201 1.12885 1.18689
 C869 C 0.96214 1.10585 1.17658
 C870 C 0.93713 1.09156 1.19062
 C871 C 0.92629 1.10058 1.21765
 H872 H 0.93780 1.11693 1.22926
 O873 O 0.85308 1.02644 1.10700
 O874 O 0.81869 1.02409 1.14018
 C875 C 0.82892 1.03448 1.11684
 C876 C 0.81282 1.05645 1.10120
 C877 C 0.78502 1.06374 1.11008
 H878 H 0.77498 1.05245 1.12811
 O879 O 1.14173 0.96928 1.10585
 O880 O 1.17673 0.96815 1.13809
 C881 C 1.16524 0.95880 1.11507
 C882 C 1.17892 0.93511 1.09911
 C883 C 1.20590 0.92437 1.10773
 H884 H 1.21719 0.93438 1.12545
 O885 O 1.09702 0.85808 1.02502
 O886 O 1.12965 0.82410 1.02608
 C887 C 1.10614 0.83465 1.03518
 C888 C 1.08944 0.82008 1.05833
 C889 C 1.09534 0.79176 1.06616
 H890 H 1.11212 0.78071 1.05459
 O891 O 0.89448 1.13357 1.03277
 O892 O 0.86196 1.16759 1.03368
 C893 C 0.88517 1.15664 1.04335
 C894 C 0.90148 1.17071 1.06715
 C895 C 0.89438 1.19846 1.07590
 H896 H 0.87714 1.20925 1.06476
 O897 O 0.89364 0.97246 1.14622
 O898 O 0.85956 0.97077 1.17980
 C899 C 0.88361 0.96259 1.16993
 C900 C 0.89997 0.94124 1.18609
 C901 C 0.89242 0.93438 1.21467
 H902 H 0.87480 0.94556 1.22502
 O903 O 1.10613 1.02563 1.14755
 O904 O 1.14126 1.02479 1.17964
 C905 C 1.11754 1.03484 1.17077
 C906 C 1.10300 1.05763 1.18727
 C907 C 1.11389 1.06721 1.21390
 H908 H 1.13305 1.05740 1.22279
 O909 O 0.96836 0.86690 1.10362
 O910 O 0.96728 0.83202 1.13598
 C911 C 0.95834 0.84328 1.11244
 C912 C 0.93670 0.82811 1.09499
 C913 C 0.93141 0.79939 1.10088
 H914 H 0.94309 0.78874 1.11816
 O915 O 1.02848 1.13495 1.11237
 O916 O 1.02752 1.16841 1.14571
 C917 C 1.03744 1.15864 1.12204
 C918 C 1.05981 1.17489 1.10583
 C919 C 1.06765 1.20235 1.11479
 H920 H 1.05691 1.21178 1.13331
 O921 O 0.85563 0.90305 1.02127
 O922 O 0.82240 0.86944 1.02170
 C923 C 0.83253 0.89250 1.03154
 C924 C 0.81792 0.90589 1.05634
 C925 C 0.79253 0.89361 1.06714
 H926 H 0.78263 0.87590 1.05593
 O927 O 1.14067 1.10292 1.02794
 O928 O 1.17422 1.13613 1.03018
 C929 C 1.16429 1.11201 1.03809
 C930 C 1.18009 1.09422 1.05934
 C931 C 1.20934 1.09926 1.06516
 H932 H 1.22012 1.11630 1.05360
 O933 O 1.02949 1.09603 1.15281
 O934 O 1.02893 1.12943 1.18617
 C935 C 1.03950 1.10665 1.17602
 C936 C 1.06444 1.09265 1.19029
 C937 C 1.07559 1.10213 1.21699
 H938 H 1.06469 1.11933 1.22779
 O939 O 0.96987 0.90057 1.14793
 O940 O 0.96866 0.86601 1.18062
 C941 C 0.95991 0.88988 1.17140
 C942 C 0.93731 0.90532 1.18726
 C943 C 0.92939 0.89817 1.21600
 H944 H 0.94097 0.88149 1.22716
 O945 O 1.14061 1.02463 1.10320
 O946 O 1.17604 1.02355 1.13500
 C947 C 1.16486 1.03340 1.11180
 C948 C 1.18017 1.05545 1.09487
 C949 C 1.20927 1.06050 1.10015
 H950 H 1.22041 1.04759 1.11615
 O951 O 0.85619 0.97169 1.10478
 O952 O 0.82206 0.96921 1.13821
 C953 C 0.83294 0.96086 1.11434
 C954 C 0.81863 0.93813 1.09766
 C955 C 0.79356 0.92500 1.10849
 H956 H 0.78413 0.93226 1.12867
 O957 O 1.10159 1.14209 1.03095
 O958 O 1.13462 1.17577 1.03314
 C959 C 1.11132 1.16469 1.04237
 C960 C 1.09573 1.17796 1.06695
 C961 C 1.10321 1.20543 1.07626
 H962 H 1.11948 1.21715 1.06429
 O963 O 0.89506 0.86453 1.02192
 O964 O 0.86196 0.83076 1.02264
 C965 C 0.88532 0.84126 1.03224
 C966 C 0.90124 0.82660 1.05589
 C967 C 0.89601 0.79772 1.06243
 H968 H 0.88069 0.78595 1.04953
 O969 O 1.10283 0.97083 1.14592
 O970 O 1.13746 0.96961 1.17859
 C971 C 1.11331 0.96089 1.16924
 C972 C 1.09713 0.93858 1.18493
 C973 C 1.10444 0.93020 1.21329
 H974 H 1.12195 0.94096 1.22404
 O975 O 0.89257 1.02713 1.14647
 O976 O 0.85834 1.02542 1.17984
 C977 C 0.88195 1.03567 1.17031
 C978 C 0.89736 1.05770 1.18700
 C979 C 0.88685 1.06685 1.21396
 H980 H 0.86733 1.05746 1.22281
 O981 O 0.97261 1.13148 1.11079
 O982 O 0.97173 1.16509 1.14397
 C983 C 0.96236 1.15456 1.12036
 C984 C 0.93923 1.16947 1.10425
 C985 C 0.93177 1.19709 1.11240
 H986 H 0.94338 1.20729 1.12988
 O987 O 1.02375 0.86266 1.10495
 O988 O 1.02251 0.82799 1.13753
 C989 C 1.03216 0.83847 1.11392
 C990 C 1.05334 0.82229 1.09682
 C991 C 1.05917 0.79395 1.10411
 H992 H 1.04756 0.78391 1.12195
 O993 O 1.13793 0.89553 1.02721
 O994 O 1.17065 0.86163 1.02770
 C995 C 1.16090 0.88486 1.03747
 C996 C 1.17653 0.89920 1.06116
 C997 C 1.20347 0.88895 1.06992
 H998 H 1.21293 0.87099 1.05878
 O999 O 0.85069 1.09889 1.03064
 O1000 O 0.81778 1.13255 1.03127
 C1001 C 0.82717 1.10893 1.04053
 C1002 C 0.81155 1.09320 1.06380
 C1003 C 0.78359 1.10070 1.07307
 H1004 H 0.77246 1.11763 1.06180
 Cu1005 Cu 0.99706 0.88636 1.12242
 Cu1006 Cu 0.99557 0.84449 1.16136
 Cu1007 Cu 1.00110 1.11092 1.12929
 Cu1008 Cu 0.99992 1.15123 1.16907
 Cu1009 Cu 0.87848 0.88661 0.99298
 Cu1010 Cu 0.83829 0.84647 0.99401
 Cu1011 Cu 1.11525 0.88053 0.99768
 Cu1012 Cu 1.15476 0.84002 0.99876
 Cu1013 Cu 0.87659 1.11383 1.00337
 Cu1014 Cu 0.83741 1.15426 1.00416
 Cu1015 Cu 1.11817 1.12137 1.00095
 Cu1016 Cu 1.15782 1.16175 1.00379
 Cu1017 Cu 0.87733 0.99967 1.12267
 Cu1018 Cu 0.83610 0.99715 1.16285
 Cu1019 Cu 1.11933 0.99770 1.12245
 Cu1020 Cu 1.16151 0.99651 1.16100
 C1021 C 1.07414 0.92522 1.17088
 H1022 H 1.06868 0.93140 1.14885
 C1023 C 1.08879 0.90839 1.22743
 C1024 C 0.92258 1.07000 1.17567
 H1025 H 0.93055 1.06324 1.15467
 C1026 C 0.90091 1.08840 1.22942
 C1027 C 0.82574 1.07094 1.07797
 H1028 H 0.84741 1.06536 1.07143
 C1029 C 0.77021 1.08590 1.09651
 C1030 C 1.16449 0.92243 1.07570
 H1031 H 1.14356 0.93024 1.06916
 C1032 C 1.21824 0.90108 1.09323
 C1033 C 1.06820 0.83509 1.07362
 H1034 H 1.06388 0.85709 1.06806
 C1035 C 1.07996 0.77838 1.08898
 C1036 C 0.92417 1.15643 1.08139
 H1037 H 0.92975 1.13498 1.07507
 C1038 C 0.90958 1.21188 1.09856
 C1039 C 0.92260 0.92700 1.17268
 H1040 H 0.92813 0.93221 1.15035
 C1041 C 0.90675 0.91286 1.22987
 C1042 C 1.07822 1.07029 1.17590
 H1043 H 1.06999 1.06309 1.15522
 C1044 C 1.10049 1.08941 1.22915
 C1045 C 0.92182 0.84160 1.07224
 H1046 H 0.92593 0.86386 1.06757
 C1047 C 0.91126 0.78402 1.08496
 C1048 C 1.07387 1.16293 1.08176
 H1049 H 1.06820 1.14166 1.07488
 C1050 C 1.08937 1.21778 1.10034
 C1051 C 0.83073 0.92841 1.07147
 H1052 H 0.85061 0.93768 1.06339
 C1053 C 0.78083 0.90234 1.09349
 C1054 C 1.16574 1.07207 1.07414
 H1055 H 1.14308 1.06829 1.07014
 C1056 C 1.22414 1.08226 1.08561
 O1057 O 0.97171 0.40384 0.34548
 O1058 O 0.97242 0.37108 0.31144
 C1059 C 0.96221 0.39383 0.32171
 C1060 C 0.93822 0.40830 0.30674
 C1061 C 0.92761 0.39850 0.27997
 H1062 H 0.93855 0.38108 0.26959
 O1063 O 1.03299 0.60320 0.34805
 O1064 O 1.03354 0.63661 0.31422
 C1065 C 1.04369 0.61368 0.32488
 C1066 C 1.06856 0.59924 0.31072
 C1067 C 1.07824 0.60761 0.28285
 H1068 H 1.06664 0.62421 0.27165
 O1069 O 0.86230 0.47536 0.39289
 O1070 O 0.82682 0.47507 0.36117
 C1071 C 0.83825 0.46571 0.38451
 C1072 C 0.82328 0.44357 0.40208
 C1073 C 0.79423 0.43747 0.39681
 H1074 H 0.78289 0.44906 0.37996
 O1075 O 1.15057 0.53047 0.39466
 O1076 O 1.18454 0.53175 0.36109
 C1077 C 1.17374 0.54106 0.38470
 C1078 C 1.18733 0.56512 0.40042
 C1079 C 1.21550 0.57427 0.39382
 H1080 H 1.22782 0.56248 0.37802
 O1081 O 0.89963 0.36000 0.47163
 O1082 O 0.86729 0.32564 0.47010
 C1083 C 0.89025 0.33713 0.46049
 C1084 C 0.90555 0.32428 0.43549
 C1085 C 0.89784 0.29702 0.42591
 H1086 H 0.88212 0.28492 0.43825
 O1087 O 1.10068 0.64448 0.46866
 O1088 O 1.13329 0.67872 0.46855
 C1089 C 1.11008 0.66799 0.45893
 C1090 C 1.09424 0.68298 0.43591
 C1091 C 1.10030 0.71153 0.43026
 H1092 H 1.11588 0.72260 0.44360
 O1093 O 0.89886 0.53091 0.35011
 O1094 O 0.86403 0.53068 0.31768
 C1095 C 0.88803 0.54033 0.32670
 C1096 C 0.90356 0.56282 0.31008
 C1097 C 0.89423 0.57138 0.28243
 H1098 H 0.87563 0.56111 0.27293
 O1099 O 1.11082 0.47628 0.35441
 O1100 O 1.14396 0.47696 0.31997
 C1101 C 1.12022 0.46745 0.33023
 C1102 C 1.10328 0.44591 0.31408
 C1103 C 1.11139 0.43792 0.28589
 H1104 H 1.13014 0.44763 0.27576
 O1105 O 1.02681 0.36505 0.38646
 O1106 O 1.02724 0.33235 0.35228
 C1107 C 1.03631 0.34179 0.37629
 C1108 C 1.05827 0.32568 0.39241
 C1109 C 1.06515 0.29784 0.38435
 H1110 H 1.05382 0.28789 0.36653
 O1111 O 0.97443 0.64011 0.38651
 O1112 O 0.97457 0.67389 0.35300
 C1113 C 0.96448 0.66331 0.37651
 C1114 C 0.94087 0.67792 0.39235
 C1115 C 0.93127 0.70490 0.38341
 H1116 H 0.94138 0.71529 0.36489
 O1117 O 0.85918 0.60340 0.46673
 O1118 O 0.82578 0.63666 0.46763
 C1119 C 0.83555 0.61354 0.45757
 C1120 C 0.81976 0.59833 0.43467
 C1121 C 0.79127 0.60554 0.42766
 H1122 H 0.78052 0.62189 0.43999
 O1123 O 1.14452 0.39813 0.46185
 O1124 O 1.17632 0.36339 0.46290
 C1125 C 1.16773 0.38695 0.45272
 C1126 C 1.18493 0.40127 0.42990
 C1127 C 1.21112 0.38964 0.42084
 H1128 H 1.21892 0.37040 0.43123
 O1129 O 0.97627 0.60297 0.34557
 O1130 O 0.97645 0.63624 0.31157
 C1131 C 0.96644 0.61308 0.32193
 C1132 C 0.94230 0.59816 0.30732
 C1133 C 0.93261 0.60654 0.27959
 H1134 H 0.94411 0.62318 0.26808
 O1135 O 1.02801 0.40715 0.34961
 O1136 O 1.02872 0.37438 0.31555
 C1137 C 1.03856 0.39732 0.32632
 C1138 C 1.06302 0.41220 0.31202
 C1139 C 1.07140 0.40473 0.28380
 H1140 H 1.05860 0.38939 0.27213
 O1141 O 1.15362 0.47464 0.39016
 O1142 O 1.18749 0.47528 0.35655
 C1143 C 1.17687 0.46459 0.37961
 C1144 C 1.19036 0.43945 0.39411
 C1145 C 1.21689 0.42743 0.38502
 H1146 H 1.22859 0.43729 0.36724
 O1147 O 0.85875 0.53061 0.38965
 O1148 O 0.82366 0.53025 0.35750
 C1149 C 0.83465 0.53985 0.38062
 C1150 C 0.81945 0.56212 0.39707
 C1151 C 0.79099 0.56942 0.39031
 H1152 H 0.77988 0.55827 0.37311
 O1153 O 0.90018 0.64045 0.46580
 O1154 O 0.86705 0.67394 0.46636
 C1155 C 0.89009 0.66357 0.45586
 C1156 C 0.90488 0.67817 0.43137
 C1157 C 0.89573 0.70516 0.42214
 H1158 H 0.87884 0.71568 0.43414
 O1159 O 1.10221 0.36193 0.46242
 O1160 O 1.13411 0.32726 0.46313
 C1161 C 1.11119 0.33821 0.45312
 C1162 C 1.09489 0.32367 0.43007
 C1163 C 1.10162 0.29576 0.42179
 H1164 H 1.11905 0.28480 0.43257
 O1165 O 1.11319 0.53145 0.35274
 O1166 O 1.14701 0.53237 0.31899
 C1167 C 1.12331 0.54155 0.32907
 C1168 C 1.10746 0.56420 0.31312
 C1169 C 1.11669 0.57290 0.28533
 H1170 H 1.13523 0.56274 0.27557
 O1171 O 0.89624 0.47576 0.34786
 O1172 O 0.86103 0.47535 0.31586
 C1173 C 0.88504 0.46609 0.32473
 C1174 C 0.90001 0.44351 0.30851
 C1175 C 0.88949 0.43357 0.28185
 H1176 H 0.87044 0.44321 0.27255
 O1177 O 1.03002 0.64290 0.38706
 O1178 O 1.03050 0.67676 0.35365
 C1179 C 1.03923 0.66679 0.37779
 C1180 C 1.06037 0.68268 0.39553
 C1181 C 1.06714 0.71145 0.38971
 H1182 H 1.05647 0.72243 0.37206
 O1183 O 0.97115 0.36791 0.38849
 O1184 O 0.97179 0.33476 0.35481
 C1185 C 0.96198 0.34446 0.37866
 C1186 C 0.93988 0.32818 0.39515
 C1187 C 0.93169 0.30097 0.38591
 H1188 H 0.94157 0.29191 0.36672
 O1189 O 1.14290 0.60841 0.46795
 O1190 O 1.17557 0.64257 0.46761
 C1191 C 1.16631 0.61892 0.45820
 C1192 C 1.18314 0.60343 0.43596
 C1193 C 1.21124 0.61219 0.42906
 H1194 H 1.22054 0.63026 0.44016
 O1195 O 0.86204 0.40013 0.47332
 O1196 O 0.82887 0.36650 0.47163
 C1197 C 0.83884 0.39043 0.46291
 C1198 C 0.82345 0.40707 0.44034
 C1199 C 0.79433 0.40153 0.43482
 H1200 H 0.78339 0.38583 0.44813
 Cu1201 Cu 0.99938 0.38941 0.37074
 Cu1202 Cu 1.00001 0.35003 0.33003
 Cu1203 Cu 1.00354 0.61883 0.36993
 Cu1204 Cu 1.00387 0.65907 0.32956
 Cu1205 Cu 0.88254 0.50321 0.37325
 Cu1206 Cu 0.84038 0.50279 0.33491
 Cu1207 Cu 1.12903 0.50315 0.37651
 Cu1208 Cu 1.16918 0.50412 0.33591
 C1209 C 0.92450 0.43096 0.32050
 H1210 H 0.93239 0.43829 0.34128
 C1211 C 0.90304 0.41102 0.26726
 C1212 C 1.08325 0.57736 0.32553
 H1213 H 1.07615 0.57090 0.34704
 C1214 C 1.10236 0.59443 0.26982
 C1215 C 0.83775 0.42838 0.42408
 H1216 H 0.86028 0.43275 0.42817
 C1217 C 0.77954 0.41656 0.41296
 C1218 C 1.17144 0.57979 0.42169
 H1219 H 1.14965 0.57312 0.42679
 C1220 C 1.22765 0.59792 0.40814
 C1221 C 0.92676 0.33967 0.42007
 H1222 H 0.93265 0.36082 0.42715
 C1223 C 0.91054 0.28537 0.40088
 C1224 C 1.07403 0.66873 0.41880
 H1225 H 1.06948 0.64649 0.42319
 C1226 C 1.08718 0.72594 0.40728
 C1227 C 0.92772 0.57617 0.32217
 H1228 H 0.93480 0.56987 0.34367
 C1229 C 0.90845 0.59320 0.26694
 C1230 C 1.07893 0.43296 0.32695
 H1231 H 1.07268 0.43863 0.34886
 C1232 C 1.09577 0.41722 0.27068
 C1233 C 1.07293 0.33830 0.41550
 H1234 H 1.06782 0.35994 0.42153
 C1235 C 1.08645 0.28255 0.39910
 C1236 C 0.92754 0.66477 0.41646
 H1237 H 0.93451 0.64384 0.42338
 C1238 C 0.90864 0.71863 0.39804
 C1239 C 0.83356 0.57655 0.41937
 H1240 H 0.85563 0.57115 0.42449
 C1241 C 0.77670 0.59112 0.40537
 C1242 C 1.17497 0.42618 0.41678
 H1243 H 1.15454 0.43484 0.42382
 C1244 C 1.22758 0.40237 0.39872
 O1245 O 1.03406 0.39922 0.64328
 O1246 O 1.03484 0.36583 0.67717
 C1247 C 1.04460 0.38888 0.66651
 C1248 C 1.06890 0.40366 0.68062
 C1249 C 1.07990 0.39432 0.70751
 H1250 H 1.06968 0.37648 0.71832
 O1251 O 0.97505 0.59784 0.63940
 O1252 O 0.97366 0.62950 0.67456
 C1253 C 0.96489 0.60644 0.66345
 C1254 C 0.94223 0.58972 0.67833
 C1255 C 0.93518 0.59504 0.70750
 H1256 H 0.94783 0.61038 0.71934
 O1257 O 0.85865 0.52270 0.59594
 O1258 O 0.82556 0.52380 0.63048
 C1259 C 0.83563 0.53283 0.60639
 C1260 C 0.82089 0.55610 0.59107
 C1261 C 0.79393 0.56511 0.60083
 H1262 H 0.78332 0.55392 0.61859
 O1263 O 1.14524 0.47448 0.59579
 O1264 O 1.18068 0.47409 0.62757
 C1265 C 1.16926 0.46493 0.60431
 C1266 C 1.18361 0.44251 0.58723
 C1267 C 1.21204 0.43464 0.59330
 H1268 H 1.22382 0.44639 0.60951
 O1269 O 1.10227 0.36191 0.51904
 O1270 O 1.13459 0.32761 0.51936
 C1271 C 1.11153 0.33840 0.52901
 C1272 C 1.09590 0.32332 0.55237
 C1273 C 1.10299 0.29511 0.55875
 H1274 H 1.11890 0.28431 0.54555
 O1275 O 0.89999 0.64090 0.52261
 O1276 O 0.86713 0.67465 0.52336
 C1277 C 0.89042 0.66407 0.53281
 C1278 C 0.90623 0.67826 0.55649
 C1279 C 0.89864 0.70570 0.56561
 H1280 H 0.88205 0.71713 0.55400
 O1281 O 0.89786 0.46877 0.63708
 O1282 O 0.86503 0.47009 0.67188
 C1283 C 0.88857 0.46064 0.66172
 C1284 C 0.90552 0.44032 0.67895
 C1285 C 0.89853 0.43514 0.70807
 H1286 H 0.88044 0.44611 0.71781
 O1287 O 1.10820 0.52816 0.63876
 O1288 O 1.14307 0.52853 0.67115
 C1289 C 1.11898 0.53770 0.66205
 C1290 C 1.10313 0.56000 0.67797
 C1291 C 1.11190 0.56950 0.70551
 H1292 H 1.13032 0.55976 0.71583
 O1293 O 0.97622 0.36187 0.60497
 O1294 O 0.97680 0.32855 0.63898
 C1295 C 0.96663 0.33864 0.61550
 C1296 C 0.94332 0.32325 0.60049
 C1297 C 0.93455 0.29641 0.61058
 H1298 H 0.94526 0.28677 0.62907
 O1299 O 1.03043 0.64027 0.60188
 O1300 O 1.02866 0.67221 0.63675
 C1301 C 1.03904 0.66349 0.61287
 C1302 C 1.06159 0.68030 0.59784
 C1303 C 1.06914 0.70743 0.60764
 H1304 H 1.05785 0.71632 0.62611
 O1305 O 0.85638 0.39310 0.52918
 O1306 O 0.82387 0.35893 0.52786
 C1307 C 0.83298 0.38200 0.53853
 C1308 C 0.81722 0.39630 0.56247
 C1309 C 0.79078 0.38619 0.57404
 H1310 H 0.78082 0.36768 0.56451
 O1311 O 1.14179 0.60666 0.52404
 O1312 O 1.17487 0.64047 0.52363
 C1313 C 1.16540 0.61675 0.53308
 C1314 C 1.18197 0.60069 0.55478
 C1315 C 1.21026 0.60859 0.56133
 H1316 H 1.22000 0.62657 0.55011
 O1317 O 1.03101 0.59924 0.63950
 O1318 O 1.02943 0.63115 0.67440
 C1319 C 1.04008 0.60878 0.66351
 C1320 C 1.06380 0.59423 0.67856
 C1321 C 1.07240 0.60313 0.70610
 H1322 H 1.06075 0.62006 0.71683
 O1323 O 0.97807 0.40092 0.64397
 O1324 O 0.97837 0.36799 0.67836
 C1325 C 0.96855 0.39111 0.66788
 C1326 C 0.94502 0.40655 0.68258
 C1327 C 0.93778 0.40141 0.71185
 H1328 H 0.95069 0.38658 0.72416
 O1329 O 1.14636 0.52957 0.59780
 O1330 O 1.18165 0.52939 0.62975
 C1331 C 1.17028 0.53922 0.60678
 C1332 C 1.18460 0.56251 0.59059
 C1333 C 1.21299 0.57057 0.59698
 H1334 H 1.22435 0.55864 0.61339
 O1335 O 0.85588 0.46742 0.60043
 O1336 O 0.82288 0.46869 0.63502
 C1337 C 0.83261 0.45818 0.61173
 C1338 C 0.81730 0.43436 0.59806
 C1339 C 0.79106 0.42446 0.60925
 H1340 H 0.78128 0.43530 0.62750
 O1341 O 1.10398 0.64689 0.52536
 O1342 O 1.13667 0.68100 0.52518
 C1343 C 1.11372 0.67017 0.53546
 C1344 C 1.09831 0.68398 0.55993
 C1345 C 1.10588 0.71129 0.57011
 H1346 H 1.12281 0.72300 0.55912
 O1347 O 0.90053 0.35928 0.52890
 O1348 O 0.86816 0.32495 0.52776
 C1349 C 0.89101 0.33567 0.53842
 C1350 C 0.90639 0.32137 0.56277
 C1351 C 0.89782 0.29445 0.57332
 H1352 H 0.88061 0.28331 0.56241
 O1353 O 1.10937 0.47314 0.63881
 O1354 O 1.14446 0.47313 0.67098
 C1355 C 1.12064 0.46341 0.66192
 C1356 C 1.10610 0.44024 0.67811
 C1357 C 1.11678 0.43085 0.70491
 H1358 H 1.13545 0.44129 0.71409
 O1359 O 0.89700 0.52332 0.63664
 O1360 O 0.86373 0.52431 0.67106
 C1361 C 0.88745 0.53299 0.66052
 C1362 C 0.90413 0.55423 0.67654
 C1363 C 0.89713 0.55992 0.70556
 H1364 H 0.87952 0.54860 0.71606
 O1365 O 0.97482 0.63763 0.60008
 O1366 O 0.97323 0.66949 0.63505
 C1367 C 0.96458 0.66028 0.61071
 C1368 C 0.94233 0.67608 0.59472
 C1369 C 0.93459 0.70345 0.60353
 H1370 H 0.94534 0.71313 0.62187
 O1371 O 1.03166 0.36221 0.60208
 O1372 O 1.03249 0.32828 0.63543
 C1373 C 1.04111 0.33854 0.61122
 C1374 C 1.06232 0.32317 0.59320
 C1375 C 1.07010 0.29494 0.59968
 H1376 H 1.06067 0.28461 0.61850
 O1377 O 1.14204 0.40052 0.51803
 O1378 O 1.17448 0.36631 0.51880
 C1379 C 1.16518 0.39009 0.52787
 C1380 C 1.18140 0.40573 0.55013
 C1381 C 1.20968 0.39790 0.55673
 H1382 H 1.21969 0.38043 0.54526
 O1383 O 0.86075 0.60163 0.52284
 O1384 O 0.82752 0.63503 0.52389
 C1385 C 0.83739 0.61142 0.53302
 C1386 C 0.82191 0.59522 0.55595
 C1387 C 0.79498 0.60427 0.56636
 H1388 H 0.78496 0.62282 0.55675
 Cu1389 Cu 1.00501 0.38453 0.62034
 Cu1390 Cu 1.00575 0.34434 0.66100
 Cu1391 Cu 1.00295 0.61546 0.61671
 Cu1392 Cu 1.00097 0.65376 0.65880
 Cu1393 Cu 0.88287 0.38134 0.50118
 Cu1394 Cu 0.84403 0.34048 0.49888
 Cu1395 Cu 1.11943 0.38407 0.49014
 Cu1396 Cu 1.15807 0.34262 0.49123
 Cu1397 Cu 0.88341 0.61830 0.49448
 Cu1398 Cu 0.84365 0.65860 0.49547
 Cu1399 Cu 1.11891 0.62335 0.49657
 Cu1400 Cu 1.15832 0.66422 0.49613
 Cu1401 Cu 0.88053 0.49540 0.61380
 Cu1402 Cu 0.84077 0.49683 0.65546
 Cu1403 Cu 1.12376 0.50141 0.61460
 Cu1404 Cu 1.16606 0.50122 0.65309
 C1405 C 1.08202 0.42674 0.66629
 H1406 H 1.07391 0.43379 0.64541
 C1407 C 1.10397 0.40794 0.71990
 C1408 C 0.92678 0.56903 0.66307
 H1409 H 0.93191 0.56493 0.64049
 C1410 C 0.91223 0.58043 0.72115
 C1411 C 0.83462 0.57096 0.56838
 H1412 H 0.85569 0.56419 0.56107
 C1413 C 0.78112 0.58937 0.58912
 C1414 C 1.16852 0.42814 0.56536
 H1415 H 1.14645 0.43391 0.56066
 C1416 C 1.22505 0.41196 0.57842
 C1417 C 1.07522 0.33712 0.56931
 H1418 H 1.06989 0.35905 0.56442
 C1419 C 1.09036 0.28066 0.58217
 C1420 C 0.92827 0.66371 0.57105
 H1421 H 0.93400 0.64238 0.56446
 C1422 C 0.91265 0.71830 0.58941
 C1423 C 0.92884 0.42617 0.66644
 H1424 H 0.93401 0.43001 0.64375
 C1425 C 0.91427 0.41571 0.72475
 C1426 C 1.07901 0.57250 0.66481
 H1427 H 1.07242 0.56580 0.64335
 C1428 C 1.09648 0.59127 0.71962
 C1429 C 0.92929 0.33550 0.57654
 H1430 H 0.93590 0.35638 0.56894
 C1431 C 0.91175 0.28196 0.59752
 C1432 C 1.07608 0.66891 0.57393
 H1433 H 1.07037 0.64781 0.56654
 C1434 C 1.09118 0.72324 0.59412
 C1435 C 0.82991 0.42046 0.57463
 H1436 H 0.85034 0.42819 0.56627
 C1437 C 0.77749 0.40041 0.59767
 C1438 C 1.16938 0.57751 0.56928
 H1439 H 1.14735 0.57158 0.56449
 C1440 C 1.22606 0.59378 0.58239
 O1441 O 0.59884 1.03289 0.64509
 O1442 O 0.63263 1.03447 0.67858
 C1443 C 0.60920 1.04365 0.66811
 C1444 C 0.59393 1.06736 0.68237
 C1445 C 0.60346 1.07848 0.70905
 H1446 H 0.62193 1.06892 0.71933
 O1447 O 0.38852 0.97287 0.64424
 O1448 O 0.35560 0.97256 0.67890
 C1449 C 0.37918 0.96353 0.66857
 C1450 C 0.39607 0.94197 0.68479
 C1451 C 0.38884 0.93406 0.71360
 H1452 H 0.37076 0.94404 0.72432
 O1453 O 0.52330 1.14167 0.59674
 O1454 O 0.52435 1.17540 0.62976
 C1455 C 0.53383 1.16467 0.60624
 C1456 C 0.55788 1.17850 0.59017
 C1457 C 0.56771 1.20560 0.59812
 H1458 H 0.55635 1.21681 0.61503
 O1459 O 0.46819 0.85862 0.61158
 O1460 O 0.46789 0.82746 0.64766
 C1461 C 0.45814 0.83615 0.62341
 C1462 C 0.43448 0.82030 0.60912
 C1463 C 0.42529 0.79393 0.62024
 H1464 H 0.43617 0.78479 0.63888
 O1465 O 0.64062 1.09953 0.52053
 O1466 O 0.67530 1.13168 0.51954
 C1467 C 0.66449 1.10894 0.52995
 C1468 C 0.67912 1.09359 0.55386
 C1469 C 0.70772 1.09995 0.56149
 H1470 H 0.71967 1.11537 0.54867
 O1471 O 0.35408 0.89341 0.53160
 O1472 O 0.31911 0.86153 0.53250
 C1473 C 0.32969 0.88497 0.54079
 C1474 C 0.31339 0.90247 0.56136
 C1475 C 0.28418 0.89701 0.56613
 H1476 H 0.27357 0.88019 0.55419
 O1477 O 0.46699 1.10391 0.63746
 O1478 O 0.46661 1.13782 0.67033
 C1479 C 0.45662 1.11454 0.66044
 C1480 C 0.43201 1.10023 0.67509
 C1481 C 0.41831 1.11312 0.69881
 H1482 H 0.42658 1.13293 0.70733
 O1483 O 0.52430 0.89950 0.64947
 O1484 O 0.52405 0.86842 0.68561
 C1485 C 0.53383 0.89105 0.67395
 C1486 C 0.55687 0.90756 0.68852
 C1487 C 0.56754 0.89946 0.71599
 H1488 H 0.55780 0.88158 0.72725
 O1489 O 0.63692 0.97506 0.60804
 O1490 O 0.67065 0.97665 0.64164
 C1491 C 0.66037 0.96589 0.61867
 C1492 C 0.67566 0.94218 0.60448
 C1493 C 0.70252 0.93324 0.61492
 H1494 H 0.71241 0.94421 0.63297
 O1495 O 0.34790 1.02800 0.60469
 O1496 O 0.31483 1.02729 0.63922
 C1497 C 0.32461 1.03752 0.61557
 C1498 C 0.30933 1.06134 0.60106
 C1499 C 0.28265 1.07084 0.61160
 H1500 H 0.27267 1.05987 0.62985
 O1501 O 0.38727 1.14511 0.52988
 O1502 O 0.35349 1.17783 0.52868
 C1503 C 0.37705 1.16851 0.53899
 C1504 C 0.39305 1.18409 0.56217
 C1505 C 0.38349 1.21019 0.57415
 H1506 H 0.36392 1.21972 0.56605
 O1507 O 0.60044 0.85673 0.53756
 O1508 O 0.63454 0.82424 0.53855
 C1509 C 0.61113 0.83417 0.54846
 C1510 C 0.59633 0.82010 0.57339
 C1511 C 0.60698 0.79503 0.58641
 H1512 H 0.62575 0.78490 0.57717
 O1513 O 0.39108 1.02776 0.63960
 O1514 O 0.35814 1.02799 0.67429
 C1515 C 0.38127 1.03783 0.66304
 C1516 C 0.39586 1.06223 0.67664
 C1517 C 0.38314 1.07504 0.70076
 H1518 H 0.36387 1.06593 0.71047
 O1519 O 0.59643 0.97758 0.64649
 O1520 O 0.63019 0.97914 0.68005
 C1521 C 0.60673 0.96900 0.67045
 C1522 C 0.59198 0.94624 0.68682
 C1523 C 0.60216 0.93810 0.71421
 H1524 H 0.61993 0.94956 0.72393
 O1525 O 0.52445 0.85902 0.61142
 O1526 O 0.52401 0.82796 0.64759
 C1527 C 0.53408 0.83665 0.62344
 C1528 C 0.55801 0.82124 0.60973
 C1529 C 0.56853 0.79611 0.62223
 H1530 H 0.55807 0.78707 0.64129
 O1531 O 0.46685 1.14534 0.60012
 O1532 O 0.46841 1.17916 0.63304
 C1533 C 0.45765 1.16883 0.61018
 C1534 C 0.43333 1.18384 0.59625
 C1535 C 0.42376 1.20969 0.60763
 H1536 H 0.43549 1.21927 0.62540
 O1537 O 0.34831 1.10496 0.53131
 O1538 O 0.31417 1.13732 0.52953
 C1539 C 0.32444 1.11466 0.54052
 C1540 C 0.30912 1.09948 0.56463
 C1541 C 0.28227 1.10880 0.57552
 H1542 H 0.27218 1.12694 0.56532
 O1543 O 0.63828 0.89744 0.53491
 O1544 O 0.67246 0.86504 0.53576
 C1545 C 0.66195 0.88824 0.54500
 C1546 C 0.67670 0.90428 0.56841
 C1547 C 0.70363 0.89558 0.57922
 H1548 H 0.71444 0.87793 0.56899
 O1549 O 0.46849 0.90100 0.64695
 O1550 O 0.46840 0.86996 0.68317
 C1551 C 0.45883 0.89247 0.67128
 C1552 C 0.43582 0.90826 0.68595
 C1553 C 0.42894 0.90135 0.71468
 H1554 H 0.44148 0.88547 0.72618
 O1555 O 0.52314 1.10681 0.64095
 O1556 O 0.52281 1.14056 0.67399
 C1557 C 0.53267 1.11734 0.66452
 C1558 C 0.55610 1.10306 0.68061
 C1559 C 0.56570 1.11384 0.70730
 H1560 H 0.55493 1.13204 0.71667
 O1561 O 0.35026 0.97240 0.60284
 O1562 O 0.31695 0.97202 0.63716
 C1563 C 0.32689 0.96273 0.61325
 C1564 C 0.31169 0.94017 0.59729
 C1565 C 0.28239 0.93423 0.60226
 H1566 H 0.27053 0.94685 0.61778
 O1567 O 0.63609 1.02995 0.60294
 O1568 O 0.67007 1.03121 0.63630
 C1569 C 0.66006 1.03923 0.61194
 C1570 C 0.67656 1.05957 0.59402
 C1571 C 0.70507 1.06589 0.60119
 H1572 H 0.71503 1.05542 0.61964
 O1573 O 0.39284 0.85395 0.53568
 O1574 O 0.35819 0.82184 0.53731
 C1575 C 0.38182 0.83173 0.54705
 C1576 C 0.39683 0.81788 0.57204
 C1577 C 0.38788 0.79137 0.58358
 H1578 H 0.36954 0.78081 0.57406
 O1579 O 0.60058 1.13754 0.52060
 O1580 O 0.63487 1.17010 0.52000
 C1581 C 0.61114 1.16056 0.53009
 C1582 C 0.59581 1.17626 0.55322
 C1583 C 0.60541 1.20325 0.56163
 H1584 H 0.62392 1.21275 0.55086
 Cu1585 Cu 0.61357 1.00384 0.62233
 Cu1586 Cu 0.65423 1.00565 0.66261
 Cu1587 Cu 0.37253 0.99998 0.61929
 Cu1588 Cu 0.33319 0.99981 0.66096
 Cu1589 Cu 0.49514 1.12115 0.61554
 Cu1590 Cu 0.49564 1.16150 0.65501
 Cu1591 Cu 0.49654 0.88258 0.62613
 Cu1592 Cu 0.49594 0.84526 0.66962
 C1593 C 0.57012 1.07966 0.66855
 H1594 H 0.56298 1.07151 0.64782
 C1595 C 0.58934 1.10184 0.72183
 C1596 C 0.41967 0.92887 0.67120
 H1597 H 0.42505 0.93416 0.64886
 C1598 C 0.40543 0.91362 0.72856
 C1599 C 0.57193 1.16408 0.56752
 H1600 H 0.56467 1.14304 0.56144
 C1601 C 0.59175 1.21802 0.58415
 C1602 C 0.42033 0.83190 0.58491
 H1603 H 0.42725 0.85239 0.57648
 C1604 C 0.40236 0.77903 0.60761
 C1605 C 0.66381 1.07320 0.57017
 H1606 H 0.64161 1.06850 0.56483
 C1607 C 0.72073 1.08618 0.58540
 C1608 C 0.32694 0.92425 0.57669
 H1609 H 0.34965 0.92836 0.57307
 C1610 C 0.26853 0.91252 0.58656
 C1611 C 0.42056 1.07471 0.66404
 H1612 H 0.43028 1.06507 0.64509
 C1613 C 0.39362 1.10072 0.71127
 C1614 C 0.56921 0.93112 0.67425
 H1615 H 0.56163 0.93723 0.65286
 C1616 C 0.59056 0.91457 0.72877
 C1617 C 0.66303 0.92773 0.58116
 H1618 H 0.64212 0.93438 0.57334
 C1619 C 0.71655 0.90983 0.60281
 C1620 C 0.32219 1.07564 0.57753
 H1621 H 0.34292 1.06851 0.56962
 C1622 C 0.26878 1.09452 0.59922
 C1623 C 0.41816 1.17147 0.57340
 H1624 H 0.42554 1.15130 0.56498
 C1625 C 0.39904 1.22320 0.59711
 C1626 C 0.57175 0.83283 0.58521
 H1627 H 0.56370 0.85241 0.57578
 C1628 C 0.59318 0.78306 0.61113
 O1629 O 0.59469 0.96501 0.35484
 O1630 O 0.62739 0.96328 0.32008
 C1631 C 0.60420 0.95408 0.33151
 C1632 C 0.58890 0.92953 0.31842
 C1633 C 0.59911 0.91711 0.29262
 H1634 H 0.61675 0.92723 0.28113
 O1635 O 0.39372 1.02663 0.35326
 O1636 O 0.35964 1.02505 0.32017
 C1637 C 0.38295 1.03569 0.32947
 C1638 C 0.39761 1.05949 0.31349
 C1639 C 0.38851 1.06959 0.28584
 H1640 H 0.37071 1.05917 0.27518
 O1641 O 0.46584 1.14131 0.39347
 O1642 O 0.46572 1.17434 0.35928
 C1643 C 0.45562 1.16433 0.38308
 C1644 C 0.43142 1.17901 0.39877
 C1645 C 0.42066 1.20566 0.38927
 H1646 H 0.43026 1.21589 0.37044
 O1647 O 0.52105 0.85068 0.40452
 O1648 O 0.52171 0.81647 0.37200
 C1649 C 0.53141 0.82751 0.39524
 C1650 C 0.55533 0.81380 0.41153
 C1651 C 0.56520 0.78650 0.40412
 H1652 H 0.55437 0.77508 0.38703
 O1653 O 0.63674 0.89538 0.47774
 O1654 O 0.67080 0.86285 0.47862
 C1655 C 0.65990 0.88517 0.46749
 C1656 C 0.67397 0.89860 0.44176
 C1657 C 0.69996 0.88753 0.43137
 H1658 H 0.71010 0.87013 0.44299
 O1659 O 0.35063 1.10234 0.47439
 O1660 O 0.31638 1.13460 0.47219
 C1661 C 0.32746 1.11147 0.46322
 C1662 C 0.31387 1.09532 0.43906
 C1663 C 0.28678 1.10329 0.42811
 H1664 H 0.27613 1.12124 0.43783
 O1665 O 0.52315 1.10189 0.35422
 O1666 O 0.52379 1.13471 0.31980
 C1667 C 0.53348 1.11149 0.33040
 C1668 C 0.55721 1.09550 0.31533
 C1669 C 0.56906 1.10519 0.28861
 H1670 H 0.56049 1.12434 0.27894
 O1671 O 0.46451 0.88767 0.36374
 O1672 O 0.46442 0.85407 0.33056
 C1673 C 0.45490 0.87763 0.34014
 C1674 C 0.43247 0.89382 0.32401
 C1675 C 0.42140 0.88402 0.29734
 H1676 H 0.42943 0.86434 0.28851
 O1677 O 0.63672 1.02082 0.39120
 O1678 O 0.66960 1.01909 0.35656
 C1679 C 0.66014 1.02977 0.37998
 C1680 C 0.67587 1.05345 0.39393
 C1681 C 0.70275 1.06269 0.38323
 H1682 H 0.71263 1.05186 0.36504
 O1683 O 0.35793 0.97103 0.39813
 O1684 O 0.32367 0.96964 0.36513
 C1685 C 0.33450 0.96052 0.38879
 C1686 C 0.31966 0.93716 0.40503
 C1687 C 0.29166 0.92943 0.39701
 H1688 H 0.28095 0.94115 0.37982
 O1689 O 0.60160 1.13932 0.46429
 O1690 O 0.63574 1.17201 0.46345
 C1691 C 0.61180 1.16258 0.45436
 C1692 C 0.59551 1.17847 0.43190
 C1693 C 0.60410 1.20580 0.42263
 H1694 H 0.62317 1.21522 0.43198
 O1695 O 0.39266 0.84936 0.47928
 O1696 O 0.35787 0.81734 0.48059
 C1697 C 0.38183 0.82603 0.47073
 C1698 C 0.39695 0.80957 0.44835
 C1699 C 0.38778 0.78218 0.44073
 H1700 H 0.37006 0.77231 0.45246
 O1701 O 0.39695 0.97062 0.35802
 O1702 O 0.36271 0.96919 0.32501
 C1703 C 0.38614 0.95964 0.33539
 C1704 C 0.39993 0.93469 0.32159
 C1705 C 0.38951 0.92472 0.29505
 H1706 H 0.37265 0.93649 0.28409
 O1707 O 0.59525 1.02139 0.35393
 O1708 O 0.62801 1.01975 0.31922
 C1709 C 0.60542 1.03087 0.33005
 C1710 C 0.59165 1.05575 0.31520
 C1711 C 0.60280 1.06583 0.28862
 H1712 H 0.62051 1.05459 0.27853
 O1713 O 0.46512 0.84730 0.40276
 O1714 O 0.46541 0.81333 0.36998
 C1715 C 0.45575 0.82361 0.39343
 C1716 C 0.43304 0.80844 0.40998
 C1717 C 0.42357 0.78109 0.40222
 H1718 H 0.43336 0.77103 0.38362
 O1719 O 0.52248 1.14192 0.39284
 O1720 O 0.52245 1.17502 0.35865
 C1721 C 0.53232 1.16501 0.38224
 C1722 C 0.55615 1.17976 0.39699
 C1723 C 0.56490 1.20702 0.38799
 H1724 H 0.55327 1.21792 0.37085
 O1725 O 0.35740 0.89183 0.47539
 O1726 O 0.32223 0.86022 0.47620
 C1727 C 0.33363 0.88274 0.46552
 C1728 C 0.31915 0.89873 0.44156
 C1729 C 0.29108 0.89128 0.43273
 H1730 H 0.27997 0.87401 0.44368
 O1731 O 0.63876 1.09802 0.46387
 O1732 O 0.67313 1.13046 0.46273
 C1733 C 0.66229 1.10738 0.45343
 C1734 C 0.67679 1.09147 0.42984
 C1735 C 0.70377 1.10018 0.41916
 H1736 H 0.71460 1.11764 0.42971
 O1737 O 0.52031 0.88740 0.36238
 O1738 O 0.52040 0.85338 0.32961
 C1739 C 0.52991 0.87694 0.33890
 C1740 C 0.55284 0.89177 0.32245
 C1741 C 0.56342 0.87971 0.29679
 H1742 H 0.55409 0.86014 0.28872
 O1743 O 0.46690 1.10216 0.35377
 O1744 O 0.46734 1.13501 0.31934
 C1745 C 0.45753 1.11188 0.32981
 C1746 C 0.43457 1.09655 0.31426
 C1747 C 0.42563 1.10605 0.28692
 H1748 H 0.43646 1.12412 0.27694
 O1749 O 0.35703 1.02694 0.39661
 O1750 O 0.32292 1.02505 0.36352
 C1751 C 0.33306 1.03556 0.38673
 C1752 C 0.31684 1.05830 0.40191
 C1753 C 0.28960 1.06640 0.39170
 H1754 H 0.28027 1.05542 0.37335
 O1755 O 0.63491 0.96537 0.39413
 O1756 O 0.66783 0.96360 0.35957
 C1757 C 0.65807 0.95491 0.38398
 C1758 C 0.67333 0.93213 0.40065
 C1759 C 0.69961 0.92053 0.39062
 H1760 H 0.70901 0.92844 0.37058
 O1761 O 0.59773 0.85614 0.48089
 O1762 O 0.63162 0.82342 0.48182
 C1763 C 0.60789 0.83275 0.47189
 C1764 C 0.59239 0.81651 0.44920
 C1765 C 0.60177 0.78928 0.44150
 H1766 H 0.61983 0.77988 0.45287
 O1767 O 0.38970 1.14133 0.47317
 O1768 O 0.35584 1.17402 0.47150
 C1769 C 0.37943 1.16386 0.46199
 C1770 C 0.39452 1.17828 0.43735
 C1771 C 0.38427 1.20453 0.42729
 H1772 H 0.36612 1.21437 0.43811
 Cu1773 Cu 0.61208 0.99320 0.37688
 Cu1774 Cu 0.65125 0.99117 0.33524
 Cu1775 Cu 0.37996 0.99925 0.37963
 Cu1776 Cu 0.33890 0.99709 0.34019
 Cu1777 Cu 0.61706 1.11529 0.49229
 Cu1778 Cu 0.65825 1.15428 0.49133
 Cu1779 Cu 0.61496 0.87970 0.50787
 Cu1780 Cu 0.65585 0.84074 0.50864
 Cu1781 Cu 0.37227 1.12023 0.50270
 Cu1782 Cu 0.33159 1.15917 0.50025
 Cu1783 Cu 0.37786 0.87517 0.50541
 Cu1784 Cu 0.33589 0.83703 0.50677
 Cu1785 Cu 0.49456 1.11866 0.37703
 Cu1786 Cu 0.49481 1.15805 0.33590
 Cu1787 Cu 0.49255 0.87155 0.38670
 Cu1788 Cu 0.49299 0.83091 0.34728
 C1789 C 0.56554 0.91675 0.33307
 H1790 H 0.55783 0.92572 0.35327
 C1791 C 0.58685 0.89168 0.28207
 C1792 C 0.42076 1.07318 0.32717
 H1793 H 0.42768 1.06610 0.34847
 C1794 C 0.40275 1.09304 0.27232
 C1795 C 0.41820 1.16575 0.42312
 H1796 H 0.42591 1.14527 0.43062
 C1797 C 0.39712 1.21866 0.40372
 C1798 C 0.56900 0.82852 0.43425
 H1799 H 0.56187 0.84970 0.43987
 C1800 C 0.58858 0.77411 0.41902
 C1801 C 0.66091 0.92106 0.42642
 H1802 H 0.64059 0.92940 0.43417
 C1803 C 0.71307 0.89815 0.40606
 C1804 C 0.32863 1.07262 0.42586
 H1805 H 0.34971 1.06659 0.43371
 C1806 C 0.27421 1.08866 0.40455
 C1807 C 0.56872 1.07064 0.32824
 H1808 H 0.56023 1.06318 0.34890
 C1809 C 0.59197 1.09039 0.27495
 C1810 C 0.42163 0.91930 0.33578
 H1811 H 0.42951 0.92679 0.35650
 C1812 C 0.39978 0.89950 0.28269
 C1813 C 0.66316 1.06796 0.41723
 H1814 H 0.64221 1.06129 0.42521
 C1815 C 0.71674 1.08626 0.39542
 C1816 C 0.33323 0.92183 0.42754
 H1817 H 0.35490 0.92762 0.43384
 C1818 C 0.27722 0.90665 0.41043
 C1819 C 0.57130 1.16586 0.41918
 H1820 H 0.56475 1.14468 0.42591
 C1821 C 0.58852 1.22046 0.40093
 C1822 C 0.41985 0.82220 0.43328
 H1823 H 0.42673 0.84346 0.43902
 C1824 C 0.40115 0.76748 0.41794
 O1825 O 0.48149 0.39633 0.85761
 O1826 O 0.48408 0.36353 0.82371
 C1827 C 0.47308 0.38622 0.83359
 C1828 C 0.44953 0.40034 0.81748
 C1829 C 0.44002 0.38911 0.79103
 H1830 H 0.45089 0.37091 0.78177
 O1831 O 0.53515 0.60547 0.86618
 O1832 O 0.53657 0.63987 0.83342
 C1833 C 0.54627 0.61652 0.84341
 C1834 C 0.57105 0.60276 0.82841
 C1835 C 0.58181 0.61491 0.80261
 H1836 H 0.57137 0.63353 0.79353
 O1837 O 0.36621 0.46932 0.89450
 O1838 O 0.33336 0.46877 0.86009
 C1839 C 0.34325 0.45903 0.88398
 C1840 C 0.32861 0.43510 0.89960
 C1841 C 0.30116 0.42533 0.89113
 H1842 H 0.29013 0.43600 0.87352
 O1843 O 0.65433 0.53046 0.90352
 O1844 O 0.68821 0.53167 0.86989
 C1845 C 0.67773 0.54085 0.89363
 C1846 C 0.69217 0.56444 0.90958
 C1847 C 0.71812 0.57671 0.89938
 H1848 H 0.72776 0.56833 0.87985
 O1849 O 0.40651 0.35389 0.97437
 O1850 O 0.37327 0.32031 0.97371
 C1851 C 0.39680 0.33068 0.96435
 C1852 C 0.41182 0.31610 0.94044
 C1853 C 0.40041 0.29067 0.92989
 H1854 H 0.38213 0.28093 0.94086
 O1855 O 0.60884 0.63723 0.98401
 O1856 O 0.64162 0.67121 0.98598
 C1857 C 0.61840 0.66115 0.97556
 C1858 C 0.60248 0.67730 0.95326
 C1859 C 0.61099 0.70505 0.94597
 H1860 H 0.62903 0.71479 0.95703
 O1861 O 0.40603 0.52591 0.85600
 O1862 O 0.37384 0.52621 0.82096
 C1863 C 0.39664 0.53631 0.83235
 C1864 C 0.41200 0.56110 0.81892
 C1865 C 0.40374 0.57233 0.79176
 H1866 H 0.38707 0.56154 0.77973
 O1867 O 0.61452 0.47537 0.86301
 O1868 O 0.64803 0.47661 0.82901
 C1869 C 0.62475 0.46614 0.83924
 C1870 C 0.61010 0.44235 0.82384
 C1871 C 0.62103 0.43266 0.79711
 H1872 H 0.63930 0.44341 0.78720
 O1873 O 0.53611 0.35826 0.90006
 O1874 O 0.53844 0.32513 0.86646
 C1875 C 0.54677 0.33532 0.89052
 C1876 C 0.56966 0.32085 0.90718
 C1877 C 0.57928 0.29377 0.89907
 H1878 H 0.56843 0.28303 0.88155
 O1879 O 0.47546 0.64406 0.90235
 O1880 O 0.47747 0.67837 0.86950
 C1881 C 0.46604 0.66754 0.89209
 C1882 C 0.44115 0.68176 0.90639
 C1883 C 0.43146 0.70906 0.89763
 H1884 H 0.44285 0.72049 0.88062
 O1885 O 0.35777 0.59934 0.97154
 O1886 O 0.32384 0.63200 0.96992
 C1887 C 0.33505 0.60924 0.96020
 C1888 C 0.32200 0.59452 0.93500
 C1889 C 0.29605 0.60444 0.92309
 H1890 H 0.28534 0.62204 0.93341
 O1891 O 0.64980 0.40017 0.97821
 O1892 O 0.68285 0.36672 0.98073
 C1893 C 0.67344 0.38963 0.96943
 C1894 C 0.68967 0.40364 0.94523
 C1895 C 0.71552 0.39194 0.93502
 H1896 H 0.72414 0.37323 0.94574
 O1897 O 0.47868 0.60365 0.86409
 O1898 O 0.48032 0.63789 0.83112
 C1899 C 0.47022 0.61422 0.84017
 C1900 C 0.44796 0.59916 0.82304
 C1901 C 0.43941 0.60993 0.79593
 H1902 H 0.44973 0.62885 0.78714
 O1903 O 0.53798 0.39762 0.86028
 O1904 O 0.54070 0.36481 0.82643
 C1905 C 0.54960 0.38812 0.83724
 C1906 C 0.57393 0.40408 0.82312
 C1907 C 0.58570 0.39461 0.79665
 H1908 H 0.57683 0.37556 0.78726
 O1909 O 0.65489 0.47454 0.90183
 O1910 O 0.68873 0.47520 0.86818
 C1911 C 0.67826 0.46465 0.89153
 C1912 C 0.69240 0.44010 0.90679
 C1913 C 0.71840 0.42780 0.89675
 H1914 H 0.72875 0.43682 0.87773
 O1915 O 0.36389 0.52517 0.89320
 O1916 O 0.33142 0.52490 0.85843
 C1917 C 0.34069 0.53480 0.88229
 C1918 C 0.32477 0.55825 0.89705
 C1919 C 0.29880 0.56865 0.88550
 H1920 H 0.28996 0.55891 0.86621
 O1921 O 0.39529 0.63987 0.97426
 O1922 O 0.36156 0.67276 0.97321
 C1923 C 0.38560 0.66324 0.96441
 C1924 C 0.40213 0.67931 0.94215
 C1925 C 0.39318 0.70649 0.93360
 H1926 H 0.37461 0.71593 0.94408
 O1927 O 0.61009 0.36121 0.97773
 O1928 O 0.64308 0.32769 0.98051
 C1929 C 0.62031 0.33764 0.96920
 C1930 C 0.60579 0.32204 0.94552
 C1931 C 0.61532 0.29501 0.93699
 H1932 H 0.63316 0.28513 0.94829
 O1933 O 0.61486 0.53148 0.86367
 O1934 O 0.64840 0.53309 0.82972
 C1935 C 0.62494 0.54248 0.84040
 C1936 C 0.60948 0.56694 0.82640
 C1937 C 0.61985 0.57978 0.80042
 H1938 H 0.63904 0.57142 0.79028
 O1939 O 0.40490 0.46988 0.85366
 O1940 O 0.37251 0.46966 0.81884
 C1941 C 0.39553 0.45986 0.82981
 C1942 C 0.41121 0.43597 0.81550
 C1943 C 0.40173 0.42405 0.78905
 H1944 H 0.38347 0.43342 0.77810
 O1945 O 0.53165 0.64194 0.90825
 O1946 O 0.53351 0.67642 0.87554
 C1947 C 0.54199 0.66546 0.89938
 C1948 C 0.56482 0.67965 0.91643
 C1949 C 0.57347 0.70753 0.90963
 H1950 H 0.56171 0.71919 0.89321
 O1951 O 0.48014 0.35561 0.89609
 O1952 O 0.48219 0.32269 0.86231
 C1953 C 0.47102 0.33227 0.88554
 C1954 C 0.44689 0.31688 0.90065
 C1955 C 0.43429 0.29161 0.88965
 H1956 H 0.44280 0.28246 0.86991
 O1957 O 0.65144 0.60185 0.98268
 O1958 O 0.68455 0.63546 0.98462
 C1959 C 0.67490 0.61280 0.97337
 C1960 C 0.69063 0.59953 0.94868
 C1961 C 0.71662 0.61133 0.93825
 H1962 H 0.72581 0.62961 0.94907
 O1963 O 0.36761 0.39315 0.97218
 O1964 O 0.33439 0.35955 0.97105
 C1965 C 0.34468 0.38296 0.96147
 C1966 C 0.32974 0.39821 0.93758
 C1967 C 0.30238 0.38915 0.92898
 H1968 H 0.29221 0.37142 0.94024
 Cu1969 Cu 0.50860 0.38017 0.88185
 Cu1970 Cu 0.51171 0.34088 0.84125
 Cu1971 Cu 0.50495 0.62048 0.88853
 Cu1972 Cu 0.50722 0.66146 0.84910
 Cu1973 Cu 0.38845 0.49755 0.87763
 Cu1974 Cu 0.34963 0.49736 0.83613
 Cu1975 Cu 0.63144 0.50287 0.88632
 Cu1976 Cu 0.67160 0.50427 0.84581
 C1977 C 0.43522 0.42386 0.82936
 H1978 H 0.44238 0.43233 0.84995
 C1979 C 0.41602 0.40034 0.77678
 C1980 C 0.58487 0.57862 0.84002
 H1981 H 0.57688 0.56938 0.86012
 C1982 C 0.60596 0.60386 0.78833
 C1983 C 0.34262 0.42137 0.92297
 H1984 H 0.36386 0.42836 0.92949
 C1985 C 0.28792 0.40228 0.90589
 C1986 C 0.67888 0.57592 0.93439
 H1987 H 0.65872 0.56696 0.94213
 C1988 C 0.73078 0.60014 0.91377
 C1989 C 0.43525 0.32878 0.92611
 H1990 H 0.44382 0.34859 0.93435
 C1991 C 0.41063 0.27853 0.90431
 C1992 C 0.57929 0.66477 0.93852
 H1993 H 0.57300 0.64310 0.94368
 C1994 C 0.59695 0.72018 0.92399
 C1995 C 0.43428 0.57468 0.83425
 H1996 H 0.44056 0.56657 0.85538
 C1997 C 0.41722 0.59703 0.78021
 C1998 C 0.58626 0.42813 0.83645
 H1999 H 0.57781 0.43530 0.85710
 C2000 C 0.60902 0.40901 0.78309
 C2001 C 0.58285 0.33469 0.93055
 H2002 H 0.57568 0.35573 0.93666
 C2003 C 0.60238 0.28074 0.91366
 C2004 C 0.42627 0.66727 0.92871
 H2005 H 0.43311 0.64618 0.93526
 C2006 C 0.40739 0.72160 0.91140
 C2007 C 0.33609 0.57132 0.92195
 H2008 H 0.35627 0.56383 0.93082
 C2009 C 0.28427 0.59179 0.89820
 C2010 C 0.67855 0.42781 0.93118
 H2011 H 0.65844 0.43667 0.93887
 C2012 C 0.73028 0.40359 0.91095
 O2013 O 0.52739 0.39746 1.15535
 O2014 O 0.52563 0.36352 1.18869
 C2015 C 0.53595 0.38675 1.17934
 C2016 C 0.55862 0.40101 1.19616
 C2017 C 0.56702 0.39042 1.22341
 H2018 H 0.55584 0.37221 1.23269
 O2019 O 0.46914 0.59879 1.14377
 O2020 O 0.46672 0.63101 1.17834
 C2021 C 0.45806 0.60789 1.16718
 C2022 C 0.43483 0.59146 1.18152
 C2023 C 0.42782 0.59640 1.21075
 H2024 H 0.43966 0.61254 1.22226
 O2025 O 0.35079 0.52335 1.10075
 O2026 O 0.31676 0.52209 1.13432
 C2027 C 0.32697 0.53215 1.11079
 C2028 C 0.31156 0.55501 1.09544
 C2029 C 0.28440 0.56379 1.10503
 H2030 H 0.27401 0.55275 1.12301
 O2031 O 0.63984 0.47031 1.11815
 O2032 O 0.67293 0.47063 1.15243
 C2033 C 0.66340 0.46128 1.12836
 C2034 C 0.67980 0.43992 1.11176
 C2035 C 0.70781 0.43242 1.12008
 H2036 H 0.71749 0.44217 1.13897
 O2037 O 0.60702 0.36236 1.03428
 O2038 O 0.64003 0.32885 1.03700
 C2039 C 0.61613 0.33920 1.04527
 C2040 C 0.59883 0.32455 1.06816
 C2041 C 0.60486 0.29633 1.07670
 H2042 H 0.62245 0.28535 1.06630
 O2043 O 0.39275 0.63816 1.03064
 O2044 O 0.35915 0.67115 1.02974
 C2045 C 0.38236 0.66121 1.04027
 C2046 C 0.39764 0.67614 1.06405
 C2047 C 0.38821 0.70271 1.07451
 H2048 H 0.36960 0.71256 1.06475
 O2049 O 0.39183 0.47066 1.14187
 O2050 O 0.35805 0.46974 1.17579
 C2051 C 0.38232 0.46177 1.16621
 C2052 C 0.40002 0.44241 1.18371
 C2053 C 0.39577 0.44002 1.21378
 H2054 H 0.37893 0.45232 1.22409
 O2055 O 0.59947 0.52492 1.15627
 O2056 O 0.63170 0.52593 1.19132
 C2057 C 0.60851 0.53510 1.17996
 C2058 C 0.59195 0.55823 1.19374
 C2059 C 0.59855 0.56774 1.22183
 H2060 H 0.61539 0.55708 1.23371
 O2061 O 0.47298 0.35935 1.11262
 O2062 O 0.47155 0.32629 1.14689
 C2063 C 0.46304 0.33596 1.12270
 C2064 C 0.44134 0.31976 1.10635
 C2065 C 0.43313 0.29245 1.11574
 H2066 H 0.44319 0.28308 1.13474
 O2067 O 0.52740 0.63935 1.10849
 O2068 O 0.52488 0.67171 1.14286
 C2069 C 0.53664 0.66207 1.12000
 C2070 C 0.56212 0.67670 1.10742
 C2071 C 0.57240 0.70203 1.11964
 H2072 H 0.56071 0.71165 1.13746
 O2073 O 0.36302 0.39198 1.02851
 O2074 O 0.33009 0.35810 1.02703
 C2075 C 0.33909 0.38156 1.03694
 C2076 C 0.32169 0.39647 1.05887
 C2077 C 0.29415 0.38653 1.06621
 H2078 H 0.28534 0.36832 1.05493
 O2079 O 0.64732 0.59690 1.03955
 O2080 O 0.68084 0.63017 1.04142
 C2081 C 0.67034 0.60662 1.05034
 C2082 C 0.68445 0.59086 1.07416
 C2083 C 0.71267 0.59748 1.08219
 H2084 H 0.72460 0.61268 1.06909
 O2085 O 0.52486 0.59993 1.14808
 O2086 O 0.52201 0.63245 1.18230
 C2087 C 0.53263 0.60957 1.17260
 C2088 C 0.55463 0.59445 1.18988
 C2089 C 0.56140 0.60365 1.21795
 H2090 H 0.54980 0.62142 1.22717
 O2091 O 0.47193 0.40171 1.14863
 O2092 O 0.47059 0.36880 1.18312
 C2093 C 0.46165 0.39210 1.17223
 C2094 C 0.43900 0.40835 1.18682
 C2095 C 0.43471 0.40600 1.21686
 H2096 H 0.44858 0.39188 1.22891
 O2097 O 0.64205 0.52502 1.11982
 O2098 O 0.67469 0.52565 1.15454
 C2099 C 0.66541 0.53460 1.13026
 C2100 C 0.68185 0.55629 1.11383
 C2101 C 0.71001 0.56356 1.12201
 H2102 H 0.71992 0.55322 1.14056
 O2103 O 0.35365 0.46805 1.10107
 O2104 O 0.31963 0.46647 1.13463
 C2105 C 0.33065 0.45721 1.11122
 C2106 C 0.31730 0.43325 1.09558
 C2107 C 0.28977 0.42289 1.10302
 H2108 H 0.27818 0.43308 1.12043
 O2109 O 0.61039 0.63852 1.04036
 O2110 O 0.64389 0.67175 1.04244
 C2111 C 0.62006 0.66153 1.05120
 C2112 C 0.60340 0.67624 1.07433
 C2113 C 0.61348 0.70166 1.08695
 H2114 H 0.63378 0.71046 1.07960
 O2115 O 0.40331 0.35391 1.03138
 O2116 O 0.37030 0.32014 1.03035
 C2117 C 0.39292 0.33075 1.04134
 C2118 C 0.40703 0.31678 1.06655
 C2119 C 0.39888 0.28939 1.07629
 H2120 H 0.38291 0.27776 1.06412
 O2121 O 0.60255 0.46988 1.15989
 O2122 O 0.63492 0.47025 1.19479
 C2123 C 0.61200 0.46032 1.18396
 C2124 C 0.59621 0.43694 1.19867
 C2125 C 0.60472 0.42606 1.22592
 H2126 H 0.62294 0.43569 1.23653
 O2127 O 0.39095 0.52503 1.13911
 O2128 O 0.35730 0.52405 1.17316
 C2129 C 0.38082 0.53396 1.16297
 C2130 C 0.39691 0.55565 1.17927
 C2131 C 0.39033 0.56063 1.20851
 H2132 H 0.37318 0.54859 1.21894
 O2133 O 0.47077 0.63881 1.10495
 O2134 O 0.46858 0.67112 1.13938
 C2135 C 0.45997 0.66141 1.11525
 C2136 C 0.43640 0.67619 1.09982
 C2137 C 0.42696 0.70265 1.10966
 H2138 H 0.43816 0.71268 1.12752
 O2139 O 0.52866 0.36473 1.11025
 O2140 O 0.52719 0.33075 1.14359
 C2141 C 0.53767 0.34131 1.12020
 C2142 C 0.56046 0.32603 1.10456
 C2143 C 0.56649 0.29803 1.11244
 H2144 H 0.55396 0.28783 1.12953
 O2145 O 0.64630 0.40159 1.03533
 O2146 O 0.67965 0.36839 1.03778
 C2147 C 0.66901 0.39164 1.04673
 C2148 C 0.68276 0.40670 1.07123
 C2149 C 0.71087 0.39986 1.07959
 H2150 H 0.72294 0.38511 1.06641
 O2151 O 0.35224 0.59997 1.02797
 O2152 O 0.31828 0.63259 1.02678
 C2153 C 0.32808 0.60934 1.03673
 C2154 C 0.31190 0.59315 1.05927
 C2155 C 0.28455 0.60181 1.06910
 H2156 H 0.27477 0.62053 1.05961
 Cu2157 Cu 0.50028 0.38418 1.12853
 Cu2158 Cu 0.49855 0.34398 1.16876
 Cu2159 Cu 0.49834 0.61608 1.12271
 Cu2160 Cu 0.49521 0.65500 1.16400
 Cu2161 Cu 0.38860 0.37651 1.00191
 Cu2162 Cu 0.34878 0.33608 1.00031
 Cu2163 Cu 0.62506 0.38470 1.00610
 Cu2164 Cu 0.66484 0.34470 1.00933
 Cu2165 Cu 0.37781 0.61603 1.00142
 Cu2166 Cu 0.33724 0.65534 0.99978
 Cu2167 Cu 0.62637 0.61524 1.01158
 Cu2168 Cu 0.66613 0.65537 1.01372
 Cu2169 Cu 0.37502 0.49672 1.11706
 Cu2170 Cu 0.33427 0.49549 1.15774
 Cu2171 Cu 0.61762 0.49750 1.13524
 Cu2172 Cu 0.65677 0.49813 1.17685
 C2173 C 0.57298 0.42443 1.18426
 H2174 H 0.56658 0.43237 1.16309
 C2175 C 0.58997 0.40269 1.23867
 C2176 C 0.41945 0.57089 1.16599
 H2177 H 0.42469 0.56711 1.14337
 C2178 C 0.40580 0.58068 1.22460
 C2179 C 0.32490 0.56945 1.07233
 H2180 H 0.34611 0.56288 1.06524
 C2181 C 0.27054 0.58689 1.09191
 C2182 C 0.66745 0.42696 1.08727
 H2183 H 0.64564 0.43223 1.08099
 C2184 C 0.72340 0.41221 1.10435
 C2185 C 0.57637 0.33913 1.08214
 H2186 H 0.57172 0.36095 1.07609
 C2187 C 0.58834 0.28286 1.09875
 C2188 C 0.42186 0.66322 1.07682
 H2189 H 0.42899 0.64258 1.06941
 C2190 C 0.40294 0.71614 1.09749
 C2191 C 0.42180 0.42673 1.17044
 H2192 H 0.42506 0.42846 1.14714
 C2193 C 0.41307 0.42200 1.23069
 C2194 C 0.56982 0.57160 1.17806
 H2195 H 0.56488 0.56469 1.15622
 C2196 C 0.58334 0.59068 1.23412
 C2197 C 0.42839 0.33164 1.08173
 H2198 H 0.43458 0.35285 1.07471
 C2199 C 0.41187 0.27708 1.10117
 C2200 C 0.57756 0.66421 1.08458
 H2201 H 0.56986 0.64449 1.07533
 C2202 C 0.59792 0.71485 1.10963
 C2203 C 0.33292 0.42000 1.07335
 H2204 H 0.35433 0.42751 1.06781
 C2205 C 0.27788 0.39947 1.08813
 C2206 C 0.66926 0.57001 1.08988
 H2207 H 0.64733 0.56493 1.08386
 C2208 C 0.72545 0.58438 1.10652
 C2209 C 1.10423 1.11991 1.27375
 C2210 C 1.11362 1.09824 1.25737
 H2211 H 1.08597 1.13215 1.26648
 H2212 H 1.13195 1.08609 1.26474
 C2213 C 1.13128 0.60277 0.75871
 C2214 C 1.10463 0.60317 0.74805
 H2215 H 1.14820 0.59123 0.74773
 H2216 H 1.08818 0.61467 0.75980
 C2217 C 0.62060 1.10663 0.76637
 C2218 C 0.59853 1.11530 0.74962
 H2219 H 0.63285 1.08816 0.76012
 H2220 H 0.58621 1.13359 0.75624
 C2221 C 0.61271 0.59598 1.27936
 C2222 C 0.58974 0.60275 1.26315
 H2223 H 0.62729 0.57963 1.27211
 H2224 H 0.57509 0.61889 1.27074
 C2225 C 0.90171 0.88255 1.27440
 C2226 C 0.89579 0.90626 1.25941
 H2227 H 0.91782 0.86801 1.26635
 H2228 H 0.88046 0.92115 1.26823
 C2229 C 0.91153 0.38792 0.77080
 C2230 C 0.90409 0.41058 0.75490
 H2231 H 0.92771 0.37354 0.76264
 H2232 H 0.88803 0.42503 0.76319
 C2233 C 0.37279 0.90193 0.76969
 C2234 C 0.39910 0.90318 0.75823
 H2235 H 0.35479 0.91172 0.75864
 H2236 H 0.41659 0.89339 0.77014
 C2237 C 0.41843 0.40051 1.28013
 C2238 C 0.40626 0.41949 1.26209
 H2239 H 0.43667 0.38825 1.27292
 H2240 H 0.38846 0.43219 1.26965
 C2241 C 0.87725 1.10760 0.72552
 C2242 C 0.89790 1.11734 0.74342
 H2243 H 0.86619 1.08804 0.73105
 H2244 H 0.90908 1.13676 0.73760
 C2245 C 0.90357 0.62477 0.22290
 C2246 C 0.89709 0.60087 0.23772
 H2247 H 0.91876 0.63987 0.23167
 H2248 H 0.88189 0.58611 0.22838
 C2249 C 0.37253 1.09911 0.22712
 C2250 C 0.39549 1.10552 0.24327
 H2251 H 0.35762 1.08288 0.23454
 H2252 H 0.41023 1.12141 0.23473
 C2253 C 0.38353 0.60591 0.73942
 C2254 C 0.40912 0.61004 0.75182
 H2255 H 0.36767 0.59252 0.75007
 H2256 H 0.42463 0.62375 0.74097
 C2257 C 1.09916 0.88236 0.73512
 C2258 C 1.10508 0.90710 0.74850
 H2259 H 1.08617 0.86630 0.74584
 H2260 H 1.11855 0.92272 0.73775
 C2261 C 1.09930 0.38446 0.22848
 C2262 C 1.10569 0.40929 0.24122
 H2263 H 1.08547 0.36918 0.23934
 H2264 H 1.11994 0.42416 0.23032
 C2265 C 0.62581 0.87873 0.24792
 C2266 C 0.59848 0.87604 0.25668
 H2267 H 0.63971 0.89357 0.25905
 H2268 H 0.58445 0.86093 0.24610
 C2269 C 0.60971 0.38068 0.73726
 C2270 C 0.62228 0.39949 0.75505
 H2271 H 0.58869 0.37244 0.74296
 H2272 H 0.64302 0.40838 0.74913
 C2273 C 1.27084 1.10869 1.08530
 C2274 C 1.25439 1.08697 1.09436
 H2275 H 1.26328 1.12265 1.06823
 H2276 H 1.26269 1.07249 1.11059
 C2277 C 1.27203 0.59431 0.61038
 C2278 C 1.25537 0.60450 0.58902
 H2279 H 1.26511 0.57596 0.62281
 H2280 H 1.26266 0.62265 0.57645
 C2281 C 0.76248 1.11812 0.59158
 C2282 C 0.75011 1.09279 0.59560
 H2283 H 0.75178 1.13423 0.57867
 H2284 H 0.76086 1.07703 0.60891
 C2285 C 0.76613 0.61760 1.11022
 C2286 C 0.75489 0.59199 1.11595
 H2287 H 0.75340 0.63357 1.09920
 H2288 H 0.76739 0.57637 1.12778
 C2289 C 1.26561 0.87712 0.90495
 C2290 C 1.25146 0.90135 0.89837
 H2291 H 1.25704 0.86270 0.92122
 H2292 H 1.26093 0.91617 0.88309
 C2293 C 1.27673 0.39961 0.37580
 C2294 C 1.25526 0.38783 0.39125
 H2295 H 1.27369 0.42079 0.36699
 H2296 H 1.25844 0.36680 0.40033
 C2297 C 0.75988 0.89517 0.37869
 C2298 C 0.73999 0.88382 0.39649
 H2299 H 0.75644 0.91610 0.36943
 H2300 H 0.74398 0.86305 0.40582
 C2301 C 0.77616 0.39837 0.88153
 C2302 C 0.75728 0.38866 0.90155
 H2303 H 0.77194 0.41855 0.87097
 H2304 H 0.76186 0.36872 0.91239
 C2305 C 0.75279 0.88142 1.13363
 C2306 C 0.75626 0.88612 1.10524
 H2307 H 0.76728 0.89101 1.14915
 H2308 H 0.74164 0.87627 1.08999
 C2309 C 0.73653 0.36666 0.60785
 C2310 C 0.74964 0.39174 0.61144
 H2311 H 0.74573 0.35113 0.59332
 H2312 H 0.73968 0.40693 0.62586
 C2313 C 0.22393 0.90811 0.61585
 C2314 C 0.23813 0.90436 0.59095
 H2315 H 0.23358 0.92008 0.63331
 H2316 H 0.22793 0.89235 0.57383
 C2317 C 0.23042 0.39708 1.11423
 C2318 C 0.24927 0.38677 1.09487
 H2319 H 0.23547 0.41639 1.12575
 H2320 H 0.24388 0.36765 1.08319
 C2321 C 0.73512 1.12224 0.89853
 C2322 C 0.75033 1.09914 0.89120
 H2323 H 0.74305 1.13606 0.91541
 H2324 H 0.74218 1.08534 0.87446
 C2325 C 0.73282 0.62184 0.40289
 C2326 C 0.74658 0.59745 0.39711
 H2327 H 0.74324 0.63826 0.41541
 H2328 H 0.73571 0.58132 0.38460
 C2329 C 0.22713 1.11437 0.40400
 C2330 C 0.24578 1.09633 0.39168
 H2331 H 0.23238 1.12364 0.42473
 H2332 H 0.24033 1.08670 0.37114
 C2333 C 0.24214 0.62543 0.89161
 C2334 C 0.25712 0.60184 0.88434
 H2335 H 0.24950 0.63863 0.90922
 H2336 H 0.24960 0.58876 0.86676
 C2337 C 1.12079 1.26092 1.10467
 C2338 C 1.09636 1.24679 1.11098
 H2339 H 1.13684 1.25139 1.09078
 H2340 H 1.08073 1.25653 1.12521
 C2341 C 1.12042 0.76805 0.59994
 C2342 C 1.09728 0.75199 0.60617
 H2343 H 1.13618 0.76072 0.58438
 H2344 H 1.08177 0.76007 0.62160
 C2345 C 0.59836 1.25873 0.61783
 C2346 C 0.60378 1.24603 0.59245
 H2347 H 0.58355 1.24929 0.63330
 H2348 H 0.61875 1.25596 0.57740
 C2349 C 0.62815 0.75881 1.11449
 C2350 C 0.60815 0.74082 1.12497
 H2351 H 0.63764 0.75505 1.09336
 H2352 H 0.59870 0.74510 1.14601
 C2353 C 0.89017 1.26011 0.87925
 C2354 C 0.88937 1.24858 0.90575
 H2355 H 0.90041 1.24868 0.86169
 H2356 H 0.87901 1.26025 0.92309
 C2357 C 0.87444 0.75970 0.39395
 C2358 C 0.89984 0.74729 0.38784
 H2359 H 0.85871 0.74883 0.40741
 H2360 H 0.91517 0.75825 0.37404
 C2361 C 0.39977 1.26738 0.38220
 C2362 C 0.38458 1.24670 0.39517
 H2363 H 0.42203 1.26335 0.37653
 H2364 H 0.36262 1.25104 0.40166
 C2365 C 0.39905 0.76406 0.87880
 C2366 C 0.39586 0.75033 0.90427
 H2367 H 0.41251 0.75505 0.86199
 H2368 H 0.38251 0.75999 0.92076
 C2369 C 1.10758 0.73916 0.86700
 C2370 C 1.10987 0.75236 0.89260
 H2371 H 1.09361 0.74779 0.85040
 H2372 H 1.12372 0.74290 0.90883
 C2373 C 1.10609 0.23379 0.40520
 C2374 C 1.09321 0.25360 0.38884
 H2375 H 1.11195 0.23839 0.42742
 H2376 H 1.08733 0.24861 0.36673
 C2377 C 0.59512 0.73116 0.38773
 C2378 C 0.60036 0.74556 0.41219
 H2379 H 0.58051 0.73960 0.37164
 H2380 H 0.61490 0.73640 0.42796
 C2381 C 0.60856 0.23970 0.87986
 C2382 C 0.61377 0.25242 0.90538
 H2383 H 0.59484 0.24970 0.86391
 H2384 H 0.62768 0.24202 0.92092
 C2385 C 0.88287 0.73947 1.08893
 C2386 C 0.90725 0.75382 1.09312
 H2387 H 0.86534 0.74921 1.07711
 H2388 H 0.92446 0.74369 1.10508
 C2389 C 0.87719 0.24290 0.60711
 C2390 C 0.90353 0.25381 0.60981
 H2391 H 0.86090 0.25461 0.59534
 H2392 H 0.91953 0.24197 0.62191
 C2393 C 0.37878 0.73107 0.60757
 C2394 C 0.39421 0.75112 0.62100
 H2395 H 0.37101 0.73501 0.58578
 H2396 H 0.40216 0.74670 0.64263
 C2397 C 0.37987 0.23491 1.10662
 C2398 C 0.40458 0.24816 1.11250
 H2399 H 0.36409 0.24529 1.09301
 H2400 H 0.42005 0.23753 1.12636
 C2401 C 1.09518 1.11976 0.73093
 C2402 C 1.10878 1.10401 0.75085
 H2403 H 1.07398 1.12788 0.73596
 H2404 H 1.12979 1.09552 0.74576
 C2405 C 1.10330 0.62279 0.22312
 C2406 C 1.11361 0.60188 0.24020
 H2407 H 1.08564 0.63560 0.23085
 H2408 H 1.13137 0.58924 0.23235
 C2409 C 0.59771 1.12136 0.22994
 C2410 C 0.60610 1.09947 0.24690
 H2411 H 0.57931 1.13377 0.23659
 H2412 H 0.62431 1.08694 0.23991
 C2413 C 0.63438 0.60934 0.74181
 C2414 C 0.61611 0.61953 0.76179
 H2415 H 0.64315 0.58822 0.74461
 H2416 H 0.60740 0.64059 0.75840
 C2417 C 0.89505 0.87417 0.72883
 C2418 C 0.88923 0.89825 0.74311
 H2419 H 0.91181 0.86021 0.73660
 H2420 H 0.87265 0.91197 0.73444
 C2421 C 0.89874 0.37831 0.22428
 C2422 C 0.89016 0.40126 0.23936
 H2423 H 0.91660 0.36581 0.23210
 H2424 H 0.87230 0.41368 0.23138
 C2425 C 0.39297 0.86766 0.23914
 C2426 C 0.38586 0.89039 0.25519
 H2427 H 0.41087 0.85448 0.24569
 H2428 H 0.36843 0.90375 0.24799
 C2429 C 0.38018 0.38747 0.73905
 C2430 C 0.40708 0.38665 0.74906
 H2431 H 0.36390 0.39875 0.75124
 H2432 H 0.42315 0.37522 0.73668
 C2433 C 1.11895 0.90455 1.27254
 C2434 C 1.09525 0.89812 1.25717
 H2435 H 1.13433 0.91982 1.26410
 H2436 H 1.07956 0.88357 1.26621
 C2437 C 1.10906 0.37703 0.76460
 C2438 C 1.11736 0.39915 0.74783
 H2439 H 1.09063 0.36440 0.75843
 H2440 H 1.13551 0.41187 0.75446
 C2441 C 0.60300 0.87997 0.76732
 C2442 C 0.60368 0.90646 0.75693
 H2443 H 0.59174 0.86352 0.75556
 H2444 H 0.61525 0.92257 0.76893
 C2445 C 0.61822 0.39937 1.28502
 C2446 C 0.59783 0.38946 1.26711
 H2447 H 0.62991 0.41845 1.27912
 H2448 H 0.58598 0.37054 1.27332
 C2449 C 0.89359 1.12228 1.27036
 C2450 C 0.88792 1.09743 1.25748
 H2451 H 0.90910 1.13679 1.26080
 H2452 H 0.87212 1.08334 1.26724
 C2453 C 0.90755 0.61132 0.76395
 C2454 C 0.90254 0.58647 0.75115
 H2455 H 0.92027 0.62743 0.75294
 H2456 H 0.88924 0.57077 0.76214
 C2457 C 0.37342 1.14245 0.73556
 C2458 C 0.37738 1.11441 0.73462
 H2459 H 0.38373 1.15634 0.71975
 H2460 H 0.36706 1.10077 0.75065
 C2461 C 0.41086 0.60192 1.27411
 C2462 C 0.39711 0.58498 1.25528
 H2463 H 0.43057 0.61248 1.26765
 H2464 H 0.37772 0.57405 1.26204
 C2465 C 1.12700 1.26494 0.89986
 C2466 C 1.10081 1.25329 0.89650
 H2467 H 1.14282 1.25456 0.91343
 H2468 H 1.08535 1.26421 0.88295
 C2469 C 1.09499 0.76951 0.37740
 C2470 C 1.09609 0.75581 0.40279
 H2471 H 1.08452 0.75999 0.35887
 H2472 H 1.10638 0.76634 0.42088
 C2473 C 0.61159 1.26775 0.40643
 C2474 C 0.59678 1.24926 0.39032
 H2475 H 0.61788 1.26191 0.42829
 H2476 H 0.58997 1.25545 0.36872
 C2477 C 0.60396 0.76049 0.89014
 C2478 C 0.60798 0.74880 0.91629
 H2479 H 0.59161 0.74944 0.87384
 H2480 H 0.62083 0.75998 0.93216
 C2481 C 0.88201 1.25758 1.09956
 C2482 C 0.90331 1.24098 1.10930
 H2483 H 0.86842 1.25021 1.08216
 H2484 H 0.91684 1.24864 1.12663
 C2485 C 0.87863 0.75772 0.59786
 C2486 C 0.90485 0.74657 0.60077
 H2487 H 0.86234 0.74665 0.58554
 H2488 H 0.92080 0.75768 0.61351
 C2489 C 0.37150 1.26909 0.60252
 C2490 C 0.39066 1.25005 0.61225
 H2491 H 0.36045 1.26482 0.58234
 H2492 H 0.40192 1.25462 0.63220
 C2493 C 0.37083 0.75890 1.10428
 C2494 C 0.39437 0.74362 1.11075
 H2495 H 0.35682 0.75200 1.08698
 H2496 H 0.40860 0.75127 1.12746
 C2497 C 0.89521 0.73932 0.87293
 C2498 C 0.89252 0.75205 0.89850
 H2499 H 0.90681 0.74986 0.85545
 H2500 H 0.88077 0.74116 0.91569
 C2501 C 0.87678 0.24485 0.39483
 C2502 C 0.90241 0.25703 0.38964
 H2503 H 0.86103 0.25554 0.40820
 H2504 H 0.91775 0.24651 0.37567
 C2505 C 0.40434 0.72014 0.39401
 C2506 C 0.39000 0.73869 0.41067
 H2507 H 0.42541 0.72589 0.38577
 H2508 H 0.36927 0.73280 0.41966
 C2509 C 0.39253 0.24623 0.86573
 C2510 C 0.39413 0.25339 0.89368
 H2511 H 0.40600 0.25764 0.85027
 H2512 H 0.38075 0.24209 0.90927
 C2513 C 1.10349 0.73067 1.08626
 C2514 C 1.08561 0.74897 1.09927
 H2515 H 1.11384 0.73658 1.06603
 H2516 H 1.07486 0.74269 1.11917
 C2517 C 1.08837 0.23319 0.60662
 C2518 C 1.10091 0.25156 0.58818
 H2519 H 1.06845 0.23898 0.61725
 H2520 H 1.12039 0.24548 0.57697
 C2521 C 0.63145 0.75009 0.62663
 C2522 C 0.60366 0.75698 0.62596
 H2523 H 0.64707 0.76379 0.61594
 H2524 H 0.58814 0.74334 0.63692
 C2525 C 0.61036 0.23461 1.09696
 C2526 C 0.59319 0.25357 1.10962
 H2527 H 0.62149 0.24027 1.07704
 H2528 H 0.58203 0.24771 1.12944
 C2529 C 1.26416 1.11689 0.87006
 C2530 C 1.24753 1.12410 0.89268
 H2531 H 1.25958 1.09742 0.85861
 H2532 H 1.25229 1.14401 0.90335
 C2533 C 1.27311 0.60169 0.37932
 C2534 C 1.25750 0.60826 0.40279
 H2535 H 1.26418 0.58799 0.36286
 H2536 H 1.26682 0.62218 0.41887
 C2537 C 0.75486 1.12224 0.38611
 C2538 C 0.74491 1.09565 0.38312
 H2539 H 0.74199 1.13786 0.39733
 H2540 H 0.75759 1.08033 0.37121
 C2541 C 0.77643 0.60338 0.88422
 C2542 C 0.75789 0.61453 0.90352
 H2543 H 0.77216 0.58256 0.87541
 H2544 H 0.76284 0.63506 0.91274
 C2545 C 1.25877 0.89096 1.12736
 C2546 C 1.24630 0.88835 1.10131
 H2547 H 1.24913 0.90421 1.14384
 H2548 H 1.25649 0.87506 1.08520
 C2549 C 1.26636 0.40539 0.61135
 C2550 C 1.25412 0.40145 0.58548
 H2551 H 1.25586 0.41816 0.62769
 H2552 H 1.26484 0.38831 0.56957
 C2553 C 0.75469 0.87464 0.61352
 C2554 C 0.74470 0.90117 0.61532
 H2555 H 0.74203 0.85858 0.60266
 H2556 H 0.75733 0.91699 0.62662
 C2557 C 0.76442 0.37929 1.10806
 C2558 C 0.75265 0.40443 1.11428
 H2559 H 0.75245 0.36386 1.09561
 H2560 H 0.76434 0.41944 1.12753
 C2561 C 0.72852 1.11767 1.10422
 C2562 C 0.74105 1.09252 1.10791
 H2563 H 0.73937 1.13413 1.09176
 H2564 H 0.72987 1.07638 1.12058
 C2565 C 0.74713 0.62643 0.60440
 C2566 C 0.75412 0.59905 0.60263
 H2567 H 0.76021 0.64249 0.59367
 H2568 H 0.74087 0.58334 0.61370
 C2569 C 0.22598 1.12683 0.60545
 C2570 C 0.24032 1.10289 0.61197
 H2571 H 0.23490 1.14164 0.58975
 H2572 H 0.23073 1.08836 0.62760
 C2573 C 0.22259 0.60979 1.08888
 C2574 C 0.24234 0.59553 1.10409
 H2575 H 0.22696 0.61556 1.06647
 H2576 H 0.23763 0.58935 1.12630
 C2577 C 0.73432 0.87841 0.89182
 C2578 C 0.74807 0.90260 0.88445
 H2579 H 0.74415 0.86374 0.90695
 H2580 H 0.73798 0.91685 0.86901
 C2581 C 0.73436 0.38789 0.41427
 C2582 C 0.74895 0.41114 0.40581
 H2583 H 0.74425 0.37221 0.42824
 H2584 H 0.73853 0.42647 0.39178
 C2585 C 0.23382 0.87551 0.40339
 C2586 C 0.24758 0.90046 0.40027
 H2587 H 0.24360 0.85833 0.41555
 H2588 H 0.23706 0.91732 0.38829
 C2589 C 0.24596 0.39404 0.87304
 C2590 C 0.25900 0.39090 0.89872
 H2591 H 0.25583 0.40689 0.85611
 H2592 H 0.24852 0.37807 0.91529
   
