data_POSCAR
  _audit_creation_date              2014-09-24
  _audit_creation_method            'ToBaCCo'
  _symmetry_space_group_name_H-M    'P1'
  _symmetry_Int_Tables_number       1
  _symmetry_cell_setting            triclinic
  loop_
  _symmetry_equiv_pos_as_xyz
 x,y,z
_cell_length_a 40.7506
_cell_length_b 39.7510
_cell_length_c 39.3066
_cell_angle_alpha 90.049400
_cell_angle_beta 90.177000
_cell_angle_gamma 89.732700
loop_
  _atom_site_label
  _atom_site_type_symbol
  _atom_site_fract_x
  _atom_site_fract_y
  _atom_site_fract_z
N1 N 0.35068 0.34918 0.35221
 N2 N 0.33969 0.84879 -0.16059
 N3 N 0.83686 0.34463 -0.15247
 N4 N 0.85529 0.84507 0.34859
 N5 N 0.66128 0.66014 0.34163
 N6 N 0.63678 0.13837 -0.14395
 N7 N 0.15840 0.65517 -0.15849
 N8 N 0.14691 0.15264 0.34108
 N9 N 0.64479 0.33838 0.65060
 N10 N 0.66106 0.84967 1.15307
 N11 N 0.16264 0.34481 1.16128
 N12 N 0.14458 0.84134 0.64664
 N13 N 0.35454 0.64367 0.65333
 N14 N 0.34754 0.15484 1.15764
 N15 N 0.85459 0.65225 1.15298
 N16 N 0.84355 0.15730 0.65856
 N17 N 0.34481 0.33888 0.65255
 N18 N 0.35019 0.84868 0.15382
 N19 N 0.84354 0.34540 0.14698
 N20 N 0.85113 0.85087 0.65584
 N21 N 0.65099 0.65919 0.65550
 N22 N 0.65052 0.14846 0.15947
 N23 N 0.15872 0.65319 0.15315
 N24 N 0.14280 0.15876 0.65290
 N25 N 0.35299 0.66153 0.34308
 N26 N 0.33775 0.14926 0.84049
 N27 N 0.83913 0.65041 0.83731
 N28 N 0.85425 0.15746 0.34567
 N29 N 0.65477 0.34860 0.34200
 N30 N 0.65537 0.84128 0.84312
 N31 N 0.14888 0.34812 0.85128
 N32 N 0.15960 0.84155 0.34616
 O33 O 0.25304 1.03331 0.20788
 O34 O 0.20990 0.96461 0.25235
 O35 O 0.20562 1.02983 0.25039
 O36 O 0.25786 0.96739 0.20731
 O37 O 0.29294 0.96894 0.25025
 O38 O 0.24066 1.03164 0.29337
 O39 O 0.24655 0.96670 0.29387
 O40 O 0.28922 1.03462 0.24984
 Cu41 Cu 0.22809 0.99823 0.22509
 Cu42 Cu 0.27104 1.00094 0.27597
 C43 C 0.27835 1.04590 0.22176
 C44 C 0.22098 0.95410 0.28073
 C45 C 0.21426 1.04142 0.27911
 C46 C 0.28410 0.95730 0.22160
 O47 O 0.24864 0.52861 0.79435
 O48 O 0.29514 0.46114 0.75142
 O49 O 0.29761 0.52674 0.75214
 O50 O 0.24910 0.46256 0.79604
 O51 O 0.21193 0.46475 0.75505
 O52 O 0.26324 0.52570 0.70857
 O53 O 0.25883 0.46133 0.70955
 O54 O 0.21445 0.53096 0.75074
 Cu55 Cu 0.27608 0.49480 0.77782
 Cu56 Cu 0.23321 0.49570 0.72694
 C57 C 0.22417 0.54197 0.77933
 C58 C 0.28482 0.44980 0.72312
 C59 C 0.28920 0.53664 0.72267
 C60 C 0.22243 0.45253 0.78297
 O61 O 0.76431 -0.03275 0.29736
 O62 O 0.71419 0.03171 0.25434
 O63 O 0.71703 -0.03309 0.25106
 O64 O 0.76238 0.03289 0.29742
 O65 O 0.79902 0.03448 0.25619
 O66 O 0.75455 -0.03193 0.21062
 O67 O 0.74987 0.03299 0.21219
 O68 O 0.80072 -0.03100 0.25594
 Cu69 Cu 0.73596 -0.00069 0.27932
 Cu70 Cu 0.77973 0.00152 0.22964
 C71 C 0.79110 -0.04272 0.28425
 C72 C 0.72313 0.04290 0.22563
 C73 C 0.72804 -0.04344 0.22266
 C74 C 0.78847 0.04485 0.28469
 O75 O 0.70032 0.52951 0.74147
 O76 O 0.74630 0.46399 0.78722
 O77 O 0.74747 0.52870 0.78605
 O78 O 0.69896 0.46338 0.74335
 O79 O 0.73353 0.46358 0.70020
 O80 O 0.78425 0.52640 0.74490
 O81 O 0.78132 0.46027 0.74458
 O82 O 0.73784 0.52950 0.70101
 Cu83 Cu 0.71946 0.49655 0.76854
 Cu84 Cu 0.76286 0.49451 0.71840
 C85 C 0.71200 0.54168 0.71422
 C86 C 0.77135 0.45063 0.77356
 C87 C 0.77398 0.53883 0.77272
 C88 C 0.70807 0.45215 0.71465
 O89 O 0.29643 0.53747 0.25362
 O90 O 0.25429 0.46540 0.21508
 O91 O 0.24864 0.53098 0.20957
 O92 O 0.29921 0.47263 0.26125
 O93 O 0.26066 0.47353 0.30062
 O94 O 0.21275 0.53419 0.25143
 O95 O 0.21541 0.46922 0.25399
 O96 O 0.25958 0.53930 0.29469
 Cu97 Cu 0.27836 0.50149 0.23070
 Cu98 Cu 0.23348 0.50408 0.27938
 C99 C 0.28523 0.55073 0.28059
 C100 C 0.22766 0.45509 0.22791
 C101 C 0.22237 0.54306 0.22220
 C102 C 0.28795 0.46268 0.28960
 O103 O 0.75313 1.03529 0.71095
 O104 O 0.71113 0.96360 0.75071
 O105 O 0.70558 1.02897 0.75675
 O106 O 0.75935 0.97072 0.70858
 O107 O 0.79365 0.97002 0.75225
 O108 O 0.74277 1.03139 0.79765
 O109 O 0.74527 0.96621 0.79437
 O110 O 0.78931 1.03554 0.75293
 Cu111 Cu 0.72850 0.99991 0.72756
 Cu112 Cu 0.77131 1.00101 0.77849
 C113 C 0.77892 1.04695 0.72468
 C114 C 0.72114 0.95258 0.77923
 C115 C 0.71517 1.04004 0.78549
 C116 C 0.78545 0.96002 0.72277
 O117 O 0.74909 0.53316 0.29060
 O118 O 0.79316 0.46594 0.24445
 O119 O 0.79739 0.53179 0.24703
 O120 O 0.74830 0.46733 0.28973
 O121 O 0.71041 0.47190 0.24961
 O122 O 0.76213 0.53320 0.20426
 O123 O 0.75600 0.46883 0.20342
 O124 O 0.71434 0.53794 0.24762
 Cu125 Cu 0.77566 0.49953 0.27218
 Cu126 Cu 0.73182 0.50334 0.22225
 C127 C 0.72465 0.54750 0.27649
 C128 C 0.78160 0.45568 0.21623
 C129 C 0.78860 0.54302 0.21817
 C130 C 0.72130 0.45825 0.27667
 O131 O 0.24187 -0.03721 0.78083
 O132 O 0.19736 0.03178 0.73895
 O133 O 0.19649 -0.03338 0.73444
 O134 O 0.24431 0.02851 0.78404
 O135 O 0.28025 0.03187 0.74217
 O136 O 0.23554 -0.03357 0.69561
 O137 O 0.23454 0.03296 0.69813
 O138 O 0.28132 -0.03307 0.74261
 Cu139 Cu 0.21624 -0.00276 0.76367
 Cu140 Cu 0.26153 -0.00073 0.71532
 C141 C 0.26938 -0.04656 0.76907
 C142 C 0.20856 0.04441 0.71175
 C143 C 0.20836 -0.04445 0.70675
 C144 C 0.26987 0.04141 0.77098
 O145 O 0.24336 0.29024 0.96810
 O146 O 0.29408 0.24522 1.03121
 O147 O 0.29007 0.24357 0.96502
 O148 O 0.24864 0.29017 1.03394
 O149 O 0.21258 0.24912 1.03848
 O150 O 0.25105 0.20524 0.96649
 O151 O 0.25805 0.20390 1.03231
 O152 O 0.20537 0.25106 0.97202
 Cu153 Cu 0.27279 0.27131 0.99884
 Cu154 Cu 0.22792 0.22342 1.00244
 C155 C 0.21541 0.27876 0.95982
 C156 C 0.28469 0.21699 1.04265
 C157 C 0.27760 0.21636 0.95412
 C158 C 0.22420 0.27695 1.04871
 O159 O 0.24760 0.78475 0.47081
 O160 O 0.29195 0.73912 0.53817
 O161 O 0.29592 0.74327 0.47258
 O162 O 0.24312 0.78368 0.53611
 O163 O 0.20772 0.74199 0.53147
 O164 O 0.26249 0.69973 0.47004
 O165 O 0.25554 0.69819 0.53564
 O166 O 0.21387 0.74176 0.46495
 Cu167 Cu 0.27319 0.76693 0.50533
 Cu168 Cu 0.23125 0.71626 0.50032
 C169 C 0.22372 0.77062 0.45576
 C170 C 0.28158 0.71065 0.54800
 C171 C 0.28828 0.71479 0.46038
 C172 C 0.21601 0.77023 0.54389
 O173 O 0.25126 0.70943 0.03222
 O174 O 0.29180 0.75635 -0.03591
 O175 O 0.29427 0.75780 0.03039
 O176 O 0.24952 0.70956 -0.03472
 O177 O 0.20950 0.74727 -0.03332
 O178 O 0.25310 0.79395 0.03396
 O179 O 0.25283 0.79510 -0.03326
 O180 O 0.21013 0.74591 0.03258
 Cu181 Cu 0.27573 0.72945 -0.00178
 Cu182 Cu 0.22748 0.77452 0.00017
 C183 C 0.22386 0.71944 0.04378
 C184 C 0.27880 0.78334 -0.04674
 C185 C 0.28112 0.78365 0.04375
 C186 C 0.22230 0.72081 -0.04578
 O187 O 0.20254 0.24681 0.46241
 O188 O 0.24791 0.29101 0.53044
 O189 O 0.25144 0.29089 0.46413
 O190 O 0.20109 0.24907 0.52855
 O191 O 0.23667 0.20695 0.52972
 O192 O 0.28676 0.24854 0.46400
 O193 O 0.28482 0.25007 0.53022
 O194 O 0.23919 0.20572 0.46361
 Cu195 Cu 0.22213 0.27376 0.49563
 Cu196 Cu 0.26545 0.22363 0.49706
 C197 C 0.21299 0.21851 0.45178
 C198 C 0.27394 0.27763 0.54214
 C199 C 0.27759 0.27716 0.45326
 C200 C 0.21068 0.22113 0.54059
 O201 O 0.74908 0.78579 0.96353
 O202 O 0.79381 0.74193 1.03141
 O203 O 0.79274 0.73897 0.96582
 O204 O 0.74891 0.78897 1.03008
 O205 O 0.71152 0.74915 1.03473
 O206 O 0.75219 0.70224 0.96594
 O207 O 0.75553 0.70277 1.03313
 O208 O 0.70828 0.74969 0.96853
 Cu209 Cu 0.77499 0.76789 0.99767
 Cu210 Cu 0.72800 0.72196 1.00071
 C211 C 0.72116 0.77509 0.95432
 C212 C 0.78242 0.71496 1.04381
 C213 C 0.77926 0.71268 0.95408
 C214 C 0.72335 0.77715 1.04403
 O215 O 0.74643 0.29449 0.46649
 O216 O 0.79295 0.24713 0.53177
 O217 O 0.79468 0.25150 0.46601
 O218 O 0.74580 0.29097 0.53348
 O219 O 0.70757 0.25234 0.52645
 O220 O 0.76138 0.20777 0.46605
 O221 O 0.75432 0.20831 0.53139
 O222 O 0.71342 0.25110 0.45985
 Cu223 Cu 0.77340 0.27540 0.49971
 Cu224 Cu 0.73036 0.22589 0.49546
 C225 C 0.72278 0.28024 0.45110
 C226 C 0.78103 0.21989 0.54320
 C227 C 0.78700 0.22243 0.45538
 C228 C 0.71837 0.27834 0.54149
 O229 O 0.78192 0.24733 -0.03446
 O230 O 0.74203 0.20331 0.03640
 O231 O 0.73273 0.20074 -0.03113
 O232 O 0.78386 0.24857 0.02928
 O233 O 0.74412 0.28644 0.03300
 O234 O 0.69590 0.24160 -0.03176
 O235 O 0.70057 0.23929 0.03385
 O236 O 0.74263 0.28584 -0.03377
 Cu237 Cu 0.76310 0.22036 -0.00149
 Cu238 Cu 0.71699 0.26734 0.00032
 C239 C 0.76967 0.27472 -0.04532
 C240 C 0.71460 0.21396 0.04733
 C241 C 0.70557 0.21286 -0.04155
 C242 C 0.77203 0.27528 0.04219
 O243 O 0.79511 0.75626 0.47151
 O244 O 0.74638 0.71174 0.53609
 O245 O 0.74995 0.71188 0.46968
 O246 O 0.79312 0.75830 0.53696
 O247 O 0.75609 0.79888 0.53341
 O248 O 0.71011 0.74981 0.46971
 O249 O 0.71016 0.75321 0.53571
 O250 O 0.75579 0.79446 0.46670
 Cu251 Cu 0.77483 0.73037 0.50434
 Cu252 Cu 0.72930 0.77819 0.50146
 C253 C 0.78317 0.78225 0.45724
 C254 C 0.71989 0.72490 0.54684
 C255 C 0.72296 0.72308 0.45797
 C256 C 0.78254 0.78707 0.54584
 O257 O 0.96905 0.25898 0.19755
 O258 O 1.03149 0.21279 0.24576
 O259 O 0.96748 0.21313 0.24355
 O260 O 1.03317 0.25988 0.19942
 O261 O 1.03160 0.29853 0.23982
 O262 O 0.96794 0.25157 0.28417
 O263 O 1.03191 0.25251 0.28513
 O264 O 0.96772 0.29840 0.23718
 Cu265 Cu 1.00052 0.23227 0.21750
 Cu266 Cu 0.99941 0.27920 0.26562
 C267 C 0.95740 0.28625 0.20923
 C268 C 1.04279 0.22492 0.27326
 C269 C 0.95659 0.22464 0.27150
 C270 C 1.04380 0.28700 0.21255
 O271 O 0.46015 0.23994 0.78876
 O272 O 0.52839 0.28180 0.74472
 O273 O 0.46565 0.28463 0.74206
 O274 O 0.52458 0.23482 0.79310
 O275 O 0.52637 0.19638 0.75255
 O276 O 0.46410 0.24327 0.70446
 O277 O 0.52775 0.24214 0.70534
 O278 O 0.46239 0.19825 0.75165
 Cu279 Cu 0.49522 0.26408 0.77150
 Cu280 Cu 0.49534 0.21594 0.72471
 C281 C 0.44929 0.21223 0.77734
 C282 C 0.53877 0.26976 0.71678
 C283 C 0.45443 0.27193 0.71476
 C284 C 0.53561 0.20719 0.78135
 O285 O 0.02634 0.26141 0.79776
 O286 O -0.03634 0.21381 0.75038
 O287 O 0.02757 0.21487 0.75084
 O288 O -0.03729 0.25835 0.79785
 O289 O -0.03643 0.30003 0.76074
 O290 O 0.02332 0.25174 0.70907
 O291 O -0.04065 0.25530 0.71325
 O292 O 0.02774 0.29839 0.75588
 Cu293 Cu -0.00457 0.23310 0.77811
 Cu294 Cu -0.00643 0.28042 0.73076
 C295 C 0.03812 0.28781 0.78443
 C296 C -0.05006 0.22706 0.72454
 C297 C 0.03602 0.22523 0.72166
 C298 C -0.04792 0.28659 0.78752
 O299 O 0.46589 0.29090 0.25432
 O300 O 0.53324 0.24518 0.21279
 O301 O 0.46966 0.24317 0.20943
 O302 O 0.52988 0.29457 0.25574
 O303 O 0.53230 0.25689 0.29690
 O304 O 0.46718 0.20876 0.25345
 O305 O 0.53157 0.20641 0.25294
 O306 O 0.46891 0.25656 0.29841
 Cu307 Cu 0.49968 0.27218 0.22892
 Cu308 Cu 0.50023 0.22827 0.27957
 C309 C 0.45629 0.28189 0.28363
 C310 C 0.54340 0.21761 0.22533
 C311 C 0.45754 0.21762 0.22397
 C312 C 0.54164 0.28450 0.28393
 O313 O 0.96431 0.74038 0.79220
 O314 O 1.03132 0.78513 0.74927
 O315 O 0.96789 0.78728 0.74692
 O316 O 1.02913 0.73860 0.79453
 O317 O 1.03081 0.70034 0.75380
 O318 O 0.96487 0.74680 0.70850
 O319 O 1.02907 0.74800 0.70748
 O320 O 0.96661 0.69983 0.75381
 Cu321 Cu 0.99814 0.76651 0.77501
 Cu322 Cu 0.99807 0.71979 0.72684
 C323 C 0.95372 0.71282 0.78009
 C324 C 1.04117 0.77441 0.72064
 C325 C 0.95528 0.77505 0.72009
 C326 C 1.04124 0.71188 0.78197
 O327 O 0.53819 0.79845 0.24499
 O328 O 0.47415 0.75211 0.29024
 O329 O 0.53861 0.75244 0.29030
 O330 O 0.47422 0.79791 0.24218
 O331 O 0.47480 0.75779 0.20324
 O332 O 0.53828 0.71237 0.25132
 O333 O 0.47379 0.71324 0.25001
 O334 O 0.53874 0.75945 0.20489
 Cu335 Cu 0.50596 0.77912 0.27101
 Cu336 Cu 0.50668 0.73166 0.22347
 C337 C 0.54977 0.78660 0.21756
 C338 C 0.46255 0.72530 0.27754
 C339 C 0.54990 0.72500 0.27846
 C340 C 0.46338 0.78527 0.21464
 O341 O -0.02536 0.79289 0.25529
 O342 O 0.03780 0.74850 0.20488
 O343 O -0.02684 0.74785 0.20651
 O344 O 0.03812 0.79190 0.25314
 O345 O 0.03769 0.75228 0.29252
 O346 O -0.02445 0.70575 0.24309
 O347 O 0.03883 0.70798 0.24333
 O348 O -0.02640 0.75042 0.29147
 Cu349 Cu 0.00556 0.77432 0.22598
 Cu350 Cu 0.00651 0.72505 0.27149
 C351 C -0.03665 0.77911 0.28192
 C352 C 0.04946 0.72094 0.21602
 C353 C -0.03641 0.71914 0.21649
 C354 C 0.04891 0.77971 0.28083
 O355 O 0.46480 0.79634 0.75330
 O356 O 0.52894 0.74890 0.70890
 O357 O 0.46503 0.74833 0.70846
 O358 O 0.52864 0.79596 0.75503
 O359 O 0.52781 0.75737 0.79544
 O360 O 0.46625 0.70909 0.74820
 O361 O 0.53020 0.71138 0.75034
 O362 O 0.46397 0.75817 0.79405
 Cu363 Cu 0.49674 0.77619 0.72735
 Cu364 Cu 0.49656 0.73010 0.77614
 C365 C 0.45349 0.78558 0.78124
 C366 C 0.54110 0.72260 0.72232
 C367 C 0.45532 0.72030 0.72014
 C368 C 0.53935 0.78429 0.78308
 C369 C 0.40783 0.32820 0.35075
 C370 C 0.37792 0.33450 0.33440
 C371 C 0.37612 0.32819 0.29912
 C372 C 0.40224 0.31199 0.28217
 C373 C 0.43024 0.30128 0.30042
 C374 C 0.43300 0.31152 0.33433
 C375 C 0.44414 0.29432 0.36604
 C376 C 0.41678 0.31338 0.38442
 H377 H 0.35401 0.33448 0.28512
 H378 H 0.39973 0.30613 0.25538
 H379 H 0.46912 0.30232 0.37395
 H380 H 0.44016 0.26668 0.36518
 H381 H 0.42621 0.33274 0.40233
 H382 H 0.39764 0.29682 0.39524
 C383 C 0.38119 0.84324 0.79347
 C384 C 0.37139 0.83728 0.82709
 C385 C 0.39352 0.81879 0.84782
 C386 C 0.42106 0.80242 0.83343
 C387 C 0.42773 0.80542 0.79837
 C388 C 0.40885 0.82835 0.77974
 C389 C 0.39313 0.82465 0.74562
 C390 C 0.36262 0.84072 0.76074
 H391 H 0.38852 0.81520 0.87458
 H392 H 0.43625 0.78645 0.84936
 H393 H 0.38966 0.79797 0.73836
 H394 H 0.40512 0.84055 0.72605
 H395 H 0.34144 0.82325 0.76238
 H396 H 0.35697 0.86576 0.74956
 C397 C -0.12355 0.29771 0.84090
 C398 C -0.13161 0.33169 0.83671
 C399 C -0.10815 0.35237 0.82066
 C400 C -0.07999 0.33815 0.80540
 C401 C -0.07441 0.30314 0.80674
 C402 C -0.09558 0.28386 0.82665
 C403 C -0.11278 0.25175 0.81831
 C404 C -0.14346 0.26706 0.83400
 H405 H -0.11250 0.37915 0.81823
 H406 H -0.06343 0.35424 0.79145
 H407 H -0.10282 0.23014 0.83308
 H408 H -0.11498 0.24736 0.79043
 H409 H -0.15113 0.25432 0.85783
 H410 H -0.16348 0.27171 0.81527
 C411 C -0.11210 0.79394 0.33485
 C412 C -0.11514 0.82906 0.33573
 C413 C -0.08825 0.84781 0.32344
 C414 C -0.06220 0.83167 0.30620
 C415 C -0.06186 0.79641 0.30225
 C416 C -0.08594 0.77802 0.31913
 C417 C -0.10719 0.75014 0.30645
 C418 C -0.13590 0.76776 0.32367
 H419 H -0.08817 0.87496 0.32548
 H420 H -0.04292 0.84678 0.29517
 H421 H -0.10075 0.72563 0.31838
 H422 H -0.10921 0.74964 0.27827
 H423 H -0.14597 0.75337 0.34548
 H424 H -0.15449 0.77771 0.30547
 C425 C 0.61030 0.65848 0.30723
 C426 C 0.63370 0.67682 0.32555
 C427 C 0.63061 0.71223 0.32536
 C428 C 0.60291 0.72789 0.31074
 C429 C 0.57814 0.70860 0.29510
 C430 C 0.58343 0.67396 0.29199
 C431 C 0.56136 0.64549 0.30116
 C432 C 0.59092 0.62860 0.31773
 H433 H 0.64918 0.72776 0.33717
 H434 H 0.60086 0.75505 0.31168
 H435 H 0.55230 0.63186 0.27831
 H436 H 0.54202 0.65297 0.31963
 H437 H 0.59899 0.60537 0.30432
 H438 H 0.58884 0.62630 0.34583
 C439 C 0.60689 0.15027 0.80236
 C440 C 0.60832 0.15108 0.83793
 C441 C 0.58195 0.16683 0.85511
 C442 C 0.55784 0.18500 0.83687
 C443 C 0.55917 0.18693 0.80111
 C444 C 0.58277 0.16742 0.78442
 C445 C 0.60647 0.17750 0.75742
 C446 C 0.63273 0.15826 0.77692
 H447 H 0.58109 0.16682 0.88263
 H448 H 0.53884 0.19830 0.85070
 H449 H 0.61075 0.20507 0.75725
 H450 H 0.60049 0.16615 0.73232
 H451 H 0.65237 0.17460 0.78743
 H452 H 0.64154 0.13542 0.76333
 C453 C 1.11804 0.70139 0.83383
 C454 C 1.12698 0.66763 0.82921
 C455 C 1.10383 0.64668 0.81274
 C456 C 1.07514 0.66053 0.79779
 C457 C 1.06856 0.69534 0.80012
 C458 C 1.08954 0.71473 0.82017
 C459 C 1.10568 0.74749 0.81231
 C460 C 1.13700 0.73275 0.82733
 H461 H 1.10853 0.61999 0.81009
 H462 H 1.05875 0.64430 0.78365
 H463 H 1.09538 0.76851 0.82765
 H464 H 1.10730 0.75244 0.78452
 H465 H 1.14471 0.74534 0.85130
 H466 H 1.15681 0.72902 0.80828
 C467 C 1.09729 0.15485 0.30465
 C468 C 1.12143 0.17144 0.32361
 C469 C 1.12112 0.20700 0.32290
 C470 C 1.09516 0.22463 0.30706
 C471 C 1.06964 0.20709 0.29065
 C472 C 1.07238 0.17216 0.28813
 C473 C 1.04782 0.14563 0.29641
 C474 C 1.07530 0.12668 0.31447
 H475 H 1.14044 0.22114 0.33520
 H476 H 1.09498 0.25186 0.30780
 H477 H 1.03877 0.13253 0.27324
 H478 H 1.02831 0.15481 0.31390
 H479 H 1.08215 0.10274 0.30162
 H480 H 1.07184 0.12488 0.34246
 C481 C 0.60988 0.28788 0.65873
 C482 C 0.61523 0.32246 0.66315
 C483 C 0.59085 0.34066 0.68103
 C484 C 0.56549 0.32368 0.69823
 C485 C 0.56330 0.28830 0.69685
 C486 C 0.58435 0.27135 0.67466
 C487 C 0.60473 0.24059 0.68045
 C488 C 0.63272 0.25872 0.66294
 H489 H 0.59241 0.36773 0.68339
 H490 H 0.54831 0.33809 0.71342
 H491 H 0.59552 0.21859 0.66584
 H492 H 0.60947 0.23592 0.70783
 H493 H 0.63956 0.24718 0.63818
 H494 H 0.65365 0.26442 0.68019
 C495 C 0.60798 0.81923 0.15121
 C496 C 0.63256 0.83566 0.16947
 C497 C 0.62878 0.83611 0.20533
 C498 C 0.60127 0.82092 0.22097
 C499 C 0.57726 0.80402 0.20132
 C500 C 0.58205 0.80394 0.16633
 C501 C 0.56771 0.79235 0.13353
 C502 C 0.59711 0.80959 0.11631
 H503 H 0.64729 0.84754 0.22134
 H504 H 0.59935 0.82153 0.24844
 H505 H 0.54376 0.80468 0.12793
 H506 H 0.56806 0.76448 0.13115
 H507 H 0.59012 0.83184 0.10073
 H508 H 0.61417 0.79156 0.10384
 C509 C 1.12081 0.33772 0.20621
 C510 C 1.13042 0.33406 0.17226
 C511 C 1.10763 0.31899 0.14973
 C512 C 1.07861 0.30415 0.16225
 C513 C 1.07143 0.30519 0.19730
 C514 C 1.09200 0.32411 0.21829
 C515 C 1.10743 0.31491 0.25157
 C516 C 1.13908 0.32993 0.23822
 H517 H 1.11306 0.31706 0.12286
 H518 H 1.06252 0.29095 0.14486
 H519 H 1.10889 0.28724 0.25549
 H520 H 1.09673 0.32936 0.27310
 H521 H 1.15892 0.31102 0.23436
 H522 H 1.14657 0.35307 0.25207
 C523 C 1.09237 0.80964 0.64992
 C524 C 1.11823 0.82637 0.66582
 C525 C 1.11794 0.82619 0.70192
 C526 C 1.09247 0.80985 0.72010
 C527 C 1.06713 0.79262 0.70264
 C528 C 1.06849 0.79342 0.66735
 C529 C 1.05079 0.78266 0.63607
 C530 C 1.07788 0.80097 0.61617
 H531 H 1.13754 0.83813 0.71603
 H532 H 1.09308 0.81001 0.74765
 H533 H 1.02625 0.79478 0.63375
 H534 H 1.05122 0.75490 0.63270
 H535 H 1.06892 0.82358 0.60230
 H536 H 1.09362 0.78363 0.60113
 C537 C 0.38297 0.69746 0.66492
 C538 C 0.38210 0.66231 0.66688
 C539 C 0.40884 0.64605 0.68295
 C540 C 0.43311 0.66489 0.69997
 C541 C 0.43153 0.70033 0.70054
 C542 C 0.40721 0.71603 0.68102
 C543 C 0.38318 0.74269 0.69113
 C544 C 0.35684 0.72248 0.67302
 H545 H 0.41019 0.61886 0.68370
 H546 H 0.45254 0.65177 0.71343
 H547 H 0.38832 0.76720 0.67870
 H548 H 0.37955 0.74371 0.71913
 H549 H 0.34713 0.73506 0.64981
 H550 H 0.33788 0.71228 0.69044
 C551 C 0.37978 0.16905 0.20934
 C552 C 0.37697 0.16775 0.17381
 C553 C 0.40425 0.17874 0.15476
 C554 C 0.43114 0.19431 0.17101
 C555 C 0.43176 0.19819 0.20669
 C556 C 0.40659 0.18340 0.22539
 C557 C 0.38571 0.19808 0.25288
 C558 C 0.35633 0.18226 0.23520
 H559 H 0.40418 0.17663 0.12731
 H560 H 0.45090 0.20418 0.15567
 H561 H 0.38527 0.22606 0.25248
 H562 H 0.39115 0.18671 0.27811
 H563 H 0.33885 0.20101 0.22440
 H564 H 0.34492 0.16175 0.25022
 C565 C -0.11188 0.70317 0.16381
 C566 C -0.11581 0.66820 0.16555
 C567 C -0.08961 0.64946 0.17983
 C568 C -0.06311 0.66589 0.19585
 C569 C -0.06172 0.70133 0.19686
 C570 C -0.08533 0.71928 0.17847
 C571 C -0.10585 0.74876 0.18886
 C572 C -0.13500 0.73093 0.17286
 H573 H -0.09033 0.62226 0.18007
 H574 H -0.04433 0.65096 0.20834
 H575 H -0.09883 0.77207 0.17514
 H576 H -0.10778 0.75144 0.21692
 H577 H -0.14479 0.74406 0.15000
 H578 H -0.15378 0.72299 0.19166
 C579 C -0.10635 0.15834 0.69434
 C580 C -0.13034 0.17549 0.67545
 C581 C -0.12954 0.21100 0.67618
 C582 C -0.10331 0.22800 0.69205
 C583 C -0.07786 0.20985 0.70827
 C584 C -0.08110 0.17500 0.71072
 C585 C -0.05703 0.14777 0.70244
 C586 C -0.08489 0.12952 0.68452
 H587 H -0.14871 0.22555 0.66390
 H588 H -0.10277 0.25522 0.69133
 H589 H -0.04815 0.13452 0.72562
 H590 H -0.03742 0.15633 0.68488
 H591 H -0.09213 0.10584 0.69745
 H592 H -0.08155 0.12751 0.65652
 C593 C 0.30411 0.38946 0.34762
 C594 C 0.33688 0.38092 0.34086
 C595 C 0.35536 0.40415 0.32161
 C596 C 0.33997 0.43198 0.30589
 C597 C 0.30602 0.43756 0.30984
 C598 C 0.28921 0.41718 0.33282
 C599 C 0.25732 0.39927 0.32858
 C600 C 0.27370 0.36881 0.34473
 H601 H 0.38119 0.39979 0.31699
 H602 H 0.35424 0.44807 0.28942
 H603 H 0.25057 0.39537 0.30141
 H604 H 0.23766 0.41041 0.34462
 H605 H 0.27658 0.34723 0.32694
 H606 H 0.26335 0.36236 0.37002
 C607 C 0.33797 -0.09696 0.80840
 C608 C 0.32194 -0.12535 0.82109
 C609 C 0.28836 -0.12910 0.81304
 C610 C 0.27114 -0.10341 0.79596
 C611 C 0.28735 -0.07392 0.78578
 C612 C 0.32125 -0.07208 0.79064
 C613 C 0.34110 -0.04490 0.80687
 C614 C 0.35937 -0.07231 0.82627
 H615 H 0.27530 -0.15150 0.82066
 H616 H 0.24513 -0.10639 0.79107
 H617 H 0.32616 -0.02820 0.82351
 H618 H 0.35675 -0.03161 0.78812
 H619 H 0.35498 -0.07165 0.85417
 H620 H 0.38550 -0.07489 0.81861
 C621 C 0.80051 0.39444 0.84448
 C622 C 0.82035 0.37063 0.82816
 C623 C 0.82126 0.37145 0.79223
 C624 C 0.80563 0.39768 0.77412
 C625 C 0.78816 0.42306 0.79156
 C626 C 0.78455 0.41969 0.82671
 C627 C 0.79052 0.44471 0.85441
 C628 C 0.80797 0.41681 0.87390
 H629 H 0.83456 0.35230 0.77827
 H630 H 0.80741 0.39824 0.74664
 H631 H 0.76734 0.45311 0.86666
 H632 H 0.80715 0.46531 0.84639
 H633 H 0.79474 0.40900 0.89726
 H634 H 0.83472 0.42118 0.87721
 C635 C 0.84968 -0.11487 0.30030
 C636 C 0.84366 -0.12340 0.33428
 C637 C 0.82480 -0.10035 0.35355
 C638 C 0.80843 -0.07324 0.33758
 C639 C 0.81146 -0.06794 0.30223
 C640 C 0.83451 -0.08758 0.28483
 C641 C 0.83186 -0.10574 0.25167
 C642 C 0.84842 -0.13567 0.26877
 H643 H 0.82097 -0.10448 0.38046
 H644 H 0.79233 -0.05742 0.35261
 H645 H 0.84715 -0.09402 0.23158
 H646 H 0.80606 -0.11064 0.24435
 H647 H 0.87327 -0.14114 0.25852
 H648 H 0.83214 -0.15789 0.27139
 C649 C 0.34395 0.61087 0.70579
 C650 C 0.34324 0.61359 0.67028
 C651 C 0.32933 0.58661 0.65189
 C652 C 0.31244 0.56077 0.66890
 C653 C 0.30999 0.56093 0.70466
 C654 C 0.32807 0.58498 0.72258
 C655 C 0.31761 0.60775 0.75085
 C656 C 0.33508 0.63606 0.73237
 H657 H 0.32963 0.58665 0.62435
 H658 H 0.30020 0.54155 0.65409
 H659 H 0.32944 0.60091 0.77542
 H660 H 0.29052 0.61117 0.75195
 H661 H 0.35701 0.64547 0.74624
 H662 H 0.31817 0.65590 0.72268
 C663 C 0.34558 1.10411 0.19407
 C664 C 0.32932 1.12843 0.17444
 C665 C 0.29466 1.12721 0.17367
 C666 C 0.27777 1.10014 0.18878
 C667 C 0.29518 1.07440 0.20581
 C668 C 0.32900 1.07817 0.20980
 C669 C 0.35610 1.05372 0.20278
 C670 C 0.37426 1.08235 0.18556
 H671 H 0.28072 1.14659 0.16070
 H672 H 0.25127 1.09920 0.18693
 H673 H 0.34862 1.03340 0.18493
 H674 H 0.36824 1.04492 0.22654
 H675 H 0.37729 1.07876 0.15769
 H676 H 0.39679 1.09010 0.19947
 C677 C 0.84544 0.61604 0.20337
 C678 C 0.84272 0.62158 0.16830
 C679 C 0.82648 0.59681 0.14884
 C680 C 0.80965 0.57034 0.16490
 C681 C 0.80943 0.56769 0.20067
 C682 C 0.82951 0.58957 0.21915
 C683 C 0.82176 0.61046 0.24974
 C684 C 0.83928 0.63942 0.23235
 H685 H 0.82504 0.59914 0.12143
 H686 H 0.79568 0.55290 0.14948
 H687 H 0.83475 0.60127 0.27286
 H688 H 0.79497 0.61486 0.25294
 H689 H 0.86239 0.64683 0.24539
 H690 H 0.82270 0.66062 0.22534
 C691 C 0.82962 1.12453 0.71013
 C692 C 0.83055 1.12738 0.67462
 C693 C 0.81800 1.10018 0.65550
 C694 C 0.80124 1.07371 0.67171
 C695 C 0.79761 1.07343 0.70738
 C696 C 0.81392 1.09809 0.72613
 C697 C 0.80089 1.12073 0.75330
 C698 C 0.81860 1.14951 0.73598
 H699 H 0.81977 1.10015 0.62804
 H700 H 0.79051 1.05395 0.65637
 H701 H 0.81100 1.11449 0.77883
 H702 H 0.77379 1.12335 0.75189
 H703 H 0.83942 1.15950 0.75121
 H704 H 0.80178 1.16888 0.72519
 C705 C 0.69279 0.60676 0.34389
 C706 C 0.67710 0.63200 0.32493
 C707 C 0.68045 0.63075 0.28922
 C708 C 0.69581 0.60311 0.27343
 C709 C 0.70894 0.57654 0.29301
 C710 C 0.70866 0.57989 0.32839
 C711 C 0.69694 0.55581 0.35479
 C712 C 0.67964 0.58535 0.37173
 H713 H 0.67078 0.65082 0.27347
 H714 H 0.69722 0.60241 0.24593
 H715 H 0.71748 0.54542 0.37027
 H716 H 0.67977 0.53673 0.34431
 H717 H 0.69031 0.59207 0.39688
 H718 H 0.65242 0.58351 0.37106
 C719 C 0.68968 1.10902 0.84571
 C720 C 0.65551 1.11041 0.84224
 C721 C 0.64051 1.08430 0.82335
 C722 C 0.65972 1.06106 0.80477
 C723 C 0.69425 1.06281 0.80567
 C724 C 0.70849 1.08558 0.82838
 C725 C 0.73524 1.11043 0.82253
 C726 C 0.71462 1.13602 0.84175
 H727 H 0.61405 1.08301 0.82137
 H728 H 0.64763 1.04241 0.78910
 H729 H 0.73796 1.11672 0.79522
 H730 H 0.75832 1.10343 0.83597
 H731 H 0.70577 1.15715 0.82559
 H732 H 0.72563 1.14355 0.86650
 C733 C 0.19507 0.60548 0.84415
 C734 C 0.17516 0.62737 0.82519
 C735 C 0.17468 0.62292 0.78956
 C736 C 0.19047 0.59501 0.77450
 C737 C 0.20775 0.57142 0.79466
 C738 C 0.21118 0.57846 0.82932
 C739 C 0.20511 0.55653 0.85948
 C740 C 0.18753 0.58632 0.87569
 H741 H 0.16156 0.64053 0.77346
 H742 H 0.18886 0.59171 0.74720
 H743 H 0.22825 0.54957 0.87281
 H744 H 0.18857 0.53511 0.85355
 H745 H 0.20061 0.59661 0.89824
 H746 H 0.16076 0.58227 0.87918
 C747 C 0.16075 1.11776 0.29066
 C748 C 0.15937 1.12180 0.32604
 C749 C 0.17185 1.09515 0.34617
 C750 C 0.18924 1.06825 0.33107
 C751 C 0.19339 1.06691 0.29552
 C752 C 0.17687 1.09081 0.27578
 C753 C 0.18942 1.11211 0.24739
 C754 C 0.17168 1.14166 0.26380
 H755 H 0.16992 1.09614 0.37361
 H756 H 0.20037 1.04925 0.34718
 H757 H 0.17879 1.10475 0.22242
 H758 H 0.21660 1.11459 0.24778
 H759 H 0.15081 1.15126 0.24828
 H760 H 0.18852 1.16127 0.27382
 C761 C 0.67344 0.39332 0.64866
 C762 C 0.65806 0.36790 0.66703
 C763 C 0.65825 0.37176 0.70292
 C764 C 0.67338 0.39999 0.71849
 C765 C 0.68957 0.42461 0.69871
 C766 C 0.68857 0.41992 0.66366
 C767 C 0.70021 0.43401 0.63081
 C768 C 0.68308 0.40388 0.61373
 H769 H 0.64756 0.35264 0.71897
 H770 H 0.67354 0.40178 0.74599
 H771 H 0.72740 0.43321 0.62865
 H772 H 0.68856 0.45866 0.62488
 H773 H 0.70052 0.38602 0.60158
 H774 H 0.66152 0.41110 0.59792
 C775 C 0.71101 -0.11715 0.16541
 C776 C 0.67685 -0.12064 0.16676
 C777 C 0.65896 -0.09478 0.18320
 C778 C 0.67541 -0.06930 0.20150
 C779 C 0.70998 -0.06871 0.20281
 C780 C 0.72712 -0.09171 0.18267
 C781 C 0.75471 -0.11462 0.19242
 C782 C 0.73724 -0.14232 0.17305
 H783 H 0.63241 -0.09531 0.18348
 H784 H 0.66119 -0.05067 0.21524
 H785 H 0.75555 -0.11927 0.22027
 H786 H 0.77834 -0.10707 0.18067
 H787 H 0.72853 -0.16311 0.18959
 H788 H 0.75053 -0.15043 0.14976
 C789 C 0.16158 0.39884 0.19299
 C790 C 0.17918 0.37159 0.17948
 C791 C 0.21324 0.37032 0.18621
 C792 C 0.22913 0.39746 0.20226
 C793 C 0.21115 0.42591 0.21287
 C794 C 0.17703 0.42506 0.20979
 C795 C 0.15412 0.45050 0.19476
 C796 C 0.13724 0.42162 0.17641
 H797 H 0.22774 0.34886 0.17821
 H798 H 0.25548 0.39646 0.20586
 H799 H 0.16667 0.46826 0.17731
 H800 H 0.13842 0.46258 0.21441
 H801 H 0.14007 0.42249 0.14829
 H802 H 0.11187 0.41701 0.18556
 C803 C 0.19272 -0.12110 0.65284
 C804 C 0.15926 -0.12737 0.65772
 C805 C 0.14076 -0.10215 0.67441
 C806 C 0.15643 -0.07425 0.68950
 C807 C 0.19078 -0.07059 0.68743
 C808 C 0.20801 -0.09331 0.66694
 C809 C 0.23859 -0.11286 0.67444
 C810 C 0.22172 -0.14331 0.65893
 H811 H 0.11451 -0.10491 0.67739
 H812 H 0.14190 -0.05638 0.70390
 H813 H 0.24341 -0.11545 0.70219
 H814 H 0.25977 -0.10393 0.65921
 H815 H 0.21664 -0.16356 0.67767
 H816 H 0.23317 -0.15189 0.63479
 C817 C 0.32147 0.29838 0.37166
 C818 C 0.33451 0.33026 0.37845
 C819 C 0.32579 0.34579 0.40944
 C820 C 0.30699 0.32852 0.43376
 C821 C 0.29729 0.29506 0.42797
 C822 C 0.30375 0.28109 0.39603
 C823 C 0.31800 0.24798 0.38582
 C824 C 0.33692 0.26682 0.35851
 H825 H 0.33361 0.37125 0.41476
 H826 H 0.30091 0.34092 0.45749
 H827 H 0.29937 0.23071 0.37506
 H828 H 0.33404 0.23692 0.40587
 H829 H 0.32846 0.26082 0.33229
 H830 H 0.36388 0.26561 0.36207
 C831 C 0.30405 0.84997 -0.10977
 C832 C 0.32322 0.83186 -0.13303
 C833 C 0.32345 0.79651 -0.13019
 C834 C 0.30895 0.78075 -0.10199
 C835 C 0.29306 0.79991 -0.07664
 C836 C 0.28906 0.83438 -0.08237
 C837 C 0.29604 0.86344 -0.05939
 C838 C 0.31236 0.88048 -0.08953
 H839 H 0.33570 0.78120 -0.14911
 H840 H 0.31062 0.75363 -0.09977
 H841 H 0.31346 0.85686 -0.03856
 H842 H 0.27320 0.87637 -0.05104
 H843 H 0.33927 0.88381 -0.08628
 H844 H 0.29884 0.90311 -0.09865
 C845 C 0.78601 0.32761 -0.12267
 C846 C 0.82030 0.33007 -0.12341
 C847 C 0.83770 0.31762 -0.09487
 C848 C 0.82132 0.29950 -0.06921
 C849 C 0.78715 0.29449 -0.07104
 C850 C 0.76980 0.31071 -0.09697
 C851 C 0.74527 0.29658 -0.12134
 C852 C 0.76294 0.31544 -0.14940
 H853 H 0.86404 0.32054 -0.09316
 H854 H 0.83539 0.28889 -0.04837
 H855 H 0.72007 0.30624 -0.11650
 H856 H 0.74744 0.26881 -0.12384
 H857 H 0.74807 0.33625 -0.16049
 H858 H 0.77505 0.29862 -0.16824
 C859 C 0.85236 0.80995 0.40056
 C860 C 0.83657 0.82814 0.37472
 C861 C 0.80190 0.82752 0.37423
 C862 C 0.78430 0.81282 0.40123
 C863 C 0.80100 0.79753 0.42868
 C864 C 0.83511 0.79464 0.42654
 C865 C 0.86088 0.80316 0.45219
 C866 C 0.87978 0.81990 0.42354
 H867 H 0.78846 0.83927 0.35360
 H868 H 0.75773 0.81373 0.40081
 H869 H 0.87334 0.78033 0.46236
 H870 H 0.85198 0.82116 0.47183
 H871 H 0.90303 0.80664 0.41714
 H872 H 0.88181 0.84765 0.42645
 C873 C 0.64776 0.30801 0.59561
 C874 C 0.66341 0.32242 0.62380
 C875 C 0.69779 0.31875 0.62619
 C876 C 0.71576 0.30459 0.59920
 C877 C 0.69964 0.29298 0.56971
 C878 C 0.66536 0.29315 0.56941
 C879 C 0.64229 0.30668 0.54312
 C880 C 0.62305 0.32287 0.57196
 H881 H 0.71080 0.32778 0.64842
 H882 H 0.74224 0.30303 0.60122
 H883 H 0.62857 0.28633 0.52998
 H884 H 0.65410 0.32524 0.52594
 H885 H 0.59832 0.31175 0.57552
 H886 H 0.62374 0.35084 0.57164
 C887 C 0.69276 0.84790 1.09947
 C888 C 0.67696 0.83112 1.12606
 C889 C 0.68000 0.79576 1.12723
 C890 C 0.69495 0.77808 1.10035
 C891 C 0.70808 0.79547 1.07232
 C892 C 0.70835 0.83057 1.07347
 C893 C 0.69698 0.85540 1.04743
 C894 C 0.67998 0.87435 1.07607
 H895 H 0.67007 0.78177 1.14842
 H896 H 0.69600 0.75087 1.10133
 H897 H 0.67962 0.84427 1.02871
 H898 H 0.71773 0.86955 1.03613
 H899 H 0.65275 0.87419 1.07404
 H900 H 0.69103 0.89933 1.08138
 C901 C 0.20016 0.34410 1.11194
 C902 C 0.17979 0.32698 1.13462
 C903 C 0.17798 0.29167 1.13137
 C904 C 0.19261 0.27519 1.10348
 C905 C 0.20996 0.29360 1.07875
 C906 C 0.21511 0.32783 1.08488
 C907 C 0.21006 0.35738 1.06195
 C908 C 0.19374 0.37516 1.09178
 H909 H 0.16433 0.27701 1.14964
 H910 H 0.18972 0.24824 1.10090
 H911 H 0.19292 0.35192 1.04060
 H912 H 0.23367 0.36903 1.05437
 H913 H 0.16710 0.38001 1.08783
 H914 H 0.20801 0.39695 1.10146
 C915 C 0.15987 0.78819 0.61758
 C916 C 0.15776 0.82338 0.61766
 C917 C 0.17019 0.84044 0.58900
 C918 C 0.18847 0.82296 0.56421
 C919 C 0.19366 0.78799 0.56705
 C920 C 0.17702 0.77082 0.59266
 C921 C 0.18982 0.74588 0.61786
 C922 C 0.17066 0.76476 0.64501
 H923 H 0.16760 0.86747 0.58690
 H924 H 0.19963 0.83692 0.54365
 H925 H 0.21681 0.74779 0.62129
 H926 H 0.18043 0.72010 0.61301
 H927 H 0.18653 0.77718 0.66431
 H928 H 0.14985 0.75010 0.65548
 C929 C 0.30286 0.65315 0.62114
 C930 C 0.33698 0.65631 0.62389
 C931 C 0.35323 0.67364 0.59753
 C932 C 0.33520 0.69131 0.57263
 C933 C 0.30063 0.69108 0.57295
 C934 C 0.28512 0.66972 0.59603
 C935 C 0.25750 0.67693 0.61988
 C936 C 0.27693 0.65852 0.64723
 H937 H 0.37974 0.67517 0.59732
 H938 H 0.34824 0.70585 0.55375
 H939 H 0.23458 0.66377 0.61238
 H940 H 0.25471 0.70421 0.62520
 H941 H 0.26545 0.63450 0.65527
 H942 H 0.28513 0.67512 0.66836
 C943 C 0.34018 0.20310 1.11833
 C944 C 0.33605 0.16894 1.12575
 C945 C 0.31947 0.14922 1.10122
 C946 C 0.30362 0.16451 1.07319
 C947 C 0.30483 0.19968 1.06860
 C948 C 0.32526 0.21803 1.09037
 C949 C 0.31850 0.24973 1.10962
 C950 C 0.33491 0.23327 1.14022
 H951 H 0.31710 0.12235 1.10479
 H952 H 0.28928 0.14906 1.05604
 H953 H 0.29181 0.25448 1.11324
 H954 H 0.33254 0.27137 1.09942
 H955 H 0.31777 0.22835 1.16160
 H956 H 0.35842 0.24537 1.14757
 C957 C 0.85167 0.68578 1.10000
 C958 C 0.83589 0.66829 1.12611
 C959 C 0.80123 0.66891 1.12630
 C960 C 0.78358 0.68354 1.09915
 C961 C 0.80026 0.69860 1.07178
 C962 C 0.83437 0.70103 1.07385
 C963 C 0.85981 0.69150 1.04826
 C964 C 0.87877 0.67485 1.07713
 H965 H 0.78783 0.65749 1.14700
 H966 H 0.75701 0.68303 1.09950
 H967 H 0.87243 0.71386 1.03763
 H968 H 0.85052 0.67335 1.02900
 H969 H 0.90222 0.68772 1.08323
 H970 H 0.88047 0.64702 1.07470
 C971 C 0.79564 0.16571 0.62043
 C972 C 0.82910 0.16989 0.62733
 C973 C 0.84788 0.18707 0.60273
 C974 C 0.83250 0.20297 0.57476
 C975 C 0.79818 0.20126 0.57041
 C976 C 0.78064 0.18061 0.59255
 C977 C 0.75006 0.18790 0.61216
 C978 C 0.76661 0.17151 0.64271
 H979 H 0.87415 0.18955 0.60597
 H980 H 0.84728 0.21739 0.55722
 H981 H 0.72875 0.17340 0.60243
 H982 H 0.74554 0.21533 0.61552
 H983 H 0.75487 0.14755 0.65051
 H984 H 0.77182 0.18938 0.66380
 C985 C 0.65908 0.68909 0.39778
 C986 C 0.67690 0.67483 0.37114
 C987 C 0.71158 0.67629 0.37431
 C988 C 0.72659 0.69108 0.40318
 C989 C 0.70743 0.70567 0.42928
 C990 C 0.67357 0.70403 0.42508
 C991 C 0.64179 0.71263 0.44151
 C992 C 0.62528 0.69569 0.41063
 H993 H 0.72716 0.66650 0.35434
 H994 H 0.75312 0.69198 0.40453
 H995 H 0.63755 0.74024 0.44280
 H996 H 0.63819 0.69877 0.46576
 H997 H 0.61132 0.71362 0.39438
 H998 H 0.61219 0.67209 0.41707
 C999 C 0.64672 0.19142 -0.11231
 C1000 C 0.64890 0.15631 -0.11440
 C1001 C 0.66549 0.13953 -0.08767
 C1002 C 0.68364 0.15785 -0.06336
 C1003 C 0.68455 0.19327 -0.06466
 C1004 C 0.66367 0.20943 -0.08778
 C1005 C 0.67069 0.23737 -0.11203
 C1006 C 0.65201 0.21758 -0.13886
 H1007 H 0.66638 0.11232 -0.08700
 H1008 H 0.69788 0.14434 -0.04446
 H1009 H 0.69725 0.23962 -0.11768
 H1010 H 0.65824 0.26120 -0.10462
 H1011 H 0.66778 0.20854 -0.16004
 H1012 H 0.62867 0.22989 -0.14681
 C1013 C 0.15681 0.68528 -0.10322
 C1014 C 0.17465 0.67260 -0.13083
 C1015 C 0.20872 0.67894 -0.13138
 C1016 C 0.22437 0.69416 -0.10338
 C1017 C 0.20618 0.70415 -0.07464
 C1018 C 0.17207 0.70113 -0.07601
 C1019 C 0.14956 0.68485 -0.05111
 C1020 C 0.13271 0.66791 -0.08105
 H1021 H 0.22334 0.67138 -0.15305
 H1022 H 0.25066 0.69799 -0.10410
 H1023 H 0.13368 0.70346 -0.03785
 H1024 H 0.16268 0.66677 -0.03426
 H1025 H 0.10726 0.67713 -0.08544
 H1026 H 0.13577 0.64009 -0.08133
 C1027 C 0.19574 0.16173 0.37735
 C1028 C 0.16211 0.16597 0.37151
 C1029 C 0.14410 0.18450 0.39591
 C1030 C 0.16039 0.20162 0.42249
 C1031 C 0.19483 0.19975 0.42558
 C1032 C 0.21163 0.17785 0.40387
 C1033 C 0.24124 0.18431 0.38259
 C1034 C 0.22382 0.16633 0.35364
 H1035 H 0.11775 0.18713 0.39342
 H1036 H 0.14624 0.21694 0.43995
 H1037 H 0.26324 0.17056 0.39209
 H1038 H 0.24484 0.21157 0.37769
 H1039 H 0.23554 0.14199 0.34665
 H1040 H 0.21765 0.18306 0.33186
 C1041 C 0.32292 0.39726 0.65359
 C1042 C 0.33192 0.36765 0.67056
 C1043 C 0.33044 0.36799 0.70649
 C1044 C 0.31652 0.39559 0.72397
 C1045 C 0.30335 0.42307 0.70579
 C1046 C 0.30888 0.42399 0.67073
 C1047 C 0.28821 0.43409 0.64111
 C1048 C 0.30371 0.40465 0.62197
 H1049 H 0.33867 0.34631 0.72088
 H1050 H 0.31416 0.39442 0.75138
 H1051 H 0.29533 0.45903 0.63079
 H1052 H 0.26155 0.43076 0.64588
 H1053 H 0.31972 0.41273 0.60068
 H1054 H 0.28554 0.38503 0.61531
 C1055 C 0.33035 0.90775 0.15506
 C1056 C 0.33652 0.87714 0.17155
 C1057 C 0.32991 0.87546 0.20672
 C1058 C 0.31439 0.90250 0.22357
 C1059 C 0.30433 0.93127 0.20529
 C1060 C 0.31446 0.93394 0.17147
 C1061 C 0.29736 0.94526 0.13993
 C1062 C 0.31494 0.91653 0.12165
 H1063 H 0.33562 0.85276 0.22078
 H1064 H 0.30833 0.89998 0.25025
 H1065 H 0.30563 0.97054 0.13159
 H1066 H 0.27032 0.94190 0.14122
 H1067 H 0.33333 0.92538 0.10289
 H1068 H 0.29777 0.89718 0.11193
 C1069 C 0.81764 0.37024 0.19795
 C1070 C 0.82834 0.37320 0.16427
 C1071 C 0.81972 0.40266 0.14639
 C1072 C 0.80400 0.42958 0.16319
 C1073 C 0.79731 0.42765 0.19828
 C1074 C 0.80265 0.39686 0.21449
 C1075 C 0.81778 0.38813 0.24789
 C1076 C 0.83433 0.35870 0.22982
 H1077 H 0.82566 0.40494 0.11966
 H1078 H 0.79827 0.45230 0.14914
 H1079 H 0.79924 0.38007 0.26683
 H1080 H 0.83533 0.40754 0.25695
 H1081 H 0.82522 0.33380 0.23840
 H1082 H 0.86141 0.36113 0.22921
 C1083 C 0.83803 0.88362 0.70782
 C1084 C 0.83951 0.88132 0.67230
 C1085 C 0.82804 0.90935 0.65350
 C1086 C 0.81104 0.93580 0.66983
 C1087 C 0.80643 0.93531 0.70535
 C1088 C 0.82232 0.91011 0.72396
 C1089 C 0.80922 0.88769 0.75116
 C1090 C 0.82651 0.85865 0.73337
 H1091 H 0.83028 0.90975 0.62608
 H1092 H 0.80046 0.95584 0.65464
 H1093 H 0.78200 0.88577 0.75052
 H1094 H 0.81986 0.89361 0.77653
 H1095 H 0.80937 0.83988 0.72229
 H1096 H 0.84713 0.84789 0.74848
 C1097 C 0.64847 0.60623 0.68854
 C1098 C 0.66677 0.63024 0.67085
 C1099 C 0.70121 0.62624 0.67074
 C1100 C 0.71589 0.59701 0.68425
 C1101 C 0.69656 0.57164 0.69907
 C1102 C 0.66299 0.57790 0.70277
 C1103 C 0.63441 0.55636 0.69335
 C1104 C 0.61856 0.58755 0.67789
 H1105 H 0.71672 0.64526 0.65956
 H1106 H 0.74231 0.59422 0.68305
 H1107 H 0.62123 0.54693 0.71611
 H1108 H 0.64083 0.53679 0.67421
 H1109 H 0.59638 0.59618 0.69185
 H1110 H 0.61580 0.58619 0.64976
 C1111 C 0.66082 0.11163 0.20940
 C1112 C 0.66427 0.11831 0.17463
 C1113 C 0.68347 0.09541 0.15552
 C1114 C 0.70233 0.07032 0.17189
 C1115 C 0.70165 0.06701 0.20760
 C1116 C 0.67867 0.08641 0.22539
 C1117 C 0.68287 0.10712 0.25680
 C1118 C 0.66317 0.13465 0.23924
 H1119 H 0.68556 0.09824 0.12823
 H1120 H 0.71829 0.05442 0.15678
 H1121 H 0.70881 0.11419 0.26119
 H1122 H 0.67012 0.09605 0.27907
 H1123 H 0.67769 0.15761 0.23373
 H1124 H 0.63889 0.13927 0.25124
 C1125 C 0.18845 0.59804 0.15163
 C1126 C 0.17175 0.62343 0.16969
 C1127 C 0.16774 0.61843 0.20502
 C1128 C 0.18268 0.59106 0.22163
 C1129 C 0.20277 0.56828 0.20360
 C1130 C 0.20347 0.57126 0.16819
 C1131 C 0.23097 0.56941 0.14343
 C1132 C 0.21480 0.59891 0.12517
 H1133 H 0.15471 0.63671 0.22035
 H1134 H 0.18041 0.58924 0.24901
 H1135 H 0.23055 0.54573 0.12837
 H1136 H 0.25506 0.57581 0.15504
 H1137 H 0.20535 0.59226 0.09948
 H1138 H 0.23009 0.62191 0.12621
 C1139 C 0.14211 0.10411 0.68310
 C1140 C 0.15963 0.13069 0.66865
 C1141 C 0.19414 0.13001 0.67194
 C1142 C 0.21020 0.10157 0.68546
 C1143 C 0.19202 0.07377 0.69694
 C1144 C 0.15785 0.07657 0.69745
 C1145 C 0.13256 0.05291 0.68398
 C1146 C 0.11537 0.08324 0.66833
 H1147 H 0.20869 0.15093 0.66304
 H1148 H 0.23676 0.10121 0.68674
 H1149 H 0.11823 0.04100 0.70471
 H1150 H 0.14265 0.03511 0.66478
 H1151 H 0.09122 0.08889 0.68015
 H1152 H 0.11554 0.08317 0.64004
 C1153 C 0.35151 0.61227 0.30454
 C1154 C 0.33518 0.63538 0.32543
 C1155 C 0.30068 0.63282 0.32752
 C1156 C 0.28421 0.60528 0.31284
 C1157 C 0.30180 0.58032 0.29497
 C1158 C 0.33523 0.58566 0.28935
 C1159 C 0.36375 0.56248 0.29468
 C1160 C 0.38155 0.59183 0.31128
 H1161 H 0.28662 0.65135 0.34153
 H1162 H 0.25791 0.60319 0.31602
 H1163 H 0.37497 0.55444 0.27023
 H1164 H 0.35818 0.54169 0.31265
 H1165 H 0.40290 0.60078 0.29632
 H1166 H 0.38627 0.58817 0.33891
 C1167 C 0.30842 0.09437 0.83972
 C1168 C 0.32136 0.12215 0.82278
 C1169 C 0.31644 0.12285 0.78704
 C1170 C 0.29998 0.09629 0.77011
 C1171 C 0.28717 0.06873 0.78848
 C1172 C 0.29184 0.06937 0.82350
 C1173 C 0.28733 0.04928 0.85501
 C1174 C 0.30599 0.07759 0.87351
 H1175 H 0.32505 0.14394 0.77221
 H1176 H 0.29680 0.09763 0.74277
 H1177 H 0.30105 0.02506 0.85423
 H1178 H 0.26110 0.04743 0.86242
 H1179 H 0.33038 0.06959 0.88342
 H1180 H 0.29046 0.09183 0.89176
 C1181 C 0.80586 0.59852 0.83950
 C1182 C 0.82336 0.62228 0.82066
 C1183 C 0.82238 0.61932 0.78484
 C1184 C 0.80715 0.59157 0.76919
 C1185 C 0.79184 0.56662 0.78893
 C1186 C 0.79011 0.57165 0.82408
 C1187 C 0.79960 0.54836 0.85230
 C1188 C 0.81667 0.57797 0.86917
 H1189 H 0.83359 0.63822 0.76890
 H1190 H 0.80713 0.58976 0.74169
 H1191 H 0.81685 0.52828 0.84389
 H1192 H 0.77792 0.53935 0.86671
 H1193 H 0.84380 0.57511 0.87058
 H1194 H 0.80468 0.58623 0.89315
 C1195 C 0.80664 0.11912 0.34111
 C1196 C 0.83948 0.12647 0.33390
 C1197 C 0.85715 0.10259 0.31450
 C1198 C 0.84084 0.07531 0.29901
 C1199 C 0.80678 0.07084 0.30346
 C1200 C 0.79080 0.09185 0.32666
 C1201 C 0.75957 0.11125 0.32272
 C1202 C 0.77694 0.14102 0.33887
 H1203 H 0.88307 0.10598 0.30980
 H1204 H 0.85458 0.05850 0.28263
 H1205 H 0.73950 0.10098 0.33868
 H1206 H 0.75325 0.11554 0.29561
 H1207 H 0.76717 0.14770 0.36438
 H1208 H 0.78023 0.16257 0.32121
 C1209 C 0.65414 0.40460 0.31381
 C1210 C 0.67118 0.37573 0.32447
 C1211 C 0.70460 0.37310 0.31557
 C1212 C 0.72077 0.40009 0.29992
 C1213 C 0.70372 0.42996 0.29194
 C1214 C 0.66986 0.43090 0.29736
 C1215 C 0.64973 0.45662 0.31570
 C1216 C 0.63256 0.42772 0.33356
 H1217 H 0.71843 0.35054 0.32157
 H1218 H 0.74672 0.39785 0.29452
 H1219 H 0.63334 0.47082 0.29815
 H1220 H 0.66464 0.47246 0.33316
 H1221 H 0.60634 0.42518 0.32617
 H1222 H 0.63754 0.42670 0.36138
 C1223 C 0.69253 0.89015 0.84475
 C1224 C 0.67222 0.86847 0.82624
 C1225 C 0.67162 0.87230 0.79053
 C1226 C 0.68761 0.89965 0.77497
 C1227 C 0.70519 0.92318 0.79473
 C1228 C 0.70879 0.91658 0.82945
 C1229 C 0.70331 0.93906 0.85940
 C1230 C 0.68553 0.90989 0.87615
 H1231 H 0.65823 0.85470 0.77477
 H1232 H 0.68579 0.90264 0.74765
 H1233 H 0.68699 0.96077 0.85340
 H1234 H 0.72668 0.94566 0.87239
 H1235 H 0.65886 0.91459 0.87987
 H1236 H 0.69871 0.89960 0.89868
 C1237 C 0.15298 0.40187 0.81914
 C1238 C 0.16780 0.37406 0.83465
 C1239 C 0.20246 0.37220 0.83193
 C1240 C 0.22041 0.39796 0.81536
 C1241 C 0.20414 0.42571 0.80012
 C1242 C 0.17014 0.42596 0.80240
 C1243 C 0.14063 0.44703 0.79547
 C1244 C 0.12104 0.41972 0.81428
 H1245 H 0.21565 0.35094 0.84253
 H1246 H 0.24689 0.39592 0.81408
 H1247 H 0.13492 0.44863 0.76785
 H1248 H 0.14140 0.47146 0.80923
 H1249 H 0.10388 0.40579 0.79744
 H1250 H 0.11046 0.42853 0.83877
 C1251 C 0.20854 0.87532 0.33152
 C1252 C 0.17439 0.87192 0.33288
 C1253 C 0.15527 0.89903 0.32031
 C1254 C 0.17019 0.92601 0.30301
 C1255 C 0.20451 0.92690 0.29908
 C1256 C 0.22323 0.90233 0.31559
 C1257 C 0.25030 0.88077 0.30197
 C1258 C 0.23409 0.85115 0.31955
 H1259 H 0.12881 0.89861 0.32244
 H1260 H 0.15498 0.94574 0.29226
 H1261 H 0.27450 0.88741 0.31317
 H1262 H 0.24986 0.87891 0.27373
 H1263 H 0.24892 0.84079 0.34092
 H1264 H 0.22415 0.83211 0.30156
 C1265 C 0.38054 0.28868 0.65997
 C1266 C 0.37516 0.32332 0.66385
 C1267 C 0.40016 0.34205 0.68005
 C1268 C 0.42691 0.32560 0.69579
 C1269 C 0.42959 0.29024 0.69482
 C1270 C 0.40722 0.27263 0.67467
 C1271 C 0.38754 0.24211 0.68297
 C1272 C 0.35825 0.25981 0.66683
 H1273 H 0.39808 0.36911 0.68225
 H1274 H 0.44464 0.34035 0.70987
 H1275 H 0.38486 0.23813 0.71083
 H1276 H 0.39585 0.21967 0.66841
 H1277 H 0.33857 0.26624 0.68529
 H1278 H 0.34971 0.24752 0.64300
 C1279 C 0.40765 0.85151 0.17595
 C1280 C 0.37981 0.83286 0.16664
 C1281 C 0.38247 0.79744 0.16871
 C1282 C 0.41053 0.78200 0.18278
 C1283 C 0.43634 0.80156 0.19598
 C1284 C 0.43500 0.83623 0.19030
 C1285 C 0.44269 0.86570 0.21223
 C1286 C 0.41263 0.88274 0.19660
 H1287 H 0.36217 0.78166 0.16102
 H1288 H 0.41102 0.75488 0.18543
 H1289 H 0.46616 0.87784 0.20496
 H1290 H 0.43991 0.86016 0.23979
 H1291 H 0.41887 0.90476 0.18050
 H1292 H 0.39314 0.88740 0.21567
 C1293 C 0.88157 0.29761 0.15617
 C1294 C 0.87453 0.33199 0.15890
 C1295 C 0.89864 0.35261 0.17415
 C1296 C 0.92638 0.33813 0.19018
 C1297 C 0.93094 0.30296 0.19011
 C1298 C 0.90920 0.28354 0.17095
 C1299 C 0.89119 0.25235 0.18070
 C1300 C 0.86084 0.26792 0.16446
 H1301 H 0.89504 0.37957 0.17550
 H1302 H 0.94351 0.35421 0.20352
 H1303 H 0.88912 0.24926 0.20874
 H1304 H 0.90040 0.22984 0.16684
 H1305 H 0.84114 0.27401 0.18303
 H1306 H 0.85257 0.25437 0.14124
 C1307 C 0.90167 0.84681 0.69072
 C1308 C 0.87659 0.83111 0.67230
 C1309 C 0.87598 0.79554 0.67273
 C1310 C 0.90193 0.77702 0.68765
 C1311 C 0.92846 0.79368 0.70333
 C1312 C 0.92663 0.82866 0.70621
 C1313 C 0.95157 0.85467 0.69753
 C1314 C 0.92404 0.87456 0.68061
 H1315 H 0.85591 0.78209 0.66094
 H1316 H 0.90128 0.74980 0.68686
 H1317 H 0.97034 0.84526 0.67932
 H1318 H 0.96160 0.86721 0.72059
 H1319 H 0.92674 0.87667 0.65254
 H1320 H 0.91813 0.89847 0.69399
 C1321 C 0.61169 0.34451 0.29711
 C1322 C 0.62297 0.33702 0.33004
 C1323 C 0.60216 0.31700 0.35041
 C1324 C 0.57464 0.30070 0.33602
 C1325 C 0.56665 0.30514 0.30134
 C1326 C 0.58404 0.32957 0.28342
 C1327 C 0.59856 0.32831 0.24865
 C1328 C 0.62906 0.34438 0.26370
 H1329 H 0.60825 0.31214 0.37677
 H1330 H 0.56067 0.28347 0.35156
 H1331 H 0.58527 0.34496 0.23049
 H1332 H 0.60267 0.30223 0.23967
 H1333 H 0.63341 0.37017 0.25384
 H1334 H 0.65088 0.32747 0.26360
 C1335 C 0.61532 0.79519 0.83584
 C1336 C 0.62401 0.82889 0.83102
 C1337 C 0.60087 0.84976 0.81420
 C1338 C 0.57248 0.83580 0.79901
 C1339 C 0.56627 0.80100 0.80142
 C1340 C 0.58715 0.78175 0.82188
 C1341 C 0.60371 0.74899 0.81433
 C1342 C 0.63467 0.76380 0.82974
 H1343 H 0.60543 0.87640 0.81138
 H1344 H 0.55611 0.85192 0.78456
 H1345 H 0.60578 0.74402 0.78658
 H1346 H 0.59343 0.72799 0.82954
 H1347 H 0.65471 0.76743 0.81098
 H1348 H 0.64217 0.75134 0.85386
 C1349 C 0.11575 0.33633 0.79969
 C1350 C 0.11894 0.33656 0.83518
 C1351 C 0.09182 0.32510 0.85420
 C1352 C 0.06497 0.30959 0.83780
 C1353 C 0.06418 0.30649 0.80207
 C1354 C 0.08888 0.32228 0.78354
 C1355 C 0.10951 0.30909 0.75509
 C1356 C 0.13897 0.32459 0.77295
 H1357 H 0.09210 0.32653 0.88169
 H1358 H 0.04538 0.29922 0.85305
 H1359 H 0.10350 0.32144 0.73047
 H1360 H 0.11034 0.28115 0.75427
 H1361 H 0.14986 0.34590 0.75866
 H1362 H 0.15686 0.30566 0.78265
 C1363 C 0.12295 0.83352 0.29664
 C1364 C 0.12960 0.82892 0.33125
 C1365 C 0.10606 0.81139 0.35064
 C1366 C 0.07916 0.79563 0.33459
 C1367 C 0.07495 0.79789 0.29904
 C1368 C 0.09619 0.81876 0.28102
 C1369 C 0.11524 0.81163 0.24938
 C1370 C 0.14454 0.82802 0.26659
 H1371 H 0.10928 0.80856 0.37783
 H1372 H 0.06232 0.78095 0.34974
 H1373 H 0.11867 0.78422 0.24485
 H1374 H 0.10582 0.82614 0.22722
 H1375 H 0.15190 0.85209 0.25450
 H1376 H 0.16502 0.81019 0.27197
 C1377 C 0.59910 0.69201 0.65442
 C1378 C 0.62374 0.67531 0.67277
 C1379 C 0.62212 0.67700 0.70866
 C1380 C 0.59481 0.69167 0.72492
 C1381 C 0.56907 0.70598 0.70570
 C1382 C 0.57276 0.70746 0.67040
 C1383 C 0.54957 0.69676 0.64298
 C1384 C 0.57858 0.67991 0.62554
 H1385 H 0.64159 0.66646 0.72417
 H1386 H 0.59382 0.69177 0.75244
 H1387 H 0.53959 0.71857 0.62853
 H1388 H 0.53084 0.67867 0.65217
 H1389 H 0.58539 0.69210 0.60113
 H1390 H 0.57681 0.65201 0.62467
 C1391 C 0.61832 0.19973 0.17269
 C1392 C 0.62167 0.16469 0.17370
 C1393 C 0.59579 0.14642 0.18877
 C1394 C 0.57005 0.16337 0.20585
 C1395 C 0.56919 0.19884 0.20714
 C1396 C 0.59264 0.21631 0.18846
 C1397 C 0.61437 0.24455 0.19926
 C1398 C 0.64244 0.22636 0.18169
 H1399 H 0.59610 0.11920 0.18856
 H1400 H 0.55125 0.14884 0.21843
 H1401 H 0.61742 0.24581 0.22736
 H1402 H 0.60754 0.26863 0.18668
 H1403 H 0.66177 0.21725 0.19951
 H1404 H 0.65160 0.23982 0.15886
 C1405 C 0.13108 0.70514 0.17367
 C1406 C 0.13047 0.67048 0.16687
 C1407 C 0.10304 0.65222 0.17843
 C1408 C 0.07656 0.66866 0.19434
 C1409 C 0.07631 0.70390 0.19797
 C1410 C 0.10454 0.72138 0.18855
 C1411 C 0.10868 0.75208 0.16729
 C1412 C 0.13808 0.73459 0.15124
 H1413 H 0.10216 0.62521 0.17509
 H1414 H 0.05590 0.65395 0.20300
 H1415 H 0.11555 0.77446 0.18261
 H1416 H 0.08794 0.75604 0.14925
 H1417 H 0.16180 0.74670 0.15781
 H1418 H 0.13464 0.72930 0.12376
 C1419 C 0.10821 0.16877 0.70374
 C1420 C 0.11359 0.17254 0.66877
 C1421 C 0.08940 0.19032 0.65006
 C1422 C 0.06354 0.20725 0.66692
 C1423 C 0.06091 0.20591 0.70268
 C1424 C 0.08244 0.18457 0.72013
 C1425 C 0.10261 0.19102 0.75124
 C1426 C 0.13095 0.17372 0.73313
 H1427 H 0.09130 0.19247 0.62269
 H1428 H 0.04631 0.22211 0.65216
 H1429 H 0.09359 0.17670 0.77359
 H1430 H 0.10679 0.21826 0.75587
 H1431 H 0.13826 0.14950 0.74513
 H1432 H 0.15155 0.19093 0.72705
 C1433 C 0.40586 0.69221 0.34509
 C1434 C 0.37992 0.67839 0.32632
 C1435 C 0.38018 0.68345 0.29074
 C1436 C 0.40742 0.69819 0.27475
 C1437 C 0.43451 0.70916 0.29407
 C1438 C 0.43222 0.70775 0.32947
 C1439 C 0.45594 0.69349 0.35474
 C1440 C 0.42694 0.67655 0.37180
 H1441 H 0.35974 0.67535 0.27517
 H1442 H 0.40737 0.70094 0.24733
 H1443 H 0.46733 0.71338 0.37071
 H1444 H 0.47355 0.67542 0.34308
 H1445 H 0.42155 0.68678 0.39752
 H1446 H 0.42759 0.64863 0.36999
 C1447 C 0.38742 0.14733 0.80449
 C1448 C 0.36510 0.16575 0.82420
 C1449 C 0.36887 0.20105 0.82495
 C1450 C 0.39644 0.21631 0.80995
 C1451 C 0.42033 0.19670 0.79310
 C1452 C 0.41410 0.16238 0.78903
 C1453 C 0.43571 0.13274 0.79611
 C1454 C 0.40631 0.11628 0.81298
 H1455 H 0.35098 0.21677 0.83771
 H1456 H 0.39918 0.24333 0.81180
 H1457 H 0.45593 0.13868 0.81418
 H1458 H 0.44348 0.11980 0.77237
 H1459 H 0.40940 0.11268 0.84087
 H1460 H 0.39709 0.09398 0.79888
 C1461 C 0.89147 0.64741 0.80539
 C1462 C 0.86725 0.66636 0.82190
 C1463 C 0.87064 0.70171 0.82160
 C1464 C 0.89921 0.71674 0.80877
 C1465 C 0.92469 0.69688 0.79513
 C1466 C 0.91929 0.66229 0.79187
 C1467 C 0.94053 0.63350 0.80280
 C1468 C 0.90994 0.61729 0.81747
 H1469 H 0.85159 0.71772 0.83199
 H1470 H 0.90137 0.74388 0.80956
 H1471 H 0.95883 0.64081 0.82249
 H1472 H 0.95078 0.61950 0.78073
 H1473 H 0.91037 0.61524 0.84569
 H1474 H 0.90247 0.59408 0.80375
 C1475 C 0.90346 0.19335 0.34259
 C1476 C 0.87946 0.17416 0.32616
 C1477 C 0.87921 0.17462 0.29019
 C1478 C 0.90458 0.19063 0.27203
 C1479 C 0.93005 0.20730 0.28950
 C1480 C 0.92777 0.20985 0.32483
 C1481 C 0.95288 0.20223 0.35154
 C1482 C 0.92602 0.18416 0.37103
 H1483 H 0.85986 0.16217 0.27617
 H1484 H 0.90435 0.18988 0.24448
 H1485 H 0.96162 0.22537 0.36454
 H1486 H 0.97261 0.18514 0.34227
 H1487 H 0.91923 0.19697 0.39517
 H1488 H 0.93008 0.15655 0.37305
 C1489 C 0.34261 0.30939 0.59726
 C1490 C 0.32642 0.32378 0.62509
 C1491 C 0.29208 0.31971 0.62689
 C1492 C 0.27467 0.30524 0.59952
 C1493 C 0.29146 0.29351 0.57050
 C1494 C 0.32568 0.29412 0.57091
 C1495 C 0.34884 0.30760 0.54493
 C1496 C 0.36737 0.32429 0.57399
 H1497 H 0.27872 0.32856 0.64893
 H1498 H 0.24821 0.30328 0.60098
 H1499 H 0.33691 0.32584 0.52730
 H1500 H 0.36311 0.28725 0.53231
 H1501 H 0.36614 0.35224 0.57337
 H1502 H 0.39225 0.31347 0.57818
 C1503 C 0.34888 0.81570 0.10048
 C1504 C 0.33223 0.83289 0.12635
 C1505 C 0.29762 0.83112 0.12624
 C1506 C 0.28077 0.81568 0.09900
 C1507 C 0.29820 0.80085 0.07184
 C1508 C 0.33239 0.79971 0.07421
 C1509 C 0.35758 0.81004 0.04879
 C1510 C 0.37562 0.82749 0.07773
 H1511 H 0.28361 0.84228 0.14674
 H1512 H 0.25420 0.81536 0.09917
 H1513 H 0.34765 0.82775 0.02938
 H1514 H 0.37124 0.78810 0.03834
 H1515 H 0.37611 0.85535 0.07523
 H1516 H 0.39958 0.81552 0.08404
 C1517 C 0.79227 0.32058 0.12384
 C1518 C 0.82564 0.32834 0.12028
 C1519 C 0.84207 0.31492 0.09165
 C1520 C 0.82482 0.29691 0.06645
 C1521 C 0.79062 0.29274 0.06886
 C1522 C 0.77532 0.30334 0.09877
 C1523 C 0.74439 0.32254 0.10453
 C1524 C 0.76288 0.34182 0.13194
 H1525 H 0.86813 0.31894 0.08846
 H1526 H 0.83794 0.28758 0.04443
 H1527 H 0.72459 0.30637 0.11485
 H1528 H 0.73729 0.33836 0.08236
 H1529 H 0.75348 0.33704 0.15800
 H1530 H 0.76604 0.36875 0.12532
 C1531 C 0.80247 0.84610 0.61797
 C1532 C 0.83558 0.83915 0.62484
 C1533 C 0.85269 0.81948 0.60069
 C1534 C 0.83565 0.80319 0.57412
 C1535 C 0.80139 0.80716 0.57055
 C1536 C 0.78591 0.83099 0.59123
 C1537 C 0.75504 0.82844 0.61141
 C1538 C 0.77328 0.84505 0.64069
 H1539 H 0.87877 0.81498 0.60354
 H1540 H 0.84903 0.78647 0.55733
 H1541 H 0.74827 0.80199 0.61674
 H1542 H 0.73502 0.84435 0.60075
 H1543 H 0.77699 0.82821 0.66296
 H1544 H 0.76384 0.87062 0.64681
 C1545 C 0.34368 0.70752 0.38460
 C1546 C 0.34189 0.67340 0.37595
 C1547 C 0.32734 0.65159 0.39990
 C1548 C 0.31080 0.66469 0.42853
 C1549 C 0.30945 0.69970 0.43420
 C1550 C 0.32822 0.72029 0.41314
 C1551 C 0.31890 0.75209 0.39523
 C1552 C 0.33590 0.73799 0.36391
 H1553 H 0.32680 0.62475 0.39527
 H1554 H 0.29780 0.64767 0.44518
 H1555 H 0.33155 0.77435 0.40616
 H1556 H 0.29190 0.75498 0.39202
 H1557 H 0.35833 0.75213 0.35683
 H1558 H 0.31880 0.73255 0.34251
 C1559 C 0.29004 0.16078 0.87762
 C1560 C 0.32384 0.16237 0.87169
 C1561 C 0.34329 0.17833 0.89673
 C1562 C 0.32846 0.19586 0.92396
 C1563 C 0.29400 0.19692 0.92713
 C1564 C 0.27553 0.17726 0.90477
 C1565 C 0.24631 0.18683 0.88384
 C1566 C 0.26208 0.16828 0.85429
 H1567 H 0.36973 0.17880 0.89427
 H1568 H 0.34381 0.20927 0.94191
 H1569 H 0.24478 0.21442 0.87962
 H1570 H 0.22342 0.17481 0.89304
 H1571 H 0.26912 0.18502 0.83289
 H1572 H 0.24864 0.14514 0.84679
 C1573 C 0.84265 0.68106 0.89206
 C1574 C 0.82376 0.66593 0.86655
 C1575 C 0.78929 0.66879 0.86915
 C1576 C 0.77475 0.68302 0.89824
 C1577 C 0.79434 0.69557 0.92491
 C1578 C 0.82834 0.69597 0.92032
 C1579 C 0.85486 0.68313 0.94329
 C1580 C 0.87049 0.66697 0.91218
 H1581 H 0.77356 0.65961 0.84897
 H1582 H 0.74825 0.68443 0.89977
 H1583 H 0.84574 0.66454 0.96211
 H1584 H 0.86977 0.70386 0.95424
 H1585 H 0.87042 0.63900 0.91287
 H1586 H 0.89428 0.67852 0.90505
 C1587 C 0.83901 0.20878 0.37795
 C1588 C 0.84204 0.17370 0.37615
 C1589 C 0.83170 0.15506 0.40474
 C1590 C 0.81428 0.17090 0.43129
 C1591 C 0.80812 0.20580 0.43028
 C1592 C 0.82291 0.22450 0.40455
 C1593 C 0.80837 0.25052 0.38153
 C1594 C 0.82614 0.23320 0.35236
 H1595 H 0.83517 0.12806 0.40551
 H1596 H 0.80464 0.15579 0.45183
 H1597 H 0.81794 0.27609 0.38711
 H1598 H 0.78118 0.24878 0.37971
 H1599 H 0.84597 0.24875 0.34120
 H1600 H 0.80931 0.22131 0.33360
 C1601 C 0.69206 0.34841 0.39181
 C1602 C 0.67266 0.33084 0.36837
 C1603 C 0.67392 0.29536 0.36963
 C1604 C 0.69038 0.27876 0.39646
 C1605 C 0.70671 0.29724 0.42206
 C1606 C 0.70880 0.33209 0.41783
 C1607 C 0.70174 0.35983 0.44244
 C1608 C 0.68350 0.37769 0.41378
 H1609 H 0.66143 0.28053 0.35050
 H1610 H 0.68982 0.25154 0.39748
 H1611 H 0.72443 0.37309 0.45050
 H1612 H 0.68549 0.35176 0.46357
 H1613 H 0.69574 0.40113 0.40525
 H1614 H 0.65664 0.38000 0.41822
 C1615 C 0.65458 0.81149 0.89855
 C1616 C 0.67196 0.82373 0.87051
 C1617 C 0.70583 0.81632 0.86890
 C1618 C 0.72190 0.80067 0.89639
 C1619 C 0.70430 0.79123 0.92562
 C1620 C 0.67023 0.79510 0.92524
 C1621 C 0.64836 0.81140 0.95092
 C1622 C 0.63124 0.82922 0.92154
 H1623 H 0.71999 0.82341 0.84681
 H1624 H 0.74811 0.79622 0.89495
 H1625 H 0.66182 0.82880 0.96811
 H1626 H 0.63245 0.79285 0.96398
 H1627 H 0.63480 0.85694 0.92162
 H1628 H 0.60554 0.82079 0.91756
 C1629 C 0.15427 0.29887 0.89012
 C1630 C 0.16100 0.33254 0.88231
 C1631 C 0.18130 0.35016 0.90543
 C1632 C 0.19817 0.33296 0.93162
 C1633 C 0.19434 0.29796 0.93599
 C1634 C 0.17005 0.28216 0.91655
 C1635 C 0.17113 0.24997 0.89698
 C1636 C 0.15392 0.26838 0.86803
 H1637 H 0.18585 0.37673 0.90195
 H1638 H 0.21532 0.34675 0.94738
 H1639 H 0.15577 0.23015 0.90879
 H1640 H 0.19653 0.24216 0.89068
 H1641 H 0.12862 0.25915 0.86322
 H1642 H 0.16940 0.27125 0.84498
 C1643 C 0.19443 0.83985 0.39778
 C1644 C 0.17636 0.82299 0.37275
 C1645 C 0.17725 0.78745 0.37322
 C1646 C 0.19258 0.77009 0.40029
 C1647 C 0.20800 0.78793 0.42690
 C1648 C 0.21016 0.82284 0.42387
 C1649 C 0.20199 0.84974 0.44906
 C1650 C 0.18476 0.86838 0.42027
 H1651 H 0.16546 0.77316 0.35322
 H1652 H 0.19202 0.74286 0.40062
 H1653 H 0.22427 0.86286 0.45849
 H1654 H 0.18499 0.84093 0.46923
 H1655 H 0.19719 0.89216 0.41305
 H1656 H 0.15774 0.87036 0.42362
 C1657 C 0.66317 0.70958 0.62065
 C1658 C 0.66455 0.67466 0.62526
 C1659 C 0.68064 0.65563 0.59982
 C1660 C 0.69848 0.67178 0.57381
 C1661 C 0.69975 0.70720 0.57218
 C1662 C 0.67999 0.72540 0.59465
 C1663 C 0.68880 0.75439 0.61701
 C1664 C 0.66999 0.73718 0.64533
 H1665 H 0.68096 0.62844 0.60113
 H1666 H 0.71201 0.65664 0.55568
 H1667 H 0.67727 0.77832 0.60840
 H1668 H 0.71558 0.75555 0.62209
 H1669 H 0.64731 0.75095 0.65275
 H1670 H 0.68582 0.72888 0.66687
 C1671 C 0.64949 0.18124 0.10603
 C1672 C 0.66730 0.16491 0.13170
 C1673 C 0.70181 0.16819 0.13117
 C1674 C 0.71751 0.18391 0.10352
 C1675 C 0.69894 0.19756 0.07650
 C1676 C 0.66481 0.19756 0.07944
 C1677 C 0.63932 0.18637 0.05454
 C1678 C 0.62253 0.16851 0.08391
 H1679 H 0.71660 0.15803 0.15168
 H1680 H 0.74405 0.18520 0.10317
 H1681 H 0.64927 0.16889 0.03498
 H1682 H 0.62478 0.20786 0.04434
 H1683 H 0.62279 0.14064 0.08149
 H1684 H 0.59841 0.17979 0.09069
 C1685 C 0.16560 0.66394 0.09200
 C1686 C 0.17636 0.66784 0.12551
 C1687 C 0.20601 0.68499 0.13130
 C1688 C 0.22220 0.70098 0.10423
 C1689 C 0.20853 0.70055 0.07130
 C1690 C 0.18114 0.68028 0.06550
 C1691 C 0.14945 0.68719 0.04764
 C1692 C 0.13247 0.66859 0.07646
 H1693 H 0.21585 0.68692 0.15684
 H1694 H 0.24435 0.71511 0.10931
 H1695 H 0.14767 0.67367 0.02303
 H1696 H 0.14332 0.71446 0.04667
 H1697 H 0.12166 0.64426 0.06829
 H1698 H 0.11586 0.68474 0.09180
 C1699 C 0.17291 0.15646 0.59813
 C1700 C 0.15743 0.17487 0.62377
 C1701 C 0.15904 0.21037 0.62071
 C1702 C 0.17562 0.22556 0.59302
 C1703 C 0.19179 0.20570 0.56819
 C1704 C 0.18947 0.17107 0.57212
 C1705 C 0.19948 0.13838 0.55681
 C1706 C 0.18079 0.12170 0.58631
 H1707 H 0.14825 0.22634 0.64002
 H1708 H 0.17669 0.25274 0.59171
 H1709 H 0.22647 0.13434 0.55797
 H1710 H 0.18797 0.13421 0.53150
 H1711 H 0.19714 0.10786 0.60417
 H1712 H 0.15853 0.10784 0.57803
   
