data_POSCAR
  _audit_creation_date              2014-09-24
  _audit_creation_method            'ToBaCCo'
  _symmetry_space_group_name_H-M    'P1'
  _symmetry_Int_Tables_number       1
  _symmetry_cell_setting            triclinic
  loop_
  _symmetry_equiv_pos_as_xyz
 x,y,z
_cell_length_a 60.6885
_cell_length_b 60.5866
_cell_length_c 60.3170
_cell_angle_alpha 88.869200
_cell_angle_beta 91.404500
_cell_angle_gamma 89.417900
loop_
  _atom_site_label
  _atom_site_type_symbol
  _atom_site_fract_x
  _atom_site_fract_y
  _atom_site_fract_z
C1 C 0.09567 0.02419 0.22278
 H2 H 0.09520 0.03715 0.23485
 C3 C 0.08510 0.02729 0.20202
 H4 H 0.07637 0.04263 0.19828
 C5 C 0.10869 -0.01103 0.21243
 H6 H 0.11840 -0.02570 0.21609
 C7 C 0.09843 -0.00864 0.19162
 H8 H 0.09982 -0.02190 0.17994
 N9 N 0.10723 0.00526 0.22756
 C10 C 0.11919 -0.00277 0.29910
 H11 H 0.13657 -0.00679 0.29841
 C12 C 0.10861 -0.00394 0.31932
 H13 H 0.11800 -0.00911 0.33403
 C14 C 0.08587 0.00778 0.28033
 H15 H 0.07708 0.01208 0.26502
 C16 C 0.07460 0.00697 0.30033
 H17 H 0.05720 0.01109 0.30023
 Zn18 Zn 0.12461 0.00240 0.25409
 N19 N 0.10782 0.00306 0.28015
 C20 C 0.14558 0.04001 0.27119
 N21 N 0.14510 0.02574 0.25408
 C22 C 0.15764 0.02908 0.23594
 C23 C 0.17097 0.04772 0.23429
 C24 C 0.15865 0.05876 0.27025
 C25 C 0.12548 -0.04300 0.25682
 C26 C 0.13404 -0.06438 0.25650
 C27 C 0.17035 -0.04905 0.25249
 C28 C 0.16095 -0.02792 0.25275
 N29 N 0.13885 -0.02536 0.25454
 H30 H 0.13529 0.03730 0.28531
 H31 H 0.15668 0.01765 0.22240
 H32 H 0.18019 0.05059 0.21939
 H33 H 0.15856 0.07006 0.28394
 H34 H 0.10797 -0.04039 0.25871
 H35 H 0.12258 -0.07762 0.25923
 H36 H 0.18784 -0.05001 0.24972
 H37 H 0.17129 -0.01359 0.25110
 C38 C 0.08600 0.00102 0.32021
 C39 C 0.08671 0.01082 0.18601
 C40 C 0.15693 -0.06807 0.25408
 C41 C 0.17117 0.06310 0.25141
 C42 C 0.40517 0.01417 0.77468
 H43 H 0.40478 0.02667 0.76161
 C44 C 0.41692 0.01782 0.79443
 H45 H 0.42565 0.03317 0.79647
 C46 C 0.39311 -0.02050 0.78837
 H47 H 0.38338 -0.03515 0.78618
 C48 C 0.40453 -0.01749 0.80839
 H49 H 0.40390 -0.03016 0.82128
 N50 N 0.39355 -0.00471 0.77206
 C51 C 0.38109 -0.01139 0.70122
 H52 H 0.36341 -0.01356 0.70131
 C53 C 0.39227 -0.01264 0.68137
 H54 H 0.38306 -0.01598 0.66624
 C55 C 0.41453 -0.00529 0.72117
 H56 H 0.42316 -0.00271 0.73676
 C57 C 0.42639 -0.00628 0.70165
 H58 H 0.44405 -0.00396 0.70239
 Zn59 Zn 0.37544 -0.00703 0.74641
 N60 N 0.39226 -0.00761 0.72055
 C61 C 0.35708 0.03289 0.72880
 N62 N 0.35656 0.01792 0.74587
 C63 C 0.34437 0.02162 0.76408
 C64 C 0.33219 0.04116 0.76574
 C65 C 0.34525 0.05268 0.72983
 C66 C 0.37116 -0.05258 0.74585
 C67 C 0.36052 -0.07286 0.74594
 C68 C 0.32575 -0.05351 0.74912
 C69 C 0.33707 -0.03356 0.74886
 N70 N 0.35939 -0.03349 0.74745
 H71 H 0.36724 0.02987 0.71470
 H72 H 0.34468 0.00964 0.77763
 H73 H 0.32308 0.04414 0.78062
 H74 H 0.34606 0.06456 0.71623
 H75 H 0.38887 -0.05197 0.74439
 H76 H 0.37018 -0.08784 0.74431
 H77 H 0.30801 -0.05327 0.75063
 H78 H 0.32799 -0.01820 0.74972
 C79 C 0.41523 -0.00996 0.68138
 C80 C 0.41640 0.00199 0.81170
 C81 C 0.33750 -0.07352 0.74763
 C82 C 0.33289 0.05715 0.74863
 C83 C 0.91000 0.51437 0.26655
 H84 H 0.91466 0.52401 0.25218
 C85 C 0.92103 0.51731 0.28694
 H86 H 0.93486 0.52835 0.28699
 C87 C 0.88616 0.48859 0.28298
 H88 H 0.87193 0.47808 0.28162
 C89 C 0.89615 0.49149 0.30371
 H90 H 0.88860 0.48310 0.31744
 N91 N 0.89317 0.49985 0.26487
 C92 C 0.87696 0.49642 0.19370
 H93 H 0.85929 0.49572 0.19552
 C94 C 0.88579 0.49620 0.17261
 H95 H 0.87480 0.49518 0.15826
 C96 C 0.91264 0.49786 0.21041
 H97 H 0.92305 0.49798 0.22519
 C98 C 0.92224 0.49750 0.18954
 H99 H 0.94001 0.49791 0.18843
 Zn100 Zn 0.87498 0.49757 0.23904
 N101 N 0.89032 0.49769 0.21205
 C102 C 0.85664 0.53816 0.22366
 N103 N 0.85512 0.52183 0.23933
 C104 C 0.84154 0.52393 0.25680
 C105 C 0.82904 0.54323 0.25917
 C106 C 0.84448 0.55765 0.22538
 C107 C 0.87431 0.45233 0.24118
 C108 C 0.86587 0.43107 0.24240
 C109 C 0.82909 0.44682 0.24138
 C110 C 0.83829 0.46790 0.24026
 N111 N 0.86056 0.47018 0.24035
 H112 H 0.86801 0.53657 0.21028
 H113 H 0.84103 0.51094 0.26932
 H114 H 0.81888 0.54494 0.27355
 H115 H 0.84614 0.57054 0.21286
 H116 H 0.89195 0.45471 0.24100
 H117 H 0.87714 0.41709 0.24291
 H118 H 0.81135 0.44520 0.24159
 H119 H 0.82768 0.48234 0.23932
 C120 C 0.90870 0.49686 0.17030
 C121 C 0.91413 0.50600 0.30635
 C122 C 0.84299 0.42809 0.24260
 C123 C 0.83081 0.56057 0.24355
 C124 C 0.59268 0.52375 0.72542
 H125 H 0.59229 0.53685 0.73735
 C126 C 0.58023 0.52571 0.70565
 H127 H 0.57022 0.54037 0.70240
 C128 C 0.60707 0.48917 0.71463
 H129 H 0.61787 0.47516 0.71790
 C130 C 0.59504 0.49052 0.69468
 H131 H 0.59640 0.47725 0.68300
 N132 N 0.60575 0.50567 0.72951
 C133 C 0.61946 0.50053 0.80054
 H134 H 0.63717 0.49844 0.80014
 C135 C 0.60878 0.49920 0.82069
 H136 H 0.61842 0.49590 0.83575
 C137 C 0.58543 0.50641 0.78109
 H138 H 0.57640 0.50890 0.76558
 C139 C 0.57405 0.50531 0.80094
 H140 H 0.55631 0.50745 0.80053
 Zn141 Zn 0.62423 0.50450 0.75521
 N142 N 0.60776 0.50424 0.78131
 C143 C 0.64216 0.54426 0.77101
 N144 N 0.64253 0.52953 0.75430
 C145 C 0.65468 0.53322 0.73597
 C146 C 0.66711 0.55240 0.73392
 C147 C 0.65432 0.56361 0.76965
 C148 C 0.62940 0.45924 0.75940
 C149 C 0.64014 0.43881 0.76042
 C150 C 0.67462 0.45741 0.75452
 C151 C 0.66318 0.47756 0.75372
 N152 N 0.64093 0.47804 0.75588
 H153 H 0.63209 0.54128 0.78525
 H154 H 0.65433 0.52143 0.72273
 H155 H 0.67629 0.55531 0.71899
 H156 H 0.65383 0.57511 0.78316
 H157 H 0.61175 0.46018 0.76142
 H158 H 0.63063 0.42409 0.76346
 H159 H 0.69227 0.45725 0.75230
 H160 H 0.67207 0.49274 0.75130
 C161 C 0.58577 0.50169 0.82110
 C162 C 0.58161 0.50907 0.68987
 C163 C 0.66304 0.43767 0.75780
 C164 C 0.66682 0.56801 0.75082
 C165 C 0.28063 0.10371 0.98524
 H166 H 0.26907 0.10037 0.97182
 C167 C 0.30207 0.09507 0.98491
 H168 H 0.30684 0.08506 0.97112
 C169 C 0.28875 0.12192 1.01881
 H170 H 0.28373 0.13281 1.03175
 C171 C 0.31028 0.11356 1.01919
 H172 H 0.32132 0.11766 1.03282
 N173 N 0.27440 0.11691 1.00200
 C174 C 0.20257 0.11931 1.00246
 H175 H 0.20085 0.13710 1.00256
 C176 C 0.18391 0.10618 1.00342
 H177 H 0.16792 0.11409 1.00455
 C178 C 0.22578 0.08768 1.00158
 H179 H 0.24218 0.08062 1.00096
 C180 C 0.20742 0.07382 1.00240
 H181 H 0.20987 0.05611 1.00208
 Zn182 Zn 0.24616 0.13068 1.00019
 N183 N 0.22296 0.10999 1.00138
 C184 C 0.23066 0.13792 0.95653
 N185 N 0.24409 0.14630 0.97259
 C186 C 0.25735 0.16373 0.96818
 C187 C 0.25702 0.17373 0.94702
 C188 C 0.23016 0.14706 0.93515
 C189 C 0.24097 0.13764 1.04447
 C190 C 0.23855 0.14864 1.06429
 C191 C 0.23877 0.18323 1.04380
 C192 C 0.24103 0.17138 1.02423
 N193 N 0.24257 0.14900 1.02501
 H194 H 0.22091 0.12351 0.96000
 H195 H 0.26844 0.16968 0.98098
 H196 H 0.26741 0.18783 0.94406
 H197 H 0.21995 0.13936 0.92260
 H198 H 0.24153 0.11978 1.04453
 H199 H 0.23624 0.13834 1.07883
 H200 H 0.23889 0.20099 1.04217
 H201 H 0.24185 0.18015 1.00852
 C202 C 0.18609 0.08309 1.00313
 C203 C 0.31731 0.10011 1.00198
 C204 C 0.23794 0.17204 1.06470
 C205 C 0.24339 0.16528 0.93003
 C206 C 0.71895 0.40676 0.97856
 H207 H 0.73107 0.41224 0.96687
 C208 C 0.69768 0.41598 0.97775
 H209 H 0.69353 0.42876 0.96551
 C210 C 0.70916 0.38284 1.00820
 H211 H 0.71336 0.36951 1.01971
 C212 C 0.68783 0.39139 1.00785
 H213 H 0.67616 0.38503 1.01961
 N214 N 0.72434 0.39074 0.99393
 C215 C 0.79574 0.38464 0.99858
 H216 H 0.79568 0.36685 1.00048
 C217 C 0.81560 0.39579 0.99914
 H218 H 0.83074 0.38641 1.00182
 C219 C 0.77575 0.41825 0.99350
 H220 H 0.76012 0.42685 0.99151
 C221 C 0.79544 0.43018 0.99382
 H222 H 0.79486 0.44796 0.99171
 Zn223 Zn 0.75221 0.37651 0.99519
 N224 N 0.77639 0.39584 0.99553
 C225 C 0.76746 0.36590 0.95361
 N226 N 0.75430 0.35846 0.97000
 C227 C 0.74162 0.34028 0.96722
 C228 C 0.74237 0.32853 0.94745
 C229 C 0.76844 0.35496 0.93360
 C230 C 0.75436 0.37500 1.04000
 C231 C 0.75410 0.36680 1.06164
 C232 C 0.75542 0.32987 1.04735
 C233 C 0.75560 0.33894 1.02582
 N234 N 0.75454 0.36115 1.02263
 H235 H 0.77667 0.38091 0.95565
 H236 H 0.73070 0.33507 0.98018
 H237 H 0.73241 0.31393 0.94570
 H238 H 0.77845 0.36187 0.92064
 H239 H 0.75400 0.39265 1.03692
 H240 H 0.75474 0.37883 1.07462
 H241 H 0.75486 0.31210 1.04878
 H242 H 0.75597 0.32821 1.01173
 C243 C 0.81572 0.41882 0.99638
 C244 C 0.68184 0.40817 0.99253
 C245 C 0.75408 0.34378 1.06602
 C246 C 0.75586 0.33593 0.93021
 C247 C 0.22148 0.90447 0.48861
 H248 H 0.23267 0.90399 0.47493
 C249 C 0.20226 0.91735 0.48681
 H250 H 0.19874 0.92674 0.47166
 C251 C 0.21204 0.89198 0.52459
 H252 H 0.21575 0.88183 0.53916
 C253 C 0.19261 0.90453 0.52346
 H254 H 0.18171 0.90420 0.53741
 N255 N 0.22602 0.89217 0.50730
 C256 C 0.29674 0.87918 0.51077
 H257 H 0.29647 0.86150 0.51360
 C258 C 0.31679 0.89022 0.51085
 H259 H 0.33188 0.88087 0.51402
 C260 C 0.27717 0.91279 0.50406
 H261 H 0.26169 0.92154 0.50165
 C262 C 0.29690 0.92450 0.50388
 H263 H 0.29635 0.94217 0.50089
 Zn264 Zn 0.25139 0.87368 0.50799
 N265 N 0.27748 0.89050 0.50723
 C266 C 0.26593 0.85614 0.46788
 N267 N 0.24960 0.85547 0.48289
 C268 C 0.23126 0.84312 0.47942
 C269 C 0.22883 0.83083 0.46013
 C270 C 0.26416 0.84419 0.44843
 C271 C 0.25810 0.86767 0.55336
 C272 C 0.26089 0.85630 0.57357
 C273 C 0.25291 0.82231 0.55483
 C274 C 0.25055 0.83434 0.53488
 N275 N 0.25299 0.85663 0.53456
 H276 H 0.28019 0.86631 0.47066
 H277 H 0.21833 0.84320 0.49145
 H278 H 0.21394 0.82149 0.45736
 H279 H 0.27734 0.84500 0.43667
 H280 H 0.26035 0.88535 0.55254
 H281 H 0.26545 0.86544 0.58819
 H282 H 0.25044 0.80465 0.55480
 H283 H 0.24686 0.82581 0.51970
 C284 C 0.31709 0.91318 0.50725
 C285 C 0.18744 0.91734 0.50433
 C286 C 0.25819 0.83329 0.57456
 C287 C 0.24530 0.83157 0.44421
 C288 C 0.77219 0.59846 0.48086
 H289 H 0.75935 0.59743 0.46817
 C290 C 0.79163 0.58620 0.47904
 H291 H 0.79372 0.57580 0.46484
 C292 C 0.78540 0.61408 0.51431
 H293 H 0.78303 0.62522 0.52783
 C294 C 0.80513 0.60219 0.51310
 H295 H 0.81767 0.60402 0.52600
 N296 N 0.76942 0.61198 0.49832
 C297 C 0.69898 0.62160 0.50390
 H298 H 0.69851 0.63946 0.50396
 C299 C 0.67972 0.60974 0.50692
 H300 H 0.66451 0.61869 0.50950
 C301 C 0.71980 0.58847 0.50154
 H302 H 0.73553 0.58027 0.49981
 C303 C 0.70082 0.57590 0.50423
 H304 H 0.70211 0.55807 0.50393
 Zn305 Zn 0.74334 0.62915 0.49863
 N306 N 0.71847 0.61090 0.50118
 C307 C 0.72657 0.63904 0.45582
 N308 N 0.74166 0.64529 0.47142
 C309 C 0.75703 0.66074 0.46670
 C310 C 0.75736 0.67086 0.44565
 C311 C 0.72664 0.64828 0.43448
 C312 C 0.74151 0.63624 0.54339
 C313 C 0.74010 0.64758 0.56316
 C314 C 0.74232 0.68193 0.54237
 C315 C 0.74339 0.66986 0.52284
 N316 N 0.74325 0.64740 0.52377
 H317 H 0.71503 0.62612 0.45960
 H318 H 0.76933 0.66493 0.47916
 H319 H 0.76951 0.68341 0.44248
 H320 H 0.71504 0.64216 0.42222
 H321 H 0.74093 0.61840 0.54360
 H322 H 0.73821 0.63821 0.57845
 H323 H 0.74293 0.69977 0.54136
 H324 H 0.74421 0.67847 0.50704
 C325 C 0.68039 0.58654 0.50690
 C326 C 0.80847 0.58814 0.49522
 C327 C 0.74071 0.67076 0.56294
 C328 C 0.74218 0.66447 0.42902
 C329 C 0.00026 0.21201 0.08830
 H330 H 0.00152 0.22713 0.07866
 C331 C 0.00048 0.19165 0.07769
 H332 H 0.00153 0.19127 0.05981
 C333 C -0.00287 0.19389 0.12328
 H334 H -0.00422 0.19497 0.14108
 C335 C -0.00260 0.17337 0.11346
 H336 H -0.00343 0.15867 0.12389
 N337 N -0.00186 0.21266 0.11068
 C338 C 0.01351 0.27995 0.11986
 H339 H 0.02225 0.27657 0.13539
 C340 C 0.01603 0.30038 0.10934
 H341 H 0.02644 0.31211 0.11769
 C342 C -0.01255 0.26925 0.09251
 H343 H -0.02399 0.25712 0.08629
 C344 C -0.01030 0.28943 0.08113
 H345 H -0.01955 0.29171 0.06573
 Zn346 Zn -0.00379 0.23820 0.12783
 N347 N -0.00042 0.26477 0.11129
 C348 C 0.03948 0.23331 0.13853
 N349 N 0.01986 0.23550 0.14863
 C350 C 0.01863 0.23567 0.17114
 C351 C 0.03799 0.23489 0.18432
 C352 C 0.05902 0.23230 0.15093
 C353 C -0.04757 0.22580 0.13142
 C354 C -0.06879 0.22557 0.13961
 C355 C -0.05744 0.25205 0.16693
 C356 C -0.03644 0.25209 0.15787
 N357 N -0.03179 0.23864 0.14080
 H358 H 0.03990 0.23282 0.12062
 H359 H 0.00282 0.23678 0.17889
 H360 H 0.03696 0.23588 0.20217
 H361 H 0.07445 0.23074 0.14242
 H362 H -0.04388 0.21598 0.11720
 H363 H -0.08110 0.21554 0.13147
 H364 H -0.06059 0.26231 0.18101
 H365 H -0.02385 0.26278 0.16453
 C366 C 0.00421 0.30566 0.08943
 C367 C -0.00135 0.17203 0.09035
 C368 C -0.07397 0.23856 0.15782
 C369 C 0.05853 0.23373 0.17409
 C370 C -0.00173 0.78862 0.41172
 H371 H -0.00498 0.77419 0.42190
 C372 C -0.00157 0.80958 0.42115
 H373 H -0.00491 0.81116 0.43860
 C374 C 0.00628 0.80431 0.37656
 H375 H 0.00926 0.80208 0.35913
 C376 C 0.00645 0.82544 0.38521
 H377 H 0.00990 0.83939 0.37439
 N378 N 0.00182 0.78648 0.38968
 C379 C 0.01400 0.71807 0.39253
 H380 H 0.02794 0.72008 0.38195
 C381 C 0.01169 0.69819 0.40419
 H382 H 0.02428 0.68551 0.40288
 C383 C -0.01960 0.73163 0.40640
 H384 H -0.03202 0.74454 0.40666
 C385 C -0.02257 0.71186 0.41841
 H386 H -0.03730 0.70974 0.42795
 Zn387 Zn 0.00079 0.75942 0.37442
 N388 N -0.00156 0.73431 0.39368
 C389 C 0.04578 0.75974 0.37322
 N390 N 0.02783 0.75758 0.35954
 C391 C 0.02995 0.75470 0.33738
 C392 C 0.05100 0.75333 0.32834
 C393 C 0.06694 0.75833 0.36498
 C394 C -0.03876 0.77716 0.35675
 C395 C -0.05932 0.77699 0.34608
 C396 C -0.05024 0.74153 0.33113
 C397 C -0.02969 0.74242 0.34228
 N398 N -0.02452 0.75990 0.35511
 H399 H 0.04356 0.76232 0.39073
 H400 H 0.01542 0.75330 0.32679
 H401 H 0.05257 0.75069 0.31075
 H402 H 0.08096 0.76008 0.37624
 H403 H -0.03466 0.79094 0.36706
 H404 H -0.06940 0.79167 0.34754
 H405 H -0.05391 0.72661 0.32232
 H406 H -0.01828 0.72862 0.34154
 C407 C -0.00696 0.69467 0.41703
 C408 C 0.00224 0.82835 0.40772
 C409 C -0.06612 0.75863 0.33356
 C410 C 0.06980 0.75489 0.34232
 C411 C 0.50221 0.28901 0.91584
 H412 H 0.49951 0.27498 0.92675
 C413 C 0.50350 0.31026 0.92452
 H414 H 0.50157 0.31249 0.94214
 C415 C 0.50775 0.30339 0.87959
 H416 H 0.50937 0.30052 0.86206
 C417 C 0.50893 0.32480 0.88748
 H418 H 0.51168 0.33836 0.87595
 N419 N 0.50397 0.28609 0.89365
 C420 C 0.51337 0.21719 0.89843
 H421 H 0.52697 0.21828 0.88729
 C422 C 0.51018 0.19753 0.91020
 H423 H 0.52175 0.18399 0.90838
 C424 C 0.48121 0.23286 0.91344
 H425 H 0.46958 0.24648 0.91398
 C426 C 0.47745 0.21340 0.92567
 H427 H 0.46299 0.21219 0.93577
 Zn428 Zn 0.50140 0.25850 0.87966
 N429 N 0.49884 0.23431 0.89997
 C430 C 0.54645 0.25702 0.87588
 N431 N 0.52757 0.25481 0.86356
 C432 C 0.52812 0.25036 0.84156
 C433 C 0.54839 0.24750 0.83128
 C434 C 0.56694 0.25428 0.86635
 C435 C 0.46152 0.27665 0.86219
 C436 C 0.44081 0.27627 0.85171
 C437 C 0.44887 0.23946 0.83939
 C438 C 0.46956 0.24056 0.85013
 N439 N 0.47540 0.25891 0.86141
 H440 H 0.54551 0.26078 0.89330
 H441 H 0.51291 0.24887 0.83203
 H442 H 0.54860 0.24362 0.81385
 H443 H 0.58171 0.25631 0.87651
 H444 H 0.46603 0.29089 0.87169
 H445 H 0.43003 0.29055 0.85274
 H446 H 0.44421 0.22445 0.83113
 H447 H 0.48062 0.22644 0.85020
 C448 C 0.49178 0.19524 0.92364
 C449 C 0.50655 0.32850 0.91017
 C450 C 0.43403 0.25736 0.84049
 C451 C 0.56817 0.24929 0.84380
 C452 C 0.51700 0.71663 0.59612
 H453 H 0.52976 0.72897 0.59635
 C454 C 0.51951 0.69769 0.58344
 H455 H 0.53429 0.69549 0.57400
 C456 C 0.48262 0.70404 0.60884
 H457 H 0.46842 0.70628 0.61901
 C458 C 0.48449 0.68492 0.59654
 H459 H 0.47142 0.67289 0.59709
 N460 N 0.49870 0.71950 0.60840
 C461 C 0.49009 0.78988 0.61957
 H462 H 0.48727 0.78921 0.63721
 C463 C 0.48895 0.81007 0.60808
 H464 H 0.48498 0.82486 0.61701
 C465 C 0.49805 0.77116 0.58653
 H466 H 0.50140 0.75594 0.57817
 C467 C 0.49715 0.79105 0.57438
 H468 H 0.50026 0.79093 0.55679
 Zn469 Zn 0.49604 0.74476 0.62636
 N470 N 0.49487 0.77100 0.60878
 C471 C 0.53493 0.76283 0.64479
 N472 N 0.52109 0.74534 0.64598
 C473 C 0.52602 0.72755 0.65939
 C474 C 0.54572 0.72678 0.67202
 C475 C 0.55468 0.76276 0.65711
 C476 C 0.45059 0.74617 0.62852
 C477 C 0.42976 0.74559 0.63774
 C478 C 0.44716 0.74041 0.67394
 C479 C 0.46777 0.74107 0.66397
 N480 N 0.46906 0.74366 0.64159
 H481 H 0.53107 0.77666 0.63379
 H482 H 0.51496 0.71366 0.65975
 H483 H 0.54968 0.71222 0.68208
 H484 H 0.56544 0.77685 0.65578
 H485 H 0.45210 0.74853 0.61080
 H486 H 0.41533 0.74776 0.62697
 H487 H 0.44638 0.73793 0.69173
 H488 H 0.48266 0.73939 0.67409
 C489 C 0.49270 0.81089 0.58520
 C490 C 0.50317 0.68144 0.58374
 C491 C 0.42778 0.74253 0.66073
 C492 C 0.56054 0.74442 0.67066
 C493 C 0.89035 0.98814 0.70741
 H494 H 0.87990 0.97398 0.70971
 C495 C 0.90176 0.99033 0.68884
 H496 H 0.90078 0.97727 0.67690
 C497 C 0.90440 1.02164 0.72192
 H498 H 0.90479 1.03405 0.73456
 C499 C 0.91767 1.02455 0.70191
 H500 H 0.92718 1.03949 0.70047
 N501 N 0.89186 1.00450 0.72424
 C502 C 0.88008 0.99648 0.79591
 H503 H 0.86227 0.99560 0.79539
 C504 C 0.89124 0.99253 0.81497
 H505 H 0.88185 0.98796 0.82931
 C506 C 0.91295 1.00110 0.77566
 H507 H 0.92139 1.00347 0.76027
 C508 C 0.92601 0.99744 0.79641
 H509 H 0.94366 0.99909 0.79540
 Zn510 Zn 0.87402 1.00259 0.74942
 N511 N 0.89153 1.00083 0.77580
 C512 C 0.86870 0.95724 0.75167
 N513 N 0.85719 0.97649 0.74891
 C514 C 0.83478 0.97675 0.74747
 C515 C 0.82311 0.95699 0.74856
 C516 C 0.85772 0.93717 0.75304
 C517 C 0.85681 1.04292 0.76534
 C518 C 0.84470 1.06264 0.76362
 C519 C 0.83023 1.05129 0.72800
 C520 C 0.84276 1.03187 0.73031
 N521 N 0.85569 1.02806 0.74876
 H522 H 0.88649 0.95755 0.75320
 H523 H 0.82590 0.99225 0.74573
 H524 H 0.80530 0.95752 0.74708
 H525 H 0.86728 0.92214 0.75579
 H526 H 0.86749 1.03975 0.77967
 H527 H 0.84587 1.07437 0.77691
 H528 H 0.82036 1.05423 0.71302
 H529 H 0.84254 1.01997 0.71717
 C530 C 0.91589 0.99312 0.81576
 C531 C 0.91630 1.00980 0.68543
 C532 C 0.83132 1.06709 0.74468
 C533 C 0.83458 0.93681 0.75147
 C534 C 0.41430 0.50289 0.22906
 H535 H 0.42172 0.50213 0.24552
 C536 C 0.42774 0.50421 0.21051
 H537 H 0.44547 0.50445 0.21290
 C538 C 0.38231 0.50241 0.20576
 H539 H 0.36454 0.50167 0.20407
 C540 C 0.39499 0.50391 0.18692
 H541 H 0.38673 0.50467 0.17081
 N542 N 0.39198 0.50223 0.22631
 C543 C 0.37726 0.48387 0.29296
 H544 H 0.36468 0.47237 0.28795
 C545 C 0.38514 0.48335 0.31487
 H546 H 0.37895 0.47113 0.32643
 C547 C 0.39995 0.51433 0.28439
 H548 H 0.40514 0.52676 0.27256
 C549 C 0.40866 0.51409 0.30609
 H550 H 0.42081 0.52619 0.31087
 Zn551 Zn 0.37149 0.50007 0.24942
 N552 N 0.38482 0.49909 0.27816
 C553 C 0.37040 0.45523 0.24472
 N554 N 0.35677 0.47316 0.24497
 C555 C 0.33455 0.47118 0.24242
 C556 C 0.32524 0.45027 0.24028
 C557 C 0.36184 0.43414 0.24246
 C558 C 0.35757 0.54221 0.23425
 C559 C 0.34518 0.56168 0.23403
 C560 C 0.32180 0.54553 0.26169
 C561 C 0.33480 0.52630 0.26149
 N562 N 0.35227 0.52498 0.24783
 H563 H 0.38801 0.45736 0.24671
 H564 H 0.32405 0.48568 0.24227
 H565 H 0.30751 0.44881 0.23852
 H566 H 0.37297 0.42004 0.24293
 H567 H 0.37192 0.54127 0.22408
 H568 H 0.34984 0.57527 0.22325
 H569 H 0.30824 0.54656 0.27297
 H570 H 0.33128 0.51263 0.27261
 C571 C 0.40108 0.49852 0.32160
 C572 C 0.41806 0.50468 0.18906
 C573 C 0.32721 0.56363 0.24806
 C574 C 0.33898 0.43142 0.24047
 C575 C 0.59420 0.98309 0.28013
 H576 H 0.58961 0.97260 0.26649
 C577 C 0.58274 0.98244 0.29884
 H578 H 0.56921 0.97102 0.29999
 C579 C 0.61959 1.00904 0.29483
 H580 H 0.63408 1.01912 0.29345
 C581 C 0.60776 1.00862 0.31584
 H582 H 0.61347 1.01963 0.32861
 N583 N 0.61270 0.99754 0.27810
 C584 C 0.62045 1.00208 0.20624
 H585 H 0.63827 1.00127 0.20626
 C586 C 0.60855 1.00222 0.18620
 H587 H 0.61745 1.00125 0.17091
 C588 C 0.58748 1.00326 0.22641
 H589 H 0.57934 1.00395 0.24209
 C590 C 0.57487 1.00364 0.20665
 H591 H 0.55708 1.00463 0.20742
 Zn592 Zn 0.62860 0.99923 0.25141
 N593 N 0.60985 1.00192 0.22583
 C594 C 0.64018 0.95803 0.23419
 N595 N 0.64590 0.97322 0.24955
 C596 C 0.66321 0.96960 0.26398
 C597 C 0.67603 0.95038 0.26273
 C598 C 0.65236 0.93856 0.23253
 C599 C 0.63505 1.04385 0.25501
 C600 C 0.64620 1.06369 0.25686
 C601 C 0.68034 1.04416 0.25087
 C602 C 0.66845 1.02455 0.24943
 N603 N 0.64625 1.02475 0.25183
 H604 H 0.62591 0.96076 0.22341
 H605 H 0.66706 0.98168 0.27643
 H606 H 0.68974 0.94764 0.27433
 H607 H 0.64761 0.92671 0.22013
 H608 H 0.61737 1.04349 0.25686
 H609 H 0.63649 1.07802 0.26092
 H610 H 0.69786 1.04331 0.24814
 H611 H 0.67699 1.00926 0.24620
 C612 C 0.58540 1.00277 0.18616
 C613 C 0.58959 0.99615 0.31808
 C614 C 0.66934 1.06438 0.25474
 C615 C 0.67055 0.93458 0.24687
 C616 C 0.09804 0.47587 0.77488
 H617 H 0.09539 0.46360 0.76233
 C618 C 0.08599 0.47502 0.79438
 H619 H 0.07402 0.46211 0.79672
 C620 C 0.11732 0.50718 0.78752
 H621 H 0.12980 0.51949 0.78513
 C622 C 0.10590 0.50679 0.80727
 H623 H 0.10939 0.51915 0.81957
 N624 N 0.11290 0.49220 0.77153
 C625 C 0.11866 0.50261 0.70008
 H626 H 0.13616 0.50583 0.69995
 C627 C 0.10624 0.50391 0.68034
 H628 H 0.11435 0.50869 0.66523
 C629 C 0.08702 0.49315 0.72025
 H630 H 0.07950 0.48909 0.73580
 C631 C 0.07403 0.49379 0.70078
 H632 H 0.05676 0.48971 0.70172
 Zn633 Zn 0.12843 0.49420 0.74453
 N634 N 0.10903 0.49702 0.71947
 C635 C 0.14139 0.45449 0.72477
 N636 N 0.14586 0.46828 0.74181
 C637 C 0.16189 0.46325 0.75731
 C638 C 0.17447 0.44389 0.75572
 C639 C 0.15332 0.43486 0.72275
 C640 C 0.13462 0.53937 0.74588
 C641 C 0.14582 0.55921 0.74794
 C642 C 0.18024 0.53901 0.74635
 C643 C 0.16833 0.51944 0.74457
 N644 N 0.14593 0.51995 0.74487
 H645 H 0.12832 0.45850 0.71285
 H646 H 0.16484 0.47425 0.77095
 H647 H 0.18711 0.44004 0.76822
 H648 H 0.14951 0.42409 0.70909
 H649 H 0.11679 0.53930 0.74590
 H650 H 0.13636 0.57427 0.74978
 H651 H 0.19807 0.53828 0.74611
 H652 H 0.17702 0.50391 0.74317
 C653 C 0.08364 0.49901 0.68036
 C654 C 0.08982 0.49074 0.81079
 C655 C 0.16898 0.55925 0.74840
 C656 C 0.17011 0.42938 0.73832
 C657 C 0.78104 0.90976 0.01650
 H658 H 0.76880 0.91096 0.02918
 C659 C 0.80122 0.92046 0.01917
 H660 H 0.80439 0.93016 0.03377
 C661 C 0.79229 0.89500 -0.01757
 H662 H 0.78899 0.88477 -0.03169
 C663 C 0.81279 0.90499 -0.01533
 H664 H 0.82493 0.90271 -0.02798
 N665 N 0.77681 0.89766 -0.00187
 C666 C 0.70561 0.89295 -0.01126
 H667 H 0.70502 0.87591 -0.01625
 C668 C 0.68628 0.90557 -0.01117
 H669 H 0.67098 0.89810 -0.01651
 C670 C 0.72654 0.92334 0.00102
 H671 H 0.74226 0.93030 0.00556
 C672 C 0.70750 0.93651 0.00167
 H673 H 0.70885 0.95334 0.00720
 Zn674 Zn 0.74986 0.88228 -0.00476
 N675 N 0.72518 0.90181 -0.00487
 C676 C 0.73036 0.86198 0.03276
 N677 N 0.74847 0.86232 0.01988
 C678 C 0.76708 0.85081 0.02601
 C679 C 0.76827 0.83913 0.04625
 C680 C 0.73072 0.85021 0.05294
 C681 C 0.74736 0.88128 -0.05059
 C682 C 0.74705 0.87255 -0.07181
 C683 C 0.75023 0.83598 -0.05527
 C684 C 0.75044 0.84546 -0.03425
 N685 N 0.74917 0.86777 -0.03236
 H686 H 0.71587 0.87154 0.02792
 H687 H 0.78137 0.85160 0.01566
 H688 H 0.78345 0.83065 0.05124
 H689 H 0.71643 0.85077 0.06332
 H690 H 0.74640 0.89896 -0.04859
 H691 H 0.74603 0.88371 -0.08605
 H692 H 0.75114 0.81820 -0.05653
 H693 H 0.75174 0.83504 -0.01950
 C694 C 0.68694 0.92756 -0.00418
 C695 C 0.81736 0.91797 0.00314
 C696 C 0.74852 0.84962 -0.07442
 C697 C 0.75005 0.83908 0.06017
 C698 C 0.27356 0.41991 0.49993
 H699 H 0.25882 0.42966 0.50194
 C700 C 0.29395 0.43039 0.49971
 H701 H 0.29461 0.44802 0.50221
 C702 C 0.29069 0.38540 0.49353
 H703 H 0.28923 0.36802 0.49019
 C704 C 0.31135 0.39520 0.49307
 H705 H 0.32566 0.38512 0.48965
 N706 N 0.27230 0.39773 0.49710
 C707 C 0.20534 0.40159 0.47818
 H708 H 0.20754 0.39021 0.46485
 C709 C 0.18585 0.41385 0.47892
 H710 H 0.17351 0.41218 0.46579
 C711 C 0.21806 0.41683 0.51199
 H712 H 0.23029 0.41717 0.52532
 C713 C 0.19877 0.42943 0.51336
 H714 H 0.19640 0.43964 0.52767
 Zn715 Zn 0.24505 0.38277 0.49528
 N716 N 0.22087 0.40300 0.49473
 C717 C 0.22393 0.36569 0.53284
 N718 N 0.24214 0.36329 0.52031
 C719 C 0.25852 0.34879 0.52662
 C720 C 0.25761 0.33725 0.54692
 C721 C 0.22257 0.35487 0.55335
 C722 C 0.24888 0.38062 0.45009
 C723 C 0.24908 0.37159 0.42906
 C724 C 0.24230 0.33575 0.44571
 C725 C 0.24202 0.34557 0.46654
 N726 N 0.24513 0.36767 0.46823
 H727 H 0.21059 0.37650 0.52734
 H728 H 0.27267 0.34667 0.51636
 H729 H 0.27114 0.32642 0.55219
 H730 H 0.20839 0.35771 0.56352
 H731 H 0.25152 0.39812 0.45202
 H732 H 0.25208 0.38221 0.41482
 H733 H 0.23952 0.31819 0.44446
 H734 H 0.23921 0.33562 0.48126
 C735 C 0.18217 0.42761 0.49692
 C736 C 0.31319 0.41801 0.49615
 C737 C 0.24565 0.34891 0.42664
 C738 C 0.23979 0.34090 0.56080
 C739 C 0.21181 0.60038 0.03249
 H740 H 0.21767 0.60785 0.04761
 C741 C 0.19167 0.58954 0.03217
 H742 H 0.18282 0.58847 0.04749
 C743 C 0.21722 0.59199 -0.00514
 H744 H 0.22710 0.59355 -0.01977
 C745 C 0.19722 0.58079 -0.00620
 H746 H 0.19203 0.57428 -0.02202
 N747 N 0.22384 0.60189 0.01385
 C748 C 0.29449 0.61284 0.01325
 H749 H 0.29463 0.63070 0.01267
 C750 C 0.31428 0.60105 0.01363
 H751 H 0.32961 0.61004 0.01357
 C752 C 0.27418 0.57966 0.01471
 H753 H 0.25845 0.57147 0.01520
 C754 C 0.29370 0.56713 0.01503
 H755 H 0.29286 0.54929 0.01545
 Zn756 Zn 0.24902 0.61985 0.01343
 N757 N 0.27495 0.60210 0.01375
 C758 C 0.26621 0.63524 0.05445
 N759 N 0.24935 0.63773 0.03924
 C760 C 0.23185 0.65121 0.04323
 C761 C 0.23072 0.66248 0.06318
 C762 C 0.26594 0.64651 0.07438
 C763 C 0.26314 0.63435 -0.02885
 C764 C 0.26163 0.64557 -0.04925
 C765 C 0.22759 0.66231 -0.03791
 C766 C 0.22975 0.65073 -0.01767
 N767 N 0.24745 0.63719 -0.01338
 H768 H 0.27959 0.62389 0.05169
 H769 H 0.21821 0.65245 0.03146
 H770 H 0.21646 0.67275 0.06631
 H771 H 0.27927 0.64392 0.08644
 H772 H 0.27666 0.62293 -0.02578
 H773 H 0.27443 0.64314 -0.06118
 H774 H 0.21319 0.67270 -0.04113
 H775 H 0.21690 0.65207 -0.00572
 C776 C 0.31409 0.57788 0.01432
 C777 C 0.18362 0.57991 0.01248
 C778 C 0.24362 0.65970 -0.05407
 C779 C 0.24789 0.66007 0.07905
 C780 C 0.72078 0.08817 0.51205
 H781 H 0.73325 0.08523 0.52492
 C782 C 0.70193 0.07511 0.51137
 H783 H 0.70007 0.06202 0.52365
 C784 C 0.70733 0.10962 0.48125
 H785 H 0.70917 0.12335 0.46980
 C786 C 0.68816 0.09715 0.48013
 H787 H 0.67565 0.10118 0.46755
 N788 N 0.72317 0.10505 0.49709
 C789 C 0.79379 0.11995 0.49719
 H790 H 0.79290 0.13770 0.49556
 C791 C 0.81437 0.10946 0.49803
 H792 H 0.82904 0.11947 0.49803
 C793 C 0.77574 0.08556 0.49873
 H794 H 0.76073 0.07620 0.49860
 C795 C 0.79601 0.07434 0.49934
 H796 H 0.79619 0.05647 0.49967
 Zn797 Zn 0.74785 0.12414 0.49938
 N798 N 0.77497 0.10802 0.49837
 C799 C 0.76329 0.15298 0.53282
 N800 N 0.74658 0.13944 0.52662
 C801 C 0.72927 0.13589 0.54011
 C802 C 0.72892 0.14510 0.56112
 C803 C 0.76368 0.16244 0.55374
 C804 C 0.75030 0.13512 0.45497
 C805 C 0.74893 0.14815 0.43573
 C806 C 0.74064 0.17976 0.45802
 C807 C 0.74210 0.16601 0.47696
 N808 N 0.74679 0.14413 0.47502
 H809 H 0.77658 0.15626 0.52176
 H810 H 0.71573 0.12572 0.53477
 H811 H 0.71503 0.14193 0.57160
 H812 H 0.77759 0.17244 0.55861
 H813 H 0.75379 0.11763 0.45395
 H814 H 0.75126 0.14044 0.41990
 H815 H 0.73702 0.19716 0.45976
 H816 H 0.73925 0.17274 0.49313
 C817 C 0.81574 0.08632 0.49946
 C818 C 0.68523 0.07976 0.49542
 C819 C 0.74412 0.17082 0.43705
 C820 C 0.74652 0.15820 0.56837
 C821 C 0.99191 0.71249 0.91629
 H822 H 0.97946 0.72459 0.92025
 C823 C 0.99357 0.69354 0.92815
 H824 H 0.98223 0.69083 0.94147
 C825 C 1.02017 0.70148 0.89202
 H826 H 1.02995 0.70395 0.87753
 C827 C 1.02249 0.68043 0.90441
 H828 H 1.03515 0.66911 0.89923
 N829 N 1.00590 0.71639 0.89772
 C830 C 1.00908 0.78777 0.88021
 H831 H 1.01148 0.78564 0.86267
 C832 C 1.01043 0.80791 0.88865
 H833 H 1.01290 0.82160 0.87726
 C834 C 1.00222 0.77099 0.91534
 H835 H 0.99932 0.75668 0.92573
 C836 C 1.00345 0.79303 0.92549
 H837 H 1.00194 0.79374 0.94328
 Zn838 Zn 1.00261 0.74190 0.87868
 N839 N 1.00450 0.76894 0.89408
 C840 C 0.96805 0.75861 0.85055
 N841 N 0.97489 0.74097 0.86331
 C842 C 0.96150 0.72338 0.86656
 C843 C 0.94009 0.72345 0.85748
 C844 C 0.94673 0.75944 0.84129
 C845 C 1.04638 0.74446 0.86927
 C846 C 1.06558 0.74378 0.85722
 C847 C 1.04347 0.73890 0.82384
 C848 C 1.02453 0.73940 0.83670
 N849 N 1.02642 0.74200 0.85901
 H850 H 0.97888 0.77238 0.84800
 H851 H 0.96724 0.70935 0.87649
 H852 H 0.92973 0.70928 0.86033
 H853 H 0.94144 0.77406 0.83193
 H854 H 1.04734 0.74638 0.88706
 H855 H 1.08125 0.74491 0.86606
 H856 H 1.04176 0.73697 0.80608
 H857 H 1.00842 0.73752 0.82893
 C858 C 1.00741 0.81122 0.91283
 C859 C 1.00955 0.67598 0.92179
 C860 C 1.06440 0.74106 0.83414
 C861 C 0.93228 0.74183 0.84495
 C862 C 0.50309 0.22307 0.41438
 H863 H 0.50028 0.23832 0.42292
 C864 C 0.50480 0.20308 0.42641
 H865 H 0.50298 0.20311 0.44422
 C866 C 0.50822 0.20435 0.38074
 H867 H 0.50946 0.20498 0.36288
 C868 C 0.51031 0.18419 0.39205
 H869 H 0.51357 0.16949 0.38270
 N870 N 0.50453 0.22323 0.39191
 C871 C 0.52054 0.28966 0.38414
 H872 H 0.53287 0.28510 0.37244
 C873 C 0.52118 0.31063 0.39322
 H874 H 0.53440 0.32164 0.38885
 C875 C 0.48810 0.28122 0.40351
 H876 H 0.47490 0.26986 0.40689
 C877 C 0.48810 0.30213 0.41297
 H878 H 0.47485 0.30667 0.42375
 Zn879 Zn 0.50176 0.24877 0.37346
 N880 N 0.50411 0.27545 0.38927
 C881 C 0.46705 0.26670 0.34658
 N882 N 0.47378 0.24876 0.35895
 C883 C 0.45990 0.23176 0.36306
 C884 C 0.43824 0.23248 0.35484
 C885 C 0.44541 0.26817 0.33812
 C886 C 0.54505 0.24298 0.36350
 C887 C 0.56394 0.24167 0.35105
 C888 C 0.54159 0.24853 0.31786
 C889 C 0.52292 0.24957 0.33106
 N890 N 0.52513 0.24715 0.35348
 H891 H 0.47829 0.28019 0.34394
 H892 H 0.46535 0.21778 0.37320
 H893 H 0.42754 0.21871 0.35829
 H894 H 0.44014 0.28287 0.32888
 H895 H 0.54623 0.24085 0.38135
 H896 H 0.57960 0.23824 0.35947
 H897 H 0.53980 0.25108 0.30009
 H898 H 0.50683 0.25263 0.32347
 C899 C 0.50465 0.31727 0.40758
 C900 C 0.50826 0.18323 0.41517
 C901 C 0.56248 0.24486 0.32796
 C902 C 0.43059 0.25101 0.34250
 C903 C 0.97511 0.28799 0.59896
 H904 H 0.96140 0.27672 0.59866
 C905 C 0.97312 0.30853 0.58800
 H906 H 0.95795 0.31227 0.57884
 C907 C 1.01130 0.29630 0.61126
 H908 H 1.02596 0.29193 0.62091
 C909 C 1.01031 0.31667 0.60000
 H910 H 1.02432 0.32746 0.60168
 N911 N 0.99382 0.28243 0.61073
 C912 C 0.99873 0.21054 0.62000
 H913 H 1.00384 0.20989 0.63727
 C914 C 0.99779 0.19104 0.60813
 H915 H 1.00128 0.17559 0.61688
 C916 C 0.98834 0.23157 0.58791
 H917 H 0.98485 0.24742 0.58002
 C918 C 0.98751 0.21240 0.57526
 H919 H 0.98356 0.21386 0.55769
 Zn920 Zn 0.99516 0.25566 0.62825
 N921 N 0.99366 0.23029 0.60997
 C922 C 0.96774 0.23661 0.66110
 N923 N 0.97129 0.25511 0.64851
 C924 C 0.95753 0.27292 0.64957
 C925 C 0.93866 0.27198 0.66233
 C926 C 0.94910 0.23501 0.67421
 C927 C 1.04090 0.25073 0.63243
 C928 C 1.06166 0.25051 0.64291
 C929 C 1.04411 0.25718 0.67767
 C930 C 1.02367 0.25734 0.66642
 N931 N 1.02247 0.25433 0.64418
 H932 H 0.97905 0.22282 0.66069
 H933 H 0.96091 0.28785 0.64029
 H934 H 0.92767 0.28617 0.66251
 H935 H 0.94613 0.21982 0.68335
 H936 H 1.03948 0.24856 0.61469
 H937 H 1.07578 0.24877 0.63250
 H938 H 1.04414 0.25900 0.69545
 H939 H 1.00876 0.26005 0.67548
 C940 C 0.99221 0.19168 0.58537
 C941 C 0.99083 0.32348 0.58844
 C942 C 1.06380 0.25386 0.66601
 C943 C 0.93395 0.25264 0.67444
 C944 C 0.47980 0.79732 0.11518
 H945 H 0.46610 0.79310 0.12544
 C946 C 0.48135 0.81888 0.10698
 H947 H 0.46837 0.83061 0.11045
 C948 C 0.51342 0.78744 0.09871
 H949 H 0.52618 0.77522 0.09613
 C950 C 0.51572 0.80898 0.09027
 H951 H 0.53025 0.81311 0.08106
 N952 N 0.49570 0.78207 0.11102
 C953 C 0.48382 0.71165 0.11590
 H954 H 0.47971 0.71161 0.13324
 C955 C 0.48178 0.69237 0.10399
 H956 H 0.47561 0.67775 0.11226
 C957 C 0.49679 0.73094 0.08432
 H958 H 0.50279 0.74602 0.07687
 C959 C 0.49530 0.71175 0.07176
 H960 H 0.50043 0.71216 0.05469
 Zn961 Zn 0.49469 0.75412 0.12575
 N962 N 0.49140 0.73037 0.10609
 C963 C 0.45031 0.75284 0.13224
 N964 N 0.46975 0.75350 0.14386
 C965 C 0.47044 0.75339 0.16643
 C966 C 0.45077 0.75341 0.17816
 C967 C 0.43046 0.75291 0.14318
 C968 C 0.53403 0.73189 0.13854
 C969 C 0.55543 0.73017 0.14739
 C970 C 0.55055 0.76581 0.16395
 C971 C 0.52913 0.76681 0.15485
 N972 N 0.52148 0.75015 0.14210
 H973 H 0.45032 0.75261 0.11431
 H974 H 0.48614 0.75362 0.17528
 H975 H 0.45136 0.75389 0.19610
 H976 H 0.41517 0.75259 0.13355
 H977 H 0.52781 0.71891 0.12818
 H978 H 0.56519 0.71558 0.14415
 H979 H 0.55669 0.77965 0.17326
 H980 H 0.51896 0.78133 0.15707
 C981 C 0.48810 0.69201 0.08178
 C982 C 0.49964 0.82510 0.09464
 C983 C 0.56417 0.74749 0.15984
 C984 C 0.43048 0.75358 0.16639
 O985 O -0.00674 0.92914 0.99384
 O986 O 0.00928 0.93062 1.02901
 O987 O -0.05831 0.97850 0.99488
 O988 O -0.06150 1.01450 0.99999
 O989 O -0.01365 0.97712 0.93918
 O990 O 0.02349 0.98798 0.93478
 O991 O 0.00296 1.04254 1.04044
 O992 O -0.02960 1.02526 1.04780
 O993 O 0.05261 0.99380 1.04462
 O994 O 0.05798 0.95766 1.02738
 O995 O 0.04945 1.03728 0.98942
 O996 O 0.02652 1.04054 0.95585
 O997 O 0.01629 1.05534 1.00771
 O998 O -0.00012 1.05396 0.96920
 O999 O 0.06696 1.00851 1.00719
 O1000 O 0.06844 0.96863 0.99801
 O1001 O 0.02311 1.01081 1.05955
 O1002 O -0.01274 0.99261 1.06421
 O1003 O 0.00617 0.94178 0.96087
 O1004 O 0.03888 0.96148 0.95120
 O1005 O -0.04331 0.99280 0.95519
 O1006 O -0.04610 1.02927 0.97237
 O1007 O -0.04108 0.94833 1.01054
 O1008 O -0.01852 0.94944 1.04554
 Zr1009 Zr -0.00772 0.95751 1.01320
 O1010 O 0.01377 0.97824 1.03091
 Zr1011 Zr -0.03258 1.00015 0.98745
 O1012 O -0.01263 1.02264 1.00448
 Zr1013 Zr 0.01063 0.97603 0.96492
 O1014 O 0.03260 0.99789 0.98065
 Zr1015 Zr -0.00181 1.00888 1.03502
 O1016 O -0.02429 0.98744 1.01930
 Zr1017 Zr 0.04172 0.98541 1.01237
 O1018 O 0.02151 0.96237 0.99564
 Zr1019 Zr 0.01633 1.02784 0.98685
 O1020 O -0.00478 1.00701 0.96842
 O1021 O -0.01791 0.96970 0.98206
 O1022 O 0.02688 1.01585 1.01794
 C1023 C -0.00045 0.92622 0.97391
 C1024 C -0.05841 0.95895 1.00351
 C1025 C -0.03359 0.98462 0.93852
 C1026 C 0.01016 1.05802 1.02775
 C1027 C 0.04306 1.00357 1.06060
 C1028 C 0.06681 1.02775 0.99779
 H1029 H 0.01770 0.97119 1.04542
 H1030 H 0.04552 1.00009 0.97123
 H1031 H -0.02786 0.95955 0.97406
 H1032 H -0.02106 1.03646 1.00655
 H1033 H -0.04211 1.01496 1.04645
 H1034 H -0.05683 1.02372 1.01256
 H1035 H 0.07104 0.97566 0.98338
 H1036 H 0.04601 0.95233 0.96317
 H1037 H -0.01123 1.00294 1.07670
 H1038 H -0.02629 0.93512 1.04509
 H1039 H 0.03786 1.03036 0.95027
 H1040 H 0.01732 1.00305 0.93236
 H1041 H 0.02399 0.92977 1.02231
 H1042 H 0.04950 0.95311 1.04048
 H1043 H -0.03701 1.03282 0.95940
 H1044 H -0.01256 1.05897 0.97820
 O1045 O 0.48714 0.48295 0.43993
 O1046 O 0.52194 0.49541 0.43813
 O1047 O 0.49189 0.43282 0.49260
 O1048 O 0.50078 0.43096 0.52831
 O1049 O 0.43784 0.47983 0.49047
 O1050 O 0.43389 0.51674 0.50008
 O1051 O 0.54585 0.49630 0.54908
 O1052 O 0.55113 0.46239 0.53405
 O1053 O 0.54293 0.54302 0.49751
 O1054 O 0.52207 0.54803 0.46325
 O1055 O 0.49438 0.54283 0.54588
 O1056 O 0.46243 0.52273 0.55331
 O1057 O 0.51452 0.50966 0.56405
 O1058 O 0.47530 0.49383 0.56511
 O1059 O 0.50832 0.55886 0.51503
 O1060 O 0.49339 0.55863 0.47520
 O1061 O 0.56066 0.51389 0.51447
 O1062 O 0.56294 0.47628 0.49875
 O1063 O 0.45577 0.49789 0.45348
 O1064 O 0.44849 0.53192 0.47320
 O1065 O 0.45443 0.45051 0.50823
 O1066 O 0.47633 0.44880 0.54416
 O1067 O 0.50508 0.44743 0.46067
 O1068 O 0.54022 0.46915 0.45844
 Zr1069 Zr 0.50885 0.48143 0.46737
 O1070 O 0.52831 0.50377 0.48539
 Zr1071 Zr 0.48754 0.45996 0.51296
 O1072 O 0.50755 0.48001 0.53298
 Zr1073 Zr 0.46308 0.50300 0.48752
 O1074 O 0.48073 0.52507 0.50770
 Zr1075 Zr 0.53619 0.48944 0.51648
 O1076 O 0.51795 0.46622 0.49791
 Zr1077 Zr 0.51045 0.53263 0.49245
 O1078 O 0.49205 0.51177 0.47141
 Zr1079 Zr 0.49055 0.50966 0.53798
 O1080 O 0.46963 0.48889 0.51929
 O1081 O 0.47919 0.47333 0.48186
 O1082 O 0.51977 0.51887 0.52318
 C1083 C 0.46739 0.49058 0.43753
 C1084 C 0.49875 0.43102 0.47277
 C1085 C 0.43743 0.46050 0.49953
 C1086 C 0.53502 0.50396 0.56530
 C1087 C 0.56022 0.53359 0.50611
 C1088 C 0.50162 0.55957 0.53510
 H1089 H 0.54175 0.50700 0.47701
 H1090 H 0.47162 0.53840 0.51003
 H1091 H 0.47020 0.46335 0.47259
 H1092 H 0.51131 0.47205 0.54706
 H1093 H 0.54843 0.44918 0.52502
 H1094 H 0.51561 0.43480 0.53404
 H1095 H 0.48105 0.56346 0.48442
 H1096 H 0.45882 0.53754 0.46201
 H1097 H 0.57662 0.47827 0.50779
 H1098 H 0.53836 0.45961 0.44535
 H1099 H 0.45382 0.53111 0.54177
 H1100 H 0.43334 0.51184 0.51581
 H1101 H 0.51701 0.51103 0.43746
 H1102 H 0.53390 0.53854 0.45751
 H1103 H 0.46288 0.45747 0.54729
 H1104 H 0.48582 0.48276 0.57157
 O1105 O 0.45650 -0.05000 0.49346
 O1106 O 0.47663 -0.05492 0.46173
 O1107 O 0.50581 -0.04891 0.54581
 O1108 O 0.53520 -0.02917 0.55505
 O1109 O 0.45426 0.00141 0.54182
 O1110 O 0.44834 0.03355 0.51936
 O1111 O 0.56362 0.01081 0.49012
 O1112 O 0.56598 -0.02378 0.50637
 O1113 O 0.51784 0.00658 0.43671
 O1114 O 0.48059 -0.00597 0.43214
 O1115 O 0.51154 0.05837 0.48232
 O1116 O 0.49826 0.06132 0.51947
 O1117 O 0.54619 0.04189 0.50146
 O1118 O 0.52417 0.04771 0.53608
 O1119 O 0.49842 0.04183 0.45133
 O1120 O 0.46421 0.01946 0.44463
 O1121 O 0.54859 -0.00579 0.45554
 O1122 O 0.54963 -0.04235 0.47535
 O1123 O 0.43926 -0.01914 0.50562
 O1124 O 0.43700 0.01822 0.49071
 O1125 O 0.48437 -0.01274 0.56038
 O1126 O 0.52219 0.00237 0.56273
 O1127 O 0.49173 -0.06564 0.51527
 O1128 O 0.50890 -0.06649 0.47842
 Zr1129 Zr 0.48953 -0.04033 0.49085
 O1130 O 0.50956 -0.02123 0.47007
 Zr1131 Zr 0.50848 -0.01556 0.53606
 O1132 O 0.52988 0.00396 0.51721
 Zr1133 Zr 0.46428 0.00454 0.50883
 O1134 O 0.48362 0.02554 0.48926
 Zr1135 Zr 0.53797 -0.01202 0.48794
 O1136 O 0.51901 -0.03299 0.50828
 Zr1137 Zr 0.49371 0.00867 0.46110
 O1138 O 0.47242 -0.01165 0.47960
 Zr1139 Zr 0.51318 0.03285 0.50636
 O1140 O 0.49233 0.01433 0.52720
 O1141 O 0.47977 -0.02463 0.51941
 O1142 O 0.52278 0.01757 0.47749
 C1143 C 0.43921 -0.03930 0.49925
 C1144 C 0.49893 -0.06600 0.53550
 C1145 C 0.46441 -0.00540 0.55965
 C1146 C 0.56344 0.03125 0.49543
 C1147 C 0.53829 0.00084 0.43775
 C1148 C 0.50518 0.05881 0.46187
 H1149 H 0.51338 -0.02990 0.45695
 H1150 H 0.47494 0.03901 0.48533
 H1151 H 0.47030 -0.03400 0.52875
 H1152 H 0.54329 0.00714 0.52618
 H1153 H 0.56153 -0.03760 0.51399
 H1154 H 0.54869 -0.02593 0.54678
 H1155 H 0.45882 0.03273 0.45221
 H1156 H 0.43620 0.01047 0.47643
 H1157 H 0.56462 -0.03991 0.46965
 H1158 H 0.50108 -0.08061 0.48081
 H1159 H 0.48375 0.06341 0.51185
 H1160 H 0.45872 0.04070 0.52983
 H1161 H 0.46705 -0.04367 0.45413
 H1162 H 0.48753 -0.02072 0.43097
 H1163 H 0.51312 0.01593 0.56403
 H1164 H 0.53782 0.03998 0.54131
 O1165 O 0.00771 0.43613 1.03668
 O1166 O 0.04189 0.45188 1.04308
 O1167 O -0.03733 0.49145 1.04096
 O1168 O -0.04348 0.52375 1.02343
 O1169 O -0.04309 0.44625 0.98544
 O1170 O -0.02256 0.44114 0.95280
 O1171 O 0.02173 0.54888 0.98513
 O1172 O 0.00802 0.54894 1.01994
 O1173 O 0.06914 0.49709 0.98465
 O1174 O 0.06870 0.45758 0.99552
 O1175 O 0.02155 0.50110 0.93296
 O1176 O -0.01791 0.49265 0.92982
 O1177 O 0.00770 0.53615 0.95247
 O1178 O -0.02892 0.51970 0.94433
 O1179 O 0.05144 0.48378 0.94898
 O1180 O 0.05439 0.44682 0.96741
 O1181 O 0.05535 0.52774 1.00068
 O1182 O 0.03703 0.52715 1.03708
 O1183 O -0.00907 0.42444 1.00486
 O1184 O 0.00436 0.42438 0.96764
 O1185 O -0.05672 0.47617 1.00282
 O1186 O -0.05470 0.51510 0.99104
 O1187 O -0.00838 0.47165 1.05579
 O1188 O 0.03015 0.48406 1.05777
 Zr1189 Zr 0.01410 0.46965 1.03000
 O1190 O 0.03641 0.48939 1.01254
 Zr1191 Zr -0.02918 0.49657 1.00744
 O1192 O -0.00857 0.51755 0.98925
 Zr1193 Zr -0.00917 0.45217 0.98326
 O1194 O 0.01212 0.47119 0.96374
 Zr1195 Zr 0.02205 0.52053 1.00576
 O1196 O 0.00047 0.50164 1.02537
 Zr1197 Zr 0.04192 0.47607 0.98135
 O1198 O 0.02154 0.45481 0.99981
 Zr1199 Zr -0.00110 0.50313 0.95886
 O1200 O -0.02384 0.48315 0.97603
 O1201 O -0.01622 0.46524 1.01389
 O1202 O 0.02923 0.50767 0.97487
 C1203 C -0.00140 0.42122 1.02475
 C1204 C -0.02714 0.48143 1.05728
 C1205 C -0.05904 0.45750 0.99334
 C1206 C 0.01571 0.55146 0.96464
 C1207 C 0.07121 0.51649 0.99261
 C1208 C 0.04125 0.49318 0.93242
 H1209 H 0.05022 0.49070 1.02145
 H1210 H 0.01437 0.46369 0.94956
 H1211 H -0.02638 0.45598 1.02258
 H1212 H -0.01584 0.53214 0.98717
 H1213 H 0.00029 0.54382 1.03334
 H1214 H -0.03412 0.53665 1.02032
 H1215 H 0.04495 0.44336 0.95437
 H1216 H 0.01893 0.42143 0.97492
 H1217 H 0.04458 0.54155 1.03590
 H1218 H 0.02751 0.47483 1.07120
 H1219 H -0.01135 0.47835 0.92566
 H1220 H -0.03192 0.45336 0.94663
 H1221 H 0.04764 0.44292 1.03090
 H1222 H 0.07280 0.46425 1.00986
 H1223 H -0.05713 0.50842 0.97635
 H1224 H -0.03308 0.53182 0.95420
 O1225 O -0.05112 0.55134 0.49957
 O1226 O -0.03156 0.55482 0.53259
 O1227 O -0.00224 0.55237 0.44991
 O1228 O 0.02812 0.53339 0.44191
 O1229 O -0.05160 0.50064 0.44865
 O1230 O -0.05823 0.46914 0.47011
 O1231 O 0.05699 0.49044 0.50615
 O1232 O 0.05865 0.52572 0.49211
 O1233 O 0.01063 0.49185 0.55737
 O1234 O -0.02663 0.50418 0.56062
 O1235 O 0.00762 0.44291 0.50982
 O1236 O -0.00747 0.44121 0.47151
 O1237 O 0.04067 0.46023 0.49151
 O1238 O 0.01828 0.45504 0.45668
 O1239 O -0.00833 0.45735 0.54010
 O1240 O -0.04299 0.48006 0.54550
 O1241 O 0.04132 0.50480 0.54081
 O1242 O 0.04157 0.54251 0.52312
 O1243 O -0.06788 0.52124 0.48509
 O1244 O -0.06948 0.48322 0.49855
 O1245 O -0.02209 0.51651 0.43248
 O1246 O 0.01601 0.50224 0.43176
 O1247 O -0.01627 0.56793 0.48055
 O1248 O 0.00081 0.56680 0.51839
 Zr1249 Zr -0.01809 0.54143 0.50364
 O1250 O 0.00200 0.52131 0.52482
 Zr1251 Zr 0.00153 0.51872 0.45848
 O1252 O 0.02321 0.49838 0.47768
 Zr1253 Zr -0.04238 0.49746 0.48239
 O1254 O -0.02269 0.47547 0.50206
 Zr1255 Zr 0.03075 0.51295 0.50819
 O1256 O 0.01161 0.53484 0.48759
 Zr1257 Zr -0.01328 0.49104 0.53153
 O1258 O -0.03471 0.51234 0.51273
 Zr1259 Zr 0.00720 0.46902 0.48636
 O1260 O -0.01394 0.48848 0.46525
 O1261 O -0.02751 0.52703 0.47384
 O1262 O 0.01616 0.48296 0.51644
 C1263 C -0.06823 0.54106 0.49248
 C1264 C -0.00925 0.56909 0.46062
 C1265 C -0.04140 0.50803 0.43167
 C1266 C 0.05757 0.47059 0.49909
 C1267 C 0.03102 0.49738 0.55769
 C1268 C 0.00040 0.44134 0.52960
 H1269 H 0.00554 0.52932 0.53856
 H1270 H -0.03102 0.46182 0.50494
 H1271 H -0.03714 0.53666 0.46424
 H1272 H 0.03670 0.49568 0.46925
 H1273 H 0.05394 0.53990 0.48494
 H1274 H 0.04158 0.52975 0.45085
 H1275 H -0.04791 0.46697 0.53726
 H1276 H -0.07080 0.49076 0.51288
 H1277 H 0.05652 0.53973 0.52966
 H1278 H -0.00720 0.58107 0.51622
 H1279 H -0.02064 0.43732 0.48005
 H1280 H -0.04700 0.46097 0.46181
 H1281 H -0.04079 0.54321 0.53928
 H1282 H -0.02039 0.51905 0.56255
 H1283 H 0.00754 0.48856 0.42946
 H1284 H 0.03102 0.46370 0.45164
 O1285 O 0.56279 0.99635 0.00921
 O1286 O 0.56103 1.03247 -0.00484
 O1287 O 0.51605 0.99549 0.06147
 O1288 O 0.48033 1.00109 0.06565
 O1289 O 0.51495 0.94413 0.01106
 O1290 O 0.50215 0.94319 -0.02614
 O1291 O 0.44924 1.04830 0.00349
 O1292 O 0.46759 1.05204 0.03707
 O1293 O 0.49590 1.05380 -0.04593
 O1294 O 0.53086 1.03686 -0.05352
 O1295 O 0.45209 1.00074 -0.04647
 O1296 O 0.44984 0.96563 -0.02591
 O1297 O 0.43588 1.01673 -0.01126
 O1298 O 0.43746 0.97759 0.00176
 O1299 O 0.48054 1.01804 -0.06298
 O1300 O 0.52061 1.00796 -0.06523
 O1301 O 0.48123 1.06773 -0.01480
 O1302 O 0.50021 1.06807 0.02206
 O1303 O 0.54865 0.96508 -0.00567
 O1304 O 0.52824 0.96033 -0.04044
 O1305 O 0.50082 0.95724 0.04280
 O1306 O 0.46451 0.97583 0.04784
 O1307 O 0.54465 1.01279 0.04510
 O1308 O 0.54401 1.04813 0.02427
 Zr1309 Zr 0.53471 1.01701 0.01164
 O1310 O 0.51305 1.03697 -0.00808
 Zr1311 Zr 0.49313 0.99076 0.03524
 O1312 O 0.46988 1.01026 0.01694
 Zr1313 Zr 0.51481 0.97151 -0.01060
 O1314 O 0.49207 0.98940 -0.03092
 Zr1315 Zr 0.48310 1.04103 0.00817
 O1316 O 0.50548 1.02267 0.02908
 Zr1317 Zr 0.50455 1.02097 -0.03752
 O1318 O 0.52843 1.00214 -0.01909
 Zr1319 Zr 0.46310 0.99527 -0.01352
 O1320 O 0.48473 0.97455 0.00574
 O1321 O 0.52269 0.98585 0.01954
 O1322 O 0.47480 1.02647 -0.02192
 C1323 C 0.56469 0.97653 0.00209
 C1324 C 0.53508 1.00467 0.06215
 C1325 C 0.50865 0.94157 0.03108
 C1326 C 0.43340 1.03648 -0.00424
 C1327 C 0.48738 1.06962 -0.03500
 C1328 C 0.46125 1.00952 -0.06342
 H1329 H 0.52006 1.05137 -0.01096
 H1330 H 0.48923 0.98110 -0.04462
 H1331 H 0.53309 0.97691 0.02900
 H1332 H 0.45649 1.01218 0.02573
 H1333 H 0.47810 1.04904 0.04961
 H1334 H 0.47146 1.01456 0.06230
 H1335 H 0.51316 0.99411 -0.06927
 H1336 H 0.53844 0.97189 -0.04560
 H1337 H 0.49017 1.08110 0.02150
 H1338 H 0.55871 1.04662 0.03176
 H1339 H 0.45902 0.96096 -0.03834
 H1340 H 0.48738 0.94072 -0.01999
 H1341 H 0.56139 1.02636 -0.01993
 H1342 H 0.53720 1.04762 -0.04309
 H1343 H 0.46060 0.96369 0.03777
 H1344 H 0.43359 0.98534 0.01543
 O1345 O 0.44044 0.51355 0.01474
 O1346 O 0.44252 0.47802 0.00112
 O1347 O 0.48883 0.51346 0.06817
 O1348 O 0.52476 0.50707 0.07270
 O1349 O 0.48734 0.56682 0.01854
 O1350 O 0.49956 0.56953 -0.01875
 O1351 O 0.55446 0.46417 0.00989
 O1352 O 0.53808 0.45927 0.04434
 O1353 O 0.50589 0.45907 -0.03870
 O1354 O 0.46996 0.47692 -0.04657
 O1355 O 0.54891 0.51383 -0.03920
 O1356 O 0.55064 0.54857 -0.01802
 O1357 O 0.56683 0.49671 -0.00425
 O1358 O 0.56557 0.53481 0.00885
 O1359 O 0.52067 0.49559 -0.05572
 O1360 O 0.48080 0.50529 -0.05933
 O1361 O 0.52269 0.44506 -0.00737
 O1362 O 0.50518 0.44265 0.02902
 O1363 O 0.45328 0.54521 -0.00100
 O1364 O 0.47312 0.55371 -0.03349
 O1365 O 0.50309 0.55196 0.05003
 O1366 O 0.53948 0.53439 0.05561
 O1367 O 0.46000 0.49647 0.05118
 O1368 O 0.46075 0.46181 0.03069
 Zr1369 Zr 0.46901 0.49352 0.01797
 O1370 O 0.49031 0.47466 -0.00136
 Zr1371 Zr 0.51092 0.51924 0.04230
 O1372 O 0.53398 0.50131 0.02412
 Zr1373 Zr 0.48739 0.54043 -0.00374
 O1374 O 0.50939 0.52354 -0.02403
 Zr1375 Zr 0.52093 0.47073 0.01529
 O1376 O 0.49884 0.48752 0.03591
 Zr1377 Zr 0.49736 0.49186 -0.03077
 O1378 O 0.47407 0.50984 -0.01259
 Zr1379 Zr 0.53914 0.51770 -0.00631
 O1380 O 0.51801 0.53702 0.01305
 O1381 O 0.48068 0.52457 0.02615
 O1382 O 0.52772 0.48658 -0.01473
 C1383 C 0.43764 0.53307 0.00623
 C1384 C 0.46991 0.50408 0.06843
 C1385 C 0.49458 0.56821 0.03867
 C1386 C 0.56969 0.47651 0.00208
 C1387 C 0.51553 0.44332 -0.02743
 C1388 C 0.53961 0.50482 -0.05605
 H1389 H 0.48346 0.46022 -0.00422
 H1390 H 0.51155 0.53239 -0.03773
 H1391 H 0.47025 0.53297 0.03523
 H1392 H 0.54782 0.49927 0.03293
 H1393 H 0.52789 0.46112 0.05676
 H1394 H 0.53534 0.49525 0.06907
 H1395 H 0.48776 0.51953 -0.06309
 H1396 H 0.46475 0.54161 -0.04044
 H1397 H 0.51570 0.43002 0.02888
 H1398 H 0.44622 0.46276 0.03785
 H1399 H 0.54153 0.55300 -0.03122
 H1400 H 0.51410 0.57230 -0.01159
 H1401 H 0.44156 0.48461 -0.01403
 H1402 H 0.46527 0.46451 -0.03694
 H1403 H 0.54332 0.54650 0.04519
 H1404 H 0.56958 0.52703 0.02297
 O1405 O -0.01378 0.01841 0.56537
 O1406 O 0.02143 0.00402 0.57060
 O1407 O -0.00683 0.06914 0.51507
 O1408 O 0.00509 0.07131 0.48032
 O1409 O -0.05930 0.02125 0.50963
 O1410 O -0.06059 -0.01597 0.49814
 O1411 O 0.05129 0.00836 0.46137
 O1412 O 0.05477 0.04145 0.47874
 O1413 O 0.04869 -0.04026 0.51265
 O1414 O 0.02664 -0.04506 0.54579
 O1415 O 0.00236 -0.04148 0.46065
 O1416 O -0.03168 -0.01976 0.45118
 O1417 O 0.02151 -0.00659 0.44393
 O1418 O -0.01649 0.00608 0.43789
 O1419 O 0.01525 -0.05658 0.49324
 O1420 O -0.00047 -0.05704 0.53105
 O1421 O 0.06550 -0.01087 0.49672
 O1422 O 0.06602 0.02613 0.51413
 O1423 O -0.04315 0.00293 0.54763
 O1424 O -0.04849 -0.03040 0.52760
 O1425 O -0.04275 0.05128 0.49460
 O1426 O -0.01982 0.05447 0.46168
 O1427 O 0.00635 0.05342 0.54734
 O1428 O 0.04036 0.03173 0.55402
 Zr1429 Zr 0.01018 0.01970 0.54066
 O1430 O 0.03184 -0.00136 0.52405
 Zr1431 Zr -0.00917 0.04228 0.49333
 O1432 O 0.01200 0.02234 0.47484
 Zr1433 Zr -0.03341 -0.00168 0.51486
 O1434 O -0.01364 -0.02353 0.49707
 Zr1435 Zr 0.04035 0.01337 0.49371
 O1436 O 0.02044 0.03565 0.51133
 Zr1437 Zr 0.01562 -0.03036 0.51531
 O1438 O -0.00533 -0.01050 0.53419
 Zr1439 Zr -0.00321 -0.00787 0.46784
 O1440 O -0.02545 0.01313 0.48431
 O1441 O -0.01875 0.02802 0.52306
 O1442 O 0.02567 -0.01643 0.48540
 C1443 C -0.03344 0.01057 0.56501
 C1444 C 0.00012 0.07022 0.53536
 C1445 C -0.05985 0.04086 0.50113
 C1446 C 0.04139 0.00060 0.44414
 C1447 C 0.06569 -0.03065 0.50486
 C1448 C 0.00948 -0.05794 0.47273
 H1449 H 0.04510 -0.00441 0.53352
 H1450 H -0.02206 -0.03706 0.49401
 H1451 H -0.02850 0.03786 0.53144
 H1452 H 0.01592 0.03054 0.46119
 H1453 H 0.05106 0.05418 0.48805
 H1454 H 0.01866 0.06675 0.47283
 H1455 H -0.01316 -0.06121 0.52146
 H1456 H -0.03821 -0.03675 0.53908
 H1457 H 0.08006 0.02454 0.50621
 H1458 H 0.03738 0.03971 0.56786
 H1459 H -0.03762 -0.03197 0.46029
 H1460 H -0.06073 -0.00989 0.48278
 H1461 H 0.01516 -0.01099 0.57084
 H1462 H 0.03843 -0.03573 0.55206
 H1463 H -0.03133 0.04434 0.45619
 H1464 H -0.00898 0.02025 0.43517
 O1465 O 0.68487 0.24001 0.26119
 O1466 O 0.68299 0.25087 0.22391
 O1467 O 0.73444 0.18847 0.26333
 O1468 O 0.76969 0.18487 0.25397
 O1469 O 0.73775 0.24111 0.31142
 O1470 O 0.74882 0.27904 0.30886
 O1471 O 0.79332 0.24306 0.20354
 O1472 O 0.77617 0.20911 0.20315
 O1473 O 0.74353 0.29106 0.19617
 O1474 O 0.70784 0.29777 0.21567
 O1475 O 0.79047 0.29786 0.24753
 O1476 O 0.79712 0.27883 0.28409
 O1477 O 0.80769 0.26305 0.23194
 O1478 O 0.81171 0.25221 0.27161
 O1479 O 0.75983 0.31130 0.22941
 O1480 O 0.72173 0.31415 0.24088
 O1481 O 0.75991 0.25958 0.18467
 O1482 O 0.74211 0.22320 0.18691
 O1483 O 0.70063 0.25752 0.29049
 O1484 O 0.71991 0.29116 0.29394
 O1485 O 0.75330 0.20973 0.29854
 O1486 O 0.78675 0.20375 0.27883
 O1487 O 0.70331 0.20346 0.24736
 O1488 O 0.70003 0.22056 0.21019
 Zr1489 Zr 0.71128 0.23614 0.23954
 O1490 O 0.72987 0.25447 0.21681
 Zr1491 Zr 0.75649 0.21526 0.26446
 O1492 O 0.77697 0.23303 0.24305
 Zr1493 Zr 0.73391 0.26147 0.28263
 O1494 O 0.75309 0.28135 0.26167
 Zr1495 Zr 0.76041 0.23869 0.21261
 O1496 O 0.74074 0.21882 0.23320
 Zr1497 Zr 0.73761 0.28511 0.23018
 O1498 O 0.71708 0.26770 0.25217
 Zr1499 Zr 0.78275 0.26477 0.25540
 O1500 O 0.76456 0.24588 0.27838
 O1501 O 0.72652 0.23053 0.27051
 O1502 O 0.76777 0.27001 0.22435
 C1503 C 0.68395 0.24925 0.28018
 C1504 C 0.71442 0.18715 0.25589
 C1505 C 0.74644 0.22176 0.31426
 C1506 C 0.80905 0.25360 0.21314
 C1507 C 0.75245 0.27923 0.18124
 C1508 C 0.77949 0.31338 0.23728
 H1509 H 0.72157 0.25600 0.20254
 H1510 H 0.75560 0.29569 0.26879
 H1511 H 0.71744 0.22177 0.28081
 H1512 H 0.79082 0.22466 0.24105
 H1513 H 0.76618 0.19690 0.20709
 H1514 H 0.77962 0.18823 0.24162
 H1515 H 0.72877 0.31825 0.25515
 H1516 H 0.71013 0.29694 0.28174
 H1517 H 0.75138 0.22273 0.17360
 H1518 H 0.68582 0.21321 0.21312
 H1519 H 0.78800 0.29177 0.28792
 H1520 H 0.76370 0.27249 0.31141
 H1521 H 0.68218 0.26630 0.22896
 H1522 H 0.70364 0.28826 0.20315
 H1523 H 0.79253 0.21578 0.28813
 H1524 H 0.81565 0.23810 0.26467
 O1525 O 0.75178 0.70647 0.70345
 O1526 O 0.78488 0.70041 0.72145
 O1527 O 0.70539 0.70750 0.75681
 O1528 O 0.69919 0.72736 0.78674
 O1529 O 0.70197 0.75720 0.70446
 O1530 O 0.72182 0.78969 0.69710
 O1531 O 0.76743 0.76569 0.81037
 O1532 O 0.75235 0.73165 0.81423
 O1533 O 0.81358 0.76245 0.76001
 O1534 O 0.81338 0.74971 0.72219
 O1535 O 0.76719 0.81392 0.75847
 O1536 O 0.73024 0.81865 0.74868
 O1537 O 0.75119 0.79654 0.79498
 O1538 O 0.71449 0.80287 0.77338
 O1539 O 0.79604 0.79732 0.74205
 O1540 O 0.79849 0.77565 0.70721
 O1541 O 0.80014 0.74824 0.79199
 O1542 O 0.78042 0.71240 0.79485
 O1543 O 0.73738 0.73754 0.68667
 O1544 O 0.74982 0.77554 0.68402
 O1545 O 0.68747 0.74348 0.73614
 O1546 O 0.68992 0.75893 0.77445
 O1547 O 0.73399 0.69053 0.74023
 O1548 O 0.77262 0.68922 0.75504
 Zr1549 Zr 0.75753 0.71560 0.73637
 O1550 O 0.78042 0.73435 0.75450
 Zr1551 Zr 0.71472 0.74067 0.75859
 O1552 O 0.73593 0.75948 0.77876
 Zr1553 Zr 0.73563 0.76084 0.71230
 O1554 O 0.75682 0.78158 0.73038
 Zr1555 Zr 0.76640 0.74325 0.78446
 O1556 O 0.74388 0.72287 0.76716
 Zr1557 Zr 0.78633 0.76444 0.73800
 O1558 O 0.76584 0.74433 0.71826
 Zr1559 Zr 0.74384 0.78864 0.76154
 O1560 O 0.72094 0.77069 0.74188
 O1561 O 0.72777 0.73159 0.72858
 O1562 O 0.77400 0.77306 0.76863
 C1563 C 0.74455 0.71744 0.68628
 C1564 C 0.71491 0.69037 0.74904
 C1565 C 0.68566 0.75045 0.71588
 C1566 C 0.76021 0.78563 0.81145
 C1567 C 0.81597 0.75558 0.78020
 C1568 C 0.78648 0.81424 0.75016
 H1569 H 0.79408 0.72556 0.75711
 H1570 H 0.75929 0.79521 0.72153
 H1571 H 0.71774 0.72229 0.71967
 H1572 H 0.72863 0.76241 0.79289
 H1573 H 0.74407 0.71817 0.81048
 H1574 H 0.70972 0.72887 0.79936
 H1575 H 0.79015 0.78917 0.70263
 H1576 H 0.76397 0.76772 0.68181
 H1577 H 0.78828 0.71446 0.80925
 H1578 H 0.76933 0.67511 0.74762
 H1579 H 0.73236 0.81872 0.73248
 H1580 H 0.71260 0.79670 0.70836
 H1581 H 0.79182 0.71190 0.71214
 H1582 H 0.81663 0.73538 0.72979
 H1583 H 0.68618 0.77183 0.76469
 H1584 H 0.71133 0.79563 0.78778
 O1585 O 0.29984 0.19837 0.73971
 O1586 O 0.30136 0.21461 0.70462
 O1587 O 0.30382 0.25303 0.78362
 O1588 O 0.28495 0.28452 0.78876
 O1589 O 0.25297 0.20389 0.79341
 O1590 O 0.21979 0.19530 0.77469
 O1591 O 0.23800 0.30582 0.72510
 O1592 O 0.27371 0.30918 0.73668
 O1593 O 0.23809 0.25322 0.67888
 O1594 O 0.25073 0.21501 0.68027
 O1595 O 0.19080 0.25446 0.72917
 O1596 O 0.19215 0.24476 0.76930
 O1597 O 0.20850 0.29050 0.74196
 O1598 O 0.20546 0.27305 0.77920
 O1599 O 0.20470 0.23731 0.69939
 O1600 O 0.22582 0.20198 0.69670
 O1601 O 0.25144 0.28587 0.69100
 O1602 O 0.28939 0.28880 0.70735
 O1603 O 0.27076 0.18335 0.75752
 O1604 O 0.23239 0.18023 0.74736
 O1605 O 0.26981 0.23515 0.80501
 O1606 O 0.25458 0.27289 0.80258
 O1607 O 0.31725 0.23502 0.75409
 O1608 O 0.31431 0.24817 0.71512
 Zr1609 Zr 0.28972 0.23102 0.73281
 O1610 O 0.26853 0.24882 0.71073
 Zr1611 Zr 0.26966 0.25584 0.77657
 O1612 O 0.24789 0.27507 0.75621
 Zr1613 Zr 0.24734 0.20926 0.75912
 O1614 O 0.22434 0.22644 0.73831
 Zr1615 Zr 0.26066 0.27940 0.72442
 O1616 O 0.28386 0.26256 0.74569
 Zr1617 Zr 0.23832 0.23262 0.70733
 O1618 O 0.26044 0.21335 0.72739
 Zr1619 Zr 0.21831 0.25799 0.75082
 O1620 O 0.23921 0.23966 0.77326
 O1621 O 0.27718 0.22506 0.76416
 O1622 O 0.23056 0.26371 0.71930
 C1623 C 0.28997 0.18207 0.74896
 C1624 C 0.31972 0.24436 0.77290
 C1625 C 0.26175 0.21591 0.80849
 C1626 C 0.21837 0.30677 0.73261
 C1627 C 0.24372 0.27339 0.67572
 C1628 C 0.18870 0.24592 0.70989
 H1629 H 0.27587 0.25077 0.69637
 H1630 H 0.21070 0.21775 0.73702
 H1631 H 0.28742 0.21644 0.77409
 H1632 H 0.24540 0.28946 0.76322
 H1633 H 0.28807 0.30534 0.74399
 H1634 H 0.27929 0.29710 0.77954
 H1635 H 0.21369 0.19779 0.70655
 H1636 H 0.23805 0.17789 0.73232
 H1637 H 0.28616 0.30292 0.69927
 H1638 H 0.32857 0.24013 0.71718
 H1639 H 0.18797 0.23056 0.76266
 H1640 H 0.21288 0.20730 0.78310
 H1641 H 0.28978 0.20415 0.70000
 H1642 H 0.26455 0.22216 0.67576
 H1643 H 0.24101 0.26476 0.80617
 H1644 H 0.21486 0.28578 0.78281
 O1645 O 0.20202 0.75189 0.29750
 O1646 O 0.21794 0.71764 0.30439
 O1647 O 0.25685 0.79638 0.30496
 O1648 O 0.28963 0.80150 0.29009
 O1649 O 0.21200 0.80365 0.24902
 O1650 O 0.20803 0.78468 0.21484
 O1651 O 0.31515 0.73630 0.25154
 O1652 O 0.31460 0.74937 0.28712
 O1653 O 0.26352 0.69030 0.24649
 O1654 O 0.22460 0.69067 0.25518
 O1655 O 0.26951 0.73867 0.19748
 O1656 O 0.26030 0.77692 0.19308
 O1657 O 0.30318 0.75316 0.21937
 O1658 O 0.28467 0.79019 0.21118
 O1659 O 0.24919 0.71001 0.21025
 O1660 O 0.21261 0.70705 0.22845
 O1661 O 0.29424 0.70338 0.26380
 O1662 O 0.29284 0.71972 0.30142
 O1663 O 0.19046 0.76861 0.26508
 O1664 O 0.19124 0.75737 0.22714
 O1665 O 0.24251 0.81611 0.26717
 O1666 O 0.28166 0.81343 0.25742
 O1667 O 0.23751 0.76761 0.31898
 O1668 O 0.25017 0.72836 0.32057
 Zr1669 Zr 0.23569 0.74520 0.29256
 O1670 O 0.25539 0.72266 0.27533
 Zr1671 Zr 0.26276 0.78812 0.27210
 O1672 O 0.28396 0.76746 0.25477
 Zr1673 Zr 0.21852 0.76972 0.24531
 O1674 O 0.23778 0.74852 0.22625
 Zr1675 Zr 0.28659 0.73636 0.27056
 O1676 O 0.26768 0.75809 0.28975
 Zr1677 Zr 0.24240 0.71812 0.24320
 O1678 O 0.22116 0.73860 0.26130
 Zr1679 Zr 0.26974 0.76116 0.22351
 O1680 O 0.24946 0.78394 0.23996
 O1681 O 0.23138 0.77581 0.27676
 O1682 O 0.27402 0.73028 0.23878
 C1683 C 0.18699 0.76076 0.28464
 C1684 C 0.24682 0.78652 0.32075
 C1685 C 0.22351 0.81910 0.25773
 C1686 C 0.31827 0.74398 0.23186
 C1687 C 0.28321 0.68793 0.25460
 C1688 C 0.26014 0.71994 0.19513
 H1689 H 0.25665 0.70856 0.28382
 H1690 H 0.23044 0.74677 0.21159
 H1691 H 0.22189 0.78586 0.28519
 H1692 H 0.29850 0.77458 0.25379
 H1693 H 0.30924 0.75643 0.30066
 H1694 H 0.30235 0.79150 0.28809
 H1695 H 0.20949 0.71630 0.21502
 H1696 H 0.18788 0.74277 0.23382
 H1697 H 0.30727 0.71199 0.30062
 H1698 H 0.24114 0.73127 0.33372
 H1699 H 0.24499 0.77254 0.18949
 H1700 H 0.22039 0.79392 0.20983
 H1701 H 0.20984 0.71164 0.29144
 H1702 H 0.23043 0.68684 0.27024
 H1703 H 0.27447 0.81730 0.24293
 H1704 H 0.29763 0.79328 0.22087
 O1705 O 0.23567 0.68134 0.76617
 O1706 O 0.27154 0.67876 0.75515
 O1707 O 0.23898 0.72675 0.82054
 O1708 O 0.24977 0.76100 0.82620
 O1709 O 0.18838 0.73537 0.76903
 O1710 O 0.18860 0.74981 0.73214
 O1711 O 0.29894 0.78734 0.76720
 O1712 O 0.30074 0.76753 0.80032
 O1713 O 0.29935 0.74193 0.71613
 O1714 O 0.27815 0.70897 0.70714
 O1715 O 0.25078 0.79202 0.71484
 O1716 O 0.21698 0.79868 0.73421
 O1717 O 0.26946 0.80504 0.75071
 O1718 O 0.23030 0.80847 0.76292
 O1719 O 0.26524 0.76214 0.69810
 O1720 O 0.25122 0.72379 0.69404
 O1721 O 0.31428 0.75469 0.74825
 O1722 O 0.31342 0.73384 0.78402
 O1723 O 0.20634 0.69942 0.74979
 O1724 O 0.20199 0.72238 0.71724
 O1725 O 0.20370 0.74829 0.80091
 O1726 O 0.22634 0.78091 0.80823
 O1727 O 0.25264 0.69625 0.80416
 O1728 O 0.28850 0.69342 0.78537
 Zr1729 Zr 0.25866 0.70663 0.77129
 O1730 O 0.28075 0.72590 0.75287
 Zr1731 Zr 0.23753 0.75081 0.79498
 O1732 O 0.25917 0.77180 0.77814
 Zr1733 Zr 0.21544 0.73281 0.74791
 O1734 O 0.23571 0.75343 0.72887
 Zr1735 Zr 0.28804 0.75467 0.77027
 O1736 O 0.26766 0.73438 0.78988
 Zr1737 Zr 0.26574 0.73720 0.72300
 O1738 O 0.24445 0.71566 0.74014
 Zr1739 Zr 0.24482 0.78110 0.74731
 O1740 O 0.22206 0.76192 0.76519
 O1741 O 0.22904 0.72236 0.77828
 O1742 O 0.27441 0.76558 0.73985
 C1743 C 0.21634 0.68174 0.75690
 C1744 C 0.24551 0.70650 0.82108
 C1745 C 0.18705 0.74258 0.78886
 C1746 C 0.28924 0.80468 0.75886
 C1747 C 0.31570 0.74889 0.72797
 C1748 C 0.25851 0.78234 0.69792
 H1749 H 0.29429 0.71719 0.75033
 H1750 H 0.22770 0.75765 0.71494
 H1751 H 0.21893 0.71283 0.78675
 H1752 H 0.26261 0.78466 0.78740
 H1753 H 0.29711 0.75677 0.81222
 H1754 H 0.26384 0.76856 0.82351
 H1755 H 0.23822 0.73303 0.68975
 H1756 H 0.21289 0.71207 0.71104
 H1757 H 0.32729 0.74235 0.78441
 H1758 H 0.28542 0.67900 0.79269
 H1759 H 0.21060 0.78994 0.72200
 H1760 H 0.18764 0.76440 0.73917
 H1761 H 0.26667 0.68012 0.73939
 H1762 H 0.28958 0.70207 0.71708
 H1763 H 0.21516 0.78718 0.79760
 H1764 H 0.23925 0.81166 0.77638
 O1765 O 0.24996 0.20642 0.20389
 O1766 O 0.28432 0.20264 0.22033
 O1767 O 0.20565 0.20308 0.25798
 O1768 O 0.19917 0.22098 0.28889
 O1769 O 0.19751 0.25463 0.20790
 O1770 O 0.21531 0.28763 0.19984
 O1771 O 0.26461 0.26369 0.31201
 O1772 O 0.25280 0.22838 0.31510
 O1773 O 0.30963 0.26605 0.26008
 O1774 O 0.31005 0.25517 0.22271
 O1775 O 0.25914 0.31331 0.26195
 O1776 O 0.22163 0.31539 0.25298
 O1777 O 0.24607 0.29377 0.29781
 O1778 O 0.20822 0.29771 0.27771
 O1779 O 0.28870 0.30022 0.24378
 O1780 O 0.29143 0.27898 0.20770
 O1781 O 0.29812 0.25007 0.29207
 O1782 O 0.28174 0.21240 0.29425
 O1783 O 0.23302 0.23681 0.18829
 O1784 O 0.24389 0.27570 0.18628
 O1785 O 0.18486 0.23871 0.23945
 O1786 O 0.18748 0.25223 0.27840
 O1787 O 0.23504 0.18832 0.24073
 O1788 O 0.27432 0.18981 0.25422
 Zr1789 Zr 0.25659 0.21532 0.23672
 O1790 O 0.27852 0.23544 0.25462
 Zr1791 Zr 0.21287 0.23657 0.26087
 O1792 O 0.23310 0.25617 0.28109
 Zr1793 Zr 0.23110 0.25952 0.21449
 O1794 O 0.25084 0.28146 0.23271
 Zr1795 Zr 0.26483 0.24222 0.28530
 O1796 O 0.24339 0.22067 0.26811
 Zr1797 Zr 0.28171 0.26652 0.23897
 O1798 O 0.26248 0.24515 0.21924
 Zr1799 Zr 0.23813 0.28629 0.26445
 O1800 O 0.21636 0.26733 0.24472
 O1801 O 0.22563 0.22937 0.23022
 O1802 O 0.26957 0.27304 0.27022
 C1803 C 0.24112 0.21710 0.18728
 C1804 C 0.21607 0.18677 0.24973
 C1805 C 0.18202 0.24674 0.21968
 C1806 C 0.25612 0.28305 0.31379
 C1807 C 0.31300 0.25896 0.28007
 C1808 C 0.27796 0.31579 0.25309
 H1809 H 0.29290 0.22773 0.25657
 H1810 H 0.25196 0.29551 0.22423
 H1811 H 0.21585 0.21974 0.22139
 H1812 H 0.22601 0.25804 0.29553
 H1813 H 0.24554 0.21439 0.31111
 H1814 H 0.21015 0.22232 0.30114
 H1815 H 0.28275 0.29259 0.20430
 H1816 H 0.25797 0.26817 0.18301
 H1817 H 0.28990 0.21471 0.30845
 H1818 H 0.27171 0.17563 0.24666
 H1819 H 0.22427 0.31688 0.23691
 H1820 H 0.20675 0.29453 0.21167
 H1821 H 0.28989 0.21481 0.21088
 H1822 H 0.31306 0.23986 0.22801
 H1823 H 0.18245 0.26520 0.26933
 H1824 H 0.20634 0.29014 0.29222
 O1825 O 0.73684 0.81057 0.23133
 O1826 O 0.77366 0.81233 0.24057
 O1827 O 0.73272 0.76019 0.18215
 O1828 O 0.74117 0.72458 0.17949
 O1829 O 0.68816 0.75996 0.23734
 O1830 O 0.69168 0.74892 0.27505
 O1831 O 0.79637 0.70130 0.23750
 O1832 O 0.79530 0.71773 0.20284
 O1833 O 0.80369 0.75115 0.28360
 O1834 O 0.78522 0.78533 0.29118
 O1835 O 0.75292 0.70442 0.29297
 O1836 O 0.71841 0.69696 0.27592
 O1837 O 0.76822 0.68636 0.25677
 O1838 O 0.72746 0.68481 0.24714
 O1839 O 0.77138 0.73442 0.30537
 O1840 O 0.75845 0.77406 0.30621
 O1841 O 0.81505 0.73472 0.25231
 O1842 O 0.81051 0.75214 0.21470
 O1843 O 0.70869 0.79563 0.25071
 O1844 O 0.70855 0.77654 0.28649
 O1845 O 0.69869 0.74396 0.20552
 O1846 O 0.71899 0.70831 0.20088
 O1847 O 0.75049 0.79074 0.19426
 O1848 O 0.78764 0.79386 0.21170
 Zr1849 Zr 0.75867 0.78362 0.22791
 O1850 O 0.78191 0.76475 0.24688
 Zr1851 Zr 0.73305 0.73876 0.20999
 O1852 O 0.75600 0.71812 0.22738
 Zr1853 Zr 0.71743 0.76232 0.25620
 O1854 O 0.73877 0.74204 0.27573
 Zr1855 Zr 0.78627 0.73410 0.23200
 O1856 O 0.76434 0.75362 0.21176
 Zr1857 Zr 0.76977 0.75698 0.27832
 O1858 O 0.74767 0.77840 0.26047
 Zr1859 Zr 0.74488 0.71221 0.25961
 O1860 O 0.72077 0.73128 0.24154
 O1861 O 0.72788 0.76915 0.22427
 O1862 O 0.77570 0.72660 0.26394
 C1863 C 0.71821 0.81189 0.24101
 C1864 C 0.74077 0.77952 0.17906
 C1865 C 0.68397 0.75213 0.21811
 C1866 C 0.78705 0.68508 0.24744
 C1867 C 0.81865 0.74246 0.27174
 C1868 C 0.76305 0.71519 0.30816
 H1869 H 0.79596 0.77284 0.24786
 H1870 H 0.73203 0.73965 0.29032
 H1871 H 0.71739 0.77849 0.21534
 H1872 H 0.75799 0.70431 0.21918
 H1873 H 0.79034 0.72734 0.19018
 H1874 H 0.75546 0.71684 0.18196
 H1875 H 0.74611 0.76561 0.31245
 H1876 H 0.71982 0.78773 0.28999
 H1877 H 0.82412 0.74294 0.21449
 H1878 H 0.78436 0.80766 0.20306
 H1879 H 0.71219 0.70794 0.28603
 H1880 H 0.68901 0.73392 0.26942
 H1881 H 0.77026 0.81277 0.25652
 H1882 H 0.79441 0.79168 0.27939
 H1883 H 0.70814 0.70447 0.21229
 H1884 H 0.73493 0.67979 0.23372
 O1885 O 0.69646 0.24356 0.78837
 O1886 O 0.71630 0.21008 0.79212
 O1887 O 0.74776 0.29198 0.79707
 O1888 O 0.77740 0.30364 0.78009
 O1889 O 0.69938 0.29775 0.74121
 O1890 O 0.69631 0.27935 0.70656
 O1891 O 0.80889 0.24238 0.73734
 O1892 O 0.80845 0.25465 0.77345
 O1893 O 0.76282 0.19098 0.73365
 O1894 O 0.72415 0.18700 0.74274
 O1895 O 0.76059 0.24253 0.68526
 O1896 O 0.74699 0.28065 0.68436
 O1897 O 0.79369 0.25893 0.70638
 O1898 O 0.77241 0.29384 0.70064
 O1899 O 0.74627 0.21039 0.69806
 O1900 O 0.71070 0.20233 0.71604
 O1901 O 0.79226 0.20672 0.75080
 O1902 O 0.79079 0.22240 0.78824
 O1903 O 0.68230 0.26032 0.75700
 O1904 O 0.68281 0.25018 0.71887
 O1905 O 0.72812 0.31265 0.76031
 O1906 O 0.76696 0.31517 0.74863
 O1907 O 0.73011 0.26123 0.80924
 O1908 O 0.74723 0.22414 0.80888
 Zr1909 Zr 0.73039 0.24033 0.78181
 O1910 O 0.75222 0.22127 0.76314
 Zr1911 Zr 0.75186 0.28714 0.76294
 O1912 O 0.77460 0.26998 0.74376
 Zr1913 Zr 0.70930 0.26487 0.73634
 O1914 O 0.73010 0.24683 0.71580
 Zr1915 Zr 0.78146 0.23873 0.75793
 O1916 O 0.76067 0.25695 0.77876
 Zr1917 Zr 0.73885 0.21649 0.73126
 O1918 O 0.71583 0.23351 0.75069
 Zr1919 Zr 0.76010 0.26341 0.71265
 O1920 O 0.73815 0.28290 0.73094
 O1921 O 0.72230 0.27106 0.76774
 O1922 O 0.76858 0.23254 0.72630
 C1923 C 0.68027 0.25171 0.77648
 C1924 C 0.73863 0.28028 0.81224
 C1925 C 0.70898 0.31397 0.75073
 C1926 C 0.81021 0.25080 0.71764
 C1927 C 0.78261 0.19027 0.74182
 C1928 C 0.75433 0.22254 0.68263
 H1929 H 0.75532 0.20711 0.77112
 H1930 H 0.72253 0.24487 0.70129
 H1931 H 0.71219 0.27965 0.77699
 H1932 H 0.78822 0.27870 0.74255
 H1933 H 0.80300 0.26062 0.78749
 H1934 H 0.79105 0.29499 0.77796
 H1935 H 0.70582 0.21218 0.70356
 H1936 H 0.68178 0.23486 0.72473
 H1937 H 0.80606 0.21666 0.78687
 H1938 H 0.73785 0.22474 0.82211
 H1939 H 0.73336 0.27310 0.67957
 H1940 H 0.70711 0.29046 0.70170
 H1941 H 0.70703 0.20491 0.77957
 H1942 H 0.73058 0.18339 0.75761
 H1943 H 0.75889 0.31860 0.73449
 H1944 H 0.78428 0.29852 0.71099
 C1945 C 0.05523 1.02283 1.16061
 C1946 C 0.07650 1.01369 1.16348
 C1947 C 0.08765 1.00628 1.14478
 C1948 C 0.07736 1.00701 1.12370
 C1949 C 0.05572 1.01560 1.12113
 C1950 C 0.04494 1.02382 1.13961
 C1951 C 0.04498 1.01524 1.10028
 C1952 C 0.05543 1.00609 1.08192
 C1953 C 0.07723 0.99821 1.08457
 C1954 C 0.08812 0.99874 1.10524
 H1955 H 0.10425 0.99960 1.14668
 H1956 H 0.02834 1.03051 1.13792
 H1957 H 0.02821 1.02148 1.09860
 H1958 H 0.10477 0.99219 1.10691
 H1959 H 0.04625 1.02856 1.17472
 H1960 H 0.08576 0.99118 1.07076
 C1961 C 0.54770 0.51798 0.66652
 C1962 C 0.56990 0.51120 0.66809
 C1963 C 0.58095 0.50584 0.64871
 C1964 C 0.56987 0.50649 0.62809
 C1965 C 0.54736 0.51272 0.62665
 C1966 C 0.53649 0.51870 0.64595
 C1967 C 0.53608 0.51244 0.60603
 C1968 C 0.54703 0.50588 0.58687
 C1969 C 0.56959 0.50031 0.58856
 C1970 C 0.58088 0.50063 0.60894
 H1971 H 0.59821 0.50101 0.64971
 H1972 H 0.51927 0.52359 0.64518
 H1973 H 0.51873 0.51688 0.60502
 H1974 H 0.59817 0.49595 0.60977
 H1975 H 0.53888 0.52217 0.68127
 H1976 H 0.57856 0.49536 0.57414
 C1977 C 0.44823 -0.02130 0.65976
 C1978 C 0.42739 -0.01098 0.66034
 C1979 C 0.41809 -0.00174 0.64063
 C1980 C 0.42934 -0.00285 0.62067
 C1981 C 0.45031 -0.01317 0.62031
 C1982 C 0.45960 -0.02234 0.63994
 C1983 C 0.46164 -0.01409 0.60035
 C1984 C 0.45227 -0.00487 0.58065
 C1985 C 0.43129 0.00520 0.58123
 C1986 C 0.41997 0.00624 0.60105
 H1987 H 0.40220 0.00658 0.64086
 H1988 H 0.47562 -0.03041 0.63996
 H1989 H 0.47775 -0.02197 0.60021
 H1990 H 0.40390 0.01419 0.60103
 H1991 H 0.45563 -0.02884 0.67460
 H1992 H 0.42365 0.01248 0.56637
 C1993 C -0.09135 0.50933 1.13040
 C1994 C -0.08176 0.49654 1.14788
 C1995 C -0.06343 0.48305 1.14368
 C1996 C -0.05485 0.48225 1.12230
 C1997 C -0.06462 0.49517 1.10485
 C1998 C -0.08285 0.50868 1.10910
 C1999 C -0.05589 0.49451 1.08350
 C2000 C -0.03738 0.48118 1.07938
 C2001 C -0.02800 0.46821 1.09688
 C2002 C -0.03666 0.46872 1.11808
 H2003 H -0.05608 0.47290 1.15694
 H2004 H -0.09053 0.51876 1.09597
 H2005 H -0.06328 0.50466 1.07026
 H2006 H -0.02901 0.45864 1.13123
 H2007 H -0.10537 0.52001 1.13327
 H2008 H -0.01378 0.45772 1.09426
 C2009 C -0.06194 0.52772 0.33186
 C2010 C -0.07575 0.50943 0.32773
 C2011 C -0.07951 0.49480 0.34587
 C2012 C -0.07072 0.49866 0.36712
 C2013 C -0.05681 0.51680 0.37066
 C2014 C -0.05247 0.53117 0.35289
 C2015 C -0.04743 0.52016 0.39186
 C2016 C -0.05231 0.50581 0.40967
 C2017 C -0.06673 0.48819 0.40604
 C2018 C -0.07565 0.48450 0.38493
 H2019 H -0.08879 0.47985 0.34384
 H2020 H -0.04201 0.54535 0.35533
 H2021 H -0.03637 0.53385 0.39451
 H2022 H -0.08639 0.47052 0.38255
 H2023 H -0.05872 0.54009 0.31929
 H2024 H -0.07057 0.47678 0.41941
 C2025 C 0.44877 1.01487 -0.16557
 C2026 C 0.42745 1.00606 -0.16664
 C2027 C 0.41663 1.00105 -0.14686
 C2028 C 0.42712 1.00429 -0.12626
 C2029 C 0.44872 1.01274 -0.12533
 C2030 C 0.45934 1.01816 -0.14507
 C2031 C 0.45951 1.01520 -0.10472
 C2032 C 0.44908 1.00906 -0.08497
 C2033 C 0.42736 1.00119 -0.08613
 C2034 C 0.41646 0.99888 -0.10658
 H2035 H 0.40001 0.99464 -0.14752
 H2036 H 0.47590 1.02468 -0.14467
 H2037 H 0.47625 1.02128 -0.10414
 H2038 H 0.39985 0.99249 -0.10701
 H2039 H 0.45743 1.01878 -0.18060
 H2040 H 0.41885 0.99644 -0.07123
 C2041 C 0.55384 0.48963 -0.15603
 C2042 C 0.57418 0.50040 -0.15753
 C2043 C 0.58362 0.50972 -0.13840
 C2044 C 0.57302 0.50820 -0.11806
 C2045 C 0.55258 0.49737 -0.11675
 C2046 C 0.54312 0.48815 -0.13583
 C2047 C 0.54188 0.49604 -0.09642
 C2048 C 0.55133 0.50546 -0.07732
 C2049 C 0.57179 0.51602 -0.07883
 C2050 C 0.58252 0.51739 -0.09901
 H2051 H 0.59912 0.51838 -0.13937
 H2052 H 0.52749 0.47972 -0.13512
 H2053 H 0.52613 0.48782 -0.09558
 H2054 H 0.59821 0.52572 -0.09973
 H2055 H 0.54636 0.48203 -0.17042
 H2056 H 0.57949 0.52342 -0.06445
 C2057 C 0.05294 -0.00856 0.34276
 C2058 C 0.07452 -0.00041 0.34174
 C2059 C 0.08532 0.00588 0.36155
 C2060 C 0.07485 0.00390 0.38198
 C2061 C 0.05317 -0.00426 0.38274
 C2062 C 0.04236 -0.01044 0.36304
 C2063 C 0.04257 -0.00590 0.40314
 C2064 C 0.05329 0.00067 0.42290
 C2065 C 0.07502 0.00846 0.42192
 C2066 C 0.08568 0.01006 0.40168
 H2067 H 0.10181 0.01253 0.36108
 H2068 H 0.02574 -0.01680 0.36331
 H2069 H 0.02582 -0.01190 0.40351
 H2070 H 0.10234 0.01630 0.40141
 H2071 H 0.04432 -0.01388 0.32790
 H2072 H 0.08373 0.01365 0.43678
 C2073 C 0.16568 1.04925 1.01597
 C2074 C 0.16607 1.06908 1.00346
 C2075 C 0.14683 1.07603 0.99173
 C2076 C 0.12736 1.06387 0.99300
 C2077 C 0.12700 1.04413 1.00585
 C2078 C 0.14634 1.03686 1.01712
 C2079 C 0.10729 1.03218 1.00733
 C2080 C 0.08789 1.03989 0.99623
 C2081 C 0.08866 1.05955 0.98345
 C2082 C 0.10817 1.07135 0.98179
 H2083 H 0.14694 1.09101 0.98161
 H2084 H 0.14643 1.02178 1.02708
 H2085 H 0.10701 1.01709 1.01727
 H2086 H 0.10818 1.08645 0.97186
 H2087 H 0.18017 1.04357 1.02532
 H2088 H 0.07412 1.06590 0.97461
 C2089 C 0.65967 0.55350 0.52118
 C2090 C 0.65979 0.57372 0.50927
 C2091 C 0.63995 0.58182 0.49958
 C2092 C 0.62033 0.57017 0.50185
 C2093 C 0.62036 0.54980 0.51367
 C2094 C 0.64015 0.54162 0.52330
 C2095 C 0.60065 0.53795 0.51546
 C2096 C 0.58094 0.54632 0.50560
 C2097 C 0.58120 0.56685 0.49426
 C2098 C 0.60068 0.57860 0.49235
 H2099 H 0.63978 0.59712 0.48994
 H2100 H 0.64052 0.52608 0.53252
 H2101 H 0.60074 0.52219 0.52430
 H2102 H 0.60038 0.59424 0.48330
 H2103 H 0.67462 0.54698 0.52910
 H2104 H 0.56637 0.57380 0.48645
 C2105 C 0.64104 0.40349 -0.00520
 C2106 C 0.65922 0.41750 -0.00748
 C2107 C 0.65581 0.44045 -0.00818
 C2108 C 0.63459 0.44934 -0.00586
 C2109 C 0.61648 0.43511 -0.00305
 C2110 C 0.61985 0.41221 -0.00304
 C2111 C 0.59534 0.44401 -0.00016
 C2112 C 0.59202 0.46699 -0.00019
 C2113 C 0.61014 0.48096 -0.00318
 C2114 C 0.63122 0.47222 -0.00592
 H2115 H 0.66976 0.45137 -0.00971
 H2116 H 0.60616 0.40105 -0.00109
 H2117 H 0.58148 0.43306 0.00187
 H2118 H 0.64490 0.48337 -0.00805
 H2119 H 0.64328 0.38573 -0.00488
 H2120 H 0.60806 0.49874 -0.00329
 C2121 C 0.16576 -0.04844 0.49323
 C2122 C 0.16639 -0.06994 0.50245
 C2123 C 0.14675 -0.07938 0.50984
 C2124 C 0.12680 -0.06750 0.50824
 C2125 C 0.12635 -0.04581 0.49915
 C2126 C 0.14593 -0.03646 0.49164
 C2127 C 0.10637 -0.03385 0.49785
 C2128 C 0.08679 -0.04331 0.50554
 C2129 C 0.08753 -0.06503 0.51430
 C2130 C 0.10730 -0.07697 0.51564
 H2131 H 0.14694 -0.09608 0.51662
 H2132 H 0.14593 -0.01986 0.48462
 H2133 H 0.10613 -0.01717 0.49100
 H2134 H 0.10735 -0.09361 0.52258
 H2135 H 0.18069 -0.04076 0.48755
 H2136 H 0.07279 -0.07285 0.52030
 C2137 C 0.34011 -0.05389 0.51671
 C2138 C 0.33834 -0.07482 0.50717
 C2139 C 0.35708 -0.08437 0.49777
 C2140 C 0.37729 -0.07334 0.49808
 C2141 C 0.37884 -0.05233 0.50771
 C2142 C 0.36014 -0.04273 0.51694
 C2143 C 0.39905 -0.04128 0.50800
 C2144 C 0.41787 -0.05101 0.49890
 C2145 C 0.41611 -0.07198 0.48945
 C2146 C 0.39601 -0.08300 0.48898
 H2147 H 0.35593 -0.10033 0.49004
 H2148 H 0.36105 -0.02667 0.52447
 H2149 H 0.40010 -0.02518 0.51545
 H2150 H 0.39512 -0.09911 0.48155
 H2151 H 0.32606 -0.04627 0.52437
 H2152 H 0.43027 -0.07987 0.48227
 C2153 C -0.15984 0.45035 1.00735
 C2154 C -0.16287 0.43045 0.99614
 C2155 C -0.14486 0.42076 0.98564
 C2156 C -0.12391 0.43010 0.98720
 C2157 C -0.12084 0.44981 0.99893
 C2158 C -0.13899 0.45999 1.00869
 C2159 C -0.09964 0.45881 1.00090
 C2160 C -0.08148 0.44820 0.99141
 C2161 C -0.08492 0.42864 0.97968
 C2162 C -0.10592 0.41973 0.97754
 H2163 H -0.14706 0.40568 0.97650
 H2164 H -0.13697 0.47515 1.01773
 H2165 H -0.09732 0.47392 1.00995
 H2166 H -0.10804 0.40459 0.96849
 H2167 H -0.17342 0.45807 1.01568
 H2168 H -0.07135 0.42014 0.97207
 C2169 C -0.16979 0.55402 0.48654
 C2170 C -0.17029 0.57615 0.49311
 C2171 C -0.15034 0.58696 0.49754
 C2172 C -0.13017 0.57580 0.49571
 C2173 C -0.12979 0.55348 0.48932
 C2174 C -0.14971 0.54276 0.48470
 C2175 C -0.10954 0.54224 0.48787
 C2176 C -0.08963 0.55303 0.49284
 C2177 C -0.09031 0.57535 0.49889
 C2178 C -0.11035 0.58661 0.50028
 H2179 H -0.15052 0.60414 0.50224
 H2180 H -0.14977 0.52566 0.47978
 H2181 H -0.10933 0.52506 0.48321
 H2182 H -0.11036 0.60375 0.50512
 H2183 H -0.18496 0.54532 0.48315
 H2184 H -0.07531 0.58417 0.50273
 C2185 C 0.35806 1.10501 0.00876
 C2186 C 0.34045 1.09169 0.00172
 C2187 C 0.34509 1.07025 -0.00551
 C2188 C 0.36686 1.06220 -0.00558
 C2189 C 0.38439 1.07565 0.00173
 C2190 C 0.37979 1.09707 0.00879
 C2191 C 0.40615 1.06739 0.00197
 C2192 C 0.41063 1.04580 -0.00502
 C2193 C 0.39295 1.03274 -0.01247
 C2194 C 0.37135 1.04083 -0.01272
 H2195 H 0.33172 1.05966 -0.01073
 H2196 H 0.39298 1.10770 0.01435
 H2197 H 0.41952 1.07772 0.00773
 H2198 H 0.35813 1.03030 -0.01843
 H2199 H 0.35508 1.12173 0.01404
 H2200 H 0.39575 1.01606 -0.01800
 C2201 C -0.01689 1.13415 1.08800
 C2202 C -0.00237 1.15016 1.07986
 C2203 C 0.01151 1.14481 1.06237
 C2204 C 0.01126 1.12353 1.05356
 C2205 C -0.00301 1.10747 1.06238
 C2206 C -0.01715 1.11300 1.07942
 C2207 C -0.00299 1.08610 1.05404
 C2208 C 0.01088 1.08049 1.03670
 C2209 C 0.02482 1.09658 1.02775
 C2210 C 0.02512 1.11791 1.03622
 H2211 H 0.02284 1.15698 1.05603
 H2212 H -0.02836 1.10094 1.08618
 H2213 H -0.01404 1.07391 1.06087
 H2214 H 0.03614 1.12999 1.02921
 H2215 H -0.02809 1.13800 1.10112
 H2216 H 0.03564 1.09262 1.01435
 C2217 C 0.51317 0.66041 0.54969
 C2218 C 0.50572 0.66053 0.57158
 C2219 C 0.50009 0.64046 0.58189
 C2220 C 0.50118 0.62065 0.57040
 C2221 C 0.50816 0.62062 0.54822
 C2222 C 0.51434 0.64062 0.53808
 C2223 C 0.50860 0.60067 0.53660
 C2224 C 0.50206 0.58082 0.54698
 C2225 C 0.49552 0.58125 0.56923
 C2226 C 0.49510 0.60089 0.58078
 H2227 H 0.49477 0.64028 0.59892
 H2228 H 0.51982 0.64099 0.52111
 H2229 H 0.51378 0.60065 0.51953
 H2230 H 0.48980 0.60064 0.59781
 H2231 H 0.51756 0.67569 0.54138
 H2232 H 0.49053 0.56633 0.57784
 C2233 C -0.01794 0.67120 0.44983
 C2234 C -0.01025 0.67282 0.42807
 C2235 C -0.00512 0.65334 0.41688
 C2236 C -0.00694 0.63263 0.42740
 C2237 C -0.01419 0.63116 0.44945
 C2238 C -0.01988 0.65055 0.46044
 C2239 C -0.01534 0.61037 0.46017
 C2240 C -0.00920 0.59103 0.44913
 C2241 C -0.00239 0.59282 0.42703
 C2242 C -0.00130 0.61338 0.41629
 H2243 H 0.00038 0.65430 0.39992
 H2244 H -0.02552 0.64977 0.47734
 H2245 H -0.02068 0.60934 0.47717
 H2246 H 0.00422 0.61423 0.39935
 H2247 H -0.02194 0.68594 0.45883
 H2248 H 0.00235 0.57832 0.41801
 C2249 C 0.48165 1.17191 -0.04320
 C2250 C 0.48728 1.17355 -0.06562
 C2251 C 0.48946 1.15415 -0.07782
 C2252 C 0.48710 1.13337 -0.06761
 C2253 C 0.48227 1.13177 -0.04484
 C2254 C 0.47921 1.15118 -0.03287
 C2255 C 0.48129 1.11084 -0.03437
 C2256 C 0.48539 1.09154 -0.04636
 C2257 C 0.48934 1.09348 -0.06921
 C2258 C 0.49013 1.11414 -0.07972
 H2259 H 0.49336 1.15525 -0.09525
 H2260 H 0.47540 1.15032 -0.01542
 H2261 H 0.47822 1.10968 -0.01676
 H2262 H 0.49367 1.11510 -0.09724
 H2263 H 0.47985 1.18664 -0.03350
 H2264 H 0.49235 1.07898 -0.07895
 C2265 C 0.49493 0.36826 -0.09292
 C2266 C 0.50681 0.35136 -0.08145
 C2267 C 0.51894 0.35646 -0.06213
 C2268 C 0.51911 0.37814 -0.05428
 C2269 C 0.50687 0.39494 -0.06578
 C2270 C 0.49492 0.38983 -0.08514
 C2271 C 0.50643 0.41646 -0.05749
 C2272 C 0.51792 0.42139 -0.03769
 C2273 C 0.53053 0.40462 -0.02678
 C2274 C 0.53114 0.38325 -0.03499
 H2275 H 0.52837 0.34361 -0.05332
 H2276 H 0.48542 0.40246 -0.09418
 H2277 H 0.49660 0.42914 -0.06610
 H2278 H 0.54074 0.37063 -0.02604
 H2279 H 0.48532 0.36468 -0.10776
 H2280 H 0.53969 0.40789 -0.01158
 C2281 C -0.00878 -0.13165 0.40481
 C2282 C 0.00169 -0.14907 0.41687
 C2283 C 0.01193 -0.14469 0.43743
 C2284 C 0.01182 -0.12322 0.44578
 C2285 C 0.00122 -0.10583 0.43353
 C2286 C -0.00904 -0.11026 0.41306
 C2287 C 0.00089 -0.08439 0.44206
 C2288 C 0.01090 -0.08012 0.46279
 C2289 C 0.02165 -0.09757 0.47463
 C2290 C 0.02212 -0.11885 0.46621
 H2291 H 0.02028 -0.15792 0.44676
 H2292 H -0.01731 -0.09719 0.40344
 H2293 H -0.00751 -0.07118 0.43275
 H2294 H 0.03042 -0.13193 0.47578
 H2295 H -0.01699 -0.13464 0.38903
 H2296 H 0.02964 -0.09483 0.49058
 C2297 C 0.48279 -0.16597 0.55129
 C2298 C 0.49213 -0.16765 0.57283
 C2299 C 0.50092 -0.14865 0.58259
 C2300 C 0.50030 -0.12829 0.57112
 C2301 C 0.49090 -0.12682 0.54947
 C2302 C 0.48219 -0.14575 0.53971
 C2303 C 0.49041 -0.10646 0.53795
 C2304 C 0.49917 -0.08745 0.54778
 C2305 C 0.50836 -0.08916 0.56940
 C2306 C 0.50895 -0.10938 0.58093
 H2307 H 0.50850 -0.14973 0.59904
 H2308 H 0.47485 -0.14492 0.52315
 H2309 H 0.48321 -0.10547 0.52132
 H2310 H 0.51620 -0.11022 0.59753
 H2311 H 0.47564 -0.18025 0.54348
 H2312 H 0.51525 -0.07488 0.57743
 C2313 C 0.02536 0.33981 1.08287
 C2314 C 0.00659 0.32666 1.07863
 C2315 C -0.00975 0.33533 1.06359
 C2316 C -0.00763 0.35637 1.05370
 C2317 C 0.01086 0.36937 1.05899
 C2318 C 0.02730 0.36086 1.07341
 C2319 C 0.01268 0.39064 1.04968
 C2320 C -0.00353 0.39893 1.03466
 C2321 C -0.02166 0.38574 1.02907
 C2322 C -0.02383 0.36473 1.03870
 H2323 H -0.02471 0.32640 1.06007
 H2324 H 0.04185 0.37043 1.07725
 H2325 H 0.02687 0.40062 1.05384
 H2326 H -0.03812 0.35500 1.03436
 H2327 H 0.03915 0.33388 1.09304
 H2328 H -0.03437 0.39186 1.01754
 C2329 C 0.74418 0.34857 0.10455
 C2330 C 0.75263 0.33552 0.08729
 C2331 C 0.75933 0.31362 0.09300
 C2332 C 0.75774 0.30528 0.11476
 C2333 C 0.74925 0.31867 0.13147
 C2334 C 0.74254 0.34026 0.12617
 C2335 C 0.74754 0.31025 0.15321
 C2336 C 0.75436 0.28851 0.15847
 C2337 C 0.76302 0.27539 0.14166
 C2338 C 0.76468 0.28368 0.12007
 H2339 H 0.76690 0.30307 0.08105
 H2340 H 0.73573 0.35073 0.13872
 H2341 H 0.74093 0.32061 0.16595
 H2342 H 0.77134 0.27314 0.10750
 H2343 H 0.73752 0.36498 0.10153
 H2344 H 0.76846 0.25857 0.14512
 C2345 C 0.27012 0.79960 0.59712
 C2346 C 0.26072 0.82095 0.59608
 C2347 C 0.25368 0.83051 0.61579
 C2348 C 0.25588 0.81901 0.63612
 C2349 C 0.26501 0.79746 0.63692
 C2350 C 0.27218 0.78795 0.61732
 C2351 C 0.26648 0.78570 0.65723
 C2352 C 0.25887 0.79523 0.67677
 C2353 C 0.25035 0.81694 0.67574
 C2354 C 0.24883 0.82867 0.65564
 H2355 H 0.24606 0.84677 0.61531
 H2356 H 0.27935 0.77149 0.61761
 H2357 H 0.27313 0.76902 0.65770
 H2358 H 0.24189 0.84523 0.65533
 H2359 H 0.27607 0.79194 0.58232
 H2360 H 0.24439 0.82480 0.69044
 C2361 C 0.72826 0.70321 0.58532
 C2362 C 0.73966 0.68294 0.58412
 C2363 C 0.74975 0.67392 0.60355
 C2364 C 0.74807 0.68457 0.62384
 C2365 C 0.73660 0.70491 0.62491
 C2366 C 0.72682 0.71414 0.60549
 C2367 C 0.73517 0.71561 0.64534
 C2368 C 0.74495 0.70606 0.66472
 C2369 C 0.75607 0.68564 0.66332
 C2370 C 0.75769 0.67508 0.64312
 H2371 H 0.75905 0.65859 0.60292
 H2372 H 0.71788 0.72969 0.60595
 H2373 H 0.72654 0.73132 0.64610
 H2374 H 0.76650 0.65946 0.64258
 H2375 H 0.72007 0.71046 0.57074
 H2376 H 0.76388 0.67788 0.67784
 C2377 C 0.23021 0.20564 0.08525
 C2378 C 0.23677 0.18310 0.08439
 C2379 C 0.24241 0.17240 0.10496
 C2380 C 0.24133 0.18338 0.12512
 C2381 C 0.23475 0.20573 0.12545
 C2382 C 0.22920 0.21668 0.10541
 C2383 C 0.23417 0.21676 0.14579
 C2384 C 0.24032 0.20562 0.16576
 C2385 C 0.24661 0.18322 0.16506
 C2386 C 0.24712 0.17226 0.14501
 H2387 H 0.24897 0.15576 0.10571
 H2388 H 0.22395 0.23383 0.10529
 H2389 H 0.22936 0.23404 0.14598
 H2390 H 0.25219 0.15505 0.14507
 H2391 H 0.22482 0.21493 0.07062
 H2392 H 0.25134 0.17407 0.18006
 C2393 C 0.22405 0.17413 0.89346
 C2394 C 0.24332 0.17474 0.90695
 C2395 C 0.26255 0.18379 0.89793
 C2396 C 0.26256 0.19174 0.87586
 C2397 C 0.24328 0.19014 0.86238
 C2398 C 0.22411 0.18147 0.87139
 C2399 C 0.24341 0.19746 0.84018
 C2400 C 0.26232 0.20715 0.83146
 C2401 C 0.28125 0.20925 0.84506
 C2402 C 0.28149 0.20129 0.86701
 H2403 H 0.27765 0.18429 0.90784
 H2404 H 0.20908 0.18049 0.86140
 H2405 H 0.22863 0.19621 0.82982
 H2406 H 0.29639 0.20280 0.87711
 H2407 H 0.20877 0.16796 0.89994
 H2408 H 0.29593 0.21681 0.83859
 C2409 C 0.72325 0.67596 0.39296
 C2410 C 0.74278 0.67399 0.40599
 C2411 C 0.76280 0.68069 0.39662
 C2412 C 0.76324 0.68900 0.37470
 C2413 C 0.74357 0.69001 0.36170
 C2414 C 0.72368 0.68358 0.37101
 C2415 C 0.74399 0.69780 0.33970
 C2416 C 0.76366 0.70546 0.33070
 C2417 C 0.78309 0.70501 0.34379
 C2418 C 0.78297 0.69646 0.36554
 H2419 H 0.77810 0.67917 0.40616
 H2420 H 0.70839 0.68464 0.36136
 H2421 H 0.72886 0.69861 0.32975
 H2422 H 0.79821 0.69599 0.37530
 H2423 H 0.70746 0.67170 0.39970
 H2424 H 0.79833 0.71109 0.33711
 C2425 C 0.23470 0.79846 0.42189
 C2426 C 0.24262 0.82015 0.42280
 C2427 C 0.24844 0.83102 0.40306
 C2428 C 0.24709 0.82025 0.38278
 C2429 C 0.23961 0.79826 0.38198
 C2430 C 0.23322 0.78758 0.40163
 C2431 C 0.23899 0.78731 0.36162
 C2432 C 0.24598 0.79808 0.34215
 C2433 C 0.25295 0.82014 0.34327
 C2434 C 0.25345 0.83110 0.36333
 H2435 H 0.25413 0.84792 0.40350
 H2436 H 0.22739 0.77074 0.40139
 H2437 H 0.23356 0.77033 0.36104
 H2438 H 0.25912 0.84800 0.36368
 H2439 H 0.23014 0.78974 0.43691
 H2440 H 0.25822 0.82900 0.32859
 C2441 C 0.77587 0.32453 0.89621
 C2442 C 0.75639 0.32469 0.90845
 C2443 C 0.73731 0.31507 0.89920
 C2444 C 0.73756 0.30608 0.87790
 C2445 C 0.75699 0.30707 0.86548
 C2446 C 0.77610 0.31605 0.87490
 C2447 C 0.75703 0.29900 0.84386
 C2448 C 0.73812 0.28925 0.83472
 C2449 C 0.71906 0.28765 0.84735
 C2450 C 0.71867 0.29628 0.86868
 H2451 H 0.72210 0.31511 0.90823
 H2452 H 0.79125 0.31657 0.86576
 H2453 H 0.77190 0.29990 0.83427
 H2454 H 0.70366 0.29523 0.87798
 H2455 H 0.79102 0.33114 0.90305
 H2456 H 0.70436 0.28005 0.84054
 C2457 C 0.84366 0.38947 0.25835
 C2458 C 0.83385 0.40550 0.24398
 C2459 C 0.81554 0.39973 0.23070
 C2460 C 0.80713 0.37826 0.23176
 C2461 C 0.81710 0.36229 0.24629
 C2462 C 0.83537 0.36807 0.25950
 C2463 C 0.80846 0.34090 0.24759
 C2464 C 0.78976 0.33533 0.23473
 C2465 C 0.78020 0.35131 0.22010
 C2466 C 0.78884 0.37253 0.21859
 H2467 H 0.80802 0.41186 0.21935
 H2468 H 0.84319 0.35608 0.27079
 H2469 H 0.81595 0.32881 0.25901
 H2470 H 0.78104 0.38452 0.20728
 H2471 H 0.85765 0.39358 0.26892
 H2472 H 0.76588 0.34747 0.20989
 C2473 C 0.30549 0.90311 0.73615
 C2474 C 0.32582 0.90507 0.74758
 C2475 C 0.33499 0.88645 0.75883
 C2476 C 0.32401 0.86619 0.75868
 C2477 C 0.30352 0.86452 0.74726
 C2478 C 0.29442 0.88304 0.73602
 C2479 C 0.29240 0.84438 0.74729
 C2480 C 0.30144 0.82573 0.75858
 C2481 C 0.32196 0.82750 0.76970
 C2482 C 0.33312 0.84757 0.76979
 H2483 H 0.35052 0.88777 0.76794
 H2484 H 0.27877 0.88200 0.72708
 H2485 H 0.27666 0.84331 0.73850
 H2486 H 0.34885 0.84855 0.77860
 H2487 H 0.29823 0.91706 0.72704
 H2488 H 0.32933 0.81343 0.77853
 C2489 C 0.15227 0.89267 0.24764
 C2490 C 0.16559 0.91096 0.25334
 C2491 C 0.18821 0.90659 0.25825
 C2492 C 0.19695 0.88510 0.25775
 C2493 C 0.18325 0.86732 0.25207
 C2494 C 0.16099 0.87131 0.24698
 C2495 C 0.19199 0.84581 0.25173
 C2496 C 0.21430 0.84180 0.25736
 C2497 C 0.22779 0.85967 0.26306
 C2498 C 0.21922 0.88110 0.26320
 H2499 H 0.19912 0.91946 0.26380
 H2500 H 0.15026 0.85788 0.24235
 H2501 H 0.18134 0.83220 0.24745
 H2502 H 0.23001 0.89453 0.26766
 H2503 H 0.13518 0.89460 0.24248
 H2504 H 0.24507 0.85712 0.26740
 C2505 C 0.69541 0.41344 0.76906
 C2506 C 0.67464 0.41596 0.75843
 C2507 C 0.66482 0.39754 0.74853
 C2508 C 0.67548 0.37690 0.74934
 C2509 C 0.69634 0.37457 0.76007
 C2510 C 0.70618 0.39293 0.76987
 C2511 C 0.70708 0.35395 0.76072
 C2512 C 0.69726 0.33554 0.75073
 C2513 C 0.67639 0.33809 0.74025
 C2514 C 0.66562 0.35857 0.73956
 H2515 H 0.64898 0.39930 0.73995
 H2516 H 0.72215 0.39143 0.77821
 H2517 H 0.72315 0.35233 0.76886
 H2518 H 0.64960 0.36007 0.73129
 H2519 H 0.70321 0.42727 0.77708
 H2520 H 0.66840 0.32427 0.73241
 C2521 C 0.70008 0.58969 0.73987
 C2522 C 0.67881 0.58913 0.74857
 C2523 C 0.66889 0.60894 0.75515
 C2524 C 0.68010 0.62897 0.75336
 C2525 C 0.70155 0.62936 0.74477
 C2526 C 0.71137 0.60962 0.73801
 C2527 C 0.71283 0.64944 0.74321
 C2528 C 0.70294 0.66917 0.75019
 C2529 C 0.68150 0.66850 0.75855
 C2530 C 0.67020 0.64863 0.76009
 H2531 H 0.65233 0.60881 0.76149
 H2532 H 0.72781 0.60958 0.73140
 H2533 H 0.72932 0.64962 0.73672
 H2534 H 0.65374 0.64861 0.76666
 H2535 H 0.70813 0.57463 0.73483
 H2536 H 0.67340 0.68338 0.76398
 C2537 C 0.20421 0.08535 0.24039
 C2538 C 0.18296 0.08434 0.24911
 C2539 C 0.17260 0.10395 0.25553
 C2540 C 0.18332 0.12421 0.25369
 C2541 C 0.20480 0.12515 0.24519
 C2542 C 0.21508 0.10559 0.23850
 C2543 C 0.21556 0.14559 0.24366
 C2544 C 0.20503 0.16503 0.25060
 C2545 C 0.18354 0.16368 0.25880
 C2546 C 0.17283 0.14354 0.26030
 H2547 H 0.15601 0.10348 0.26179
 H2548 H 0.23152 0.10592 0.23191
 H2549 H 0.23208 0.14632 0.23727
 H2550 H 0.15633 0.14307 0.26677
 H2551 H 0.21254 0.07045 0.23535
 H2552 H 0.17487 0.17826 0.26417
 C2553 C 0.30033 0.08038 0.75887
 C2554 C 0.32182 0.07886 0.75085
 C2555 C 0.33297 0.09828 0.74512
 C2556 C 0.32272 0.11894 0.74701
 C2557 C 0.30097 0.12034 0.75475
 C2558 C 0.28995 0.10095 0.76075
 C2559 C 0.29052 0.14104 0.75603
 C2560 C 0.30150 0.16038 0.74949
 C2561 C 0.32332 0.15872 0.74227
 C2562 C 0.33383 0.13823 0.74108
 H2563 H 0.34972 0.09731 0.73933
 H2564 H 0.27328 0.10168 0.76674
 H2565 H 0.27369 0.14200 0.76159
 H2566 H 0.35055 0.13744 0.73523
 H2567 H 0.29143 0.06561 0.76334
 H2568 H 0.33226 0.17329 0.73723
 C2569 C 0.79766 0.58315 0.25367
 C2570 C 0.81956 0.58210 0.24670
 C2571 C 0.83089 0.60183 0.24261
 C2572 C 0.82038 0.62232 0.24484
 C2573 C 0.79822 0.62326 0.25144
 C2574 C 0.78706 0.60357 0.25601
 C2575 C 0.78753 0.64384 0.25298
 C2576 C 0.79867 0.66346 0.24770
 C2577 C 0.82087 0.66223 0.24159
 C2578 C 0.83163 0.64188 0.24024
 H2579 H 0.84794 0.60124 0.23769
 H2580 H 0.77007 0.60395 0.26111
 H2581 H 0.77041 0.64450 0.25766
 H2582 H 0.84866 0.64142 0.23527
 H2583 H 0.78859 0.56817 0.25688
 H2584 H 0.82993 0.67704 0.23761
 C2585 C 0.89135 0.21833 0.16689
 C2586 C 0.90349 0.23803 0.16695
 C2587 C 0.89386 0.25714 0.17560
 C2588 C 0.87261 0.25655 0.18419
 C2589 C 0.86048 0.23675 0.18362
 C2590 C 0.86999 0.21776 0.17492
 C2591 C 0.83924 0.23614 0.19223
 C2592 C 0.83034 0.25485 0.20216
 C2593 C 0.84252 0.27442 0.20281
 C2594 C 0.86337 0.27537 0.19361
 H2595 H 0.90279 0.27254 0.17554
 H2596 H 0.86104 0.20238 0.17461
 H2597 H 0.82999 0.22092 0.19203
 H2598 H 0.87244 0.29067 0.19425
 H2599 H 0.89842 0.20319 0.16086
 H2600 H 0.83584 0.28899 0.21046
 C2601 C 0.38830 0.73045 0.65978
 C2602 C 0.40558 0.74156 0.67065
 C2603 C 0.40138 0.75202 0.69075
 C2604 C 0.38024 0.75152 0.69976
 C2605 C 0.36300 0.74041 0.68858
 C2606 C 0.36724 0.72989 0.66863
 C2607 C 0.34186 0.73989 0.69761
 C2608 C 0.33772 0.75017 0.71783
 C2609 C 0.35503 0.76125 0.72871
 C2610 C 0.37603 0.76197 0.71975
 H2611 H 0.41444 0.76086 0.69920
 H2612 H 0.35428 0.72120 0.65987
 H2613 H 0.32877 0.73119 0.68904
 H2614 H 0.38901 0.77061 0.72853
 H2615 H 0.39111 0.72197 0.64445
 H2616 H 0.35238 0.76941 0.74425
 C2617 C 0.39337 0.26475 0.84252
 C2618 C 0.41126 0.25613 0.83091
 C2619 C 0.40720 0.24648 0.81021
 C2620 C 0.38568 0.24574 0.80113
 C2621 C 0.36790 0.25466 0.81289
 C2622 C 0.37194 0.26404 0.83362
 C2623 C 0.34640 0.25412 0.80372
 C2624 C 0.34236 0.24480 0.78284
 C2625 C 0.36023 0.23589 0.77137
 C2626 C 0.38163 0.23636 0.78041
 H2627 H 0.42083 0.23992 0.80100
 H2628 H 0.35852 0.27084 0.84295
 H2629 H 0.33288 0.26102 0.81283
 H2630 H 0.39503 0.22943 0.77115
 H2631 H 0.39593 0.27190 0.85868
 H2632 H 0.35773 0.22856 0.75529
 C2633 C 0.89543 0.77020 0.33384
 C2634 C 0.91274 0.75743 0.32492
 C2635 C 0.90702 0.74329 0.30717
 C2636 C 0.88524 0.74254 0.29850
 C2637 C 0.86865 0.75561 0.30783
 C2638 C 0.87390 0.76923 0.32549
 C2639 C 0.84700 0.75507 0.29928
 C2640 C 0.84151 0.74190 0.28107
 C2641 C 0.85813 0.72895 0.27172
 C2642 C 0.87977 0.72918 0.28043
 H2643 H 0.91944 0.73365 0.29906
 H2644 H 0.86125 0.77915 0.33302
 H2645 H 0.83449 0.76534 0.30660
 H2646 H 0.89224 0.71903 0.27293
 H2647 H 0.89782 0.78025 0.34827
 H2648 H 0.85440 0.71863 0.25769
 C2649 C 0.10859 0.74050 0.34559
 C2650 C 0.09242 0.75297 0.33368
 C2651 C 0.09826 0.76428 0.31415
 C2652 C 0.12009 0.76353 0.30691
 C2653 C 0.13625 0.75114 0.31919
 C2654 C 0.13027 0.73956 0.33841
 C2655 C 0.15810 0.75053 0.31207
 C2656 C 0.16411 0.76206 0.29271
 C2657 C 0.14786 0.77436 0.28066
 C2658 C 0.12611 0.77511 0.28770
 H2659 H 0.08599 0.77411 0.30496
 H2660 H 0.14239 0.72989 0.34798
 H2661 H 0.17035 0.74087 0.32150
 H2662 H 0.11399 0.78473 0.27809
 H2663 H 0.10444 0.73143 0.36054
 H2664 H 0.15194 0.78345 0.26570
 C2665 C 0.60735 0.23538 0.84531
 C2666 C 0.59004 0.24640 0.83355
 C2667 C 0.59404 0.25539 0.81239
 C2668 C 0.61510 0.25389 0.80335
 C2669 C 0.63247 0.24316 0.81549
 C2670 C 0.62834 0.23377 0.83638
 C2671 C 0.65370 0.24221 0.80667
 C2672 C 0.65782 0.25191 0.78579
 C2673 C 0.64025 0.26229 0.77381
 C2674 C 0.61916 0.26328 0.78248
 H2675 H 0.58096 0.26413 0.80323
 H2676 H 0.64137 0.22535 0.84591
 H2677 H 0.66698 0.23411 0.81613
 H2678 H 0.60606 0.27156 0.77292
 H2679 H 0.60466 0.22799 0.86150
 H2680 H 0.64278 0.26993 0.75770
 C2681 C 0.58475 0.73488 0.70418
 C2682 C 0.58243 0.74347 0.68240
 C2683 C 0.60124 0.75129 0.67170
 C2684 C 0.62193 0.75090 0.68260
 C2685 C 0.62408 0.74249 0.70457
 C2686 C 0.60537 0.73443 0.71518
 C2687 C 0.64488 0.74231 0.71548
 C2688 C 0.66356 0.75043 0.70464
 C2689 C 0.66105 0.75863 0.68271
 C2690 C 0.64050 0.75886 0.67183
 H2691 H 0.59984 0.75753 0.65475
 H2692 H 0.60665 0.72789 0.73201
 H2693 H 0.64647 0.73586 0.73234
 H2694 H 0.63913 0.76534 0.65497
 H2695 H 0.57053 0.72886 0.71286
 H2696 H 0.67501 0.76499 0.67385
 C2697 C 0.08313 0.22303 0.20694
 C2698 C 0.07957 0.23500 0.18696
 C2699 C 0.09671 0.24779 0.17848
 C2700 C 0.11742 0.24786 0.18907
 C2701 C 0.12115 0.23541 0.20888
 C2702 C 0.10378 0.22326 0.21786
 C2703 C 0.14223 0.23515 0.21911
 C2704 C 0.15957 0.24700 0.20952
 C2705 C 0.15541 0.25943 0.18989
 C2706 C 0.13455 0.25993 0.17983
 H2707 H 0.09400 0.25753 0.16336
 H2708 H 0.10628 0.21364 0.23306
 H2709 H 0.14519 0.22551 0.23424
 H2710 H 0.13188 0.26958 0.16466
 H2711 H 0.07015 0.21304 0.21377
 H2712 H 0.16831 0.26891 0.18223
 C2713 C -0.04952 0.98277 0.83656
 C2714 C -0.07200 0.98943 0.83609
 C2715 C -0.08217 0.99232 0.85669
 C2716 C -0.07045 0.98898 0.87681
 C2717 C -0.04799 0.98277 0.87683
 C2718 C -0.03774 0.97956 0.85661
 C2719 C -0.03607 0.98038 0.89706
 C2720 C -0.04638 0.98440 0.91726
 C2721 C -0.06897 0.98996 0.91693
 C2722 C -0.08086 0.99223 0.89695
 H2723 H -0.09898 0.99826 0.85745
 H2724 H -0.02056 0.97455 0.85626
 H2725 H -0.01867 0.97616 0.89699
 H2726 H -0.09814 0.99688 0.89726
 H2727 H -0.04089 0.97928 0.82155
 H2728 H -0.07748 0.99302 0.93217
 C2729 C 0.39546 0.49797 0.36259
 C2730 C 0.40984 0.49786 0.34469
 C2731 C 0.43263 0.49633 0.34887
 C2732 C 0.44103 0.49464 0.37071
 C2733 C 0.42651 0.49506 0.38871
 C2734 C 0.40373 0.49679 0.38444
 C2735 C 0.43504 0.49365 0.41060
 C2736 C 0.45788 0.49138 0.41466
 C2737 C 0.47204 0.49060 0.39654
 C2738 C 0.46372 0.49235 0.37482
 H2739 H 0.44376 0.49593 0.33508
 H2740 H 0.39231 0.49706 0.39797
 H2741 H 0.42393 0.49418 0.42439
 H2742 H 0.47507 0.49191 0.36124
 H2743 H 0.37780 0.49913 0.35963
 H2744 H 0.48971 0.48904 0.39912
 C2745 C 0.55459 -0.00841 0.33742
 C2746 C 0.57737 -0.00382 0.33788
 C2747 C 0.58752 0.00095 0.35859
 C2748 C 0.57534 0.00129 0.37804
 C2749 C 0.55249 -0.00282 0.37707
 C2750 C 0.54231 -0.00770 0.35670
 C2751 C 0.54030 -0.00231 0.39655
 C2752 C 0.55083 0.00160 0.41709
 C2753 C 0.57363 0.00539 0.41791
 C2754 C 0.58574 0.00544 0.39853
 H2755 H 0.60512 0.00350 0.35998
 H2756 H 0.52479 -0.01094 0.35565
 H2757 H 0.52276 -0.00557 0.39582
 H2758 H 0.60329 0.00853 0.39961
 H2759 H 0.54581 -0.01161 0.32201
 H2760 H 0.58207 0.00846 0.43356
 C2761 C 0.05429 0.48826 0.83109
 C2762 C 0.07732 0.49053 0.83160
 C2763 C 0.08839 0.49333 0.85206
 C2764 C 0.07668 0.49395 0.87178
 C2765 C 0.05347 0.49201 0.87111
 C2766 C 0.04244 0.48912 0.85066
 C2767 C 0.04177 0.49264 0.89092
 C2768 C 0.05311 0.49452 0.91139
 C2769 C 0.07617 0.49637 0.91182
 C2770 C 0.08784 0.49629 0.89218
 H2771 H 0.10619 0.49481 0.85264
 H2772 H 0.02468 0.48751 0.84982
 H2773 H 0.02400 0.49091 0.89049
 H2774 H 0.10562 0.49778 0.89298
 H2775 H 0.04543 0.48627 0.81546
 H2776 H 0.08521 0.49787 0.92742
 C2777 C 0.04795 0.50532 0.65873
 C2778 C 0.07037 0.49906 0.65921
 C2779 C 0.08011 0.49288 0.63926
 C2780 C 0.06791 0.49343 0.61920
 C2781 C 0.04538 0.49953 0.61903
 C2782 C 0.03554 0.50535 0.63890
 C2783 C 0.03318 0.50008 0.59894
 C2784 C 0.04346 0.49536 0.57893
 C2785 C 0.06591 0.48950 0.57924
 C2786 C 0.07798 0.48826 0.59925
 H2787 H 0.09720 0.48754 0.63924
 H2788 H 0.01833 0.51027 0.63904
 H2789 H 0.01592 0.50488 0.59876
 H2790 H 0.09526 0.48362 0.59906
 H2791 H 0.03999 0.51057 0.67362
 H2792 H 0.07409 0.48577 0.56397
 C2793 C 0.55290 0.98981 0.16330
 C2794 C 0.57253 1.00193 0.16486
 C2795 C 0.58034 1.01250 0.14566
 C2796 C 0.56917 1.01052 0.12519
 C2797 C 0.54958 0.99819 0.12377
 C2798 C 0.54150 0.98803 0.14298
 C2799 C 0.53849 0.99617 0.10318
 C2800 C 0.54685 1.00622 0.08392
 C2801 C 0.56646 1.01836 0.08566
 C2802 C 0.57744 1.02055 0.10606
 H2803 H 0.59519 1.02227 0.14659
 H2804 H 0.52653 0.97845 0.14223
 H2805 H 0.52342 0.98675 0.10218
 H2806 H 0.59247 1.03004 0.10685
 H2807 H 0.54662 0.98123 0.17769
 H2808 H 0.57330 1.02640 0.07123
 C2809 C 0.45040 0.51913 0.16785
 C2810 C 0.43159 0.50580 0.16883
 C2811 C 0.42503 0.49413 0.14991
 C2812 C 0.43638 0.49640 0.13009
 C2813 C 0.45504 0.51010 0.12908
 C2814 C 0.46207 0.52120 0.14816
 C2815 C 0.46615 0.51257 0.10898
 C2816 C 0.45858 0.50170 0.08985
 C2817 C 0.43997 0.48811 0.09125
 C2818 C 0.42906 0.48541 0.11115
 H2819 H 0.41090 0.48335 0.15051
 H2820 H 0.47634 0.53179 0.14776
 H2821 H 0.48044 0.52311 0.10820
 H2822 H 0.41477 0.47486 0.11167
 H2823 H 0.45575 0.52843 0.18211
 H2824 H 0.43380 0.47938 0.07692
 C2825 C -0.05224 0.02461 0.66457
 C2826 C -0.07215 0.01269 0.66539
 C2827 C -0.08039 0.00359 0.64552
 C2828 C -0.06911 0.00602 0.62565
 C2829 C -0.04902 0.01753 0.62527
 C2830 C -0.04080 0.02686 0.64481
 C2831 C -0.03746 0.01937 0.60540
 C2832 C -0.04591 0.00993 0.58585
 C2833 C -0.06624 -0.00103 0.58645
 C2834 C -0.07768 -0.00299 0.60612
 H2835 H -0.09608 -0.00474 0.64508
 H2836 H -0.02538 0.03573 0.64488
 H2837 H -0.02189 0.02796 0.60523
 H2838 H -0.09315 -0.01176 0.60608
 H2839 H -0.04478 0.03145 0.67934
 H2840 H -0.07324 -0.00849 0.57175
 C2841 C -0.15981 0.95161 1.00851
 C2842 C -0.16102 0.92874 1.00553
 C2843 C -0.14151 0.91627 1.00388
 C2844 C -0.12094 0.92660 1.00479
 C2845 C -0.11989 0.94976 1.00697
 C2846 C -0.13940 0.96209 1.00906
 C2847 C -0.09938 0.96022 1.00676
 C2848 C -0.07985 0.94779 1.00485
 C2849 C -0.08102 0.92471 1.00348
 C2850 C -0.10141 0.91421 1.00328
 H2851 H -0.14240 0.89856 1.00181
 H2852 H -0.13888 0.97983 1.01089
 H2853 H -0.09860 0.97802 1.00807
 H2854 H -0.10192 0.89643 1.00173
 H2855 H -0.17472 0.96144 1.00974
 H2856 H -0.06618 0.91483 1.00194
 C2857 C 0.33692 0.44957 0.48431
 C2858 C 0.33497 0.42885 0.49496
 C2859 C 0.35400 0.41836 0.50409
 C2860 C 0.37465 0.42840 0.50261
 C2861 C 0.37634 0.44926 0.49194
 C2862 C 0.35740 0.45969 0.48284
 C2863 C 0.39691 0.45943 0.49066
 C2864 C 0.41595 0.44911 0.50000
 C2865 C 0.41409 0.42824 0.51038
 C2866 C 0.39363 0.41799 0.51168
 H2867 H 0.35272 0.40251 0.51258
 H2868 H 0.35842 0.47565 0.47452
 H2869 H 0.39800 0.47551 0.48258
 H2870 H 0.39263 0.40197 0.51988
 H2871 H 0.32262 0.45783 0.47678
 H2872 H 0.42842 0.41989 0.51774
 C2873 C 0.33883 0.54648 0.02774
 C2874 C 0.33520 0.56532 0.01409
 C2875 C 0.35229 0.57286 0.00070
 C2876 C 0.37297 0.56246 0.00160
 C2877 C 0.37671 0.54381 0.01569
 C2878 C 0.35941 0.53577 0.02849
 C2879 C 0.39776 0.53385 0.01697
 C2880 C 0.41510 0.54261 0.00457
 C2881 C 0.41094 0.56101 -0.00956
 C2882 C 0.39008 0.57076 -0.01111
 H2883 H 0.34957 0.58706 -0.01028
 H2884 H 0.36192 0.52150 0.03940
 H2885 H 0.40074 0.51968 0.02793
 H2886 H 0.38744 0.58501 -0.02203
 H2887 H 0.32596 0.54040 0.03830
 H2888 H 0.42386 0.56797 -0.01951
 C2889 C -0.15979 0.05567 0.51487
 C2890 C -0.16244 0.07485 0.50148
 C2891 C -0.14397 0.08333 0.49060
 C2892 C -0.12322 0.07305 0.49331
 C2893 C -0.12085 0.05377 0.50673
 C2894 C -0.13925 0.04519 0.51738
 C2895 C -0.10013 0.04342 0.50933
 C2896 C -0.08160 0.05217 0.49882
 C2897 C -0.08413 0.07151 0.48568
 C2898 C -0.10476 0.08180 0.48288
 H2899 H -0.14571 0.09786 0.47993
 H2900 H -0.13771 0.03048 0.52785
 H2901 H -0.09847 0.02858 0.51961
 H2902 H -0.10625 0.09660 0.47255
 H2903 H -0.17353 0.04895 0.52381
 H2904 H -0.07021 0.07858 0.47730
 C2905 C 0.66467 0.04409 0.49702
 C2906 C 0.66440 0.06724 0.49527
 C2907 C 0.64407 0.07855 0.49361
 C2908 C 0.62423 0.06692 0.49379
 C2909 C 0.62464 0.04361 0.49533
 C2910 C 0.64495 0.03235 0.49690
 C2911 C 0.60474 0.03200 0.49551
 C2912 C 0.58442 0.04342 0.49462
 C2913 C 0.58426 0.06661 0.49322
 C2914 C 0.60398 0.07825 0.49268
 H2915 H 0.64372 0.09644 0.49260
 H2916 H 0.64558 0.01449 0.49815
 H2917 H 0.60510 0.01412 0.49676
 H2918 H 0.60338 0.09612 0.49152
 H2919 H 0.68017 0.03508 0.49822
 H2920 H 0.56884 0.07579 0.49238
 C2921 C 0.14548 0.57768 1.02535
 C2922 C 0.16233 0.57037 1.01137
 C2923 C 0.15714 0.55369 0.99604
 C2924 C 0.13595 0.54463 0.99485
 C2925 C 0.11943 0.55242 1.00887
 C2926 C 0.12436 0.56891 1.02402
 C2927 C 0.09825 0.54348 1.00768
 C2928 C 0.09336 0.52643 0.99295
 C2929 C 0.10994 0.51862 0.97915
 C2930 C 0.13102 0.52773 0.98000
 H2931 H 0.16969 0.54698 0.98557
 H2932 H 0.11182 0.57515 1.03482
 H2933 H 0.08570 0.54950 1.01861
 H2934 H 0.14349 0.52147 0.96913
 H2935 H 0.14809 0.59100 1.03677
 H2936 H 0.10660 0.50551 0.96763
 C2937 C 0.15926 0.46079 0.50607
 C2938 C 0.16056 0.43882 0.49916
 C2939 C 0.14103 0.42731 0.49459
 C2940 C 0.12046 0.43768 0.49650
 C2941 C 0.11930 0.45988 0.50314
 C2942 C 0.13879 0.47126 0.50801
 C2943 C 0.09869 0.47039 0.50452
 C2944 C 0.07919 0.45905 0.49914
 C2945 C 0.08061 0.43682 0.49296
 C2946 C 0.10104 0.42623 0.49169
 H2947 H 0.14183 0.41020 0.48970
 H2948 H 0.13820 0.48829 0.51314
 H2949 H 0.09792 0.48752 0.50934
 H2950 H 0.10166 0.40916 0.48668
 H2951 H 0.17411 0.46997 0.50963
 H2952 H 0.06591 0.42762 0.48885
 C2953 C 0.66549 0.96348 -0.00782
 C2954 C 0.66617 0.94072 -0.00262
 C2955 C 0.64669 0.93032 0.00389
 C2956 C 0.62675 0.94211 0.00436
 C2957 C 0.62615 0.96493 -0.00105
 C2958 C 0.64570 0.97549 -0.00691
 C2959 C 0.60595 0.97656 -0.00098
 C2960 C 0.58638 0.96535 0.00370
 C2961 C 0.58729 0.94271 0.00918
 C2962 C 0.60730 0.93125 0.00975
 H2963 H 0.64695 0.91294 0.00851
 H2964 H 0.64560 0.99294 -0.01120
 H2965 H 0.60530 0.99400 -0.00536
 H2966 H 0.60749 0.91377 0.01395
 H2967 H 0.68015 0.97194 -0.01306
 H2968 H 0.57241 0.93383 0.01303
 C2969 C 0.02030 0.84966 0.91085
 C2970 C 0.00859 0.83276 0.92182
 C2971 C -0.00224 0.83823 0.94155
 C2972 C -0.00177 0.85984 0.94962
 C2973 C 0.00971 0.87643 0.93807
 C2974 C 0.02080 0.87111 0.91883
 C2975 C 0.00997 0.89808 0.94594
 C2976 C -0.00105 0.90343 0.96538
 C2977 C -0.01241 0.88675 0.97681
 C2978 C -0.01282 0.86520 0.96897
 H2979 H -0.01197 0.82613 0.95025
 H2980 H 0.02999 0.88356 0.90994
 H2981 H 0.01892 0.91068 0.93701
 H2982 H -0.02178 0.85272 0.97806
 H2983 H 0.02986 0.84642 0.89638
 H2984 H -0.02111 0.89036 0.99179
 C2985 C 0.51001 0.35815 0.40270
 C2986 C 0.50446 0.34003 0.41636
 C2987 C 0.49882 0.34380 0.43843
 C2988 C 0.49882 0.36527 0.44676
 C2989 C 0.50452 0.38334 0.43293
 C2990 C 0.51005 0.37958 0.41089
 C2991 C 0.50458 0.40483 0.44137
 C2992 C 0.49895 0.40848 0.46350
 C2993 C 0.49330 0.39026 0.47702
 C2994 C 0.49326 0.36893 0.46876
 H2995 H 0.49475 0.33000 0.44922
 H2996 H 0.51437 0.39319 0.39998
 H2997 H 0.50893 0.41863 0.43070
 H2998 H 0.48886 0.35528 0.47961
 H2999 H 0.51408 0.35579 0.38552
 H3000 H 0.48890 0.39241 0.49414
 C3001 C -0.03154 0.35599 0.57633
 C3002 C -0.01099 0.34482 0.57823
 C3003 C 0.00774 0.35574 0.57006
 C3004 C 0.00601 0.37700 0.56038
 C3005 C -0.01458 0.38810 0.55935
 C3006 C -0.03322 0.37741 0.56732
 C3007 C -0.01620 0.40955 0.55002
 C3008 C 0.00234 0.41957 0.54085
 C3009 C 0.02261 0.40821 0.54143
 C3010 C 0.02452 0.38723 0.55141
 H3011 H 0.02364 0.34744 0.57029
 H3012 H -0.04918 0.38563 0.56659
 H3013 H -0.03197 0.41814 0.54921
 H3014 H 0.04042 0.37891 0.55185
 H3015 H -0.04634 0.34873 0.58280
 H3016 H 0.03702 0.41568 0.53428
 C3017 C 0.49516 0.86591 0.10005
 C3018 C 0.50185 0.84836 0.08671
 C3019 C 0.51003 0.85318 0.06558
 C3020 C 0.51084 0.87508 0.05762
 C3021 C 0.50346 0.89250 0.07091
 C3022 C 0.49592 0.88774 0.09222
 C3023 C 0.50333 0.91431 0.06252
 C3024 C 0.51040 0.91894 0.04090
 C3025 C 0.51829 0.90145 0.02811
 C3026 C 0.51849 0.87979 0.03637
 H3027 H 0.51509 0.83986 0.05503
 H3028 H 0.49038 0.90087 0.10276
 H3029 H 0.49727 0.92755 0.07264
 H3030 H 0.52432 0.86667 0.02598
 H3031 H 0.48928 0.86277 0.11660
 H3032 H 0.52397 0.90441 0.01144
 C3033 C 0.48158 0.66964 0.04738
 C3034 C 0.48811 0.67076 0.06986
 C3035 C 0.49451 0.65123 0.08134
 C3036 C 0.49393 0.63086 0.07086
 C3037 C 0.48724 0.62978 0.04832
 C3038 C 0.48116 0.64930 0.03669
 C3039 C 0.48695 0.60923 0.03785
 C3040 C 0.49336 0.58983 0.04970
 C3041 C 0.49969 0.59129 0.07223
 C3042 C 0.50000 0.61156 0.08267
 H3043 H 0.50015 0.65185 0.09851
 H3044 H 0.47598 0.64884 0.01939
 H3045 H 0.48211 0.60843 0.02047
 H3046 H 0.50509 0.61215 0.10000
 H3047 H 0.47645 0.68440 0.03818
 H3048 H 0.50467 0.57672 0.08186
 C3049 C -0.02395 0.16801 0.55501
 C3050 C -0.00847 0.17083 0.57249
 C3051 C 0.00609 0.15324 0.57811
 C3052 C 0.00472 0.13306 0.56719
 C3053 C -0.01093 0.13036 0.54974
 C3054 C -0.02507 0.14805 0.54367
 C3055 C -0.01229 0.10994 0.53896
 C3056 C 0.00146 0.09211 0.54589
 C3057 C 0.01688 0.09515 0.56333
 C3058 C 0.01863 0.11542 0.57372
 H3059 H 0.01855 0.15515 0.59108
 H3060 H -0.03726 0.14633 0.53041
 H3061 H -0.02430 0.10780 0.52560
 H3062 H 0.03071 0.11721 0.58707
 H3063 H -0.03558 0.18106 0.55038
 H3064 H 0.02783 0.08182 0.56887
 C3065 C 0.51981 0.15937 0.44823
 C3066 C 0.50946 0.16153 0.42716
 C3067 C 0.50052 0.14264 0.41727
 C3068 C 0.50220 0.12194 0.42797
 C3069 C 0.51260 0.11997 0.44912
 C3070 C 0.52132 0.13879 0.45913
 C3071 C 0.51394 0.09925 0.45995
 C3072 C 0.50503 0.08042 0.44988
 C3073 C 0.49504 0.08262 0.42865
 C3074 C 0.49359 0.10317 0.41784
 H3075 H 0.49206 0.14403 0.40126
 H3076 H 0.52941 0.13758 0.47532
 H3077 H 0.52176 0.09787 0.47628
 H3078 H 0.48562 0.10441 0.40158
 H3079 H 0.52709 0.17353 0.45614
 H3080 H 0.48797 0.06849 0.42050
 C3081 C 0.00472 0.65295 0.95550
 C3082 C 0.01068 0.65517 0.93309
 C3083 C 0.01737 0.63592 0.92204
 C3084 C 0.01793 0.61525 0.93288
 C3085 C 0.01224 0.61345 0.95539
 C3086 C 0.00575 0.63242 0.96655
 C3087 C 0.01254 0.59262 0.96610
 C3088 C 0.01765 0.57355 0.95426
 C3089 C 0.02319 0.57555 0.93186
 C3090 C 0.02359 0.59624 0.92133
 H3091 H 0.02101 0.63656 0.90456
 H3092 H 0.00129 0.63136 0.98383
 H3093 H 0.00791 0.59113 0.98331
 H3094 H 0.02791 0.59732 0.90402
 H3095 H -0.00002 0.66716 0.96493
 H3096 H 0.02717 0.56104 0.92247
 C3097 C 0.23436 0.69340 0.92246
 C3098 C 0.24150 0.67127 0.92401
 C3099 C 0.24700 0.66030 0.90452
 C3100 C 0.24589 0.67138 0.88387
 C3101 C 0.23903 0.69372 0.88256
 C3102 C 0.23314 0.70453 0.90193
 C3103 C 0.23849 0.70497 0.86198
 C3104 C 0.24486 0.69423 0.84260
 C3105 C 0.25131 0.67186 0.84412
 C3106 C 0.25178 0.66055 0.86454
 H3107 H 0.25215 0.64311 0.90541
 H3108 H 0.22784 0.72167 0.90125
 H3109 H 0.23345 0.72219 0.86117
 H3110 H 0.25701 0.64339 0.86523
 H3111 H 0.23018 0.70228 0.93722
 H3112 H 0.25624 0.66310 0.82954
 C3113 C 0.72617 0.20084 0.41304
 C3114 C 0.74280 0.18470 0.41647
 C3115 C 0.75768 0.18084 0.39949
 C3116 C 0.75533 0.19189 0.37899
 C3117 C 0.73824 0.20769 0.37535
 C3118 C 0.72396 0.21231 0.39267
 C3119 C 0.73552 0.21810 0.35433
 C3120 C 0.74939 0.21233 0.33695
 C3121 C 0.76649 0.19684 0.34108
 C3122 C 0.76953 0.18685 0.36188
 H3123 H 0.77090 0.16883 0.40206
 H3124 H 0.71076 0.22436 0.39028
 H3125 H 0.72230 0.23003 0.35133
 H3126 H 0.78275 0.17484 0.36446
 H3127 H 0.71442 0.20407 0.42583
 H3128 H 0.77764 0.19237 0.32811
 C3129 C 0.23418 0.35013 0.38650
 C3130 C 0.24551 0.33928 0.40424
 C3131 C 0.25708 0.31959 0.40032
 C3132 C 0.25746 0.31093 0.37891
 C3133 C 0.24596 0.32197 0.36121
 C3134 C 0.23437 0.34154 0.36519
 C3135 C 0.24606 0.31315 0.33987
 C3136 C 0.25742 0.29330 0.33592
 C3137 C 0.26910 0.28268 0.35362
 C3138 C 0.26913 0.29141 0.37488
 H3139 H 0.26608 0.31124 0.41385
 H3140 H 0.22541 0.35020 0.35185
 H3141 H 0.23694 0.32155 0.32646
 H3142 H 0.27812 0.28278 0.38822
 H3143 H 0.22500 0.36523 0.38917
 H3144 H 0.27805 0.26741 0.35114
 C3145 C 0.73428 0.84917 0.88611
 C3146 C 0.74832 0.84019 0.90295
 C3147 C 0.76244 0.82251 0.89790
 C3148 C 0.76253 0.81397 0.87640
 C3149 C 0.74837 0.82319 0.85963
 C3150 C 0.73431 0.84079 0.86468
 C3151 C 0.74823 0.81444 0.83820
 C3152 C 0.76183 0.79631 0.83337
 C3153 C 0.77605 0.78747 0.85015
 C3154 C 0.77647 0.79628 0.87140
 H3155 H 0.77355 0.81559 0.91062
 H3156 H 0.72325 0.84800 0.85210
 H3157 H 0.73705 0.82133 0.82552
 H3158 H 0.78750 0.78903 0.88400
 H3159 H 0.72304 0.86259 0.88956
 H3160 H 0.78677 0.77356 0.84691
 C3161 C 0.76986 0.83357 0.09677
 C3162 C 0.75168 0.82898 0.08279
 C3163 C 0.73476 0.81557 0.09089
 C3164 C 0.73602 0.80682 0.11267
 C3165 C 0.75419 0.81193 0.12669
 C3166 C 0.77105 0.82526 0.11855
 C3167 C 0.75532 0.80348 0.14856
 C3168 C 0.73884 0.78941 0.15644
 C3169 C 0.72101 0.78416 0.14226
 C3170 C 0.71949 0.79297 0.12066
 H3171 H 0.72074 0.81182 0.08018
 H3172 H 0.78514 0.82929 0.12903
 H3173 H 0.76931 0.80737 0.15925
 H3174 H 0.70547 0.78879 0.11014
 H3175 H 0.78295 0.84408 0.09098
 H3176 H 0.70814 0.77334 0.14797
 C3177 C 0.23791 0.34555 0.60163
 C3178 C 0.23971 0.33145 0.58354
 C3179 C 0.24141 0.30857 0.58732
 C3180 C 0.24121 0.29982 0.60905
 C3181 C 0.23990 0.31418 0.62721
 C3182 C 0.23819 0.33701 0.62330
 C3183 C 0.24044 0.30549 0.64896
 C3184 C 0.24185 0.28257 0.65285
 C3185 C 0.24247 0.26842 0.63466
 C3186 C 0.24232 0.27696 0.61297
 H3187 H 0.24260 0.29766 0.57335
 H3188 H 0.23708 0.34826 0.63698
 H3189 H 0.23977 0.31656 0.66285
 H3190 H 0.24320 0.26569 0.59928
 H3191 H 0.23664 0.36325 0.59894
 H3192 H 0.24368 0.25069 0.63721
 C3193 C 0.73995 0.15394 0.60911
 C3194 C 0.74718 0.16697 0.59120
 C3195 C 0.75524 0.18823 0.59529
 C3196 C 0.75589 0.19643 0.61689
 C3197 C 0.74833 0.18325 0.63468
 C3198 C 0.74049 0.16201 0.63063
 C3199 C 0.74845 0.19162 0.65618
 C3200 C 0.75589 0.21313 0.66022
 C3201 C 0.76375 0.22594 0.64243
 C3202 C 0.76375 0.21766 0.62098
 H3203 H 0.76065 0.19857 0.58164
 H3204 H 0.73475 0.15163 0.64409
 H3205 H 0.74235 0.18149 0.66967
 H3206 H 0.76968 0.22797 0.60755
 H3207 H 0.73409 0.13735 0.60653
 H3208 H 0.76961 0.24254 0.64499
 C3209 C 0.22748 0.66835 0.11346
 C3210 C 0.24655 0.67056 0.10092
 C3211 C 0.26466 0.68201 0.10975
 C3212 C 0.26376 0.69115 0.13090
 C3213 C 0.24466 0.68841 0.14360
 C3214 C 0.22658 0.67706 0.13469
 C3215 C 0.24387 0.69727 0.16489
 C3216 C 0.26165 0.70943 0.17338
 C3217 C 0.28043 0.71233 0.16052
 C3218 C 0.28158 0.70306 0.13955
 H3219 H 0.27936 0.68391 0.10006
 H3220 H 0.21178 0.67490 0.14415
 H3221 H 0.22918 0.69527 0.17458
 H3222 H 0.29631 0.70538 0.13002
 H3223 H 0.21344 0.65938 0.10702
 H3224 H 0.29429 0.72168 0.16678
 C3225 C 0.20077 0.58070 0.76437
 C3226 C 0.18112 0.58025 0.75149
 C3227 C 0.17266 0.60017 0.74222
 C3228 C 0.18329 0.62021 0.74611
 C3229 C 0.20298 0.62047 0.75908
 C3230 C 0.21164 0.60060 0.76804
 C3231 C 0.21365 0.64059 0.76284
 C3232 C 0.20478 0.66050 0.75388
 C3233 C 0.18502 0.65994 0.74119
 C3234 C 0.17444 0.64001 0.73729
 H3235 H 0.15779 0.60014 0.73191
 H3236 H 0.22669 0.60046 0.77810
 H3237 H 0.22885 0.64070 0.77266
 H3238 H 0.15932 0.64011 0.72735
 H3239 H 0.20753 0.56573 0.77203
 H3240 H 0.17779 0.67492 0.73397
 C3241 C 0.70370 0.08528 0.26198
 C3242 C 0.68091 0.08467 0.25639
 C3243 C 0.66983 0.10507 0.25251
 C3244 C 0.68081 0.12515 0.25446
 C3245 C 0.70353 0.12541 0.25996
 C3246 C 0.71481 0.10535 0.26370
 C3247 C 0.71456 0.14571 0.26120
 C3248 C 0.70301 0.16566 0.25682
 C3249 C 0.68023 0.16501 0.25189
 C3250 C 0.66929 0.14502 0.25068
 H3251 H 0.65276 0.10570 0.24698
 H3252 H 0.73223 0.10517 0.26808
 H3253 H 0.73211 0.14591 0.26497
 H3254 H 0.65180 0.14511 0.24656
 H3255 H 0.71307 0.07039 0.26586
 H3256 H 0.67078 0.18003 0.24861
 C3257 C 0.79726 0.08913 0.73395
 C3258 C 0.81920 0.08842 0.74200
 C3259 C 0.82968 0.10827 0.74733
 C3260 C 0.81837 0.12852 0.74495
 C3261 C 0.79620 0.12905 0.73719
 C3262 C 0.78584 0.10925 0.73162
 C3263 C 0.78470 0.14931 0.73548
 C3264 C 0.79508 0.16906 0.74158
 C3265 C 0.81733 0.16826 0.74877
 C3266 C 0.82884 0.14822 0.75041
 H3267 H 0.84672 0.10797 0.75318
 H3268 H 0.76886 0.10930 0.72563
 H3269 H 0.76758 0.14960 0.72993
 H3270 H 0.84587 0.14812 0.75626
 H3271 H 0.78883 0.07404 0.72980
 H3272 H 0.82585 0.18313 0.75348
 C3273 C 0.29207 0.58594 0.24904
 C3274 C 0.31521 0.58498 0.24928
 C3275 C 0.32715 0.60467 0.25055
 C3276 C 0.31623 0.62509 0.25138
 C3277 C 0.29294 0.62602 0.25074
 C3278 C 0.28100 0.60632 0.24963
 C3279 C 0.28207 0.64661 0.25141
 C3280 C 0.29427 0.66616 0.25318
 C3281 C 0.31743 0.66489 0.25392
 C3282 C 0.32830 0.64458 0.25291
 H3283 H 0.34502 0.60407 0.25115
 H3284 H 0.26314 0.60667 0.24922
 H3285 H 0.26421 0.64738 0.25099
 H3286 H 0.34616 0.64413 0.25342
 H3287 H 0.28257 0.57095 0.24801
 H3288 H 0.32722 0.67969 0.25511
 C3289 C 0.33937 0.39267 0.22654
 C3290 C 0.32965 0.40893 0.23957
 C3291 C 0.31164 0.40333 0.25264
 C3292 C 0.30360 0.38171 0.25295
 C3293 C 0.31354 0.36542 0.23989
 C3294 C 0.33136 0.37112 0.22665
 C3295 C 0.30546 0.34377 0.24026
 C3296 C 0.28744 0.33822 0.25344
 C3297 C 0.27785 0.35460 0.26647
 C3298 C 0.28586 0.37609 0.26625
 H3299 H 0.30423 0.41565 0.26300
 H3300 H 0.33916 0.35890 0.21647
 H3301 H 0.31297 0.33138 0.23005
 H3302 H 0.27810 0.38834 0.27643
 H3303 H 0.35320 0.39665 0.21623
 H3304 H 0.26402 0.35085 0.27686
 C3305 C 0.80254 0.91414 0.76422
 C3306 C 0.82263 0.91553 0.75312
 C3307 C 0.83147 0.89632 0.74388
 C3308 C 0.82060 0.87609 0.74583
 C3309 C 0.80040 0.87492 0.75692
 C3310 C 0.79150 0.89406 0.76604
 C3311 C 0.78941 0.85466 0.75860
 C3312 C 0.79840 0.83550 0.74935
 C3313 C 0.81868 0.83693 0.73859
 C3314 C 0.82962 0.85700 0.73681
 H3315 H 0.84673 0.89712 0.73495
 H3316 H 0.77608 0.89348 0.77470
 H3317 H 0.77382 0.85389 0.76698
 H3318 H 0.84513 0.85760 0.72830
 H3319 H 0.79549 0.92854 0.77182
 H3320 H 0.82605 0.82254 0.73127
 C3321 C 0.70624 0.91335 0.24586
 C3322 C 0.68308 0.91358 0.24570
 C3323 C 0.67172 0.89359 0.24418
 C3324 C 0.68325 0.87357 0.24281
 C3325 C 0.70655 0.87343 0.24266
 C3326 C 0.71789 0.89343 0.24420
 C3327 C 0.71804 0.85326 0.24133
 C3328 C 0.70645 0.83330 0.24078
 C3329 C 0.68330 0.83371 0.24098
 C3330 C 0.67180 0.85367 0.24180
 H3331 H 0.65386 0.89362 0.24440
 H3332 H 0.73574 0.89366 0.24420
 H3333 H 0.73591 0.85303 0.24142
 H3334 H 0.65394 0.85352 0.24191
 H3335 H 0.71528 0.92863 0.24691
 H3336 H 0.67406 0.81852 0.24044
 C3337 C 0.20568 0.40793 0.73877
 C3338 C 0.18258 0.40834 0.73666
 C3339 C 0.17133 0.38852 0.73306
 C3340 C 0.18295 0.36846 0.73192
 C3341 C 0.20622 0.36821 0.73389
 C3342 C 0.21743 0.38806 0.73721
 C3343 C 0.21782 0.34807 0.73307
 C3344 C 0.20639 0.32810 0.73107
 C3345 C 0.18327 0.32856 0.72911
 C3346 C 0.17167 0.34857 0.72928
 H3347 H 0.15348 0.38866 0.73171
 H3348 H 0.23525 0.38819 0.73883
 H3349 H 0.23564 0.34783 0.73491
 H3350 H 0.15384 0.34845 0.72778
 H3351 H 0.21466 0.42305 0.74140
 H3352 H 0.17416 0.31336 0.72752
 C3353 C 0.08747 0.72569 0.80361
 C3354 C 0.08508 0.74019 0.82137
 C3355 C 0.10318 0.75306 0.82791
 C3356 C 0.12359 0.75065 0.81788
 C3357 C 0.12599 0.73581 0.80030
 C3358 C 0.10770 0.72363 0.79307
 C3359 C 0.14669 0.73322 0.79057
 C3360 C 0.16503 0.74495 0.79864
 C3361 C 0.16227 0.75962 0.81616
 C3362 C 0.14175 0.76258 0.82555
 H3363 H 0.10154 0.76476 0.84114
 H3364 H 0.10918 0.71214 0.77964
 H3365 H 0.14860 0.72185 0.77708
 H3366 H 0.14016 0.77402 0.83902
 H3367 H 0.07392 0.71542 0.79830
 H3368 H 0.17600 0.76909 0.82253
 C3369 C 0.58402 0.23423 0.29452
 C3370 C 0.58292 0.24488 0.31497
 C3371 C 0.60190 0.25497 0.32368
 C3372 C 0.62188 0.25374 0.31272
 C3373 C 0.62305 0.24264 0.29240
 C3374 C 0.60393 0.23314 0.28331
 C3375 C 0.64332 0.24113 0.28169
 C3376 C 0.66241 0.25053 0.29119
 C3377 C 0.66083 0.26158 0.31140
 C3378 C 0.64079 0.26321 0.32201
 H3379 H 0.60116 0.26368 0.33918
 H3380 H 0.60446 0.22458 0.26772
 H3381 H 0.64423 0.23260 0.26611
 H3382 H 0.64012 0.27178 0.33759
 H3383 H 0.56964 0.22625 0.28752
 H3384 H 0.67512 0.26909 0.31912
 C3385 C 0.60402 0.73839 0.15386
 C3386 C 0.58762 0.74680 0.16759
 C3387 C 0.59382 0.75474 0.18854
 C3388 C 0.61601 0.75423 0.19571
 C3389 C 0.63231 0.74564 0.18182
 C3390 C 0.62612 0.73778 0.16091
 C3391 C 0.65450 0.74504 0.18906
 C3392 C 0.66064 0.75292 0.21009
 C3393 C 0.64420 0.76152 0.22368
 C3394 C 0.62215 0.76215 0.21658
 H3395 H 0.58137 0.76107 0.19939
 H3396 H 0.63838 0.73124 0.14997
 H3397 H 0.66692 0.73839 0.17836
 H3398 H 0.60989 0.76881 0.22745
 H3399 H 0.59980 0.73254 0.13747
 H3400 H 0.64833 0.76775 0.23995
 C3401 C 0.08828 0.26514 0.69722
 C3402 C 0.08493 0.25412 0.67695
 C3403 C 0.10342 0.24357 0.66775
 C3404 C 0.12435 0.24429 0.67812
 C3405 C 0.12726 0.25547 0.69825
 C3406 C 0.10910 0.26578 0.70767
 C3407 C 0.14828 0.25612 0.70860
 C3408 C 0.16647 0.24568 0.69901
 C3409 C 0.16326 0.23464 0.67889
 C3410 C 0.14244 0.23391 0.66860
 H3411 H 0.10169 0.23400 0.65288
 H3412 H 0.11103 0.27459 0.72305
 H3413 H 0.15041 0.26473 0.72408
 H3414 H 0.14052 0.22522 0.65315
 H3415 H 0.07514 0.27421 0.70483
 H3416 H 0.17684 0.22638 0.67107
 C3417 C 0.91178 0.24066 0.70734
 C3418 C 0.91274 0.25048 0.68605
 C3419 C 0.89311 0.25786 0.67542
 C3420 C 0.87284 0.25565 0.68583
 C3421 C 0.87195 0.24601 0.70732
 C3422 C 0.89158 0.23854 0.71792
 C3423 C 0.85150 0.24412 0.71776
 C3424 C 0.83197 0.25174 0.70686
 C3425 C 0.83328 0.26100 0.68532
 C3426 C 0.85343 0.26294 0.67496
 H3427 H 0.89356 0.26503 0.65883
 H3428 H 0.89131 0.23107 0.73438
 H3429 H 0.85084 0.23690 0.73431
 H3430 H 0.85383 0.27028 0.65844
 H3431 H 0.92670 0.23487 0.71588
 H3432 H 0.81866 0.26698 0.67636
 C3433 C 0.39290 0.76993 0.16925
 C3434 C 0.40920 0.75523 0.17777
 C3435 C 0.40456 0.74163 0.19623
 C3436 C 0.38351 0.74219 0.20549
 C3437 C 0.36716 0.75666 0.19628
 C3438 C 0.37210 0.77064 0.17839
 C3439 C 0.34602 0.75692 0.20496
 C3440 C 0.34075 0.74301 0.22292
 C3441 C 0.35712 0.72884 0.23226
 C3442 C 0.37832 0.72837 0.22355
 H3443 H 0.41703 0.73021 0.20285
 H3444 H 0.35978 0.78196 0.17129
 H3445 H 0.33369 0.76817 0.19774
 H3446 H 0.39061 0.71717 0.23087
 H3447 H 0.39624 0.78080 0.15529
 H3448 H 0.35349 0.71800 0.24616
 C3449 C 0.39029 0.24446 0.34808
 C3450 C 0.40722 0.25241 0.33461
 C3451 C 0.40169 0.26128 0.31347
 C3452 C 0.37970 0.26170 0.30569
 C3453 C 0.36292 0.25320 0.31918
 C3454 C 0.36838 0.24483 0.34044
 C3455 C 0.34104 0.25285 0.31105
 C3456 C 0.33570 0.26079 0.28949
 C3457 C 0.35253 0.26969 0.27646
 C3458 C 0.37428 0.27013 0.28447
 H3459 H 0.41454 0.26729 0.30282
 H3460 H 0.35574 0.23840 0.35110
 H3461 H 0.32831 0.24600 0.32135
 H3462 H 0.38690 0.27679 0.27393
 H3463 H 0.39400 0.23797 0.36462
 H3464 H 0.34900 0.27602 0.25982
 C3465 C 0.89179 0.73430 0.84863
 C3466 C 0.90915 0.74285 0.83612
 C3467 C 0.90423 0.75271 0.81525
 C3468 C 0.88242 0.75403 0.80702
 C3469 C 0.86514 0.74526 0.81966
 C3470 C 0.87003 0.73545 0.84047
 C3471 C 0.84335 0.74624 0.81117
 C3472 C 0.83863 0.75579 0.79009
 C3473 C 0.85601 0.76475 0.77789
 C3474 C 0.87764 0.76388 0.78625
 H3475 H 0.91739 0.75910 0.80523
 H3476 H 0.85702 0.72871 0.85047
 H3477 H 0.83020 0.73922 0.82080
 H3478 H 0.89067 0.77076 0.77637
 H3479 H 0.89498 0.72697 0.86492
 H3480 H 0.85298 0.77229 0.76166
   
