data_POSCAR
  _audit_creation_date              2014-09-24
  _audit_creation_method            'ToBaCCo'
  _symmetry_space_group_name_H-M    'P1'
  _symmetry_Int_Tables_number       1
  _symmetry_cell_setting            triclinic
  loop_
  _symmetry_equiv_pos_as_xyz
 x,y,z
_cell_length_a 49.7991
_cell_length_b 49.8349
_cell_length_c 49.7887
_cell_angle_alpha 90.017000
_cell_angle_beta 90.022700
_cell_angle_gamma 90.005000
loop_
  _atom_site_label
  _atom_site_type_symbol
  _atom_site_fract_x
  _atom_site_fract_y
  _atom_site_fract_z
C1 C 0.23090 1.07853 -0.01217
 C2 C 0.23093 1.07886 0.01537
 C3 C 0.24475 1.05611 0.02367
 N4 N 0.25257 1.04163 0.00206
 C5 C 0.24436 1.05546 -0.01981
 C6 C 0.25126 1.04920 0.05054
 C7 C 0.25774 1.02220 0.05701
 C8 C 0.27227 1.01366 0.07927
 C9 C 0.27181 0.98607 0.07908
 C10 C 0.25743 0.97848 0.05653
 N11 N 0.24931 1.00053 0.04294
 C12 C 0.25020 0.95194 0.04988
 C13 C 0.24388 0.94473 0.02324
 C14 C 0.23037 0.92172 0.01552
 C15 C 0.23055 0.92138 -0.01202
 C16 C 0.24450 0.94408 -0.02024
 N17 N 0.25227 0.95852 0.00142
 C18 C 0.25117 0.95095 -0.04708
 C19 C 0.25785 0.97792 -0.05353
 C20 C 0.27256 0.98637 -0.07570
 C21 C 0.27231 1.01396 -0.07550
 C22 C 0.25786 1.02165 -0.05303
 N23 N 0.24951 0.99966 -0.03950
 C24 C 0.25084 1.04826 -0.04639
 H25 H 0.22165 1.09338 -0.02504
 H26 H 0.22130 1.09392 0.02768
 H27 H 0.23631 0.99958 -0.02323
 H28 H 0.28250 1.02584 0.09406
 H29 H 0.28119 0.97312 0.09378
 H30 H 0.22099 0.90691 0.02834
 H31 H 0.22091 0.90636 -0.02438
 H32 H 0.28188 1.02685 -0.09014
 H33 H 0.23619 1.00070 0.02660
 H34 H 0.28278 0.97411 -0.09042
 C35 C 0.77113 0.48443 0.57729
 C36 C 0.77169 0.51195 0.57782
 C37 C 0.75976 0.52058 0.55419
 N38 N 0.75212 0.49931 0.53919
 C39 C 0.75892 0.47719 0.55333
 C40 C 0.75414 0.54752 0.54745
 C41 C 0.74711 0.55507 0.52100
 C42 C 0.73427 0.57872 0.51389
 C43 C 0.73326 0.57929 0.48628
 C44 C 0.74557 0.55599 0.47728
 N45 N 0.75369 0.54122 0.49858
 C46 C 0.75082 0.54961 0.45011
 C47 C 0.75655 0.52306 0.44196
 C48 C 0.76755 0.51565 0.41750
 C49 C 0.76769 0.48811 0.41695
 C50 C 0.75672 0.47964 0.44109
 N51 N 0.75007 0.50103 0.45640
 C52 C 0.75115 0.45276 0.44815
 C53 C 0.74516 0.44538 0.47489
 C54 C 0.73231 0.42192 0.48262
 C55 C 0.73265 0.42136 0.51024
 C56 C 0.74572 0.44446 0.51862
 N57 N 0.75301 0.45913 0.49695
 C58 C 0.75238 0.45076 0.54550
 H59 H 0.77899 0.47132 0.59272
 H60 H 0.78006 0.52412 0.59375
 H61 H 0.76543 0.47596 0.49711
 H62 H 0.72639 0.59400 0.52717
 H63 H 0.72444 0.59510 0.47429
 H64 H 0.77495 0.52864 0.40175
 H65 H 0.77521 0.47583 0.40069
 H66 H 0.72422 0.40566 0.52266
 H67 H 0.76581 0.52419 0.49783
 H68 H 0.72359 0.40675 0.46974
 C69 C 0.72846 0.92179 0.98283
 C70 C 0.72769 0.92133 1.01036
 C71 C 0.74138 0.94398 1.01917
 N72 N 0.74983 0.95854 0.99787
 C73 C 0.74218 0.94486 0.97571
 C74 C 0.74731 0.95068 1.04624
 C75 C 0.75437 0.97748 1.05292
 C76 C 0.76902 0.98553 1.07529
 C77 C 0.76940 1.01312 1.07517
 C78 C 0.75530 1.02120 1.05261
 N79 N 0.74661 0.99943 1.03890
 C80 C 0.74879 1.04797 1.04608
 C81 C 0.74222 1.05538 1.01956
 C82 C 0.72883 1.07855 1.01216
 C83 C 0.72861 1.07901 0.98462
 C84 C 0.74228 1.05626 0.97607
 N85 N 0.75019 1.04163 0.99756
 C86 C 0.74864 1.04948 0.94912
 C87 C 0.75562 1.02262 0.94259
 C88 C 0.77063 1.01445 0.92051
 C89 C 0.77078 0.98686 0.92063
 C90 C 0.75619 0.97889 0.94292
 N91 N 0.74742 1.00074 0.95645
 C92 C 0.74940 0.95217 0.94935
 H93 H 0.71956 0.90702 0.96960
 H94 H 0.71765 0.90624 1.02228
 H95 H 0.73409 1.00063 0.97261
 H96 H 0.77881 0.97298 1.09006
 H97 H 0.77913 1.02573 1.08995
 H98 H 0.71977 1.09338 1.02520
 H99 H 0.71890 1.09418 0.97250
 H100 H 0.78068 0.97417 0.90604
 H101 H 0.73357 0.99965 1.02249
 H102 H 0.78080 1.02691 0.90593
 C103 C 0.22880 0.42012 0.48709
 C104 C 0.22889 0.41982 0.51465
 C105 C 0.24051 0.44374 0.52283
 N106 N 0.24735 0.45869 0.50124
 C107 C 0.24034 0.44422 0.47938
 C108 C 0.24657 0.45086 0.54960
 C109 C 0.25316 0.47751 0.55675
 C110 C 0.26632 0.48515 0.58008
 C111 C 0.26669 0.51276 0.58035
 C112 C 0.25372 0.52120 0.55719
 N113 N 0.24579 0.49959 0.54278
 C114 C 0.24771 0.54814 0.55064
 C115 C 0.24131 0.55589 0.52412
 C116 C 0.22971 0.58006 0.51670
 C117 C 0.22909 0.58034 0.48914
 C118 C 0.24038 0.55637 0.48067
 N119 N 0.24768 0.54139 0.50209
 C120 C 0.24573 0.54922 0.45376
 C121 C 0.25198 0.52252 0.44647
 C122 C 0.26458 0.51477 0.42288
 C123 C 0.26474 0.48717 0.42260
 C124 C 0.25220 0.47882 0.44603
 N125 N 0.24475 0.50049 0.46059
 C126 C 0.24616 0.45192 0.45272
 H127 H 0.22096 0.40443 0.47428
 H128 H 0.22113 0.40385 0.52715
 H129 H 0.23264 0.50028 0.47765
 H130 H 0.27481 0.47225 0.59536
 H131 H 0.27553 0.52512 0.59588
 H132 H 0.22228 0.59579 0.52970
 H133 H 0.22107 0.59635 0.47684
 H134 H 0.27315 0.47474 0.40690
 H135 H 0.23331 0.49990 0.52599
 H136 H 0.27287 0.52761 0.40744
 C137 C 1.07678 0.22571 -0.01401
 C138 C 1.07684 0.22605 0.01350
 C139 C 1.05529 0.24185 0.02134
 N140 N 1.04182 0.25081 -0.00050
 C141 C 1.05524 0.24136 -0.02216
 C142 C 1.04861 0.24875 0.04811
 C143 C 1.02184 0.25618 0.05460
 C144 C 1.01373 0.27010 0.07736
 C145 C 0.98616 0.27010 0.07741
 C146 C 0.97801 0.25700 0.05422
 N147 N 0.99990 0.24885 0.04031
 C148 C 0.95129 0.25015 0.04750
 C149 C 0.94387 0.24410 0.02078
 C150 C 0.91964 0.23304 0.01272
 C151 C 0.91975 0.23296 -0.01478
 C152 C 0.94366 0.24485 -0.02279
 N153 N 0.95850 0.25128 -0.00096
 C154 C 0.95116 0.25131 -0.04953
 C155 C 0.97834 0.25733 -0.05563
 C156 C 0.98705 0.27302 -0.07695
 C157 C 1.01461 0.27219 -0.07681
 C158 C 1.02210 0.25603 -0.05540
 N159 N 0.99988 0.24764 -0.04216
 C160 C 1.04870 0.24816 -0.04899
 H161 H 1.09065 0.21454 -0.02644
 H162 H 1.09073 0.21519 0.02618
 H163 H 0.99944 0.23378 -0.02644
 H164 H 1.02615 0.27941 0.09254
 H165 H 0.97390 0.27885 0.09299
 H166 H 0.90336 0.22574 0.02503
 H167 H 0.90394 0.22476 -0.02718
 H168 H 1.02755 0.28280 -0.09065
 H169 H 0.99981 0.23613 0.02367
 H170 H 0.97491 0.28439 -0.09092
 C171 C 0.48858 0.72913 0.58124
 C172 C 0.51611 0.72880 0.58045
 C173 C 0.52353 0.74064 0.55639
 N174 N 0.50149 0.74815 0.54244
 C175 C 0.48010 0.74126 0.55766
 C176 C 0.55018 0.74607 0.54835
 C177 C 0.55687 0.75254 0.52148
 C178 C 0.58116 0.76330 0.51323
 C179 C 0.58068 0.76398 0.48566
 C180 C 0.55581 0.75420 0.47767
 N181 N 0.54147 0.74722 0.49970
 C182 C 0.54770 0.74964 0.45075
 C183 C 0.52049 0.74569 0.44354
 C184 C 0.51134 0.73831 0.41828
 C185 C 0.48385 0.73901 0.41927
 C186 C 0.47699 0.74739 0.44490
 N187 N 0.49941 0.75140 0.45971
 C188 C 0.45064 0.75315 0.45378
 C189 C 0.44455 0.75764 0.48115
 C190 C 0.42147 0.77007 0.49055
 C191 C 0.42218 0.76851 0.51811
 C192 C 0.44568 0.75516 0.52482
 N193 N 0.45932 0.74882 0.50218
 C194 C 0.45323 0.74756 0.55112
 H195 H 0.47630 0.72120 0.59730
 H196 H 0.52914 0.72060 0.59579
 H197 H 0.47610 0.73640 0.50105
 H198 H 0.59777 0.76977 0.52564
 H199 H 0.59713 0.77071 0.47326
 H200 H 0.52297 0.73326 0.40068
 H201 H 0.47058 0.73406 0.40280
 H202 H 0.40709 0.77637 0.53161
 H203 H 0.52358 0.73643 0.49976
 H204 H 0.40570 0.77932 0.47880
 C205 C -0.01247 0.77202 -0.07670
 C206 C 0.01503 0.77136 -0.07661
 C207 C 0.02260 0.75609 -0.05459
 N208 N 0.00060 0.74781 -0.04096
 C209 C -0.02089 0.75711 -0.05475
 C210 C 0.04924 0.74898 -0.04754
 C211 C 0.05535 0.74240 -0.02049
 C212 C 0.07735 0.72770 -0.01161
 C213 C 0.07703 0.72860 0.01600
 C214 C 0.05466 0.74342 0.02324
 N215 N 0.04129 0.75133 0.00097
 C216 C 0.04795 0.75122 0.04962
 C217 C 0.02139 0.75821 0.05639
 C218 C 0.01362 0.77212 0.07915
 C219 C -0.01392 0.77240 0.07911
 C220 C -0.02207 0.75831 0.05645
 N221 N -0.00038 0.75005 0.04238
 C222 C -0.04882 0.75156 0.04943
 C223 C -0.05493 0.74440 0.02251
 C224 C -0.07631 0.72851 0.01427
 C225 C -0.07602 0.72828 -0.01332
 C226 C -0.05444 0.74398 -0.02130
 N227 N -0.04127 0.75313 0.00067
 C228 C -0.04782 0.75084 -0.04812
 H229 H -0.02471 0.78294 -0.09094
 H230 H 0.02787 0.78172 -0.09073
 H231 H -0.02543 0.76685 0.00066
 H232 H 0.09209 0.71719 -0.02358
 H233 H 0.09155 0.71927 0.02920
 H234 H 0.02641 0.78140 0.09408
 H235 H -0.02633 0.78231 0.09392
 H236 H -0.08986 0.71730 -0.02595
 H237 H 0.02515 0.76468 0.00045
 H238 H -0.09040 0.71766 0.02672
 C239 C 0.58213 0.26069 0.51132
 C240 C 0.58158 0.26104 0.48381
 C241 C 0.55596 0.25321 0.47615
 N242 N 0.54110 0.24749 0.49817
 C243 C 0.55706 0.25200 0.51970
 C244 C 0.54722 0.24909 0.44940
 C245 C 0.51991 0.24449 0.44283
 C246 C 0.51053 0.23495 0.41835
 C247 C 0.48299 0.23584 0.41936
 C248 C 0.47613 0.24642 0.44417
 N249 N 0.49873 0.25145 0.45842
 C250 C 0.44974 0.25312 0.45233
 C251 C 0.44311 0.25782 0.47950
 C252 C 0.41945 0.26935 0.48852
 C253 C 0.42016 0.26828 0.51605
 C254 C 0.44424 0.25613 0.52291
 N255 N 0.45828 0.24986 0.50055
 C256 C 0.45228 0.24929 0.54924
 C257 C 0.47916 0.24243 0.55535
 C258 C 0.48751 0.22928 0.57843
 C259 C 0.51510 0.22857 0.57769
 C260 C 0.52287 0.24122 0.55413
 N261 N 0.50084 0.24942 0.54052
 C262 C 0.54972 0.24651 0.54659
 H263 H 0.59922 0.26611 0.52357
 H264 H 0.59843 0.26625 0.47119
 H265 H 0.50074 0.26186 0.52372
 H266 H 0.52200 0.22834 0.40119
 H267 H 0.46963 0.22967 0.40337
 H268 H 0.40339 0.27782 0.47659
 H269 H 0.40477 0.27580 0.52940
 H270 H 0.52796 0.21971 0.59281
 H271 H 0.49969 0.26215 0.47635
 H272 H 0.47509 0.22104 0.59423
 C273 C 1.07643 -0.01363 0.27339
 C274 C 1.07664 0.01385 0.27364
 C275 C 1.05458 0.02215 0.25878
 N276 N 1.04062 0.00058 0.24991
 C277 C 1.05424 -0.02135 0.25842
 C278 C 1.04786 0.04910 0.25256
 C279 C 1.02094 0.05578 0.24599
 C280 C 1.01261 0.07806 0.23142
 C281 C 0.98500 0.07822 0.23204
 C282 C 0.97718 0.05591 0.24666
 N283 N 0.99916 0.04208 0.25469
 C284 C 0.95048 0.04952 0.25378
 C285 C 0.94312 0.02309 0.26069
 C286 C 0.91931 0.01549 0.27291
 C287 C 0.91911 -0.01207 0.27323
 C288 C 0.94281 -0.02029 0.26116
 N289 N 0.95753 0.00121 0.25374
 C290 C 0.94974 -0.04697 0.25476
 C291 C 0.97621 -0.05384 0.24726
 C292 C 0.98340 -0.07636 0.23263
 C293 C 1.01098 -0.07660 0.23145
 C294 C 1.01995 -0.05439 0.24577
 N295 N 0.99854 -0.04031 0.25481
 C296 C 1.04709 -0.04809 0.25182
 H297 H 1.09057 -0.02635 0.28386
 H298 H 1.09097 0.02616 0.28434
 H299 H 0.99921 -0.02398 0.26791
 H300 H 1.02497 0.09261 0.22110
 H301 H 0.97220 0.09299 0.22256
 H302 H 0.90368 0.02836 0.28076
 H303 H 0.90330 -0.02453 0.28137
 H304 H 1.02288 -0.09138 0.22091
 H305 H 0.99937 0.02583 0.26789
 H306 H 0.97018 -0.09098 0.22349
 C307 C 0.48836 0.58352 0.75354
 C308 C 0.51579 0.58347 0.75338
 C309 C 0.52381 0.55684 0.75239
 N310 N 0.50200 0.54066 0.75291
 C311 C 0.48024 0.55691 0.75382
 C312 C 0.55079 0.54811 0.75000
 C313 C 0.55853 0.52088 0.74712
 C314 C 0.58361 0.51283 0.73808
 C315 C 0.58356 0.48537 0.73762
 C316 C 0.55847 0.47711 0.74645
 N317 N 0.54325 0.49894 0.75227
 C318 C 0.55070 0.44980 0.74866
 C319 C 0.52372 0.44109 0.75129
 C320 C 0.51564 0.41447 0.75213
 C321 C 0.48822 0.41450 0.75282
 C322 C 0.48018 0.44113 0.75346
 N323 N 0.50197 0.45732 0.75233
 C324 C 0.45321 0.44989 0.75582
 C325 C 0.44543 0.47717 0.75822
 C326 C 0.42020 0.48535 0.76676
 C327 C 0.42019 0.51280 0.76668
 C328 C 0.44541 0.52094 0.75813
 N329 N 0.46075 0.49905 0.75294
 C330 C 0.45321 0.54820 0.75575
 H331 H 0.47613 0.60141 0.75361
 H332 H 0.52810 0.60131 0.75377
 H333 H 0.47964 0.49905 0.74413
 H334 H 0.60013 0.52542 0.73172
 H335 H 0.60005 0.47297 0.73085
 H336 H 0.52793 0.39661 0.75212
 H337 H 0.47590 0.39665 0.75297
 H338 H 0.40358 0.52532 0.77296
 H339 H 0.52450 0.49886 0.76138
 H340 H 0.40360 0.47286 0.77311
 C341 C 0.92331 0.98590 0.76946
 C342 C 0.92342 1.01345 0.76902
 C343 C 0.94706 1.02106 0.75648
 N344 N 0.96145 0.99920 0.74944
 C345 C 0.94687 0.97770 0.75714
 C346 C 0.95431 1.04746 0.74939
 C347 C 0.98092 1.05387 0.74202
 C348 C 0.98859 1.07617 0.72729
 C349 C 1.01620 1.07610 0.72657
 C350 C 1.02466 1.05389 0.74116
 N351 N 1.00297 1.04013 0.74997
 C352 C 1.05160 1.04735 0.74770
 C353 C 1.05845 1.02045 0.75391
 C354 C 1.08053 1.01222 0.76877
 C355 C 1.08040 0.98474 0.76855
 C356 C 1.05823 0.97696 0.75359
 N357 N 1.04455 0.99883 0.74506
 C358 C 1.05108 0.95020 0.74708
 C359 C 1.02394 0.94386 0.74114
 C360 C 1.01495 0.92159 0.72693
 C361 C 0.98737 0.92173 0.72835
 C362 C 0.98024 0.94426 0.74299
 N363 N 1.00257 0.95789 0.75032
 C364 C 0.95384 0.95104 0.75076
 H365 H 0.90763 0.97344 0.77785
 H366 H 0.90786 1.02632 0.77701
 H367 H 1.00329 0.97422 0.76341
 H368 H 0.97570 1.09089 0.71788
 H369 H 1.02848 1.09069 0.71620
 H370 H 1.09482 1.02457 0.77950
 H371 H 1.09457 0.97207 0.77904
 H372 H 0.97412 0.90703 0.71938
 H373 H 1.00331 1.02394 0.76325
 H374 H 1.02682 0.90681 0.71637
 C375 C 0.41877 0.48830 0.26896
 C376 C 0.41917 0.51581 0.26885
 C377 C 0.44278 0.52337 0.25621
 N378 N 0.45684 0.50142 0.24865
 C379 C 0.44214 0.47995 0.25636
 C380 C 0.45027 0.55006 0.25030
 C381 C 0.47675 0.55714 0.24270
 C382 C 0.48414 0.58165 0.23185
 C383 C 0.51162 0.58157 0.22981
 C384 C 0.52043 0.55672 0.23885
 N385 N 0.49897 0.54199 0.24675
 C386 C 0.54770 0.54890 0.24154
 C387 C 0.55588 0.52174 0.24379
 C388 C 0.58231 0.51324 0.24591
 C389 C 0.58188 0.48579 0.24561
 C390 C 0.55518 0.47816 0.24336
 N391 N 0.53939 0.50022 0.24177
 C392 C 0.54613 0.45130 0.24068
 C393 C 0.51862 0.44434 0.23824
 C394 C 0.50898 0.41977 0.22927
 C395 C 0.48153 0.42047 0.23168
 C396 C 0.47499 0.44517 0.24266
 N397 N 0.49770 0.45967 0.24643
 C398 C 0.44883 0.45302 0.25061
 H399 H 0.40311 0.47593 0.27752
 H400 H 0.40388 0.52871 0.27731
 H401 H 0.49907 0.47756 0.25707
 H402 H 0.47121 0.59812 0.22613
 H403 H 0.52337 0.59821 0.22246
 H404 H 0.60030 0.52536 0.24656
 H405 H 0.59949 0.47312 0.24600
 H406 H 0.46805 0.40437 0.22615
 H407 H 0.49970 0.52404 0.25734
 H408 H 0.52018 0.40281 0.22178
 O409 O 0.24973 0.18093 0.21408
 O410 O 0.27858 0.17379 0.25172
 O411 O 0.17883 0.21291 0.25188
 O412 O 0.16799 0.24792 0.27722
 O413 O 0.21174 0.25022 0.18053
 O414 O 0.24865 0.27997 0.17316
 O415 O 0.24875 0.28808 0.32011
 O416 O 0.21692 0.25315 0.32728
 O417 O 0.31696 0.25330 0.28862
 O418 O 0.32631 0.22260 0.25077
 O419 O 0.28397 0.32074 0.25138
 O420 O 0.24603 0.32855 0.22118
 O421 O 0.24733 0.32018 0.28766
 O422 O 0.21678 0.32741 0.24870
 O423 O 0.31670 0.28895 0.25281
 O424 O 0.32562 0.25057 0.22167
 O425 O 0.28448 0.25201 0.32070
 O426 O 0.24758 0.22135 0.32865
 O427 O 0.25012 0.21298 0.18151
 O428 O 0.27908 0.25090 0.17407
 O429 O 0.17905 0.24951 0.21247
 O430 O 0.17223 0.28158 0.24958
 O431 O 0.21141 0.18087 0.25130
 O432 O 0.24868 0.17396 0.28140
 Zr433 Zr 0.24761 0.20275 0.25023
 O434 O 0.27232 0.22617 0.27528
 Zr435 Zr 0.19995 0.24934 0.24927
 O436 O 0.22237 0.27461 0.27479
 Zr437 Zr 0.24774 0.24949 0.20267
 O438 O 0.27208 0.27519 0.22582
 Zr439 Zr 0.24838 0.25170 0.29879
 O440 O 0.22334 0.22608 0.27586
 Zr441 Zr 0.29587 0.25224 0.25201
 O442 O 0.27367 0.22629 0.22666
 Zr443 Zr 0.24795 0.29863 0.25130
 O444 O 0.22337 0.27531 0.22556
 O445 O 0.22275 0.22447 0.22477
 O446 O 0.27325 0.27719 0.27682
 C447 C 0.25073 0.18843 0.18940
 C448 C 0.18672 0.18836 0.25223
 C449 C 0.18701 0.25019 0.18792
 C450 C 0.24803 0.31263 0.31231
 C451 C 0.30912 0.25294 0.31319
 C452 C 0.30869 0.31344 0.25231
 H453 H 0.28355 0.21419 0.28640
 H454 H 0.28310 0.28639 0.21371
 H455 H 0.21156 0.21267 0.21333
 H456 H 0.21010 0.28545 0.28600
 H457 H 0.20331 0.23987 0.32147
 H458 H 0.17362 0.25826 0.29321
 H459 H 0.32242 0.26563 0.20913
 H460 H 0.29335 0.23878 0.18071
 H461 H 0.26133 0.20778 0.32409
 H462 H 0.23562 0.17997 0.29513
 H463 H 0.25974 0.32424 0.20749
 H464 H 0.23613 0.29413 0.17931
 H465 H 0.29318 0.18055 0.24006
 H466 H 0.32247 0.20934 0.26504
 H467 H 0.17741 0.29387 0.23484
 H468 H 0.20398 0.32389 0.26347
 O469 O 0.74738 0.82021 0.21049
 O470 O 0.71835 0.82834 0.24752
 O471 O 0.81768 0.78848 0.25086
 O472 O 0.82787 0.75364 0.27658
 O473 O 0.78611 0.74996 0.17911
 O474 O 0.74921 0.72039 0.17150
 O475 O 0.74688 0.71531 0.31875
 O476 O 0.77788 0.75070 0.32567
 O477 O 0.67863 0.74828 0.28490
 O478 O 0.67037 0.78012 0.24694
 O479 O 0.71152 0.68161 0.25060
 O480 O 0.74987 0.67275 0.22062
 O481 O 0.74687 0.68260 0.28687
 O482 O 0.77868 0.67415 0.24894
 O483 O 0.67915 0.71356 0.24684
 O484 O 0.67102 0.75246 0.21796
 O485 O 0.71040 0.75203 0.31755
 O486 O 0.74711 0.78200 0.32595
 O487 O 0.74844 0.78761 0.17846
 O488 O 0.71901 0.74986 0.17104
 O489 O 0.81811 0.75089 0.21175
 O490 O 0.82378 0.71964 0.24965
 O491 O 0.78539 0.82072 0.24814
 O492 O 0.74774 0.82848 0.27763
 Zr493 Zr 0.74907 0.79909 0.24702
 O494 O 0.72367 0.77634 0.27195
 Zr495 Zr 0.79639 0.75212 0.24806
 O496 O 0.77319 0.72755 0.27356
 Zr497 Zr 0.74967 0.75148 0.20039
 O498 O 0.72459 0.72645 0.22344
 Zr499 Zr 0.74696 0.75119 0.29653
 O500 O 0.77263 0.77613 0.27364
 Zr501 Zr 0.70036 0.75003 0.24862
 O502 O 0.72334 0.77531 0.22329
 Zr503 Zr 0.74778 0.70332 0.25008
 O504 O 0.77319 0.72587 0.22441
 O505 O 0.77438 0.77671 0.22257
 O506 O 0.72216 0.72548 0.27460
 C507 C 0.74730 0.81229 0.18592
 C508 C 0.80996 0.81309 0.25024
 C509 C 0.81067 0.74984 0.18704
 C510 C 0.74674 0.69060 0.31140
 C511 C 0.68597 0.75011 0.30958
 C512 C 0.68693 0.68907 0.24848
 H513 H 0.71230 0.78860 0.28260
 H514 H 0.71381 0.71518 0.21116
 H515 H 0.78592 0.78819 0.21118
 H516 H 0.78515 0.71684 0.28522
 H517 H 0.79163 0.76376 0.31970
 H518 H 0.82167 0.74399 0.29278
 H519 H 0.67559 0.73891 0.20418
 H520 H 0.70521 0.76308 0.17649
 H521 H 0.73436 0.79609 0.32024
 H522 H 0.76080 0.82284 0.29153
 H523 H 0.73601 0.67657 0.20691
 H524 H 0.76103 0.70604 0.17852
 H525 H 0.70349 0.82104 0.23653
 H526 H 0.67308 0.79241 0.26230
 H527 H 0.81860 0.70695 0.23525
 H528 H 0.79097 0.67767 0.26415
 O529 O 0.75198 0.17990 0.78469
 O530 O 0.72320 0.17174 0.74731
 O531 O 0.82250 0.21217 0.74692
 O532 O 0.83233 0.24634 0.71970
 O533 O 0.78952 0.25059 0.81686
 O534 O 0.75198 0.27944 0.82422
 O535 O 0.75216 0.28532 0.67691
 O536 O 0.78337 0.25023 0.67013
 O537 O 0.68354 0.24980 0.70956
 O538 O 0.67487 0.22002 0.74815
 O539 O 0.71600 0.31863 0.74644
 O540 O 0.75460 0.32731 0.77531
 O541 O 0.75099 0.31784 0.70897
 O542 O 0.78297 0.32626 0.74689
 O543 O 0.68363 0.28652 0.74438
 O544 O 0.67527 0.24877 0.77648
 O545 O 0.71578 0.24885 0.67723
 O546 O 0.75294 0.21848 0.66948
 O547 O 0.75188 0.21242 0.81682
 O548 O 0.72214 0.24983 0.82381
 O549 O 0.82204 0.24993 0.78476
 O550 O 0.82824 0.28086 0.74700
 O551 O 0.79022 0.17980 0.74685
 O552 O 0.75269 0.17184 0.71753
 Zr553 Zr 0.75376 0.20117 0.74820
 O554 O 0.72863 0.22389 0.72296
 Zr555 Zr 0.80085 0.24835 0.74818
 O556 O 0.77794 0.27291 0.72241
 Zr557 Zr 0.75335 0.24862 0.79507
 O558 O 0.72855 0.27365 0.77170
 Zr559 Zr 0.75211 0.24930 0.69887
 O560 O 0.77759 0.22438 0.72208
 Zr561 Zr 0.70488 0.25004 0.74599
 O562 O 0.72755 0.22475 0.77158
 Zr563 Zr 0.75219 0.29695 0.74568
 O564 O 0.77723 0.27439 0.77161
 O565 O 0.77851 0.22358 0.77321
 O566 O 0.72701 0.27483 0.72058
 C567 C 0.75124 0.18775 0.80927
 C568 C 0.81484 0.18755 0.74637
 C569 C 0.81419 0.25104 0.80932
 C570 C 0.75141 0.30998 0.68440
 C571 C 0.69117 0.24916 0.68495
 C572 C 0.69139 0.31108 0.74522
 H573 H 0.71747 0.21157 0.71215
 H574 H 0.71752 0.28491 0.78375
 H575 H 0.78994 0.21219 0.78482
 H576 H 0.78999 0.28375 0.71096
 H577 H 0.79717 0.23729 0.67622
 H578 H 0.82672 0.25694 0.70387
 H579 H 0.67840 0.26409 0.78872
 H580 H 0.70799 0.23748 0.81731
 H581 H 0.73931 0.20489 0.67430
 H582 H 0.76541 0.17785 0.70348
 H583 H 0.74121 0.32309 0.78936
 H584 H 0.76431 0.29370 0.81794
 H585 H 0.70858 0.17845 0.75899
 H586 H 0.67883 0.20646 0.73420
 H587 H 0.82254 0.29378 0.76098
 H588 H 0.79513 0.32304 0.73152
 O589 O 0.25146 0.81910 0.78934
 O590 O 0.28122 0.82646 0.75244
 O591 O 0.18189 0.78622 0.75063
 O592 O 0.17205 0.75131 0.72464
 O593 O 0.21391 0.74930 0.82230
 O594 O 0.25089 0.72015 0.83049
 O595 O 0.25334 0.71169 0.68347
 O596 O 0.22220 0.74661 0.67547
 O597 O 0.32138 0.74788 0.71651
 O598 O 0.33012 0.77759 0.75388
 O599 O 0.28818 0.67963 0.75171
 O600 O 0.25023 0.67142 0.78246
 O601 O 0.25165 0.67965 0.71593
 O602 O 0.22115 0.67207 0.75461
 O603 O 0.32060 0.71169 0.75403
 O604 O 0.32800 0.75139 0.78402
 O605 O 0.28946 0.74679 0.68384
 O606 O 0.25271 0.77856 0.67513
 O607 O 0.25168 0.78711 0.82197
 O608 O 0.28104 0.74943 0.83010
 O609 O 0.18180 0.74919 0.78976
 O610 O 0.17591 0.71757 0.75229
 O611 O 0.21421 0.81854 0.75082
 O612 O 0.25220 0.82580 0.72198
 Zr613 Zr 0.25056 0.79712 0.75321
 O614 O 0.27604 0.77390 0.72879
 Zr615 Zr 0.20337 0.75001 0.75334
 O616 O 0.22654 0.72496 0.72830
 Zr617 Zr 0.25026 0.75051 0.80086
 O618 O 0.27528 0.72501 0.77827
 Zr619 Zr 0.25287 0.74803 0.70483
 O620 O 0.22708 0.77341 0.72718
 Zr621 Zr 0.29943 0.74822 0.75267
 O622 O 0.27642 0.77401 0.77742
 Zr623 Zr 0.25194 0.70127 0.75226
 O624 O 0.22664 0.72435 0.77751
 O625 O 0.22541 0.77520 0.77822
 O626 O 0.27766 0.72292 0.72736
 C627 C 0.25211 0.81165 0.81405
 C628 C 0.18960 0.81082 0.74983
 C629 C 0.18934 0.74871 0.81445
 C630 C 0.25253 0.68715 0.69127
 C631 C 0.31398 0.74713 0.69179
 C632 C 0.31279 0.68716 0.75308
 H633 H 0.28740 0.78594 0.71788
 H634 H 0.28614 0.71398 0.79068
 H635 H 0.21381 0.78685 0.78940
 H636 H 0.21454 0.71401 0.71689
 H637 H 0.20832 0.75971 0.68104
 H638 H 0.17818 0.74115 0.70872
 H639 H 0.32477 0.73649 0.79673
 H640 H 0.29491 0.76240 0.82426
 H641 H 0.26753 0.79119 0.67899
 H642 H 0.24010 0.81924 0.70763
 H643 H 0.26441 0.67539 0.79580
 H644 H 0.23931 0.70548 0.82372
 H645 H 0.29541 0.82013 0.76484
 H646 H 0.32516 0.79200 0.74117
 H647 H 0.18096 0.70519 0.76700
 H648 H 0.20833 0.67555 0.73984
 O649 O 0.24911 0.31851 0.71375
 O650 O 0.22020 0.32623 0.75133
 O651 O 0.31977 0.28726 0.75551
 O652 O 0.33038 0.25149 0.77980
 O653 O 0.28908 0.24811 0.68243
 O654 O 0.25164 0.21918 0.67426
 O655 O 0.25044 0.21243 0.82104
 O656 O 0.28086 0.24959 0.82800
 O657 O 0.18103 0.24777 0.78770
 O658 O 0.17312 0.27833 0.74939
 O659 O 0.21446 0.17970 0.75166
 O660 O 0.25367 0.17183 0.72202
 O661 O 0.24972 0.18013 0.78877
 O662 O 0.28129 0.17204 0.75134
 O663 O 0.18187 0.21166 0.75144
 O664 O 0.17369 0.24981 0.72081
 O665 O 0.21287 0.24735 0.82045
 O666 O 0.24454 0.27796 0.82975
 O667 O 0.25153 0.28620 0.68152
 O668 O 0.22197 0.24894 0.67380
 O669 O 0.32094 0.25057 0.71513
 O670 O 0.32670 0.21869 0.75282
 O671 O 0.28753 0.31925 0.75067
 O672 O 0.24918 0.32729 0.78045
 Zr673 Zr 0.25133 0.29741 0.75030
 O674 O 0.22629 0.27422 0.77523
 Zr675 Zr 0.29891 0.25080 0.75130
 O676 O 0.27584 0.22556 0.77622
 Zr677 Zr 0.25244 0.25007 0.70336
 O678 O 0.22729 0.22486 0.72612
 Zr679 Zr 0.24939 0.24864 0.79943
 O680 O 0.27484 0.27443 0.77704
 Zr681 Zr 0.20300 0.24818 0.75157
 O682 O 0.22588 0.27363 0.72634
 Zr683 Zr 0.25066 0.20148 0.75233
 O684 O 0.27613 0.22452 0.72722
 O685 O 0.27688 0.27536 0.72580
 O686 O 0.22485 0.22317 0.77708
 C687 C 0.24967 0.31077 0.68913
 C688 C 0.31200 0.31179 0.75393
 C689 C 0.31361 0.24877 0.69043
 C690 C 0.25007 0.18781 0.81339
 C691 C 0.18836 0.24737 0.81244
 C692 C 0.18977 0.18714 0.75142
 H693 H 0.21516 0.28627 0.78642
 H694 H 0.21651 0.21366 0.71379
 H695 H 0.28840 0.28694 0.71448
 H696 H 0.28793 0.21481 0.78773
 H697 H 0.29228 0.26523 0.82354
 H698 H 0.32301 0.24423 0.79674
 H699 H 0.17796 0.23563 0.70757
 H700 H 0.20771 0.26137 0.67990
 H701 H 0.25294 0.29452 0.82288
 H702 H 0.26479 0.32475 0.79249
 H703 H 0.23923 0.17516 0.70878
 H704 H 0.26386 0.20495 0.68081
 H705 H 0.20596 0.31962 0.73912
 H706 H 0.17652 0.29132 0.76403
 H707 H 0.32179 0.20611 0.73822
 H708 H 0.29423 0.17623 0.76582
 O709 O 0.75327 0.67889 0.71304
 O710 O 0.78271 0.67182 0.75058
 O711 O 0.68322 0.71195 0.74852
 O712 O 0.67333 0.74633 0.77596
 O713 O 0.71686 0.74760 0.67878
 O714 O 0.75379 0.77780 0.67152
 O715 O 0.75344 0.78700 0.81829
 O716 O 0.72162 0.75234 0.82567
 O717 O 0.82181 0.75005 0.78734
 O718 O 0.83096 0.71995 0.74955
 O719 O 0.78975 0.81849 0.74932
 O720 O 0.75198 0.82650 0.71893
 O721 O 0.75307 0.81880 0.78553
 O722 O 0.72279 0.82617 0.74651
 O723 O 0.82209 0.78634 0.75135
 O724 O 0.83060 0.74764 0.72039
 O725 O 0.78917 0.75116 0.81925
 O726 O 0.75202 0.72026 0.82729
 O727 O 0.75548 0.71077 0.68035
 O728 O 0.78412 0.74862 0.67249
 O729 O 0.68419 0.74948 0.71070
 O730 O 0.67718 0.78045 0.74793
 O731 O 0.71554 0.67972 0.75115
 O732 O 0.75304 0.67232 0.78029
 Zr733 Zr 0.75197 0.70104 0.74907
 O734 O 0.77681 0.72436 0.77407
 Zr735 Zr 0.70486 0.74817 0.74754
 O736 O 0.72748 0.77342 0.77292
 Zr737 Zr 0.75282 0.74742 0.70113
 O738 O 0.77741 0.77294 0.72419
 Zr739 Zr 0.75312 0.75044 0.79725
 O740 O 0.72789 0.72488 0.77442
 Zr741 Zr 0.80081 0.74988 0.75065
 O742 O 0.77838 0.72406 0.72538
 Zr743 Zr 0.75347 0.79690 0.74937
 O744 O 0.72867 0.77370 0.72374
 O745 O 0.72749 0.72287 0.72334
 O746 O 0.77845 0.77538 0.77517
 C747 C 0.75511 0.68626 0.68835
 C748 C 0.69092 0.68740 0.75033
 C749 C 0.69216 0.74894 0.68616
 C750 C 0.75325 0.81149 0.81026
 C751 C 0.81387 0.75073 0.81187
 C752 C 0.81436 0.81090 0.75044
 H753 H 0.78784 0.71232 0.78531
 H754 H 0.78862 0.78389 0.71204
 H755 H 0.71623 0.71117 0.71188
 H756 H 0.71527 0.78451 0.78397
 H757 H 0.70794 0.73907 0.81998
 H758 H 0.67858 0.75761 0.79144
 H759 H 0.82787 0.76286 0.70794
 H760 H 0.79851 0.73675 0.67936
 H761 H 0.76639 0.70711 0.82351
 H762 H 0.74079 0.67894 0.79448
 H763 H 0.76553 0.82176 0.70521
 H764 H 0.74093 0.79179 0.67736
 H765 H 0.79695 0.67794 0.73814
 H766 H 0.82627 0.70616 0.76303
 H767 H 0.68299 0.79326 0.73389
 H768 H 0.70993 0.82300 0.76130
 O769 O 0.24764 0.68195 0.28975
 O770 O 0.21953 0.67387 0.25185
 O771 O 0.31843 0.71521 0.25352
 O772 O 0.32805 0.74956 0.22619
 O773 O 0.28430 0.75220 0.32319
 O774 O 0.24670 0.78118 0.33019
 O775 O 0.24865 0.78851 0.18314
 O776 O 0.27956 0.75348 0.17619
 O777 O 0.17942 0.75148 0.21471
 O778 O 0.17083 0.72137 0.25307
 O779 O 0.21061 0.82055 0.25136
 O780 O 0.24843 0.82934 0.28209
 O781 O 0.24679 0.82076 0.21542
 O782 O 0.27740 0.82921 0.25408
 O783 O 0.17857 0.78805 0.25100
 O784 O 0.17038 0.74967 0.28145
 O785 O 0.21203 0.75316 0.18278
 O786 O 0.24913 0.72166 0.17514
 O787 O 0.24743 0.71412 0.32224
 O788 O 0.21693 0.75111 0.32929
 O789 O 0.31704 0.75355 0.29134
 O790 O 0.32371 0.78384 0.25357
 O791 O 0.28639 0.68263 0.25215
 O792 O 0.24929 0.67465 0.22249
 Zr793 Zr 0.24974 0.70363 0.25350
 O794 O 0.22464 0.72636 0.22825
 Zr795 Zr 0.29640 0.75126 0.25448
 O796 O 0.27350 0.77590 0.22877
 Zr797 Zr 0.24846 0.75055 0.30087
 O798 O 0.22358 0.77553 0.27752
 Zr799 Zr 0.24812 0.75232 0.20473
 O800 O 0.27361 0.72738 0.22791
 Zr801 Zr 0.20038 0.75188 0.25141
 O802 O 0.22310 0.72662 0.27695
 Zr803 Zr 0.24716 0.79941 0.25192
 O804 O 0.27223 0.77684 0.27787
 O805 O 0.27407 0.72600 0.27898
 O806 O 0.22244 0.77725 0.22646
 C807 C 0.24690 0.68954 0.31441
 C808 C 0.31096 0.69053 0.25233
 C809 C 0.30898 0.75371 0.31586
 C810 C 0.24775 0.81310 0.19080
 C811 C 0.18734 0.75234 0.19018
 C812 C 0.18605 0.81271 0.25102
 H813 H 0.21371 0.71408 0.21715
 H814 H 0.21228 0.78653 0.28955
 H815 H 0.28552 0.71463 0.29059
 H816 H 0.28562 0.78696 0.21762
 H817 H 0.29331 0.74046 0.18224
 H818 H 0.32243 0.76011 0.21034
 H819 H 0.17391 0.76407 0.29467
 H820 H 0.20328 0.73816 0.32288
 H821 H 0.23444 0.70884 0.17882
 H822 H 0.26150 0.68135 0.20831
 H823 H 0.23427 0.82517 0.29537
 H824 H 0.25879 0.79566 0.32393
 H825 H 0.20476 0.68017 0.26357
 H826 H 0.17501 0.70807 0.23893
 H827 H 0.31755 0.79696 0.26717
 H828 H 0.29017 0.82604 0.23921
 O829 O 0.74706 0.32016 0.28377
 O830 O 0.77667 0.32795 0.24655
 O831 O 0.67805 0.28619 0.24321
 O832 O 0.66863 0.25017 0.21878
 O833 O 0.71009 0.25138 0.31645
 O834 O 0.74681 0.22107 0.32464
 O835 O 0.75026 0.21225 0.17819
 O836 O 0.71888 0.24815 0.17034
 O837 O 0.81822 0.25124 0.21137
 O838 O 0.82590 0.28051 0.24910
 O839 O 0.78620 0.18144 0.24720
 O840 O 0.74807 0.17273 0.27751
 O841 O 0.74998 0.18040 0.21088
 O842 O 0.71929 0.17254 0.24932
 O843 O 0.81806 0.21415 0.24792
 O844 O 0.82461 0.25349 0.27877
 O845 O 0.78667 0.24671 0.17864
 O846 O 0.75462 0.27810 0.16903
 O847 O 0.74835 0.28822 0.31640
 O848 O 0.77689 0.25056 0.32501
 O849 O 0.67830 0.24880 0.28365
 O850 O 0.67313 0.21752 0.24549
 O851 O 0.70959 0.31904 0.24690
 O852 O 0.74789 0.32743 0.21676
 Zr853 Zr 0.74637 0.29825 0.24761
 O854 O 0.77222 0.27532 0.22324
 Zr855 Zr 0.70008 0.25034 0.24730
 O856 O 0.72387 0.22541 0.22272
 Zr857 Zr 0.74660 0.25171 0.29528
 O858 O 0.77231 0.22668 0.27297
 Zr859 Zr 0.74996 0.24873 0.19933
 O860 O 0.72360 0.27414 0.22119
 Zr861 Zr 0.79610 0.25028 0.24736
 O862 O 0.77250 0.27564 0.27200
 Zr863 Zr 0.74951 0.20233 0.24704
 O864 O 0.72353 0.22514 0.27184
 O865 O 0.72146 0.27589 0.27241
 O866 O 0.77499 0.22428 0.22219
 C867 C 0.74825 0.31274 0.30846
 C868 C 0.68525 0.31094 0.24427
 C869 C 0.68565 0.24961 0.30841
 C870 C 0.75028 0.18775 0.18616
 C871 C 0.81106 0.24883 0.18672
 C872 C 0.81071 0.18944 0.24770
 H873 H 0.78309 0.28750 0.21194
 H874 H 0.78336 0.21592 0.28543
 H875 H 0.70970 0.28739 0.28356
 H876 H 0.71206 0.21423 0.21132
 H877 H 0.70697 0.26356 0.17433
 H878 H 0.67638 0.24353 0.20175
 H879 H 0.82201 0.23808 0.29102
 H880 H 0.79132 0.26276 0.31886
 H881 H 0.74428 0.29392 0.17494
 H882 H 0.73213 0.32449 0.20500
 H883 H 0.76164 0.17744 0.29122
 H884 H 0.73436 0.20698 0.31820
 H885 H 0.79063 0.32230 0.25953
 H886 H 0.82071 0.29474 0.23627
 H887 H 0.67810 0.20515 0.26022
 H888 H 0.70655 0.17566 0.23440
 C889 C 0.25255 0.10789 0.10955
 N890 N 0.24937 0.08169 0.11617
 N891 N 0.24897 0.06284 0.09719
 C892 C 0.25175 0.06930 0.07079
 N893 N 0.25502 0.09563 0.06438
 N894 N 0.25537 0.11452 0.08330
 C895 C 0.25262 0.12877 0.13036
 N896 N 0.25414 0.15509 0.12351
 N897 N 0.25374 0.17409 0.14233
 C898 C 0.25188 0.16746 0.16871
 N899 N 0.25047 0.14112 0.17558
 N900 N 0.25081 0.12212 0.15674
 C901 C 0.75590 0.60632 0.60795
 N902 N 0.74579 0.58156 0.61302
 N903 N 0.74515 0.56296 0.59382
 C904 C 0.75477 0.56832 0.56886
 N905 N 0.76492 0.59312 0.56384
 N906 N 0.76539 0.61180 0.58299
 C907 C 0.75626 0.62695 0.62899
 N908 N 0.76202 0.65284 0.62282
 N909 N 0.76182 0.67168 0.64180
 C910 C 0.75607 0.66529 0.66767
 N911 N 0.75049 0.63936 0.67388
 N912 N 0.75051 0.62054 0.65486
 C913 C 0.74626 0.89207 0.10530
 N914 N 0.74941 0.88532 0.07911
 N915 N 0.74974 0.90417 0.06016
 C916 C 0.74688 0.93058 0.06648
 N917 N 0.74371 0.93715 0.09282
 N918 N 0.74343 0.91834 0.11182
 C919 C 0.74615 0.87130 0.12623
 N920 N 0.74440 0.87815 0.15256
 N921 N 0.74462 0.85933 0.17156
 C922 C 0.74653 0.83297 0.16492
 N923 N 0.74820 0.82612 0.13858
 N924 N 0.74803 0.84494 0.11958
 C925 C 0.24739 0.39103 0.60908
 N926 N 0.25704 0.38590 0.58411
 N927 N 0.25687 0.40489 0.56530
 C928 C 0.24686 0.42969 0.57065
 N929 N 0.23719 0.43476 0.59565
 N930 N 0.23753 0.41582 0.61453
 C931 C 0.24773 0.37013 0.62984
 N932 N 0.24223 0.37629 0.65582
 N933 N 0.24281 0.35736 0.67470
 C934 C 0.24871 0.33155 0.66826
 N935 N 0.25407 0.32537 0.64225
 N936 N 0.25367 0.34433 0.62340
 C937 C 0.74893 0.10798 0.88991
 N938 N 0.74612 0.08171 0.88340
 N939 N 0.74597 0.06294 0.90244
 C940 C 0.74868 0.06955 0.92883
 N941 N 0.75152 0.09596 0.93514
 N942 N 0.75162 0.11477 0.91615
 C943 C 0.74922 0.12872 0.86895
 N944 N 0.75084 0.15509 0.87561
 N945 N 0.75132 0.17390 0.85661
 C946 C 0.75024 0.16703 0.83024
 N947 N 0.74860 0.14065 0.82358
 N948 N 0.74807 0.12184 0.84259
 C949 C 0.24558 0.60904 0.39424
 N950 N 0.23577 0.58420 0.38889
 N951 N 0.23571 0.56528 0.40778
 C952 C 0.24566 0.57039 0.43269
 N953 N 0.25563 0.59523 0.43791
 N954 N 0.25548 0.61422 0.41910
 C955 C 0.24559 0.62997 0.37350
 N956 N 0.25081 0.65589 0.38007
 N957 N 0.25097 0.67490 0.36127
 C958 C 0.24610 0.66865 0.33517
 N959 N 0.24093 0.64272 0.32859
 N960 N 0.24057 0.62373 0.34743
 C961 C 0.25256 0.89225 0.89391
 N962 N 0.25519 0.88561 0.92018
 N963 N 0.25479 0.90450 0.93910
 C964 C 0.25166 0.93085 0.93267
 N965 N 0.24905 0.93732 0.90624
 N966 N 0.24950 0.91846 0.88727
 C967 C 0.25280 0.87137 0.87309
 N968 N 0.25126 0.87799 0.84668
 N969 N 0.25123 0.85899 0.82785
 C970 C 0.25270 0.83266 0.83474
 N971 N 0.25426 0.82605 0.86115
 N972 N 0.25435 0.84506 0.87997
 C973 C 0.75036 0.39324 0.38831
 N974 N 0.76052 0.38796 0.41304
 N975 N 0.76088 0.40688 0.43194
 C976 C 0.75092 0.43175 0.42691
 N977 N 0.74062 0.43694 0.40218
 N978 N 0.74045 0.41809 0.38320
 C979 C 0.74998 0.37239 0.36750
 N980 N 0.74414 0.37866 0.34161
 N981 N 0.74378 0.35970 0.32275
 C982 C 0.74905 0.33374 0.32913
 N983 N 0.75481 0.32746 0.35503
 N984 N 0.75538 0.34645 0.37385
 C985 C 0.10741 0.24860 0.10706
 N986 N 0.11412 0.25101 0.08078
 N987 N 0.09521 0.25092 0.06185
 C988 C 0.06877 0.24839 0.06832
 N989 N 0.06228 0.24575 0.09472
 N990 N 0.08114 0.24589 0.11368
 C991 C 0.12814 0.24910 0.12802
 N992 N 0.12119 0.24791 0.15436
 N993 N 0.13995 0.24842 0.17343
 C994 C 0.16636 0.25014 0.16687
 N995 N 0.17331 0.25133 0.14052
 N996 N 0.15454 0.25087 0.12145
 C997 C 0.61112 0.74718 0.60678
 N998 N 0.61554 0.73576 0.58243
 N999 N 0.59615 0.73512 0.56398
 C1000 C 0.57168 0.74607 0.56911
 N1001 N 0.56734 0.75748 0.59350
 N1002 N 0.58664 0.75792 0.61202
 C1003 C 0.63236 0.74790 0.62722
 N1004 N 0.62644 0.75467 0.65294
 N1005 N 0.64556 0.75512 0.67164
 C1006 C 0.67136 0.74908 0.66526
 N1007 N 0.67734 0.74247 0.63948
 N1008 N 0.65816 0.74181 0.62081
 C1009 C 0.10864 0.74783 0.89418
 N1010 N 0.11514 0.75012 0.92053
 N1011 N 0.09604 0.75046 0.93926
 C1012 C 0.06964 0.74849 0.93252
 N1013 N 0.06334 0.74612 0.90603
 N1014 N 0.08238 0.74583 0.88726
 C1015 C 0.12963 0.74773 0.87348
 N1016 N 0.12301 0.74666 0.84704
 N1017 N 0.14204 0.74686 0.82824
 C1018 C 0.16838 0.74808 0.83518
 N1019 N 0.17499 0.74909 0.86162
 N1020 N 0.15596 0.74893 0.88043
 C1021 C 0.60522 0.24947 0.38817
 N1022 N 0.58917 0.22778 0.39183
 N1023 N 0.57082 0.22761 0.41130
 C1024 C 0.56751 0.24928 0.42752
 N1025 N 0.58341 0.27107 0.42360
 N1026 N 0.60208 0.27107 0.40446
 C1027 C 0.62599 0.24944 0.36733
 N1028 N 0.64914 0.26332 0.37104
 N1029 N 0.66823 0.26311 0.35232
 C1030 C 0.66467 0.24941 0.32903
 N1031 N 0.64140 0.23572 0.32519
 N1032 N 0.62249 0.23554 0.34414
 C1033 C 0.89161 0.74985 0.10755
 N1034 N 0.88520 0.75221 0.08118
 N1035 N 0.90436 0.75280 0.06253
 C1036 C 0.93076 0.75104 0.06936
 N1037 N 0.93697 0.74863 0.09586
 N1038 N 0.91786 0.74809 0.11455
 C1039 C 0.87056 0.74942 0.12819
 N1040 N 0.87711 0.74851 0.15464
 N1041 N 0.85803 0.74846 0.17340
 C1042 C 0.83169 0.74925 0.16638
 N1043 N 0.82515 0.75007 0.13991
 N1044 N 0.84423 0.75017 0.12116
 C1045 C 0.39391 0.24758 0.61023
 N1046 N 0.38828 0.23804 0.58533
 N1047 N 0.40686 0.23840 0.56610
 C1048 C 0.43173 0.24852 0.57093
 N1049 N 0.43733 0.25804 0.59589
 N1050 N 0.41881 0.25751 0.61520
 C1051 C 0.37321 0.24751 0.63125
 N1052 N 0.37953 0.25338 0.65713
 N1053 N 0.36061 0.25355 0.67606
 C1054 C 0.33465 0.24802 0.66977
 N1055 N 0.32835 0.24219 0.64388
 N1056 N 0.34729 0.24184 0.62500
 C1057 C 0.89365 0.25381 0.89029
 N1058 N 0.88660 0.25723 0.91636
 N1059 N 0.90511 0.25666 0.93564
 C1060 C 0.93147 0.25251 0.92982
 N1061 N 0.93840 0.24935 0.90356
 N1062 N 0.91992 0.24998 0.88421
 C1063 C 0.87309 0.25368 0.86915
 N1064 N 0.88010 0.25129 0.84291
 N1065 N 0.86134 0.25064 0.82383
 C1066 C 0.83490 0.25228 0.83029
 N1067 N 0.82791 0.25472 0.85653
 N1068 N 0.84666 0.25543 0.87561
 C1069 C 0.38889 0.75680 0.39632
 N1070 N 0.41310 0.76827 0.39138
 N1071 N 0.43251 0.76752 0.40977
 C1072 C 0.42859 0.75501 0.43368
 N1073 N 0.40426 0.74373 0.43868
 N1074 N 0.38474 0.74468 0.42038
 C1075 C 0.36789 0.75674 0.37563
 N1076 N 0.34228 0.74971 0.38179
 N1077 N 0.32341 0.74905 0.36281
 C1078 C 0.32954 0.75514 0.33695
 N1079 N 0.35516 0.76214 0.33080
 N1080 N 0.37396 0.76303 0.34982
 C1081 C 0.10670 0.10796 0.25334
 N1082 N 0.08040 0.11459 0.25579
 N1083 N 0.06151 0.09566 0.25556
 C1084 C 0.06802 0.06929 0.25279
 N1085 N 0.09446 0.06285 0.25029
 N1086 N 0.11339 0.08173 0.25058
 C1087 C 0.12753 0.12882 0.25346
 N1088 N 0.15392 0.12212 0.25191
 N1089 N 0.17280 0.14106 0.25174
 C1090 C 0.16599 0.16741 0.25310
 N1091 N 0.13960 0.17410 0.25470
 N1092 N 0.12073 0.15516 0.25491
 C1093 C 0.61151 0.60663 0.74907
 N1094 N 0.59027 0.60851 0.73210
 N1095 N 0.57122 0.58976 0.73204
 C1096 C 0.57244 0.56868 0.74928
 N1097 N 0.59388 0.56667 0.76603
 N1098 N 0.61313 0.58524 0.76585
 C1099 C 0.63215 0.62760 0.74953
 N1100 N 0.65687 0.62256 0.75985
 N1101 N 0.67562 0.64164 0.76017
 C1102 C 0.67015 0.66655 0.75058
 N1103 N 0.64535 0.67164 0.74046
 N1104 N 0.62673 0.65246 0.73983
 C1105 C 0.89507 0.10747 0.74684
 N1106 N 0.88934 0.08204 0.73896
 N1107 N 0.90815 0.06305 0.73967
 C1108 C 0.93334 0.06869 0.74850
 N1109 N 0.93902 0.09417 0.75638
 N1110 N 0.92027 0.11321 0.75550
 C1111 C 0.87429 0.12833 0.74625
 N1112 N 0.88078 0.15445 0.75046
 N1113 N 0.86186 0.17335 0.75020
 C1114 C 0.83575 0.16680 0.74589
 N1115 N 0.82925 0.14067 0.74170
 N1116 N 0.84820 0.12179 0.74178
 C1117 C 0.39097 0.61012 0.25164
 N1118 N 0.38577 0.58572 0.24071
 N1119 N 0.40457 0.56671 0.24035
 C1120 C 0.42922 0.57127 0.25112
 N1121 N 0.43431 0.59565 0.26225
 N1122 N 0.41558 0.61475 0.26241
 C1123 C 0.37027 0.63112 0.25172
 N1124 N 0.37662 0.65691 0.25782
 N1125 N 0.35779 0.67592 0.25776
 C1126 C 0.33190 0.66979 0.25178
 N1127 N 0.32556 0.64398 0.24576
 N1128 N 0.34441 0.62502 0.24560
 C1129 C 0.10951 0.89099 0.74643
 N1130 N 0.11631 0.91719 0.74374
 N1131 N 0.09750 0.93617 0.74381
 C1132 C 0.07107 0.92986 0.74668
 N1133 N 0.06444 0.90351 0.74931
 N1134 N 0.08322 0.88448 0.74918
 C1135 C 0.13029 0.87011 0.74678
 N1136 N 0.12347 0.84380 0.74850
 N1137 N 0.14236 0.82489 0.74924
 C1138 C 0.16877 0.83161 0.74833
 N1139 N 0.17559 0.85793 0.74657
 N1140 N 0.15669 0.87683 0.74577
 C1141 C 0.60464 0.39053 0.24154
 N1142 N 0.58735 0.39265 0.22056
 N1143 N 0.56881 0.41195 0.22013
 C1144 C 0.56656 0.42952 0.24088
 N1145 N 0.58377 0.42719 0.26193
 N1146 N 0.60257 0.40821 0.26215
 C1147 C 0.62553 0.36979 0.24190
 N1148 N 0.64881 0.37408 0.25540
 N1149 N 0.66791 0.35539 0.25586
 C1150 C 0.66424 0.33154 0.24321
 N1151 N 0.64086 0.32713 0.22987
 N1152 N 0.62192 0.34603 0.22904
 C1153 C 0.89005 0.89337 0.25358
 N1154 N 0.88453 0.91864 0.24506
 N1155 N 0.90344 0.93753 0.24541
 C1156 C 0.92857 0.93196 0.25448
 N1157 N 0.93404 0.90665 0.26302
 N1158 N 0.91517 0.88770 0.26252
 C1159 C 0.86921 0.87252 0.25299
 N1160 N 0.87552 0.84646 0.25784
 N1161 N 0.85664 0.82753 0.25700
 C1162 C 0.83073 0.83398 0.25146
 N1163 N 0.82441 0.86006 0.24673
 N1164 N 0.84332 0.87897 0.24741
 C1165 C 0.39191 0.39200 0.75747
 N1166 N 0.39066 0.41308 0.74027
 N1167 N 0.41016 0.43137 0.73980
 C1168 C 0.43152 0.42939 0.75665
 N1169 N 0.43245 0.40857 0.77424
 N1170 N 0.41312 0.39008 0.77448
 C1171 C 0.37093 0.37136 0.75722
 N1172 N 0.37579 0.34657 0.76740
 N1173 N 0.35700 0.32756 0.76637
 C1174 C 0.33258 0.33277 0.75541
 N1175 N 0.32765 0.35764 0.74545
 N1176 N 0.34655 0.37655 0.74618
 C1177 C 0.10750 0.24714 0.89208
 N1178 N 0.11425 0.24866 0.91841
 N1179 N 0.09533 0.24898 0.93730
 C1180 C 0.06883 0.24775 0.93078
 N1181 N 0.06224 0.24623 0.90428
 N1182 N 0.08113 0.24595 0.88534
 C1183 C 0.12843 0.24694 0.87130
 N1184 N 0.12184 0.24637 0.84483
 N1185 N 0.14091 0.24642 0.82606
 C1186 C 0.16727 0.24701 0.83306
 N1187 N 0.17384 0.24751 0.85953
 N1188 N 0.15478 0.24749 0.87829
 C1189 C 0.60597 0.75002 0.38978
 N1190 N 0.58989 0.72834 0.39341
 N1191 N 0.57156 0.72815 0.41290
 C1192 C 0.56833 0.74978 0.42920
 N1193 N 0.58422 0.77157 0.42528
 N1194 N 0.60287 0.77159 0.40611
 C1195 C 0.62661 0.75006 0.36880
 N1196 N 0.64963 0.76422 0.37224
 N1197 N 0.66860 0.76405 0.35339
 C1198 C 0.66502 0.75013 0.33024
 N1199 N 0.64188 0.73616 0.32667
 N1200 N 0.62310 0.73594 0.34574
 C1201 C 0.89344 0.75095 0.89284
 N1202 N 0.88665 0.75292 0.91915
 N1203 N 0.90554 0.75288 0.93812
 C1204 C 0.93202 0.75086 0.93166
 N1205 N 0.93859 0.74882 0.90522
 N1206 N 0.91976 0.74889 0.88623
 C1207 C 0.87271 0.75101 0.87185
 N1208 N 0.87970 0.74970 0.84553
 N1209 N 0.86096 0.74968 0.82643
 C1210 C 0.83452 0.75094 0.83295
 N1211 N 0.82752 0.75226 0.85928
 N1212 N 0.84628 0.75232 0.87838
 C1213 C 0.38905 0.25509 0.39367
 N1214 N 0.41347 0.26610 0.38871
 N1215 N 0.43258 0.26582 0.40744
 C1216 C 0.42809 0.25430 0.43175
 N1217 N 0.40361 0.24333 0.43668
 N1218 N 0.38441 0.24381 0.41804
 C1219 C 0.36818 0.25490 0.37285
 N1220 N 0.34245 0.24836 0.37904
 N1221 N 0.32359 0.24789 0.36006
 C1222 C 0.32983 0.25367 0.33416
 N1223 N 0.35558 0.26014 0.32796
 N1224 N 0.37439 0.26084 0.34698
 C1225 C 0.10762 0.75173 0.10938
 N1226 N 0.11352 0.75922 0.08385
 N1227 N 0.09460 0.75910 0.06492
 C1228 C 0.06909 0.75137 0.07075
 N1229 N 0.06329 0.74375 0.09630
 N1230 N 0.08216 0.74400 0.11526
 C1231 C 0.12838 0.75199 0.13034
 N1232 N 0.12173 0.74772 0.15643
 N1233 N 0.14050 0.74795 0.17549
 C1234 C 0.16665 0.75232 0.16914
 N1235 N 0.17332 0.75655 0.14304
 N1236 N 0.15451 0.75646 0.12399
 C1237 C 0.60979 0.24623 0.60594
 N1238 N 0.61423 0.23453 0.58173
 N1239 N 0.59508 0.23425 0.56304
 C1240 C 0.57087 0.24591 0.56772
 N1241 N 0.56643 0.25746 0.59203
 N1242 N 0.58548 0.25753 0.61082
 C1243 C 0.63099 0.24693 0.62642
 N1244 N 0.62512 0.25377 0.65214
 N1245 N 0.64432 0.25446 0.67076
 C1246 C 0.67015 0.24862 0.66428
 N1247 N 0.67606 0.24192 0.63852
 N1248 N 0.65680 0.24100 0.61994
 C1249 C 0.89205 0.24898 0.10756
 N1250 N 0.89655 0.22702 0.09210
 N1251 N 0.91556 0.22732 0.07329
 C1252 C 0.93045 0.24972 0.06887
 N1253 N 0.92573 0.27174 0.08424
 N1254 N 0.90706 0.27131 0.10339
 C1255 C 0.87116 0.24869 0.12827
 N1256 N 0.87397 0.26350 0.15098
 N1257 N 0.85494 0.26327 0.16978
 C1258 C 0.83223 0.24861 0.16631
 N1259 N 0.82933 0.23395 0.14350
 N1260 N 0.84858 0.23380 0.12492
 C1261 C 0.39425 0.74644 0.61155
 N1262 N 0.38869 0.73713 0.58654
 N1263 N 0.40744 0.73734 0.56746
 C1264 C 0.43242 0.74704 0.57258
 N1265 N 0.43790 0.75646 0.59762
 N1266 N 0.41921 0.75607 0.61676
 C1267 C 0.37350 0.74635 0.63252
 N1268 N 0.37990 0.75169 0.65850
 N1269 N 0.36100 0.75174 0.67745
 C1270 C 0.33497 0.74666 0.67107
 N1271 N 0.32859 0.74136 0.64509
 N1272 N 0.34751 0.74111 0.62618
 C1273 C 0.25078 0.10761 0.89358
 N1274 N 0.24283 0.08218 0.88789
 N1275 N 0.24284 0.06337 0.90690
 C1276 C 0.25094 0.06922 0.93231
 N1277 N 0.25905 0.09465 0.93788
 N1278 N 0.25888 0.11350 0.91892
 C1279 C 0.25054 0.12843 0.87272
 N1280 N 0.25479 0.15455 0.87924
 N1281 N 0.25452 0.17348 0.86036
 C1282 C 0.25015 0.16697 0.83424
 N1283 N 0.24597 0.14084 0.82771
 N1284 N 0.24607 0.12193 0.84662
 C1285 C 0.74766 0.61043 0.39164
 N1286 N 0.73801 0.58554 0.38628
 N1287 N 0.73884 0.56635 0.40487
 C1288 C 0.74960 0.57121 0.42948
 N1289 N 0.75926 0.59616 0.43480
 N1290 N 0.75823 0.61543 0.41627
 C1291 C 0.74702 0.63142 0.37095
 N1292 N 0.75227 0.65741 0.37729
 N1293 N 0.75193 0.67634 0.35839
 C1294 C 0.74655 0.66993 0.33242
 N1295 N 0.74135 0.64394 0.32610
 N1296 N 0.74147 0.62506 0.34503
 C1297 C 0.75038 0.10719 0.10627
 N1298 N 0.74198 0.08191 0.11196
 N1299 N 0.74144 0.06315 0.09289
 C1300 C 0.74943 0.06889 0.06743
 N1301 N 0.75798 0.09417 0.06185
 N1302 N 0.75835 0.11298 0.08086
 C1303 C 0.75061 0.12803 0.12713
 N1304 N 0.75501 0.15408 0.12052
 N1305 N 0.75490 0.17309 0.13934
 C1306 C 0.75056 0.16672 0.16549
 N1307 N 0.74629 0.14063 0.17213
 N1308 N 0.74623 0.12164 0.15327
 C1309 C 0.25080 0.60703 0.61103
 N1310 N 0.24053 0.58235 0.61629
 N1311 N 0.23950 0.56370 0.59713
 C1312 C 0.24884 0.56895 0.57204
 N1313 N 0.25927 0.59361 0.56690
 N1314 N 0.26012 0.61233 0.58598
 C1315 C 0.25157 0.62775 0.63197
 N1316 N 0.25741 0.65358 0.62560
 N1317 N 0.25774 0.67250 0.64451
 C1318 C 0.25243 0.66624 0.67051
 N1319 N 0.24673 0.64037 0.67690
 N1320 N 0.24622 0.62148 0.65796
 C1321 C 0.75208 0.89257 0.88960
 N1322 N 0.75957 0.88695 0.91520
 N1323 N 0.75888 0.90589 0.93405
 C1324 C 0.75049 0.93115 0.92813
 N1325 N 0.74300 0.93673 0.90248
 N1326 N 0.74385 0.91783 0.88356
 C1327 C 0.75263 0.87157 0.86891
 N1328 N 0.74857 0.87776 0.84267
 N1329 N 0.74892 0.85864 0.82396
 C1330 C 0.75317 0.83262 0.83083
 N1331 N 0.75719 0.82643 0.85708
 N1332 N 0.75700 0.84557 0.87576
 C1333 C 0.24759 0.39287 0.39245
 N1334 N 0.25738 0.38758 0.41732
 N1335 N 0.25707 0.40635 0.43635
 C1336 C 0.24673 0.43108 0.43134
 N1337 N 0.23691 0.43633 0.40642
 N1338 N 0.23741 0.41761 0.38731
 C1339 C 0.24783 0.37209 0.37156
 N1340 N 0.24226 0.37836 0.34561
 N1341 N 0.24245 0.35944 0.32669
 C1342 C 0.24801 0.33354 0.33308
 N1343 N 0.25351 0.32727 0.35904
 N1344 N 0.25351 0.34622 0.37792
 C1345 C 0.24916 0.89292 0.11022
 N1346 N 0.25750 0.88684 0.08500
 N1347 N 0.25794 0.90557 0.06592
 C1348 C 0.24989 0.93107 0.07126
 N1349 N 0.24155 0.93710 0.09654
 N1350 N 0.24126 0.91841 0.11567
 C1351 C 0.24868 0.87222 0.13120
 N1352 N 0.24380 0.87884 0.15721
 N1353 N 0.24352 0.86002 0.17622
 C1354 C 0.24795 0.83388 0.16989
 N1355 N 0.25273 0.82727 0.14387
 N1356 N 0.25317 0.84610 0.12489
 C1357 C 0.75088 0.39014 0.60418
 N1358 N 0.76052 0.38500 0.57921
 N1359 N 0.76101 0.40421 0.56059
 C1360 C 0.75173 0.42923 0.56619
 N1361 N 0.74191 0.43424 0.59114
 N1362 N 0.74160 0.41511 0.60981
 C1363 C 0.75077 0.36919 0.62491
 N1364 N 0.74553 0.37553 0.65091
 N1365 N 0.74576 0.35665 0.66984
 C1366 C 0.75104 0.33070 0.66345
 N1367 N 0.75613 0.32433 0.63742
 N1368 N 0.75610 0.34325 0.61851
 C1369 C 0.11005 0.10654 0.74911
 N1370 N 0.08370 0.11302 0.75135
 N1371 N 0.06492 0.09399 0.75085
 C1372 C 0.07162 0.06766 0.74804
 N1373 N 0.09810 0.06139 0.74570
 N1374 N 0.11692 0.08038 0.74625
 C1375 C 0.13077 0.12747 0.74979
 N1376 N 0.15720 0.12087 0.74885
 N1377 N 0.17602 0.13986 0.74946
 C1378 C 0.16907 0.16617 0.75099
 N1379 N 0.14264 0.17277 0.75193
 N1380 N 0.12383 0.15377 0.75138
 C1381 C 0.60744 0.60843 0.24407
 N1382 N 0.59034 0.60695 0.22289
 N1383 N 0.57154 0.58795 0.22187
 C1384 C 0.56878 0.57004 0.24224
 N1385 N 0.58590 0.57162 0.26344
 N1386 N 0.60499 0.59032 0.26426
 C1387 C 0.62813 0.62935 0.24522
 N1388 N 0.65131 0.62522 0.25898
 N1389 N 0.67015 0.64419 0.25992
 C1390 C 0.66626 0.66814 0.24752
 N1391 N 0.64298 0.67234 0.23396
 N1392 N 0.62434 0.65321 0.23266
 C1393 C 0.10561 0.89272 0.25061
 N1394 N 0.11236 0.91896 0.24815
 N1395 N 0.09352 0.93792 0.24845
 C1396 C 0.06710 0.93156 0.25130
 N1397 N 0.06052 0.90517 0.25373
 N1398 N 0.07932 0.88616 0.25338
 C1399 C 0.12645 0.87186 0.25050
 N1400 N 0.11973 0.84548 0.25181
 N1401 N 0.13870 0.82662 0.25188
 C1402 C 0.16508 0.83345 0.25071
 N1403 N 0.17178 0.85983 0.24939
 N1404 N 0.15281 0.87868 0.24925
 C1405 C 0.61161 0.39153 0.74511
 N1406 N 0.58990 0.38979 0.72872
 N1407 N 0.57073 0.40842 0.72954
 C1408 C 0.57230 0.42921 0.74713
 N1409 N 0.59415 0.43101 0.76337
 N1410 N 0.61350 0.41259 0.76229
 C1411 C 0.63246 0.37076 0.74465
 N1412 N 0.65735 0.37592 0.75451
 N1413 N 0.67620 0.35695 0.75445
 C1414 C 0.67071 0.33203 0.74490
 N1415 N 0.64579 0.32682 0.73515
 N1416 N 0.62704 0.34590 0.73489
 C1417 C 0.89127 0.10960 0.25046
 N1418 N 0.88566 0.08416 0.24252
 N1419 N 0.90445 0.06517 0.24349
 C1420 C 0.92952 0.07079 0.25267
 N1421 N 0.93509 0.09628 0.26062
 N1422 N 0.91635 0.11534 0.25948
 C1423 C 0.87044 0.13045 0.24951
 N1424 N 0.87674 0.15662 0.25378
 N1425 N 0.85776 0.17546 0.25302
 C1426 C 0.83177 0.16879 0.24813
 N1427 N 0.82549 0.14262 0.24390
 N1428 N 0.84449 0.12381 0.24449
 C1429 C 0.39224 0.60648 0.75630
 N1430 N 0.39099 0.58522 0.73931
 N1431 N 0.41033 0.56677 0.73923
 C1432 C 0.43153 0.56875 0.75630
 N1433 N 0.43241 0.58970 0.77374
 N1434 N 0.41325 0.60835 0.77357
 C1435 C 0.37150 0.62735 0.75566
 N1436 N 0.37673 0.65229 0.76530
 N1437 N 0.35808 0.67142 0.76425
 C1438 C 0.33344 0.66621 0.75381
 N1439 N 0.32816 0.64121 0.74434
 N1440 N 0.34692 0.62217 0.74505
 C1441 C 0.89439 0.89120 0.75083
 N1442 N 0.88864 0.91638 0.74222
 N1443 N 0.90750 0.93533 0.74214
 C1444 C 0.93278 0.92990 0.75086
 N1445 N 0.93848 0.90466 0.75947
 N1446 N 0.91966 0.88565 0.75939
 C1447 C 0.87360 0.87033 0.75084
 N1448 N 0.88006 0.84434 0.75580
 N1449 N 0.86119 0.82539 0.75563
 C1450 C 0.83515 0.83177 0.75066
 N1451 N 0.82868 0.85779 0.74580
 N1452 N 0.84758 0.87671 0.74581
 C1453 C 0.38840 0.39415 0.25339
 N1454 N 0.38348 0.41853 0.24231
 N1455 N 0.40261 0.43721 0.24155
 C1456 C 0.42732 0.43231 0.25204
 N1457 N 0.43211 0.40797 0.26336
 N1458 N 0.41305 0.38921 0.26392
 C1459 C 0.36756 0.37328 0.25352
 N1460 N 0.37391 0.34747 0.25947
 N1461 N 0.35515 0.32842 0.25904
 C1462 C 0.32930 0.33451 0.25284
 N1463 N 0.32291 0.36036 0.24706
 N1464 N 0.34173 0.37938 0.24728
   
