data_POSCAR
  _audit_creation_date              2014-09-24
  _audit_creation_method            'ToBaCCo'
  _symmetry_space_group_name_H-M    'P1'
  _symmetry_Int_Tables_number       1
  _symmetry_cell_setting            triclinic
  loop_
  _symmetry_equiv_pos_as_xyz
 x,y,z
_cell_length_a 34.2459
_cell_length_b 34.2967
_cell_length_c 44.0200
_cell_angle_alpha 90.039600
_cell_angle_beta 89.982500
_cell_angle_gamma 90.042800
loop_
  _atom_site_label
  _atom_site_type_symbol
  _atom_site_fract_x
  _atom_site_fract_y
  _atom_site_fract_z
B1 B 0.27270 0.23971 0.27999
 B2 B 0.22752 0.22374 0.27368
 B3 B 0.23516 0.27062 0.28166
 B4 B 0.27727 0.28476 0.26537
 B5 B 0.29558 0.24499 0.24660
 B6 B 0.26439 0.20681 0.25221
 B7 B 0.22481 0.26347 0.22160
 B8 B 0.27006 0.27936 0.22798
 B9 B 0.26239 0.23253 0.21992
 B10 B 0.22025 0.21834 0.23625
 B11 B 0.20193 0.25810 0.25505
 B12 B 0.23318 0.29633 0.24938
 B13 B 0.73701 0.77266 0.21935
 B14 B 0.72999 0.72570 0.22718
 B15 B 0.77498 0.74225 0.22101
 B16 B 0.77885 0.78734 0.23579
 B17 B 0.73449 0.79821 0.25170
 B18 B 0.70385 0.75959 0.24584
 B19 B 0.76445 0.73474 0.28105
 B20 B 0.77149 0.78174 0.27317
 B21 B 0.72645 0.76511 0.27934
 B22 B 0.72261 0.72001 0.26453
 B23 B 0.76697 0.70915 0.24866
 B24 B 0.79763 0.74777 0.25451
 B25 B 0.73987 0.22412 -0.22361
 B26 B 0.72361 0.26909 -0.23004
 B27 B 0.77055 0.26192 -0.22195
 B28 B 0.78511 0.21994 -0.23819
 B29 B 0.74549 0.20123 -0.25700
 B30 B 0.70696 0.23208 -0.25143
 B31 B 0.76345 0.27201 -0.28203
 B32 B 0.77976 0.22703 -0.27562
 B33 B 0.73280 0.23423 -0.28369
 B34 B 0.71824 0.27619 -0.26743
 B35 B 0.75786 0.29489 -0.24865
 B36 B 0.79639 0.26406 -0.25422
 B37 B 0.26818 0.76420 -0.27846
 B38 B 0.22114 0.77160 -0.27072
 B39 B 0.23737 0.72654 -0.27687
 B40 B 0.28238 0.72229 -0.26199
 B41 B 0.29367 0.76646 -0.24603
 B42 B 0.25530 0.79743 -0.25196
 B43 B 0.22962 0.73708 -0.21690
 B44 B 0.27661 0.72963 -0.22464
 B45 B 0.26046 0.77473 -0.21845
 B46 B 0.21539 0.77900 -0.23335
 B47 B 0.20414 0.73480 -0.24930
 B48 B 0.24247 0.70388 -0.24341
 B49 B 1.22263 1.26098 0.77907
 B50 B 1.26795 1.27632 0.77261
 B51 B 1.25980 1.22954 0.78023
 B52 B 1.21738 1.21621 0.76404
 B53 B 1.19942 1.25651 0.74575
 B54 B 1.23119 1.29421 0.75162
 B55 B 1.26974 1.23756 0.72021
 B56 B 1.22441 1.22215 0.72669
 B57 B 1.23259 1.26901 0.71906
 B58 B 1.27503 1.28233 0.73529
 B59 B 1.29295 1.24201 0.75353
 B60 B 1.26121 1.20433 0.74770
 B61 B 0.77150 0.73953 0.77926
 B62 B 0.72589 0.72505 0.77262
 B63 B 0.73492 0.77169 0.78038
 B64 B 0.77767 0.78426 0.76428
 B65 B 0.79493 0.74366 0.74596
 B66 B 0.76245 0.70654 0.75166
 B67 B 0.72506 0.76393 0.72036
 B68 B 0.77062 0.77850 0.72690
 B69 B 0.76163 0.73186 0.71918
 B70 B 0.71893 0.71928 0.73528
 B71 B 0.70167 0.75987 0.75359
 B72 B 0.73411 0.79697 0.74788
 B73 B 1.23972 0.72441 0.27701
 B74 B 1.22441 0.76968 0.27060
 B75 B 1.27124 0.76151 0.27839
 B76 B 1.28464 0.71920 0.26214
 B77 B 1.24438 0.70133 0.24367
 B78 B 1.20663 0.73301 0.24943
 B79 B 1.26364 0.77161 0.21836
 B80 B 1.27893 0.72632 0.22479
 B81 B 1.23211 0.73450 0.21699
 B82 B 1.21870 0.77682 0.23325
 B83 B 1.25896 0.79469 0.25173
 B84 B 1.29672 0.76301 0.24596
 B85 B 0.76490 1.27035 0.28270
 B86 B 0.77993 1.22493 0.27643
 B87 B 0.73306 1.23353 0.28383
 B88 B 0.72028 1.27591 0.26744
 B89 B 0.76098 1.29335 0.24932
 B90 B 0.79834 1.26139 0.25540
 B91 B 0.74145 1.22320 0.22387
 B92 B 0.72653 1.26862 0.23018
 B93 B 0.77335 1.26003 0.22277
 B94 B 0.78613 1.21763 0.23912
 B95 B 0.74543 1.20015 0.25728
 B96 B 0.70805 1.23217 0.25118
 O97 O 0.55458 1.07118 0.05578
 O98 O 0.59825 1.03571 0.02727
 C99 C 0.58969 1.06091 0.04840
 O100 O 0.44439 0.93212 0.05263
 O101 O 0.40070 0.96972 0.02590
 C102 C 0.40926 0.94250 0.04541
 O103 O 0.55227 0.93384 0.05563
 O104 O 0.59715 0.96778 0.02710
 C105 C 0.58771 0.94272 0.04807
 O106 O 0.44671 1.07643 0.05261
 O107 O 0.40186 1.04011 0.02587
 C108 C 0.41125 1.06710 0.04537
 Zr109 Zr 0.50034 1.05203 0.03875
 O110 O 0.49920 1.04502 0.08644
 O111 O 0.50135 1.11350 0.04292
 Zr112 Zr 0.49870 0.95495 0.03884
 O113 O 0.49785 0.96253 0.08649
 O114 O 0.49818 0.89358 0.04352
 O115 O 0.53504 1.00291 0.04456
 O116 O 0.46468 1.00404 0.04425
 O117 O 0.44668 1.07540 -0.05269
 O118 O 0.40188 1.03974 -0.02540
 C119 C 0.41125 1.06626 -0.04526
 O120 O 0.55242 0.93393 -0.05497
 O121 O 0.59729 0.96800 -0.02656
 C122 C 0.58786 0.94293 -0.04752
 O123 O 0.44427 0.93295 -0.05269
 O124 O 0.40067 0.97000 -0.02538
 C125 C 0.40915 0.94319 -0.04526
 O126 O 0.55463 1.07033 -0.05557
 O127 O 0.59834 1.03534 -0.02685
 C128 C 0.58975 1.06021 -0.04816
 Zr129 Zr 0.50040 1.05220 -0.03782
 O130 O 0.49611 1.05209 -0.08581
 O131 O 0.50502 1.11377 -0.03714
 Zr132 Zr 0.49873 0.95443 -0.03781
 O133 O 0.49458 0.95540 -0.08583
 O134 O 0.50110 0.89274 -0.03772
 Zr135 Zr 0.55881 1.00238 0.00029
 Zr136 Zr 0.44054 1.00429 0.00035
 O137 O 0.46529 1.00386 -0.04341
 O138 O 0.53478 1.00271 -0.04387
 O139 O 0.46564 1.06048 0.00043
 O140 O 0.53269 0.94681 0.00048
 O141 O 0.53475 1.05881 0.00041
 O142 O 0.46377 0.94735 0.00050
 H143 H 0.44677 1.00434 0.06195
 H144 H 0.54966 0.92344 0.00040
 H145 H 0.44782 1.00413 -0.06134
 H146 H 0.55277 1.08140 0.00022
 H147 H 0.50595 0.88248 0.02372
 H148 H 0.47990 0.88328 -0.02433
 H149 H 0.51788 0.96906 -0.09380
 H150 H 0.51720 1.03526 -0.09378
 H151 H 0.48428 1.12374 -0.02354
 H152 H 0.51342 1.12410 0.02430
 H153 H 0.49817 1.07168 0.09510
 H154 H 0.49589 0.93602 0.09530
 O155 O 1.05449 0.57148 0.55540
 O156 O 1.09820 0.53588 0.52702
 C157 C 1.08962 0.56121 0.54802
 O158 O 0.94432 0.43230 0.55250
 O159 O 0.90070 0.46984 0.52566
 C160 C 0.90921 0.44266 0.54521
 O161 O 1.05225 0.43410 0.55559
 O162 O 1.09713 0.46800 0.52705
 C163 C 1.08770 0.44297 0.54803
 O164 O 0.94651 0.57666 0.55213
 O165 O 0.90179 0.54008 0.52547
 C166 C 0.91108 0.56719 0.54487
 Zr167 Zr 1.00024 0.55220 0.53848
 O168 O 0.99900 0.54528 0.58617
 O169 O 1.00149 0.61365 0.54272
 Zr170 Zr 0.99867 0.45512 0.53875
 O171 O 0.99770 0.46280 0.58639
 O172 O 0.99835 0.39377 0.54356
 O173 O 1.03496 0.50312 0.54443
 O174 O 0.96461 0.50422 0.54404
 O175 O 0.94678 0.57535 0.44699
 O176 O 0.90195 0.53977 0.47428
 C177 C 0.91135 0.56632 0.45447
 O178 O 1.05258 0.43393 0.44499
 O179 O 1.09733 0.46804 0.47348
 C180 C 1.08799 0.44294 0.45254
 O181 O 0.94436 0.43286 0.44726
 O182 O 0.90073 0.47002 0.47443
 C183 C 0.90925 0.44309 0.45469
 O184 O 1.05479 0.57024 0.44428
 O185 O 1.09840 0.53530 0.47313
 C186 C 1.08988 0.56014 0.45181
 Zr187 Zr 1.00047 0.55212 0.46187
 O188 O 0.99619 0.55160 0.41387
 O189 O 1.00515 0.61369 0.46217
 Zr190 Zr 0.99882 0.45436 0.46209
 O191 O 0.99472 0.45501 0.41407
 O192 O 1.00131 0.39267 0.46231
 Zr193 Zr 1.05877 0.50246 0.50018
 Zr194 Zr 0.94057 0.50433 0.50010
 O195 O 0.96536 0.50376 0.45636
 O196 O 1.03487 0.50263 0.45597
 O197 O 0.96565 0.56054 0.50009
 O198 O 1.03270 0.44686 0.50044
 O199 O 1.03467 0.55889 0.50015
 O200 O 0.96381 0.44738 0.50038
 H201 H 0.94667 0.50456 0.56170
 H202 H 1.04967 0.42348 0.50042
 H203 H 0.94789 0.50399 0.43842
 H204 H 1.05261 0.58156 0.49995
 H205 H 1.00501 0.38265 0.52352
 H206 H 0.97978 0.38317 0.47537
 H207 H 1.01778 0.46905 0.40610
 H208 H 1.01771 0.53528 0.40596
 H209 H 0.98424 0.62385 0.47553
 H210 H 1.01176 0.62425 0.52346
 H211 H 0.99800 0.57195 0.59480
 H212 H 0.99609 0.43628 0.59523
 O213 O 0.92721 0.44699 -0.05524
 O214 O 0.96136 0.40239 -0.02669
 C215 C 0.93627 0.41165 -0.04771
 O216 O 1.07005 0.55279 -0.05217
 O217 O 1.03348 0.59756 -0.02561
 C218 C 1.06066 0.58819 -0.04495
 O219 O 1.06482 0.44510 -0.05527
 O220 O 1.02942 0.40145 -0.02669
 C221 C 1.05472 0.41003 -0.04775
 O222 O 0.92554 0.55477 -0.05261
 O223 O 0.96305 0.59856 -0.02582
 C224 C 0.93596 0.58992 -0.04548
 Zr225 Zr 0.94822 0.50061 -0.03848
 O226 O 0.95560 0.50119 -0.08615
 O227 O 0.88671 0.50120 -0.04290
 Zr228 Zr 1.04544 0.49925 -0.03845
 O229 O 1.03820 0.50025 -0.08613
 O230 O 1.10694 0.49802 -0.04296
 O231 O 0.99631 0.46443 -0.04418
 O232 O 0.99737 0.53468 -0.04398
 O233 O 0.92648 0.55532 0.05308
 O234 O 0.96347 0.59881 0.02561
 C235 C 0.93679 0.59038 0.04563
 O236 O 1.06434 0.44546 0.05573
 O237 O 1.02913 0.40157 0.02727
 C238 C 1.05425 0.41033 0.04841
 O239 O 1.06914 0.55313 0.05275
 O240 O 1.03333 0.59770 0.02548
 C241 C 1.06009 0.58845 0.04519
 O242 O 0.92772 0.44723 0.05568
 O243 O 0.96167 0.40247 0.02711
 C244 C 0.93680 0.41184 0.04824
 Zr245 Zr 0.94778 0.50087 0.03813
 O246 O 0.94808 0.50519 0.08612
 O247 O 0.88599 0.49832 0.03758
 Zr248 Zr 1.04569 0.49946 0.03818
 O249 O 1.04480 0.50405 0.08617
 O250 O 1.10735 0.49499 0.03804
 Zr251 Zr 0.99594 0.44086 0.00014
 Zr252 Zr 0.99766 0.55895 -0.00012
 O253 O 0.99727 0.53442 0.04368
 O254 O 0.99621 0.46502 0.04425
 O255 O 0.94063 0.53566 -0.00022
 O256 O 1.05239 0.46513 -0.00004
 O257 O 0.94020 0.46671 -0.00008
 O258 O 1.05394 0.53398 -0.00016
 H259 H 0.99772 0.55249 -0.06171
 H260 H 1.07516 0.44735 0.00013
 H261 H 0.99762 0.55194 0.06158
 H262 H 0.91691 0.44958 0.00008
 H263 H 1.11771 0.48842 -0.02355
 H264 H 1.11751 0.51550 0.02433
 H265 H 1.02987 0.48161 0.09421
 H266 H 0.96360 0.48316 0.09410
 H267 H 0.87662 0.51985 0.02452
 H268 H 0.87569 0.49224 -0.02339
 H269 H 0.92901 0.50290 -0.09491
 H270 H 1.06486 0.50132 -0.09485
 O271 O 0.56515 0.94512 0.55518
 O272 O 0.52953 0.90141 0.52681
 C273 C 0.55499 0.91004 0.54772
 O274 O 0.42579 1.05483 0.55300
 O275 O 0.46324 1.09848 0.52605
 C276 C 0.43618 1.08993 0.54573
 O277 O 0.42759 0.94696 0.55585
 O278 O 0.46155 0.90231 0.52715
 C279 C 0.43658 0.91160 0.54824
 O280 O 0.57043 1.05281 0.55194
 O281 O 0.53363 1.09748 0.52556
 C282 C 0.56099 1.08817 0.54473
 Zr283 Zr 0.54568 0.99924 0.53845
 O284 O 0.53885 1.00046 0.58616
 O285 O 0.60721 0.99790 0.54265
 Zr286 Zr 0.44846 1.00058 0.53899
 O287 O 0.45627 1.00140 0.58661
 O288 O 0.38701 1.00109 0.54387
 O289 O 0.49660 0.96444 0.54448
 O290 O 0.49764 1.03469 0.54420
 O291 O 0.56861 1.05287 0.44709
 O292 O 0.53294 1.09747 0.47450
 C293 C 0.55958 1.08820 0.45470
 O294 O 0.42718 0.94680 0.44509
 O295 O 0.46144 0.90220 0.47350
 C296 C 0.43636 0.91145 0.45253
 O297 O 0.42588 1.05491 0.44757
 O298 O 0.46316 1.09850 0.47473
 C299 C 0.43624 1.08998 0.45494
 O300 O 0.56377 0.94503 0.44427
 O301 O 0.52880 0.90130 0.47302
 C302 C 0.55377 0.90994 0.45177
 Zr303 Zr 0.54533 0.99917 0.46180
 O304 O 0.54412 1.00354 0.41381
 O305 O 0.60700 0.99472 0.46155
 Zr306 Zr 0.44742 1.00054 0.46236
 O307 O 0.44756 1.00471 0.41436
 O308 O 0.38565 0.99792 0.46307
 Zr309 Zr 0.49588 0.94075 0.50019
 Zr310 Zr 0.49759 1.05877 0.50029
 O311 O 0.49685 1.03410 0.45651
 O312 O 0.49581 0.96470 0.45602
 O313 O 0.55388 1.03382 0.50007
 O314 O 0.44014 0.96657 0.50066
 O315 O 0.55234 0.96501 0.50003
 O316 O 0.44057 1.03545 0.50071
 H317 H 0.49812 1.05259 0.56188
 H318 H 0.41683 0.94946 0.50064
 H319 H 0.49704 1.05157 0.43860
 H320 H 0.57512 0.94725 0.49977
 H321 H 0.37578 0.99232 0.52437
 H322 H 0.37631 1.01927 0.47635
 H323 H 0.46242 0.98224 0.40631
 H324 H 0.52879 0.98127 0.40592
 H325 H 0.61729 1.01533 0.47512
 H326 H 0.61781 0.98876 0.52304
 H327 H 0.56558 1.00155 0.59473
 H328 H 0.42976 1.00313 0.59552
 O329 O 0.91402 0.95331 0.53990
 O330 O 0.95916 0.97499 0.57473
 C331 C 0.92663 0.95833 0.56736
 O332 O 1.04837 0.91050 0.45677
 O333 O 1.02633 0.95726 0.42353
 C334 C 1.04328 0.92455 0.42978
 O335 O 1.04106 0.90530 0.54119
 O336 O 1.02029 0.95174 0.57518
 C337 C 1.03520 0.91816 0.56846
 O338 O 0.91425 0.96055 0.45517
 O339 O 0.96288 0.98083 0.42285
 C340 C 0.92865 0.96649 0.42838
 Zr341 Zr 0.94009 0.96860 0.49820
 O342 O 0.92204 0.90976 0.49544
 O343 O 0.88177 0.98883 0.50056
 Zr344 Zr 1.03146 0.93326 0.49926
 O345 O 1.00303 0.87864 0.49669
 O346 O 1.08672 0.90614 0.50196
 O347 O 0.98229 0.94317 0.52578
 O348 O 0.98416 0.94508 0.47190
 O349 O 0.96189 1.08585 0.45817
 O350 O 0.98598 1.04095 0.42421
 C351 C 0.96851 1.07320 0.43095
 O352 O 1.09063 1.03827 0.54470
 O353 O 1.04337 1.01489 0.57701
 C354 C 1.07630 1.03186 0.57144
 O355 O 1.09551 1.03701 0.45992
 O356 O 1.04922 1.01791 0.42522
 C357 C 1.08278 1.03256 0.43247
 O358 O 0.96377 1.08625 0.54297
 O359 O 0.98261 1.03808 0.57606
 C360 C 0.96820 1.07203 0.56995
 Zr361 Zr 0.97560 1.06061 0.50046
 O362 O 0.99952 1.11753 0.49833
 O363 O 0.91873 1.08445 0.50311
 Zr364 Zr 1.06745 1.02506 0.50158
 O365 O 1.09106 1.08208 0.49997
 O366 O 1.12437 1.00145 0.50554
 Zr367 Zr 1.00226 0.99574 0.54501
 Zr368 Zr 1.00516 0.99829 0.45478
 O369 O 1.02486 1.05039 0.47486
 O370 O 1.02341 1.04933 0.52827
 O371 O 0.95142 1.01812 0.47231
 O372 O 1.05547 0.97587 0.52677
 O373 O 0.95021 1.01641 0.52552
 O374 O 1.05766 0.97719 0.47355
 H375 H 0.97665 0.92416 0.45748
 H376 H 1.07668 0.96743 0.54057
 H377 H 1.03318 1.07231 0.46170
 H378 H 0.92810 1.02407 0.53876
 H379 H 1.10603 0.92566 0.49513
 H380 H 1.13009 0.98693 0.48662
 H381 H 1.07671 1.09798 0.51502
 H382 H 1.01452 1.12198 0.51722
 H383 H 0.90245 1.07059 0.48802
 H384 H 0.87856 1.00895 0.48467
 H385 H 0.89311 0.91025 0.49488
 H386 H 1.02408 0.85888 0.49577
 O387 O 0.55960 0.41550 0.04183
 O388 O 0.53360 0.45967 0.07555
 C389 C 0.55364 0.42891 0.06893
 O390 O 0.58301 0.54861 -0.04663
 O391 O 0.53823 0.51911 -0.07805
 C392 C 0.56882 0.54024 -0.07310
 O393 O 0.59173 0.54697 0.03793
 O394 O 0.54898 0.52297 0.07359
 C395 C 0.58053 0.54109 0.06564
 O396 O 0.55006 0.40967 -0.04257
 O397 O 0.52291 0.45333 -0.07602
 C398 C 0.54149 0.42154 -0.06966
 Zr399 Zr 0.54029 0.43701 -0.00033
 O400 O 0.60105 0.42722 -0.00371
 O401 O 0.52848 0.37672 0.00426
 Zr402 Zr 0.56372 0.53197 -0.00308
 O403 O 0.62173 0.51139 -0.00618
 O404 O 0.58263 0.59067 -0.00227
 O405 O 0.56094 0.48365 0.02525
 O406 O 0.55720 0.48198 -0.02858
 O407 O 0.41926 0.44174 -0.03839
 O408 O 0.46010 0.46881 -0.07405
 C409 C 0.43006 0.44844 -0.06605
 O410 O 0.45332 0.57985 0.04255
 O411 O 0.48342 0.53807 0.07591
 C412 C 0.46232 0.56819 0.06959
 O413 O 0.45240 0.57990 -0.04231
 O414 O 0.47557 0.53416 -0.07591
 C415 C 0.45777 0.56636 -0.06943
 O416 O 0.42158 0.44873 0.04620
 O417 O 0.46808 0.47526 0.07762
 C418 C 0.43578 0.45674 0.07269
 Zr419 Zr 0.44448 0.46038 0.00277
 O420 O 0.38456 0.47546 0.00120
 O421 O 0.42942 0.40086 0.00792
 Zr422 Zr 0.46806 0.55590 0.00002
 O423 O 0.40823 0.57126 -0.00140
 O424 O 0.48369 0.61563 0.00177
 Zr425 Zr 0.50674 0.49789 0.04494
 Zr426 Zr 0.50117 0.49484 -0.04519
 O427 O 0.44755 0.50896 -0.02466
 O428 O 0.45037 0.51086 0.02864
 O429 O 0.48887 0.44021 -0.02550
 O430 O 0.51918 0.55193 0.02452
 O431 O 0.49229 0.44251 0.02769
 O432 O 0.51602 0.55061 -0.02867
 H433 H 0.57848 0.47628 -0.04319
 H434 H 0.52536 0.57478 0.03744
 H435 H 0.42439 0.51385 -0.03758
 H436 H 0.48777 0.42054 0.04187
 H437 H 0.56324 0.60590 -0.01390
 H438 H 0.49876 0.62164 -0.01683
 H439 H 0.39502 0.55709 0.01524
 H440 H 0.37914 0.49271 0.01871
 H441 H 0.44251 0.38625 -0.00855
 H442 H 0.50689 0.37043 -0.00983
 H443 H 0.60454 0.39854 -0.00331
 H444 H 0.63837 0.53490 -0.00807
 C445 C 0.35998 1.14946 0.12686
 C446 C 0.33716 1.18771 0.12142
 C447 C 0.30500 1.17298 0.14290
 C448 C 0.32765 1.13499 0.14858
 C449 C 0.33819 1.13047 0.10008
 C450 C 0.30604 1.11572 0.12158
 C451 C 0.31558 1.16848 0.09427
 C452 C 0.28301 1.15410 0.11620
 C453 C 0.28839 1.19575 0.16815
 C454 C 0.27621 1.21307 0.19011
 C455 C 0.35986 1.10676 0.07782
 C456 C 0.38123 1.08791 0.06158
 H457 H 0.39185 1.14736 0.13117
 H458 H 0.34986 1.21750 0.12158
 H459 H 0.33260 1.12142 0.17115
 H460 H 0.29336 1.08593 0.12147
 H461 H 0.31070 1.18201 0.07170
 H462 H 0.25112 1.15631 0.11205
 C463 C 0.80543 0.61461 0.62089
 C464 C 0.82691 0.63430 0.64777
 C465 C 0.80354 0.67186 0.64217
 C466 C 0.78165 0.65256 0.61559
 C467 C 0.83714 0.62992 0.59923
 C468 C 0.81379 0.66749 0.59349
 C469 C 0.85878 0.64933 0.62589
 C470 C 0.83524 0.68714 0.62051
 C471 C 0.78701 0.69445 0.66751
 C472 C 0.77508 0.71185 0.68951
 C473 C 0.85921 0.60653 0.57704
 C474 C 0.88089 0.58790 0.56094
 H475 H 0.79328 0.58460 0.62084
 H476 H 0.83226 0.62082 0.67031
 H477 H 0.74969 0.65418 0.61161
 H478 H 0.80847 0.68089 0.57092
 H479 H 0.89072 0.64783 0.63003
 H480 H 0.84737 0.71716 0.62058
 C481 C 0.68424 0.84176 0.09525
 C482 C 0.71600 0.85541 0.11815
 C483 C 0.69393 0.83422 0.14372
 C484 C 0.66258 0.82022 0.12127
 C485 C 0.66061 0.87879 0.10235
 C486 C 0.63872 0.85751 0.12801
 C487 C 0.69194 0.89281 0.12484
 C488 C 0.67025 0.87124 0.15071
 C489 C 0.71072 0.81040 0.16823
 C490 C 0.72306 0.79241 0.18976
 C491 C 0.63898 0.90333 0.08070
 C492 C 0.61768 0.92239 0.06463
 H493 H 0.68991 0.82992 0.07220
 H494 H 0.74801 0.85421 0.11431
 H495 H 0.65061 0.79017 0.12003
 H496 H 0.60673 0.85859 0.13200
 H497 H 0.70389 0.92286 0.12614
 H498 H 0.66451 0.88311 0.17375
 C499 C 1.13736 0.35812 0.62812
 C500 C 1.15966 0.31989 0.62142
 C501 C 1.19166 0.33275 0.64374
 C502 C 1.16953 0.37072 0.65067
 C503 C 1.15991 0.37838 0.60231
 C504 C 1.19190 0.39129 0.62464
 C505 C 1.18202 0.34041 0.59527
 C506 C 1.21442 0.35291 0.61802
 C507 C 1.20744 0.30818 0.66821
 C508 C 1.21907 0.28954 0.68966
 C509 C 1.13879 0.40335 0.58064
 C510 C 1.11765 0.42259 0.56458
 H511 H 1.10546 0.36051 0.63221
 H512 H 1.14647 0.29035 0.62030
 H513 H 1.16438 0.38297 0.67368
 H514 H 1.20507 0.42084 0.62579
 H515 H 1.18714 0.32825 0.57224
 H516 H 1.24634 0.35043 0.61408
 C517 C 0.69526 1.10241 -0.12729
 C518 C 0.67388 1.12257 -0.15401
 C519 C 0.69819 1.15962 -0.14855
 C520 C 0.71995 1.13986 -0.12215
 C521 C 0.66420 1.11836 -0.10534
 C522 C 0.68846 1.15545 -0.09979
 C523 C 0.64263 1.13823 -0.13182
 C524 C 0.66711 1.17553 -0.12660
 C525 C 0.71509 1.18249 -0.17365
 C526 C 0.72712 1.20098 -0.19509
 C527 C 0.64208 1.09584 -0.08256
 C528 C 0.62034 1.07852 -0.06559
 H529 H 0.70673 1.07215 -0.12738
 H530 H 0.66791 1.10924 -0.17653
 H531 H 0.75199 1.14081 -0.11840
 H532 H 0.69435 1.16876 -0.07726
 H533 H 0.61061 1.13742 -0.13571
 H534 H 0.65560 1.20579 -0.12654
 C535 C 1.14314 0.63823 0.36866
 C536 C 1.16733 0.67566 0.37402
 C537 C 1.19862 0.66001 0.35216
 C538 C 1.17460 0.62281 0.34656
 C539 C 1.16469 0.61844 0.39516
 C540 C 1.19598 0.60273 0.37331
 C541 C 1.18868 0.65566 0.40086
 C542 C 1.22040 0.64034 0.37859
 C543 C 1.21528 0.68301 0.32710
 C544 C 1.22709 0.70152 0.30562
 C545 C 1.14247 0.59582 0.41776
 C546 C 1.12056 0.57847 0.43455
 H547 H 1.11115 0.63721 0.36465
 H548 H 1.15565 0.70586 0.37408
 H549 H 1.16888 0.60952 0.32399
 H550 H 1.20765 0.57254 0.37321
 H551 H 1.19437 0.66893 0.42344
 H552 H 1.25241 0.64151 0.38243
 C553 C 0.30209 0.89698 -0.12158
 C554 C 0.32341 0.87835 -0.14902
 C555 C 0.30114 0.84007 -0.14347
 C556 C 0.27945 0.85828 -0.11634
 C557 C 0.33471 0.88219 -0.10055
 C558 C 0.31249 0.84387 -0.09491
 C559 C 0.35619 0.86385 -0.12775
 C560 C 0.33377 0.82532 -0.12245
 C561 C 0.28459 0.81680 -0.16850
 C562 C 0.27287 0.79805 -0.18992
 C563 C 0.35673 0.90541 -0.07814
 C564 C 0.37849 0.92356 -0.06172
 H565 H 0.28915 0.92663 -0.12102
 H566 H 0.32788 0.89235 -0.17149
 H567 H 0.24765 0.85572 -0.11188
 H568 H 0.30806 0.82988 -0.07244
 H569 H 0.38798 0.86626 -0.13236
 H570 H 0.34673 0.79566 -0.12304
 C571 C 0.85793 0.36116 0.37387
 C572 C 0.83538 0.32284 0.37968
 C573 C 0.80348 0.33669 0.35766
 C574 C 0.82587 0.37476 0.35162
 C575 C 0.83553 0.38056 0.40016
 C576 C 0.80363 0.39446 0.37814
 C577 C 0.81317 0.34246 0.40630
 C578 C 0.78084 0.35596 0.38386
 C579 C 0.78795 0.31260 0.33277
 C580 C 0.77696 0.29348 0.31134
 C581 C 0.85703 0.40457 0.42230
 C582 C 0.87864 0.42318 0.43849
 H583 H 0.88985 0.36347 0.36982
 H584 H 0.84834 0.29318 0.38007
 H585 H 0.83105 0.38782 0.32891
 H586 H 0.79066 0.42411 0.37772
 H587 H 0.80799 0.32945 0.42904
 H588 H 0.74890 0.35351 0.38774
 C589 C 1.15291 0.31483 0.09882
 C590 C 1.17239 0.33655 0.12576
 C591 C 1.15818 0.30438 0.14740
 C592 C 1.13903 0.28227 0.12087
 C593 C 1.11477 0.33719 0.10494
 C594 C 1.10050 0.30504 0.12660
 C595 C 1.13403 0.35911 0.13155
 C596 C 1.12008 0.32678 0.15345
 C597 C 1.18216 0.28798 0.17207
 C598 C 1.20135 0.27620 0.19323
 C599 C 1.09117 0.35866 0.08247
 C600 C 1.07313 0.38000 0.06568
 H601 H 1.16619 0.31000 0.07613
 H602 H 1.20212 0.34947 0.12562
 H603 H 1.14137 0.25043 0.11670
 H604 H 1.07076 0.29217 0.12678
 H605 H 1.13182 0.39093 0.13587
 H606 H 1.10679 0.33169 0.17614
 C607 C 0.63613 0.85862 0.62919
 C608 C 0.62190 0.82717 0.65173
 C609 C 0.65942 0.80388 0.64561
 C610 C 0.67390 0.83516 0.62332
 C611 C 0.61595 0.83640 0.60317
 C612 C 0.65349 0.81314 0.59696
 C613 C 0.60142 0.80513 0.62547
 C614 C 0.63936 0.78144 0.61967
 C615 C 0.68329 0.78791 0.67041
 C616 C 0.70222 0.77649 0.69176
 C617 C 0.59227 0.85798 0.58094
 C618 C 0.57411 0.87955 0.56449
 H619 H 0.63462 0.89059 0.63302
 H620 H 0.60915 0.83292 0.67449
 H621 H 0.70390 0.84743 0.62268
 H622 H 0.66621 0.80745 0.57419
 H623 H 0.57141 0.79289 0.62614
 H624 H 0.64100 0.74946 0.61600
 C625 C 1.14472 0.63974 -0.12514
 C626 C 1.13084 0.67224 -0.14686
 C627 C 1.16888 0.69466 -0.14055
 C628 C 1.18302 0.66233 -0.11908
 C629 C 1.12527 0.66137 -0.09849
 C630 C 1.16333 0.68375 -0.09207
 C631 C 1.11110 0.69369 -0.11999
 C632 C 1.14954 0.71650 -0.11399
 C633 C 1.19218 0.71126 -0.16545
 C634 C 1.20987 0.72338 -0.18723
 C635 C 1.10101 0.63962 -0.07670
 C636 C 1.08180 0.61820 -0.06083
 H637 H 1.14253 0.60796 -0.12966
 H638 H 1.11770 0.66754 -0.16962
 H639 H 1.21280 0.64956 -0.11895
 H640 H 1.17641 0.68840 -0.06929
 H641 H 1.08133 0.70647 -0.12018
 H642 H 1.15186 0.74830 -0.10964
 C643 C 0.61189 1.19337 0.37976
 C644 C 0.65071 1.21541 0.38602
 C645 C 0.66998 1.19301 0.35970
 C646 C 0.63156 1.17136 0.35314
 C647 C 0.62507 1.16089 0.40149
 C648 C 0.64445 1.13872 0.37508
 C649 C 0.66349 1.18251 0.40817
 C650 C 0.68312 1.16053 0.38141
 C651 C 0.69409 1.20883 0.33495
 C652 C 0.71247 1.22034 0.31330
 C653 C 0.60020 1.13955 0.42310
 C654 C 0.58070 1.11825 0.43886
 H655 H 0.58240 1.20678 0.37928
 H656 H 0.65360 1.24719 0.39028
 H657 H 0.61863 1.16679 0.33028
 H658 H 0.64167 1.10696 0.37066
 H659 H 0.67634 1.18704 0.43105
 H660 H 0.71260 1.14711 0.38187
 C661 C 0.84253 0.69194 0.09652
 C662 C 0.82105 0.67092 0.12287
 C663 C 0.83839 0.70046 0.14543
 C664 C 0.85954 0.72190 0.11951
 C665 C 0.87828 0.66568 0.10182
 C666 C 0.89564 0.69521 0.12439
 C667 C 0.85702 0.64445 0.12782
 C668 C 0.87410 0.67416 0.15062
 C669 C 0.81624 0.71765 0.17080
 C670 C 0.79812 0.72974 0.19242
 C671 C 0.90033 0.64312 0.07904
 C672 C 0.91771 0.62109 0.06236
 H673 H 0.82973 0.69916 0.07405
 H674 H 0.79018 0.66100 0.12249
 H675 H 0.86033 0.75399 0.11634
 H676 H 0.92650 0.70511 0.12481
 H677 H 0.85609 0.61237 0.13113
 H678 H 0.88690 0.66687 0.17308
 C679 C 0.35708 1.14256 0.62821
 C680 C 0.37199 1.17490 0.64972
 C681 C 0.33381 1.19745 0.64446
 C682 C 0.31867 1.16527 0.62319
 C683 C 0.37552 1.16424 0.60116
 C684 C 0.33732 1.18676 0.59579
 C685 C 0.39071 1.19642 0.62243
 C686 C 0.35212 1.21937 0.61749
 C687 C 0.31089 1.21371 0.66976
 C688 C 0.29250 1.22521 0.69142
 C689 C 0.39850 1.14229 0.57861
 C690 C 0.41652 1.12052 0.56215
 H691 H 0.35928 1.11074 0.63254
 H692 H 0.38603 1.17006 0.67213
 H693 H 0.28886 1.15255 0.62372
 H694 H 0.32330 1.19156 0.57338
 H695 H 0.42051 1.20914 0.62191
 H696 H 0.34979 1.25120 0.61332
 C697 C 0.85347 0.36035 -0.12920
 C698 C 0.86799 0.32883 -0.15159
 C699 C 0.83064 0.30519 -0.14543
 C700 C 0.81586 0.33654 -0.12329
 C701 C 0.87381 0.33855 -0.10307
 C702 C 0.83645 0.31496 -0.09680
 C703 C 0.88861 0.30722 -0.12523
 C704 C 0.85089 0.28320 -0.11937
 C705 C 0.80754 0.28838 -0.17041
 C706 C 0.79002 0.27600 -0.19222
 C707 C 0.89768 0.36023 -0.08091
 C708 C 0.91630 0.38159 -0.06451
 H709 H 0.85473 0.39229 -0.13317
 H710 H 0.88075 0.33453 -0.17434
 H711 H 0.78576 0.34851 -0.12271
 H712 H 0.82373 0.30935 -0.07402
 H713 H 0.91872 0.29528 -0.12586
 H714 H 0.84952 0.25125 -0.11555
 C715 C 0.38965 0.80588 0.37548
 C716 C 0.35169 0.78219 0.38124
 C717 C 0.33194 0.80395 0.35484
 C718 C 0.36952 0.82723 0.34877
 C719 C 0.37475 0.83763 0.39723
 C720 C 0.35491 0.85916 0.37075
 C721 C 0.33717 0.81437 0.40343
 C722 C 0.31708 0.83570 0.37659
 C723 C 0.30885 0.78727 0.32983
 C724 C 0.29118 0.77517 0.30802
 C725 C 0.39831 0.85968 0.41933
 C726 C 0.41665 0.88131 0.43568
 H727 H 0.41969 0.79374 0.37522
 H728 H 0.35006 0.75029 0.38533
 H729 H 0.38262 0.83248 0.32607
 H730 H 0.35642 0.89103 0.36651
 H731 H 0.32413 0.80915 0.42615
 H732 H 0.28705 0.84785 0.37682
 C733 C 1.12119 1.12291 0.35016
 C734 C 1.15073 1.15452 0.36012
 C735 C 1.17634 1.14383 0.33282
 C736 C 1.14710 1.11258 0.32251
 C737 C 1.14371 1.09282 0.36910
 C738 C 1.16937 1.08201 0.34181
 C739 C 1.17300 1.12411 0.37937
 C740 C 1.19902 1.11382 0.35172
 C741 C 1.19368 1.17256 0.31272
 C742 C 1.20806 1.19586 0.29584
 C743 C 1.12390 1.06690 0.39019
 C744 C 1.10584 1.04900 0.40887
 H745 H 1.08895 1.12624 0.34974
 H746 H 1.14350 1.18469 0.36733
 H747 H 1.13665 1.10842 0.29886
 H748 H 1.17681 1.05190 0.33461
 H749 H 1.18335 1.12844 0.40303
 H750 H 1.23128 1.11067 0.35210
 C751 C 0.66476 0.59041 -0.15378
 C752 C 0.64906 0.60976 -0.18316
 C753 C 0.66491 0.64904 -0.17185
 C754 C 0.68099 0.63019 -0.14292
 C755 C 0.62590 0.59995 -0.13820
 C756 C 0.64181 0.63931 -0.12703
 C757 C 0.60977 0.61881 -0.16714
 C758 C 0.62607 0.65855 -0.15627
 C759 C 0.68651 0.67643 -0.19018
 C760 C 0.70415 0.69859 -0.20587
 C761 C 0.60472 0.57497 -0.11758
 C762 C 0.58786 0.55733 -0.09827
 H763 H 0.68005 0.56194 -0.15252
 H764 H 0.65254 0.59831 -0.20660
 H765 H 0.71047 0.63546 -0.13328
 H766 H 0.63849 0.65108 -0.10367
 H767 H 0.58028 0.61356 -0.17678
 H768 H 0.61063 0.68696 -0.15753
 C769 C 0.88164 1.11428 0.65570
 C770 C 0.89238 1.14512 0.68002
 C771 C 0.85961 1.17128 0.66777
 C772 C 0.84851 1.14079 0.64382
 C773 C 0.91000 1.13421 0.63362
 C774 C 0.87720 1.16045 0.62146
 C775 C 0.92125 1.16472 0.65755
 C776 C 0.88793 1.19131 0.64572
 C777 C 0.83108 1.19111 0.68661
 C778 C 0.80780 1.20702 0.70266
 C779 C 0.93526 1.11274 0.61308
 C780 C 0.95249 1.09430 0.59427
 H781 H 0.87959 1.08238 0.65963
 H782 H 0.89803 1.13916 0.70441
 H783 H 0.81829 1.13133 0.63839
 H784 H 0.87152 1.16649 0.59709
 H785 H 0.95151 1.17410 0.66290
 H786 H 0.88988 1.22323 0.64184
 C787 C 0.41662 0.65819 0.15799
 C788 C 0.38494 0.68685 0.14645
 C789 C 0.35544 0.66768 0.16796
 C790 C 0.38657 0.63945 0.17993
 C791 C 0.40395 0.62908 0.13348
 C792 C 0.37440 0.60997 0.15501
 C793 C 0.37277 0.65735 0.12160
 C794 C 0.34286 0.63858 0.14344
 C795 C 0.32815 0.68861 0.18690
 C796 C 0.30585 0.70548 0.20303
 C797 C 0.42859 0.60746 0.11285
 C798 C 0.44583 0.58944 0.09394
 H799 H 0.44730 0.66570 0.16365
 H800 H 0.38858 0.71875 0.14323
 H801 H 0.39159 0.63251 0.20425
 H802 H 0.37062 0.57809 0.15825
 H803 H 0.36756 0.66429 0.09730
 H804 H 0.31219 0.63102 0.13777
 C805 C 1.12042 0.87901 0.65412
 C806 C 1.10929 0.85115 0.68038
 C807 C 1.14189 0.82347 0.67004
 C808 C 1.15337 0.85102 0.64414
 C809 C 1.09198 0.85693 0.63334
 C810 C 1.12462 0.82919 0.62308
 C811 C 1.08035 0.82936 0.65921
 C812 C 1.11351 0.80126 0.64931
 C813 C 1.17023 0.80563 0.69019
 C814 C 1.19335 0.79100 0.70705
 C815 C 1.06705 0.87702 0.61177
 C816 C 1.05021 0.89516 0.59260
 H817 H 1.12281 0.91122 0.65590
 H818 H 1.10356 0.85990 0.70425
 H819 H 1.18370 0.85957 0.63820
 H820 H 1.13045 0.82037 0.59923
 H821 H 1.05001 0.82079 0.66507
 H822 H 1.11125 0.76904 0.64757
 C823 C 0.64226 0.33904 0.12341
 C824 C 0.67091 0.35705 0.14664
 C825 C 0.65526 0.32869 0.17061
 C826 C 0.62701 0.31029 0.14773
 C827 C 0.61120 0.36851 0.13362
 C828 C 0.59550 0.34014 0.15757
 C829 C 0.63950 0.38687 0.15650
 C830 C 0.62425 0.35812 0.18088
 C831 C 0.68007 0.30707 0.19092
 C832 C 0.70072 0.28973 0.20795
 C833 C 0.58835 0.39049 0.11211
 C834 C 0.57141 0.40836 0.09301
 H835 H 0.64921 0.33160 0.09946
 H836 H 0.70224 0.36348 0.14252
 H837 H 0.62257 0.27848 0.14453
 H838 H 0.56418 0.33370 0.16170
 H839 H 0.64412 0.41864 0.15975
 H840 H 0.61744 0.36547 0.20487
 C841 C 0.83682 0.88060 0.37572
 C842 C 0.80798 0.89187 0.35015
 C843 C 0.82765 0.86160 0.32954
 C844 C 0.85611 0.84999 0.35480
 C845 C 0.86557 0.91136 0.36371
 C846 C 0.88513 0.88105 0.34306
 C847 C 0.83710 0.92314 0.33846
 C848 C 0.85633 0.89231 0.31742
 C849 C 0.80744 0.83317 0.31084
 C850 C 0.79138 0.80985 0.29492
 C851 C 0.88751 0.93601 0.38442
 C852 C 0.90624 0.95236 0.40354
 H853 H 0.82903 0.87621 0.39997
 H854 H 0.77598 0.89573 0.35283
 H855 H 0.86354 0.81961 0.36128
 H856 H 0.91711 0.87712 0.34032
 H857 H 0.82969 0.95353 0.33203
 H858 H 0.86406 0.89656 0.29315
 C859 C 0.33990 0.40764 -0.15470
 C860 C 0.35803 0.37734 -0.17667
 C861 C 0.32660 0.34802 -0.16696
 C862 C 0.30802 0.37783 -0.14541
 C863 C 0.36603 0.39171 -0.12933
 C864 C 0.33457 0.36237 -0.11964
 C865 C 0.38451 0.36185 -0.15090
 C866 C 0.35271 0.33216 -0.14157
 C867 C 0.30553 0.32324 -0.18774
 C868 C 0.28871 0.30249 -0.20508
 C869 C 0.38850 0.41434 -0.10789
 C870 C 0.40748 0.43103 -0.08925
 H871 H 0.33515 0.43900 -0.15967
 H872 H 0.36720 0.38299 -0.20045
 H873 H 0.27624 0.38375 -0.14354
 H874 H 0.32529 0.35671 -0.09588
 H875 H 0.41624 0.35570 -0.15281
 H876 H 0.35755 0.30081 -0.13655
 C877 C 1.13495 0.35749 -0.13001
 C878 C 1.17262 0.33380 -0.12428
 C879 C 1.15756 0.30225 -0.14616
 C880 C 1.12016 0.32578 -0.15214
 C881 C 1.11497 0.33587 -0.10360
 C882 C 1.09987 0.30434 -0.12549
 C883 C 1.15241 0.31239 -0.09753
 C884 C 1.13769 0.28043 -0.11983
 C885 C 1.18098 0.28552 -0.17098
 C886 C 1.19969 0.27360 -0.19232
 C887 C 1.09166 0.35780 -0.08125
 C888 C 1.07370 0.37948 -0.06468
 H889 H 1.13366 0.38941 -0.13410
 H890 H 1.20272 0.34584 -0.12404
 H891 H 1.10713 0.33129 -0.17482
 H892 H 1.06977 0.29234 -0.12579
 H893 H 1.16545 0.30698 -0.07484
 H894 H 1.13914 0.24851 -0.11589
 C895 C 0.59881 0.81528 0.36752
 C896 C 0.62913 0.83707 0.34772
 C897 C 0.65869 0.80418 0.35347
 C898 C 0.62872 0.78201 0.37297
 C899 C 0.61460 0.83651 0.39574
 C900 C 0.64415 0.80363 0.40162
 C901 C 0.64464 0.85849 0.37614
 C902 C 0.67449 0.82542 0.38166
 C903 C 0.68309 0.78837 0.32883
 C904 C 0.70262 0.77717 0.30768
 C905 C 0.59076 0.85799 0.41804
 C906 C 0.57264 0.87947 0.43466
 H907 H 0.56749 0.81120 0.36188
 H908 H 0.62320 0.85080 0.32537
 H909 H 0.62246 0.75031 0.37142
 H910 H 0.65003 0.78997 0.42401
 H911 H 0.65105 0.89017 0.37755
 H912 H 0.70583 0.82954 0.38724
 C913 C 0.89252 0.69278 -0.12495
 C914 C 0.87017 0.67107 -0.15044
 C915 C 0.83467 0.69761 -0.14503
 C916 C 0.85665 0.71969 -0.11985
 C917 C 0.87577 0.66394 -0.10159
 C918 C 0.84024 0.69044 -0.09608
 C919 C 0.85370 0.64205 -0.12685
 C920 C 0.81794 0.66875 -0.12169
 C921 C 0.81206 0.71441 -0.17032
 C922 C 0.79394 0.72648 -0.19194
 C923 C 0.89850 0.64200 -0.07883
 C924 C 0.91638 0.62038 -0.06215
 H925 H 0.92338 0.70259 -0.12611
 H926 H 0.88229 0.66312 -0.17300
 H927 H 0.85761 0.75187 -0.11720
 H928 H 0.82812 0.69834 -0.07351
 H929 H 0.85260 0.60989 -0.12965
 H930 H 0.78707 0.65892 -0.12058
 C931 C 0.34068 1.19048 0.40453
 C932 C 0.35719 1.22054 0.38142
 C933 C 0.33623 1.19865 0.35562
 C934 C 0.31938 1.16902 0.37830
 C935 C 0.37676 1.16470 0.39918
 C936 C 0.35568 1.14303 0.37330
 C937 C 0.39362 1.19433 0.37649
 C938 C 0.37227 1.17283 0.35038
 C939 C 0.31383 1.21534 0.33024
 C940 C 0.29566 1.22715 0.30860
 C941 C 0.39920 1.14249 0.42185
 C942 C 0.41689 1.12061 0.43840
 H943 H 0.32790 1.19764 0.42703
 H944 H 0.35756 1.25266 0.38451
 H945 H 0.28865 1.15870 0.37880
 H946 H 0.35517 1.11092 0.37007
 H947 H 0.42435 1.20464 0.37596
 H948 H 0.38508 1.16561 0.32790
 C949 C 1.14497 0.63859 0.12519
 C950 C 1.18365 0.66049 0.11905
 C951 C 1.17029 0.69294 0.14077
 C952 C 1.13187 0.67120 0.14714
 C953 C 1.12571 0.66076 0.09875
 C954 C 1.11234 0.69319 0.12048
 C955 C 1.16415 0.68245 0.09225
 C956 C 1.15116 0.71531 0.11440
 C957 C 1.19405 0.70905 0.16564
 C958 C 1.21205 0.72090 0.18738
 C959 C 1.10088 0.63958 0.07696
 C960 C 1.08131 0.61844 0.06108
 H961 H 1.14223 0.60683 0.12956
 H962 H 1.21316 0.64714 0.11869
 H963 H 1.11880 0.66657 0.16994
 H964 H 1.08283 0.70655 0.12089
 H965 H 1.17717 0.68700 0.06943
 H966 H 1.15402 0.74709 0.11018
 C967 C 0.66484 1.18296 0.59134
 C968 C 0.65173 1.21540 0.61383
 C969 C 0.67138 1.19289 0.63989
 C970 C 0.68484 1.16087 0.61785
 C971 C 0.62671 1.16078 0.59791
 C972 C 0.64646 1.13850 0.62407
 C973 C 0.61321 1.19280 0.61998
 C974 C 0.63325 1.17068 0.64634
 C975 C 0.69521 1.20883 0.66477
 C976 C 0.71315 1.22056 0.68657
 C977 C 0.60192 1.13947 0.57621
 C978 C 0.58236 1.11820 0.56044
 H979 H 0.67755 1.18797 0.56847
 H980 H 0.65422 1.24726 0.60985
 H981 H 0.71449 1.14783 0.61719
 H982 H 0.64409 1.10666 0.62821
 H983 H 0.58357 1.20584 0.62067
 H984 H 0.62046 1.16565 0.66919
 C985 C 0.83877 0.31390 0.09791
 C986 C 0.85397 0.28201 0.12003
 C987 C 0.83390 0.30339 0.14651
 C988 C 0.81837 0.33485 0.12482
 C989 C 0.87593 0.33788 0.10403
 C990 C 0.85576 0.35905 0.13058
 C991 C 0.89149 0.30642 0.12572
 C992 C 0.87104 0.32740 0.15250
 C993 C 0.81118 0.28619 0.17152
 C994 C 0.79361 0.27375 0.19327
 C995 C 0.89913 0.36013 0.08181
 C996 C 0.91725 0.38177 0.06531
 H997 H 0.82575 0.30846 0.07521
 H998 H 0.85293 0.25009 0.11593
 H999 H 0.78810 0.34642 0.12468
 H1000 H 0.85667 0.39095 0.13484
 H1001 H 0.92175 0.29485 0.12591
 H1002 H 0.88412 0.33291 0.17518
 C1003 C 0.38909 0.82199 0.63328
 C1004 C 0.35510 0.84219 0.65022
 C1005 C 0.32967 0.80580 0.64524
 C1006 C 0.36337 0.78524 0.62858
 C1007 C 0.37366 0.83859 0.60317
 C1008 C 0.34826 0.80218 0.59802
 C1009 C 0.33989 0.85898 0.61991
 C1010 C 0.31414 0.82237 0.61516
 C1011 C 0.30604 0.78958 0.67013
 C1012 C 0.28809 0.77774 0.69188
 C1013 C 0.39782 0.86016 0.58119
 C1014 C 0.41657 0.88154 0.56494
 H1015 H 0.42012 0.82193 0.64057
 H1016 H 0.35767 0.85862 0.67187
 H1017 H 0.37276 0.75465 0.63239
 H1018 H 0.34577 0.78584 0.57633
 H1019 H 0.33040 0.88956 0.61621
 H1020 H 0.28308 0.82242 0.60795
 C1021 C 0.31454 1.16623 -0.09453
 C1022 C 0.33562 1.18543 -0.12191
 C1023 C 0.30344 1.17007 -0.14311
 C1024 C 0.28195 1.15120 -0.11617
 C1025 C 0.33758 1.12844 -0.10027
 C1026 C 0.30542 1.11307 -0.12149
 C1027 C 0.35888 1.14742 -0.12729
 C1028 C 0.32653 1.13231 -0.14874
 C1029 C 0.28630 1.19246 -0.16831
 C1030 C 0.27379 1.20970 -0.19017
 C1031 C 0.35963 1.10519 -0.07797
 C1032 C 0.38116 1.08670 -0.06166
 H1033 H 0.30969 1.17995 -0.07200
 H1034 H 0.34793 1.21538 -0.12232
 H1035 H 0.25008 1.15304 -0.11181
 H1036 H 0.29311 1.08312 -0.12112
 H1037 H 0.39073 1.14568 -0.13179
 H1038 H 0.33145 1.11856 -0.17125
 C1039 C 0.86084 0.64970 0.37366
 C1040 C 0.82844 0.63598 0.35172
 C1041 C 0.80625 0.67417 0.35776
 C1042 C 0.83849 0.68814 0.37947
 C1043 C 0.83870 0.63055 0.40019
 C1044 C 0.81655 0.66875 0.40636
 C1045 C 0.80647 0.61655 0.37847
 C1046 C 0.78389 0.65513 0.38421
 C1047 C 0.79007 0.69750 0.33269
 C1048 C 0.77817 0.71516 0.31081
 C1049 C 0.86009 0.60630 0.42222
 C1050 C 0.88134 0.58718 0.43831
 H1051 H 0.89270 0.64726 0.36940
 H1052 H 0.83333 0.62271 0.32903
 H1053 H 0.85157 0.71776 0.37967
 H1054 H 0.81171 0.68196 0.42907
 H1055 H 0.79339 0.58693 0.37825
 H1056 H 0.75202 0.65768 0.38834
 C1057 C 0.69602 1.10263 0.12686
 C1058 C 0.72074 1.14008 0.12178
 C1059 C 0.69936 1.15962 0.14849
 C1060 C 0.67502 1.12258 0.15389
 C1061 C 0.66472 1.11888 0.10528
 C1062 C 0.64354 1.13854 0.13207
 C1063 C 0.68902 1.15596 0.09979
 C1064 C 0.66805 1.17582 0.12691
 C1065 C 0.71653 1.18221 0.17363
 C1066 C 0.72869 1.20046 0.19516
 C1067 C 0.64228 1.09658 0.08256
 C1068 C 0.62035 1.07934 0.06569
 H1069 H 0.70741 1.07235 0.12665
 H1070 H 0.75273 1.14098 0.11778
 H1071 H 0.66930 1.10905 0.17636
 H1072 H 0.61157 1.13778 0.13622
 H1073 H 0.69468 1.16948 0.07732
 H1074 H 0.65663 1.20612 0.12717
 C1075 C 1.18921 0.65657 0.59897
 C1076 C 1.16742 0.67756 0.62518
 C1077 C 1.19753 0.66156 0.64783
 C1078 C 1.21975 0.64091 0.62206
 C1079 C 1.16414 0.62004 0.60453
 C1080 C 1.19426 0.60399 0.62718
 C1081 C 1.14215 0.64081 0.63039
 C1082 C 1.17244 0.62505 0.65328
 C1083 C 1.21379 0.68459 0.67305
 C1084 C 1.22521 0.70324 0.69459
 C1085 C 1.14208 0.59736 0.58186
 C1086 C 1.12025 0.57985 0.56512
 H1087 H 1.19602 0.66931 0.57641
 H1088 H 1.15648 0.70802 0.62460
 H1089 H 1.25191 0.64123 0.61888
 H1090 H 1.20519 0.57354 0.62778
 H1091 H 1.11002 0.64064 0.63373
 H1092 H 1.16559 0.61227 0.67583
 C1093 C 0.63853 0.86040 -0.12915
 C1094 C 0.67182 0.87322 -0.15063
 C1095 C 0.69299 0.83460 -0.14409
 C1096 C 0.65987 0.82152 -0.12287
 C1097 C 0.66040 0.87924 -0.10235
 C1098 C 0.68152 0.84061 -0.09572
 C1099 C 0.69350 0.89238 -0.12359
 C1100 C 0.71505 0.85335 -0.11737
 C1101 C 0.70932 0.81055 -0.16870
 C1102 C 0.72131 0.79220 -0.19020
 C1103 C 0.63903 0.90377 -0.08049
 C1104 C 0.61782 0.92276 -0.06425
 H1105 H 0.60685 0.86352 -0.13392
 H1106 H 0.66785 0.88643 -0.17344
 H1107 H 0.64613 0.79219 -0.12279
 H1108 H 0.68542 0.82745 -0.07289
 H1109 H 0.70720 0.92172 -0.12371
 H1110 H 0.74675 0.85010 -0.11276
 C1111 C 1.13879 0.35829 0.37248
 C1112 C 1.17113 0.37114 0.35016
 C1113 C 1.19348 0.33335 0.35722
 C1114 C 1.16132 0.32024 0.37930
 C1115 C 1.16087 0.37874 0.39844
 C1116 C 1.18320 0.34095 0.40561
 C1117 C 1.19302 0.39190 0.37635
 C1118 C 1.21578 0.35371 0.38310
 C1119 C 1.20969 0.30899 0.33278
 C1120 C 1.22156 0.29062 0.31126
 C1121 C 1.13938 0.40356 0.42000
 C1122 C 1.11804 0.42269 0.43601
 H1123 H 1.10692 0.36042 0.36817
 H1124 H 1.16619 0.38332 0.32712
 H1125 H 1.14838 0.29059 0.38031
 H1126 H 1.18807 0.32886 0.42868
 H1127 H 1.20593 0.42157 0.37531
 H1128 H 1.24767 0.35148 0.38725
 C1129 C 0.31386 0.84176 0.09466
 C1130 C 0.33592 0.82288 0.12166
 C1131 C 0.30371 0.83704 0.14333
 C1132 C 0.28124 0.85557 0.11675
 C1133 C 0.33592 0.88014 0.10042
 C1134 C 0.30372 0.89433 0.12210
 C1135 C 0.35819 0.86148 0.12708
 C1136 C 0.32582 0.87538 0.14899
 C1137 C 0.28772 0.81342 0.16833
 C1138 C 0.27622 0.79460 0.18976
 C1139 C 0.35728 0.90390 0.07802
 C1140 C 0.37872 0.92247 0.06166
 H1141 H 0.30900 0.82816 0.07208
 H1142 H 0.34912 0.79332 0.12171
 H1143 H 0.24935 0.85282 0.11275
 H1144 H 0.29057 0.92390 0.12209
 H1145 H 0.39007 0.86409 0.13123
 H1146 H 0.33076 0.88901 0.17155
 C1147 C 0.81383 0.34195 0.59436
 C1148 C 0.83564 0.32368 0.62172
 C1149 C 0.80293 0.33776 0.64296
 C1150 C 0.78069 0.35568 0.61601
 C1151 C 0.83538 0.38064 0.60004
 C1152 C 0.80267 0.39477 0.62128
 C1153 C 0.85740 0.36258 0.62707
 C1154 C 0.82452 0.37641 0.64854
 C1155 C 0.78703 0.31417 0.66800
 C1156 C 0.77574 0.29528 0.68945
 C1157 C 0.85698 0.40425 0.57769
 C1158 C 0.87859 0.42271 0.56140
 H1159 H 0.80949 0.32802 0.57184
 H1160 H 0.84914 0.29426 0.62213
 H1161 H 0.74890 0.35255 0.61171
 H1162 H 0.78919 0.42419 0.62088
 H1163 H 0.88917 0.36557 0.63153
 H1164 H 0.82890 0.39038 0.67104
 C1165 C 1.16052 1.12375 0.62429
 C1166 C 1.13940 1.15225 0.64592
 C1167 C 1.16935 1.14230 0.67052
 C1168 C 1.19082 1.11418 0.64921
 C1169 C 1.13467 1.09057 0.63632
 C1170 C 1.16464 1.08048 0.66091
 C1171 C 1.11326 1.11873 0.65767
 C1172 C 1.14356 1.10918 0.68268
 C1173 C 1.18824 1.17139 0.68914
 C1174 C 1.20395 1.19481 0.70502
 C1175 C 1.11468 1.06481 0.61551
 C1176 C 1.09736 1.04747 0.59625
 H1177 H 1.16720 1.12922 0.59998
 H1178 H 1.12948 1.18213 0.64008
 H1179 H 1.22296 1.11303 0.64601
 H1180 H 1.17447 1.05058 0.66674
 H1181 H 1.08113 1.11998 0.66091
 H1182 H 1.13695 1.10388 0.70702
 C1183 C 0.67315 0.63095 0.11965
 C1184 C 0.65224 0.66181 0.13946
 C1185 C 0.67699 0.64885 0.16663
 C1186 C 0.69829 0.61840 0.14719
 C1187 C 0.64218 0.60092 0.12910
 C1188 C 0.66695 0.58787 0.15626
 C1189 C 0.62100 0.63143 0.14859
 C1190 C 0.64606 0.61884 0.17611
 C1191 C 0.69552 0.67591 0.18743
 C1192 C 0.71055 0.69820 0.20476
 C1193 C 0.62158 0.57629 0.10758
 C1194 C 0.60334 0.55860 0.08890
 H1195 H 0.68402 0.63540 0.09614
 H1196 H 0.64657 0.69254 0.13290
 H1197 H 0.73036 0.61366 0.14695
 H1198 H 0.67267 0.55715 0.16280
 H1199 H 0.58896 0.63634 0.14891
 H1200 H 0.63524 0.61442 0.19964
 C1201 C 1.08725 0.83646 0.33943
 C1202 C 1.11772 0.85600 0.31827
 C1203 C 1.14824 0.82635 0.32903
 C1204 C 1.11830 0.80636 0.34975
 C1205 C 1.10053 0.86358 0.36512
 C1206 C 1.13108 0.83386 0.37580
 C1207 C 1.13051 0.88345 0.34437
 C1208 C 1.16139 0.85344 0.35474
 C1209 C 1.17527 0.80637 0.30924
 C1210 C 1.19747 0.79018 0.29259
 C1211 C 1.07647 0.88493 0.38637
 C1212 C 1.05962 0.90302 0.40548
 H1213 H 1.05642 0.82996 0.33349
 H1214 H 1.11280 0.86466 0.29429
 H1215 H 1.11400 0.77437 0.35162
 H1216 H 1.13608 0.82504 0.39975
 H1217 H 1.13509 0.91540 0.34243
 H1218 H 1.19219 0.86004 0.36074
 C1219 C 0.62661 0.38072 -0.15607
 C1220 C 0.65861 0.35174 -0.14596
 C1221 C 0.64583 0.32406 -0.17144
 C1222 C 0.61420 0.35273 -0.18193
 C1223 C 0.59762 0.36012 -0.13488
 C1224 C 0.58472 0.33243 -0.16033
 C1225 C 0.62930 0.33141 -0.12447
 C1226 C 0.61689 0.30336 -0.15027
 C1227 C 0.67325 0.30469 -0.19144
 C1228 C 0.69588 0.28901 -0.20812
 C1229 C 0.57338 0.38107 -0.11335
 C1230 C 0.55676 0.39926 -0.09409
 H1231 H 0.63009 0.41279 -0.15821
 H1232 H 0.68932 0.35928 -0.14038
 H1233 H 0.60857 0.36120 -0.20586
 H1234 H 0.55402 0.32486 -0.16588
 H1235 H 0.63501 0.32290 -0.10055
 H1236 H 0.61350 0.27128 -0.14818
 C1237 C 0.91997 1.16265 0.34252
 C1238 C 0.89017 1.14205 0.32138
 C1239 C 0.85813 1.16920 0.33345
 C1240 C 0.88736 1.19022 0.35416
 C1241 C 0.90920 1.13373 0.36767
 C1242 C 0.87712 1.16093 0.37966
 C1243 C 0.87994 1.11279 0.34693
 C1244 C 0.84749 1.14029 0.35861
 C1245 C 0.82961 1.18847 0.31459
 C1246 C 0.80673 1.20438 0.29841
 C1247 C 0.93489 1.11321 0.38816
 C1248 C 0.95245 1.09527 0.40692
 H1249 H 0.95014 1.17132 0.33627
 H1250 H 0.89490 1.13468 0.29709
 H1251 H 0.88966 1.22232 0.35685
 H1252 H 0.87238 1.16844 0.40392
 H1253 H 0.87743 1.08069 0.34421
 H1254 H 0.81736 1.13144 0.36491
 C1255 C 0.41288 0.65911 -0.15609
 C1256 C 0.38335 0.64171 -0.17912
 C1257 C 0.35219 0.66996 -0.16713
 C1258 C 0.38120 0.68778 -0.14450
 C1259 C 0.39901 0.62917 -0.13258
 C1260 C 0.36779 0.65746 -0.12065
 C1261 C 0.36995 0.61141 -0.15521
 C1262 C 0.33840 0.64003 -0.14360
 C1263 C 0.32568 0.69185 -0.18630
 C1264 C 0.30377 0.70906 -0.20264
 C1265 C 0.42312 0.60643 -0.11209
 C1266 C 0.44050 0.58784 -0.09349
 H1267 H 0.44381 0.66650 -0.16097
 H1268 H 0.38921 0.63560 -0.20347
 H1269 H 0.38529 0.71945 -0.14036
 H1270 H 0.36177 0.66349 -0.09632
 H1271 H 0.36579 0.57975 -0.15938
 H1272 H 0.30745 0.63267 -0.13870
 C1273 C 0.83437 0.86996 0.62060
 C1274 C 0.85439 0.84009 0.64175
 C1275 C 0.82744 0.85332 0.66755
 C1276 C 0.80701 0.88279 0.64675
 C1277 C 0.86399 0.90084 0.63094
 C1278 C 0.83703 0.91416 0.65671
 C1279 C 0.88432 0.87131 0.65176
 C1280 C 0.85703 0.88416 0.67793
 C1281 C 0.80773 0.82664 0.68777
 C1282 C 0.79155 0.80487 0.70475
 C1283 C 0.88525 0.92499 0.60970
 C1284 C 0.90381 0.94197 0.59093
 H1285 H 0.82546 0.86465 0.59670
 H1286 H 0.86111 0.80930 0.63594
 H1287 H 0.77492 0.88681 0.64503
 H1288 H 0.83031 0.94494 0.66248
 H1289 H 0.91638 0.86712 0.65350
 H1290 H 0.86599 0.88938 0.70182
 C1291 C 0.34369 0.37200 0.12563
 C1292 C 0.36051 0.34147 0.14784
 C1293 C 0.33129 0.35542 0.17187
 C1294 C 0.31409 0.38560 0.14996
 C1295 C 0.37317 0.40194 0.13784
 C1296 C 0.34394 0.41601 0.16186
 C1297 C 0.39031 0.37173 0.15977
 C1298 C 0.36071 0.38531 0.18419
 C1299 C 0.30873 0.32884 0.19051
 C1300 C 0.29103 0.30673 0.20637
 C1301 C 0.39632 0.42537 0.11716
 C1302 C 0.41489 0.44158 0.09791
 H1303 H 0.33707 0.36696 0.10125
 H1304 H 0.36685 0.31053 0.14229
 H1305 H 0.28245 0.39068 0.14618
 H1306 H 0.33766 0.44696 0.16735
 H1307 H 0.42193 0.36657 0.16357
 H1308 H 0.36729 0.39024 0.20858
   
