data_POSCAR
  _audit_creation_date              2014-09-24
  _audit_creation_method            'ToBaCCo'
  _symmetry_space_group_name_H-M    'P1'
  _symmetry_Int_Tables_number       1
  _symmetry_cell_setting            triclinic
  loop_
  _symmetry_equiv_pos_as_xyz
 x,y,z
_cell_length_a 34.4341
_cell_length_b 34.4335
_cell_length_c 37.3906
_cell_angle_alpha 90.000000
_cell_angle_beta 90.000000
_cell_angle_gamma 89.999700
loop_
  _atom_site_label
  _atom_site_type_symbol
  _atom_site_fract_x
  _atom_site_fract_y
  _atom_site_fract_z
C1 C 0.40536 -0.00001 0.25000
 C2 C 0.09464 0.00001 0.75000
 C3 C 0.59464 0.50001 0.25000
 C4 C 0.90536 0.49999 0.75000
 C5 C 0.24999 0.34473 1.00000
 C6 C 0.75001 0.15527 1.00000
 C7 C 0.25001 0.65527 0.50000
 C8 C 0.74999 0.84473 0.50000
 C9 C 0.00000 0.25000 0.37382
 C10 C 0.00000 0.75000 0.12618
 C11 C 0.50000 0.25000 0.62618
 C12 C 0.50000 0.75000 0.87382
 C13 C -0.25001 0.65536 1.00000
 C14 C -0.24999 0.34464 0.50000
 C15 C 0.25001 -0.15535 -0.00000
 C16 C 0.24999 1.15535 0.50000
 C17 C 0.09473 0.49999 0.25000
 C18 C -0.09472 1.00001 0.25000
 C19 C 0.40527 0.50001 -0.25000
 C20 C 0.59472 -0.00001 -0.25000
 C21 C -0.00000 0.25000 0.87617
 C22 C 0.50000 0.25000 0.12383
 C23 C -0.00000 0.75000 0.62383
 C24 C 0.50000 0.75000 0.37617
 Zr25 Zr 0.03480 -0.02722 1.04885
 O26 O 0.07724 -0.00797 1.08567
 O27 O 0.02600 -0.08352 1.06581
 O28 O 0.01102 -0.02186 1.10230
 O29 O 0.10078 -0.04750 0.98003
 O30 O -0.04513 0.01218 1.09362
 O31 O 0.08989 -0.05609 1.03976
 O32 O -0.02029 -0.10698 1.02761
 O33 O -0.02544 -0.03489 1.04189
 O34 O 0.02631 -0.05650 1.00024
 O35 O 0.01035 0.02873 1.04852
 O36 O 0.06161 0.00711 1.00911
 Zr37 Zr -0.03428 0.02658 0.95095
 Zr38 Zr -0.04914 0.02087 1.03887
 Zr39 Zr 0.04986 -0.02150 0.96079
 Zr40 Zr -0.03323 -0.06211 0.99241
 O41 O 0.09872 0.00903 0.94102
 O42 O -0.08603 -0.07859 1.01736
 O43 O -0.00963 -0.02956 0.95053
 O44 O -0.06011 -0.00796 0.99066
 O45 O -0.02583 0.05628 0.99935
 O46 O 0.02589 0.03391 0.95816
 C47 C 0.00358 -0.10999 1.05369
 C48 C 0.11081 -0.06041 1.01089
 C49 C -0.02019 -0.00439 1.11383
 O50 O -0.09965 -0.00848 1.05648
 O51 O -0.09823 0.05071 1.02061
 O52 O -0.08867 0.05687 0.96048
 C53 C -0.10874 0.06278 0.98965
 O54 O 0.07998 0.06872 1.04459
 Zr55 Zr 0.03408 0.06129 1.00718
 O56 O -0.02692 0.08361 0.93542
 O57 O -0.05457 0.07466 1.06588
 O58 O 0.01909 0.10776 1.04181
 O59 O 0.08384 0.08157 0.97942
 O60 O 0.01551 0.10807 0.97672
 C61 C -0.00743 0.11097 0.94995
 O62 O -0.07754 0.00786 0.91472
 O63 O 0.05834 -0.07570 0.93508
 O64 O -0.01138 0.01990 0.89737
 O65 O 0.04285 -0.01720 0.90577
 O66 O -0.01558 -0.11060 0.96141
 O67 O -0.07368 -0.07293 0.95062
 C68 C 0.01860 0.00053 0.88566
 H69 H 0.03907 -0.08223 0.99938
 H70 H -0.08827 -0.01139 0.98633
 H71 H 0.03786 0.04909 0.93855
 H72 H 0.01541 0.04249 1.07129
 H73 H -0.08888 -0.10706 1.01449
 H74 H -0.11346 0.00929 1.07303
 H75 H -0.07869 0.07349 1.08034
 H76 H 0.03507 0.13054 1.03498
 H77 H -0.03170 -0.13308 0.96874
 H78 H 0.08292 -0.07399 0.92135
 H79 H 0.11211 -0.00855 0.92404
 H80 H 0.08554 0.10997 0.98347
 H81 H -0.08634 -0.09839 0.95456
 H82 H -0.08303 0.03021 0.89877
 H83 H 0.08285 -0.03030 1.10162
 H84 H 0.08991 0.09567 1.04326
 Zr85 Zr 0.53480 0.47278 0.54885
 O86 O 0.57724 0.49202 0.58567
 O87 O 0.52600 0.41648 0.56581
 O88 O 0.51102 0.47814 0.60230
 O89 O 0.60078 0.45250 0.48003
 O90 O 0.45486 0.51218 0.59362
 O91 O 0.58989 0.44390 0.53976
 O92 O 0.47971 0.39302 0.52761
 O93 O 0.47456 0.46510 0.54189
 O94 O 0.52631 0.44350 0.50024
 O95 O 0.51035 0.52872 0.54853
 O96 O 0.56161 0.50711 0.50911
 Zr97 Zr 0.46572 0.52658 0.45095
 Zr98 Zr 0.45086 0.52087 0.53887
 Zr99 Zr 0.54986 0.47850 0.46079
 Zr100 Zr 0.46677 0.43788 0.49241
 O101 O 0.59872 0.50903 0.44103
 O102 O 0.41397 0.42140 0.51736
 O103 O 0.49037 0.47044 0.45053
 O104 O 0.43989 0.49204 0.49066
 O105 O 0.47417 0.55628 0.49935
 O106 O 0.52589 0.53390 0.45816
 C107 C 0.50358 0.39000 0.55369
 C108 C 0.61081 0.43959 0.51089
 C109 C 0.47980 0.49561 0.61383
 O110 O 0.40034 0.49152 0.55648
 O111 O 0.40177 0.55070 0.52061
 O112 O 0.41133 0.55686 0.46048
 C113 C 0.39126 0.56278 0.48965
 O114 O 0.57998 0.56872 0.54459
 Zr115 Zr 0.53408 0.56129 0.50718
 O116 O 0.47308 0.58361 0.43542
 O117 O 0.44543 0.57466 0.56588
 O118 O 0.51909 0.60776 0.54181
 O119 O 0.58384 0.58157 0.47942
 O120 O 0.51551 0.60806 0.47672
 C121 C 0.49257 0.61097 0.44995
 O122 O 0.42246 0.50785 0.41472
 O123 O 0.55834 0.42429 0.43508
 O124 O 0.48862 0.51990 0.39737
 O125 O 0.54286 0.48279 0.40577
 O126 O 0.48443 0.38940 0.46141
 O127 O 0.42632 0.42707 0.45062
 C128 C 0.51860 0.50053 0.38566
 H129 H 0.53907 0.41776 0.49938
 H130 H 0.41173 0.48860 0.48633
 H131 H 0.53786 0.54908 0.43855
 H132 H 0.51541 0.54248 0.57129
 H133 H 0.41112 0.39293 0.51449
 H134 H 0.38654 0.50928 0.57302
 H135 H 0.42131 0.57348 0.58034
 H136 H 0.53507 0.63053 0.53498
 H137 H 0.46831 0.36691 0.46874
 H138 H 0.58292 0.42601 0.42135
 H139 H 0.61211 0.49144 0.42404
 H140 H 0.58554 0.60996 0.48347
 H141 H 0.41366 0.40161 0.45456
 H142 H 0.41697 0.53021 0.39877
 H143 H 0.58284 0.46970 0.60162
 H144 H 0.58991 0.59567 0.54327
 Zr145 Zr 0.46520 1.02722 0.54885
 O146 O 0.42275 1.00797 0.58567
 O147 O 0.47400 1.08352 0.56581
 O148 O 0.48898 1.02186 0.60230
 O149 O 0.39922 1.04750 0.48003
 O150 O 0.54513 0.98782 0.59362
 O151 O 0.41011 1.05609 0.53976
 O152 O 0.52029 1.10698 0.52761
 O153 O 0.52543 1.03489 0.54189
 O154 O 0.47368 1.05650 0.50024
 O155 O 0.48964 0.97127 0.54853
 O156 O 0.43839 0.99289 0.50911
 Zr157 Zr 0.53428 0.97342 0.45095
 Zr158 Zr 0.54914 0.97913 0.53887
 Zr159 Zr 0.45014 1.02150 0.46079
 Zr160 Zr 0.53322 1.06211 0.49241
 O161 O 0.40128 0.99097 0.44103
 O162 O 0.58602 1.07859 0.51736
 O163 O 0.50962 1.02956 0.45053
 O164 O 0.56011 1.00796 0.49066
 O165 O 0.52583 0.94372 0.49935
 O166 O 0.47411 0.96609 0.45816
 C167 C 0.49641 1.10999 0.55369
 C168 C 0.38919 1.06041 0.51089
 C169 C 0.52019 1.00439 0.61383
 O170 O 0.59965 1.00848 0.55648
 O171 O 0.59823 0.94929 0.52061
 O172 O 0.58867 0.94313 0.46048
 C173 C 0.60874 0.93722 0.48965
 O174 O 0.42002 0.93128 0.54459
 Zr175 Zr 0.46591 0.93871 0.50718
 O176 O 0.52692 0.91639 0.43542
 O177 O 0.55457 0.92534 0.56588
 O178 O 0.48091 0.89224 0.54181
 O179 O 0.41616 0.91843 0.47942
 O180 O 0.48449 0.89193 0.47672
 C181 C 0.50742 0.88903 0.44995
 O182 O 0.57754 0.99214 0.41472
 O183 O 0.44166 1.07570 0.43508
 O184 O 0.51138 0.98010 0.39737
 O185 O 0.45714 1.01720 0.40577
 O186 O 0.51557 1.11060 0.46141
 O187 O 0.57368 1.07293 0.45062
 C188 C 0.48140 0.99947 0.38566
 H189 H 0.46093 1.08223 0.49938
 H190 H 0.58826 1.01139 0.48633
 H191 H 0.46214 0.95091 0.43855
 H192 H 0.48459 0.95751 0.57129
 H193 H 0.58887 1.10706 0.51449
 H194 H 0.61346 0.99071 0.57303
 H195 H 0.57868 0.92651 0.58034
 H196 H 0.46493 0.86946 0.53498
 H197 H 0.53169 1.13308 0.46874
 H198 H 0.41707 1.07399 0.42135
 H199 H 0.38789 1.00855 0.42404
 H200 H 0.41446 0.89003 0.48347
 H201 H 0.58634 1.09839 0.45456
 H202 H 0.58303 0.96979 0.39877
 H203 H 0.41715 1.03030 0.60162
 H204 H 0.41008 0.90433 0.54327
 Zr205 Zr -0.03480 0.52722 1.04885
 O206 O -0.07724 0.50798 1.08567
 O207 O -0.02600 0.58352 1.06581
 O208 O -0.01102 0.52186 1.10230
 O209 O -0.10078 0.54750 0.98003
 O210 O 0.04514 0.48782 1.09362
 O211 O -0.08989 0.55610 1.03976
 O212 O 0.02029 0.60698 1.02761
 O213 O 0.02544 0.53490 1.04189
 O214 O -0.02631 0.55650 1.00024
 O215 O -0.01035 0.47128 1.04852
 O216 O -0.06161 0.49289 1.00911
 Zr217 Zr 0.03428 0.47342 0.95095
 Zr218 Zr 0.04914 0.47913 1.03887
 Zr219 Zr -0.04986 0.52150 0.96079
 Zr220 Zr 0.03323 0.56212 0.99241
 O221 O -0.09872 0.49097 0.94103
 O222 O 0.08603 0.57860 1.01736
 O223 O 0.00963 0.52956 0.95053
 O224 O 0.06011 0.50796 0.99066
 O225 O 0.02583 0.44372 0.99935
 O226 O -0.02588 0.46610 0.95816
 C227 C -0.00358 0.61000 1.05369
 C228 C -0.11081 0.56041 1.01089
 C229 C 0.02020 0.50439 1.11383
 O230 O 0.09966 0.50848 1.05648
 O231 O 0.09823 0.44930 1.02061
 O232 O 0.08867 0.44314 0.96048
 C233 C 0.10875 0.43722 0.98965
 O234 O -0.07998 0.43128 1.04459
 Zr235 Zr -0.03408 0.43871 1.00718
 O236 O 0.02692 0.41639 0.93542
 O237 O 0.05457 0.42534 1.06588
 O238 O -0.01909 0.39224 1.04181
 O239 O -0.08384 0.41843 0.97942
 O240 O -0.01551 0.39194 0.97672
 C241 C 0.00743 0.38903 0.94995
 O242 O 0.07754 0.49215 0.91472
 O243 O -0.05834 0.57571 0.93508
 O244 O 0.01138 0.48010 0.89737
 O245 O -0.04285 0.51721 0.90577
 O246 O 0.01558 0.61060 0.96141
 O247 O 0.07368 0.57293 0.95062
 C248 C -0.01860 0.49947 0.88566
 H249 H -0.03906 0.58224 0.99938
 H250 H 0.08827 0.51140 0.98632
 H251 H -0.03785 0.45092 0.93855
 H252 H -0.01540 0.45752 1.07129
 H253 H 0.08888 0.60707 1.01449
 H254 H 0.11347 0.49072 1.07302
 H255 H 0.07869 0.42652 1.08034
 H256 H -0.03507 0.36947 1.03498
 H257 H 0.03170 0.63309 0.96874
 H258 H -0.08292 0.57399 0.92135
 H259 H -0.11211 0.50856 0.92404
 H260 H -0.08554 0.39004 0.98347
 H261 H 0.08634 0.59839 0.95456
 H262 H 0.08303 0.46979 0.89877
 H263 H -0.08284 0.53030 1.10162
 H264 H -0.08991 0.40433 1.04327
 Zr265 Zr -0.03477 0.47277 0.45117
 O266 O -0.07721 0.49201 0.41435
 O267 O -0.02597 0.41647 0.43421
 O268 O -0.01099 0.47813 0.39771
 O269 O -0.10075 0.45249 0.51998
 O270 O 0.04516 0.51217 0.40639
 O271 O -0.08986 0.44390 0.46026
 O272 O 0.02032 0.39301 0.47241
 O273 O 0.02547 0.46510 0.45813
 O274 O -0.02629 0.44349 0.49978
 O275 O -0.01033 0.52872 0.45149
 O276 O -0.06158 0.50710 0.49091
 Zr277 Zr 0.03431 0.52657 0.54906
 Zr278 Zr 0.04917 0.52086 0.46115
 Zr279 Zr -0.04984 0.47849 0.53923
 Zr280 Zr 0.03325 0.43787 0.50760
 O281 O -0.09869 0.50902 0.55899
 O282 O 0.08606 0.42139 0.48265
 O283 O 0.00965 0.47043 0.54949
 O284 O 0.06014 0.49203 0.50936
 O285 O 0.02586 0.55627 0.50067
 O286 O -0.02586 0.53389 0.54186
 C287 C -0.00355 0.38999 0.44632
 C288 C -0.11078 0.43958 0.48913
 C289 C 0.02022 0.49560 0.38619
 O290 O 0.09968 0.49151 0.44354
 O291 O 0.09826 0.55069 0.47940
 O292 O 0.08870 0.55686 0.53954
 C293 C 0.10877 0.56277 0.51036
 O294 O -0.07996 0.56871 0.45543
 Zr295 Zr -0.03406 0.56128 0.49284
 O296 O 0.02695 0.58360 0.56460
 O297 O 0.05460 0.57465 0.43414
 O298 O -0.01906 0.60775 0.45821
 O299 O -0.08381 0.58157 0.52060
 O300 O -0.01547 0.60806 0.52330
 C301 C 0.00746 0.61096 0.55006
 O302 O 0.07757 0.50784 0.58530
 O303 O -0.05831 0.42428 0.56494
 O304 O 0.01141 0.51989 0.60265
 O305 O -0.04283 0.48278 0.59424
 O306 O 0.01560 0.38939 0.53860
 O307 O 0.07371 0.42706 0.54939
 C308 C -0.01857 0.50052 0.61436
 H309 H -0.03904 0.41775 0.50064
 H310 H 0.08829 0.48859 0.51369
 H311 H -0.03783 0.54907 0.56146
 H312 H -0.01538 0.54248 0.42872
 H313 H 0.08891 0.39292 0.48553
 H314 H 0.11349 0.50927 0.42699
 H315 H 0.07872 0.57347 0.41968
 H316 H -0.03504 0.63053 0.46503
 H317 H 0.03172 0.36690 0.53127
 H318 H -0.08290 0.42600 0.57867
 H319 H -0.11208 0.49143 0.57597
 H320 H -0.08551 0.60996 0.51655
 H321 H 0.08637 0.40160 0.54546
 H322 H 0.08306 0.53020 0.60124
 H323 H -0.08282 0.46969 0.39839
 H324 H -0.08989 0.59566 0.45675
 Zr325 Zr 0.46523 -0.02722 -0.04883
 O326 O 0.42278 -0.00798 -0.08565
 O327 O 0.47403 -0.08352 -0.06579
 O328 O 0.48900 -0.02186 -0.10229
 O329 O 0.39925 -0.04751 0.01998
 O330 O 0.54516 0.01218 -0.09361
 O331 O 0.41013 -0.05610 -0.03974
 O332 O 0.52032 -0.10699 -0.02760
 O333 O 0.52546 -0.03490 -0.04187
 O334 O 0.47371 -0.05650 -0.00022
 O335 O 0.48967 0.02872 -0.04851
 O336 O 0.43842 0.00711 -0.00909
 Zr337 Zr 0.53430 0.02658 0.04906
 Zr338 Zr 0.54917 0.02087 -0.03885
 Zr339 Zr 0.45016 -0.02151 0.03922
 Zr340 Zr 0.53325 -0.06212 0.00760
 O341 O 0.40131 0.00902 0.05899
 O342 O 0.58605 -0.07860 -0.01735
 O343 O 0.50965 -0.02957 0.04949
 O344 O 0.56014 -0.00796 0.00936
 O345 O 0.52586 0.05628 0.00067
 O346 O 0.47414 0.03390 0.04186
 C347 C 0.49644 -0.11000 -0.05368
 C348 C 0.38921 -0.06042 -0.01087
 C349 C 0.52022 -0.00440 -0.11381
 O350 O 0.59968 -0.00848 -0.05646
 O351 O 0.59826 0.05070 -0.02060
 O352 O 0.58870 0.05686 0.03953
 C353 C 0.60877 0.06277 0.01036
 O354 O 0.42004 0.06872 -0.04457
 Zr355 Zr 0.46594 0.06128 -0.00716
 O356 O 0.52694 0.08360 0.06460
 O357 O 0.55459 0.07466 -0.06586
 O358 O 0.48093 0.10776 -0.04179
 O359 O 0.41619 0.08157 0.02060
 O360 O 0.48452 0.10806 0.02330
 C361 C 0.50745 0.11097 0.05006
 O362 O 0.57757 0.00785 0.08530
 O363 O 0.44169 -0.07571 0.06494
 O364 O 0.51141 0.01989 0.10265
 O365 O 0.45717 -0.01721 0.09424
 O366 O 0.51560 -0.11061 0.03860
 O367 O 0.57371 -0.07294 0.04939
 C368 C 0.48143 0.00052 0.11436
 H369 H 0.46096 -0.08224 0.00064
 H370 H 0.58829 -0.01140 0.01369
 H371 H 0.46217 0.04908 0.06146
 H372 H 0.48462 0.04248 -0.07128
 H373 H 0.58890 -0.10707 -0.01448
 H374 H 0.61349 0.00928 -0.07301
 H375 H 0.57871 0.07348 -0.08032
 H376 H 0.46496 0.13053 -0.03496
 H377 H 0.53172 -0.13309 0.03127
 H378 H 0.41710 -0.07400 0.07866
 H379 H 0.38792 -0.00856 0.07597
 H380 H 0.41449 0.10996 0.01655
 H381 H 0.58637 -0.09840 0.04546
 H382 H 0.58306 0.03020 0.10124
 H383 H 0.41718 -0.03030 -0.10161
 H384 H 0.41011 0.09566 -0.04324
 Zr385 Zr 0.53477 0.52723 -0.04883
 O386 O 0.57722 0.50799 -0.08565
 O387 O 0.52597 0.58353 -0.06579
 O388 O 0.51099 0.52187 -0.10229
 O389 O 0.60075 0.54751 0.01998
 O390 O 0.45484 0.48783 -0.09361
 O391 O 0.58986 0.55610 -0.03974
 O392 O 0.47968 0.60699 -0.02759
 O393 O 0.47454 0.53490 -0.04187
 O394 O 0.52629 0.55651 -0.00022
 O395 O 0.51033 0.47128 -0.04851
 O396 O 0.56158 0.49290 -0.00909
 Zr397 Zr 0.46569 0.47343 0.04906
 Zr398 Zr 0.45083 0.47914 -0.03885
 Zr399 Zr 0.54984 0.52151 0.03923
 Zr400 Zr 0.46675 0.56213 0.00760
 O401 O 0.59869 0.49098 0.05899
 O402 O 0.41394 0.57861 -0.01735
 O403 O 0.49035 0.52957 0.04949
 O404 O 0.43986 0.50797 0.00936
 O405 O 0.47414 0.44373 0.00067
 O406 O 0.52586 0.46611 0.04186
 C407 C 0.50355 0.61001 -0.05368
 C408 C 0.61078 0.56042 -0.01087
 C409 C 0.47978 0.50440 -0.11381
 O410 O 0.40032 0.50849 -0.05646
 O411 O 0.40174 0.44931 -0.02060
 O412 O 0.41130 0.44314 0.03954
 C413 C 0.39123 0.43723 0.01036
 O414 O 0.57996 0.43129 -0.04457
 Zr415 Zr 0.53406 0.43872 -0.00716
 O416 O 0.47305 0.41640 0.06460
 O417 O 0.44540 0.42535 -0.06586
 O418 O 0.51907 0.39225 -0.04179
 O419 O 0.58381 0.41844 0.02060
 O420 O 0.51548 0.39194 0.02330
 C421 C 0.49254 0.38904 0.05006
 O422 O 0.42243 0.49216 0.08530
 O423 O 0.55831 0.57572 0.06494
 O424 O 0.48859 0.48011 0.10265
 O425 O 0.54283 0.51722 0.09424
 O426 O 0.48440 0.61061 0.03860
 O427 O 0.42629 0.57294 0.04939
 C428 C 0.51857 0.49948 0.11436
 H429 H 0.53904 0.58225 0.00064
 H430 H 0.41171 0.51141 0.01369
 H431 H 0.53783 0.45093 0.06146
 H432 H 0.51538 0.45752 -0.07128
 H433 H 0.41109 0.60708 -0.01447
 H434 H 0.38651 0.49073 -0.07301
 H435 H 0.42129 0.42653 -0.08032
 H436 H 0.53504 0.36947 -0.03497
 H437 H 0.46828 0.63310 0.03127
 H438 H 0.58290 0.57400 0.07867
 H439 H 0.61208 0.50857 0.07597
 H440 H 0.58551 0.39004 0.01655
 H441 H 0.41363 0.59840 0.04546
 H442 H 0.41694 0.46980 0.10124
 H443 H 0.58282 0.53031 -0.10161
 H444 H 0.58989 0.40434 -0.04325
 Zr445 Zr 0.03477 1.02722 0.45117
 O446 O 0.07722 1.00798 0.41435
 O447 O 0.02597 1.08352 0.43421
 O448 O 0.01100 1.02186 0.39771
 O449 O 0.10075 1.04751 0.51998
 O450 O -0.04516 0.98782 0.40639
 O451 O 0.08986 1.05610 0.46026
 O452 O -0.02032 1.10699 0.47241
 O453 O -0.02546 1.03490 0.45813
 O454 O 0.02629 1.05650 0.49978
 O455 O 0.01033 0.97128 0.45149
 O456 O 0.06158 0.99289 0.49091
 Zr457 Zr -0.03431 0.97342 0.54906
 Zr458 Zr -0.04917 0.97913 0.46115
 Zr459 Zr 0.04984 1.02151 0.53923
 Zr460 Zr -0.03325 1.06212 0.50760
 O461 O 0.09869 0.99098 0.55899
 O462 O -0.08605 1.07860 0.48265
 O463 O -0.00965 1.02957 0.54949
 O464 O -0.06014 1.00796 0.50936
 O465 O -0.02586 0.94372 0.50067
 O466 O 0.02586 0.96610 0.54186
 C467 C 0.00355 1.11000 0.44632
 C468 C 0.11078 1.06042 0.48913
 C469 C -0.02022 1.00440 0.38619
 O470 O -0.09968 1.00849 0.44354
 O471 O -0.09826 0.94930 0.47940
 O472 O -0.08870 0.94314 0.53954
 C473 C -0.10877 0.93723 0.51036
 O474 O 0.07996 0.93128 0.45543
 Zr475 Zr 0.03406 0.93872 0.49284
 O476 O -0.02695 0.91640 0.56460
 O477 O -0.05460 0.92534 0.43414
 O478 O 0.01907 0.89224 0.45821
 O479 O 0.08381 0.91843 0.52060
 O480 O 0.01548 0.89194 0.52330
 C481 C -0.00746 0.88903 0.55006
 O482 O -0.07757 0.99215 0.58530
 O483 O 0.05831 1.07571 0.56494
 O484 O -0.01141 0.98011 0.60265
 O485 O 0.04283 1.01721 0.59424
 O486 O -0.01560 1.11061 0.53860
 O487 O -0.07371 1.07293 0.54939
 C488 C 0.01857 0.99948 0.61436
 H489 H 0.03904 1.08224 0.50064
 H490 H -0.08829 1.01140 0.51369
 H491 H 0.03783 0.95092 0.56146
 H492 H 0.01538 0.95752 0.42872
 H493 H -0.08891 1.10707 0.48552
 H494 H -0.11349 0.99072 0.42699
 H495 H -0.07871 0.92652 0.41968
 H496 H 0.03504 0.86947 0.46504
 H497 H -0.03172 1.13309 0.53127
 H498 H 0.08290 1.07399 0.57867
 H499 H 0.11208 1.00856 0.57597
 H500 H 0.08551 0.89004 0.51655
 H501 H -0.08637 1.09840 0.54546
 H502 H -0.08306 0.96980 0.60124
 H503 H 0.08282 1.03030 0.39839
 H504 H 0.08989 0.90434 0.45676
 Zr505 Zr 0.72278 0.28480 0.20115
 O506 O 0.74202 0.32724 0.16433
 O507 O 0.66648 0.27600 0.18419
 O508 O 0.72814 0.26102 0.14770
 O509 O 0.70250 0.35078 0.26997
 O510 O 0.76218 0.20487 0.15638
 O511 O 0.69390 0.33989 0.21024
 O512 O 0.64302 0.22971 0.22239
 O513 O 0.71511 0.22456 0.20811
 O514 O 0.69350 0.27631 0.24976
 O515 O 0.77873 0.26036 0.20147
 O516 O 0.75711 0.31161 0.24089
 Zr517 Zr 0.77658 0.21572 0.29905
 Zr518 Zr 0.77087 0.20086 0.21113
 Zr519 Zr 0.72850 0.29986 0.28921
 Zr520 Zr 0.68789 0.21677 0.25759
 O521 O 0.75903 0.34872 0.30897
 O522 O 0.67141 0.16397 0.23264
 O523 O 0.72044 0.24037 0.29947
 O524 O 0.74205 0.18989 0.25934
 O525 O 0.80628 0.22417 0.25065
 O526 O 0.78390 0.27589 0.29184
 C527 C 0.64001 0.25358 0.19631
 C528 C 0.68959 0.36081 0.23911
 C529 C 0.74561 0.22980 0.13617
 O530 O 0.74152 0.15034 0.19352
 O531 O 0.80071 0.15177 0.22939
 O532 O 0.80687 0.16133 0.28952
 C533 C 0.81278 0.14126 0.26035
 O534 O 0.81872 0.32999 0.20541
 Zr535 Zr 0.81129 0.28409 0.24282
 O536 O 0.83361 0.22308 0.31458
 O537 O 0.82466 0.19543 0.18412
 O538 O 0.85776 0.26910 0.20819
 O539 O 0.83157 0.33384 0.27058
 O540 O 0.85807 0.26551 0.27328
 C541 C 0.86097 0.24258 0.30004
 O542 O 0.75786 0.17246 0.33528
 O543 O 0.67430 0.30834 0.31492
 O544 O 0.76990 0.23862 0.35263
 O545 O 0.73279 0.29286 0.34423
 O546 O 0.63941 0.23442 0.28859
 O547 O 0.67708 0.17632 0.29938
 C548 C 0.75053 0.26860 0.36434
 H549 H 0.66777 0.28906 0.25062
 H550 H 0.73861 0.16173 0.26367
 H551 H 0.79909 0.28786 0.31145
 H552 H 0.79248 0.26541 0.17871
 H553 H 0.64294 0.16112 0.23551
 H554 H 0.75929 0.13654 0.17698
 H555 H 0.82349 0.17132 0.16966
 H556 H 0.88053 0.28508 0.21502
 H557 H 0.61692 0.21830 0.28126
 H558 H 0.67601 0.33292 0.32865
 H559 H 0.74144 0.36211 0.32596
 H560 H 0.85996 0.33555 0.26653
 H561 H 0.65162 0.16365 0.29544
 H562 H 0.78022 0.16697 0.35123
 H563 H 0.71970 0.33284 0.14838
 H564 H 0.84566 0.33992 0.20673
 Zr565 Zr 0.77722 0.71520 0.70115
 O566 O 0.75798 0.67276 0.66433
 O567 O 0.83352 0.72401 0.68419
 O568 O 0.77186 0.73898 0.64770
 O569 O 0.79750 0.64922 0.76997
 O570 O 0.73782 0.79514 0.65638
 O571 O 0.80610 0.66011 0.71024
 O572 O 0.85698 0.77029 0.72239
 O573 O 0.78489 0.77544 0.70811
 O574 O 0.80650 0.72369 0.74976
 O575 O 0.72127 0.73964 0.70147
 O576 O 0.74289 0.68839 0.74089
 Zr577 Zr 0.72342 0.78428 0.79905
 Zr578 Zr 0.72913 0.79914 0.71113
 Zr579 Zr 0.77150 0.70014 0.78921
 Zr580 Zr 0.81211 0.78323 0.75759
 O581 O 0.74097 0.65128 0.80897
 O582 O 0.82859 0.83603 0.73264
 O583 O 0.77956 0.75963 0.79947
 O584 O 0.75795 0.81011 0.75934
 O585 O 0.69372 0.77583 0.75065
 O586 O 0.71610 0.72411 0.79184
 C587 C 0.85999 0.74642 0.69631
 C588 C 0.81041 0.63919 0.73911
 C589 C 0.75439 0.77020 0.63617
 O590 O 0.75847 0.84966 0.69352
 O591 O 0.69929 0.84823 0.72939
 O592 O 0.69313 0.83867 0.78952
 C593 C 0.68722 0.85874 0.76035
 O594 O 0.68128 0.67001 0.70541
 Zr595 Zr 0.68871 0.71591 0.74282
 O596 O 0.66639 0.77692 0.81458
 O597 O 0.67534 0.80457 0.68412
 O598 O 0.64224 0.73090 0.70819
 O599 O 0.66843 0.66616 0.77058
 O600 O 0.64193 0.73449 0.77328
 C601 C 0.63903 0.75742 0.80005
 O602 O 0.74214 0.82754 0.83528
 O603 O 0.82571 0.69166 0.81492
 O604 O 0.73010 0.76138 0.85263
 O605 O 0.76721 0.70714 0.84423
 O606 O 0.86059 0.76558 0.78859
 O607 O 0.82292 0.82369 0.79938
 C608 C 0.74947 0.73140 0.86434
 H609 H 0.83223 0.71094 0.75062
 H610 H 0.76139 0.83827 0.76367
 H611 H 0.70092 0.71214 0.81145
 H612 H 0.70752 0.73459 0.67871
 H613 H 0.85706 0.83888 0.73551
 H614 H 0.74071 0.86347 0.67697
 H615 H 0.67651 0.82868 0.66966
 H616 H 0.61947 0.71493 0.71502
 H617 H 0.88308 0.78170 0.78126
 H618 H 0.82399 0.66708 0.82865
 H619 H 0.75856 0.63789 0.82596
 H620 H 0.64004 0.66445 0.76653
 H621 H 0.84838 0.83635 0.79544
 H622 H 0.71979 0.83303 0.85123
 H623 H 0.78030 0.66716 0.64838
 H624 H 0.65434 0.66008 0.70673
 Zr625 Zr 0.22277 0.21523 0.79883
 O626 O 0.24201 0.17278 0.83566
 O627 O 0.16647 0.22403 0.81579
 O628 O 0.22813 0.23901 0.85229
 O629 O 0.20249 0.14925 0.73002
 O630 O 0.26217 0.29516 0.84361
 O631 O 0.19390 0.16014 0.78974
 O632 O 0.14301 0.27033 0.77759
 O633 O 0.21510 0.27547 0.79187
 O634 O 0.19349 0.22372 0.75022
 O635 O 0.27872 0.23967 0.79851
 O636 O 0.25710 0.18842 0.75909
 Zr637 Zr 0.27657 0.28430 0.70094
 Zr638 Zr 0.27086 0.29917 0.78885
 Zr639 Zr 0.22849 0.20016 0.71078
 Zr640 Zr 0.18788 0.28326 0.74239
 O641 O 0.25902 0.15130 0.69101
 O642 O 0.17140 0.33606 0.76734
 O643 O 0.22043 0.25965 0.70051
 O644 O 0.24203 0.31014 0.74064
 O645 O 0.30627 0.27586 0.74933
 O646 O 0.28389 0.22414 0.70814
 C647 C 0.14000 0.24645 0.80368
 C648 C 0.18958 0.13922 0.76087
 C649 C 0.24560 0.27022 0.86381
 O650 O 0.24151 0.34969 0.80646
 O651 O 0.30070 0.34826 0.77060
 O652 O 0.30686 0.33870 0.71046
 C653 C 0.31277 0.35877 0.73964
 O654 O 0.31871 0.17004 0.79457
 Zr655 Zr 0.31128 0.21594 0.75717
 O656 O 0.33360 0.27694 0.68540
 O657 O 0.32465 0.30459 0.81586
 O658 O 0.35775 0.23093 0.79179
 O659 O 0.33156 0.16619 0.72940
 O660 O 0.35806 0.23452 0.72671
 C661 C 0.36096 0.25745 0.69994
 O662 O 0.25785 0.32757 0.66470
 O663 O 0.17428 0.19169 0.68506
 O664 O 0.26989 0.26141 0.64735
 O665 O 0.23278 0.20717 0.65576
 O666 O 0.13939 0.26561 0.71139
 O667 O 0.17707 0.32371 0.70061
 C668 C 0.25052 0.23142 0.63564
 H669 H 0.16776 0.21096 0.74936
 H670 H 0.23860 0.33829 0.73631
 H671 H 0.29907 0.21217 0.68854
 H672 H 0.29247 0.23462 0.82128
 H673 H 0.14293 0.33891 0.76447
 H674 H 0.25928 0.36349 0.82301
 H675 H 0.32347 0.32871 0.83032
 H676 H 0.38052 0.21495 0.78497
 H677 H 0.11691 0.28173 0.71872
 H678 H 0.17600 0.16710 0.67133
 H679 H 0.24143 0.13791 0.67403
 H680 H 0.35995 0.16448 0.73345
 H681 H 0.15161 0.33638 0.70454
 H682 H 0.28020 0.33305 0.64876
 H683 H 0.21969 0.16719 0.85161
 H684 H 0.34565 0.16010 0.79325
 Zr685 Zr 0.27723 0.78477 0.29883
 O686 O 0.25799 0.82721 0.33566
 O687 O 0.33353 0.77596 0.31579
 O688 O 0.27187 0.76099 0.35229
 O689 O 0.29751 0.85075 0.23002
 O690 O 0.23783 0.70484 0.34361
 O691 O 0.30610 0.83986 0.28974
 O692 O 0.35699 0.72967 0.27759
 O693 O 0.28490 0.72453 0.29187
 O694 O 0.30651 0.77628 0.25022
 O695 O 0.22128 0.76033 0.29851
 O696 O 0.24290 0.81158 0.25909
 Zr697 Zr 0.22343 0.71569 0.20094
 Zr698 Zr 0.22914 0.70083 0.28885
 Zr699 Zr 0.27151 0.79984 0.21077
 Zr700 Zr 0.31212 0.71674 0.24239
 O701 O 0.24098 0.84870 0.19101
 O702 O 0.32860 0.66394 0.26734
 O703 O 0.27957 0.74035 0.20051
 O704 O 0.25797 0.68986 0.24064
 O705 O 0.19373 0.72414 0.24933
 O706 O 0.21611 0.77586 0.20814
 C707 C 0.36000 0.75355 0.30368
 C708 C 0.31042 0.86078 0.26087
 C709 C 0.25440 0.72977 0.36381
 O710 O 0.25849 0.65031 0.30646
 O711 O 0.19930 0.65174 0.27060
 O712 O 0.19314 0.66130 0.21046
 C713 C 0.18723 0.64123 0.23963
 O714 O 0.18130 0.82996 0.29457
 Zr715 Zr 0.18872 0.78406 0.25717
 O716 O 0.16640 0.72306 0.18540
 O717 O 0.17535 0.69540 0.31586
 O718 O 0.14225 0.76907 0.29179
 O719 O 0.16844 0.83381 0.22940
 O720 O 0.14194 0.76548 0.22671
 C721 C 0.13904 0.74255 0.19994
 O722 O 0.24215 0.67243 0.16470
 O723 O 0.32571 0.80831 0.18506
 O724 O 0.23011 0.73859 0.14735
 O725 O 0.26722 0.79283 0.15576
 O726 O 0.36061 0.73439 0.21139
 O727 O 0.32293 0.67629 0.20060
 C728 C 0.24948 0.76858 0.13564
 H729 H 0.33224 0.78903 0.24936
 H730 H 0.26140 0.66171 0.23631
 H731 H 0.20092 0.78783 0.18854
 H732 H 0.20753 0.76538 0.32128
 H733 H 0.35707 0.66109 0.26447
 H734 H 0.24072 0.63651 0.32301
 H735 H 0.17653 0.67129 0.33032
 H736 H 0.11948 0.78505 0.28497
 H737 H 0.38309 0.71827 0.21872
 H738 H 0.32400 0.83290 0.17133
 H739 H 0.25857 0.86209 0.17403
 H740 H 0.14005 0.83552 0.23345
 H741 H 0.34839 0.66362 0.20454
 H742 H 0.21980 0.66694 0.14876
 H743 H 0.28031 0.83281 0.35161
 H744 H 0.15435 0.83989 0.29325
 Zr745 Zr 0.22278 0.78479 0.70115
 O746 O 0.24201 0.82724 0.66433
 O747 O 0.16648 0.77599 0.68419
 O748 O 0.22814 0.76102 0.64770
 O749 O 0.20249 0.85078 0.76997
 O750 O 0.26218 0.70486 0.65638
 O751 O 0.19390 0.83989 0.71024
 O752 O 0.14302 0.72970 0.72240
 O753 O 0.21511 0.72456 0.70811
 O754 O 0.19350 0.77631 0.74976
 O755 O 0.27872 0.76035 0.70147
 O756 O 0.25711 0.81161 0.74089
 Zr757 Zr 0.27658 0.71572 0.79905
 Zr758 Zr 0.27087 0.70086 0.71113
 Zr759 Zr 0.22850 0.79986 0.78921
 Zr760 Zr 0.18789 0.71677 0.75759
 O761 O 0.25902 0.84872 0.80897
 O762 O 0.17141 0.66397 0.73264
 O763 O 0.22044 0.74037 0.79947
 O764 O 0.24204 0.68989 0.75934
 O765 O 0.30628 0.72417 0.75065
 O766 O 0.28390 0.77589 0.79184
 C767 C 0.14000 0.75358 0.69631
 C768 C 0.18958 0.86081 0.73911
 C769 C 0.24561 0.72980 0.63617
 O770 O 0.24152 0.65034 0.69352
 O771 O 0.30071 0.65177 0.72939
 O772 O 0.30687 0.66133 0.78952
 C773 C 0.31278 0.64126 0.76035
 O774 O 0.31871 0.82999 0.70541
 Zr775 Zr 0.31128 0.78409 0.74282
 O776 O 0.33361 0.72308 0.81458
 O777 O 0.32466 0.69543 0.68412
 O778 O 0.35776 0.76909 0.70819
 O779 O 0.33157 0.83384 0.77058
 O780 O 0.35806 0.76551 0.77328
 C781 C 0.36097 0.74258 0.80004
 O782 O 0.25786 0.67246 0.83528
 O783 O 0.17429 0.80834 0.81492
 O784 O 0.26990 0.73862 0.85263
 O785 O 0.23279 0.79286 0.84423
 O786 O 0.13940 0.73442 0.78859
 O787 O 0.17708 0.67631 0.79938
 C788 C 0.25053 0.76860 0.86434
 H789 H 0.16776 0.78906 0.75062
 H790 H 0.23861 0.66173 0.76368
 H791 H 0.29908 0.78786 0.81144
 H792 H 0.29248 0.76541 0.67871
 H793 H 0.14294 0.66112 0.73551
 H794 H 0.25929 0.63653 0.67698
 H795 H 0.32348 0.67131 0.66966
 H796 H 0.38053 0.78507 0.71502
 H797 H 0.11692 0.71830 0.78127
 H798 H 0.17601 0.83292 0.82865
 H799 H 0.24144 0.86211 0.82595
 H800 H 0.35996 0.83555 0.76653
 H801 H 0.15161 0.66365 0.79544
 H802 H 0.28021 0.66697 0.85123
 H803 H 0.21969 0.83284 0.64838
 H804 H 0.34566 0.83992 0.70673
 Zr805 Zr 0.27722 0.21521 0.20115
 O806 O 0.25799 0.17276 0.16433
 O807 O 0.33352 0.22401 0.18419
 O808 O 0.27186 0.23898 0.14770
 O809 O 0.29750 0.14922 0.26997
 O810 O 0.23782 0.29514 0.15638
 O811 O 0.30610 0.16011 0.21024
 O812 O 0.35698 0.27029 0.22240
 O813 O 0.28489 0.27544 0.20811
 O814 O 0.30650 0.22369 0.24976
 O815 O 0.22128 0.23965 0.20147
 O816 O 0.24289 0.18839 0.24089
 Zr817 Zr 0.22342 0.28428 0.29905
 Zr818 Zr 0.22913 0.29914 0.21113
 Zr819 Zr 0.27150 0.20014 0.28921
 Zr820 Zr 0.31211 0.28323 0.25759
 O821 O 0.24098 0.15128 0.30897
 O822 O 0.32859 0.33603 0.23264
 O823 O 0.27956 0.25963 0.29947
 O824 O 0.25796 0.31011 0.25934
 O825 O 0.19372 0.27583 0.25065
 O826 O 0.21610 0.22411 0.29184
 C827 C 0.36000 0.24642 0.19631
 C828 C 0.31042 0.13919 0.23911
 C829 C 0.25439 0.27020 0.13617
 O830 O 0.25848 0.34966 0.19352
 O831 O 0.19929 0.34823 0.22939
 O832 O 0.19313 0.33867 0.28952
 C833 C 0.18722 0.35874 0.26035
 O834 O 0.18129 0.17001 0.20541
 Zr835 Zr 0.18871 0.21591 0.24282
 O836 O 0.16639 0.27692 0.31458
 O837 O 0.17534 0.30457 0.18412
 O838 O 0.14224 0.23091 0.20819
 O839 O 0.16843 0.16616 0.27058
 O840 O 0.14194 0.23449 0.27328
 C841 C 0.13903 0.25742 0.30004
 O842 O 0.24214 0.32754 0.33528
 O843 O 0.32571 0.19166 0.31492
 O844 O 0.23010 0.26138 0.35263
 O845 O 0.26721 0.20714 0.34423
 O846 O 0.36060 0.26558 0.28859
 O847 O 0.32292 0.32368 0.29938
 C848 C 0.24947 0.23140 0.36434
 H849 H 0.33224 0.21094 0.25062
 H850 H 0.26139 0.33827 0.26368
 H851 H 0.20092 0.21214 0.31144
 H852 H 0.20752 0.23459 0.17870
 H853 H 0.35706 0.33888 0.23551
 H854 H 0.24071 0.36347 0.17698
 H855 H 0.17652 0.32869 0.16966
 H856 H 0.11947 0.21493 0.21501
 H857 H 0.38308 0.28170 0.28127
 H858 H 0.32399 0.16707 0.32865
 H859 H 0.25856 0.13789 0.32595
 H860 H 0.14004 0.16445 0.26652
 H861 H 0.34839 0.33635 0.29544
 H862 H 0.21979 0.33303 0.35123
 H863 H 0.28031 0.16716 0.14838
 H864 H 0.15434 0.16008 0.20673
 Zr865 Zr 0.72278 0.71523 0.29883
 O866 O 0.74201 0.67278 0.33565
 O867 O 0.66648 0.72403 0.31579
 O868 O 0.72814 0.73901 0.35229
 O869 O 0.70249 0.64925 0.23002
 O870 O 0.76218 0.79516 0.34361
 O871 O 0.69390 0.66014 0.28974
 O872 O 0.64302 0.77032 0.27759
 O873 O 0.71510 0.77547 0.29187
 O874 O 0.69350 0.72372 0.25022
 O875 O 0.77872 0.73967 0.29851
 O876 O 0.75710 0.68842 0.25909
 Zr877 Zr 0.77658 0.78431 0.20094
 Zr878 Zr 0.77087 0.79917 0.28885
 Zr879 Zr 0.72849 0.70016 0.21077
 Zr880 Zr 0.68788 0.78326 0.24240
 O881 O 0.75902 0.65130 0.19101
 O882 O 0.67140 0.83606 0.26735
 O883 O 0.72044 0.75965 0.20051
 O884 O 0.74204 0.81014 0.24064
 O885 O 0.80627 0.77586 0.24933
 O886 O 0.78390 0.72414 0.20814
 C887 C 0.64000 0.74645 0.30368
 C888 C 0.68958 0.63922 0.26087
 C889 C 0.74560 0.77022 0.36381
 O890 O 0.74152 0.84968 0.30646
 O891 O 0.80070 0.84826 0.27060
 O892 O 0.80686 0.83870 0.21046
 C893 C 0.81278 0.85877 0.23964
 O894 O 0.81871 0.67004 0.29457
 Zr895 Zr 0.81128 0.71594 0.25716
 O896 O 0.83360 0.77694 0.18540
 O897 O 0.82466 0.80459 0.31586
 O898 O 0.85775 0.73093 0.29179
 O899 O 0.83156 0.66619 0.22940
 O900 O 0.85806 0.73452 0.22671
 C901 C 0.86096 0.75745 0.19994
 O902 O 0.75785 0.82757 0.16470
 O903 O 0.67429 0.69169 0.18506
 O904 O 0.76989 0.76141 0.14735
 O905 O 0.73278 0.70717 0.15576
 O906 O 0.63940 0.76561 0.21139
 O907 O 0.67707 0.82371 0.20061
 C908 C 0.75052 0.73143 0.13564
 H909 H 0.66776 0.71096 0.24936
 H910 H 0.73860 0.83829 0.23631
 H911 H 0.79908 0.71217 0.18854
 H912 H 0.79248 0.73462 0.32128
 H913 H 0.64293 0.83891 0.26447
 H914 H 0.75928 0.86349 0.32301
 H915 H 0.82348 0.82871 0.33032
 H916 H 0.88053 0.71495 0.28497
 H917 H 0.61691 0.78173 0.21872
 H918 H 0.67600 0.66710 0.17133
 H919 H 0.74143 0.63791 0.17403
 H920 H 0.85996 0.66448 0.23345
 H921 H 0.65161 0.83638 0.20454
 H922 H 0.78021 0.83306 0.14876
 H923 H 0.71969 0.66718 0.35161
 H924 H 0.84565 0.66010 0.29325
 Zr925 Zr 0.77722 0.28477 0.79883
 O926 O 0.75799 0.32722 0.83565
 O927 O 0.83352 0.27597 0.81579
 O928 O 0.77186 0.26099 0.85229
 O929 O 0.79751 0.35075 0.73002
 O930 O 0.73782 0.20484 0.84361
 O931 O 0.80610 0.33986 0.78974
 O932 O 0.85698 0.22968 0.77759
 O933 O 0.78490 0.22454 0.79187
 O934 O 0.80650 0.27629 0.75022
 O935 O 0.72128 0.26033 0.79851
 O936 O 0.74290 0.31159 0.75909
 Zr937 Zr 0.72342 0.21570 0.70094
 Zr938 Zr 0.72913 0.20083 0.78885
 Zr939 Zr 0.77151 0.29984 0.71078
 Zr940 Zr 0.81212 0.21674 0.74240
 O941 O 0.74098 0.34870 0.69101
 O942 O 0.82860 0.16394 0.76735
 O943 O 0.77956 0.24035 0.70051
 O944 O 0.75796 0.18986 0.74064
 O945 O 0.69373 0.22414 0.74933
 O946 O 0.71610 0.27586 0.70814
 C947 C 0.86000 0.25355 0.80368
 C948 C 0.81042 0.36078 0.76087
 C949 C 0.75440 0.22978 0.86381
 O950 O 0.75848 0.15032 0.80646
 O951 O 0.69930 0.15174 0.77060
 O952 O 0.69314 0.16130 0.71046
 C953 C 0.68722 0.14123 0.73964
 O954 O 0.68129 0.32996 0.79457
 Zr955 Zr 0.68872 0.28406 0.75716
 O956 O 0.66640 0.22306 0.68540
 O957 O 0.67534 0.19541 0.81586
 O958 O 0.64225 0.26907 0.79179
 O959 O 0.66844 0.33381 0.72940
 O960 O 0.64194 0.26548 0.72671
 C961 C 0.63904 0.24255 0.69994
 O962 O 0.74215 0.17243 0.66470
 O963 O 0.82571 0.30831 0.68506
 O964 O 0.73011 0.23859 0.64735
 O965 O 0.76722 0.29283 0.65576
 O966 O 0.86060 0.23439 0.71140
 O967 O 0.82293 0.17629 0.70061
 C968 C 0.74948 0.26858 0.63564
 H969 H 0.83224 0.28904 0.74936
 H970 H 0.76140 0.16171 0.73631
 H971 H 0.70092 0.28783 0.68854
 H972 H 0.70752 0.26538 0.82128
 H973 H 0.85707 0.16109 0.76448
 H974 H 0.74072 0.13651 0.82301
 H975 H 0.67652 0.17129 0.83032
 H976 H 0.61947 0.28505 0.78497
 H977 H 0.88309 0.21827 0.71872
 H978 H 0.82400 0.33290 0.67133
 H979 H 0.75857 0.36209 0.67403
 H980 H 0.64004 0.33552 0.73345
 H981 H 0.84839 0.16362 0.70454
 H982 H 0.71979 0.16694 0.64876
 H983 H 0.78031 0.33282 0.85161
 H984 H 0.65434 0.33990 0.79324
 N985 N 0.42956 1.03348 0.30582
 C986 C 0.43194 1.00284 0.28315
 N987 N 0.45594 0.97280 0.29247
 N988 N 0.47475 0.97240 0.32386
 C989 C 0.47085 1.00249 0.34709
 N990 N 0.44839 1.03315 0.33694
 N991 N -0.07044 0.53348 0.80582
 C992 C -0.06806 0.50285 0.78315
 N993 N -0.04406 0.47280 0.79247
 N994 N -0.02525 0.47240 0.82386
 C995 C -0.02915 0.50249 0.84709
 N996 N -0.05161 0.53315 0.83694
 N997 N 0.07044 -0.03348 0.80582
 C998 C 0.06806 -0.00284 0.78315
 N999 N 0.04406 0.02720 0.79247
 N1000 N 0.02525 0.02760 0.82386
 C1001 C 0.02915 -0.00249 0.84709
 N1002 N 0.05161 -0.03315 0.83694
 N1003 N 0.54406 0.52720 0.29247
 C1004 C 0.56806 0.49716 0.28315
 N1005 N 0.57044 0.46652 0.30582
 N1006 N 0.55161 0.46685 0.33694
 C1007 C 0.52915 0.49751 0.34709
 N1008 N 0.52525 0.52760 0.32386
 N1009 N 0.54405 0.47281 0.20754
 C1010 C 0.56805 0.50286 0.21685
 N1011 N 0.57042 0.53350 0.19419
 N1012 N 0.55158 0.53317 0.16307
 C1013 C 0.52913 0.50251 0.15292
 N1014 N 0.52524 0.47241 0.17615
 N1015 N 0.07042 1.03350 0.69419
 C1016 C 0.06805 1.00286 0.71685
 N1017 N 0.04405 0.97281 0.70754
 N1018 N 0.02524 0.97241 0.67615
 C1019 C 0.02912 1.00251 0.65292
 N1020 N 0.05158 1.03317 0.66307
 N1021 N -0.04405 0.52719 0.70754
 C1022 C -0.06805 0.49714 0.71685
 N1023 N -0.07042 0.46650 0.69419
 N1024 N -0.05158 0.46683 0.66307
 C1025 C -0.02912 0.49749 0.65292
 N1026 N -0.02524 0.52759 0.67615
 N1027 N 0.45595 0.02719 0.20754
 C1028 C 0.43195 -0.00286 0.21685
 N1029 N 0.42958 -0.03350 0.19419
 N1030 N 0.44842 -0.03317 0.16307
 C1031 C 0.47088 -0.00251 0.15292
 N1032 N 0.47476 0.02759 0.17615
 N1033 N 0.30871 0.37128 0.03473
 C1034 C 0.28677 0.37113 0.00411
 N1035 N 0.29858 0.39462 -0.02300
 N1036 N 0.33099 0.41581 -0.02010
 C1037 C 0.35330 0.41528 0.01011
 N1038 N 0.34115 0.39266 0.03771
 N1039 N -0.19129 0.87128 0.53474
 C1040 C -0.21323 0.87113 0.50411
 N1041 N -0.20142 0.89462 0.47700
 N1042 N -0.16901 0.91581 0.47990
 C1043 C -0.14670 0.91527 0.51011
 N1044 N -0.15886 0.89265 0.53771
 N1045 N -0.20139 0.10539 1.02301
 C1046 C -0.21321 0.12888 0.99589
 N1047 N -0.19127 0.12872 0.96527
 N1048 N -0.15883 0.10735 0.96230
 C1049 C -0.14668 0.08474 0.98991
 N1050 N -0.16898 0.08420 1.02011
 N1051 N 0.30874 0.62871 0.46527
 C1052 C 0.28679 0.62887 0.49589
 N1053 N 0.29861 0.60539 0.52301
 N1054 N 0.33102 0.58420 0.52011
 C1055 C 0.35332 0.58473 0.48991
 N1056 N 0.34117 0.60734 0.46230
 N1057 N 0.20142 0.60538 0.47700
 C1058 C 0.21323 0.62887 0.50411
 N1059 N 0.19129 0.62872 0.53473
 N1060 N 0.15886 0.60734 0.53771
 C1061 C 0.14671 0.58472 0.51011
 N1062 N 0.16901 0.58419 0.47990
 N1063 N 0.70142 0.10538 -0.02300
 C1064 C 0.71323 0.12887 0.00411
 N1065 N 0.69129 0.12872 0.03473
 N1066 N 0.65885 0.10735 0.03771
 C1067 C 0.64670 0.08473 0.01011
 N1068 N 0.66901 0.08419 -0.02010
 N1069 N 0.70139 0.89461 0.52301
 C1070 C 0.71321 0.87112 0.49589
 N1071 N 0.69126 0.87128 0.46527
 N1072 N 0.65883 0.89265 0.46230
 C1073 C 0.64668 0.91526 0.48991
 N1074 N 0.66898 0.91580 0.52011
 N1075 N 0.20139 0.39461 1.02301
 C1076 C 0.21321 0.37113 0.99589
 N1077 N 0.19127 0.37129 0.96527
 N1078 N 0.15883 0.39266 0.96230
 C1079 C 0.14668 0.41527 0.98991
 N1080 N 0.16898 0.41580 1.02011
 N1081 N -0.02810 0.31460 0.38351
 C1082 C -0.00672 0.28464 0.39631
 N1083 N 0.01489 0.28952 0.42625
 N1084 N 0.01515 0.32334 0.44285
 C1085 C -0.00575 0.35323 0.42964
 N1086 N -0.02791 0.34843 0.40017
 N1087 N 0.51488 -0.21048 -0.07375
 C1088 C 0.49328 -0.21536 -0.10369
 N1089 N 0.47190 -0.18539 -0.11650
 N1090 N 0.47209 -0.15157 -0.09983
 C1091 C 0.49424 -0.14677 -0.07037
 N1092 N 0.51514 -0.17666 -0.05715
 N1093 N 0.02810 -0.18539 1.11651
 C1094 C 0.00674 -0.21536 1.10369
 N1095 N -0.01485 -0.21048 1.07374
 N1096 N -0.01510 -0.17666 1.05714
 C1097 C 0.00578 -0.14676 1.07037
 N1098 N 0.02792 -0.15156 1.09985
 N1099 N 0.52810 0.31460 0.61651
 C1100 C 0.50673 0.28464 0.60369
 N1101 N 0.48515 0.28952 0.57374
 N1102 N 0.48489 0.32334 0.55714
 C1103 C 0.50578 0.35323 0.57037
 N1104 N 0.52792 0.34843 0.59985
 N1105 N 0.47190 1.18539 0.61651
 C1106 C 0.49326 1.21536 0.60369
 N1107 N 0.51485 1.21048 0.57374
 N1108 N 0.51510 1.17666 0.55714
 C1109 C 0.49421 1.14676 0.57037
 N1110 N 0.47208 1.15156 0.59985
 N1111 N -0.02810 0.68540 1.11651
 C1112 C -0.00673 0.71536 1.10369
 N1113 N 0.01485 0.71048 1.07374
 N1114 N 0.01511 0.67666 1.05714
 C1115 C -0.00578 0.64677 1.07037
 N1116 N -0.02791 0.65157 1.09985
 N1117 N 0.52810 0.68540 -0.11649
 C1118 C 0.50672 0.71536 -0.10369
 N1119 N 0.48511 0.71048 -0.07375
 N1120 N 0.48485 0.67666 -0.05715
 C1121 C 0.50575 0.64677 -0.07036
 N1122 N 0.52791 0.65157 -0.09983
 N1123 N -0.01488 1.21048 0.42625
 C1124 C 0.00672 1.21536 0.39631
 N1125 N 0.02810 1.18539 0.38351
 N1126 N 0.02791 1.15157 0.40017
 C1127 C 0.00576 1.14677 0.42964
 N1128 N -0.01515 1.17666 0.44285
 N1129 N 0.78348 0.67956 0.94418
 C1130 C 0.75284 0.68194 0.96685
 N1131 N 0.72280 0.70594 0.95753
 N1132 N 0.72240 0.72475 0.92614
 C1133 C 0.75249 0.72085 0.90291
 N1134 N 0.78315 0.69839 0.91306
 N1135 N 0.28348 0.17956 0.44418
 C1136 C 0.25284 0.18194 0.46685
 N1137 N 0.22280 0.20594 0.45753
 N1138 N 0.22240 0.22474 0.42614
 C1139 C 0.25249 0.22085 0.40291
 N1140 N 0.28315 0.19838 0.41306
 N1141 N 0.77720 0.29406 0.45753
 C1142 C 0.74716 0.31806 0.46685
 N1143 N 0.71652 0.32044 0.44418
 N1144 N 0.71685 0.30162 0.41306
 C1145 C 0.74751 0.27915 0.40291
 N1146 N 0.77760 0.27525 0.42614
 N1147 N 0.27720 0.79406 0.95753
 C1148 C 0.24716 0.81806 0.96685
 N1149 N 0.21652 0.82044 0.94418
 N1150 N 0.21685 0.80162 0.91306
 C1151 C 0.24751 0.77915 0.90291
 N1152 N 0.27760 0.77526 0.92614
 N1153 N 0.28350 0.82042 0.05581
 C1154 C 0.25286 0.81805 0.03315
 N1155 N 0.22281 0.79406 0.04246
 N1156 N 0.22241 0.77524 0.07385
 C1157 C 0.25251 0.77913 0.09708
 N1158 N 0.28317 0.80158 0.08693
 N1159 N 0.72281 0.29406 0.54246
 C1160 C 0.75286 0.31805 0.53315
 N1161 N 0.78350 0.32042 0.55581
 N1162 N 0.78317 0.30158 0.58693
 C1163 C 0.75251 0.27913 0.59708
 N1164 N 0.72241 0.27524 0.57385
 N1165 N 0.27719 0.20594 0.54246
 C1166 C 0.24714 0.18195 0.53315
 N1167 N 0.21650 0.17958 0.55581
 N1168 N 0.21683 0.19841 0.58693
 C1169 C 0.24749 0.22087 0.59708
 N1170 N 0.27759 0.22476 0.57385
 N1171 N 0.77719 0.70594 0.04246
 C1172 C 0.74714 0.68195 0.03315
 N1173 N 0.71650 0.67958 0.05581
 N1174 N 0.71683 0.69842 0.08693
 C1175 C 0.74749 0.72087 0.09708
 N1176 N 0.77759 0.72476 0.07385
 N1177 N 0.12128 0.55872 0.21526
 C1178 C 0.12113 0.53677 0.24588
 N1179 N 0.14462 0.54858 0.27300
 N1180 N 0.16581 0.58099 0.27009
 C1181 C 0.16527 0.60330 0.23989
 N1182 N 0.14265 0.59115 0.21229
 N1183 N 0.64462 0.04858 0.77300
 C1184 C 0.62112 0.03677 0.74589
 N1185 N 0.62128 0.05872 0.71526
 N1186 N 0.64265 0.09115 0.71229
 C1187 C 0.66527 0.10330 0.73989
 N1188 N 0.66581 0.08099 0.77010
 N1189 N 0.85540 0.04861 0.22699
 C1190 C 0.87888 0.03679 0.25411
 N1191 N 0.87872 0.05874 0.28473
 N1192 N 0.85735 0.09117 0.28770
 C1193 C 0.83474 0.10332 0.26009
 N1194 N 0.83421 0.08102 0.22989
 N1195 N 0.37872 0.55874 0.78473
 C1196 C 0.37888 0.53679 0.75411
 N1197 N 0.35539 0.54861 0.72699
 N1198 N 0.33421 0.58102 0.72989
 C1199 C 0.33474 0.60332 0.76009
 N1200 N 0.35735 0.59117 0.78770
 N1201 N 0.37872 0.44128 0.71526
 C1202 C 0.37887 0.46323 0.74589
 N1203 N 0.35538 0.45142 0.77300
 N1204 N 0.33419 0.41901 0.77010
 C1205 C 0.33473 0.39670 0.73989
 N1206 N 0.35735 0.40885 0.71229
 N1207 N 0.87872 0.94128 0.21526
 C1208 C 0.87887 0.96323 0.24588
 N1209 N 0.85538 0.95142 0.27300
 N1210 N 0.83419 0.91901 0.27009
 C1211 C 0.83473 0.89670 0.23989
 N1212 N 0.85735 0.90885 0.21229
 N1213 N 0.62128 0.94126 0.78473
 C1214 C 0.62112 0.96321 0.75411
 N1215 N 0.64460 0.95139 0.72699
 N1216 N 0.66579 0.91898 0.72989
 C1217 C 0.66526 0.89668 0.76009
 N1218 N 0.64265 0.90883 0.78770
 N1219 N 0.14461 0.45139 0.22699
 C1220 C 0.12112 0.46321 0.25411
 N1221 N 0.12128 0.44126 0.28473
 N1222 N 0.14265 0.40883 0.28770
 C1223 C 0.16526 0.39668 0.26009
 N1224 N 0.16579 0.41898 0.22989
 N1225 N 0.06460 0.22190 0.86649
 C1226 C 0.03464 0.24328 0.85368
 N1227 N 0.03952 0.26489 0.82374
 N1228 N 0.07334 0.26515 0.80714
 C1229 C 0.10323 0.24425 0.82036
 N1230 N 0.09843 0.22210 0.84982
 N1231 N 0.53952 0.76488 0.32374
 C1232 C 0.53464 0.74328 0.35368
 N1233 N 0.56461 0.72190 0.36649
 N1234 N 0.59843 0.72210 0.34982
 C1235 C 0.60323 0.74425 0.32036
 N1236 N 0.57334 0.76515 0.30714
 N1237 N 0.56461 0.27810 0.13349
 C1238 C 0.53464 0.25674 0.14631
 N1239 N 0.53952 0.23515 0.17626
 N1240 N 0.57334 0.23489 0.19286
 C1241 C 0.60324 0.25578 0.17963
 N1242 N 0.59843 0.27791 0.15015
 N1243 N 0.03952 0.73515 0.67626
 C1244 C 0.03464 0.75673 0.64631
 N1245 N 0.06460 0.77810 0.63349
 N1246 N 0.09843 0.77791 0.65016
 C1247 C 0.10323 0.75578 0.67963
 N1248 N 0.07334 0.73489 0.69286
 N1249 N 0.96048 0.76485 0.67626
 C1250 C 0.96536 0.74326 0.64631
 N1251 N 0.93539 0.72190 0.63349
 N1252 N 0.90156 0.72209 0.65015
 C1253 C 0.89676 0.74422 0.67963
 N1254 N 0.92666 0.76511 0.69286
 N1255 N 0.43540 0.22190 0.13349
 C1256 C 0.46536 0.24327 0.14631
 N1257 N 0.46048 0.26485 0.17626
 N1258 N 0.42666 0.26511 0.19286
 C1259 C 0.39677 0.24422 0.17963
 N1260 N 0.40157 0.22209 0.15016
 N1261 N 0.43540 0.77810 0.36649
 C1262 C 0.46536 0.75672 0.35368
 N1263 N 0.46048 0.73511 0.32374
 N1264 N 0.42666 0.73485 0.30714
 C1265 C 0.39677 0.75575 0.32036
 N1266 N 0.40157 0.77790 0.34982
 N1267 N 0.93539 0.27810 0.86649
 C1268 C 0.96536 0.25672 0.85368
 N1269 N 0.96048 0.23512 0.82374
 N1270 N 0.92666 0.23485 0.80714
 C1271 C 0.89677 0.25575 0.82036
 N1272 N 0.90157 0.27790 0.84982
 N1273 N 0.54413 1.02812 0.70812
 C1274 C 0.56810 0.99781 0.71686
 N1275 N 0.57106 0.96808 0.69329
 N1276 N 0.55282 0.96954 0.66192
 C1277 C 0.53049 1.00052 0.65235
 N1278 N 0.52591 1.02966 0.67646
 N1279 N 0.07106 0.46808 1.19329
 C1280 C 0.06810 0.49781 1.21686
 N1281 N 0.04413 0.52812 1.20812
 N1282 N 0.02591 0.52967 1.17646
 C1283 C 0.03050 0.50052 1.15235
 N1284 N 0.05282 0.46954 1.16191
 N1285 N -0.07106 0.03192 1.19329
 C1286 C -0.06810 0.00219 1.21686
 N1287 N -0.04413 -0.02812 1.20812
 N1288 N -0.02591 -0.02966 1.17646
 C1289 C -0.03049 -0.00052 1.15235
 N1290 N -0.05282 0.03046 1.16191
 N1291 N 0.45587 0.47188 0.70812
 C1292 C 0.43190 0.50219 0.71686
 N1293 N 0.42894 0.53192 0.69329
 N1294 N 0.44718 0.53046 0.66191
 C1295 C 0.46950 0.49948 0.65235
 N1296 N 0.47409 0.47033 0.67646
 N1297 N 0.45586 0.52813 -0.20811
 C1298 C 0.43189 0.49782 -0.21685
 N1299 N 0.42891 0.46810 -0.19328
 N1300 N 0.44714 0.46956 -0.16190
 C1301 C 0.46948 0.50053 -0.15234
 N1302 N 0.47408 0.52967 -0.17645
 N1303 N -0.04413 1.02812 0.29189
 C1304 C -0.06811 0.99782 0.28315
 N1305 N -0.07108 0.96810 0.30672
 N1306 N -0.05285 0.96956 0.33810
 C1307 C -0.03052 1.00053 0.34766
 N1308 N -0.02592 1.02967 0.32355
 N1309 N 0.04414 0.47187 0.29189
 C1310 C 0.06811 0.50217 0.28315
 N1311 N 0.07109 0.53190 0.30672
 N1312 N 0.05286 0.53044 0.33810
 C1313 C 0.03052 0.49947 0.34766
 N1314 N 0.02592 0.47033 0.32355
 N1315 N 0.54413 -0.02812 -0.20811
 C1316 C 0.56811 0.00218 -0.21685
 N1317 N 0.57108 0.03190 -0.19328
 N1318 N 0.55285 0.03044 -0.16190
 C1319 C 0.53052 -0.00053 -0.15234
 N1320 N 0.52592 -0.02967 -0.17645
 N1321 N 0.70279 0.60410 0.02236
 C1322 C 0.71353 0.62873 -0.00428
 N1323 N 0.69126 0.62885 -0.03467
 N1324 N 0.65947 0.60659 -0.03782
 C1325 C 0.64846 0.58267 -0.01072
 N1326 N 0.67106 0.58198 0.01926
 N1327 N 0.20279 1.10410 0.52236
 C1328 C 0.21353 1.12873 0.49572
 N1329 N 0.19126 1.12885 0.46533
 N1330 N 0.15947 1.10658 0.46218
 C1331 C 0.14846 1.08266 0.48928
 N1332 N 0.17106 1.08198 0.51926
 N1333 N 0.20282 -0.10409 0.97765
 C1334 C 0.21355 -0.12872 1.00429
 N1335 N 0.19129 -0.12885 1.03467
 N1336 N 0.15949 -0.10658 1.03783
 C1337 C 0.14849 -0.08265 1.01073
 N1338 N 0.17109 -0.08196 0.98075
 N1339 N 0.70282 0.39591 0.47765
 C1340 C 0.71356 0.37128 0.50429
 N1341 N 0.69129 0.37114 0.53467
 N1342 N 0.65949 0.39341 0.53783
 C1343 C 0.64849 0.41734 0.51073
 N1344 N 0.67109 0.41804 0.48075
 N1345 N -0.20279 0.39590 0.52236
 C1346 C -0.21353 0.37127 0.49572
 N1347 N -0.19126 0.37115 0.46533
 N1348 N -0.15947 0.39341 0.46218
 C1349 C -0.14846 0.41734 0.48928
 N1350 N -0.17106 0.41802 0.51926
 N1351 N 0.30874 -0.12885 -0.03467
 C1352 C 0.28647 -0.12873 -0.00428
 N1353 N 0.29721 -0.10410 0.02236
 N1354 N 0.32894 -0.08198 0.01926
 C1355 C 0.35154 -0.08266 -0.01072
 N1356 N 0.34053 -0.10658 -0.03782
 N1357 N 0.29718 1.10409 0.47765
 C1358 C 0.28644 1.12872 0.50429
 N1359 N 0.30871 1.12885 0.53467
 N1360 N 0.34051 1.10658 0.53783
 C1361 C 0.35151 1.08265 0.51073
 N1362 N 0.32891 1.08196 0.48075
 N1363 N -0.19129 0.62886 1.03467
 C1364 C -0.21355 0.62873 1.00429
 N1365 N -0.20282 0.60409 0.97765
 N1366 N -0.17109 0.58197 0.98075
 C1367 C -0.14849 0.58266 1.01073
 N1368 N -0.15949 0.60659 1.03783
 N1369 N -0.01413 0.71042 0.57106
 C1370 C 0.00695 0.71540 0.60128
 N1371 N 0.03011 0.68633 0.61320
 N1372 N 0.03180 0.65309 0.59566
 C1373 C 0.01018 0.64812 0.56591
 N1374 N -0.01240 0.67722 0.55351
 N1375 N 0.48587 0.21043 0.07106
 C1376 C 0.50695 0.21540 0.10128
 N1377 N 0.53011 0.18633 0.11320
 N1378 N 0.53180 0.15309 0.09566
 C1379 C 0.51017 0.14812 0.06591
 N1380 N 0.48760 0.17722 0.05351
 N1381 N -0.03012 0.18634 0.88682
 C1382 C -0.00693 0.21540 0.89872
 N1383 N 0.01417 0.21043 0.92892
 N1384 N 0.01245 0.17722 0.94649
 C1385 C -0.01015 0.14813 0.93410
 N1386 N -0.03180 0.15310 0.90437
 N1387 N 0.46988 0.68633 0.38682
 C1388 C 0.49307 0.71540 0.39872
 N1389 N 0.51418 0.71042 0.42892
 N1390 N 0.51245 0.67722 0.44649
 C1391 C 0.48985 0.64812 0.43410
 N1392 N 0.46820 0.65310 0.40437
 N1393 N 0.53012 0.81366 0.38682
 C1394 C 0.50693 0.78460 0.39872
 N1395 N 0.48583 0.78957 0.42892
 N1396 N 0.48755 0.82278 0.44649
 C1397 C 0.51015 0.85187 0.43410
 N1398 N 0.53180 0.84690 0.40437
 N1399 N 0.03011 0.31367 0.88682
 C1400 C 0.00693 0.28460 0.89872
 N1401 N -0.01417 0.28958 0.92892
 N1402 N -0.01245 0.32278 0.94649
 C1403 C 0.01015 0.35188 0.93410
 N1404 N 0.03180 0.34690 0.90437
 N1405 N 0.46989 0.31367 0.11320
 C1406 C 0.49305 0.28460 0.10128
 N1407 N 0.51413 0.28958 0.07106
 N1408 N 0.51240 0.32278 0.05351
 C1409 C 0.48983 0.35188 0.06591
 N1410 N 0.46820 0.34691 0.09566
 N1411 N 0.01413 0.78957 0.57106
 C1412 C -0.00695 0.78460 0.60128
 N1413 N -0.03011 0.81367 0.61320
 N1414 N -0.03180 0.84691 0.59566
 C1415 C -0.01018 0.85188 0.56591
 N1416 N 0.01240 0.82278 0.55351
 N1417 N 0.21808 0.32106 0.05671
 C1418 C 0.24781 0.31811 0.03314
 N1419 N 0.27812 0.29414 0.04188
 N1420 N 0.27967 0.27591 0.07354
 C1421 C 0.25052 0.28050 0.09765
 N1422 N 0.21954 0.30283 0.08809
 N1423 N 0.77812 0.79413 0.54188
 C1424 C 0.74781 0.81810 0.53314
 N1425 N 0.71808 0.82106 0.55671
 N1426 N 0.71954 0.80282 0.58809
 C1427 C 0.75052 0.78050 0.59765
 N1428 N 0.77966 0.77591 0.57354
 N1429 N 0.28192 0.67894 0.55671
 C1430 C 0.25219 0.68189 0.53314
 N1431 N 0.22188 0.70586 0.54188
 N1432 N 0.22033 0.72409 0.57354
 C1433 C 0.24948 0.71950 0.59765
 N1434 N 0.28046 0.69717 0.58809
 N1435 N 0.78192 0.17894 0.05671
 C1436 C 0.75219 0.18190 0.03314
 N1437 N 0.72188 0.20587 0.04188
 N1438 N 0.72034 0.22409 0.07354
 C1439 C 0.74948 0.21950 0.09765
 N1440 N 0.78046 0.19718 0.08809
 N1441 N 0.71810 0.17891 0.94328
 C1442 C 0.74782 0.18189 0.96685
 N1443 N 0.77812 0.20586 0.95811
 N1444 N 0.77967 0.22408 0.92645
 C1445 C 0.75053 0.21948 0.90234
 N1446 N 0.71956 0.19714 0.91190
 N1447 N 0.27813 0.70586 0.45811
 C1448 C 0.24783 0.68188 0.46685
 N1449 N 0.21810 0.67891 0.44328
 N1450 N 0.21956 0.69714 0.41190
 C1451 C 0.25053 0.71947 0.40234
 N1452 N 0.27967 0.72408 0.42645
 N1453 N 0.72188 0.79414 0.45811
 C1454 C 0.75217 0.81811 0.46685
 N1455 N 0.78190 0.82109 0.44328
 N1456 N 0.78044 0.80286 0.41190
 C1457 C 0.74947 0.78052 0.40234
 N1458 N 0.72033 0.77592 0.42645
 N1459 N 0.22188 0.29414 0.95811
 C1460 C 0.25218 0.31812 0.96685
 N1461 N 0.28190 0.32109 0.94328
 N1462 N 0.28044 0.30286 0.91190
 C1463 C 0.24947 0.28053 0.90234
 N1464 N 0.22033 0.27592 0.92645
 N1465 N 0.85411 0.45279 0.72764
 C1466 C 0.87873 0.46353 0.75428
 N1467 N 0.87886 0.44126 0.78467
 N1468 N 0.85659 0.40947 0.78782
 C1469 C 0.83267 0.39846 0.76072
 N1470 N 0.83198 0.42106 0.73074
 N1471 N 0.35411 0.95279 0.22764
 C1472 C 0.37873 0.96353 0.25428
 N1473 N 0.37886 0.94126 0.28467
 N1474 N 0.35659 0.90947 0.28782
 C1475 C 0.33267 0.89846 0.26072
 N1476 N 0.33198 0.92106 0.23074
 N1477 N 0.14591 0.95282 0.77235
 C1478 C 0.12127 0.96355 0.74571
 N1479 N 0.12114 0.94128 0.71533
 N1480 N 0.14341 0.90949 0.71217
 C1481 C 0.16734 0.89849 0.73926
 N1482 N 0.16803 0.92109 0.76925
 N1483 N 0.62114 0.44129 0.21533
 C1484 C 0.62127 0.46355 0.24571
 N1485 N 0.64591 0.45282 0.27235
 N1486 N 0.66803 0.42109 0.26924
 C1487 C 0.66734 0.39849 0.23926
 N1488 N 0.64341 0.40949 0.21217
 N1489 N 0.64589 0.54721 0.22764
 C1490 C 0.62127 0.53647 0.25428
 N1491 N 0.62114 0.55874 0.28467
 N1492 N 0.64341 0.59053 0.28782
 C1493 C 0.66733 0.60154 0.26072
 N1494 N 0.66802 0.57894 0.23074
 N1495 N 0.14589 0.04721 0.72764
 C1496 C 0.12127 0.03647 0.75428
 N1497 N 0.12114 0.05874 0.78467
 N1498 N 0.14341 0.09053 0.78782
 C1499 C 0.16733 0.10154 0.76072
 N1500 N 0.16802 0.07894 0.73074
 N1501 N 0.37886 0.05871 0.21533
 C1502 C 0.37873 0.03645 0.24571
 N1503 N 0.35409 0.04718 0.27235
 N1504 N 0.33197 0.07891 0.26924
 C1505 C 0.33266 0.10151 0.23926
 N1506 N 0.35659 0.09051 0.21217
 N1507 N 0.85409 0.54718 0.77235
 C1508 C 0.87873 0.53645 0.74571
 N1509 N 0.87886 0.55871 0.71533
 N1510 N 0.85659 0.59051 0.71217
 C1511 C 0.83266 0.60151 0.73927
 N1512 N 0.83197 0.57891 0.76925
 N1513 N 0.96043 0.73587 0.17894
 C1514 C 0.96540 0.75695 0.14872
 N1515 N 0.93633 0.78011 0.13681
 N1516 N 0.90309 0.78180 0.15435
 C1517 C 0.89812 0.76017 0.18409
 N1518 N 0.92722 0.73760 0.19650
 N1519 N 0.43633 0.28011 0.63681
 C1520 C 0.46540 0.25695 0.64872
 N1521 N 0.46042 0.23586 0.67894
 N1522 N 0.42722 0.23759 0.69650
 C1523 C 0.39812 0.26017 0.68409
 N1524 N 0.40309 0.28180 0.65435
 N1525 N 0.43634 0.71989 0.86317
 C1526 C 0.46540 0.74307 0.85127
 N1527 N 0.46042 0.76418 0.82107
 N1528 N 0.42722 0.76245 0.80351
 C1529 C 0.39812 0.73986 0.81589
 N1530 N 0.40310 0.71820 0.84562
 N1531 N 0.93634 0.21988 0.36317
 C1532 C 0.96540 0.24307 0.35127
 N1533 N 0.96042 0.26417 0.32107
 N1534 N 0.92722 0.26245 0.30351
 C1535 C 0.89813 0.23986 0.31589
 N1536 N 0.90310 0.21820 0.34562
 N1537 N 0.06366 0.28012 0.36317
 C1538 C 0.03460 0.25693 0.35127
 N1539 N 0.03958 0.23582 0.32107
 N1540 N 0.07278 0.23754 0.30351
 C1541 C 0.10188 0.26014 0.31589
 N1542 N 0.09690 0.28180 0.34562
 N1543 N 0.56366 0.78012 0.86317
 C1544 C 0.53460 0.75694 0.85127
 N1545 N 0.53957 0.73583 0.82107
 N1546 N 0.57278 0.73755 0.80351
 C1547 C 0.60187 0.76014 0.81589
 N1548 N 0.59690 0.78180 0.84562
 N1549 N 0.53957 0.26413 0.67894
 C1550 C 0.53460 0.24305 0.64872
 N1551 N 0.56367 0.21989 0.63681
 N1552 N 0.59691 0.21820 0.65435
 C1553 C 0.60188 0.23983 0.68409
 N1554 N 0.57278 0.26240 0.69650
 N1555 N 0.03958 0.76414 0.17894
 C1556 C 0.03460 0.74305 0.14872
 N1557 N 0.06367 0.71989 0.13681
 N1558 N 0.09691 0.71820 0.15435
 C1559 C 0.10188 0.73983 0.18409
 N1560 N 0.07278 0.76241 0.19650
   
