data_POSCAR
  _audit_creation_date              2014-09-24
  _audit_creation_method            'ToBaCCo'
  _symmetry_space_group_name_H-M    'P1'
  _symmetry_Int_Tables_number       1
  _symmetry_cell_setting            triclinic
  loop_
  _symmetry_equiv_pos_as_xyz
 x,y,z
_cell_length_a 89.2607
_cell_length_b 89.1366
_cell_length_c 89.2431
_cell_angle_alpha 90.062300
_cell_angle_beta 90.043300
_cell_angle_gamma 90.015700
loop_
  _atom_site_label
  _atom_site_type_symbol
  _atom_site_fract_x
  _atom_site_fract_y
  _atom_site_fract_z
N1 N 0.30970 0.42992 0.89909
 N2 N 0.32014 0.44034 0.89922
 C3 C 0.31736 0.45024 0.88815
 C4 C 0.30455 0.44570 0.88079
 C5 C 0.29996 0.43279 0.88792
 H6 H 0.32397 0.46011 0.88575
 H7 H 0.29016 0.42615 0.88533
 Cu8 Cu 0.33609 0.44025 0.91414
 Cu9 Cu 0.30898 0.41395 0.91393
 Cu10 Cu 0.33667 0.41392 0.94117
 N11 N 0.35135 0.44022 0.92976
 N12 N 0.35160 0.42982 0.94020
 C13 C 0.36303 0.43257 0.94968
 C14 C 0.37020 0.44539 0.94490
 C15 C 0.36260 0.45001 0.93226
 H16 H 0.36577 0.42589 0.95942
 H17 H 0.36496 0.45984 0.92558
 N18 N 0.32060 0.39877 0.94033
 N19 N 0.31007 0.39876 0.92992
 C20 C 0.30038 0.38752 0.93275
 C21 C 0.30506 0.38023 0.94551
 C22 C 0.31788 0.38754 0.95005
 H23 H 0.29045 0.38503 0.92626
 H24 H 0.32449 0.38506 0.95990
 H25 H 0.31976 0.42587 0.93067
 H26 H 0.33164 0.41359 0.91857
 N27 N 0.43008 0.85142 0.44052
 N28 N 0.44049 0.85129 0.43008
 C29 C 0.45038 0.86239 0.43287
 C30 C 0.44582 0.86977 0.44567
 C31 C 0.43294 0.86261 0.45026
 H32 H 0.46023 0.86481 0.42624
 H33 H 0.42631 0.86518 0.46008
 Cu34 Cu 0.44036 0.83638 0.41411
 Cu35 Cu 0.41412 0.83656 0.44123
 Cu36 Cu 0.41402 0.80929 0.41352
 N37 N 0.44032 0.82069 0.39888
 N38 N 0.42990 0.81025 0.39862
 C39 C 0.43264 0.80075 0.38720
 C40 C 0.44545 0.80549 0.38002
 C41 C 0.45008 0.81814 0.38764
 H42 H 0.42597 0.79098 0.38447
 H43 H 0.45991 0.82482 0.38526
 N44 N 0.39890 0.81014 0.42958
 N45 N 0.39891 0.82055 0.44013
 C46 C 0.38769 0.81771 0.44982
 C47 C 0.38038 0.80494 0.44511
 C48 C 0.38767 0.80040 0.43229
 H49 H 0.38522 0.82421 0.45975
 H50 H 0.38517 0.79055 0.42567
 H51 H 0.42600 0.81979 0.43043
 H52 H 0.41374 0.83191 0.41855
 N53 N 0.92919 0.89848 0.81059
 N54 N 0.93962 0.89865 0.82100
 C55 C 0.94945 0.88749 0.81829
 C56 C 0.94485 0.88003 0.80555
 C57 C 0.93198 0.88720 0.80093
 H58 H 0.95931 0.88509 0.82491
 H59 H 0.92530 0.88454 0.79117
 Cu60 Cu 0.93961 0.91369 0.83686
 Cu61 Cu 0.91323 0.91335 0.80984
 Cu62 Cu 0.91331 0.94078 0.83736
 N63 N 0.93969 0.92948 0.85196
 N64 N 0.92930 0.93994 0.85219
 C65 C 0.93213 0.94954 0.86352
 C66 C 0.94499 0.94481 0.87064
 C67 C 0.94955 0.93209 0.86312
 H68 H 0.92547 0.95931 0.86623
 H69 H 0.95939 0.92541 0.86547
 N70 N 0.89807 0.93981 0.82140
 N71 N 0.89804 0.92934 0.81091
 C72 C 0.88671 0.93206 0.80129
 C73 C 0.87937 0.94482 0.80599
 C74 C 0.88676 0.94947 0.81873
 H75 H 0.88416 0.92548 0.79143
 H76 H 0.88426 0.95933 0.82534
 H77 H 0.92520 0.93015 0.82051
 H78 H 0.91297 0.91812 0.83250
 N79 N 0.42920 -0.10165 0.31022
 N80 N 0.43961 -0.10149 0.32066
 C81 C 0.44934 -0.11276 0.31807
 C82 C 0.44470 -0.12026 0.30538
 C83 C 0.43193 -0.11301 0.30065
 H84 H 0.45921 -0.11516 0.32469
 H85 H 0.42532 -0.11561 0.29082
 Cu86 Cu 0.43992 -0.08601 0.33603
 Cu87 Cu 0.41339 -0.08664 0.30928
 Cu88 Cu 0.41367 -0.05899 0.33666
 N89 N 0.43998 -0.07042 0.35130
 N90 N 0.42965 -0.05989 0.35148
 C91 C 0.43264 -0.05018 0.36266
 C92 C 0.44550 -0.05491 0.36976
 C93 C 0.44991 -0.06774 0.36236
 H94 H 0.42614 -0.04026 0.36523
 H95 H 0.45977 -0.07440 0.36470
 N96 N 0.39845 -0.05997 0.32069
 N97 N 0.39837 -0.07048 0.31024
 C98 C 0.38704 -0.06775 0.30062
 C99 C 0.37977 -0.05496 0.30530
 C100 C 0.38718 -0.05028 0.31800
 H101 H 0.38443 -0.07437 0.29081
 H102 H 0.38470 -0.04040 0.32459
 H103 H 0.42532 -0.06966 0.31968
 H104 H 0.41327 -0.08166 0.33187
 N105 N 0.80993 0.32055 0.35134
 N106 N 0.82024 0.31000 0.35107
 C107 C 0.81747 0.30010 0.36213
 C108 C 0.80479 0.30477 0.36961
 C109 C 0.80027 0.31774 0.36257
 H110 H 0.82396 0.29012 0.36441
 H111 H 0.79053 0.32445 0.36523
 Cu112 Cu 0.83579 0.31001 0.33580
 Cu113 Cu 0.80920 0.33660 0.33654
 Cu114 Cu 0.83690 0.33659 0.30924
 N115 N 0.85133 0.31005 0.32054
 N116 N 0.85173 0.32058 0.31021
 C117 C 0.86317 0.31782 0.30078
 C118 C 0.87022 0.30490 0.30547
 C119 C 0.86253 0.30023 0.31801
 H120 H 0.86597 0.32453 0.29108
 H121 H 0.86476 0.29029 0.32457
 N122 N 0.82089 0.35180 0.31016
 N123 N 0.81037 0.35183 0.32057
 C124 C 0.80078 0.36318 0.31783
 C125 C 0.80554 0.37053 0.30513
 C126 C 0.81827 0.36313 0.30053
 H127 H 0.79091 0.36574 0.32436
 H128 H 0.82491 0.36566 0.29072
 H129 H 0.81971 0.32491 0.31950
 H130 H 0.83182 0.33675 0.33178
 N131 N -0.17948 0.85211 0.80976
 N132 N -0.18996 0.85191 0.82012
 C133 C -0.19972 0.86315 0.81750
 C134 C -0.19500 0.87070 0.80487
 C135 C -0.18217 0.86350 0.80021
 H136 H -0.20961 0.86551 0.82407
 H137 H -0.17546 0.86616 0.79048
 Cu138 Cu -0.19027 0.83645 0.83554
 Cu139 Cu -0.16356 0.83718 0.80895
 Cu140 Cu -0.16377 0.80961 0.83632
 N141 N -0.19026 0.82084 0.85082
 N142 N -0.17984 0.81042 0.85107
 C143 C -0.18274 0.80074 0.86228
 C144 C -0.19567 0.80536 0.86933
 C145 C -0.20019 0.81812 0.86187
 H146 H -0.17613 0.79092 0.86492
 H147 H -0.21010 0.82471 0.86415
 N148 N -0.14847 0.81064 0.82045
 N149 N -0.14840 0.82112 0.80999
 C150 C -0.13699 0.81844 0.80046
 C151 C -0.12964 0.80572 0.80520
 C152 C -0.13710 0.80103 0.81785
 H153 H -0.13437 0.82506 0.79066
 H154 H -0.13459 0.79119 0.82447
 H155 H -0.17548 0.82013 0.81927
 H156 H -0.16357 0.83224 0.83151
 N157 N 0.94058 0.35123 0.43015
 N158 N 0.93020 0.35095 0.44061
 C159 C 0.93294 0.36199 0.45058
 C160 C 0.94565 0.36948 0.44602
 C161 C 0.95025 0.36246 0.43306
 H162 H 0.92633 0.36429 0.46047
 H163 H 0.95999 0.36517 0.42639
 Cu164 Cu 0.91434 0.33594 0.44050
 Cu165 Cu 0.94124 0.33656 0.41401
 Cu166 Cu 0.91382 0.30906 0.41390
 N167 N 0.89939 0.32002 0.44049
 N168 N 0.89914 0.30966 0.42999
 C169 C 0.88796 0.29993 0.43283
 C170 C 0.88092 0.30445 0.44580
 C171 C 0.88837 0.31720 0.45042
 H172 H 0.88530 0.29017 0.42612
 H173 H 0.88604 0.32376 0.46035
 N174 N 0.92963 0.31027 0.39857
 N175 N 0.94010 0.32075 0.39862
 C176 C 0.94964 0.31817 0.38721
 C177 C 0.94491 0.30550 0.37974
 C178 C 0.93224 0.30074 0.38713
 H179 H 0.95948 0.32478 0.38469
 H180 H 0.92564 0.29089 0.38455
 H181 H 0.91860 0.33173 0.41379
 H182 H 0.93068 0.31961 0.42586
 N183 N 0.43956 0.42905 0.85154
 N184 N 0.42921 0.43955 0.85128
 C185 C 0.43178 0.44931 0.86254
 C186 C 0.44435 0.44458 0.87015
 C187 C 0.44904 0.43173 0.86297
 H188 H 0.42521 0.45923 0.86490
 H189 H 0.45877 0.42503 0.86567
 Cu190 Cu 0.41391 0.43967 0.83577
 Cu191 Cu 0.44054 0.41317 0.83656
 Cu192 Cu 0.41321 0.41343 0.80884
 N193 N 0.39866 0.43990 0.82022
 N194 N 0.39841 0.42949 0.80976
 C195 C 0.38721 0.43246 0.80009
 C196 C 0.38019 0.44540 0.80477
 C197 C 0.38764 0.44988 0.81754
 H198 H 0.38459 0.42591 0.79022
 H199 H 0.38537 0.45979 0.82416
 N200 N 0.42919 0.39820 0.80986
 N201 N 0.43960 0.39812 0.82040
 C202 C 0.44924 0.38682 0.81768
 C203 C 0.44464 0.37955 0.80486
 C204 C 0.43195 0.38694 0.80016
 H205 H 0.45904 0.38423 0.82431
 H206 H 0.42542 0.38447 0.79025
 H207 H 0.43024 0.42503 0.81950
 H208 H 0.41801 0.41301 0.83145
 N209 N 0.81026 0.89845 0.92923
 N210 N 0.82076 0.89868 0.93960
 C211 C 0.81809 0.88764 0.94955
 C212 C 0.80530 0.88020 0.94511
 C213 C 0.80058 0.88726 0.93222
 H214 H 0.82475 0.88532 0.95941
 H215 H 0.79067 0.88468 0.92572
 Cu216 Cu 0.83633 0.91390 0.93924
 Cu217 Cu 0.80933 0.91327 0.91320
 Cu218 Cu 0.83703 0.94066 0.91295
 N219 N 0.85178 0.92925 0.93927
 N220 N 0.85201 0.93967 0.92882
 C221 C 0.86342 0.94917 0.93154
 C222 C 0.87063 0.94441 0.94433
 C223 C 0.86305 0.93179 0.94900
 H224 H 0.86608 0.95896 0.92490
 H225 H 0.86546 0.92515 0.95884
 N226 N 0.82087 0.93971 0.89792
 N227 N 0.81034 0.92927 0.89799
 C228 C 0.80066 0.93200 0.88673
 C229 C 0.80535 0.94470 0.87934
 C230 C 0.81814 0.94934 0.88661
 H231 H 0.79077 0.92543 0.88425
 H232 H 0.82477 0.95915 0.88402
 H233 H 0.83193 0.91810 0.91268
 H234 H 0.82001 0.93031 0.92481
 N235 N 0.31045 0.85170 0.32068
 N236 N 0.32075 0.85132 0.31014
 C237 C 0.31812 0.86246 0.30029
 C238 C 0.30555 0.87011 0.30498
 C239 C 0.30094 0.86308 0.31791
 H240 H 0.32466 0.86473 0.29036
 H241 H 0.29123 0.86584 0.32461
 Cu242 Cu 0.33628 0.83602 0.31011
 Cu243 Cu 0.30946 0.83684 0.33663
 Cu244 Cu 0.33580 0.80836 0.33547
 N245 N 0.35206 0.82096 0.31081
 N246 N 0.35192 0.81025 0.32094
 C247 C 0.36356 0.80095 0.31852
 C248 C 0.37131 0.80616 0.30623
 C249 C 0.36381 0.81884 0.30157
 H250 H 0.36591 0.79090 0.32488
 H251 H 0.36646 0.82568 0.29193
 N252 N 0.32032 0.80967 0.35112
 N253 N 0.31033 0.82060 0.35159
 C254 C 0.30082 0.81804 0.36302
 C255 C 0.30508 0.80494 0.36997
 C256 C 0.31746 0.79990 0.36227
 H257 H 0.29124 0.82492 0.36582
 H258 H 0.32365 0.78970 0.36441
 H259 H 0.33189 0.83112 0.33651
 H260 H 0.31901 0.82013 0.32419
 N261 N 0.80975 0.39878 0.42968
 N262 N 0.82016 0.39910 0.44012
 C263 C 0.81751 0.38803 0.45006
 C264 C 0.80481 0.38050 0.44553
 C265 C 0.80013 0.38752 0.43260
 H266 H 0.82412 0.38578 0.45997
 H267 H 0.79030 0.38486 0.42602
 Cu268 Cu 0.83563 0.41444 0.43986
 Cu269 Cu 0.80883 0.41357 0.41361
 Cu270 Cu 0.83637 0.44113 0.41353
 N271 N 0.85093 0.42995 0.44005
 N272 N 0.85121 0.44031 0.42955
 C273 C 0.86245 0.44997 0.43240
 C274 C 0.86950 0.44539 0.44534
 C275 C 0.86201 0.43269 0.44996
 H276 H 0.86507 0.45978 0.42577
 H277 H 0.86430 0.42615 0.45990
 N278 N 0.82034 0.44003 0.39835
 N279 N 0.80985 0.42956 0.39839
 C280 C 0.80020 0.43225 0.38709
 C281 C 0.80488 0.44497 0.37971
 C282 C 0.81763 0.44964 0.38702
 H283 H 0.79033 0.42567 0.38458
 H284 H 0.82423 0.45949 0.38446
 H285 H 0.83137 0.41854 0.41328
 H286 H 0.81930 0.43070 0.42526
 N287 N 0.92929 0.85135 -0.06022
 N288 N 0.93978 0.85112 -0.07058
 C289 C 0.94952 0.86237 -0.06797
 C290 C 0.94481 0.86994 -0.05536
 C291 C 0.93198 0.86276 -0.05070
 H292 H 0.95942 0.86474 -0.07453
 H293 H 0.92531 0.86543 -0.04094
 Cu294 Cu 0.93994 0.83571 -0.08599
 Cu295 Cu 0.91351 0.83631 -0.05925
 Cu296 Cu 0.91356 0.80886 -0.08685
 N297 N 0.93982 0.82040 -0.10150
 N298 N 0.92936 0.80999 -0.10183
 C299 C 0.93208 0.80056 -0.11330
 C300 C 0.94490 0.80534 -0.12042
 C301 C 0.94957 0.81792 -0.11275
 H302 H 0.92543 0.79079 -0.11606
 H303 H 0.95945 0.82455 -0.11505
 N304 N 0.89857 0.80963 -0.07068
 N305 N 0.89855 0.82009 -0.06017
 C306 C 0.88746 0.81715 -0.05037
 C307 C 0.88028 0.80427 -0.05497
 C308 C 0.88749 0.79977 -0.06784
 H309 H 0.88499 0.82365 -0.04044
 H310 H 0.88506 0.78986 -0.07440
 H311 H 0.92529 0.81932 -0.06978
 H312 H 0.91330 0.83148 -0.08188
 N313 N 0.30973 0.35101 0.82012
 N314 N 0.32043 0.35102 0.80998
 C315 C 0.31779 0.36213 0.80008
 C316 C 0.30482 0.36936 0.80432
 C317 C 0.29997 0.36211 0.81705
 H318 H 0.32462 0.36463 0.79040
 H319 H 0.28996 0.36455 0.82342
 Cu320 Cu 0.33646 0.33622 0.81026
 Cu321 Cu 0.30877 0.33609 0.83598
 Cu322 Cu 0.33630 0.30875 0.83622
 N323 N 0.35145 0.32035 0.81033
 N324 N 0.35139 0.30972 0.82055
 C325 C 0.36264 0.30005 0.81774
 C326 C 0.37005 0.30491 0.80510
 C327 C 0.36275 0.31778 0.80065
 H328 H 0.36510 0.29011 0.82423
 H329 H 0.36533 0.32458 0.79096
 N330 N 0.32012 0.30959 0.85117
 N331 N 0.30963 0.32005 0.85110
 C332 C 0.29986 0.31725 0.86226
 C333 C 0.30445 0.30446 0.86958
 C334 C 0.31728 0.29986 0.86237
 H335 H 0.28997 0.32382 0.86471
 H336 H 0.32386 0.29000 0.86492
 H337 H 0.33142 0.33141 0.83672
 H338 H 0.31974 0.31951 0.82400
 N339 N 0.14795 0.57105 0.56040
 N340 N 0.14816 0.56059 0.57078
 C341 C 0.13694 0.55080 0.56815
 C342 C 0.12942 0.55545 0.55548
 C343 C 0.13661 0.56830 0.55082
 H344 H 0.13457 0.54091 0.57474
 H345 H 0.13396 0.57496 0.54105
 Cu346 Cu 0.16359 0.56054 0.58621
 Cu347 Cu 0.16288 0.58700 0.55951
 Cu348 Cu 0.19040 0.58692 0.58702
 N349 N 0.17902 0.56051 0.60165
 N350 N 0.18945 0.57094 0.60190
 C351 C 0.19900 0.56814 0.61325
 C352 C 0.19427 0.55529 0.62040
 C353 C 0.18159 0.55070 0.61285
 H354 H 0.20878 0.57478 0.61594
 H355 H 0.17494 0.54083 0.61519
 N356 N 0.18945 0.60210 0.57099
 N357 N 0.17898 0.60213 0.56051
 C358 C 0.18171 0.61345 0.55090
 C359 C 0.19446 0.62079 0.55558
 C360 C 0.19911 0.61340 0.56830
 H361 H 0.17512 0.61602 0.54106
 H362 H 0.20896 0.61592 0.57491
 H363 H 0.17990 0.57522 0.56995
 H364 H 0.16782 0.58721 0.58210
 N365 N 0.60165 0.67952 0.05988
 N366 N 0.60156 0.68989 0.07039
 C367 C 0.61289 0.69957 0.06787
 C368 C 0.62038 0.69492 0.05519
 C369 C 0.61304 0.68220 0.05037
 H370 H 0.61534 0.70940 0.07455
 H371 H 0.61561 0.67560 0.04052
 Cu372 Cu 0.58612 0.69025 0.08577
 Cu373 Cu 0.58648 0.66386 0.05876
 Cu374 Cu 0.55891 0.66411 0.08607
 N375 N 0.57051 0.69025 0.10099
 N376 N 0.55995 0.67994 0.10108
 C377 C 0.55027 0.68289 0.11226
 C378 C 0.55502 0.69571 0.11945
 C379 C 0.56786 0.70014 0.11211
 H380 H 0.54033 0.67641 0.11476
 H381 H 0.57453 0.70999 0.11448
 N382 N 0.55971 0.64903 0.06995
 N383 N 0.57020 0.64895 0.05951
 C384 C 0.56733 0.63776 0.04976
 C385 C 0.55446 0.63056 0.05432
 C386 C 0.54990 0.63788 0.06712
 H387 H 0.57390 0.63519 0.03991
 H388 H 0.54002 0.63544 0.07367
 H389 H 0.56965 0.67592 0.06923
 H390 H 0.58152 0.66364 0.08131
 N391 N 0.67953 0.19023 0.64841
 N392 N 0.69003 0.17987 0.64866
 C393 C 0.69972 0.18242 0.63738
 C394 C 0.69497 0.19498 0.62975
 C395 C 0.68216 0.19969 0.63696
 H396 H 0.70962 0.17583 0.63501
 H397 H 0.67543 0.20941 0.63424
 Cu398 Cu 0.69023 0.16455 0.66417
 Cu399 Cu 0.66373 0.19123 0.66344
 Cu400 Cu 0.66399 0.16380 0.69105
 N401 N 0.69038 0.14921 0.67966
 N402 N 0.67995 0.14892 0.69007
 C403 C 0.68284 0.13761 0.69964
 C404 C 0.69575 0.13056 0.69497
 C405 C 0.70029 0.13811 0.68229
 H406 H 0.67623 0.13493 0.70944
 H407 H 0.71019 0.13583 0.67569
 N408 N 0.64882 0.17985 0.69012
 N409 N 0.64875 0.19032 0.67964
 C410 C 0.63754 0.20004 0.68250
 C411 C 0.63035 0.19544 0.69533
 C412 C 0.63767 0.18264 0.69990
 H413 H 0.63500 0.20992 0.67595
 H414 H 0.63524 0.17609 0.70980
 H415 H 0.67557 0.18087 0.68046
 H416 H 0.66358 0.16864 0.66844
 N417 N 1.10095 0.06964 0.19062
 N418 N 1.10070 0.05910 0.18027
 C419 C 1.11181 0.04924 0.18299
 C420 C 1.11934 0.05393 0.19565
 C421 C 1.11225 0.06687 0.20023
 H422 H 1.11412 0.03927 0.17646
 H423 H 1.11491 0.07357 0.20998
 Cu424 Cu 1.08533 0.05904 0.16482
 Cu425 Cu 1.08605 0.08560 0.19146
 Cu426 Cu 1.05861 0.08547 0.16384
 N427 N 1.06995 0.05893 0.14938
 N428 N 1.05958 0.06942 0.14902
 C429 C 1.05004 0.06655 0.13768
 C430 C 1.05469 0.05358 0.13069
 C431 C 1.06732 0.04899 0.13830
 H432 H 1.04028 0.07319 0.13494
 H433 H 1.07387 0.03903 0.13608
 N434 N 1.05954 0.10068 0.17986
 N435 N 1.06997 0.10073 0.19038
 C436 C 1.06712 0.11197 0.20008
 C437 C 1.05433 0.11922 0.19540
 C438 C 1.04979 0.11189 0.18259
 H439 H 1.07361 0.11448 0.21000
 H440 H 1.03992 0.11433 0.17601
 H441 H 1.06901 0.07383 0.18098
 H442 H 1.08117 0.08576 0.16886
 N443 N 0.07018 0.14867 1.05971
 N444 N 0.05972 0.14897 1.07008
 C445 C 0.04973 0.13797 1.06730
 C446 C 0.05427 0.13046 1.05458
 C447 C 0.06725 0.13745 1.05003
 H448 H 0.03982 0.13569 1.07388
 H449 H 0.07390 0.13474 1.04027
 Cu450 Cu 0.05981 0.16397 1.08595
 Cu451 Cu 0.08631 0.16332 1.05905
 Cu452 Cu 0.08637 0.19088 1.08643
 N453 N 0.05978 0.17993 1.10085
 N454 N 0.07027 0.19030 1.10109
 C455 C 0.06737 0.20007 1.11224
 C456 C 0.05439 0.19555 1.11925
 C457 C 0.04982 0.18278 1.11183
 H458 H 0.07404 0.20985 1.11489
 H459 H 0.03991 0.17621 1.11414
 N460 N 0.10171 0.18963 1.07062
 N461 N 0.10169 0.17911 1.06019
 C462 C 0.11310 0.18166 1.05064
 C463 C 0.12055 0.19435 1.05534
 C464 C 0.11315 0.19915 1.06799
 H465 H 0.11562 0.17501 1.04082
 H466 H 0.11571 0.20902 1.07456
 H467 H 0.08651 0.16818 1.08169
 H468 H 0.07443 0.18027 1.06958
 N469 N 0.14874 0.69025 0.67967
 N470 N 0.14897 0.67980 0.69007
 C471 C 0.13796 0.68256 0.70003
 C472 C 0.13054 0.69535 0.69555
 C473 C 0.13758 0.69997 0.68262
 H474 H 0.13567 0.67596 0.70993
 H475 H 0.13497 0.70982 0.67605
 Cu476 Cu 0.16421 0.66419 0.69004
 Cu477 Cu 0.16346 0.69103 0.66360
 Cu478 Cu 0.19077 0.66339 0.66333
 N479 N 0.17959 0.64871 0.68972
 N480 N 0.18994 0.64848 0.67924
 C481 C 0.19950 0.63712 0.68194
 C482 C 0.19487 0.62994 0.69479
 C483 C 0.18224 0.63749 0.69948
 H484 H 0.20925 0.63446 0.67525
 H485 H 0.17569 0.63514 0.70939
 N486 N 0.18974 0.67944 0.64821
 N487 N 0.17931 0.68996 0.64829
 C488 C 0.18193 0.69957 0.63694
 C489 C 0.19456 0.69483 0.62948
 C490 C 0.19927 0.68209 0.63681
 H491 H 0.17534 0.70943 0.63445
 H492 H 0.20905 0.67545 0.63418
 H493 H 0.16821 0.66838 0.66337
 H494 H 0.18050 0.68045 0.67530
 N495 N 1.17980 0.14862 0.19009
 N496 N 1.19024 0.14891 0.17969
 C497 C 1.20014 0.13781 0.18233
 C498 C 1.19559 0.13027 0.19501
 C499 C 1.18268 0.13732 0.19968
 H500 H 1.21005 0.13554 0.17575
 H501 H 1.17608 0.13464 0.20947
 Cu502 Cu 1.19008 0.16426 0.16420
 Cu503 Cu 1.16383 0.16349 0.19107
 Cu504 Cu 1.16360 0.19094 0.16349
 N505 N 1.18991 0.17959 0.14871
 N506 N 1.17941 0.18995 0.14846
 C507 C 1.18204 0.19942 0.13701
 C508 C 1.19485 0.19472 0.12980
 C509 C 1.19960 0.18214 0.13741
 H510 H 1.17532 0.20914 0.13431
 H511 H 1.20949 0.17555 0.13505
 N512 N 1.14860 0.19002 0.17968
 N513 N 1.14867 0.17955 0.19015
 C514 C 1.13751 0.18233 0.19993
 C515 C 1.13019 0.19513 0.19536
 C516 C 1.13740 0.19974 0.18253
 H517 H 1.13507 0.17578 0.20982
 H518 H 1.13485 0.20962 0.17599
 H519 H 1.16344 0.16834 0.16847
 H520 H 1.17542 0.18055 0.18052
 N521 N 0.64822 1.06039 0.57070
 N522 N 0.64850 1.07078 0.56024
 C523 C 0.63721 1.06828 0.55052
 C524 C 0.62956 1.05570 0.55521
 C525 C 0.63675 1.05095 0.56801
 H526 H 0.63485 1.07491 0.54065
 H527 H 0.63403 1.04119 0.57467
 Cu528 Cu 0.66399 1.08612 0.56012
 Cu529 Cu 0.66324 1.05929 0.58649
 Cu530 Cu 0.69082 1.08673 0.58653
 N531 N 0.67939 1.10157 0.56030
 N532 N 0.68979 1.10179 0.57076
 C533 C 0.69926 1.11324 0.56810
 C534 C 0.69452 1.12047 0.55531
 C535 C 0.68192 1.11287 0.55060
 H536 H 0.70903 1.11591 0.57477
 H537 H 0.67528 1.11527 0.54075
 N538 N 0.68995 1.07051 0.60150
 N539 N 0.67943 1.06007 0.60148
 C540 C 0.68228 1.05022 0.61256
 C541 C 0.69517 1.05470 0.61978
 C542 C 0.69977 1.06756 0.61259
 H543 H 0.67571 1.04032 0.61501
 H544 H 0.70970 1.07405 0.61506
 H545 H 0.66820 1.08192 0.58677
 H546 H 0.68027 1.06975 0.57475
 N547 N 0.56993 0.55924 0.14902
 N548 N 0.55949 0.56966 0.14919
 C549 C 0.54961 0.56688 0.13810
 C550 C 0.55418 0.55411 0.13069
 C551 C 0.56708 0.54952 0.13782
 H552 H 0.53973 0.57349 0.13572
 H553 H 0.57370 0.53969 0.13523
 Cu554 Cu 0.55949 0.58555 0.16416
 Cu555 Cu 0.58587 0.55851 0.16388
 Cu556 Cu 0.58576 0.58605 0.19130
 N557 N 0.55937 0.60059 0.17999
 N558 N 0.56977 0.60084 0.19044
 C559 C 0.56685 0.61208 0.20010
 C560 C 0.55394 0.61914 0.19543
 C561 C 0.54945 0.61166 0.18267
 H562 H 0.57343 0.61475 0.20993
 H563 H 0.53959 0.61398 0.17601
 N564 N 0.60099 0.57011 0.19033
 N565 N 0.60103 0.55960 0.17988
 C566 C 0.61228 0.54992 0.18270
 C567 C 0.61955 0.55460 0.19549
 C568 C 0.61221 0.56739 0.20007
 H569 H 0.61479 0.54000 0.17617
 H570 H 0.61466 0.57397 0.20996
 H571 H 0.57388 0.56916 0.18066
 H572 H 0.58612 0.58118 0.16867
 N573 N 0.64908 0.68013 0.19021
 N574 N 0.64929 0.69061 0.17984
 C575 C 0.63817 0.70048 0.18255
 C576 C 0.63071 0.69585 0.19525
 C577 C 0.63782 0.68294 0.19985
 H578 H 0.63583 0.71040 0.17600
 H579 H 0.63521 0.67629 0.20963
 Cu580 Cu 0.66456 0.69058 0.16430
 Cu581 Cu 0.66399 0.66420 0.19108
 Cu582 Cu 0.69127 0.66411 0.16338
 N583 N 0.67981 0.69045 0.14872
 N584 N 0.69018 0.67996 0.14840
 C585 C 0.69957 0.68265 0.13692
 C586 C 0.69482 0.69548 0.12977
 C587 C 0.68228 0.70019 0.13745
 H588 H 0.70929 0.67595 0.13416
 H589 H 0.67567 0.71009 0.13514
 N590 N 0.69047 0.64906 0.17953
 N591 N 0.68006 0.64908 0.19006
 C592 C 0.68293 0.63790 0.19980
 C593 C 0.69571 0.63062 0.19515
 C594 C 0.70023 0.63787 0.18232
 H595 H 0.67644 0.63543 0.20973
 H596 H 0.71008 0.63537 0.17572
 H597 H 0.68095 0.67589 0.18048
 H598 H 0.66872 0.66389 0.16845
 N599 N 0.14901 0.07002 1.05969
 N600 N 0.14907 0.05966 1.07018
 C601 C 0.13758 0.05015 1.06776
 C602 C 0.13005 0.05487 1.05514
 C603 C 0.13751 0.06748 1.05026
 H604 H 0.13514 0.04028 1.07437
 H605 H 0.13507 0.07398 1.04033
 Cu606 Cu 0.16482 0.05906 1.08526
 Cu607 Cu 0.16481 0.08499 1.05819
 Cu608 Cu 0.19115 0.08609 1.08667
 N609 N 0.18037 0.05902 1.10054
 N610 N 0.19048 0.06975 1.10115
 C611 C 0.20007 0.06689 1.11244
 C612 C 0.19570 0.05369 1.11917
 C613 C 0.18319 0.04896 1.11144
 H614 H 0.20967 0.07371 1.11535
 H615 H 0.17682 0.03885 1.11349
 N616 N 0.18994 0.10142 1.07078
 N617 N 0.17994 0.10097 1.05986
 C618 C 0.18254 0.11241 1.05036
 C619 C 0.19475 0.12030 1.05555
 C620 C 0.19920 0.11314 1.06847
 H621 H 0.17630 0.11463 1.04021
 H622 H 0.20873 0.11600 1.07539
 H623 H 0.18183 0.07382 1.06973
 H624 H 0.16873 0.08567 1.08095
 N625 N 0.60178 0.19004 0.57038
 N626 N 0.60149 0.17960 0.55995
 C627 C 0.61274 0.18208 0.55019
 C628 C 0.62038 0.19470 0.55484
 C629 C 0.61322 0.19950 0.56764
 H630 H 0.61508 0.17542 0.54033
 H631 H 0.61594 0.20928 0.57428
 Cu632 Cu 0.58602 0.16422 0.55989
 Cu633 Cu 0.58678 0.19116 0.58620
 Cu634 Cu 0.55924 0.16366 0.58627
 N635 N 0.57061 0.14878 0.56002
 N636 N 0.56024 0.14858 0.57049
 C637 C 0.55074 0.13715 0.56782
 C638 C 0.55542 0.12991 0.55502
 C639 C 0.56803 0.13748 0.55030
 H640 H 0.54099 0.13450 0.57450
 H641 H 0.57462 0.13508 0.54042
 N642 N 0.56013 0.17990 0.60123
 N643 N 0.57061 0.19038 0.60121
 C644 C 0.56775 0.20024 0.61230
 C645 C 0.55491 0.19571 0.61953
 C646 C 0.55034 0.18283 0.61234
 H647 H 0.57430 0.21015 0.61475
 H648 H 0.54043 0.17631 0.61482
 H649 H 0.58185 0.16853 0.58652
 H650 H 0.56975 0.18062 0.57448
 N651 N 0.10172 0.57075 0.68974
 N652 N 0.10179 0.56055 0.67907
 C653 C 0.11307 0.55083 0.68162
 C654 C 0.12035 0.55525 0.69451
 C655 C 0.11295 0.56789 0.69941
 H656 H 0.11566 0.54114 0.67478
 H657 H 0.11540 0.57436 0.70937
 Cu658 Cu 0.08685 0.56058 0.66317
 Cu659 Cu 0.08663 0.58645 0.69077
 Cu660 Cu 0.05921 0.58635 0.66331
 N661 N 0.07097 0.56045 0.64822
 N662 N 0.06028 0.57060 0.64826
 C663 C 0.05064 0.56768 0.63703
 C664 C 0.05556 0.55503 0.62966
 C665 C 0.06845 0.55068 0.63696
 H666 H 0.04067 0.57411 0.63455
 H667 H 0.07531 0.54101 0.63438
 N668 N 0.05997 0.60136 0.67948
 N669 N 0.07042 0.60140 0.68996
 C670 C 0.06753 0.61256 0.69975
 C671 C 0.05468 0.61976 0.69516
 C672 C 0.05015 0.61249 0.68232
 H673 H 0.07407 0.61508 0.70964
 H674 H 0.04027 0.61494 0.67575
 H675 H 0.07012 0.57430 0.67987
 H676 H 0.08185 0.58706 0.66812
 N677 N 0.64877 0.55974 0.06981
 N678 N 0.64905 0.57015 0.05937
 C679 C 0.63794 0.56749 0.04947
 C680 C 0.63041 0.55479 0.05403
 C681 C 0.63748 0.55013 0.06694
 H682 H 0.63565 0.57409 0.03957
 H683 H 0.63479 0.54034 0.07356
 Cu684 Cu 0.66437 0.58568 0.05952
 Cu685 Cu 0.66362 0.55882 0.08582
 Cu686 Cu 0.69100 0.58650 0.08607
 N687 N 0.67968 0.60123 0.05972
 N688 N 0.69002 0.60152 0.07023
 C689 C 0.69947 0.61299 0.06760
 C690 C 0.69478 0.62018 0.05477
 C691 C 0.68223 0.61252 0.05000
 H692 H 0.70917 0.61574 0.07434
 H693 H 0.67565 0.61486 0.04010
 N694 N 0.69009 0.57031 0.10110
 N695 N 0.67964 0.55979 0.10101
 C696 C 0.68244 0.55003 0.11219
 C697 C 0.69520 0.55465 0.11954
 C698 C 0.69979 0.56750 0.11233
 H699 H 0.67591 0.54010 0.11462
 H700 H 0.70964 0.57409 0.11489
 H701 H 0.66844 0.58147 0.08620
 H702 H 0.68066 0.56942 0.07424
 N703 N 0.07050 0.69031 0.60123
 N704 N 0.06007 0.67988 0.60105
 C705 C 0.05015 0.68269 0.61209
 C706 C 0.05469 0.69550 0.61947
 C707 C 0.06761 0.70007 0.61238
 H708 H 0.04022 0.67614 0.61441
 H709 H 0.07422 0.70992 0.61495
 Cu710 Cu 0.05999 0.66422 0.58583
 Cu711 Cu 0.08651 0.69103 0.58644
 Cu712 Cu 0.08658 0.66334 0.55914
 N713 N 0.06021 0.64870 0.57047
 N714 N 0.07065 0.64844 0.56006
 C715 C 0.06788 0.63704 0.55053
 C716 C 0.05505 0.62988 0.55524
 C717 C 0.05042 0.63747 0.56788
 H718 H 0.07453 0.63434 0.54077
 H719 H 0.04054 0.63515 0.57448
 N720 N 0.10175 0.67938 0.56008
 N721 N 0.10174 0.68991 0.57051
 C722 C 0.11308 0.69953 0.56781
 C723 C 0.12046 0.69478 0.55512
 C724 C 0.11309 0.68202 0.55047
 H725 H 0.11561 0.70941 0.57438
 H726 H 0.11564 0.67537 0.54066
 H727 H 0.07470 0.68043 0.56946
 H728 H 0.08665 0.66837 0.58170
 N729 N 0.57011 1.05990 0.64821
 N730 N 0.55958 1.07023 0.64849
 C731 C 0.54994 1.06774 0.63710
 C732 C 0.55473 1.05519 0.62944
 C733 C 0.56752 1.05046 0.63670
 H734 H 0.54009 1.07438 0.63468
 H735 H 0.57425 1.04074 0.63400
 Cu736 Cu 0.55940 1.08574 0.66388
 Cu737 Cu 0.58591 1.05896 0.66328
 Cu738 Cu 0.58562 1.08639 0.69093
 N739 N 0.55921 1.10095 0.67956
 N740 N 0.56964 1.10128 0.68998
 C741 C 0.56678 1.11263 0.69954
 C742 C 0.55391 1.11972 0.69479
 C743 C 0.54936 1.11215 0.68210
 H744 H 0.57337 1.11531 0.70936
 H745 H 0.53952 1.11448 0.67541
 N746 N 0.60081 1.07033 0.69002
 N747 N 0.60090 1.05987 0.67951
 C748 C 0.61215 1.05019 0.68232
 C749 C 0.61938 1.05480 0.69517
 C750 C 0.61201 1.06756 0.69979
 H751 H 0.61474 1.04034 0.67572
 H752 H 0.61445 1.07412 0.70969
 H753 H 0.57404 1.06936 0.68026
 H754 H 0.58609 1.08156 0.66832
 N755 N 0.43989 0.35195 0.92944
 N756 N 0.42955 0.35165 0.93995
 C757 C 0.43209 0.36294 0.94970
 C758 C 0.44466 0.37058 0.94497
 C759 C 0.44936 0.36341 0.93213
 H760 H 0.42550 0.36528 0.95959
 H761 H 0.45908 0.36613 0.92542
 Cu762 Cu 0.41429 0.33603 0.94011
 Cu763 Cu 0.44080 0.33703 0.91347
 Cu764 Cu 0.41353 0.30927 0.91363
 N765 N 0.39901 0.32044 0.94018
 N766 N 0.39878 0.31003 0.92971
 C767 C 0.38761 0.30030 0.93259
 C768 C 0.38054 0.30488 0.94552
 C769 C 0.38796 0.31766 0.95009
 H770 H 0.38502 0.29046 0.92597
 H771 H 0.38563 0.32424 0.96001
 N772 N 0.42942 0.31041 0.89834
 N773 N 0.43984 0.32095 0.89830
 C774 C 0.44939 0.31832 0.88690
 C775 C 0.44472 0.30556 0.87953
 C776 C 0.43208 0.30080 0.88698
 H777 H 0.45916 0.32499 0.88430
 H778 H 0.42551 0.29092 0.88445
 H779 H 0.41826 0.33194 0.91343
 H780 H 0.43059 0.31987 0.92526
 N781 N 0.94020 0.42961 0.35178
 N782 N 0.92976 0.44004 0.35159
 C783 C 0.93246 0.44995 0.36270
 C784 C 0.94521 0.44539 0.37014
 C785 C 0.94987 0.43249 0.36301
 H786 H 0.92583 0.45983 0.36508
 H787 H 0.95971 0.42589 0.36559
 Cu788 Cu 0.91413 0.43976 0.33638
 Cu789 Cu 0.94103 0.41357 0.33691
 Cu790 Cu 0.91328 0.41342 0.30959
 N791 N 0.89862 0.43982 0.32104
 N792 N 0.89833 0.42935 0.31062
 C793 C 0.88688 0.43206 0.30118
 C794 C 0.87969 0.44488 0.30595
 C795 C 0.88735 0.44957 0.31854
 H796 H 0.88417 0.42539 0.29142
 H797 H 0.88498 0.45943 0.32520
 N798 N 0.92941 0.39832 0.31046
 N799 N 0.93995 0.39835 0.32087
 C800 C 0.94959 0.38704 0.31810
 C801 C 0.94485 0.37966 0.30539
 C802 C 0.93207 0.38699 0.30080
 H803 H 0.95947 0.38452 0.32464
 H804 H 0.92541 0.38441 0.29101
 H805 H 0.93037 0.42522 0.31994
 H806 H 0.91842 0.41314 0.33212
 N807 N 0.31051 0.92978 0.39866
 N808 N 0.32085 0.94030 0.39891
 C809 C 0.31833 0.94996 0.38757
 C810 C 0.30580 0.94514 0.37991
 C811 C 0.30109 0.93235 0.38716
 H812 H 0.32491 0.95986 0.38519
 H813 H 0.29139 0.92559 0.38443
 Cu814 Cu 0.33611 0.94057 0.41449
 Cu815 Cu 0.30948 0.91402 0.41374
 Cu816 Cu 0.33680 0.91436 0.44144
 N817 N 0.35140 0.94077 0.43005
 N818 N 0.35167 0.93035 0.44048
 C819 C 0.36294 0.93324 0.45010
 C820 C 0.37000 0.94615 0.44541
 C821 C 0.36250 0.95070 0.43269
 H822 H 0.36559 0.92664 0.45992
 H823 H 0.36480 0.96059 0.42607
 N824 N 0.32076 0.89917 0.44051
 N825 N 0.31033 0.89907 0.42998
 C826 C 0.30060 0.88786 0.43282
 C827 C 0.30516 0.88069 0.44570
 C828 C 0.31793 0.88803 0.45030
 H829 H 0.29075 0.88530 0.42624
 H830 H 0.32444 0.88562 0.46024
 H831 H 0.31980 0.92593 0.43077
 H832 H 0.33203 0.91390 0.41882
 O833 O 0.25118 0.48035 0.78967
 O834 O 0.22530 0.48253 0.78486
 O835 O 0.26950 0.46025 0.75068
 O836 O 0.26930 0.46454 0.72575
 O837 O 0.28988 0.49937 0.76932
 O838 O 0.28429 0.52567 0.76801
 O839 O 0.23006 0.50101 0.71088
 O840 O 0.23351 0.47520 0.71487
 O841 O 0.21086 0.51943 0.74854
 O842 O 0.21588 0.51806 0.77578
 O843 O 0.24847 0.53917 0.73045
 O844 O 0.27557 0.53426 0.73157
 O845 O 0.24796 0.51927 0.71093
 O846 O 0.27596 0.51751 0.71613
 O847 O 0.23047 0.53915 0.74851
 O848 O 0.23251 0.53364 0.77630
 O849 O 0.21106 0.50166 0.73019
 O850 O 0.21582 0.47436 0.73531
 O851 O 0.26891 0.49883 0.78987
 O852 O 0.26722 0.52565 0.78444
 O853 O 0.29008 0.48132 0.75120
 O854 O 0.28413 0.48397 0.72402
 O855 O 0.25169 0.46014 0.76899
 O856 O 0.22454 0.46570 0.76534
 Zr857 Zr 0.24196 0.48168 0.76799
 O858 O 0.22750 0.49505 0.75497
 Zr859 Zr 0.26846 0.48207 0.74171
 O860 O 0.25489 0.49504 0.72739
 Zr861 Zr 0.26810 0.50837 0.76822
 O862 O 0.25491 0.52273 0.75490
 Zr863 Zr 0.23217 0.49136 0.73222
 O864 O 0.24569 0.47677 0.74517
 Zr865 Zr 0.23217 0.51786 0.75855
 O866 O 0.24537 0.50455 0.77306
 Zr867 Zr 0.25843 0.51786 0.73209
 O868 O 0.27322 0.50491 0.74543
 O869 O 0.26457 0.48573 0.76430
 O870 O 0.23578 0.51413 0.73586
 C871 C 0.26170 0.48794 0.79598
 C872 C 0.26229 0.45397 0.76144
 C873 C 0.29621 0.48877 0.76191
 C874 C 0.23705 0.51206 0.70487
 C875 C 0.20493 0.51248 0.73743
 C876 C 0.23754 0.54521 0.73757
 H877 H 0.21696 0.49255 0.75728
 H878 H 0.25731 0.53329 0.75728
 H879 H 0.27101 0.47936 0.77067
 H880 H 0.25709 0.49258 0.71681
 H881 H 0.23674 0.46571 0.71963
 H882 H 0.26221 0.46718 0.71766
 H883 H 0.24073 0.54082 0.77435
 H884 H 0.25744 0.52465 0.78957
 H885 H 0.20877 0.47482 0.72672
 H886 H 0.22549 0.45807 0.77337
 H887 H 0.27476 0.54030 0.74084
 H888 H 0.28900 0.52541 0.75797
 H889 H 0.22568 0.49273 0.78923
 H890 H 0.20970 0.50891 0.77468
 H891 H 0.28996 0.49324 0.72588
 H892 H 0.27383 0.50938 0.70889
 O893 O 0.21026 0.01930 0.24901
 O894 O 0.21514 0.01715 0.27485
 O895 O 0.24912 0.03961 0.23064
 O896 O 0.27405 0.03542 0.23074
 O897 O 0.23064 0.00045 0.21017
 O898 O 0.23203 -0.02585 0.21569
 O899 O 0.28917 -0.00100 0.26982
 O900 O 0.28501 0.02477 0.26655
 O901 O 0.25165 -0.01969 0.28910
 O902 O 0.22440 -0.01839 0.28416
 O903 O 0.26973 -0.03925 0.25138
 O904 O 0.26854 -0.03430 0.22430
 O905 O 0.28917 -0.01924 0.25187
 O906 O 0.28388 -0.01751 0.22391
 O907 O 0.25170 -0.03935 0.26941
 O908 O 0.22389 -0.03392 0.26749
 O909 O 0.26993 -0.00186 0.28890
 O910 O 0.26463 0.02544 0.28429
 O911 O 0.21012 0.00087 0.23122
 O912 O 0.21566 -0.02591 0.23278
 O913 O 0.24867 0.01856 0.20997
 O914 O 0.27586 0.01606 0.21590
 O915 O 0.23083 0.03962 0.24847
 O916 O 0.23459 0.03403 0.27562
 Zr917 Zr 0.23196 0.01807 0.25815
 O918 O 0.24506 0.00472 0.27255
 Zr919 Zr 0.25818 0.01784 0.23159
 O920 O 0.27258 0.00490 0.24509
 Zr921 Zr 0.23180 -0.00857 0.23193
 O922 O 0.24521 -0.02290 0.24505
 Zr923 Zr 0.26777 0.00851 0.26784
 O924 O 0.25475 0.02308 0.25438
 Zr925 Zr 0.24158 -0.01810 0.26782
 O926 O 0.22699 -0.00482 0.25469
 Zr927 Zr 0.26797 -0.01793 0.24149
 O928 O 0.25455 -0.00501 0.22676
 O929 O 0.23562 0.01408 0.23552
 O930 O 0.26424 -0.01427 0.26416
 C931 C 0.20397 0.01170 0.23850
 C932 C 0.23835 0.04583 0.23789
 C933 C 0.23801 0.01107 0.20384
 C934 C 0.29522 -0.01199 0.26276
 C935 C 0.26276 -0.01272 0.29503
 C936 C 0.26265 -0.04535 0.26229
 H937 H 0.24276 0.00719 0.28311
 H938 H 0.24286 -0.03346 0.24262
 H939 H 0.22920 0.02043 0.22909
 H940 H 0.28313 0.00742 0.24287
 H941 H 0.28019 0.03425 0.26338
 H942 H 0.28210 0.03286 0.23791
 H943 H 0.22583 -0.04107 0.25923
 H944 H 0.21057 -0.02498 0.24259
 H945 H 0.27321 0.02497 0.29133
 H946 H 0.22654 0.04164 0.27470
 H947 H 0.25931 -0.04038 0.22512
 H948 H 0.24206 -0.02557 0.21099
 H949 H 0.21085 0.00692 0.27450
 H950 H 0.22549 -0.00927 0.29038
 H951 H 0.27405 0.00679 0.21004
 H952 H 0.29104 -0.00930 0.22600
 O953 O 0.50094 0.71052 0.23005
 O954 O 0.47514 0.71546 0.23226
 O955 O 0.51940 0.74948 0.20997
 O956 O 0.51931 0.77446 0.21430
 O957 O 0.53991 0.73077 0.24886
 O958 O 0.53449 0.73204 0.27515
 O959 O 0.48042 0.78948 0.25089
 O960 O 0.48360 0.78542 0.22510
 O961 O 0.46110 0.75180 0.26936
 O962 O 0.46599 0.72452 0.26790
 O963 O 0.49880 0.76987 0.28890
 O964 O 0.52592 0.76855 0.28393
 O965 O 0.49841 0.78936 0.26905
 O966 O 0.52635 0.78401 0.26723
 O967 O 0.48074 0.75183 0.28894
 O968 O 0.48272 0.72395 0.28337
 O969 O 0.46131 0.77024 0.25171
 O970 O 0.46581 0.76504 0.22439
 O971 O 0.51879 0.71026 0.24840
 O972 O 0.51732 0.71569 0.27520
 O973 O 0.54009 0.74894 0.23090
 O974 O 0.53425 0.77615 0.23361
 O975 O 0.50153 0.73120 0.20990
 O976 O 0.47440 0.73504 0.21557
 Zr977 Zr 0.49189 0.73227 0.23145
 O978 O 0.47756 0.74534 0.24491
 Zr979 Zr 0.51850 0.75848 0.23177
 O980 O 0.50508 0.77285 0.24483
 Zr981 Zr 0.51818 0.73193 0.25798
 O982 O 0.50513 0.74530 0.27243
 Zr983 Zr 0.48232 0.76809 0.24125
 O984 O 0.49570 0.75510 0.22657
 Zr985 Zr 0.48235 0.74173 0.26766
 O986 O 0.49540 0.72716 0.25426
 Zr987 Zr 0.50872 0.76812 0.26760
 O988 O 0.52338 0.75473 0.25456
 O989 O 0.51453 0.73588 0.23539
 O990 O 0.48605 0.76442 0.26396
 C991 C 0.51146 0.70416 0.23757
 C992 C 0.51213 0.73873 0.20372
 C993 C 0.54622 0.73820 0.23827
 C994 C 0.48751 0.79547 0.26189
 C995 C 0.45521 0.76300 0.26252
 C996 C 0.48785 0.76280 0.29497
 H997 H 0.46699 0.74306 0.24247
 H998 H 0.50756 0.74290 0.28296
 H999 H 0.52092 0.72947 0.22899
 H1000 H 0.50732 0.78343 0.24238
 H1001 H 0.48672 0.78062 0.21558
 H1002 H 0.51221 0.78254 0.21695
 H1003 H 0.49089 0.72596 0.29060
 H1004 H 0.50750 0.71061 0.27426
 H1005 H 0.45879 0.77364 0.22494
 H1006 H 0.47529 0.72705 0.20788
 H1007 H 0.52504 0.75932 0.28999
 H1008 H 0.53916 0.74211 0.27497
 H1009 H 0.47548 0.71111 0.24245
 H1010 H 0.45974 0.72566 0.25882
 H1011 H 0.54012 0.77429 0.24284
 H1012 H 0.52425 0.79125 0.25909
 O1013 O 0.03973 0.73040 0.74890
 O1014 O 0.03496 0.73271 0.77476
 O1015 O 0.00069 0.71025 0.73068
 O1016 O -0.02425 0.71461 0.73083
 O1017 O 0.01935 0.74918 0.71007
 O1018 O 0.01808 0.77552 0.71551
 O1019 O -0.03896 0.75133 0.76993
 O1020 O -0.03503 0.72551 0.76661
 O1021 O -0.00113 0.76970 0.78905
 O1022 O 0.02605 0.76831 0.78392
 O1023 O -0.01946 0.78931 0.75146
 O1024 O -0.01828 0.78432 0.72429
 O1025 O -0.03896 0.76944 0.75190
 O1026 O -0.03377 0.76762 0.72393
 O1027 O -0.00136 0.78934 0.76944
 O1028 O 0.02645 0.78385 0.76726
 O1029 O -0.01956 0.75202 0.78892
 O1030 O -0.01455 0.72469 0.78426
 O1031 O 0.03993 0.74877 0.73109
 O1032 O 0.03452 0.77560 0.73260
 O1033 O 0.00121 0.73117 0.70996
 O1034 O -0.02594 0.73392 0.71589
 O1035 O 0.01903 0.71022 0.74848
 O1036 O 0.01543 0.71595 0.77560
 Zr1037 Zr 0.01808 0.73182 0.75809
 O1038 O 0.00511 0.74530 0.77249
 Zr1039 Zr -0.00824 0.73209 0.73159
 O1040 O -0.02252 0.74518 0.74510
 Zr1041 Zr 0.01829 0.75834 0.73181
 O1042 O 0.00502 0.77282 0.74495
 Zr1043 Zr -0.01765 0.74162 0.76785
 O1044 O -0.00475 0.72692 0.75438
 Zr1045 Zr 0.00873 0.76807 0.76771
 O1046 O 0.02318 0.75465 0.75456
 Zr1047 Zr -0.01779 0.76798 0.74148
 O1048 O -0.00451 0.75491 0.72673
 O1049 O 0.01435 0.73573 0.73546
 O1050 O -0.01397 0.76436 0.76414
 C1051 C 0.04604 0.73793 0.73837
 C1052 C 0.01145 0.70400 0.73793
 C1053 C 0.01192 0.73855 0.70379
 C1054 C -0.04500 0.76232 0.76286
 C1055 C -0.01224 0.76281 0.79502
 C1056 C -0.01235 0.79537 0.76240
 H1057 H 0.00745 0.74284 0.78304
 H1058 H 0.00741 0.78336 0.74251
 H1059 H 0.02071 0.72931 0.72905
 H1060 H -0.03310 0.74273 0.74292
 H1061 H -0.03030 0.71597 0.76343
 H1062 H -0.03228 0.71729 0.73796
 H1063 H 0.02442 0.79105 0.75908
 H1064 H 0.03964 0.77469 0.74240
 H1065 H -0.02310 0.72522 0.79133
 H1066 H 0.02344 0.70829 0.77469
 H1067 H -0.00907 0.79042 0.72517
 H1068 H 0.00800 0.77530 0.71088
 H1069 H 0.03939 0.74288 0.77430
 H1070 H 0.02497 0.75921 0.79015
 H1071 H -0.02410 0.74318 0.71005
 H1072 H -0.04095 0.75943 0.72601
 O1073 O 0.00120 0.03925 0.01966
 O1074 O -0.02462 0.03440 0.01738
 O1075 O 0.01949 0.00019 0.03975
 O1076 O 0.01949 -0.02475 0.03536
 O1077 O 0.04005 0.01898 0.00088
 O1078 O 0.03464 0.01766 -0.02543
 O1079 O -0.01955 -0.03964 -0.00121
 O1080 O -0.01631 -0.03563 0.02456
 O1081 O -0.03884 -0.00189 -0.01960
 O1082 O -0.03382 0.02533 -0.01828
 O1083 O -0.00118 -0.02012 -0.03920
 O1084 O 0.02597 -0.01880 -0.03423
 O1085 O -0.00153 -0.03959 -0.01931
 O1086 O 0.02640 -0.03426 -0.01754
 O1087 O -0.01922 -0.00207 -0.03923
 O1088 O -0.01711 0.02583 -0.03374
 O1089 O -0.03865 -0.02032 -0.00195
 O1090 O -0.03403 -0.01520 0.02534
 O1091 O 0.01900 0.03950 0.00129
 O1092 O 0.01750 0.03405 -0.02552
 O1093 O 0.04020 0.00084 0.01886
 O1094 O 0.03436 -0.02640 0.01606
 O1095 O 0.00167 0.01852 0.03981
 O1096 O -0.02546 0.01483 0.03406
 Zr1097 Zr -0.00794 0.01753 0.01823
 O1098 O -0.02230 0.00449 0.00476
 Zr1099 Zr 0.01862 -0.00873 0.01793
 O1100 O 0.00516 -0.02307 0.00487
 Zr1101 Zr 0.01833 0.01783 -0.00828
 O1102 O 0.00524 0.00447 -0.02274
 Zr1103 Zr -0.01759 -0.01827 0.00844
 O1104 O -0.00417 -0.00530 0.02312
 Zr1105 Zr -0.01753 0.00808 -0.01799
 O1106 O -0.00444 0.02263 -0.00458
 Zr1107 Zr 0.00879 -0.01835 -0.01790
 O1108 O 0.02349 -0.00498 -0.00485
 O1109 O 0.01469 0.01388 0.01431
 O1110 O -0.01388 -0.01462 -0.01428
 C1111 C 0.01170 0.04560 0.01213
 C1112 C 0.01223 0.01094 0.04601
 C1113 C 0.04633 0.01158 0.01150
 C1114 C -0.01245 -0.04566 -0.01217
 C1115 C -0.04477 -0.01304 -0.01272
 C1116 C -0.01214 -0.01305 -0.04526
 H1117 H -0.03286 0.00680 0.00721
 H1118 H 0.00767 0.00686 -0.03327
 H1119 H 0.02108 0.02027 0.02073
 H1120 H 0.00738 -0.03365 0.00732
 H1121 H -0.01315 -0.03086 0.03408
 H1122 H 0.01231 -0.03278 0.03274
 H1123 H -0.00897 0.02378 -0.04096
 H1124 H 0.00769 0.03914 -0.02460
 H1125 H -0.04106 -0.02380 0.02481
 H1126 H -0.02455 0.02282 0.04175
 H1127 H 0.02507 -0.00958 -0.04032
 H1128 H 0.03930 0.00758 -0.02522
 H1129 H -0.02423 0.03879 0.00721
 H1130 H -0.03998 0.02431 -0.00913
 H1131 H 0.04026 -0.02449 0.00687
 H1132 H 0.02436 -0.04143 -0.00935
 O1133 O -0.01984 0.46011 0.49888
 O1134 O -0.01740 0.46488 0.52475
 O1135 O -0.04003 0.49921 0.48086
 O1136 O -0.03566 0.52416 0.48093
 O1137 O -0.00125 0.48050 0.46003
 O1138 O 0.02510 0.48184 0.46535
 O1139 O 0.00107 0.53894 0.51995
 O1140 O -0.02470 0.53495 0.51676
 O1141 O 0.01959 0.50113 0.53895
 O1142 O 0.01816 0.47387 0.53380
 O1143 O 0.03899 0.51945 0.50129
 O1144 O 0.03393 0.51832 0.47420
 O1145 O 0.01911 0.53896 0.50187
 O1146 O 0.01715 0.53371 0.47387
 O1147 O 0.03911 0.50133 0.51924
 O1148 O 0.03365 0.47349 0.51710
 O1149 O 0.00191 0.51955 0.53894
 O1150 O -0.02541 0.51445 0.53439
 O1151 O -0.00156 0.45992 0.48099
 O1152 O 0.02526 0.46537 0.48244
 O1153 O -0.01925 0.49863 0.46003
 O1154 O -0.01640 0.52586 0.46599
 O1155 O -0.03997 0.48082 0.49861
 O1156 O -0.03414 0.48443 0.52571
 Zr1157 Zr -0.01837 0.48179 0.50813
 O1158 O -0.00486 0.49480 0.52250
 Zr1159 Zr -0.01821 0.50814 0.48166
 O1160 O -0.00511 0.52245 0.49515
 Zr1161 Zr 0.00801 0.48160 0.48172
 O1162 O 0.02250 0.49491 0.49483
 Zr1163 Zr -0.00858 0.51758 0.51790
 O1164 O -0.02328 0.50465 0.50447
 Zr1165 Zr 0.01786 0.49121 0.51761
 O1166 O 0.00442 0.47671 0.50449
 Zr1167 Zr 0.01764 0.51775 0.49142
 O1168 O 0.00456 0.50443 0.47669
 O1169 O -0.01455 0.48552 0.48549
 O1170 O 0.01412 0.51394 0.51409
 C1171 C -0.01237 0.45380 0.48830
 C1172 C -0.04623 0.48842 0.48811
 C1173 C -0.01191 0.48791 0.45381
 C1174 C 0.01201 0.54500 0.51285
 C1175 C 0.01273 0.51226 0.54498
 C1176 C 0.04509 0.51233 0.51218
 H1177 H -0.00727 0.49246 0.53306
 H1178 H 0.03302 0.49254 0.49235
 H1179 H -0.02100 0.47916 0.47910
 H1180 H -0.00758 0.53304 0.49299
 H1181 H -0.03422 0.53019 0.51359
 H1182 H -0.03300 0.53218 0.48811
 H1183 H 0.04075 0.47550 0.50884
 H1184 H 0.02437 0.46024 0.49223
 H1185 H -0.02486 0.52302 0.54146
 H1186 H -0.04180 0.47640 0.52482
 H1187 H 0.03993 0.50902 0.47493
 H1188 H 0.02483 0.49192 0.46071
 H1189 H -0.00724 0.46046 0.52425
 H1190 H 0.00911 0.47497 0.54009
 H1191 H -0.00724 0.52395 0.46003
 H1192 H 0.00904 0.54095 0.47605
 O1193 O 0.49904 -0.01970 0.46040
 O1194 O 0.52487 -0.01748 0.46536
 O1195 O 0.48056 -0.03990 0.49923
 O1196 O 0.48082 -0.03563 0.52423
 O1197 O 0.46011 -0.00094 0.48065
 O1198 O 0.46552 0.02538 0.48202
 O1199 O 0.51982 0.00121 0.53923
 O1200 O 0.51647 -0.02465 0.53529
 O1201 O 0.53896 0.01956 0.50156
 O1202 O 0.53398 0.01813 0.47435
 O1203 O 0.50127 0.03916 0.51965
 O1204 O 0.47409 0.03404 0.51841
 O1205 O 0.50180 0.01934 0.53916
 O1206 O 0.47387 0.01744 0.53398
 O1207 O 0.51930 0.03917 0.50162
 O1208 O 0.51728 0.03362 0.47381
 O1209 O 0.53884 0.00184 0.51993
 O1210 O 0.53418 -0.02550 0.51486
 O1211 O 0.48120 -0.00133 0.46017
 O1212 O 0.48263 0.02549 0.46567
 O1213 O 0.45992 -0.01894 0.49878
 O1214 O 0.46580 -0.01629 0.52595
 O1215 O 0.49842 -0.03993 0.48098
 O1216 O 0.52554 -0.03430 0.48484
 Zr1217 Zr 0.50810 -0.01836 0.48212
 O1218 O 0.52246 -0.00489 0.49517
 Zr1219 Zr 0.48153 -0.01809 0.50831
 O1220 O 0.49500 -0.00501 0.52268
 Zr1221 Zr 0.48183 0.00820 0.48184
 O1222 O 0.49492 0.02265 0.49519
 Zr1223 Zr 0.51776 -0.00856 0.51791
 O1224 O 0.50434 -0.02326 0.50493
 Zr1225 Zr 0.51768 0.01788 0.49156
 O1226 O 0.50459 0.00448 0.47703
 Zr1227 Zr 0.49138 0.01780 0.51798
 O1228 O 0.47668 0.00474 0.50461
 O1229 O 0.48547 -0.01441 0.48574
 O1230 O 0.51404 0.01418 0.51425
 C1231 C 0.48853 -0.01216 0.45406
 C1232 C 0.48781 -0.04614 0.48846
 C1233 C 0.45379 -0.01155 0.48805
 C1234 C 0.51277 0.01224 0.54523
 C1235 C 0.54493 0.01266 0.51268
 C1236 C 0.51220 0.04522 0.51256
 H1237 H 0.53302 -0.00735 0.49287
 H1238 H 0.49248 0.03319 0.49280
 H1239 H 0.47907 -0.02080 0.47932
 H1240 H 0.49280 -0.00745 0.53325
 H1241 H 0.51331 -0.03419 0.53054
 H1242 H 0.48782 -0.03288 0.53237
 H1243 H 0.50908 0.04082 0.47580
 H1244 H 0.49243 0.02458 0.46057
 H1245 H 0.54122 -0.02497 0.52344
 H1246 H 0.52466 -0.04193 0.47679
 H1247 H 0.47504 0.04022 0.50926
 H1248 H 0.46085 0.02515 0.49207
 H1249 H 0.52445 -0.00730 0.46095
 H1250 H 0.54022 0.00904 0.47546
 H1251 H 0.46001 -0.00699 0.52417
 H1252 H 0.47595 0.00923 0.54113
 O1253 O 0.53943 0.51961 0.00085
 O1254 O 0.53465 0.51728 -0.02501
 O1255 O 0.50048 0.53988 0.01902
 O1256 O 0.47555 0.53561 0.01885
 O1257 O 0.51900 0.50088 0.03966
 O1258 O 0.51765 0.47454 0.03422
 O1259 O 0.46066 0.49891 -0.02028
 O1260 O 0.46469 0.52473 -0.01692
 O1261 O 0.49834 0.48038 -0.03931
 O1262 O 0.52553 0.48165 -0.03421
 O1263 O 0.48004 0.46085 -0.00166
 O1264 O 0.48117 0.46590 0.02545
 O1265 O 0.46061 0.48077 -0.00227
 O1266 O 0.46578 0.48270 0.02575
 O1267 O 0.49810 0.46075 -0.01965
 O1268 O 0.52594 0.46618 -0.01750
 O1269 O 0.48003 0.49817 -0.03922
 O1270 O 0.48518 0.52547 -0.03456
 O1271 O 0.53957 0.50125 0.01869
 O1272 O 0.53407 0.47441 0.01714
 O1273 O 0.50093 0.51895 0.03975
 O1274 O 0.47377 0.51630 0.03378
 O1275 O 0.51881 0.53984 0.00123
 O1276 O 0.51518 0.53410 -0.02589
 Zr1277 Zr 0.51777 0.51824 -0.00837
 O1278 O 0.50474 0.50479 -0.02277
 Zr1279 Zr 0.49147 0.51807 0.01811
 O1280 O 0.47713 0.50502 0.00459
 Zr1281 Zr 0.51791 0.49173 0.01792
 O1282 O 0.50456 0.47729 0.00479
 Zr1283 Zr 0.48201 0.50856 -0.01815
 O1284 O 0.49497 0.52321 -0.00468
 Zr1285 Zr 0.50826 0.48200 -0.01797
 O1286 O 0.52279 0.49539 -0.00483
 Zr1287 Zr 0.48176 0.48221 0.00824
 O1288 O 0.49512 0.49524 0.02298
 O1289 O 0.51405 0.51435 0.01426
 O1290 O 0.48558 0.48580 -0.01442
 C1291 C 0.54572 0.51209 0.01141
 C1292 C 0.51126 0.54609 0.01178
 C1293 C 0.51160 0.51152 0.04594
 C1294 C 0.45460 0.48791 -0.01325
 C1295 C 0.48726 0.48733 -0.04530
 C1296 C 0.48713 0.45474 -0.01258
 H1297 H 0.50709 0.50722 -0.03332
 H1298 H 0.50691 0.46674 0.00724
 H1299 H 0.52042 0.52075 0.02068
 H1300 H 0.46656 0.50751 0.00676
 H1301 H 0.46946 0.53425 -0.01374
 H1302 H 0.46748 0.53295 0.01173
 H1303 H 0.52389 0.45900 -0.00931
 H1304 H 0.53922 0.47535 0.00736
 H1305 H 0.47662 0.52498 -0.04163
 H1306 H 0.52322 0.54174 -0.02497
 H1307 H 0.49042 0.45984 0.02467
 H1308 H 0.50759 0.47481 0.03887
 H1309 H 0.53902 0.50708 -0.02456
 H1310 H 0.52452 0.49079 -0.04041
 H1311 H 0.47557 0.50704 0.03964
 H1312 H 0.45856 0.49081 0.02356
 O1313 O 0.78987 0.25107 0.48037
 O1314 O 0.78500 0.22517 0.48258
 O1315 O 0.75099 0.26943 0.46016
 O1316 O 0.72604 0.26932 0.46438
 O1317 O 0.76951 0.28992 0.49926
 O1318 O 0.76814 0.28439 0.52553
 O1319 O 0.71100 0.23017 0.50079
 O1320 O 0.71509 0.23353 0.47503
 O1321 O 0.74856 0.21090 0.51936
 O1322 O 0.77582 0.21586 0.51802
 O1323 O 0.73048 0.24859 0.53896
 O1324 O 0.73169 0.27577 0.53402
 O1325 O 0.71102 0.24813 0.51902
 O1326 O 0.71627 0.27613 0.51730
 O1327 O 0.74853 0.23056 0.53901
 O1328 O 0.77632 0.23251 0.53358
 O1329 O 0.73025 0.21110 0.50157
 O1330 O 0.73547 0.21575 0.47431
 O1331 O 0.79003 0.26888 0.49879
 O1332 O 0.78454 0.26726 0.52557
 O1333 O 0.75146 0.29012 0.48118
 O1334 O 0.72429 0.28423 0.48373
 O1335 O 0.76926 0.25156 0.46014
 O1336 O 0.76554 0.22440 0.46573
 Zr1337 Zr 0.76818 0.24189 0.48167
 O1338 O 0.75509 0.22747 0.49500
 Zr1339 Zr 0.74194 0.26848 0.48192
 O1340 O 0.72757 0.25497 0.49487
 Zr1341 Zr 0.76837 0.26814 0.50827
 O1342 O 0.75499 0.25499 0.52260
 Zr1343 Zr 0.73237 0.23219 0.49124
 O1344 O 0.74538 0.24566 0.47668
 Zr1345 Zr 0.75862 0.23220 0.51778
 O1346 O 0.77319 0.24535 0.50451
 Zr1347 Zr 0.73221 0.25855 0.51767
 O1348 O 0.74560 0.27330 0.50475
 O1349 O 0.76451 0.26454 0.48566
 O1350 O 0.73595 0.23586 0.51398
 C1351 C 0.79616 0.26161 0.48795
 C1352 C 0.76175 0.26216 0.45394
 C1353 C 0.76214 0.29625 0.48865
 C1354 C 0.70497 0.23721 0.51180
 C1355 C 0.73745 0.20497 0.51241
 C1356 C 0.73757 0.23765 0.54503
 H1357 H 0.75739 0.21690 0.49252
 H1358 H 0.75735 0.25741 0.53315
 H1359 H 0.77090 0.27097 0.47930
 H1360 H 0.71700 0.25719 0.49238
 H1361 H 0.71990 0.23672 0.46556
 H1362 H 0.71793 0.26224 0.46701
 H1363 H 0.77438 0.24079 0.54072
 H1364 H 0.78965 0.25745 0.52461
 H1365 H 0.72687 0.20872 0.47477
 H1366 H 0.77359 0.22531 0.45812
 H1367 H 0.74089 0.27488 0.54014
 H1368 H 0.75810 0.28909 0.52527
 H1369 H 0.78935 0.22556 0.49278
 H1370 H 0.77470 0.20961 0.50893
 H1371 H 0.72610 0.29006 0.49301
 H1372 H 0.70910 0.27405 0.50910
 O1373 O 0.75112 0.77004 -0.03978
 O1374 O 0.72525 0.76785 -0.03495
 O1375 O 0.76959 0.78994 -0.00077
 O1376 O 0.76949 0.78561 0.02412
 O1377 O 0.78986 0.75081 -0.01951
 O1378 O 0.78417 0.72455 -0.01841
 O1379 O 0.73025 0.74922 0.03898
 O1380 O 0.73368 0.77500 0.03501
 O1381 O 0.71087 0.73085 0.00129
 O1382 O 0.71578 0.73230 -0.02594
 O1383 O 0.74845 0.71103 0.01929
 O1384 O 0.77555 0.71585 0.01813
 O1385 O 0.74810 0.73091 0.03886
 O1386 O 0.77611 0.73261 0.03355
 O1387 O 0.73042 0.71112 0.00125
 O1388 O 0.73239 0.71669 -0.02655
 O1389 O 0.71117 0.74854 0.01972
 O1390 O 0.71591 0.77587 0.01463
 O1391 O 0.76885 0.75157 -0.04007
 O1392 O 0.76703 0.72471 -0.03478
 O1393 O 0.79015 0.76881 -0.00135
 O1394 O 0.78425 0.76616 0.02581
 O1395 O 0.75170 0.79015 -0.01903
 O1396 O 0.72456 0.78460 -0.01538
 Zr1397 Zr 0.74196 0.76861 -0.01810
 O1398 O 0.72752 0.75523 -0.00510
 Zr1399 Zr 0.76854 0.76811 0.00813
 O1400 O 0.75500 0.75513 0.02244
 Zr1401 Zr 0.76805 0.74190 -0.01847
 O1402 O 0.75488 0.72752 -0.00515
 Zr1403 Zr 0.73227 0.75886 0.01765
 O1404 O 0.74578 0.77346 0.00472
 Zr1405 Zr 0.73214 0.73242 -0.00875
 O1406 O 0.74530 0.74576 -0.02326
 Zr1407 Zr 0.75848 0.73232 0.01766
 O1408 O 0.77324 0.74527 0.00432
 O1409 O 0.76457 0.76453 -0.01446
 O1410 O 0.73583 0.73609 0.01394
 C1411 C 0.76162 0.76249 -0.04613
 C1412 C 0.76234 0.79626 -0.01149
 C1413 C 0.79624 0.76136 -0.01206
 C1414 C 0.73724 0.73815 0.04496
 C1415 C 0.70499 0.73775 0.01246
 C1416 C 0.73749 0.70502 0.01218
 H1417 H 0.71697 0.75775 -0.00738
 H1418 H 0.75725 0.71696 -0.00757
 H1419 H 0.77103 0.77091 -0.02081
 H1420 H 0.75724 0.75757 0.03302
 H1421 H 0.73689 0.78451 0.03025
 H1422 H 0.76236 0.78300 0.03218
 H1423 H 0.74061 0.70950 -0.02463
 H1424 H 0.75725 0.72578 -0.03990
 H1425 H 0.70890 0.77539 0.02322
 H1426 H 0.72550 0.79226 -0.02338
 H1427 H 0.77473 0.70987 0.00883
 H1428 H 0.78888 0.72471 -0.00836
 H1429 H 0.72562 0.75767 -0.03938
 H1430 H 0.70965 0.74147 -0.02482
 H1431 H 0.79007 0.75690 0.02393
 H1432 H 0.77402 0.74072 0.04083
 O1433 O 1.03953 0.23005 0.24899
 O1434 O 1.03476 0.23233 0.27482
 O1435 O 1.00048 0.20978 0.23080
 O1436 O 0.97557 0.21410 0.23090
 O1437 O 1.01908 0.24875 0.21014
 O1438 O 1.01775 0.27509 0.21557
 O1439 O 0.96079 0.25076 0.26999
 O1440 O 0.96481 0.22497 0.26671
 O1441 O 0.99851 0.26934 0.28909
 O1442 O 1.02572 0.26796 0.28402
 O1443 O 0.98025 0.28884 0.25141
 O1444 O 0.98134 0.28377 0.22431
 O1445 O 0.96076 0.26890 0.25198
 O1446 O 0.96592 0.26704 0.22400
 O1447 O 0.99836 0.28894 0.26939
 O1448 O 1.02615 0.28344 0.26734
 O1449 O 0.98016 0.25158 0.28901
 O1450 O 0.98527 0.22425 0.28438
 O1451 O 1.03967 0.24842 0.23116
 O1452 O 1.03420 0.27522 0.23262
 O1453 O 1.00099 0.23070 0.21005
 O1454 O 0.97382 0.23341 0.21600
 O1455 O 1.01885 0.20981 0.24858
 O1456 O 1.01525 0.21556 0.27570
 Zr1457 Zr 1.01786 0.23142 0.25817
 O1458 O 1.00488 0.24488 0.27257
 Zr1459 Zr 0.99154 0.23161 0.23168
 O1460 O 0.97724 0.24467 0.24519
 Zr1461 Zr 1.01801 0.25792 0.23187
 O1462 O 1.00471 0.27237 0.24500
 Zr1463 Zr 0.98213 0.24114 0.26794
 O1464 O 0.99505 0.22647 0.25448
 Zr1465 Zr 1.00843 0.26766 0.26777
 O1466 O 1.02291 0.25426 0.25463
 Zr1467 Zr 0.98191 0.26747 0.24153
 O1468 O 0.99522 0.25443 0.22679
 O1469 O 1.01413 0.23530 0.23554
 O1470 O 0.98574 0.26389 0.26420
 C1471 C 1.04581 0.23760 0.23845
 C1472 C 1.01125 0.20356 0.23805
 C1473 C 1.01167 0.23811 0.20387
 C1474 C 0.95474 0.26174 0.26293
 C1475 C 0.98741 0.26242 0.29509
 C1476 C 0.98739 0.29495 0.26231
 H1477 H 1.00722 0.24245 0.28313
 H1478 H 1.00708 0.28291 0.24255
 H1479 H 1.02050 0.22888 0.22913
 H1480 H 0.96667 0.24219 0.24301
 H1481 H 0.96957 0.21545 0.26351
 H1482 H 0.96753 0.21676 0.23804
 H1483 H 1.02416 0.29057 0.25909
 H1484 H 1.03932 0.27434 0.24242
 H1485 H 0.97671 0.22476 0.29143
 H1486 H 1.02326 0.20790 0.27478
 H1487 H 0.99059 0.28983 0.22510
 H1488 H 1.00769 0.27482 0.21090
 H1489 H 1.03910 0.24254 0.27443
 H1490 H 1.02463 0.25887 0.29027
 H1491 H 0.97566 0.24264 0.21012
 H1492 H 0.95874 0.25886 0.22612
 O1493 O 0.71020 1.01962 0.74866
 O1494 O 0.71499 1.01743 0.77455
 O1495 O 0.74921 1.03966 0.73040
 O1496 O 0.77412 1.03536 0.73057
 O1497 O 0.73060 1.00054 0.70996
 O1498 O 0.73185 0.97425 0.71554
 O1499 O 0.78896 0.99893 0.76984
 O1500 O 0.78496 1.02473 0.76640
 O1501 O 0.75123 0.98058 0.78903
 O1502 O 0.72404 0.98188 0.78392
 O1503 O 0.76950 0.96077 0.75148
 O1504 O 0.76833 0.96560 0.72434
 O1505 O 0.78897 0.98068 0.75191
 O1506 O 0.78373 0.98238 0.72389
 O1507 O 0.75144 0.96081 0.76947
 O1508 O 0.72361 0.96626 0.76731
 O1509 O 0.76961 0.99831 0.78884
 O1510 O 0.76452 1.02559 0.78408
 O1511 O 0.71002 1.00114 0.73091
 O1512 O 0.71544 0.97430 0.73265
 O1513 O 0.74870 1.01858 0.70979
 O1514 O 0.77586 1.01593 0.71576
 O1515 O 0.73088 1.03980 0.74819
 O1516 O 0.73450 1.03424 0.77535
 Zr1517 Zr 0.73187 1.01826 0.75790
 O1518 O 0.74488 1.00489 0.77236
 Zr1519 Zr 0.75817 1.01784 0.73142
 O1520 O 0.77248 1.00488 0.74500
 Zr1521 Zr 0.73166 0.99156 0.73175
 O1522 O 0.74499 0.97719 0.74494
 Zr1523 Zr 0.76762 1.00858 0.76772
 O1524 O 0.75469 1.02316 0.75419
 Zr1525 Zr 0.74131 0.98207 0.76768
 O1526 O 0.72680 0.99539 0.75449
 Zr1527 Zr 0.76779 0.98205 0.74146
 O1528 O 0.75445 0.99499 0.72666
 O1529 O 0.73558 1.01419 0.73529
 O1530 O 0.76400 0.98580 0.76410
 C1531 C 0.70390 1.01205 0.73813
 C1532 C 0.73845 1.04595 0.73761
 C1533 C 0.73801 1.01114 0.70364
 C1534 C 0.79501 0.98790 0.76284
 C1535 C 0.76234 0.98753 0.79498
 C1536 C 0.76241 0.95475 0.76243
 H1537 H 0.74255 1.00740 0.78290
 H1538 H 0.74262 0.96663 0.74255
 H1539 H 0.72922 1.02057 0.72884
 H1540 H 0.78306 1.00733 0.74280
 H1541 H 0.78019 1.03423 0.76317
 H1542 H 0.78218 1.03275 0.73771
 H1543 H 0.72562 0.95905 0.75912
 H1544 H 0.71030 0.97533 0.74242
 H1545 H 0.77310 1.02513 0.79113
 H1546 H 0.72648 1.04188 0.77440
 H1547 H 0.75908 0.95955 0.72517
 H1548 H 0.74192 0.97445 0.71090
 H1549 H 0.71059 1.00725 0.77414
 H1550 H 0.72509 0.99105 0.79009
 H1551 H 0.77401 1.00667 0.70991
 H1552 H 0.79094 0.99054 0.72599
 O1553 O 0.74919 0.53994 0.23030
 O1554 O 0.77501 0.53509 0.23256
 O1555 O 0.73087 0.50093 0.21004
 O1556 O 0.73104 0.47596 0.21430
 O1557 O 0.71028 0.51952 0.24899
 O1558 O 0.71572 0.51827 0.27528
 O1559 O 0.76999 0.46103 0.25094
 O1560 O 0.76682 0.46510 0.22517
 O1561 O 0.78915 0.49875 0.26961
 O1562 O 0.78420 0.52602 0.26813
 O1563 O 0.75143 0.48065 0.28900
 O1564 O 0.72433 0.48178 0.28388
 O1565 O 0.75200 0.46109 0.26908
 O1566 O 0.72407 0.46628 0.26722
 O1567 O 0.76940 0.49878 0.28913
 O1568 O 0.76747 0.52659 0.28356
 O1569 O 0.78905 0.48035 0.25189
 O1570 O 0.78453 0.48554 0.22455
 O1571 O 0.73133 0.54012 0.24861
 O1572 O 0.73279 0.53468 0.27538
 O1573 O 0.71016 0.50138 0.23097
 O1574 O 0.71611 0.47419 0.23359
 O1575 O 0.74869 0.51927 0.21007
 O1576 O 0.77582 0.51554 0.21578
 Zr1577 Zr 0.75832 0.51822 0.23164
 O1578 O 0.77269 0.50520 0.24510
 Zr1579 Zr 0.73179 0.49192 0.23182
 O1580 O 0.74527 0.47759 0.24487
 Zr1581 Zr 0.73201 0.51845 0.25811
 O1582 O 0.74511 0.50512 0.27254
 Zr1583 Zr 0.76803 0.48243 0.24137
 O1584 O 0.75460 0.49538 0.22670
 Zr1585 Zr 0.76788 0.50878 0.26784
 O1586 O 0.75478 0.52330 0.25445
 Zr1587 Zr 0.74159 0.48229 0.26764
 O1588 O 0.72689 0.49564 0.25461
 O1589 O 0.73568 0.51454 0.23552
 O1590 O 0.76427 0.48607 0.26409
 C1591 C 0.73865 0.54626 0.23782
 C1592 C 0.73812 0.51171 0.20383
 C1593 C 0.70399 0.51208 0.23838
 C1594 C 0.76292 0.45501 0.26191
 C1595 C 0.79512 0.48759 0.26275
 C1596 C 0.76229 0.48782 0.29512
 H1597 H 0.78325 0.50751 0.24268
 H1598 H 0.74264 0.50751 0.28307
 H1599 H 0.72927 0.52092 0.22913
 H1600 H 0.74307 0.46700 0.24239
 H1601 H 0.76365 0.46989 0.21567
 H1602 H 0.73817 0.46791 0.21695
 H1603 H 0.75920 0.52465 0.29067
 H1604 H 0.74258 0.53981 0.27448
 H1605 H 0.79158 0.47696 0.22510
 H1606 H 0.77492 0.52357 0.20814
 H1607 H 0.72518 0.49101 0.28999
 H1608 H 0.71105 0.50819 0.27504
 H1609 H 0.77465 0.53942 0.24277
 H1610 H 0.79048 0.52486 0.25909
 H1611 H 0.71026 0.47600 0.24283
 H1612 H 0.72617 0.45910 0.25904
 O1613 O 0.53957 0.23007 0.74890
 O1614 O 0.53463 0.23212 0.77474
 O1615 O 0.50070 0.20993 0.73026
 O1616 O 0.47573 0.21414 0.73059
 O1617 O 0.51922 0.24902 0.71005
 O1618 O 0.51795 0.27531 0.71566
 O1619 O 0.46074 0.25075 0.76970
 O1620 O 0.46474 0.22493 0.76631
 O1621 O 0.49838 0.26917 0.78902
 O1622 O 0.52560 0.26775 0.78412
 O1623 O 0.48039 0.28886 0.75134
 O1624 O 0.48155 0.28383 0.72418
 O1625 O 0.46082 0.26899 0.75180
 O1626 O 0.46600 0.26724 0.72388
 O1627 O 0.49843 0.28885 0.76938
 O1628 O 0.52621 0.28325 0.76746
 O1629 O 0.48002 0.25143 0.78879
 O1630 O 0.48514 0.22411 0.78406
 O1631 O 0.53977 0.24851 0.73115
 O1632 O 0.53432 0.27530 0.73275
 O1633 O 0.50108 0.23101 0.70977
 O1634 O 0.47394 0.23355 0.71570
 O1635 O 0.51898 0.20981 0.74813
 O1636 O 0.51512 0.21531 0.77532
 Zr1637 Zr 0.51785 0.23133 0.75797
 O1638 O 0.50482 0.24474 0.77240
 Zr1639 Zr 0.49163 0.23171 0.73140
 O1640 O 0.47729 0.24471 0.74493
 Zr1641 Zr 0.51812 0.25802 0.73184
 O1642 O 0.50479 0.27240 0.74500
 Zr1643 Zr 0.48208 0.24107 0.76768
 O1644 O 0.49504 0.22644 0.75418
 Zr1645 Zr 0.50842 0.26754 0.76775
 O1646 O 0.52293 0.25420 0.75459
 Zr1647 Zr 0.48200 0.26753 0.74140
 O1648 O 0.49534 0.25455 0.72665
 O1649 O 0.51421 0.23539 0.73535
 O1650 O 0.48574 0.26384 0.76407
 C1651 C 0.54589 0.23767 0.73842
 C1652 C 0.51148 0.20366 0.73746
 C1653 C 0.51178 0.23846 0.70367
 C1654 C 0.45474 0.26179 0.76269
 C1655 C 0.48725 0.26226 0.79493
 C1656 C 0.48752 0.29492 0.76226
 H1657 H 0.50712 0.24225 0.78295
 H1658 H 0.50718 0.28295 0.74260
 H1659 H 0.52061 0.22905 0.72890
 H1660 H 0.46672 0.24226 0.74270
 H1661 H 0.46950 0.21542 0.76310
 H1662 H 0.46760 0.21683 0.73762
 H1663 H 0.52428 0.29044 0.75925
 H1664 H 0.53943 0.27434 0.74255
 H1665 H 0.47655 0.22461 0.79109
 H1666 H 0.52314 0.20767 0.77438
 H1667 H 0.49072 0.29000 0.72514
 H1668 H 0.50791 0.27510 0.71096
 H1669 H 0.53898 0.24233 0.77445
 H1670 H 0.52448 0.25861 0.79030
 H1671 H 0.47571 0.24288 0.70995
 H1672 H 0.45885 0.25901 0.72590
 O1673 O 0.26974 0.79004 0.49909
 O1674 O 0.26751 0.78516 0.52493
 O1675 O 0.28985 0.75104 0.48069
 O1676 O 0.28554 0.72606 0.48086
 O1677 O 0.25091 0.76969 0.46018
 O1678 O 0.22463 0.76843 0.46562
 O1679 O 0.24889 0.71116 0.51985
 O1680 O 0.27467 0.71513 0.51655
 O1681 O 0.23051 0.74890 0.53907
 O1682 O 0.23192 0.77615 0.53410
 O1683 O 0.21091 0.73077 0.50133
 O1684 O 0.21594 0.73196 0.47421
 O1685 O 0.23075 0.71122 0.50183
 O1686 O 0.23259 0.71645 0.47388
 O1687 O 0.21089 0.74883 0.51938
 O1688 O 0.21645 0.77668 0.51739
 O1689 O 0.24820 0.73050 0.53891
 O1690 O 0.27549 0.73557 0.53430
 O1691 O 0.25138 0.79026 0.48125
 O1692 O 0.22459 0.78483 0.48275
 O1693 O 0.26889 0.75153 0.46002
 O1694 O 0.26621 0.72434 0.46589
 O1695 O 0.28991 0.76936 0.49854
 O1696 O 0.28426 0.76560 0.52568
 Zr1697 Zr 0.26836 0.76832 0.50820
 O1698 O 0.25491 0.75529 0.52255
 Zr1699 Zr 0.26805 0.74204 0.48163
 O1700 O 0.25500 0.72770 0.49509
 Zr1701 Zr 0.24182 0.76859 0.48192
 O1702 O 0.22739 0.75526 0.49500
 Zr1703 Zr 0.25858 0.73252 0.51785
 O1704 O 0.27324 0.74547 0.50443
 Zr1705 Zr 0.23216 0.75890 0.51778
 O1706 O 0.24555 0.77342 0.50469
 Zr1707 Zr 0.23223 0.73243 0.49145
 O1708 O 0.24526 0.74578 0.47676
 O1709 O 0.26441 0.76465 0.48556
 O1710 O 0.23586 0.73618 0.51413
 C1711 C 0.26221 0.79637 0.48856
 C1712 C 0.29610 0.76182 0.48794
 C1713 C 0.26150 0.76225 0.45388
 C1714 C 0.23788 0.70515 0.51277
 C1715 C 0.23740 0.73776 0.54502
 C1716 C 0.20485 0.73788 0.51226
 H1717 H 0.25737 0.75760 0.53311
 H1718 H 0.21686 0.75765 0.49256
 H1719 H 0.27080 0.77104 0.47915
 H1720 H 0.25744 0.71711 0.49287
 H1721 H 0.28418 0.71988 0.51337
 H1722 H 0.28283 0.71794 0.48789
 H1723 H 0.20928 0.77471 0.50916
 H1724 H 0.22553 0.78995 0.49255
 H1725 H 0.27497 0.72697 0.54132
 H1726 H 0.29191 0.77363 0.52479
 H1727 H 0.20988 0.74120 0.47506
 H1728 H 0.22486 0.75837 0.46092
 H1729 H 0.25734 0.78956 0.52453
 H1730 H 0.24103 0.77506 0.54031
 H1731 H 0.25696 0.72618 0.46005
 H1732 H 0.24075 0.70925 0.47597
 O1733 O 0.25114 0.26938 0.96032
 O1734 O 0.22532 0.26708 0.96515
 O1735 O 0.26937 0.28974 0.99930
 O1736 O 0.26921 0.28547 1.02426
 O1737 O 0.29008 0.25083 0.98072
 O1738 O 0.28473 0.22445 0.98210
 O1739 O 0.23029 0.24865 1.03910
 O1740 O 0.23352 0.27448 1.03512
 O1741 O 0.21120 0.23009 1.00140
 O1742 O 0.21628 0.23146 0.97415
 O1743 O 0.24895 0.21067 1.01963
 O1744 O 0.27606 0.21579 1.01845
 O1745 O 0.24837 0.23058 1.03911
 O1746 O 0.27632 0.23252 1.03393
 O1747 O 0.23093 0.21054 1.00156
 O1748 O 0.23297 0.21596 0.97376
 O1749 O 0.21126 0.24786 1.01975
 O1750 O 0.21583 0.27519 1.01466
 O1751 O 0.26903 0.25106 0.96016
 O1752 O 0.26768 0.22427 0.96564
 O1753 O 0.29014 0.26888 0.99884
 O1754 O 0.28423 0.26619 1.02600
 O1755 O 0.25158 0.28966 0.98096
 O1756 O 0.22446 0.28389 0.98465
 Zr1757 Zr 0.24200 0.26805 0.98201
 O1758 O 0.22766 0.25456 0.99502
 Zr1759 Zr 0.26852 0.26793 1.00830
 O1760 O 0.25507 0.25485 1.02262
 Zr1761 Zr 0.26838 0.24159 0.98183
 O1762 O 0.25530 0.22713 0.99514
 Zr1763 Zr 0.23231 0.25832 1.01777
 O1764 O 0.24571 0.27302 1.00483
 Zr1765 Zr 0.23251 0.23180 0.99146
 O1766 O 0.24561 0.24521 0.97696
 Zr1767 Zr 0.25879 0.23205 1.01794
 O1768 O 0.27347 0.24512 1.00462
 O1769 O 0.26465 0.26420 0.98572
 O1770 O 0.23611 0.23558 1.01414
 C1771 C 0.26169 0.26186 0.95402
 C1772 C 0.26212 0.29593 0.98852
 C1773 C 0.29633 0.26149 0.98814
 C1774 C 0.23739 0.23769 1.04514
 C1775 C 0.20520 0.23700 1.01250
 C1776 C 0.23804 0.20456 1.01253
 H1777 H 0.21710 0.25698 0.99268
 H1778 H 0.25777 0.21658 0.99277
 H1779 H 0.27103 0.27061 0.97933
 H1780 H 0.25725 0.25733 1.03320
 H1781 H 0.23667 0.28400 1.03037
 H1782 H 0.26215 0.28275 1.03235
 H1783 H 0.24121 0.20882 0.97577
 H1784 H 0.25784 0.22508 0.96058
 H1785 H 0.20878 0.27467 1.02323
 H1786 H 0.22535 0.29154 0.97663
 H1787 H 0.27521 0.20966 1.00925
 H1788 H 0.28941 0.22477 0.99216
 H1789 H 0.22574 0.25686 0.96080
 H1790 H 0.20995 0.24050 0.97529
 H1791 H 0.29011 0.25695 1.02417
 H1792 H 0.27419 0.24070 1.04111
 C1793 C 0.29754 0.38157 0.79673
 C1794 C 0.29145 0.39187 0.79046
 C1795 C 0.28443 0.40412 0.78330
 C1796 C 0.27865 0.41486 0.77747
 C1797 C 0.27229 0.42789 0.77113
 C1798 C 0.26735 0.43950 0.76629
 C1799 C 0.29834 -0.11755 0.29759
 C1800 C 0.29227 -0.10716 0.29147
 C1801 C 0.28525 -0.09484 0.28448
 C1802 C 0.27944 -0.08408 0.27875
 C1803 C 0.27300 -0.07110 0.27243
 C1804 C 0.26795 -0.05960 0.26748
 C1805 C 0.79808 0.88247 0.79806
 C1806 C 0.79200 0.89292 0.79202
 C1807 C 0.78500 0.90530 0.78503
 C1808 C 0.77923 0.91608 0.77927
 C1809 C 0.77280 0.92906 0.77285
 C1810 C 0.76774 0.94054 0.76779
 C1811 C 0.45209 0.86743 0.29809
 C1812 C 0.45823 0.85708 0.29194
 C1813 C 0.46524 0.84483 0.28480
 C1814 C 0.47098 0.83412 0.27889
 C1815 C 0.47732 0.82119 0.27234
 C1816 C 0.48228 0.80971 0.26722
 C1817 C -0.04784 0.86761 0.79833
 C1818 C -0.04178 0.85716 0.79226
 C1819 C -0.03481 0.84479 0.78522
 C1820 C -0.02907 0.83402 0.77939
 C1821 C -0.02269 0.82105 0.77289
 C1822 C -0.01767 0.80958 0.76778
 C1823 C -0.04783 -0.11772 -0.04811
 C1824 C -0.04171 -0.10735 -0.04199
 C1825 C -0.03471 -0.09507 -0.03489
 C1826 C -0.02898 -0.08434 -0.02903
 C1827 C -0.02264 -0.07139 -0.02253
 C1828 C -0.01768 -0.05990 -0.01745
 C1829 C -0.04748 0.38113 0.45309
 C1830 C -0.04140 0.39151 0.45928
 C1831 C -0.03439 0.40385 0.46635
 C1832 C -0.02863 0.41464 0.47212
 C1833 C -0.02228 0.42770 0.47845
 C1834 C -0.01737 0.43933 0.48333
 C1835 C 0.45284 -0.11862 0.45266
 C1836 C 0.45897 -0.10827 0.45888
 C1837 C 0.46593 -0.09598 0.46608
 C1838 C 0.47163 -0.08523 0.47200
 C1839 C 0.47790 -0.07220 0.47849
 C1840 C 0.48278 -0.06060 0.48347
 C1841 C 0.45145 0.38236 -0.04809
 C1842 C 0.45750 0.39282 -0.04199
 C1843 C 0.46450 0.40520 -0.03501
 C1844 C 0.47029 0.41599 -0.02926
 C1845 C 0.47673 0.42899 -0.02288
 C1846 C 0.48180 0.44050 -0.01786
 C1847 C 0.79748 0.36837 0.45315
 C1848 C 0.79134 0.35816 0.45948
 C1849 C 0.78426 0.34600 0.46671
 C1850 C 0.77845 0.33532 0.47258
 C1851 C 0.77207 0.32233 0.47896
 C1852 C 0.76714 0.31073 0.48381
 C1853 C 0.79793 0.86813 -0.04722
 C1854 C 0.79176 0.85796 -0.04083
 C1855 C 0.78466 0.84586 -0.03355
 C1856 C 0.77883 0.83522 -0.02763
 C1857 C 0.77241 0.82228 -0.02121
 C1858 C 0.76743 0.81071 -0.01633
 C1859 C 0.79739 0.29730 0.38179
 C1860 C 0.79116 0.29112 0.39205
 C1861 C 0.78396 0.28408 0.40424
 C1862 C 0.77806 0.27834 0.41494
 C1863 C 0.77161 0.27204 0.42792
 C1864 C 0.76668 0.26717 0.43950
 C1865 C 0.79683 0.79802 -0.11845
 C1866 C 0.79063 0.79185 -0.10815
 C1867 C 0.78357 0.78474 -0.09590
 C1868 C 0.77781 0.77890 -0.08516
 C1869 C 0.77148 0.77249 -0.07215
 C1870 C 0.76660 0.76754 -0.06057
 C1871 C 0.29721 0.45311 0.86851
 C1872 C 0.29104 0.45923 0.85816
 C1873 C 0.28392 0.46622 0.84587
 C1874 C 0.27808 0.47192 0.83510
 C1875 C 0.27166 0.47817 0.82205
 C1876 C 0.26671 0.48299 0.81044
 C1877 C 0.29866 -0.04767 0.36740
 C1878 C 0.29262 -0.04171 0.35689
 C1879 C 0.28559 -0.03488 0.34447
 C1880 C 0.27976 -0.02925 0.33367
 C1881 C 0.27326 -0.02299 0.32068
 C1882 C 0.26814 -0.01803 0.30921
 C1883 C -0.04804 -0.04846 -0.11757
 C1884 C -0.04192 -0.04250 -0.10708
 C1885 C -0.03486 -0.03560 -0.09468
 C1886 C -0.02904 -0.02987 -0.08390
 C1887 C -0.02257 -0.02348 -0.07092
 C1888 C -0.01749 -0.01842 -0.05946
 C1889 C -0.04782 0.45251 0.38169
 C1890 C -0.04160 0.45875 0.39196
 C1891 C -0.03442 0.46587 0.40416
 C1892 C -0.02851 0.47166 0.41485
 C1893 C -0.02199 0.47801 0.42782
 C1894 C -0.01698 0.48290 0.43938
 C1895 C 0.45314 -0.04753 0.38187
 C1896 C 0.45946 -0.04135 0.39208
 C1897 C 0.46666 -0.03422 0.40424
 C1898 C 0.47250 -0.02839 0.41493
 C1899 C 0.47884 -0.02200 0.42794
 C1900 C 0.48367 -0.01710 0.43957
 C1901 C 0.45154 0.45190 -0.11745
 C1902 C 0.45762 0.45797 -0.10703
 C1903 C 0.46465 0.46492 -0.09470
 C1904 C 0.47048 0.47064 -0.08394
 C1905 C 0.47693 0.47698 -0.07097
 C1906 C 0.48199 0.48199 -0.05950
 C1907 C 0.45272 0.79839 0.36752
 C1908 C 0.45873 0.79239 0.35700
 C1909 C 0.46562 0.78543 0.34454
 C1910 C 0.47129 0.77966 0.33371
 C1911 C 0.47761 0.77322 0.32070
 C1912 C 0.48259 0.76814 0.30920
 C1913 C -0.04772 0.79823 0.86719
 C1914 C -0.04158 0.79225 0.85677
 C1915 C -0.03454 0.78532 0.84445
 C1916 C -0.02876 0.77958 0.83369
 C1917 C -0.02240 0.77319 0.82072
 C1918 C -0.01744 0.76815 0.80923
 C1919 C 0.38374 0.79903 0.29894
 C1920 C 0.39412 0.79298 0.29279
 C1921 C 0.40635 0.78595 0.28565
 C1922 C 0.41698 0.78010 0.27974
 C1923 C 0.42978 0.77357 0.27317
 C1924 C 0.44113 0.76843 0.26798
 C1925 C -0.11721 0.79840 0.79801
 C1926 C -0.10677 0.79225 0.79203
 C1927 C -0.09442 0.78514 0.78514
 C1928 C -0.08365 0.77927 0.77947
 C1929 C -0.07068 0.77275 0.77315
 C1930 C -0.05921 0.76765 0.76817
 C1931 C 0.86868 0.29709 0.45322
 C1932 C 0.85834 0.29090 0.45933
 C1933 C 0.84605 0.28378 0.46630
 C1934 C 0.83529 0.27793 0.47199
 C1935 C 0.82225 0.27152 0.47822
 C1936 C 0.81063 0.26658 0.48304
 C1937 C 0.86827 0.79667 -0.04746
 C1938 C 0.85813 0.79034 -0.04120
 C1939 C 0.84603 0.78313 -0.03404
 C1940 C 0.83537 0.77727 -0.02821
 C1941 C 0.82238 0.77093 -0.02185
 C1942 C 0.81075 0.76613 -0.01698
 C1943 C -0.11697 -0.04843 -0.04833
 C1944 C -0.10655 -0.04241 -0.04222
 C1945 C -0.09420 -0.03546 -0.03521
 C1946 C -0.08342 -0.02972 -0.02946
 C1947 C -0.07044 -0.02334 -0.02308
 C1948 C -0.05896 -0.01832 -0.01805
 C1949 C -0.11837 0.45282 0.45288
 C1950 C -0.10815 0.45907 0.45912
 C1951 C -0.09599 0.46628 0.46623
 C1952 C -0.08531 0.47218 0.47200
 C1953 C -0.07232 0.47863 0.47831
 C1954 C -0.06071 0.48354 0.48316
 C1955 C 0.38156 -0.04671 0.45233
 C1956 C 0.39184 -0.04047 0.45851
 C1957 C 0.40405 -0.03337 0.46566
 C1958 C 0.41475 -0.02759 0.47154
 C1959 C 0.42775 -0.02129 0.47802
 C1960 C 0.43934 -0.01645 0.48300
 C1961 C 0.38206 0.45230 -0.04845
 C1962 C 0.39260 0.45839 -0.04254
 C1963 C 0.40505 0.46539 -0.03570
 C1964 C 0.41588 0.47116 -0.03001
 C1965 C 0.42890 0.47757 -0.02366
 C1966 C 0.44039 0.48260 -0.01862
 C1967 C 0.36812 0.45307 0.79740
 C1968 C 0.35794 0.45944 0.79122
 C1969 C 0.34584 0.46671 0.78410
 C1970 C 0.33520 0.47261 0.77826
 C1971 C 0.32225 0.47903 0.77184
 C1972 C 0.31067 0.48391 0.76691
 C1973 C 0.36743 -0.04762 0.29804
 C1974 C 0.35704 -0.04148 0.29199
 C1975 C 0.34473 -0.03442 0.28504
 C1976 C 0.33397 -0.02860 0.27933
 C1977 C 0.32098 -0.02219 0.27300
 C1978 C 0.30947 -0.01719 0.26802
 C1979 C 0.13274 0.54790 0.70170
 C1980 C 0.14317 0.54182 0.70775
 C1981 C 0.15552 0.53486 0.71476
 C1982 C 0.16629 0.52914 0.72057
 C1983 C 0.17926 0.52279 0.72702
 C1984 C 0.19073 0.51779 0.73210
 C1985 C 0.13156 0.04649 0.20301
 C1986 C 0.14186 0.04032 0.20920
 C1987 C 0.15409 0.03330 0.21634
 C1988 C 0.16482 0.02758 0.22221
 C1989 C 0.17786 0.02135 0.22864
 C1990 C 0.18948 0.01656 0.23356
 C1991 C 0.61850 0.70330 0.20263
 C1992 C 0.60822 0.70945 0.20886
 C1993 C 0.59600 0.71645 0.21605
 C1994 C 0.58528 0.72215 0.22196
 C1995 C 0.57228 0.72840 0.22842
 C1996 C 0.56067 0.73323 0.23336
 C1997 C 0.11839 0.70272 0.70311
 C1998 C 0.10813 0.70889 0.70936
 C1999 C 0.09590 0.71597 0.71648
 C2000 C 0.08517 0.72176 0.72227
 C2001 C 0.07213 0.72810 0.72860
 C2002 C 0.06051 0.73297 0.73345
 C2003 C 0.63278 0.20182 0.54746
 C2004 C 0.64320 0.20781 0.54132
 C2005 C 0.65554 0.21474 0.53426
 C2006 C 0.66630 0.22048 0.52846
 C2007 C 0.67927 0.22686 0.52205
 C2008 C 0.69075 0.23189 0.51704
 C2009 C 0.63280 0.70222 0.04803
 C2010 C 0.64325 0.70828 0.04201
 C2011 C 0.65562 0.71524 0.03504
 C2012 C 0.66640 0.72098 0.02927
 C2013 C 0.67936 0.72737 0.02286
 C2014 C 0.69082 0.73241 0.01781
 C2015 C 0.11787 0.04739 0.04773
 C2016 C 0.10769 0.04112 0.04145
 C2017 C 0.09563 0.03394 0.03416
 C2018 C 0.08506 0.02805 0.02815
 C2019 C 0.07222 0.02160 0.02156
 C2020 C 0.06072 0.01664 0.01652
 C2021 C 0.11707 0.54807 0.54821
 C2022 C 0.10670 0.54195 0.54207
 C2023 C 0.09441 0.53493 0.53496
 C2024 C 0.08369 0.52914 0.52909
 C2025 C 0.07076 0.52273 0.52259
 C2026 C 0.05931 0.51767 0.51749
 C2027 C 0.61713 0.04856 0.54789
 C2028 C 0.60668 0.04252 0.54183
 C2029 C 0.59432 0.03550 0.53490
 C2030 C 0.58355 0.02967 0.52921
 C2031 C 0.57058 0.02317 0.52291
 C2032 C 0.55911 0.01805 0.51795
 C2033 C 0.61815 0.54749 0.04653
 C2034 C 0.60783 0.54135 0.04033
 C2035 C 0.59556 0.53425 0.03327
 C2036 C 0.58482 0.52841 0.02752
 C2037 C 0.57179 0.52199 0.02122
 C2038 C 0.56018 0.51706 0.01637
 C2039 C 0.04742 0.04602 0.11847
 C2040 C 0.04131 0.03976 0.10817
 C2041 C 0.03425 0.03263 0.09593
 C2042 C 0.02846 0.02684 0.08519
 C2043 C 0.02209 0.02055 0.07215
 C2044 C 0.01720 0.01575 0.06051
 C2045 C 0.04842 0.54764 0.61726
 C2046 C 0.04241 0.54152 0.60681
 C2047 C 0.03544 0.53453 0.59444
 C2048 C 0.02967 0.52880 0.58366
 C2049 C 0.02323 0.52246 0.57066
 C2050 C 0.01814 0.51749 0.55918
 C2051 C 0.54789 0.04841 0.61760
 C2052 C 0.54189 0.04235 0.60709
 C2053 C 0.53503 0.03528 0.59466
 C2054 C 0.52938 0.02940 0.58387
 C2055 C 0.52309 0.02282 0.57089
 C2056 C 0.51810 0.01765 0.55943
 C2057 C 0.54671 0.54674 0.11846
 C2058 C 0.54054 0.54056 0.10814
 C2059 C 0.53349 0.53347 0.09586
 C2060 C 0.52773 0.52767 0.08510
 C2061 C 0.52141 0.52131 0.07205
 C2062 C 0.51655 0.51643 0.06043
 C2063 C 0.20145 0.54788 0.63277
 C2064 C 0.20749 0.54173 0.64317
 C2065 C 0.21447 0.53466 0.65549
 C2066 C 0.22023 0.52884 0.66624
 C2067 C 0.22664 0.52240 0.67920
 C2068 C 0.23169 0.51735 0.69066
 C2069 C 0.20302 0.04614 0.13135
 C2070 C 0.20913 0.03988 0.14163
 C2071 C 0.21615 0.03274 0.15387
 C2072 C 0.22190 0.02694 0.16462
 C2073 C 0.22820 0.02065 0.17768
 C2074 C 0.23305 0.01586 0.18933
 C2075 C 0.70223 0.20213 0.61730
 C2076 C 0.70828 0.20815 0.60684
 C2077 C 0.71522 0.21513 0.59447
 C2078 C 0.72094 0.22091 0.58370
 C2079 C 0.72729 0.22733 0.57072
 C2080 C 0.73228 0.23237 0.55924
 C2081 C 0.70190 0.70280 0.11731
 C2082 C 0.70788 0.70887 0.10685
 C2083 C 0.71481 0.71584 0.09446
 C2084 C 0.72055 0.72157 0.08367
 C2085 C 0.72693 0.72792 0.07067
 C2086 C 0.73196 0.73290 0.05918
 C2087 C 0.54766 0.70330 0.13159
 C2088 C 0.54147 0.70958 0.14183
 C2089 C 0.53434 0.71674 0.15401
 C2090 C 0.52850 0.72257 0.16469
 C2091 C 0.52209 0.72895 0.17768
 C2092 C 0.51715 0.73382 0.18926
 C2093 C 0.04717 0.70296 0.63159
 C2094 C 0.04094 0.70922 0.64183
 C2095 C 0.03384 0.71640 0.65401
 C2096 C 0.02806 0.72228 0.66471
 C2097 C 0.02173 0.72870 0.67772
 C2098 C 0.01686 0.73361 0.68932
 C2099 C 0.54643 0.63141 0.20268
 C2100 C 0.54022 0.64176 0.20876
 C2101 C 0.53316 0.65409 0.21574
 C2102 C 0.52740 0.66489 0.22147
 C2103 C 0.52111 0.67798 0.22776
 C2104 C 0.51630 0.68964 0.23262
 C2105 C 0.04713 0.63186 0.70263
 C2106 C 0.04080 0.64207 0.70884
 C2107 C 0.03355 0.65421 0.71593
 C2108 C 0.02763 0.66489 0.72172
 C2109 C 0.02119 0.67789 0.72805
 C2110 C 0.01630 0.68950 0.73294
 C2111 C 0.04677 0.11822 0.04728
 C2112 C 0.04056 0.10788 0.04116
 C2113 C 0.03350 0.09558 0.03412
 C2114 C 0.02773 0.08480 0.02834
 C2115 C 0.02143 0.07173 0.02200
 C2116 C 0.01659 0.06009 0.01710
 C2117 C 0.04767 0.61747 0.54807
 C2118 C 0.04154 0.60701 0.54207
 C2119 C 0.03451 0.59462 0.53515
 C2120 C 0.02873 0.58380 0.52945
 C2121 C 0.02232 0.57077 0.52312
 C2122 C 0.01729 0.55925 0.51813
 C2123 C 0.54820 0.11750 0.54772
 C2124 C 0.54208 0.10707 0.54167
 C2125 C 0.53498 0.09472 0.53476
 C2126 C 0.52910 0.08395 0.52908
 C2127 C 0.52258 0.07097 0.52278
 C2128 C 0.51749 0.05947 0.51782
 C2129 C 0.54694 0.61841 0.04688
 C2130 C 0.54063 0.60816 0.04070
 C2131 C 0.53339 0.59597 0.03364
 C2132 C 0.52748 0.58526 0.02789
 C2133 C 0.52105 0.57223 0.02159
 C2134 C 0.51615 0.56060 0.01674
 C2135 C 0.70168 0.13289 0.54801
 C2136 C 0.70771 0.14332 0.54191
 C2137 C 0.71471 0.15566 0.53492
 C2138 C 0.72051 0.16641 0.52916
 C2139 C 0.72697 0.17935 0.52277
 C2140 C 0.73207 0.19080 0.51774
 C2141 C 0.70192 0.63265 0.04749
 C2142 C 0.70793 0.64312 0.04144
 C2143 C 0.71490 0.65551 0.03448
 C2144 C 0.72067 0.66630 0.02876
 C2145 C 0.72710 0.67929 0.02241
 C2146 C 0.73216 0.69079 0.01742
 C2147 C 0.20210 0.61756 0.70212
 C2148 C 0.20816 0.60713 0.70821
 C2149 C 0.21514 0.59477 0.71520
 C2150 C 0.22089 0.58398 0.72095
 C2151 C 0.22726 0.57098 0.72732
 C2152 C 0.23226 0.55947 0.73232
 C2153 C 0.20313 0.11806 0.20232
 C2154 C 0.20937 0.10779 0.20847
 C2155 C 0.21649 0.09558 0.21559
 C2156 C 0.22228 0.08487 0.22145
 C2157 C 0.22860 0.07188 0.22789
 C2158 C 0.23344 0.06028 0.23285
 C2159 C 0.70329 1.11833 0.70224
 C2160 C 0.70954 1.10803 0.70835
 C2161 C 0.71667 1.09580 0.71541
 C2162 C 0.72247 1.08506 0.72122
 C2163 C 0.72879 1.07204 0.72761
 C2164 C 0.73361 1.06043 0.73255
 C2165 C 0.70322 0.61849 0.20260
 C2166 C 0.70949 0.60827 0.20881
 C2167 C 0.71666 0.59609 0.21592
 C2168 C 0.72251 0.58539 0.22172
 C2169 C 0.72888 0.57237 0.22805
 C2170 C 0.73375 0.56075 0.23290
 C2171 C 0.54679 0.13135 0.70165
 C2172 C 0.54056 0.14169 0.70777
 C2173 C 0.53345 0.15396 0.71486
 C2174 C 0.52765 0.16468 0.72073
 C2175 C 0.52130 0.17767 0.72723
 C2176 C 0.51643 0.18923 0.73229
 C2177 C 1.04678 0.13134 0.20283
 C2178 C 1.04046 0.14156 0.20902
 C2179 C 1.03323 0.15371 0.21611
 C2180 C 1.02734 0.16440 0.22190
 C2181 C 1.02094 0.17742 0.22823
 C2182 C 1.01609 0.18905 0.23309
 C2183 C 0.20181 0.63313 0.54829
 C2184 C 0.20797 0.64351 0.54222
 C2185 C 0.21508 0.65580 0.53523
 C2186 C 0.22094 0.66653 0.52947
 C2187 C 0.22745 0.67947 0.52309
 C2188 C 0.23255 0.69093 0.51807
 C2189 C 0.20207 0.13269 1.04833
 C2190 C 0.20822 0.14306 1.04225
 C2191 C 0.21534 0.15531 1.03521
 C2192 C 0.22120 0.16599 1.02940
 C2193 C 0.22769 0.17889 1.02294
 C2194 C 0.23276 0.19034 1.01787
 C2195 C 0.20179 0.70212 0.61709
 C2196 C 0.20783 0.70822 0.60667
 C2197 C 0.21481 0.71524 0.59435
 C2198 C 0.22057 0.72103 0.58360
 C2199 C 0.22698 0.72744 0.57066
 C2200 C 0.23204 0.73247 0.55920
 C2201 C 0.20211 0.20188 1.11735
 C2202 C 0.20815 0.20793 1.10690
 C2203 C 0.21507 0.21496 1.09453
 C2204 C 0.22077 0.22078 1.08377
 C2205 C 0.22710 0.22727 1.07080
 C2206 C 0.23209 0.23236 1.05934
 C2207 C 0.70264 0.54716 0.13170
 C2208 C 0.70886 0.54090 0.14193
 C2209 C 0.71598 0.53372 0.15410
 C2210 C 0.72181 0.52787 0.16478
 C2211 C 0.72820 0.52148 0.17777
 C2212 C 0.73312 0.51660 0.18937
 C2213 C 0.70268 1.04707 0.63179
 C2214 C 0.70892 1.04068 0.64192
 C2215 C 0.71604 1.03336 0.65399
 C2216 C 0.72184 1.02739 0.66462
 C2217 C 0.72819 1.02091 0.67757
 C2218 C 0.73306 1.01600 0.68916
 C2219 C 0.54739 0.20329 0.63157
 C2220 C 0.54111 0.20957 0.64174
 C2221 C 0.53391 0.21674 0.65386
 C2222 C 0.52803 0.22256 0.66453
 C2223 C 0.52163 0.22887 0.67753
 C2224 C 0.51673 0.23367 0.68916
 C2225 C 1.04690 0.20294 0.13144
 C2226 C 1.04068 0.20911 0.14173
 C2227 C 1.03359 0.21619 0.15398
 C2228 C 1.02781 0.22198 0.16473
 C2229 C 1.02147 0.22832 0.17776
 C2230 C 1.01660 0.23319 0.18938
 C2231 C 0.61820 0.20286 0.70284
 C2232 C 0.60796 0.20902 0.70913
 C2233 C 0.59578 0.21605 0.71634
 C2234 C 0.58506 0.22177 0.72223
 C2235 C 0.57203 0.22802 0.72865
 C2236 C 0.56039 0.23281 0.73353
 C2237 C 1.11804 0.20255 0.20287
 C2238 C 1.10780 0.20873 0.20914
 C2239 C 1.09562 0.21579 0.21634
 C2240 C 1.08491 0.22155 0.22222
 C2241 C 1.07190 0.22785 0.22862
 C2242 C 1.06028 0.23268 0.23352
 C2243 C 0.13280 0.70208 0.54781
 C2244 C 0.14318 0.70819 0.54171
 C2245 C 0.15547 0.71525 0.53469
 C2246 C 0.16619 0.72108 0.52891
 C2247 C 0.17914 0.72753 0.52252
 C2248 C 0.19062 0.73258 0.51751
 C2249 C 0.13297 0.20155 1.04806
 C2250 C 0.14341 0.20756 1.04196
 C2251 C 0.15576 0.21449 1.03493
 C2252 C 0.16654 0.22022 1.02915
 C2253 C 0.17953 0.22658 1.02276
 C2254 C 0.19101 0.23162 1.01775
 C2255 C 0.63170 0.54718 0.20300
 C2256 C 0.64193 0.54100 0.20927
 C2257 C 0.65411 0.53391 0.21645
 C2258 C 0.66483 0.52814 0.22230
 C2259 C 0.67786 0.52183 0.22867
 C2260 C 0.68949 0.51699 0.23352
 C2261 C 0.63161 1.04740 0.70262
 C2262 C 0.64191 1.04122 0.70883
 C2263 C 0.65414 1.03413 0.71596
 C2264 C 0.66486 1.02832 0.72179
 C2265 C 0.67787 1.02194 0.72819
 C2266 C 0.68945 1.01703 0.73311
 C2267 C 0.86724 0.45221 0.29883
 C2268 C 0.85678 0.45828 0.29279
 C2269 C 0.84441 0.46522 0.28578
 C2270 C 0.83364 0.47092 0.27994
 C2271 C 0.82069 0.47725 0.27340
 C2272 C 0.80926 0.48226 0.26823
 C2273 C 0.86705 0.95218 0.79868
 C2274 C 0.85668 0.95831 0.79256
 C2275 C 0.84438 0.96537 0.78552
 C2276 C 0.83365 0.97118 0.77971
 C2277 C 0.82069 0.97760 0.77327
 C2278 C 0.80922 0.98263 0.76820
 C2279 C 0.38246 0.29769 0.79780
 C2280 C 0.39290 0.29160 0.79177
 C2281 C 0.40527 0.28454 0.78488
 C2282 C 0.41605 0.27869 0.77922
 C2283 C 0.42904 0.27219 0.77293
 C2284 C 0.44052 0.26710 0.76797
 C2285 C 0.88260 0.29749 0.29835
 C2286 C 0.89302 0.29133 0.29235
 C2287 C 0.90534 0.28426 0.28541
 C2288 C 0.91610 0.27846 0.27967
 C2289 C 0.92905 0.27204 0.27328
 C2290 C 0.94053 0.26701 0.26824
 C2291 C 0.36821 0.79742 0.45252
 C2292 C 0.35798 0.79113 0.45870
 C2293 C 0.34581 0.78392 0.46580
 C2294 C 0.33512 0.77804 0.47161
 C2295 C 0.32214 0.77163 0.47799
 C2296 C 0.31055 0.76673 0.48291
 C2297 C 0.36842 0.29741 0.95305
 C2298 C 0.35820 0.29111 0.95925
 C2299 C 0.34604 0.28386 0.96631
 C2300 C 0.33536 0.27792 0.97205
 C2301 C 0.32237 0.27143 0.97834
 C2302 C 0.31078 0.26647 0.98319
 C2303 C 0.79756 0.45227 0.36738
 C2304 C 0.79147 0.45839 0.35700
 C2305 C 0.78448 0.46543 0.34469
 C2306 C 0.77874 0.47122 0.33393
 C2307 C 0.77241 0.47760 0.32093
 C2308 C 0.76747 0.48259 0.30940
 C2309 C 0.79802 0.95201 0.86703
 C2310 C 0.79189 0.95811 0.85667
 C2311 C 0.78484 0.96512 0.84438
 C2312 C 0.77904 0.97089 0.83364
 C2313 C 0.77262 0.97726 0.82068
 C2314 C 0.76760 0.98226 0.80920
 C2315 C 0.29752 0.79751 0.38206
 C2316 C 0.29115 0.79131 0.39222
 C2317 C 0.28383 0.78422 0.40430
 C2318 C 0.27785 0.77843 0.41492
 C2319 C 0.27135 0.77209 0.42785
 C2320 C 0.26641 0.76722 0.43943
 C2321 C 0.29698 0.29703 0.88174
 C2322 C 0.29075 0.29083 0.89199
 C2323 C 0.28361 0.28374 0.90418
 C2324 C 0.27779 0.27795 0.91490
 C2325 C 0.27144 0.27162 0.92792
 C2326 C 0.26659 0.26677 0.93954
 C2327 C 0.45194 0.29829 0.86710
 C2328 C 0.45795 0.29218 0.85665
 C2329 C 0.46487 0.28511 0.84430
 C2330 C 0.47057 0.27926 0.83354
 C2331 C 0.47691 0.27276 0.82058
 C2332 C 0.48192 0.26765 0.80912
 C2333 C 0.95216 0.29825 0.36732
 C2334 C 0.95821 0.29217 0.35689
 C2335 C 0.96516 0.28514 0.34454
 C2336 C 0.97088 0.27934 0.33376
 C2337 C 0.97721 0.27289 0.32078
 C2338 C 0.98218 0.26781 0.30929
 C2339 C 0.45198 0.36724 0.79754
 C2340 C 0.45812 0.35686 0.79145
 C2341 C 0.46518 0.34454 0.78448
 C2342 C 0.47097 0.33377 0.77875
 C2343 C 0.47735 0.32075 0.77243
 C2344 C 0.48232 0.30921 0.76747
 C2345 C 0.95209 0.36728 0.29806
 C2346 C 0.95813 0.35685 0.29193
 C2347 C 0.96507 0.34450 0.28486
 C2348 C 0.97080 0.33373 0.27904
 C2349 C 0.97714 0.32073 0.27260
 C2350 C 0.98213 0.30921 0.26757
 C2351 C 0.29769 0.86856 0.45319
 C2352 C 0.29145 0.85833 0.45944
 C2353 C 0.28430 0.84617 0.46660
 C2354 C 0.27846 0.83547 0.47243
 C2355 C 0.27208 0.82247 0.47879
 C2356 C 0.26718 0.81086 0.48366
 C2357 C 0.29763 0.36808 0.95303
 C2358 C 0.29141 0.35784 0.95929
 C2359 C 0.28428 0.34568 0.96647
 C2360 C 0.27844 0.33500 0.97234
 C2361 C 0.27203 0.32201 0.97873
 C2362 C 0.26711 0.31041 0.98361
 C2363 C 0.79828 0.38287 0.29777
 C2364 C 0.79223 0.39325 0.29160
 C2365 C 0.78526 0.40555 0.28450
 C2366 C 0.77952 0.41629 0.27866
 C2367 C 0.77317 0.42927 0.27221
 C2368 C 0.76818 0.44076 0.26717
   
