data_POSCAR
  _audit_creation_date              2014-09-24
  _audit_creation_method            'ToBaCCo'
  _symmetry_space_group_name_H-M    'P1'
  _symmetry_Int_Tables_number       1
  _symmetry_cell_setting            triclinic
  loop_
  _symmetry_equiv_pos_as_xyz
 x,y,z
_cell_length_a 68.7978
_cell_length_b 69.8657
_cell_length_c 69.2298
_cell_angle_alpha 89.639800
_cell_angle_beta 88.788100
_cell_angle_gamma 88.894400
loop_
  _atom_site_label
  _atom_site_type_symbol
  _atom_site_fract_x
  _atom_site_fract_y
  _atom_site_fract_z
C1 C 0.74918 0.63031 1.01923
 C2 C 0.76025 0.63830 1.00405
 C3 C 0.77912 0.64455 1.00751
 C4 C 0.78720 0.64261 1.02594
 C5 C 0.77596 0.63418 1.04088
 C6 C 0.75688 0.62808 1.03780
 C7 C 0.75220 0.63955 0.98441
 C8 C 0.73351 0.64739 0.98164
 C9 C 0.72529 0.64746 0.96327
 C10 C 0.73604 0.63979 0.94759
 C11 C 0.75481 0.63199 0.95003
 C12 C 0.76282 0.63200 0.96855
 H13 H 0.73467 0.62545 1.01631
 H14 H 0.78745 0.65082 0.99570
 H15 H 0.72526 0.65310 0.99387
 H16 H 0.77713 0.62573 0.97077
 H17 H 0.78203 0.63259 1.05511
 H18 H 0.72965 0.63974 0.93343
 C19 C 0.73753 0.40669 0.46745
 C20 C 0.74656 0.39727 0.48294
 C21 C 0.76384 0.38661 0.47968
 C22 C 0.77184 0.38489 0.46091
 C23 C 0.76261 0.39447 0.44560
 C24 C 0.74552 0.40541 0.44868
 C25 C 0.73715 0.39751 0.50228
 C26 C 0.71863 0.38979 0.50487
 C27 C 0.70938 0.38980 0.52312
 C28 C 0.71871 0.39810 0.53877
 C29 C 0.73745 0.40564 0.53649
 C30 C 0.74664 0.40514 0.51813
 H31 H 0.72411 0.41473 0.47004
 H32 H 0.77052 0.37909 0.49163
 H33 H 0.71154 0.38356 0.49263
 H34 H 0.76104 0.41090 0.51603
 H35 H 0.76874 0.39338 0.43110
 H36 H 0.71166 0.39800 0.55291
 C37 C 0.24504 -0.09163 -0.02150
 C38 C 0.25550 -0.10019 -0.00643
 C39 C 0.27413 -0.10806 -0.01015
 C40 C 0.28246 -0.10750 -0.02889
 C41 C 0.27204 -0.09813 -0.04361
 C42 C 0.25335 -0.09032 -0.04014
 C43 C 0.24687 -0.10122 0.01325
 C44 C 0.22930 -0.11071 0.01654
 C45 C 0.22135 -0.11248 0.03537
 C46 C 0.23095 -0.10371 0.05069
 C47 C 0.24850 -0.09412 0.04759
 C48 C 0.25650 -0.09317 0.02880
 H49 H 0.23062 -0.08570 -0.01856
 H50 H 0.28182 -0.11501 0.00155
 H51 H 0.22226 -0.11720 0.00441
 H52 H 0.27009 -0.08592 0.02614
 H53 H 0.27819 -0.09743 -0.05812
 H54 H 0.22506 -0.10475 0.06528
 C55 C 0.23965 0.12645 0.52840
 C56 C 0.25112 0.13341 0.51293
 C57 C 0.26990 0.13995 0.51645
 C58 C 0.27726 0.13958 0.53523
 C59 C 0.26557 0.13257 0.55049
 C60 C 0.24678 0.12594 0.54727
 C61 C 0.24351 0.13360 0.49306
 C62 C 0.22469 0.14081 0.48957
 C63 C 0.21707 0.14035 0.47095
 C64 C 0.22855 0.13276 0.45572
 C65 C 0.24747 0.12567 0.45884
 C66 C 0.25485 0.12615 0.47762
 H67 H 0.22526 0.12123 0.52564
 H68 H 0.27871 0.14536 0.50455
 H69 H 0.21593 0.14660 0.50142
 H70 H 0.26931 0.12048 0.48034
 H71 H 0.27116 0.13224 0.56499
 H72 H 0.22266 0.13239 0.44134
 C73 C 0.11171 0.51043 0.25287
 C74 C 0.11910 0.49502 0.26380
 C75 C 0.12477 0.49806 0.28288
 C76 C 0.12295 0.51630 0.29116
 C77 C 0.11504 0.53144 0.28021
 C78 C 0.10946 0.52881 0.26096
 C79 C 0.12071 0.47566 0.25527
 C80 C 0.12986 0.47298 0.23715
 C81 C 0.13076 0.45480 0.22863
 C82 C 0.12243 0.43923 0.23849
 C83 C 0.11328 0.44162 0.25668
 C84 C 0.11257 0.45993 0.26500
 H85 H 0.10736 0.50788 0.23817
 H86 H 0.13074 0.48621 0.29118
 H87 H 0.13611 0.48512 0.22963
 H88 H 0.10539 0.46210 0.27892
 H89 H 0.11372 0.54552 0.28663
 H90 H 0.12303 0.42520 0.23191
 C91 C -0.10553 -0.03875 0.23359
 C92 C -0.11335 -0.02332 0.24430
 C93 C -0.12177 -0.02663 0.26265
 C94 C -0.12266 -0.04531 0.27034
 C95 C -0.11462 -0.06055 0.25934
 C96 C -0.10602 -0.05746 0.24105
 C97 C -0.11287 -0.00373 0.23613
 C98 C -0.12056 0.00000 0.21783
 C99 C -0.11975 0.01843 0.20956
 C100 C -0.11070 0.03299 0.21989
 C101 C -0.10334 0.02961 0.23841
 C102 C -0.10461 0.01117 0.24649
 H103 H -0.09898 -0.03610 0.21948
 H104 H -0.12785 -0.01460 0.27071
 H105 H -0.12721 -0.01156 0.21015
 H106 H -0.09879 0.00825 0.26065
 H107 H -0.11497 -0.07502 0.26504
 H108 H -0.10993 0.04728 0.21382
 C109 C 0.39787 0.47164 0.74254
 C110 C 0.38902 0.48692 0.75272
 C111 C 0.38043 0.48363 0.77102
 C112 C 0.38033 0.46508 0.77912
 C113 C 0.38928 0.44999 0.76858
 C114 C 0.39806 0.45310 0.75039
 C115 C 0.38844 0.50625 0.74395
 C116 C 0.38070 0.50896 0.72551
 C117 C 0.38055 0.52712 0.71675
 C118 C 0.38855 0.54256 0.72654
 C119 C 0.39611 0.54018 0.74512
 C120 C 0.39583 0.52194 0.75381
 H121 H 0.40449 0.47422 0.72844
 H122 H 0.37355 0.49552 0.77866
 H123 H 0.37478 0.49687 0.71803
 H124 H 0.40178 0.51976 0.76804
 H125 H 0.38953 0.43561 0.77452
 H126 H 0.38839 0.55662 0.71985
 C127 C 0.61604 1.01924 0.74363
 C128 C 0.62367 1.00397 0.75460
 C129 C 0.63026 1.00736 0.77333
 C130 C 0.62922 1.02587 0.78125
 C131 C 0.62109 1.04085 0.77011
 C132 C 0.61459 1.03776 0.75132
 C133 C 0.62468 0.98443 0.74645
 C134 C 0.63299 0.98132 0.72802
 C135 C 0.63337 0.96297 0.71989
 C136 C 0.62539 0.94768 0.73043
 C137 C 0.61712 0.95047 0.74896
 C138 C 0.61690 0.96896 0.75689
 H139 H 0.61093 1.01655 0.72922
 H140 H 0.63638 0.99553 0.78154
 H141 H 0.63901 0.99325 0.71997
 H142 H 0.61039 0.97144 0.77107
 H143 H 0.62012 1.05518 0.77595
 H144 H 0.62563 0.93351 0.72415
 C145 C -0.02713 0.24872 -0.10557
 C146 C -0.01183 0.25913 -0.11394
 C147 C -0.01543 0.27765 -0.12119
 C148 C -0.03430 0.28586 -0.12022
 C149 C -0.04928 0.27536 -0.11116
 C150 C -0.04591 0.25680 -0.10396
 C151 C 0.00793 0.25047 -0.11509
 C152 C 0.01090 0.23245 -0.12362
 C153 C 0.02938 0.22345 -0.12381
 C154 C 0.04483 0.23284 -0.11505
 C155 C 0.04218 0.25105 -0.10679
 C156 C 0.02366 0.25986 -0.10704
 H157 H -0.02426 0.23443 -0.10000
 H158 H -0.00356 0.28538 -0.12792
 H159 H -0.00135 0.22548 -0.12997
 H160 H 0.02127 0.27375 -0.10043
 H161 H -0.06388 0.28139 -0.11018
 H162 H 0.05917 0.22617 -0.11500
 C163 C 0.52683 0.24588 0.12110
 C164 C 0.51138 0.25746 0.12821
 C165 C 0.51499 0.27628 0.13397
 C166 C 0.53388 0.28355 0.13276
 C167 C 0.54913 0.27177 0.12556
 C168 C 0.54580 0.25293 0.11967
 C169 C 0.49147 0.24981 0.12960
 C170 C 0.48828 0.23189 0.13829
 C171 C 0.46961 0.22417 0.13908
 C172 C 0.45403 0.23463 0.13115
 C173 C 0.45687 0.25265 0.12253
 C174 C 0.47569 0.26017 0.12187
 H175 H 0.52398 0.23141 0.11655
 H176 H 0.50309 0.28516 0.13954
 H177 H 0.50042 0.22391 0.14429
 H178 H 0.47821 0.27393 0.11507
 H179 H 0.56372 0.27728 0.12457
 H180 H 0.43962 0.22866 0.13172
 C181 C 1.02365 0.74506 0.62335
 C182 C 1.00813 0.75632 0.63079
 C183 C 1.01168 0.77479 0.63764
 C184 C 1.03063 0.78208 0.63722
 C185 C 1.04594 0.77053 0.62956
 C186 C 1.04263 0.75206 0.62264
 C187 C 0.98821 0.74865 0.63143
 C188 C 0.98493 0.73029 0.63903
 C189 C 0.96631 0.72249 0.63893
 C190 C 0.95086 0.73333 0.63130
 C191 C 0.95379 0.75180 0.62378
 C192 C 0.97257 0.75939 0.62394
 H193 H 1.02082 0.73088 0.61797
 H194 H 0.99962 0.78327 0.64351
 H195 H 0.99697 0.72199 0.64481
 H196 H 0.97516 0.77350 0.61795
 H197 H 1.06060 0.77588 0.62901
 H198 H 0.93649 0.72729 0.63117
 C199 C 0.47040 0.74375 0.39595
 C200 C 0.48651 0.75371 0.38860
 C201 C 0.48407 0.77272 0.38226
 C202 C 0.46568 0.78182 0.38324
 C203 C 0.44981 0.77174 0.39104
 C204 C 0.45198 0.75269 0.39734
 C205 C 0.50587 0.74411 0.38762
 C206 C 0.50803 0.72594 0.37927
 C207 C 0.52612 0.71631 0.37902
 C208 C 0.54211 0.72498 0.38743
 C209 C 0.54030 0.74337 0.39550
 C210 C 0.52209 0.75287 0.39543
 H211 H 0.47237 0.72912 0.40092
 H212 H 0.49646 0.78028 0.37633
 H213 H 0.49556 0.71930 0.37297
 H214 H 0.52035 0.76691 0.40188
 H215 H 0.43556 0.77858 0.39178
 H216 H 0.55612 0.71763 0.38714
 C217 C 0.41651 -0.01987 0.26903
 H218 H 0.42567 -0.00909 0.26251
 C219 C 0.42489 -0.03545 0.27892
 H220 H 0.44055 -0.03656 0.28003
 C221 C 0.38494 -0.03155 0.27573
 H222 H 0.36935 -0.02986 0.27447
 C223 C 0.39260 -0.04710 0.28582
 H224 H 0.38272 -0.05739 0.29213
 N225 N 0.39682 -0.01812 0.26796
 C226 C 0.39642 0.02384 0.22457
 H227 H 0.38566 0.01607 0.21688
 C228 C 0.40622 0.03844 0.21500
 H229 H 0.40301 0.04126 0.19999
 C230 C 0.41257 0.03039 0.25360
 H231 H 0.41454 0.02744 0.26880
 C232 C 0.42269 0.04532 0.24454
 H233 H 0.43253 0.05371 0.25288
 Zn234 Zn 0.38308 0.00244 0.25638
 N235 N 0.39956 0.02015 0.24356
 C236 C 0.35643 0.03057 0.27134
 N237 N 0.36880 0.01589 0.27598
 C238 C 0.37217 0.01126 0.29475
 C239 C 0.36266 0.02119 0.30968
 C240 C 0.34643 0.04082 0.28590
 C241 C 0.37605 -0.01981 0.22457
 C242 C 0.36592 -0.02755 0.20936
 C243 C 0.33631 -0.01338 0.22269
 C244 C 0.34709 -0.00575 0.23765
 N245 N 0.36669 -0.00868 0.23800
 H246 H 0.35439 0.03437 0.25634
 H247 H 0.38255 0.00007 0.29828
 H248 H 0.36565 0.01715 0.32446
 H249 H 0.33658 0.05239 0.28193
 H250 H 0.39161 -0.02213 0.22537
 H251 H 0.37384 -0.03594 0.19859
 H252 H 0.32079 -0.01052 0.22234
 H253 H 0.33983 0.00276 0.24870
 C254 C 0.41924 0.04972 0.22505
 C255 C 0.41280 -0.04912 0.28776
 C256 C 0.34583 -0.02412 0.20807
 C257 C 0.34953 0.03616 0.30539
 C258 C 0.10076 1.02513 0.78349
 H259 H 0.11192 1.01683 0.79057
 C260 C 0.09110 1.03953 0.79382
 H261 H 0.09482 1.04164 0.80877
 C262 C 0.08342 1.03321 0.75531
 H263 H 0.08093 1.03094 0.74012
 C264 C 0.07338 1.04798 0.76517
 H265 H 0.06311 1.05696 0.75748
 N266 N 0.09703 1.02232 0.76452
 C267 C 0.11235 0.97131 0.73134
 H268 H 0.12792 0.97310 0.73190
 C269 C 0.10497 0.95551 0.72213
 H270 H 0.11509 0.94520 0.71572
 C271 C 0.08056 0.98283 0.73924
 H272 H 0.07120 0.99356 0.74600
 C273 C 0.07246 0.96701 0.73019
 H274 H 0.05681 0.96571 0.72998
 Zn275 Zn 0.11361 1.00492 0.75077
 N276 N 0.10021 0.98469 0.73943
 C277 C 0.12228 0.98125 0.78150
 N278 N 0.13090 0.99320 0.76847
 C279 C 0.15025 0.99674 0.76907
 C280 C 0.16145 0.98901 0.78398
 C281 C 0.13283 0.97334 0.79662
 C282 C 0.12337 1.01444 0.71226
 C283 C 0.13238 1.02450 0.69722
 C284 C 0.14828 1.04372 0.72083
 C285 C 0.13879 1.03335 0.73548
 N286 N 0.12688 1.01878 0.73098
 H287 H 0.10691 0.97851 0.78054
 H288 H 0.15695 1.00593 0.75835
 H289 H 0.17669 0.99245 0.78461
 H290 H 0.12544 0.96437 0.80713
 H291 H 0.11335 1.00332 0.70885
 H292 H 0.12937 1.02064 0.68248
 H293 H 0.15782 1.05517 0.72469
 H294 H 0.14092 1.03692 0.75046
 C295 C 0.08479 0.95318 0.72135
 C296 C 0.07757 1.05154 0.78461
 C297 C 0.14512 1.03929 0.70137
 C298 C 0.15259 0.97752 0.79828
 C299 C 0.59055 0.52285 0.26820
 H300 H 0.59469 0.50903 0.27411
 C301 C 0.57941 0.53568 0.27940
 H302 H 0.57487 0.53158 0.29390
 C303 C 0.59250 0.54544 0.24258
 H304 H 0.59815 0.54946 0.22851
 C305 C 0.58101 0.55853 0.25310
 H306 H 0.57793 0.57251 0.24692
 N307 N 0.59728 0.52810 0.25036
 C308 C 0.61571 0.48103 0.21323
 H309 H 0.63062 0.48512 0.21061
 C310 C 0.60840 0.46522 0.20386
 H311 H 0.61789 0.45724 0.19403
 C312 C 0.58547 0.48657 0.22947
 H313 H 0.57666 0.49498 0.23951
 C314 C 0.57753 0.47074 0.22042
 H315 H 0.56258 0.46709 0.22361
 Zn316 Zn 0.61611 0.51194 0.23813
 N317 N 0.60432 0.49121 0.22589
 C318 C 0.63723 0.48346 0.25869
 N319 N 0.63298 0.50252 0.25748
 C320 C 0.63938 0.51494 0.27089
 C321 C 0.65014 0.50825 0.28654
 C322 C 0.64823 0.47622 0.27387
 C323 C 0.62108 0.53012 0.20227
 C324 C 0.63102 0.53940 0.18724
 C325 C 0.65968 0.53933 0.20682
 C326 C 0.64919 0.53000 0.22147
 N327 N 0.63022 0.52567 0.21898
 H328 H 0.63181 0.47374 0.24811
 H329 H 0.63564 0.53001 0.26970
 H330 H 0.65480 0.51829 0.29727
 H331 H 0.65121 0.46096 0.27468
 H332 H 0.60607 0.52625 0.20056
 H333 H 0.62343 0.54272 0.17406
 H334 H 0.67478 0.54257 0.20908
 H335 H 0.65627 0.52609 0.23475
 C336 C 0.58911 0.45975 0.20750
 C337 C 0.57484 0.55392 0.27199
 C338 C 0.65062 0.54408 0.18937
 C339 C 0.65457 0.48861 0.28822
 C340 C 0.90818 0.47623 0.75787
 H341 H 0.91720 0.48732 0.75175
 C342 C 0.91676 0.46073 0.76768
 H343 H 0.93240 0.46004 0.76908
 C344 C 0.87682 0.46371 0.76376
 H345 H 0.86123 0.46509 0.76229
 C346 C 0.88469 0.44813 0.77367
 H347 H 0.87496 0.43752 0.77964
 N348 N 0.88850 0.47756 0.75648
 C349 C 0.88915 0.52000 0.71389
 H350 H 0.87851 0.51249 0.70579
 C351 C 0.89952 0.53454 0.70483
 H352 H 0.89685 0.53765 0.68976
 C353 C 0.90454 0.52587 0.74350
 H354 H 0.90600 0.52269 0.75872
 C355 C 0.91524 0.54066 0.73497
 H356 H 0.92500 0.54872 0.74374
 Zn357 Zn 0.87486 0.49838 0.74529
 N358 N 0.89167 0.51601 0.73293
 C359 C 0.84936 0.52715 0.76065
 N360 N 0.86088 0.51176 0.76508
 C361 C 0.86394 0.50663 0.78378
 C362 C 0.85520 0.51698 0.79885
 C363 C 0.84018 0.53788 0.77535
 C364 C 0.86733 0.47681 0.71311
 C365 C 0.85690 0.46926 0.69801
 C366 C 0.82761 0.48366 0.71181
 C367 C 0.83869 0.49109 0.72665
 N368 N 0.85826 0.48789 0.72676
 H369 H 0.84753 0.53125 0.74569
 H370 H 0.87361 0.49478 0.78714
 H371 H 0.85803 0.51263 0.81358
 H372 H 0.83116 0.55015 0.77155
 H373 H 0.88287 0.47427 0.71371
 H374 H 0.86458 0.46085 0.68710
 H375 H 0.81211 0.48667 0.71170
 H376 H 0.83169 0.49960 0.73786
 C377 C 0.91248 0.54539 0.71544
 C378 C 0.90488 0.44661 0.77603
 C379 C 0.83679 0.47286 0.69704
 C380 C 0.84320 0.53290 0.79478
 C381 C 0.26363 0.41242 -0.02208
 H382 H 0.25759 0.42124 -0.01057
 C383 C 0.27325 0.42092 -0.03795
 H384 H 0.27462 0.43632 -0.03853
 C385 C 0.26939 0.38159 -0.03536
 H386 H 0.26788 0.36624 -0.03419
 C387 C 0.27909 0.38937 -0.05125
 H388 H 0.28486 0.37979 -0.06228
 N389 N 0.26218 0.39303 -0.02104
 C390 C 0.21856 0.39137 0.02186
 H391 H 0.21083 0.38118 0.01346
 C392 C 0.20887 0.40032 0.03725
 H393 H 0.19375 0.39706 0.04003
 C394 C 0.24778 0.40691 0.02917
 H395 H 0.26310 0.40896 0.02619
 C396 C 0.23860 0.41617 0.04490
 H397 H 0.24696 0.42544 0.05389
 Zn398 Zn 0.25066 0.37895 -0.00057
 N399 N 0.23772 0.39457 0.01819
 C400 C 0.28932 0.36802 0.00694
 N401 N 0.27050 0.36460 0.01204
 C402 C 0.26604 0.35227 0.02671
 C403 C 0.28085 0.34257 0.03661
 C404 C 0.30450 0.35876 0.01644
 C405 C 0.21902 0.37274 -0.02323
 C406 C 0.20387 0.36310 -0.03166
 C407 C 0.21655 0.33351 -0.01826
 C408 C 0.23148 0.34380 -0.00992
 N409 N 0.23215 0.36313 -0.01221
 H410 H 0.29272 0.37830 -0.00427
 H411 H 0.25099 0.35014 0.03087
 H412 H 0.27703 0.33286 0.04827
 H413 H 0.31932 0.36185 0.01207
 H414 H 0.22006 0.38808 -0.02501
 H415 H 0.19340 0.37120 -0.04001
 H416 H 0.21596 0.31818 -0.01598
 H417 H 0.24229 0.33637 -0.00143
 C418 C 0.21896 0.41255 0.04934
 C419 C 0.28136 0.40925 -0.05266
 C420 C 0.20230 0.34326 -0.02902
 C421 C 0.30042 0.34584 0.03153
 C422 C 0.78219 0.10332 1.01955
 H423 H 0.78874 0.11509 1.01185
 C424 C 0.79300 0.09354 1.03332
 H425 H 0.80783 0.09779 1.03559
 C426 C 0.75473 0.08441 1.02672
 H427 H 0.73963 0.08128 1.02432
 C428 C 0.76510 0.07417 1.04076
 H429 H 0.75789 0.06310 1.04906
 N430 N 0.76340 0.09871 1.01648
 C431 C 0.72871 0.11190 0.96609
 H432 H 0.72897 0.12729 0.96765
 C433 C 0.71897 0.10395 0.95081
 H434 H 0.71187 0.11345 0.94063
 C435 C 0.73784 0.08110 0.97770
 H436 H 0.74528 0.07234 0.98824
 C437 C 0.72830 0.07246 0.96241
 H438 H 0.72838 0.05700 0.96135
 Zn439 Zn 0.74916 0.11446 0.99917
 N440 N 0.73760 0.10051 0.97933
 C441 C 0.78027 0.12277 0.97500
 N442 N 0.76657 0.13142 0.98657
 C443 C 0.76612 0.15074 0.98899
 C444 C 0.78057 0.16199 0.98039
 C445 C 0.79498 0.13340 0.96625
 C446 C 0.71046 0.12380 1.00999
 C447 C 0.69544 0.13315 1.02019
 C448 C 0.71940 0.15017 1.03798
 C449 C 0.73404 0.14033 1.02750
 N450 N 0.72935 0.12773 1.01352
 H451 H 0.78012 0.10742 0.97313
 H452 H 0.75484 0.15742 0.99785
 H453 H 0.78031 0.17728 0.98288
 H454 H 0.80602 0.12606 0.95755
 H455 H 0.70693 0.11326 0.99936
 H456 H 0.68055 0.12985 1.01693
 H457 H 0.72342 0.16033 1.04887
 H458 H 0.74916 0.14284 1.03043
 C459 C 0.71851 0.08398 0.94885
 C460 C 0.78446 0.07892 1.04436
 C461 C 0.69977 0.14668 1.03428
 C462 C 0.79550 0.15325 0.96919
 C463 C 0.25250 0.58488 0.53200
 H464 H 0.23731 0.58179 0.53010
 C465 C 0.26303 0.57531 0.54638
 H466 H 0.25583 0.56478 0.55541
 C467 C 0.28006 0.60301 0.52318
 H468 H 0.28660 0.61424 0.51465
 C469 C 0.29106 0.59385 0.53724
 H470 H 0.30599 0.59802 0.53895
 N471 N 0.26113 0.59848 0.52079
 C472 C 0.22531 0.60892 0.47053
 H473 H 0.22535 0.62439 0.47128
 C474 C 0.21512 0.60003 0.45610
 H475 H 0.20745 0.60883 0.44571
 C476 C 0.23534 0.57889 0.48340
 H477 H 0.24325 0.57079 0.49414
 C478 C 0.22544 0.56931 0.46894
 H479 H 0.22571 0.55382 0.46870
 Zn480 Zn 0.24651 0.61334 0.50302
 N481 N 0.23479 0.59836 0.48404
 C482 C 0.27702 0.62108 0.47787
 N483 N 0.26350 0.63000 0.48944
 C484 C 0.26291 0.64939 0.49116
 C485 C 0.27705 0.66049 0.48183
 C486 C 0.29140 0.63155 0.46837
 C487 C 0.20784 0.62261 0.51401
 C488 C 0.19283 0.63213 0.52404
 C489 C 0.21678 0.65014 0.54083
 C490 C 0.23142 0.64011 0.53054
 N491 N 0.22672 0.62693 0.51711
 H492 H 0.27698 0.60566 0.47656
 H493 H 0.25177 0.65628 0.50003
 H494 H 0.27670 0.67585 0.48379
 H495 H 0.30229 0.62400 0.45967
 H496 H 0.20431 0.61161 0.50386
 H497 H 0.17795 0.62848 0.52113
 H498 H 0.22080 0.66075 0.55128
 H499 H 0.24654 0.64291 0.53318
 C500 C 0.21489 0.57997 0.45526
 C501 C 0.28254 0.57997 0.54928
 C502 C 0.19716 0.64624 0.53754
 C503 C 0.29179 0.65150 0.47058
 C504 C 0.76275 0.90691 0.47145
 H505 H 0.75656 0.91624 0.48245
 C506 C 0.77227 0.91471 0.45517
 H507 H 0.77339 0.93010 0.45378
 C508 C 0.76893 0.87550 0.45981
 H509 H 0.76760 0.86020 0.46179
 C510 C 0.77851 0.88258 0.44352
 H511 H 0.78441 0.87252 0.43300
 N512 N 0.76154 0.88758 0.47349
 C513 C 0.71773 0.88862 0.51609
 H514 H 0.70993 0.87796 0.50835
 C515 C 0.70808 0.89872 0.53076
 H516 H 0.69290 0.89581 0.53371
 C517 C 0.74711 0.90431 0.52244
 H518 H 0.76247 0.90600 0.51939
 C519 C 0.73798 0.91472 0.53744
 H520 H 0.74642 0.92450 0.54578
 Zn521 Zn 0.74991 0.87464 0.49462
 N522 N 0.73695 0.89138 0.51229
 C523 C 0.76489 0.84963 0.52347
 N524 N 0.76958 0.86108 0.50818
 C525 C 0.78847 0.86422 0.50310
 C526 C 0.80348 0.85551 0.51332
 C527 C 0.77952 0.84048 0.53407
 C528 C 0.73097 0.83891 0.48712
 C529 C 0.71616 0.82809 0.47928
 C530 C 0.70333 0.85689 0.46438
 C531 C 0.71836 0.86707 0.47235
 N532 N 0.73151 0.85813 0.48387
 H533 H 0.74977 0.84775 0.52756
 H534 H 0.79202 0.87384 0.49135
 H535 H 0.81837 0.85834 0.50897
 H536 H 0.77551 0.83144 0.54622
 H537 H 0.74181 0.83200 0.49598
 H538 H 0.71567 0.81288 0.48233
 H539 H 0.69283 0.86449 0.45560
 H540 H 0.71930 0.88231 0.46979
 C541 C 0.71826 0.91165 0.54200
 C542 C 0.78047 0.90242 0.44104
 C543 C 0.70189 0.83718 0.46801
 C544 C 0.79915 0.84346 0.52906
 C545 C -0.03743 0.25167 0.41064
 H546 H -0.02552 0.24738 0.41974
 C547 C -0.05384 0.26107 0.41872
 H548 H -0.05440 0.26396 0.43407
 C549 C -0.05106 0.25352 0.37952
 H550 H -0.04973 0.25075 0.36418
 C551 C -0.06762 0.26279 0.38692
 H552 H -0.07898 0.26697 0.37707
 N553 N -0.03626 0.24846 0.39128
 C554 C 0.00901 0.20802 0.39297
 H555 H 0.00161 0.19929 0.38277
 C556 C 0.02427 0.19992 0.40326
 H557 H 0.02802 0.18497 0.40099
 C558 C 0.01389 0.23820 0.40728
 H559 H 0.01006 0.25325 0.40832
 C560 C 0.02941 0.23065 0.41789
 H561 H 0.03736 0.23999 0.42717
 Zn562 Zn -0.01438 0.23776 0.37804
 N563 N 0.00418 0.22688 0.39497
 C564 C 0.01426 0.25331 0.35270
 N565 N -0.00194 0.25742 0.36362
 C566 C -0.00868 0.27575 0.36561
 C567 C 0.00087 0.29078 0.35640
 C568 C 0.02423 0.26797 0.34307
 C569 C -0.03455 0.20465 0.37088
 C570 C -0.04129 0.18914 0.36057
 C571 C -0.02681 0.20253 0.33153
 C572 C -0.02020 0.21779 0.34247
 N573 N -0.02382 0.21834 0.36186
 H574 H 0.01960 0.23868 0.35168
 H575 H -0.02125 0.27888 0.37472
 H576 H -0.00476 0.30523 0.35836
 H577 H 0.03717 0.26444 0.33456
 H578 H -0.03745 0.20560 0.38626
 H579 H -0.04947 0.17825 0.36819
 H580 H -0.02348 0.20214 0.31619
 H581 H -0.01200 0.22901 0.33549
 C582 C 0.03501 0.21132 0.41563
 C583 C -0.06909 0.26700 0.40671
 C584 C -0.03725 0.18778 0.34066
 C585 C 0.01762 0.28704 0.34501
 C586 C 1.03953 0.74985 0.08251
 H587 H 1.02763 0.74601 0.07346
 C588 C 1.05531 0.75986 0.07458
 H589 H 1.05542 0.76363 0.05938
 C590 C 1.05359 0.75033 0.11346
 H591 H 1.05259 0.74694 0.12871
 C592 C 1.06952 0.76020 0.10620
 H593 H 1.08079 0.76408 0.11605
 N594 N 1.03881 0.74577 0.10176
 C595 C 0.99397 0.70611 0.10177
 H596 H 1.00143 0.69753 0.11238
 C597 C 0.97866 0.69815 0.09199
 H598 H 0.97497 0.68342 0.09503
 C599 C 0.98887 0.73590 0.08597
 H600 H 0.99257 0.75080 0.08420
 C601 C 0.97334 0.72846 0.07580
 H602 H 0.96528 0.73770 0.06610
 Zn603 Zn 1.01722 0.73551 0.11528
 N604 N 0.99870 0.72472 0.09881
 C605 C 0.98858 0.75210 0.14054
 N606 N 1.00455 0.75565 0.12925
 C607 C 1.01100 0.77379 0.12664
 C608 C 1.00146 0.78918 0.13566
 C609 C 0.97862 0.76714 0.14997
 C610 C 1.03786 0.70199 0.12323
 C611 C 1.04508 0.68660 0.13399
 C612 C 1.03116 0.70116 0.16280
 C613 C 1.02402 0.71624 0.15141
 N614 N 1.02717 0.71618 0.13194
 H615 H 0.98347 0.73761 0.14206
 H616 H 1.02337 0.77650 0.11724
 H617 H 1.00690 0.80345 0.13324
 H618 H 0.96591 0.76405 0.15886
 H619 H 1.04038 0.70245 0.10776
 H620 H 1.05324 0.67531 0.12663
 H621 H 1.02825 0.70127 0.17823
 H622 H 1.01585 0.72786 0.15812
 C623 C 0.96782 0.70942 0.07911
 C624 C 1.07034 0.76556 0.08663
 C625 C 1.04160 0.68592 0.15403
 C626 C 0.98501 0.78601 0.14748
 C627 C 0.51810 0.27570 0.59106
 H628 H 0.50382 0.28119 0.59522
 C629 C 0.53076 0.28715 0.58026
 H630 H 0.52606 0.30141 0.57597
 C631 C 0.54201 0.25089 0.59266
 H632 H 0.54660 0.23704 0.59806
 C633 C 0.55496 0.26168 0.58149
 H634 H 0.56941 0.25592 0.57837
 N635 N 0.52406 0.25814 0.59743
 C636 C 0.47707 0.22085 0.61485
 H637 H 0.48153 0.21798 0.62949
 C638 C 0.46111 0.21156 0.60755
 H639 H 0.45341 0.20155 0.61678
 C640 C 0.48181 0.23760 0.58530
 H641 H 0.48998 0.24779 0.57675
 C642 C 0.46580 0.22864 0.57739
 H643 H 0.46174 0.23207 0.56272
 Zn644 Zn 0.50791 0.24558 0.61576
 N645 N 0.48693 0.23371 0.60380
 C646 C 0.47880 0.26543 0.63770
 N647 N 0.49815 0.26436 0.63331
 C648 C 0.51056 0.27762 0.63996
 C649 C 0.50352 0.29301 0.65105
 C650 C 0.47121 0.28034 0.64903
 C651 C 0.52683 0.20998 0.61902
 C652 C 0.53574 0.19447 0.62834
 C653 C 0.53479 0.21265 0.65794
 C654 C 0.52584 0.22780 0.64804
 N655 N 0.52203 0.22619 0.62893
 H656 H 0.46908 0.25497 0.63209
 H657 H 0.52587 0.27656 0.63610
 H658 H 0.51354 0.30366 0.65587
 H659 H 0.45571 0.28106 0.65207
 H660 H 0.52333 0.20896 0.60390
 H661 H 0.53922 0.18164 0.62019
 H662 H 0.53749 0.21415 0.67320
 H663 H 0.52163 0.24071 0.65571
 C664 C 0.45515 0.21550 0.58863
 C665 C 0.54957 0.28027 0.57566
 C666 C 0.53969 0.19561 0.64813
 C667 C 0.48356 0.29457 0.65557
 C668 C 0.47156 0.76293 0.91174
 H669 H 0.48340 0.75751 0.92035
 C670 C 0.45606 0.77310 0.92058
 H671 H 0.45612 0.77549 0.93601
 C672 C 0.45723 0.76682 0.88109
 H673 H 0.45794 0.76450 0.86566
 C674 C 0.44161 0.77703 0.88924
 H675 H 0.43028 0.78235 0.87988
 N676 N 0.47201 0.76042 0.89225
 C677 C 0.51620 0.71879 0.89198
 H678 H 0.50835 0.71030 0.88192
 C679 C 0.53153 0.71031 0.90189
 H680 H 0.53491 0.69531 0.89946
 C681 C 0.52207 0.74876 0.90634
 H682 H 0.51855 0.76386 0.90758
 C683 C 0.53766 0.74082 0.91656
 H684 H 0.54600 0.74994 0.92573
 Zn685 Zn 0.49290 0.74910 0.87807
 N686 N 0.51181 0.73771 0.89422
 C687 C 0.52057 0.76395 0.85111
 N688 N 0.50532 0.76845 0.86319
 C689 C 0.49959 0.78698 0.86602
 C690 C 0.50910 0.80180 0.85643
 C691 C 0.53047 0.77839 0.84107
 C692 C 0.47153 0.71662 0.87207
 C693 C 0.46375 0.70131 0.86223
 C694 C 0.47684 0.71436 0.83240
 C695 C 0.48452 0.72942 0.84288
 N696 N 0.48208 0.73002 0.86243
 H697 H 0.52519 0.74915 0.84945
 H698 H 0.48788 0.79044 0.87610
 H699 H 0.50425 0.81640 0.85907
 H700 H 0.54262 0.77454 0.83159
 H701 H 0.46958 0.71762 0.88758
 H702 H 0.45575 0.69063 0.87033
 H703 H 0.47923 0.71390 0.81690
 H704 H 0.49258 0.74044 0.83543
 C705 C 0.54276 0.72140 0.91409
 C706 C 0.44104 0.78065 0.90917
 C707 C 0.46655 0.69988 0.84214
 C708 C 0.52482 0.79765 0.84380
 C709 C 0.45567 -0.16340 0.35976
 N710 N 0.44210 -0.17186 0.37126
 N711 N 0.44551 -0.18903 0.37898
 C712 C 0.46264 -0.19850 0.37557
 N713 N 0.47636 -0.18990 0.36425
 N714 N 0.47294 -0.17267 0.35646
 C715 C 0.45098 -0.14505 0.35032
 N716 N 0.46364 -0.13658 0.33774
 N717 N 0.45856 -0.12052 0.32842
 C718 C 0.44062 -0.11243 0.33134
 N719 N 0.42810 -0.12083 0.34404
 N720 N 0.43318 -0.13680 0.35334
 C721 C 0.43410 -0.09550 0.32039
 N722 N 0.41528 -0.08954 0.32208
 N723 N 0.40873 -0.07476 0.31177
 C724 C 0.42069 -0.06525 0.29936
 N725 N 0.43964 -0.07106 0.29779
 N726 N 0.44622 -0.08599 0.30808
 C727 C 0.95221 0.33731 0.85316
 N728 N 0.97068 0.33011 0.85223
 N729 N 0.97523 0.31369 0.86115
 C730 C 0.96148 0.30380 0.87128
 N731 N 0.94312 0.31129 0.87234
 N732 N 0.93858 0.32765 0.86349
 C733 C 0.94642 0.35464 0.84248
 N734 N 0.92752 0.36053 0.84304
 N735 N 0.92164 0.37557 0.83273
 C736 C 0.93440 0.38536 0.82144
 N737 N 0.95340 0.37963 0.82095
 N738 N 0.95931 0.36449 0.83128
 C739 C 0.92726 0.40144 0.80964
 N740 N 0.93950 0.41249 0.79892
 N741 N 0.93251 0.42689 0.78818
 C742 C 0.91304 0.43065 0.78769
 N743 N 0.90094 0.41954 0.79844
 N744 N 0.90789 0.40526 0.80919
 C745 C 0.03897 1.17099 0.85019
 N746 N 0.05302 1.17919 0.86060
 N747 N 0.04988 1.19609 0.86894
 C748 C 0.03249 1.20547 0.86742
 N749 N 0.01836 1.19712 0.85708
 N750 N 0.02156 1.18025 0.84854
 C751 C 0.04288 1.15245 0.84091
 N752 N 0.03145 1.14594 0.82668
 N753 N 0.03572 1.12936 0.81793
 C754 C 0.05144 1.11868 0.82328
 N755 N 0.06268 1.12515 0.83762
 N756 N 0.05854 1.14174 0.84621
 C757 C 0.05688 1.10068 0.81358
 N758 N 0.07092 1.08927 0.82121
 N759 N 0.07699 1.07347 0.81216
 C760 C 0.06940 1.06843 0.79503
 N761 N 0.05519 1.07980 0.78741
 N762 N 0.04900 1.09563 0.79655
 C763 C 0.53355 0.66367 0.35083
 N764 N 0.54513 0.66829 0.36567
 N765 N 0.54266 0.68494 0.37476
 C766 C 0.52842 0.69752 0.36947
 N767 N 0.51670 0.69276 0.35476
 N768 N 0.51928 0.67620 0.34555
 C769 C 0.53707 0.64589 0.34003
 N770 N 0.52945 0.64366 0.32227
 N771 N 0.53368 0.62807 0.31190
 C772 C 0.54550 0.61406 0.31901
 N773 N 0.55289 0.61616 0.33688
 N774 N 0.54881 0.63183 0.34718
 C775 C 0.55140 0.59760 0.30703
 N776 N 0.56065 0.58222 0.31496
 N777 N 0.56742 0.56798 0.30387
 C778 C 0.56537 0.56865 0.28440
 N779 N 0.55593 0.58396 0.27651
 N780 N 0.54899 0.59812 0.28762
 C781 C 0.54634 0.33888 0.15173
 N782 N 0.52872 0.33119 0.15577
 N783 N 0.52460 0.31372 0.14956
 C784 C 0.53797 0.30327 0.13916
 N785 N 0.55550 0.31109 0.13508
 N786 N 0.55960 0.32853 0.14122
 C787 C 0.55147 0.35777 0.15904
 N788 N 0.56911 0.36509 0.15448
 N789 N 0.57434 0.38183 0.16157
 C790 C 0.56214 0.39191 0.17353
 N791 N 0.54441 0.38467 0.17804
 N792 N 0.53916 0.36789 0.17090
 C793 C 0.56854 0.40995 0.18186
 N794 N 0.55704 0.42003 0.19450
 N795 N 0.56341 0.43599 0.20250
 C796 C 0.58152 0.44246 0.19817
 N797 N 0.59288 0.43238 0.18541
 N798 N 0.58653 0.41647 0.17743
 C799 C 0.04254 0.83529 0.65925
 N800 N 0.02414 0.82860 0.66015
 N801 N 0.02018 0.81150 0.65288
 C802 C 0.03446 0.80039 0.64452
 N803 N 0.05280 0.80727 0.64362
 N804 N 0.05674 0.82433 0.65080
 C805 C 0.04748 0.85378 0.66761
 N806 N 0.06602 0.85992 0.66600
 N807 N 0.07109 0.87627 0.67401
 C808 C 0.05784 0.88716 0.68398
 N809 N 0.03920 0.88113 0.68554
 N810 N 0.03410 0.86471 0.67747
 C811 C 0.06416 0.90473 0.69330
 N812 N 0.05166 0.91611 0.70373
 N813 N 0.05804 0.93167 0.71255
 C814 C 0.07714 0.93633 0.71130
 N815 N 0.08947 0.92494 0.70076
 N816 N 0.08314 0.90949 0.69196
 C817 C 0.95610 0.66712 0.66000
 N818 N 0.97137 0.67715 0.66641
 N819 N 0.97477 0.69470 0.65962
 C820 C 0.96291 0.70292 0.64633
 N821 N 0.94767 0.69283 0.63997
 N822 N 0.94437 0.67526 0.64663
 C823 C 0.95186 0.64796 0.66756
 N824 N 0.93840 0.63721 0.65888
 N825 N 0.93375 0.62014 0.66601
 C826 C 0.94229 0.61320 0.68216
 N827 N 0.95585 0.62389 0.69084
 N828 N 0.96061 0.64096 0.68361
 C829 C 0.93601 0.59489 0.69043
 N830 N 0.94151 0.58908 0.70829
 N831 N 0.93446 0.57309 0.71615
 C832 C 0.92170 0.56231 0.70639
 N833 N 0.91651 0.56806 0.68842
 N834 N 0.92348 0.58402 0.68062
 C835 C 0.45962 0.17022 0.16390
 N836 N 0.47521 0.18048 0.16913
 N837 N 0.47852 0.19758 0.16117
 C838 C 0.46627 0.20510 0.14782
 N839 N 0.45071 0.19479 0.14266
 N840 N 0.44749 0.17767 0.15049
 C841 C 0.45558 0.15147 0.17262
 N842 N 0.44183 0.14031 0.16495
 N843 N 0.43750 0.12355 0.17299
 C844 C 0.44665 0.11732 0.18908
 N845 N 0.46048 0.12843 0.19678
 N846 N 0.46492 0.14520 0.18864
 C847 C 0.44090 0.09919 0.19817
 N848 N 0.44704 0.09397 0.21600
 N849 N 0.44056 0.07803 0.22448
 C850 C 0.42778 0.06671 0.21540
 N851 N 0.42193 0.07191 0.19747
 N852 N 0.42831 0.08780 0.18906
 C853 C 0.35327 0.45323 -0.16844
 N854 N 0.36287 0.43934 -0.17858
 N855 N 0.37166 0.44330 -0.19536
 C856 C 0.37130 0.46133 -0.20281
 N857 N 0.36176 0.47533 -0.19253
 N858 N 0.35288 0.47135 -0.17567
 C859 C 0.34316 0.44814 -0.15028
 N860 N 0.33258 0.46119 -0.13978
 N861 N 0.32303 0.45588 -0.12367
 C862 C 0.32377 0.43734 -0.11757
 N863 N 0.33444 0.42443 -0.12804
 N864 N 0.34393 0.42971 -0.14405
 C865 C 0.31292 0.43073 -0.10037
 N866 N 0.31312 0.41180 -0.09605
 N867 N 0.30313 0.40519 -0.08088
 C868 C 0.29252 0.41721 -0.06931
 N869 N 0.29240 0.43627 -0.07351
 N870 N 0.30239 0.44292 -0.08882
 C871 C 0.85069 0.94324 0.32305
 N872 N 0.85924 0.92906 0.31245
 N873 N 0.86791 0.93287 0.29557
 C874 C 0.86844 0.95103 0.28848
 N875 N 0.85994 0.96529 0.29921
 N876 N 0.85120 0.96148 0.31617
 C877 C 0.84074 0.93842 0.34135
 N878 N 0.83130 0.95191 0.35231
 N879 N 0.82193 0.94694 0.36863
 C880 C 0.82169 0.92833 0.37447
 N881 N 0.83119 0.91497 0.36352
 N882 N 0.84052 0.91991 0.34731
 C883 C 0.81111 0.92222 0.39201
 N884 N 0.81060 0.90332 0.39643
 N885 N 0.80089 0.89723 0.41200
 C886 C 0.79127 0.90974 0.42387
 N887 N 0.79184 0.92875 0.41951
 N888 N 0.80156 0.93488 0.40383
 C889 C 0.85456 0.03117 1.15756
 N890 N 0.85230 0.01368 1.16587
 N891 N 0.86087 0.00940 1.18250
 C892 C 0.87184 0.02249 1.19158
 N893 N 0.87406 0.03993 1.18309
 N894 N 0.86568 0.04414 1.16642
 C895 C 0.84485 0.03644 1.13957
 N896 N 0.85004 0.05260 1.12999
 N897 N 0.84084 0.05813 1.11415
 C898 C 0.82598 0.04782 1.10733
 N899 N 0.82078 0.03158 1.11685
 N900 N 0.83011 0.02594 1.13267
 C901 C 0.81549 0.05481 1.09036
 N902 N 0.79839 0.04716 1.08512
 N903 N 0.78856 0.05455 1.07032
 C904 C 0.79553 0.06979 1.06020
 N905 N 0.81273 0.07720 1.06541
 N906 N 0.82248 0.06991 1.08019
 C907 C 0.35420 0.53704 0.66342
 N908 N 0.36803 0.54890 0.66982
 N909 N 0.37655 0.54558 0.68663
 C910 C 0.37169 0.53019 0.69766
 N911 N 0.35800 0.51818 0.69112
 N912 N 0.34936 0.52158 0.67435
 C913 C 0.34424 0.54146 0.64533
 N914 N 0.32793 0.53213 0.64042
 N915 N 0.31842 0.53704 0.62448
 C916 C 0.32496 0.55139 0.61287
 N917 N 0.34137 0.56054 0.61771
 N918 N 0.35079 0.55571 0.63365
 C919 C 0.31421 0.55770 0.59579
 N920 N 0.32179 0.57129 0.58395
 N921 N 0.31183 0.57799 0.56903
 C922 C 0.29384 0.57145 0.56531
 N923 N 0.28629 0.55769 0.57710
 N924 N 0.29630 0.55092 0.59205
 C925 C 0.14462 0.52848 0.34586
 N926 N 0.14969 0.51181 0.33691
 N927 N 0.14242 0.50762 0.31976
 C928 C 0.12990 0.51998 0.31089
 N929 N 0.12469 0.53647 0.32005
 N930 N 0.13188 0.54063 0.33717
 C931 C 0.15362 0.53419 0.36393
 N932 N 0.14878 0.55139 0.37182
 N933 N 0.15779 0.55756 0.38732
 C934 C 0.17199 0.54679 0.39559
 N935 N 0.17672 0.52943 0.38789
 N936 N 0.16769 0.52323 0.37230
 C937 C 0.18268 0.55465 0.41178
 N938 N 0.19662 0.54427 0.42102
 N939 N 0.20675 0.55212 0.43507
 C940 C 0.20339 0.57066 0.44026
 N941 N 0.18935 0.58087 0.43107
 N942 N 0.17920 0.57303 0.41715
 C943 C 0.65156 0.03801 0.83461
 N944 N 0.64208 0.05164 0.82424
 N945 N 0.63473 0.04758 0.80719
 C946 C 0.63647 0.02969 0.79970
 N947 N 0.64580 0.01593 0.81025
 N948 N 0.65326 0.02002 0.82735
 C949 C 0.66036 0.04327 0.85291
 N950 N 0.67170 0.03075 0.86299
 N951 N 0.68037 0.03630 0.87905
 C952 C 0.67798 0.05455 0.88552
 N953 N 0.66652 0.06691 0.87550
 N954 N 0.65790 0.06139 0.85953
 C955 C 0.68811 0.06148 0.90249
 N956 N 0.68618 0.08018 0.90737
 N957 N 0.69575 0.08712 0.92216
 C958 C 0.70767 0.07568 0.93275
 N959 N 0.70949 0.05685 0.92799
 N960 N 0.69992 0.04988 0.91308
 C961 C 0.65736 0.95311 0.66457
 N962 N 0.64371 0.94136 0.67222
 N963 N 0.63612 0.94455 0.68977
 C964 C 0.64178 0.95970 0.70032
 N965 N 0.65535 0.97156 0.69259
 N966 N 0.66308 0.96828 0.67507
 C967 C 0.66590 0.94905 0.64539
 N968 N 0.68224 0.95790 0.63893
 N969 N 0.69029 0.95339 0.62181
 C970 C 0.68217 0.93999 0.61053
 N971 N 0.66576 0.93134 0.61695
 N972 N 0.65781 0.93573 0.63406
 C973 C 0.69124 0.93407 0.59208
 N974 N 0.68184 0.92183 0.58057
 N975 N 0.69029 0.91523 0.56445
 C976 C 0.70854 0.92051 0.55914
 N977 N 0.71790 0.93297 0.57056
 N978 N 0.70939 0.93967 0.58673
 C979 C 0.15674 0.44655 0.17385
 N980 N 0.16161 0.46173 0.18477
 N981 N 0.15331 0.46445 0.20215
 C982 C 0.13997 0.45201 0.20931
 N983 N 0.13518 0.43684 0.19834
 N984 N 0.14335 0.43421 0.18094
 C985 C 0.16572 0.44326 0.15470
 N986 N 0.15832 0.42994 0.14290
 N987 N 0.16652 0.42641 0.12569
 C988 C 0.18253 0.43598 0.11964
 N989 N 0.18998 0.44936 0.13140
 N990 N 0.18166 0.45299 0.14862
 C991 C 0.19175 0.43121 0.10091
 N992 N 0.20959 0.43777 0.09571
 N993 N 0.21818 0.43224 0.07913
 C994 C 0.20919 0.42004 0.06712
 N995 N 0.19126 0.41377 0.07232
 N996 N 0.18274 0.41920 0.08885
 C997 C -0.17983 0.34904 0.44849
 N998 N -0.19031 0.35719 0.43416
 N999 N -0.20544 0.36868 0.43823
 C1000 C -0.21082 0.37250 0.45680
 N1001 N -0.20029 0.36434 0.47122
 N1002 N -0.18504 0.35284 0.46714
 C1003 C -0.16340 0.33615 0.44346
 N1004 N -0.15136 0.32878 0.45706
 N1005 N -0.13647 0.31721 0.45196
 C1006 C -0.13321 0.31257 0.43311
 N1007 N -0.14530 0.31991 0.41962
 N1008 N -0.16007 0.33148 0.42468
 C1009 C -0.11683 0.30010 0.42692
 N1010 N -0.11494 0.29521 0.40806
 N1011 N -0.09995 0.28448 0.40186
 C1012 C -0.08615 0.27817 0.41423
 N1013 N -0.08809 0.28297 0.43321
 N1014 N -0.10317 0.29373 0.43945
 C1015 C 0.33362 0.86344 0.95724
 N1016 N 0.32644 0.86314 0.97566
 N1017 N 0.31014 0.87287 0.98033
 C1018 C 0.30038 0.88323 0.96676
 N1019 N 0.30788 0.88366 0.94845
 N1020 N 0.32411 0.87399 0.94380
 C1021 C 0.35067 0.85180 0.95131
 N1022 N 0.35618 0.85137 0.93240
 N1023 N 0.37092 0.84020 0.92641
 C1024 C 0.38078 0.82901 0.93909
 N1025 N 0.37544 0.82951 0.95810
 N1026 N 0.36058 0.84069 0.96411
 C1027 C 0.39651 0.81633 0.93185
 N1028 N 0.40805 0.80604 0.94395
 N1029 N 0.42222 0.79460 0.93687
 C1030 C 0.42524 0.79295 0.91745
 N1031 N 0.41362 0.80325 0.90549
 N1032 N 0.39958 0.81470 0.91253
 C1033 C 1.17386 0.85376 0.04706
 N1034 N 1.18281 0.86306 0.06141
 N1035 N 1.19784 0.87422 0.05752
 C1036 C 1.20467 0.87657 0.03911
 N1037 N 1.19550 0.86739 0.02469
 N1038 N 1.18038 0.85622 0.02858
 C1039 C 1.15800 0.84069 0.05191
 N1040 N 1.14793 0.83174 0.03802
 N1041 N 1.13392 0.81952 0.04286
 C1042 C 1.12964 0.81578 0.06175
 N1043 N 1.13971 0.82477 0.07554
 N1044 N 1.15359 0.83699 0.07072
 C1045 C 1.11451 0.80225 0.06760
 N1046 N 1.11233 0.79752 0.08652
 N1047 N 1.09852 0.78564 0.09234
 C1048 C 1.08624 0.77797 0.07953
 N1049 N 1.08845 0.78265 0.06051
 N1050 N 1.10238 0.79454 0.05463
 C1051 C 0.65704 0.36107 0.53241
 N1052 N 0.66924 0.35614 0.51754
 N1053 N 0.68564 0.36559 0.51434
 C1054 C 0.69056 0.38021 0.52600
 N1055 N 0.67829 0.38518 0.54085
 N1056 N 0.66179 0.37584 0.54394
 C1057 C 0.63957 0.34991 0.53660
 N1058 N 0.62556 0.35660 0.54905
 N1059 N 0.61023 0.34599 0.55362
 C1060 C 0.60844 0.32825 0.54604
 N1061 N 0.62240 0.32160 0.53352
 N1062 N 0.63764 0.33228 0.52881
 C1063 C 0.59236 0.31600 0.55227
 N1064 N 0.59350 0.29679 0.54949
 N1065 N 0.57966 0.28545 0.55649
 C1066 C 0.56403 0.29291 0.56636
 N1067 N 0.56275 0.31217 0.56882
 N1068 N 0.57669 0.32349 0.56199
 C1069 C 0.33292 0.15952 0.54709
 N1070 N 0.32485 0.16320 0.52969
 N1071 N 0.30725 0.15674 0.52577
 C1072 C 0.29705 0.14644 0.53914
 N1073 N 0.30525 0.14274 0.55646
 N1074 N 0.32282 0.14913 0.56035
 C1075 C 0.35201 0.16697 0.55196
 N1076 N 0.35982 0.16248 0.56928
 N1077 N 0.37675 0.16963 0.57428
 C1078 C 0.38654 0.18157 0.56219
 N1079 N 0.37881 0.18602 0.54479
 N1080 N 0.36184 0.17882 0.53975
 C1081 C 0.40479 0.18993 0.56839
 N1082 N 0.41453 0.20270 0.55713
 N1083 N 0.43068 0.21069 0.56339
 C1084 C 0.43767 0.20621 0.58112
 N1085 N 0.42792 0.19333 0.59223
 N1086 N 0.41183 0.18536 0.58600
 C1087 C 0.84244 0.66129 0.03705
 N1088 N 0.83426 0.66506 0.01972
 N1089 N 0.81649 0.65890 0.01602
 C1090 C 0.80612 0.64893 0.02955
 N1091 N 0.81443 0.64529 0.04686
 N1092 N 0.83222 0.65125 0.05050
 C1093 C 0.86194 0.66792 0.04152
 N1094 N 0.87121 0.66059 0.05707
 N1095 N 0.88863 0.66679 0.06176
 C1096 C 0.89742 0.68068 0.05118
 N1097 N 0.88819 0.68807 0.03556
 N1098 N 0.87077 0.68172 0.03076
 C1099 C 0.91629 0.68779 0.05719
 N1100 N 0.92368 0.70429 0.04989
 N1101 N 0.94026 0.71109 0.05652
 C1102 C 0.95008 0.70158 0.07060
 N1103 N 0.94271 0.68499 0.07764
 N1104 N 0.92616 0.67827 0.07113
 C1105 C 0.66859 0.66831 0.95455
 N1106 N 0.67907 0.67493 0.96942
 N1107 N 0.69707 0.66823 0.97235
 C1108 C 0.70528 0.65484 0.96039
 N1109 N 0.69473 0.64829 0.94556
 N1110 N 0.67673 0.65484 0.94273
 C1111 C 0.64889 0.67567 0.95084
 N1112 N 0.63772 0.66662 0.93797
 N1113 N 0.62015 0.67351 0.93377
 C1114 C 0.61311 0.68978 0.94216
 N1115 N 0.62423 0.69884 0.95513
 N1116 N 0.64181 0.69185 0.95945
 C1117 C 0.59419 0.69770 0.93635
 N1118 N 0.58817 0.71560 0.94158
 N1119 N 0.57159 0.72306 0.93492
 C1120 C 0.56041 0.71287 0.92286
 N1121 N 0.56640 0.69489 0.91795
 N1122 N 0.58294 0.68748 0.92451
 C1123 C 0.16054 0.16045 0.45988
 N1124 N 0.17034 0.16729 0.47512
 N1125 N 0.18825 0.16080 0.47881
 C1126 C 0.19708 0.14739 0.46728
 N1127 N 0.18721 0.14062 0.45207
 N1128 N 0.16929 0.14697 0.44849
 C1129 C 0.14094 0.16759 0.45536
 N1130 N 0.13041 0.15840 0.44206
 N1131 N 0.11292 0.16504 0.43722
 C1132 C 0.10531 0.18119 0.44540
 N1133 N 0.11579 0.19039 0.45878
 N1134 N 0.13329 0.18366 0.46374
 C1135 C 0.08644 0.18876 0.43903
 N1136 N 0.07985 0.20651 0.44417
 N1137 N 0.06329 0.21361 0.43713
 C1138 C 0.05267 0.20320 0.42476
 N1139 N 0.05922 0.18538 0.41991
 N1140 N 0.07575 0.17832 0.42686
 C1141 C 0.59219 0.08423 0.71933
 N1142 N 0.59688 0.08629 0.73811
 N1143 N 0.60389 0.07151 0.74818
 C1144 C 0.60649 0.05403 0.73993
 N1145 N 0.60172 0.05197 0.72110
 N1146 N 0.59471 0.06678 0.71099
 C1147 C 0.58461 0.10073 0.70838
 N1148 N 0.58026 0.09919 0.68942
 N1149 N 0.57343 0.11431 0.67964
 C1150 C 0.57071 0.13149 0.68849
 N1151 N 0.57506 0.13300 0.70743
 N1152 N 0.58189 0.11792 0.71718
 C1153 C 0.56302 0.14817 0.67787
 N1154 N 0.55977 0.16508 0.68703
 N1155 N 0.55252 0.18017 0.67756
 C1156 C 0.54827 0.17896 0.65853
 N1157 N 0.55162 0.16201 0.64938
 N1158 N 0.55885 0.14691 0.65886
 C1159 C 1.08801 0.57461 0.22932
 N1160 N 1.09082 0.55722 0.22096
 N1161 N 1.09762 0.54238 0.23117
 C1162 C 1.10199 0.54435 0.25013
 N1163 N 1.09910 0.56182 0.25838
 N1164 N 1.09223 0.57661 0.24823
 C1165 C 1.08074 0.59109 0.21813
 N1166 N 1.07622 0.60790 0.22704
 N1167 N 1.06985 0.62296 0.21693
 C1168 C 1.06785 0.62179 0.19751
 N1169 N 1.07237 0.60497 0.18859
 N1170 N 1.07866 0.58988 0.19872
 C1171 C 1.06104 0.63846 0.18631
 N1172 N 1.06111 0.63792 0.16673
 N1173 N 1.05503 0.65303 0.15654
 C1174 C 1.04858 0.66927 0.16550
 N1175 N 1.04848 0.66976 0.18512
 N1176 N 1.05465 0.65467 0.19533
 C1177 C 0.91882 0.89591 0.21071
 N1178 N 0.90693 0.89307 0.22629
 N1179 N 0.89897 0.90788 0.23576
 C1180 C 0.90250 0.92614 0.23002
 N1181 N 0.91430 0.92897 0.21431
 N1182 N 0.92234 0.91413 0.20486
 C1183 C 0.92805 0.87950 0.20072
 N1184 N 0.94132 0.88219 0.18622
 N1185 N 0.95005 0.86726 0.17757
 C1186 C 0.94579 0.84909 0.18306
 N1187 N 0.93244 0.84640 0.19749
 N1188 N 0.92376 0.86133 0.20618
 C1189 C 0.95572 0.83267 0.17374
 N1190 N 0.95087 0.81444 0.17845
 N1191 N 0.96009 0.79960 0.17011
 C1192 C 0.97457 0.80241 0.15679
 N1193 N 0.97936 0.82067 0.15212
 N1194 N 0.97012 0.83549 0.16040
 C1195 C 0.42433 0.40653 0.72128
 N1196 N 0.42988 0.42468 0.71713
 N1197 N 0.42141 0.43955 0.72616
 C1198 C 0.40718 0.43681 0.73977
 N1199 N 0.40168 0.41863 0.74383
 N1200 N 0.41002 0.40380 0.73472
 C1201 C 0.43361 0.38997 0.71160
 N1202 N 0.42589 0.37233 0.71376
 N1203 N 0.43421 0.35718 0.70517
 C1204 C 0.45066 0.35904 0.69423
 N1205 N 0.45846 0.37667 0.69210
 N1206 N 0.45005 0.39188 0.70060
 C1207 C 0.45958 0.34225 0.68465
 N1208 N 0.47743 0.34316 0.67598
 N1209 N 0.48524 0.32791 0.66705
 C1210 C 0.47544 0.31123 0.66634
 N1211 N 0.45761 0.31037 0.67507
 N1212 N 0.44987 0.32555 0.68411
 C1213 C 0.41833 0.58749 0.77395
 N1214 N 0.41472 0.57095 0.78367
 N1215 N 0.40781 0.55587 0.77453
 C1216 C 0.40414 0.55678 0.75533
 N1217 N 0.40780 0.57335 0.74566
 N1218 N 0.41478 0.58839 0.75477
 C1219 C 0.42572 0.60422 0.78402
 N1220 N 0.43077 0.62020 0.77398
 N1221 N 0.43731 0.63545 0.78310
 C1222 C 0.43895 0.63532 0.80261
 N1223 N 0.43389 0.61934 0.81264
 N1224 N 0.42743 0.60406 0.80352
 C1225 C 0.44601 0.65216 0.81274
 N1226 N 0.44592 0.65256 0.83233
 N1227 N 0.45232 0.66777 0.84159
 C1228 C 0.45912 0.68318 0.83167
 N1229 N 0.45921 0.68274 0.81204
 N1230 N 0.45274 0.66755 0.80276
 C1231 C -0.08026 0.07538 0.26897
 N1232 N -0.08496 0.05888 0.27828
 N1233 N -0.09200 0.04420 0.26857
 C1234 C -0.09470 0.04551 0.24921
 N1235 N -0.08987 0.06202 0.23996
 N1236 N -0.08277 0.07664 0.24963
 C1237 C -0.07312 0.09186 0.27964
 N1238 N -0.06740 0.10787 0.27004
 N1239 N -0.06142 0.12304 0.27967
 C1240 C -0.06104 0.12280 0.29927
 N1241 N -0.06673 0.10678 0.30887
 N1242 N -0.07264 0.09157 0.29923
 C1243 C -0.05482 0.13967 0.30992
 N1244 N -0.05618 0.14004 0.32949
 N1245 N -0.05070 0.15535 0.33918
 C1246 C -0.04359 0.17091 0.32972
 N1247 N -0.04221 0.17050 0.31012
 N1248 N -0.04776 0.15519 0.30040
 C1249 C 0.08657 0.39492 0.28426
 N1250 N 0.09852 0.39220 0.26863
 N1251 N 0.10708 0.40700 0.25999
 C1252 C 0.10411 0.42511 0.26665
 N1253 N 0.09222 0.42777 0.28238
 N1254 N 0.08360 0.41298 0.29099
 C1255 C 0.07673 0.37866 0.29349
 N1256 N 0.06341 0.38161 0.30796
 N1257 N 0.05420 0.36692 0.31611
 C1258 C 0.05801 0.34873 0.31014
 N1259 N 0.07139 0.34576 0.29572
 N1260 N 0.08055 0.36046 0.28752
 C1261 C 0.04765 0.33263 0.31909
 N1262 N 0.05230 0.31425 0.31433
 N1263 N 0.04280 0.29974 0.32252
 C1264 C 0.02822 0.30305 0.33571
 N1265 N 0.02361 0.32147 0.34039
 N1266 N 0.03314 0.33595 0.33228
 C1267 C 0.59181 0.90431 0.77873
 N1268 N 0.60277 0.90133 0.76246
 N1269 N 0.61089 0.91597 0.75313
 C1270 C 0.60844 0.93417 0.75970
 N1271 N 0.59756 0.93709 0.77607
 N1272 N 0.58938 0.92245 0.78538
 C1273 C 0.58243 0.88820 0.78871
 N1274 N 0.57014 0.89136 0.80401
 N1275 N 0.56129 0.87682 0.81280
 C1276 C 0.56442 0.85857 0.80667
 N1277 N 0.57677 0.85539 0.79142
 N1278 N 0.58559 0.86995 0.78258
 C1279 C 0.55436 0.84264 0.81628
 N1280 N 0.55819 0.82421 0.81111
 N1281 N 0.54888 0.80987 0.81983
 C1282 C 0.53532 0.81343 0.83399
 N1283 N 0.53155 0.83191 0.83909
 N1284 N 0.54088 0.84621 0.83043
 C1285 C 0.72473 0.60398 0.08248
 N1286 N 0.71698 0.60630 0.06474
 N1287 N 0.72732 0.61408 0.05030
 C1288 C 0.74584 0.61986 0.05302
 N1289 N 0.75348 0.61750 0.07086
 N1290 N 0.74317 0.60972 0.08527
 C1291 C 0.71347 0.59534 0.09844
 N1292 N 0.72159 0.59257 0.11597
 N1293 N 0.71149 0.58465 0.13046
 C1294 C 0.69288 0.57921 0.12798
 N1295 N 0.68474 0.58199 0.11046
 N1296 N 0.69485 0.58991 0.09595
 C1297 C 0.68184 0.57032 0.14395
 N1298 N 0.66311 0.56519 0.14165
 N1299 N 0.65319 0.55696 0.15609
 C1300 C 0.66159 0.55352 0.17340
 N1301 N 0.68033 0.55871 0.17566
 N1302 N 0.69026 0.56695 0.16123
 C1303 C 0.21392 1.10339 0.59364
 N1304 N 0.20789 1.10154 0.57520
 N1305 N 0.21817 1.10886 0.56048
 C1306 C 0.23492 1.11826 0.56361
 N1307 N 0.24083 1.12015 0.58210
 N1308 N 0.23055 1.11288 0.59681
 C1309 C 0.20296 1.09484 0.60986
 N1310 N 0.20872 1.09728 0.62832
 N1311 N 0.19914 1.08908 0.64302
 C1312 C 0.18348 1.07810 0.63978
 N1313 N 0.17770 1.07571 0.62133
 N1314 N 0.18724 1.08395 0.60664
 C1315 C 0.17327 1.06851 0.65588
 N1316 N 0.15871 1.05627 0.65234
 N1317 N 0.14975 1.04714 0.66681
 C1318 C 0.15492 1.04988 0.68542
 N1319 N 0.16943 1.06225 0.68894
 N1320 N 0.17845 1.07136 0.67445
 C1321 C 0.22302 0.93339 0.91319
 N1322 N 0.21332 0.92821 0.92965
 N1323 N 0.22293 0.92102 0.94466
 C1324 C 0.24259 0.91865 0.94373
 N1325 N 0.25221 0.92400 0.92728
 N1326 N 0.24264 0.93126 0.91234
 C1327 C 0.21252 0.94057 0.89628
 N1328 N 0.22246 0.94684 0.88039
 N1329 N 0.21305 0.95281 0.86478
 C1330 C 0.19334 0.95261 0.86445
 N1331 N 0.18339 0.94637 0.88036
 N1332 N 0.19280 0.94048 0.89600
 C1333 C 0.18293 0.95889 0.84715
 N1334 N 0.16340 0.95694 0.84624
 N1335 N 0.15388 0.96265 0.83062
 C1336 C 0.16348 0.97057 0.81528
 N1337 N 0.18305 0.97251 0.81621
 N1338 N 0.19260 0.96672 0.83183
 C1339 C 0.71871 0.43205 0.40140
 N1340 N 0.71447 0.43801 0.41967
 N1341 N 0.72287 0.42954 0.43475
 C1342 C 0.73592 0.41487 0.43211
 N1343 N 0.74011 0.40899 0.41380
 N1344 N 0.73164 0.41735 0.39877
 C1345 C 0.70948 0.44110 0.38462
 N1346 N 0.71171 0.43308 0.36689
 N1347 N 0.70336 0.44105 0.35157
 C1348 C 0.69259 0.45744 0.35336
 N1349 N 0.69042 0.46555 0.37108
 N1350 N 0.69868 0.45749 0.38646
 C1351 C 0.68318 0.46590 0.33639
 N1352 N 0.67458 0.48354 0.33720
 N1353 N 0.66577 0.49092 0.32180
 C1354 C 0.66513 0.48090 0.30506
 N1355 N 0.67380 0.46328 0.30431
 N1356 N 0.68271 0.45596 0.31964
 C1357 C 0.76621 0.42721 0.58441
 N1358 N 0.74686 0.42382 0.58544
 N1359 N 0.73772 0.41708 0.57020
 C1360 C 0.74754 0.41354 0.55332
 N1361 N 0.76689 0.41706 0.55231
 N1362 N 0.77605 0.42373 0.56756
 C1363 C 0.77643 0.43423 0.60131
 N1364 N 0.79609 0.43559 0.60082
 N1365 N 0.80546 0.44169 0.61618
 C1366 C 0.79554 0.44672 0.63259
 N1367 N 0.77586 0.44543 0.63308
 N1368 N 0.76648 0.43925 0.61772
 C1369 C 0.80604 0.45336 0.64947
 N1370 N 0.79634 0.46029 0.66531
 N1371 N 0.80604 0.46644 0.68048
 C1372 C 0.82580 0.46578 0.68043
 N1373 N 0.83542 0.45878 0.66457
 N1374 N 0.82575 0.45272 0.64940
 C1375 C 0.27701 -0.07084 0.09481
 N1376 N 0.25793 -0.07532 0.09623
 N1377 N 0.24890 -0.08257 0.08119
 C1378 C 0.25853 -0.08556 0.06410
 N1379 N 0.27760 -0.08091 0.06267
 N1380 N 0.28668 -0.07374 0.07775
 C1381 C 0.28708 -0.06338 0.11161
 N1382 N 0.30665 -0.06127 0.11105
 N1383 N 0.31583 -0.05495 0.12645
 C1384 C 0.30577 -0.05044 0.14294
 N1385 N 0.28618 -0.05245 0.14347
 N1386 N 0.27701 -0.05886 0.12810
 C1387 C 0.31601 -0.04368 0.15994
 N1388 N 0.30602 -0.03719 0.17579
 N1389 N 0.31542 -0.03103 0.19114
 C1390 C 0.33518 -0.03124 0.19126
 N1391 N 0.34510 -0.03780 0.17538
 N1392 N 0.33572 -0.04387 0.16003
 C1393 C 0.27999 0.10175 0.41260
 N1394 N 0.26322 0.11167 0.40941
 N1395 N 0.25303 0.11935 0.42408
 C1396 C 0.25919 0.11747 0.44253
 N1397 N 0.27608 0.10763 0.44567
 N1398 N 0.28626 0.09989 0.43100
 C1399 C 0.29089 0.09281 0.39643
 N1400 N 0.30675 0.08150 0.39972
 N1401 N 0.31631 0.07298 0.38509
 C1402 C 0.31039 0.07549 0.36664
 N1403 N 0.29458 0.08688 0.36334
 N1404 N 0.28500 0.09536 0.37797
 C1405 C 0.32070 0.06566 0.35063
 N1406 N 0.31550 0.06872 0.33203
 N1407 N 0.32470 0.05948 0.31761
 C1408 C 0.33940 0.04677 0.32126
 N1409 N 0.34456 0.04380 0.33990
 N1410 N 0.33542 0.05306 0.35428
 C1411 C 0.78397 0.60582 0.90295
 N1412 N 0.76790 0.61697 0.90023
 N1413 N 0.75885 0.62547 0.91515
 C1414 C 0.76551 0.62321 0.93339
 N1415 N 0.78173 0.61217 0.93604
 N1416 N 0.79076 0.60362 0.92112
 C1417 C 0.79340 0.59577 0.88658
 N1418 N 0.80827 0.58311 0.88952
 N1419 N 0.81636 0.57349 0.87476
 C1420 C 0.80991 0.57620 0.85652
 N1421 N 0.79512 0.58896 0.85356
 N1422 N 0.78699 0.59853 0.86834
 C1423 C 0.81858 0.56520 0.84039
 N1424 N 0.81305 0.56851 0.82193
 N1425 N 0.82084 0.55831 0.80741
 C1426 C 0.83440 0.54434 0.81080
 N1427 N 0.83987 0.54109 0.82930
 N1428 N 0.83214 0.55131 0.84379
 C1429 C 0.08919 0.71889 0.59979
 N1430 N 0.07066 0.71268 0.59880
 N1431 N 0.05588 0.72313 0.60613
 C1432 C 0.05905 0.74022 0.61468
 N1433 N 0.07764 0.74634 0.61566
 N1434 N 0.09241 0.73590 0.60838
 C1435 C 0.10547 0.70759 0.59142
 N1436 N 0.12404 0.71359 0.59289
 N1437 N 0.13879 0.70354 0.58497
 C1438 C 0.13549 0.68715 0.57525
 N1439 N 0.11693 0.68112 0.57382
 N1440 N 0.10219 0.69114 0.58178
 C1441 C 0.15162 0.67632 0.56599
 N1442 N 0.14800 0.66078 0.55510
 N1443 N 0.16249 0.65120 0.54623
 C1444 C 0.18120 0.65672 0.54791
 N1445 N 0.18483 0.67224 0.55894
 N1446 N 0.17031 0.68187 0.56778
 C1447 C 0.59213 0.21924 1.09722
 N1448 N 0.57355 0.21317 1.09621
 N1449 N 0.55884 0.22376 1.10347
 C1450 C 0.56213 0.24085 1.11195
 N1451 N 0.58077 0.24683 1.11297
 N1452 N 0.59547 0.23624 1.10578
 C1453 C 0.60835 0.20784 1.08883
 N1454 N 0.62697 0.21361 1.09051
 N1455 N 0.64166 0.20355 1.08251
 C1456 C 0.63825 0.18736 1.07249
 N1457 N 0.61963 0.18156 1.07086
 N1458 N 0.60495 0.19160 1.07890
 C1459 C 0.65433 0.17654 1.06312
 N1460 N 0.65062 0.16133 1.05178
 N1461 N 0.66507 0.15180 1.04280
 C1462 C 0.68384 0.15705 1.04480
 N1463 N 0.68754 0.17222 1.05627
 N1464 N 0.67306 0.18180 1.06523
 C1465 C 0.90739 0.22594 0.91963
 N1466 N 0.92438 0.21684 0.91468
 N1467 N 0.93932 0.22663 0.90743
 C1468 C 0.93782 0.24589 0.90478
 N1469 N 0.92082 0.25494 0.90983
 N1470 N 0.90592 0.24518 0.91715
 C1471 C 0.89072 0.21519 0.92717
 N1472 N 0.87425 0.22452 0.93333
 N1473 N 0.85898 0.21480 0.93990
 C1474 C 0.85959 0.19537 0.94046
 N1475 N 0.87606 0.18604 0.93430
 N1476 N 0.89135 0.19576 0.92779
 C1477 C 0.84277 0.18459 0.94761
 N1478 N 0.84292 0.16521 0.94666
 N1479 N 0.82780 0.15534 0.95330
 C1480 C 0.81193 0.16443 0.96119
 N1481 N 0.81179 0.18386 0.96210
 N1482 N 0.82690 0.19376 0.95539
 C1483 C 0.40360 0.72288 0.41884
 N1484 N 0.42050 0.71341 0.41438
 N1485 N 0.43589 0.72287 0.40767
 C1486 C 0.43497 0.74216 0.40510
 N1487 N 0.41802 0.75159 0.40959
 N1488 N 0.40265 0.74215 0.41637
 C1489 C 0.38661 0.71243 0.42613
 N1490 N 0.37022 0.72199 0.43213
 N1491 N 0.35484 0.71247 0.43878
 C1492 C 0.35526 0.69304 0.43957
 N1493 N 0.37163 0.68350 0.43351
 N1494 N 0.38703 0.69301 0.42693
 C1495 C 0.33847 0.68245 0.44709
 N1496 N 0.33859 0.66305 0.44653
 N1497 N 0.32363 0.65331 0.45373
 C1498 C 0.30795 0.66255 0.46182
 N1499 N 0.30782 0.68200 0.46231
 N1500 N 0.32277 0.69177 0.45504
 C1501 C 0.58885 0.77006 0.41840
 N1502 N 0.58944 0.75105 0.41447
 N1503 N 0.57402 0.74256 0.40725
 C1504 C 0.55740 0.75272 0.40375
 N1505 N 0.55685 0.77173 0.40779
 N1506 N 0.57227 0.78023 0.41492
 C1507 C 0.60587 0.77962 0.42602
 N1508 N 0.60579 0.79895 0.42781
 N1509 N 0.62123 0.80777 0.43450
 C1510 C 0.63730 0.79761 0.43973
 N1511 N 0.63739 0.77826 0.43802
 N1512 N 0.62196 0.76942 0.43123
 C1513 C 0.65424 0.80760 0.44699
 N1514 N 0.66972 0.79780 0.45426
 N1515 N 0.68492 0.80711 0.46092
 C1516 C 0.68525 0.82656 0.46046
 N1517 N 0.66976 0.83627 0.45313
 N1518 N 0.65456 0.82699 0.44657
 C1519 C 0.08957 0.27822 -0.08213
 N1520 N 0.09048 0.25926 -0.08622
 N1521 N 0.07541 0.25068 -0.09398
 C1522 C 0.05880 0.26068 -0.09791
 N1523 N 0.05788 0.27965 -0.09369
 N1524 N 0.07299 0.28826 -0.08600
 C1525 C 0.10635 0.28772 -0.07391
 N1526 N 0.10628 0.30701 -0.07174
 N1527 N 0.12162 0.31565 -0.06457
 C1528 C 0.13757 0.30531 -0.05923
 N1529 N 0.13761 0.28601 -0.06132
 N1530 N 0.12229 0.27737 -0.06857
 C1531 C 0.15447 0.31497 -0.05145
 N1532 N 0.16979 0.30478 -0.04438
 N1533 N 0.18503 0.31369 -0.03728
 C1534 C 0.18558 0.33313 -0.03709
 N1535 N 0.17024 0.34324 -0.04423
 N1536 N 0.15499 0.33436 -0.05124
 C1537 C 0.40967 0.28204 0.09758
 N1538 N 0.42807 0.28840 0.09493
 N1539 N 0.44304 0.27922 0.10298
 C1540 C 0.44021 0.26327 0.11396
 N1541 N 0.42176 0.25700 0.11662
 N1542 N 0.40679 0.26620 0.10862
 C1543 C 0.39318 0.29187 0.08834
 N1544 N 0.37471 0.28590 0.09157
 N1545 N 0.35980 0.29457 0.08291
 C1546 C 0.36283 0.30951 0.07064
 N1547 N 0.38129 0.31549 0.06744
 N1548 N 0.39619 0.30685 0.07614
 C1549 C 0.34651 0.31893 0.06073
 N1550 N 0.34992 0.33295 0.04752
 N1551 N 0.33527 0.34142 0.03832
 C1552 C 0.31659 0.33627 0.04193
 N1553 N 0.31318 0.32225 0.05522
 N1554 N 0.32787 0.31372 0.06442
 C1555 C 0.90706 0.78181 0.59880
 N1556 N 0.92551 0.78813 0.59645
 N1557 N 0.94034 0.77880 0.60459
 C1558 C 0.93730 0.76274 0.61533
 N1559 N 0.91879 0.75654 0.61772
 N1560 N 0.90397 0.76589 0.60965
 C1561 C 0.89076 0.79163 0.58927
 N1562 N 0.87226 0.78564 0.59222
 N1563 N 0.85752 0.79415 0.58314
 C1564 C 0.86076 0.80891 0.57072
 N1565 N 0.87925 0.81493 0.56782
 N1566 N 0.89398 0.80646 0.57694
 C1567 C 0.84465 0.81799 0.56023
 N1568 N 0.84829 0.83161 0.54666
 N1569 N 0.83382 0.83965 0.53683
 C1570 C 0.81511 0.83445 0.54019
 N1571 N 0.81148 0.82085 0.55385
 N1572 N 0.82598 0.81274 0.56365
   
