data_POSCAR
  _audit_creation_date              2014-09-24
  _audit_creation_method            'ToBaCCo'
  _symmetry_space_group_name_H-M    'P1'
  _symmetry_Int_Tables_number       1
  _symmetry_cell_setting            triclinic
  loop_
  _symmetry_equiv_pos_as_xyz
 x,y,z
_cell_length_a 49.7865
_cell_length_b 49.7824
_cell_length_c 49.7961
_cell_angle_alpha 90.031500
_cell_angle_beta 90.030400
_cell_angle_gamma 89.999800
loop_
  _atom_site_label
  _atom_site_type_symbol
  _atom_site_fract_x
  _atom_site_fract_y
  _atom_site_fract_z
O1 O 0.27221 1.02576 0.02552
 O2 O 0.27219 0.97346 -0.02675
 O3 O 0.27200 1.02576 -0.02675
 O4 O 0.27200 0.97347 0.02553
 O5 O 0.22758 0.97350 0.02550
 O6 O 0.22757 1.02575 -0.02674
 O7 O 0.22777 0.97344 -0.02679
 O8 O 0.22779 1.02580 0.02554
 Cu9 Cu 0.27659 0.99961 -0.00061
 Cu10 Cu 0.22319 0.99962 -0.00063
 C11 C 0.25002 1.03461 0.03435
 C12 C 0.24999 0.96461 -0.03560
 C13 C 0.24977 1.03458 -0.03556
 C14 C 0.24978 0.96467 0.03434
 O15 O 0.72819 0.52617 0.52611
 O16 O 0.72813 0.47382 0.47378
 O17 O 0.72794 0.47384 0.52609
 O18 O 0.72798 0.52615 0.47379
 O19 O 0.77240 0.52613 0.47379
 O20 O 0.77236 0.47377 0.52613
 O21 O 0.77255 0.47380 0.47382
 O22 O 0.77262 0.52610 0.52610
 Cu23 Cu 0.72358 0.50000 0.49994
 Cu24 Cu 0.77696 0.49995 0.49996
 C25 C 0.75043 0.53496 0.53494
 C26 C 0.75034 0.46498 0.46498
 C27 C 0.75013 0.46498 0.53494
 C28 C 0.75019 0.53497 0.46495
 O29 O 0.72768 0.97384 1.02713
 O30 O 0.72778 1.02612 0.97483
 O31 O 0.72797 0.97380 0.97482
 O32 O 0.72789 1.02617 1.02714
 O33 O 0.77230 1.02614 1.02723
 O34 O 0.77239 0.97381 0.97494
 O35 O 0.77220 1.02614 0.97491
 O36 O 0.77209 0.97380 1.02725
 Cu37 Cu 0.72335 0.99998 1.00098
 Cu38 Cu 0.77673 0.99997 1.00110
 C39 C 0.74985 0.96498 1.03602
 C40 C 0.74999 1.03495 0.96604
 C41 C 0.75021 0.96498 0.96605
 C42 C 0.75010 1.03500 1.03601
 O43 O 0.27212 0.47400 0.52606
 O44 O 0.27210 0.52630 0.47379
 O45 O 0.27232 0.52630 0.52609
 O46 O 0.27231 0.47399 0.47378
 O47 O 0.22789 0.47397 0.47375
 O48 O 0.22790 0.52631 0.52609
 O49 O 0.22768 0.52626 0.47381
 O50 O 0.22769 0.47402 0.52602
 Cu51 Cu 0.27670 0.50015 0.49993
 Cu52 Cu 0.22330 0.50014 0.49991
 C53 C 0.24989 0.46519 0.53485
 C54 C 0.24987 0.53509 0.46498
 C55 C 0.25012 0.53513 0.53493
 C56 C 0.25012 0.46515 0.46494
 O57 O 1.02579 0.22811 0.02561
 O58 O 0.97339 0.22815 -0.02666
 O59 O 1.02569 0.22798 -0.02667
 O60 O 0.97350 0.22784 0.02562
 O61 O 0.97343 0.27226 0.02574
 O62 O 1.02567 0.27240 -0.02660
 O63 O 0.97337 0.27257 -0.02654
 O64 O 1.02572 0.27254 0.02568
 Cu65 Cu 0.99960 0.22353 -0.00054
 Cu66 Cu 0.99954 0.27693 -0.00042
 C67 C 1.03460 0.25034 0.03446
 C68 C 0.96453 0.25038 -0.03542
 C69 C 1.03450 0.25020 -0.03546
 C70 C 0.96466 0.25001 0.03451
 O71 O 0.52620 0.77280 0.52630
 O72 O 0.47391 0.77281 0.47401
 O73 O 0.47388 0.77259 0.52633
 O74 O 0.52624 0.77259 0.47399
 O75 O 0.52621 0.72817 0.47399
 O76 O 0.47389 0.72817 0.52628
 O77 O 0.47388 0.72839 0.47396
 O78 O 0.52622 0.72838 0.52630
 Cu79 Cu 0.50006 0.77718 0.50016
 Cu80 Cu 0.50005 0.72379 0.50013
 C81 C 0.53504 0.75061 0.53513
 C82 C 0.46507 0.75062 0.46516
 C83 C 0.46505 0.75036 0.53513
 C84 C 0.53506 0.75036 0.46516
 O85 O 0.02625 0.77196 -0.02708
 O86 O -0.02611 0.77199 0.02524
 O87 O 0.02621 0.77216 0.02523
 O88 O -0.02609 0.77219 -0.02707
 O89 O -0.02614 0.72777 -0.02712
 O90 O 0.02620 0.72773 0.02522
 O91 O -0.02611 0.72756 0.02518
 O92 O 0.02620 0.72754 -0.02708
 Cu93 Cu 0.00007 0.77655 -0.00092
 Cu94 Cu 0.00004 0.72317 -0.00096
 C95 C 0.03508 0.74973 -0.03590
 C96 C -0.03494 0.74976 0.03404
 C97 C 0.03503 0.74995 0.03406
 C98 C -0.03497 0.75000 -0.03591
 O99 O 0.52627 0.27174 0.47395
 O100 O 0.47394 0.27175 0.52618
 O101 O 0.52624 0.27197 0.52624
 O102 O 0.47398 0.27194 0.47390
 O103 O 0.47396 0.22752 0.47387
 O104 O 0.52627 0.22754 0.52625
 O105 O 0.47397 0.22732 0.52614
 O106 O 0.52625 0.22731 0.47397
 Cu107 Cu 0.50011 0.27634 0.50007
 Cu108 Cu 0.50012 0.22293 0.50006
 C109 C 0.53508 0.24950 0.46515
 C110 C 0.46513 0.24952 0.53496
 C111 C 0.53508 0.24978 0.53508
 C112 C 0.46514 0.24974 0.46505
 O113 O 1.02580 0.02561 0.27254
 O114 O 0.97345 -0.02664 0.27257
 O115 O 1.02576 -0.02670 0.27224
 O116 O 0.97350 0.02567 0.27226
 O117 O 0.97348 0.02561 0.22785
 O118 O 1.02568 -0.02669 0.22782
 O119 O 0.97336 -0.02671 0.22817
 O120 O 1.02579 0.02562 0.22813
 Cu121 Cu 0.99963 -0.00051 0.27688
 Cu122 Cu 0.99957 -0.00055 0.22351
 C123 C 1.03464 0.03443 0.25035
 C124 C 0.96456 -0.03550 0.25040
 C125 C 1.03454 -0.03552 0.25001
 C126 C 0.96467 0.03447 0.25004
 O127 O 0.52624 0.52620 0.72886
 O128 O 0.47383 0.47398 0.72880
 O129 O 0.47392 0.52630 0.72854
 O130 O 0.52614 0.47389 0.72854
 O131 O 0.52617 0.47386 0.77295
 O132 O 0.47389 0.52632 0.77295
 O133 O 0.47386 0.47401 0.77321
 O134 O 0.52620 0.52616 0.77327
 Cu135 Cu 0.50003 0.50010 0.72420
 Cu136 Cu 0.50003 0.50009 0.77758
 C137 C 0.53506 0.53498 0.75110
 C138 C 0.46501 0.46519 0.75101
 C139 C 0.46508 0.53516 0.75073
 C140 C 0.53498 0.46502 0.75072
 O141 O 0.97324 1.02669 0.72730
 O142 O 1.02565 0.97450 0.72729
 O143 O 0.97335 0.97437 0.72765
 O144 O 1.02555 1.02680 0.72753
 O145 O 1.02560 1.02685 0.77195
 O146 O 0.97346 0.97448 0.77207
 O147 O 1.02576 0.97454 0.77171
 O148 O 0.97328 1.02680 0.77171
 Cu149 Cu 0.99944 1.00059 0.72296
 Cu150 Cu 0.99953 1.00068 0.77634
 C151 C 0.96440 1.03556 0.74948
 C152 C 1.03455 0.96570 0.74948
 C153 C 0.96462 0.96557 0.74990
 C154 C 1.03439 1.03566 0.74974
 O155 O 0.47395 0.52613 0.27144
 O156 O 0.52636 0.47390 0.27141
 O157 O 0.52626 0.52623 0.27173
 O158 O 0.47404 0.47382 0.27172
 O159 O 0.47398 0.47378 0.22731
 O160 O 0.52626 0.52625 0.22731
 O161 O 0.52629 0.47393 0.22700
 O162 O 0.47395 0.52608 0.22703
 Cu163 Cu 0.50016 0.50002 0.27606
 Cu164 Cu 0.50012 0.50001 0.22268
 C165 C 0.46511 0.53491 0.24922
 C166 C 0.53515 0.46510 0.24918
 C167 C 0.53507 0.53509 0.24954
 C168 C 0.46519 0.46495 0.24953
 O169 O 0.25019 0.18031 0.21233
 O170 O 0.28248 0.17513 0.24956
 O171 O 0.18073 0.21224 0.25100
 O172 O 0.17051 0.24721 0.27746
 O173 O 0.21277 0.25052 0.17999
 O174 O 0.25022 0.28005 0.17268
 O175 O 0.25075 0.28686 0.31947
 O176 O 0.21921 0.25143 0.32640
 O177 O 0.31928 0.25016 0.28706
 O178 O 0.32500 0.21807 0.24622
 O179 O 0.28712 0.31910 0.25088
 O180 O 0.24874 0.32753 0.22048
 O181 O 0.25084 0.31914 0.28713
 O182 O 0.22023 0.32737 0.24889
 O183 O 0.31946 0.28677 0.25084
 O184 O 0.32945 0.25077 0.22227
 O185 O 0.28705 0.25105 0.31944
 O186 O 0.25041 0.22031 0.32793
 O187 O 0.25038 0.21269 0.18001
 O188 O 0.27998 0.25006 0.17257
 O189 O 0.18043 0.24991 0.21232
 O190 O 0.17412 0.28115 0.24968
 O191 O 0.21307 0.17976 0.24979
 O192 O 0.24827 0.17290 0.28013
 Zr193 Zr 0.24915 0.20172 0.24886
 O194 O 0.27410 0.22476 0.27413
 Zr195 Zr 0.20184 0.24889 0.24882
 O196 O 0.22482 0.27390 0.27419
 Zr197 Zr 0.24906 0.24903 0.20163
 O198 O 0.27411 0.27398 0.22480
 Zr199 Zr 0.25071 0.25055 0.29792
 O200 O 0.22543 0.22530 0.27485
 Zr201 Zr 0.29782 0.25049 0.25061
 O202 O 0.27500 0.22529 0.22502
 Zr203 Zr 0.25064 0.29769 0.25070
 O204 O 0.22531 0.27491 0.22514
 O205 O 0.22420 0.22409 0.22392
 O206 O 0.27586 0.27570 0.27587
 C207 C 0.25084 0.18811 0.18776
 C208 C 0.18851 0.18760 0.25100
 C209 C 0.18819 0.25080 0.18776
 C210 C 0.25085 0.31142 0.31170
 C211 C 0.31159 0.25063 0.31164
 C212 C 0.31170 0.31135 0.25092
 H213 H 0.28528 0.21257 0.28509
 H214 H 0.28526 0.28505 0.21268
 H215 H 0.21269 0.21260 0.21248
 H216 H 0.21274 0.28487 0.28550
 H217 H 0.20581 0.23791 0.32059
 H218 H 0.17620 0.25798 0.29316
 H219 H 0.32312 0.26099 0.20646
 H220 H 0.29394 0.23727 0.17868
 H221 H 0.26382 0.20651 0.32304
 H222 H 0.23635 0.18012 0.29430
 H223 H 0.26303 0.32368 0.20724
 H224 H 0.23776 0.29419 0.17903
 H225 H 0.27627 0.15688 0.24445
 H226 H 0.32440 0.20731 0.26290
 H227 H 0.17979 0.29406 0.23567
 H228 H 0.20706 0.32347 0.26323
 O229 O 0.74992 0.81994 0.21255
 O230 O 0.71774 0.82507 0.24986
 O231 O 0.81946 0.78784 0.25097
 O232 O 0.82973 0.75283 0.27732
 O233 O 0.78715 0.74972 0.17993
 O234 O 0.74962 0.72025 0.17263
 O235 O 0.74956 0.71318 0.31943
 O236 O 0.78116 0.74857 0.32638
 O237 O 0.68097 0.74999 0.28727
 O238 O 0.67513 0.78216 0.24656
 O239 O 0.71295 0.68111 0.25081
 O240 O 0.75119 0.67266 0.22033
 O241 O 0.74933 0.68095 0.28701
 O242 O 0.77985 0.67280 0.24863
 O243 O 0.68065 0.71346 0.25092
 O244 O 0.67062 0.74956 0.22246
 O245 O 0.71330 0.74903 0.31958
 O246 O 0.75003 0.77975 0.32803
 O247 O 0.74959 0.78761 0.18014
 O248 O 0.71990 0.75029 0.17267
 O249 O 0.81960 0.75023 0.21219
 O250 O 0.82598 0.71891 0.24946
 O251 O 0.78716 0.82036 0.24994
 O252 O 0.75206 0.82722 0.28037
 Zr253 Zr 0.75104 0.79845 0.24902
 O254 O 0.72615 0.77540 0.27429
 Zr255 Zr 0.79829 0.75122 0.24874
 O256 O 0.77537 0.72620 0.27412
 Zr257 Zr 0.75093 0.75123 0.20166
 O258 O 0.72593 0.72626 0.22483
 Zr259 Zr 0.74958 0.74953 0.29796
 O260 O 0.77482 0.77478 0.27490
 Zr261 Zr 0.70232 0.74972 0.25076
 O262 O 0.72508 0.77495 0.22518
 Zr263 Zr 0.74945 0.70247 0.25062
 O264 O 0.77472 0.72527 0.22504
 O265 O 0.77588 0.77610 0.22396
 O266 O 0.72433 0.72445 0.27590
 C267 C 0.74918 0.81219 0.18795
 C268 C 0.81171 0.81249 0.25106
 C269 C 0.81176 0.74940 0.18763
 C270 C 0.74940 0.68863 0.31160
 C271 C 0.68873 0.74948 0.31184
 C272 C 0.68838 0.68888 0.25092
 H273 H 0.71502 0.78758 0.28531
 H274 H 0.71473 0.71522 0.21271
 H275 H 0.78738 0.78759 0.21253
 H276 H 0.78748 0.71520 0.28537
 H277 H 0.79457 0.76206 0.32056
 H278 H 0.82408 0.74205 0.29300
 H279 H 0.67687 0.73933 0.20663
 H280 H 0.70598 0.76309 0.17885
 H281 H 0.73658 0.79354 0.32324
 H282 H 0.76401 0.81995 0.29450
 H283 H 0.73689 0.67659 0.20710
 H284 H 0.76209 0.70609 0.17890
 H285 H 0.72396 0.84332 0.24480
 H286 H 0.67583 0.79291 0.26326
 H287 H 0.82023 0.70603 0.23543
 H288 H 0.79300 0.67659 0.26304
 O289 O 0.75004 0.18041 0.78780
 O290 O 0.71772 0.17523 0.75056
 O291 O 0.81947 0.21235 0.74913
 O292 O 0.82970 0.24730 0.72271
 O293 O 0.78742 0.25067 0.82017
 O294 O 0.74998 0.28017 0.82751
 O295 O 0.74946 0.28693 0.68069
 O296 O 0.78102 0.25149 0.67376
 O297 O 0.68094 0.25026 0.71308
 O298 O 0.67520 0.21816 0.75387
 O299 O 0.71307 0.31919 0.74930
 O300 O 0.75143 0.32766 0.77970
 O301 O 0.74934 0.31924 0.71303
 O302 O 0.77998 0.32746 0.75131
 O303 O 0.68074 0.28686 0.74935
 O304 O 0.67076 0.25085 0.77788
 O305 O 0.71317 0.25113 0.68070
 O306 O 0.74981 0.22037 0.67220
 O307 O 0.74985 0.21281 0.82013
 O308 O 0.72018 0.25019 0.82755
 O309 O 0.81977 0.25004 0.78784
 O310 O 0.82608 0.28127 0.75050
 O311 O 0.78714 0.17986 0.75032
 O312 O 0.75194 0.17297 0.71999
 Zr313 Zr 0.75106 0.20182 0.75128
 O314 O 0.72612 0.22484 0.72600
 Zr315 Zr 0.79836 0.24900 0.75134
 O316 O 0.77539 0.27400 0.72597
 Zr317 Zr 0.75114 0.24914 0.79852
 O318 O 0.72610 0.27409 0.77536
 Zr319 Zr 0.74951 0.25064 0.70223
 O320 O 0.77478 0.22539 0.72529
 Zr321 Zr 0.70239 0.25058 0.74953
 O322 O 0.72520 0.22539 0.77511
 Zr323 Zr 0.74956 0.29780 0.74947
 O324 O 0.77488 0.27503 0.77503
 O325 O 0.77600 0.22420 0.77623
 O326 O 0.72434 0.27578 0.72429
 C327 C 0.74940 0.18822 0.81238
 C328 C 0.81170 0.18771 0.74911
 C329 C 0.81200 0.25095 0.81240
 C330 C 0.74934 0.31150 0.68845
 C331 C 0.68863 0.25072 0.68850
 C332 C 0.68849 0.31144 0.74927
 H333 H 0.71494 0.21265 0.71503
 H334 H 0.71494 0.28517 0.78748
 H335 H 0.78752 0.21272 0.78766
 H336 H 0.78747 0.28496 0.71467
 H337 H 0.79441 0.23797 0.67957
 H338 H 0.82402 0.25806 0.70701
 H339 H 0.67710 0.26105 0.79370
 H340 H 0.70627 0.23734 0.82147
 H341 H 0.73638 0.20659 0.67706
 H342 H 0.76382 0.18021 0.70580
 H343 H 0.73715 0.32380 0.79294
 H344 H 0.76240 0.29433 0.82115
 H345 H 0.72393 0.15699 0.75566
 H346 H 0.67580 0.20741 0.73717
 H347 H 0.82038 0.29420 0.76450
 H348 H 0.79310 0.32360 0.73691
 O349 O 0.24995 0.81977 0.78772
 O350 O 0.28223 0.82496 0.75056
 O351 O 0.18052 0.78775 0.74899
 O352 O 0.17033 0.75274 0.72255
 O353 O 0.21256 0.74956 0.82008
 O354 O 0.25005 0.72004 0.82744
 O355 O 0.25065 0.71315 0.68066
 O356 O 0.21909 0.74852 0.67365
 O357 O 0.31914 0.74992 0.71312
 O358 O 0.32483 0.78204 0.75394
 O359 O 0.28701 0.68099 0.74933
 O360 O 0.24865 0.67254 0.77968
 O361 O 0.25075 0.68088 0.71302
 O362 O 0.22012 0.67267 0.75125
 O363 O 0.31932 0.71334 0.74937
 O364 O 0.32926 0.74940 0.77797
 O365 O 0.28691 0.74899 0.68070
 O366 O 0.25021 0.77972 0.67219
 O367 O 0.25017 0.78741 0.82007
 O368 O 0.27977 0.75007 0.82759
 O369 O 0.18023 0.75012 0.78770
 O370 O 0.17399 0.71881 0.75035
 O371 O 0.21283 0.82025 0.75022
 O372 O 0.24803 0.82711 0.71990
 Zr373 Zr 0.24893 0.79832 0.75122
 O374 O 0.27392 0.77530 0.72599
 Zr375 Zr 0.20167 0.75111 0.75123
 O376 O 0.22468 0.72612 0.72590
 Zr377 Zr 0.24886 0.75106 0.79848
 O378 O 0.27395 0.72611 0.77536
 Zr379 Zr 0.25056 0.74947 0.70219
 O380 O 0.22524 0.77470 0.72521
 Zr381 Zr 0.29765 0.74960 0.74955
 O382 O 0.27480 0.77480 0.77509
 Zr383 Zr 0.25051 0.70236 0.74944
 O384 O 0.22515 0.72513 0.77496
 O385 O 0.22400 0.77596 0.77614
 O386 O 0.27572 0.72436 0.72429
 C387 C 0.25061 0.81199 0.81230
 C388 C 0.18828 0.81239 0.74899
 C389 C 0.18798 0.74927 0.81229
 C390 C 0.25076 0.68859 0.68845
 C391 C 0.31146 0.74943 0.68852
 C392 C 0.31159 0.68876 0.74930
 H393 H 0.28509 0.78750 0.71504
 H394 H 0.28511 0.71506 0.78750
 H395 H 0.21247 0.78745 0.78755
 H396 H 0.21261 0.71513 0.71458
 H397 H 0.20565 0.76200 0.67944
 H398 H 0.17604 0.74197 0.70686
 H399 H 0.32296 0.73912 0.79373
 H400 H 0.29375 0.76282 0.82146
 H401 H 0.26366 0.79350 0.67704
 H402 H 0.23610 0.81987 0.70574
 H403 H 0.26292 0.67643 0.79294
 H404 H 0.23758 0.70591 0.82110
 H405 H 0.27598 0.84321 0.75560
 H406 H 0.32419 0.79281 0.73727
 H407 H 0.17966 0.70593 0.76439
 H408 H 0.20698 0.67652 0.73685
 O409 O 0.24972 0.31960 0.71259
 O410 O 0.21745 0.32483 0.74980
 O411 O 0.31911 0.28752 0.75128
 O412 O 0.32934 0.25252 0.77762
 O413 O 0.28701 0.24936 0.68016
 O414 O 0.24951 0.21991 0.67274
 O415 O 0.24903 0.21300 0.81950
 O416 O 0.28061 0.24838 0.82656
 O417 O 0.18056 0.24984 0.78709
 O418 O 0.17487 0.28197 0.74633
 O419 O 0.21261 0.18091 0.75087
 O420 O 0.25092 0.17240 0.72046
 O421 O 0.24889 0.18075 0.78710
 O422 O 0.27948 0.17251 0.74885
 O423 O 0.18033 0.21329 0.75086
 O424 O 0.17037 0.24931 0.72230
 O425 O 0.21279 0.24883 0.81951
 O426 O 0.24948 0.27955 0.82809
 O427 O 0.24946 0.28724 0.68022
 O428 O 0.21981 0.24993 0.67266
 O429 O 0.31936 0.24990 0.71252
 O430 O 0.32562 0.21860 0.74983
 O431 O 0.28682 0.32005 0.75009
 O432 O 0.25167 0.32697 0.78040
 Zr433 Zr 0.25073 0.29817 0.74907
 O434 O 0.22576 0.27518 0.77429
 Zr435 Zr 0.29796 0.25092 0.74899
 O436 O 0.27497 0.22594 0.77430
 Zr437 Zr 0.25074 0.25090 0.70176
 O438 O 0.22566 0.22598 0.72485
 Zr439 Zr 0.24912 0.24932 0.79803
 O440 O 0.27443 0.27454 0.77504
 Zr441 Zr 0.20201 0.24951 0.75068
 O442 O 0.22484 0.27468 0.72516
 Zr443 Zr 0.24912 0.20222 0.75072
 O444 O 0.27447 0.22497 0.72522
 O445 O 0.27563 0.27578 0.72411
 O446 O 0.22394 0.22425 0.77590
 C447 C 0.24904 0.31182 0.68802
 C448 C 0.31136 0.31216 0.75132
 C449 C 0.31158 0.24904 0.68795
 C450 C 0.24890 0.18845 0.81168
 C451 C 0.18825 0.24931 0.81168
 C452 C 0.18805 0.18871 0.75092
 H453 H 0.21460 0.28738 0.78526
 H454 H 0.21449 0.21494 0.71271
 H455 H 0.28717 0.28726 0.71271
 H456 H 0.28704 0.21495 0.78559
 H457 H 0.29404 0.26186 0.82078
 H458 H 0.32362 0.24182 0.79333
 H459 H 0.17666 0.23905 0.70651
 H460 H 0.20587 0.26272 0.67879
 H461 H 0.23603 0.29334 0.82327
 H462 H 0.26355 0.31970 0.79458
 H463 H 0.23662 0.17628 0.70723
 H464 H 0.26194 0.20574 0.67907
 H465 H 0.22371 0.34307 0.74473
 H466 H 0.17550 0.29273 0.76303
 H467 H 0.31995 0.20572 0.73577
 H468 H 0.29262 0.17632 0.76326
 O469 O 0.75056 0.68050 0.71306
 O470 O 0.78289 0.67534 0.75028
 O471 O 0.68113 0.71242 0.75179
 O472 O 0.67081 0.74737 0.77815
 O473 O 0.71312 0.75072 0.68075
 O474 O 0.75058 0.78025 0.67344
 O475 O 0.75109 0.78698 0.82027
 O476 O 0.71958 0.75153 0.82719
 O477 O 0.81962 0.75037 0.78781
 O478 O 0.82535 0.71827 0.74697
 O479 O 0.78738 0.81926 0.75168
 O480 O 0.74908 0.82778 0.72136
 O481 O 0.75114 0.81928 0.78795
 O482 O 0.72045 0.82745 0.74965
 O483 O 0.81974 0.78696 0.75161
 O484 O 0.82979 0.75100 0.72303
 O485 O 0.78741 0.75123 0.82021
 O486 O 0.75075 0.72040 0.82865
 O487 O 0.75073 0.71290 0.68075
 O488 O 0.78035 0.75029 0.67334
 O489 O 0.68078 0.75007 0.71308
 O490 O 0.67450 0.78135 0.75048
 O491 O 0.71348 0.67995 0.75054
 O492 O 0.74867 0.67305 0.78083
 Zr493 Zr 0.74954 0.70191 0.74959
 O494 O 0.77447 0.72492 0.77489
 Zr495 Zr 0.70220 0.74907 0.74957
 O496 O 0.72515 0.77404 0.77499
 Zr497 Zr 0.74941 0.74922 0.70239
 O498 O 0.77442 0.77418 0.72558
 Zr499 Zr 0.75106 0.75069 0.79869
 O500 O 0.72579 0.72546 0.77559
 Zr501 Zr 0.79815 0.75068 0.75137
 O502 O 0.77537 0.72549 0.72576
 Zr503 Zr 0.75093 0.79785 0.75150
 O504 O 0.72564 0.77509 0.72589
 O505 O 0.72457 0.72427 0.72466
 O506 O 0.77618 0.77586 0.77664
 C507 C 0.75121 0.68831 0.68849
 C508 C 0.68893 0.68780 0.75178
 C509 C 0.68855 0.75098 0.68851
 C510 C 0.75117 0.81154 0.81251
 C511 C 0.81195 0.75083 0.81240
 C512 C 0.81196 0.81152 0.75171
 H513 H 0.78566 0.71273 0.78584
 H514 H 0.78556 0.78526 0.71347
 H515 H 0.71306 0.71278 0.71323
 H516 H 0.71306 0.78499 0.78631
 H517 H 0.70615 0.73805 0.82134
 H518 H 0.67652 0.75804 0.79391
 H519 H 0.82344 0.76119 0.70722
 H520 H 0.79429 0.73747 0.67942
 H521 H 0.76428 0.70669 0.82384
 H522 H 0.73681 0.68029 0.79505
 H523 H 0.76326 0.82385 0.70803
 H524 H 0.73812 0.79439 0.67979
 H525 H 0.77669 0.65709 0.74515
 H526 H 0.82481 0.70754 0.76368
 H527 H 0.68011 0.79421 0.73640
 H528 H 0.70739 0.82365 0.76413
 O529 O 0.24971 0.68047 0.28707
 O530 O 0.21748 0.67520 0.24980
 O531 O 0.31915 0.71251 0.24850
 O532 O 0.32944 0.74751 0.22217
 O533 O 0.28695 0.75075 0.31951
 O534 O 0.24943 0.78025 0.32675
 O535 O 0.24916 0.78689 0.17998
 O536 O 0.28076 0.75153 0.17306
 O537 O 0.18064 0.75016 0.21224
 O538 O 0.17494 0.71799 0.25305
 O539 O 0.21263 0.81910 0.24851
 O540 O 0.25089 0.82769 0.27895
 O541 O 0.24894 0.81920 0.21233
 O542 O 0.27951 0.82750 0.25064
 O543 O 0.18035 0.78672 0.24850
 O544 O 0.17032 0.75074 0.27699
 O545 O 0.21293 0.75108 0.17992
 O546 O 0.24968 0.72031 0.17153
 O547 O 0.24940 0.71288 0.31940
 O548 O 0.21974 0.75021 0.32683
 O549 O 0.31935 0.75017 0.28724
 O550 O 0.32564 0.78145 0.24990
 O551 O 0.28687 0.67998 0.24966
 O552 O 0.25175 0.67299 0.21929
 Zr553 Zr 0.25076 0.70186 0.25056
 O554 O 0.22583 0.72480 0.22523
 Zr555 Zr 0.29800 0.74912 0.25071
 O556 O 0.27503 0.77404 0.22528
 Zr557 Zr 0.25071 0.74919 0.29781
 O558 O 0.22566 0.77406 0.27460
 Zr559 Zr 0.24923 0.75061 0.20151
 O560 O 0.27451 0.72545 0.22463
 Zr561 Zr 0.20204 0.75049 0.24873
 O562 O 0.22484 0.72538 0.27437
 Zr563 Zr 0.24914 0.79779 0.24875
 O564 O 0.27446 0.77510 0.27437
 O565 O 0.27564 0.72428 0.27555
 O566 O 0.22400 0.77572 0.22353
 C567 C 0.24900 0.68829 0.31163
 C568 C 0.31140 0.68787 0.24848
 C569 C 0.31154 0.75105 0.31179
 C570 C 0.24899 0.81145 0.18776
 C571 C 0.18838 0.75064 0.18767
 C572 C 0.18808 0.81129 0.24843
 H573 H 0.21469 0.71258 0.21425
 H574 H 0.21446 0.78512 0.28670
 H575 H 0.28715 0.71282 0.28700
 H576 H 0.28712 0.78502 0.21400
 H577 H 0.29421 0.73808 0.17892
 H578 H 0.32373 0.75818 0.20642
 H579 H 0.17663 0.76091 0.29284
 H580 H 0.20581 0.73739 0.32070
 H581 H 0.23613 0.70659 0.17627
 H582 H 0.26362 0.68026 0.20510
 H583 H 0.23662 0.82378 0.29220
 H584 H 0.26192 0.79438 0.32045
 H585 H 0.22372 0.65697 0.25491
 H586 H 0.17548 0.70732 0.23630
 H587 H 0.31995 0.79433 0.26395
 H588 H 0.29265 0.82367 0.23625
 O589 O 0.75023 0.31914 0.28710
 O590 O 0.78248 0.32424 0.24984
 O591 O 0.68072 0.28717 0.24852
 O592 O 0.67036 0.25218 0.22219
 O593 O 0.71287 0.24899 0.31957
 O594 O 0.75033 0.21949 0.32692
 O595 O 0.75054 0.21243 0.18012
 O596 O 0.71896 0.24786 0.17317
 O597 O 0.81910 0.24916 0.21241
 O598 O 0.82494 0.28131 0.25320
 O599 O 0.78696 0.18031 0.24871
 O600 O 0.74869 0.17191 0.27915
 O601 O 0.75066 0.18020 0.21251
 O602 O 0.72007 0.17208 0.25081
 O603 O 0.81932 0.21261 0.24866
 O604 O 0.82945 0.24861 0.27716
 O605 O 0.78681 0.24823 0.18005
 O606 O 0.75016 0.27897 0.17156
 O607 O 0.75047 0.28681 0.31947
 O608 O 0.78011 0.24944 0.32692
 O609 O 0.68046 0.24958 0.28727
 O610 O 0.67406 0.21827 0.24997
 O611 O 0.71308 0.31963 0.24966
 O612 O 0.74821 0.32647 0.21931
 Zr613 Zr 0.74913 0.29767 0.25061
 O614 O 0.77399 0.27459 0.22533
 Zr615 Zr 0.70179 0.25052 0.25076
 O616 O 0.72467 0.22547 0.22539
 Zr617 Zr 0.74911 0.25045 0.29790
 O618 O 0.77407 0.22544 0.27474
 Zr619 Zr 0.75052 0.24877 0.20161
 O620 O 0.72533 0.27407 0.22467
 Zr621 Zr 0.79773 0.24889 0.24887
 O622 O 0.77501 0.27414 0.27446
 Zr623 Zr 0.75052 0.20171 0.24890
 O624 O 0.72528 0.22454 0.27447
 O625 O 0.72422 0.27536 0.27560
 O626 O 0.77570 0.22366 0.22368
 C627 C 0.75092 0.31138 0.31168
 C628 C 0.68853 0.31179 0.24847
 C629 C 0.68829 0.24872 0.31182
 C630 C 0.75065 0.18788 0.18793
 C631 C 0.81136 0.24866 0.18784
 C632 C 0.81154 0.18806 0.24862
 H633 H 0.78515 0.28677 0.21434
 H634 H 0.78524 0.21438 0.28686
 H635 H 0.71273 0.28687 0.28703
 H636 H 0.71256 0.21449 0.21411
 H637 H 0.70558 0.26139 0.17898
 H638 H 0.67601 0.24142 0.20647
 H639 H 0.82312 0.23848 0.29301
 H640 H 0.79403 0.26225 0.32079
 H641 H 0.76360 0.29277 0.17639
 H642 H 0.73628 0.31923 0.20514
 H643 H 0.76300 0.17578 0.29238
 H644 H 0.73787 0.20533 0.32060
 H645 H 0.77630 0.34249 0.25494
 H646 H 0.82433 0.29203 0.23649
 H647 H 0.67974 0.20539 0.26400
 H648 H 0.70694 0.17590 0.23640
 C649 C 0.25060 0.09296 0.09265
 C650 C 0.23205 0.11681 0.08651
 C651 C 0.23234 0.13618 0.10586
 C652 C 0.25115 0.12980 0.12944
 C653 C 0.27872 0.12481 0.11659
 C654 C 0.27843 0.10544 0.09724
 C655 C 0.24171 0.08284 0.12036
 C656 C 0.24200 0.10221 0.13971
 C657 C 0.25030 0.07212 0.07182
 C658 C 0.25011 0.05499 0.05471
 C659 C 0.25138 0.15064 0.15027
 C660 C 0.25131 0.16776 0.16739
 H661 H 0.21978 0.11836 0.06855
 H662 H 0.22032 0.15432 0.10446
 H663 H 0.29686 0.13554 0.12219
 H664 H 0.29633 0.09958 0.08626
 H665 H 0.23573 0.06227 0.12444
 H666 H 0.23627 0.09823 0.16036
 C667 C 0.75100 0.59324 0.59330
 C668 C 0.76910 0.58641 0.61732
 C669 C 0.76938 0.60576 0.63669
 C670 C 0.75153 0.63004 0.63014
 C671 C 0.72354 0.61821 0.62487
 C672 C 0.72326 0.59886 0.60551
 C673 C 0.76103 0.62062 0.58328
 C674 C 0.76130 0.63997 0.60265
 C675 C 0.75071 0.57242 0.57245
 C676 C 0.75053 0.55531 0.55532
 C677 C 0.75175 0.65086 0.65098
 C678 C 0.75168 0.66797 0.66812
 H679 H 0.78068 0.56801 0.61897
 H680 H 0.78120 0.60393 0.65493
 H681 H 0.70552 0.62448 0.63543
 H682 H 0.70501 0.58856 0.59947
 H683 H 0.76735 0.62447 0.56278
 H684 H 0.76787 0.66039 0.59874
 C685 C 0.74930 0.90761 0.09311
 C686 C 0.73729 0.91699 0.11991
 C687 C 0.73703 0.89758 0.13920
 C688 C 0.74880 0.87067 0.12980
 C689 C 0.77706 0.87747 0.11951
 C690 C 0.77732 0.89689 0.10023
 C691 C 0.73294 0.88266 0.08530
 C692 C 0.73267 0.86324 0.10458
 C693 C 0.74958 0.92851 0.07234
 C694 C 0.74976 0.94567 0.05526
 C695 C 0.74860 0.84976 0.15056
 C696 C 0.74869 0.83259 0.16763
 H697 H 0.72966 0.93712 0.12343
 H698 H 0.72917 0.90107 0.15923
 H699 H 0.79526 0.86788 0.12674
 H700 H 0.79575 0.90392 0.09095
 H701 H 0.72248 0.88043 0.06629
 H702 H 0.72199 0.84439 0.10209
 C703 C 0.24934 0.40689 0.59306
 C704 C 0.24897 0.41815 0.62176
 C705 C 0.24867 0.39879 0.64109
 C706 C 0.24877 0.37009 0.62981
 C707 C 0.27349 0.36878 0.61144
 C708 C 0.27378 0.38814 0.59211
 C709 C 0.22485 0.38822 0.59143
 C710 C 0.22455 0.36886 0.61077
 C711 C 0.24964 0.42772 0.57227
 C712 C 0.24982 0.44483 0.55518
 C713 C 0.24853 0.34927 0.65061
 C714 C 0.24858 0.33216 0.66770
 H715 H 0.24894 0.43944 0.62648
 H716 H 0.24838 0.40350 0.66238
 H717 H 0.28935 0.35395 0.61343
 H718 H 0.28990 0.38990 0.57754
 H719 H 0.20913 0.39004 0.57642
 H720 H 0.20858 0.35409 0.61232
 C721 C 0.74957 0.09320 0.90763
 C722 C 0.76795 0.08691 0.88370
 C723 C 0.76770 0.10623 0.86432
 C724 C 0.74909 0.12996 0.87076
 C725 C 0.75845 0.14022 0.89830
 C726 C 0.75870 0.12090 0.91768
 C727 C 0.72171 0.09796 0.89527
 C728 C 0.72146 0.11728 0.87589
 C729 C 0.74982 0.07240 0.92850
 C730 C 0.74996 0.05530 0.94564
 C731 C 0.74888 0.15077 0.84989
 C732 C 0.74894 0.16787 0.83276
 H733 H 0.78010 0.06887 0.88212
 H734 H 0.77964 0.10473 0.84614
 H735 H 0.76436 0.16084 0.90223
 H736 H 0.76483 0.12497 0.93821
 H737 H 0.70376 0.08711 0.90122
 H738 H 0.70330 0.12298 0.86525
 C739 C 0.24928 0.59332 0.40670
 C740 C 0.27740 0.60211 0.39764
 C741 C 0.27710 0.62144 0.37829
 C742 C 0.24871 0.63008 0.36990
 C743 C 0.23489 0.63866 0.39609
 C744 C 0.23520 0.61932 0.41544
 C745 C 0.23484 0.58468 0.38086
 C746 C 0.23454 0.60401 0.36150
 C747 C 0.24960 0.57252 0.42752
 C748 C 0.24978 0.55543 0.44463
 C749 C 0.24847 0.65088 0.34908
 C750 C 0.24853 0.66797 0.33197
 H751 H 0.29591 0.59387 0.40571
 H752 H 0.29536 0.62977 0.36977
 H753 H 0.22569 0.65819 0.39916
 H754 H 0.22625 0.62228 0.43510
 H755 H 0.22567 0.56509 0.37801
 H756 H 0.22511 0.60100 0.34207
 C757 C 0.25048 0.90728 0.90727
 C758 C 0.25603 0.91813 0.87896
 C759 C 0.25629 0.89873 0.85965
 C760 C 0.25097 0.87038 0.87054
 C761 C 0.22412 0.87250 0.88555
 C762 C 0.22386 0.89190 0.90486
 C763 C 0.27189 0.88556 0.91186
 C764 C 0.27214 0.86616 0.89255
 C765 C 0.25021 0.92816 0.92806
 C766 C 0.25005 0.94531 0.94516
 C767 C 0.25117 0.84951 0.84974
 C768 C 0.25109 0.83236 0.83265
 H769 H 0.25947 0.93919 0.87449
 H770 H 0.25995 0.90317 0.83862
 H771 H 0.20684 0.85987 0.88138
 H772 H 0.20636 0.89588 0.91724
 H773 H 0.28563 0.88544 0.92880
 H774 H 0.28611 0.84942 0.89293
 C775 C 0.75082 0.40660 0.40672
 C776 C 0.75485 0.41765 0.37823
 C777 C 0.75511 0.39827 0.35889
 C778 C 0.75131 0.36974 0.36994
 C779 C 0.72500 0.37083 0.38598
 C780 C 0.72475 0.39020 0.40531
 C781 C 0.77321 0.38573 0.41045
 C782 C 0.77347 0.36634 0.39112
 C783 C 0.75055 0.42746 0.42753
 C784 C 0.75039 0.44460 0.44463
 C785 C 0.75151 0.34889 0.34913
 C786 C 0.75142 0.33176 0.33202
 H787 H 0.75730 0.43883 0.37365
 H788 H 0.75779 0.40285 0.33775
 H789 H 0.70807 0.35753 0.38246
 H790 H 0.70759 0.39351 0.41836
 H791 H 0.78759 0.38613 0.42684
 H792 H 0.78807 0.35015 0.39094
 C793 C 0.09300 0.25080 0.09271
 C794 C 0.08272 0.25969 0.12038
 C795 C 0.10210 0.25992 0.13972
 C796 C 0.12986 0.25125 0.12948
 C797 C 0.13586 0.27001 0.10578
 C798 C 0.11648 0.26978 0.08644
 C799 C 0.10602 0.22326 0.09746
 C800 C 0.12539 0.22350 0.11679
 C801 C 0.07214 0.25055 0.07190
 C802 C 0.05499 0.25040 0.05480
 C803 C 0.15071 0.25143 0.15029
 C804 C 0.16783 0.25132 0.16741
 H805 H 0.06205 0.26530 0.12444
 H806 H 0.09803 0.26575 0.16033
 H807 H 0.15376 0.28239 0.10431
 H808 H 0.11777 0.28195 0.06841
 H809 H 0.10051 0.20517 0.08658
 H810 H 0.13649 0.20561 0.12247
 C811 C 0.59338 0.75105 0.59343
 C812 C 0.58231 0.75492 0.62194
 C813 C 0.60168 0.75514 0.64128
 C814 C 0.63022 0.75147 0.63022
 C815 C 0.63356 0.77374 0.60918
 C816 C 0.61419 0.77352 0.58983
 C817 C 0.60985 0.72502 0.59469
 C818 C 0.62922 0.72524 0.61403
 C819 C 0.57253 0.75082 0.57261
 C820 C 0.55541 0.75067 0.55549
 C821 C 0.65106 0.75163 0.65105
 C822 C 0.66819 0.75151 0.66816
 H823 H 0.56113 0.75727 0.62653
 H824 H 0.59709 0.75769 0.66244
 H825 H 0.64972 0.78838 0.60944
 H826 H 0.61376 0.78798 0.57352
 H827 H 0.60659 0.70792 0.58154
 H828 H 0.64255 0.70833 0.61745
 C829 C 0.09252 0.74928 0.90708
 C830 C 0.09104 0.72484 0.88832
 C831 C 0.11048 0.72461 0.86906
 C832 C 0.12949 0.74884 0.87043
 C833 C 0.14062 0.74869 0.89919
 C834 C 0.12118 0.74892 0.91845
 C835 C 0.09164 0.77377 0.88839
 C836 C 0.11107 0.77355 0.86913
 C837 C 0.07159 0.74952 0.92782
 C838 C 0.05440 0.74966 0.94488
 C839 C 0.15041 0.74867 0.84968
 C840 C 0.16758 0.74877 0.83261
 H841 H 0.07605 0.70909 0.89002
 H842 H 0.11213 0.70867 0.85426
 H843 H 0.16189 0.74843 0.90400
 H844 H 0.12581 0.74886 0.93976
 H845 H 0.07704 0.78989 0.89013
 H846 H 0.11312 0.78947 0.85437
 C847 C 0.59334 0.24894 0.40691
 C848 C 0.61714 0.23047 0.41350
 C849 C 0.63648 0.23018 0.39415
 C850 C 0.63011 0.24839 0.37012
 C851 C 0.62523 0.27631 0.38229
 C852 C 0.60589 0.27659 0.40163
 C853 C 0.58314 0.23936 0.37942
 C854 C 0.60248 0.23908 0.36007
 C855 C 0.57254 0.24924 0.42772
 C856 C 0.55543 0.24942 0.44482
 C857 C 0.65090 0.24817 0.34930
 C858 C 0.66799 0.24824 0.33218
 H859 H 0.61866 0.21866 0.43177
 H860 H 0.65457 0.21813 0.39583
 H861 H 0.63602 0.29427 0.37625
 H862 H 0.60011 0.29479 0.41217
 H863 H 0.56255 0.23334 0.37551
 H864 H 0.59846 0.23281 0.33958
 C865 C 0.90675 0.74935 0.09238
 C866 C 0.89908 0.72102 0.10184
 C867 C 0.87974 0.72080 0.12121
 C868 C 0.86997 0.74893 0.12922
 C869 C 0.86088 0.76205 0.10284
 C870 C 0.88021 0.76227 0.08348
 C871 C 0.91480 0.76446 0.11803
 C872 C 0.89547 0.76424 0.13739
 C873 C 0.92758 0.74957 0.07153
 C874 C 0.94469 0.74971 0.05440
 C875 C 0.84916 0.74877 0.15008
 C876 C 0.83207 0.74889 0.16722
 H877 H 0.90804 0.70274 0.09401
 H878 H 0.87214 0.70234 0.12997
 H879 H 0.84100 0.77043 0.09965
 H880 H 0.87689 0.77083 0.06370
 H881 H 0.93400 0.77445 0.12074
 H882 H 0.89811 0.77405 0.15669
 C883 C 0.40675 0.24903 0.59308
 C884 C 0.39585 0.22085 0.59925
 C885 C 0.37647 0.22061 0.61856
 C886 C 0.36990 0.24856 0.62979
 C887 C 0.36254 0.26557 0.60515
 C888 C 0.38192 0.26581 0.58585
 C889 C 0.41627 0.26008 0.62025
 C890 C 0.39689 0.25984 0.63955
 C891 C 0.42760 0.24929 0.57232
 C892 C 0.44474 0.24945 0.55526
 C893 C 0.34905 0.24838 0.65056
 C894 C 0.33193 0.24850 0.66764
 H895 H 0.40275 0.20269 0.58933
 H896 H 0.36675 0.20224 0.62518
 H897 H 0.34376 0.27645 0.60305
 H898 H 0.37975 0.27690 0.56721
 H899 H 0.43645 0.26745 0.62399
 H900 H 0.40047 0.26700 0.65984
 C901 C 0.90721 0.25090 0.90744
 C902 C 0.91842 0.25091 0.87873
 C903 C 0.89904 0.25117 0.85940
 C904 C 0.87035 0.25140 0.87068
 C905 C 0.86934 0.27581 0.88950
 C906 C 0.88872 0.27555 0.90883
 C907 C 0.88827 0.22661 0.90862
 C908 C 0.86889 0.22686 0.88929
 C909 C 0.92808 0.25063 0.92824
 C910 C 0.94523 0.25046 0.94534
 C911 C 0.84949 0.25159 0.84987
 C912 C 0.83236 0.25148 0.83276
 H913 H 0.93970 0.25074 0.87399
 H914 H 0.90372 0.25122 0.83811
 H915 H 0.85469 0.29187 0.88779
 H916 H 0.89068 0.29139 0.92369
 H917 H 0.88993 0.21061 0.92334
 H918 H 0.85394 0.21109 0.88746
 C919 C 0.40669 0.75111 0.40689
 C920 C 0.37875 0.74329 0.41731
 C921 C 0.35937 0.74353 0.39797
 C922 C 0.36984 0.75155 0.37012
 C923 C 0.39288 0.73192 0.36427
 C924 C 0.41226 0.73168 0.38360
 C925 C 0.40285 0.77866 0.39361
 C926 C 0.38347 0.77890 0.37427
 C927 C 0.42755 0.75085 0.42770
 C928 C 0.44469 0.75069 0.44481
 C929 C 0.34899 0.75172 0.34930
 C930 C 0.33187 0.75160 0.33217
 H931 H 0.37455 0.73804 0.43805
 H932 H 0.33858 0.73848 0.40215
 H933 H 0.39389 0.71931 0.34650
 H934 H 0.42986 0.71887 0.38240
 H935 H 0.41434 0.79643 0.39892
 H936 H 0.37835 0.79686 0.36302
 C937 C 0.09313 0.09265 0.25094
 C938 C 0.08823 0.11538 0.23071
 C939 C 0.10763 0.13469 0.23101
 C940 C 0.13006 0.12937 0.25150
 C941 C 0.14069 0.10126 0.24459
 C942 C 0.12128 0.08195 0.24429
 C943 C 0.09618 0.10674 0.27821
 C944 C 0.11559 0.12604 0.27850
 C945 C 0.07223 0.07186 0.25062
 C946 C 0.05506 0.05477 0.25043
 C947 C 0.15096 0.15016 0.25172
 C948 C 0.16812 0.16726 0.25160
 H949 H 0.07102 0.11625 0.21734
 H950 H 0.10705 0.15208 0.21788
 H951 H 0.16162 0.09689 0.24031
 H952 H 0.12559 0.06106 0.23976
 H953 H 0.08414 0.10197 0.29575
 H954 H 0.12018 0.13781 0.29629
 C955 C 0.59356 0.59304 0.75173
 C956 C 0.59309 0.61138 0.72697
 C957 C 0.61252 0.63065 0.72726
 C958 C 0.63051 0.62969 0.75229
 C959 C 0.64163 0.60094 0.75304
 C960 C 0.62220 0.58167 0.75274
 C961 C 0.59167 0.61214 0.77587
 C962 C 0.61111 0.63141 0.77617
 C963 C 0.57266 0.57231 0.75141
 C964 C 0.55548 0.55527 0.75120
 C965 C 0.65141 0.65042 0.75251
 C966 C 0.66857 0.66748 0.75239
 H967 H 0.57876 0.60941 0.71064
 H968 H 0.61483 0.64519 0.71119
 H969 H 0.66289 0.59614 0.75374
 H970 H 0.62681 0.56035 0.75319
 H971 H 0.57642 0.61065 0.79137
 H972 H 0.61250 0.64644 0.79192
 C973 C 0.90702 0.09269 0.74897
 C974 C 0.91816 0.12141 0.75053
 C975 C 0.89877 0.14073 0.75028
 C976 C 0.87012 0.12945 0.74850
 C977 C 0.86777 0.10988 0.77220
 C978 C 0.88716 0.09056 0.77245
 C979 C 0.88947 0.09227 0.72361
 C980 C 0.87008 0.11160 0.72336
 C981 C 0.92791 0.07189 0.74924
 C982 C 0.94507 0.05480 0.74941
 C983 C 0.84924 0.15026 0.74833
 C984 C 0.83209 0.16736 0.74848
 H985 H 0.93941 0.12615 0.75171
 H986 H 0.90342 0.16202 0.75126
 H987 H 0.85223 0.11108 0.78745
 H988 H 0.88823 0.07522 0.78790
 H989 H 0.89205 0.07805 0.70728
 H990 H 0.85605 0.11393 0.70682
 C991 C 0.40669 0.59305 0.24861
 C992 C 0.38544 0.58953 0.27065
 C993 C 0.36605 0.60884 0.27033
 C994 C 0.36982 0.62976 0.24802
 C995 C 0.37137 0.61343 0.22191
 C996 C 0.39077 0.59412 0.22223
 C997 C 0.41765 0.62160 0.25254
 C998 C 0.39825 0.64091 0.25223
 C999 C 0.42756 0.57228 0.24894
 C1000 C 0.44471 0.55521 0.24914
 C1001 C 0.34895 0.65053 0.24777
 C1002 C 0.33180 0.66759 0.24788
 H1003 H 0.38560 0.57331 0.28521
 H1004 H 0.34960 0.60916 0.28463
 H1005 H 0.35839 0.61674 0.20470
 H1006 H 0.39440 0.58087 0.20528
 H1007 H 0.43877 0.62625 0.25534
 H1008 H 0.40276 0.66210 0.25475
 C1009 C 0.09298 0.90742 0.74891
 C1010 C 0.09781 0.89439 0.77642
 C1011 C 0.11718 0.87506 0.77615
 C1012 C 0.12985 0.87064 0.74839
 C1013 C 0.14001 0.89843 0.73975
 C1014 C 0.12063 0.91777 0.74002
 C1015 C 0.08674 0.88393 0.72991
 C1016 C 0.10612 0.86459 0.72964
 C1017 C 0.07211 0.92824 0.74920
 C1018 C 0.05496 0.94535 0.74939
 C1019 C 0.15072 0.84982 0.74820
 C1020 C 0.16787 0.83272 0.74835
 H1021 H 0.08696 0.89986 0.79452
 H1022 H 0.12293 0.86397 0.79403
 H1023 H 0.16061 0.90256 0.73393
 H1024 H 0.12464 0.93846 0.73443
 H1025 H 0.06869 0.88260 0.71775
 H1026 H 0.10467 0.84670 0.71724
 C1027 C 0.59345 0.40685 0.24854
 C1028 C 0.59796 0.39348 0.27594
 C1029 C 0.61731 0.37413 0.27563
 C1030 C 0.63025 0.37005 0.24796
 C1031 C 0.64055 0.39792 0.23976
 C1032 C 0.62120 0.41728 0.24007
 C1033 C 0.58737 0.38361 0.22919
 C1034 C 0.60672 0.36425 0.22888
 C1035 C 0.57264 0.42766 0.24886
 C1036 C 0.55552 0.44477 0.24907
 C1037 C 0.65106 0.34923 0.24773
 C1038 C 0.66818 0.33212 0.24785
 H1039 H 0.58693 0.39876 0.29399
 H1040 H 0.62285 0.36282 0.29343
 H1041 H 0.66122 0.40209 0.23421
 H1042 H 0.62529 0.43803 0.23478
 H1043 H 0.56945 0.38246 0.21681
 H1044 H 0.60538 0.34652 0.21625
 C1045 C 0.90717 0.90737 0.25100
 C1046 C 0.89976 0.89774 0.27934
 C1047 C 0.88034 0.87844 0.27963
 C1048 C 0.87023 0.87066 0.25156
 C1049 C 0.89552 0.86249 0.23593
 C1050 C 0.91493 0.88178 0.23564
 C1051 C 0.88052 0.91646 0.23843
 C1052 C 0.86111 0.89716 0.23872
 C1053 C 0.92807 0.92816 0.25069
 C1054 C 0.94524 0.94525 0.25049
 C1055 C 0.84931 0.84988 0.25178
 C1056 C 0.83213 0.83281 0.25166
 H1057 H 0.90896 0.90540 0.29757
 H1058 H 0.87291 0.86958 0.29810
 H1059 H 0.89796 0.84324 0.22597
 H1060 H 0.93400 0.87906 0.22543
 H1061 H 0.87719 0.93631 0.23003
 H1062 H 0.84115 0.90049 0.23057
 C1063 C 0.40663 0.40701 0.75151
 C1064 C 0.39005 0.40653 0.77750
 C1065 C 0.37066 0.38721 0.77775
 C1066 C 0.36976 0.37029 0.75199
 C1067 C 0.39830 0.35907 0.74877
 C1068 C 0.41769 0.37839 0.74852
 C1069 C 0.38593 0.41001 0.72886
 C1070 C 0.36654 0.39069 0.72911
 C1071 C 0.42749 0.42779 0.75124
 C1072 C 0.44463 0.44487 0.75108
 C1073 C 0.34890 0.34951 0.75216
 C1074 C 0.33175 0.33245 0.75199
 H1075 H 0.39326 0.42015 0.79423
 H1076 H 0.35726 0.38428 0.79469
 H1077 H 0.40287 0.33783 0.74686
 H1078 H 0.43888 0.37370 0.74640
 H1079 H 0.38645 0.42589 0.71394
 H1080 H 0.35045 0.39003 0.71440
 C1081 C 0.09288 0.24990 0.90639
 C1082 C 0.11927 0.23686 0.91557
 C1083 C 0.13868 0.23667 0.89629
 C1084 C 0.12979 0.24955 0.86973
 C1085 C 0.12023 0.27786 0.87736
 C1086 C 0.10082 0.27804 0.89664
 C1087 C 0.08480 0.23455 0.88089
 C1088 C 0.10421 0.23437 0.86161
 C1089 C 0.07200 0.25009 0.92714
 C1090 C 0.05486 0.25019 0.94421
 C1091 C 0.15068 0.24939 0.84900
 C1092 C 0.16785 0.24932 0.83195
 H1093 H 0.12243 0.22850 0.93545
 H1094 H 0.15847 0.22816 0.89966
 H1095 H 0.12802 0.29615 0.86841
 H1096 H 0.09197 0.29649 0.90420
 H1097 H 0.06552 0.22470 0.87820
 H1098 H 0.10158 0.22436 0.84241
 C1099 C 0.59349 0.74999 0.40690
 C1100 C 0.61929 0.73540 0.41540
 C1101 C 0.63867 0.73523 0.39608
 C1102 C 0.63036 0.74965 0.37013
 C1103 C 0.62205 0.77798 0.37906
 C1104 C 0.60267 0.77816 0.39838
 C1105 C 0.58474 0.73616 0.38075
 C1106 C 0.60412 0.73598 0.36143
 C1107 C 0.57261 0.75018 0.42771
 C1108 C 0.55546 0.75030 0.44481
 C1109 C 0.65123 0.74950 0.34932
 C1110 C 0.66836 0.74945 0.33221
 H1111 H 0.62210 0.72604 0.43489
 H1112 H 0.65807 0.72570 0.39902
 H1113 H 0.63063 0.79630 0.37091
 H1114 H 0.59466 0.79662 0.40678
 H1115 H 0.56505 0.72729 0.37768
 H1116 H 0.60103 0.72695 0.34182
 C1117 C 0.90754 0.75035 0.90710
 C1118 C 0.91794 0.75796 0.87910
 C1119 C 0.89848 0.75812 0.85985
 C1120 C 0.87052 0.75067 0.87048
 C1121 C 0.86522 0.77041 0.89356
 C1122 C 0.88469 0.77025 0.91282
 C1123 C 0.89366 0.72308 0.90333
 C1124 C 0.87420 0.72324 0.88408
 C1125 C 0.92850 0.75017 0.92782
 C1126 C 0.94570 0.75006 0.94487
 C1127 C 0.84957 0.75081 0.84975
 C1128 C 0.83238 0.75086 0.83270
 H1129 H 0.93876 0.76279 0.87477
 H1130 H 0.90262 0.76310 0.83903
 H1131 H 0.84773 0.78338 0.89469
 H1132 H 0.88386 0.78308 0.93044
 H1133 H 0.89867 0.70521 0.91477
 H1134 H 0.86254 0.70551 0.87904
 C1135 C 0.40682 0.25007 0.40671
 C1136 C 0.37811 0.25048 0.41795
 C1137 C 0.35876 0.25065 0.39859
 C1138 C 0.37000 0.25039 0.36989
 C1139 C 0.38841 0.22568 0.36872
 C1140 C 0.40777 0.22552 0.38808
 C1141 C 0.40838 0.27445 0.38791
 C1142 C 0.38902 0.27462 0.36855
 C1143 C 0.42766 0.24989 0.42755
 C1144 C 0.44478 0.24978 0.44467
 C1145 C 0.34915 0.25055 0.34906
 C1146 C 0.33200 0.25062 0.33196
 H1147 H 0.37341 0.25061 0.43923
 H1148 H 0.33747 0.25093 0.40329
 H1149 H 0.38642 0.20973 0.35398
 H1150 H 0.42235 0.20941 0.38992
 H1151 H 0.42337 0.29020 0.38964
 H1152 H 0.38743 0.29051 0.35370
 C1153 C 0.09330 0.75024 0.09246
 C1154 C 0.08342 0.76082 0.11968
 C1155 C 0.10276 0.76096 0.13906
 C1156 C 0.13008 0.75050 0.12933
 C1157 C 0.13703 0.76789 0.10485
 C1158 C 0.11769 0.76775 0.08546
 C1159 C 0.10495 0.72233 0.09846
 C1160 C 0.12429 0.72247 0.11784
 C1161 C 0.07249 0.75008 0.07159
 C1162 C 0.05538 0.74999 0.05445
 C1163 C 0.15089 0.75062 0.15019
 C1164 C 0.16800 0.75066 0.16732
 H1165 H 0.06304 0.76761 0.12340
 H1166 H 0.09894 0.76788 0.15939
 H1167 H 0.15550 0.77932 0.10291
 H1168 H 0.11961 0.77905 0.06692
 H1169 H 0.09858 0.70407 0.08838
 H1170 H 0.13447 0.70432 0.12436
 C1171 C 0.59341 0.25016 0.59342
 C1172 C 0.58331 0.25983 0.62090
 C1173 C 0.60267 0.26001 0.64026
 C1174 C 0.63023 0.25051 0.63024
 C1175 C 0.63668 0.26867 0.60617
 C1176 C 0.61731 0.26848 0.58682
 C1177 C 0.60580 0.22244 0.59874
 C1178 C 0.62516 0.22262 0.61809
 C1179 C 0.57256 0.24996 0.57258
 C1180 C 0.55544 0.24984 0.55546
 C1181 C 0.65108 0.25067 0.65107
 C1182 C 0.66822 0.25073 0.66817
 H1183 H 0.56276 0.26598 0.62482
 H1184 H 0.59871 0.26633 0.66075
 H1185 H 0.65484 0.28062 0.60449
 H1186 H 0.61889 0.28027 0.56855
 H1187 H 0.59989 0.20426 0.58823
 H1188 H 0.63583 0.20460 0.62416
 C1189 C 0.90643 0.24946 0.09282
 C1190 C 0.90042 0.22132 0.10389
 C1191 C 0.88108 0.22108 0.12324
 C1192 C 0.86965 0.24900 0.12961
 C1193 C 0.85986 0.26001 0.10253
 C1194 C 0.87920 0.26026 0.08318
 C1195 C 0.91351 0.26647 0.11755
 C1196 C 0.89416 0.26623 0.13689
 C1197 C 0.92724 0.24972 0.07200
 C1198 C 0.94433 0.24990 0.05488
 C1199 C 0.84883 0.24878 0.15042
 C1200 C 0.83172 0.24868 0.16752
 H1201 H 0.91048 0.20319 0.09714
 H1202 H 0.87456 0.20274 0.13306
 H1203 H 0.83953 0.26701 0.09887
 H1204 H 0.87545 0.26746 0.06295
 H1205 H 0.93207 0.27772 0.11968
 H1206 H 0.89616 0.27727 0.15560
 C1207 C 0.40671 0.75000 0.59347
 C1208 C 0.39681 0.72172 0.60078
 C1209 C 0.37746 0.72155 0.62013
 C1210 C 0.36988 0.74966 0.63028
 C1211 C 0.36192 0.76541 0.60500
 C1212 C 0.38128 0.76559 0.58565
 C1213 C 0.41582 0.76245 0.62018
 C1214 C 0.39647 0.76227 0.63952
 C1215 C 0.42755 0.75019 0.57263
 C1216 C 0.44468 0.75031 0.55551
 C1217 C 0.34903 0.74951 0.65111
 C1218 C 0.33188 0.74944 0.66821
 H1219 H 0.40435 0.70345 0.59157
 H1220 H 0.36841 0.70312 0.62748
 H1221 H 0.34277 0.77553 0.60251
 H1222 H 0.37870 0.77587 0.56660
 H1223 H 0.43573 0.77068 0.62359
 H1224 H 0.39980 0.77035 0.65951
 C1225 C 0.24941 0.09302 0.90635
 C1226 C 0.27202 0.09003 0.88562
 C1227 C 0.27184 0.10946 0.86636
 C1228 C 0.24906 0.12997 0.86972
 C1229 C 0.25238 0.14100 0.89832
 C1230 C 0.25256 0.12157 0.91758
 C1231 C 0.22340 0.09375 0.88979
 C1232 C 0.22322 0.11318 0.87053
 C1233 C 0.24960 0.07213 0.92708
 C1234 C 0.24972 0.05497 0.94413
 C1235 C 0.24891 0.15088 0.84900
 C1236 C 0.24886 0.16805 0.83196
 H1237 H 0.28685 0.07404 0.88602
 H1238 H 0.28652 0.11012 0.85026
 H1239 H 0.25439 0.16220 0.90304
 H1240 H 0.25473 0.12612 0.93880
 H1241 H 0.20661 0.08019 0.89291
 H1242 H 0.20627 0.11627 0.85714
 C1243 C 0.74987 0.59333 0.40662
 C1244 C 0.77795 0.60384 0.39945
 C1245 C 0.77779 0.62320 0.38011
 C1246 C 0.74956 0.63018 0.36983
 C1247 C 0.73353 0.63778 0.39504
 C1248 C 0.73369 0.61841 0.41438
 C1249 C 0.73774 0.58396 0.37985
 C1250 C 0.73758 0.60332 0.36052
 C1251 C 0.75004 0.57247 0.42745
 C1252 C 0.75015 0.55535 0.44458
 C1253 C 0.74942 0.65104 0.34901
 C1254 C 0.74938 0.66820 0.33192
 H1255 H 0.79634 0.59669 0.40873
 H1256 H 0.79605 0.63264 0.37284
 H1257 H 0.72297 0.65670 0.39748
 H1258 H 0.72327 0.62075 0.43338
 H1259 H 0.72997 0.56387 0.37639
 H1260 H 0.72965 0.59983 0.34050
 C1261 C 0.75033 0.09238 0.09311
 C1262 C 0.76855 0.08584 0.11712
 C1263 C 0.76868 0.10528 0.13641
 C1264 C 0.75057 0.12934 0.12980
 C1265 C 0.72269 0.11720 0.12466
 C1266 C 0.72256 0.09778 0.10537
 C1267 C 0.76005 0.11982 0.08296
 C1268 C 0.76017 0.13925 0.10225
 C1269 C 0.75019 0.07147 0.07234
 C1270 C 0.75011 0.05431 0.05526
 C1271 C 0.75067 0.15026 0.15056
 C1272 C 0.75069 0.16745 0.16762
 H1273 H 0.78033 0.06756 0.11881
 H1274 H 0.78056 0.10364 0.15462
 H1275 H 0.70463 0.12332 0.13524
 H1276 H 0.70440 0.08725 0.09943
 H1277 H 0.76630 0.12365 0.06243
 H1278 H 0.76654 0.15972 0.09824
 C1279 C 0.25044 0.59342 0.59331
 C1280 C 0.26946 0.58726 0.61679
 C1281 C 0.26961 0.60661 0.63616
 C1282 C 0.25071 0.63023 0.63015
 C1283 C 0.22302 0.61739 0.62570
 C1284 C 0.22288 0.59804 0.60633
 C1285 C 0.25917 0.62114 0.58303
 C1286 C 0.25931 0.64049 0.60239
 C1287 C 0.25028 0.57259 0.57246
 C1288 C 0.25017 0.55548 0.55532
 C1289 C 0.25082 0.65106 0.65100
 C1290 C 0.25083 0.66820 0.66811
 H1291 H 0.28175 0.56929 0.61808
 H1292 H 0.28201 0.60522 0.65404
 H1293 H 0.20511 0.62300 0.63679
 H1294 H 0.20485 0.58707 0.60083
 H1295 H 0.26476 0.62521 0.56235
 H1296 H 0.26503 0.66113 0.59831
 C1297 C 0.75064 0.90667 0.90769
 C1298 C 0.75884 0.91712 0.87989
 C1299 C 0.75903 0.89777 0.86051
 C1300 C 0.75099 0.86986 0.87085
 C1301 C 0.72341 0.87386 0.88404
 C1302 C 0.72323 0.89321 0.90341
 C1303 C 0.77010 0.88348 0.91358
 C1304 C 0.77029 0.86413 0.89421
 C1305 C 0.75043 0.92749 0.92855
 C1306 C 0.75029 0.94461 0.94568
 C1307 C 0.75115 0.84904 0.85000
 C1308 C 0.75120 0.83192 0.83287
 H1309 H 0.76405 0.93790 0.87577
 H1310 H 0.76439 0.90197 0.83981
 H1311 H 0.70560 0.86250 0.87863
 H1312 H 0.70525 0.89842 0.91459
 H1313 H 0.78264 0.88237 0.93139
 H1314 H 0.78299 0.84645 0.89542
 C1315 C 0.25044 0.40673 0.40668
 C1316 C 0.26263 0.41604 0.37995
 C1317 C 0.26278 0.39665 0.36063
 C1318 C 0.25073 0.36984 0.36993
 C1319 C 0.22250 0.37688 0.38013
 C1320 C 0.22235 0.39627 0.39945
 C1321 C 0.26656 0.38164 0.41450
 C1322 C 0.26671 0.36224 0.39518
 C1323 C 0.25027 0.42761 0.42749
 C1324 C 0.25017 0.44476 0.44459
 C1325 C 0.25086 0.34896 0.34914
 C1326 C 0.25089 0.33181 0.33204
 H1327 H 0.27046 0.43610 0.37650
 H1328 H 0.27074 0.40009 0.34063
 H1329 H 0.20424 0.36746 0.37282
 H1330 H 0.20396 0.40347 0.40869
 H1331 H 0.27695 0.37931 0.43354
 H1332 H 0.27723 0.34329 0.39766
 C1333 C 0.24943 0.90646 0.09267
 C1334 C 0.23755 0.91598 0.11948
 C1335 C 0.23739 0.89665 0.13884
 C1336 C 0.24911 0.86971 0.12949
 C1337 C 0.27732 0.87645 0.11905
 C1338 C 0.27749 0.89578 0.09968
 C1339 C 0.23302 0.88148 0.08503
 C1340 C 0.23285 0.86216 0.10440
 C1341 C 0.24961 0.92725 0.07183
 C1342 C 0.24972 0.94434 0.05470
 C1343 C 0.24897 0.84891 0.15032
 C1344 C 0.24894 0.83180 0.16743
 H1345 H 0.22995 0.93612 0.12294
 H1346 H 0.22963 0.90023 0.15890
 H1347 H 0.29556 0.86690 0.12623
 H1348 H 0.29587 0.90278 0.09028
 H1349 H 0.22246 0.87919 0.06609
 H1350 H 0.22214 0.84330 0.10206
 C1351 C 0.74975 0.40665 0.59330
 C1352 C 0.74092 0.41697 0.62098
 C1353 C 0.74076 0.39762 0.64034
 C1354 C 0.74945 0.36985 0.63013
 C1355 C 0.77716 0.37433 0.61739
 C1356 C 0.77732 0.39367 0.59803
 C1357 C 0.73080 0.38312 0.58710
 C1358 C 0.73064 0.36378 0.60646
 C1359 C 0.74994 0.42748 0.57245
 C1360 C 0.75006 0.44460 0.55532
 C1361 C 0.74932 0.34901 0.65098
 C1362 C 0.74929 0.33189 0.66810
 H1363 H 0.73527 0.43764 0.62502
 H1364 H 0.73497 0.40173 0.66095
 H1365 H 0.79509 0.36329 0.62308
 H1366 H 0.79538 0.39919 0.58714
 H1367 H 0.71856 0.38178 0.56909
 H1368 H 0.71826 0.34587 0.60503
 C1369 C 0.09274 0.09388 0.75016
 C1370 C 0.09695 0.10745 0.72282
 C1371 C 0.11635 0.12675 0.72306
 C1372 C 0.12964 0.13058 0.75063
 C1373 C 0.13996 0.10261 0.75848
 C1374 C 0.12056 0.08331 0.75824
 C1375 C 0.08695 0.11697 0.76977
 C1376 C 0.10636 0.13628 0.77001
 C1377 C 0.07187 0.07310 0.74991
 C1378 C 0.05474 0.05601 0.74977
 C1379 C 0.15051 0.15134 0.75085
 C1380 C 0.16767 0.16841 0.75093
 H1381 H 0.08569 0.10235 0.70485
 H1382 H 0.12171 0.13819 0.70530
 H1383 H 0.16069 0.09834 0.76376
 H1384 H 0.12466 0.06250 0.76330
 H1385 H 0.06918 0.11807 0.78234
 H1386 H 0.10521 0.15391 0.78280
 C1387 C 0.59329 0.59360 0.25007
 C1388 C 0.59819 0.60650 0.22251
 C1389 C 0.61751 0.62589 0.22278
 C1390 C 0.63005 0.63050 0.25058
 C1391 C 0.64025 0.60278 0.25942
 C1392 C 0.62093 0.58338 0.25915
 C1393 C 0.58690 0.61718 0.26891
 C1394 C 0.60623 0.63657 0.26917
 C1395 C 0.57248 0.57270 0.24979
 C1396 C 0.55540 0.55553 0.24962
 C1397 C 0.65087 0.65138 0.25082
 C1398 C 0.66799 0.66851 0.25092
 H1399 H 0.58744 0.60089 0.20438
 H1400 H 0.62331 0.63689 0.20487
 H1401 H 0.66085 0.59873 0.26536
 H1402 H 0.62498 0.56273 0.26486
 H1403 H 0.56879 0.61852 0.28097
 H1404 H 0.60467 0.65452 0.28147
 C1405 C 0.09286 0.90623 0.24939
 C1406 C 0.10148 0.89696 0.27749
 C1407 C 0.12085 0.87763 0.27719
 C1408 C 0.12971 0.86948 0.24880
 C1409 C 0.13832 0.89579 0.23526
 C1410 C 0.11894 0.91512 0.23557
 C1411 C 0.08438 0.88048 0.23469
 C1412 C 0.10375 0.86115 0.23438
 C1413 C 0.07202 0.92703 0.24971
 C1414 C 0.05490 0.94413 0.24991
 C1415 C 0.15056 0.84869 0.24852
 C1416 C 0.16770 0.83161 0.24841
 H1417 H 0.09311 0.90488 0.29600
 H1418 H 0.12908 0.86898 0.29544
 H1419 H 0.15791 0.89897 0.22623
 H1420 H 0.12193 0.93486 0.22681
 H1421 H 0.06486 0.87767 0.22536
 H1422 H 0.10084 0.84178 0.22478
 C1423 C 0.59329 0.40661 0.75017
 C1424 C 0.60055 0.39600 0.77819
 C1425 C 0.61991 0.37664 0.77791
 C1426 C 0.63012 0.36978 0.74964
 C1427 C 0.63938 0.39668 0.73777
 C1428 C 0.62002 0.41604 0.73805
 C1429 C 0.58551 0.38158 0.73390
 C1430 C 0.60487 0.36222 0.73362
 C1431 C 0.57245 0.42747 0.75046
 C1432 C 0.55533 0.44461 0.75064
 C1433 C 0.65097 0.34893 0.74939
 C1434 C 0.66811 0.33181 0.74927
 H1435 H 0.59131 0.40307 0.79663
 H1436 H 0.62724 0.36713 0.79611
 H1437 H 0.65938 0.40021 0.72984
 H1438 H 0.62345 0.43616 0.73037
 H1439 H 0.56647 0.37927 0.72352
 H1440 H 0.60241 0.34333 0.72300
 C1441 C 0.90648 0.09284 0.24950
 C1442 C 0.89531 0.09953 0.27743
 C1443 C 0.87599 0.11892 0.27715
 C1444 C 0.86974 0.12970 0.24896
 C1445 C 0.86247 0.10480 0.23228
 C1446 C 0.88179 0.08542 0.23256
 C1447 C 0.91620 0.11979 0.23811
 C1448 C 0.89688 0.13918 0.23783
 C1449 C 0.92726 0.07199 0.24979
 C1450 C 0.94435 0.05485 0.24997
 C1451 C 0.84895 0.15056 0.24870
 C1452 C 0.83187 0.16769 0.24860
 H1453 H 0.90198 0.08990 0.29582
 H1454 H 0.86612 0.12589 0.29530
 H1455 H 0.84380 0.10259 0.22121
 H1456 H 0.87967 0.06659 0.22174
 H1457 H 0.93646 0.12333 0.23090
 H1458 H 0.90059 0.15933 0.23037
 C1459 C 0.40676 0.59357 0.75020
 C1460 C 0.39064 0.59529 0.77641
 C1461 C 0.37130 0.61466 0.77613
 C1462 C 0.36995 0.63042 0.74967
 C1463 C 0.36629 0.60899 0.72779
 C1464 C 0.38564 0.58962 0.72807
 C1465 C 0.41781 0.62201 0.74573
 C1466 C 0.39846 0.64138 0.74546
 C1467 C 0.42760 0.57271 0.75048
 C1468 C 0.44472 0.55556 0.75066
 C1469 C 0.34911 0.65127 0.74942
 C1470 C 0.33197 0.66839 0.74931
 H1471 H 0.39411 0.58244 0.79367
 H1472 H 0.35820 0.61839 0.79316
 H1473 H 0.34994 0.60902 0.71335
 H1474 H 0.38586 0.57306 0.71387
 H1475 H 0.43897 0.62654 0.74303
 H1476 H 0.40305 0.66249 0.74251
 C1477 C 0.90664 0.90699 0.75061
 C1478 C 0.89957 0.89713 0.77895
 C1479 C 0.88033 0.87767 0.77929
 C1480 C 0.87005 0.86999 0.75125
 C1481 C 0.89526 0.86212 0.73536
 C1482 C 0.91450 0.88158 0.73502
 C1483 C 0.87981 0.91594 0.73832
 C1484 C 0.86057 0.89648 0.73866
 C1485 C 0.92734 0.92793 0.75026
 C1486 C 0.94436 0.94513 0.75003
 C1487 C 0.84933 0.84906 0.75157
 C1488 C 0.83227 0.83190 0.75170
 H1489 H 0.90887 0.90477 0.79715
 H1490 H 0.87314 0.86863 0.79777
 H1491 H 0.89778 0.84295 0.72526
 H1492 H 0.93350 0.87909 0.72463
 H1493 H 0.87625 0.93581 0.73008
 H1494 H 0.84052 0.89968 0.73071
 C1495 C 0.40687 0.40655 0.25007
 C1496 C 0.38438 0.41186 0.27049
 C1497 C 0.36503 0.39249 0.27077
 C1498 C 0.37005 0.36971 0.25059
 C1499 C 0.39822 0.35912 0.25735
 C1500 C 0.41757 0.37849 0.25707
 C1501 C 0.39245 0.40309 0.22304
 C1502 C 0.37310 0.38372 0.22331
 C1503 C 0.42771 0.42741 0.24979
 C1504 C 0.44483 0.44455 0.24961
 C1505 C 0.34921 0.34886 0.25084
 C1506 C 0.33208 0.33173 0.25094
 H1507 H 0.38372 0.42929 0.28358
 H1508 H 0.34780 0.39334 0.28409
 H1509 H 0.40258 0.33826 0.26194
 H1510 H 0.43850 0.37421 0.26143
 H1511 H 0.39703 0.41481 0.20524
 H1512 H 0.36112 0.37887 0.20574
   
