data_POSCAR
  _audit_creation_date              2014-09-24
  _audit_creation_method            'ToBaCCo'
  _symmetry_space_group_name_H-M    'P1'
  _symmetry_Int_Tables_number       1
  _symmetry_cell_setting            triclinic
  loop_
  _symmetry_equiv_pos_as_xyz
 x,y,z
_cell_length_a 72.3291
_cell_length_b 71.6524
_cell_length_c 72.8637
_cell_angle_alpha 90.011100
_cell_angle_beta 89.977000
_cell_angle_gamma 90.076700
loop_
  _atom_site_label
  _atom_site_type_symbol
  _atom_site_fract_x
  _atom_site_fract_y
  _atom_site_fract_z
C1 C 0.35751 0.33518 0.33524
 N2 N 0.34975 0.35050 0.32751
 C3 C 0.33446 0.35827 0.33513
 N4 N 0.32686 0.35062 0.35041
 C5 C 0.33462 0.33529 0.35815
 N6 N 0.34991 0.32753 0.35053
 C7 C 0.35935 0.83598 -0.16408
 N8 N 0.35145 0.85127 -0.17177
 C9 C 0.33616 0.85894 -0.16407
 N10 N 0.32866 0.85122 -0.14877
 C11 C 0.33656 0.83593 -0.14108
 N12 N 0.35185 0.82827 -0.14878
 C13 C 0.85724 0.33530 -0.16575
 N14 N 0.84938 0.35057 -0.17350
 C15 C 0.83404 0.35825 -0.16588
 N16 N 0.82650 0.35058 -0.15058
 C17 C 0.83436 0.33530 -0.14284
 N18 N 0.84969 0.32763 -0.15046
 C19 C 0.85867 0.83578 0.33523
 N20 N 0.85070 0.85100 0.32751
 C21 C 0.83545 0.85869 0.33527
 N22 N 0.82808 0.85107 0.35068
 C23 C 0.83606 0.83585 0.35841
 N24 N 0.85131 0.82816 0.35064
 C25 C 0.64345 0.66655 0.33498
 N26 N 0.65127 0.65120 0.32733
 C27 C 0.66660 0.64356 0.33498
 N28 N 0.67418 0.65135 0.35020
 C29 C 0.66636 0.66670 0.35785
 N30 N 0.65103 0.67433 0.35020
 C31 C 0.64257 0.16703 -0.16613
 N32 N 0.65047 0.15170 -0.17372
 C33 C 0.66582 0.14414 -0.16603
 N34 N 0.67332 0.15198 -0.15080
 C35 C 0.66543 0.16732 -0.14321
 N36 N 0.65008 0.17488 -0.15090
 C37 C 0.14205 0.66451 -0.16323
 N38 N 0.14958 0.64886 -0.17058
 C39 C 0.16475 0.64107 -0.16279
 N40 N 0.17248 0.64900 -0.14771
 C41 C 0.16495 0.66465 -0.14035
 N42 N 0.14978 0.67244 -0.14815
 C43 C 0.14248 0.16572 0.33541
 N44 N 0.15015 0.15015 0.32803
 C45 C 0.16536 0.14246 0.33585
 N46 N 0.17297 0.15039 0.35098
 C47 C 0.16531 0.16595 0.35836
 N48 N 0.15009 0.17365 0.35055
 C49 C 0.64189 0.33411 0.66404
 N50 N 0.64970 0.34944 0.67178
 C51 C 0.66517 0.35702 0.66432
 N52 N 0.67290 0.34921 0.64919
 C53 C 0.66509 0.33388 0.64145
 N54 N 0.64962 0.32630 0.64891
 C55 C 0.64163 0.83336 1.16420
 N56 N 0.64925 0.84899 1.17154
 C57 C 0.66442 0.85678 1.16368
 N58 N 0.67203 0.84888 1.14854
 C59 C 0.66442 0.83325 1.14119
 N60 N 0.64925 0.82546 1.14905
 C61 C 0.14148 0.33257 1.16463
 N62 N 0.14904 0.34824 1.17194
 C63 C 0.16417 0.35607 1.16405
 N64 N 0.17181 0.34818 1.14892
 C65 C 0.16425 0.33252 1.14160
 N66 N 0.14912 0.32468 1.14949
 C67 C 0.14130 0.83553 0.66316
 N68 N 0.14904 0.85098 0.67073
 C69 C 0.16449 0.85854 0.66320
 N70 N 0.17227 0.85058 0.64817
 C71 C 0.16454 0.83513 0.64060
 N72 N 0.14909 0.82757 0.64813
 C73 C 0.35932 0.66372 0.66353
 N74 N 0.35155 0.64839 0.67128
 C75 C 0.33610 0.64076 0.66385
 N76 N 0.32834 0.64853 0.64872
 C77 C 0.33611 0.66387 0.64096
 N78 N 0.35157 0.67151 0.64840
 C79 C 0.35764 0.16593 1.16578
 N80 N 0.34988 0.15057 1.17351
 C81 C 0.33463 0.14272 1.16587
 N82 N 0.32707 0.15030 1.15056
 C83 C 0.33482 0.16566 1.14282
 N84 N 0.35007 0.17351 1.15046
 C85 C 0.85644 0.66767 1.16654
 N86 N 0.84874 0.65227 1.17425
 C87 C 0.83350 0.64439 1.16661
 N88 N 0.82591 0.65198 1.15131
 C89 C 0.83360 0.66738 1.14360
 N90 N 0.84884 0.67525 1.15123
 C91 C 0.85780 0.16381 0.66427
 N92 N 0.84983 0.14862 0.67210
 C93 C 0.83430 0.14114 0.66470
 N94 N 0.82666 0.14892 0.64951
 C95 C 0.83463 0.16411 0.64167
 N96 N 0.85017 0.17160 0.64909
 C97 C 0.33570 0.35884 0.66441
 N98 N 0.35104 0.35113 0.67195
 C99 C 0.35870 0.33570 0.66431
 N100 N 0.35094 0.32790 0.64918
 C101 C 0.33560 0.33561 0.64163
 N102 N 0.32794 0.35104 0.64928
 C103 C 0.33551 0.85859 0.16491
 N104 N 0.35067 0.85079 0.17271
 C105 C 0.35832 0.83526 0.16523
 N106 N 0.35073 0.82747 0.15001
 C107 C 0.33556 0.83528 0.14221
 N108 N 0.32792 0.85080 0.14970
 C109 C 0.83495 0.35612 0.16562
 N110 N 0.85014 0.34825 0.17329
 C111 C 0.85781 0.33284 0.16560
 N112 N 0.85021 0.32524 0.15030
 C113 C 0.83501 0.33311 0.14263
 N114 N 0.82735 0.34852 0.15032
 C115 C 0.83467 0.85701 0.66664
 N116 N 0.84998 0.84920 0.67415
 C117 C 0.85772 0.83392 0.66628
 N118 N 0.85009 0.82640 0.65096
 C119 C 0.83479 0.83422 0.64344
 N120 N 0.82705 0.84949 0.65131
 C121 C 0.66528 0.64390 0.66460
 N122 N 0.64988 0.65151 0.67215
 C123 C 0.64208 0.66684 0.66446
 N124 N 0.64974 0.67462 0.64927
 C125 C 0.66513 0.66702 0.64172
 N126 N 0.67294 0.65169 0.64941
 C127 C 0.66411 0.14249 0.16316
 N128 N 0.64894 0.15024 0.17102
 C129 C 0.64136 0.16587 0.16371
 N130 N 0.64900 0.17380 0.14859
 C131 C 0.66417 0.16604 0.14073
 N132 N 0.67175 0.15042 0.14805
 C133 C 0.16404 0.64299 0.16364
 N134 N 0.17176 0.65094 0.14857
 C135 C 0.16422 0.66657 0.14122
 N136 N 0.14902 0.67432 0.14901
 C137 C 0.14129 0.66638 0.16409
 N138 N 0.14884 0.65075 0.17144
 C139 C 0.16553 0.14252 0.66490
 N140 N 0.17314 0.15043 0.64975
 C141 C 0.16548 0.16599 0.64237
 N142 N 0.15027 0.17370 0.65019
 C143 C 0.14265 0.16578 0.66533
 N144 N 0.15031 0.15022 0.67272
 C145 C 0.33459 0.64191 0.33467
 N146 N 0.34989 0.64973 0.32709
 C147 C 0.35765 0.66505 0.33488
 N148 N 0.35004 0.67263 0.35018
 C149 C 0.33474 0.66482 0.35776
 N150 N 0.32697 0.64950 0.34997
 C151 C 0.33693 0.13988 0.83685
 N152 N 0.35241 0.14753 0.82950
 C153 C 0.36016 0.16283 0.83736
 N154 N 0.35234 0.17055 0.85249
 C155 C 0.33685 0.16290 0.85984
 N156 N 0.32910 0.14760 0.85198
 C157 C 0.83595 0.64275 0.83488
 N158 N 0.85118 0.65064 0.82723
 C159 C 0.85910 0.66580 0.83516
 N160 N 0.85174 0.67314 0.85069
 C161 C 0.83651 0.66525 0.85834
 N162 N 0.82859 0.65009 0.85041
 C163 C 0.83452 0.14092 0.33508
 N164 N 0.82690 0.14859 0.35034
 C165 C 0.83473 0.16388 0.35812
 N166 N 0.85010 0.17159 0.35056
 C167 C 0.85771 0.16392 0.33531
 N168 N 0.84989 0.14863 0.32753
 C169 C 0.66651 0.35633 0.33464
 N170 N 0.65116 0.34880 0.32689
 C171 C 0.64319 0.33346 0.33443
 N172 N 0.65063 0.32558 0.34966
 C173 C 0.66598 0.33311 0.35742
 N174 N 0.67395 0.34846 0.34988
 C175 C 0.66247 0.85971 0.83856
 N176 N 0.64708 0.85233 0.83076
 C177 C 0.63912 0.83688 0.83809
 N178 N 0.64665 0.82870 0.85313
 C179 C 0.66204 0.83609 0.86093
 N180 N 0.67000 0.85154 0.85359
 C181 C 0.16451 0.35683 0.83632
 N182 N 0.17214 0.34879 0.85137
 C183 C 0.16448 0.33315 0.85863
 N184 N 0.14925 0.32549 0.85076
 C185 C 0.14163 0.33352 0.83570
 N186 N 0.14929 0.34917 0.82845
 C187 C 0.16513 0.85752 0.33618
 N188 N 0.14991 0.84977 0.32838
 C189 C 0.14229 0.83416 0.33574
 N190 N 0.14994 0.82623 0.35083
 C191 C 0.16516 0.83397 0.35863
 N192 N 0.17278 0.84959 0.35128
 O193 O 0.22669 0.98236 0.25327
 O194 O 0.25166 1.01898 0.22787
 O195 O 0.25172 0.98257 0.22763
 O196 O 0.22663 1.01875 0.25344
 O197 O 0.24858 1.01870 0.27457
 O198 O 0.27367 0.98251 0.24875
 O199 O 0.27361 1.01893 0.24899
 O200 O 0.24864 0.98230 0.27440
 Cu201 Cu 0.23696 1.00066 0.23842
 Cu202 Cu 0.26334 1.00059 0.26381
 C203 C 0.23348 0.97610 0.26809
 C204 C 0.26678 1.02522 0.23421
 C205 C 0.26689 0.97638 0.23387
 C206 C 0.23342 1.02490 0.26831
 O207 O 0.25150 0.51819 0.72829
 O208 O 0.22643 0.48168 0.75376
 O209 O 0.22637 0.51809 0.75385
 O210 O 0.25155 0.48182 0.72821
 O211 O 0.27343 0.48184 0.74942
 O212 O 0.24825 0.51809 0.77505
 O213 O 0.24830 0.48170 0.77496
 O214 O 0.27338 0.51821 0.74949
 Cu215 Cu 0.23675 0.49995 0.73889
 Cu216 Cu 0.26304 0.49997 0.76437
 C217 C 0.26665 0.52439 0.73461
 C218 C 0.23317 0.47547 0.76861
 C219 C 0.23309 0.52425 0.76874
 C220 C 0.26671 0.47568 0.73452
 O221 O 0.75025 -0.01883 0.27148
 O222 O 0.72520 0.01748 0.24584
 O223 O 0.72523 -0.01894 0.24587
 O224 O 0.75021 0.01756 0.27144
 O225 O 0.77217 0.01758 0.25030
 O226 O 0.74719 -0.01891 0.22474
 O227 O 0.74716 0.01750 0.22471
 O228 O 0.77221 -0.01881 0.25034
 Cu229 Cu 0.73550 -0.00069 0.26079
 Cu230 Cu 0.76190 -0.00066 0.23539
 C231 C 0.76542 -0.02501 0.26519
 C232 C 0.73201 0.02370 0.23100
 C233 C 0.73204 -0.02515 0.23104
 C234 C 0.76536 0.02380 0.26514
 O235 O 0.74820 0.48224 0.72585
 O236 O 0.77354 0.51863 0.75118
 O237 O 0.77338 0.48219 0.75121
 O238 O 0.74831 0.51869 0.72585
 O239 O 0.72656 0.51874 0.74720
 O240 O 0.75162 0.48227 0.77255
 O241 O 0.75179 0.51870 0.77252
 O242 O 0.72645 0.48230 0.74719
 Cu243 Cu 0.76306 0.50043 0.73637
 Cu244 Cu 0.73690 0.50051 0.76202
 C245 C 0.73313 0.47602 0.73233
 C246 C 0.76688 0.52490 0.76605
 C247 C 0.76666 0.47597 0.76609
 C248 C 0.73328 0.52498 0.73233
 O249 O 0.25045 0.48171 0.27177
 O250 O 0.22535 0.51802 0.24618
 O251 O 0.22535 0.48160 0.24627
 O252 O 0.25048 0.51812 0.27166
 O253 O 0.27235 0.51807 0.25044
 O254 O 0.24722 0.48156 0.22505
 O255 O 0.24723 0.51797 0.22496
 O256 O 0.27232 0.48166 0.25055
 Cu257 Cu 0.23570 0.49987 0.26112
 Cu258 Cu 0.26199 0.49981 0.23560
 C259 C 0.26557 0.47548 0.26543
 C260 C 0.23211 0.52420 0.23130
 C261 C 0.23209 0.47535 0.23142
 C262 C 0.26561 0.52433 0.26528
 O263 O 0.75133 1.01794 0.72780
 O264 O 0.72611 0.98213 0.75404
 O265 O 0.72626 1.01854 0.75325
 O266 O 0.75129 0.98152 0.72856
 O267 O 0.77314 0.98196 0.74978
 O268 O 0.74812 1.01897 0.77447
 O269 O 0.74797 0.98256 0.77526
 O270 O 0.77318 1.01838 0.74902
 Cu271 Cu 0.73654 0.99996 0.73877
 Cu272 Cu 0.76281 1.00049 0.76428
 C273 C 0.76642 1.02433 0.73406
 C274 C 0.73283 0.97625 0.76904
 C275 C 0.73305 1.02511 0.76795
 C276 C 0.76639 0.97543 0.73506
 O277 O 0.75269 0.51839 0.22694
 O278 O 0.72784 0.48179 0.25246
 O279 O 0.72770 0.51822 0.25249
 O280 O 0.75284 0.48192 0.22691
 O281 O 0.77478 0.48202 0.24805
 O282 O 0.74964 0.51833 0.27363
 O283 O 0.74977 0.48189 0.27360
 O284 O 0.77462 0.51849 0.24808
 Cu285 Cu 0.73806 0.50007 0.23756
 Cu286 Cu 0.76442 0.50019 0.26297
 C287 C 0.76775 0.52474 0.23330
 C288 C 0.73468 0.47556 0.26726
 C289 C 0.73451 0.52451 0.26729
 C290 C 0.76796 0.47573 0.23326
 O291 O 0.25175 -0.01915 0.77272
 O292 O 0.22686 0.01745 0.74733
 O293 O 0.22665 -0.01896 0.74717
 O294 O 0.25198 0.01724 0.77281
 O295 O 0.27386 0.01720 0.75160
 O296 O 0.24853 -0.01899 0.72596
 O297 O 0.24874 0.01741 0.72612
 O298 O 0.27363 -0.01919 0.75151
 Cu299 Cu 0.23710 -0.00086 0.76215
 Cu300 Cu 0.26340 -0.00090 0.73665
 C301 C 0.26686 -0.02540 0.76637
 C302 C 0.23365 0.02368 0.73249
 C303 C 0.23335 -0.02513 0.73227
 C304 C 0.26715 0.02339 0.76648
 O305 O 0.24738 0.27171 0.98196
 O306 O 0.27317 0.24691 1.01800
 O307 O 0.27330 0.24668 0.98217
 O308 O 0.24726 0.27187 1.01780
 O309 O 0.22612 0.24954 1.01785
 O310 O 0.25216 0.22434 0.98222
 O311 O 0.25204 0.22457 1.01806
 O312 O 0.22624 0.24938 0.98200
 Cu313 Cu 0.26241 0.26155 0.99996
 Cu314 Cu 0.23700 0.23470 1.00002
 C315 C 0.23254 0.26466 0.97580
 C316 C 0.26687 0.23164 1.02423
 C317 C 0.26706 0.23132 0.97609
 C318 C 0.23239 0.26487 1.02396
 O319 O 0.24800 0.77258 0.48212
 O320 O 0.27373 0.74734 0.51791
 O321 O 0.27362 0.74730 0.48207
 O322 O 0.24807 0.77265 0.51795
 O323 O 0.22669 0.75055 0.51804
 O324 O 0.25224 0.72520 0.48216
 O325 O 0.25235 0.72524 0.51800
 O326 O 0.22661 0.75049 0.48221
 Cu327 Cu 0.26302 0.76220 0.50001
 Cu328 Cu 0.23731 0.73564 0.50012
 C329 C 0.23305 0.76571 0.47601
 C330 C 0.26731 0.73211 0.52410
 C331 C 0.26715 0.73206 0.47594
 C332 C 0.23314 0.76581 0.52414
 O333 O 0.27432 0.75242 -0.01770
 O334 O 0.24829 0.72737 0.01809
 O335 O 0.24849 0.72722 -0.01774
 O336 O 0.27414 0.75249 0.01814
 O337 O 0.25292 0.77470 0.01799
 O338 O 0.22728 0.74942 -0.01792
 O339 O 0.22707 0.74958 0.01791
 O340 O 0.25311 0.77463 -0.01786
 Cu341 Cu 0.26346 0.73764 0.00020
 Cu342 Cu 0.23796 0.76433 0.00000
 C343 C 0.26803 0.76768 -0.02392
 C344 C 0.23337 0.73433 0.02414
 C345 C 0.23363 0.73412 -0.02397
 C346 C 0.26777 0.76777 0.02424
 O347 O 0.27333 0.25254 0.48230
 O348 O 0.24776 0.22719 0.51820
 O349 O 0.24770 0.22718 0.48235
 O350 O 0.27342 0.25252 0.51814
 O351 O 0.25205 0.27457 0.51820
 O352 O 0.22633 0.24923 0.48240
 O353 O 0.22639 0.24924 0.51826
 O354 O 0.25196 0.27459 0.48236
 Cu355 Cu 0.26271 0.23763 0.50024
 Cu356 Cu 0.23702 0.26413 0.50032
 C357 C 0.26688 0.26776 0.47616
 C358 C 0.23284 0.23402 0.52441
 C359 C 0.23277 0.23402 0.47621
 C360 C 0.26700 0.26774 0.52432
 O361 O 0.75240 0.72516 0.98173
 O362 O 0.72626 0.75028 1.01737
 O363 O 0.72632 0.75017 0.98156
 O364 O 0.75218 0.72539 1.01758
 O365 O 0.77328 0.74776 1.01756
 O366 O 0.74741 0.77254 0.98153
 O367 O 0.74736 0.77266 1.01734
 O368 O 0.77349 0.74754 0.98171
 Cu369 Cu 0.73717 0.73548 0.99952
 Cu370 Cu 0.76252 0.76238 0.99949
 C371 C 0.76732 0.73215 0.97565
 C372 C 0.73251 0.76562 1.02350
 C373 C 0.73253 0.76551 0.97544
 C374 C 0.76696 0.73251 1.02382
 O375 O 0.77327 0.24704 0.51776
 O376 O 0.74766 0.27222 0.48183
 O377 O 0.74768 0.27237 0.51769
 O378 O 0.77327 0.24691 0.48191
 O379 O 0.75186 0.22484 0.48200
 O380 O 0.72626 0.25031 0.51778
 O381 O 0.72624 0.25015 0.48192
 O382 O 0.75186 0.22497 0.51784
 Cu383 Cu 0.76263 0.26187 0.49979
 Cu384 Cu 0.73689 0.23534 0.49990
 C385 C 0.76680 0.23183 0.52397
 C386 C 0.73272 0.26535 0.47570
 C387 C 0.73274 0.26555 0.52389
 C388 C 0.76680 0.23167 0.47581
 O389 O 0.77338 0.25254 -0.01846
 O390 O 0.74745 0.22722 0.01722
 O391 O 0.74749 0.22747 -0.01862
 O392 O 0.77339 0.25225 0.01741
 O393 O 0.75226 0.27453 0.01758
 O394 O 0.72635 0.24975 -0.01846
 O395 O 0.72632 0.24950 0.01738
 O396 O 0.75224 0.27483 -0.01828
 Cu397 Cu 0.76257 0.23762 -0.00063
 Cu398 Cu 0.73716 0.26441 -0.00042
 C399 C 0.76708 0.26787 -0.02452
 C400 C 0.73259 0.23417 0.02343
 C401 C 0.73264 0.23451 -0.02474
 C402 C 0.76711 0.26748 0.02370
 O403 O 0.72731 0.74997 0.48193
 O404 O 0.75278 0.77509 0.51805
 O405 O 0.75319 0.77511 0.48220
 O406 O 0.72697 0.74995 0.51778
 O407 O 0.74817 0.72774 0.51796
 O408 O 0.77439 0.75290 0.48239
 O409 O 0.77398 0.75288 0.51824
 O410 O 0.74852 0.72776 0.48212
 Cu411 Cu 0.73792 0.76478 0.49996
 Cu412 Cu 0.76341 0.73807 0.50019
 C413 C 0.73369 0.73469 0.47583
 C414 C 0.76759 0.76813 0.52436
 C415 C 0.76814 0.76818 0.47619
 C416 C 0.73324 0.73468 0.52400
 O417 O 1.01842 0.27221 0.24806
 O418 O 0.98241 0.24700 0.27383
 O419 O 1.01852 0.24714 0.27374
 O420 O 0.98231 0.27208 0.24815
 O421 O 0.98231 0.24982 0.22712
 O422 O 1.01854 0.22487 0.25272
 O423 O 0.98243 0.22474 0.25279
 O424 O 1.01842 0.24995 0.22703
 Cu425 Cu 1.00041 0.26186 0.26307
 Cu426 Cu 1.00043 0.23509 0.23779
 C427 C 1.02460 0.26526 0.23328
 C428 C 0.97623 0.23169 0.26757
 C429 C 1.02476 0.23188 0.26747
 C430 C 0.97609 0.26509 0.23340
 O431 O 0.48146 0.25133 0.72699
 O432 O 0.51796 0.22623 0.75208
 O433 O 0.48189 0.22608 0.75268
 O434 O 0.51753 0.25138 0.72648
 O435 O 0.51782 0.27359 0.74757
 O436 O 0.48218 0.24827 0.77377
 O437 O 0.51825 0.24844 0.77317
 O438 O 0.48176 0.27353 0.74808
 Cu439 Cu 0.49964 0.23651 0.73743
 Cu440 Cu 0.49999 0.26320 0.76278
 C441 C 0.47543 0.26665 0.73332
 C442 C 0.52437 0.23318 0.76677
 C443 C 0.47600 0.23292 0.76763
 C444 C 0.52380 0.26667 0.73268
 O445 O 0.01716 0.25132 0.77317
 O446 O -0.01862 0.22575 0.74748
 O447 O 0.01747 0.22595 0.74781
 O448 O -0.01894 0.25126 0.77287
 O449 O -0.01878 0.27323 0.75155
 O450 O 0.01760 0.24793 0.72650
 O451 O -0.01849 0.24772 0.72616
 O452 O 0.01732 0.27331 0.75187
 Cu453 Cu -0.00077 0.23635 0.76249
 Cu454 Cu -0.00060 0.26277 0.73687
 C455 C 0.02341 0.26653 0.76676
 C456 C -0.02465 0.23245 0.73253
 C457 C 0.02380 0.23277 0.73302
 C458 C -0.02507 0.26647 0.76639
 O459 O 0.48158 0.27403 0.25215
 O460 O 0.51747 0.24872 0.22641
 O461 O 0.48137 0.24879 0.22660
 O462 O 0.51769 0.27396 0.25194
 O463 O 0.51773 0.25183 0.27310
 O464 O 0.48141 0.22666 0.24776
 O465 O 0.51751 0.22659 0.24756
 O466 O 0.48161 0.25190 0.27331
 Cu467 Cu 0.49952 0.26361 0.23714
 Cu468 Cu 0.49957 0.23701 0.26257
 C469 C 0.47543 0.26715 0.26699
 C470 C 0.52366 0.23347 0.23272
 C471 C 0.47515 0.23355 0.23298
 C472 C 0.52395 0.26706 0.26671
 O473 O 1.01943 0.77415 0.74728
 O474 O 0.98363 0.74885 0.77326
 O475 O 1.01972 0.74898 0.77304
 O476 O 0.98335 0.77387 0.74761
 O477 O 0.98328 0.75161 0.72657
 O478 O 1.01966 0.72671 0.75202
 O479 O 0.98357 0.72658 0.75223
 O480 O 1.01937 0.75188 0.72626
 Cu481 Cu 1.00158 0.76371 0.76242
 Cu482 Cu 1.00151 0.73695 0.73715
 C483 C 1.02548 0.76726 0.73242
 C484 C 0.97742 0.73354 0.76703
 C485 C 1.02587 0.73368 0.76679
 C486 C 0.97704 0.76684 0.73290
 O487 O 0.48217 0.75156 0.22702
 O488 O 0.51831 0.72638 0.25253
 O489 O 0.48220 0.72638 0.25261
 O490 O 0.51827 0.75146 0.22686
 O491 O 0.51841 0.77368 0.24794
 O492 O 0.48229 0.74859 0.27369
 O493 O 0.51842 0.74860 0.27361
 O494 O 0.48231 0.77378 0.24810
 Cu495 Cu 0.50022 0.73670 0.23763
 Cu496 Cu 0.50037 0.76340 0.26297
 C497 C 0.47604 0.76685 0.23334
 C498 C 0.52458 0.73333 0.26729
 C499 C 0.47604 0.73333 0.26741
 C500 C 0.52454 0.76672 0.23313
 O501 O -0.01845 0.77471 0.25236
 O502 O 0.01733 0.74931 0.22657
 O503 O -0.01879 0.74957 0.22673
 O504 O 0.01765 0.77440 0.25226
 O505 O 0.01750 0.75216 0.27330
 O506 O -0.01891 0.72734 0.24778
 O507 O 0.01721 0.72707 0.24762
 O508 O -0.01859 0.75248 0.27341
 Cu509 Cu -0.00055 0.76424 0.23735
 Cu510 Cu -0.00071 0.73751 0.26265
 C511 C -0.02467 0.76781 0.26715
 C512 C 0.02343 0.73399 0.23283
 C513 C -0.02512 0.73435 0.23304
 C514 C 0.02382 0.76739 0.26701
 O515 O 0.51736 0.75260 0.77343
 O516 O 0.48181 0.72668 0.74772
 O517 O 0.51788 0.72726 0.74790
 O518 O 0.48130 0.75208 0.77322
 O519 O 0.48114 0.77413 0.75198
 O520 O 0.51768 0.74932 0.72668
 O521 O 0.48163 0.74873 0.72648
 O522 O 0.51718 0.77466 0.75219
 Cu523 Cu 0.49960 0.73743 0.76271
 Cu524 Cu 0.49938 0.76394 0.73719
 C525 C 0.52333 0.76796 0.76710
 C526 C 0.47566 0.73337 0.73280
 C527 C 0.52402 0.73416 0.73307
 C528 C 0.47501 0.76727 0.76683
 C529 C 0.43262 0.29316 0.29323
 C530 C 0.41456 0.29067 0.28613
 C531 C 0.39927 0.29937 0.29490
 C532 C 0.40214 0.31051 0.31071
 C533 C 0.42020 0.31300 0.31780
 C534 C 0.43550 0.30429 0.30902
 C535 C 0.45342 0.30697 0.31635
 C536 C 0.45617 0.31795 0.33191
 C537 C 0.44122 0.32646 0.34049
 C538 C 0.42342 0.32406 0.33357
 C539 C 0.38135 0.29668 0.28755
 C540 C 0.37860 0.28573 0.27198
 C541 C 0.39355 0.27724 0.26340
 C542 C 0.41134 0.27961 0.27034
 C543 C 0.38649 0.31939 0.31963
 C544 C 0.37335 0.32666 0.32687
 C545 C 0.44818 0.28419 0.28425
 C546 C 0.46082 0.27655 0.27653
 H547 H 0.46548 0.30064 0.31015
 H548 H 0.46998 0.31986 0.33733
 H549 H 0.44343 0.33497 0.35257
 H550 H 0.41223 0.33096 0.34072
 H551 H 0.36928 0.30301 0.29373
 H552 H 0.36480 0.28384 0.26654
 H553 H 0.39135 0.26878 0.25128
 H554 H 0.42251 0.27270 0.26317
 C555 C 0.43279 0.79397 0.79336
 C556 C 0.41605 0.79712 0.78377
 C557 C 0.40103 0.80608 0.79273
 C558 C 0.40282 0.81182 0.81125
 C559 C 0.41958 0.80878 0.82080
 C560 C 0.43462 0.79983 0.81183
 C561 C 0.45123 0.79692 0.82167
 C562 C 0.45295 0.80268 0.83986
 C563 C 0.43826 0.81142 0.84863
 C564 C 0.42173 0.81447 0.83928
 C565 C 0.38444 0.80905 0.78286
 C566 C 0.38273 0.80334 0.76465
 C567 C 0.39742 0.79458 0.75589
 C568 C 0.41392 0.79147 0.76527
 C569 C 0.38733 0.82071 0.82044
 C570 C 0.37427 0.82796 0.82784
 C571 C 0.44802 0.78460 0.78422
 C572 C 0.46046 0.77673 0.77641
 H573 H 0.46305 0.79018 0.81543
 H574 H 0.46577 0.80035 0.84718
 H575 H 0.43967 0.81587 0.86276
 H576 H 0.41069 0.82133 0.84668
 H577 H 0.37262 0.81581 0.78907
 H578 H 0.36995 0.80573 0.75731
 H579 H 0.39603 0.79017 0.74175
 H580 H 0.42494 0.78460 0.75785
 C581 C -0.06770 0.29317 0.79227
 C582 C -0.08506 0.29394 0.78332
 C583 C -0.10028 0.30280 0.79205
 C584 C -0.09806 0.31083 0.80967
 C585 C -0.08068 0.31014 0.81858
 C586 C -0.06545 0.30129 0.80984
 C587 C -0.04821 0.30076 0.81901
 C588 C -0.04607 0.30875 0.83632
 C589 C -0.06096 0.31740 0.84486
 C590 C -0.07810 0.31813 0.83616
 C591 C -0.11750 0.30338 0.78283
 C592 C -0.11963 0.29543 0.76551
 C593 C -0.10475 0.28677 0.75698
 C594 C -0.08764 0.28598 0.76572
 C595 C -0.11371 0.31967 0.81863
 C596 C -0.12688 0.32688 0.82588
 C597 C -0.05225 0.28388 0.78340
 C598 C -0.03968 0.27602 0.77578
 H599 H -0.03622 0.29419 0.81292
 H600 H -0.03279 0.30823 0.84315
 H601 H -0.05923 0.32358 0.85831
 H602 H -0.08927 0.32501 0.84335
 H603 H -0.12949 0.30997 0.78889
 H604 H -0.13290 0.29601 0.75866
 H605 H -0.10647 0.28061 0.74352
 H606 H -0.07649 0.27909 0.75851
 C607 C -0.06731 0.79407 0.29338
 C608 C -0.08540 0.79166 0.28632
 C609 C -0.10063 0.80045 0.29510
 C610 C -0.09769 0.81161 0.31088
 C611 C -0.07959 0.81405 0.31791
 C612 C -0.06436 0.80526 0.30913
 C613 C -0.04640 0.80792 0.31639
 C614 C -0.04357 0.81894 0.33190
 C615 C -0.05847 0.82753 0.34049
 C616 C -0.07630 0.82516 0.33364
 C617 C -0.11858 0.79782 0.28779
 C618 C -0.12140 0.78685 0.27224
 C619 C -0.10651 0.77827 0.26365
 C620 C -0.08869 0.78058 0.27056
 C621 C -0.11329 0.82051 0.31985
 C622 C -0.12640 0.82777 0.32717
 C623 C -0.05181 0.78499 0.28442
 C624 C -0.03922 0.77726 0.27671
 H625 H -0.03438 0.80152 0.31018
 H626 H -0.02974 0.82082 0.33728
 H627 H -0.05620 0.83607 0.35254
 H628 H -0.08745 0.83212 0.34079
 H629 H -0.13061 0.80422 0.29397
 H630 H -0.13522 0.78501 0.26683
 H631 H -0.10877 0.76981 0.25155
 H632 H -0.07757 0.77360 0.26339
 C633 C 0.56773 0.70784 0.29341
 C634 C 0.58576 0.71498 0.29043
 C635 C 0.60118 0.70644 0.29911
 C636 C 0.59849 0.69081 0.31071
 C637 C 0.58045 0.68372 0.31373
 C638 C 0.56503 0.69226 0.30505
 C639 C 0.54714 0.68493 0.30827
 C640 C 0.54456 0.66959 0.31975
 C641 C 0.55964 0.66123 0.32823
 C642 C 0.57741 0.66816 0.32531
 C643 C 0.61906 0.71382 0.29591
 C644 C 0.62163 0.72922 0.28450
 C645 C 0.60656 0.73758 0.27604
 C646 C 0.58880 0.73059 0.27889
 C647 C 0.61428 0.68205 0.31948
 C648 C 0.62752 0.67490 0.32663
 C649 C 0.55204 0.71655 0.28442
 C650 C 0.53930 0.72403 0.27673
 H651 H 0.53499 0.69096 0.30198
 H652 H 0.53078 0.66416 0.32206
 H653 H 0.55755 0.64932 0.33713
 H654 H 0.58870 0.66119 0.33222
 H655 H 0.63122 0.70781 0.30220
 H656 H 0.63540 0.73469 0.28223
 H657 H 0.60862 0.74956 0.26722
 H658 H 0.57753 0.73758 0.27198
 C659 C 0.56764 0.20746 0.79248
 C660 C 0.58578 0.21139 0.78623
 C661 C 0.60121 0.20289 0.79492
 C662 C 0.59842 0.19050 0.80981
 C663 C 0.58028 0.18653 0.81603
 C664 C 0.56485 0.19504 0.80734
 C665 C 0.54685 0.19087 0.81379
 C666 C 0.54418 0.17864 0.82842
 C667 C 0.55926 0.17032 0.83692
 C668 C 0.57714 0.17417 0.83086
 C669 C 0.61920 0.20704 0.78843
 C670 C 0.62188 0.21924 0.77377
 C671 C 0.60679 0.22755 0.76526
 C672 C 0.58892 0.22372 0.77136
 C673 C 0.61422 0.18188 0.81869
 C674 C 0.62748 0.17484 0.82592
 C675 C 0.55194 0.21629 0.78364
 C676 C 0.53916 0.22386 0.77608
 H677 H 0.53469 0.19700 0.80761
 H678 H 0.53032 0.17560 0.83319
 H679 H 0.55711 0.16082 0.84828
 H680 H 0.58844 0.16736 0.83790
 H681 H 0.63138 0.20092 0.79458
 H682 H 0.63573 0.22225 0.76898
 H683 H 0.60894 0.23701 0.75388
 H684 H 0.57764 0.23053 0.76429
 C685 C 1.06807 0.70746 0.79377
 C686 C 1.08608 0.71514 0.79257
 C687 C 1.10108 0.70622 0.80160
 C688 C 1.09799 0.68967 0.81177
 C689 C 1.07997 0.68203 0.81303
 C690 C 1.06496 0.69096 0.80401
 C691 C 1.04708 0.68306 0.80546
 C692 C 1.04410 0.66680 0.81554
 C693 C 1.05877 0.65807 0.82435
 C694 C 1.07653 0.66554 0.82316
 C695 C 1.11896 0.71417 0.80018
 C696 C 1.12194 0.73044 0.79013
 C697 C 1.10728 0.73915 0.78130
 C698 C 1.08953 0.73166 0.78246
 C699 C 1.11339 0.68050 0.82082
 C700 C 1.12637 0.67309 0.82819
 C701 C 1.05282 0.71652 0.78439
 C702 C 1.04037 0.72424 0.77644
 H703 H 1.03523 0.68935 0.79885
 H704 H 1.03032 0.66095 0.81651
 H705 H 1.05638 0.64545 0.83216
 H706 H 1.08750 0.65825 0.83026
 H707 H 1.13082 0.70791 0.80681
 H708 H 1.13570 0.73632 0.78920
 H709 H 1.10966 0.75179 0.77351
 H710 H 1.07858 0.73896 0.77535
 C711 C 1.06788 0.20651 0.29376
 C712 C 1.06512 0.19101 0.30549
 C713 C 1.08050 0.18248 0.31425
 C714 C 1.09855 0.18952 0.31123
 C715 C 1.10131 0.20506 0.29953
 C716 C 1.08593 0.21358 0.29077
 C717 C 1.08903 0.22911 0.27914
 C718 C 1.10681 0.23602 0.27626
 C719 C 1.12185 0.22768 0.28481
 C720 C 1.11922 0.21237 0.29632
 C721 C 1.07740 0.16699 0.32591
 C722 C 1.05960 0.16013 0.32883
 C723 C 1.04456 0.16847 0.32027
 C724 C 1.04721 0.18374 0.30872
 C725 C 1.11430 0.18079 0.32011
 C726 C 1.12750 0.17364 0.32736
 C727 C 1.05222 0.21520 0.28470
 C728 C 1.03949 0.22265 0.27696
 H729 H 1.07779 0.23608 0.27216
 H730 H 1.10893 0.24794 0.26737
 H731 H 1.13564 0.23310 0.28252
 H732 H 1.13135 0.20637 0.30266
 H733 H 1.08866 0.16004 0.33288
 H734 H 1.05747 0.14827 0.33780
 H735 H 1.03077 0.16308 0.32259
 H736 H 1.03508 0.18976 0.30237
 C737 C 0.56598 0.29262 0.70529
 C738 C 0.57979 0.28151 0.69690
 C739 C 0.59508 0.29016 0.68807
 C740 C 0.59650 0.30988 0.68770
 C741 C 0.58259 0.32098 0.69591
 C742 C 0.56728 0.31233 0.70473
 C743 C 0.55358 0.32371 0.71290
 C744 C 0.55497 0.34311 0.71237
 C745 C 0.56994 0.35157 0.70375
 C746 C 0.58363 0.34071 0.69560
 C747 C 0.60873 0.27877 0.67982
 C748 C 0.60732 0.25937 0.68029
 C749 C 0.59238 0.25091 0.68894
 C750 C 0.57873 0.26178 0.69717
 C751 C 0.61243 0.31867 0.67915
 C752 C 0.62580 0.32581 0.67219
 C753 C 0.55069 0.28372 0.71481
 C754 C 0.53824 0.27609 0.72288
 H755 H 0.54168 0.31777 0.71975
 H756 H 0.54437 0.35161 0.71869
 H757 H 0.57095 0.36664 0.70338
 H758 H 0.59501 0.34793 0.68905
 H759 H 0.62061 0.28469 0.67291
 H760 H 0.61788 0.25087 0.67391
 H761 H 0.59134 0.23584 0.68928
 H762 H 0.56736 0.25454 0.70372
 C763 C 0.56742 0.79224 0.20647
 C764 C 0.56456 0.80786 0.19492
 C765 C 0.57986 0.81643 0.18599
 C766 C 0.59792 0.80932 0.18867
 C767 C 0.60077 0.79366 0.20018
 C768 C 0.58547 0.78510 0.20911
 C769 C 0.58867 0.76945 0.22055
 C770 C 0.60646 0.76246 0.22307
 C771 C 0.62141 0.77085 0.21436
 C772 C 0.61868 0.78627 0.20304
 C773 C 0.57666 0.83204 0.17453
 C774 C 0.55886 0.83897 0.17194
 C775 C 0.54391 0.83059 0.18067
 C776 C 0.54664 0.81521 0.19204
 C777 C 0.61358 0.81812 0.17966
 C778 C 0.62671 0.82534 0.17232
 C779 C 0.55186 0.78351 0.21569
 C780 C 0.53920 0.77601 0.22354
 H781 H 0.57750 0.76245 0.22763
 H782 H 0.60864 0.75045 0.23181
 H783 H 0.63520 0.76537 0.21638
 H784 H 0.63075 0.79230 0.19656
 H785 H 0.58785 0.83902 0.16744
 H786 H 0.55666 0.85092 0.16312
 H787 H 0.53011 0.83603 0.17861
 H788 H 0.53458 0.80916 0.19853
 C789 C 1.06740 0.29102 0.20672
 C790 C 1.06449 0.30668 0.19524
 C791 C 1.07977 0.31536 0.18638
 C792 C 1.09785 0.30832 0.18905
 C793 C 1.10075 0.29262 0.20050
 C794 C 1.08548 0.28395 0.20935
 C795 C 1.08873 0.26827 0.22073
 C796 C 1.10654 0.26134 0.22326
 C797 C 1.12147 0.26984 0.21461
 C798 C 1.11869 0.28530 0.20335
 C799 C 1.07652 0.33101 0.17498
 C800 C 1.05869 0.33789 0.17240
 C801 C 1.04376 0.32939 0.18106
 C802 C 1.04655 0.31397 0.19236
 C803 C 1.11349 0.31722 0.18009
 C804 C 1.12659 0.32450 0.17276
 C805 C 1.05186 0.28218 0.21588
 C806 C 1.03922 0.27461 0.22370
 H807 H 1.07757 0.26117 0.22776
 H808 H 1.10876 0.24931 0.23195
 H809 H 1.13528 0.26441 0.21663
 H810 H 1.13075 0.29142 0.19692
 H811 H 1.08769 0.33809 0.16795
 H812 H 1.05646 0.34987 0.16363
 H813 H 1.02994 0.33478 0.17901
 H814 H 1.03450 0.30783 0.19880
 C815 C 1.06682 0.79416 0.70463
 C816 C 1.07182 0.81264 0.70942
 C817 C 1.08691 0.82150 0.70043
 C818 C 1.09691 0.81182 0.68670
 C819 C 1.09171 0.79346 0.68168
 C820 C 1.07662 0.78460 0.69067
 C821 C 1.07174 0.76620 0.68548
 C822 C 1.08147 0.75683 0.67180
 C823 C 1.09622 0.76549 0.66300
 C824 C 1.10134 0.78359 0.66783
 C825 C 1.09171 0.83995 0.70551
 C826 C 1.08187 0.84938 0.71908
 C827 C 1.06711 0.84072 0.72787
 C828 C 1.06209 0.82256 0.72315
 C829 C 1.11279 0.82058 0.67802
 C830 C 1.12613 0.82769 0.67097
 C831 C 1.05190 0.78481 0.71433
 C832 C 1.03972 0.77689 0.72252
 H833 H 1.06035 0.75888 0.69191
 H834 H 1.07754 0.74277 0.66799
 H835 H 1.10373 0.75815 0.65237
 H836 H 1.11290 0.78974 0.66058
 H837 H 1.10307 0.84727 0.69905
 H838 H 1.08571 0.86349 0.72279
 H839 H 1.05951 0.84811 0.73840
 H840 H 1.05050 0.81642 0.73036
 C841 C 0.43451 0.70566 0.70554
 C842 C 0.42945 0.71110 0.68755
 C843 C 0.41441 0.70214 0.67859
 C844 C 0.40451 0.68779 0.68767
 C845 C 0.40977 0.68212 0.70554
 C846 C 0.42482 0.69108 0.71450
 C847 C 0.42977 0.68523 0.73239
 C848 C 0.42014 0.67094 0.74117
 C849 C 0.40543 0.66218 0.73241
 C850 C 0.40025 0.66765 0.71480
 C851 C 0.40956 0.70787 0.66064
 C852 C 0.41930 0.72205 0.65179
 C853 C 0.43401 0.73080 0.66055
 C854 C 0.43909 0.72545 0.67823
 C855 C 0.38867 0.67915 0.67884
 C856 C 0.37535 0.67206 0.67172
 C857 C 0.44936 0.71533 0.71501
 C858 C 0.46149 0.72350 0.72305
 H859 H 0.44112 0.69161 0.73976
 H860 H 0.42412 0.66663 0.75485
 H861 H 0.39800 0.65107 0.73929
 H862 H 0.38873 0.66039 0.70855
 H863 H 0.39823 0.70146 0.65325
 H864 H 0.41541 0.72625 0.63805
 H865 H 0.44154 0.74180 0.65361
 H866 H 0.45064 0.73267 0.68447
 C867 C 0.43209 0.20759 0.20706
 C868 C 0.43489 0.19626 0.19139
 C869 C 0.41954 0.18755 0.18270
 C870 C 0.40149 0.19022 0.18973
 C871 C 0.39869 0.20156 0.20542
 C872 C 0.41403 0.21026 0.21411
 C873 C 0.41088 0.22152 0.22978
 C874 C 0.39309 0.22407 0.23667
 C875 C 0.37809 0.21558 0.22817
 C876 C 0.38077 0.20444 0.21271
 C877 C 0.42269 0.17628 0.16705
 C878 C 0.44049 0.17369 0.16019
 C879 C 0.45550 0.18220 0.16869
 C880 C 0.45281 0.19338 0.18412
 C881 C 0.38578 0.18133 0.18089
 C882 C 0.37261 0.17404 0.17370
 C883 C 0.44771 0.21656 0.21595
 C884 C 0.46043 0.22419 0.22358
 H885 H 0.42209 0.22844 0.23688
 H886 H 0.39094 0.23268 0.24870
 H887 H 0.36430 0.21761 0.23357
 H888 H 0.36866 0.19812 0.20659
 H889 H 0.41146 0.16937 0.15996
 H890 H 0.44265 0.16503 0.14821
 H891 H 0.46930 0.18015 0.16331
 H892 H 0.46491 0.19971 0.19026
 C893 C -0.06854 0.70886 0.20726
 C894 C -0.06598 0.69765 0.19147
 C895 C -0.08147 0.68906 0.18290
 C896 C -0.09943 0.69174 0.19019
 C897 C -0.10199 0.70296 0.20599
 C898 C -0.08650 0.71155 0.21455
 C899 C -0.08941 0.72269 0.23035
 C900 C -0.10710 0.72525 0.23748
 C901 C -0.12224 0.71687 0.22910
 C902 C -0.11980 0.70585 0.21353
 C903 C -0.07856 0.67792 0.16713
 C904 C -0.06086 0.67532 0.16002
 C905 C -0.04572 0.68371 0.16840
 C906 C -0.04817 0.69476 0.18395
 C907 C -0.11527 0.68296 0.18148
 C908 C -0.12852 0.67573 0.17438
 C909 C -0.05277 0.71766 0.21606
 C910 C -0.03995 0.72516 0.22363
 H911 H -0.07808 0.72951 0.23736
 H912 H -0.10907 0.73376 0.24960
 H913 H -0.13596 0.71892 0.23469
 H914 H -0.13201 0.69962 0.20751
 H915 H -0.08991 0.67111 0.16013
 H916 H -0.05888 0.66675 0.14794
 H917 H -0.03199 0.68165 0.16283
 H918 H -0.03597 0.70100 0.18999
 C919 C -0.06637 0.20511 0.70579
 C920 C -0.06965 0.20818 0.68687
 C921 C -0.08487 0.19934 0.67808
 C922 C -0.09672 0.18748 0.68826
 C923 C -0.09327 0.18417 0.70711
 C924 C -0.07805 0.19301 0.71590
 C925 C -0.07494 0.18956 0.73478
 C926 C -0.08651 0.17770 0.74469
 C927 C -0.10138 0.16905 0.73609
 C928 C -0.10479 0.17220 0.71753
 C929 C -0.08791 0.20269 0.65918
 C930 C -0.07625 0.21443 0.64924
 C931 C -0.06137 0.22307 0.65783
 C932 C -0.05804 0.22004 0.67643
 C933 C -0.11266 0.17897 0.67948
 C934 C -0.12606 0.17200 0.67241
 C935 C -0.05128 0.21469 0.71497
 C936 C -0.03897 0.22275 0.72284
 H937 H -0.06354 0.19594 0.74207
 H938 H -0.08392 0.17521 0.75911
 H939 H -0.11033 0.15984 0.74385
 H940 H -0.11652 0.16513 0.71146
 H941 H -0.09930 0.19627 0.65189
 H942 H -0.07877 0.21683 0.63479
 H943 H -0.05235 0.23218 0.65005
 H944 H -0.04629 0.22706 0.68250
 C945 C 0.29184 0.43292 0.29217
 C946 C 0.30532 0.43646 0.30582
 C947 C 0.31419 0.42130 0.31482
 C948 C 0.30951 0.40271 0.31011
 C949 C 0.29602 0.39918 0.29646
 C950 C 0.28716 0.41433 0.28746
 C951 C 0.27372 0.41045 0.27386
 C952 C 0.26917 0.39213 0.26927
 C953 C 0.27783 0.37732 0.27806
 C954 C 0.29110 0.38072 0.29150
 C955 C 0.32763 0.42518 0.32841
 C956 C 0.33218 0.44351 0.33299
 C957 C 0.32351 0.45832 0.32420
 C958 C 0.31022 0.45492 0.31076
 C959 C 0.31856 0.38719 0.31923
 C960 C 0.32591 0.37409 0.32660
 C961 C 0.28275 0.44835 0.28294
 C962 C 0.27502 0.46090 0.27506
 H963 H 0.26659 0.42149 0.26662
 H964 H 0.25886 0.38942 0.25883
 H965 H 0.27424 0.36312 0.27445
 H966 H 0.29745 0.36873 0.29795
 H967 H 0.33474 0.41412 0.33563
 H968 H 0.34249 0.44622 0.34342
 H969 H 0.32710 0.47252 0.32781
 H970 H 0.30386 0.46689 0.30430
 C971 C 0.29326 -0.06778 0.79328
 C972 C 0.28841 -0.08643 0.78897
 C973 C 0.29740 -0.10145 0.79803
 C974 C 0.31119 -0.09775 0.81134
 C975 C 0.31602 -0.07910 0.81567
 C976 C 0.30702 -0.06407 0.80660
 C977 C 0.31208 -0.04555 0.81115
 C978 C 0.32565 -0.04197 0.82427
 C979 C 0.33444 -0.05667 0.83313
 C980 C 0.32973 -0.07505 0.82893
 C981 C 0.29231 -0.11998 0.79348
 C982 C 0.27875 -0.12355 0.78037
 C983 C 0.26996 -0.10886 0.77151
 C984 C 0.27468 -0.09048 0.77571
 C985 C 0.32041 -0.11316 0.82049
 C986 C 0.32790 -0.12617 0.82786
 C987 C 0.28408 -0.05247 0.78394
 C988 C 0.27631 -0.03997 0.77601
 H989 H 0.30563 -0.03366 0.80462
 H990 H 0.32935 -0.02772 0.82758
 H991 H 0.34496 -0.05382 0.84331
 H992 H 0.33695 -0.08602 0.83619
 H993 H 0.29874 -0.13188 0.80000
 H994 H 0.27504 -0.13780 0.77706
 H995 H 0.25943 -0.11170 0.76133
 H996 H 0.26745 -0.07954 0.76844
 C997 C 0.79252 0.43281 0.79225
 C998 C 0.80402 0.43587 0.80769
 C999 C 0.81268 0.42050 0.81651
 C1000 C 0.80980 0.40216 0.80984
 C1001 C 0.79830 0.39910 0.79439
 C1002 C 0.78964 0.41447 0.78557
 C1003 C 0.77822 0.41106 0.77014
 C1004 C 0.77546 0.39300 0.76361
 C1005 C 0.78391 0.37797 0.77224
 C1006 C 0.79521 0.38090 0.78746
 C1007 C 0.82411 0.42391 0.83191
 C1008 C 0.82691 0.44199 0.83841
 C1009 C 0.81844 0.45701 0.82979
 C1010 C 0.80711 0.45408 0.81459
 C1011 C 0.81866 0.38643 0.81881
 C1012 C 0.82594 0.37325 0.82609
 C1013 C 0.78360 0.44846 0.78324
 C1014 C 0.77599 0.46120 0.77554
 H1015 H 0.77133 0.42229 0.76296
 H1016 H 0.76673 0.39065 0.75176
 H1017 H 0.78171 0.36396 0.76712
 H1018 H 0.80148 0.36876 0.79370
 H1019 H 0.83100 0.41267 0.83908
 H1020 H 0.83570 0.44434 0.85021
 H1021 H 0.82066 0.47103 0.83489
 H1022 H 0.80082 0.46620 0.80834
 C1023 C 0.79190 -0.06728 0.29216
 C1024 C 0.78742 -0.08594 0.28752
 C1025 C 0.79644 -0.10096 0.29657
 C1026 C 0.80990 -0.09723 0.31021
 C1027 C 0.81435 -0.07857 0.31487
 C1028 C 0.80533 -0.06355 0.30582
 C1029 C 0.81001 -0.04502 0.31071
 C1030 C 0.82324 -0.04143 0.32415
 C1031 C 0.83207 -0.05611 0.33300
 C1032 C 0.82773 -0.07450 0.32847
 C1033 C 0.79172 -0.11949 0.29169
 C1034 C 0.77848 -0.12308 0.27826
 C1035 C 0.76966 -0.10840 0.26941
 C1036 C 0.77402 -0.09002 0.27393
 C1037 C 0.81914 -0.11262 0.31936
 C1038 C 0.82667 -0.12561 0.32675
 C1039 C 0.78270 -0.05199 0.28283
 C1040 C 0.77490 -0.03952 0.27489
 H1041 H 0.80352 -0.03314 0.30421
 H1042 H 0.82666 -0.02717 0.32773
 H1043 H 0.84234 -0.05324 0.34343
 H1044 H 0.83497 -0.08545 0.33572
 H1045 H 0.79819 -0.13138 0.29817
 H1046 H 0.77504 -0.13734 0.27470
 H1047 H 0.75938 -0.11126 0.25898
 H1048 H 0.76678 -0.07908 0.26666
 C1049 C 0.29386 0.56600 0.70719
 C1050 C 0.30758 0.57656 0.71641
 C1051 C 0.31654 0.59156 0.70724
 C1052 C 0.31173 0.59593 0.68890
 C1053 C 0.29820 0.58521 0.67959
 C1054 C 0.28924 0.57020 0.68877
 C1055 C 0.27572 0.55973 0.67920
 C1056 C 0.27119 0.56395 0.66109
 C1057 C 0.27994 0.57863 0.65212
 C1058 C 0.29330 0.58919 0.66120
 C1059 C 0.33016 0.60194 0.71676
 C1060 C 0.33480 0.59763 0.73482
 C1061 C 0.32604 0.58297 0.74379
 C1062 C 0.31257 0.57250 0.73477
 C1063 C 0.32045 0.61165 0.67975
 C1064 C 0.32763 0.62486 0.67236
 C1065 C 0.28430 0.55106 0.71677
 C1066 C 0.27629 0.53880 0.72485
 H1067 H 0.26854 0.54817 0.68559
 H1068 H 0.26082 0.55579 0.65397
 H1069 H 0.27637 0.58185 0.63805
 H1070 H 0.29974 0.60045 0.65364
 H1071 H 0.33738 0.61347 0.71036
 H1072 H 0.34526 0.60571 0.74189
 H1073 H 0.32969 0.57967 0.75783
 H1074 H 0.30616 0.56122 0.74232
 C1075 C 0.29276 1.06824 0.20776
 C1076 C 0.28653 1.08667 0.21109
 C1077 C 0.29531 1.10197 0.20225
 C1078 C 0.31028 1.09878 0.19012
 C1079 C 0.31650 1.08036 0.18677
 C1080 C 0.30771 1.06504 0.19562
 C1081 C 0.31418 1.04676 0.19207
 C1082 C 0.32891 1.04369 0.18012
 C1083 C 0.33750 1.05866 0.17146
 C1084 C 0.33142 1.07682 0.17470
 C1085 C 0.28883 1.12026 0.20580
 C1086 C 0.27410 1.12333 0.21776
 C1087 C 0.26552 1.10837 0.22641
 C1088 C 0.27160 1.09022 0.22317
 C1089 C 0.31928 1.11447 0.18117
 C1090 C 0.32658 1.12767 0.17390
 C1091 C 0.28380 1.05266 0.21690
 C1092 C 0.27615 1.03996 0.22468
 H1093 H 0.30794 1.03467 0.19848
 H1094 H 0.33368 1.02962 0.17756
 H1095 H 0.34894 1.05620 0.16219
 H1096 H 0.33854 1.08801 0.16765
 H1097 H 0.29505 1.13236 0.19940
 H1098 H 0.26933 1.13741 0.22031
 H1099 H 0.25409 1.11083 0.23569
 H1100 H 0.26447 1.07905 0.23023
 C1101 C 0.79292 0.56855 0.20738
 C1102 C 0.80829 0.56593 0.19562
 C1103 C 0.81676 0.58159 0.18705
 C1104 C 0.80982 0.59976 0.19029
 C1105 C 0.79441 0.60237 0.20202
 C1106 C 0.78594 0.58672 0.21058
 C1107 C 0.77054 0.58969 0.22224
 C1108 C 0.76370 0.60758 0.22532
 C1109 C 0.77200 0.62288 0.21696
 C1110 C 0.78718 0.62039 0.20544
 C1111 C 0.83211 0.57862 0.17536
 C1112 C 0.83889 0.56071 0.17221
 C1113 C 0.83060 0.54541 0.18058
 C1114 C 0.81547 0.54791 0.19217
 C1115 C 0.81850 0.61578 0.18162
 C1116 C 0.82561 0.62919 0.17451
 C1117 C 0.78431 0.55263 0.21627
 C1118 C 0.77691 0.53969 0.22389
 H1119 H 0.76361 0.57823 0.22907
 H1120 H 0.75189 0.60959 0.23422
 H1121 H 0.76664 0.63676 0.21941
 H1122 H 0.79315 0.63273 0.19925
 H1123 H 0.83902 0.59009 0.16853
 H1124 H 0.85064 0.55869 0.16322
 H1125 H 0.83591 0.53152 0.17809
 H1126 H 0.80948 0.53558 0.19837
 C1127 C 0.79224 1.06704 0.70704
 C1128 C 0.78577 1.08545 0.71001
 C1129 C 0.79452 1.10071 0.70105
 C1130 C 0.80968 1.09747 0.68916
 C1131 C 0.81610 1.07906 0.68614
 C1132 C 0.80734 1.06380 0.69510
 C1133 C 0.81400 1.04552 0.69188
 C1134 C 0.82888 1.04241 0.68012
 C1135 C 0.83744 1.05733 0.67135
 C1136 C 0.83118 1.07547 0.67428
 C1137 C 0.78782 1.11898 0.70425
 C1138 C 0.77288 1.12208 0.71594
 C1139 C 0.76431 1.10716 0.72469
 C1140 C 0.77063 1.08903 0.72183
 C1141 C 0.81870 1.11310 0.68014
 C1142 C 0.82609 1.12622 0.67280
 C1143 C 0.78336 1.05152 0.71635
 C1144 C 0.77577 1.03891 0.72430
 H1145 H 0.80778 1.03347 0.69838
 H1146 H 0.83379 1.02834 0.67780
 H1147 H 0.84899 1.05483 0.66223
 H1148 H 0.83828 1.08662 0.66715
 H1149 H 0.79401 1.13104 0.69775
 H1150 H 0.76792 1.13614 0.71821
 H1151 H 0.75269 1.10964 0.73372
 H1152 H 0.76351 1.07790 0.72895
 C1153 C 0.70878 0.56774 0.29350
 C1154 C 0.71606 0.58595 0.29118
 C1155 C 0.70735 0.60139 0.29983
 C1156 C 0.69140 0.59854 0.31077
 C1157 C 0.68416 0.58032 0.31315
 C1158 C 0.69288 0.56488 0.30449
 C1159 C 0.68540 0.54681 0.30706
 C1160 C 0.66974 0.54406 0.31788
 C1161 C 0.66120 0.55916 0.32634
 C1162 C 0.66827 0.57711 0.32405
 C1163 C 0.71488 0.61945 0.29729
 C1164 C 0.73059 0.62218 0.28654
 C1165 C 0.73913 0.60709 0.27810
 C1166 C 0.73200 0.58915 0.28032
 C1167 C 0.68244 0.61435 0.31950
 C1168 C 0.67513 0.62762 0.32663
 C1169 C 0.71762 0.55204 0.28449
 C1170 C 0.72519 0.53928 0.27678
 H1171 H 0.69155 0.53463 0.30076
 H1172 H 0.66420 0.53014 0.31971
 H1173 H 0.64904 0.55695 0.33473
 H1174 H 0.66115 0.58841 0.33091
 H1175 H 0.70875 0.63164 0.30359
 H1176 H 0.73618 0.63609 0.28477
 H1177 H 0.75136 0.60927 0.26980
 H1178 H 0.73913 0.57787 0.27345
 C1179 C 0.70737 1.06881 0.79344
 C1180 C 0.71469 1.08698 0.79092
 C1181 C 0.70602 1.10252 0.79946
 C1182 C 0.69010 1.09981 0.81046
 C1183 C 0.68281 1.08164 0.81300
 C1184 C 0.69147 1.06609 0.80447
 C1185 C 0.68393 1.04807 0.80719
 C1186 C 0.66828 1.04546 0.81805
 C1187 C 0.65980 1.06066 0.82640
 C1188 C 0.66693 1.07857 0.82395
 C1189 C 0.71359 1.12054 0.79673
 C1190 C 0.72926 1.12314 0.78590
 C1191 C 0.73774 1.10794 0.77756
 C1192 C 0.73059 1.09005 0.77998
 C1193 C 0.68122 1.11571 0.81909
 C1194 C 0.67393 1.12903 0.82616
 C1195 C 0.71620 1.05299 0.78462
 C1196 C 0.72375 1.04009 0.77713
 H1197 H 0.69004 1.03582 0.80098
 H1198 H 0.66269 1.03158 0.81999
 H1199 H 0.64764 1.05856 0.83482
 H1200 H 0.65986 1.08995 0.83073
 H1201 H 0.70749 1.13280 0.80293
 H1202 H 0.73487 1.13702 0.78397
 H1203 H 0.74994 1.11003 0.76920
 H1204 H 0.73768 1.07868 0.77320
 C1205 C 0.20624 0.56597 0.79627
 C1206 C 0.18780 0.57065 0.79164
 C1207 C 0.17892 0.58584 0.80055
 C1208 C 0.18851 0.59627 0.81404
 C1209 C 0.20683 0.59138 0.81890
 C1210 C 0.21572 0.57619 0.80999
 C1211 C 0.23407 0.57163 0.81503
 C1212 C 0.24336 0.58177 0.82849
 C1213 C 0.23467 0.59662 0.83721
 C1214 C 0.21662 0.60143 0.83252
 C1215 C 0.16052 0.59031 0.79563
 C1216 C 0.15116 0.58005 0.78229
 C1217 C 0.15984 0.56519 0.77358
 C1218 C 0.17796 0.56049 0.77814
 C1219 C 0.17973 0.61228 0.82260
 C1220 C 0.17260 0.62574 0.82955
 C1221 C 0.21559 0.55094 0.78664
 C1222 C 0.22350 0.53865 0.77853
 H1223 H 0.24140 0.56018 0.80865
 H1224 H 0.25739 0.57808 0.83218
 H1225 H 0.24195 0.60445 0.84766
 H1226 H 0.21044 0.61308 0.83971
 H1227 H 0.15317 0.60173 0.80203
 H1228 H 0.13708 0.58365 0.77870
 H1229 H 0.15251 0.55726 0.76323
 H1230 H 0.18412 0.54880 0.77100
 C1231 C 0.20682 1.06698 0.29553
 C1232 C 0.18829 1.07146 0.29108
 C1233 C 0.17946 1.08680 0.29981
 C1234 C 0.18920 1.09756 0.31294
 C1235 C 0.20763 1.09290 0.31760
 C1236 C 0.21647 1.07756 0.30887
 C1237 C 0.23492 1.07323 0.31369
 C1238 C 0.24438 1.08373 0.32678
 C1239 C 0.23575 1.09871 0.33532
 C1240 C 0.21759 1.10331 0.33083
 C1241 C 0.16096 1.09106 0.29508
 C1242 C 0.15145 1.08046 0.28210
 C1243 C 0.16009 1.06547 0.27357
 C1244 C 0.17829 1.06096 0.27795
 C1245 C 0.18042 1.11364 0.32137
 C1246 C 0.17327 1.12713 0.32824
 C1247 C 0.21609 1.05179 0.28608
 C1248 C 0.22393 1.03939 0.27807
 H1249 H 0.24223 1.06169 0.30744
 H1250 H 0.25849 1.08021 0.33031
 H1251 H 0.24315 1.10682 0.34548
 H1252 H 0.21146 1.11508 0.33787
 H1253 H 0.15365 1.10258 0.30136
 H1254 H 0.13731 1.08391 0.27866
 H1255 H 0.15264 1.05728 0.26350
 H1256 H 0.18441 1.04916 0.27096
 C1257 C 0.70706 0.43276 0.70638
 C1258 C 0.70944 0.41453 0.71352
 C1259 C 0.70076 0.39910 0.70478
 C1260 C 0.68975 0.40198 0.68896
 C1261 C 0.68736 0.42021 0.68185
 C1262 C 0.69604 0.43565 0.69059
 C1263 C 0.69345 0.45374 0.68324
 C1264 C 0.68259 0.45651 0.66768
 C1265 C 0.67410 0.44142 0.65913
 C1266 C 0.67641 0.42345 0.66607
 C1267 C 0.70334 0.38101 0.71216
 C1268 C 0.71417 0.37825 0.72774
 C1269 C 0.72264 0.39334 0.73629
 C1270 C 0.72037 0.41130 0.72932
 C1271 C 0.68092 0.38618 0.68004
 C1272 C 0.67367 0.37294 0.67277
 C1273 C 0.71605 0.44846 0.71530
 C1274 C 0.72371 0.46124 0.72293
 H1275 H 0.69977 0.46591 0.68941
 H1276 H 0.68075 0.47044 0.66224
 H1277 H 0.66568 0.44365 0.64705
 H1278 H 0.66953 0.41216 0.65895
 H1279 H 0.69703 0.36883 0.70600
 H1280 H 0.71598 0.36433 0.73320
 H1281 H 0.73100 0.39113 0.74842
 H1282 H 0.72725 0.42257 0.73646
 C1283 C 0.70571 -0.06753 0.20393
 C1284 C 0.71603 -0.07937 0.19222
 C1285 C 0.70726 -0.09475 0.18349
 C1286 C 0.68822 -0.09822 0.18653
 C1287 C 0.67784 -0.08622 0.19802
 C1288 C 0.68661 -0.07083 0.20675
 C1289 C 0.67597 -0.05907 0.21823
 C1290 C 0.65719 -0.06241 0.22101
 C1291 C 0.64862 -0.07746 0.21248
 C1292 C 0.65876 -0.08928 0.20111
 C1293 C 0.71787 -0.10643 0.17189
 C1294 C 0.73662 -0.10300 0.16900
 C1295 C 0.74520 -0.08797 0.17754
 C1296 C 0.73509 -0.07624 0.18904
 C1297 C 0.67943 -0.11433 0.17813
 C1298 C 0.67229 -0.12785 0.17127
 C1299 C 0.71485 -0.05224 0.21338
 C1300 C 0.72260 -0.03974 0.22137
 H1301 H 0.68202 -0.04718 0.22515
 H1302 H 0.64926 -0.05328 0.22983
 H1303 H 0.63403 -0.08000 0.21469
 H1304 H 0.65147 -0.10080 0.19477
 H1305 H 0.71182 -0.11829 0.16492
 H1306 H 0.74452 -0.11206 0.16008
 H1307 H 0.75976 -0.08536 0.17525
 H1308 H 0.74238 -0.06472 0.19536
 C1309 C 0.20573 0.43286 0.20450
 C1310 C 0.21601 0.42116 0.19263
 C1311 C 0.20727 0.40572 0.18396
 C1312 C 0.18830 0.40207 0.18722
 C1313 C 0.17796 0.41394 0.19888
 C1314 C 0.18670 0.42938 0.20755
 C1315 C 0.17610 0.44100 0.21920
 C1316 C 0.15739 0.43747 0.22220
 C1317 C 0.14884 0.42238 0.21373
 C1318 C 0.15894 0.41069 0.20219
 C1319 C 0.21784 0.39418 0.17220
 C1320 C 0.23652 0.39778 0.16910
 C1321 C 0.24507 0.41287 0.17758
 C1322 C 0.23501 0.42446 0.18923
 C1323 C 0.17955 0.38592 0.17886
 C1324 C 0.17244 0.37236 0.17203
 C1325 C 0.21485 0.44821 0.21389
 C1326 C 0.22261 0.46073 0.22182
 H1327 H 0.18213 0.45293 0.22608
 H1328 H 0.14948 0.44651 0.23115
 H1329 H 0.13431 0.41969 0.21611
 H1330 H 0.15168 0.39913 0.19590
 H1331 H 0.21181 0.38228 0.16527
 H1332 H 0.24440 0.38881 0.16006
 H1333 H 0.25959 0.41561 0.17513
 H1334 H 0.24227 0.43604 0.19549
 C1335 C 0.20645 -0.06687 0.70474
 C1336 C 0.21612 -0.07743 0.69142
 C1337 C 0.20719 -0.09257 0.68243
 C1338 C 0.18863 -0.09706 0.68683
 C1339 C 0.17888 -0.08632 0.69995
 C1340 C 0.18781 -0.07118 0.70893
 C1341 C 0.17779 -0.06069 0.72205
 C1342 C 0.15947 -0.06503 0.72617
 C1343 C 0.15074 -0.07984 0.71739
 C1344 C 0.16026 -0.09041 0.70442
 C1345 C 0.21716 -0.10297 0.66921
 C1346 C 0.23544 -0.09854 0.66499
 C1347 C 0.24418 -0.08375 0.67378
 C1348 C 0.23470 -0.07327 0.68685
 C1349 C 0.17974 -0.11294 0.67813
 C1350 C 0.17249 -0.12628 0.67104
 C1351 C 0.21580 -0.05183 0.71438
 C1352 C 0.22373 -0.03953 0.72250
 H1353 H 0.18399 -0.04903 0.72923
 H1354 H 0.15201 -0.05686 0.73624
 H1355 H 0.13650 -0.08315 0.72065
 H1356 H 0.15287 -0.10178 0.69795
 H1357 H 0.21096 -0.11459 0.66199
 H1358 H 0.24286 -0.10664 0.65484
 H1359 H 0.25838 -0.08037 0.67045
 H1360 H 0.24209 -0.06188 0.69330
 C1361 C 0.29302 0.29355 0.43333
 C1362 C 0.29031 0.28625 0.41547
 C1363 C 0.29898 0.29491 0.40017
 C1364 C 0.31032 0.31081 0.40282
 C1365 C 0.31306 0.31808 0.42068
 C1366 C 0.30438 0.30942 0.43599
 C1367 C 0.30731 0.31694 0.45372
 C1368 C 0.31849 0.33258 0.45626
 C1369 C 0.32698 0.34105 0.44130
 C1370 C 0.32434 0.33395 0.42368
 C1371 C 0.29605 0.28736 0.38244
 C1372 C 0.28490 0.27170 0.37991
 C1373 C 0.27643 0.26322 0.39487
 C1374 C 0.27904 0.27036 0.41247
 C1375 C 0.31911 0.31967 0.38714
 C1376 C 0.32628 0.32689 0.37399
 C1377 C 0.28403 0.28472 0.44890
 C1378 C 0.27635 0.27714 0.46155
 H1379 H 0.30100 0.31083 0.46578
 H1380 H 0.32059 0.33815 0.46991
 H1381 H 0.33565 0.35320 0.44334
 H1382 H 0.33123 0.34102 0.41247
 H1383 H 0.30234 0.29346 0.37037
 H1384 H 0.28282 0.26611 0.36626
 H1385 H 0.26782 0.25103 0.39284
 H1386 H 0.27214 0.26327 0.42366
 C1387 C 0.29477 0.79349 -0.06638
 C1388 C 0.29201 0.78647 -0.08435
 C1389 C 0.30080 0.79525 -0.09952
 C1390 C 0.31229 0.81100 -0.09664
 C1391 C 0.31511 0.81796 -0.07867
 C1392 C 0.30632 0.80918 -0.06349
 C1393 C 0.30934 0.81639 -0.04566
 C1394 C 0.32071 0.83185 -0.04289
 C1395 C 0.32930 0.84044 -0.05773
 C1396 C 0.32658 0.83364 -0.07544
 C1397 C 0.29781 0.78798 -0.11735
 C1398 C 0.28650 0.77247 -0.12010
 C1399 C 0.27793 0.76388 -0.10527
 C1400 C 0.28059 0.77074 -0.08757
 C1401 C 0.32111 0.82004 -0.11220
 C1402 C 0.32826 0.82740 -0.12529
 C1403 C 0.28559 0.78460 -0.05095
 C1404 C 0.27772 0.77701 -0.03842
 H1405 H 0.30296 0.81018 -0.03369
 H1406 H 0.32287 0.83719 -0.02915
 H1407 H 0.33812 0.85245 -0.05550
 H1408 H 0.33356 0.84079 -0.08655
 H1409 H 0.30419 0.79417 -0.12933
 H1410 H 0.28439 0.76709 -0.13383
 H1411 H 0.26920 0.75181 -0.10748
 H1412 H 0.27361 0.76356 -0.07649
 C1413 C 0.79326 0.29352 -0.06740
 C1414 C 0.79040 0.28625 -0.08525
 C1415 C 0.79898 0.29490 -0.10061
 C1416 C 0.81037 0.31078 -0.09803
 C1417 C 0.81328 0.31801 -0.08017
 C1418 C 0.80470 0.30935 -0.06481
 C1419 C 0.80780 0.31683 -0.04709
 C1420 C 0.81906 0.33243 -0.04462
 C1421 C 0.82745 0.34089 -0.05964
 C1422 C 0.82464 0.33383 -0.07724
 C1423 C 0.79589 0.28738 -0.11832
 C1424 C 0.78468 0.27175 -0.12078
 C1425 C 0.77631 0.26328 -0.10576
 C1426 C 0.77906 0.27039 -0.08818
 C1427 C 0.81903 0.31966 -0.11376
 C1428 C 0.82610 0.32689 -0.12696
 C1429 C 0.78432 0.28474 -0.05178
 C1430 C 0.77662 0.27720 -0.03911
 H1431 H 0.80158 0.31072 -0.03499
 H1432 H 0.82129 0.33797 -0.03098
 H1433 H 0.83618 0.35300 -0.05764
 H1434 H 0.83146 0.34089 -0.08849
 H1435 H 0.80211 0.29347 -0.13043
 H1436 H 0.78249 0.26617 -0.13442
 H1437 H 0.76765 0.25111 -0.10774
 H1438 H 0.77224 0.26331 -0.07694
 C1439 C 0.79509 0.79381 0.43376
 C1440 C 0.79591 0.78443 0.41667
 C1441 C 0.80462 0.79311 0.40140
 C1442 C 0.81243 0.81115 0.40330
 C1443 C 0.81173 0.82047 0.42043
 C1444 C 0.80304 0.81176 0.43571
 C1445 C 0.80248 0.82136 0.45268
 C1446 C 0.81027 0.83906 0.45450
 C1447 C 0.81876 0.84758 0.43956
 C1448 C 0.81952 0.83845 0.42269
 C1449 C 0.80525 0.78346 0.38446
 C1450 C 0.79750 0.76574 0.38264
 C1451 C 0.78898 0.75725 0.39757
 C1452 C 0.78814 0.76642 0.41441
 C1453 C 0.82099 0.82013 0.38758
 C1454 C 0.82795 0.82742 0.37435
 C1455 C 0.78582 0.78504 0.44920
 C1456 C 0.77789 0.77751 0.46173
 H1457 H 0.79604 0.81530 0.46469
 H1458 H 0.80972 0.84621 0.46758
 H1459 H 0.82478 0.86133 0.44105
 H1460 H 0.82628 0.84563 0.41147
 H1461 H 0.81174 0.78947 0.37245
 H1462 H 0.79812 0.75855 0.36959
 H1463 H 0.78301 0.74347 0.39610
 H1464 H 0.78136 0.75922 0.42560
 C1465 C 0.70662 0.29154 0.56659
 C1466 C 0.70929 0.28435 0.58449
 C1467 C 0.70067 0.29313 0.59975
 C1468 C 0.68941 0.30905 0.59701
 C1469 C 0.68670 0.31620 0.57910
 C1470 C 0.69533 0.30742 0.56384
 C1471 C 0.69242 0.31482 0.54607
 C1472 C 0.68130 0.33046 0.54344
 C1473 C 0.67287 0.33905 0.55835
 C1474 C 0.67549 0.33207 0.57601
 C1475 C 0.70356 0.28568 0.61751
 C1476 C 0.71463 0.27001 0.62013
 C1477 C 0.72305 0.26141 0.60522
 C1478 C 0.72048 0.26845 0.58758
 C1479 C 0.68067 0.31803 0.61263
 C1480 C 0.67350 0.32535 0.62572
 C1481 C 0.71559 0.28262 0.55107
 C1482 C 0.72327 0.27498 0.53846
 H1483 H 0.69868 0.30861 0.53404
 H1484 H 0.67922 0.33594 0.52975
 H1485 H 0.66424 0.35120 0.55624
 H1486 H 0.66864 0.33923 0.58718
 H1487 H 0.69730 0.29187 0.62955
 H1488 H 0.71667 0.26449 0.63381
 H1489 H 0.73159 0.24921 0.60732
 H1490 H 0.72733 0.26127 0.57643
 C1491 C 0.70619 0.79130 1.06625
 C1492 C 0.71330 0.78855 1.08416
 C1493 C 0.70457 0.79719 1.09943
 C1494 C 0.68878 0.80853 1.09672
 C1495 C 0.68167 0.81127 1.07881
 C1496 C 0.69040 0.80262 1.06353
 C1497 C 0.68306 0.80557 1.04577
 C1498 C 0.66752 0.81674 1.04317
 C1499 C 0.65898 0.82519 1.05810
 C1500 C 0.66591 0.82253 1.07575
 C1501 C 0.71194 0.79424 1.11719
 C1502 C 0.72750 0.78311 1.11979
 C1503 C 0.73605 0.77467 1.10486
 C1504 C 0.72908 0.77729 1.08722
 C1505 C 0.67993 0.81739 1.11234
 C1506 C 0.67274 0.82468 1.12544
 C1507 C 0.71516 0.78244 1.05070
 C1508 C 0.72289 0.77489 1.03807
 H1509 H 0.68923 0.79929 1.03373
 H1510 H 0.66208 0.81885 1.02948
 H1511 H 0.64691 0.83385 1.05600
 H1512 H 0.65879 0.82939 1.08693
 H1513 H 0.70579 0.80051 1.12925
 H1514 H 0.73297 0.78102 1.13347
 H1515 H 0.74816 0.76608 1.10694
 H1516 H 0.73621 0.77042 1.07606
 C1517 C 0.20587 0.29046 1.06665
 C1518 C 0.20869 0.28331 1.08455
 C1519 C 0.19997 0.29196 1.09982
 C1520 C 0.18848 0.30771 1.09710
 C1521 C 0.18561 0.31481 1.07919
 C1522 C 0.19433 0.30615 1.06392
 C1523 C 0.19127 0.31350 1.04615
 C1524 C 0.17991 0.32896 1.04354
 C1525 C 0.17138 0.33743 1.05847
 C1526 C 0.17415 0.33050 1.07612
 C1527 C 0.20300 0.28457 1.11759
 C1528 C 0.21431 0.26906 1.12019
 C1529 C 0.22282 0.26058 1.10526
 C1530 C 0.22011 0.26758 1.08762
 C1531 C 0.17972 0.31663 1.11275
 C1532 C 0.17257 0.32394 1.12585
 C1533 C 0.21497 0.28169 1.05112
 C1534 C 0.22277 0.27417 1.03852
 H1535 H 0.19760 0.30738 1.03411
 H1536 H 0.17771 0.33440 1.02985
 H1537 H 0.16257 0.34944 1.05636
 H1538 H 0.16721 0.33755 1.08730
 H1539 H 0.19668 0.29066 1.12963
 H1540 H 0.21646 0.26358 1.13386
 H1541 H 0.23154 0.24851 1.10735
 H1542 H 0.22705 0.26050 1.07646
 C1543 C 0.20670 0.79206 0.56650
 C1544 C 0.20956 0.78531 0.58455
 C1545 C 0.20077 0.79422 0.59963
 C1546 C 0.18918 0.80983 0.59659
 C1547 C 0.18628 0.81654 0.57854
 C1548 C 0.19507 0.80762 0.56345
 C1549 C 0.19198 0.81458 0.54553
 C1550 C 0.18052 0.82991 0.54260
 C1551 C 0.17193 0.83863 0.55735
 C1552 C 0.17472 0.83208 0.57515
 C1553 C 0.20385 0.78723 0.61754
 C1554 C 0.21526 0.77186 0.62047
 C1555 C 0.22384 0.76313 0.60572
 C1556 C 0.22109 0.76973 0.58794
 C1557 C 0.18029 0.81897 0.61204
 C1558 C 0.17303 0.82643 0.62500
 C1559 C 0.21582 0.78300 0.55115
 C1560 C 0.22360 0.77528 0.53864
 H1561 H 0.19836 0.80826 0.53363
 H1562 H 0.17830 0.83505 0.52881
 H1563 H 0.16304 0.85054 0.55501
 H1564 H 0.16773 0.83933 0.58618
 H1565 H 0.19748 0.79353 0.62946
 H1566 H 0.21744 0.76668 0.63425
 H1567 H 0.23265 0.75117 0.60805
 H1568 H 0.22808 0.76246 0.57692
 C1569 C 0.29387 0.70618 0.56654
 C1570 C 0.29110 0.71315 0.58452
 C1571 C 0.29992 0.70439 0.59966
 C1572 C 0.31146 0.68871 0.59674
 C1573 C 0.31427 0.68179 0.57875
 C1574 C 0.30545 0.69055 0.56360
 C1575 C 0.30847 0.68338 0.54575
 C1576 C 0.31988 0.66799 0.54294
 C1577 C 0.32850 0.65942 0.55774
 C1578 C 0.32578 0.66617 0.57548
 C1579 C 0.29692 0.71160 0.61751
 C1580 C 0.28557 0.72704 0.62032
 C1581 C 0.27697 0.73562 0.60551
 C1582 C 0.27963 0.72881 0.58779
 C1583 C 0.32036 0.67972 0.61226
 C1584 C 0.32763 0.67240 0.62528
 C1585 C 0.28472 0.71509 0.55113
 C1586 C 0.27690 0.72272 0.53860
 H1587 H 0.30206 0.68959 0.53380
 H1588 H 0.32204 0.66269 0.52919
 H1589 H 0.33735 0.64746 0.55548
 H1590 H 0.33279 0.65904 0.58655
 H1591 H 0.30332 0.70541 0.62947
 H1592 H 0.28346 0.73238 0.63405
 H1593 H 0.26821 0.74764 0.60775
 H1594 H 0.27263 0.73597 0.57673
 C1595 C 0.29322 0.20654 1.06727
 C1596 C 0.29035 0.21391 1.08509
 C1597 C 0.29907 0.20547 1.10046
 C1598 C 0.31061 0.18973 1.09794
 C1599 C 0.31352 0.18241 1.08012
 C1600 C 0.30480 0.19084 1.06474
 C1601 C 0.30791 0.18328 1.04706
 C1602 C 0.31932 0.16781 1.04464
 C1603 C 0.32784 0.15956 1.05968
 C1604 C 0.32503 0.16671 1.07725
 C1605 C 0.29598 0.21308 1.11814
 C1606 C 0.28462 0.22859 1.12054
 C1607 C 0.27612 0.23685 1.10551
 C1608 C 0.27887 0.22964 1.08796
 C1609 C 0.31939 0.18105 1.11370
 C1610 C 0.32653 0.17395 1.12692
 C1611 C 0.28416 0.21512 1.05163
 C1612 C 0.27641 0.22249 1.03892
 H1613 H 0.30158 0.18922 1.03495
 H1614 H 0.32155 0.16220 1.03103
 H1615 H 0.33669 0.14755 1.05773
 H1616 H 0.33197 0.15982 1.08852
 H1617 H 0.30230 0.20716 1.13026
 H1618 H 0.28243 0.23423 1.13415
 H1619 H 0.26735 0.24892 1.10744
 H1620 H 0.27194 0.23656 1.07670
 C1621 C 0.79263 0.70756 1.06734
 C1622 C 0.80915 0.69720 1.06522
 C1623 C 0.81766 0.68890 1.08079
 C1624 C 0.80960 0.69101 1.09839
 C1625 C 0.79307 0.70138 1.10050
 C1626 C 0.78457 0.70967 1.08493
 C1627 C 0.76804 0.71996 1.08740
 C1628 C 0.76014 0.72197 1.10473
 C1629 C 0.76847 0.71387 1.11994
 C1630 C 0.78475 0.70368 1.11794
 C1631 C 0.83416 0.67860 1.07833
 C1632 C 0.84203 0.67656 1.06099
 C1633 C 0.83371 0.68468 1.04577
 C1634 C 0.81745 0.69490 1.04778
 C1635 C 0.81827 0.68255 1.11431
 C1636 C 0.82535 0.67559 1.12763
 C1637 C 0.78392 0.71612 1.05149
 C1638 C 0.77638 0.72345 1.03863
 H1639 H 0.76104 0.72655 1.07599
 H1640 H 0.74748 0.72983 1.10635
 H1641 H 0.76228 0.71548 1.13338
 H1642 H 0.79069 0.69764 1.13019
 H1643 H 0.84115 0.67203 1.08975
 H1644 H 0.85466 0.66864 1.05935
 H1645 H 0.83988 0.68306 1.03232
 H1646 H 0.81149 0.70095 1.03553
 C1647 C 0.79304 0.20611 0.56672
 C1648 C 0.80453 0.19038 0.56398
 C1649 C 0.81322 0.18170 0.57925
 C1650 C 0.81037 0.18881 0.59716
 C1651 C 0.79891 0.20458 0.59989
 C1652 C 0.79023 0.21326 0.58463
 C1653 C 0.77884 0.22902 0.58771
 C1654 C 0.77614 0.23602 0.60535
 C1655 C 0.78461 0.22752 0.62027
 C1656 C 0.79588 0.21198 0.61766
 C1657 C 0.82464 0.16597 0.57617
 C1658 C 0.82739 0.15903 0.55851
 C1659 C 0.81890 0.16752 0.54359
 C1660 C 0.80758 0.18302 0.54621
 C1661 C 0.81914 0.17989 0.61279
 C1662 C 0.82629 0.17261 0.62590
 C1663 C 0.78402 0.21494 0.55119
 C1664 C 0.77630 0.22250 0.53857
 H1665 H 0.77193 0.23612 0.57655
 H1666 H 0.76744 0.24811 0.60744
 H1667 H 0.78246 0.23300 0.63395
 H1668 H 0.80218 0.20586 0.62970
 H1669 H 0.83154 0.15889 0.58734
 H1670 H 0.83617 0.14699 0.55640
 H1671 H 0.82109 0.16208 0.52990
 H1672 H 0.80128 0.18916 0.53417
 C1673 C 0.70776 0.70877 0.43295
 C1674 C 0.69246 0.69674 0.43571
 C1675 C 0.68383 0.68802 0.42041
 C1676 C 0.69056 0.69137 0.40245
 C1677 C 0.70585 0.70341 0.39970
 C1678 C 0.71448 0.71214 0.41499
 C1679 C 0.72975 0.72413 0.41189
 C1680 C 0.73629 0.72741 0.39419
 C1681 C 0.72787 0.71887 0.37925
 C1682 C 0.71283 0.70700 0.38188
 C1683 C 0.66856 0.67605 0.42351
 C1684 C 0.66200 0.67280 0.44121
 C1685 C 0.67044 0.68132 0.45616
 C1686 C 0.68550 0.69318 0.45353
 C1687 C 0.68178 0.68248 0.38680
 C1688 C 0.67465 0.67520 0.37366
 C1689 C 0.71662 0.71772 0.44853
 C1690 C 0.72425 0.72534 0.46118
 H1691 H 0.73678 0.73110 0.42306
 H1692 H 0.74796 0.73664 0.39207
 H1693 H 0.73302 0.72145 0.36553
 H1694 H 0.70674 0.70069 0.36982
 H1695 H 0.66154 0.66910 0.41232
 H1696 H 0.65031 0.66360 0.44334
 H1697 H 0.66530 0.67874 0.46989
 H1698 H 0.69161 0.69949 0.46558
 C1699 C 0.70635 0.20921 -0.06775
 C1700 C 0.69494 0.19335 -0.06519
 C1701 C 0.68636 0.18473 -0.08057
 C1702 C 0.68923 0.19203 -0.09841
 C1703 C 0.70057 0.20796 -0.10095
 C1704 C 0.70915 0.21657 -0.08557
 C1705 C 0.72044 0.23246 -0.08846
 C1706 C 0.72315 0.23966 -0.10603
 C1707 C 0.71477 0.23123 -0.12106
 C1708 C 0.70360 0.21556 -0.11863
 C1709 C 0.67503 0.16888 -0.07768
 C1710 C 0.67227 0.16174 -0.06010
 C1711 C 0.68066 0.17017 -0.04507
 C1712 C 0.69188 0.18579 -0.04750
 C1713 C 0.68062 0.18314 -0.11416
 C1714 C 0.67361 0.17586 -0.12736
 C1715 C 0.71534 0.21791 -0.05212
 C1716 C 0.72307 0.22534 -0.03941
 H1717 H 0.72727 0.23952 -0.07721
 H1718 H 0.73177 0.25186 -0.10798
 H1719 H 0.71692 0.23686 -0.13468
 H1720 H 0.69737 0.20950 -0.13075
 H1721 H 0.66821 0.16184 -0.08895
 H1722 H 0.66356 0.14960 -0.05814
 H1723 H 0.67847 0.16457 -0.03144
 H1724 H 0.69811 0.19187 -0.03539
 C1725 C 0.20712 0.70784 -0.06629
 C1726 C 0.19536 0.69235 -0.06320
 C1727 C 0.18656 0.68339 -0.07827
 C1728 C 0.18959 0.68999 -0.09635
 C1729 C 0.20132 0.70552 -0.09943
 C1730 C 0.21011 0.71447 -0.08437
 C1731 C 0.22178 0.72997 -0.08780
 C1732 C 0.22465 0.73646 -0.10560
 C1733 C 0.21607 0.72769 -0.12033
 C1734 C 0.20453 0.71239 -0.11737
 C1735 C 0.17487 0.66793 -0.07484
 C1736 C 0.17195 0.66149 -0.05702
 C1737 C 0.18054 0.67025 -0.04229
 C1738 C 0.19213 0.68551 -0.04526
 C1739 C 0.18069 0.68082 -0.11178
 C1740 C 0.17343 0.67334 -0.12474
 C1741 C 0.21626 0.71693 -0.05096
 C1742 C 0.22405 0.72466 -0.03847
 H1743 H 0.22877 0.73726 -0.07680
 H1744 H 0.23357 0.74836 -0.10797
 H1745 H 0.21836 0.73278 -0.13414
 H1746 H 0.19817 0.70606 -0.12928
 H1747 H 0.16788 0.66066 -0.08585
 H1748 H 0.16296 0.64965 -0.05464
 H1749 H 0.17822 0.66520 -0.02847
 H1750 H 0.19850 0.69187 -0.03336
 C1751 C 0.20659 0.20823 0.43341
 C1752 C 0.20938 0.21545 0.41553
 C1753 C 0.20076 0.20674 0.40023
 C1754 C 0.18939 0.19085 0.40291
 C1755 C 0.18656 0.18368 0.42080
 C1756 C 0.19519 0.19240 0.43610
 C1757 C 0.19217 0.18497 0.45385
 C1758 C 0.18094 0.16937 0.45642
 C1759 C 0.17251 0.16084 0.44146
 C1760 C 0.17523 0.16785 0.42383
 C1761 C 0.20377 0.21420 0.38249
 C1762 C 0.21495 0.22984 0.37993
 C1763 C 0.22336 0.23837 0.39488
 C1764 C 0.22068 0.23132 0.41250
 C1765 C 0.18069 0.18190 0.38724
 C1766 C 0.17359 0.17456 0.37412
 C1767 C 0.21557 0.21708 0.44897
 C1768 C 0.22327 0.22466 0.46161
 H1769 H 0.19843 0.19113 0.46590
 H1770 H 0.17877 0.16387 0.47009
 H1771 H 0.16380 0.14872 0.44353
 H1772 H 0.16838 0.16074 0.41263
 H1773 H 0.19752 0.20806 0.37042
 H1774 H 0.21708 0.23537 0.36627
 H1775 H 0.23199 0.25055 0.39283
 H1776 H 0.22754 0.23845 0.42369
 C1777 C 0.29389 0.43411 0.70709
 C1778 C 0.30874 0.42473 0.71573
 C1779 C 0.31764 0.40964 0.70665
 C1780 C 0.31163 0.40403 0.68900
 C1781 C 0.29698 0.41361 0.68024
 C1782 C 0.28808 0.42870 0.68931
 C1783 C 0.27341 0.43801 0.68031
 C1784 C 0.26771 0.43259 0.66284
 C1785 C 0.27640 0.41783 0.65397
 C1786 C 0.29087 0.40840 0.66251
 C1787 C 0.33242 0.40043 0.71559
 C1788 C 0.33823 0.40596 0.73299
 C1789 C 0.32953 0.42071 0.74187
 C1790 C 0.31495 0.43003 0.73340
 C1791 C 0.32028 0.38817 0.68004
 C1792 C 0.32736 0.37486 0.67279
 C1793 C 0.28436 0.44907 0.71665
 C1794 C 0.27635 0.46131 0.72473
 H1795 H 0.26623 0.44958 0.68664
 H1796 H 0.25647 0.43987 0.65615
 H1797 H 0.27192 0.41367 0.64040
 H1798 H 0.29722 0.39702 0.65505
 H1799 H 0.33964 0.38889 0.70924
 H1800 H 0.34956 0.39877 0.73962
 H1801 H 0.33411 0.42496 0.75538
 H1802 H 0.30863 0.44143 0.74085
 C1803 C 0.29326 0.93438 0.20632
 C1804 C 0.31278 0.93296 0.20656
 C1805 C 0.32163 0.91772 0.19769
 C1806 C 0.31090 0.90399 0.18861
 C1807 C 0.29139 0.90556 0.18813
 C1808 C 0.28255 0.92079 0.19701
 C1809 C 0.26302 0.92201 0.19640
 C1810 C 0.25254 0.90858 0.18727
 C1811 C 0.26119 0.89369 0.17859
 C1812 C 0.28038 0.89213 0.17897
 C1813 C 0.34116 0.91657 0.19818
 C1814 C 0.35165 0.93009 0.20717
 C1815 C 0.34300 0.94499 0.21584
 C1816 C 0.32379 0.94648 0.21559
 C1817 C 0.31987 0.88808 0.18007
 C1818 C 0.32712 0.87470 0.17309
 C1819 C 0.28414 0.94955 0.21594
 C1820 C 0.27638 0.96193 0.22406
 H1821 H 0.25565 0.93335 0.20293
 H1822 H 0.23762 0.90974 0.18694
 H1823 H 0.25298 0.88330 0.17151
 H1824 H 0.28647 0.88030 0.17199
 H1825 H 0.34851 0.90524 0.19162
 H1826 H 0.36657 0.92900 0.20741
 H1827 H 0.35121 0.95546 0.22281
 H1828 H 0.31769 0.95833 0.22252
 C1829 C 0.79351 0.43231 0.20717
 C1830 C 0.78693 0.41401 0.21061
 C1831 C 0.79552 0.39849 0.20197
 C1832 C 0.81063 0.40135 0.18993
 C1833 C 0.81719 0.41965 0.18646
 C1834 C 0.80860 0.43517 0.19510
 C1835 C 0.81539 0.45333 0.19143
 C1836 C 0.83024 0.45607 0.17954
 C1837 C 0.83864 0.44090 0.17109
 C1838 C 0.83225 0.42286 0.17445
 C1839 C 0.78869 0.38034 0.20563
 C1840 C 0.77379 0.37760 0.21746
 C1841 C 0.76537 0.39278 0.22589
 C1842 C 0.77182 0.41080 0.22257
 C1843 C 0.81942 0.38546 0.18116
 C1844 C 0.82658 0.37213 0.17400
 C1845 C 0.78477 0.44810 0.21612
 C1846 C 0.77726 0.46093 0.22379
 H1847 H 0.80930 0.46557 0.19768
 H1848 H 0.83526 0.47005 0.17688
 H1849 H 0.85017 0.44310 0.16186
 H1850 H 0.83923 0.41150 0.16755
 H1851 H 0.79477 0.36809 0.19940
 H1852 H 0.76874 0.36363 0.22010
 H1853 H 0.75377 0.39059 0.23503
 H1854 H 0.76480 0.42214 0.22947
 C1855 C 0.79270 0.93230 0.70923
 C1856 C 0.78956 0.91390 0.71563
 C1857 C 0.79832 0.89858 0.70682
 C1858 C 0.81018 0.90174 0.69166
 C1859 C 0.81339 0.92015 0.68532
 C1860 C 0.80462 0.93547 0.69413
 C1861 C 0.80804 0.95374 0.68756
 C1862 C 0.81979 0.95679 0.67269
 C1863 C 0.82836 0.94181 0.66407
 C1864 C 0.82524 0.92367 0.67024
 C1865 C 0.79495 0.88032 0.71346
 C1866 C 0.78328 0.87728 0.72838
 C1867 C 0.77472 0.89226 0.73701
 C1868 C 0.77777 0.91039 0.73076
 C1869 C 0.81902 0.88605 0.68261
 C1870 C 0.82623 0.87287 0.67523
 C1871 C 0.78358 0.94789 0.71817
 C1872 C 0.77583 0.96062 0.72576
 H1873 H 0.80170 0.96584 0.69382
 H1874 H 0.82226 0.97085 0.66784
 H1875 H 0.83747 0.94425 0.65252
 H1876 H 0.83222 0.91247 0.66309
 H1877 H 0.80130 0.86821 0.70722
 H1878 H 0.78087 0.86323 0.73328
 H1879 H 0.76567 0.88983 0.74860
 H1880 H 0.77079 0.92157 0.73794
 C1881 C 0.70732 0.56823 0.70639
 C1882 C 0.69606 0.56529 0.69077
 C1883 C 0.68734 0.58071 0.68208
 C1884 C 0.68993 0.59897 0.68908
 C1885 C 0.70118 0.60190 0.70472
 C1886 C 0.70990 0.58648 0.71341
 C1887 C 0.72108 0.58976 0.72903
 C1888 C 0.72356 0.60775 0.73589
 C1889 C 0.71504 0.62282 0.72739
 C1890 C 0.70398 0.62001 0.71198
 C1891 C 0.67615 0.57743 0.66647
 C1892 C 0.67365 0.55943 0.65965
 C1893 C 0.68217 0.54436 0.66815
 C1894 C 0.69326 0.54717 0.68353
 C1895 C 0.68106 0.61475 0.68022
 C1896 C 0.67379 0.62798 0.67300
 C1897 C 0.71630 0.55253 0.71528
 C1898 C 0.72393 0.53976 0.72291
 H1899 H 0.72801 0.57850 0.73613
 H1900 H 0.73210 0.60999 0.74788
 H1901 H 0.71701 0.63676 0.73277
 H1902 H 0.69765 0.63218 0.70586
 H1903 H 0.66924 0.58871 0.65939
 H1904 H 0.66504 0.55718 0.64769
 H1905 H 0.68018 0.53041 0.66279
 H1906 H 0.69960 0.53501 0.68968
 C1907 C 0.70576 0.06601 0.20385
 C1908 C 0.71626 0.07828 0.19271
 C1909 C 0.70751 0.09365 0.18398
 C1910 C 0.68832 0.09667 0.18643
 C1911 C 0.67778 0.08424 0.19735
 C1912 C 0.68652 0.06886 0.20608
 C1913 C 0.67571 0.05667 0.21697
 C1914 C 0.65679 0.05958 0.21918
 C1915 C 0.64824 0.07462 0.21065
 C1916 C 0.65855 0.08686 0.19984
 C1917 C 0.71831 0.10576 0.17296
 C1918 C 0.73720 0.10277 0.17065
 C1919 C 0.74575 0.08775 0.17920
 C1920 C 0.73547 0.07560 0.19012
 C1921 C 0.67954 0.11275 0.17802
 C1922 C 0.67241 0.12625 0.17117
 C1923 C 0.71484 0.05073 0.21331
 C1924 C 0.72257 0.03825 0.22131
 H1925 H 0.68173 0.04477 0.22387
 H1926 H 0.64872 0.05011 0.22755
 H1927 H 0.63354 0.07682 0.21240
 H1928 H 0.65128 0.09834 0.19347
 H1929 H 0.71228 0.11763 0.16602
 H1930 H 0.74524 0.11217 0.16217
 H1931 H 0.76043 0.08549 0.17735
 H1932 H 0.74274 0.06410 0.19646
 C1933 C 0.20576 0.56650 0.20423
 C1934 C 0.18653 0.56935 0.20653
 C1935 C 0.17776 0.58474 0.19783
 C1936 C 0.18826 0.59717 0.18689
 C1937 C 0.20744 0.59416 0.18438
 C1938 C 0.21622 0.57879 0.19308
 C1939 C 0.23543 0.57612 0.19043
 C1940 C 0.24567 0.58828 0.17949
 C1941 C 0.23709 0.60331 0.17098
 C1942 C 0.21820 0.60628 0.17334
 C1943 C 0.15853 0.58735 0.20040
 C1944 C 0.14827 0.57510 0.21123
 C1945 C 0.15685 0.56006 0.21973
 C1946 C 0.17576 0.55715 0.21745
 C1947 C 0.17945 0.61325 0.17851
 C1948 C 0.17231 0.62675 0.17167
 C1949 C 0.21488 0.55122 0.21366
 C1950 C 0.22264 0.53874 0.22163
 H1951 H 0.24273 0.56462 0.19675
 H1952 H 0.26035 0.58603 0.17761
 H1953 H 0.24510 0.61271 0.16248
 H1954 H 0.21215 0.61816 0.16642
 H1955 H 0.15124 0.59883 0.19405
 H1956 H 0.13358 0.57730 0.21304
 H1957 H 0.14881 0.55059 0.22813
 H1958 H 0.18180 0.54525 0.22433
 C1959 C 0.20738 0.06613 0.70556
 C1960 C 0.18822 0.06921 0.70818
 C1961 C 0.17944 0.08459 0.69949
 C1962 C 0.18987 0.09680 0.68822
 C1963 C 0.20897 0.09356 0.68539
 C1964 C 0.21775 0.07819 0.69409
 C1965 C 0.23688 0.07529 0.69112
 C1966 C 0.24703 0.08722 0.67986
 C1967 C 0.23845 0.10225 0.67135
 C1968 C 0.21964 0.10545 0.67404
 C1969 C 0.16030 0.08743 0.70238
 C1970 C 0.15012 0.07541 0.71352
 C1971 C 0.15870 0.06037 0.72202
 C1972 C 0.17753 0.05724 0.71943
 C1973 C 0.18105 0.11286 0.67981
 C1974 C 0.17388 0.12633 0.67294
 C1975 C 0.21650 0.05082 0.71494
 C1976 C 0.22424 0.03830 0.72288
 H1977 H 0.24417 0.06378 0.69742
 H1978 H 0.26165 0.08480 0.67773
 H1979 H 0.24640 0.11148 0.66262
 H1980 H 0.21359 0.11732 0.66711
 H1981 H 0.15301 0.09893 0.69605
 H1982 H 0.13548 0.07779 0.71558
 H1983 H 0.15072 0.05108 0.73066
 H1984 H 0.18358 0.04535 0.72631
 C1985 C 0.29196 0.56706 0.29180
 C1986 C 0.30524 0.56361 0.30565
 C1987 C 0.31413 0.57881 0.31459
 C1988 C 0.30968 0.59738 0.30962
 C1989 C 0.29640 0.60082 0.29575
 C1990 C 0.28752 0.58563 0.28681
 C1991 C 0.27430 0.58943 0.27299
 C1992 C 0.26997 0.60772 0.26813
 C1993 C 0.27865 0.62258 0.27687
 C1994 C 0.29172 0.61926 0.29053
 C1995 C 0.32736 0.57502 0.32839
 C1996 C 0.33169 0.55672 0.33323
 C1997 C 0.32301 0.54186 0.32449
 C1998 C 0.30992 0.54518 0.31085
 C1999 C 0.31871 0.61295 0.31872
 C2000 C 0.32605 0.62607 0.32610
 C2001 C 0.28284 0.55159 0.28264
 C2002 C 0.27508 0.53898 0.27483
 H2003 H 0.26717 0.57835 0.26579
 H2004 H 0.25983 0.61037 0.25753
 H2005 H 0.27524 0.63676 0.27306
 H2006 H 0.29809 0.63128 0.29692
 H2007 H 0.33448 0.58612 0.33558
 H2008 H 0.34185 0.55406 0.34382
 H2009 H 0.32642 0.52767 0.32830
 H2010 H 0.30353 0.53317 0.30444
 C2011 C 0.29383 0.06568 0.79336
 C2012 C 0.28922 0.08433 0.78886
 C2013 C 0.29823 0.09937 0.79792
 C2014 C 0.31181 0.09568 0.81144
 C2015 C 0.31643 0.07704 0.81593
 C2016 C 0.30742 0.06199 0.80686
 C2017 C 0.31227 0.04347 0.81158
 C2018 C 0.32565 0.03991 0.82488
 C2019 C 0.33446 0.05462 0.83374
 C2020 C 0.32996 0.07300 0.82938
 C2021 C 0.29337 0.11789 0.79318
 C2022 C 0.28000 0.12145 0.77988
 C2023 C 0.27119 0.10674 0.77101
 C2024 C 0.27569 0.08838 0.77539
 C2025 C 0.32096 0.11110 0.82068
 C2026 C 0.32836 0.12412 0.82817
 C2027 C 0.28459 0.05037 0.78406
 C2028 C 0.27673 0.03790 0.77615
 H2029 H 0.30579 0.03157 0.80506
 H2030 H 0.32919 0.02567 0.82832
 H2031 H 0.34485 0.05178 0.84407
 H2032 H 0.33719 0.08397 0.83664
 H2033 H 0.29982 0.12980 0.79969
 H2034 H 0.27646 0.13569 0.77643
 H2035 H 0.26082 0.10958 0.76068
 H2036 H 0.26845 0.07742 0.76811
 C2037 C 0.79327 0.56782 0.79222
 C2038 C 0.80481 0.56461 0.80758
 C2039 C 0.81368 0.57988 0.81642
 C2040 C 0.81095 0.59827 0.80983
 C2041 C 0.79943 0.60147 0.79444
 C2042 C 0.79056 0.58620 0.78561
 C2043 C 0.77912 0.58975 0.77024
 C2044 C 0.77652 0.60785 0.76377
 C2045 C 0.78517 0.62278 0.77242
 C2046 C 0.79651 0.61971 0.78758
 C2047 C 0.82515 0.57633 0.83176
 C2048 C 0.82779 0.55821 0.83818
 C2049 C 0.81912 0.54328 0.82954
 C2050 C 0.80775 0.54636 0.81441
 C2051 C 0.81995 0.61390 0.81886
 C2052 C 0.82732 0.62700 0.82625
 C2053 C 0.78413 0.55227 0.78320
 C2054 C 0.77636 0.53960 0.77551
 H2055 H 0.77207 0.57860 0.76304
 H2056 H 0.76776 0.61031 0.75198
 H2057 H 0.78311 0.63682 0.76735
 H2058 H 0.80294 0.63178 0.79383
 H2059 H 0.83218 0.58749 0.83894
 H2060 H 0.83660 0.55575 0.84993
 H2061 H 0.82122 0.52923 0.83458
 H2062 H 0.80131 0.53430 0.80814
 C2063 C 0.79166 0.06637 0.29196
 C2064 C 0.78721 0.08497 0.28712
 C2065 C 0.79611 0.10010 0.29614
 C2066 C 0.80942 0.09654 0.30995
 C2067 C 0.81387 0.07794 0.31480
 C2068 C 0.80496 0.06281 0.30577
 C2069 C 0.80963 0.04434 0.31083
 C2070 C 0.82274 0.04091 0.32443
 C2071 C 0.83144 0.05570 0.33326
 C2072 C 0.82712 0.07404 0.32855
 C2073 C 0.79143 0.11857 0.29106
 C2074 C 0.77834 0.12200 0.27745
 C2075 C 0.76964 0.10721 0.26862
 C2076 C 0.77396 0.08889 0.27334
 C2077 C 0.81852 0.11205 0.31911
 C2078 C 0.82592 0.12512 0.32651
 C2079 C 0.78254 0.05096 0.28268
 C2080 C 0.77479 0.03841 0.27478
 H2081 H 0.80322 0.03238 0.30435
 H2082 H 0.82615 0.02670 0.32813
 H2083 H 0.84162 0.05297 0.34381
 H2084 H 0.83425 0.08508 0.33580
 H2085 H 0.79782 0.13055 0.29752
 H2086 H 0.77493 0.13621 0.27374
 H2087 H 0.75948 0.10994 0.25806
 H2088 H 0.76681 0.07786 0.26608
 C2089 C 0.70906 0.43224 0.29354
 C2090 C 0.69305 0.43505 0.30437
 C2091 C 0.68430 0.41959 0.31300
 C2092 C 0.69162 0.40141 0.31074
 C2093 C 0.70769 0.39861 0.29999
 C2094 C 0.71644 0.41407 0.29137
 C2095 C 0.73250 0.41092 0.28068
 C2096 C 0.73971 0.39302 0.27860
 C2097 C 0.73114 0.37791 0.28701
 C2098 C 0.71531 0.38058 0.29759
 C2099 C 0.66829 0.42274 0.32373
 C2100 C 0.66114 0.44066 0.32589
 C2101 C 0.66970 0.45578 0.31745
 C2102 C 0.68548 0.45309 0.30680
 C2103 C 0.68258 0.38556 0.31938
 C2104 C 0.67518 0.37229 0.32642
 C2105 C 0.71790 0.44795 0.28450
 C2106 C 0.72543 0.46074 0.27677
 H2107 H 0.73967 0.42222 0.27385
 H2108 H 0.75203 0.39087 0.27043
 H2109 H 0.73679 0.36403 0.28534
 H2110 H 0.70916 0.36838 0.30387
 H2111 H 0.66115 0.41143 0.33057
 H2112 H 0.64889 0.44283 0.33415
 H2113 H 0.66409 0.46967 0.31917
 H2114 H 0.69165 0.46528 0.30052
 C2115 C 0.70623 0.93452 0.79684
 C2116 C 0.68689 0.93517 0.79974
 C2117 C 0.67781 0.92011 0.80872
 C2118 C 0.68814 0.90450 0.81475
 C2119 C 0.70753 0.90395 0.81204
 C2120 C 0.71659 0.91900 0.80304
 C2121 C 0.73597 0.91808 0.80039
 C2122 C 0.74609 0.90275 0.80647
 C2123 C 0.73723 0.88805 0.81530
 C2124 C 0.71818 0.88857 0.81809
 C2125 C 0.65845 0.92102 0.81139
 C2126 C 0.64834 0.93639 0.80537
 C2127 C 0.65721 0.95112 0.79660
 C2128 C 0.67626 0.95059 0.79378
 C2129 C 0.67883 0.88883 0.82342
 C2130 C 0.67126 0.87564 0.83043
 C2131 C 0.71546 0.94961 0.78717
 C2132 C 0.72328 0.96192 0.77898
 H2133 H 0.74350 0.92917 0.79362
 H2134 H 0.76089 0.90228 0.80433
 H2135 H 0.74516 0.87618 0.82001
 H2136 H 0.71192 0.87680 0.82503
 H2137 H 0.65093 0.90991 0.81815
 H2138 H 0.63354 0.93687 0.80752
 H2139 H 0.64930 0.96302 0.79195
 H2140 H 0.68255 0.96239 0.78690
 C2141 C 0.20645 0.43334 0.79574
 C2142 C 0.21589 0.42314 0.80948
 C2143 C 0.20703 0.40780 0.81821
 C2144 C 0.18880 0.40275 0.81315
 C2145 C 0.17925 0.41316 0.79963
 C2146 C 0.18810 0.42850 0.79090
 C2147 C 0.17830 0.43864 0.77738
 C2148 C 0.16027 0.43377 0.77262
 C2149 C 0.15162 0.41877 0.78115
 C2150 C 0.16093 0.40853 0.79451
 C2151 C 0.21678 0.39776 0.83185
 C2152 C 0.23475 0.40273 0.83673
 C2153 C 0.24340 0.41773 0.82819
 C2154 C 0.23415 0.42786 0.81471
 C2155 C 0.18003 0.38663 0.82155
 C2156 C 0.17288 0.37310 0.82838
 C2157 C 0.21577 0.44853 0.78629
 C2158 C 0.22364 0.46094 0.77829
 H2159 H 0.18444 0.45043 0.77037
 H2160 H 0.15297 0.44169 0.76225
 H2161 H 0.13761 0.41504 0.77741
 H2162 H 0.15361 0.39699 0.80077
 H2163 H 0.21062 0.38600 0.83890
 H2164 H 0.24199 0.39491 0.84720
 H2165 H 0.25736 0.42154 0.83203
 H2166 H 0.24146 0.43942 0.80848
 C2167 C 0.20677 0.93396 0.29520
 C2168 C 0.21548 0.92499 0.31019
 C2169 C 0.20667 0.90966 0.31898
 C2170 C 0.18920 0.90339 0.31272
 C2171 C 0.18035 0.91256 0.29793
 C2172 C 0.18916 0.92789 0.28914
 C2173 C 0.18008 0.93679 0.27433
 C2174 C 0.16278 0.93072 0.26838
 C2175 C 0.15416 0.91573 0.27697
 C2176 C 0.16278 0.90669 0.29158
 C2177 C 0.21568 0.90086 0.33389
 C2178 C 0.23290 0.90704 0.33995
 C2179 C 0.24152 0.92203 0.33136
 C2180 C 0.23298 0.93095 0.31664
 C2181 C 0.18052 0.88728 0.32123
 C2182 C 0.17343 0.87376 0.32815
 C2183 C 0.21610 0.94914 0.28576
 C2184 C 0.22397 0.96156 0.27777
 H2185 H 0.18621 0.94852 0.26723
 H2186 H 0.15602 0.93769 0.25705
 H2187 H 0.14072 0.91107 0.27230
 H2188 H 0.15552 0.89511 0.29783
 H2189 H 0.20952 0.88916 0.34102
 H2190 H 0.23959 0.90016 0.35138
 H2191 H 0.25490 0.92678 0.33612
 H2192 H 0.24022 0.94256 0.31042
 C2193 C 0.43375 0.29378 0.70639
 C2194 C 0.42828 0.28790 0.68864
 C2195 C 0.41321 0.29679 0.67971
 C2196 C 0.40370 0.31152 0.68857
 C2197 C 0.40934 0.31758 0.70620
 C2198 C 0.42441 0.30868 0.71514
 C2199 C 0.42974 0.31494 0.73279
 C2200 C 0.42047 0.32958 0.74137
 C2201 C 0.40574 0.33828 0.73263
 C2202 C 0.40017 0.33241 0.71525
 C2203 C 0.40795 0.29063 0.66200
 C2204 C 0.41733 0.27609 0.65336
 C2205 C 0.43206 0.26739 0.66210
 C2206 C 0.43754 0.27317 0.67953
 C2207 C 0.38790 0.32019 0.67973
 C2208 C 0.37464 0.32730 0.67258
 C2209 C 0.44873 0.28427 0.71578
 C2210 C 0.46101 0.27628 0.72372
 H2211 H 0.44113 0.30863 0.74013
 H2212 H 0.42474 0.33419 0.75486
 H2213 H 0.39858 0.34964 0.73935
 H2214 H 0.38865 0.33963 0.70901
 H2215 H 0.39659 0.29697 0.65465
 H2216 H 0.41313 0.27156 0.63982
 H2217 H 0.43930 0.25611 0.65532
 H2218 H 0.44909 0.26598 0.68576
 C2219 C 0.43322 0.79300 0.20731
 C2220 C 0.41513 0.79044 0.21433
 C2221 C 0.39987 0.79923 0.20562
 C2222 C 0.40279 0.81054 0.18994
 C2223 C 0.42089 0.81313 0.18294
 C2224 C 0.43615 0.80433 0.19166
 C2225 C 0.45410 0.80712 0.18443
 C2226 C 0.45691 0.81829 0.16901
 C2227 C 0.44199 0.82689 0.16049
 C2228 C 0.42415 0.82438 0.16731
 C2229 C 0.38192 0.79645 0.21289
 C2230 C 0.37913 0.78534 0.22833
 C2231 C 0.39405 0.77676 0.23687
 C2232 C 0.41187 0.77921 0.23000
 C2233 C 0.38717 0.81945 0.18102
 C2234 C 0.37407 0.82674 0.17374
 C2235 C 0.44876 0.78394 0.21622
 C2236 C 0.46140 0.77625 0.22387
 H2237 H 0.46614 0.80072 0.19059
 H2238 H 0.47073 0.82028 0.16366
 H2239 H 0.44424 0.83555 0.14852
 H2240 H 0.41299 0.83136 0.16021
 H2241 H 0.36988 0.80284 0.20674
 H2242 H 0.36531 0.78338 0.23372
 H2243 H 0.39181 0.76818 0.24889
 H2244 H 0.42301 0.77223 0.23712
 C2245 C 0.93306 0.29084 0.20734
 C2246 C 0.91501 0.28823 0.21445
 C2247 C 0.89967 0.29689 0.20575
 C2248 C 0.90246 0.30813 0.19000
 C2249 C 0.92051 0.31076 0.18291
 C2250 C 0.93586 0.30209 0.19161
 C2251 C 0.95376 0.30492 0.18428
 C2252 C 0.95645 0.31600 0.16879
 C2253 C 0.94145 0.32447 0.16028
 C2254 C 0.92366 0.32193 0.16720
 C2255 C 0.88176 0.29406 0.21311
 C2256 C 0.87909 0.28302 0.22863
 C2257 C 0.89409 0.27457 0.23715
 C2258 C 0.91186 0.27707 0.23019
 C2259 C 0.88677 0.31700 0.18116
 C2260 C 0.87362 0.32428 0.17397
 C2261 C 0.94868 0.28194 0.21626
 C2262 C 0.96138 0.27436 0.22392
 H2263 H 0.96586 0.29862 0.19042
 H2264 H 0.97024 0.31802 0.16336
 H2265 H 0.94361 0.33307 0.14825
 H2266 H 0.91243 0.32881 0.16010
 H2267 H 0.86966 0.30035 0.20698
 H2268 H 0.86530 0.28103 0.23408
 H2269 H 0.89194 0.26605 0.24923
 H2270 H 0.92308 0.27019 0.23731
 C2271 C 0.93361 0.79233 0.70724
 C2272 C 0.93609 0.80301 0.69108
 C2273 C 0.92060 0.81158 0.68253
 C2274 C 0.90274 0.80942 0.69021
 C2275 C 0.90027 0.79873 0.70638
 C2276 C 0.91575 0.79017 0.71492
 C2277 C 0.91293 0.77957 0.73109
 C2278 C 0.89533 0.77752 0.73861
 C2279 C 0.88019 0.78588 0.73025
 C2280 C 0.88255 0.79637 0.71432
 C2281 C 0.92342 0.82219 0.66639
 C2282 C 0.94103 0.82427 0.65889
 C2283 C 0.95617 0.81590 0.66724
 C2284 C 0.95381 0.80537 0.68316
 C2285 C 0.88690 0.81820 0.68154
 C2286 C 0.87364 0.82542 0.67448
 C2287 C 0.94938 0.78353 0.71600
 C2288 C 0.96221 0.77604 0.72354
 H2289 H 0.92426 0.77279 0.73810
 H2290 H 0.89344 0.76943 0.75102
 H2291 H 0.86655 0.78423 0.73614
 H2292 H 0.87034 0.80260 0.70833
 H2293 H 0.91207 0.82897 0.65939
 H2294 H 0.94294 0.83244 0.64653
 H2295 H 0.96982 0.81756 0.66137
 H2296 H 0.96600 0.79912 0.68916
 C2297 C 0.56726 0.29274 0.29249
 C2298 C 0.58525 0.29001 0.28530
 C2299 C 0.60072 0.29849 0.29399
 C2300 C 0.59811 0.30966 0.30982
 C2301 C 0.58011 0.31243 0.31698
 C2302 C 0.56464 0.30394 0.30829
 C2303 C 0.54679 0.30690 0.31569
 C2304 C 0.54429 0.31793 0.33125
 C2305 C 0.55942 0.32623 0.33975
 C2306 C 0.57715 0.32355 0.33276
 C2307 C 0.61856 0.29555 0.28654
 C2308 C 0.62105 0.28457 0.27095
 C2309 C 0.60593 0.27630 0.26244
 C2310 C 0.58821 0.27892 0.26948
 C2311 C 0.61395 0.31823 0.31872
 C2312 C 0.62723 0.32525 0.32598
 C2313 C 0.55152 0.28392 0.28366
 C2314 C 0.53874 0.27637 0.27608
 H2315 H 0.53460 0.30074 0.30955
 H2316 H 0.53054 0.32006 0.33673
 H2317 H 0.55740 0.33479 0.35183
 H2318 H 0.58848 0.33030 0.33984
 H2319 H 0.63076 0.30170 0.29266
 H2320 H 0.63480 0.28249 0.26544
 H2321 H 0.60793 0.26782 0.25031
 H2322 H 0.57689 0.27217 0.26237
 C2323 C 0.56477 0.79546 0.79412
 C2324 C 0.58043 0.80146 0.78403
 C2325 C 0.59538 0.81033 0.79321
 C2326 C 0.59461 0.81314 0.81244
 C2327 C 0.57886 0.80735 0.82249
 C2328 C 0.56389 0.79849 0.81330
 C2329 C 0.54831 0.79279 0.82365
 C2330 C 0.54754 0.79575 0.84253
 C2331 C 0.56217 0.80441 0.85152
 C2332 C 0.57769 0.81016 0.84168
 C2333 C 0.61090 0.81617 0.78283
 C2334 C 0.61162 0.81331 0.76392
 C2335 C 0.59701 0.80463 0.75495
 C2336 C 0.58156 0.79874 0.76481
 C2337 C 0.61015 0.82172 0.82184
 C2338 C 0.62326 0.82871 0.82941
 C2339 C 0.54977 0.78589 0.78478
 C2340 C 0.53756 0.77779 0.77682
 H2341 H 0.53658 0.78601 0.81727
 H2342 H 0.53551 0.79131 0.85024
 H2343 H 0.56150 0.80668 0.86619
 H2344 H 0.58872 0.81685 0.84927
 H2345 H 0.62261 0.82300 0.78918
 H2346 H 0.62359 0.81787 0.75620
 H2347 H 0.59763 0.80245 0.74026
 H2348 H 0.57053 0.79208 0.75720
 C2349 C 0.06634 0.29226 0.79314
 C2350 C 0.08439 0.28520 0.79028
 C2351 C 0.09973 0.29374 0.79913
 C2352 C 0.09693 0.30930 0.81080
 C2353 C 0.07887 0.31634 0.81368
 C2354 C 0.06353 0.30779 0.80483
 C2355 C 0.04561 0.31506 0.80792
 C2356 C 0.04292 0.33035 0.81943
 C2357 C 0.05792 0.33871 0.82808
 C2358 C 0.07572 0.33185 0.82529
 C2359 C 0.11764 0.28643 0.79605
 C2360 C 0.12032 0.27111 0.78458
 C2361 C 0.10533 0.26274 0.77594
 C2362 C 0.08754 0.26965 0.77869
 C2363 C 0.11264 0.31804 0.81979
 C2364 C 0.12580 0.32518 0.82713
 C2365 C 0.05072 0.28350 0.78404
 C2366 C 0.03804 0.27594 0.77628
 H2367 H 0.03352 0.30902 0.80149
 H2368 H 0.02913 0.33574 0.82164
 H2369 H 0.05576 0.35059 0.83701
 H2370 H 0.08695 0.33882 0.83233
 H2371 H 0.12975 0.29245 0.80247
 H2372 H 0.13411 0.26569 0.78240
 H2373 H 0.10747 0.25081 0.76709
 H2374 H 0.07633 0.26266 0.77164
 C2375 C 0.06693 0.79276 0.29343
 C2376 C 0.08497 0.78567 0.29056
 C2377 C 0.10033 0.79422 0.29938
 C2378 C 0.09756 0.80979 0.31103
 C2379 C 0.07951 0.81684 0.31394
 C2380 C 0.06415 0.80829 0.30512
 C2381 C 0.04624 0.81557 0.30823
 C2382 C 0.04357 0.83087 0.31975
 C2383 C 0.05859 0.83923 0.32837
 C2384 C 0.07638 0.83236 0.32555
 C2385 C 0.11823 0.78689 0.29629
 C2386 C 0.12088 0.77154 0.28484
 C2387 C 0.10587 0.76318 0.27623
 C2388 C 0.08810 0.77011 0.27898
 C2389 C 0.11328 0.81856 0.31995
 C2390 C 0.12646 0.82574 0.32723
 C2391 C 0.05130 0.78406 0.28430
 C2392 C 0.03857 0.77661 0.27653
 H2393 H 0.03413 0.80954 0.30183
 H2394 H 0.02978 0.83626 0.32198
 H2395 H 0.05645 0.85111 0.33730
 H2396 H 0.08762 0.83933 0.33257
 H2397 H 0.13035 0.79290 0.30269
 H2398 H 0.13467 0.76611 0.28265
 H2399 H 0.10800 0.75123 0.26738
 H2400 H 0.07687 0.76312 0.27196
 C2401 C 0.56644 0.70832 0.70602
 C2402 C 0.56801 0.68862 0.70597
 C2403 C 0.58328 0.67997 0.69711
 C2404 C 0.59688 0.69107 0.68836
 C2405 C 0.59520 0.71076 0.68823
 C2406 C 0.57994 0.71941 0.69710
 C2407 C 0.57861 0.73912 0.69686
 C2408 C 0.59196 0.74997 0.68811
 C2409 C 0.60687 0.74152 0.67943
 C2410 C 0.60854 0.72215 0.67945
 C2411 C 0.58459 0.66027 0.69730
 C2412 C 0.57120 0.64941 0.70599
 C2413 C 0.55627 0.65786 0.71464
 C2414 C 0.55462 0.67724 0.71468
 C2415 C 0.61276 0.68229 0.67974
 C2416 C 0.62607 0.67515 0.67270
 C2417 C 0.55113 0.71721 0.71550
 C2418 C 0.53863 0.72482 0.72347
 H2419 H 0.56725 0.74635 0.70341
 H2420 H 0.59072 0.76503 0.68806
 H2421 H 0.61720 0.75001 0.67264
 H2422 H 0.62039 0.71623 0.67249
 H2423 H 0.59595 0.65305 0.69074
 H2424 H 0.57241 0.63435 0.70600
 H2425 H 0.54590 0.64937 0.72137
 H2426 H 0.54276 0.68317 0.72159
 C2427 C 0.56642 0.20750 0.20639
 C2428 C 0.56351 0.19642 0.19056
 C2429 C 0.57878 0.18778 0.18170
 C2430 C 0.59687 0.19028 0.18872
 C2431 C 0.59977 0.20133 0.20458
 C2432 C 0.58451 0.20997 0.21344
 C2433 C 0.58776 0.22095 0.22928
 C2434 C 0.60558 0.22331 0.23617
 C2435 C 0.62051 0.21489 0.22749
 C2436 C 0.61772 0.20401 0.21187
 C2437 C 0.57552 0.17678 0.16589
 C2438 C 0.55769 0.17438 0.15903
 C2439 C 0.54276 0.18282 0.16770
 C2440 C 0.54556 0.19374 0.18329
 C2441 C 0.61250 0.18150 0.17966
 C2442 C 0.62560 0.17431 0.17229
 C2443 C 0.55088 0.21644 0.21543
 C2444 C 0.53826 0.22408 0.22317
 H2445 H 0.57661 0.22781 0.23651
 H2446 H 0.60781 0.23171 0.24832
 H2447 H 0.63432 0.21677 0.23289
 H2448 H 0.62978 0.19774 0.20562
 H2449 H 0.58669 0.16993 0.15867
 H2450 H 0.55545 0.16592 0.14693
 H2451 H 0.52894 0.18091 0.16232
 H2452 H 0.53351 0.20002 0.18957
 C2453 C 0.06621 0.70820 0.20635
 C2454 C 0.06332 0.69258 0.19481
 C2455 C 0.07861 0.68392 0.18600
 C2456 C 0.09670 0.69095 0.18878
 C2457 C 0.09958 0.70662 0.20029
 C2458 C 0.08430 0.71527 0.20910
 C2459 C 0.08753 0.73092 0.22054
 C2460 C 0.10534 0.73783 0.22318
 C2461 C 0.12029 0.72936 0.21459
 C2462 C 0.11753 0.71393 0.20326
 C2463 C 0.07538 0.66831 0.17453
 C2464 C 0.05755 0.66145 0.17184
 C2465 C 0.04260 0.66991 0.18045
 C2466 C 0.04537 0.68530 0.19182
 C2467 C 0.11236 0.68208 0.17987
 C2468 C 0.12550 0.67484 0.17259
 C2469 C 0.05065 0.71702 0.21547
 C2470 C 0.03802 0.72460 0.22326
 H2471 H 0.07636 0.73799 0.22755
 H2472 H 0.10756 0.74984 0.23193
 H2473 H 0.13411 0.73478 0.21669
 H2474 H 0.12960 0.70784 0.19687
 H2475 H 0.08657 0.66126 0.16753
 H2476 H 0.05532 0.64949 0.16302
 H2477 H 0.02877 0.66453 0.17831
 H2478 H 0.03331 0.69142 0.19822
 C2479 C 0.06708 0.20713 0.70720
 C2480 C 0.06445 0.19115 0.69606
 C2481 C 0.07987 0.18259 0.68738
 C2482 C 0.09783 0.19006 0.68989
 C2483 C 0.10046 0.20605 0.70102
 C2484 C 0.08504 0.21461 0.70970
 C2485 C 0.08802 0.23059 0.72075
 C2486 C 0.10572 0.23792 0.72314
 C2487 C 0.12079 0.22954 0.71467
 C2488 C 0.11827 0.21378 0.70373
 C2489 C 0.07689 0.16663 0.67631
 C2490 C 0.05919 0.15934 0.67389
 C2491 C 0.04411 0.16772 0.68238
 C2492 C 0.04663 0.18344 0.69335
 C2493 C 0.11361 0.18131 0.68106
 C2494 C 0.12681 0.17415 0.67382
 C2495 C 0.05138 0.21589 0.71613
 C2496 C 0.03860 0.22343 0.72373
 H2497 H 0.07675 0.23761 0.72764
 H2498 H 0.10773 0.25018 0.73158
 H2499 H 0.13450 0.23527 0.71657
 H2500 H 0.13043 0.20777 0.69742
 H2501 H 0.08818 0.15963 0.66943
 H2502 H 0.05716 0.14713 0.66538
 H2503 H 0.03039 0.16200 0.68045
 H2504 H 0.03448 0.18947 0.69967
 C2505 C 0.43302 0.70738 0.29344
 C2506 C 0.43579 0.69609 0.30914
 C2507 C 0.42044 0.68732 0.31777
 C2508 C 0.40241 0.68988 0.31064
 C2509 C 0.39964 0.70117 0.29493
 C2510 C 0.41499 0.70994 0.28630
 C2511 C 0.41187 0.72115 0.27060
 C2512 C 0.39411 0.72360 0.26361
 C2513 C 0.37910 0.71505 0.27206
 C2514 C 0.38175 0.70395 0.28754
 C2515 C 0.42355 0.67611 0.33346
 C2516 C 0.44133 0.67363 0.34041
 C2517 C 0.45634 0.68220 0.33197
 C2518 C 0.45368 0.69333 0.31651
 C2519 C 0.38670 0.68093 0.31943
 C2520 C 0.37352 0.67361 0.32657
 C2521 C 0.44865 0.71636 0.28457
 C2522 C 0.46136 0.72400 0.27692
 H2523 H 0.42309 0.72812 0.26354
 H2524 H 0.39199 0.73217 0.25156
 H2525 H 0.36533 0.71700 0.26659
 H2526 H 0.36964 0.69758 0.29362
 H2527 H 0.41232 0.66915 0.34050
 H2528 H 0.44346 0.66500 0.35242
 H2529 H 0.47011 0.68023 0.33743
 H2530 H 0.46578 0.69971 0.31042
 C2531 C 0.43507 0.20566 0.79569
 C2532 C 0.42466 0.21535 0.80911
 C2533 C 0.40971 0.20627 0.81812
 C2534 C 0.40526 0.18756 0.81365
 C2535 C 0.41589 0.17776 0.80049
 C2536 C 0.43084 0.18684 0.79148
 C2537 C 0.44122 0.17678 0.77831
 C2538 C 0.43695 0.15829 0.77417
 C2539 C 0.42233 0.14942 0.78297
 C2540 C 0.41186 0.15897 0.79599
 C2541 C 0.39945 0.21627 0.83142
 C2542 C 0.40385 0.23470 0.83571
 C2543 C 0.41846 0.24357 0.82690
 C2544 C 0.42879 0.23408 0.81374
 C2545 C 0.38947 0.17857 0.82226
 C2546 C 0.37618 0.17128 0.82925
 C2547 C 0.44983 0.21519 0.78592
 C2548 C 0.46188 0.22323 0.77765
 H2549 H 0.45274 0.18307 0.77112
 H2550 H 0.44504 0.15080 0.76407
 H2551 H 0.41907 0.13504 0.77970
 H2552 H 0.40064 0.15147 0.80248
 H2553 H 0.38797 0.20996 0.83867
 H2554 H 0.39586 0.24214 0.84593
 H2555 H 0.42182 0.25789 0.83029
 H2556 H 0.44005 0.24157 0.80728
 C2557 C 0.93445 0.70774 0.79328
 C2558 C 0.93726 0.69631 0.80887
 C2559 C 0.92190 0.68768 0.81763
 C2560 C 0.90382 0.69052 0.81073
 C2561 C 0.90101 0.70194 0.79512
 C2562 C 0.91637 0.71058 0.78636
 C2563 C 0.91321 0.72192 0.77076
 C2564 C 0.89540 0.72463 0.76399
 C2565 C 0.88039 0.71621 0.77256
 C2566 C 0.88307 0.70499 0.78795
 C2567 C 0.92506 0.67631 0.83320
 C2568 C 0.94288 0.67356 0.83993
 C2569 C 0.95790 0.68200 0.83136
 C2570 C 0.95520 0.69326 0.81601
 C2571 C 0.88811 0.68166 0.81961
 C2572 C 0.87494 0.67438 0.82681
 C2573 C 0.95008 0.71662 0.78431
 C2574 C 0.96277 0.72421 0.77659
 H2575 H 0.92443 0.72878 0.76361
 H2576 H 0.89324 0.73329 0.75201
 H2577 H 0.86658 0.71837 0.76726
 H2578 H 0.87095 0.69874 0.79413
 H2579 H 0.91382 0.66945 0.84033
 H2580 H 0.94505 0.66482 0.85185
 H2581 H 0.97171 0.67981 0.83664
 H2582 H 0.96731 0.69953 0.80981
 C2583 C 0.93322 0.20578 0.29366
 C2584 C 0.93596 0.19466 0.30948
 C2585 C 0.92059 0.18598 0.31817
 C2586 C 0.90257 0.18847 0.31098
 C2587 C 0.89984 0.19958 0.29514
 C2588 C 0.91521 0.20826 0.28645
 C2589 C 0.91212 0.21928 0.27061
 C2590 C 0.89438 0.22164 0.26356
 C2591 C 0.87936 0.21319 0.27207
 C2592 C 0.88197 0.20227 0.28768
 C2593 C 0.92367 0.17494 0.33398
 C2594 C 0.94143 0.17253 0.34099
 C2595 C 0.95646 0.18101 0.33249
 C2596 C 0.95384 0.19197 0.31691
 C2597 C 0.88684 0.17963 0.31983
 C2598 C 0.87363 0.17239 0.32700
 C2599 C 0.94886 0.21472 0.28476
 C2600 C 0.96156 0.22234 0.27709
 H2601 H 0.92336 0.22616 0.26350
 H2602 H 0.89228 0.23006 0.25140
 H2603 H 0.86559 0.21508 0.26654
 H2604 H 0.86984 0.19598 0.29380
 H2605 H 0.91242 0.16806 0.34107
 H2606 H 0.94354 0.16403 0.35309
 H2607 H 0.97023 0.17909 0.33799
 H2608 H 0.96595 0.19828 0.31077
 C2609 C 0.29344 0.29357 0.56693
 C2610 C 0.30481 0.30942 0.56414
 C2611 C 0.31361 0.31811 0.57936
 C2612 C 0.31099 0.31090 0.59727
 C2613 C 0.29965 0.29502 0.60004
 C2614 C 0.29085 0.28633 0.58483
 C2615 C 0.27959 0.27046 0.58796
 C2616 C 0.27711 0.26337 0.60559
 C2617 C 0.28570 0.27188 0.62047
 C2618 C 0.29685 0.28752 0.61781
 C2619 C 0.32490 0.33395 0.57623
 C2620 C 0.32744 0.34098 0.55858
 C2621 C 0.31884 0.33248 0.54370
 C2622 C 0.30764 0.31687 0.54637
 C2623 C 0.31988 0.31982 0.61285
 C2624 C 0.32713 0.32710 0.62592
 C2625 C 0.28433 0.28472 0.55145
 C2626 C 0.27655 0.27713 0.53887
 H2627 H 0.27260 0.26335 0.57684
 H2628 H 0.26850 0.25119 0.60772
 H2629 H 0.28372 0.26632 0.63414
 H2630 H 0.30324 0.29364 0.62982
 H2631 H 0.33188 0.34104 0.58737
 H2632 H 0.33612 0.35311 0.55643
 H2633 H 0.32085 0.33800 0.53002
 H2634 H 0.30124 0.31073 0.53438
 C2635 C 0.29400 0.79344 0.06708
 C2636 C 0.30567 0.80908 0.06438
 C2637 C 0.31437 0.81771 0.07969
 C2638 C 0.31135 0.81065 0.09759
 C2639 C 0.29972 0.79496 0.10028
 C2640 C 0.29103 0.78633 0.08498
 C2641 C 0.27946 0.77066 0.08801
 C2642 C 0.27660 0.76371 0.10564
 C2643 C 0.28509 0.77216 0.12060
 C2644 C 0.29653 0.78761 0.11803
 C2645 C 0.32596 0.83334 0.07665
 C2646 C 0.32888 0.84024 0.05900
 C2647 C 0.32037 0.83179 0.04404
 C2648 C 0.30888 0.81639 0.04662
 C2649 C 0.32011 0.81952 0.11327
 C2650 C 0.32725 0.82678 0.12641
 C2651 C 0.28498 0.78465 0.05151
 C2652 C 0.27726 0.77711 0.03886
 H2653 H 0.27254 0.76360 0.07682
 H2654 H 0.26777 0.75168 0.10770
 H2655 H 0.28282 0.76671 0.13427
 H2656 H 0.30283 0.79368 0.13011
 H2657 H 0.33288 0.84038 0.08786
 H2658 H 0.33779 0.85220 0.05693
 H2659 H 0.32269 0.83720 0.03036
 H2660 H 0.30258 0.81028 0.03456
 C2661 C 0.79349 0.29244 0.06685
 C2662 C 0.80506 0.30820 0.06442
 C2663 C 0.81377 0.31658 0.07986
 C2664 C 0.81084 0.30914 0.09763
 C2665 C 0.79932 0.29334 0.10005
 C2666 C 0.79062 0.28496 0.08462
 C2667 C 0.77915 0.26917 0.08739
 C2668 C 0.77639 0.26185 0.10489
 C2669 C 0.78488 0.27005 0.11998
 C2670 C 0.79622 0.28562 0.11768
 C2671 C 0.82526 0.33233 0.07709
 C2672 C 0.82808 0.33959 0.05956
 C2673 C 0.81957 0.33140 0.04447
 C2674 C 0.80817 0.31588 0.04679
 C2675 C 0.81960 0.31777 0.11345
 C2676 C 0.82672 0.32483 0.12670
 C2677 C 0.78443 0.28393 0.05115
 C2678 C 0.77668 0.27660 0.03841
 H2679 H 0.77223 0.26229 0.07609
 H2680 H 0.76764 0.24974 0.10675
 H2681 H 0.78269 0.26432 0.13356
 H2682 H 0.80253 0.29149 0.12984
 H2683 H 0.83219 0.33918 0.08840
 H2684 H 0.83692 0.35165 0.05769
 H2685 H 0.82180 0.33710 0.03089
 H2686 H 0.80185 0.30998 0.03464
 C2687 C 0.79347 0.79346 0.56760
 C2688 C 0.80472 0.80947 0.56522
 C2689 C 0.81332 0.81792 0.58068
 C2690 C 0.81062 0.81031 0.59842
 C2691 C 0.79940 0.79428 0.60079
 C2692 C 0.79079 0.78583 0.58534
 C2693 C 0.77963 0.76981 0.58806
 C2694 C 0.77708 0.76234 0.60553
 C2695 C 0.78547 0.77061 0.62063
 C2696 C 0.79651 0.78640 0.61838
 C2697 C 0.82450 0.83391 0.57796
 C2698 C 0.82710 0.84134 0.56047
 C2699 C 0.81869 0.83308 0.54537
 C2700 C 0.80761 0.81732 0.54763
 C2701 C 0.81934 0.81895 0.61424
 C2702 C 0.82646 0.82600 0.62750
 C2703 C 0.78458 0.78483 0.55188
 C2704 C 0.77697 0.77738 0.53911
 H2705 H 0.77279 0.76288 0.57674
 H2706 H 0.76856 0.75004 0.60734
 H2707 H 0.78344 0.76475 0.63418
 H2708 H 0.80276 0.79232 0.63055
 H2709 H 0.83133 0.84083 0.58929
 H2710 H 0.83570 0.85358 0.55864
 H2711 H 0.82075 0.83891 0.53181
 H2712 H 0.80135 0.81138 0.53547
 C2713 C 0.29322 0.70634 0.43306
 C2714 C 0.30471 0.69058 0.43570
 C2715 C 0.31336 0.68196 0.42037
 C2716 C 0.31048 0.68914 0.40250
 C2717 C 0.29901 0.70493 0.39986
 C2718 C 0.29036 0.71355 0.41519
 C2719 C 0.27896 0.72932 0.41221
 C2720 C 0.27621 0.73638 0.39460
 C2721 C 0.28466 0.72793 0.37962
 C2722 C 0.29593 0.71239 0.38214
 C2723 C 0.32477 0.66621 0.42335
 C2724 C 0.32756 0.65920 0.44097
 C2725 C 0.31910 0.66763 0.45595
 C2726 C 0.30779 0.68315 0.45343
 C2727 C 0.31924 0.68032 0.38680
 C2728 C 0.32640 0.67315 0.37362
 C2729 C 0.28427 0.71513 0.44865
 C2730 C 0.27660 0.72270 0.46132
 H2731 H 0.27208 0.73638 0.42342
 H2732 H 0.26751 0.74848 0.39258
 H2733 H 0.28247 0.73346 0.36597
 H2734 H 0.30220 0.70632 0.37005
 H2735 H 0.33165 0.65918 0.41212
 H2736 H 0.33633 0.64714 0.44300
 H2737 H 0.32131 0.66213 0.46961
 H2738 H 0.30151 0.68924 0.46551
 C2739 C 0.29397 0.20532 0.93389
 C2740 C 0.29122 0.21213 0.91585
 C2741 C 0.30017 0.20333 0.90079
 C2742 C 0.31182 0.18777 0.90386
 C2743 C 0.31461 0.18099 0.92190
 C2744 C 0.30566 0.18979 0.93696
 C2745 C 0.30864 0.18277 0.95487
 C2746 C 0.32015 0.16748 0.95782
 C2747 C 0.32890 0.15887 0.94310
 C2748 C 0.32621 0.16548 0.92531
 C2749 C 0.29720 0.21040 0.88289
 C2750 C 0.28574 0.22572 0.87995
 C2751 C 0.27700 0.23433 0.89467
 C2752 C 0.27964 0.22767 0.91244
 C2753 C 0.32087 0.17875 0.88843
 C2754 C 0.32825 0.17141 0.87547
 C2755 C 0.28470 0.21427 0.94921
 C2756 C 0.27678 0.22192 0.96166
 H2757 H 0.30214 0.18900 0.96675
 H2758 H 0.32228 0.16228 0.97161
 H2759 H 0.33782 0.14699 0.94546
 H2760 H 0.33332 0.15833 0.91430
 H2761 H 0.30370 0.20418 0.87099
 H2762 H 0.28364 0.23095 0.86617
 H2763 H 0.26815 0.24626 0.89232
 H2764 H 0.27253 0.23485 0.92343
 C2765 C 0.79497 0.70557 0.93423
 C2766 C 0.81129 0.71353 0.92687
 C2767 C 0.82022 0.70494 0.91168
 C2768 C 0.81277 0.68844 0.90394
 C2769 C 0.79664 0.68028 0.91152
 C2770 C 0.78772 0.68887 0.92671
 C2771 C 0.77156 0.68050 0.93400
 C2772 C 0.76444 0.66411 0.92650
 C2773 C 0.77317 0.65571 0.91165
 C2774 C 0.78909 0.66364 0.90419
 C2775 C 0.83647 0.71321 0.90450
 C2776 C 0.84370 0.72950 0.91212
 C2777 C 0.83497 0.73790 0.92697
 C2778 C 0.81895 0.73007 0.93431
 C2779 C 0.82143 0.68010 0.88793
 C2780 C 0.82843 0.67327 0.87450
 C2781 C 0.78537 0.71480 0.94920
 C2782 C 0.77722 0.72263 0.96141
 H2783 H 0.76430 0.68650 0.94556
 H2784 H 0.75208 0.65789 0.93225
 H2785 H 0.76759 0.64297 0.90588
 H2786 H 0.79539 0.65657 0.89265
 H2787 H 0.84376 0.70718 0.89297
 H2788 H 0.85615 0.73563 0.90647
 H2789 H 0.84065 0.75054 0.93284
 H2790 H 0.81267 0.73711 0.94588
 C2791 C 0.79301 0.20578 0.43311
 C2792 C 0.80443 0.18999 0.43584
 C2793 C 0.81314 0.18130 0.42058
 C2794 C 0.81037 0.18845 0.40267
 C2795 C 0.79897 0.20427 0.39995
 C2796 C 0.79027 0.21296 0.41521
 C2797 C 0.77895 0.22876 0.41213
 C2798 C 0.77632 0.23579 0.39450
 C2799 C 0.78481 0.22728 0.37958
 C2800 C 0.79602 0.21170 0.38219
 C2801 C 0.82448 0.16553 0.42365
 C2802 C 0.82716 0.15855 0.44130
 C2803 C 0.81865 0.16705 0.45622
 C2804 C 0.80739 0.18259 0.45361
 C2805 C 0.81918 0.17956 0.38704
 C2806 C 0.82636 0.17231 0.37392
 C2807 C 0.78399 0.21463 0.44863
 C2808 C 0.77629 0.22224 0.46124
 H2809 H 0.77203 0.23587 0.42329
 H2810 H 0.76767 0.24792 0.39240
 H2811 H 0.78272 0.23279 0.36590
 H2812 H 0.80233 0.20558 0.37014
 H2813 H 0.83140 0.15845 0.41248
 H2814 H 0.83588 0.14647 0.44341
 H2815 H 0.82077 0.16157 0.46991
 H2816 H 0.80107 0.18873 0.46564
 C2817 C 0.70665 0.29095 0.43278
 C2818 C 0.69531 0.30682 0.43538
 C2819 C 0.68677 0.31551 0.42003
 C2820 C 0.68962 0.30826 0.40217
 C2821 C 0.70089 0.29232 0.39958
 C2822 C 0.70942 0.28364 0.41493
 C2823 C 0.72063 0.26772 0.41199
 C2824 C 0.72330 0.26057 0.39441
 C2825 C 0.71497 0.26907 0.37940
 C2826 C 0.70389 0.28476 0.38187
 C2827 C 0.67552 0.33137 0.42297
 C2828 C 0.67277 0.33846 0.44058
 C2829 C 0.68112 0.32996 0.45558
 C2830 C 0.69228 0.31433 0.45310
 C2831 C 0.68106 0.31721 0.38644
 C2832 C 0.67409 0.32453 0.37326
 C2833 C 0.71558 0.28217 0.44838
 C2834 C 0.72325 0.27465 0.46106
 H2835 H 0.72741 0.26061 0.42322
 H2836 H 0.73185 0.24835 0.39242
 H2837 H 0.71709 0.26347 0.36576
 H2838 H 0.69770 0.29087 0.36977
 H2839 H 0.66873 0.33845 0.41173
 H2840 H 0.66412 0.35060 0.44258
 H2841 H 0.67894 0.33552 0.46923
 H2842 H 0.69848 0.30820 0.46519
 C2843 C 0.70511 0.79190 0.93380
 C2844 C 0.69128 0.80537 0.93745
 C2845 C 0.68214 0.81444 0.92267
 C2846 C 0.68688 0.80998 0.90433
 C2847 C 0.70064 0.79644 0.90068
 C2848 C 0.70979 0.78738 0.91545
 C2849 C 0.72351 0.77390 0.91145
 C2850 C 0.72808 0.76951 0.89338
 C2851 C 0.71914 0.77838 0.87894
 C2852 C 0.70558 0.79170 0.88246
 C2853 C 0.66838 0.82787 0.92666
 C2854 C 0.66378 0.83221 0.94474
 C2855 C 0.67272 0.82334 0.95918
 C2856 C 0.68633 0.81006 0.95567
 C2857 C 0.67774 0.81939 0.88919
 C2858 C 0.67042 0.82708 0.87640
 C2859 C 0.71460 0.78272 0.94885
 C2860 C 0.72268 0.77495 0.96112
 H2861 H 0.73086 0.76662 0.92222
 H2862 H 0.73861 0.75917 0.89058
 H2863 H 0.72273 0.77492 0.86492
 H2864 H 0.69902 0.79820 0.87075
 H2865 H 0.66104 0.83513 0.91588
 H2866 H 0.65322 0.84251 0.94754
 H2867 H 0.66909 0.82676 0.97320
 H2868 H 0.69289 0.80354 0.96736
 C2869 C 0.20603 0.29035 0.93318
 C2870 C 0.19428 0.30587 0.93608
 C2871 C 0.18557 0.31467 0.92089
 C2872 C 0.18866 0.30789 0.90289
 C2873 C 0.20034 0.29232 0.90000
 C2874 C 0.20904 0.28352 0.91519
 C2875 C 0.22067 0.26797 0.91195
 C2876 C 0.22358 0.26129 0.89422
 C2877 C 0.21508 0.26990 0.87937
 C2878 C 0.20358 0.28524 0.88214
 C2879 C 0.17391 0.33017 0.92413
 C2880 C 0.17093 0.33678 0.94188
 C2881 C 0.17944 0.32818 0.95673
 C2882 C 0.19100 0.31289 0.95394
 C2883 C 0.17992 0.31697 0.88733
 C2884 C 0.17279 0.32442 0.87429
 C2885 C 0.21514 0.28147 0.94863
 C2886 C 0.22293 0.27392 0.96121
 H2887 H 0.22760 0.26079 0.92304
 H2888 H 0.23246 0.24936 0.89200
 H2889 H 0.21739 0.26467 0.86563
 H2890 H 0.19727 0.29145 0.87015
 H2891 H 0.16698 0.33732 0.91302
 H2892 H 0.16196 0.34865 0.94411
 H2893 H 0.17708 0.33337 0.97048
 H2894 H 0.19731 0.30665 0.96593
 C2895 C 0.20671 0.79153 0.43338
 C2896 C 0.20935 0.78433 0.41546
 C2897 C 0.20067 0.79309 0.40024
 C2898 C 0.18939 0.80898 0.40301
 C2899 C 0.18669 0.81613 0.42093
 C2900 C 0.19537 0.80737 0.43616
 C2901 C 0.19248 0.81477 0.45394
 C2902 C 0.18132 0.83038 0.45661
 C2903 C 0.17283 0.83894 0.44172
 C2904 C 0.17544 0.83196 0.42406
 C2905 C 0.20354 0.78564 0.38246
 C2906 C 0.21464 0.76999 0.37981
 C2907 C 0.22311 0.76142 0.39469
 C2908 C 0.22057 0.76846 0.41234
 C2909 C 0.18065 0.81798 0.38741
 C2910 C 0.17351 0.82535 0.37434
 C2911 C 0.21576 0.78266 0.44886
 C2912 C 0.22350 0.77506 0.46145
 H2913 H 0.19878 0.80858 0.46595
 H2914 H 0.17925 0.83585 0.47031
 H2915 H 0.16418 0.85106 0.44386
 H2916 H 0.16855 0.83910 0.41291
 H2917 H 0.19723 0.79181 0.37044
 H2918 H 0.21666 0.76447 0.36612
 H2919 H 0.23168 0.74924 0.39256
 H2920 H 0.22747 0.76130 0.42347
 C2921 C 0.70667 0.70908 0.56668
 C2922 C 0.70964 0.71614 0.58459
 C2923 C 0.70096 0.70746 0.59987
 C2924 C 0.68935 0.69176 0.59715
 C2925 C 0.68630 0.68477 0.57923
 C2926 C 0.69499 0.69346 0.56394
 C2927 C 0.69176 0.68621 0.54615
 C2928 C 0.68025 0.67083 0.54354
 C2929 C 0.67176 0.66233 0.55848
 C2930 C 0.67470 0.66916 0.57615
 C2931 C 0.70414 0.71476 0.61765
 C2932 C 0.71556 0.73022 0.62026
 C2933 C 0.72404 0.73872 0.60532
 C2934 C 0.72119 0.73181 0.58767
 C2935 C 0.68061 0.68282 0.61281
 C2936 C 0.67348 0.67553 0.62594
 C2937 C 0.71576 0.71787 0.55114
 C2938 C 0.72357 0.72539 0.53853
 H2939 H 0.69805 0.69236 0.53411
 H2940 H 0.67792 0.66547 0.52984
 H2941 H 0.66283 0.65038 0.55637
 H2942 H 0.66778 0.66208 0.58734
 H2943 H 0.69785 0.70864 0.62971
 H2944 H 0.71782 0.73564 0.63394
 H2945 H 0.73285 0.75075 0.60741
 H2946 H 0.72811 0.73891 0.57650
 C2947 C 0.70605 0.20836 0.06601
 C2948 C 0.70887 0.21543 0.08395
 C2949 C 0.70009 0.20672 0.09916
 C2950 C 0.68854 0.19100 0.09635
 C2951 C 0.68567 0.18398 0.07841
 C2952 C 0.69445 0.19269 0.06319
 C2953 C 0.69139 0.18542 0.04538
 C2954 C 0.67997 0.16998 0.04268
 C2955 C 0.67139 0.16146 0.05756
 C2956 C 0.67416 0.16832 0.07525
 C2957 C 0.70313 0.21403 0.11696
 C2958 C 0.71449 0.22951 0.11965
 C2959 C 0.72306 0.23804 0.10478
 C2960 C 0.72035 0.23113 0.08711
 C2961 C 0.67971 0.18203 0.11195
 C2962 C 0.67253 0.17467 0.12501
 C2963 C 0.71518 0.21721 0.05053
 C2964 C 0.72298 0.22479 0.03796
 H2965 H 0.69777 0.19158 0.03338
 H2966 H 0.67778 0.16460 0.02897
 H2967 H 0.66253 0.14947 0.05539
 H2968 H 0.66718 0.16122 0.08639
 H2969 H 0.69676 0.20789 0.12898
 H2970 H 0.71665 0.23493 0.13336
 H2971 H 0.73183 0.25009 0.10693
 H2972 H 0.72733 0.23824 0.07598
 C2973 C 0.20655 0.70874 0.06668
 C2974 C 0.19501 0.69304 0.06383
 C2975 C 0.18612 0.68437 0.07902
 C2976 C 0.18883 0.69147 0.09696
 C2977 C 0.20031 0.70724 0.09979
 C2978 C 0.20920 0.71590 0.08461
 C2979 C 0.22062 0.73164 0.08779
 C2980 C 0.22316 0.73864 0.10546
 C2981 C 0.21449 0.73016 0.12030
 C2982 C 0.20318 0.71464 0.11759
 C2983 C 0.17467 0.66867 0.07583
 C2984 C 0.17206 0.66173 0.05815
 C2985 C 0.18074 0.67021 0.04331
 C2986 C 0.19210 0.68569 0.04603
 C2987 C 0.17991 0.68254 0.11251
 C2988 C 0.17265 0.67520 0.12555
 C2989 C 0.21579 0.71753 0.05124
 C2990 C 0.22368 0.72505 0.03868
 H2991 H 0.22768 0.73872 0.07670
 H2992 H 0.23189 0.75072 0.10763
 H2993 H 0.21651 0.73564 0.13400
 H2994 H 0.19673 0.70854 0.12957
 H2995 H 0.16761 0.66161 0.08694
 H2996 H 0.16325 0.64972 0.05596
 H2997 H 0.17866 0.66477 0.02960
 H2998 H 0.19856 0.69181 0.03406
 C2999 C 0.20675 0.20822 0.56726
 C3000 C 0.19521 0.19248 0.56457
 C3001 C 0.18659 0.18377 0.57988
 C3002 C 0.18956 0.19086 0.59779
 C3003 C 0.20105 0.20664 0.60047
 C3004 C 0.20967 0.21535 0.58516
 C3005 C 0.22111 0.23111 0.58818
 C3006 C 0.22392 0.23809 0.60582
 C3007 C 0.21550 0.22957 0.62078
 C3008 C 0.20420 0.21402 0.61822
 C3009 C 0.17513 0.16804 0.57686
 C3010 C 0.17226 0.16112 0.55921
 C3011 C 0.18069 0.16963 0.54424
 C3012 C 0.19205 0.18514 0.54681
 C3013 C 0.18087 0.18191 0.61347
 C3014 C 0.17377 0.17458 0.62660
 C3015 C 0.21571 0.21706 0.55169
 C3016 C 0.22338 0.22465 0.53903
 H3017 H 0.22797 0.23823 0.57699
 H3018 H 0.23265 0.25019 0.60787
 H3019 H 0.21774 0.23503 0.63445
 H3020 H 0.19795 0.20789 0.63030
 H3021 H 0.16827 0.16094 0.58807
 H3022 H 0.16345 0.14908 0.55714
 H3023 H 0.17842 0.16420 0.53056
 H3024 H 0.19830 0.19129 0.53475
   
