data_POSCAR
  _audit_creation_date              2014-09-24
  _audit_creation_method            'ToBaCCo'
  _symmetry_space_group_name_H-M    'P1'
  _symmetry_Int_Tables_number       1
  _symmetry_cell_setting            triclinic
  loop_
  _symmetry_equiv_pos_as_xyz
 x,y,z
_cell_length_a 73.7045
_cell_length_b 73.5789
_cell_length_c 73.5482
_cell_angle_alpha 89.978400
_cell_angle_beta 90.009400
_cell_angle_gamma 89.968200
loop_
  _atom_site_label
  _atom_site_type_symbol
  _atom_site_fract_x
  _atom_site_fract_y
  _atom_site_fract_z
N1 N 0.31464 0.43732 0.93577
 N2 N 0.43805 0.81173 0.43805
 N3 N 0.93547 0.93638 0.81364
 N4 N 0.43724 -0.06237 0.31215
 N5 N 0.81280 0.31214 0.31276
 N6 N -0.18687 0.81412 0.81453
 N7 N 0.93844 0.31168 0.43851
 N8 N 0.43462 0.43537 0.81419
 N9 N 0.81560 0.93497 0.93520
 N10 N 0.31241 0.81308 0.31301
 N11 N 0.81279 0.43748 0.43739
 N12 N 0.93664 0.81365 -0.06290
 N13 N 0.31315 0.31368 0.81321
 N14 N 0.18600 0.56409 0.56275
 N15 N 0.56302 0.68825 0.06261
 N16 N 0.68673 0.18769 0.68753
 N17 N 1.06288 0.06263 0.18699
 N18 N 0.06471 0.18644 1.06399
 N19 N 0.18549 0.68685 0.68667
 N20 N 1.18648 0.18706 0.18677
 N21 N 0.68648 1.06366 0.56338
 N22 N 0.56217 0.56284 0.18719
 N23 N 0.68601 0.68630 0.18765
 N24 N 0.18742 0.06395 1.06267
 N25 N 0.56488 0.18557 0.56387
 N26 N 0.06310 0.56393 0.68535
 N27 N 0.68848 0.56157 0.06183
 N28 N 0.06516 0.68521 0.56495
 N29 N 0.56199 1.06246 0.68706
 N30 N 0.43611 0.31493 0.93578
 N31 N 0.93605 0.43664 0.31218
 N32 N 0.31339 0.93755 0.43680
 O33 O 0.20116 0.52400 0.74867
 O34 O 0.20719 0.52163 0.77971
 O35 O 0.24876 0.54827 0.72617
 O36 O 0.27858 0.54256 0.72514
 O37 O 0.22517 0.50056 0.70127
 O38 O 0.22751 0.46963 0.70737
 O39 O 0.29682 0.49888 0.77322
 O40 O 0.29189 0.52975 0.76959
 O41 O 0.25064 0.47657 0.79713
 O42 O 0.21917 0.47702 0.79201
 O43 O 0.27252 0.45227 0.75101
 O44 O 0.27162 0.45828 0.71854
 O45 O 0.29668 0.47686 0.75142
 O46 O 0.28975 0.47871 0.71758
 O47 O 0.25049 0.45225 0.77268
 O48 O 0.21613 0.46083 0.76959
 O49 O 0.27295 0.49797 0.79687
 O50 O 0.26714 0.53094 0.79089
 O51 O 0.20068 0.50167 0.72714
 O52 O 0.20763 0.46878 0.73120
 O53 O 0.24743 0.52209 0.70078
 O54 O 0.28049 0.51919 0.70801
 O55 O 0.22670 0.54859 0.74788
 O56 O 0.23103 0.54150 0.78072
 Zr57 Zr 0.22755 0.52237 0.75941
 O58 O 0.24325 0.50595 0.77678
 Zr59 Zr 0.25907 0.52161 0.72703
 O60 O 0.27646 0.50590 0.74346
 Zr61 Zr 0.22686 0.48995 0.72775
 O62 O 0.24320 0.47248 0.74353
 Zr63 Zr 0.27081 0.51027 0.77110
 O64 O 0.25519 0.52805 0.75470
 Zr65 Zr 0.23887 0.47834 0.77114
 O66 O 0.22129 0.49473 0.75537
 Zr67 Zr 0.27080 0.47826 0.73922
 O68 O 0.25447 0.49398 0.72147
 O69 O 0.23172 0.51743 0.73192
 O70 O 0.26643 0.48262 0.76679
 C71 C 0.19328 0.51465 0.73621
 C72 C 0.23609 0.55611 0.73524
 C73 C 0.23450 0.51300 0.69336
 C74 C 0.30423 0.48580 0.76438
 C75 C 0.26390 0.48516 0.80448
 C76 C 0.26353 0.44474 0.76390
 H77 H 0.24042 0.50895 0.78958
 H78 H 0.24023 0.45972 0.74058
 H79 H 0.22402 0.52525 0.72415
 H80 H 0.28922 0.50894 0.74067
 H81 H 0.28619 0.54129 0.76564
 H82 H 0.28760 0.54027 0.73482
 H83 H 0.21927 0.45072 0.76130
 H84 H 0.19817 0.46997 0.72167
 H85 H 0.27749 0.53033 0.79948
 H86 H 0.22150 0.55098 0.77962
 H87 H 0.26010 0.45143 0.71906
 H88 H 0.23992 0.46972 0.70221
 H89 H 0.20179 0.50932 0.77934
 H90 H 0.21827 0.48929 0.79743
 H91 H 0.27807 0.50812 0.70076
 H92 H 0.29851 0.48860 0.71999
 O93 O 0.20208 0.02409 0.24862
 O94 O 0.20800 0.02176 0.27970
 O95 O 0.24976 0.04851 0.22636
 O96 O 0.27960 0.04288 0.22548
 O97 O 0.22642 0.00074 0.20134
 O98 O 0.22889 -0.03020 0.20748
 O99 O 0.29778 -0.00063 0.27357
 O100 O 0.29270 0.03019 0.26994
 O101 O 0.25153 -0.02309 0.29739
 O102 O 0.22006 -0.02272 0.29212
 O103 O 0.27364 -0.04742 0.25139
 O104 O 0.27289 -0.04146 0.21892
 O105 O 0.29779 -0.02270 0.25181
 O106 O 0.29095 -0.02101 0.21799
 O107 O 0.25148 -0.04748 0.27293
 O108 O 0.21716 -0.03895 0.26975
 O109 O 0.27379 -0.00163 0.29717
 O110 O 0.26789 0.03129 0.29115
 O111 O 0.20180 0.00172 0.22712
 O112 O 0.20885 -0.03112 0.23118
 O113 O 0.24863 0.02232 0.20098
 O114 O 0.28163 0.01953 0.20834
 O115 O 0.22757 0.04878 0.24793
 O116 O 0.23174 0.04174 0.28079
 Zr117 Zr 0.22845 0.02257 0.25948
 O118 O 0.24413 0.00624 0.27695
 Zr119 Zr 0.26013 0.02188 0.22727
 O120 O 0.27749 0.00623 0.24378
 Zr121 Zr 0.22802 -0.00987 0.22784
 O122 O 0.24433 -0.02727 0.24374
 Zr123 Zr 0.27170 0.01062 0.27139
 O124 O 0.25610 0.02833 0.25491
 Zr125 Zr 0.23986 -0.02139 0.27133
 O126 O 0.22231 -0.00510 0.25544
 Zr127 Zr 0.27193 -0.02144 0.23956
 O128 O 0.25565 -0.00577 0.22172
 O129 O 0.23277 0.01763 0.23202
 O130 O 0.26744 -0.01705 0.26711
 C131 C 0.19429 0.01466 0.23616
 C132 C 0.23702 0.05632 0.23535
 C133 C 0.23577 0.01320 0.19348
 C134 C 0.30528 -0.01367 0.26475
 C135 C 0.26473 -0.01443 0.30478
 C136 C 0.26457 -0.05497 0.26422
 H137 H 0.24124 0.00924 0.28973
 H138 H 0.24140 -0.04004 0.24079
 H139 H 0.22508 0.02542 0.22421
 H140 H 0.29025 0.00930 0.24103
 H141 H 0.28698 0.04170 0.26596
 H142 H 0.28862 0.04058 0.23515
 H143 H 0.22030 -0.04900 0.26138
 H144 H 0.19946 -0.02997 0.22157
 H145 H 0.27822 0.03074 0.29978
 H146 H 0.22218 0.05117 0.27964
 H147 H 0.26136 -0.04831 0.21937
 H148 H 0.24130 -0.03003 0.20235
 H149 H 0.20264 0.00943 0.27931
 H150 H 0.21914 -0.01046 0.29754
 H151 H 0.27931 0.00842 0.20111
 H152 H 0.29961 -0.01102 0.22035
 O153 O 0.49818 0.77321 0.29816
 O154 O 0.52916 0.77059 0.29235
 O155 O 0.47644 0.79849 0.25056
 O156 O 0.47555 0.79322 0.22061
 O157 O 0.45081 0.75070 0.27332
 O158 O 0.45658 0.71974 0.27057
 O159 O 0.52319 0.74933 0.20212
 O160 O 0.51988 0.78013 0.20750
 O161 O 0.54646 0.72605 0.24831
 O162 O 0.54106 0.72604 0.27979
 O163 O 0.50032 0.70256 0.22564
 O164 O 0.46801 0.70892 0.22631
 O165 O 0.50120 0.72755 0.20175
 O166 O 0.46741 0.72963 0.20847
 O167 O 0.52175 0.70195 0.24791
 O168 O 0.51851 0.71007 0.28241
 O169 O 0.54661 0.74780 0.22627
 O170 O 0.54092 0.78071 0.23249
 O171 O 0.47646 0.75111 0.29812
 O172 O 0.48017 0.71830 0.29069
 O173 O 0.45077 0.77256 0.25131
 O174 O 0.45824 0.77009 0.21822
 O175 O 0.49789 0.79822 0.27287
 O176 O 0.53061 0.79080 0.26877
 Zr177 Zr 0.50909 0.77187 0.27177
 O178 O 0.52638 0.75551 0.25595
 Zr179 Zr 0.47706 0.77197 0.23989
 O180 O 0.49342 0.75634 0.22238
 Zr181 Zr 0.47714 0.73981 0.27171
 O182 O 0.49284 0.72243 0.25522
 Zr183 Zr 0.52100 0.76031 0.22835
 O184 O 0.50470 0.77803 0.24412
 Zr185 Zr 0.52042 0.72790 0.25988
 O186 O 0.50471 0.74418 0.27759
 Zr187 Zr 0.48885 0.72866 0.22761
 O188 O 0.47117 0.74433 0.24405
 O189 O 0.48164 0.76732 0.26728
 O190 O 0.51637 0.73264 0.23228
 C191 C 0.48561 0.76384 0.30582
 C192 C 0.48548 0.80603 0.26343
 C193 C 0.44314 0.76335 0.26405
 C194 C 0.51427 0.73648 0.19442
 C195 C 0.55400 0.73479 0.23524
 C196 C 0.51300 0.69474 0.23467
 H197 H 0.53916 0.75832 0.25894
 H198 H 0.48973 0.70966 0.25799
 H199 H 0.47391 0.77512 0.27504
 H200 H 0.49078 0.75961 0.20961
 H201 H 0.51601 0.79162 0.21334
 H202 H 0.48527 0.79097 0.21164
 H203 H 0.51011 0.70013 0.27907
 H204 H 0.47058 0.71945 0.30009
 H205 H 0.54958 0.78018 0.22218
 H206 H 0.52953 0.80015 0.27844
 H207 H 0.46833 0.70192 0.23779
 H208 H 0.45154 0.72009 0.25810
 H209 H 0.52862 0.75819 0.29756
 H210 H 0.54658 0.73823 0.28093
 H211 H 0.45087 0.75906 0.22042
 H212 H 0.46997 0.73965 0.19987
 O213 O -0.04935 0.75099 0.77359
 O214 O -0.04369 0.71989 0.77108
 O215 O -0.00172 0.77268 0.79853
 O216 O 0.02816 0.77344 0.79314
 O217 O -0.02451 0.79817 0.75063
 O218 O -0.02190 0.79222 0.71970
 O219 O 0.04630 0.72540 0.74950
 O220 O 0.04101 0.72884 0.78032
 O221 O 0.00005 0.70218 0.72644
 O222 O -0.03135 0.70772 0.72654
 O223 O 0.02284 0.74809 0.70268
 O224 O 0.02224 0.78053 0.70877
 O225 O 0.04670 0.74732 0.72759
 O226 O 0.04008 0.78122 0.72949
 O227 O 0.00052 0.72673 0.70226
 O228 O -0.03390 0.73027 0.71042
 O229 O 0.02216 0.70205 0.74808
 O230 O 0.01602 0.70786 0.78104
 O231 O -0.04931 0.77263 0.75134
 O232 O -0.04204 0.76864 0.71847
 O233 O -0.00252 0.79825 0.77246
 O234 O 0.03051 0.79063 0.76989
 O235 O -0.02405 0.75127 0.79847
 O236 O -0.02009 0.71843 0.79123
 Zr237 Zr -0.02307 0.73991 0.77218
 O238 O -0.00740 0.72244 0.75586
 Zr239 Zr 0.00884 0.77188 0.77197
 O240 O 0.02621 0.75532 0.75639
 Zr241 Zr -0.02301 0.77174 0.73991
 O242 O -0.00666 0.75588 0.72255
 Zr243 Zr 0.02017 0.72774 0.76054
 O244 O 0.00456 0.74423 0.77822
 Zr245 Zr -0.01140 0.72831 0.72822
 O246 O -0.02898 0.74418 0.74448
 Zr247 Zr 0.02093 0.75979 0.72869
 O248 O 0.00463 0.77765 0.74430
 O249 O -0.01851 0.76736 0.76744
 O250 O 0.01617 0.73227 0.73286
 C251 C -0.05696 0.76360 0.76420
 C252 C -0.01457 0.76372 0.80618
 C253 C -0.01525 0.80588 0.76324
 C254 C 0.05399 0.73424 0.73658
 C255 C 0.01314 0.69463 0.73512
 C256 C 0.01379 0.73535 0.69498
 H257 H -0.01042 0.70966 0.75874
 H258 H -0.00944 0.75893 0.70976
 H259 H -0.02620 0.77517 0.77522
 H260 H 0.03897 0.75794 0.75961
 H261 H 0.03523 0.73280 0.79180
 H262 H 0.03702 0.76359 0.79098
 H263 H -0.03051 0.73852 0.70035
 H264 H -0.05140 0.77827 0.71962
 H265 H 0.02626 0.69913 0.78049
 H266 H -0.02970 0.71960 0.80061
 H267 H 0.01078 0.78019 0.70179
 H268 H -0.00942 0.79719 0.71992
 H269 H -0.04896 0.72043 0.75871
 H270 H -0.03248 0.70226 0.73878
 H271 H 0.02827 0.79801 0.75885
 H272 H 0.04869 0.77866 0.73948
 O273 O 0.00197 0.04862 0.02284
 O274 O -0.02904 0.04285 0.02019
 O275 O 0.02377 0.00094 0.04777
 O276 O 0.02470 -0.02897 0.04233
 O277 O 0.04926 0.02396 -0.00001
 O278 O 0.04340 0.02139 -0.03098
 O279 O -0.02302 -0.04725 -0.00151
 O280 O -0.01968 -0.04200 0.02933
 O281 O -0.04639 -0.00099 -0.02455
 O282 O -0.04104 0.03052 -0.02434
 O283 O -0.00039 -0.02353 -0.04823
 O284 O 0.03199 -0.02280 -0.04201
 O285 O -0.00109 -0.04750 -0.02337
 O286 O 0.03269 -0.04075 -0.02137
 O287 O -0.02182 -0.00126 -0.04867
 O288 O -0.01853 0.03319 -0.04043
 O289 O -0.04645 -0.02318 -0.00294
 O290 O -0.04077 -0.01706 0.03004
 O291 O 0.02364 0.04871 0.00067
 O292 O 0.01978 0.04150 -0.03221
 O293 O 0.04938 0.00188 0.02177
 O294 O 0.04195 -0.03121 0.01914
 O295 O 0.00227 0.02321 0.04768
 O296 O -0.03045 0.01917 0.04031
 Zr297 Zr -0.00897 0.02226 0.02134
 O298 O -0.02628 0.00652 0.00494
 Zr299 Zr 0.02311 -0.00958 0.02118
 O300 O 0.00672 -0.02701 0.00550
 Zr301 Zr 0.02291 0.02239 -0.01082
 O302 O 0.00718 0.00599 -0.02826
 Zr303 Zr -0.02085 -0.02108 0.00959
 O304 O -0.00453 -0.00541 0.02735
 Zr305 Zr -0.02038 0.01061 -0.02267
 O306 O -0.00466 0.02824 -0.00634
 Zr307 Zr 0.01123 -0.02164 -0.02218
 O308 O 0.02892 -0.00528 -0.00646
 O309 O 0.01848 0.01781 0.01669
 O310 O -0.01628 -0.01699 -0.01808
 C311 C 0.01455 0.05631 0.01352
 C312 C 0.01472 0.01375 0.05541
 C313 C 0.05697 0.01466 0.01260
 C314 C -0.01413 -0.05488 -0.01443
 C315 C -0.05387 -0.01416 -0.01591
 C316 C -0.01312 -0.01449 -0.05595
 H317 H -0.03906 0.00948 0.00780
 H318 H 0.01025 0.00882 -0.04103
 H319 H 0.02622 0.02551 0.02452
 H320 H 0.00939 -0.03979 0.00870
 H321 H -0.01580 -0.03621 0.04084
 H322 H 0.01495 -0.03791 0.04008
 H323 H -0.01018 0.02989 -0.05043
 H324 H 0.02935 0.05090 -0.03103
 H325 H -0.04942 -0.02736 0.02946
 H326 H -0.02937 0.02879 0.04970
 H327 H 0.03159 -0.01133 -0.04900
 H328 H 0.04843 0.00891 -0.03075
 H329 H -0.02849 0.04815 0.00784
 H330 H -0.04655 0.03156 -0.01213
 H331 H 0.04930 -0.02894 0.00810
 H332 H 0.03018 -0.04939 -0.01138
 O333 O -0.04812 0.49946 0.47530
 O334 O -0.04227 0.53048 0.47781
 O335 O -0.00078 0.47745 0.45004
 O336 O 0.02914 0.47661 0.45522
 O337 O -0.02334 0.45197 0.49800
 O338 O -0.02062 0.45786 0.52891
 O339 O 0.04776 0.52436 0.49897
 O340 O 0.04232 0.52098 0.46816
 O341 O 0.00184 0.54776 0.52233
 O342 O -0.02964 0.54248 0.52230
 O343 O 0.02436 0.50162 0.54588
 O344 O 0.02363 0.46920 0.53959
 O345 O 0.04814 0.50243 0.52088
 O346 O 0.04145 0.46858 0.51888
 O347 O 0.00215 0.52310 0.54645
 O348 O -0.03228 0.51993 0.53837
 O349 O 0.02379 0.54782 0.50053
 O350 O 0.01743 0.54214 0.46760
 O351 O -0.04809 0.47771 0.49744
 O352 O -0.04064 0.48154 0.53027
 O353 O -0.00141 0.45183 0.47611
 O354 O 0.03159 0.45930 0.47841
 O355 O -0.02298 0.49902 0.45027
 O356 O -0.01876 0.53181 0.45755
 Zr357 Zr -0.02178 0.51032 0.47657
 O358 O -0.00594 0.52765 0.49286
 Zr359 Zr 0.00998 0.47816 0.47653
 O360 O 0.02750 0.49456 0.49209
 Zr361 Zr -0.02172 0.47839 0.50874
 O362 O -0.00521 0.49412 0.52607
 Zr363 Zr 0.02158 0.52218 0.48803
 O364 O 0.00579 0.50585 0.47038
 Zr365 Zr -0.00983 0.52174 0.52051
 O366 O -0.02756 0.50601 0.50429
 Zr367 Zr 0.02233 0.49005 0.51981
 O368 O 0.00587 0.47235 0.50421
 O369 O -0.01734 0.48282 0.48121
 O370 O 0.01769 0.51761 0.51573
 C371 C -0.05577 0.48688 0.48468
 C372 C -0.01363 0.48652 0.44249
 C373 C -0.01410 0.44422 0.48539
 C374 C 0.05545 0.51550 0.51188
 C375 C 0.01492 0.55525 0.51358
 C376 C 0.01537 0.51434 0.55367
 H377 H -0.00890 0.54046 0.49002
 H378 H -0.00795 0.49104 0.53886
 H379 H -0.02510 0.47506 0.47346
 H380 H 0.04024 0.49188 0.48881
 H381 H 0.03646 0.51712 0.45668
 H382 H 0.03813 0.48632 0.45744
 H383 H -0.02898 0.51150 0.54832
 H384 H -0.05005 0.47197 0.52914
 H385 H 0.02773 0.55079 0.46810
 H386 H -0.02843 0.53073 0.44822
 H387 H 0.01223 0.46962 0.54668
 H388 H -0.00816 0.45283 0.52864
 H389 H -0.04742 0.53001 0.49023
 H390 H -0.03072 0.54805 0.51011
 H391 H 0.02947 0.45199 0.48951
 H392 H 0.05002 0.47113 0.50886
 O393 O 0.45235 -0.00137 0.47611
 O394 O 0.45811 0.02967 0.47874
 O395 O 0.49981 -0.02314 0.45086
 O396 O 0.52971 -0.02401 0.45610
 O397 O 0.47721 -0.04880 0.49873
 O398 O 0.47994 -0.04298 0.52968
 O399 O 0.54816 0.02374 0.49994
 O400 O 0.54277 0.02039 0.46912
 O401 O 0.50217 0.04701 0.52328
 O402 O 0.47072 0.04165 0.52325
 O403 O 0.52475 0.00081 0.54680
 O404 O 0.52413 -0.03156 0.54043
 O405 O 0.54857 0.00177 0.52180
 O406 O 0.54195 -0.03210 0.51972
 O407 O 0.50250 0.02226 0.54739
 O408 O 0.46810 0.01907 0.53925
 O409 O 0.52411 0.04715 0.50148
 O410 O 0.51782 0.04148 0.46855
 O411 O 0.45243 -0.02313 0.49824
 O412 O 0.45984 -0.01937 0.53107
 O413 O 0.49913 -0.04885 0.47684
 O414 O 0.53214 -0.04135 0.47926
 O415 O 0.47756 -0.00163 0.45111
 O416 O 0.48162 0.03114 0.45850
 Zr417 Zr 0.47867 0.00958 0.47746
 O418 O 0.49446 0.02691 0.49379
 Zr419 Zr 0.51050 -0.02251 0.47738
 O420 O 0.52798 -0.00610 0.49298
 Zr421 Zr 0.47878 -0.02242 0.50956
 O422 O 0.49524 -0.00668 0.52693
 Zr423 Zr 0.52199 0.02152 0.48897
 O424 O 0.50626 0.00518 0.47128
 Zr425 Zr 0.49057 0.02095 0.52142
 O426 O 0.47288 0.00520 0.50516
 Zr427 Zr 0.52280 -0.01067 0.52069
 O428 O 0.50639 -0.02838 0.50504
 O429 O 0.48317 -0.01792 0.48204
 O430 O 0.51810 0.01689 0.51666
 C431 C 0.44473 -0.01398 0.48548
 C432 C 0.48696 -0.01407 0.44331
 C433 C 0.48645 -0.05650 0.48609
 C434 C 0.55586 0.01486 0.51284
 C435 C 0.51522 0.05455 0.51452
 C436 C 0.51571 0.01350 0.55462
 H437 H 0.49148 0.03972 0.49097
 H438 H 0.49249 -0.00980 0.53970
 H439 H 0.47543 -0.02567 0.47425
 H440 H 0.54072 -0.00874 0.48971
 H441 H 0.53692 0.01652 0.45763
 H442 H 0.53867 -0.01427 0.45834
 H443 H 0.47139 0.01059 0.54917
 H444 H 0.45046 -0.02897 0.52992
 H445 H 0.52810 0.05015 0.46906
 H446 H 0.47196 0.03006 0.44916
 H447 H 0.51270 -0.03124 0.54746
 H448 H 0.49238 -0.04804 0.52935
 H449 H 0.45293 0.02913 0.49115
 H450 H 0.46959 0.04719 0.51104
 H451 H 0.52999 -0.04870 0.49033
 H452 H 0.55054 -0.02951 0.50972
 O453 O 0.54903 0.52469 -0.00032
 O454 O 0.54298 0.52242 -0.03133
 O455 O 0.50161 0.54946 0.02217
 O456 O 0.47175 0.54404 0.02323
 O457 O 0.52475 0.50147 0.04712
 O458 O 0.52216 0.47060 0.04102
 O459 O 0.45312 0.50065 -0.02483
 O460 O 0.45839 0.53145 -0.02124
 O461 O 0.49905 0.47776 -0.04873
 O462 O 0.53057 0.47796 -0.04365
 O463 O 0.47700 0.45371 -0.00265
 O464 O 0.47793 0.45969 0.02982
 O465 O 0.45305 0.47856 -0.00308
 O466 O 0.45999 0.48030 0.03077
 O467 O 0.49908 0.45346 -0.02428
 O468 O 0.53348 0.46173 -0.02124
 O469 O 0.47694 0.49940 -0.04846
 O470 O 0.48313 0.53232 -0.04256
 O471 O 0.54930 0.50235 0.02122
 O472 O 0.54203 0.46953 0.01720
 O473 O 0.50269 0.52322 0.04760
 O474 O 0.46962 0.52070 0.04034
 O475 O 0.52368 0.54956 0.00047
 O476 O 0.51932 0.54251 -0.03236
 Zr477 Zr 0.52261 0.52335 -0.01104
 O478 O 0.50676 0.50711 -0.02842
 Zr479 Zr 0.49108 0.52290 0.02133
 O480 O 0.47355 0.50738 0.00490
 Zr481 Zr 0.52300 0.49091 0.02063
 O482 O 0.50650 0.47363 0.00485
 Zr483 Zr 0.47926 0.51171 -0.02273
 O484 O 0.49503 0.52932 -0.00634
 Zr485 Zr 0.51089 0.47945 -0.02276
 O486 O 0.52861 0.49564 -0.00700
 Zr487 Zr 0.47894 0.47967 0.00914
 O488 O 0.49542 0.49522 0.02689
 O489 O 0.51840 0.51845 0.01646
 O490 O 0.48337 0.48402 -0.01842
 C491 C 0.55683 0.51523 0.01212
 C492 C 0.51434 0.55718 0.01308
 C493 C 0.51550 0.51397 0.05504
 C494 C 0.44559 0.48762 -0.01602
 C495 C 0.48584 0.48647 -0.05606
 C496 C 0.48596 0.44609 -0.01551
 H497 H 0.50961 0.51007 -0.04122
 H498 H 0.50935 0.46084 0.00781
 H499 H 0.52617 0.52619 0.02423
 H500 H 0.46081 0.51056 0.00769
 H501 H 0.46421 0.54292 -0.01732
 H502 H 0.46275 0.54188 0.01351
 H503 H 0.53029 0.45168 -0.01289
 H504 H 0.55150 0.47063 0.02672
 H505 H 0.47277 0.53182 -0.05116
 H506 H 0.52892 0.55190 -0.03126
 H507 H 0.48939 0.45271 0.02929
 H508 H 0.50975 0.47077 0.04614
 H509 H 0.54821 0.51002 -0.03101
 H510 H 0.53152 0.49020 -0.04912
 H511 H 0.47191 0.50958 0.04757
 H512 H 0.45133 0.49029 0.02836
 O513 O 0.75225 0.27358 0.45240
 O514 O 0.72123 0.27116 0.45799
 O515 O 0.77380 0.29866 0.50017
 O516 O 0.77451 0.29333 0.53012
 O517 O 0.79933 0.25072 0.47755
 O518 O 0.79337 0.21981 0.48024
 O519 O 0.72648 0.24984 0.54826
 O520 O 0.72995 0.28061 0.54285
 O521 O 0.70341 0.22663 0.50196
 O522 O 0.70898 0.22668 0.47048
 O523 O 0.74921 0.20289 0.52491
 O524 O 0.78154 0.20899 0.52448
 O525 O 0.74831 0.22788 0.54879
 O526 O 0.78218 0.22974 0.54229
 O527 O 0.72797 0.20242 0.50246
 O528 O 0.73148 0.21057 0.46799
 O529 O 0.70324 0.24835 0.52401
 O530 O 0.70906 0.28126 0.51774
 O531 O 0.77385 0.25133 0.45258
 O532 O 0.76991 0.21853 0.45998
 O533 O 0.79934 0.27256 0.49956
 O534 O 0.79163 0.27010 0.53261
 O535 O 0.75251 0.29857 0.47771
 O536 O 0.71972 0.29135 0.48158
 Zr537 Zr 0.74116 0.27229 0.47871
 O538 O 0.72366 0.25602 0.49441
 Zr539 Zr 0.77298 0.27213 0.51081
 O540 O 0.75640 0.25661 0.52820
 Zr541 Zr 0.77293 0.24002 0.47898
 O542 O 0.75703 0.22272 0.49537
 Zr543 Zr 0.72889 0.26077 0.52203
 O544 O 0.74540 0.27839 0.50639
 Zr545 Zr 0.72951 0.22838 0.49051
 O546 O 0.74542 0.24457 0.47291
 Zr547 Zr 0.76086 0.22890 0.52301
 O548 O 0.77873 0.24446 0.50669
 O549 O 0.76855 0.26755 0.48339
 O550 O 0.73340 0.23308 0.51814
 C551 C 0.76482 0.26414 0.44482
 C552 C 0.76489 0.30628 0.48725
 C553 C 0.80701 0.26331 0.48687
 C554 C 0.73526 0.23692 0.55603
 C555 C 0.69585 0.23537 0.51502
 C556 C 0.73656 0.19515 0.51577
 H557 H 0.71092 0.25891 0.49133
 H558 H 0.76009 0.20993 0.49262
 H559 H 0.77637 0.27530 0.47568
 H560 H 0.75898 0.25986 0.54099
 H561 H 0.73390 0.29208 0.53702
 H562 H 0.76464 0.29122 0.53895
 H563 H 0.73980 0.20057 0.47137
 H564 H 0.77955 0.21964 0.45063
 H565 H 0.70033 0.28077 0.52798
 H566 H 0.72092 0.30070 0.47193
 H567 H 0.78131 0.20205 0.51298
 H568 H 0.79831 0.22009 0.49275
 H569 H 0.72170 0.25876 0.45281
 H570 H 0.70350 0.23890 0.46933
 H571 H 0.79898 0.25904 0.53045
 H572 H 0.77959 0.23974 0.55090
 O573 O 0.72712 0.74888 0.04959
 O574 O 0.72970 0.77994 0.04376
 O575 O 0.70252 0.72693 0.00184
 O576 O 0.70808 0.72599 -0.02806
 O577 O 0.75021 0.70151 0.02508
 O578 O 0.78107 0.70748 0.02269
 O579 O 0.75177 0.77384 -0.04627
 O580 O 0.72098 0.77045 -0.04113
 O581 O 0.77453 0.79735 0.00003
 O582 O 0.77415 0.79206 0.03158
 O583 O 0.79838 0.75130 -0.02226
 O584 O 0.79222 0.71883 -0.02150
 O585 O 0.77367 0.75194 -0.04637
 O586 O 0.77175 0.71812 -0.03959
 O587 O 0.79865 0.77276 0.00000
 O588 O 0.79023 0.76955 0.03442
 O589 O 0.75307 0.79734 -0.02225
 O590 O 0.72013 0.79161 -0.01623
 O591 O 0.74929 0.72722 0.04982
 O592 O 0.78213 0.73116 0.04276
 O593 O 0.72857 0.70131 0.00290
 O594 O 0.73127 0.70875 -0.03018
 O595 O 0.70245 0.74851 0.02406
 O596 O 0.70973 0.78128 0.01998
 Zr597 Zr 0.72870 0.75981 0.02321
 O598 O 0.74509 0.77717 0.00749
 Zr599 Zr 0.72910 0.72763 -0.00858
 O600 O 0.74478 0.74406 -0.02598
 Zr601 Zr 0.76088 0.72795 0.02355
 O602 O 0.77832 0.74372 0.00718
 Zr603 Zr 0.74060 0.77169 -0.02013
 O604 O 0.72285 0.75531 -0.00449
 Zr605 Zr 0.77264 0.77132 0.01172
 O606 O 0.75631 0.75555 0.02932
 Zr607 Zr 0.77239 0.73962 -0.02048
 O608 O 0.75668 0.72189 -0.00414
 O609 O 0.73344 0.73231 0.01884
 O610 O 0.76820 0.76718 -0.01591
 C611 C 0.73642 0.73631 0.05736
 C612 C 0.69480 0.73601 0.01459
 C613 C 0.73772 0.69373 0.01572
 C614 C 0.76473 0.76497 -0.05382
 C615 C 0.76596 0.80480 -0.01320
 C616 C 0.80601 0.76405 -0.01318
 H617 H 0.74219 0.78997 0.01041
 H618 H 0.79106 0.74067 0.01008
 H619 H 0.72562 0.72454 0.02652
 H620 H 0.74165 0.74137 -0.03877
 H621 H 0.70948 0.76656 -0.03537
 H622 H 0.71033 0.73575 -0.03700
 H623 H 0.80023 0.76117 0.03121
 H624 H 0.78092 0.72158 0.05218
 H625 H 0.72074 0.80027 -0.02655
 H626 H 0.70033 0.78020 0.02957
 H627 H 0.79919 0.71931 -0.01002
 H628 H 0.78096 0.70245 0.01021
 H629 H 0.74202 0.77943 0.04911
 H630 H 0.76195 0.79756 0.03255
 H631 H 0.74232 0.70144 -0.02789
 H632 H 0.76179 0.72059 -0.04826
 O633 O 0.97632 0.29766 0.25123
 O634 O 0.97902 0.29179 0.22018
 O635 O 0.95136 0.25008 0.27314
 O636 O 0.95674 0.22015 0.27404
 O637 O 0.99898 0.27301 0.29880
 O638 O 1.02987 0.27046 0.29301
 O639 O 1.00070 0.20171 0.22646
 O640 O 0.96992 0.20697 0.22971
 O641 O 1.02373 0.24791 0.20303
 O642 O 1.02353 0.27941 0.20835
 O643 O 1.04725 0.22547 0.24932
 O644 O 1.04088 0.22625 0.28174
 O645 O 1.02244 0.20150 0.24852
 O646 O 1.02034 0.20827 0.28234
 O647 O 1.04775 0.24769 0.22779
 O648 O 1.03947 0.28214 0.23095
 O649 O 1.00215 0.22576 0.20293
 O650 O 0.96924 0.23188 0.20854
 O651 O 0.99835 0.29777 0.27304
 O652 O 1.03117 0.29052 0.26932
 O653 O 0.97726 0.25093 0.29887
 O654 O 0.97983 0.21787 0.29145
 O655 O 0.95152 0.27229 0.25154
 O656 O 0.95895 0.26812 0.21878
 Zr657 Zr 0.97782 0.27127 0.24035
 O658 O 0.99425 0.25548 0.22309
 Zr659 Zr 0.97788 0.23949 0.27255
 O660 O 0.99358 0.22201 0.25622
 Zr661 Zr 1.00981 0.27144 0.27241
 O662 O 1.02727 0.25499 0.25674
 Zr663 Zr 0.98960 0.22789 0.22856
 O664 O 0.97182 0.24361 0.24482
 Zr665 Zr 1.02179 0.25955 0.22908
 O666 O 1.00543 0.27723 0.24476
 Zr667 Zr 1.02119 0.22738 0.26082
 O668 O 1.00544 0.24378 0.27846
 O669 O 0.98238 0.26687 0.26788
 O670 O 1.01719 0.23196 0.23322
 C671 C 0.98559 0.30538 0.26384
 C672 C 0.94377 0.26289 0.26402
 C673 C 0.98641 0.26370 0.30651
 C674 C 1.01356 0.19409 0.23544
 C675 C 1.01509 0.23476 0.19551
 C676 C 1.05501 0.23449 0.23659
 H677 H 0.99143 0.25842 0.21027
 H678 H 1.04000 0.25782 0.25986
 H679 H 0.97456 0.27460 0.27561
 H680 H 0.99039 0.20924 0.25890
 H681 H 0.95841 0.21277 0.23355
 H682 H 0.95906 0.21114 0.26436
 H683 H 1.04941 0.27887 0.23939
 H684 H 1.02995 0.29995 0.27889
 H685 H 0.96983 0.22156 0.19989
 H686 H 0.94958 0.27776 0.21981
 H687 H 1.04789 0.23769 0.28131
 H688 H 1.02965 0.25799 0.29806
 H689 H 0.99136 0.29707 0.22075
 H690 H 1.01136 0.28046 0.20278
 H691 H 0.99085 0.22009 0.29881
 H692 H 1.01036 0.19965 0.27981
 O693 O 0.74834 1.04844 0.72659
 O694 O 0.77929 1.04239 0.72900
 O695 O 0.72597 1.00079 0.70212
 O696 O 0.72491 0.97092 0.70775
 O697 O 0.70095 1.02430 0.74985
 O698 O 0.70694 1.02192 0.78077
 O699 O 0.77280 0.95256 0.75152
 O700 O 0.76930 0.95757 0.72066
 O701 O 0.79658 0.99883 0.77401
 O702 O 0.79136 1.03036 0.77367
 O703 O 0.75053 0.97670 0.79812
 O704 O 0.71813 0.97767 0.79209
 O705 O 0.75094 0.95261 0.77345
 O706 O 0.71718 0.95961 0.77155
 O707 O 0.77216 0.99876 0.79827
 O708 O 0.76895 1.03324 0.78986
 O709 O 0.79640 0.97650 0.75257
 O710 O 0.79052 0.98238 0.71958
 O711 O 0.72678 1.04887 0.74888
 O712 O 0.73073 1.04179 0.78179
 O713 O 0.70054 1.00206 0.72826
 O714 O 0.70780 0.96893 0.73107
 O715 O 0.74760 1.02291 0.70191
 O716 O 0.78036 1.01855 0.70908
 Zr717 Zr 0.75904 1.02199 0.72817
 O718 O 0.77634 1.00624 0.74461
 Zr719 Zr 0.72675 0.99042 0.72876
 O720 O 0.74312 0.97296 0.74447
 Zr721 Zr 0.72735 1.02261 0.76052
 O722 O 0.74305 1.00619 0.77800
 Zr723 Zr 0.77071 0.97865 0.74020
 O724 O 0.75438 0.99432 0.72240
 Zr725 Zr 0.77061 1.01056 0.77223
 O726 O 0.75493 1.02820 0.75583
 Zr727 Zr 0.73879 0.97855 0.77212
 O728 O 0.72112 0.99496 0.75640
 O729 O 0.73159 1.01781 0.73302
 O730 O 0.76631 0.98296 0.76785
 C731 C 0.73590 1.05632 0.73595
 C732 C 0.73503 1.01350 0.69433
 C733 C 0.69309 1.01496 0.73738
 C734 C 0.76391 0.94508 0.76454
 C735 C 0.80396 0.98558 0.76540
 C736 C 0.76341 0.98565 0.80569
 H737 H 0.78912 1.00910 0.74166
 H738 H 0.74007 1.00911 0.79077
 H739 H 0.72386 1.02554 0.72520
 H740 H 0.74035 0.96018 0.74138
 H741 H 0.76538 0.96330 0.70912
 H742 H 0.73463 0.96193 0.70999
 H743 H 0.76075 1.02999 0.80000
 H744 H 0.72124 1.05129 0.78058
 H745 H 0.79911 0.97202 0.72020
 H746 H 0.77928 1.02810 0.69961
 H747 H 0.71866 0.98919 0.79900
 H748 H 0.70187 1.00947 0.78072
 H749 H 0.77890 1.04776 0.74133
 H750 H 0.79685 1.03126 0.76144
 H751 H 0.70050 0.97133 0.74211
 H752 H 0.71961 0.95086 0.76164
 O753 O 0.74766 0.54711 0.22649
 O754 O 0.77865 0.54112 0.22876
 O755 O 0.72534 0.49948 0.20188
 O756 O 0.72419 0.46962 0.20744
 O757 O 0.70050 0.52282 0.24989
 O758 O 0.70668 0.52020 0.28081
 O759 O 0.77240 0.45110 0.25078
 O760 O 0.76868 0.45627 0.21998
 O761 O 0.79629 0.49722 0.27338
 O762 O 0.79113 0.52870 0.27324
 O763 O 0.75030 0.47510 0.29771
 O764 O 0.71793 0.47594 0.29178
 O765 O 0.75072 0.45104 0.27289
 O766 O 0.71694 0.45797 0.27120
 O767 O 0.77190 0.49719 0.29785
 O768 O 0.76880 0.53165 0.28948
 O769 O 0.79599 0.47506 0.25177
 O770 O 0.78987 0.48110 0.21888
 O771 O 0.72628 0.54737 0.24893
 O772 O 0.73041 0.54016 0.28175
 O773 O 0.69999 0.50071 0.22816
 O774 O 0.70724 0.46756 0.23084
 O775 O 0.74694 0.52163 0.20167
 O776 O 0.77971 0.51740 0.20870
 Zr777 Zr 0.75845 0.52067 0.22790
 O778 O 0.77586 0.50482 0.24413
 Zr779 Zr 0.72619 0.48905 0.22850
 O780 O 0.74266 0.47152 0.24402
 Zr781 Zr 0.72695 0.52106 0.26042
 O782 O 0.74278 0.50457 0.27771
 Zr783 Zr 0.77022 0.47725 0.23962
 O784 O 0.75378 0.49301 0.22201
 Zr785 Zr 0.77031 0.50898 0.27181
 O786 O 0.75450 0.52670 0.25561
 Zr787 Zr 0.73850 0.47696 0.27174
 O788 O 0.72072 0.49342 0.25620
 O789 O 0.73104 0.51642 0.23287
 O790 O 0.76600 0.48140 0.26733
 C791 C 0.73527 0.55491 0.23598
 C792 C 0.73439 0.51221 0.19409
 C793 C 0.69259 0.51358 0.23739
 C794 C 0.76362 0.44355 0.26383
 C795 C 0.80363 0.48405 0.26461
 C796 C 0.76314 0.48410 0.30529
 H797 H 0.78862 0.50770 0.24112
 H798 H 0.73986 0.50745 0.29051
 H799 H 0.72327 0.52417 0.22511
 H800 H 0.73988 0.45876 0.24089
 H801 H 0.76468 0.46205 0.20849
 H802 H 0.73394 0.46064 0.20955
 H803 H 0.76051 0.52846 0.29957
 H804 H 0.72087 0.54961 0.28067
 H805 H 0.79847 0.47074 0.21936
 H806 H 0.77858 0.52701 0.19930
 H807 H 0.71839 0.48748 0.29866
 H808 H 0.70150 0.50779 0.28059
 H809 H 0.77828 0.54643 0.24112
 H810 H 0.79643 0.52979 0.26093
 H811 H 0.70002 0.46992 0.24194
 H812 H 0.71932 0.44928 0.26122
 O813 O 0.54717 0.22562 0.74898
 O814 O 0.54106 0.22797 0.77998
 O815 O 0.49953 0.20133 0.72641
 O816 O 0.46974 0.20711 0.72523
 O817 O 0.52330 0.24897 0.70147
 O818 O 0.52090 0.27992 0.70747
 O819 O 0.45145 0.25077 0.77321
 O820 O 0.45639 0.21991 0.76967
 O821 O 0.49763 0.27308 0.79724
 O822 O 0.52913 0.27260 0.79214
 O823 O 0.47580 0.29736 0.75107
 O824 O 0.47679 0.29140 0.71861
 O825 O 0.45164 0.27277 0.75136
 O826 O 0.45872 0.27093 0.71755
 O827 O 0.49780 0.29738 0.77279
 O828 O 0.53217 0.28881 0.76973
 O829 O 0.47528 0.25172 0.79694
 O830 O 0.48108 0.21874 0.79104
 O831 O 0.54772 0.24795 0.72744
 O832 O 0.54073 0.28084 0.73136
 O833 O 0.50102 0.22747 0.70097
 O834 O 0.46792 0.23046 0.70809
 O835 O 0.52159 0.20101 0.74813
 O836 O 0.51720 0.20813 0.78095
 Zr837 Zr 0.52074 0.22724 0.75962
 O838 O 0.50502 0.24369 0.77694
 Zr839 Zr 0.48929 0.22801 0.72717
 O840 O 0.47188 0.24375 0.74354
 Zr841 Zr 0.52152 0.25964 0.72791
 O842 O 0.50516 0.27714 0.74364
 Zr843 Zr 0.47747 0.23939 0.77120
 O844 O 0.49310 0.22158 0.75486
 Zr845 Zr 0.50944 0.27129 0.77126
 O846 O 0.52703 0.25488 0.75556
 Zr847 Zr 0.47756 0.27139 0.73927
 O848 O 0.49392 0.25564 0.72158
 O849 O 0.51664 0.23217 0.73212
 O850 O 0.48188 0.26703 0.76686
 C851 C 0.55510 0.23499 0.73656
 C852 C 0.51218 0.19349 0.73551
 C853 C 0.51398 0.23652 0.69357
 C854 C 0.44405 0.26383 0.76431
 C855 C 0.48434 0.26451 0.80456
 C856 C 0.48476 0.30487 0.76399
 H857 H 0.50782 0.24070 0.78975
 H858 H 0.50814 0.28990 0.74068
 H859 H 0.52436 0.22433 0.72440
 H860 H 0.45912 0.24071 0.74071
 H861 H 0.46209 0.20837 0.76575
 H862 H 0.46074 0.20937 0.73493
 H863 H 0.52902 0.29894 0.76145
 H864 H 0.55020 0.27964 0.72185
 H865 H 0.47071 0.21937 0.79961
 H866 H 0.52671 0.19864 0.77988
 H867 H 0.48836 0.29820 0.71912
 H868 H 0.50851 0.27982 0.70229
 H869 H 0.54644 0.24029 0.77964
 H870 H 0.52996 0.26036 0.79764
 H871 H 0.47040 0.24149 0.70080
 H872 H 0.44994 0.26104 0.71993
 O873 O 0.25151 0.77412 0.45235
 O874 O 0.22050 0.77162 0.45805
 O875 O 0.27320 0.79938 0.49991
 O876 O 0.27393 0.79419 0.52990
 O877 O 0.29873 0.75143 0.47742
 O878 O 0.29284 0.72052 0.48021
 O879 O 0.22608 0.75054 0.54833
 O880 O 0.22953 0.78133 0.54288
 O881 O 0.20296 0.72718 0.50222
 O882 O 0.20840 0.72719 0.47070
 O883 O 0.24889 0.70360 0.52503
 O884 O 0.28125 0.70986 0.52448
 O885 O 0.24795 0.72861 0.54885
 O886 O 0.28179 0.73059 0.54231
 O887 O 0.22757 0.70304 0.50266
 O888 O 0.23092 0.71111 0.46817
 O889 O 0.20280 0.74900 0.52418
 O890 O 0.20855 0.78190 0.51782
 O891 O 0.27317 0.75194 0.45252
 O892 O 0.26933 0.71914 0.46001
 O893 O 0.29878 0.77333 0.49936
 O894 O 0.29117 0.77099 0.53243
 O895 O 0.25180 0.79916 0.47755
 O896 O 0.21904 0.79190 0.48158
 Zr897 Zr 0.24051 0.77287 0.47870
 O898 O 0.22310 0.75661 0.49450
 Zr899 Zr 0.27244 0.77289 0.51068
 O900 O 0.25596 0.75737 0.52818
 Zr901 Zr 0.27236 0.74068 0.47895
 O902 O 0.25655 0.72339 0.49544
 Zr903 Zr 0.22842 0.76146 0.52210
 O904 O 0.24483 0.77907 0.50634
 Zr905 Zr 0.22900 0.72897 0.49066
 O906 O 0.24482 0.74515 0.47296
 Zr907 Zr 0.26046 0.72966 0.52305
 O908 O 0.27824 0.74522 0.50663
 O909 O 0.26793 0.76821 0.48329
 O910 O 0.23298 0.73376 0.51825
 C911 C 0.26409 0.76470 0.44476
 C912 C 0.26422 0.80693 0.48699
 C913 C 0.30642 0.76406 0.48668
 C914 C 0.23487 0.73762 0.55609
 C915 C 0.19542 0.73595 0.51528
 C916 C 0.23623 0.69582 0.51595
 H917 H 0.21034 0.75947 0.49147
 H918 H 0.25963 0.71060 0.49271
 H919 H 0.27571 0.77595 0.47554
 H920 H 0.25856 0.76065 0.54095
 H921 H 0.23343 0.79279 0.53701
 H922 H 0.26417 0.79199 0.53885
 H923 H 0.23932 0.70116 0.47153
 H924 H 0.27894 0.72025 0.45063
 H925 H 0.19985 0.78142 0.52810
 H926 H 0.22018 0.80121 0.47189
 H927 H 0.28093 0.70281 0.51304
 H928 H 0.29783 0.72084 0.49270
 H929 H 0.22100 0.75921 0.45290
 H930 H 0.20287 0.73938 0.46957
 H931 H 0.29849 0.75990 0.53032
 H932 H 0.27920 0.74061 0.55089
 O933 O 0.29866 0.25215 0.97722
 O934 O 0.29273 0.22110 0.97983
 O935 O 0.25129 0.27426 0.95214
 O936 O 0.22143 0.27541 0.95747
 O937 O 0.27425 0.29959 1.00004
 O938 O 0.27149 0.29369 1.03101
 O939 O 0.20275 0.22754 1.00124
 O940 O 0.20805 0.23102 0.97041
 O941 O 0.24869 0.20385 1.02430
 O942 O 0.28013 0.20906 1.02432
 O943 O 0.22637 0.25016 1.04804
 O944 O 0.22725 0.28255 1.04180
 O945 O 0.20254 0.24950 1.02310
 O946 O 0.20942 0.28334 1.02108
 O947 O 0.24841 0.22849 1.04852
 O948 O 0.28287 0.23158 1.04042
 O949 O 0.22669 0.20395 1.00255
 O950 O 0.23288 0.20979 0.96964
 O951 O 0.29879 0.27380 0.99944
 O952 O 0.29144 0.26991 1.03228
 O953 O 0.25231 0.29988 0.97816
 O954 O 0.21921 0.29265 0.98071
 O955 O 0.27340 0.25260 0.95230
 O956 O 0.26917 0.21984 0.95962
 Zr957 Zr 0.27229 0.24132 0.97862
 O958 O 0.25640 0.22405 0.99493
 Zr959 Zr 0.24069 0.27364 0.97869
 O960 O 0.22312 0.25730 0.99427
 Zr961 Zr 0.27247 0.27320 1.01082
 O962 O 0.25593 0.25751 1.02817
 Zr963 Zr 0.22890 0.22965 0.99017
 O964 O 0.24472 0.24594 0.97250
 Zr965 Zr 0.26039 0.22988 1.02257
 O966 O 0.27816 0.24555 1.00633
 Zr967 Zr 0.22840 0.26174 1.02197
 O968 O 0.24490 0.27940 1.00636
 O969 O 0.26798 0.26883 0.98329
 O970 O 0.23288 0.23415 1.01786
 C971 C 0.30638 0.26469 0.98660
 C972 C 0.26406 0.26513 0.94454
 C973 C 0.26510 0.30739 0.98738
 C974 C 0.19515 0.23645 1.01416
 C975 C 0.23560 0.19642 1.01552
 C976 C 0.23527 0.23733 1.05578
 H977 H 0.25931 0.21124 0.99206
 H978 H 0.25872 0.26056 1.04095
 H979 H 0.27575 0.27654 0.97550
 H980 H 0.21039 0.26004 0.99103
 H981 H 0.21387 0.23491 0.95892
 H982 H 0.21242 0.26571 0.95968
 H983 H 0.27958 0.23994 1.05042
 H984 H 0.30087 0.27946 1.03116
 H985 H 0.22254 0.20118 0.97014
 H986 H 0.27882 0.22089 0.95027
 H987 H 0.23871 0.28213 1.04879
 H988 H 0.25909 0.29887 1.03067
 H989 H 0.29800 0.22164 0.99220
 H990 H 0.28128 0.20363 1.01208
 H991 H 0.22149 0.29999 0.99174
 H992 H 0.20078 0.28083 1.01110
 C993 C 0.29633 0.34908 0.78046
 C994 C 0.29091 0.36287 0.79239
 C995 C 0.29241 0.36026 0.81118
 C996 C 0.29948 0.34402 0.81803
 C997 C 0.30513 0.33016 0.80615
 C998 C 0.30339 0.33280 0.78729
 C999 C 0.28436 0.37995 0.78546
 C1000 C 0.27915 0.39448 0.77998
 C1001 C 0.27337 0.41176 0.77397
 C1002 C 0.26871 0.42671 0.76917
 H1003 H 0.29526 0.35097 0.76589
 H1004 H 0.28835 0.37088 0.82054
 H1005 H 0.30088 0.34240 0.83259
 H1006 H 0.30761 0.32228 0.77791
 C1007 C 0.29582 -0.15120 0.28050
 C1008 C 0.29083 -0.13731 0.29251
 C1009 C 0.29247 -0.13998 0.31128
 C1010 C 0.29927 -0.15638 0.31803
 C1011 C 0.30452 -0.17033 0.30607
 C1012 C 0.30262 -0.16763 0.28724
 C1013 C 0.28461 -0.12007 0.28566
 C1014 C 0.27966 -0.10543 0.28023
 C1015 C 0.27414 -0.08805 0.27424
 C1016 C 0.26965 -0.07304 0.26947
 H1017 H 0.29465 -0.14926 0.26595
 H1018 H 0.28873 -0.12929 0.32070
 H1019 H 0.30081 -0.15804 0.33258
 H1020 H 0.30654 -0.17821 0.27779
 C1021 C 0.79595 0.84922 0.78164
 C1022 C 0.79102 0.86327 0.79349
 C1023 C 0.79291 0.86092 0.81228
 C1024 C 0.79990 0.84468 0.81921
 C1025 C 0.80509 0.83057 0.80742
 C1026 C 0.80294 0.83295 0.78857
 C1027 C 0.78458 0.88034 0.78643
 C1028 C 0.77946 0.89487 0.78085
 C1029 C 0.77375 0.91213 0.77471
 C1030 C 0.76913 0.92707 0.76984
 H1031 H 0.79458 0.85091 0.76707
 H1032 H 0.78921 0.87174 0.82156
 H1033 H 0.80162 0.84326 0.83376
 H1034 H 0.80681 0.82223 0.77925
 C1035 C 0.45379 0.90236 0.27915
 C1036 C 0.45948 0.88859 0.29101
 C1037 C 0.45828 0.89121 0.30981
 C1038 C 0.45125 0.90741 0.31676
 C1039 C 0.44531 0.92123 0.30497
 C1040 C 0.44676 0.91860 0.28609
 C1041 C 0.46587 0.87149 0.28401
 C1042 C 0.47091 0.85688 0.27857
 C1043 C 0.47642 0.83946 0.27273
 C1044 C 0.48077 0.82433 0.26821
 H1045 H 0.45460 0.90046 0.26456
 H1046 H 0.46254 0.88061 0.31911
 H1047 H 0.45007 0.90901 0.33134
 H1048 H 0.44231 0.92909 0.27676
 C1049 C -0.03157 0.90186 0.79558
 C1050 C -0.04333 0.88791 0.79027
 C1051 C -0.06209 0.89015 0.79218
 C1052 C -0.06907 0.90618 0.79959
 C1053 C -0.05736 0.92018 0.80518
 C1054 C -0.03854 0.91792 0.80298
 C1055 C -0.03625 0.87096 0.78354
 C1056 C -0.03073 0.85647 0.77828
 C1057 C -0.02476 0.83917 0.77255
 C1058 C -0.02013 0.82412 0.76806
 H1059 H -0.01702 0.90024 0.79421
 H1060 H -0.07132 0.87940 0.78822
 H1061 H -0.08360 0.90750 0.80134
 H1062 H -0.02928 0.92856 0.80714
 C1063 C -0.04669 -0.15069 -0.03040
 C1064 C -0.04137 -0.13694 -0.04243
 C1065 C -0.04285 -0.13968 -0.06121
 C1066 C -0.04981 -0.15600 -0.06794
 C1067 C -0.05538 -0.16981 -0.05596
 C1068 C -0.05365 -0.16704 -0.03712
 C1069 C -0.03493 -0.11978 -0.03561
 C1070 C -0.02980 -0.10520 -0.03022
 C1071 C -0.02406 -0.08789 -0.02429
 C1072 C -0.01940 -0.07292 -0.01958
 H1073 H -0.04564 -0.14870 -0.01585
 H1074 H -0.03886 -0.12909 -0.07064
 H1075 H -0.05121 -0.15771 -0.08249
 H1076 H -0.05781 -0.17752 -0.02766
 C1077 C -0.04135 0.35848 0.43998
 C1078 C -0.03970 0.36124 0.45874
 C1079 C -0.04478 0.34745 0.47083
 C1080 C -0.05167 0.33103 0.46418
 C1081 C -0.05358 0.32825 0.44536
 C1082 C -0.04824 0.34210 0.43333
 C1083 C -0.03346 0.37850 0.46546
 C1084 C -0.02854 0.39322 0.47069
 C1085 C -0.02313 0.41073 0.47633
 C1086 C -0.01883 0.42591 0.48071
 H1087 H -0.03756 0.36910 0.43051
 H1088 H -0.04361 0.34946 0.48537
 H1089 H -0.05565 0.32052 0.47368
 H1090 H -0.04979 0.34039 0.41879
 C1091 C 0.45522 -0.15297 0.47069
 C1092 C 0.46045 -0.13913 0.45872
 C1093 C 0.45879 -0.14171 0.43994
 C1094 C 0.45174 -0.15796 0.43314
 C1095 C 0.44624 -0.17186 0.44505
 C1096 C 0.44817 -0.16926 0.46389
 C1097 C 0.46682 -0.12197 0.46561
 C1098 C 0.47184 -0.10734 0.47098
 C1099 C 0.47733 -0.08990 0.47678
 C1100 C 0.48168 -0.07478 0.48129
 H1101 H 0.45640 -0.15110 0.48525
 H1102 H 0.46270 -0.13105 0.43056
 H1103 H 0.45018 -0.15953 0.41859
 H1104 H 0.44406 -0.17980 0.47330
 C1105 C 0.45349 0.35030 -0.03178
 C1106 C 0.45839 0.36423 -0.04379
 C1107 C 0.45637 0.36171 -0.06254
 C1108 C 0.44931 0.34543 -0.06927
 C1109 C 0.44417 0.33144 -0.05731
 C1110 C 0.44643 0.33399 -0.03850
 C1111 C 0.46493 0.38134 -0.03694
 C1112 C 0.47015 0.39588 -0.03152
 C1113 C 0.47596 0.41314 -0.02554
 C1114 C 0.48067 0.42808 -0.02076
 H1115 H 0.45496 0.35212 -0.01724
 H1116 H 0.46004 0.37243 -0.07196
 H1117 H 0.44751 0.34388 -0.08380
 H1118 H 0.44261 0.32337 -0.02905
 C1119 C 0.81099 0.39138 0.45920
 C1120 C 0.79225 0.38874 0.46076
 C1121 C 0.78028 0.40241 0.45514
 C1122 C 0.78703 0.41857 0.44777
 C1123 C 0.80583 0.42122 0.44591
 C1124 C 0.81775 0.40750 0.45183
 C1125 C 0.78541 0.37166 0.46739
 C1126 C 0.78006 0.35707 0.47256
 C1127 C 0.77427 0.33967 0.47817
 C1128 C 0.76974 0.32456 0.48255
 H1129 H 0.82037 0.38084 0.46341
 H1130 H 0.76575 0.40048 0.45623
 H1131 H 0.77762 0.42898 0.44334
 H1132 H 0.83227 0.40912 0.45034
 C1133 C 0.81374 0.88849 -0.04378
 C1134 C 0.79502 0.88606 -0.04178
 C1135 C 0.78308 0.89993 -0.04699
 C1136 C 0.78985 0.91610 -0.05432
 C1137 C 0.80863 0.91857 -0.05654
 C1138 C 0.82052 0.90464 -0.05111
 C1139 C 0.78811 0.86909 -0.03494
 C1140 C 0.78259 0.85466 -0.02950
 C1141 C 0.77645 0.83752 -0.02345
 C1142 C 0.77149 0.82269 -0.01860
 H1143 H 0.82310 0.87781 -0.03988
 H1144 H 0.76856 0.89817 -0.04554
 H1145 H 0.78046 0.92669 -0.05835
 H1146 H 0.83502 0.90613 -0.05287
 C1147 C 0.81103 0.29139 0.35937
 C1148 C 0.79229 0.28999 0.36212
 C1149 C 0.78030 0.29544 0.34839
 C1150 C 0.78704 0.30244 0.33204
 C1151 C 0.80584 0.30410 0.32927
 C1152 C 0.81777 0.29840 0.34307
 C1153 C 0.78548 0.28363 0.37932
 C1154 C 0.78014 0.27862 0.39398
 C1155 C 0.77433 0.27314 0.41142
 C1156 C 0.76976 0.26882 0.42655
 H1157 H 0.82043 0.28732 0.36995
 H1158 H 0.76577 0.29446 0.35039
 H1159 H 0.77761 0.30671 0.32158
 H1160 H 0.83230 0.29974 0.34135
 C1161 C 0.78072 0.79770 -0.14964
 C1162 C 0.79274 0.79225 -0.13593
 C1163 C 0.81147 0.79359 -0.13875
 C1164 C 0.81817 0.80052 -0.15510
 C1165 C 0.80621 0.80621 -0.16888
 C1166 C 0.78741 0.80464 -0.16603
 C1167 C 0.78594 0.78581 -0.11876
 C1168 C 0.78057 0.78066 -0.10416
 C1169 C 0.77465 0.77491 -0.08684
 C1170 C 0.76992 0.77023 -0.07186
 H1171 H 0.76619 0.79675 -0.14759
 H1172 H 0.82089 0.78949 -0.12820
 H1173 H 0.83270 0.80180 -0.15688
 H1174 H 0.77796 0.80888 -0.17647
 C1175 C 0.29350 0.43843 0.88931
 C1176 C 0.29197 0.45716 0.88635
 C1177 C 0.29749 0.46936 0.89987
 C1178 C 0.30469 0.46284 0.91623
 C1179 C 0.30646 0.44405 0.91922
 C1180 C 0.30070 0.43190 0.90564
 C1181 C 0.28529 0.46379 0.86920
 C1182 C 0.27997 0.46909 0.85463
 C1183 C 0.27405 0.47500 0.83736
 C1184 C 0.26926 0.47979 0.82244
 H1185 H 0.28936 0.42888 0.87891
 H1186 H 0.29640 0.48388 0.89771
 H1187 H 0.30899 0.47242 0.92653
 H1188 H 0.30212 0.41738 0.90753
 C1189 C 0.28102 -0.04594 0.40096
 C1190 C 0.29302 -0.04103 0.38705
 C1191 C 0.31175 -0.04271 0.38974
 C1192 C 0.31846 -0.04946 0.40618
 C1193 C 0.30650 -0.05462 0.42015
 C1194 C 0.28772 -0.05269 0.41743
 C1195 C 0.28621 -0.03481 0.36979
 C1196 C 0.28079 -0.02984 0.35514
 C1197 C 0.27480 -0.02426 0.33779
 C1198 C 0.27001 -0.01968 0.32280
 H1199 H 0.26650 -0.04473 0.39901
 H1200 H 0.32116 -0.03903 0.37904
 H1201 H 0.33297 -0.05102 0.40786
 H1202 H 0.27827 -0.05654 0.42802
 C1203 C -0.04282 -0.06178 -0.14021
 C1204 C -0.04139 -0.04301 -0.13751
 C1205 C -0.04721 -0.03102 -0.15111
 C1206 C -0.05458 -0.03778 -0.16727
 C1207 C -0.05623 -0.05662 -0.17000
 C1208 C -0.05019 -0.06856 -0.15634
 C1209 C -0.03455 -0.03615 -0.12052
 C1210 C -0.02912 -0.03070 -0.10605
 C1211 C -0.02312 -0.02469 -0.08886
 C1212 C -0.01835 -0.01986 -0.07395
 H1213 H -0.03845 -0.07118 -0.12974
 H1214 H -0.04621 -0.01646 -0.14914
 H1215 H -0.05909 -0.02836 -0.17764
 H1216 H -0.05151 -0.08311 -0.15803
 C1217 C -0.03062 0.45461 0.34638
 C1218 C -0.04223 0.45983 0.36051
 C1219 C -0.06101 0.45791 0.35847
 C1220 C -0.06817 0.45059 0.34249
 C1221 C -0.05661 0.44508 0.32831
 C1222 C -0.03777 0.44729 0.33036
 C1223 C -0.03497 0.46643 0.37743
 C1224 C -0.02932 0.47161 0.39190
 C1225 C -0.02324 0.47726 0.40920
 C1226 C -0.01854 0.48170 0.42425
 H1227 H -0.01606 0.45598 0.34784
 H1228 H -0.07012 0.46181 0.36936
 H1229 H -0.08270 0.44883 0.34133
 H1230 H -0.02863 0.44319 0.31959
 C1231 C 0.44003 -0.04166 0.35871
 C1232 C 0.45881 -0.03997 0.36092
 C1233 C 0.47048 -0.04516 0.34683
 C1234 C 0.46339 -0.05222 0.33067
 C1235 C 0.44454 -0.05420 0.32844
 C1236 C 0.43293 -0.04873 0.34259
 C1237 C 0.46599 -0.03359 0.37795
 C1238 C 0.47156 -0.02858 0.39252
 C1239 C 0.47754 -0.02311 0.40990
 C1240 C 0.48214 -0.01878 0.42502
 H1241 H 0.43087 -0.03778 0.36956
 H1242 H 0.48505 -0.04395 0.34842
 H1243 H 0.47257 -0.05631 0.31993
 H1244 H 0.41838 -0.05032 0.34130
 C1245 C 0.43730 0.45644 -0.13940
 C1246 C 0.45608 0.45806 -0.13713
 C1247 C 0.46779 0.45260 -0.15108
 C1248 C 0.46074 0.44538 -0.16719
 C1249 C 0.44189 0.44352 -0.16950
 C1250 C 0.43024 0.44922 -0.15547
 C1251 C 0.46326 0.46480 -0.12023
 C1252 C 0.46896 0.47019 -0.10584
 C1253 C 0.47526 0.47619 -0.08875
 C1254 C 0.48029 0.48104 -0.07394
 H1255 H 0.42812 0.46054 -0.12865
 H1256 H 0.48235 0.45376 -0.14945
 H1257 H 0.46995 0.44113 -0.17784
 H1258 H 0.41569 0.44774 -0.15684
 C1259 C 0.47046 0.79473 0.40247
 C1260 C 0.45845 0.78951 0.38867
 C1261 C 0.43972 0.79111 0.39138
 C1262 C 0.43301 0.79811 0.40770
 C1263 C 0.44496 0.80361 0.42155
 C1264 C 0.46375 0.80173 0.41883
 C1265 C 0.46524 0.78320 0.37145
 C1266 C 0.47055 0.77824 0.35676
 C1267 C 0.47630 0.77282 0.33928
 C1268 C 0.48080 0.76852 0.32412
 H1269 H 0.48498 0.79360 0.40050
 H1270 H 0.43031 0.78722 0.38076
 H1271 H 0.41849 0.79963 0.40937
 H1272 H 0.47319 0.80583 0.42933
 C1273 C -0.03038 0.79633 0.90222
 C1274 C -0.04218 0.79071 0.88840
 C1275 C -0.06096 0.79221 0.89085
 C1276 C -0.06792 0.79949 0.90694
 C1277 C -0.05618 0.80537 0.92081
 C1278 C -0.03734 0.80361 0.91835
 C1279 C -0.03516 0.78406 0.87140
 C1280 C -0.02970 0.77883 0.85687
 C1281 C -0.02384 0.77310 0.83953
 C1282 C -0.01932 0.76859 0.82444
 H1283 H -0.01583 0.79528 0.90044
 H1284 H -0.07021 0.78801 0.88021
 H1285 H -0.08247 0.80090 0.90842
 H1286 H -0.02806 0.80799 0.92888
 C1287 C 0.34705 0.77987 0.29565
 C1288 C 0.36105 0.79160 0.29037
 C1289 C 0.35878 0.81041 0.29204
 C1290 C 0.34270 0.81748 0.29918
 C1291 C 0.32866 0.80581 0.30475
 C1292 C 0.33093 0.78693 0.30279
 C1293 C 0.37804 0.78444 0.28392
 C1294 C 0.39256 0.77887 0.27884
 C1295 C 0.40988 0.77287 0.27329
 C1296 C 0.42493 0.76824 0.26888
 H1297 H 0.34869 0.76528 0.29446
 H1298 H 0.36956 0.81961 0.28810
 H1299 H 0.34136 0.83205 0.30076
 H1300 H 0.32027 0.77770 0.30694
 C1301 C -0.15246 0.78072 0.79710
 C1302 C -0.13859 0.79239 0.79137
 C1303 C -0.14085 0.81122 0.79285
 C1304 C -0.15680 0.81837 0.80020
 C1305 C -0.17072 0.80675 0.80618
 C1306 C -0.16845 0.78785 0.80445
 C1307 C -0.12172 0.78516 0.78466
 C1308 C -0.10731 0.77952 0.77938
 C1309 C -0.09009 0.77341 0.77361
 C1310 C -0.07511 0.76865 0.76907
 H1311 H -0.15083 0.76612 0.79607
 H1312 H -0.13016 0.82038 0.78857
 H1313 H -0.15813 0.83295 0.80159
 H1314 H -0.17902 0.77867 0.80891
 C1315 C 0.90339 0.27887 0.45576
 C1316 C 0.88951 0.29076 0.46100
 C1317 C 0.89199 0.30954 0.45934
 C1318 C 0.90816 0.31643 0.45226
 C1319 C 0.92210 0.30459 0.44673
 C1320 C 0.91961 0.28575 0.44868
 C1321 C 0.87241 0.28379 0.46738
 C1322 C 0.85781 0.27838 0.47239
 C1323 C 0.84040 0.27256 0.47785
 C1324 C 0.82529 0.26806 0.48217
 H1325 H 0.90160 0.26430 0.45693
 H1326 H 0.88129 0.31886 0.46326
 H1327 H 0.90965 0.33098 0.45069
 H1328 H 0.93018 0.27640 0.44455
 C1329 C 0.90164 0.78083 -0.04558
 C1330 C 0.88768 0.79270 -0.04049
 C1331 C 0.89007 0.81148 -0.04233
 C1332 C 0.90624 0.81838 -0.04941
 C1333 C 0.92026 0.80657 -0.05475
 C1334 C 0.91785 0.78772 -0.05266
 C1335 C 0.87065 0.78569 -0.03398
 C1336 C 0.85616 0.78016 -0.02881
 C1337 C 0.83893 0.77409 -0.02305
 C1338 C 0.82401 0.76928 -0.01840
 H1339 H 0.89992 0.76627 -0.04425
 H1340 H 0.87932 0.82079 -0.03852
 H1341 H 0.90769 0.83293 -0.05109
 H1342 H 0.92849 0.77839 -0.05664
 C1343 C -0.13804 -0.04394 -0.06331
 C1344 C -0.13529 -0.04233 -0.04455
 C1345 C -0.14890 -0.04781 -0.03246
 C1346 C -0.16514 -0.05504 -0.03911
 C1347 C -0.16794 -0.05688 -0.05794
 C1348 C -0.15426 -0.05117 -0.06997
 C1349 C -0.11825 -0.03560 -0.03778
 C1350 C -0.10378 -0.03023 -0.03237
 C1351 C -0.08661 -0.02427 -0.02632
 C1352 C -0.07176 -0.01948 -0.02142
 H1353 H -0.12756 -0.03983 -0.07279
 H1354 H -0.14689 -0.04666 -0.01792
 H1355 H -0.17553 -0.05929 -0.02961
 H1356 H -0.15601 -0.05264 -0.08451
 C1357 C -0.15205 0.45537 0.46974
 C1358 C -0.13824 0.46043 0.45769
 C1359 C -0.14080 0.45844 0.43895
 C1360 C -0.15699 0.45120 0.43226
 C1361 C -0.17085 0.44585 0.44425
 C1362 C -0.16828 0.44813 0.46306
 C1363 C -0.12113 0.46697 0.46448
 C1364 C -0.10653 0.47209 0.46977
 C1365 C -0.08913 0.47768 0.47550
 C1366 C -0.07402 0.48209 0.47995
 H1367 H -0.15019 0.45680 0.48428
 H1368 H -0.13016 0.46222 0.42951
 H1369 H -0.15856 0.44938 0.41774
 H1370 H -0.17879 0.44415 0.47253
 C1371 C 0.35970 -0.06036 0.45798
 C1372 C 0.36240 -0.04157 0.45918
 C1373 C 0.34874 -0.02964 0.45344
 C1374 C 0.33251 -0.03650 0.44635
 C1375 C 0.32979 -0.05536 0.44490
 C1376 C 0.34352 -0.06722 0.45089
 C1377 C 0.37948 -0.03465 0.46565
 C1378 C 0.39406 -0.02926 0.47075
 C1379 C 0.41143 -0.02342 0.47633
 C1380 C 0.42650 -0.01886 0.48073
 H1381 H 0.37022 -0.06971 0.46228
 H1382 H 0.35070 -0.01508 0.45426
 H1383 H 0.32210 -0.02712 0.44186
 H1384 H 0.34184 -0.08179 0.44971
 C1385 C 0.36120 0.45797 -0.06286
 C1386 C 0.36378 0.46010 -0.04413
 C1387 C 0.34997 0.45515 -0.03204
 C1388 C 0.33371 0.44792 -0.03865
 C1389 C 0.33109 0.44555 -0.05744
 C1390 C 0.34497 0.45075 -0.06949
 C1391 C 0.38086 0.46676 -0.03739
 C1392 C 0.39538 0.47203 -0.03202
 C1393 C 0.41264 0.47785 -0.02608
 C1394 C 0.42757 0.48250 -0.02131
 H1395 H 0.37183 0.46167 -0.07234
 H1396 H 0.35184 0.45669 -0.01751
 H1397 H 0.32318 0.44406 -0.02914
 H1398 H 0.34336 0.44886 -0.08400
 C1399 C 0.39960 0.46840 0.79723
 C1400 C 0.38568 0.45659 0.79193
 C1401 C 0.38808 0.43779 0.79354
 C1402 C 0.40424 0.43080 0.80060
 C1403 C 0.41823 0.44256 0.80615
 C1404 C 0.41579 0.46142 0.80429
 C1405 C 0.36869 0.46369 0.78539
 C1406 C 0.35423 0.46931 0.78017
 C1407 C 0.33706 0.47550 0.77436
 C1408 C 0.32218 0.48043 0.76966
 H1409 H 0.39787 0.48297 0.79607
 H1410 H 0.37736 0.42853 0.78957
 H1411 H 0.40571 0.41624 0.80209
 H1412 H 0.42641 0.47071 0.80842
 C1413 C 0.39027 -0.06059 0.29245
 C1414 C 0.38757 -0.04182 0.29092
 C1415 C 0.40146 -0.02983 0.29588
 C1416 C 0.41790 -0.03658 0.30256
 C1417 C 0.42063 -0.05541 0.30436
 C1418 C 0.40668 -0.06735 0.29913
 C1419 C 0.37033 -0.03496 0.28479
 C1420 C 0.35569 -0.02953 0.27990
 C1421 C 0.33832 -0.02357 0.27442
 C1422 C 0.32332 -0.01884 0.26992
 H1423 H 0.37959 -0.06999 0.28873
 H1424 H 0.39950 -0.01527 0.29477
 H1425 H 0.42848 -0.02715 0.30646
 H1426 H 0.40837 -0.08190 0.30060
 C1427 C 0.10904 0.56163 0.70730
 C1428 C 0.11148 0.54284 0.70892
 C1429 C 0.09776 0.53099 0.70321
 C1430 C 0.08173 0.53791 0.69573
 C1431 C 0.07928 0.55677 0.69385
 C1432 C 0.09305 0.56857 0.69982
 C1433 C 0.12839 0.53582 0.71573
 C1434 C 0.14285 0.53033 0.72107
 C1435 C 0.16010 0.52436 0.72687
 C1436 C 0.17511 0.51968 0.73139
 H1437 H 0.11961 0.57092 0.71157
 H1438 H 0.09953 0.51641 0.70435
 H1439 H 0.07127 0.52859 0.69127
 H1440 H 0.09157 0.58313 0.69832
 C1441 C 0.09807 0.04606 0.22005
 C1442 C 0.11193 0.04062 0.20823
 C1443 C 0.10940 0.04195 0.18941
 C1444 C 0.09319 0.04888 0.18242
 C1445 C 0.07927 0.05459 0.19419
 C1446 C 0.08182 0.05300 0.21307
 C1447 C 0.12903 0.03433 0.21528
 C1448 C 0.14362 0.02936 0.22078
 C1449 C 0.16099 0.02388 0.22671
 C1450 C 0.17607 0.01950 0.23131
 H1451 H 0.09990 0.04514 0.23464
 H1452 H 0.12008 0.03787 0.18014
 H1453 H 0.09165 0.05018 0.16784
 H1454 H 0.07126 0.05727 0.22237
 C1455 C 0.63913 0.70629 0.18883
 C1456 C 0.63617 0.70771 0.20758
 C1457 C 0.64982 0.70250 0.21976
 C1458 C 0.66631 0.69573 0.21321
 C1459 C 0.66931 0.69408 0.19440
 C1460 C 0.65559 0.69952 0.18228
 C1461 C 0.61891 0.71400 0.21422
 C1462 C 0.60427 0.71906 0.21949
 C1463 C 0.58693 0.72475 0.22533
 C1464 C 0.57197 0.72943 0.23002
 H1465 H 0.62863 0.71021 0.17929
 H1466 H 0.64765 0.70351 0.23429
 H1467 H 0.67671 0.69166 0.22278
 H1468 H 0.65749 0.69818 0.16775
 C1469 C 0.14955 0.71869 0.70394
 C1470 C 0.13602 0.70643 0.70925
 C1471 C 0.13899 0.68772 0.70754
 C1472 C 0.15533 0.68128 0.70037
 C1473 C 0.16892 0.69349 0.69482
 C1474 C 0.16591 0.71226 0.69677
 C1475 C 0.11884 0.71298 0.71587
 C1476 C 0.10426 0.71823 0.72111
 C1477 C 0.08696 0.72409 0.72689
 C1478 C 0.07200 0.72886 0.73151
 H1479 H 0.14738 0.73320 0.70516
 H1480 H 0.12859 0.67812 0.71151
 H1481 H 0.15723 0.66677 0.69880
 H1482 H 0.17622 0.72189 0.69263
 C1483 C 0.61139 0.20629 0.56204
 C1484 C 0.61419 0.20753 0.54326
 C1485 C 0.60055 0.20191 0.53126
 C1486 C 0.58424 0.19493 0.53802
 C1487 C 0.58140 0.19347 0.55687
 C1488 C 0.59511 0.19931 0.56882
 C1489 C 0.63127 0.21406 0.53641
 C1490 C 0.64579 0.21930 0.53099
 C1491 C 0.66301 0.22517 0.52502
 C1492 C 0.67791 0.22996 0.52026
 H1493 H 0.62188 0.21052 0.57145
 H1494 H 0.60259 0.20277 0.51670
 H1495 H 0.57385 0.19056 0.52859
 H1496 H 0.59334 0.19813 0.58338
 C1497 C 0.60967 0.70861 0.06053
 C1498 C 0.61215 0.71035 0.04175
 C1499 C 0.59821 0.70531 0.02984
 C1500 C 0.58193 0.69835 0.03670
 C1501 C 0.57944 0.69633 0.05555
 C1502 C 0.59343 0.70165 0.06740
 C1503 C 0.62929 0.71663 0.03480
 C1504 C 0.64392 0.72157 0.02941
 C1505 C 0.66136 0.72698 0.02364
 C1506 C 0.67650 0.73129 0.01921
 H1507 H 0.62041 0.71238 0.06987
 H1508 H 0.60001 0.70655 0.01527
 H1509 H 0.57131 0.69438 0.02734
 H1510 H 0.59193 0.70002 0.08195
 C1511 C 0.14133 0.04245 0.05974
 C1512 C 0.13889 0.04139 0.04090
 C1513 C 0.15266 0.04734 0.02921
 C1514 C 0.16873 0.05449 0.03636
 C1515 C 0.17119 0.05580 0.05527
 C1516 C 0.15736 0.04961 0.06689
 C1517 C 0.12195 0.03485 0.03370
 C1518 C 0.10747 0.02969 0.02811
 C1519 C 0.09019 0.02402 0.02211
 C1520 C 0.07516 0.01953 0.01748
 H1521 H 0.13072 0.03799 0.06891
 H1522 H 0.15089 0.04663 0.01461
 H1523 H 0.17923 0.05914 0.02717
 H1524 H 0.15883 0.05067 0.08150
 C1525 C 0.13964 0.56264 0.54163
 C1526 C 0.13712 0.54391 0.53949
 C1527 C 0.15093 0.53185 0.54454
 C1528 C 0.16712 0.53849 0.55190
 C1529 C 0.16966 0.55728 0.55432
 C1530 C 0.15579 0.56929 0.54899
 C1531 C 0.12009 0.53712 0.53275
 C1532 C 0.10559 0.53171 0.52744
 C1533 C 0.08837 0.52571 0.52160
 C1534 C 0.07345 0.52087 0.51696
 H1535 H 0.12900 0.57209 0.53786
 H1536 H 0.14911 0.51732 0.54298
 H1537 H 0.17764 0.52900 0.55586
 H1538 H 0.15734 0.58380 0.55091
 C1539 C 0.64006 0.06209 0.54239
 C1540 C 0.63753 0.04335 0.54037
 C1541 C 0.65134 0.03132 0.54548
 C1542 C 0.66755 0.03800 0.55277
 C1543 C 0.67011 0.05680 0.55505
 C1544 C 0.65624 0.06878 0.54968
 C1545 C 0.62049 0.03654 0.53368
 C1546 C 0.60599 0.03112 0.52839
 C1547 C 0.58877 0.02510 0.52257
 C1548 C 0.57385 0.02025 0.51793
 H1549 H 0.62942 0.07153 0.53858
 H1550 H 0.64951 0.01678 0.54401
 H1551 H 0.67808 0.02853 0.55675
 H1552 H 0.65779 0.08330 0.55151
 C1553 C 0.65306 0.52960 0.04382
 C1554 C 0.63946 0.54179 0.03853
 C1555 C 0.64226 0.56051 0.04039
 C1556 C 0.65848 0.56703 0.04773
 C1557 C 0.67213 0.55488 0.05332
 C1558 C 0.66932 0.53610 0.05116
 C1559 C 0.62230 0.53519 0.03194
 C1560 C 0.60766 0.53002 0.02679
 C1561 C 0.59023 0.52440 0.02121
 C1562 C 0.57510 0.51999 0.01683
 H1563 H 0.65101 0.51508 0.04250
 H1564 H 0.63178 0.57006 0.03644
 H1565 H 0.66022 0.58153 0.04945
 H1566 H 0.67967 0.52652 0.05533
 C1567 C 0.04226 0.06016 0.14037
 C1568 C 0.04071 0.04135 0.13797
 C1569 C 0.04601 0.02955 0.15194
 C1570 C 0.05302 0.03654 0.16817
 C1571 C 0.05483 0.05541 0.17059
 C1572 C 0.04927 0.06715 0.15656
 C1573 C 0.03434 0.03429 0.12088
 C1574 C 0.02931 0.02882 0.10628
 C1575 C 0.02381 0.02296 0.08886
 C1576 C 0.01946 0.01846 0.07373
 H1577 H 0.03829 0.06941 0.12961
 H1578 H 0.04492 0.01497 0.15021
 H1579 H 0.05718 0.02726 0.17882
 H1580 H 0.05073 0.08172 0.15800
 C1581 C 0.03110 0.54697 0.64941
 C1582 C 0.04327 0.54156 0.63582
 C1583 C 0.06196 0.54311 0.63876
 C1584 C 0.06849 0.55021 0.65511
 C1585 C 0.05638 0.55586 0.66876
 C1586 C 0.03761 0.55407 0.66579
 C1587 C 0.03664 0.53500 0.61863
 C1588 C 0.03136 0.52979 0.60402
 C1589 C 0.02548 0.52403 0.58669
 C1590 C 0.02072 0.51943 0.57171
 H1591 H 0.01660 0.54587 0.64726
 H1592 H 0.07150 0.53905 0.62830
 H1593 H 0.08299 0.55165 0.65698
 H1594 H 0.02805 0.55829 0.67614
 C1595 C 0.56152 0.04209 0.64026
 C1596 C 0.54287 0.04020 0.63721
 C1597 C 0.53053 0.04519 0.65079
 C1598 C 0.53682 0.05223 0.66730
 C1599 C 0.55552 0.05438 0.67038
 C1600 C 0.56782 0.04913 0.65673
 C1601 C 0.53647 0.03374 0.61989
 C1602 C 0.53135 0.02863 0.60519
 C1603 C 0.52563 0.02300 0.58776
 C1604 C 0.52098 0.01849 0.57271
 H1605 H 0.57118 0.03836 0.62980
 H1606 H 0.51607 0.04382 0.64856
 H1607 H 0.52712 0.05613 0.67764
 H1608 H 0.58227 0.05085 0.65869
 C1609 C 0.53016 0.54564 0.15136
 C1610 C 0.54234 0.54004 0.13786
 C1611 C 0.56103 0.54148 0.14085
 C1612 C 0.56755 0.54870 0.15715
 C1613 C 0.55544 0.55456 0.17070
 C1614 C 0.53667 0.55285 0.16770
 C1615 C 0.53575 0.53352 0.12064
 C1616 C 0.53056 0.52841 0.10596
 C1617 C 0.52490 0.52288 0.08849
 C1618 C 0.52041 0.51857 0.07334
 H1619 H 0.51566 0.54463 0.14917
 H1620 H 0.57057 0.53730 0.13045
 H1621 H 0.58206 0.55008 0.15904
 H1622 H 0.52711 0.55723 0.17798
 C1623 C 0.18792 0.54187 0.60867
 C1624 C 0.20666 0.54021 0.61124
 C1625 C 0.21860 0.54594 0.59759
 C1626 C 0.21181 0.55350 0.58151
 C1627 C 0.19300 0.55544 0.57894
 C1628 C 0.18112 0.54943 0.59264
 C1629 C 0.21355 0.53337 0.62823
 C1630 C 0.21897 0.52803 0.64275
 C1631 C 0.22487 0.52226 0.66006
 C1632 C 0.22951 0.51777 0.67512
 H1633 H 0.17857 0.53758 0.61920
 H1634 H 0.23313 0.54477 0.59946
 H1635 H 0.22119 0.55798 0.57112
 H1636 H 0.16660 0.55098 0.59107
 C1637 C 0.20468 0.03034 0.09704
 C1638 C 0.20968 0.04188 0.11131
 C1639 C 0.20786 0.06071 0.10932
 C1640 C 0.20085 0.06798 0.09324
 C1641 C 0.19556 0.05649 0.07892
 C1642 C 0.19767 0.03760 0.08092
 C1643 C 0.21602 0.03451 0.12829
 C1644 C 0.22101 0.02879 0.14281
 C1645 C 0.22651 0.02268 0.16015
 C1646 C 0.23091 0.01801 0.17522
 H1647 H 0.20599 0.01574 0.09845
 H1648 H 0.21159 0.06977 0.12031
 H1649 H 0.19915 0.08256 0.09212
 H1650 H 0.19373 0.02851 0.07004
 C1651 C 0.68815 0.20841 0.64088
 C1652 C 0.70685 0.21021 0.63818
 C1653 C 0.71892 0.20507 0.65196
 C1654 C 0.71231 0.19797 0.66831
 C1655 C 0.69354 0.19589 0.67103
 C1656 C 0.68152 0.20130 0.65720
 C1657 C 0.71360 0.21669 0.62100
 C1658 C 0.71898 0.22180 0.60639
 C1659 C 0.72498 0.22743 0.58906
 C1660 C 0.72983 0.23194 0.57408
 H1661 H 0.67869 0.21225 0.63027
 H1662 H 0.73343 0.20637 0.65000
 H1663 H 0.72180 0.19394 0.67880
 H1664 H 0.66702 0.19964 0.65888
 C1665 C 0.70325 0.71965 0.15304
 C1666 C 0.70912 0.70794 0.13923
 C1667 C 0.70782 0.68911 0.14161
 C1668 C 0.70049 0.68200 0.15761
 C1669 C 0.69436 0.69365 0.17147
 C1670 C 0.69593 0.71254 0.16908
 C1671 C 0.71582 0.71511 0.12231
 C1672 C 0.72110 0.72070 0.10784
 C1673 C 0.72689 0.72672 0.09057
 C1674 C 0.73146 0.73138 0.07555
 H1675 H 0.70415 0.73424 0.15132
 H1676 H 0.71222 0.67993 0.13097
 H1677 H 0.69923 0.66741 0.15902
 H1678 H 0.69134 0.72175 0.17960
 C1679 C 0.54647 0.72073 0.09836
 C1680 C 0.54120 0.70870 0.11213
 C1681 C 0.54265 0.68994 0.10938
 C1682 C 0.54954 0.68321 0.09301
 C1683 C 0.55506 0.69518 0.07917
 C1684 C 0.55336 0.71401 0.08196
 C1685 C 0.53487 0.71552 0.12934
 C1686 C 0.52980 0.72088 0.14397
 C1687 C 0.52414 0.72676 0.16133
 C1688 C 0.51952 0.73142 0.17634
 H1689 H 0.54544 0.73528 0.10036
 H1690 H 0.53870 0.68051 0.11998
 H1691 H 0.55093 0.66866 0.09129
 H1692 H 0.55749 0.72346 0.07147
 C1693 C 0.04781 0.71820 0.59983
 C1694 C 0.04225 0.70637 0.61367
 C1695 C 0.04385 0.68757 0.61126
 C1696 C 0.05114 0.68061 0.59517
 C1697 C 0.05693 0.69238 0.58127
 C1698 C 0.05510 0.71125 0.58371
 C1699 C 0.03546 0.71344 0.63059
 C1700 C 0.03005 0.71902 0.64501
 C1701 C 0.02403 0.72516 0.66215
 C1702 C 0.01918 0.73003 0.67702
 H1703 H 0.04667 0.73278 0.60157
 H1704 H 0.03968 0.67830 0.62191
 H1705 H 0.05261 0.66605 0.59370
 H1706 H 0.05942 0.72055 0.57316
 C1707 C 0.54180 0.60962 0.18816
 C1708 C 0.53980 0.61242 0.20688
 C1709 C 0.54471 0.59867 0.21909
 C1710 C 0.55177 0.58225 0.21262
 C1711 C 0.55404 0.57943 0.19385
 C1712 C 0.54887 0.59324 0.18168
 C1713 C 0.53332 0.62965 0.21348
 C1714 C 0.52820 0.64430 0.21875
 C1715 C 0.52255 0.66166 0.22461
 C1716 C 0.51802 0.67667 0.22935
 H1717 H 0.53814 0.62021 0.17859
 H1718 H 0.54325 0.60070 0.23361
 H1719 H 0.55561 0.57178 0.22222
 H1720 H 0.55069 0.59148 0.16718
 C1721 C 0.04245 0.61055 0.68726
 C1722 C 0.04046 0.61296 0.70603
 C1723 C 0.04544 0.59900 0.71796
 C1724 C 0.05258 0.58275 0.71116
 C1725 C 0.05485 0.58031 0.69233
 C1726 C 0.04959 0.59433 0.68044
 C1727 C 0.03392 0.63003 0.71298
 C1728 C 0.02874 0.64454 0.71853
 C1729 C 0.02300 0.66177 0.72469
 C1730 C 0.01835 0.67668 0.72964
 H1731 H 0.03872 0.62130 0.67791
 H1732 H 0.04399 0.60074 0.73252
 H1733 H 0.05649 0.57211 0.72055
 H1734 H 0.05140 0.59286 0.66591
 C1735 C 0.06187 0.14039 0.04219
 C1736 C 0.04308 0.13809 0.04079
 C1737 C 0.03140 0.15194 0.04658
 C1738 C 0.03851 0.16796 0.05394
 C1739 C 0.05737 0.17027 0.05561
 C1740 C 0.06899 0.15637 0.04955
 C1741 C 0.03589 0.12119 0.03407
 C1742 C 0.03027 0.10675 0.02878
 C1743 C 0.02422 0.08950 0.02300
 C1744 C 0.01952 0.07450 0.01844
 H1745 H 0.07103 0.12971 0.03785
 H1746 H 0.01683 0.15028 0.04560
 H1747 H 0.02932 0.17852 0.05846
 H1748 H 0.08355 0.15773 0.05089
 C1749 C 0.06287 0.63876 0.54395
 C1750 C 0.04411 0.63641 0.54218
 C1751 C 0.03229 0.65032 0.54751
 C1752 C 0.03921 0.66647 0.55475
 C1753 C 0.05803 0.66886 0.55676
 C1754 C 0.06979 0.65488 0.55119
 C1755 C 0.03706 0.61947 0.53542
 C1756 C 0.03147 0.60506 0.53002
 C1757 C 0.02529 0.58795 0.52399
 C1758 C 0.02036 0.57312 0.51909
 H1759 H 0.07213 0.62805 0.53994
 H1760 H 0.01774 0.64862 0.54624
 H1761 H 0.02991 0.67709 0.55890
 H1762 H 0.08433 0.65631 0.55279
 C1763 C 0.56279 0.13863 0.54396
 C1764 C 0.54405 0.13623 0.54206
 C1765 C 0.53218 0.15028 0.54691
 C1766 C 0.53903 0.16660 0.55381
 C1767 C 0.55783 0.16904 0.55596
 C1768 C 0.56965 0.15492 0.55086
 C1769 C 0.53707 0.11913 0.53564
 C1770 C 0.53153 0.10461 0.53049
 C1771 C 0.52542 0.08738 0.52471
 C1772 C 0.52055 0.07248 0.51996
 H1773 H 0.57209 0.12781 0.54033
 H1774 H 0.51765 0.14856 0.54552
 H1775 H 0.52970 0.17732 0.55759
 H1776 H 0.58416 0.15639 0.55259
 C1777 C 0.56065 0.64192 0.04136
 C1778 C 0.54189 0.63946 0.03987
 C1779 C 0.53007 0.65330 0.04542
 C1780 C 0.53702 0.66946 0.05262
 C1781 C 0.55585 0.67194 0.05437
 C1782 C 0.56760 0.65804 0.04856
 C1783 C 0.53487 0.62243 0.03331
 C1784 C 0.52943 0.60788 0.02813
 C1785 C 0.52359 0.59052 0.02246
 C1786 C 0.51908 0.57543 0.01797
 H1787 H 0.56991 0.63126 0.03721
 H1788 H 0.51552 0.65152 0.04438
 H1789 H 0.52773 0.68001 0.05696
 H1790 H 0.58215 0.65952 0.04998
 C1791 C 0.70372 0.09950 0.53136
 C1792 C 0.70906 0.11308 0.54357
 C1793 C 0.70739 0.11018 0.56230
 C1794 C 0.70023 0.09385 0.56882
 C1795 C 0.69464 0.08021 0.55667
 C1796 C 0.69656 0.08314 0.53787
 C1797 C 0.71567 0.13026 0.53695
 C1798 C 0.72092 0.14485 0.53167
 C1799 C 0.72673 0.16216 0.52581
 C1800 C 0.73139 0.17713 0.52107
 H1801 H 0.70491 0.10162 0.51684
 H1802 H 0.71140 0.12063 0.57186
 H1803 H 0.69870 0.09200 0.58334
 H1804 H 0.69239 0.07280 0.52828
 C1805 C 0.70964 0.60798 0.06093
 C1806 C 0.71152 0.61086 0.04222
 C1807 C 0.70634 0.59725 0.02997
 C1808 C 0.69908 0.58091 0.03642
 C1809 C 0.69690 0.57802 0.05520
 C1810 C 0.70238 0.59168 0.06739
 C1811 C 0.71805 0.62809 0.03567
 C1812 C 0.72315 0.64279 0.03053
 C1813 C 0.72869 0.66027 0.02492
 C1814 C 0.73304 0.67543 0.02050
 H1815 H 0.71351 0.61846 0.07052
 H1816 H 0.70768 0.59936 0.01545
 H1817 H 0.69499 0.57056 0.02680
 H1818 H 0.70064 0.58987 0.08189
 C1819 C 0.20758 0.64089 0.68862
 C1820 C 0.20917 0.63830 0.70741
 C1821 C 0.20341 0.65194 0.71937
 C1822 C 0.19590 0.66803 0.71255
 C1823 C 0.19404 0.67063 0.69370
 C1824 C 0.20007 0.65694 0.68180
 C1825 C 0.21597 0.62131 0.71432
 C1826 C 0.22128 0.60679 0.71974
 C1827 C 0.22701 0.58945 0.72563
 C1828 C 0.23144 0.57438 0.73026
 H1829 H 0.21188 0.63038 0.67925
 H1830 H 0.20453 0.65006 0.73393
 H1831 H 0.19141 0.67842 0.72195
 H1832 H 0.19858 0.65853 0.66724
 C1833 C 0.20845 0.14105 0.18873
 C1834 C 0.21013 0.13851 0.20752
 C1835 C 0.20447 0.15219 0.21947
 C1836 C 0.19697 0.16828 0.21265
 C1837 C 0.19502 0.17083 0.19380
 C1838 C 0.20095 0.15710 0.18191
 C1839 C 0.21693 0.12152 0.21443
 C1840 C 0.22223 0.10699 0.21985
 C1841 C 0.22795 0.08966 0.22574
 C1842 C 0.23237 0.07458 0.23037
 H1843 H 0.21268 0.13051 0.17937
 H1844 H 0.20565 0.15034 0.23403
 H1845 H 0.19255 0.17870 0.22204
 H1846 H 0.19940 0.15865 0.16735
 C1847 C 0.70798 1.14134 0.68943
 C1848 C 0.70971 1.13879 0.70821
 C1849 C 0.70438 1.15260 0.72017
 C1850 C 0.69714 1.16881 0.71337
 C1851 C 0.69512 1.17136 0.69453
 C1852 C 0.70073 1.15751 0.68262
 C1853 C 0.71622 1.12168 0.71511
 C1854 C 0.72131 1.10708 0.72052
 C1855 C 0.72685 1.08969 0.72640
 C1856 C 0.73120 1.07458 0.73101
 H1857 H 0.71195 1.13070 0.68006
 H1858 H 0.70561 1.15075 0.73473
 H1859 H 0.69295 1.17932 0.72277
 H1860 H 0.69911 1.15906 0.66807
 C1861 C 0.68846 0.63957 0.20802
 C1862 C 0.70722 0.63733 0.20998
 C1863 C 0.71897 0.65145 0.20508
 C1864 C 0.71199 0.66767 0.19805
 C1865 C 0.69318 0.66994 0.19581
 C1866 C 0.68148 0.65576 0.20099
 C1867 C 0.71431 0.62024 0.21634
 C1868 C 0.71985 0.60566 0.22134
 C1869 C 0.72581 0.58827 0.22683
 C1870 C 0.73042 0.57317 0.23119
 H1871 H 0.67925 0.62870 0.21168
 H1872 H 0.73352 0.64983 0.20650
 H1873 H 0.72124 0.67844 0.19419
 H1874 H 0.66696 0.65709 0.19919
 C1875 C 0.54367 0.09721 0.71967
 C1876 C 0.53848 0.11110 0.70773
 C1877 C 0.54051 0.10870 0.68897
 C1878 C 0.54793 0.09262 0.68215
 C1879 C 0.55342 0.07869 0.69405
 C1880 C 0.55109 0.08108 0.71287
 C1881 C 0.53183 0.12814 0.71465
 C1882 C 0.52665 0.14270 0.72008
 C1883 C 0.52108 0.16008 0.72598
 C1884 C 0.51676 0.17519 0.73058
 H1885 H 0.54221 0.09894 0.73423
 H1886 H 0.53664 0.11941 0.67961
 H1887 H 0.54979 0.09119 0.66762
 H1888 H 0.55517 0.07051 0.72226
 C1889 C 1.06073 0.10945 0.20715
 C1890 C 1.04197 0.11199 0.20869
 C1891 C 1.03010 0.09805 0.20355
 C1892 C 1.03698 0.08171 0.19671
 C1893 C 1.05580 0.07914 0.19491
 C1894 C 1.06761 0.09314 0.20030
 C1895 C 1.03499 0.12914 0.21499
 C1896 C 1.02950 0.14373 0.22002
 C1897 C 1.02348 0.16105 0.22564
 C1898 C 1.01873 0.17604 0.23023
 H1899 H 1.07003 0.12018 0.21100
 H1900 H 1.01556 0.09989 0.20466
 H1901 H 1.02765 0.07109 0.19268
 H1902 H 1.08214 0.09158 0.19884
 C1903 C 0.20697 0.61059 0.56210
 C1904 C 0.20870 0.61364 0.54340
 C1905 C 0.20337 0.60017 0.53107
 C1906 C 0.19616 0.58377 0.53743
 C1907 C 0.19418 0.58069 0.55619
 C1908 C 0.19976 0.59423 0.56847
 C1909 C 0.21536 0.63085 0.53693
 C1910 C 0.22065 0.64547 0.53176
 C1911 C 0.22647 0.66280 0.52599
 C1912 C 0.23112 0.67779 0.52128
 H1913 H 0.21096 0.62097 0.57176
 H1914 H 0.20461 0.60240 0.51657
 H1915 H 0.19200 0.57351 0.52774
 H1916 H 0.19817 0.59227 0.58297
 C1917 C 0.21965 0.10020 1.04687
 C1918 C 0.20757 0.11403 1.04188
 C1919 C 0.18885 0.11116 1.04331
 C1920 C 0.18222 0.09463 1.04988
 C1921 C 0.19425 0.08073 1.05510
 C1922 C 0.21303 0.08364 1.05343
 C1923 C 0.21429 0.13135 1.03577
 C1924 C 0.21964 0.14604 1.03087
 C1925 C 0.22555 0.16342 1.02533
 C1926 C 0.23031 0.17841 1.02077
 H1927 H 0.23416 0.10228 1.04584
 H1928 H 0.17938 0.12180 1.03956
 H1929 H 0.16771 0.09281 1.05124
 H1930 H 0.22252 0.07310 1.05733
 C1931 C 0.21791 0.70497 0.65168
 C1932 C 0.20596 0.71007 0.63778
 C1933 C 0.18724 0.70800 0.64022
 C1934 C 0.18050 0.70065 0.65638
 C1935 C 0.19240 0.69527 0.67032
 C1936 C 0.21118 0.69763 0.66787
 C1937 C 0.21285 0.71680 0.62075
 C1938 C 0.21835 0.72210 0.60625
 C1939 C 0.22446 0.72792 0.58903
 C1940 C 0.22939 0.73255 0.57410
 H1941 H 0.23243 0.70648 0.64992
 H1942 H 0.17788 0.71181 0.62952
 H1943 H 0.16600 0.69878 0.65786
 H1944 H 0.22058 0.69363 0.67845
 C1945 C 0.18803 0.20795 1.14020
 C1946 C 0.20674 0.20999 1.13767
 C1947 C 0.21875 0.20496 1.15154
 C1948 C 0.21208 0.19772 1.16780
 C1949 C 0.19332 0.19540 1.17036
 C1950 C 0.18135 0.20070 1.15643
 C1951 C 0.21355 0.21661 1.12057
 C1952 C 0.21898 0.22184 1.10602
 C1953 C 0.22501 0.22761 1.08875
 C1954 C 0.22987 0.23222 1.07380
 H1955 H 0.17862 0.21170 1.12952
 H1956 H 0.23326 0.20645 1.14970
 H1957 H 0.22153 0.19377 1.17836
 H1958 H 0.16686 0.19885 1.15799
 C1959 C 0.68931 0.54022 0.10820
 C1960 C 0.70798 0.53839 0.11114
 C1961 C 0.72023 0.54369 0.09759
 C1962 C 0.71382 0.55101 0.08125
 C1963 C 0.69509 0.55313 0.07829
 C1964 C 0.68289 0.54754 0.09189
 C1965 C 0.71448 0.53180 0.12838
 C1966 C 0.71958 0.52666 0.14308
 C1967 C 0.72515 0.52111 0.16059
 C1968 C 0.72957 0.51680 0.17576
 H1969 H 0.67972 0.53626 0.11863
 H1970 H 0.73471 0.54239 0.09975
 H1971 H 0.72344 0.55519 0.07094
 H1972 H 0.66842 0.54923 0.09004
 C1973 C 0.68852 1.04178 0.60946
 C1974 C 0.70727 1.04016 0.61201
 C1975 C 0.71917 1.04580 0.59828
 C1976 C 0.71234 1.05323 0.58217
 C1977 C 0.69353 1.05514 0.57962
 C1978 C 0.68168 1.04921 0.59338
 C1979 C 0.71420 1.03345 0.62903
 C1980 C 0.71962 1.02822 0.64358
 C1981 C 0.72551 1.02256 0.66095
 C1982 C 0.73011 1.01816 0.67604
 H1983 H 0.67919 1.03756 0.62004
 H1984 H 0.73371 1.04466 0.60014
 H1985 H 0.72170 1.05765 0.57172
 H1986 H 0.66715 1.05073 0.59184
 C1987 C 0.54733 0.21926 0.59799
 C1988 C 0.54165 0.20770 0.61200
 C1989 C 0.54318 0.18886 0.60993
 C1990 C 0.55055 0.18158 0.59403
 C1991 C 0.55649 0.19307 0.57996
 C1992 C 0.55470 0.21199 0.58204
 C1993 C 0.53490 0.21506 0.62882
 C1994 C 0.52956 0.22078 0.64321
 C1995 C 0.52370 0.22691 0.66041
 C1996 C 0.51905 0.23162 0.67540
 H1997 H 0.54626 0.23387 0.59947
 H1998 H 0.53892 0.17979 0.62073
 H1999 H 0.55198 0.16698 0.59284
 H2000 H 0.55914 0.22108 0.57136
 C2001 C 1.04434 0.18791 0.11076
 C2002 C 1.04289 0.20666 0.11361
 C2003 C 1.04824 0.21875 0.09992
 C2004 C 1.05517 0.21211 0.08351
 C2005 C 1.05684 0.19329 0.08062
 C2006 C 1.05126 0.18126 0.09438
 C2007 C 1.03641 0.21341 0.13079
 C2008 C 1.03120 0.21877 0.14537
 C2009 C 1.02535 0.22470 0.16264
 C2010 C 1.02055 0.22947 0.17756
 H2011 H 1.04032 0.17843 0.12129
 H2012 H 1.04721 0.23329 0.10199
 H2013 H 1.05933 0.22162 0.07307
 H2014 H 1.05262 0.16672 0.09257
 C2015 C 0.64041 0.18909 0.70871
 C2016 C 0.63761 0.20784 0.71031
 C2017 C 0.65121 0.21995 0.70486
 C2018 C 0.66748 0.21333 0.69765
 C2019 C 0.67031 0.19452 0.69578
 C2020 C 0.65664 0.18247 0.70149
 C2021 C 0.62046 0.21454 0.71686
 C2022 C 0.60584 0.21980 0.72199
 C2023 C 0.58844 0.22553 0.72755
 C2024 C 0.57334 0.23006 0.73191
 H2025 H 0.62993 0.17960 0.71278
 H2026 H 0.64915 0.23448 0.70599
 H2027 H 0.67784 0.22284 0.69338
 H2028 H 0.65840 0.16793 0.69999
 C2029 C 1.15062 0.21900 0.20400
 C2030 C 1.13709 0.20678 0.20939
 C2031 C 1.14005 0.18806 0.20777
 C2032 C 1.15636 0.18157 0.20060
 C2033 C 1.16995 0.19374 0.19496
 C2034 C 1.16696 0.21252 0.19683
 C2035 C 1.11992 0.21337 0.21598
 C2036 C 1.10533 0.21863 0.22120
 C2037 C 1.08802 0.22447 0.22695
 C2038 C 1.07304 0.22920 0.23153
 H2039 H 1.14846 0.23352 0.20516
 H2040 H 1.12964 0.17848 0.21181
 H2041 H 1.15825 0.16706 0.19909
 H2042 H 1.17726 0.22213 0.19262
 C2043 C 0.11159 0.70609 0.56289
 C2044 C 0.11412 0.70770 0.54410
 C2045 C 0.10033 0.70230 0.53218
 C2046 C 0.08413 0.69516 0.53903
 C2047 C 0.08156 0.69331 0.55789
 C2048 C 0.09542 0.69894 0.56975
 C2049 C 0.13111 0.71436 0.53714
 C2050 C 0.14555 0.71969 0.53160
 C2051 C 0.16269 0.72564 0.52550
 C2052 C 0.17753 0.73049 0.52063
 H2053 H 0.12221 0.71014 0.57224
 H2054 H 0.10216 0.70346 0.51761
 H2055 H 0.07361 0.69096 0.52965
 H2056 H 0.09385 0.69747 0.58431
 C2057 C 0.11132 0.20689 1.06168
 C2058 C 0.11360 0.20885 1.04289
 C2059 C 0.09957 0.20386 1.03106
 C2060 C 0.08339 0.19676 1.03800
 C2061 C 0.08108 0.19456 1.05685
 C2062 C 0.09517 0.19979 1.06863
 C2063 C 0.13059 0.21541 1.03582
 C2064 C 0.14505 0.22064 1.03025
 C2065 C 0.16225 0.22645 1.02416
 C2066 C 0.17716 0.23117 1.01936
 H2067 H 0.12212 0.21063 1.07095
 H2068 H 0.10121 0.20528 1.01649
 H2069 H 0.07269 0.19287 1.02870
 H2070 H 0.09380 0.19803 1.08318
 C2071 C 0.59674 0.52998 0.20536
 C2072 C 0.61056 0.54184 0.21081
 C2073 C 0.60818 0.56062 0.20899
 C2074 C 0.59217 0.56754 0.20154
 C2075 C 0.57831 0.55573 0.19580
 C2076 C 0.58069 0.53689 0.19792
 C2077 C 0.62753 0.53481 0.21750
 C2078 C 0.64203 0.52930 0.22271
 C2079 C 0.65933 0.52331 0.22834
 C2080 C 0.67438 0.51861 0.23272
 H2081 H 0.59846 0.51541 0.20665
 H2082 H 0.61884 0.56991 0.21305
 H2083 H 0.59076 0.58209 0.19985
 H2084 H 0.57017 0.52756 0.19363
 C2085 C 0.59731 1.03013 0.70474
 C2086 C 0.61079 1.04222 0.71052
 C2087 C 0.60796 1.06097 0.70904
 C2088 C 0.59182 1.06763 0.70162
 C2089 C 0.57829 1.05560 0.69557
 C2090 C 0.58114 1.03678 0.69732
 C2091 C 0.62787 1.03549 0.71723
 C2092 C 0.64244 1.03021 0.72249
 C2093 C 0.65980 1.02445 0.72819
 C2094 C 0.67487 1.01990 0.73264
 H2095 H 0.59939 1.01559 0.70577
 H2096 H 0.61835 1.07045 0.71336
 H2097 H 0.59005 1.08217 0.70021
 H2098 H 0.57088 1.02728 0.69280
 C2099 C 0.89979 0.46855 0.29572
 C2100 C 0.88604 0.45633 0.29093
 C2101 C 0.88897 0.43762 0.29268
 C2102 C 0.90548 0.43113 0.29939
 C2103 C 0.91930 0.44330 0.30443
 C2104 C 0.91634 0.46208 0.30242
 C2105 C 0.86872 0.46292 0.28474
 C2106 C 0.85403 0.46818 0.27980
 C2107 C 0.83664 0.47403 0.27427
 C2108 C 0.82164 0.47876 0.26975
 H2109 H 0.89766 0.48306 0.29444
 H2110 H 0.87839 0.42804 0.28909
 H2111 H 0.90735 0.41663 0.30101
 H2112 H 0.92681 0.47168 0.30617
 C2113 C 0.88870 0.95662 0.81239
 C2114 C 0.88590 0.95840 0.79365
 C2115 C 0.89965 0.95339 0.78151
 C2116 C 0.91605 0.94643 0.78808
 C2117 C 0.91888 0.94440 0.80688
 C2118 C 0.90508 0.94967 0.81898
 C2119 C 0.86870 0.96481 0.78695
 C2120 C 0.85411 0.96993 0.78158
 C2121 C 0.83683 0.97564 0.77561
 C2122 C 0.82190 0.98030 0.77079
 H2123 H 0.87812 0.96038 0.82191
 H2124 H 0.89762 0.95467 0.76697
 H2125 H 0.92652 0.94251 0.77853
 H2126 H 0.90684 0.94803 0.83350
 C2127 C 0.35978 0.31149 0.79276
 C2128 C 0.36226 0.29270 0.79114
 C2129 C 0.34835 0.28083 0.79632
 C2130 C 0.33208 0.28773 0.80328
 C2131 C 0.32958 0.30658 0.80517
 C2132 C 0.34355 0.31840 0.79973
 C2133 C 0.37934 0.28568 0.78475
 C2134 C 0.39387 0.28013 0.77968
 C2135 C 0.41112 0.27401 0.77403
 C2136 C 0.42605 0.26915 0.76946
 H2137 H 0.37049 0.32079 0.78888
 H2138 H 0.35014 0.26626 0.79515
 H2139 H 0.32148 0.27839 0.80733
 H2140 H 0.34203 0.33295 0.80125
 C2141 C 0.85909 0.30960 0.29161
 C2142 C 0.86147 0.29079 0.29008
 C2143 C 0.84757 0.27902 0.29551
 C2144 C 0.83144 0.28603 0.30266
 C2145 C 0.82905 0.30491 0.30448
 C2146 C 0.84300 0.31663 0.29877
 C2147 C 0.87849 0.28369 0.28364
 C2148 C 0.89304 0.27816 0.27859
 C2149 C 0.91040 0.27223 0.27308
 C2150 C 0.92550 0.26766 0.26873
 H2151 H 0.86980 0.31883 0.28756
 H2152 H 0.84929 0.26443 0.29443
 H2153 H 0.82085 0.27677 0.30692
 H2154 H 0.84158 0.33120 0.30023
 C2155 C 0.39162 0.80993 0.45897
 C2156 C 0.38897 0.79116 0.46054
 C2157 C 0.40272 0.77916 0.45518
 C2158 C 0.41898 0.78592 0.44808
 C2159 C 0.42165 0.80476 0.44624
 C2160 C 0.40785 0.81669 0.45187
 C2161 C 0.37184 0.78432 0.46697
 C2162 C 0.35722 0.77900 0.47202
 C2163 C 0.33980 0.77326 0.47755
 C2164 C 0.32469 0.76880 0.48192
 H2165 H 0.38103 0.81933 0.46298
 H2166 H 0.40079 0.76461 0.45628
 H2167 H 0.42945 0.77649 0.44387
 H2168 H 0.40948 0.83124 0.45039
 C2169 C 0.40190 0.28157 0.95365
 C2170 C 0.38801 0.29325 0.95933
 C2171 C 0.39022 0.31208 0.95774
 C2172 C 0.40612 0.31921 0.95028
 C2173 C 0.42005 0.30759 0.94432
 C2174 C 0.41784 0.28869 0.94620
 C2175 C 0.37117 0.28603 0.96609
 C2176 C 0.35676 0.28039 0.97140
 C2177 C 0.33955 0.27431 0.97718
 C2178 C 0.32456 0.26962 0.98171
 H2179 H 0.40031 0.26697 0.95477
 H2180 H 0.37952 0.32124 0.96199
 H2181 H 0.40741 0.33379 0.94879
 H2182 H 0.42842 0.27950 0.94175
 C2183 C 0.79560 0.46922 0.40126
 C2184 C 0.79041 0.45692 0.38770
 C2185 C 0.79215 0.43822 0.39071
 C2186 C 0.79924 0.43182 0.40713
 C2187 C 0.80467 0.44407 0.42076
 C2188 C 0.80269 0.46283 0.41771
 C2189 C 0.78389 0.46341 0.37043
 C2190 C 0.77870 0.46857 0.35577
 C2191 C 0.77295 0.47429 0.33838
 C2192 C 0.76832 0.47891 0.32336
 H2193 H 0.79435 0.48372 0.39905
 H2194 H 0.78827 0.42859 0.38028
 H2195 H 0.80084 0.41732 0.40907
 H2196 H 0.80674 0.47248 0.42804
 C2197 C 0.79774 0.96806 0.90064
 C2198 C 0.79206 0.95628 0.88683
 C2199 C 0.79371 0.93747 0.88916
 C2200 C 0.80119 0.93046 0.90515
 C2201 C 0.80712 0.94219 0.91902
 C2202 C 0.80522 0.96106 0.91666
 C2203 C 0.78514 0.96340 0.86997
 C2204 C 0.77966 0.96906 0.85560
 C2205 C 0.77360 0.97529 0.83849
 C2206 C 0.76875 0.98024 0.82364
 H2207 H 0.79656 0.98264 0.89895
 H2208 H 0.78944 0.92823 0.87852
 H2209 H 0.80270 0.91589 0.90656
 H2210 H 0.80964 0.97033 0.92719
 C2211 C 0.27973 0.79635 0.34845
 C2212 C 0.29165 0.79073 0.36217
 C2213 C 0.31040 0.79203 0.35948
 C2214 C 0.31722 0.79911 0.34324
 C2215 C 0.30536 0.80498 0.32945
 C2216 C 0.28654 0.80343 0.33217
 C2217 C 0.28476 0.78430 0.37931
 C2218 C 0.27939 0.77924 0.39394
 C2219 C 0.27356 0.77372 0.41136
 C2220 C 0.26900 0.76938 0.42648
 H2221 H 0.26519 0.79546 0.35041
 H2222 H 0.31975 0.78783 0.37005
 H2223 H 0.33176 0.80037 0.34157
 H2224 H 0.27717 0.80782 0.32171
 C2225 C 0.28013 0.29660 0.84815
 C2226 C 0.29190 0.29120 0.86209
 C2227 C 0.31067 0.29272 0.85969
 C2228 C 0.31767 0.29982 0.84353
 C2229 C 0.30595 0.30550 0.82954
 C2230 C 0.28711 0.30370 0.83196
 C2231 C 0.28483 0.28477 0.87915
 C2232 C 0.27933 0.27973 0.89374
 C2233 C 0.27342 0.27422 0.91113
 C2234 C 0.26885 0.26986 0.92625
 H2235 H 0.26557 0.29553 0.84989
 H2236 H 0.31991 0.28868 0.87042
 H2237 H 0.33221 0.30127 0.84209
 H2238 H 0.27785 0.30794 0.82134
 C2239 C 0.46831 0.29813 0.89993
 C2240 C 0.45621 0.29256 0.88636
 C2241 C 0.43749 0.29398 0.88925
 C2242 C 0.43088 0.30109 0.90557
 C2243 C 0.44293 0.30688 0.91922
 C2244 C 0.46171 0.30524 0.91628
 C2245 C 0.46291 0.28593 0.86922
 C2246 C 0.46824 0.28062 0.85467
 C2247 C 0.47417 0.27470 0.83741
 C2248 C 0.47897 0.26990 0.82250
 H2249 H 0.48282 0.29712 0.89782
 H2250 H 0.42801 0.28981 0.87880
 H2251 H 0.41637 0.30242 0.90742
 H2252 H 0.47122 0.30956 0.92663
 C2253 C 0.97105 0.29483 0.40306
 C2254 C 0.95910 0.28943 0.38927
 C2255 C 0.94036 0.29084 0.39196
 C2256 C 0.93356 0.29783 0.40824
 C2257 C 0.94544 0.30352 0.42208
 C2258 C 0.96426 0.30182 0.41938
 C2259 C 0.96597 0.28313 0.37207
 C2260 C 0.97133 0.27819 0.35740
 C2261 C 0.97711 0.27276 0.33994
 C2262 C 0.98162 0.26844 0.32479
 H2263 H 0.98558 0.29384 0.40110
 H2264 H 0.93100 0.28680 0.38134
 H2265 H 0.91903 0.29921 0.40989
 H2266 H 0.97364 0.30608 0.42987
 C2267 C 0.45556 0.38889 0.81181
 C2268 C 0.45702 0.38643 0.79300
 C2269 C 0.45150 0.40028 0.78116
 C2270 C 0.44437 0.41647 0.78812
 C2271 C 0.44267 0.41897 0.80700
 C2272 C 0.44843 0.40505 0.81878
 C2273 C 0.46365 0.36943 0.78593
 C2274 C 0.46893 0.35497 0.78034
 C2275 C 0.47479 0.33778 0.77420
 C2276 C 0.47952 0.32287 0.76932
 H2277 H 0.45970 0.37823 0.82109
 H2278 H 0.45254 0.39850 0.76658
 H2279 H 0.44008 0.42703 0.77882
 H2280 H 0.44707 0.40657 0.83335
 C2281 C 0.95287 0.40132 0.27936
 C2282 C 0.95881 0.38773 0.29130
 C2283 C 0.95770 0.39048 0.31009
 C2284 C 0.95048 0.40664 0.31695
 C2285 C 0.94429 0.42029 0.30508
 C2286 C 0.94566 0.41752 0.28621
 C2287 C 0.96539 0.37065 0.28439
 C2288 C 0.97057 0.35608 0.27901
 C2289 C 0.97625 0.33871 0.27320
 C2290 C 0.98073 0.32362 0.26867
 H2291 H 0.95362 0.39931 0.26479
 H2292 H 0.96215 0.38001 0.31945
 H2293 H 0.94937 0.40835 0.33153
 H2294 H 0.94101 0.42787 0.27683
 C2295 C 0.29593 0.90309 0.47020
 C2296 C 0.29064 0.88903 0.45853
 C2297 C 0.29235 0.89118 0.43970
 C2298 C 0.29954 0.90722 0.43255
 C2299 C 0.30511 0.92134 0.44416
 C2300 C 0.30311 0.91918 0.46305
 C2301 C 0.28413 0.87207 0.46577
 C2302 C 0.27902 0.85756 0.47140
 C2303 C 0.27344 0.84024 0.47745
 C2304 C 0.26902 0.82518 0.48211
 H2305 H 0.29471 0.90155 0.48479
 H2306 H 0.28840 0.88034 0.43056
 H2307 H 0.30114 0.90847 0.41797
 H2308 H 0.30727 0.92990 0.47223
 C2309 C 0.31228 0.39144 0.95801
 C2310 C 0.29351 0.38909 0.95971
 C2311 C 0.28171 0.40287 0.95399
 C2312 C 0.28865 0.41885 0.94639
 C2313 C 0.30748 0.42121 0.94441
 C2314 C 0.31923 0.40738 0.95041
 C2315 C 0.28646 0.37221 0.96663
 C2316 C 0.28092 0.35778 0.97205
 C2317 C 0.27489 0.34055 0.97792
 C2318 C 0.27017 0.32556 0.98251
 H2319 H 0.32153 0.38082 0.96229
 H2320 H 0.26716 0.40118 0.95519
 H2321 H 0.27937 0.42935 0.94192
 H2322 H 0.33377 0.40878 0.94883
 C2323 C 0.79251 0.35893 0.31085
 C2324 C 0.79076 0.36149 0.29207
 C2325 C 0.79582 0.34757 0.28012
 C2326 C 0.80278 0.33124 0.28692
 C2327 C 0.80478 0.32865 0.30576
 C2328 C 0.79947 0.34263 0.31766
 C2329 C 0.78434 0.37863 0.28516
 C2330 C 0.77922 0.39321 0.27971
 C2331 C 0.77351 0.41052 0.27373
 C2332 C 0.76887 0.42550 0.26899
 H2333 H 0.78872 0.36964 0.32022
 H2334 H 0.79456 0.34942 0.26556
 H2335 H 0.80674 0.32064 0.27752
 H2336 H 0.80108 0.34106 0.33221
   
