data_POSCAR
  _audit_creation_date              2014-09-24
  _audit_creation_method            'ToBaCCo'
  _symmetry_space_group_name_H-M    'P1'
  _symmetry_Int_Tables_number       1
  _symmetry_cell_setting            triclinic
  loop_
  _symmetry_equiv_pos_as_xyz
 x,y,z
_cell_length_a 26.0245
_cell_length_b 25.9777
_cell_length_c 25.9105
_cell_angle_alpha 89.239400
_cell_angle_beta 89.276600
_cell_angle_gamma 89.175500
loop_
  _atom_site_label
  _atom_site_type_symbol
  _atom_site_fract_x
  _atom_site_fract_y
  _atom_site_fract_z
C1 C 0.09705 0.00156 0.19906
 C2 C 0.12736 0.04940 0.20247
 C3 C 0.15659 0.05162 0.24429
 C4 C 0.15309 0.00388 0.28144
 C5 C 0.13615 -0.04201 0.20296
 C6 C 0.16402 -0.04344 0.24694
 C7 C 0.06539 -0.00188 0.24960
 C8 C 0.09494 -0.00082 0.29316
 H9 H 0.12452 0.08072 0.17428
 H10 H 0.17781 0.00579 0.31595
 H11 H 0.13556 -0.07376 0.17646
 H12 H 0.02400 -0.00558 0.25064
 C13 C 0.41165 -0.00213 0.70534
 C14 C 0.37652 -0.04701 0.70910
 C15 C 0.34569 -0.04766 0.75067
 C16 C 0.35264 0.00006 0.78683
 C17 C 0.37744 0.04516 0.70778
 C18 C 0.34779 0.04874 0.75064
 C19 C 0.44040 -0.00173 0.75344
 C20 C 0.40763 0.00006 0.79915
 H21 H 0.37876 -0.07877 0.68212
 H22 H 0.32631 0.00078 0.82089
 H23 H 0.38105 0.07636 0.67994
 H24 H 0.48192 -0.00015 0.75461
 C25 C 0.90651 0.49593 0.20032
 C26 C 0.86858 0.45356 0.20341
 C27 C 0.83852 0.45339 0.24537
 C28 C 0.84799 0.49997 0.28220
 C29 C 0.87587 0.54540 0.20429
 C30 C 0.84652 0.54958 0.24737
 C31 C 0.93690 0.49303 0.25131
 C32 C 0.90585 0.49651 0.29478
 H33 H 0.86972 0.42169 0.17647
 H34 H 0.82207 0.50156 0.31652
 H35 H 0.88175 0.57712 0.17739
 H36 H 0.97845 0.49319 0.25266
 C37 C 0.59737 0.50381 0.69936
 C38 C 0.63250 0.54828 0.70154
 C39 C 0.66190 0.54901 0.74335
 C40 C 0.65430 0.50249 0.78141
 C41 C 0.63177 0.45654 0.70424
 C42 C 0.66059 0.45385 0.74768
 C43 C 0.56597 0.50436 0.75034
 C44 C 0.59601 0.50281 0.79372
 H45 H 0.63093 0.57997 0.67365
 H46 H 0.67939 0.50265 0.81576
 H47 H 0.62832 0.42474 0.67804
 H48 H 0.52443 0.50282 0.75183
 C49 C 0.20049 0.09413 1.00104
 C50 C 0.20310 0.12625 1.04799
 C51 C 0.24441 0.15598 1.04992
 C52 C 0.28195 0.15128 1.00252
 C53 C 0.20463 0.13158 0.95614
 C54 C 0.24768 0.16047 0.95454
 C55 C 0.25135 0.06279 0.99924
 C56 C 0.29455 0.09286 0.99962
 H57 H 0.17510 0.12361 1.07945
 H58 H 0.31600 0.17646 1.00394
 H59 H 0.17845 0.12969 0.92420
 H60 H 0.25287 0.02123 0.99655
 C61 C 0.70227 0.40701 0.99585
 C62 C 0.70316 0.36774 0.95751
 C63 C 0.74696 0.33566 0.95697
 C64 C 0.78352 0.34817 0.99939
 C65 C 0.70843 0.38122 1.04494
 C66 C 0.75264 0.34869 1.04882
 C67 C 0.75005 0.43583 0.98895
 C68 C 0.79601 0.40348 0.99245
 H69 H 0.67578 0.36754 0.92598
 H70 H 0.81761 0.32198 1.00097
 H71 H 0.68308 0.38905 1.07756
 H72 H 0.75121 0.47750 0.98800
 C73 C 0.20449 0.91161 0.49735
 C74 C 0.20757 0.87298 0.45528
 C75 C 0.24943 0.84279 0.45519
 C76 C 0.28650 0.85308 0.50126
 C77 C 0.20935 0.88158 0.54732
 C78 C 0.25220 0.85193 0.55121
 C79 C 0.25532 0.94212 0.49352
 C80 C 0.29895 0.91116 0.49686
 H81 H 0.18030 0.87330 0.42372
 H82 H 0.32074 0.82715 0.50284
 H83 H 0.18259 0.88718 0.57916
 H84 H 0.25650 0.98376 0.49328
 C85 C 0.70018 0.59788 0.50271
 C86 C 0.70440 0.63033 0.54930
 C87 C 0.74609 0.65979 0.54995
 C88 C 0.78275 0.65354 0.50201
 C89 C 0.70409 0.63522 0.45732
 C90 C 0.74792 0.66304 0.45466
 C91 C 0.75044 0.56563 0.50001
 C92 C 0.79412 0.59484 0.49911
 H93 H 0.67633 0.62925 0.58076
 H94 H 0.81730 0.67810 0.50249
 H95 H 0.67677 0.63480 0.42630
 H96 H 0.75120 0.52406 0.49750
 C97 C 0.00016 0.19942 0.09583
 C98 C 0.04738 0.20257 0.12735
 C99 C 0.04964 0.24448 0.15645
 C100 C 0.00220 0.28189 0.15187
 C101 C -0.04413 0.20402 0.13428
 C102 C -0.04561 0.24808 0.16215
 C103 C -0.00227 0.24981 0.06380
 C104 C -0.00157 0.29340 0.09333
 H105 H 0.07864 0.17439 0.12489
 H106 H 0.00398 0.31641 0.17657
 H107 H -0.07600 0.17779 0.13351
 H108 H -0.00575 0.25072 0.02220
 C109 C -0.00874 0.70238 0.40610
 C110 C -0.04723 0.70499 0.36792
 C111 C -0.04628 0.74874 0.33618
 C112 C -0.00338 0.78402 0.34775
 C113 C 0.04222 0.70712 0.37785
 C114 C 0.04699 0.74997 0.34816
 C115 C -0.01312 0.75306 0.43689
 C116 C -0.00869 0.79652 0.40600
 H117 H -0.07942 0.67857 0.36796
 H118 H -0.00121 0.81829 0.32177
 H119 H 0.07389 0.68066 0.38504
 H120 H -0.01337 0.75422 0.47864
 C121 C 0.49436 0.20088 0.90752
 C122 C 0.45133 0.20544 0.87037
 C123 C 0.45196 0.24745 0.84026
 C124 C 0.49952 0.28269 0.84896
 C125 C 0.54324 0.20375 0.87579
 C126 C 0.54798 0.24663 0.84640
 C127 C 0.49345 0.25156 0.93830
 C128 C 0.49724 0.29491 0.90718
 H129 H 0.41912 0.17912 0.87147
 H130 H 0.50145 0.31700 0.82303
 H131 H 0.57448 0.17635 0.88122
 H132 H 0.49378 0.25275 0.98004
 C133 C 0.50206 0.70148 0.59751
 C134 C 0.54609 0.70260 0.63339
 C135 C 0.54750 0.74431 0.66283
 C136 C 0.50225 0.78348 0.65445
 C137 C 0.45471 0.70762 0.63137
 C138 C 0.45294 0.75095 0.66029
 C139 C 0.50429 0.75230 0.56584
 C140 C 0.50367 0.79569 0.59588
 H141 H 0.57715 0.67406 0.63222
 H142 H 0.50292 0.81774 0.67958
 H143 H 0.42263 0.68186 0.62833
 H144 H 0.50327 0.75376 0.52409
 C145 C 0.90351 0.99711 0.79918
 C146 C 0.87481 1.04434 0.79336
 C147 C 0.84247 1.04772 0.74927
 C148 C 0.84398 1.00005 0.71899
 C149 C 0.86469 0.95529 0.79980
 C150 C 0.83411 0.95475 0.75873
 C151 C 0.93331 0.99185 0.74759
 C152 C 0.90220 0.99483 0.70486
 H153 H 0.88027 1.07612 0.81908
 H154 H 0.81805 1.00078 0.68527
 H155 H 0.86609 0.92374 0.82787
 H156 H 0.97487 0.99109 0.74501
 C157 C 0.40429 0.49972 0.29973
 C158 C 0.36573 0.54396 0.29577
 C159 C 0.33735 0.54547 0.25212
 C160 C 0.34743 0.49771 0.21788
 C161 C 0.37308 0.45239 0.29704
 C162 C 0.34325 0.45023 0.25568
 C163 C 0.43556 0.50231 0.24899
 C164 C 0.40576 0.50168 0.20565
 H165 H 0.36559 0.57509 0.32291
 H166 H 0.32251 0.49592 0.18350
 H167 H 0.37605 0.42110 0.32526
 H168 H 0.47700 0.50547 0.24766
 C169 C 0.59490 1.00943 0.29859
 C170 C 0.62156 0.95755 0.29290
 C171 C 0.65130 0.95292 0.24984
 C172 C 0.65262 1.00374 0.21649
 C173 C 0.63416 1.04670 0.29654
 C174 C 0.66571 1.04552 0.25270
 C175 C 0.56425 1.01554 0.24788
 C176 C 0.59460 1.01059 0.20410
 H177 H 0.61386 0.92564 0.31905
 H178 H 0.67836 1.00138 0.18208
 H179 H 0.63496 1.07861 0.32346
 H180 H 0.52267 1.01618 0.24689
 C181 C 0.09116 0.50514 0.79562
 C182 C 0.12108 0.45503 0.79107
 C183 C 0.15140 0.45127 0.74851
 C184 C 0.15076 0.50132 0.71452
 C185 C 0.12996 0.54685 0.79372
 C186 C 0.16066 0.54702 0.75212
 C187 C 0.06149 0.50936 0.74468
 C188 C 0.09293 0.50584 0.70173
 H189 H 0.11434 0.42291 0.81716
 H190 H 0.17684 0.49993 0.68030
 H191 H 0.12906 0.57828 0.82114
 H192 H 0.01995 0.50932 0.74287
 C193 C 0.80105 0.90545 -0.00478
 C194 C 0.79504 0.87220 0.04334
 C195 C 0.75238 0.84249 0.04515
 C196 C 0.72025 0.84757 -0.00465
 C197 C 0.80087 0.86898 -0.04856
 C198 C 0.75982 0.83895 -0.04988
 C199 C 0.75029 0.93643 -0.00769
 C200 C 0.70744 0.90611 -0.00626
 H201 H 0.82000 0.87673 0.07590
 H202 H 0.68633 0.82216 -0.00530
 H203 H 0.82919 0.87056 -0.07983
 H204 H 0.74847 0.97805 -0.00613
 C205 C 0.30109 0.40616 0.49889
 C206 C 0.29597 0.36859 0.54388
 C207 C 0.25257 0.34005 0.54475
 C208 C 0.21956 0.34921 0.49603
 C209 C 0.29925 0.37385 0.45193
 C210 C 0.25798 0.34419 0.44937
 C211 C 0.25034 0.43760 0.49965
 C212 C 0.20718 0.40759 0.49872
 H213 H 0.32201 0.36941 0.57584
 H214 H 0.18546 0.32415 0.49396
 H215 H 0.32759 0.37654 0.42079
 H216 H 0.24882 0.47912 0.50274
 C217 C 0.29598 0.58795 0.00528
 C218 C 0.29291 0.62026 -0.04349
 C219 C 0.25068 0.65062 -0.04755
 C220 C 0.21514 0.64814 0.00137
 C221 C 0.29248 0.62473 0.04888
 C222 C 0.25143 0.65600 0.04879
 C223 C 0.24461 0.55831 0.00630
 C224 C 0.20158 0.59013 0.00291
 H225 H 0.32008 0.61520 -0.07493
 H226 H 0.18136 0.67469 -0.00004
 H227 H 0.31910 0.62286 0.08098
 H228 H 0.24276 0.51674 0.00518
 C229 C 0.79817 0.09144 0.50543
 C230 C 0.79407 0.11886 0.45693
 C231 C 0.75019 0.15169 0.45221
 C232 C 0.71789 0.15149 0.50063
 C233 C 0.79632 0.12920 0.54502
 C234 C 0.75348 0.16228 0.54460
 C235 C 0.74990 0.06306 0.50951
 C236 C 0.70448 0.09616 0.50528
 H237 H 0.81937 0.11033 0.42461
 H238 H 0.68416 0.17812 0.49873
 H239 H 0.82259 0.12803 0.57754
 H240 H 0.74823 0.02142 0.50939
 C241 C 0.99598 0.80014 0.90333
 C242 C 1.04358 0.79430 0.86982
 C243 C 1.04527 0.75190 0.83956
 C244 C 0.99563 0.71971 0.84433
 C245 C 0.95232 0.80058 0.86693
 C246 C 0.95082 0.75997 0.83616
 C247 C 0.99311 0.74872 0.93378
 C248 C 0.99414 0.70592 0.90290
 H249 H 1.07595 0.81933 0.87446
 H250 H 0.99484 0.68607 0.81839
 H251 H 0.92134 0.82916 0.86893
 H252 H 0.99440 0.74642 0.97550
 C253 C 0.49960 0.30229 0.40296
 C254 C 0.54313 0.29764 0.36364
 C255 C 0.54396 0.25368 0.33538
 C256 C 0.49629 0.22012 0.34658
 C257 C 0.45185 0.29954 0.37226
 C258 C 0.44913 0.25809 0.34264
 C259 C 0.50248 0.25178 0.43473
 C260 C 0.50131 0.20828 0.40514
 H261 H 0.57522 0.32342 0.36466
 H262 H 0.49384 0.18570 0.32183
 H263 H 0.42083 0.32794 0.37521
 H264 H 0.50677 0.25071 0.47625
 C265 C 1.00057 0.29753 0.58899
 C266 C 0.95334 0.29412 0.62324
 C267 C 0.95063 0.25124 0.65330
 C268 C 0.99946 0.21613 0.64870
 C269 C 1.04560 0.29371 0.62408
 C270 C 1.04670 0.25256 0.65527
 C271 C 1.00082 0.24666 0.55878
 C272 C 0.99895 0.20344 0.59036
 H273 H 0.92125 0.32059 0.61837
 H274 H 0.99927 0.18196 0.67489
 H275 H 1.07735 0.32052 0.62143
 H276 H 0.99856 0.24521 0.51713
 C277 C 0.50098 0.79698 0.09108
 C278 C 0.45328 0.79332 0.12463
 C279 C 0.45026 0.75026 0.15437
 C280 C 0.49965 0.71555 0.15064
 C281 C 0.54549 0.79352 0.12687
 C282 C 0.54661 0.75248 0.15815
 C283 C 0.50211 0.74611 0.06077
 C284 C 0.50017 0.70283 0.09220
 H285 H 0.42140 0.82008 0.12002
 H286 H 0.49928 0.68134 0.17678
 H287 H 0.57713 0.82048 0.12443
 H288 H 0.50052 0.74467 0.01909
 O289 O 0.11155 1.09640 0.98768
 O290 O 0.07004 1.10999 0.90883
 O291 O -0.01680 1.11101 1.09499
 O292 O -0.08458 1.06773 1.12116
 O293 O 0.09777 0.98658 1.11037
 O294 O 0.11306 0.90772 1.06528
 O295 O -0.14635 0.97761 0.97481
 O296 O -0.14824 1.05737 0.99878
 O297 O -0.02343 0.97707 0.85216
 O298 O 0.05926 0.99300 0.84854
 O299 O -0.02357 0.85314 0.97570
 O300 O -0.01002 0.84792 1.05875
 O301 O -0.11045 0.90416 1.00821
 O302 O -0.06165 0.89023 1.09421
 O303 O 0.00898 0.88903 0.90204
 O304 O 0.09399 0.93639 0.88863
 O305 O -0.09746 1.00739 0.88896
 O306 O -0.10241 1.09345 0.92876
 O307 O 0.14684 1.02319 1.02190
 O308 O 0.14832 0.93715 1.00334
 O309 O 0.02647 1.02382 1.14577
 O310 O -0.06315 0.99721 1.14430
 O311 O 0.02620 1.14554 1.02627
 O312 O -0.00802 1.14287 0.93959
 Zr313 Zr 0.03360 1.08236 0.97743
 O314 O -0.01112 1.03850 0.92909
 Zr315 Zr -0.02182 1.03216 1.08250
 O316 O -0.06999 0.98794 1.03822
 Zr317 Zr 0.08277 0.97662 1.03260
 O318 O 0.03922 0.92877 0.98729
 Zr319 Zr -0.08136 1.02302 0.96589
 O320 O -0.03854 1.07095 1.01309
 Zr321 Zr 0.02313 0.96627 0.91704
 O322 O 0.07153 1.01247 0.96039
 Zr323 Zr -0.03298 0.91769 1.02233
 O324 O 0.01373 0.95986 1.07150
 O325 O 0.04940 1.04812 1.04901
 O326 O -0.04896 0.95051 0.94990
 C327 C 0.14999 1.06838 1.00224
 C328 C 0.00185 1.14913 1.06929
 C329 C 0.07086 1.00259 1.14885
 C330 C -0.14899 0.93181 0.99328
 C331 C -0.06974 0.99409 0.84976
 C332 C -0.00558 0.85038 0.92975
 H333 H -0.01543 1.05820 0.89645
 H334 H 0.05894 0.89623 0.98325
 H335 H 0.07097 1.06992 1.07088
 H336 H -0.10255 0.98421 1.05789
 H337 H -0.13723 1.08912 1.01598
 H338 H -0.11319 1.06904 1.09643
 H339 H 0.10144 0.90382 0.90744
 H340 H 0.15199 0.94751 0.96660
 H341 H -0.13605 1.08876 0.91200
 H342 H 0.00951 1.17620 0.94371
 H343 H 0.02791 0.84593 1.05597
 H344 H 0.08783 0.89569 1.09151
 H345 H 0.08424 1.14454 0.91524
 H346 H 0.06724 1.02956 0.85443
 H347 H -0.04449 0.96505 1.15380
 H348 H -0.09473 0.90817 1.10118
 O349 O 0.47738 0.35569 0.47429
 O350 O 0.50188 0.35467 0.55942
 O351 O 0.35419 0.47883 0.48161
 O352 O 0.34781 0.56076 0.48690
 O353 O 0.47587 0.47775 0.35236
 O354 O 0.55743 0.50418 0.35023
 O355 O 0.48964 0.61201 0.59952
 O356 O 0.41186 0.57507 0.61009
 O357 O 0.59856 0.49166 0.60983
 O358 O 0.61081 0.41238 0.57015
 O359 O 0.61058 0.59993 0.49146
 O360 O 0.56920 0.62103 0.41339
 O361 O 0.52285 0.64808 0.52601
 O362 O 0.50209 0.64629 0.43293
 O363 O 0.64704 0.52609 0.52290
 O364 O 0.64886 0.44389 0.49923
 O365 O 0.52615 0.52634 0.64623
 O366 O 0.44062 0.49493 0.64456
 O367 O 0.51437 0.39110 0.40246
 O368 O 0.59425 0.43791 0.38957
 O369 O 0.40398 0.51345 0.38848
 O370 O 0.39239 0.59635 0.43558
 O371 O 0.39027 0.40343 0.50967
 O372 O 0.43255 0.40042 0.59434
 Zr373 Zr 0.46728 0.41961 0.52197
 O374 O 0.51331 0.46305 0.56932
 Zr375 Zr 0.41834 0.52478 0.46629
 O376 O 0.46117 0.57228 0.51280
 Zr377 Zr 0.52316 0.46940 0.41643
 O378 O 0.57046 0.51508 0.46022
 Zr379 Zr 0.47785 0.53473 0.58267
 O380 O 0.42901 0.48953 0.53866
 Zr381 Zr 0.58283 0.47952 0.53217
 O382 O 0.53939 0.43090 0.48621
 Zr383 Zr 0.53315 0.58479 0.47758
 O384 O 0.48775 0.54148 0.42810
 O385 O 0.45181 0.45354 0.45017
 O386 O 0.54978 0.55137 0.54948
 C387 C 0.49861 0.35260 0.42958
 C388 C 0.35150 0.43223 0.49801
 C389 C 0.43105 0.49833 0.34971
 C390 C 0.50419 0.65078 0.57178
 C391 C 0.57139 0.50672 0.64877
 C392 C 0.64953 0.57214 0.50517
 H393 H 0.51842 0.44285 0.60154
 H394 H 0.60277 0.51969 0.44031
 H395 H 0.43012 0.43171 0.42843
 H396 H 0.44078 0.60427 0.51792
 H397 H 0.38178 0.55425 0.60110
 H398 H 0.35173 0.57308 0.52257
 H399 H 0.63642 0.41830 0.47452
 H400 H 0.58839 0.41848 0.35747
 H401 H 0.44047 0.51678 0.67571
 H402 H 0.41197 0.36888 0.59091
 H403 H 0.59213 0.59517 0.39699
 H404 H 0.54547 0.54052 0.34910
 H405 H 0.47831 0.32495 0.55895
 H406 H 0.59362 0.38291 0.55426
 H407 H 0.41493 0.60453 0.40563
 H408 H 0.47017 0.65829 0.45043
 O409 O 0.39075 -0.09772 0.49076
 O410 O 0.43517 -0.10531 0.41156
 O411 O 0.51653 -0.11362 0.60097
 O412 O 0.59285 -0.07474 0.60955
 O413 O 0.40907 0.00896 0.61601
 O414 O 0.39261 0.09183 0.57045
 O415 O 0.65046 0.03008 0.47994
 O416 O 0.65373 -0.05155 0.49470
 O417 O 0.52319 0.02852 0.35348
 O418 O 0.44351 0.01452 0.35216
 O419 O 0.52569 0.15034 0.47281
 O420 O 0.50275 0.14351 0.57000
 O421 O 0.61494 0.10503 0.50842
 O422 O 0.57298 0.12182 0.58518
 O423 O 0.49140 0.11749 0.40036
 O424 O 0.40499 0.06635 0.39914
 O425 O 0.59907 0.00220 0.38858
 O426 O 0.60907 -0.08461 0.42739
 O427 O 0.35693 -0.02331 0.52242
 O428 O 0.35132 0.06041 0.51898
 O429 O 0.48243 -0.02415 0.65034
 O430 O 0.56599 -0.00410 0.64751
 O431 O 0.47836 -0.14532 0.52980
 O432 O 0.51312 -0.13883 0.44197
 Zr433 Zr 0.46984 -0.08045 0.48064
 O434 O 0.51454 -0.03298 0.43237
 Zr435 Zr 0.52662 -0.03427 0.58383
 O436 O 0.57300 0.01501 0.53926
 Zr437 Zr 0.42148 0.02303 0.53750
 O438 O 0.46363 0.07451 0.49073
 Zr439 Zr 0.58544 -0.01664 0.46637
 O440 O 0.54294 -0.06889 0.51299
 Zr441 Zr 0.47915 0.03932 0.42008
 O442 O 0.43203 -0.00971 0.46474
 Zr443 Zr 0.53657 0.08607 0.52278
 O444 O 0.49170 0.03896 0.57307
 O445 O 0.45457 -0.04895 0.55293
 O446 O 0.55193 0.05552 0.45003
 C447 C 0.35219 -0.06872 0.50373
 C448 C 0.49935 -0.15105 0.57421
 C449 C 0.43739 -0.00479 0.65424
 C450 C 0.65437 0.07645 0.49707
 C451 C 0.56989 0.01344 0.35002
 C452 C 0.50689 0.15535 0.42727
 H453 H 0.51931 -0.05191 0.39975
 H454 H 0.44334 0.10677 0.48683
 H455 H 0.43256 -0.07127 0.57497
 H456 H 0.60508 0.01954 0.55853
 H457 H 0.64335 -0.08302 0.51390
 H458 H 0.62328 -0.05766 0.59432
 H459 H 0.40108 0.10239 0.41060
 H460 H 0.35176 0.06566 0.48109
 H461 H 0.64152 -0.07751 0.40825
 H462 H 0.49573 -0.17240 0.44590
 H463 H 0.47370 0.15923 0.55085
 H464 H 0.41776 0.10208 0.59656
 H465 H 0.42120 -0.14033 0.41708
 H466 H 0.43417 -0.02181 0.35872
 H467 H 0.55671 0.03294 0.64905
 H468 H 0.59515 0.09549 0.60203
 O469 O 0.00645 0.38429 1.09930
 O470 O 0.09141 0.42382 1.09333
 O471 O -0.09768 0.50433 1.11071
 O472 O -0.11531 0.58703 1.06406
 O473 O -0.11454 0.39455 0.99013
 O474 O -0.07047 0.38630 0.90862
 O475 O 0.01987 0.64661 0.96928
 O476 O 0.00618 0.65198 1.05235
 O477 O 0.14349 0.52614 0.97386
 O478 O 0.13559 0.42777 0.99232
 O479 O 0.01865 0.52462 0.84931
 O480 O -0.05982 0.51506 0.84452
 O481 O -0.01598 0.61446 0.89721
 O482 O -0.10220 0.55875 0.89596
 O483 O 0.09333 0.49579 0.88478
 O484 O 0.11776 0.42081 0.91984
 O485 O 0.10950 0.59855 1.00957
 O486 O 0.04938 0.60371 1.09426
 O487 O -0.02371 0.35094 1.02505
 O488 O -0.00509 0.35261 0.93474
 O489 O -0.14984 0.47124 1.01268
 O490 O -0.15727 0.55455 1.01524
 O491 O -0.02312 0.47394 1.14543
 O492 O 0.05917 0.49582 1.14135
 Zr493 Zr 0.02013 0.46199 1.07878
 O494 O 0.06736 0.51110 1.03471
 Zr495 Zr -0.08612 0.51806 1.03165
 O496 O -0.04294 0.56972 0.98617
 Zr497 Zr -0.03708 0.41523 0.97613
 O498 O 0.00817 0.46210 0.92768
 Zr499 Zr 0.02986 0.58169 1.01870
 O500 O -0.01625 0.53451 1.06714
 Zr501 Zr 0.07885 0.47866 0.96219
 O502 O 0.03578 0.42641 1.00796
 Zr503 Zr -0.02662 0.53512 0.91536
 O504 O -0.07487 0.48563 0.95878
 O505 O -0.05234 0.44682 1.04802
 O506 O 0.04600 0.55119 0.94605
 C507 C -0.00660 0.34620 1.07126
 C508 C -0.06861 0.49218 1.14906
 C509 C -0.15388 0.42389 0.99871
 C510 C 0.00003 0.65223 0.92418
 C511 C 0.14821 0.57074 0.99439
 C512 C 0.06504 0.50841 0.84624
 H513 H 0.09936 0.51469 1.05439
 H514 H 0.01296 0.44306 0.89513
 H515 H -0.07431 0.42461 1.07021
 H516 H -0.06310 0.60206 0.98227
 H517 H -0.03185 0.65270 1.05201
 H518 H -0.08967 0.59809 1.08937
 H519 H 0.09098 0.39780 0.90692
 H520 H 0.03071 0.34807 0.94663
 H521 H 0.08408 0.58942 1.10130
 H522 H 0.06260 0.47062 1.17031
 H523 H -0.06550 0.47748 0.84648
 H524 H -0.09639 0.41218 0.89730
 H525 H 0.08886 0.40336 1.12580
 H526 H 0.15307 0.44581 1.02041
 H527 H -0.15655 0.56302 0.97787
 H528 H -0.10631 0.59540 0.90529
 O529 O 0.01331 0.35352 0.51585
 O530 O 0.03112 0.34634 0.43955
 O531 O 0.14851 0.47480 0.52091
 O532 O 0.14530 0.56364 0.49876
 O533 O 0.02891 0.47640 0.64517
 O534 O -0.05783 0.49632 0.64620
 O535 O 0.00155 0.61308 0.40265
 O536 O 0.07662 0.57768 0.37674
 O537 O -0.10156 0.48856 0.38658
 O538 O -0.10867 0.40968 0.43138
 O539 O -0.11537 0.59940 0.50932
 O540 O -0.06897 0.60685 0.59327
 O541 O -0.02880 0.64747 0.47743
 O542 O -0.01182 0.64630 0.56269
 O543 O -0.14787 0.52685 0.47499
 O544 O -0.14631 0.44055 0.49990
 O545 O -0.02945 0.52409 0.35213
 O546 O 0.06868 0.50759 0.35685
 O547 O -0.00251 0.38702 0.59478
 O548 O -0.08483 0.42713 0.61157
 O549 O 0.10065 0.51276 0.61064
 O550 O 0.11266 0.59050 0.56346
 O551 O 0.11642 0.40090 0.48951
 O552 O 0.06565 0.40616 0.39885
 Zr553 Zr 0.03814 0.41906 0.47504
 O554 O -0.01232 0.46223 0.42801
 Zr555 Zr 0.08321 0.52250 0.53178
 O556 O 0.03565 0.57029 0.48663
 Zr557 Zr -0.01884 0.46475 0.58124
 O558 O -0.07063 0.50999 0.53822
 Zr559 Zr 0.01912 0.53536 0.41604
 O560 O 0.07254 0.49018 0.45886
 Zr561 Zr -0.08276 0.47799 0.46537
 O562 O -0.03490 0.42943 0.51050
 Zr563 Zr -0.03701 0.58122 0.52235
 O564 O 0.01290 0.53773 0.57007
 O565 O 0.05324 0.45013 0.54737
 O566 O -0.05309 0.55087 0.44937
 C567 C 0.00313 0.34902 0.56392
 C568 C 0.15405 0.42905 0.50328
 C569 C 0.07295 0.49779 0.64923
 C570 C -0.01203 0.65121 0.43126
 C571 C -0.07409 0.50395 0.34781
 C572 C -0.15306 0.57238 0.49373
 H573 H -0.01736 0.44277 0.39597
 H574 H -0.10317 0.51306 0.55813
 H575 H 0.07568 0.42823 0.56948
 H576 H 0.05434 0.60288 0.48162
 H577 H 0.09959 0.59081 0.40354
 H578 H 0.15020 0.55081 0.46320
 H579 H -0.13224 0.41801 0.52754
 H580 H -0.07572 0.40863 0.64410
 H581 H 0.05037 0.48048 0.33825
 H582 H 0.10187 0.41734 0.39748
 H583 H -0.10050 0.58712 0.60071
 H584 H -0.04581 0.53199 0.65018
 H585 H 0.06389 0.32670 0.44466
 H586 H -0.08085 0.38374 0.43639
 H587 H 0.08705 0.60275 0.58923
 H588 H 0.02488 0.65097 0.55370
 O589 O 0.51230 0.85276 0.01758
 O590 O 0.53182 0.84522 -0.05859
 O591 O 0.64955 0.97439 0.01601
 O592 O 0.65241 1.05841 0.01088
 O593 O 0.52702 0.98503 0.14764
 O594 O 0.44429 0.97904 0.15409
 O595 O 0.50199 1.11132 -0.09683
 O596 O 0.58423 1.07752 -0.10889
 O597 O 0.39906 0.99165 -0.11132
 O598 O 0.39241 0.91004 -0.06861
 O599 O 0.38539 1.09794 0.01191
 O600 O 0.44186 1.09759 0.10066
 O601 O 0.47581 1.14634 -0.02058
 O602 O 0.48148 1.15166 0.05761
 O603 O 0.35323 1.02594 -0.02369
 O604 O 0.35637 0.93460 -0.00124
 O605 O 0.47258 1.02361 -0.14624
 O606 O 0.55869 1.00106 -0.14725
 O607 O 0.49998 0.88659 0.09689
 O608 O 0.41413 0.92928 0.11113
 O609 O 0.60333 1.00847 0.11238
 O610 O 0.60835 1.09173 0.06389
 O611 O 0.61640 0.89840 -0.00839
 O612 O 0.56561 0.90570 -0.09948
 Zr613 Zr 0.53874 0.91779 -0.02287
 O614 O 0.48861 0.96145 -0.06957
 Zr615 Zr 0.58442 1.02057 0.03409
 O616 O 0.53721 1.06839 -0.01129
 Zr617 Zr 0.48222 0.96400 0.08313
 O618 O 0.43001 1.00971 0.04036
 Zr619 Zr 0.52071 1.03412 -0.08212
 O620 O 0.57367 0.98869 -0.03917
 Zr621 Zr 0.41821 0.97738 -0.03276
 O622 O 0.46585 0.92860 0.01249
 Zr623 Zr 0.46449 1.08024 0.02408
 O624 O 0.51413 1.03687 0.07221
 O625 O 0.55437 0.94824 0.04993
 O626 O 0.44853 1.04980 -0.04861
 C627 C 0.50378 0.84841 0.06597
 C628 C 0.65454 0.92759 0.00081
 C629 C 0.57364 1.00072 0.15157
 C630 C 0.49058 1.14971 -0.06754
 C631 C 0.42695 1.00578 -0.15043
 C632 C 0.34780 1.07115 -0.00464
 H633 H 0.48312 0.94241 -0.10178
 H634 H 0.39792 1.01388 0.06080
 H635 H 0.57716 0.92657 0.07191
 H636 H 0.55617 1.10082 -0.01639
 H637 H 0.61551 1.05659 -0.10184
 H638 H 0.64654 1.07181 -0.02446
 H639 H 0.34702 0.94960 0.03255
 H640 H 0.40432 0.90385 0.08506
 H641 H 0.55764 1.02568 -0.17692
 H642 H 0.60174 0.91716 -0.10107
 H643 H 0.40418 1.09346 0.10301
 H644 H 0.43315 1.01564 0.15269
 H645 H 0.56454 0.82561 -0.05320
 H646 H 0.42018 0.88392 -0.06413
 H647 H 0.58503 1.09979 0.09323
 H648 H 0.51872 1.15062 0.06507
 O649 O 0.60213 0.51128 -0.11512
 O650 O 0.60154 0.59260 -0.07389
 O651 O 0.61526 0.40503 0.00929
 O652 O 0.57574 0.37622 0.07926
 O653 O 0.49043 0.38608 -0.10123
 O654 O 0.41527 0.43162 -0.11736
 O655 O 0.47283 0.52551 0.14739
 O656 O 0.55414 0.49882 0.14940
 O657 O 0.47378 0.64466 0.02697
 O658 O 0.48457 0.64934 -0.05828
 O659 O 0.35192 0.51655 0.02514
 O660 O 0.35091 0.43673 0.01720
 O661 O 0.40155 0.48842 0.11508
 O662 O 0.40066 0.39981 0.06492
 O663 O 0.38549 0.59182 -0.00424
 O664 O 0.43157 0.60963 -0.08980
 O665 O 0.50855 0.61146 0.10037
 O666 O 0.59244 0.56713 0.10194
 O667 O 0.52977 0.47705 -0.14797
 O668 O 0.43921 0.49837 -0.14587
 O669 O 0.52480 0.35224 -0.02812
 O670 O 0.50709 0.35525 0.06664
 O671 O 0.64918 0.47667 -0.02813
 O672 O 0.64190 0.56044 0.00315
 Zr673 Zr 0.58270 0.52194 -0.03643
 O674 O 0.53652 0.56902 0.01087
 Zr675 Zr 0.53619 0.41613 0.02002
 O676 O 0.49066 0.45982 0.07115
 Zr677 Zr 0.48038 0.46478 -0.08374
 O678 O 0.43048 0.50850 -0.03692
 Zr679 Zr 0.52169 0.53298 0.08241
 O680 O 0.57123 0.48634 0.03670
 Zr681 Zr 0.46375 0.57984 -0.02086
 O682 O 0.51196 0.53779 -0.07206
 Zr683 Zr 0.41958 0.47399 0.03643
 O684 O 0.46370 0.42632 -0.01341
 O685 O 0.55192 0.44956 -0.05180
 O686 O 0.44863 0.54729 0.05184
 C687 C 0.57469 0.49670 -0.15309
 C688 C 0.65350 0.43222 -0.00680
 C689 C 0.50466 0.34767 -0.07283
 C690 C 0.42785 0.50593 0.15263
 C691 C 0.49319 0.64968 0.07218
 C692 C 0.34751 0.56276 0.00855
 H693 H 0.55494 0.60176 0.01461
 H694 H 0.39792 0.51181 -0.05599
 H695 H 0.57425 0.42763 -0.07397
 H696 H 0.48743 0.44067 0.10424
 H697 H 0.58591 0.48061 0.13815
 H698 H 0.58377 0.40219 0.10539
 H699 H 0.40386 0.58626 -0.09964
 H700 H 0.45386 0.53283 -0.15247
 H701 H 0.58825 0.58364 0.13607
 H702 H 0.67346 0.56200 -0.01867
 H703 H 0.35268 0.43102 -0.02046
 H704 H 0.39903 0.40992 -0.09025
 H705 H 0.63626 0.58959 -0.08989
 H706 H 0.52230 0.64753 -0.06329
 H707 H 0.47584 0.34252 0.04989
 H708 H 0.41194 0.39718 0.10120
 O709 O -0.01223 -0.11229 0.39728
 O710 O -0.08919 -0.06833 0.38790
 O711 O 0.09912 0.01241 0.38366
 O712 O 0.10513 0.08994 0.42143
 O713 O 0.11474 -0.09316 0.50698
 O714 O 0.06635 -0.11171 0.58883
 O715 O -0.02832 0.14605 0.52538
 O716 O -0.00797 0.14901 0.44437
 O717 O -0.14985 0.01917 0.52404
 O718 O -0.14995 -0.06141 0.50830
 O719 O -0.03154 0.02079 0.64632
 O720 O 0.06721 -0.00194 0.63816
 O721 O 0.00586 0.11183 0.59877
 O722 O 0.07729 0.07076 0.62180
 O723 O -0.10318 -0.01462 0.61341
 O724 O -0.10351 -0.10012 0.56066
 O725 O -0.11450 0.09470 0.49751
 O726 O -0.07629 0.10420 0.41060
 O727 O 0.01962 -0.14645 0.47163
 O728 O 0.01826 -0.15381 0.55478
 O729 O 0.14788 -0.01918 0.47395
 O730 O 0.14302 0.06438 0.49303
 O731 O 0.02881 -0.02623 0.35120
 O732 O -0.05882 0.01114 0.35711
 Zr733 Zr -0.02130 -0.03373 0.41519
 O734 O -0.07078 0.00997 0.46230
 Zr735 Zr 0.08073 0.02347 0.46252
 O736 O 0.03511 0.06929 0.51132
 Zr737 Zr 0.03533 -0.08235 0.51909
 O738 O -0.01258 -0.04064 0.57022
 Zr739 Zr -0.03736 0.08088 0.47875
 O740 O 0.01040 0.03934 0.42691
 Zr741 Zr -0.08312 -0.02544 0.53473
 O742 O -0.03715 -0.07181 0.48593
 Zr743 Zr 0.01861 0.03255 0.58228
 O744 O 0.06984 -0.01172 0.53567
 O745 O 0.05074 -0.04895 0.44728
 O746 O -0.05374 0.04746 0.55119
 C747 C 0.00017 -0.15085 0.42631
 C748 C 0.07303 -0.00526 0.34604
 C749 C 0.15257 -0.06407 0.49364
 C750 C -0.00891 0.15048 0.57057
 C751 C -0.15331 0.06609 0.50878
 C752 C -0.07648 0.00100 0.65144
 H753 H -0.10323 0.01456 0.44318
 H754 H -0.01628 -0.06102 0.60250
 H755 H 0.07313 -0.07110 0.42538
 H756 H 0.05374 0.10172 0.51602
 H757 H 0.00961 0.13877 0.41187
 H758 H 0.08999 0.12040 0.43870
 H759 H -0.09029 -0.10499 0.59603
 H760 H -0.01930 -0.15345 0.56139
 H761 H -0.09386 0.13768 0.41716
 H762 H -0.05353 -0.00492 0.32292
 H763 H 0.04748 -0.02936 0.65597
 H764 H 0.09324 -0.08757 0.59927
 H765 H -0.08331 -0.08014 0.35199
 H766 H -0.14272 -0.07032 0.47187
 H767 H 0.14442 0.05547 0.53024
 H768 H 0.09852 0.08860 0.59535
 O769 O 0.73048 0.10008 0.27061
 O770 O 0.81739 0.10589 0.24656
 O771 O 0.71341 0.21432 0.39732
 O772 O 0.73383 0.29431 0.40359
 O773 O 0.60171 0.21518 0.27148
 O774 O 0.60536 0.24723 0.18779
 O775 O 0.84163 0.36635 0.27200
 O776 O 0.85360 0.32430 0.34271
 O777 O 0.86554 0.24983 0.15337
 O778 O 0.82788 0.16665 0.14149
 O779 O 0.74044 0.34855 0.13762
 O780 O 0.65764 0.36335 0.18445
 O781 O 0.77096 0.39696 0.22997
 O782 O 0.68055 0.39482 0.24406
 O783 O 0.78716 0.28343 0.10239
 O784 O 0.75942 0.20241 0.09860
 O785 O 0.89663 0.28349 0.22712
 O786 O 0.88952 0.24527 0.31427
 O787 O 0.66174 0.12994 0.22536
 O788 O 0.64552 0.18185 0.15234
 O789 O 0.63248 0.25100 0.34421
 O790 O 0.67487 0.33269 0.35905
 O791 O 0.76240 0.15012 0.36322
 O792 O 0.84544 0.14577 0.31847
 Zr793 Zr 0.77463 0.16614 0.28302
 O794 O 0.82174 0.21525 0.23857
 Zr795 Zr 0.71039 0.26417 0.33234
 O796 O 0.75597 0.31687 0.29078
 Zr797 Zr 0.66938 0.21140 0.22416
 O798 O 0.71355 0.26258 0.17840
 Zr799 Zr 0.82969 0.28612 0.27558
 O800 O 0.78556 0.23524 0.32262
 Zr801 Zr 0.78832 0.23340 0.16733
 O802 O 0.74292 0.17995 0.20939
 Zr803 Zr 0.72534 0.33171 0.21719
 O804 O 0.67635 0.28276 0.26118
 O805 O 0.70012 0.19379 0.29658
 O806 O 0.79982 0.30450 0.20242
 C807 C 0.68937 0.09297 0.24467
 C808 C 0.74031 0.17293 0.40218
 C809 C 0.59548 0.23685 0.31570
 C810 C 0.81371 0.40335 0.25331
 C811 C 0.90268 0.26406 0.18189
 C812 C 0.76218 0.32607 0.09832
 H813 H 0.85518 0.19720 0.23403
 H814 H 0.69600 0.26769 0.14506
 H815 H 0.67866 0.16957 0.31702
 H816 H 0.75757 0.34845 0.31151
 H817 H 0.84352 0.30233 0.37256
 H818 H 0.76216 0.31827 0.39595
 H819 H 0.73329 0.17702 0.10937
 H820 H 0.61285 0.16298 0.15748
 H821 H 0.92072 0.26679 0.31395
 H822 H 0.84162 0.11267 0.33752
 H823 H 0.64748 0.34043 0.15627
 H824 H 0.60016 0.28142 0.20360
 H825 H 0.81558 0.07360 0.26743
 H826 H 0.80787 0.13657 0.15346
 H827 H 0.65290 0.34553 0.33071
 H828 H 0.69222 0.40293 0.27920
 O829 O 0.78454 0.67680 0.62917
 O830 O 0.81530 0.61509 0.66605
 O831 O 0.66311 0.63185 0.77609
 O832 O 0.63205 0.67719 0.83717
 O833 O 0.62915 0.77923 0.66744
 O834 O 0.67320 0.83170 0.62321
 O835 O 0.77751 0.77141 0.89355
 O836 O 0.77342 0.69170 0.90092
 O837 O 0.89363 0.78080 0.76957
 O838 O 0.89077 0.76019 0.67921
 O839 O 0.76792 0.89660 0.77623
 O840 O 0.68472 0.89796 0.76221
 O841 O 0.73362 0.84242 0.86495
 O842 O 0.65213 0.85419 0.81816
 O843 O 0.83883 0.86912 0.73170
 O844 O 0.85838 0.82686 0.65663
 O845 O 0.86642 0.73323 0.83880
 O846 O 0.80850 0.64875 0.84633
 O847 O 0.71334 0.72134 0.60707
 O848 O 0.74366 0.81618 0.60616
 O849 O 0.60621 0.71630 0.72402
 O850 O 0.60680 0.74405 0.81580
 O851 O 0.72486 0.60708 0.71905
 O852 O 0.82866 0.61772 0.74086
 Zr853 Zr 0.77366 0.67041 0.71008
 O854 O 0.82234 0.71501 0.75462
 Zr855 Zr 0.66921 0.71216 0.77306
 O856 O 0.71310 0.75708 0.82077
 Zr857 Zr 0.70997 0.77363 0.66789
 O858 O 0.75463 0.82251 0.71133
 Zr859 Zr 0.78736 0.72564 0.82756
 O860 O 0.74106 0.67680 0.78479
 Zr861 Zr 0.82803 0.78943 0.72298
 O862 O 0.78470 0.74286 0.67490
 Zr863 Zr 0.72361 0.82997 0.78601
 O864 O 0.67520 0.78642 0.74021
 O865 O 0.69892 0.69927 0.69860
 O866 O 0.79854 0.80061 0.79786
 C867 C 0.75053 0.69019 0.59630
 C868 C 0.68711 0.59771 0.74978
 C869 C 0.59589 0.74970 0.68868
 C870 C 0.75382 0.81453 0.90069
 C871 C 0.90149 0.75508 0.81162
 C872 C 0.81057 0.90459 0.75214
 H873 H 0.85635 0.69774 0.75534
 H874 H 0.75538 0.85582 0.69245
 H875 H 0.67712 0.67682 0.67759
 H876 H 0.69455 0.75818 0.85427
 H877 H 0.73628 0.68382 0.90238
 H878 H 0.65853 0.67295 0.86407
 H879 H 0.82958 0.84560 0.63994
 H880 H 0.77277 0.79527 0.59252
 H881 H 0.84489 0.64386 0.83573
 H882 H 0.80927 0.59347 0.76333
 H883 H 0.67122 0.89089 0.72754
 H884 H 0.67073 0.86264 0.64518
 H885 H 0.79147 0.58721 0.65679
 H886 H 0.88151 0.72483 0.66932
 H887 H 0.59452 0.77500 0.79666
 H888 H 0.64380 0.83098 0.84758
 O889 O 0.35034 0.13936 0.74151
 O890 O 0.36246 0.17935 0.66030
 O891 O 0.36571 0.27570 0.83979
 O892 O 0.31741 0.34048 0.86458
 O893 O 0.24675 0.15441 0.86536
 O894 O 0.16592 0.13883 0.82288
 O895 O 0.21769 0.39666 0.71485
 O896 O 0.29477 0.39998 0.74317
 O897 O 0.21920 0.27295 0.60098
 O898 O 0.24392 0.18963 0.60044
 O899 O 0.10102 0.26830 0.72541
 O900 O 0.10718 0.25175 0.82034
 O901 O 0.14853 0.36049 0.75489
 O902 O 0.12937 0.31968 0.83437
 O903 O 0.13413 0.22906 0.65428
 O904 O 0.18960 0.15152 0.64264
 O905 O 0.24859 0.34757 0.63404
 O906 O 0.33521 0.35307 0.67319
 O907 O 0.28250 0.10413 0.78444
 O908 O 0.19843 0.10063 0.76066
 O909 O 0.28200 0.22645 0.89752
 O910 O 0.24808 0.31507 0.89205
 O911 O 0.39784 0.23038 0.77184
 O912 O 0.38879 0.25958 0.68177
 Zr913 Zr 0.33319 0.21818 0.72626
 O914 O 0.28450 0.26076 0.67728
 Zr915 Zr 0.28486 0.27507 0.83086
 O916 O 0.23479 0.32021 0.78530
 Zr917 Zr 0.23310 0.16826 0.78744
 O918 O 0.18080 0.20892 0.74069
 Zr919 Zr 0.26594 0.33165 0.71114
 O920 O 0.31865 0.29116 0.75844
 Zr921 Zr 0.21392 0.22439 0.66783
 O922 O 0.26482 0.17850 0.71294
 Zr923 Zr 0.16580 0.28190 0.77180
 O924 O 0.21360 0.23844 0.82267
 O925 O 0.30328 0.20362 0.79993
 O926 O 0.19494 0.29693 0.69777
 C927 C 0.32578 0.10051 0.76115
 C928 C 0.40321 0.25572 0.81350
 C929 C 0.26173 0.18183 0.90297
 C930 C 0.17348 0.39974 0.73671
 C931 C 0.23661 0.31902 0.59602
 C932 C 0.09616 0.24609 0.68169
 H933 H 0.30274 0.26518 0.64383
 H934 H 0.14959 0.18783 0.73881
 H935 H 0.32717 0.18340 0.82205
 H936 H 0.22905 0.35328 0.80307
 H937 H 0.32852 0.39095 0.75830
 H938 H 0.31078 0.36979 0.84076
 H939 H 0.16145 0.14009 0.66593
 H940 H 0.21122 0.09534 0.72495
 H941 H 0.33048 0.38869 0.65969
 H942 H 0.42386 0.24538 0.68759
 H943 H 0.09556 0.21931 0.80496
 H944 H 0.15275 0.16593 0.84619
 H945 H 0.39775 0.16656 0.66778
 H946 H 0.28026 0.18097 0.60782
 H947 H 0.21659 0.29585 0.90120
 H948 H 0.15611 0.33953 0.85177
 O949 O 0.13775 0.74108 0.35219
 O950 O 0.17863 0.66382 0.36934
 O951 O 0.27689 0.84091 0.36831
 O952 O 0.34070 0.86462 0.31969
 O953 O 0.15518 0.86771 0.24813
 O954 O 0.13754 0.82491 0.16843
 O955 O 0.39546 0.71564 0.22036
 O956 O 0.39833 0.74262 0.29834
 O957 O 0.27021 0.60252 0.22040
 O958 O 0.18692 0.60384 0.24824
 O959 O 0.26744 0.72604 0.10300
 O960 O 0.25137 0.82063 0.10818
 O961 O 0.35950 0.75561 0.15073
 O962 O 0.31825 0.83537 0.13135
 O963 O 0.22653 0.65609 0.13612
 O964 O 0.14990 0.64479 0.19102
 O965 O 0.34527 0.63464 0.24948
 O966 O 0.35184 0.67208 0.33700
 O967 O 0.10354 0.78645 0.28515
 O968 O 0.09991 0.76345 0.20066
 O969 O 0.22752 0.89864 0.28374
 O970 O 0.31571 0.89180 0.25013
 O971 O 0.22959 0.77476 0.40072
 O972 O 0.25922 0.68236 0.39069
 Zr973 Zr 0.21721 0.72804 0.33630
 O974 O 0.25904 0.67863 0.28710
 Zr975 Zr 0.27497 0.83151 0.28730
 O976 O 0.31945 0.78561 0.23708
 Zr977 Zr 0.16765 0.78950 0.23562
 O978 O 0.20774 0.74258 0.18298
 Zr979 Zr 0.33019 0.71148 0.26834
 O980 O 0.29039 0.75914 0.32142
 Zr981 Zr 0.22246 0.66973 0.21622
 O982 O 0.17743 0.71516 0.26749
 Zr983 Zr 0.28096 0.77265 0.16780
 O984 O 0.23806 0.82371 0.21581
 O985 O 0.20315 0.80170 0.30617
 O986 O 0.29523 0.69867 0.19708
 C987 C 0.09923 0.76136 0.32756
 C988 C 0.25623 0.81557 0.40608
 C989 C 0.18342 0.90480 0.26264
 C990 C 0.39872 0.73766 0.17604
 C991 C 0.31641 0.59704 0.23718
 C992 C 0.24447 0.68288 0.09807
 H993 H 0.26326 0.64502 0.30505
 H994 H 0.18668 0.74093 0.15158
 H995 H 0.18298 0.82390 0.33001
 H996 H 0.35256 0.80312 0.23146
 H997 H 0.38916 0.75732 0.33237
 H998 H 0.36951 0.84007 0.31394
 H999 H 0.13809 0.66885 0.16357
 H1000 H 0.09445 0.72779 0.21330
 H1001 H 0.38719 0.65833 0.33152
 H1002 H 0.24928 0.69158 0.42650
 H1003 H 0.21895 0.80540 0.09645
 H1004 H 0.16546 0.84591 0.15338
 H1005 H 0.16731 0.67254 0.40497
 H1006 H 0.17688 0.61295 0.28398
 H1007 H 0.29655 0.90129 0.21855
 H1008 H 0.33913 0.85194 0.15790
 O1009 O 0.22918 0.60150 0.76898
 O1010 O 0.31604 0.60690 0.74616
 O1011 O 0.21876 0.71757 0.89774
 O1012 O 0.23046 0.79821 0.90509
 O1013 O 0.10180 0.71793 0.77277
 O1014 O 0.10300 0.74993 0.69165
 O1015 O 0.34604 0.86499 0.77507
 O1016 O 0.35576 0.82045 0.84637
 O1017 O 0.36428 0.75238 0.65392
 O1018 O 0.32754 0.66852 0.64296
 O1019 O 0.24532 0.85374 0.64223
 O1020 O 0.16555 0.87230 0.68376
 O1021 O 0.27559 0.89875 0.73498
 O1022 O 0.18114 0.89440 0.75163
 O1023 O 0.28387 0.78426 0.60509
 O1024 O 0.25887 0.70439 0.60038
 O1025 O 0.39727 0.78342 0.72801
 O1026 O 0.39152 0.74302 0.81420
 O1027 O 0.15930 0.63438 0.72738
 O1028 O 0.14715 0.68975 0.65131
 O1029 O 0.13387 0.75120 0.84612
 O1030 O 0.17641 0.83560 0.85930
 O1031 O 0.25760 0.64765 0.86147
 O1032 O 0.34306 0.64589 0.82038
 Zr1033 Zr 0.27340 0.66688 0.78319
 O1034 O 0.32176 0.71532 0.73973
 Zr1035 Zr 0.21134 0.76648 0.83326
 O1036 O 0.25888 0.81843 0.79350
 Zr1037 Zr 0.16900 0.71534 0.72532
 O1038 O 0.21407 0.76660 0.68106
 Zr1039 Zr 0.33142 0.78543 0.77766
 O1040 O 0.28572 0.73533 0.82365
 Zr1041 Zr 0.28774 0.73492 0.66937
 O1042 O 0.24140 0.68171 0.71005
 Zr1043 Zr 0.22816 0.83498 0.72053
 O1044 O 0.17731 0.78641 0.76266
 O1045 O 0.19971 0.69654 0.79720
 O1046 O 0.30150 0.80531 0.70508
 C1047 C 0.18670 0.59647 0.74504
 C1048 C 0.24012 0.67310 0.90078
 C1049 C 0.09641 0.73740 0.81798
 C1050 C 0.31907 0.90318 0.75755
 C1051 C 0.40203 0.76570 0.68198
 C1052 C 0.26316 0.82900 0.60260
 H1053 H 0.35492 0.69688 0.73450
 H1054 H 0.19639 0.77297 0.64798
 H1055 H 0.17787 0.67242 0.81737
 H1056 H 0.26141 0.84935 0.81509
 H1057 H 0.34521 0.79748 0.87528
 H1058 H 0.26418 0.81470 0.90019
 H1059 H 0.23423 0.67741 0.61080
 H1060 H 0.11642 0.66771 0.65505
 H1061 H 0.42278 0.76444 0.81416
 H1062 H 0.33872 0.61207 0.83789
 H1063 H 0.14911 0.84643 0.66196
 H1064 H 0.10097 0.78580 0.70404
 H1065 H 0.31428 0.57449 0.76682
 H1066 H 0.30742 0.63829 0.65432
 H1067 H 0.15028 0.84561 0.83353
 H1068 H 0.19652 0.90494 0.78453
 O1069 O 0.26862 0.15515 0.13572
 O1070 O 0.34064 0.13834 0.17914
 O1071 O 0.15664 0.13667 0.27021
 O1072 O 0.13165 0.18173 0.33758
 O1073 O 0.13505 0.26970 0.15512
 O1074 O 0.18002 0.33773 0.13051
 O1075 O 0.27477 0.27467 0.39541
 O1076 O 0.26743 0.19519 0.40451
 O1077 O 0.39498 0.27612 0.27313
 O1078 O 0.39831 0.25727 0.18873
 O1079 O 0.27357 0.39651 0.27269
 O1080 O 0.19288 0.40469 0.26532
 O1081 O 0.23457 0.34620 0.36319
 O1082 O 0.15141 0.35635 0.30716
 O1083 O 0.34527 0.36413 0.23308
 O1084 O 0.35904 0.31461 0.15378
 O1085 O 0.36363 0.23425 0.34426
 O1086 O 0.30401 0.15072 0.35314
 O1087 O 0.22483 0.22459 0.10377
 O1088 O 0.24641 0.31482 0.10391
 O1089 O 0.10414 0.22536 0.22463
 O1090 O 0.10561 0.24841 0.31586
 O1091 O 0.22425 0.10528 0.22330
 O1092 O 0.31231 0.10890 0.25706
 Zr1093 Zr 0.27284 0.16829 0.21523
 O1094 O 0.32089 0.21286 0.25959
 Zr1095 Zr 0.16774 0.21648 0.27274
 O1096 O 0.21182 0.26112 0.32094
 Zr1097 Zr 0.21457 0.27317 0.16714
 O1098 O 0.25930 0.32152 0.21078
 Zr1099 Zr 0.28468 0.22723 0.33097
 O1100 O 0.23777 0.17911 0.28818
 Zr1101 Zr 0.33075 0.28549 0.22523
 O1102 O 0.28737 0.23876 0.17734
 Zr1103 Zr 0.22616 0.33223 0.28413
 O1104 O 0.17740 0.28940 0.23754
 O1105 O 0.20015 0.20093 0.20023
 O1106 O 0.29948 0.30046 0.29891
 C1107 C 0.24961 0.18197 0.09855
 C1108 C 0.18262 0.09988 0.24952
 C1109 C 0.09836 0.25017 0.18205
 C1110 C 0.25273 0.31879 0.40041
 C1111 C 0.40039 0.25315 0.31698
 C1112 C 0.31769 0.40141 0.25059
 H1113 H 0.35355 0.19315 0.26239
 H1114 H 0.26192 0.35412 0.19086
 H1115 H 0.17831 0.17919 0.17856
 H1116 H 0.19216 0.26401 0.35371
 H1117 H 0.22973 0.19047 0.40586
 H1118 H 0.15965 0.17025 0.36071
 H1119 H 0.33663 0.34389 0.14324
 H1120 H 0.27975 0.29814 0.09504
 H1121 H 0.34065 0.14491 0.34393
 H1122 H 0.30507 0.07456 0.24276
 H1123 H 0.18900 0.40565 0.22737
 H1124 H 0.16775 0.36038 0.15859
 H1125 H 0.33442 0.10295 0.16671
 H1126 H 0.39087 0.22161 0.17850
 H1127 H 0.09415 0.28023 0.29771
 H1128 H 0.14470 0.34165 0.34200
 O1129 O 0.74829 0.65516 0.36541
 O1130 O 0.66704 0.64489 0.32596
 O1131 O 0.84995 0.64025 0.23874
 O1132 O 0.86533 0.68557 0.15823
 O1133 O 0.86875 0.77443 0.34063
 O1134 O 0.81570 0.84733 0.35738
 O1135 O 0.71900 0.77538 0.10157
 O1136 O 0.73656 0.69473 0.09677
 O1137 O 0.60177 0.76921 0.22794
 O1138 O 0.60196 0.75729 0.31373
 O1139 O 0.71720 0.89786 0.21616
 O1140 O 0.80228 0.90272 0.23470
 O1141 O 0.75103 0.84878 0.13429
 O1142 O 0.83565 0.86357 0.17892
 O1143 O 0.64864 0.86208 0.25713
 O1144 O 0.63880 0.81389 0.34339
 O1145 O 0.63446 0.72973 0.15672
 O1146 O 0.69844 0.65026 0.14782
 O1147 O 0.78262 0.72820 0.39707
 O1148 O 0.75777 0.81461 0.39604
 O1149 O 0.90014 0.73380 0.26975
 O1150 O 0.89703 0.74790 0.18105
 O1151 O 0.78441 0.60561 0.28557
 O1152 O 0.70222 0.60629 0.24862
 Zr1153 Zr 0.73494 0.66959 0.28735
 O1154 O 0.68230 0.71106 0.24169
 Zr1155 Zr 0.83453 0.71981 0.22564
 O1156 O 0.78597 0.76310 0.17703
 Zr1157 Zr 0.78774 0.77670 0.33029
 O1158 O 0.73660 0.82239 0.28601
 Zr1159 Zr 0.71483 0.72681 0.16849
 O1160 O 0.76632 0.68062 0.21268
 Zr1161 Zr 0.66744 0.78381 0.27298
 O1162 O 0.71623 0.74008 0.32234
 Zr1163 Zr 0.76720 0.83384 0.21159
 O1164 O 0.82090 0.79296 0.25756
 O1165 O 0.80559 0.70496 0.29928
 O1166 O 0.69591 0.79943 0.19868
 C1167 C 0.76244 0.68344 0.40281
 C1168 C 0.82601 0.60157 0.25942
 C1169 C 0.90637 0.75736 0.31240
 C1170 C 0.73744 0.82096 0.09645
 C1171 C 0.59652 0.74657 0.18439
 C1172 C 0.67327 0.90117 0.23844
 H1173 H 0.65112 0.68987 0.24014
 H1174 H 0.73102 0.85525 0.30415
 H1175 H 0.82963 0.68463 0.32113
 H1176 H 0.80410 0.76710 0.14350
 H1177 H 0.77459 0.69463 0.09540
 H1178 H 0.83880 0.66208 0.14558
 H1179 H 0.65854 0.84509 0.35088
 H1180 H 0.72187 0.80309 0.40045
 H1181 H 0.66472 0.64154 0.16342
 H1182 H 0.70289 0.57481 0.27069
 H1183 H 0.79212 0.90891 0.27103
 H1184 H 0.83698 0.86221 0.32916
 H1185 H 0.67335 0.61013 0.34102
 H1186 H 0.60732 0.71986 0.31913
 H1187 H 0.90150 0.78431 0.19061
 H1188 H 0.84698 0.83996 0.15135
 O1189 O 0.63836 0.23731 0.85028
 O1190 O 0.67968 0.15919 0.86481
 O1191 O 0.77460 0.33868 0.87103
 O1192 O 0.83842 0.36441 0.82232
 O1193 O 0.65461 0.36479 0.74594
 O1194 O 0.63785 0.32159 0.66684
 O1195 O 0.89636 0.21620 0.71955
 O1196 O 0.89997 0.24404 0.79649
 O1197 O 0.77749 0.10242 0.71390
 O1198 O 0.69393 0.09985 0.74335
 O1199 O 0.76851 0.22871 0.60046
 O1200 O 0.75145 0.32441 0.61093
 O1201 O 0.86026 0.25685 0.65036
 O1202 O 0.82056 0.33549 0.63155
 O1203 O 0.72916 0.15698 0.63102
 O1204 O 0.65425 0.14136 0.68775
 O1205 O 0.84659 0.13448 0.75473
 O1206 O 0.85277 0.17507 0.83830
 O1207 O 0.60419 0.28298 0.78343
 O1208 O 0.60096 0.25930 0.69947
 O1209 O 0.72451 0.39662 0.78533
 O1210 O 0.81337 0.39241 0.75320
 O1211 O 0.72811 0.27101 0.90082
 O1212 O 0.75945 0.17946 0.88935
 Zr1213 Zr 0.71775 0.22511 0.83472
 O1214 O 0.76086 0.17738 0.78473
 Zr1215 Zr 0.77365 0.33058 0.78887
 O1216 O 0.81919 0.28631 0.73771
 Zr1217 Zr 0.66830 0.28663 0.73419
 O1218 O 0.70956 0.24121 0.68099
 Zr1219 Zr 0.83148 0.21213 0.76813
 O1220 O 0.79039 0.25803 0.82178
 Zr1221 Zr 0.72626 0.16798 0.71259
 O1222 O 0.67973 0.21190 0.76470
 Zr1223 Zr 0.78195 0.27329 0.66740
 O1224 O 0.73811 0.32275 0.71635
 O1225 O 0.70232 0.29884 0.80565
 O1226 O 0.79835 0.19929 0.69570
 C1227 C 0.59996 0.25770 0.82569
 C1228 C 0.75425 0.31198 0.90837
 C1229 C 0.68123 0.40223 0.76238
 C1230 C 0.89942 0.23870 0.67543
 C1231 C 0.82115 0.09679 0.73681
 C1232 C 0.74584 0.18555 0.59329
 H1233 H 0.76533 0.14368 0.80244
 H1234 H 0.68859 0.23995 0.64952
 H1235 H 0.68147 0.32039 0.82952
 H1236 H 0.85210 0.30427 0.73234
 H1237 H 0.89125 0.25927 0.83037
 H1238 H 0.86795 0.34102 0.81551
 H1239 H 0.64104 0.16638 0.66186
 H1240 H 0.59623 0.22351 0.71206
 H1241 H 0.88846 0.16172 0.83427
 H1242 H 0.74768 0.18716 0.92500
 H1243 H 0.72064 0.30823 0.59652
 H1244 H 0.66430 0.34531 0.65329
 H1245 H 0.66734 0.16653 0.90044
 H1246 H 0.68232 0.10819 0.77883
 H1247 H 0.79489 0.40131 0.72105
 H1248 H 0.83827 0.35393 0.65917
   
