data_POSCAR
  _audit_creation_date              2014-09-24
  _audit_creation_method            'ToBaCCo'
  _symmetry_space_group_name_H-M    'P1'
  _symmetry_Int_Tables_number       1
  _symmetry_cell_setting            triclinic
  loop_
  _symmetry_equiv_pos_as_xyz
 x,y,z
_cell_length_a 76.5469
_cell_length_b 79.2354
_cell_length_c 79.8684
_cell_angle_alpha 90.229700
_cell_angle_beta 90.250500
_cell_angle_gamma 89.923700
loop_
  _atom_site_label
  _atom_site_type_symbol
  _atom_site_fract_x
  _atom_site_fract_y
  _atom_site_fract_z
C1 C 0.34415 0.32958 0.33854
 C2 C 0.33801 0.32355 0.35391
 C3 C 0.32272 0.32998 0.36116
 C4 C 0.31406 0.34342 0.35326
 C5 C 0.32022 0.35008 0.33807
 C6 C 0.33527 0.34298 0.33074
 H7 H 0.34519 0.31367 0.36028
 H8 H 0.30233 0.34856 0.35884
 H9 H 0.33968 0.34744 0.31868
 C10 C 0.35436 0.83251 -0.16302
 C11 C 0.34625 0.82390 -0.14971
 C12 C 0.33158 0.83063 -0.14158
 C13 C 0.32472 0.84614 -0.14691
 C14 C 0.33215 0.85508 -0.16033
 C15 C 0.34722 0.84821 -0.16793
 H16 H 0.35057 0.81142 -0.14615
 H17 H 0.31308 0.85077 -0.14084
 H18 H 0.35415 0.85571 -0.17698
 C19 C 0.84873 0.33466 -0.16428
 C20 C 0.83942 0.32772 -0.15090
 C21 C 0.82467 0.33599 -0.14436
 C22 C 0.81890 0.35110 -0.15185
 C23 C 0.82775 0.35817 -0.16567
 C24 C 0.84314 0.35004 -0.17108
 H25 H 0.84337 0.31563 -0.14588
 H26 H 0.80715 0.35690 -0.14712
 H27 H 0.85130 0.35587 -0.18043
 C28 C 0.85146 0.83623 0.33148
 C29 C 0.84372 0.85100 0.32504
 C30 C 0.82915 0.85854 0.33300
 C31 C 0.82310 0.85117 0.34797
 C32 C 0.83036 0.83626 0.35432
 C33 C 0.84464 0.82901 0.34610
 H34 H 0.84843 0.85579 0.31324
 H35 H 0.81293 0.85726 0.35515
 H36 H 0.85033 0.81751 0.35095
 C37 C 0.64077 0.67057 0.33241
 C38 C 0.64846 0.65646 0.32458
 C39 C 0.66200 0.64749 0.33248
 C40 C 0.66754 0.65259 0.34849
 C41 C 0.66064 0.66704 0.35621
 C42 C 0.64705 0.67580 0.34818
 H43 H 0.64436 0.65288 0.31207
 H44 H 0.67748 0.64531 0.35491
 H45 H 0.64153 0.68690 0.35407
 C46 C 0.64374 0.14614 -0.15479
 C47 C 0.64967 0.15318 -0.13967
 C48 C 0.66529 0.14763 -0.13222
 C49 C 0.67463 0.13435 -0.13978
 C50 C 0.66879 0.12672 -0.15482
 C51 C 0.65332 0.13301 -0.16220
 H52 H 0.64211 0.16306 -0.13371
 H53 H 0.68639 0.12994 -0.13368
 H54 H 0.64921 0.12859 -0.17442
 C55 C 0.14782 0.65785 -0.16712
 C56 C 0.15559 0.66576 -0.15324
 C57 C 0.17094 0.65925 -0.14599
 C58 C 0.17858 0.64467 -0.15296
 C59 C 0.17096 0.63629 -0.16683
 C60 C 0.15523 0.64291 -0.17336
 H61 H 0.14981 0.67716 -0.14823
 H62 H 0.19108 0.64059 -0.14811
 H63 H 0.14822 0.63627 -0.18314
 C64 C 0.14378 0.16949 0.33743
 C65 C 0.15236 0.15587 0.32967
 C66 C 0.16708 0.14833 0.33710
 C67 C 0.17320 0.15465 0.35248
 C68 C 0.16539 0.16878 0.36009
 C69 C 0.15050 0.17595 0.35257
 H70 H 0.14789 0.15148 0.31754
 H71 H 0.18416 0.14854 0.35857
 H72 H 0.14425 0.18671 0.35840
 C73 C 0.63958 0.33568 0.66130
 C74 C 0.64624 0.32900 0.64633
 C75 C 0.65969 0.33720 0.63762
 C76 C 0.66639 0.35249 0.64402
 C77 C 0.65973 0.35948 0.65893
 C78 C 0.64654 0.35082 0.66753
 H79 H 0.64100 0.31727 0.64147
 H80 H 0.67647 0.35911 0.63722
 H81 H 0.64193 0.35572 0.67940
 C82 C 0.64537 0.83581 1.16370
 C83 C 0.65459 0.84964 1.17068
 C84 C 0.67044 0.85553 1.16377
 C85 C 0.67723 0.84687 1.14977
 C86 C 0.66839 0.83317 1.14253
 C87 C 0.65241 0.82803 1.14932
 H88 H 0.65023 0.85495 1.18240
 H89 H 0.68927 0.85094 1.14408
 H90 H 0.64525 0.81824 1.14280
 C91 C 0.13832 0.33732 1.15547
 C92 C 0.14643 0.35195 1.16207
 C93 C 0.16048 0.35975 1.15388
 C94 C 0.16630 0.35306 1.13861
 C95 C 0.15886 0.33835 1.13187
 C96 C 0.14501 0.33060 1.14037
 H97 H 0.14180 0.35761 1.17352
 H98 H 0.17667 0.35936 1.13191
 H99 H 0.14025 0.31869 1.13557
 C100 C 0.14613 0.82765 0.66382
 C101 C 0.15407 0.84225 0.67072
 C102 C 0.16831 0.85012 0.66286
 C103 C 0.17459 0.84341 0.64775
 C104 C 0.16746 0.82864 0.64084
 C105 C 0.15340 0.82086 0.64899
 H106 H 0.14905 0.84788 0.68204
 H107 H 0.18501 0.84983 0.64124
 H108 H 0.14880 0.80892 0.64410
 C109 C 0.35833 0.66578 0.66372
 C110 C 0.35051 0.67171 0.64890
 C111 C 0.33607 0.66339 0.64171
 C112 C 0.32958 0.64881 0.64952
 C113 C 0.33715 0.64266 0.66437
 C114 C 0.35156 0.65122 0.67128
 H115 H 0.35552 0.68301 0.64308
 H116 H 0.31842 0.64236 0.64415
 H117 H 0.35738 0.64664 0.68276
 C118 C 0.35755 0.17899 1.16472
 C119 C 0.34979 0.16491 1.17253
 C120 C 0.33409 0.15786 1.16651
 C121 C 0.32597 0.16501 1.15241
 C122 C 0.33357 0.17870 1.14410
 C123 C 0.34947 0.18523 1.15009
 H124 H 0.35545 0.15965 1.18377
 H125 H 0.31344 0.16025 1.14823
 H126 H 0.35575 0.19500 1.14287
 C127 C 0.86070 0.67133 1.17610
 C128 C 0.85369 0.65595 1.18191
 C129 C 0.83852 0.64888 1.17491
 C130 C 0.83078 0.65676 1.16107
 C131 C 0.83771 0.67173 1.15450
 C132 C 0.85258 0.67895 1.16209
 H133 H 0.86024 0.64900 1.19173
 H134 H 0.81913 0.65137 1.15552
 H135 H 0.85697 0.69107 1.15761
 C136 C 0.86002 0.15808 0.66263
 C137 C 0.85308 0.14303 0.66917
 C138 C 0.83806 0.13519 0.66227
 C139 C 0.82945 0.14339 0.64884
 C140 C 0.83600 0.15849 0.64216
 C141 C 0.85154 0.16522 0.64869
 H142 H 0.85845 0.13818 0.68070
 H143 H 0.81782 0.13803 0.64327
 H144 H 0.85718 0.17597 0.64243
 C145 C 0.33846 0.34713 0.67077
 C146 C 0.32981 0.33915 0.65738
 C147 C 0.33635 0.32414 0.65031
 C148 C 0.35144 0.31676 0.65730
 C149 C 0.36003 0.32431 0.67100
 C150 C 0.35376 0.33978 0.67720
 H151 H 0.31760 0.34431 0.65283
 H152 H 0.35633 0.30498 0.65227
 H153 H 0.36079 0.34609 0.68720
 C154 C 0.32494 0.86140 0.15976
 C155 C 0.31849 0.85276 0.14564
 C156 C 0.32554 0.83715 0.14067
 C157 C 0.33972 0.83048 0.14972
 C158 C 0.34687 0.83920 0.16351
 C159 C 0.33928 0.85459 0.16850
 H160 H 0.30794 0.85826 0.13841
 H161 H 0.34486 0.81820 0.14636
 H162 H 0.34444 0.86118 0.17932
 C163 C 0.82552 0.35715 0.16478
 C164 C 0.83996 0.35115 0.17391
 C165 C 0.84892 0.33650 0.16892
 C166 C 0.84330 0.32785 0.15447
 C167 C 0.82886 0.33359 0.14512
 C168 C 0.82009 0.34827 0.15042
 H169 H 0.84417 0.35784 0.18505
 H170 H 0.85009 0.31653 0.15055
 H171 H 0.80888 0.35274 0.14342
 C172 C 0.84224 0.85582 0.65697
 C173 C 0.85623 0.84715 0.66452
 C174 C 0.86220 0.83166 0.65801
 C175 C 0.85412 0.82504 0.64357
 C176 C 0.84006 0.83344 0.63590
 C177 C 0.83431 0.84884 0.64265
 H178 H 0.86229 0.85232 0.67567
 H179 H 0.85856 0.81313 0.63846
 H180 H 0.82336 0.85526 0.63687
 C181 C 0.67276 0.65018 0.66518
 C182 C 0.65816 0.65772 0.67281
 C183 C 0.64990 0.67178 0.66555
 C184 C 0.65633 0.67808 0.65036
 C185 C 0.67125 0.67112 0.64281
 C186 C 0.67930 0.65710 0.65030
 H187 H 0.65361 0.65293 0.68470
 H188 H 0.64961 0.68845 0.64432
 H189 H 0.69079 0.65158 0.64461
 C190 C 0.66639 0.15155 0.17204
 C191 C 0.67424 0.15718 0.15719
 C192 C 0.66819 0.17179 0.14901
 C193 C 0.65394 0.18065 0.15585
 C194 C 0.64582 0.17517 0.17060
 C195 C 0.65217 0.16062 0.17856
 H196 H 0.68522 0.15027 0.15210
 H197 H 0.64925 0.19197 0.14976
 H198 H 0.64612 0.15639 0.19001
 C199 C 0.16769 0.64448 0.16701
 C200 C 0.15527 0.65442 0.17545
 C201 C 0.14817 0.66894 0.16792
 C202 C 0.15385 0.67354 0.15184
 C203 C 0.16633 0.66386 0.14325
 C204 C 0.17281 0.64914 0.15080
 H205 H 0.15160 0.65122 0.18812
 H206 H 0.14870 0.68485 0.14608
 H207 H 0.18193 0.64124 0.14401
 C208 C 0.16414 0.14107 0.67066
 C209 C 0.15019 0.14918 0.67880
 C210 C 0.14315 0.16432 0.67251
 C211 C 0.15050 0.17143 0.65805
 C212 C 0.16417 0.16334 0.64953
 C213 C 0.17057 0.14798 0.65574
 H214 H 0.14498 0.14385 0.69018
 H215 H 0.14595 0.18361 0.65375
 H216 H 0.18072 0.14139 0.64894
 C217 C 0.32876 0.64275 0.32738
 C218 C 0.34334 0.65027 0.31990
 C219 C 0.35083 0.66504 0.32649
 C220 C 0.34435 0.67160 0.34162
 C221 C 0.33006 0.66397 0.34972
 C222 C 0.32221 0.64970 0.34229
 H223 H 0.34888 0.64461 0.30877
 H224 H 0.35029 0.68278 0.34697
 H225 H 0.31060 0.64433 0.34782
 C226 C 0.32957 0.14289 0.82913
 C227 C 0.32129 0.15075 0.84284
 C228 C 0.32893 0.16480 0.85077
 C229 C 0.34513 0.17067 0.84510
 C230 C 0.35327 0.16351 0.83109
 C231 C 0.34554 0.14944 0.82334
 H232 H 0.30861 0.14636 0.84691
 H233 H 0.35141 0.18106 0.85159
 H234 H 0.35183 0.14373 0.81260
 C235 C 0.83144 0.64169 0.83467
 C236 C 0.82505 0.64680 0.85036
 C237 C 0.83123 0.66154 0.85822
 C238 C 0.84441 0.67093 0.85038
 C239 C 0.85126 0.66592 0.83484
 C240 C 0.84455 0.65137 0.82700
 H241 H 0.81538 0.63915 0.85661
 H242 H 0.84931 0.68226 0.85635
 H243 H 0.84921 0.64782 0.81471
 C244 C 0.83451 0.14359 0.33532
 C245 C 0.84886 0.15142 0.32773
 C246 C 0.85518 0.16701 0.33349
 C247 C 0.84716 0.17464 0.34739
 C248 C 0.83267 0.16713 0.35523
 C249 C 0.82647 0.15155 0.34907
 H250 H 0.85496 0.14547 0.31701
 H251 H 0.85205 0.18662 0.35193
 H252 H 0.81523 0.14571 0.35480
 C253 C 0.67385 0.36173 0.33991
 C254 C 0.65981 0.35373 0.33178
 C255 C 0.65286 0.33854 0.33784
 C256 C 0.66029 0.33122 0.35222
 C257 C 0.67433 0.33902 0.36061
 C258 C 0.68076 0.35443 0.35451
 H259 H 0.65437 0.35921 0.32052
 H260 H 0.65554 0.31912 0.35651
 H261 H 0.69119 0.36079 0.36121
 C262 C 0.67695 0.84690 0.83278
 C263 C 0.68593 0.84131 0.84712
 C264 C 0.68008 0.82725 0.85619
 C265 C 0.66498 0.81875 0.85070
 C266 C 0.65575 0.82410 0.83643
 C267 C 0.66183 0.83823 0.82760
 H268 H 0.69762 0.84783 0.85118
 H269 H 0.66044 0.80783 0.85751
 H270 H 0.65484 0.84240 0.81656
 C271 C 0.16552 0.36058 0.83422
 C272 C 0.17068 0.35510 0.85023
 C273 C 0.16255 0.34123 0.85784
 C274 C 0.14864 0.33325 0.84952
 C275 C 0.14313 0.33858 0.83361
 C276 C 0.15170 0.35221 0.82601
 H277 H 0.18106 0.36163 0.85683
 H278 H 0.14230 0.32257 0.85530
 H279 H 0.14803 0.35586 0.81343
 C280 C 0.18057 0.86592 0.33563
 C281 C 0.16661 0.85774 0.32756
 C282 C 0.15991 0.84243 0.33365
 C283 C 0.16750 0.83522 0.34802
 C284 C 0.18147 0.84324 0.35634
 C285 C 0.18757 0.85876 0.35024
 H286 H 0.16107 0.86316 0.31631
 H287 H 0.16298 0.82305 0.35233
 H288 H 0.19790 0.86531 0.35690
 O289 O 0.24858 1.02623 0.21926
 O290 O 0.22660 0.99324 0.24379
 O291 O 0.22530 1.02588 0.24306
 O292 O 0.24993 0.99319 0.22024
 O293 O 0.27134 0.99512 0.23873
 O294 O 0.24619 1.02692 0.26217
 O295 O 0.24804 0.99407 0.26234
 O296 O 0.26917 1.02801 0.23861
 Cu297 Cu 0.23554 1.00951 0.22962
 Cu298 Cu 0.26081 1.01113 0.25234
 C299 C 0.26245 1.03299 0.22493
 C300 C 0.23362 0.98795 0.25722
 C301 C 0.23152 1.03192 0.25659
 C302 C 0.26481 0.98851 0.22562
 O303 O 0.22526 0.48077 0.73918
 O304 O 0.25055 0.51216 0.71561
 O305 O 0.24979 0.47941 0.71658
 O306 O 0.22648 0.51364 0.73839
 O307 O 0.24621 0.51323 0.75860
 O308 O 0.27000 0.47967 0.73636
 O309 O 0.27027 0.51276 0.73585
 O310 O 0.24564 0.48041 0.75880
 Cu311 Cu 0.23599 0.49646 0.72545
 Cu312 Cu 0.26008 0.49651 0.74936
 C313 C 0.23117 0.47512 0.75295
 C314 C 0.26459 0.51803 0.72183
 C315 C 0.26390 0.47367 0.72278
 C316 C 0.23235 0.51930 0.75222
 O317 O 0.74953 -0.01421 0.26937
 O318 O 0.72473 0.01853 0.24633
 O319 O 0.72484 -0.01436 0.24676
 O320 O 0.74674 0.01869 0.27080
 O321 O 0.76753 0.02028 0.25181
 O322 O 0.74598 -0.01436 0.22807
 O323 O 0.74524 0.01856 0.22699
 O324 O 0.77056 -0.01252 0.25066
 Cu325 Cu 0.73441 0.00199 0.26021
 Cu326 Cu 0.75941 0.00308 0.23751
 C327 C 0.76439 -0.01890 0.26390
 C328 C 0.73087 0.02409 0.23264
 C329 C 0.73152 -0.02013 0.23342
 C330 C 0.76056 0.02547 0.26535
 O331 O 0.74177 0.48390 0.77126
 O332 O 0.71978 0.51545 0.74512
 O333 O 0.72245 0.48270 0.74417
 O334 O 0.74080 0.51683 0.77067
 O335 O 0.76419 0.51734 0.75464
 O336 O 0.74551 0.48424 0.72779
 O337 O 0.74312 0.51732 0.72913
 O338 O 0.76473 0.48451 0.75468
 Cu339 Cu 0.72889 0.49955 0.75943
 Cu340 Cu 0.75667 0.50094 0.73989
 C341 C 0.75692 0.47869 0.76744
 C342 C 0.72773 0.52205 0.73290
 C343 C 0.73093 0.47764 0.73143
 C344 C 0.75570 0.52292 0.76711
 O345 O 0.23786 0.48067 0.23170
 O346 O 0.26140 0.51274 0.25630
 O347 O 0.26221 0.47988 0.25463
 O348 O 0.23767 0.51355 0.23342
 O349 O 0.21758 0.51285 0.25313
 O350 O 0.24147 0.47800 0.27362
 O351 O 0.24161 0.51102 0.27623
 O352 O 0.21709 0.48013 0.25076
 Cu353 Cu 0.25183 0.49674 0.24207
 Cu354 Cu 0.22743 0.49532 0.26543
 C355 C 0.22333 0.47506 0.23691
 C356 C 0.25546 0.51750 0.27037
 C357 C 0.25599 0.47305 0.26765
 C358 C 0.22363 0.51920 0.23976
 O359 O 0.75309 1.01096 0.76872
 O360 O 0.77909 0.97869 0.74734
 O361 O 0.77529 1.01138 0.74417
 O362 O 0.75579 0.97837 0.77075
 O363 O 0.73540 0.97424 0.75155
 O364 O 0.75346 1.00861 0.72624
 O365 O 0.75859 0.97601 0.72798
 O366 O 0.73142 1.00692 0.75086
 Cu367 Cu 0.76797 0.99523 0.75955
 Cu368 Cu 0.74262 0.99112 0.73727
 C369 C 0.73776 1.01435 0.76366
 C370 C 0.77332 0.97176 0.73409
 C371 C 0.76747 1.01586 0.73081
 C372 C 0.74237 0.97048 0.76550
 O373 O 0.74488 0.51999 0.22220
 O374 O 0.72129 0.48754 0.24641
 O375 O 0.72006 0.52029 0.24455
 O376 O 0.74535 0.48694 0.22346
 O377 O 0.76587 0.48895 0.24286
 O378 O 0.74002 0.52149 0.26453
 O379 O 0.74191 0.48863 0.26578
 O380 O 0.76450 0.52167 0.24246
 Cu381 Cu 0.73089 0.50354 0.23213
 Cu382 Cu 0.75506 0.50530 0.25590
 C383 C 0.75863 0.52655 0.22842
 C384 C 0.72775 0.48245 0.26019
 C385 C 0.72573 0.52661 0.25815
 C386 C 0.75992 0.48225 0.22953
 O387 O 0.21965 0.01029 0.75447
 O388 O 0.24639 -0.02267 0.77499
 O389 O 0.24438 0.01021 0.77700
 O390 O 0.22091 -0.02254 0.75307
 O391 O 0.24065 -0.02108 0.73307
 O392 O 0.26368 0.01231 0.75667
 O393 O 0.26584 -0.02058 0.75481
 O394 O 0.23923 0.01181 0.73434
 Cu395 Cu 0.23089 -0.00639 0.76693
 Cu396 Cu 0.25430 -0.00423 0.74272
 C397 C 0.22506 0.01678 0.74091
 C398 C 0.26067 -0.02731 0.76829
 C399 C 0.25787 0.01707 0.77082
 C400 C 0.22680 -0.02749 0.73904
 O401 O 0.22699 0.25543 1.01098
 O402 O 0.24677 0.22765 0.97923
 O403 O 0.24717 0.22897 1.01199
 O404 O 0.22753 0.25497 0.97839
 O405 O 0.25110 0.27098 0.97834
 O406 O 0.27046 0.24536 1.01155
 O407 O 0.27005 0.24405 0.97877
 O408 O 0.25049 0.27153 1.01089
 Cu409 Cu 0.23477 0.24009 0.99514
 Cu410 Cu 0.26291 0.25953 0.99485
 C411 C 0.23539 0.26812 1.01648
 C412 C 0.26169 0.23128 0.97338
 C413 C 0.26211 0.23306 1.01772
 C414 C 0.23607 0.26742 0.97263
 O415 O 0.25747 0.77440 0.48271
 O416 O 0.28337 0.74919 0.51265
 O417 O 0.28122 0.75152 0.48004
 O418 O 0.26022 0.77303 0.51538
 O419 O 0.23904 0.75417 0.51527
 O420 O 0.26095 0.73175 0.48042
 O421 O 0.26225 0.73029 0.51332
 O422 O 0.23690 0.75492 0.48274
 Cu423 Cu 0.27264 0.76396 0.49772
 Cu424 Cu 0.24776 0.74079 0.49796
 C425 C 0.24289 0.76882 0.47740
 C426 C 0.27703 0.73557 0.51836
 C427 C 0.27461 0.73812 0.47400
 C428 C 0.24608 0.76736 0.52140
 O429 O 0.28240 0.73745 -0.01632
 O430 O 0.25981 0.71342 0.01638
 O431 O 0.25977 0.71284 -0.01643
 O432 O 0.28198 0.73821 0.01621
 O433 O 0.25991 0.75615 0.01600
 O434 O 0.23840 0.73155 -0.01721
 O435 O 0.23775 0.73134 0.01550
 O436 O 0.26075 0.75587 -0.01671
 Cu437 Cu 0.27314 0.72360 -0.00000
 Cu438 Cu 0.24702 0.74555 -0.00063
 C439 C 0.27543 0.75076 -0.02213
 C440 C 0.24501 0.71832 0.02165
 C441 C 0.24544 0.71809 -0.02262
 C442 C 0.27460 0.75145 0.02180
 O443 O 0.23757 0.27856 0.52456
 O444 O 0.21318 0.25620 0.49115
 O445 O 0.21324 0.25546 0.52379
 O446 O 0.23690 0.27982 0.49193
 O447 O 0.25732 0.26015 0.49119
 O448 O 0.23377 0.23589 0.52304
 O449 O 0.23389 0.23680 0.49043
 O450 O 0.25780 0.25869 0.52384
 Cu451 Cu 0.22316 0.26949 0.50795
 Cu452 Cu 0.24774 0.24593 0.50706
 C453 C 0.25179 0.27228 0.53000
 C454 C 0.21956 0.24273 0.48497
 C455 C 0.21954 0.24156 0.52894
 C456 C 0.25106 0.27404 0.48598
 O457 O 0.76064 0.77102 0.98620
 O458 O 0.78523 0.75117 1.02069
 O459 O 0.78481 0.74805 0.98820
 O460 O 0.76076 0.77406 1.01878
 O461 O 0.74095 0.75399 1.02100
 O462 O 0.76419 0.72867 0.98954
 O463 O 0.76510 0.73133 1.02231
 O464 O 0.74002 0.75175 0.98863
 Cu465 Cu 0.77490 0.76306 1.00329
 Cu466 Cu 0.75060 0.73940 1.00551
 C467 C 0.74608 0.76482 0.98158
 C468 C 0.77926 0.73791 1.02748
 C469 C 0.77843 0.73403 0.98343
 C470 C 0.74684 0.76836 1.02527
 O471 O 0.74637 0.26451 0.48598
 O472 O 0.76918 0.23847 0.51749
 O473 O 0.76805 0.23953 0.48465
 O474 O 0.74901 0.26472 0.51859
 O475 O 0.72632 0.24761 0.51949
 O476 O 0.74573 0.22193 0.48537
 O477 O 0.74673 0.22103 0.51800
 O478 O 0.72386 0.24718 0.48693
 Cu479 Cu 0.76042 0.25349 0.50162
 Cu480 Cu 0.73342 0.23270 0.50256
 C481 C 0.73120 0.26020 0.48101
 C482 C 0.76178 0.22533 0.52317
 C483 C 0.76016 0.22660 0.47905
 C484 C 0.73445 0.26057 0.52487
 O485 O 0.72194 0.25027 -0.01599
 O486 O 0.74599 0.27501 0.01554
 O487 O 0.74623 0.27282 -0.01706
 O488 O 0.72171 0.25188 0.01666
 O489 O 0.74195 0.23207 0.01804
 O490 O 0.76656 0.25312 -0.01539
 O491 O 0.76593 0.25493 0.01726
 O492 O 0.74194 0.23024 -0.01464
 Cu493 Cu 0.73195 0.26448 -0.00030
 Cu494 Cu 0.75611 0.24058 0.00139
 C495 C 0.72788 0.23611 -0.02084
 C496 C 0.75997 0.26917 0.02190
 C497 C 0.76057 0.26650 -0.02202
 C498 C 0.72772 0.23845 0.02320
 O499 O 0.78325 0.74175 0.47945
 O500 O 0.76018 0.71798 0.51229
 O501 O 0.75989 0.71801 0.47951
 O502 O 0.78383 0.74171 0.51187
 O503 O 0.76306 0.76106 0.51198
 O504 O 0.73863 0.73683 0.48024
 O505 O 0.73970 0.73761 0.51283
 O506 O 0.76195 0.76055 0.47940
 Cu507 Cu 0.77385 0.72787 0.49578
 Cu508 Cu 0.74872 0.75092 0.49612
 C509 C 0.77641 0.75518 0.47374
 C510 C 0.74612 0.72394 0.51835
 C511 C 0.74524 0.72340 0.47425
 C512 C 0.77758 0.75548 0.51740
 O513 O 1.01534 0.28302 0.25347
 O514 O 0.98225 0.25975 0.27730
 O515 O 1.01622 0.26134 0.27751
 O516 O 0.98116 0.28112 0.25252
 O517 O 0.98330 0.26063 0.23383
 O518 O 1.01695 0.24009 0.25959
 O519 O 0.98288 0.23928 0.25849
 O520 O 1.01708 0.26196 0.23538
 Cu521 Cu 0.99853 0.27343 0.26702
 Cu522 Cu 1.00017 0.24837 0.24502
 C523 C 1.02208 0.27637 0.24052
 C524 C 0.97681 0.24560 0.27192
 C525 C 1.02257 0.24730 0.27277
 C526 C 0.97637 0.27430 0.23881
 O527 O 0.52338 0.25575 0.74504
 O528 O 0.48980 0.23278 0.76875
 O529 O 0.52378 0.23516 0.77028
 O530 O 0.48948 0.25445 0.74478
 O531 O 0.49122 0.23367 0.72638
 O532 O 0.52516 0.21353 0.75285
 O533 O 0.49133 0.21171 0.75066
 O534 O 0.52544 0.23421 0.72756
 Cu535 Cu 0.50649 0.24664 0.75901
 Cu536 Cu 0.50847 0.22117 0.73753
 C537 C 0.53025 0.24879 0.73229
 C538 C 0.48469 0.21839 0.76362
 C539 C 0.53032 0.22106 0.76607
 C540 C 0.48436 0.24745 0.73133
 O541 O 0.01292 0.26338 0.76444
 O542 O -0.02012 0.23890 0.74102
 O543 O 0.01389 0.23950 0.74231
 O544 O -0.02124 0.26213 0.76422
 O545 O -0.02162 0.28134 0.74430
 O546 O 0.01358 0.25868 0.72235
 O547 O -0.02032 0.25842 0.72139
 O548 O 0.01247 0.28281 0.74472
 Cu549 Cu -0.00363 0.24906 0.75502
 Cu550 Cu -0.00392 0.27229 0.73124
 C551 C 0.01843 0.27723 0.75847
 C552 C -0.02593 0.24458 0.72721
 C553 C 0.01975 0.24519 0.72861
 C554 C -0.02762 0.27547 0.75789
 O555 O 0.51852 0.25392 0.23995
 O556 O 0.48405 0.27823 0.26101
 O557 O 0.51823 0.27670 0.26316
 O558 O 0.48453 0.25400 0.23877
 O559 O 0.48361 0.23438 0.25827
 O560 O 0.51618 0.25761 0.28309
 O561 O 0.48201 0.25846 0.28027
 O562 O 0.51728 0.23452 0.25967
 Cu563 Cu 0.50143 0.26772 0.24880
 Cu564 Cu 0.49966 0.24439 0.27238
 C565 C 0.52382 0.24010 0.24617
 C566 C 0.47689 0.27238 0.27405
 C567 C 0.52309 0.27088 0.27725
 C568 C 0.47848 0.24015 0.24429
 O569 O 0.98235 0.74702 0.77489
 O570 O 1.01919 0.77039 0.75622
 O571 O 0.98530 0.77160 0.75339
 O572 O 1.01633 0.74656 0.77839
 O573 O 1.01872 0.72837 0.75754
 O574 O 0.98566 0.75206 0.73362
 O575 O 1.01964 0.75213 0.73530
 O576 O 0.98485 0.72757 0.75519
 Cu577 Cu 1.00061 0.76078 0.76778
 Cu578 Cu 1.00234 0.73815 0.74338
 C579 C 0.97748 0.73315 0.76830
 C580 C 1.02560 0.76528 0.74243
 C581 C 0.98001 0.76602 0.73934
 C582 C 1.02311 0.73336 0.77210
 O583 O 0.51358 0.77241 0.23844
 O584 O 0.47979 0.75200 0.26407
 O585 O 0.51368 0.75006 0.26217
 O586 O 0.47934 0.77360 0.23944
 O587 O 0.47858 0.75343 0.22032
 O588 O 0.51077 0.72897 0.24426
 O589 O 0.47696 0.73203 0.24491
 O590 O 0.51254 0.75116 0.22056
 Cu591 Cu 0.49675 0.76413 0.25286
 Cu592 Cu 0.49449 0.73936 0.23064
 C593 C 0.51916 0.76508 0.22534
 C594 C 0.47249 0.73860 0.25880
 C595 C 0.51797 0.73538 0.25713
 C596 C 0.47322 0.76754 0.22587
 O597 O -0.00799 0.78303 0.25545
 O598 O 0.02605 0.75670 0.23561
 O599 O -0.00782 0.75921 0.23284
 O600 O 0.02618 0.78041 0.25804
 O601 O 0.02286 0.76157 0.27803
 O602 O -0.01075 0.74010 0.25264
 O603 O 0.02292 0.73764 0.25543
 O604 O -0.01124 0.76365 0.27495
 Cu605 Cu 0.00942 0.77181 0.24355
 Cu606 Cu 0.00570 0.74890 0.26731
 C607 C -0.01574 0.77758 0.26838
 C608 C 0.03027 0.74266 0.24213
 C609 C -0.01514 0.74602 0.23847
 C610 C 0.03050 0.77450 0.27223
 O611 O 0.51885 0.74306 0.73765
 O612 O 0.48419 0.76483 0.76143
 O613 O 0.51812 0.76654 0.76055
 O614 O 0.48470 0.74233 0.73778
 O615 O 0.48570 0.72248 0.75706
 O616 O 0.52009 0.74637 0.77945
 O617 O 0.48588 0.74522 0.78089
 O618 O 0.51951 0.72290 0.75663
 Cu619 Cu 0.50136 0.75617 0.74743
 Cu620 Cu 0.50288 0.73230 0.77049
 C621 C 0.52503 0.72919 0.74306
 C622 C 0.47911 0.75871 0.77527
 C623 C 0.52498 0.76056 0.77375
 C624 C 0.47940 0.72834 0.74352
 C625 C 0.37590 0.29553 0.32505
 C626 C 0.38950 0.30477 0.31744
 C627 C 0.38719 0.32244 0.31565
 C628 C 0.37236 0.33053 0.32232
 C629 C 0.35943 0.32122 0.33055
 C630 C 0.36121 0.30364 0.33143
 C631 C 0.39975 0.33194 0.30731
 C632 C 0.41447 0.32429 0.30050
 C633 C 0.41751 0.30678 0.30221
 C634 C 0.40514 0.29701 0.31139
 C635 C 0.40901 0.27990 0.31462
 C636 C 0.42409 0.27237 0.30857
 C637 C 0.43578 0.28144 0.29879
 C638 C 0.43264 0.29873 0.29528
 C639 C 0.44464 0.30708 0.28471
 C640 C 0.45904 0.29859 0.27802
 C641 C 0.46214 0.28159 0.28178
 C642 C 0.45052 0.27316 0.29232
 H643 H 0.37602 0.28198 0.32600
 H644 H 0.37107 0.34412 0.32140
 H645 H 0.35109 0.29601 0.33707
 H646 H 0.39811 0.34545 0.30591
 H647 H 0.42352 0.33257 0.29434
 H648 H 0.40084 0.27200 0.32224
 H649 H 0.42651 0.25921 0.31143
 H650 H 0.44303 0.32004 0.28097
 H651 H 0.46776 0.30536 0.26980
 H652 H 0.45264 0.25993 0.29510
 C653 C 0.38701 0.82280 0.80335
 C654 C 0.39836 0.81117 0.81122
 C655 C 0.39461 0.80664 0.82796
 C656 C 0.38033 0.81383 0.83644
 C657 C 0.36909 0.82550 0.82854
 C658 C 0.37277 0.82975 0.81180
 C659 C 0.40510 0.79491 0.83623
 C660 C 0.41902 0.78719 0.82815
 C661 C 0.42325 0.79111 0.81142
 C662 C 0.41309 0.80370 0.80299
 C663 C 0.41810 0.80851 0.78670
 C664 C 0.43214 0.80097 0.77868
 C665 C 0.44169 0.78818 0.78641
 C666 C 0.43738 0.78296 0.80285
 C667 C 0.44726 0.76960 0.80989
 C668 C 0.46079 0.76190 0.80098
 C669 C 0.46505 0.76724 0.78481
 C670 C 0.45547 0.78048 0.77766
 H671 H 0.38841 0.82651 0.79048
 H672 H 0.37848 0.81060 0.84946
 H673 H 0.36421 0.83791 0.80467
 H674 H 0.40241 0.79148 0.84909
 H675 H 0.42640 0.77833 0.83553
 H676 H 0.41157 0.81833 0.77979
 H677 H 0.43546 0.80510 0.76617
 H678 H 0.44471 0.76452 0.82212
 H679 H 0.46791 0.75165 0.80681
 H680 H 0.45852 0.78464 0.76509
 C681 C -0.10922 0.30933 0.83132
 C682 C -0.10604 0.31009 0.81386
 C683 C -0.11824 0.31903 0.80385
 C684 C -0.13310 0.32637 0.81101
 C685 C -0.13594 0.32579 0.82833
 C686 C -0.12388 0.31712 0.83838
 C687 C -0.11555 0.32076 0.78671
 C688 C -0.10068 0.31426 0.77922
 C689 C -0.08802 0.30535 0.78858
 C690 C -0.09112 0.30256 0.80602
 C691 C -0.07940 0.29210 0.81491
 C692 C -0.06505 0.28478 0.80710
 C693 C -0.06144 0.28802 0.79032
 C694 C -0.07260 0.29873 0.78093
 C695 C -0.06773 0.30252 0.76428
 C696 C -0.05294 0.29527 0.75707
 C697 C -0.04251 0.28398 0.76612
 C698 C -0.04674 0.28054 0.78282
 H699 H -0.10037 0.30328 0.83993
 H700 H -0.14248 0.33270 0.80299
 H701 H -0.12555 0.31666 0.85183
 H702 H -0.12495 0.32743 0.77898
 H703 H -0.09976 0.31602 0.76589
 H704 H -0.08125 0.28888 0.82787
 H705 H -0.05657 0.27660 0.81436
 H706 H -0.07490 0.31124 0.75654
 H707 H -0.04986 0.29831 0.74421
 H708 H -0.03855 0.27206 0.79004
 C709 C -0.11866 0.80182 0.31515
 C710 C -0.10419 0.81094 0.30901
 C711 C -0.10542 0.82880 0.30877
 C712 C -0.11999 0.83705 0.31578
 C713 C -0.13374 0.82775 0.32276
 C714 C -0.13310 0.81010 0.32184
 C715 C -0.09201 0.83829 0.30172
 C716 C -0.07742 0.83047 0.29480
 C717 C -0.07535 0.81276 0.29520
 C718 C -0.08868 0.80292 0.30301
 C719 C -0.08582 0.78545 0.30510
 C720 C -0.07074 0.77772 0.29934
 C721 C -0.05806 0.78693 0.29092
 C722 C -0.06023 0.80453 0.28843
 C723 C -0.04726 0.81302 0.27905
 C724 C -0.03279 0.80435 0.27262
 C725 C -0.03060 0.78707 0.27557
 C726 C -0.04327 0.77850 0.28483
 H727 H -0.11938 0.78824 0.31471
 H728 H -0.12040 0.85072 0.31619
 H729 H -0.14388 0.80255 0.32637
 H730 H -0.09284 0.85195 0.30146
 H731 H -0.06764 0.83874 0.28971
 H732 H -0.09479 0.77742 0.31169
 H733 H -0.06908 0.76429 0.30138
 H734 H -0.04815 0.82624 0.27607
 H735 H -0.02328 0.81121 0.26532
 H736 H -0.04188 0.76504 0.28688
 C737 C 0.61247 0.70688 0.31739
 C738 C 0.59886 0.69857 0.30860
 C739 C 0.59980 0.68074 0.30722
 C740 C 0.61340 0.67173 0.31499
 C741 C 0.62655 0.68016 0.32396
 C742 C 0.62602 0.69781 0.32488
 C743 C 0.58715 0.67194 0.29813
 C744 C 0.57370 0.68044 0.29005
 C745 C 0.57212 0.69818 0.29102
 C746 C 0.58454 0.70732 0.30096
 C747 C 0.58205 0.72485 0.30318
 C748 C 0.56825 0.73328 0.29556
 C749 C 0.55656 0.72471 0.28518
 C750 C 0.55839 0.70707 0.28258
 C751 C 0.54655 0.69915 0.27137
 C752 C 0.53347 0.70835 0.26329
 C753 C 0.53157 0.72570 0.26615
 C754 C 0.54312 0.73377 0.27722
 H755 H 0.61326 0.72041 0.31845
 H756 H 0.61362 0.65806 0.31420
 H757 H 0.63628 0.70474 0.33126
 H758 H 0.58774 0.65830 0.29712
 H759 H 0.56446 0.67262 0.28342
 H760 H 0.59036 0.73245 0.31107
 H761 H 0.56686 0.74674 0.29769
 H762 H 0.54727 0.68594 0.26822
 H763 H 0.52479 0.70180 0.25472
 H764 H 0.54191 0.74725 0.27934
 C765 C 0.60295 0.14922 0.81822
 C766 C 0.60034 0.16687 0.81702
 C767 C 0.61150 0.17747 0.82658
 C768 C 0.62532 0.17065 0.83599
 C769 C 0.62819 0.15318 0.83643
 C770 C 0.61664 0.14256 0.82774
 C771 C 0.60906 0.19489 0.82651
 C772 C 0.59571 0.20213 0.81719
 C773 C 0.58442 0.19220 0.80718
 C774 C 0.58710 0.17433 0.80670
 C775 C 0.57685 0.16459 0.79554
 C776 C 0.56428 0.17199 0.78534
 C777 C 0.56107 0.18929 0.78611
 C778 C 0.57081 0.19962 0.79729
 C779 C 0.56641 0.21695 0.79820
 C780 C 0.55328 0.22372 0.78811
 C781 C 0.54412 0.21357 0.77669
 C782 C 0.54809 0.19633 0.77576
 H783 H 0.59457 0.14017 0.81208
 H784 H 0.63418 0.17904 0.84258
 H785 H 0.61822 0.12899 0.82825
 H786 H 0.61758 0.20307 0.83376
 H787 H 0.59496 0.21569 0.81770
 H788 H 0.57858 0.15119 0.79400
 H789 H 0.55691 0.16402 0.77681
 H790 H 0.57258 0.22561 0.80679
 H791 H 0.55037 0.23706 0.78920
 H792 H 0.54085 0.18831 0.76716
 C793 C 1.11725 0.67203 0.79821
 C794 C 1.10370 0.68034 0.80698
 C795 C 1.10517 0.68149 0.82465
 C796 C 1.11927 0.67388 0.83311
 C797 C 1.13248 0.66550 0.82420
 C798 C 1.13134 0.66487 0.80669
 C799 C 1.09266 0.69038 0.83378
 C800 C 1.07897 0.69861 0.82574
 C801 C 1.07695 0.69787 0.80817
 C802 C 1.08903 0.68788 0.79875
 C803 C 1.08593 0.68555 0.78146
 C804 C 1.07202 0.69337 0.77344
 C805 C 1.06084 0.70407 0.78220
 C806 C 1.06316 0.70662 0.79967
 C807 C 1.05181 0.71816 0.80776
 C808 C 1.03878 0.72669 0.79885
 C809 C 1.03647 0.72389 0.78166
 C810 C 1.04747 0.71242 0.77347
 H811 H 1.11769 0.67134 0.78475
 H812 H 1.11993 0.67451 0.84666
 H813 H 1.14163 0.65908 0.79937
 H814 H 1.09362 0.69123 0.84731
 H815 H 1.06991 0.70519 0.83374
 H816 H 1.09382 0.67739 0.77376
 H817 H 1.07018 0.69121 0.76014
 H818 H 1.05295 0.72127 0.82086
 H819 H 1.03052 0.73557 0.80546
 H820 H 1.04594 0.71032 0.76012
 C821 C 1.10114 0.17390 0.31341
 C822 C 1.09820 0.19155 0.31357
 C823 C 1.11028 0.20177 0.32249
 C824 C 1.12511 0.19460 0.33007
 C825 C 1.12803 0.17712 0.32947
 C826 C 1.11575 0.16689 0.32125
 C827 C 1.10757 0.21912 0.32377
 C828 C 1.09300 0.22663 0.31654
 C829 C 1.08071 0.21709 0.30729
 C830 C 1.08368 0.19935 0.30530
 C831 C 1.07234 0.19010 0.29473
 C832 C 1.05849 0.19782 0.28651
 C833 C 1.05506 0.21495 0.28878
 C834 C 1.06582 0.22478 0.29953
 C835 C 1.06114 0.24190 0.30206
 C836 C 1.04690 0.24903 0.29368
 C837 C 1.03690 0.23942 0.28246
 C838 C 1.04096 0.22233 0.28022
 H839 H 1.09222 0.16510 0.30765
 H840 H 1.13451 0.20273 0.33627
 H841 H 1.11731 0.15330 0.32102
 H842 H 1.11678 0.22701 0.33054
 H843 H 1.09204 0.24011 0.31801
 H844 H 1.07414 0.17688 0.29207
 H845 H 1.05032 0.19025 0.27829
 H846 H 1.06806 0.25010 0.31057
 H847 H 1.04392 0.26224 0.29577
 H848 H 1.03308 0.21470 0.27178
 C849 C 0.59907 0.32794 0.68740
 C850 C 0.59860 0.31012 0.68858
 C851 C 0.61165 0.30084 0.67999
 C852 C 0.62501 0.30918 0.67134
 C853 C 0.62545 0.32685 0.67052
 C854 C 0.61223 0.33608 0.67850
 C855 C 0.61134 0.28326 0.68004
 C856 C 0.59814 0.27458 0.68815
 C857 C 0.58487 0.28320 0.69697
 C858 C 0.58552 0.30123 0.69777
 C859 C 0.57335 0.30975 0.70803
 C860 C 0.56073 0.30101 0.71690
 C861 C 0.55938 0.28352 0.71559
 C862 C 0.57119 0.27436 0.70535
 C863 C 0.56862 0.25673 0.70376
 C864 C 0.55527 0.24859 0.71238
 C865 C 0.54409 0.25764 0.72295
 C866 C 0.54621 0.27513 0.72448
 H867 H 0.58924 0.33597 0.69286
 H868 H 0.63520 0.30184 0.66536
 H869 H 0.61187 0.34972 0.67768
 H870 H 0.62135 0.27609 0.67358
 H871 H 0.59900 0.26102 0.68767
 H872 H 0.57355 0.32322 0.70988
 H873 H 0.55179 0.30808 0.72476
 H874 H 0.57646 0.24888 0.69570
 H875 H 0.55380 0.23507 0.71086
 H876 H 0.53742 0.28228 0.73241
 C877 C 0.60403 0.83391 0.18888
 C878 C 0.59876 0.81693 0.18684
 C879 C 0.60903 0.80654 0.17631
 C880 C 0.62428 0.81277 0.16884
 C881 C 0.62971 0.82964 0.17116
 C882 C 0.61910 0.84008 0.18122
 C883 C 0.60419 0.78983 0.17335
 C884 C 0.58924 0.78316 0.18048
 C885 C 0.57860 0.79288 0.19124
 C886 C 0.58369 0.80991 0.19483
 C887 C 0.57381 0.81919 0.20660
 C888 C 0.55949 0.81214 0.21457
 C889 C 0.55413 0.79572 0.21090
 C890 C 0.56333 0.78596 0.19891
 C891 C 0.55681 0.76965 0.19512
 C892 C 0.54233 0.76314 0.20344
 C893 C 0.53378 0.77256 0.21581
 C894 C 0.53966 0.78896 0.21932
 H895 H 0.59660 0.84294 0.19604
 H896 H 0.63224 0.80399 0.16179
 H897 H 0.62192 0.85336 0.18284
 H898 H 0.61204 0.78178 0.16534
 H899 H 0.58666 0.77011 0.17763
 H900 H 0.57711 0.83186 0.21035
 H901 H 0.55250 0.81968 0.22372
 H902 H 0.56248 0.76161 0.18570
 H903 H 0.53798 0.75050 0.20032
 H904 H 0.53300 0.79649 0.22870
 C905 C 1.09817 0.31127 0.16298
 C906 C 1.09547 0.31324 0.18036
 C907 C 1.10703 0.32398 0.18924
 C908 C 1.12119 0.33163 0.18112
 C909 C 1.12404 0.32942 0.16379
 C910 C 1.11205 0.31921 0.15493
 C911 C 1.10449 0.32704 0.20626
 C912 C 1.09048 0.31995 0.21465
 C913 C 1.07864 0.30905 0.20642
 C914 C 1.08160 0.30509 0.18916
 C915 C 1.07090 0.29280 0.18142
 C916 C 1.05759 0.28486 0.19011
 C917 C 1.05404 0.28915 0.20669
 C918 C 1.06422 0.30160 0.21499
 C919 C 1.05940 0.30616 0.23150
 C920 C 1.04556 0.29818 0.23956
 C921 C 1.03611 0.28534 0.23155
 C922 C 1.04036 0.28097 0.21505
 H923 H 1.08946 0.30410 0.15507
 H924 H 1.13027 0.33880 0.18872
 H925 H 1.11275 0.31774 0.14149
 H926 H 1.11336 0.33517 0.21318
 H927 H 1.08961 0.32288 0.22780
 H928 H 1.07285 0.28859 0.16872
 H929 H 1.04989 0.27532 0.18371
 H930 H 1.06585 0.31603 0.23846
 H931 H 1.04242 0.30192 0.25226
 H932 H 1.03291 0.27126 0.20863
 C933 C 1.10525 0.80222 0.66922
 C934 C 1.10179 0.80384 0.68652
 C935 C 1.11310 0.81423 0.69609
 C936 C 1.12771 0.82193 0.68869
 C937 C 1.13136 0.81991 0.67147
 C938 C 1.11961 0.81006 0.66194
 C939 C 1.10986 0.81687 0.71308
 C940 C 1.09549 0.80960 0.72078
 C941 C 1.08391 0.79898 0.71185
 C942 C 1.08744 0.79565 0.69455
 C943 C 1.07676 0.78392 0.68595
 C944 C 1.06295 0.77594 0.69383
 C945 C 1.05898 0.77948 0.71048
 C946 C 1.06916 0.79124 0.71971
 C947 C 1.06403 0.79478 0.73639
 C948 C 1.04979 0.78658 0.74364
 C949 C 1.04022 0.77454 0.73459
 C950 C 1.04485 0.77117 0.71796
 H951 H 1.09684 0.79534 0.66079
 H952 H 1.13651 0.82894 0.69674
 H953 H 1.12091 0.80883 0.64851
 H954 H 1.11848 0.82476 0.72053
 H955 H 1.09407 0.81224 0.73394
 H956 H 1.07900 0.78023 0.67316
 H957 H 1.05526 0.76690 0.68674
 H958 H 1.07060 0.80396 0.74415
 H959 H 1.04640 0.78953 0.75647
 H960 H 1.03739 0.76205 0.71073
 C961 C 0.38707 0.70160 0.67950
 C962 C 0.40062 0.69301 0.68809
 C963 C 0.39990 0.67514 0.68849
 C964 C 0.38653 0.66639 0.68006
 C965 C 0.37313 0.67509 0.67168
 C966 C 0.37358 0.69277 0.67157
 C967 C 0.41241 0.66606 0.69747
 C968 C 0.42535 0.67432 0.70656
 C969 C 0.42661 0.69210 0.70664
 C970 C 0.41457 0.70153 0.69658
 C971 C 0.41705 0.71911 0.69513
 C972 C 0.43046 0.72730 0.70361
 C973 C 0.44165 0.71844 0.71423
 C974 C 0.43974 0.70075 0.71617
 C975 C 0.45086 0.69256 0.72782
 C976 C 0.46356 0.70154 0.73678
 C977 C 0.46575 0.71888 0.73431
 C978 C 0.45473 0.72724 0.72300
 H979 H 0.38614 0.71516 0.67918
 H980 H 0.38655 0.65271 0.68015
 H981 H 0.36318 0.69993 0.66569
 H982 H 0.41202 0.65239 0.69772
 H983 H 0.43450 0.66635 0.71310
 H984 H 0.40910 0.72691 0.68712
 H985 H 0.43195 0.74080 0.70199
 H986 H 0.44983 0.67931 0.73062
 H987 H 0.47181 0.69482 0.74557
 H988 H 0.45612 0.74073 0.72122
 C989 C 0.39003 0.21268 0.17583
 C990 C 0.40164 0.20426 0.18676
 C991 C 0.39839 0.18700 0.19005
 C992 C 0.38429 0.17858 0.18238
 C993 C 0.37259 0.18711 0.17164
 C994 C 0.37588 0.20433 0.16853
 C995 C 0.40912 0.17820 0.20116
 C996 C 0.42255 0.18632 0.20968
 C997 C 0.42608 0.20361 0.20715
 C998 C 0.41601 0.21250 0.19489
 C999 C 0.42071 0.22929 0.19110
 C1000 C 0.43421 0.23740 0.19955
 C1001 C 0.44337 0.22928 0.21230
 C1002 C 0.43941 0.21230 0.21638
 C1003 C 0.44867 0.20489 0.22986
 C1004 C 0.46131 0.21394 0.23874
 C1005 C 0.46530 0.23062 0.23450
 C1006 C 0.45637 0.23817 0.22114
 H1007 H 0.39105 0.22594 0.17314
 H1008 H 0.38284 0.16521 0.18467
 H1009 H 0.36702 0.21193 0.16116
 H1010 H 0.40688 0.16492 0.20358
 H1011 H 0.43016 0.17856 0.21801
 H1012 H 0.41438 0.23650 0.18141
 H1013 H 0.43730 0.25031 0.19622
 H1014 H 0.44616 0.19227 0.23419
 H1015 H 0.46797 0.20780 0.24905
 H1016 H 0.45922 0.25113 0.21785
 C1017 C -0.10757 0.68291 0.21010
 C1018 C -0.09594 0.69396 0.20198
 C1019 C -0.09944 0.69792 0.18502
 C1020 C -0.11359 0.69042 0.17646
 C1021 C -0.12488 0.67901 0.18455
 C1022 C -0.12163 0.67568 0.20161
 C1023 C -0.08879 0.70937 0.17664
 C1024 C -0.07494 0.71727 0.18481
 C1025 C -0.07087 0.71371 0.20171
 C1026 C -0.08120 0.70142 0.21023
 C1027 C -0.07630 0.69677 0.22665
 C1028 C -0.06228 0.70431 0.23474
 C1029 C -0.05262 0.71689 0.22694
 C1030 C -0.05674 0.72187 0.21035
 C1031 C -0.04664 0.73500 0.20326
 C1032 C -0.03313 0.74271 0.21231
 C1033 C -0.02911 0.73758 0.22864
 C1034 C -0.03889 0.72457 0.23580
 H1035 H -0.10656 0.67993 0.22321
 H1036 H -0.11528 0.69317 0.16329
 H1037 H -0.13040 0.66802 0.20895
 H1038 H -0.09131 0.71244 0.16364
 H1039 H -0.06743 0.72592 0.17739
 H1040 H -0.08284 0.68703 0.23357
 H1041 H -0.05905 0.70032 0.24735
 H1042 H -0.04905 0.73986 0.19089
 H1043 H -0.02584 0.75279 0.20647
 H1044 H -0.03603 0.72056 0.24849
 C1045 C -0.09924 0.16518 0.68807
 C1046 C -0.09689 0.18283 0.68689
 C1047 C -0.10868 0.19189 0.67660
 C1048 C -0.12271 0.18371 0.66869
 C1049 C -0.12533 0.16617 0.67027
 C1050 C -0.11310 0.15708 0.67993
 C1051 C -0.10661 0.20921 0.67437
 C1052 C -0.09292 0.21778 0.68195
 C1053 C -0.08089 0.20941 0.69248
 C1054 C -0.08326 0.19176 0.69548
 C1055 C -0.07228 0.18378 0.70731
 C1056 C -0.05932 0.19267 0.71580
 C1057 C -0.05643 0.20971 0.71254
 C1058 C -0.06687 0.21823 0.70052
 C1059 C -0.06274 0.23524 0.69697
 C1060 C -0.04935 0.24355 0.70549
 C1061 C -0.03961 0.23530 0.71788
 C1062 C -0.04315 0.21831 0.72127
 H1063 H -0.09036 0.15716 0.69489
 H1064 H -0.13202 0.19144 0.66194
 H1065 H -0.11372 0.14349 0.68090
 H1066 H -0.11566 0.21625 0.66658
 H1067 H -0.09250 0.23116 0.67971
 H1068 H -0.07371 0.17072 0.71071
 H1069 H -0.05141 0.18607 0.72497
 H1070 H -0.06938 0.24245 0.68747
 H1071 H -0.04676 0.25662 0.70248
 H1072 H -0.03546 0.21172 0.73063
 C1073 C 0.28328 0.37833 0.32300
 C1074 C 0.29222 0.39172 0.31509
 C1075 C 0.31068 0.39058 0.31405
 C1076 C 0.31970 0.37706 0.32151
 C1077 C 0.31065 0.36417 0.32975
 C1078 C 0.29236 0.36485 0.33013
 C1079 C 0.32007 0.40297 0.30564
 C1080 C 0.31156 0.41638 0.29796
 C1081 C 0.29323 0.41821 0.29875
 C1082 C 0.28348 0.40602 0.30802
 C1083 C 0.26540 0.40875 0.31024
 C1084 C 0.25701 0.42262 0.30330
 C1085 C 0.26614 0.43413 0.29354
 C1086 C 0.28432 0.43199 0.29087
 C1087 C 0.29275 0.44361 0.28017
 C1088 C 0.28353 0.45685 0.27273
 C1089 C 0.26568 0.45913 0.27580
 C1090 C 0.25709 0.44774 0.28629
 H1091 H 0.26924 0.37769 0.32360
 H1092 H 0.33385 0.37674 0.32108
 H1093 H 0.28492 0.35479 0.33582
 H1094 H 0.33418 0.40223 0.30486
 H1095 H 0.31985 0.42542 0.29185
 H1096 H 0.25737 0.40059 0.31772
 H1097 H 0.24314 0.42424 0.30547
 H1098 H 0.30636 0.44261 0.27694
 H1099 H 0.29046 0.46540 0.26456
 H1100 H 0.24321 0.44923 0.28852
 C1101 C 0.30504 -0.10541 0.83781
 C1102 C 0.30649 -0.10067 0.82084
 C1103 C 0.31789 -0.11024 0.81061
 C1104 C 0.32649 -0.12455 0.81692
 C1105 C 0.32435 -0.12972 0.83367
 C1106 C 0.31376 -0.11957 0.84403
 C1107 C 0.32046 -0.10571 0.79396
 C1108 C 0.31199 -0.09184 0.78716
 C1109 C 0.30019 -0.08206 0.79669
 C1110 C 0.29704 -0.08682 0.81368
 C1111 C 0.28414 -0.07793 0.82276
 C1112 C 0.27469 -0.06484 0.81555
 C1113 C 0.27795 -0.05976 0.79917
 C1114 C 0.29104 -0.06801 0.78962
 C1115 C 0.29441 -0.06180 0.77337
 C1116 C 0.28471 -0.04851 0.76671
 C1117 C 0.27130 -0.04089 0.77593
 C1118 C 0.26809 -0.04650 0.79224
 H1119 H 0.29750 -0.09829 0.84674
 H1120 H 0.33410 -0.13208 0.80828
 H1121 H 0.31245 -0.12210 0.85726
 H1122 H 0.32915 -0.11300 0.78603
 H1123 H 0.31459 -0.08946 0.77415
 H1124 H 0.28059 -0.08115 0.83538
 H1125 H 0.26471 -0.05860 0.82292
 H1126 H 0.30459 -0.06677 0.76549
 H1127 H 0.28763 -0.04432 0.75414
 H1128 H 0.25792 -0.04051 0.79959
 C1129 C 0.81946 0.38934 0.80000
 C1130 C 0.80828 0.40124 0.80760
 C1131 C 0.80323 0.39830 0.82437
 C1132 C 0.80988 0.38439 0.83329
 C1133 C 0.82129 0.37265 0.82569
 C1134 C 0.82569 0.37542 0.80878
 C1135 C 0.79144 0.40922 0.83215
 C1136 C 0.78405 0.42264 0.82346
 C1137 C 0.78858 0.42600 0.80668
 C1138 C 0.80156 0.41564 0.79893
 C1139 C 0.80758 0.42012 0.78286
 C1140 C 0.80053 0.43371 0.77426
 C1141 C 0.78699 0.44320 0.78114
 C1142 C 0.78071 0.43947 0.79740
 C1143 C 0.76648 0.44912 0.80348
 C1144 C 0.75895 0.46186 0.79380
 C1145 C 0.76538 0.46558 0.77785
 C1146 C 0.77955 0.45630 0.77168
 H1147 H 0.82312 0.39000 0.78700
 H1148 H 0.80635 0.38315 0.84632
 H1149 H 0.83334 0.36641 0.80172
 H1150 H 0.78760 0.40718 0.84504
 H1151 H 0.77506 0.43040 0.83041
 H1152 H 0.81809 0.41358 0.77668
 H1153 H 0.80555 0.43665 0.76194
 H1154 H 0.76052 0.44683 0.81544
 H1155 H 0.74795 0.46880 0.79885
 H1156 H 0.78451 0.45893 0.75927
 C1157 C 0.79366 -0.11041 0.32311
 C1158 C 0.80221 -0.09846 0.31298
 C1159 C 0.81998 -0.10148 0.30906
 C1160 C 0.82885 -0.11560 0.31559
 C1161 C 0.82034 -0.12721 0.32611
 C1162 C 0.80250 -0.12437 0.32946
 C1163 C 0.82886 -0.09038 0.29862
 C1164 C 0.82041 -0.07654 0.29164
 C1165 C 0.80268 -0.07303 0.29507
 C1166 C 0.79361 -0.08385 0.30638
 C1167 C 0.77631 -0.07960 0.31087
 C1168 C 0.76785 -0.06576 0.30399
 C1169 C 0.77615 -0.05562 0.29226
 C1170 C 0.79369 -0.05905 0.28761
 C1171 C 0.80133 -0.04852 0.27539
 C1172 C 0.79188 -0.03540 0.26805
 C1173 C 0.77454 -0.03216 0.27264
 C1174 C 0.76685 -0.04220 0.28496
 H1175 H 0.77997 -0.10967 0.32603
 H1176 H 0.84262 -0.11706 0.31287
 H1177 H 0.79483 -0.13334 0.33647
 H1178 H 0.84250 -0.09250 0.29564
 H1179 H 0.82831 -0.06867 0.28376
 H1180 H 0.76892 -0.08661 0.31992
 H1181 H 0.75454 -0.06309 0.30776
 H1182 H 0.81443 -0.05030 0.27086
 H1183 H 0.79819 -0.02786 0.25856
 H1184 H 0.75340 -0.03988 0.28854
 C1185 C 0.32225 0.61303 0.69874
 C1186 C 0.31551 0.59909 0.68967
 C1187 C 0.31556 0.60002 0.67195
 C1188 C 0.32291 0.61399 0.66380
 C1189 C 0.32973 0.62763 0.67298
 C1190 C 0.32911 0.62702 0.69051
 C1191 C 0.30818 0.58705 0.66243
 C1192 C 0.30018 0.57340 0.67010
 C1193 C 0.29973 0.57190 0.68770
 C1194 C 0.30833 0.58451 0.69760
 C1195 C 0.30973 0.58199 0.71504
 C1196 C 0.30233 0.56803 0.72268
 C1197 C 0.29283 0.55627 0.71336
 C1198 C 0.29117 0.55811 0.69577
 C1199 C 0.28058 0.54630 0.68706
 C1200 C 0.27213 0.53328 0.69552
 C1201 C 0.27416 0.53137 0.71284
 C1202 C 0.28470 0.54281 0.72165
 H1203 H 0.32190 0.61378 0.71220
 H1204 H 0.32333 0.61418 0.65024
 H1205 H 0.33364 0.63757 0.69800
 H1206 H 0.30830 0.58760 0.64887
 H1207 H 0.29482 0.56395 0.66182
 H1208 H 0.31691 0.59041 0.72315
 H1209 H 0.30379 0.56661 0.73611
 H1210 H 0.27807 0.54711 0.67381
 H1211 H 0.26393 0.52466 0.68846
 H1212 H 0.28607 0.54161 0.73511
 C1213 C 0.31911 1.12856 0.20108
 C1214 C 0.31111 1.11518 0.19211
 C1215 C 0.31004 1.11661 0.17444
 C1216 C 0.31761 1.13041 0.16620
 C1217 C 0.32591 1.14333 0.17527
 C1218 C 0.32629 1.14235 0.19279
 C1219 C 0.30141 1.10426 0.16508
 C1220 C 0.29349 1.09063 0.17286
 C1221 C 0.29434 1.08852 0.19039
 C1222 C 0.30394 1.10063 0.20007
 C1223 C 0.30642 1.09759 0.21732
 C1224 C 0.29933 1.08351 0.22499
 C1225 C 0.28913 1.07211 0.21593
 C1226 C 0.28621 1.07454 0.19855
 C1227 C 0.27501 1.06300 0.19019
 C1228 C 0.26734 1.04956 0.19873
 C1229 C 0.27073 1.04702 0.21577
 C1230 C 0.28171 1.05833 0.22425
 H1231 H 0.31965 1.12899 0.21455
 H1232 H 0.31718 1.13097 0.15265
 H1233 H 0.33196 1.15243 0.20022
 H1234 H 0.30060 1.10523 0.15156
 H1235 H 0.28719 1.08165 0.16468
 H1236 H 0.31426 1.10564 0.22523
 H1237 H 0.30170 1.08165 0.23825
 H1238 H 0.27153 1.06423 0.17717
 H1239 H 0.25875 1.04108 0.19194
 H1240 H 0.28415 1.05666 0.23753
 C1241 C 0.82259 0.61827 0.20783
 C1242 C 0.81395 0.60572 0.19828
 C1243 C 0.81322 0.60782 0.18067
 C1244 C 0.82164 0.62154 0.17304
 C1245 C 0.83032 0.63380 0.18271
 C1246 C 0.83049 0.63203 0.20017
 C1247 C 0.80393 0.59634 0.17080
 C1248 C 0.79489 0.58304 0.17805
 C1249 C 0.79527 0.58036 0.19551
 C1250 C 0.80566 0.59143 0.20567
 C1251 C 0.80769 0.58770 0.22283
 C1252 C 0.79930 0.57408 0.23002
 C1253 C 0.78828 0.56381 0.22053
 C1254 C 0.78588 0.56683 0.20319
 C1255 C 0.77392 0.55635 0.19441
 C1256 C 0.76501 0.54334 0.20254
 C1257 C 0.76787 0.54023 0.21957
 C1258 C 0.77957 0.55053 0.22843
 H1259 H 0.82296 0.61820 0.22131
 H1260 H 0.82136 0.62266 0.15952
 H1261 H 0.83643 0.64157 0.20809
 H1262 H 0.80337 0.59781 0.15732
 H1263 H 0.78803 0.57477 0.16954
 H1264 H 0.81612 0.59484 0.23103
 H1265 H 0.80132 0.57168 0.24324
 H1266 H 0.77084 0.55812 0.18135
 H1267 H 0.75592 0.53564 0.19544
 H1268 H 0.78168 0.54842 0.24170
 C1269 C 0.83704 1.09444 0.68588
 C1270 C 0.81912 1.09030 0.68586
 C1271 C 0.80772 1.10059 0.67630
 C1272 C 0.81395 1.11517 0.66826
 C1273 C 0.83171 1.11985 0.66928
 C1274 C 0.84313 1.10880 0.67778
 C1275 C 0.79006 1.09645 0.67504
 C1276 C 0.78342 1.08231 0.68304
 C1277 C 0.79415 1.07192 0.69311
 C1278 C 0.81219 1.07629 0.69493
 C1279 C 0.82258 1.06690 0.70622
 C1280 C 0.81568 1.05358 0.71528
 C1281 C 0.79830 1.04880 0.71323
 C1282 C 0.78735 1.05762 0.70185
 C1283 C 0.77005 1.05167 0.69968
 C1284 C 0.76381 1.03801 0.70888
 C1285 C 0.77449 1.02984 0.72061
 C1286 C 0.79178 1.03525 0.72263
 H1287 H 0.84682 1.08665 0.69177
 H1288 H 0.80457 1.12321 0.66200
 H1289 H 0.85710 1.11087 0.67791
 H1290 H 0.78122 1.10423 0.66775
 H1291 H 0.76961 1.08020 0.68153
 H1292 H 0.83604 1.06989 0.70882
 H1293 H 0.82410 1.04693 0.72399
 H1294 H 0.76104 1.05713 0.69083
 H1295 H 0.75043 1.03399 0.70695
 H1296 H 0.80025 1.02884 0.73148
 C1297 C 0.69820 0.61829 0.31815
 C1298 C 0.68921 0.60595 0.30863
 C1299 C 0.67098 0.60815 0.30621
 C1300 C 0.66210 0.62163 0.31394
 C1301 C 0.67118 0.63337 0.32387
 C1302 C 0.68933 0.63170 0.32556
 C1303 C 0.66171 0.59686 0.29611
 C1304 C 0.67015 0.58356 0.28811
 C1305 C 0.68824 0.58070 0.29030
 C1306 C 0.69776 0.59171 0.30126
 C1307 C 0.71541 0.58790 0.30482
 C1308 C 0.72370 0.57421 0.29749
 C1309 C 0.71491 0.56390 0.28609
 C1310 C 0.69711 0.56705 0.28214
 C1311 C 0.68909 0.55653 0.26996
 C1312 C 0.69835 0.54343 0.26226
 C1313 C 0.71580 0.54024 0.26652
 C1314 C 0.72395 0.55050 0.27853
 H1315 H 0.71217 0.61821 0.31982
 H1316 H 0.64808 0.62284 0.31241
 H1317 H 0.69683 0.64096 0.33254
 H1318 H 0.64777 0.59842 0.29422
 H1319 H 0.66199 0.57543 0.28060
 H1320 H 0.72314 0.59504 0.31363
 H1321 H 0.73726 0.57176 0.30067
 H1322 H 0.67582 0.55831 0.26579
 H1323 H 0.69178 0.53575 0.25292
 H1324 H 0.73754 0.54830 0.28174
 C1325 C 0.70606 1.09911 0.83167
 C1326 C 0.69785 1.08750 0.82070
 C1327 C 0.67963 1.08921 0.81815
 C1328 C 0.67014 1.10182 0.82652
 C1329 C 0.67841 1.11349 0.83733
 C1330 C 0.69656 1.11176 0.83976
 C1331 C 0.67088 1.07837 0.80718
 C1332 C 0.67988 1.06612 0.79824
 C1333 C 0.69808 1.06398 0.80014
 C1334 C 0.70712 1.07445 0.81200
 C1335 C 0.72505 1.07142 0.81489
 C1336 C 0.73400 1.05897 0.80620
 C1337 C 0.72557 1.04917 0.79412
 C1338 C 0.70755 1.05158 0.79074
 C1339 C 0.69986 1.04159 0.77792
 C1340 C 0.70964 1.02960 0.76913
 C1341 C 0.72735 1.02710 0.77281
 C1342 C 0.73519 1.03698 0.78534
 H1343 H 0.71993 1.09916 0.83394
 H1344 H 0.65610 1.10210 0.82483
 H1345 H 0.70390 1.12069 0.84726
 H1346 H 0.65689 1.07952 0.80530
 H1347 H 0.67206 1.05830 0.79010
 H1348 H 0.73260 1.07828 0.82405
 H1349 H 0.74776 1.05708 0.80890
 H1350 H 0.68640 1.04287 0.77415
 H1351 H 0.70327 1.02222 0.75943
 H1352 H 0.74895 1.03530 0.78819
 C1353 C 0.19844 0.59742 0.82719
 C1354 C 0.19540 0.59332 0.81016
 C1355 C 0.18371 0.60373 0.80110
 C1356 C 0.17594 0.61784 0.80868
 C1357 C 0.17903 0.62194 0.82564
 C1358 C 0.19044 0.61138 0.83471
 C1359 C 0.17986 0.60016 0.78439
 C1360 C 0.18712 0.58628 0.77644
 C1361 C 0.19887 0.57545 0.78484
 C1362 C 0.20348 0.57930 0.80184
 C1363 C 0.21625 0.56922 0.80979
 C1364 C 0.22416 0.55581 0.80153
 C1365 C 0.21946 0.55163 0.78515
 C1366 C 0.20649 0.56115 0.77666
 C1367 C 0.20167 0.55586 0.76031
 C1368 C 0.20987 0.54218 0.75259
 C1369 C 0.22315 0.53327 0.76081
 C1370 C 0.22775 0.53799 0.77718
 H1371 H 0.20663 0.58989 0.83523
 H1372 H 0.16798 0.62596 0.80088
 H1373 H 0.19283 0.61336 0.84793
 H1374 H 0.17100 0.60817 0.77736
 H1375 H 0.18353 0.58463 0.76349
 H1376 H 0.22078 0.57160 0.82236
 H1377 H 0.23407 0.54858 0.80809
 H1378 H 0.19147 0.56186 0.75317
 H1379 H 0.20591 0.53871 0.74001
 H1380 H 0.23784 0.53102 0.78378
 C1381 C 0.20383 1.12044 0.32123
 C1382 C 0.19488 1.10783 0.31199
 C1383 C 0.17644 1.10910 0.31083
 C1384 C 0.16743 1.12204 0.31926
 C1385 C 0.17651 1.13431 0.32853
 C1386 C 0.19479 1.13342 0.32925
 C1387 C 0.16706 1.09752 0.30118
 C1388 C 0.17558 1.08491 0.29225
 C1389 C 0.19392 1.08308 0.29299
 C1390 C 0.20363 1.09427 0.30362
 C1391 C 0.22170 1.09134 0.30578
 C1392 C 0.23014 1.07832 0.29742
 C1393 C 0.22107 1.06793 0.28630
 C1394 C 0.20288 1.07026 0.28370
 C1395 C 0.19453 1.05982 0.27165
 C1396 C 0.20383 1.04748 0.26287
 C1397 C 0.22168 1.04498 0.26588
 C1398 C 0.23019 1.05525 0.27766
 H1399 H 0.21786 1.12096 0.32210
 H1400 H 0.15329 1.12250 0.31860
 H1401 H 0.20225 1.14301 0.33578
 H1402 H 0.15294 1.09834 0.30031
 H1403 H 0.16733 1.07648 0.28517
 H1404 H 0.22968 1.09865 0.31424
 H1405 H 0.24401 1.07651 0.29956
 H1406 H 0.18092 1.06111 0.26841
 H1407 H 0.19698 1.03979 0.25373
 H1408 H 0.24407 1.05360 0.27988
 C1409 C 0.66094 0.40156 0.68157
 C1410 C 0.67904 0.40497 0.68284
 C1411 C 0.69064 0.39393 0.67434
 C1412 C 0.68433 0.37941 0.66609
 C1413 C 0.66643 0.37569 0.66592
 C1414 C 0.65483 0.38720 0.67328
 C1415 C 0.70852 0.39725 0.67441
 C1416 C 0.71523 0.41122 0.68281
 C1417 C 0.70431 0.42229 0.69194
 C1418 C 0.68596 0.41885 0.69228
 C1419 C 0.67522 0.42902 0.70256
 C1420 C 0.68209 0.44213 0.71209
 C1421 C 0.69983 0.44595 0.71154
 C1422 C 0.71117 0.43637 0.70116
 C1423 C 0.72891 0.44135 0.70049
 C1424 C 0.73512 0.45483 0.71012
 C1425 C 0.72399 0.46378 0.72084
 C1426 C 0.70631 0.45931 0.72140
 H1427 H 0.65111 0.40978 0.68674
 H1428 H 0.69345 0.37069 0.66032
 H1429 H 0.64087 0.38502 0.67278
 H1430 H 0.71748 0.38890 0.66792
 H1431 H 0.72920 0.41266 0.68237
 H1432 H 0.66143 0.42682 0.70398
 H1433 H 0.67336 0.44939 0.71999
 H1434 H 0.73831 0.43526 0.69249
 H1435 H 0.74883 0.45811 0.70931
 H1436 H 0.69752 0.46633 0.72945
 C1437 C 0.70630 -0.11436 0.17571
 C1438 C 0.69719 -0.10147 0.18432
 C1439 C 0.67895 -0.10353 0.18636
 C1440 C 0.67027 -0.11762 0.17960
 C1441 C 0.67938 -0.13032 0.17081
 C1442 C 0.69760 -0.12839 0.16914
 C1443 C 0.66933 -0.09146 0.19510
 C1444 C 0.67745 -0.07757 0.20231
 C1445 C 0.69563 -0.07501 0.20086
 C1446 C 0.70557 -0.08680 0.19117
 C1447 C 0.72346 -0.08342 0.18850
 C1448 C 0.73153 -0.06937 0.19553
 C1449 C 0.72225 -0.05826 0.20575
 C1450 C 0.70419 -0.06096 0.20867
 C1451 C 0.69555 -0.04969 0.21965
 C1452 C 0.70446 -0.03643 0.22734
 C1453 C 0.72224 -0.03375 0.22433
 C1454 C 0.73104 -0.04459 0.21333
 H1455 H 0.72027 -0.11424 0.17418
 H1456 H 0.65619 -0.11820 0.18073
 H1457 H 0.70555 -0.13806 0.16337
 H1458 H 0.65532 -0.09284 0.19655
 H1459 H 0.66895 -0.06887 0.20871
 H1460 H 0.73161 -0.09129 0.18076
 H1461 H 0.74530 -0.06732 0.19314
 H1462 H 0.68201 -0.05099 0.22299
 H1463 H 0.69734 -0.02825 0.23582
 H1464 H 0.74486 -0.04274 0.21108
 C1465 C 0.19665 0.38903 0.16864
 C1466 C 0.18754 0.40138 0.17802
 C1467 C 0.16913 0.39982 0.17913
 C1468 C 0.16033 0.38673 0.17071
 C1469 C 0.16959 0.37446 0.16164
 C1470 C 0.18782 0.37581 0.16072
 C1471 C 0.15958 0.41117 0.18886
 C1472 C 0.16795 0.42366 0.19812
 C1473 C 0.18627 0.42560 0.19764
 C1474 C 0.19610 0.41487 0.18672
 C1475 C 0.21411 0.41809 0.18474
 C1476 C 0.22241 0.43086 0.19365
 C1477 C 0.21325 0.44066 0.20519
 C1478 C 0.19510 0.43807 0.20754
 C1479 C 0.18665 0.44780 0.22004
 C1480 C 0.19584 0.45970 0.22953
 C1481 C 0.21365 0.46248 0.22680
 C1482 C 0.22225 0.45295 0.21453
 H1483 H 0.21068 0.38881 0.16769
 H1484 H 0.14621 0.38603 0.17139
 H1485 H 0.19543 0.36631 0.15423
 H1486 H 0.14548 0.41017 0.18962
 H1487 H 0.15960 0.43188 0.20529
 H1488 H 0.22214 0.41117 0.17605
 H1489 H 0.23625 0.43290 0.19167
 H1490 H 0.17307 0.44621 0.22313
 H1491 H 0.18892 0.46682 0.23903
 H1492 H 0.23611 0.45483 0.21250
 C1493 C 0.20348 -0.11912 0.67702
 C1494 C 0.19389 -0.10655 0.68564
 C1495 C 0.17556 -0.10870 0.68689
 C1496 C 0.16725 -0.12251 0.67914
 C1497 C 0.17694 -0.13484 0.67057
 C1498 C 0.19514 -0.13299 0.66973
 C1499 C 0.16560 -0.09715 0.69600
 C1500 C 0.17348 -0.08376 0.70438
 C1501 C 0.19169 -0.08108 0.70359
 C1502 C 0.20192 -0.09217 0.69338
 C1503 C 0.21975 -0.08836 0.69102
 C1504 C 0.22752 -0.07460 0.69886
 C1505 C 0.21800 -0.06433 0.70972
 C1506 C 0.20001 -0.06753 0.71246
 C1507 C 0.19122 -0.05725 0.72429
 C1508 C 0.19993 -0.04431 0.73281
 C1509 C 0.21757 -0.04098 0.72971
 C1510 C 0.22649 -0.05098 0.71803
 H1511 H 0.21751 -0.11893 0.67613
 H1512 H 0.15316 -0.12361 0.67981
 H1513 H 0.20310 -0.14252 0.66370
 H1514 H 0.15156 -0.09864 0.69690
 H1515 H 0.16482 -0.07543 0.71108
 H1516 H 0.22804 -0.09556 0.68278
 H1517 H 0.24123 -0.07214 0.69661
 H1518 H 0.17775 -0.05918 0.72763
 H1519 H 0.19277 -0.03684 0.74188
 H1520 H 0.24024 -0.04868 0.71576
 C1521 C 0.30997 0.29655 0.39262
 C1522 C 0.30173 0.30598 0.40542
 C1523 C 0.29994 0.32363 0.40308
 C1524 C 0.30704 0.33148 0.38888
 C1525 C 0.31547 0.32195 0.37646
 C1526 C 0.31659 0.30440 0.37844
 C1527 C 0.29094 0.33332 0.41485
 C1528 C 0.28319 0.32582 0.42865
 C1529 C 0.28463 0.30830 0.43154
 C1530 C 0.29483 0.29840 0.42018
 C1531 C 0.29805 0.28132 0.42408
 C1532 C 0.29083 0.27388 0.43812
 C1533 C 0.27982 0.28302 0.44864
 C1534 C 0.27640 0.30032 0.44549
 C1535 C 0.26451 0.30875 0.45621
 C1536 C 0.25645 0.30028 0.46941
 C1537 C 0.26014 0.28327 0.47253
 C1538 C 0.27200 0.27479 0.46219
 H1539 H 0.31099 0.28299 0.39289
 H1540 H 0.30602 0.34506 0.38756
 H1541 H 0.32233 0.29656 0.36878
 H1542 H 0.28960 0.34684 0.41321
 H1543 H 0.27647 0.33421 0.43711
 H1544 H 0.30651 0.27338 0.41672
 H1545 H 0.29367 0.26071 0.44060
 H1546 H 0.26072 0.32172 0.45443
 H1547 H 0.24722 0.30708 0.47717
 H1548 H 0.27474 0.26154 0.46434
 C1549 C 0.29656 0.81253 -0.11340
 C1550 C 0.30641 0.80436 -0.10077
 C1551 C 0.32484 0.80418 -0.10243
 C1552 C 0.33295 0.81272 -0.11568
 C1553 C 0.32299 0.82122 -0.12779
 C1554 C 0.30473 0.82074 -0.12663
 C1555 C 0.33511 0.79552 -0.09083
 C1556 C 0.32751 0.78675 -0.07773
 C1557 C 0.30923 0.78667 -0.07541
 C1558 C 0.29858 0.79619 -0.08673
 C1559 C 0.28053 0.79757 -0.08342
 C1560 C 0.27301 0.78951 -0.06986
 C1561 C 0.28304 0.77945 -0.05925
 C1562 C 0.30125 0.77765 -0.06196
 C1563 C 0.31061 0.76663 -0.05124
 C1564 C 0.30223 0.75802 -0.03835
 C1565 C 0.28433 0.76020 -0.03553
 C1566 C 0.27484 0.77103 -0.04599
 H1567 H 0.28249 0.81250 -0.11366
 H1568 H 0.34709 0.81293 -0.11643
 H1569 H 0.29665 0.82660 -0.13614
 H1570 H 0.34922 0.79539 -0.09199
 H1571 H 0.33643 0.78051 -0.06932
 H1572 H 0.27184 0.80521 -0.09086
 H1573 H 0.25911 0.79103 -0.06777
 H1574 H 0.32433 0.76403 -0.05274
 H1575 H 0.30983 0.74960 -0.03052
 H1576 H 0.26091 0.77258 -0.04409
 C1577 C 0.78771 0.32247 -0.11570
 C1578 C 0.79667 0.31449 -0.10235
 C1579 C 0.81511 0.31328 -0.10342
 C1580 C 0.82409 0.32050 -0.11693
 C1581 C 0.81503 0.32856 -0.12996
 C1582 C 0.79675 0.32929 -0.12923
 C1583 C 0.82454 0.30484 -0.09105
 C1584 C 0.81607 0.29715 -0.07777
 C1585 C 0.79774 0.29799 -0.07606
 C1586 C 0.78797 0.30743 -0.08817
 C1587 C 0.76990 0.30976 -0.08551
 C1588 C 0.76155 0.30275 -0.07180
 C1589 C 0.77070 0.29277 -0.06041
 C1590 C 0.78887 0.28998 -0.06249
 C1591 C 0.79731 0.27901 -0.05104
 C1592 C 0.78811 0.27145 -0.03800
 C1593 C 0.77029 0.27467 -0.03576
 C1594 C 0.76168 0.28541 -0.04700
 H1595 H 0.77367 0.32327 -0.11632
 H1596 H 0.83823 0.31989 -0.11722
 H1597 H 0.78929 0.33489 -0.13933
 H1598 H 0.83866 0.30397 -0.09174
 H1599 H 0.82438 0.29099 -0.06874
 H1600 H 0.76186 0.31738 -0.09361
 H1601 H 0.74767 0.30500 -0.07023
 H1602 H 0.81090 0.27566 -0.05204
 H1603 H 0.79503 0.26307 -0.02957
 H1604 H 0.74781 0.28775 -0.04555
 C1605 C 0.79630 0.81991 0.38450
 C1606 C 0.80641 0.81124 0.39659
 C1607 C 0.82476 0.81068 0.39430
 C1608 C 0.83257 0.81921 0.38087
 C1609 C 0.82234 0.82787 0.36907
 C1610 C 0.80414 0.82795 0.37100
 C1611 C 0.83521 0.80147 0.40532
 C1612 C 0.82783 0.79234 0.41831
 C1613 C 0.80963 0.79250 0.42112
 C1614 C 0.79888 0.80279 0.41058
 C1615 C 0.78101 0.80454 0.41454
 C1616 C 0.77370 0.79600 0.42790
 C1617 C 0.78375 0.78510 0.43763
 C1618 C 0.80181 0.78297 0.43430
 C1619 C 0.81115 0.77111 0.44412
 C1620 C 0.80291 0.76207 0.45682
 C1621 C 0.78519 0.76465 0.46029
 C1622 C 0.77573 0.77623 0.45064
 H1623 H 0.78224 0.82022 0.38474
 H1624 H 0.84666 0.81903 0.37961
 H1625 H 0.79579 0.83395 0.36180
 H1626 H 0.84926 0.80106 0.40372
 H1627 H 0.83683 0.78558 0.42624
 H1628 H 0.77234 0.81282 0.40779
 H1629 H 0.75993 0.79780 0.43050
 H1630 H 0.82473 0.76822 0.44205
 H1631 H 0.81048 0.75308 0.46402
 H1632 H 0.76193 0.77811 0.45305
 C1633 C 0.66211 0.31234 0.59701
 C1634 C 0.68031 0.31090 0.59432
 C1635 C 0.69157 0.31992 0.60530
 C1636 C 0.68481 0.32893 0.61905
 C1637 C 0.66678 0.32937 0.62208
 C1638 C 0.65554 0.32139 0.61063
 C1639 C 0.70956 0.31963 0.60272
 C1640 C 0.71672 0.31056 0.58950
 C1641 C 0.70615 0.30099 0.57846
 C1642 C 0.68768 0.30081 0.58118
 C1643 C 0.67727 0.29014 0.57105
 C1644 C 0.68455 0.28013 0.55858
 C1645 C 0.70243 0.28056 0.55539
 C1646 C 0.71347 0.29123 0.56505
 C1647 C 0.73139 0.29174 0.56077
 C1648 C 0.73800 0.28184 0.54776
 C1649 C 0.72712 0.27096 0.53861
 C1650 C 0.70931 0.27038 0.54252
 H1651 H 0.65254 0.30673 0.58879
 H1652 H 0.69366 0.33511 0.62775
 H1653 H 0.64152 0.32202 0.61228
 H1654 H 0.71826 0.32649 0.61105
 H1655 H 0.73075 0.31090 0.58862
 H1656 H 0.66339 0.28883 0.57275
 H1657 H 0.67603 0.27199 0.55128
 H1658 H 0.74064 0.29988 0.56699
 H1659 H 0.75180 0.28264 0.54494
 H1660 H 0.70072 0.26221 0.53534
 C1661 C 0.68229 0.79731 1.11392
 C1662 C 0.69153 0.80570 1.10110
 C1663 C 0.69309 0.82349 1.10226
 C1664 C 0.68512 0.83242 1.11542
 C1665 C 0.67603 0.82389 1.12804
 C1666 C 0.67479 0.80627 1.12713
 C1667 C 0.70276 0.83230 1.09041
 C1668 C 0.71146 0.82380 1.07768
 C1669 C 0.71042 0.80608 1.07602
 C1670 C 0.69961 0.79700 1.08744
 C1671 C 0.69702 0.77957 1.08470
 C1672 C 0.70527 0.77113 1.07170
 C1673 C 0.71669 0.77959 1.06112
 C1674 C 0.71964 0.79714 1.06318
 C1675 C 0.73199 0.80488 1.05251
 C1676 C 0.74078 0.79557 1.04025
 C1677 C 0.73746 0.77833 1.03809
 C1678 C 0.72532 0.77046 1.04854
 H1679 H 0.68111 0.78379 1.11447
 H1680 H 0.68607 0.84606 1.11582
 H1681 H 0.66832 0.79926 1.13692
 H1682 H 0.70389 0.84592 1.09114
 H1683 H 0.71862 0.83157 1.06907
 H1684 H 0.68833 0.77208 1.09219
 H1685 H 0.70284 0.75775 1.07006
 H1686 H 0.73551 0.81800 1.05357
 H1687 H 0.75021 0.80192 1.03241
 H1688 H 0.72284 0.75705 1.04715
 C1689 C 0.16163 0.31482 1.09046
 C1690 C 0.17986 0.31411 1.08754
 C1691 C 0.19095 0.32261 1.09905
 C1692 C 0.18405 0.33053 1.11332
 C1693 C 0.16602 0.33061 1.11633
 C1694 C 0.15491 0.32293 1.10458
 C1695 C 0.20893 0.32301 1.09641
 C1696 C 0.21625 0.31517 1.08256
 C1697 C 0.20588 0.30619 1.07090
 C1698 C 0.18743 0.30528 1.07367
 C1699 C 0.17726 0.29513 1.06281
 C1700 C 0.18478 0.28617 1.04973
 C1701 C 0.20265 0.28724 1.04664
 C1702 C 0.21341 0.29760 1.05686
 C1703 C 0.23131 0.29888 1.05259
 C1704 C 0.23825 0.28963 1.03928
 C1705 C 0.22769 0.27877 1.02979
 C1706 C 0.20983 0.27782 1.03341
 H1707 H 0.15217 0.30943 1.08198
 H1708 H 0.19286 0.33633 1.12232
 H1709 H 0.14088 0.32322 1.10628
 H1710 H 0.21747 0.32949 1.10518
 H1711 H 0.23026 0.31593 1.08166
 H1712 H 0.16342 0.29337 1.06441
 H1713 H 0.17649 0.27829 1.04194
 H1714 H 0.24030 0.30701 1.05916
 H1715 H 0.25207 0.29075 1.03662
 H1716 H 0.20147 0.26968 1.02594
 C1717 C 0.17119 0.80544 0.59922
 C1718 C 0.18942 0.80547 0.59626
 C1719 C 0.20019 0.81407 0.60797
 C1720 C 0.19301 0.82147 0.62240
 C1721 C 0.17496 0.82102 0.62534
 C1722 C 0.16416 0.81312 0.61346
 C1723 C 0.21813 0.81521 0.60531
 C1724 C 0.22568 0.80822 0.59112
 C1725 C 0.21560 0.79936 0.57913
 C1726 C 0.19728 0.79741 0.58207
 C1727 C 0.18755 0.78710 0.57098
 C1728 C 0.19535 0.77917 0.55739
 C1729 C 0.21302 0.78153 0.55396
 C1730 C 0.22333 0.79199 0.56454
 C1731 C 0.24093 0.79475 0.55994
 C1732 C 0.24807 0.78695 0.54586
 C1733 C 0.23804 0.77604 0.53589
 C1734 C 0.22047 0.77345 0.53998
 H1735 H 0.16195 0.79990 0.59061
 H1736 H 0.20161 0.82738 0.63150
 H1737 H 0.15012 0.81299 0.61506
 H1738 H 0.22646 0.82170 0.61427
 H1739 H 0.23964 0.80954 0.59019
 H1740 H 0.17389 0.78447 0.57277
 H1741 H 0.18740 0.77117 0.54938
 H1742 H 0.24948 0.80311 0.56677
 H1743 H 0.26164 0.78931 0.54289
 H1744 H 0.21250 0.76526 0.53217
 C1745 C 0.30081 0.67627 0.61063
 C1746 C 0.31043 0.68406 0.59770
 C1747 C 0.32881 0.68511 0.59968
 C1748 C 0.33710 0.67798 0.61372
 C1749 C 0.32737 0.67026 0.62642
 C1750 C 0.30914 0.66961 0.62471
 C1751 C 0.33882 0.69344 0.58774
 C1752 C 0.33096 0.70131 0.57412
 C1753 C 0.31270 0.70073 0.57163
 C1754 C 0.30239 0.69122 0.58315
 C1755 C 0.28445 0.68901 0.57963
 C1756 C 0.27664 0.69646 0.56580
 C1757 C 0.28624 0.70674 0.55512
 C1758 C 0.30437 0.70918 0.55791
 C1759 C 0.31327 0.72039 0.54710
 C1760 C 0.30446 0.72874 0.53418
 C1761 C 0.28661 0.72604 0.53140
 C1762 C 0.27765 0.71484 0.54182
 H1763 H 0.28675 0.67563 0.61057
 H1764 H 0.35122 0.67851 0.61474
 H1765 H 0.30115 0.66429 0.63451
 H1766 H 0.35290 0.69417 0.58909
 H1767 H 0.33965 0.70746 0.56552
 H1768 H 0.27609 0.68122 0.58717
 H1769 H 0.26282 0.69440 0.56362
 H1770 H 0.32690 0.72342 0.54863
 H1771 H 0.31166 0.73744 0.52639
 H1772 H 0.26376 0.71287 0.53996
 C1773 C 0.31834 0.21198 1.11341
 C1774 C 0.30976 0.20241 1.10088
 C1775 C 0.30788 0.18483 1.10351
 C1776 C 0.31562 0.17709 1.11753
 C1777 C 0.32481 0.18671 1.12946
 C1778 C 0.32563 0.20425 1.12741
 C1779 C 0.29833 0.17510 1.09211
 C1780 C 0.29039 0.18247 1.07823
 C1781 C 0.29229 0.19985 1.07485
 C1782 C 0.30280 0.20979 1.08598
 C1783 C 0.30652 0.22664 1.08162
 C1784 C 0.29972 0.23377 1.06720
 C1785 C 0.28862 0.22459 1.05675
 C1786 C 0.28443 0.20760 1.06050
 C1787 C 0.27233 0.19925 1.04982
 C1788 C 0.26502 0.20744 1.03595
 C1789 C 0.26976 0.22403 1.03213
 C1790 C 0.28161 0.23247 1.04258
 H1791 H 0.31926 0.22554 1.11301
 H1792 H 0.31469 0.16353 1.11900
 H1793 H 0.33186 0.21215 1.13678
 H1794 H 0.29681 0.16164 1.09402
 H1795 H 0.28331 0.17407 1.07003
 H1796 H 0.31520 0.23454 1.08884
 H1797 H 0.30307 0.24673 1.06429
 H1798 H 0.26791 0.18656 1.05211
 H1799 H 0.25570 0.20075 1.02814
 H1800 H 0.28505 0.24546 1.03993
 C1801 C 0.80231 0.68698 1.12483
 C1802 C 0.81196 0.69401 1.11150
 C1803 C 0.83038 0.69476 1.11325
 C1804 C 0.83871 0.68762 1.12728
 C1805 C 0.82895 0.68004 1.14003
 C1806 C 0.81068 0.68018 1.13879
 C1807 C 0.84040 0.70252 1.10095
 C1808 C 0.83255 0.70978 1.08700
 C1809 C 0.81428 0.70908 1.08450
 C1810 C 0.80392 0.70046 1.09664
 C1811 C 0.78596 0.69814 1.09331
 C1812 C 0.77823 0.70444 1.07890
 C1813 C 0.78793 0.71365 1.06741
 C1814 C 0.80604 0.71638 1.07011
 C1815 C 0.81501 0.72655 1.05841
 C1816 C 0.80635 0.73346 1.04459
 C1817 C 0.78859 0.73029 1.04182
 C1818 C 0.77950 0.72028 1.05325
 H1819 H 0.78824 0.68684 1.12504
 H1820 H 0.85285 0.68771 1.12810
 H1821 H 0.80273 0.67510 1.14874
 H1822 H 0.85450 0.70312 1.10218
 H1823 H 0.84127 0.71542 1.07807
 H1824 H 0.77753 0.69100 1.10140
 H1825 H 0.76441 0.70222 1.07683
 H1826 H 0.82861 0.72979 1.05979
 H1827 H 0.81362 0.74131 1.03600
 H1828 H 0.76565 0.71803 1.05139
 C1829 C 0.81886 0.19470 0.61593
 C1830 C 0.81123 0.18648 0.60198
 C1831 C 0.81042 0.16860 0.60219
 C1832 C 0.81833 0.15942 0.61527
 C1833 C 0.82666 0.16781 0.62861
 C1834 C 0.82631 0.18551 0.62896
 C1835 C 0.80180 0.16002 0.58930
 C1836 C 0.79371 0.16880 0.57634
 C1837 C 0.79452 0.18658 0.57540
 C1838 C 0.80416 0.19547 0.58801
 C1839 C 0.80691 0.21296 0.58600
 C1840 C 0.79991 0.22164 0.57249
 C1841 C 0.78949 0.21339 0.56070
 C1842 C 0.78635 0.19580 0.56210
 C1843 C 0.77483 0.18829 0.55031
 C1844 C 0.76697 0.19788 0.53769
 C1845 C 0.77057 0.21512 0.53615
 C1846 C 0.78198 0.22275 0.54762
 H1847 H 0.81892 0.20823 0.61736
 H1848 H 0.81828 0.14575 0.61487
 H1849 H 0.83185 0.19240 0.63945
 H1850 H 0.80112 0.14636 0.58933
 H1851 H 0.78740 0.16121 0.56687
 H1852 H 0.81496 0.22026 0.59443
 H1853 H 0.80248 0.23504 0.57142
 H1854 H 0.77119 0.17518 0.55084
 H1855 H 0.75804 0.19174 0.52905
 H1856 H 0.78454 0.23618 0.54671
 C1857 C 0.66585 0.68809 0.39885
 C1858 C 0.68413 0.68716 0.40158
 C1859 C 0.69428 0.67859 0.38942
 C1860 C 0.68653 0.67220 0.37481
 C1861 C 0.66847 0.67351 0.37208
 C1862 C 0.65821 0.68134 0.38437
 C1863 C 0.71220 0.67655 0.39175
 C1864 C 0.72039 0.68273 0.40600
 C1865 C 0.71101 0.69165 0.41837
 C1866 C 0.69269 0.69440 0.41587
 C1867 C 0.68371 0.70477 0.42740
 C1868 C 0.69230 0.71225 0.44087
 C1869 C 0.71002 0.70929 0.44372
 C1870 C 0.71951 0.69849 0.43285
 C1871 C 0.73716 0.69502 0.43695
 C1872 C 0.74525 0.70277 0.45063
 C1873 C 0.73610 0.71423 0.46068
 C1874 C 0.71838 0.71723 0.45731
 H1875 H 0.65704 0.69368 0.40778
 H1876 H 0.69475 0.66645 0.36535
 H1877 H 0.64417 0.68217 0.38287
 H1878 H 0.72002 0.67004 0.38245
 H1879 H 0.73431 0.68082 0.40662
 H1880 H 0.67008 0.70788 0.42603
 H1881 H 0.68495 0.72044 0.44916
 H1882 H 0.74507 0.68625 0.42996
 H1883 H 0.75888 0.70002 0.45310
 H1884 H 0.71108 0.72581 0.46526
 C1885 C 0.68861 0.15541 -0.09076
 C1886 C 0.68781 0.17320 -0.08914
 C1887 C 0.67829 0.18223 -0.10146
 C1888 C 0.67091 0.17382 -0.11527
 C1889 C 0.67232 0.15625 -0.11701
 C1890 C 0.68097 0.14714 -0.10444
 C1891 C 0.67634 0.19966 -0.10010
 C1892 C 0.68355 0.20844 -0.08671
 C1893 C 0.69346 0.20015 -0.07426
 C1894 C 0.69610 0.18232 -0.07577
 C1895 C 0.70737 0.17432 -0.06421
 C1896 C 0.71572 0.18336 -0.05157
 C1897 C 0.71283 0.20063 -0.04961
 C1898 C 0.70129 0.20921 -0.06062
 C1899 C 0.69803 0.22652 -0.05746
 C1900 C 0.70645 0.23501 -0.04442
 C1901 C 0.71847 0.22666 -0.03409
 C1902 C 0.72150 0.20940 -0.03668
 H1903 H 0.69481 0.14746 -0.08158
 H1904 H 0.66438 0.18110 -0.12492
 H1905 H 0.68180 0.13352 -0.10511
 H1906 H 0.66910 0.20663 -0.10952
 H1907 H 0.68160 0.22190 -0.08683
 H1908 H 0.71050 0.16108 -0.06492
 H1909 H 0.72451 0.17672 -0.04319
 H1910 H 0.68885 0.23385 -0.06466
 H1911 H 0.70371 0.24831 -0.04258
 H1912 H 0.73053 0.20275 -0.02855
 C1913 C 0.18671 0.69404 -0.11677
 C1914 C 0.19487 0.68497 -0.10366
 C1915 C 0.19574 0.66717 -0.10518
 C1916 C 0.18776 0.65888 -0.11880
 C1917 C 0.17936 0.66804 -0.13152
 C1918 C 0.17920 0.68571 -0.13043
 C1919 C 0.20458 0.65771 -0.09312
 C1920 C 0.21294 0.66554 -0.07971
 C1921 C 0.21229 0.68322 -0.07751
 C1922 C 0.20244 0.69299 -0.08928
 C1923 C 0.20009 0.71038 -0.08608
 C1924 C 0.20754 0.71809 -0.07218
 C1925 C 0.21798 0.70895 -0.06112
 C1926 C 0.22082 0.69145 -0.06373
 C1927 C 0.23233 0.68305 -0.05257
 C1928 C 0.24035 0.69166 -0.03929
 C1929 C 0.23696 0.70881 -0.03653
 C1930 C 0.22572 0.71734 -0.04749
 H1931 H 0.18634 0.70763 -0.11713
 H1932 H 0.18801 0.64521 -0.11940
 H1933 H 0.17348 0.69323 -0.14032
 H1934 H 0.20524 0.64408 -0.09417
 H1935 H 0.21941 0.65730 -0.07095
 H1936 H 0.19207 0.71834 -0.09387
 H1937 H 0.20523 0.73145 -0.07016
 H1938 H 0.23578 0.66993 -0.05401
 H1939 H 0.24915 0.68485 -0.03108
 H1940 H 0.22332 0.73071 -0.04566
 C1941 C 0.19945 0.18399 0.39127
 C1942 C 0.18931 0.19152 0.40403
 C1943 C 0.17093 0.19187 0.40183
 C1944 C 0.16313 0.18408 0.38782
 C1945 C 0.17340 0.17645 0.37537
 C1946 C 0.19162 0.17673 0.37722
 C1947 C 0.16044 0.20014 0.41353
 C1948 C 0.16782 0.20853 0.42715
 C1949 C 0.18605 0.20845 0.42994
 C1950 C 0.19684 0.19908 0.41865
 C1951 C 0.21476 0.19726 0.42249
 C1952 C 0.22208 0.20492 0.43647
 C1953 C 0.21198 0.21502 0.44697
 C1954 C 0.19388 0.21717 0.44380
 C1955 C 0.18450 0.22827 0.45447
 C1956 C 0.19279 0.23659 0.46778
 C1957 C 0.21057 0.23396 0.47104
 C1958 C 0.22003 0.22310 0.46060
 H1959 H 0.21353 0.18404 0.39144
 H1960 H 0.14902 0.18400 0.38665
 H1961 H 0.20001 0.17163 0.36756
 H1962 H 0.14637 0.20040 0.41198
 H1963 H 0.15881 0.21460 0.43557
 H1964 H 0.22346 0.18953 0.41515
 H1965 H 0.23589 0.20309 0.43895
 H1966 H 0.17087 0.23113 0.45260
 H1967 H 0.18524 0.24506 0.47560
 H1968 H 0.23389 0.22122 0.46283
 C1969 C 0.32517 0.37957 0.70342
 C1970 C 0.31666 0.39210 0.69377
 C1971 C 0.31518 0.38933 0.67628
 C1972 C 0.32265 0.37496 0.66881
 C1973 C 0.33114 0.36271 0.67855
 C1974 C 0.33216 0.36516 0.69592
 C1975 C 0.30611 0.40083 0.66632
 C1976 C 0.29792 0.41478 0.67339
 C1977 C 0.29893 0.41806 0.69076
 C1978 C 0.30920 0.40700 0.70096
 C1979 C 0.31189 0.41133 0.71794
 C1980 C 0.30420 0.42555 0.72493
 C1981 C 0.29320 0.43581 0.71544
 C1982 C 0.29021 0.43216 0.69827
 C1983 C 0.27826 0.44256 0.68947
 C1984 C 0.26983 0.45601 0.69741
 C1985 C 0.27316 0.45971 0.71427
 C1986 C 0.28498 0.44962 0.72317
 H1987 H 0.32613 0.38022 0.71686
 H1988 H 0.32179 0.37332 0.65535
 H1989 H 0.33806 0.35570 0.70390
 H1990 H 0.30504 0.39887 0.65291
 H1991 H 0.29122 0.42302 0.66480
 H1992 H 0.32028 0.40417 0.72613
 H1993 H 0.30667 0.42839 0.73802
 H1994 H 0.27472 0.44035 0.67657
 H1995 H 0.26064 0.46356 0.69029
 H1996 H 0.28743 0.45222 0.73631
 C1997 C 0.28951 0.89312 0.17059
 C1998 C 0.29899 0.90660 0.17789
 C1999 C 0.31738 0.90482 0.17925
 C2000 C 0.32582 0.89038 0.17292
 C2001 C 0.31620 0.87713 0.16571
 C2002 C 0.29798 0.87868 0.16472
 C2003 C 0.32725 0.91736 0.18710
 C2004 C 0.31925 0.93138 0.19423
 C2005 C 0.30096 0.93367 0.19338
 C2006 C 0.29081 0.92151 0.18432
 C2007 C 0.27284 0.92475 0.18182
 C2008 C 0.26487 0.93891 0.18864
 C2009 C 0.27432 0.95023 0.19852
 C2010 C 0.29248 0.94776 0.20117
 C2011 C 0.30125 0.95925 0.21192
 C2012 C 0.29231 0.97252 0.21965
 C2013 C 0.27443 0.97497 0.21678
 C2014 C 0.26558 0.96387 0.20601
 H2015 H 0.27546 0.89304 0.16974
 H2016 H 0.33992 0.88947 0.17370
 H2017 H 0.29008 0.86849 0.15975
 H2018 H 0.34134 0.91617 0.18804
 H2019 H 0.32784 0.94044 0.20006
 H2020 H 0.26458 0.91672 0.17430
 H2021 H 0.25103 0.94085 0.18640
 H2022 H 0.31489 0.95803 0.21507
 H2023 H 0.29943 0.98086 0.22800
 H2024 H 0.25167 0.96551 0.20390
 C2025 C 0.78849 0.38731 0.17520
 C2026 C 0.79732 0.40117 0.18260
 C2027 C 0.81576 0.40017 0.18401
 C2028 C 0.82485 0.38612 0.17772
 C2029 C 0.81589 0.37245 0.17053
 C2030 C 0.79763 0.37322 0.16938
 C2031 C 0.82507 0.41310 0.19187
 C2032 C 0.81644 0.42675 0.19899
 C2033 C 0.79808 0.42826 0.19813
 C2034 C 0.78847 0.41572 0.18903
 C2035 C 0.77039 0.41824 0.18651
 C2036 C 0.76183 0.43214 0.19324
 C2037 C 0.77080 0.44384 0.20311
 C2038 C 0.78901 0.44200 0.20589
 C2039 C 0.79728 0.45375 0.21674
 C2040 C 0.78784 0.46678 0.22429
 C2041 C 0.76995 0.46871 0.22115
 C2042 C 0.76154 0.45727 0.21042
 H2043 H 0.77446 0.38667 0.17425
 H2044 H 0.83898 0.38583 0.17855
 H2045 H 0.79027 0.36270 0.16433
 H2046 H 0.83919 0.41250 0.19282
 H2047 H 0.82463 0.43618 0.20478
 H2048 H 0.76249 0.40985 0.17902
 H2049 H 0.74794 0.43357 0.19093
 H2050 H 0.81090 0.45293 0.22007
 H2051 H 0.79460 0.47539 0.23264
 H2052 H 0.74762 0.45850 0.20815
 C2053 C 0.82050 0.89875 0.66105
 C2054 C 0.81899 0.90074 0.67859
 C2055 C 0.82686 0.88833 0.68891
 C2056 C 0.83454 0.87389 0.68183
 C2057 C 0.83521 0.87170 0.66441
 C2058 C 0.82854 0.88453 0.65415
 C2059 C 0.82681 0.89023 0.70626
 C2060 C 0.81918 0.90426 0.71368
 C2061 C 0.81068 0.91672 0.70401
 C2062 C 0.80998 0.91458 0.68623
 C2063 C 0.79970 0.92590 0.67676
 C2064 C 0.79047 0.93893 0.68438
 C2065 C 0.79164 0.94160 0.70161
 C2066 C 0.80226 0.93090 0.71159
 C2067 C 0.80405 0.93492 0.72879
 C2068 C 0.79495 0.94841 0.73585
 C2069 C 0.78366 0.95826 0.72611
 C2070 C 0.78215 0.95488 0.70895
 H2071 H 0.81588 0.90810 0.65232
 H2072 H 0.83956 0.86412 0.69001
 H2073 H 0.82948 0.88360 0.64065
 H2074 H 0.83279 0.88078 0.71422
 H2075 H 0.81949 0.90460 0.72716
 H2076 H 0.79790 0.92460 0.66343
 H2077 H 0.78241 0.94706 0.67666
 H2078 H 0.81262 0.92808 0.73709
 H2079 H 0.79650 0.95093 0.74912
 H2080 H 0.77371 0.96271 0.70128
 C2081 C 0.70765 0.61931 0.67949
 C2082 C 0.69772 0.60580 0.68600
 C2083 C 0.67928 0.60761 0.68614
 C2084 C 0.67128 0.62208 0.67946
 C2085 C 0.68132 0.63516 0.67274
 C2086 C 0.69956 0.63368 0.67299
 C2087 C 0.66886 0.59497 0.69289
 C2088 C 0.67630 0.58064 0.69989
 C2089 C 0.69458 0.57822 0.70018
 C2090 C 0.70543 0.59071 0.69258
 C2091 C 0.72357 0.58761 0.69162
 C2092 C 0.73099 0.57317 0.69842
 C2093 C 0.72074 0.56134 0.70668
 C2094 C 0.70239 0.56367 0.70776
 C2095 C 0.69271 0.55154 0.71678
 C2096 C 0.70095 0.53791 0.72451
 C2097 C 0.71905 0.53571 0.72341
 C2098 C 0.72884 0.54733 0.71421
 H2099 H 0.72172 0.61936 0.67946
 H2100 H 0.65715 0.62304 0.67927
 H2101 H 0.70767 0.64377 0.66829
 H2102 H 0.65475 0.59622 0.69291
 H2103 H 0.66724 0.57152 0.70472
 H2104 H 0.73247 0.59603 0.68544
 H2105 H 0.74499 0.57139 0.69742
 H2106 H 0.67881 0.55243 0.71859
 H2107 H 0.69307 0.52913 0.73159
 H2108 H 0.74291 0.54585 0.71346
 C2109 C 0.67943 0.12180 0.20711
 C2110 C 0.68514 0.10725 0.19839
 C2111 C 0.68529 0.10787 0.18064
 C2112 C 0.67906 0.12219 0.17214
 C2113 C 0.67311 0.13639 0.18099
 C2114 C 0.67362 0.13607 0.19854
 C2115 C 0.69170 0.09423 0.17146
 C2116 C 0.69853 0.08015 0.17947
 C2117 C 0.69876 0.07894 0.19711
 C2118 C 0.69109 0.09232 0.20667
 C2119 C 0.68938 0.09020 0.22413
 C2120 C 0.69570 0.07590 0.23212
 C2121 C 0.70440 0.06334 0.22315
 C2122 C 0.70623 0.06473 0.20554
 C2123 C 0.71601 0.05210 0.19717
 C2124 C 0.72366 0.03882 0.20599
 C2125 C 0.72158 0.03744 0.22332
 C2126 C 0.71166 0.04959 0.23180
 H2127 H 0.67976 0.12277 0.22057
 H2128 H 0.67872 0.12218 0.15857
 H2129 H 0.66974 0.14703 0.20577
 H2130 H 0.69170 0.09454 0.15789
 H2131 H 0.70316 0.07017 0.17143
 H2132 H 0.68280 0.09927 0.23198
 H2133 H 0.69409 0.07484 0.24556
 H2134 H 0.71859 0.05246 0.18393
 H2135 H 0.73140 0.02963 0.19920
 H2136 H 0.71029 0.04876 0.24528
 C2137 C 0.20178 0.61234 0.18010
 C2138 C 0.19217 0.60091 0.19002
 C2139 C 0.17431 0.60462 0.19296
 C2140 C 0.16635 0.61874 0.18546
 C2141 C 0.17598 0.62964 0.17523
 C2142 C 0.19381 0.62639 0.17291
 C2143 C 0.16449 0.59422 0.20334
 C2144 C 0.17202 0.58032 0.21112
 C2145 C 0.18970 0.57596 0.20848
 C2146 C 0.19975 0.58610 0.19728
 C2147 C 0.21693 0.58093 0.19342
 C2148 C 0.22429 0.56670 0.20063
 C2149 C 0.21500 0.55716 0.21216
 C2150 C 0.19764 0.56166 0.21643
 C2151 C 0.18911 0.55177 0.22867
 C2152 C 0.19748 0.53800 0.23615
 C2153 C 0.21452 0.53351 0.23162
 C2154 C 0.22314 0.54314 0.21954
 H2155 H 0.21559 0.61104 0.17791
 H2156 H 0.15256 0.62112 0.18744
 H2157 H 0.20178 0.63490 0.16563
 H2158 H 0.15082 0.59695 0.20562
 H2159 H 0.16347 0.57297 0.21888
 H2160 H 0.22499 0.58741 0.18450
 H2161 H 0.23751 0.56322 0.19722
 H2162 H 0.17612 0.55452 0.23303
 H2163 H 0.19056 0.53084 0.24555
 H2164 H 0.23643 0.53994 0.21608
 C2165 C 0.19939 0.11012 0.68367
 C2166 C 0.18997 0.09743 0.69212
 C2167 C 0.17171 0.09971 0.69402
 C2168 C 0.16324 0.11368 0.68677
 C2169 C 0.17277 0.12596 0.67807
 C2170 C 0.19094 0.12409 0.67690
 C2171 C 0.16205 0.08810 0.70324
 C2172 C 0.17017 0.07449 0.71101
 C2173 C 0.18829 0.07160 0.70935
 C2174 C 0.19816 0.08282 0.69908
 C2175 C 0.21580 0.07891 0.69578
 C2176 C 0.22381 0.06496 0.70286
 C2177 C 0.21472 0.05453 0.71377
 C2178 C 0.19689 0.05772 0.71738
 C2179 C 0.18860 0.04705 0.72913
 C2180 C 0.19767 0.03377 0.73676
 C2181 C 0.21515 0.03056 0.73278
 C2182 C 0.22352 0.04096 0.72120
 H2183 H 0.21341 0.10995 0.68256
 H2184 H 0.14919 0.11493 0.68788
 H2185 H 0.19882 0.13368 0.67096
 H2186 H 0.14807 0.08971 0.70471
 H2187 H 0.16177 0.06614 0.71790
 H2188 H 0.22373 0.08615 0.68733
 H2189 H 0.23738 0.06244 0.69991
 H2190 H 0.17527 0.04890 0.73303
 H2191 H 0.19095 0.02599 0.74579
 H2192 H 0.23715 0.03877 0.71822
 C2193 C 0.31175 0.61335 0.29351
 C2194 C 0.30496 0.59966 0.30271
 C2195 C 0.30506 0.60092 0.32042
 C2196 C 0.31285 0.61487 0.32845
 C2197 C 0.32013 0.62806 0.31910
 C2198 C 0.31908 0.62726 0.30158
 C2199 C 0.29738 0.58828 0.32999
 C2200 C 0.28926 0.57453 0.32238
 C2201 C 0.28907 0.57257 0.30479
 C2202 C 0.29780 0.58495 0.29488
 C2203 C 0.29950 0.58203 0.27752
 C2204 C 0.29229 0.56788 0.26994
 C2205 C 0.28275 0.55629 0.27923
 C2206 C 0.28075 0.55851 0.29675
 C2207 C 0.27017 0.54675 0.30536
 C2208 C 0.26207 0.53339 0.29686
 C2209 C 0.26449 0.53113 0.27963
 C2210 C 0.27498 0.54257 0.27096
 H2211 H 0.31114 0.61395 0.28004
 H2212 H 0.31342 0.61532 0.34201
 H2213 H 0.32381 0.63756 0.29398
 H2214 H 0.29742 0.58912 0.34354
 H2215 H 0.28367 0.56533 0.33068
 H2216 H 0.30683 0.59023 0.26945
 H2217 H 0.29400 0.56614 0.25658
 H2218 H 0.26744 0.54781 0.31854
 H2219 H 0.25386 0.52479 0.30381
 H2220 H 0.27665 0.54112 0.25755
 C2221 C 0.31516 0.11274 0.79470
 C2222 C 0.30685 0.09965 0.80365
 C2223 C 0.30534 0.10157 0.82125
 C2224 C 0.31271 0.11561 0.82947
 C2225 C 0.32136 0.12822 0.82043
 C2226 C 0.32221 0.12672 0.80296
 C2227 C 0.29653 0.08945 0.83058
 C2228 C 0.28887 0.07556 0.82283
 C2229 C 0.29009 0.07298 0.80537
 C2230 C 0.29979 0.08490 0.79572
 C2231 C 0.30242 0.08152 0.77854
 C2232 C 0.29536 0.06731 0.77089
 C2233 C 0.28512 0.05605 0.77990
 C2234 C 0.28214 0.05875 0.79722
 C2235 C 0.27104 0.04725 0.80556
 C2236 C 0.26337 0.03370 0.79703
 C2237 C 0.26661 0.03100 0.77998
 C2238 C 0.27764 0.04217 0.77155
 H2239 H 0.31611 0.11279 0.78125
 H2240 H 0.31191 0.11659 0.84299
 H2241 H 0.32821 0.13652 0.79554
 H2242 H 0.29540 0.09079 0.84404
 H2243 H 0.28241 0.06681 0.83101
 H2244 H 0.31028 0.08944 0.77066
 H2245 H 0.29780 0.06524 0.75768
 H2246 H 0.26762 0.04857 0.81856
 H2247 H 0.25480 0.02533 0.80382
 H2248 H 0.28003 0.04035 0.75829
 C2249 C 0.82851 0.60132 0.80900
 C2250 C 0.81048 0.59733 0.80968
 C2251 C 0.79958 0.60808 0.81929
 C2252 C 0.80643 0.62248 0.82724
 C2253 C 0.82427 0.62639 0.82622
 C2254 C 0.83521 0.61556 0.81713
 C2255 C 0.78185 0.60448 0.82089
 C2256 C 0.77460 0.59035 0.81325
 C2257 C 0.78478 0.57932 0.80335
 C2258 C 0.80294 0.58308 0.80124
 C2259 C 0.81287 0.57270 0.79045
 C2260 C 0.80541 0.55913 0.78206
 C2261 C 0.78786 0.55511 0.78424
 C2262 C 0.77732 0.56488 0.79515
 C2263 C 0.75973 0.55974 0.79734
 C2264 C 0.75287 0.54595 0.78854
 C2265 C 0.76321 0.53682 0.77727
 C2266 C 0.78077 0.54139 0.77536
 H2267 H 0.83790 0.59358 0.80253
 H2268 H 0.79774 0.63080 0.83409
 H2269 H 0.84911 0.61796 0.81646
 H2270 H 0.77344 0.61267 0.82820
 H2271 H 0.76078 0.58866 0.81505
 H2272 H 0.82645 0.57496 0.78785
 H2273 H 0.81352 0.55170 0.77372
 H2274 H 0.75093 0.56601 0.80580
 H2275 H 0.73930 0.54261 0.79038
 H2276 H 0.78900 0.53426 0.76686
 C2277 C 0.83248 0.10102 0.31343
 C2278 C 0.81431 0.09854 0.31122
 C2279 C 0.80287 0.11046 0.31868
 C2280 C 0.80948 0.12486 0.32684
 C2281 C 0.82753 0.12756 0.32816
 C2282 C 0.83890 0.11525 0.32177
 C2283 C 0.78486 0.10814 0.31773
 C2284 C 0.77786 0.09418 0.30961
 C2285 C 0.78865 0.08212 0.30165
 C2286 C 0.80714 0.08469 0.30192
 C2287 C 0.81775 0.07369 0.29239
 C2288 C 0.81060 0.06050 0.28311
 C2289 C 0.79269 0.05736 0.28336
 C2290 C 0.78151 0.06786 0.29300
 C2291 C 0.76362 0.06350 0.29373
 C2292 C 0.75711 0.04971 0.28484
 C2293 C 0.76805 0.03982 0.27479
 C2294 C 0.78587 0.04371 0.27407
 H2295 H 0.84208 0.09210 0.30904
 H2296 H 0.80049 0.13423 0.33169
 H2297 H 0.85291 0.11665 0.32313
 H2298 H 0.77604 0.11723 0.32335
 H2299 H 0.76381 0.09354 0.30927
 H2300 H 0.83168 0.07531 0.29137
 H2301 H 0.81924 0.05257 0.27577
 H2302 H 0.75434 0.07024 0.30136
 H2303 H 0.74330 0.04688 0.28573
 H2304 H 0.79448 0.03591 0.26656
 C2305 C 0.70779 0.39344 0.32574
 C2306 C 0.69769 0.40548 0.31691
 C2307 C 0.67939 0.40291 0.31601
 C2308 C 0.67163 0.38916 0.32416
 C2309 C 0.68186 0.37719 0.33266
 C2310 C 0.70000 0.37955 0.33333
 C2311 C 0.66893 0.41388 0.30673
 C2312 C 0.67630 0.42700 0.29769
 C2313 C 0.69447 0.42999 0.29803
 C2314 C 0.70518 0.41963 0.30853
 C2315 C 0.72298 0.42387 0.31047
 C2316 C 0.73027 0.43729 0.30189
 C2317 C 0.72028 0.44676 0.29072
 C2318 C 0.70229 0.44316 0.28841
 C2319 C 0.69302 0.45265 0.27626
 C2320 C 0.70128 0.46531 0.26708
 C2321 C 0.71892 0.46907 0.26982
 C2322 C 0.72830 0.45976 0.28172
 H2323 H 0.72183 0.39398 0.32643
 H2324 H 0.65756 0.38769 0.32366
 H2325 H 0.70837 0.37032 0.33930
 H2326 H 0.65490 0.41209 0.30611
 H2327 H 0.66731 0.43486 0.29083
 H2328 H 0.73160 0.41728 0.31891
 H2329 H 0.74399 0.44011 0.30382
 H2330 H 0.67951 0.45032 0.27322
 H2331 H 0.69378 0.47224 0.25784
 H2332 H 0.74206 0.46238 0.28373
 C2333 C 0.68885 0.87511 0.79621
 C2334 C 0.69664 0.88923 0.80416
 C2335 C 0.69814 0.88895 0.82186
 C2336 C 0.69138 0.87540 0.83109
 C2337 C 0.68358 0.86154 0.82301
 C2338 C 0.68254 0.86154 0.80549
 C2339 C 0.70650 0.90213 0.83028
 C2340 C 0.71384 0.91545 0.82152
 C2341 C 0.71269 0.91636 0.80390
 C2342 C 0.70327 0.90342 0.79516
 C2343 C 0.70049 0.90526 0.77778
 C2344 C 0.70713 0.91895 0.76911
 C2345 C 0.71715 0.93116 0.77727
 C2346 C 0.72035 0.92995 0.79472
 C2347 C 0.73137 0.94227 0.80216
 C2348 C 0.73853 0.95532 0.79268
 C2349 C 0.73484 0.95667 0.77556
 C2350 C 0.72410 0.94454 0.76796
 H2351 H 0.68790 0.87388 0.78280
 H2352 H 0.69219 0.87571 0.84463
 H2353 H 0.67715 0.85082 0.79880
 H2354 H 0.70760 0.90205 0.84381
 H2355 H 0.71998 0.92511 0.82901
 H2356 H 0.69279 0.89650 0.77051
 H2357 H 0.70454 0.91987 0.75578
 H2358 H 0.73505 0.94197 0.81519
 H2359 H 0.74693 0.96445 0.79883
 H2360 H 0.72141 0.94530 0.75464
 C2361 C 0.20231 0.38902 0.81972
 C2362 C 0.19360 0.40082 0.80935
 C2363 C 0.17532 0.39889 0.80711
 C2364 C 0.16622 0.38606 0.81548
 C2365 C 0.17505 0.37455 0.82580
 C2366 C 0.19319 0.37614 0.82769
 C2367 C 0.16621 0.40969 0.79645
 C2368 C 0.17486 0.42214 0.78755
 C2369 C 0.19305 0.42459 0.78929
 C2370 C 0.20243 0.41422 0.80091
 C2371 C 0.22025 0.41775 0.80390
 C2372 C 0.22879 0.43058 0.79547
 C2373 C 0.22009 0.44020 0.78347
 C2374 C 0.20216 0.43725 0.78001
 C2375 C 0.19421 0.44692 0.76718
 C2376 C 0.20363 0.45911 0.75844
 C2377 C 0.22121 0.46222 0.76224
 C2378 C 0.22933 0.45271 0.77482
 H2379 H 0.21626 0.38905 0.82155
 H2380 H 0.15218 0.38508 0.81393
 H2381 H 0.20051 0.36715 0.83512
 H2382 H 0.15221 0.40835 0.79476
 H2383 H 0.16680 0.42994 0.77966
 H2384 H 0.22795 0.41106 0.81303
 H2385 H 0.24246 0.43287 0.79825
 H2386 H 0.18084 0.44514 0.76330
 H2387 H 0.19707 0.46620 0.74869
 H2388 H 0.24301 0.45483 0.77771
 C2389 C 0.21438 0.89777 0.32150
 C2390 C 0.20422 0.90994 0.31294
 C2391 C 0.18591 0.90734 0.31208
 C2392 C 0.17821 0.89342 0.32000
 C2393 C 0.18850 0.88139 0.32833
 C2394 C 0.20665 0.88376 0.32892
 C2395 C 0.17538 0.91850 0.30310
 C2396 C 0.18267 0.93186 0.29436
 C2397 C 0.20084 0.93488 0.29463
 C2398 C 0.21165 0.92428 0.30480
 C2399 C 0.22948 0.92847 0.30665
 C2400 C 0.23670 0.94207 0.29827
 C2401 C 0.22660 0.95180 0.28741
 C2402 C 0.20857 0.94827 0.28525
 C2403 C 0.19915 0.95804 0.27345
 C2404 C 0.20730 0.97084 0.26441
 C2405 C 0.22501 0.97449 0.26693
 C2406 C 0.23455 0.96497 0.27854
 H2407 H 0.22843 0.89832 0.32215
 H2408 H 0.16415 0.89190 0.31952
 H2409 H 0.21506 0.87447 0.33476
 H2410 H 0.16135 0.91670 0.30253
 H2411 H 0.17360 0.93986 0.28775
 H2412 H 0.23819 0.92168 0.31484
 H2413 H 0.25045 0.94482 0.30010
 H2414 H 0.18559 0.95583 0.27055
 H2415 H 0.19966 0.97795 0.25543
 H2416 H 0.24834 0.96753 0.28040
 C2417 C 0.39001 0.30865 0.70546
 C2418 C 0.40286 0.29939 0.69667
 C2419 C 0.40096 0.29785 0.67907
 C2420 C 0.38725 0.30618 0.67065
 C2421 C 0.37487 0.31569 0.67957
 C2422 C 0.37631 0.31654 0.69706
 C2423 C 0.41268 0.28793 0.66999
 C2424 C 0.42611 0.27924 0.67802
 C2425 C 0.42871 0.28060 0.69549
 C2426 C 0.41731 0.29141 0.70483
 C2427 C 0.42094 0.29423 0.72195
 C2428 C 0.43484 0.28637 0.72986
 C2429 C 0.44552 0.27515 0.72118
 C2430 C 0.44256 0.27184 0.70394
 C2431 C 0.45349 0.25975 0.69604
 C2432 C 0.46695 0.25167 0.70488
 C2433 C 0.47005 0.25551 0.72175
 C2434 C 0.45921 0.26723 0.72978
 H2435 H 0.38980 0.30963 0.71891
 H2436 H 0.38631 0.30529 0.65714
 H2437 H 0.36657 0.32311 0.70441
 H2438 H 0.41134 0.28668 0.65653
 H2439 H 0.43457 0.27189 0.67009
 H2440 H 0.41357 0.30292 0.72955
 H2441 H 0.43719 0.28905 0.74300
 H2442 H 0.45180 0.25604 0.68314
 H2443 H 0.47505 0.24253 0.69844
 H2444 H 0.46128 0.27008 0.74293
 C2445 C 0.37751 0.82686 0.19902
 C2446 C 0.39119 0.81838 0.19055
 C2447 C 0.38972 0.81664 0.17292
 C2448 C 0.37548 0.82366 0.16425
 C2449 C 0.36208 0.83208 0.17282
 C2450 C 0.36324 0.83351 0.19029
 C2451 C 0.40242 0.80783 0.16399
 C2452 C 0.41633 0.80018 0.17219
 C2453 C 0.41833 0.80136 0.18974
 C2454 C 0.40602 0.81128 0.19897
 C2455 C 0.40910 0.81396 0.21622
 C2456 C 0.42330 0.80668 0.22433
 C2457 C 0.43477 0.79609 0.21574
 C2458 C 0.43235 0.79309 0.19835
 C2459 C 0.44380 0.78155 0.19042
 C2460 C 0.45707 0.77349 0.19937
 C2461 C 0.45958 0.77676 0.21644
 C2462 C 0.44849 0.78823 0.22452
 H2463 H 0.37717 0.82817 0.21245
 H2464 H 0.37488 0.82258 0.15072
 H2465 H 0.35290 0.83952 0.19735
 H2466 H 0.40147 0.80661 0.15049
 H2467 H 0.42557 0.79371 0.16430
 H2468 H 0.40092 0.82197 0.22380
 H2469 H 0.42515 0.80913 0.23759
 H2470 H 0.44255 0.77803 0.17743
 H2471 H 0.46540 0.76458 0.19286
 H2472 H 0.45016 0.79062 0.23781
 C2473 C 0.87776 0.32541 0.20611
 C2474 C 0.89270 0.31828 0.19846
 C2475 C 0.89265 0.31675 0.18076
 C2476 C 0.87856 0.32289 0.17123
 C2477 C 0.86395 0.33013 0.17901
 C2478 C 0.86367 0.33113 0.19654
 C2479 C 0.90664 0.30904 0.17263
 C2480 C 0.92050 0.30231 0.18168
 C2481 C 0.92116 0.30345 0.19932
 C2482 C 0.90747 0.31231 0.20776
 C2483 C 0.90915 0.31517 0.22516
 C2484 C 0.92335 0.30903 0.23414
 C2485 C 0.93621 0.29941 0.22628
 C2486 C 0.93520 0.29625 0.20880
 C2487 C 0.94806 0.28564 0.20163
 C2488 C 0.96137 0.27867 0.21140
 C2489 C 0.96251 0.28218 0.22856
 C2490 C 0.94996 0.29270 0.23590
 H2491 H 0.87630 0.32630 0.21949
 H2492 H 0.87905 0.32209 0.15769
 H2493 H 0.85235 0.33612 0.20298
 H2494 H 0.90677 0.30796 0.15909
 H2495 H 0.93079 0.29666 0.17440
 H2496 H 0.89986 0.32254 0.23219
 H2497 H 0.92411 0.31161 0.24746
 H2498 H 0.94793 0.28202 0.18861
 H2499 H 0.97085 0.27046 0.20546
 H2500 H 0.95058 0.29523 0.24924
 C2501 C 0.88884 0.79519 0.67537
 C2502 C 0.90303 0.80340 0.68333
 C2503 C 0.90325 0.82129 0.68319
 C2504 C 0.89026 0.83039 0.67460
 C2505 C 0.87635 0.82204 0.66662
 C2506 C 0.87574 0.80436 0.66730
 C2507 C 0.91636 0.83003 0.69174
 C2508 C 0.92897 0.82144 0.70092
 C2509 C 0.92933 0.80363 0.70144
 C2510 C 0.91671 0.79449 0.69176
 C2511 C 0.91840 0.77678 0.69053
 C2512 C 0.93155 0.76821 0.69899
 C2513 C 0.94319 0.77682 0.70940
 C2514 C 0.94208 0.79463 0.71105
 C2515 C 0.95354 0.80261 0.72257
 C2516 C 0.96573 0.79329 0.73175
 C2517 C 0.96711 0.77581 0.72960
 C2518 C 0.95585 0.76766 0.71833
 H2519 H 0.88712 0.78170 0.67566
 H2520 H 0.89103 0.84404 0.67417
 H2521 H 0.86487 0.79750 0.66188
 H2522 H 0.91669 0.84371 0.69160
 H2523 H 0.93864 0.82914 0.70712
 H2524 H 0.91004 0.76918 0.68268
 H2525 H 0.93242 0.75462 0.69757
 H2526 H 0.95308 0.81596 0.72515
 H2527 H 0.97420 0.79984 0.74052
 H2528 H 0.95663 0.75407 0.71684
 C2529 C 0.62292 0.32368 0.30282
 C2530 C 0.60874 0.31651 0.31158
 C2531 C 0.61002 0.31561 0.32927
 C2532 C 0.62443 0.32264 0.33775
 C2533 C 0.63804 0.33031 0.32888
 C2534 C 0.63726 0.33040 0.31135
 C2535 C 0.59685 0.30782 0.33843
 C2536 C 0.58252 0.30062 0.33043
 C2537 C 0.58051 0.30135 0.31286
 C2538 C 0.59350 0.31003 0.30336
 C2539 C 0.59062 0.31231 0.28604
 C2540 C 0.57591 0.30584 0.27812
 C2541 C 0.56365 0.29651 0.28700
 C2542 C 0.56583 0.29392 0.30445
 C2543 C 0.55337 0.28369 0.31266
 C2544 C 0.53944 0.27645 0.30387
 C2545 C 0.53726 0.27932 0.28670
 C2546 C 0.54933 0.28953 0.27839
 H2547 H 0.62354 0.32401 0.28936
 H2548 H 0.62487 0.32241 0.35132
 H2549 H 0.64787 0.33563 0.30411
 H2550 H 0.59770 0.30714 0.35196
 H2551 H 0.57294 0.29495 0.33847
 H2552 H 0.59932 0.31948 0.27826
 H2553 H 0.57424 0.30797 0.26481
 H2554 H 0.55428 0.28060 0.32575
 H2555 H 0.53035 0.26848 0.31055
 H2556 H 0.54793 0.29157 0.26503
 C2557 C 0.62474 0.78818 0.82579
 C2558 C 0.61007 0.79668 0.81899
 C2559 C 0.61090 0.81452 0.81786
 C2560 C 0.62557 0.82335 0.82385
 C2561 C 0.63999 0.81474 0.83058
 C2562 C 0.63939 0.79707 0.83139
 C2563 C 0.59715 0.82349 0.81064
 C2564 C 0.58279 0.81515 0.80393
 C2565 C 0.58140 0.79739 0.80453
 C2566 C 0.59484 0.78809 0.81293
 C2567 C 0.59252 0.77056 0.81514
 C2568 C 0.57795 0.76226 0.80875
 C2569 C 0.56534 0.77096 0.79955
 C2570 C 0.56693 0.78863 0.79715
 C2571 C 0.55422 0.79668 0.78701
 C2572 C 0.54059 0.78756 0.77967
 C2573 C 0.53897 0.77018 0.78232
 C2574 C 0.55127 0.76199 0.79246
 H2575 H 0.62556 0.77463 0.82650
 H2576 H 0.62573 0.83701 0.82326
 H2577 H 0.65048 0.79000 0.83607
 H2578 H 0.59761 0.83715 0.80990
 H2579 H 0.57275 0.82307 0.79865
 H2580 H 0.60160 0.76288 0.82209
 H2581 H 0.57674 0.74879 0.81077
 H2582 H 0.55472 0.80991 0.78403
 H2583 H 0.53130 0.79417 0.77180
 H2584 H 0.55027 0.74848 0.79436
 C2585 C 0.11358 0.30332 0.81844
 C2586 C 0.10039 0.31208 0.80954
 C2587 C 0.10221 0.32979 0.80781
 C2588 C 0.11615 0.33835 0.81558
 C2589 C 0.12875 0.32952 0.82485
 C2590 C 0.12747 0.31191 0.82589
 C2591 C 0.09009 0.33890 0.79840
 C2592 C 0.07631 0.33080 0.79037
 C2593 C 0.07381 0.31321 0.79182
 C2594 C 0.08564 0.30382 0.80213
 C2595 C 0.08212 0.28659 0.80501
 C2596 C 0.06793 0.27862 0.79762
 C2597 C 0.05686 0.28733 0.78678
 C2598 C 0.05971 0.30470 0.78353
 C2599 C 0.04851 0.31270 0.77183
 C2600 C 0.03508 0.30382 0.76388
 C2601 C 0.03219 0.28676 0.76741
 C2602 C 0.04306 0.27864 0.77900
 H2603 H 0.11379 0.28978 0.81958
 H2604 H 0.11701 0.35197 0.81461
 H2605 H 0.13736 0.30467 0.83242
 H2606 H 0.09136 0.35246 0.79709
 H2607 H 0.06752 0.33882 0.78346
 H2608 H 0.08988 0.27894 0.81333
 H2609 H 0.06572 0.26538 0.80026
 H2610 H 0.05004 0.32568 0.76818
 H2611 H 0.02693 0.31034 0.75486
 H2612 H 0.04110 0.26536 0.78161
 C2613 C 0.13043 0.82705 0.29849
 C2614 C 0.11631 0.81964 0.30715
 C2615 C 0.11752 0.81870 0.32484
 C2616 C 0.13177 0.82595 0.33342
 C2617 C 0.14527 0.83391 0.32464
 C2618 C 0.14459 0.83401 0.30710
 C2619 C 0.10443 0.81065 0.33390
 C2620 C 0.09021 0.80332 0.32580
 C2621 C 0.08823 0.80417 0.30823
 C2622 C 0.10119 0.81300 0.29883
 C2623 C 0.09840 0.81531 0.28151
 C2624 C 0.08375 0.80881 0.27350
 C2625 C 0.07146 0.79945 0.28230
 C2626 C 0.07357 0.79676 0.29974
 C2627 C 0.06102 0.78652 0.30784
 C2628 C 0.04703 0.77945 0.29896
 C2629 C 0.04490 0.78248 0.28181
 C2630 C 0.05713 0.79261 0.27361
 H2631 H 0.13112 0.82743 0.28503
 H2632 H 0.13216 0.82568 0.34698
 H2633 H 0.15513 0.83943 0.29992
 H2634 H 0.10524 0.80991 0.34743
 H2635 H 0.08068 0.79746 0.33377
 H2636 H 0.10709 0.82253 0.27378
 H2637 H 0.08214 0.81100 0.26019
 H2638 H 0.06187 0.78337 0.32092
 H2639 H 0.03784 0.77153 0.30556
 H2640 H 0.05578 0.79480 0.26027
 C2641 C 0.61931 0.70614 0.68105
 C2642 C 0.60628 0.69697 0.68962
 C2643 C 0.60828 0.67921 0.69064
 C2644 C 0.62232 0.67104 0.68267
 C2645 C 0.63493 0.68031 0.67396
 C2646 C 0.63334 0.69793 0.67346
 C2647 C 0.59630 0.66967 0.69966
 C2648 C 0.58259 0.67738 0.70809
 C2649 C 0.58001 0.69502 0.70747
 C2650 C 0.59158 0.70487 0.69745
 C2651 C 0.58791 0.72220 0.69536
 C2652 C 0.57383 0.72983 0.70326
 C2653 C 0.56306 0.72063 0.71388
 C2654 C 0.56608 0.70314 0.71633
 C2655 C 0.55526 0.69461 0.72786
 C2656 C 0.54198 0.70309 0.73639
 C2657 C 0.53885 0.72027 0.73362
 C2658 C 0.54937 0.72894 0.72223
 H2659 H 0.61933 0.71971 0.68036
 H2660 H 0.62332 0.65741 0.68318
 H2661 H 0.64318 0.70553 0.66737
 H2662 H 0.59767 0.65607 0.70041
 H2663 H 0.57392 0.66905 0.71468
 H2664 H 0.59547 0.73022 0.68730
 H2665 H 0.57150 0.74316 0.70121
 H2666 H 0.55699 0.68150 0.73096
 H2667 H 0.53410 0.69612 0.74521
 H2668 H 0.54722 0.74231 0.72020
 C2669 C 0.61731 0.21162 0.18518
 C2670 C 0.60347 0.20332 0.19347
 C2671 C 0.60391 0.18545 0.19404
 C2672 C 0.61731 0.17641 0.18608
 C2673 C 0.63102 0.18482 0.17803
 C2674 C 0.63084 0.20251 0.17771
 C2675 C 0.59109 0.17664 0.20273
 C2676 C 0.57809 0.18517 0.21139
 C2677 C 0.57710 0.20296 0.21131
 C2678 C 0.58947 0.21213 0.20151
 C2679 C 0.58725 0.22973 0.19984
 C2680 C 0.57375 0.23818 0.20785
 C2681 C 0.56223 0.22956 0.21823
 C2682 C 0.56391 0.21188 0.22041
 C2683 C 0.55250 0.20395 0.23186
 C2684 C 0.53970 0.21315 0.24033
 C2685 C 0.53769 0.23047 0.23757
 C2686 C 0.54903 0.23860 0.22651
 H2687 H 0.61843 0.22516 0.18475
 H2688 H 0.61709 0.16274 0.18627
 H2689 H 0.64146 0.20942 0.17204
 H2690 H 0.59127 0.16296 0.20309
 H2691 H 0.56868 0.17740 0.21771
 H2692 H 0.59548 0.23734 0.19200
 H2693 H 0.57246 0.25168 0.20607
 H2694 H 0.55338 0.19073 0.23486
 H2695 H 0.53119 0.20662 0.24895
 H2696 H 0.54778 0.25208 0.22454
 C2697 C 0.12295 0.70724 0.18325
 C2698 C 0.10926 0.69999 0.19264
 C2699 C 0.10931 0.68221 0.19460
 C2700 C 0.12200 0.67219 0.18663
 C2701 C 0.13512 0.67957 0.17688
 C2702 C 0.13561 0.69720 0.17558
 C2703 C 0.09664 0.67447 0.20441
 C2704 C 0.08395 0.68398 0.21252
 C2705 C 0.08314 0.70170 0.21079
 C2706 C 0.09565 0.70976 0.20023
 C2707 C 0.09388 0.72724 0.19725
 C2708 C 0.08060 0.73661 0.20456
 C2709 C 0.06875 0.72909 0.21542
 C2710 C 0.07000 0.71160 0.21896
 C2711 C 0.05811 0.70482 0.23070
 C2712 C 0.04537 0.71493 0.23820
 C2713 C 0.04389 0.73207 0.23422
 C2714 C 0.05566 0.73905 0.22280
 H2715 H 0.12449 0.72067 0.18183
 H2716 H 0.12145 0.65857 0.18778
 H2717 H 0.14594 0.70334 0.16869
 H2718 H 0.09657 0.66088 0.20593
 H2719 H 0.07461 0.67694 0.21971
 H2720 H 0.10230 0.73404 0.18890
 H2721 H 0.07967 0.74995 0.20176
 H2722 H 0.05848 0.69184 0.23462
 H2723 H 0.03653 0.70924 0.24710
 H2724 H 0.05482 0.75238 0.21985
 C2725 C 0.11369 0.18138 0.70682
 C2726 C 0.10053 0.18995 0.69767
 C2727 C 0.10196 0.19016 0.67998
 C2728 C 0.11556 0.18149 0.67194
 C2729 C 0.12846 0.17299 0.68118
 C2730 C 0.12740 0.17314 0.69869
 C2731 C 0.08987 0.19909 0.67037
 C2732 C 0.07658 0.20826 0.67791
 C2733 C 0.07454 0.20848 0.69547
 C2734 C 0.08623 0.19856 0.70544
 C2735 C 0.08303 0.19729 0.72279
 C2736 C 0.06920 0.20576 0.73023
 C2737 C 0.05828 0.21619 0.72083
 C2738 C 0.06096 0.21800 0.70338
 C2739 C 0.05008 0.22949 0.69464
 C2740 C 0.03686 0.23838 0.70286
 C2741 C 0.03392 0.23601 0.71997
 C2742 C 0.04471 0.22490 0.72887
 H2743 H 0.11409 0.18123 0.72030
 H2744 H 0.11607 0.18138 0.65838
 H2745 H 0.13741 0.16717 0.70624
 H2746 H 0.09083 0.19919 0.65683
 H2747 H 0.06777 0.21471 0.66955
 H2748 H 0.09073 0.18941 0.73095
 H2749 H 0.06715 0.20426 0.74357
 H2750 H 0.05167 0.23220 0.68153
 H2751 H 0.02880 0.24704 0.69574
 H2752 H 0.04273 0.22323 0.74220
 C2753 C 0.37719 0.68176 0.29007
 C2754 C 0.39165 0.68955 0.29798
 C2755 C 0.39191 0.69009 0.31573
 C2756 C 0.37875 0.68205 0.32504
 C2757 C 0.36482 0.67382 0.31694
 C2758 C 0.36407 0.67415 0.29939
 C2759 C 0.40529 0.69864 0.32408
 C2760 C 0.41829 0.70694 0.31522
 C2761 C 0.41878 0.70651 0.29754
 C2762 C 0.40566 0.69704 0.28884
 C2763 C 0.40722 0.69495 0.27134
 C2764 C 0.42080 0.70227 0.26254
 C2765 C 0.43314 0.71231 0.27068
 C2766 C 0.43217 0.71488 0.28825
 C2767 C 0.44452 0.72593 0.29569
 C2768 C 0.45744 0.73370 0.28610
 C2769 C 0.45865 0.73059 0.26888
 C2770 C 0.44644 0.71986 0.26127
 H2771 H 0.37536 0.68171 0.27669
 H2772 H 0.37950 0.68205 0.33859
 H2773 H 0.35310 0.66865 0.29273
 H2774 H 0.40562 0.69910 0.33765
 H2775 H 0.42816 0.71316 0.32264
 H2776 H 0.39842 0.68720 0.26409
 H2777 H 0.42155 0.70016 0.24914
 H2778 H 0.44433 0.72914 0.30881
 H2779 H 0.46664 0.74207 0.29226
 H2780 H 0.44708 0.71761 0.24788
 C2781 C 0.38562 0.19700 0.81787
 C2782 C 0.39958 0.18747 0.81117
 C2783 C 0.39770 0.16967 0.81054
 C2784 C 0.38280 0.16185 0.81722
 C2785 C 0.36925 0.17152 0.82415
 C2786 C 0.37078 0.18915 0.82413
 C2787 C 0.41065 0.15979 0.80312
 C2788 C 0.42518 0.16720 0.79583
 C2789 C 0.42763 0.18486 0.79612
 C2790 C 0.41506 0.19505 0.80469
 C2791 C 0.41850 0.21244 0.80675
 C2792 C 0.43323 0.21983 0.79991
 C2793 C 0.44493 0.21031 0.79046
 C2794 C 0.44229 0.19272 0.78829
 C2795 C 0.45419 0.18384 0.77796
 C2796 C 0.46801 0.19215 0.77017
 C2797 C 0.47061 0.20948 0.77257
 C2798 C 0.45914 0.21843 0.78292
 H2799 H 0.38548 0.21060 0.81797
 H2800 H 0.38182 0.14820 0.81708
 H2801 H 0.36026 0.19704 0.82873
 H2802 H 0.40939 0.14617 0.80269
 H2803 H 0.43454 0.15865 0.79038
 H2804 H 0.41022 0.22069 0.81397
 H2805 H 0.43531 0.23324 0.80180
 H2806 H 0.45288 0.17058 0.77519
 H2807 H 0.47666 0.18496 0.76214
 H2808 H 0.46089 0.23191 0.78465
 C2809 C 0.87934 0.70292 0.82133
 C2810 C 0.89350 0.69492 0.81316
 C2811 C 0.89288 0.67711 0.81141
 C2812 C 0.87912 0.66780 0.81839
 C2813 C 0.86546 0.67589 0.82689
 C2814 C 0.86561 0.69355 0.82801
 C2815 C 0.90605 0.66864 0.80279
 C2816 C 0.91977 0.67743 0.79561
 C2817 C 0.92112 0.69515 0.79710
 C2818 C 0.90811 0.70396 0.80656
 C2819 C 0.91039 0.72142 0.80945
 C2820 C 0.92461 0.73007 0.80302
 C2821 C 0.93694 0.72183 0.79312
 C2822 C 0.93523 0.70431 0.78975
 C2823 C 0.94762 0.69677 0.77892
 C2824 C 0.96120 0.70618 0.77207
 C2825 C 0.96309 0.72335 0.77583
 C2826 C 0.95092 0.73109 0.78644
 H2827 H 0.87827 0.71643 0.82252
 H2828 H 0.87925 0.65415 0.81744
 H2829 H 0.85497 0.70024 0.83399
 H2830 H 0.90571 0.65502 0.80147
 H2831 H 0.92943 0.66984 0.78933
 H2832 H 0.90159 0.72875 0.81706
 H2833 H 0.92587 0.74344 0.80571
 H2834 H 0.94697 0.68373 0.77514
 H2835 H 0.97035 0.69991 0.76379
 H2836 H 0.95210 0.74446 0.78920
 C2837 C 0.88422 0.18246 0.29837
 C2838 C 0.89739 0.19156 0.30697
 C2839 C 0.89598 0.19301 0.32462
 C2840 C 0.88245 0.18482 0.33322
 C2841 C 0.86969 0.17556 0.32450
 C2842 C 0.87064 0.17471 0.30699
 C2843 C 0.90804 0.20267 0.33360
 C2844 C 0.92126 0.21132 0.32543
 C2845 C 0.92327 0.21023 0.30789
 C2846 C 0.91165 0.19954 0.29863
 C2847 C 0.91488 0.19689 0.28143
 C2848 C 0.92858 0.20487 0.27338
 C2849 C 0.93936 0.21613 0.28198
 C2850 C 0.93673 0.21922 0.29930
 C2851 C 0.94747 0.23146 0.30719
 C2852 C 0.96039 0.23997 0.29828
 C2853 C 0.96321 0.23646 0.28131
 C2854 C 0.95268 0.22446 0.27327
 H2855 H 0.88372 0.18150 0.28491
 H2856 H 0.88194 0.18562 0.34676
 H2857 H 0.86064 0.16825 0.29980
 H2858 H 0.90712 0.20375 0.34710
 H2859 H 0.93004 0.21843 0.33332
 H2860 H 0.90730 0.18829 0.27387
 H2861 H 0.93062 0.20235 0.26017
 H2862 H 0.94594 0.23508 0.32012
 H2863 H 0.96827 0.24930 0.30475
 H2864 H 0.95457 0.22188 0.26005
 C2865 C 0.31731 0.29072 0.62128
 C2866 C 0.30909 0.30047 0.60868
 C2867 C 0.30965 0.31827 0.61035
 C2868 C 0.31886 0.32583 0.62364
 C2869 C 0.32708 0.31600 0.63596
 C2870 C 0.32603 0.29838 0.63467
 C2871 C 0.30093 0.32847 0.59883
 C2872 C 0.29123 0.32141 0.58586
 C2873 C 0.29033 0.30376 0.58356
 C2874 C 0.30010 0.29317 0.59469
 C2875 C 0.30087 0.27570 0.59125
 C2876 C 0.29203 0.26871 0.57771
 C2877 C 0.28167 0.27872 0.56733
 C2878 C 0.28034 0.29633 0.57026
 C2879 C 0.26880 0.30569 0.55990
 C2880 C 0.25943 0.29788 0.54697
 C2881 C 0.26142 0.28061 0.54379
 C2882 C 0.27255 0.27112 0.55404
 H2883 H 0.31677 0.27714 0.62146
 H2884 H 0.31963 0.33948 0.62433
 H2885 H 0.33166 0.29039 0.64425
 H2886 H 0.30139 0.34210 0.60000
 H2887 H 0.28497 0.33018 0.57749
 H2888 H 0.30869 0.26709 0.59852
 H2889 H 0.29317 0.25525 0.57546
 H2890 H 0.26641 0.31897 0.56171
 H2891 H 0.25073 0.30542 0.53931
 H2892 H 0.27387 0.25765 0.55189
 C2893 C 0.29202 0.81901 0.11045
 C2894 C 0.30238 0.80969 0.09905
 C2895 C 0.32065 0.80914 0.10199
 C2896 C 0.32815 0.81824 0.11535
 C2897 C 0.31770 0.82765 0.12636
 C2898 C 0.29957 0.82775 0.12383
 C2899 C 0.33136 0.79947 0.09162
 C2900 C 0.32434 0.78999 0.07856
 C2901 C 0.30624 0.79015 0.07505
 C2902 C 0.29520 0.80070 0.08505
 C2903 C 0.27741 0.80217 0.08054
 C2904 C 0.27048 0.79325 0.06710
 C2905 C 0.28084 0.78225 0.05778
 C2906 C 0.29883 0.78033 0.06169
 C2907 C 0.30851 0.76844 0.05221
 C2908 C 0.30067 0.75912 0.03932
 C2909 C 0.28300 0.76141 0.03532
 C2910 C 0.27320 0.77306 0.04460
 H2911 H 0.27798 0.81948 0.10968
 H2912 H 0.34220 0.81805 0.11709
 H2913 H 0.29106 0.83438 0.13242
 H2914 H 0.34536 0.79905 0.09374
 H2915 H 0.33356 0.78294 0.07116
 H2916 H 0.26849 0.81048 0.08692
 H2917 H 0.25675 0.79486 0.06408
 H2918 H 0.32208 0.76573 0.05465
 H2919 H 0.30851 0.75009 0.03243
 H2920 H 0.25944 0.77476 0.04179
 C2921 C 0.81672 0.29737 0.11600
 C2922 C 0.80970 0.30578 0.10188
 C2923 C 0.80910 0.32365 0.10235
 C2924 C 0.81584 0.33259 0.11615
 C2925 C 0.82265 0.32407 0.13010
 C2926 C 0.82296 0.30638 0.12984
 C2927 C 0.80158 0.33256 0.08913
 C2928 C 0.79397 0.32413 0.07570
 C2929 C 0.79401 0.30633 0.07471
 C2930 C 0.80284 0.29706 0.08756
 C2931 C 0.80468 0.27944 0.08557
 C2932 C 0.79750 0.27104 0.07189
 C2933 C 0.78779 0.27974 0.05989
 C2934 C 0.78570 0.29749 0.06121
 C2935 C 0.77492 0.30556 0.04919
 C2936 C 0.76673 0.29636 0.03644
 C2937 C 0.76919 0.27891 0.03504
 C2938 C 0.77990 0.27071 0.04672
 H2939 H 0.81701 0.28382 0.11703
 H2940 H 0.81568 0.34627 0.11602
 H2941 H 0.82765 0.29938 0.14058
 H2942 H 0.80125 0.34624 0.08932
 H2943 H 0.78847 0.33198 0.06603
 H2944 H 0.81200 0.27176 0.09422
 H2945 H 0.79929 0.25750 0.07088
 H2946 H 0.77206 0.31887 0.04960
 H2947 H 0.75840 0.30297 0.02764
 H2948 H 0.78162 0.25714 0.04591
 C2949 C 0.80386 0.81930 0.60650
 C2950 C 0.81304 0.81045 0.59387
 C2951 C 0.83144 0.80916 0.59550
 C2952 C 0.84019 0.81703 0.60890
 C2953 C 0.83089 0.82578 0.62129
 C2954 C 0.81265 0.82673 0.61995
 C2955 C 0.84104 0.79988 0.58387
 C2956 C 0.83273 0.79130 0.57091
 C2957 C 0.81442 0.79204 0.56881
 C2958 C 0.80454 0.80248 0.57996
 C2959 C 0.78655 0.80479 0.57670
 C2960 C 0.77832 0.79662 0.56346
 C2961 C 0.78752 0.78552 0.55319
 C2962 C 0.80566 0.78288 0.55580
 C2963 C 0.81416 0.77083 0.54552
 C2964 C 0.80503 0.76203 0.53311
 C2965 C 0.78723 0.76502 0.53038
 C2966 C 0.77858 0.77689 0.54040
 H2967 H 0.78982 0.82024 0.60669
 H2968 H 0.85431 0.81626 0.60970
 H2969 H 0.80503 0.83291 0.62958
 H2970 H 0.85513 0.79899 0.58495
 H2971 H 0.84112 0.78447 0.56247
 H2972 H 0.77848 0.81320 0.58396
 H2973 H 0.76449 0.79882 0.56142
 H2974 H 0.82773 0.76755 0.54703
 H2975 H 0.81198 0.75283 0.52559
 H2976 H 0.76472 0.77909 0.53855
 C2977 C 0.30920 0.66691 0.39280
 C2978 C 0.30880 0.68450 0.39589
 C2979 C 0.31630 0.69520 0.38369
 C2980 C 0.32295 0.68852 0.36869
 C2981 C 0.32299 0.67106 0.36567
 C2982 C 0.31624 0.66037 0.37802
 C2983 C 0.31712 0.71256 0.38647
 C2984 C 0.31101 0.71958 0.40128
 C2985 C 0.30329 0.70952 0.41378
 C2986 C 0.30145 0.69181 0.41071
 C2987 C 0.29191 0.68211 0.42232
 C2988 C 0.28465 0.68940 0.43656
 C2989 C 0.28709 0.70648 0.44014
 C2990 C 0.29687 0.71668 0.42904
 C2991 C 0.30000 0.73363 0.43379
 C2992 C 0.29306 0.74028 0.44852
 C2993 C 0.28265 0.73040 0.45899
 C2994 C 0.27977 0.71344 0.45477
 H2995 H 0.30458 0.65781 0.40173
 H2996 H 0.32792 0.69705 0.35928
 H2997 H 0.31658 0.64681 0.37638
 H2998 H 0.32273 0.72083 0.37715
 H2999 H 0.31198 0.73310 0.40229
 H3000 H 0.28929 0.66888 0.42046
 H3001 H 0.27717 0.68151 0.44495
 H3002 H 0.30805 0.74202 0.42658
 H3003 H 0.29563 0.75339 0.45155
 H3004 H 0.27199 0.70561 0.46296
 C3005 C 0.31400 0.20088 0.87834
 C3006 C 0.30590 0.19259 0.89186
 C3007 C 0.30372 0.17485 0.89072
 C3008 C 0.31092 0.16574 0.87721
 C3009 C 0.31995 0.17414 0.86446
 C3010 C 0.32082 0.19180 0.86494
 C3011 C 0.29456 0.16632 0.90315
 C3012 C 0.28736 0.17504 0.91663
 C3013 C 0.28966 0.19263 0.91857
 C3014 C 0.29974 0.20138 0.90633
 C3015 C 0.30389 0.21850 0.90921
 C3016 C 0.29788 0.22701 0.92324
 C3017 C 0.28714 0.21897 0.93475
 C3018 C 0.28258 0.20176 0.93250
 C3019 C 0.27087 0.19456 0.94416
 C3020 C 0.26418 0.20408 0.95746
 C3021 C 0.26917 0.22092 0.95976
 C3022 C 0.28077 0.22822 0.94843
 H3023 H 0.31499 0.21442 0.87757
 H3024 H 0.30987 0.15210 0.87685
 H3025 H 0.32691 0.19872 0.85486
 H3026 H 0.29281 0.15277 0.90239
 H3027 H 0.28056 0.16750 0.92571
 H3028 H 0.31234 0.22559 0.90110
 H3029 H 0.30153 0.24012 0.92498
 H3030 H 0.26622 0.18177 0.94306
 H3031 H 0.25506 0.19823 0.96598
 H3032 H 0.28441 0.24137 0.94993
 C3033 C 0.79805 0.67208 0.89187
 C3034 C 0.80825 0.68047 0.90415
 C3035 C 0.82639 0.68223 0.90108
 C3036 C 0.83389 0.67546 0.88650
 C3037 C 0.82353 0.66744 0.87431
 C3038 C 0.80557 0.66581 0.87723
 C3039 C 0.83692 0.69103 0.91240
 C3040 C 0.82975 0.69886 0.92636
 C3041 C 0.81171 0.69781 0.92980
 C3042 C 0.80099 0.68765 0.91905
 C3043 C 0.78342 0.68496 0.92359
 C3044 C 0.77627 0.69267 0.93761
 C3045 C 0.78617 0.70368 0.94744
 C3046 C 0.80401 0.70652 0.94366
 C3047 C 0.81322 0.71843 0.95360
 C3048 C 0.80497 0.72713 0.96660
 C3049 C 0.78740 0.72410 0.97033
 C3050 C 0.77816 0.71216 0.96084
 H3051 H 0.78409 0.67075 0.89285
 H3052 H 0.84784 0.67664 0.88458
 H3053 H 0.79712 0.66009 0.86790
 H3054 H 0.85084 0.69223 0.91024
 H3055 H 0.83880 0.70542 0.93443
 H3056 H 0.77486 0.67666 0.91669
 H3057 H 0.76268 0.69028 0.94056
 H3058 H 0.82662 0.72179 0.95128
 H3059 H 0.81237 0.73637 0.97369
 H3060 H 0.76448 0.70991 0.96347
 C3061 C 0.81494 0.20198 0.38325
 C3062 C 0.80788 0.19301 0.39692
 C3063 C 0.80812 0.17515 0.39611
 C3064 C 0.81632 0.16677 0.38268
 C3065 C 0.82380 0.17588 0.36946
 C3066 C 0.82261 0.19355 0.36980
 C3067 C 0.80019 0.16574 0.40870
 C3068 C 0.79177 0.17367 0.42199
 C3069 C 0.79154 0.19143 0.42358
 C3070 C 0.80041 0.20119 0.41120
 C3071 C 0.80201 0.21876 0.41377
 C3072 C 0.79486 0.22661 0.42770
 C3073 C 0.78539 0.21742 0.43939
 C3074 C 0.78319 0.19976 0.43736
 C3075 C 0.77253 0.19129 0.44912
 C3076 C 0.76486 0.19999 0.46251
 C3077 C 0.76781 0.21727 0.46478
 C3078 C 0.77807 0.22588 0.45313
 H3079 H 0.81428 0.21553 0.38232
 H3080 H 0.81701 0.15311 0.38268
 H3081 H 0.82744 0.20101 0.35949
 H3082 H 0.80031 0.15207 0.40818
 H3083 H 0.78605 0.16548 0.43120
 H3084 H 0.80932 0.22678 0.40550
 H3085 H 0.79665 0.24010 0.42925
 H3086 H 0.76955 0.17803 0.44811
 H3087 H 0.75679 0.19312 0.47126
 H3088 H 0.78008 0.23936 0.45459
 C3089 C 0.70920 0.32386 0.39096
 C3090 C 0.69944 0.31515 0.40321
 C3091 C 0.68108 0.31416 0.40091
 C3092 C 0.67295 0.32212 0.38722
 C3093 C 0.68282 0.33085 0.37531
 C3094 C 0.70101 0.33148 0.37731
 C3095 C 0.67092 0.30516 0.41222
 C3096 C 0.67858 0.29668 0.42556
 C3097 C 0.69680 0.29716 0.42837
 C3098 C 0.70730 0.30713 0.41741
 C3099 C 0.72526 0.30892 0.42112
 C3100 C 0.73288 0.30072 0.43463
 C3101 C 0.72305 0.29019 0.44485
 C3102 C 0.70489 0.28813 0.44185
 C3103 C 0.69570 0.27680 0.45227
 C3104 C 0.70422 0.26797 0.46502
 C3105 C 0.72212 0.27020 0.46798
 C3106 C 0.73140 0.28149 0.45793
 H3107 H 0.72324 0.32465 0.39128
 H3108 H 0.65886 0.32155 0.38589
 H3109 H 0.70908 0.33765 0.36806
 H3110 H 0.65687 0.30445 0.41061
 H3111 H 0.66973 0.29009 0.43368
 H3112 H 0.73382 0.31686 0.41397
 H3113 H 0.74673 0.30247 0.43696
 H3114 H 0.68202 0.27409 0.45065
 H3115 H 0.69674 0.25926 0.47254
 H3116 H 0.74531 0.28316 0.45998
 C3117 C 0.71745 0.81586 0.88551
 C3118 C 0.70869 0.80926 0.89962
 C3119 C 0.69020 0.80851 0.89899
 C3120 C 0.68100 0.81475 0.88507
 C3121 C 0.68988 0.82126 0.87119
 C3122 C 0.70818 0.82164 0.87157
 C3123 C 0.68093 0.80141 0.91219
 C3124 C 0.68961 0.79448 0.92582
 C3125 C 0.70802 0.79477 0.92701
 C3126 C 0.71765 0.80305 0.91412
 C3127 C 0.73585 0.80507 0.91627
 C3128 C 0.74446 0.79868 0.93021
 C3129 C 0.73542 0.78962 0.94233
 C3130 C 0.71711 0.78730 0.94081
 C3131 C 0.70875 0.77720 0.95298
 C3132 C 0.71818 0.76999 0.96614
 C3133 C 0.73616 0.77274 0.96778
 C3134 C 0.74468 0.78268 0.95588
 H3135 H 0.73148 0.81622 0.88460
 H3136 H 0.66685 0.81451 0.88508
 H3137 H 0.71547 0.82611 0.86088
 H3138 H 0.66678 0.80095 0.91185
 H3139 H 0.68145 0.78932 0.93547
 H3140 H 0.74381 0.81194 0.90755
 H3141 H 0.75843 0.80061 0.93136
 H3142 H 0.69504 0.77420 0.95243
 H3143 H 0.71133 0.76224 0.97510
 H3144 H 0.75867 0.78463 0.95690
 C3145 C 0.16423 0.31911 0.89986
 C3146 C 0.18241 0.31703 0.90251
 C3147 C 0.19387 0.32479 0.89096
 C3148 C 0.18731 0.33311 0.87679
 C3149 C 0.16929 0.33422 0.87386
 C3150 C 0.15785 0.32754 0.88578
 C3151 C 0.21188 0.32387 0.89336
 C3152 C 0.21888 0.31533 0.90694
 C3153 C 0.20811 0.30695 0.91855
 C3154 C 0.18958 0.30745 0.91607
 C3155 C 0.17891 0.29787 0.92683
 C3156 C 0.18604 0.28815 0.93959
 C3157 C 0.20401 0.28789 0.94245
 C3158 C 0.21528 0.29762 0.93226
 C3159 C 0.23331 0.29761 0.93627
 C3160 C 0.23983 0.28792 0.94940
 C3161 C 0.22874 0.27782 0.95899
 C3162 C 0.21079 0.27792 0.95549
 H3163 H 0.15458 0.31445 0.90845
 H3164 H 0.19634 0.33817 0.86768
 H3165 H 0.14385 0.32869 0.88414
 H3166 H 0.22070 0.32979 0.88457
 H3167 H 0.23293 0.31505 0.90761
 H3168 H 0.16494 0.29715 0.92539
 H3169 H 0.17735 0.28077 0.94734
 H3170 H 0.24274 0.30515 0.92971
 H3171 H 0.25375 0.28822 0.95194
 H3172 H 0.20206 0.27038 0.96305
 C3173 C 0.21708 0.82940 0.38648
 C3174 C 0.20774 0.82068 0.39899
 C3175 C 0.18945 0.81883 0.39677
 C3176 C 0.18090 0.82624 0.38299
 C3177 C 0.19034 0.83523 0.37094
 C3178 C 0.20852 0.83645 0.37275
 C3179 C 0.17980 0.80954 0.40827
 C3180 C 0.18793 0.80166 0.42174
 C3181 C 0.20610 0.80316 0.42453
 C3182 C 0.21601 0.81346 0.41339
 C3183 C 0.23378 0.81645 0.41715
 C3184 C 0.24184 0.80902 0.43086
 C3185 C 0.23267 0.79807 0.44120
 C3186 C 0.21470 0.79484 0.43817
 C3187 C 0.20626 0.78307 0.44870
 C3188 C 0.21534 0.77489 0.46154
 C3189 C 0.23303 0.77829 0.46451
 C3190 C 0.24154 0.79008 0.45441
 H3191 H 0.23109 0.83063 0.38665
 H3192 H 0.16684 0.82512 0.38176
 H3193 H 0.21630 0.84271 0.36334
 H3194 H 0.16579 0.80814 0.40672
 H3195 H 0.17948 0.79477 0.43001
 H3196 H 0.24181 0.82484 0.40992
 H3197 H 0.25552 0.81169 0.43323
 H3198 H 0.19279 0.77948 0.44704
 H3199 H 0.20848 0.76574 0.46911
 H3200 H 0.25531 0.79261 0.45644
 C3201 C 0.68565 0.70413 0.61153
 C3202 C 0.69373 0.69440 0.59886
 C3203 C 0.69461 0.67669 0.60112
 C3204 C 0.68685 0.66911 0.61512
 C3205 C 0.67876 0.67896 0.62753
 C3206 C 0.67843 0.69653 0.62559
 C3207 C 0.70339 0.66663 0.58950
 C3208 C 0.71184 0.67381 0.57592
 C3209 C 0.71132 0.69138 0.57309
 C3210 C 0.70135 0.70170 0.58428
 C3211 C 0.69904 0.71892 0.58038
 C3212 C 0.70681 0.72602 0.56645
 C3213 C 0.71752 0.71639 0.55606
 C3214 C 0.72017 0.69899 0.55929
 C3215 C 0.73189 0.69008 0.54877
 C3216 C 0.74033 0.69814 0.53552
 C3217 C 0.73721 0.71521 0.53220
 C3218 C 0.72571 0.72421 0.54250
 H3219 H 0.68524 0.71772 0.61129
 H3220 H 0.68718 0.65550 0.61634
 H3221 H 0.67291 0.70458 0.63520
 H3222 H 0.70403 0.65306 0.59109
 H3223 H 0.71833 0.66516 0.56755
 H3224 H 0.69084 0.72721 0.58763
 H3225 H 0.70459 0.73928 0.56392
 H3226 H 0.73518 0.67701 0.55070
 H3227 H 0.74930 0.69096 0.52781
 H3228 H 0.72345 0.73752 0.54022
 C3229 C 0.70367 0.18313 0.11786
 C3230 C 0.69419 0.19101 0.10478
 C3231 C 0.67585 0.19255 0.10666
 C3232 C 0.66745 0.18585 0.12076
 C3233 C 0.67703 0.17809 0.13364
 C3234 C 0.69523 0.17690 0.13201
 C3235 C 0.66598 0.20092 0.09455
 C3236 C 0.67393 0.20833 0.08082
 C3237 C 0.69216 0.20724 0.07838
 C3238 C 0.70232 0.19774 0.09014
 C3239 C 0.72020 0.19508 0.08674
 C3240 C 0.72805 0.20194 0.07270
 C3241 C 0.71858 0.21208 0.06169
 C3242 C 0.70055 0.21511 0.06445
 C3243 C 0.69182 0.22621 0.05332
 C3244 C 0.70061 0.23373 0.03999
 C3245 C 0.71830 0.23030 0.03713
 C3246 C 0.72716 0.21938 0.04801
 H3247 H 0.71770 0.18207 0.11784
 H3248 H 0.65336 0.18675 0.12168
 H3249 H 0.70311 0.17149 0.14191
 H3250 H 0.65193 0.20203 0.09584
 H3251 H 0.66533 0.21451 0.07207
 H3252 H 0.72846 0.18734 0.09452
 H3253 H 0.74180 0.19947 0.07058
 H3254 H 0.67831 0.22972 0.05483
 H3255 H 0.69351 0.24225 0.03185
 H3256 H 0.74094 0.21687 0.04609
 C3257 C 0.16943 0.68401 0.10022
 C3258 C 0.18746 0.68250 0.09652
 C3259 C 0.19809 0.67362 0.10809
 C3260 C 0.19109 0.66751 0.12310
 C3261 C 0.17333 0.66960 0.12685
 C3262 C 0.16256 0.67765 0.11509
 C3263 C 0.21575 0.67105 0.10480
 C3264 C 0.22323 0.67712 0.09025
 C3265 C 0.21339 0.68644 0.07848
 C3266 C 0.19530 0.68954 0.08187
 C3267 C 0.18585 0.70006 0.07082
 C3268 C 0.19377 0.70740 0.05704
 C3269 C 0.21127 0.70424 0.05340
 C3270 C 0.22120 0.69330 0.06375
 C3271 C 0.23862 0.68977 0.05893
 C3272 C 0.24605 0.69754 0.04505
 C3273 C 0.23647 0.70908 0.03545
 C3274 C 0.21897 0.71215 0.03955
 H3275 H 0.16023 0.68985 0.09180
 H3276 H 0.19969 0.66147 0.13208
 H3277 H 0.14869 0.67902 0.11736
 H3278 H 0.22394 0.66426 0.11362
 H3279 H 0.23701 0.67478 0.08890
 H3280 H 0.17237 0.70338 0.07280
 H3281 H 0.18608 0.71570 0.04914
 H3282 H 0.24686 0.68098 0.06554
 H3283 H 0.25953 0.69474 0.04204
 H3284 H 0.21132 0.72083 0.03202
 C3285 C 0.19833 0.17759 0.61840
 C3286 C 0.18839 0.18671 0.60650
 C3287 C 0.17019 0.18831 0.60928
 C3288 C 0.16230 0.18039 0.62303
 C3289 C 0.17234 0.17126 0.63462
 C3290 C 0.19043 0.17011 0.63219
 C3291 C 0.15995 0.19792 0.59843
 C3292 C 0.16744 0.20648 0.58513
 C3293 C 0.18552 0.20534 0.58184
 C3294 C 0.19598 0.19462 0.59221
 C3295 C 0.21362 0.19195 0.58783
 C3296 C 0.22102 0.20005 0.57424
 C3297 C 0.21132 0.21139 0.56469
 C3298 C 0.19348 0.21438 0.56840
 C3299 C 0.18450 0.22663 0.55874
 C3300 C 0.19293 0.23534 0.54592
 C3301 C 0.21045 0.23204 0.54217
 C3302 C 0.21951 0.21994 0.55154
 H3303 H 0.21234 0.17646 0.61775
 H3304 H 0.14829 0.18136 0.62468
 H3305 H 0.19867 0.16370 0.64121
 H3306 H 0.14599 0.19910 0.60041
 H3307 H 0.15859 0.21360 0.57736
 H3308 H 0.22202 0.18331 0.59444
 H3309 H 0.23462 0.19758 0.57134
 H3310 H 0.17113 0.23013 0.56105
 H3311 H 0.18567 0.24473 0.53893
 H3312 H 0.23317 0.21748 0.54890
   
