data_POSCAR
  _audit_creation_date              2014-09-24
  _audit_creation_method            'ToBaCCo'
  _symmetry_space_group_name_H-M    'P1'
  _symmetry_Int_Tables_number       1
  _symmetry_cell_setting            triclinic
  loop_
  _symmetry_equiv_pos_as_xyz
 x,y,z
_cell_length_a 59.3956
_cell_length_b 62.7799
_cell_length_c 61.1111
_cell_angle_alpha 90.593600
_cell_angle_beta 90.510400
_cell_angle_gamma 89.597000
loop_
  _atom_site_label
  _atom_site_type_symbol
  _atom_site_fract_x
  _atom_site_fract_y
  _atom_site_fract_z
N1 N 0.38007 0.31916 0.33266
 N2 N 0.37716 0.33262 0.31654
 C3 C 0.39292 0.32891 0.30127
 C4 C 0.40607 0.31201 0.30813
 C5 C 0.39753 0.30614 0.32809
 H6 H 0.39442 0.33748 0.28610
 H7 H 0.40377 0.29367 0.33867
 Cu8 Cu 0.35226 0.35270 0.31683
 Cu9 Cu 0.36196 0.32097 0.35891
 Cu10 Cu 0.30945 0.34497 0.35110
 N11 N 0.32794 0.37322 0.31937
 N12 N 0.31022 0.36963 0.33154
 C13 C 0.29500 0.38543 0.32833
 C14 C 0.30416 0.39976 0.31384
 C15 C 0.32503 0.39158 0.30866
 H16 H 0.27889 0.38670 0.33638
 H17 H 0.33701 0.39834 0.29749
 N18 N 0.31669 0.32596 0.37606
 N19 N 0.33705 0.31791 0.37931
 C20 C 0.33730 0.30658 0.39780
 C21 C 0.31612 0.30733 0.40666
 C22 C 0.30332 0.31972 0.39253
 H23 H 0.35173 0.29791 0.40408
 H24 H 0.28574 0.32396 0.39420
 H25 H 0.33497 0.32506 0.33885
 H26 H 0.34287 0.34915 0.35521
 N27 N 0.36331 0.80236 -0.17999
 N28 N 0.36159 0.81592 -0.19621
 C29 C 0.37874 0.81239 -0.21020
 C30 C 0.39217 0.79625 -0.20170
 C31 C 0.38193 0.79038 -0.18253
 H32 H 0.38163 0.82134 -0.22493
 H33 H 0.38717 0.77780 -0.17159
 Cu34 Cu 0.33789 0.83780 -0.19614
 Cu35 Cu 0.34024 0.79991 -0.15784
 Cu36 Cu 0.31706 0.84886 -0.14595
 N37 N 0.31852 0.86262 -0.19073
 N38 N 0.31098 0.86686 -0.17097
 C39 C 0.29868 0.88487 -0.17133
 C40 C 0.29823 0.89235 -0.19247
 C41 C 0.31106 0.87790 -0.20448
 H42 H 0.29040 0.89186 -0.15725
 H43 H 0.31469 0.87846 -0.22177
 N44 N 0.31595 0.82462 -0.12578
 N45 N 0.32359 0.80545 -0.13091
 C46 C 0.31811 0.79176 -0.11503
 C47 C 0.30655 0.80300 -0.09909
 C48 C 0.30556 0.82375 -0.10634
 H49 H 0.32211 0.77492 -0.11514
 H50 H 0.29702 0.83702 -0.09851
 H51 H 0.31581 0.82324 -0.16637
 H52 H 0.34458 0.83160 -0.15718
 N53 N 0.86709 0.30966 -0.17808
 N54 N 0.86995 0.32300 -0.19427
 C55 C 0.88789 0.31651 -0.20608
 C56 C 0.89674 0.29839 -0.19638
 C57 C 0.88314 0.29452 -0.17874
 H58 H 0.89445 0.32474 -0.22009
 H59 H 0.88486 0.28171 -0.16713
 Cu60 Cu 0.85063 0.34823 -0.19701
 Cu61 Cu 0.84286 0.31294 -0.15721
 Cu62 Cu 0.83040 0.36598 -0.14860
 N63 N 0.83621 0.37614 -0.19406
 N64 N 0.83019 0.38350 -0.17472
 C65 C 0.82237 0.40352 -0.17674
 C66 C 0.82269 0.40877 -0.19863
 C67 C 0.83157 0.39102 -0.20926
 H68 H 0.81570 0.41307 -0.16343
 H69 H 0.83458 0.38915 -0.22661
 N70 N 0.82250 0.34345 -0.12767
 N71 N 0.82675 0.32310 -0.13145
 C72 C 0.81785 0.31140 -0.11546
 C73 C 0.80730 0.32505 -0.10092
 C74 C 0.81055 0.34526 -0.10908
 H75 H 0.81851 0.29420 -0.11480
 H76 H 0.80395 0.36006 -0.10247
 H77 H 0.82440 0.34011 -0.16788
 H78 H 0.85397 0.34314 -0.15754
 N79 N 0.86161 0.81706 0.32289
 N80 N 0.86579 0.83547 0.31374
 C81 C 0.88526 0.83410 0.30280
 C82 C 0.89369 0.81374 0.30491
 C83 C 0.87831 0.80319 0.31777
 H84 H 0.89237 0.84667 0.29312
 H85 H 0.87921 0.78681 0.32303
 Cu86 Cu 0.84406 0.85866 0.31381
 Cu87 Cu 0.83514 0.81358 0.34147
 Cu88 Cu 0.79154 0.84878 0.32908
 N89 N 0.82127 0.88104 0.31436
 N90 N 0.80008 0.87645 0.31799
 C91 C 0.78696 0.89303 0.31203
 C92 C 0.80086 0.90899 0.30468
 C93 C 0.82250 0.90100 0.30669
 H94 H 0.76876 0.89321 0.31254
 H95 H 0.83772 0.90845 0.30106
 N96 N 0.78848 0.82502 0.34969
 N97 N 0.80484 0.81142 0.35444
 C98 C 0.79813 0.79898 0.37102
 C99 C 0.77676 0.80545 0.37716
 C100 C 0.77120 0.82191 0.36333
 H101 H 0.80862 0.78728 0.37914
 H102 H 0.75619 0.83175 0.36402
 H103 H 0.81813 0.82897 0.31822
 H104 H 0.82282 0.84489 0.34392
 N105 N 0.63598 0.69125 0.29562
 N106 N 0.63591 0.67477 0.28213
 C107 C 0.62008 0.67778 0.26658
 C108 C 0.60982 0.69724 0.27045
 C109 C 0.62037 0.70548 0.28892
 H110 H 0.61607 0.66649 0.25366
 H111 H 0.61644 0.72028 0.29732
 Cu112 Cu 0.65619 0.65070 0.28635
 Cu113 Cu 0.65532 0.69189 0.32168
 Cu114 Cu 0.66687 0.64059 0.33893
 N115 N 0.67187 0.62482 0.29502
 N116 N 0.67492 0.62052 0.31585
 C117 C 0.68556 0.60168 0.31770
 C118 C 0.68991 0.59401 0.29693
 C119 C 0.68098 0.60903 0.28282
 H120 H 0.69078 0.59463 0.33303
 H121 H 0.68136 0.60865 0.26513
 N122 N 0.66905 0.66573 0.35829
 N123 N 0.66587 0.68544 0.35152
 C124 C 0.67215 0.69907 0.36756
 C125 C 0.67979 0.68725 0.38515
 C126 C 0.67747 0.66625 0.37878
 H127 H 0.67223 0.71623 0.36612
 H128 H 0.68306 0.65241 0.38777
 H129 H 0.67596 0.66448 0.31853
 H130 H 0.64512 0.66173 0.32325
 N131 N 0.65139 0.18548 -0.17440
 N132 N 0.65049 0.16915 -0.18804
 C133 C 0.63052 0.16948 -0.19871
 C134 C 0.61833 0.18677 -0.19097
 C135 C 0.63198 0.19654 -0.17559
 H136 H 0.62494 0.15760 -0.21046
 H137 H 0.62802 0.21053 -0.16584
 Cu138 Cu 0.67484 0.14817 -0.18904
 Cu139 Cu 0.67759 0.19092 -0.15589
 Cu140 Cu 0.70340 0.14373 -0.14143
 N141 N 0.69547 0.12454 -0.18366
 N142 N 0.70573 0.12248 -0.16463
 C143 C 0.71795 0.10439 -0.16467
 C144 C 0.71560 0.09479 -0.18497
 C145 C 0.70119 0.10795 -0.19670
 H146 H 0.72827 0.09896 -0.15112
 H147 H 0.69519 0.10558 -0.21330
 N148 N 0.70719 0.17050 -0.12472
 N149 N 0.69813 0.18878 -0.13081
 C150 C 0.70507 0.20433 -0.11707
 C151 C 0.71923 0.19531 -0.10164
 C152 C 0.72019 0.17389 -0.10691
 H153 H 0.70014 0.22090 -0.11821
 H154 H 0.73001 0.16177 -0.09867
 H155 H 0.70102 0.16664 -0.16456
 H156 H 0.67417 0.15958 -0.15072
 N157 N 0.12652 0.69296 -0.17835
 N158 N 0.12584 0.67693 -0.19233
 C159 C 0.10772 0.67902 -0.20545
 C160 C 0.09671 0.69760 -0.19971
 C161 C 0.10905 0.70620 -0.18251
 H162 H 0.10314 0.66813 -0.21855
 H163 H 0.10541 0.72074 -0.17353
 Cu164 Cu 0.14939 0.65567 -0.19287
 Cu165 Cu 0.14956 0.69441 -0.15537
 Cu166 Cu 0.19400 0.65765 -0.15926
 N167 N 0.16880 0.63123 -0.18907
 N168 N 0.18745 0.63230 -0.17737
 C169 C 0.19917 0.61395 -0.18019
 C170 C 0.18666 0.60071 -0.19389
 C171 C 0.16750 0.61212 -0.19901
 H172 H 0.21536 0.61046 -0.17277
 H173 H 0.15411 0.60721 -0.21001
 N174 N 0.19216 0.68008 -0.13603
 N175 N 0.17466 0.69309 -0.13408
 C176 C 0.17687 0.70456 -0.11551
 C177 C 0.19679 0.69886 -0.10540
 C178 C 0.20623 0.68337 -0.11883
 H179 H 0.16476 0.71612 -0.10954
 H180 H 0.22152 0.67441 -0.11569
 H181 H 0.17442 0.68112 -0.17391
 H182 H 0.16008 0.66241 -0.15528
 N183 N 0.12769 0.19124 0.33723
 N184 N 0.13309 0.18300 0.31809
 C185 C 0.11795 0.18967 0.30299
 C186 C 0.10233 0.20260 0.31353
 C187 C 0.10891 0.20303 0.33517
 H188 H 0.11827 0.18545 0.28579
 H189 H 0.10103 0.21183 0.34839
 Cu190 Cu 0.15909 0.16393 0.31557
 Cu191 Cu 0.14587 0.18745 0.36330
 Cu192 Cu 0.19865 0.16617 0.35523
 N193 N 0.18154 0.14129 0.31904
 N194 N 0.19642 0.14183 0.33514
 C195 C 0.20869 0.12374 0.33479
 C196 C 0.20130 0.11136 0.31740
 C197 C 0.18417 0.12298 0.30761
 H198 H 0.22205 0.11993 0.34628
 H199 H 0.17394 0.11817 0.29371
 N200 N 0.19165 0.18486 0.38027
 N201 N 0.17097 0.19174 0.38392
 C202 C 0.17112 0.20490 0.40138
 C203 C 0.19295 0.20656 0.40896
 C204 C 0.20564 0.19356 0.39533
 H205 H 0.15666 0.21377 0.40722
 H206 H 0.22370 0.19123 0.39580
 H207 H 0.17363 0.18773 0.34394
 H208 H 0.16553 0.16128 0.35511
 N209 N 0.62898 0.31522 0.69367
 N210 N 0.63300 0.32861 0.70989
 C211 C 0.61929 0.32433 0.72662
 C212 C 0.60610 0.30722 0.72066
 C213 C 0.61259 0.30175 0.69963
 H214 H 0.61910 0.33279 0.74212
 H215 H 0.60577 0.28918 0.68936
 Cu216 Cu 0.65635 0.34979 0.70792
 Cu217 Cu 0.64474 0.31761 0.66584
 Cu218 Cu 0.69633 0.34356 0.67037
 N219 N 0.67890 0.37140 0.70372
 N220 N 0.69554 0.36845 0.68994
 C221 C 0.70996 0.38489 0.69190
 C222 C 0.70146 0.39893 0.70742
 C223 C 0.68176 0.38995 0.71448
 H224 H 0.72519 0.38663 0.68252
 H225 H 0.67064 0.39623 0.72693
 N226 N 0.68823 0.32458 0.64556
 N227 N 0.66811 0.31595 0.64319
 C228 C 0.66711 0.30555 0.62384
 C229 C 0.68765 0.30752 0.61371
 C230 C 0.70072 0.31956 0.62791
 H231 H 0.65271 0.29677 0.61779
 H232 H 0.71782 0.32471 0.62533
 H233 H 0.67282 0.32264 0.68384
 H234 H 0.66229 0.34645 0.66878
 N235 N 0.63516 0.82128 1.16741
 N236 N 0.63560 0.83665 1.18221
 C237 C 0.61652 0.83598 1.19401
 C238 C 0.60343 0.81957 1.18575
 C239 C 0.61571 0.81060 1.16894
 H240 H 0.61227 0.84687 1.20720
 H241 H 0.61100 0.79712 1.15876
 Cu242 Cu 0.66081 0.85650 1.18373
 Cu243 Cu 0.66027 0.81578 1.14785
 Cu244 Cu 0.68846 0.86206 1.13621
 N245 N 0.68279 0.87908 1.17977
 N246 N 0.69299 0.88141 1.16093
 C247 C 0.70631 0.89862 1.16205
 C248 C 0.70462 0.90743 1.18276
 C249 C 0.68955 0.89466 1.19366
 H250 H 0.71664 0.90420 1.14882
 H251 H 0.68372 0.89674 1.21027
 N252 N 0.68958 0.83640 1.11725
 N253 N 0.67980 0.81834 1.12238
 C254 C 0.68500 0.80336 1.10729
 C255 C 0.69865 0.81254 1.09186
 C256 C 0.70118 0.83347 1.09862
 H257 H 0.67916 0.78709 1.10745
 H258 H 0.71123 0.84549 1.09085
 H259 H 0.68523 0.83789 1.15770
 H260 H 0.65850 0.84755 1.14475
 N261 N 0.12871 0.31065 1.18180
 N262 N 0.12802 0.32756 1.19466
 C263 C 0.10900 0.32700 1.20653
 C264 C 0.09761 0.30853 1.20104
 C265 C 0.11062 0.29848 1.18543
 H266 H 0.10419 0.33868 1.21879
 H267 H 0.10712 0.28350 1.17723
 Cu268 Cu 0.15304 0.34755 1.19590
 Cu269 Cu 0.15275 0.30563 1.16119
 Cu270 Cu 0.19134 0.34624 1.15537
 N271 N 0.17699 0.36854 1.19425
 N272 N 0.19111 0.36847 1.17778
 C273 C 0.20492 0.38526 1.17981
 C274 C 0.19942 0.39628 1.19869
 C275 C 0.18167 0.38526 1.20756
 H276 H 0.21822 0.38907 1.16855
 H277 H 0.17258 0.38940 1.22227
 N278 N 0.18891 0.32213 1.13461
 N279 N 0.17364 0.30712 1.13658
 C280 C 0.17497 0.29373 1.11931
 C281 C 0.19228 0.30029 1.10622
 C282 C 0.20094 0.31822 1.11637
 H283 H 0.16427 0.28007 1.11655
 H284 H 0.21457 0.32794 1.11057
 H285 H 0.17857 0.32398 1.17548
 H286 H 0.15760 0.33800 1.15761
 N287 N 0.13868 0.80899 0.67854
 N288 N 0.13914 0.82642 0.69069
 C289 C 0.12108 0.82701 0.70372
 C290 C 0.10874 0.80883 0.69993
 C291 C 0.12039 0.79755 0.68394
 H292 H 0.11718 0.83979 0.71511
 H293 H 0.11546 0.78270 0.67622
 Cu294 Cu 0.16321 0.84694 0.68895
 Cu295 Cu 0.16129 0.80424 0.65555
 Cu296 Cu 0.18221 0.85293 0.63864
 N297 N 0.18293 0.87029 0.68198
 N298 N 0.18999 0.87294 0.66189
 C299 C 0.20308 0.89032 0.66123
 C300 C 0.20454 0.89874 0.68214
 C301 C 0.19150 0.88571 0.69494
 H302 H 0.21145 0.89597 0.64677
 H303 H 0.18868 0.88719 0.71235
 N304 N 0.18346 0.82683 0.62070
 N305 N 0.17707 0.80787 0.62738
 C306 C 0.18378 0.79307 0.61253
 C307 C 0.19490 0.80348 0.59591
 C308 C 0.19419 0.82472 0.60160
 H309 H 0.18141 0.77609 0.61405
 H310 H 0.20223 0.83761 0.59311
 H311 H 0.18507 0.82872 0.66080
 H312 H 0.15593 0.83521 0.65130
 N313 N 0.35267 0.68392 0.67827
 N314 N 0.35532 0.66715 0.69081
 C315 C 0.37447 0.66917 0.70251
 C316 C 0.38412 0.68839 0.69733
 C317 C 0.36981 0.69748 0.68203
 H318 H 0.38096 0.65748 0.71387
 H319 H 0.37220 0.71232 0.67354
 Cu320 Cu 0.33354 0.64416 0.69072
 Cu321 Cu 0.32843 0.68540 0.65642
 Cu322 Cu 0.31018 0.63491 0.64187
 N323 N 0.31232 0.62098 0.68635
 N324 N 0.30404 0.61693 0.66674
 C325 C 0.29043 0.59999 0.66764
 C326 C 0.28980 0.59326 0.68903
 C327 C 0.30393 0.60687 0.70058
 H328 H 0.28113 0.59347 0.65385
 H329 H 0.30774 0.60655 0.71791
 N330 N 0.30697 0.65960 0.62269
 N331 N 0.31234 0.67919 0.62873
 C332 C 0.30532 0.69277 0.61310
 C333 C 0.29508 0.68099 0.59656
 C334 C 0.29654 0.66010 0.60312
 H335 H 0.30725 0.70988 0.61384
 H336 H 0.28949 0.64637 0.59477
 H337 H 0.30779 0.65935 0.66365
 H338 H 0.33649 0.65457 0.65239
 N339 N 0.36540 0.19154 1.18526
 N340 N 0.36651 0.17830 1.20177
 C341 C 0.38528 0.18233 1.21360
 C342 C 0.39658 0.19872 1.20367
 C343 C 0.38359 0.20416 1.18573
 H344 H 0.39050 0.17379 1.22809
 H345 H 0.38684 0.21671 1.17420
 Cu346 Cu 0.34362 0.15676 1.20583
 Cu347 Cu 0.33957 0.19269 1.16561
 Cu348 Cu 0.30651 0.14751 1.16477
 N349 N 0.32556 0.13110 1.20453
 N350 N 0.31046 0.12803 1.18898
 C351 C 0.29923 0.10995 1.19291
 C352 C 0.30816 0.10105 1.21163
 C353 C 0.32489 0.11475 1.21859
 H354 H 0.28562 0.10371 1.18292
 H355 H 0.33523 0.11328 1.23316
 N356 N 0.30501 0.16929 1.14190
 N357 N 0.31687 0.18699 1.14277
 C358 C 0.31139 0.19911 1.12544
 C359 C 0.29555 0.18833 1.11303
 C360 C 0.29192 0.16951 1.12382
 H361 H 0.31868 0.21441 1.12188
 H362 H 0.28033 0.15709 1.11897
 H363 H 0.31590 0.17425 1.18171
 H364 H 0.33875 0.16011 1.16649
 N365 N 0.85721 0.69871 1.16974
 N366 N 0.85763 0.68816 1.18821
 C367 C 0.87482 0.69515 1.20078
 C368 C 0.88587 0.71078 1.18944
 C369 C 0.87434 0.71265 1.16980
 H370 H 0.87933 0.68894 1.21668
 H371 H 0.87808 0.72341 1.15663
 Cu372 Cu 0.83678 0.66528 1.19341
 Cu373 Cu 0.83398 0.69398 1.14747
 Cu374 Cu 0.79706 0.65227 1.15653
 N375 N 0.82238 0.63770 1.19372
 N376 N 0.80613 0.63283 1.17984
 C377 C 0.79787 0.61358 1.18497
 C378 C 0.80999 0.60595 1.20273
 C379 C 0.82545 0.62158 1.20777
 H380 H 0.78412 0.60577 1.17648
 H381 H 0.83751 0.62153 1.22114
 N382 N 0.79541 0.67049 1.13034
 N383 N 0.80912 0.68664 1.12716
 C384 C 0.80297 0.69661 1.10859
 C385 C 0.78482 0.68601 1.09951
 C386 C 0.78052 0.66948 1.11359
 H387 H 0.81103 0.71055 1.10212
 H388 H 0.76717 0.65792 1.11199
 H389 H 0.81004 0.68133 1.16734
 H390 H 0.82977 0.66191 1.15433
 N391 N 0.86247 0.18490 0.68198
 N392 N 0.86818 0.16622 0.68997
 C393 C 0.88851 0.16767 0.69963
 C394 C 0.89585 0.18835 0.69799
 C395 C 0.87893 0.19901 0.68672
 H396 H 0.89714 0.15483 0.70794
 H397 H 0.87865 0.21563 0.68225
 Cu398 Cu 0.84769 0.14228 0.68951
 Cu399 Cu 0.83410 0.18896 0.66591
 Cu400 Cu 0.80057 0.14420 0.65925
 N401 N 0.82673 0.11867 0.68864
 N402 N 0.80745 0.12014 0.67803
 C403 C 0.79515 0.10264 0.68188
 C404 C 0.80768 0.08941 0.69526
 C405 C 0.82762 0.09996 0.69918
 H406 H 0.77847 0.09970 0.67534
 H407 H 0.84129 0.09473 0.70967
 N408 N 0.79650 0.17008 0.64187
 N409 N 0.80870 0.18743 0.64468
 C410 C 0.80251 0.20178 0.62940
 C411 C 0.78588 0.19278 0.61635
 C412 C 0.78251 0.17279 0.62471
 H413 H 0.81041 0.21706 0.62713
 H414 H 0.77120 0.16082 0.61822
 H415 H 0.81556 0.16518 0.68079
 H416 H 0.83279 0.15753 0.65635
 N417 N 0.31017 0.36399 0.68966
 N418 N 0.32765 0.36804 0.70237
 C419 C 0.32486 0.38708 0.71217
 C420 C 0.30428 0.39522 0.70581
 C421 C 0.29519 0.38018 0.69158
 H422 H 0.33657 0.39422 0.72369
 H423 H 0.27919 0.38110 0.68303
 Cu424 Cu 0.35113 0.34712 0.70715
 Cu425 Cu 0.30930 0.33805 0.67144
 Cu426 Cu 0.36121 0.31194 0.66751
 N427 N 0.37521 0.32646 0.70998
 N428 N 0.37863 0.31192 0.69472
 C429 C 0.39569 0.29907 0.70104
 C430 C 0.40328 0.30613 0.72129
 C431 C 0.39003 0.32355 0.72645
 H432 H 0.40216 0.28577 0.69156
 H433 H 0.39088 0.33308 0.74127
 N434 N 0.33682 0.30834 0.64588
 N435 N 0.31673 0.31733 0.64778
 C436 C 0.30381 0.31113 0.63063
 C437 C 0.31654 0.29780 0.61737
 C438 C 0.33730 0.29640 0.62751
 H439 H 0.28666 0.31635 0.62770
 H440 H 0.35166 0.28720 0.62196
 H441 H 0.33380 0.31830 0.68587
 H442 H 0.34310 0.34087 0.66862
 N443 N 0.29839 0.87825 0.17324
 N444 N 0.30670 0.87632 0.19314
 C445 C 0.29811 0.89186 0.20601
 C446 C 0.28386 0.90426 0.19333
 C447 C 0.28456 0.89529 0.17262
 H448 H 0.30214 0.89414 0.22317
 H449 H 0.27543 0.90056 0.15823
 Cu450 Cu 0.32876 0.85423 0.19969
 Cu451 Cu 0.30605 0.85829 0.14982
 Cu452 Cu 0.33089 0.81108 0.16700
 N453 N 0.35381 0.83419 0.20129
 N454 N 0.35425 0.81679 0.18910
 C455 C 0.37295 0.80548 0.19404
 C456 C 0.38495 0.81663 0.20989
 C457 C 0.37234 0.83475 0.21411
 H458 H 0.37769 0.79054 0.18632
 H459 H 0.37631 0.84736 0.22569
 N460 N 0.31435 0.81354 0.13898
 N461 N 0.30631 0.83195 0.13199
 C462 C 0.29690 0.82908 0.11212
 C463 C 0.29888 0.80786 0.10636
 C464 C 0.31003 0.79835 0.12374
 H465 H 0.28856 0.84142 0.10278
 H466 H 0.31484 0.78177 0.12508
 H467 H 0.30614 0.83485 0.17257
 H468 H 0.33428 0.84232 0.16191
 N469 N 0.83338 0.38069 0.17545
 N470 N 0.84846 0.37412 0.18982
 C471 C 0.84994 0.38854 0.20625
 C472 C 0.83488 0.40486 0.20193
 C473 C 0.82470 0.39944 0.18226
 H474 H 0.86005 0.38665 0.22092
 H475 H 0.81133 0.40802 0.17396
 Cu476 Cu 0.86218 0.34606 0.18683
 Cu477 Cu 0.82515 0.36387 0.14958
 Cu478 Cu 0.83866 0.31014 0.15352
 N479 N 0.87621 0.31827 0.18234
 N480 N 0.86679 0.30432 0.16899
 C481 C 0.87834 0.28587 0.16982
 C482 C 0.89588 0.28834 0.18454
 C483 C 0.89413 0.30909 0.19224
 H484 H 0.87372 0.27146 0.16108
 H485 H 0.90452 0.31658 0.20468
 N486 N 0.81693 0.32142 0.13205
 N487 N 0.81229 0.34190 0.12999
 C488 C 0.79766 0.34446 0.11323
 C489 C 0.79301 0.32461 0.10440
 C490 C 0.80546 0.31039 0.11669
 H491 H 0.79094 0.35960 0.10783
 H492 H 0.80646 0.29331 0.11433
 H493 H 0.82630 0.33792 0.16887
 H494 H 0.84998 0.34000 0.14918
 N495 N 0.79129 0.86038 0.66418
 N496 N 0.80668 0.86172 0.67973
 C497 C 0.80177 0.87840 0.69291
 C498 C 0.78242 0.88806 0.68494
 C499 C 0.77619 0.87624 0.66675
 H500 H 0.81179 0.88342 0.70688
 H501 H 0.76180 0.87899 0.65614
 Cu502 Cu 0.83209 0.84199 0.68064
 Cu503 Cu 0.79221 0.83807 0.64187
 Cu504 Cu 0.84705 0.82271 0.63132
 N505 N 0.85993 0.82604 0.67669
 N506 N 0.86599 0.81910 0.65721
 C507 C 0.88609 0.80923 0.65884
 C508 C 0.89280 0.80975 0.68053
 C509 C 0.87585 0.82056 0.69146
 H510 H 0.89488 0.80176 0.64533
 H511 H 0.87514 0.82411 0.70880
 N512 N 0.82206 0.81873 0.61017
 N513 N 0.80092 0.82336 0.61485
 C514 C 0.78750 0.81653 0.59843
 C515 C 0.80090 0.80727 0.58259
 C516 C 0.82271 0.80899 0.59045
 H517 H 0.76934 0.81798 0.59816
 H518 H 0.83776 0.80262 0.58291
 H519 H 0.81996 0.81853 0.65077
 H520 H 0.82478 0.84638 0.64152
 N521 N 0.69107 0.62517 0.66404
 N522 N 0.67506 0.62609 0.67873
 C523 C 0.67822 0.61035 0.69323
 C524 C 0.69737 0.59916 0.68745
 C525 C 0.70519 0.60895 0.66885
 H526 H 0.66763 0.60740 0.70717
 H527 H 0.71975 0.60439 0.65932
 Cu528 Cu 0.65223 0.64831 0.67773
 Cu529 Cu 0.69088 0.64421 0.63898
 Cu530 Cu 0.65978 0.69106 0.64649
 N531 N 0.62922 0.67023 0.67541
 N532 N 0.63260 0.68770 0.66423
 C533 C 0.61517 0.70126 0.66762
 C534 C 0.60003 0.69141 0.68131
 C535 C 0.60942 0.67178 0.68579
 H536 H 0.61368 0.71701 0.66072
 H537 H 0.60268 0.65988 0.69654
 N538 N 0.68238 0.68716 0.62296
 N539 N 0.69340 0.66904 0.61979
 C540 C 0.70598 0.67054 0.60171
 C541 C 0.70290 0.69054 0.59305
 C542 C 0.68790 0.70078 0.60691
 H543 H 0.71650 0.65793 0.59515
 H544 H 0.68087 0.71659 0.60496
 H545 H 0.68187 0.66819 0.65953
 H546 H 0.65912 0.65927 0.64041
 N547 N 0.70374 0.14288 0.16674
 N548 N 0.68973 0.14188 0.18325
 C549 C 0.69378 0.12395 0.19449
 C550 C 0.71110 0.11303 0.18433
 C551 C 0.71710 0.12544 0.16679
 H552 H 0.68459 0.11908 0.20878
 H553 H 0.73024 0.12214 0.15506
 Cu554 Cu 0.66680 0.16357 0.18824
 Cu555 Cu 0.70306 0.16698 0.14672
 Cu556 Cu 0.64823 0.18493 0.14142
 N557 N 0.63935 0.18047 0.18723
 N558 N 0.63171 0.18792 0.16854
 C559 C 0.61190 0.19779 0.17185
 C560 C 0.60708 0.19681 0.19384
 C561 C 0.62481 0.18570 0.20325
 H562 H 0.60197 0.20547 0.15923
 H563 H 0.62681 0.18148 0.22027
 N564 N 0.67153 0.18999 0.11938
 N565 N 0.69290 0.18465 0.12214
 C566 C 0.70516 0.19360 0.10628
 C567 C 0.69064 0.20494 0.09288
 C568 C 0.66951 0.20219 0.10152
 H569 H 0.72327 0.19236 0.10491
 H570 H 0.65405 0.20976 0.09610
 H571 H 0.67746 0.18754 0.15909
 H572 H 0.67032 0.16040 0.14845
 N573 N 0.19388 0.62894 0.17585
 N574 N 0.17898 0.62831 0.19162
 C575 C 0.18266 0.61076 0.20368
 C576 C 0.20063 0.59972 0.19477
 C577 C 0.20732 0.61162 0.17710
 H578 H 0.17298 0.60630 0.21780
 H579 H 0.22135 0.60828 0.16640
 Cu580 Cu 0.15623 0.65047 0.19496
 Cu581 Cu 0.19595 0.65323 0.15633
 Cu582 Cu 0.14888 0.68620 0.15481
 N583 N 0.12945 0.66840 0.19330
 N584 N 0.12721 0.68308 0.17824
 C585 C 0.10815 0.69427 0.18187
 C586 C 0.09771 0.68578 0.19985
 C587 C 0.11155 0.66932 0.20667
 H588 H 0.10222 0.70748 0.17211
 H589 H 0.10911 0.65926 0.22070
 N590 N 0.17278 0.68695 0.13269
 N591 N 0.19127 0.67519 0.13381
 C592 C 0.20478 0.68022 0.11702
 C593 C 0.19401 0.69561 0.10467
 C594 C 0.17381 0.69942 0.11496
 H595 H 0.22096 0.67293 0.11372
 H596 H 0.16098 0.71074 0.11001
 H597 H 0.17645 0.67610 0.17228
 H598 H 0.16156 0.65521 0.15593
 N599 N 0.20299 0.13190 0.67603
 N600 N 0.18685 0.12951 0.69042
 C601 C 0.19083 0.11153 0.70176
 C602 C 0.21030 0.10214 0.69372
 C603 C 0.21754 0.11548 0.67747
 H604 H 0.17999 0.10535 0.71429
 H605 H 0.23218 0.11328 0.66726
 Cu606 Cu 0.16126 0.14937 0.69153
 Cu607 Cu 0.20343 0.15572 0.65578
 Cu608 Cu 0.14916 0.16965 0.64232
 N609 N 0.13467 0.16753 0.68685
 N610 N 0.12938 0.17379 0.66698
 C611 C 0.11081 0.18600 0.66762
 C612 C 0.10433 0.18818 0.68906
 C613 C 0.11969 0.17611 0.70102
 H614 H 0.10359 0.19410 0.65363
 H615 H 0.12040 0.17436 0.71860
 N616 N 0.17487 0.17571 0.62352
 N617 N 0.19594 0.17198 0.62942
 C618 C 0.20973 0.18242 0.61589
 C619 C 0.19649 0.19335 0.60096
 C620 C 0.17459 0.18853 0.60607
 H621 H 0.22784 0.18315 0.61772
 H622 H 0.15954 0.19555 0.59901
 H623 H 0.17471 0.17386 0.66411
 H624 H 0.17152 0.14629 0.65277
 N625 N 0.31227 0.63314 0.31961
 N626 N 0.33055 0.62795 0.30874
 C627 C 0.32814 0.60836 0.30002
 C628 C 0.30702 0.60110 0.30521
 C629 C 0.29722 0.61723 0.31754
 H630 H 0.34053 0.60022 0.29006
 H631 H 0.28070 0.61720 0.32485
 Cu632 Cu 0.35463 0.64813 0.30463
 Cu633 Cu 0.31043 0.65988 0.33625
 Cu634 Cu 0.36188 0.68542 0.34312
 N635 N 0.37767 0.66962 0.30188
 N636 N 0.38005 0.68485 0.31662
 C637 C 0.39647 0.69808 0.31025
 C638 C 0.40474 0.69058 0.29050
 C639 C 0.39253 0.67248 0.28572
 H640 H 0.40199 0.71201 0.31932
 H641 H 0.39401 0.66248 0.27128
 N642 N 0.33651 0.68953 0.36320
 N643 N 0.31650 0.68095 0.35988
 C644 C 0.30276 0.68709 0.37626
 C645 C 0.31489 0.69985 0.39061
 C646 C 0.33617 0.70105 0.38187
 H647 H 0.28558 0.68186 0.37816
 H648 H 0.35037 0.70963 0.38866
 H649 H 0.33613 0.67826 0.32290
 H650 H 0.34409 0.65648 0.34209
 N651 N 0.31569 0.11384 0.84166
 N652 N 0.32419 0.11622 0.82207
 C653 C 0.31529 0.10156 0.80839
 C654 C 0.30052 0.08933 0.82019
 C655 C 0.30130 0.09738 0.84127
 H656 H 0.31902 0.10008 0.79115
 H657 H 0.29159 0.09218 0.85510
 Cu658 Cu 0.34590 0.13837 0.81649
 Cu659 Cu 0.32312 0.13318 0.86561
 Cu660 Cu 0.34624 0.18119 0.84966
 N661 N 0.36970 0.15923 0.81514
 N662 N 0.36951 0.17654 0.82747
 C663 C 0.38713 0.18879 0.82204
 C664 C 0.39903 0.17830 0.80573
 C665 C 0.38755 0.15962 0.80181
 H666 H 0.39104 0.20404 0.82949
 H667 H 0.39164 0.14743 0.78982
 N668 N 0.32950 0.17789 0.87725
 N669 N 0.32216 0.15917 0.88370
 C670 C 0.31115 0.16163 0.90263
 C671 C 0.31129 0.18289 0.90837
 C672 C 0.32315 0.19287 0.89202
 H673 H 0.30244 0.14904 0.91096
 H674 H 0.32637 0.20973 0.89065
 H675 H 0.32257 0.15708 0.84318
 H676 H 0.35093 0.15010 0.85445
 N677 N 0.81775 0.63243 0.80913
 N678 N 0.83245 0.63959 0.79507
 C679 C 0.83529 0.62508 0.77895
 C680 C 0.82131 0.60813 0.78292
 C681 C 0.81035 0.61328 0.80215
 H682 H 0.84605 0.62705 0.76494
 H683 H 0.79785 0.60386 0.81033
 Cu684 Cu 0.84504 0.66787 0.79802
 Cu685 Cu 0.80944 0.64863 0.83531
 Cu686 Cu 0.83806 0.69588 0.84464
 N687 N 0.86343 0.69243 0.80492
 N688 N 0.86118 0.70304 0.82345
 C689 C 0.87656 0.71871 0.82430
 C690 C 0.88885 0.71791 0.80520
 C691 C 0.88008 0.70110 0.79325
 H692 H 0.87858 0.72992 0.83773
 H693 H 0.88570 0.69535 0.77746
 N694 N 0.81403 0.68571 0.86400
 N695 N 0.80360 0.66741 0.86079
 C696 C 0.78836 0.66484 0.87675
 C697 C 0.78902 0.68249 0.89040
 C698 C 0.80540 0.69543 0.88185
 H699 H 0.77710 0.65146 0.87802
 H700 H 0.81053 0.71083 0.88815
 H701 H 0.81647 0.67892 0.82435
 H702 H 0.84024 0.66373 0.83717
 N703 N 0.79632 0.13998 0.33334
 N704 N 0.81086 0.13848 0.31726
 C705 C 0.80586 0.12132 0.30479
 C706 C 0.78738 0.11148 0.31375
 C707 C 0.78173 0.12372 0.33181
 H708 H 0.81519 0.11617 0.29054
 H709 H 0.76800 0.12107 0.34296
 Cu710 Cu 0.83539 0.15872 0.31461
 Cu711 Cu 0.79754 0.16315 0.35482
 Cu712 Cu 0.85242 0.17924 0.36284
 N713 N 0.86303 0.17509 0.31717
 N714 N 0.86983 0.18244 0.33633
 C715 C 0.88949 0.19254 0.33400
 C716 C 0.89521 0.19178 0.31219
 C717 C 0.87809 0.18056 0.30185
 H718 H 0.89865 0.20034 0.34716
 H719 H 0.87669 0.17673 0.28460
 N720 N 0.82857 0.18404 0.38457
 N721 N 0.80727 0.17924 0.38088
 C722 C 0.79466 0.18721 0.39729
 C723 C 0.80886 0.19740 0.41201
 C724 C 0.83019 0.19499 0.40354
 H725 H 0.77654 0.18600 0.39824
 H726 H 0.84556 0.20180 0.41005
 H727 H 0.82409 0.18275 0.34423
 H728 H 0.83017 0.15522 0.35407
 N729 N 0.70321 0.36978 0.32098
 N730 N 0.68902 0.36586 0.30484
 C731 C 0.69191 0.38014 0.28894
 C732 C 0.70894 0.39367 0.29527
 C733 C 0.71590 0.38672 0.31572
 H734 H 0.68213 0.38091 0.27396
 H735 H 0.72850 0.39391 0.32628
 Cu736 Cu 0.66733 0.34318 0.30629
 Cu737 Cu 0.70163 0.35377 0.34825
 Cu738 Cu 0.67403 0.30492 0.34340
 N739 N 0.64491 0.32145 0.31004
 N740 N 0.64797 0.30544 0.32347
 C741 C 0.63059 0.29180 0.32107
 C742 C 0.61580 0.30024 0.30570
 C743 C 0.62536 0.31901 0.29921
 H744 H 0.62856 0.27729 0.33022
 H745 H 0.61867 0.32992 0.28716
 N746 N 0.69410 0.31246 0.36834
 N747 N 0.70362 0.33134 0.37063
 C748 C 0.71453 0.33218 0.39003
 C749 C 0.71188 0.31293 0.40036
 C750 C 0.69894 0.30073 0.38616
 H751 H 0.72381 0.34577 0.39620
 H752 H 0.69292 0.28477 0.38891
 H753 H 0.69613 0.32730 0.33007
 H754 H 0.67109 0.33722 0.34537
 N755 N 0.68655 0.86327 0.82751
 N756 N 0.67130 0.86903 0.81296
 C757 C 0.67756 0.88746 0.80387
 C758 C 0.69765 0.89366 0.81343
 C759 C 0.70290 0.87802 0.82841
 H760 H 0.66855 0.89548 0.79086
 H761 H 0.71799 0.87689 0.83838
 Cu762 Cu 0.64551 0.85131 0.80609
 Cu763 Cu 0.68527 0.83587 0.84204
 Cu764 Cu 0.63354 0.81061 0.83891
 N765 N 0.62307 0.83026 0.79794
 N766 N 0.61861 0.81399 0.81053
 C767 C 0.60236 0.80213 0.80093
 C768 C 0.59638 0.81165 0.78137
 C769 C 0.60978 0.82944 0.78002
 H770 H 0.59520 0.78793 0.80784
 H771 H 0.60986 0.84090 0.76693
 N772 N 0.65654 0.80389 0.86128
 N773 N 0.67673 0.81257 0.86158
 C774 C 0.68891 0.80416 0.87810
 C775 C 0.67561 0.78975 0.88884
 C776 C 0.65519 0.78998 0.87783
 H777 H 0.70588 0.80875 0.88252
 H778 H 0.64052 0.78060 0.88152
 H779 H 0.66143 0.81943 0.82299
 H780 H 0.65127 0.83925 0.84369
 N781 N 0.18461 0.36832 0.83466
 N782 N 0.17678 0.36301 0.81517
 C783 C 0.18173 0.37866 0.80101
 C784 C 0.19303 0.39453 0.81255
 C785 C 0.19433 0.38750 0.83379
 H786 H 0.17754 0.37849 0.78375
 H787 H 0.20254 0.39537 0.84749
 Cu788 Cu 0.16052 0.33626 0.81095
 Cu789 Cu 0.18343 0.34962 0.85959
 Cu790 Cu 0.16837 0.29787 0.84823
 N791 N 0.14025 0.31188 0.81256
 N792 N 0.14301 0.29734 0.82774
 C793 C 0.12614 0.28321 0.82631
 C794 C 0.11220 0.28902 0.80917
 C795 C 0.12166 0.30721 0.80064
 H796 H 0.12418 0.26971 0.83696
 H797 H 0.11512 0.31669 0.78731
 N798 N 0.18647 0.30572 0.87405
 N799 N 0.19118 0.32575 0.87885
 C800 C 0.20431 0.32639 0.89686
 C801 C 0.20809 0.30580 0.90366
 C802 C 0.19645 0.29301 0.88894
 H803 H 0.21151 0.34072 0.90388
 H804 H 0.19577 0.27579 0.88871
 H805 H 0.18748 0.32447 0.83863
 H806 H 0.15859 0.32830 0.85001
 N807 N 0.17499 0.87630 0.33082
 N808 N 0.16688 0.87202 0.31117
 C809 C 0.17079 0.88877 0.29808
 C810 C 0.18166 0.90429 0.31046
 C811 C 0.18380 0.89592 0.33112
 H812 H 0.16644 0.88945 0.28087
 H813 H 0.19229 0.90308 0.34507
 Cu814 Cu 0.15214 0.84481 0.30515
 Cu815 Cu 0.17601 0.85560 0.35417
 Cu816 Cu 0.16580 0.80403 0.33778
 N817 N 0.13418 0.81877 0.30534
 N818 N 0.13953 0.80312 0.31863
 C819 C 0.12370 0.78800 0.31736
 C820 C 0.10765 0.79432 0.30235
 C821 C 0.11480 0.81386 0.29480
 H822 H 0.12360 0.77369 0.32707
 H823 H 0.10598 0.82419 0.28350
 N824 N 0.18318 0.81092 0.36413
 N825 N 0.18597 0.83069 0.37108
 C826 C 0.19802 0.83047 0.38981
 C827 C 0.20297 0.80954 0.39477
 C828 C 0.19330 0.79751 0.37819
 H829 H 0.20326 0.84449 0.39889
 H830 H 0.19351 0.78034 0.37650
 H831 H 0.18151 0.83337 0.33067
 H832 H 0.15296 0.83327 0.34326
 C833 C 0.23170 1.05031 0.27514
 C834 C 0.24775 1.05988 0.26194
 C835 C 0.26038 1.04794 0.24698
 C836 C 0.25609 1.02605 0.24408
 C837 C 0.23973 1.01611 0.25717
 C838 C 0.22763 1.02824 0.27291
 C839 C 0.21164 1.01804 0.28584
 C840 C 0.20827 0.99614 0.28397
 C841 C 0.22077 0.98365 0.26909
 C842 C 0.23593 0.99390 0.25492
 C843 C 0.26783 1.01388 0.22846
 C844 C 0.26350 0.99223 0.22569
 C845 C 0.24762 0.98196 0.23877
 C846 C 0.24362 0.95990 0.23652
 C847 C 0.22954 0.94976 0.25133
 C848 C 0.21845 0.96121 0.26792
 H849 H 0.20156 1.02695 0.29748
 H850 H 0.19543 0.98920 0.29404
 H851 H 0.28032 1.02109 0.21813
 H852 H 0.27313 0.98352 0.21356
 H853 H 0.25161 1.07658 0.26445
 H854 H 0.22761 0.93265 0.25013
 C855 C 0.22752 0.45105 0.76747
 C856 C 0.24147 0.44022 0.75262
 C857 C 0.25486 0.45128 0.73785
 C858 C 0.25304 0.47370 0.73675
 C859 C 0.23899 0.48491 0.75159
 C860 C 0.22618 0.47359 0.76699
 C861 C 0.21244 0.48511 0.78160
 C862 C 0.21213 0.50730 0.78177
 C863 C 0.22476 0.51886 0.76667
 C864 C 0.23820 0.50754 0.75136
 C865 C 0.26520 0.48520 0.72125
 C866 C 0.26423 0.50732 0.72086
 C867 C 0.25078 0.51879 0.73573
 C868 C 0.24976 0.54125 0.73536
 C869 C 0.23724 0.55229 0.75115
 C870 C 0.22438 0.54144 0.76654
 H871 H 0.20173 0.47714 0.79309
 H872 H 0.20197 0.51525 0.79400
 H873 H 0.27547 0.47719 0.70912
 H874 H 0.27446 0.51534 0.70897
 H875 H 0.24356 0.42314 0.75403
 H876 H 0.23606 0.56949 0.75031
 C877 C 0.76085 -0.03571 0.26393
 C878 C 0.75003 -0.04688 0.24695
 C879 C 0.73908 -0.03619 0.22984
 C880 C 0.73853 -0.01361 0.22990
 C881 C 0.74838 -0.00219 0.24765
 C882 C 0.75916 -0.01330 0.26490
 C883 C 0.76815 -0.00175 0.28271
 C884 C 0.76692 0.02040 0.28342
 C885 C 0.75698 0.03177 0.26615
 C886 C 0.74798 0.02041 0.24792
 C887 C 0.72823 -0.00214 0.21283
 C888 C 0.72871 0.02008 0.21263
 C889 C 0.73878 0.03161 0.22988
 C890 C 0.73949 0.05409 0.22982
 C891 C 0.74793 0.06505 0.24814
 C892 C 0.75627 0.05425 0.26638
 H893 H 0.77594 -0.00980 0.29644
 H894 H 0.77428 0.02854 0.29741
 H895 H 0.71970 -0.01017 0.19944
 H896 H 0.72072 0.02815 0.19903
 H897 H 0.75176 -0.06406 0.24604
 H898 H 0.74800 0.08230 0.24820
 C899 C 0.74989 0.54684 0.72103
 C900 C 0.76716 0.55917 0.73016
 C901 C 0.78535 0.54976 0.74116
 C902 C 0.78644 0.52742 0.74331
 C903 C 0.76931 0.51469 0.73377
 C904 C 0.75119 0.52441 0.72226
 C905 C 0.73484 0.51147 0.71221
 C906 C 0.73565 0.48943 0.71436
 C907 C 0.75262 0.47959 0.72694
 C908 C 0.76986 0.49226 0.73637
 C909 C 0.80387 0.51756 0.75524
 C910 C 0.80409 0.49556 0.75826
 C911 C 0.78702 0.48268 0.74926
 C912 C 0.78649 0.46050 0.75314
 C913 C 0.76976 0.44810 0.74303
 C914 C 0.75259 0.45741 0.73047
 H915 H 0.72136 0.51828 0.70244
 H916 H 0.72277 0.48016 0.70611
 H917 H 0.81726 0.52685 0.76267
 H918 H 0.81784 0.48868 0.76762
 H919 H 0.76605 0.57638 0.72942
 H920 H 0.76869 0.43132 0.74685
 C921 C 0.25605 0.45474 0.27817
 C922 C 0.24373 0.44324 0.26240
 C923 C 0.23124 0.45364 0.24606
 C924 C 0.23023 0.47616 0.24593
 C925 C 0.24206 0.48797 0.26213
 C926 C 0.25452 0.47722 0.27857
 C927 C 0.26561 0.48926 0.29485
 C928 C 0.26616 0.51137 0.29386
 C929 C 0.25550 0.52225 0.27663
 C930 C 0.24251 0.51056 0.26118
 C931 C 0.21791 0.48719 0.22981
 C932 C 0.21829 0.50939 0.22893
 C933 C 0.23099 0.52132 0.24412
 C934 C 0.23260 0.54373 0.24262
 C935 C 0.24569 0.55501 0.25793
 C936 C 0.25786 0.54449 0.27438
 H937 H 0.27405 0.48165 0.30849
 H938 H 0.27503 0.51990 0.30674
 H939 H 0.20791 0.47873 0.21770
 H940 H 0.20862 0.51713 0.21614
 H941 H 0.24575 0.42609 0.26141
 H942 H 0.24813 0.57193 0.25569
 C943 C 0.73709 0.94714 0.76975
 C944 C 0.74417 0.93545 0.75145
 C945 C 0.75374 0.94544 0.73350
 C946 C 0.75697 0.96766 0.73393
 C947 C 0.74943 0.97978 0.75216
 C948 C 0.73918 0.96952 0.77003
 C949 C 0.73083 0.98192 0.78745
 C950 C 0.73279 1.00403 0.78743
 C951 C 0.74373 1.01443 0.77029
 C952 C 0.75218 1.00219 0.75253
 C953 C 0.76785 0.97800 0.71675
 C954 C 0.77131 0.99993 0.71750
 C955 C 0.76365 1.01227 0.73528
 C956 C 0.76707 1.03449 0.73614
 C957 C 0.75758 1.04651 0.75316
 C958 C 0.74618 1.03679 0.77027
 H959 H 0.72234 0.97464 0.80104
 H960 H 0.72560 1.01288 0.80098
 H961 H 0.77409 0.96918 0.70273
 H962 H 0.77967 1.00719 0.70383
 H963 H 0.74213 0.91831 0.75113
 H964 H 0.76049 1.06352 0.75398
 C965 C 0.78922 0.45576 0.24434
 C966 C 0.77289 0.44306 0.25401
 C967 C 0.75317 0.45198 0.26249
 C968 C 0.74996 0.47426 0.26208
 C969 C 0.76637 0.48732 0.25233
 C970 C 0.78597 0.47800 0.24318
 C971 C 0.80154 0.49107 0.23268
 C972 C 0.79795 0.51302 0.23136
 C973 C 0.77894 0.52267 0.24094
 C974 C 0.76302 0.50969 0.25151
 C975 C 0.73070 0.48376 0.27118
 C976 C 0.72766 0.50574 0.27082
 C977 C 0.74383 0.51902 0.26145
 C978 C 0.74117 0.54140 0.26169
 C979 C 0.75639 0.55394 0.25024
 C980 C 0.77523 0.54492 0.23998
 H981 H 0.81650 0.48437 0.22521
 H982 H 0.81020 0.52233 0.22270
 H983 H 0.71790 0.47431 0.27890
 H984 H 0.71226 0.51217 0.27762
 H985 H 0.77517 0.42592 0.25413
 H986 H 0.75454 0.57111 0.25064
 C987 C 0.24097 0.04132 0.73598
 C988 C 0.24956 0.05109 0.75492
 C989 C 0.25950 0.03916 0.77165
 C990 C 0.26123 0.01682 0.76946
 C991 C 0.25208 0.00660 0.75066
 C992 C 0.24177 0.01887 0.73392
 C993 C 0.23219 0.00835 0.71575
 C994 C 0.23319 -0.01377 0.71381
 C995 C 0.24408 -0.02617 0.72981
 C996 C 0.25342 -0.01592 0.74852
 C997 C 0.27255 0.00454 0.78523
 C998 C 0.27395 -0.01751 0.78310
 C999 C 0.26389 -0.02814 0.76523
 C1000 C 0.26441 -0.05063 0.76342
 C1001 C 0.25535 -0.06046 0.74474
 C1002 C 0.24531 -0.04861 0.72797
 H1003 H 0.22346 0.01712 0.70306
 H1004 H 0.22509 -0.02101 0.69971
 H1005 H 0.28076 0.01186 0.79924
 H1006 H 0.28333 -0.02605 0.79549
 H1007 H 0.24901 0.06829 0.75647
 H1008 H 0.25563 -0.07769 0.74343
 C1009 C 0.23730 0.26205 1.05074
 C1010 C 0.24883 0.24683 1.06317
 C1011 C 0.26295 0.23172 1.05329
 C1012 C 0.26653 0.23234 1.03052
 C1013 C 0.25547 0.24804 1.01781
 C1014 C 0.24084 0.26298 1.02797
 C1015 C 0.23001 0.27842 1.01510
 C1016 C 0.23336 0.27904 0.99259
 C1017 C 0.24764 0.26421 0.98214
 C1018 C 0.25849 0.24837 0.99482
 C1019 C 0.28107 0.21774 1.02021
 C1020 C 0.28374 0.21786 0.99760
 C1021 C 0.27197 0.23257 0.98452
 C1022 C 0.27340 0.23189 0.96142
 C1023 C 0.26322 0.24810 0.94913
 C1024 C 0.25081 0.26443 0.95925
 H1025 H 0.21892 0.29022 1.02238
 H1026 H 0.22420 0.29099 0.98343
 H1027 H 0.29057 0.20614 1.02953
 H1028 H 0.29543 0.20647 0.99057
 H1029 H 0.24540 0.24565 1.08050
 H1030 H 0.26456 0.24779 0.93147
 C1031 C 0.23345 0.75729 0.54044
 C1032 C 0.24451 0.74080 0.55151
 C1033 C 0.25750 0.72560 0.54020
 C1034 C 0.26041 0.72747 0.51733
 C1035 C 0.24864 0.74361 0.50587
 C1036 C 0.23445 0.75799 0.51735
 C1037 C 0.22146 0.77271 0.50544
 C1038 C 0.22376 0.77443 0.48291
 C1039 C 0.23929 0.76164 0.47151
 C1040 C 0.25140 0.74568 0.48294
 C1041 C 0.27522 0.71400 0.50571
 C1042 C 0.27822 0.71627 0.48325
 C1043 C 0.26662 0.73215 0.47159
 C1044 C 0.26980 0.73484 0.44887
 C1045 C 0.25743 0.75049 0.43777
 C1046 C 0.24271 0.76420 0.44887
 H1047 H 0.20910 0.78283 0.51335
 H1048 H 0.21312 0.78585 0.47455
 H1049 H 0.28507 0.70188 0.51391
 H1050 H 0.28966 0.70538 0.47509
 H1051 H 0.24335 0.73997 0.56916
 H1052 H 0.26049 0.75302 0.42054
 C1053 C 0.27143 0.75697 -0.04333
 C1054 C 0.25722 0.74321 -0.05511
 C1055 C 0.24277 0.72922 -0.04442
 C1056 C 0.24329 0.72825 -0.02127
 C1057 C 0.25794 0.74176 -0.00918
 C1058 C 0.27239 0.75579 -0.02027
 C1059 C 0.28736 0.76847 -0.00800
 C1060 C 0.28676 0.76876 0.01476
 C1061 C 0.27115 0.75639 0.02606
 C1062 C 0.25733 0.74206 0.01407
 C1063 C 0.22935 0.71425 -0.00986
 C1064 C 0.22874 0.71456 0.01296
 C1065 C 0.24210 0.72883 0.02519
 C1066 C 0.24045 0.73031 0.04823
 C1067 C 0.25416 0.74466 0.05986
 C1068 C 0.26890 0.75824 0.04903
 H1069 H 0.29971 0.77830 -0.01589
 H1070 H 0.29868 0.77880 0.02342
 H1071 H 0.21877 0.70292 -0.01848
 H1072 H 0.21765 0.70352 0.02094
 H1073 H 0.25574 0.74492 -0.07268
 H1074 H 0.25168 0.74673 0.07730
 C1075 C 0.23874 0.24850 0.46217
 C1076 C 0.25531 0.26019 0.45169
 C1077 C 0.27240 0.27047 0.46362
 C1078 C 0.27262 0.26943 0.48679
 C1079 C 0.25618 0.25717 0.49750
 C1080 C 0.23941 0.24644 0.48510
 C1081 C 0.22400 0.23343 0.49585
 C1082 C 0.22435 0.23181 0.51849
 C1083 C 0.23999 0.24328 0.53124
 C1084 C 0.25644 0.25562 0.52066
 C1085 C 0.28848 0.28066 0.49956
 C1086 C 0.28877 0.27911 0.52233
 C1087 C 0.27314 0.26635 0.53318
 C1088 C 0.27339 0.26443 0.55625
 C1089 C 0.25662 0.25261 0.56646
 C1090 C 0.23987 0.24229 0.55428
 H1091 H 0.21172 0.22408 0.48687
 H1092 H 0.21239 0.22117 0.52580
 H1093 H 0.30059 0.29108 0.49216
 H1094 H 0.30115 0.28831 0.53133
 H1095 H 0.25494 0.26116 0.43401
 H1096 H 0.25666 0.25136 0.58413
 C1097 C 0.74309 0.71913 0.94674
 C1098 C 0.72935 0.73339 0.93517
 C1099 C 0.71658 0.74895 0.94603
 C1100 C 0.71891 0.75152 0.96890
 C1101 C 0.73255 0.73708 0.98088
 C1102 C 0.74418 0.72041 0.96985
 C1103 C 0.75689 0.70578 0.98217
 C1104 C 0.75773 0.70724 1.00498
 C1105 C 0.74660 0.72386 1.01618
 C1106 C 0.73450 0.73929 1.00395
 C1107 C 0.70815 0.76837 0.98001
 C1108 C 0.71108 0.77121 1.00250
 C1109 C 0.72439 0.75697 1.01473
 C1110 C 0.72752 0.75976 1.03753
 C1111 C 0.73860 0.74389 1.04953
 C1112 C 0.74767 0.72575 1.03925
 H1113 H 0.76622 0.69302 0.97429
 H1114 H 0.76774 0.69558 1.01374
 H1115 H 0.69782 0.77981 0.97130
 H1116 H 0.70240 0.78443 1.01026
 H1117 H 0.72770 0.73162 0.91758
 H1118 H 0.74022 0.74569 1.06712
 C1119 C 0.72984 0.26995 0.55556
 C1120 C 0.74145 0.25453 0.56773
 C1121 C 0.75519 0.23929 0.55762
 C1122 C 0.75859 0.24011 0.53481
 C1123 C 0.74747 0.25596 0.52227
 C1124 C 0.73290 0.27085 0.53264
 C1125 C 0.72185 0.28626 0.51984
 C1126 C 0.72482 0.28685 0.49722
 C1127 C 0.73924 0.27228 0.48661
 C1128 C 0.75060 0.25664 0.49927
 C1129 C 0.77286 0.22543 0.52426
 C1130 C 0.77594 0.22609 0.50174
 C1131 C 0.76512 0.24165 0.48898
 C1132 C 0.76820 0.24236 0.46612
 C1133 C 0.75640 0.25745 0.45376
 C1134 C 0.74234 0.27266 0.46365
 H1135 H 0.71087 0.29807 0.52722
 H1136 H 0.71550 0.29874 0.48811
 H1137 H 0.78192 0.21335 0.53335
 H1138 H 0.78671 0.21407 0.49442
 H1139 H 0.73830 0.25328 0.58511
 H1140 H 0.75932 0.25820 0.43631
 C1141 C 0.76578 0.28332 -0.04611
 C1142 C 0.75858 0.26530 -0.05795
 C1143 C 0.74766 0.24854 -0.04769
 C1144 C 0.74248 0.25019 -0.02528
 C1145 C 0.75029 0.26786 -0.01289
 C1146 C 0.76256 0.28420 -0.02316
 C1147 C 0.77192 0.30050 -0.01009
 C1148 C 0.76852 0.30117 0.01246
 C1149 C 0.75529 0.28579 0.02272
 C1150 C 0.74613 0.26897 0.00992
 C1151 C 0.72954 0.23460 -0.01504
 C1152 C 0.72477 0.23609 0.00716
 C1153 C 0.73298 0.25310 0.01992
 C1154 C 0.72872 0.25435 0.04255
 C1155 C 0.73857 0.27051 0.05517
 C1156 C 0.75162 0.28631 0.04557
 H1157 H 0.78258 0.31254 -0.01697
 H1158 H 0.77658 0.31378 0.02174
 H1159 H 0.72270 0.22123 -0.02414
 H1160 H 0.71500 0.22349 0.01430
 H1161 H 0.76170 0.26413 -0.07536
 H1162 H 0.73529 0.27134 0.07258
 C1163 C 0.74185 0.76460 0.43703
 C1164 C 0.72961 0.74800 0.42745
 C1165 C 0.71970 0.73220 0.44014
 C1166 C 0.72182 0.73328 0.46324
 C1167 C 0.73514 0.74948 0.47307
 C1168 C 0.74513 0.76523 0.45992
 C1169 C 0.75830 0.78112 0.46994
 C1170 C 0.76201 0.78126 0.49250
 C1171 C 0.75256 0.76559 0.50582
 C1172 C 0.73848 0.74994 0.49612
 C1173 C 0.71058 0.71895 0.47683
 C1174 C 0.71367 0.71954 0.49944
 C1175 C 0.72806 0.73451 0.50935
 C1176 C 0.73197 0.73462 0.53220
 C1177 C 0.74584 0.75021 0.54156
 C1178 C 0.75665 0.76530 0.52865
 H1179 H 0.76610 0.79340 0.46034
 H1180 H 0.77214 0.79394 0.49941
 H1181 H 0.69889 0.70738 0.47025
 H1182 H 0.70445 0.70825 0.50911
 H1183 H 0.72780 0.74746 0.40980
 H1184 H 0.74962 0.74958 0.55892
 C1185 C 1.04500 0.23664 0.26518
 C1186 C 1.05476 0.25110 0.25094
 C1187 C 1.04172 0.26207 0.23544
 C1188 C 1.01853 0.25752 0.23320
 C1189 C 1.00850 0.24283 0.24752
 C1190 C 1.02178 0.23237 0.26353
 C1191 C 1.01154 0.21779 0.27753
 C1192 C 0.98841 0.21463 0.27679
 C1193 C 0.97474 0.22568 0.26179
 C1194 C 0.98502 0.23906 0.24630
 C1195 C 1.00515 0.26720 0.21697
 C1196 C 0.98222 0.26266 0.21507
 C1197 C 0.97181 0.24889 0.22984
 C1198 C 0.94855 0.24454 0.22854
 C1199 C 0.93841 0.23217 0.24459
 C1200 C 0.95107 0.22349 0.26180
 H1201 H 1.02133 0.20868 0.28920
 H1202 H 0.98142 0.20307 0.28779
 H1203 H 1.01242 0.27808 0.20540
 H1204 H 0.97265 0.27028 0.20215
 H1205 H 1.07235 0.25515 0.25315
 H1206 H 0.92031 0.23023 0.24416
 C1207 C 0.55397 0.22289 0.77407
 C1208 C 0.56523 0.23987 0.76434
 C1209 C 0.55338 0.25687 0.75507
 C1210 C 0.52967 0.25682 0.75482
 C1211 C 0.51801 0.23936 0.76371
 C1212 C 0.53017 0.22223 0.77316
 C1213 C 0.51821 0.20497 0.78165
 C1214 C 0.49473 0.20483 0.78139
 C1215 C 0.48236 0.22189 0.77251
 C1216 C 0.49413 0.23940 0.76378
 C1217 C 0.51737 0.27393 0.74599
 C1218 C 0.49395 0.27415 0.74643
 C1219 C 0.48208 0.25717 0.75550
 C1220 C 0.45839 0.25748 0.75633
 C1221 C 0.44692 0.24004 0.76463
 C1222 C 0.45852 0.22222 0.77260
 H1223 H 0.52692 0.19132 0.78843
 H1224 H 0.48642 0.19137 0.78858
 H1225 H 0.52578 0.28731 0.73869
 H1226 H 0.48523 0.28771 0.73946
 H1227 H 0.58339 0.24084 0.76563
 H1228 H 0.42869 0.24041 0.76496
 C1229 C -0.04411 0.25881 0.76305
 C1230 C -0.05582 0.24619 0.74776
 C1231 C -0.04439 0.23271 0.73315
 C1232 C -0.02060 0.23325 0.73253
 C1233 C -0.00853 0.24578 0.74801
 C1234 C -0.02030 0.25840 0.76351
 C1235 C -0.00797 0.27031 0.77906
 C1236 C 0.01551 0.26922 0.77982
 C1237 C 0.02748 0.25655 0.76475
 C1238 C 0.01539 0.24516 0.74838
 C1239 C -0.00860 0.22128 0.71694
 C1240 C 0.01480 0.22097 0.71704
 C1241 C 0.02714 0.23290 0.73254
 C1242 C 0.05093 0.23256 0.73278
 C1243 C 0.06265 0.24343 0.74934
 C1244 C 0.05127 0.25518 0.76545
 H1245 H -0.01636 0.28057 0.79080
 H1246 H 0.02423 0.27863 0.79213
 H1247 H -0.01719 0.21216 0.70432
 H1248 H 0.02305 0.21089 0.70507
 H1249 H -0.07400 0.24542 0.74866
 H1250 H 0.08088 0.24271 0.74971
 C1251 C 0.45948 0.26102 0.27430
 C1252 C 0.44698 0.24761 0.26047
 C1253 C 0.45759 0.23221 0.24736
 C1254 C 0.48116 0.22952 0.24874
 C1255 C 0.49391 0.24266 0.26310
 C1256 C 0.48295 0.25821 0.27618
 C1257 C 0.49577 0.27097 0.29050
 C1258 C 0.51916 0.26926 0.29103
 C1259 C 0.53051 0.25521 0.27677
 C1260 C 0.51775 0.24132 0.26322
 C1261 C 0.49234 0.21427 0.23580
 C1262 C 0.51575 0.21306 0.23580
 C1263 C 0.52874 0.22715 0.24864
 C1264 C 0.55240 0.22783 0.24666
 C1265 C 0.56492 0.24120 0.26061
 C1266 C 0.55426 0.25523 0.27529
 H1267 H 0.48777 0.28242 0.30134
 H1268 H 0.52826 0.27931 0.30250
 H1269 H 0.48306 0.20333 0.22536
 H1270 H 0.52360 0.20107 0.22549
 H1271 H 0.42912 0.25062 0.25826
 H1272 H 0.58291 0.24251 0.25823
 C1273 C 1.04161 0.74459 0.76288
 C1274 C 1.05475 0.75767 0.74973
 C1275 C 1.04482 0.77311 0.73629
 C1276 C 1.02109 0.77471 0.73502
 C1277 C 1.00773 0.76233 0.74906
 C1278 C 1.01807 0.74772 0.76354
 C1279 C 1.00466 0.73673 0.77846
 C1280 C 0.98142 0.73994 0.77896
 C1281 C 0.97075 0.75360 0.76398
 C1282 C 0.98395 0.76443 0.74851
 C1283 C 1.01037 0.78818 0.71988
 C1284 C 0.98695 0.78923 0.71842
 C1285 C 0.97342 0.77721 0.73238
 C1286 C 0.94963 0.77774 0.73076
 C1287 C 0.93684 0.76780 0.74687
 C1288 C 0.94716 0.75634 0.76377
 H1289 H 1.01210 0.72592 0.79021
 H1290 H 0.97181 0.73117 0.79079
 H1291 H 1.01999 0.79758 0.70859
 H1292 H 0.97959 0.79996 0.70657
 H1293 H 1.07290 0.75581 0.74997
 H1294 H 0.91864 0.76869 0.74613
 C1295 C 0.54967 0.74504 0.24196
 C1296 C 0.55900 0.76279 0.23198
 C1297 C 0.54545 0.77956 0.22434
 C1298 C 0.52192 0.77908 0.22793
 C1299 C 0.51231 0.76126 0.23835
 C1300 C 0.52624 0.74415 0.24527
 C1301 C 0.51646 0.72660 0.25550
 C1302 C 0.49327 0.72552 0.25825
 C1303 C 0.47906 0.74203 0.25101
 C1304 C 0.48867 0.76030 0.24143
 C1305 C 0.50774 0.79592 0.22140
 C1306 C 0.48453 0.79508 0.22462
 C1307 C 0.47466 0.77743 0.23464
 C1308 C 0.45109 0.77617 0.23762
 C1309 C 0.44190 0.75791 0.24685
 C1310 C 0.45550 0.74083 0.25339
 H1311 H 0.52669 0.71356 0.26156
 H1312 H 0.48661 0.71170 0.26633
 H1313 H 0.51450 0.81002 0.21392
 H1314 H 0.47439 0.80832 0.21894
 H1315 H 0.57688 0.76271 0.22864
 H1316 H 0.42383 0.75686 0.24874
 C1317 C 0.04416 0.75804 0.26505
 C1318 C 0.05395 0.74344 0.25051
 C1319 C 0.04074 0.73095 0.23640
 C1320 C 0.01718 0.73415 0.23568
 C1321 C 0.00706 0.74909 0.25018
 C1322 C 0.02057 0.76074 0.26523
 C1323 C 0.01018 0.77477 0.28012
 C1324 C -0.01314 0.77741 0.28013
 C1325 C -0.02682 0.76658 0.26484
 C1326 C -0.01662 0.75216 0.24984
 C1327 C 0.00355 0.72289 0.22073
 C1328 C -0.01965 0.72641 0.21992
 C1329 C -0.03001 0.74104 0.23428
 C1330 C -0.05347 0.74468 0.23356
 C1331 C -0.06346 0.75840 0.24889
 C1332 C -0.05046 0.76969 0.26426
 H1333 H 0.02000 0.78382 0.29192
 H1334 H -0.02028 0.78798 0.29235
 H1335 H 0.01078 0.71154 0.20929
 H1336 H -0.02946 0.71734 0.20813
 H1337 H 0.07196 0.74065 0.25137
 H1338 H -0.08139 0.76154 0.24776
 C1339 C 0.44588 0.73525 0.72347
 C1340 C 0.43541 0.74987 0.73759
 C1341 C 0.44784 0.76518 0.74918
 C1342 C 0.47116 0.76696 0.74550
 C1343 C 0.48198 0.75253 0.73097
 C1344 C 0.46931 0.73659 0.71997
 C1345 C 0.48040 0.72233 0.70577
 C1346 C 0.50370 0.72296 0.70340
 C1347 C 0.51674 0.73793 0.71505
 C1348 C 0.50566 0.75338 0.72827
 C1349 C 0.48398 0.78260 0.75636
 C1350 C 0.50714 0.78398 0.75304
 C1351 C 0.51828 0.76937 0.73923
 C1352 C 0.54182 0.77005 0.73652
 C1353 C 0.55268 0.75429 0.72411
 C1354 C 0.54056 0.73791 0.71375
 H1355 H 0.47113 0.71056 0.69636
 H1356 H 0.51133 0.71174 0.69209
 H1357 H 0.47611 0.79397 0.76739
 H1358 H 0.51634 0.79629 0.76175
 H1359 H 0.41776 0.74787 0.74138
 H1360 H 0.57088 0.75448 0.72309
 N1361 N 0.45276 0.29911 0.27455
 N1362 N 0.43841 0.31320 0.28280
 C1363 C 0.42506 0.30246 0.29648
 C1364 C 0.43150 0.28132 0.29635
 N1365 N 0.44893 0.27997 0.28255
 H1366 H 0.42374 0.26813 0.30463
 N1367 N 0.44105 0.76711 0.78792
 N1368 N 0.42554 0.77437 0.80152
 C1369 C 0.41171 0.78711 0.78983
 C1370 C 0.41931 0.78751 0.76851
 N1371 N 0.43771 0.77481 0.76807
 H1372 H 0.41122 0.79466 0.75441
 N1373 N -0.05551 0.26404 0.80078
 N1374 N -0.07140 0.27400 0.81206
 C1375 C -0.08312 0.28604 0.79774
 C1376 C -0.07400 0.28313 0.77724
 N1377 N -0.05669 0.26941 0.77991
 H1378 H -0.07997 0.28946 0.76181
 N1379 N -0.05475 0.80639 0.27664
 N1380 N -0.06939 0.81862 0.28718
 C1381 C -0.08570 0.80574 0.29445
 C1382 C -0.08068 0.78513 0.28793
 N1383 N -0.06109 0.78623 0.27701
 H1384 H -0.09077 0.77100 0.28987
 N1385 N 0.56254 0.70853 0.23616
 N1386 N 0.57862 0.69546 0.24309
 C1387 C 0.59067 0.70628 0.25829
 C1388 C 0.58154 0.72646 0.26048
 N1389 N 0.56395 0.72711 0.24651
 H1390 H 0.58705 0.73935 0.27109
 N1391 N 0.56201 0.20557 0.80863
 N1392 N 0.57908 0.19608 0.81873
 C1393 C 0.59517 0.19292 0.80364
 C1394 C 0.58758 0.20098 0.78401
 N1395 N 0.56669 0.20860 0.78775
 H1396 H 0.59704 0.20286 0.76910
 N1397 N 1.04625 0.70689 0.77020
 N1398 N 1.06080 0.69379 0.77970
 C1399 C 1.07639 0.70607 0.78969
 C1400 C 1.07110 0.72714 0.78594
 N1401 N 1.05208 0.72694 0.77380
 H1402 H 1.08070 0.74112 0.79051
 N1403 N 1.05300 0.23353 0.30399
 N1404 N 1.06795 0.22471 0.31730
 C1405 C 1.08291 0.21424 0.30460
 C1406 C 1.07681 0.21701 0.28296
 N1407 N 1.05795 0.22902 0.28339
 H1408 H 1.08512 0.21099 0.26844
 N1409 N 0.56575 0.29329 0.76059
 N1410 N 0.57986 0.30705 0.75201
 C1411 C 0.58890 0.29744 0.73428
 C1412 C 0.58001 0.27726 0.73225
 N1413 N 0.56557 0.27542 0.74894
 H1414 H 0.58399 0.26500 0.72029
 N1415 N 0.54837 0.79876 0.19017
 N1416 N 0.56369 0.80933 0.17911
 C1417 C 0.58118 0.81265 0.19288
 C1418 C 0.57621 0.80357 0.21268
 N1419 N 0.55548 0.79516 0.21041
 H1420 H 0.58742 0.80144 0.22657
 N1421 N 1.04553 0.29977 0.22777
 N1422 N 1.06054 0.31288 0.21945
 C1423 C 1.07682 0.30054 0.21065
 C1424 C 1.07139 0.27950 0.21379
 N1425 N 1.05167 0.27968 0.22441
 H1426 H 1.08143 0.26550 0.21001
 N1427 N 1.05682 0.80908 0.72843
 N1428 N 1.07376 0.81910 0.71924
 C1429 C 1.08718 0.80402 0.71029
 C1430 C 1.07799 0.78433 0.71436
 N1431 N 1.05895 0.78824 0.72562
 H1432 H 1.08489 0.76876 0.71042
 N1433 N 0.43820 0.69730 0.72109
 N1434 N 0.42178 0.68435 0.71493
 C1435 C 0.40569 0.69657 0.70560
 C1436 C 0.41272 0.71747 0.70623
 N1437 N 0.43319 0.71721 0.71587
 H1438 H 0.40355 0.73154 0.70106
 N1439 N 0.44828 0.22651 0.20902
 N1440 N 0.43198 0.21824 0.19678
 C1441 C 0.41775 0.20866 0.21056
 C1442 C 0.42570 0.21137 0.23167
 N1443 N 0.44488 0.22247 0.22995
 H1444 H 0.41784 0.20671 0.24678
 N1445 N -0.06440 0.74176 0.19517
 N1446 N -0.08063 0.73338 0.18288
 C1447 C -0.09401 0.72250 0.19646
 C1448 C -0.08557 0.72448 0.21748
 N1449 N -0.06702 0.73648 0.21591
 H1450 H -0.09238 0.71820 0.23244
 N1451 N -0.05050 0.19573 0.72290
 N1452 N -0.06609 0.18345 0.71390
 C1453 C -0.08290 0.19640 0.70721
 C1454 C -0.07716 0.21716 0.71246
 N1455 N -0.05664 0.21603 0.72206
 H1456 H -0.08720 0.23145 0.71038
 N1457 N 0.29477 0.45044 0.29027
 N1458 N 0.30812 0.43612 0.29947
 C1459 C 0.29496 0.41988 0.30554
 C1460 C 0.27297 0.42463 0.29962
 N1461 N 0.27359 0.44400 0.29026
 H1462 H 0.25833 0.41454 0.30074
 N1463 N 0.26596 -0.06142 0.80163
 N1464 N 0.27464 -0.07674 0.81387
 C1465 C 0.28681 -0.08947 0.80049
 C1466 C 0.28534 -0.08145 0.77955
 N1467 N 0.27238 -0.06378 0.78105
 H1468 H 0.29270 -0.08785 0.76471
 N1469 N 0.79900 0.45857 0.79091
 N1470 N 0.80796 0.44460 0.80457
 C1471 C 0.81439 0.42761 0.79244
 C1472 C 0.80919 0.43167 0.77077
 N1473 N 0.79960 0.45121 0.77053
 H1474 H 0.81057 0.42092 0.75687
 N1475 N 0.79828 -0.04196 0.27875
 N1476 N 0.80976 -0.05688 0.28926
 C1477 C 0.79481 -0.07185 0.29496
 C1478 C 0.77371 -0.06564 0.28764
 N1479 N 0.77664 -0.04686 0.27765
 H1480 H 0.75811 -0.07442 0.28825
 N1481 N 0.25385 0.54899 0.69672
 N1482 N 0.26414 0.56263 0.68391
 C1483 C 0.27620 0.57565 0.69711
 C1484 C 0.27291 0.56968 0.71853
 N1485 N 0.25904 0.55284 0.71749
 H1486 H 0.27977 0.57682 0.73332
 N1487 N 0.30033 1.05474 0.24357
 N1488 N 0.31371 1.06917 0.23499
 C1489 C 0.30049 1.08185 0.22261
 C1490 C 0.27862 1.07486 0.22388
 N1491 N 0.27927 1.05782 0.23698
 H1492 H 0.26357 1.08222 0.21718
 N1493 N 0.81229 0.56109 0.23787
 N1494 N 0.82201 0.57756 0.22853
 C1495 C 0.80661 0.58616 0.21483
 C1496 C 0.78709 0.57452 0.21609
 N1497 N 0.79139 0.55892 0.23051
 H1498 H 0.77101 0.57771 0.20825
 N1499 N 0.80404 1.03873 0.72021
 N1500 N 0.81568 1.05332 0.70975
 C1501 C 0.80107 1.06902 0.70458
 C1502 C 0.78011 1.06371 0.71224
 N1503 N 0.78265 1.04461 0.72180
 H1504 H 0.76497 1.07340 0.71230
 N1505 N 0.72253 0.54642 0.29666
 N1506 N 0.70908 0.56021 0.30667
 C1507 C 0.70307 0.57483 0.29170
 C1508 C 0.71329 0.56963 0.27215
 N1509 N 0.72514 0.55165 0.27590
 H1510 H 0.71297 0.57850 0.25705
 N1511 N 0.74691 1.04801 0.80854
 N1512 N 0.73926 1.06381 0.82100
 C1513 C 0.72612 1.07608 0.80808
 C1514 C 0.72591 1.06734 0.78728
 N1515 N 0.73895 1.04978 0.78834
 H1516 H 0.71778 1.07342 0.77268
 N1517 N 0.18695 0.55005 0.77984
 N1518 N 0.17632 0.56566 0.79025
 C1519 C 0.19213 0.57955 0.79713
 C1520 C 0.21288 0.57204 0.79047
 N1521 N 0.20892 0.55346 0.77987
 H1522 H 0.22896 0.57999 0.79173
 N1523 N 0.22648 1.05986 0.31339
 N1524 N 0.21923 1.07627 0.32524
 C1525 C 0.20976 1.09015 0.31116
 C1526 C 0.21144 1.08179 0.29029
 N1527 N 0.22184 1.06280 0.29240
 H1528 H 0.20692 1.08933 0.27500
 N1529 N 0.71277 0.44926 0.73205
 N1530 N 0.69872 0.43384 0.72646
 C1531 C 0.71082 0.41914 0.71537
 C1532 C 0.73284 0.42592 0.71438
 N1533 N 0.73325 0.44489 0.72484
 H1534 H 0.74721 0.41765 0.70747
 N1535 N 0.73759 -0.04591 0.19110
 N1536 N 0.72899 -0.06089 0.17816
 C1537 C 0.71652 -0.07355 0.19089
 C1538 C 0.71776 -0.06589 0.21213
 N1539 N 0.73087 -0.04849 0.21149
 H1540 H 0.71033 -0.07251 0.22664
 N1541 N 0.23037 0.44398 0.20745
 N1542 N 0.22263 0.42868 0.19441
 C1543 C 0.21018 0.41580 0.20691
 C1544 C 0.21056 0.42362 0.22811
 N1545 N 0.22320 0.44133 0.22769
 H1546 H 0.20313 0.41676 0.24251
 N1547 N 0.24110 -0.05690 0.68893
 N1548 N 0.23054 -0.07088 0.67615
 C1549 C 0.21816 -0.08312 0.68942
 C1550 C 0.22145 -0.07631 0.71065
 N1551 N 0.23569 -0.05985 0.70965
 H1552 H 0.21454 -0.08287 0.72545
 N1553 N 0.31176 0.27692 0.45519
 N1554 N 0.32391 0.28634 0.44009
 C1555 C 0.30931 0.29633 0.42658
 C1556 C 0.28778 0.29276 0.43383
 N1557 N 0.29005 0.28072 0.45185
 H1558 H 0.27203 0.29769 0.42633
 N1559 N 0.27900 0.79462 -0.04853
 N1560 N 0.28788 0.80741 -0.06315
 C1561 C 0.29627 0.79484 -0.07914
 C1562 C 0.29223 0.77387 -0.07393
 N1563 N 0.28160 0.77443 -0.05456
 H1564 H 0.29597 0.75970 -0.08350
 N1565 N 0.77102 0.32094 -0.05503
 N1566 N 0.78177 0.33265 -0.06950
 C1567 C 0.79388 0.31901 -0.08194
 C1568 C 0.79026 0.29863 -0.07468
 N1569 N 0.77607 0.30050 -0.05774
 H1570 H 0.79694 0.28386 -0.08131
 N1571 N 0.74003 0.80043 0.42255
 N1572 N 0.74846 0.81157 0.40631
 C1573 C 0.76388 0.79900 0.39638
 C1574 C 0.76465 0.77973 0.40703
 N1575 N 0.74961 0.78137 0.42333
 H1576 H 0.77451 0.76570 0.40292
 N1577 N 0.69141 0.28220 0.56147
 N1578 N 0.67941 0.29161 0.57703
 C1579 C 0.69413 0.29819 0.59255
 C1580 C 0.71553 0.29257 0.58604
 N1581 N 0.71314 0.28272 0.56649
 H1582 H 0.73110 0.29413 0.59525
 N1583 N 0.72654 0.79838 1.04235
 N1584 N 0.71942 0.81289 1.05664
 C1585 C 0.70873 0.80230 1.07252
 C1586 C 0.70956 0.78081 1.06758
 N1587 N 0.72065 0.77906 1.04853
 H1588 H 0.70310 0.76773 1.07701
 N1589 N 0.19810 0.27155 1.05622
 N1590 N 0.18538 0.28115 1.07109
 C1591 C 0.19953 0.29015 1.08578
 C1592 C 0.22133 0.28570 1.07961
 N1593 N 0.21970 0.27418 1.06098
 H1594 H 0.23673 0.28914 1.08853
 N1595 N 0.22764 0.79490 0.54825
 N1596 N 0.21766 0.80754 0.56265
 C1597 C 0.20716 0.79490 0.57697
 C1598 C 0.21112 0.77392 0.57095
 N1599 N 0.22376 0.77468 0.55273
 H1600 H 0.20559 0.75963 0.57901
 N1601 N 0.26471 0.68792 0.54669
 N1602 N 0.27449 0.67556 0.56145
 C1603 C 0.28349 0.68858 0.57682
 C1604 C 0.27887 0.70935 0.57112
 N1605 N 0.26731 0.70823 0.55211
 H1606 H 0.28317 0.72380 0.57999
 N1607 N 0.26558 0.19424 1.06280
 N1608 N 0.27363 0.18216 1.07873
 C1609 C 0.28470 0.19525 1.09268
 C1610 C 0.28317 0.21574 1.08492
 N1611 N 0.27126 0.21438 1.06617
 H1612 H 0.28945 0.23025 1.09241
 N1613 N 0.74930 0.68919 1.05228
 N1614 N 0.75845 0.67815 1.06850
 C1615 C 0.77218 0.69156 1.07955
 C1616 C 0.77116 0.71118 1.06962
 N1617 N 0.75681 0.70901 1.05260
 H1618 H 0.77930 0.72581 1.07476
 N1619 N 0.75696 0.20158 0.56597
 N1620 N 0.76441 0.18880 0.58157
 C1621 C 0.77541 0.20111 0.59630
 C1622 C 0.77445 0.22194 0.58930
 N1623 N 0.76296 0.22147 0.57020
 H1624 H 0.78093 0.23605 0.59745
 N1625 N 0.71148 0.69445 0.43428
 N1626 N 0.70102 0.68198 0.41992
 C1627 C 0.69131 0.69489 0.40503
 C1628 C 0.69611 0.71566 0.41070
 N1629 N 0.70857 0.71475 0.42919
 H1630 H 0.69161 0.72998 0.40191
 N1631 N 0.75085 0.21033 -0.05431
 N1632 N 0.74365 0.19569 -0.06841
 C1633 C 0.73096 0.20595 -0.08342
 C1634 C 0.73066 0.22739 -0.07820
 N1635 N 0.74313 0.22938 -0.05985
 H1636 H 0.72198 0.24019 -0.08659
 N1637 N 0.20339 0.72230 -0.05253
 N1638 N 0.19062 0.71482 -0.06866
 C1639 C 0.20461 0.70686 -0.08397
 C1640 C 0.22650 0.70975 -0.07674
 N1641 N 0.22498 0.71932 -0.05693
 H1642 H 0.24191 0.70641 -0.08550
 N1643 N 0.19923 0.24421 0.45242
 N1644 N 0.18652 0.23316 0.43858
 C1645 C 0.20059 0.22102 0.42645
 C1646 C 0.22240 0.22506 0.43312
 N1647 N 0.22074 0.23950 0.44944
 H1648 H 0.23787 0.21813 0.42696
 N1649 N 0.29425 0.44638 0.72894
 N1650 N 0.30795 0.43175 0.72068
 C1651 C 0.29495 0.41561 0.71346
 C1652 C 0.27273 0.42072 0.71767
 N1653 N 0.27304 0.44018 0.72721
 H1654 H 0.25804 0.41082 0.71530
 N1655 N 0.25006 0.95118 0.19811
 N1656 N 0.26034 0.93645 0.18606
 C1657 C 0.27069 0.92306 0.20010
 C1658 C 0.26637 0.92993 0.22117
 N1659 N 0.25357 0.94758 0.21918
 H1660 H 0.27172 0.92277 0.23640
 N1661 N 0.82805 0.44309 0.24486
 N1662 N 0.84074 0.42909 0.23412
 C1663 C 0.82846 0.42237 0.21673
 C1664 C 0.80791 0.43260 0.21713
 N1665 N 0.80838 0.44548 0.23480
 H1666 H 0.79343 0.42982 0.20663
 N1667 N 0.74909 0.93432 0.69546
 N1668 N 0.75598 0.91887 0.68213
 C1669 C 0.77107 0.90714 0.69350
 C1670 C 0.77322 0.91578 0.71421
 N1671 N 0.75935 0.93276 0.71469
 H1672 H 0.78331 0.90999 0.72777
 N1673 N 0.70970 0.55450 0.72099
 N1674 N 0.69527 0.56850 0.71273
 C1675 C 0.70697 0.58077 0.69895
 C1676 C 0.72909 0.57392 0.69904
 N1677 N 0.73004 0.55739 0.71289
 H1678 H 0.74325 0.58080 0.69067
 N1679 N 0.74168 0.06452 0.19155
 N1680 N 0.73498 0.08049 0.17897
 C1681 C 0.72119 0.09278 0.19124
 C1682 C 0.71957 0.08388 0.21163
 N1683 N 0.73248 0.06623 0.21117
 H1684 H 0.71088 0.09021 0.22581
 N1685 N 0.23127 0.55156 0.20372
 N1686 N 0.22358 0.56659 0.19048
 C1687 C 0.21110 0.58000 0.20283
 C1688 C 0.21140 0.57279 0.22408
 N1689 N 0.22402 0.55491 0.22390
 H1690 H 0.20418 0.58034 0.23842
 N1691 N 0.24243 0.05430 0.69866
 N1692 N 0.23506 0.07067 0.68706
 C1693 C 0.22088 0.08185 0.69998
 C1694 C 0.21976 0.07183 0.71991
 N1695 N 0.23335 0.05461 0.71837
 H1696 H 0.21094 0.07710 0.73444
 N1697 N 0.29681 0.54857 0.28583
 N1698 N 0.31052 0.56336 0.29364
 C1699 C 0.29767 0.58050 0.29845
 C1700 C 0.27556 0.57582 0.29324
 N1701 N 0.27574 0.55562 0.28554
 H1702 H 0.26110 0.58640 0.29372
 N1703 N 0.26201 0.04692 0.81087
 N1704 N 0.27264 0.06019 0.82436
 C1705 C 0.28608 0.07220 0.81188
 C1706 C 0.28334 0.06603 0.79036
 N1707 N 0.26834 0.05015 0.79046
 H1708 H 0.29128 0.07248 0.77601
 N1709 N 0.82193 0.56701 0.74232
 N1710 N 0.83195 0.58292 0.75289
 C1711 C 0.81768 0.58951 0.76866
 C1712 C 0.79859 0.57723 0.76743
 N1713 N 0.80198 0.56334 0.75091
 H1714 H 0.78325 0.57898 0.77674
 N1715 N 0.75399 0.06524 0.30468
 N1716 N 0.76151 0.08069 0.31771
 C1717 C 0.77603 0.09216 0.30585
 C1718 C 0.77721 0.08332 0.28517
 N1719 N 0.76334 0.06648 0.28515
 H1720 H 0.78645 0.08904 0.27125
 N1721 N 0.71583 0.43688 0.25885
 N1722 N 0.70373 0.42127 0.26696
 C1723 C 0.71627 0.41225 0.28292
 C1724 C 0.73657 0.42275 0.28432
 N1725 N 0.73550 0.43809 0.26910
 H1726 H 0.75089 0.41926 0.29480
 N1727 N 0.73823 0.93464 0.80737
 N1728 N 0.72842 0.92002 0.81948
 C1729 C 0.71167 0.91168 0.80715
 C1730 C 0.71150 0.92156 0.78715
 N1731 N 0.72821 0.93585 0.78798
 H1732 H 0.70115 0.91789 0.77294
 N1733 N 0.22073 0.44399 0.80588
 N1734 N 0.21189 0.42918 0.81833
 C1735 C 0.20300 0.41436 0.80475
 C1736 C 0.20674 0.42050 0.78347
 N1737 N 0.21763 0.43924 0.78492
 H1738 H 0.20266 0.41195 0.76850
 N1739 N 0.20967 0.95381 0.30592
 N1740 N 0.20016 0.93889 0.31775
 C1741 C 0.19132 0.92458 0.30358
 C1742 C 0.19571 0.93121 0.28260
 N1743 N 0.20708 0.94966 0.28476
 H1744 H 0.19204 0.92292 0.26737
 N1745 N 0.44593 0.29425 0.76061
 N1746 N 0.43115 0.30761 0.75183
 C1747 C 0.42133 0.29717 0.73492
 C1748 C 0.43039 0.27695 0.73360
 N1749 N 0.44573 0.27585 0.74984
 H1750 H 0.42596 0.26416 0.72239
 N1751 N 0.43683 0.81273 0.23950
 N1752 N 0.41910 0.82390 0.23278
 C1753 C 0.40660 0.81076 0.22007
 C1754 C 0.41720 0.79118 0.21919
 N1755 N 0.43608 0.79312 0.23136
 H1756 H 0.41146 0.77677 0.21110
 N1757 N 0.92562 0.24026 0.19576
 N1758 N 0.91126 0.25145 0.18372
 C1759 C 0.91123 0.27145 0.19198
 C1760 C 0.92605 0.27225 0.20947
 N1761 N 0.93478 0.25251 0.21111
 H1762 H 0.92933 0.28544 0.22057
 N1763 N 0.94445 0.78272 0.69151
 N1764 N 0.92953 0.79080 0.67761
 C1765 C 0.91324 0.79997 0.68975
 C1766 C 0.91860 0.79729 0.71157
 N1767 N 0.93833 0.78659 0.71197
 H1768 H 0.90885 0.80206 0.72569
 N1769 N 0.56205 0.29267 0.28128
 N1770 N 0.57817 0.30512 0.28902
 C1771 C 0.59410 0.29226 0.29764
 C1772 C 0.58733 0.27139 0.29483
 N1773 N 0.56709 0.27240 0.28471
 H1774 H 0.59663 0.25698 0.29863
 N1775 N 0.55630 0.80616 0.73799
 N1776 N 0.57097 0.81765 0.74942
 C1777 C 0.57918 0.80498 0.76535
 C1778 C 0.56916 0.78529 0.76333
 N1779 N 0.55497 0.78678 0.74613
 H1780 H 0.57215 0.77120 0.77303
 N1781 N 0.06236 0.25815 0.80373
 N1782 N 0.07875 0.26647 0.81585
 C1783 C 0.09135 0.27828 0.80239
 C1784 C 0.08224 0.27692 0.78159
 N1785 N 0.06408 0.26432 0.78317
 H1786 H 0.08876 0.28348 0.76664
 N1787 N 0.05873 0.76207 0.30202
 N1788 N 0.07584 0.77115 0.31243
 C1789 C 0.08654 0.78317 0.29767
 C1790 C 0.07556 0.78113 0.27779
 N1791 N 0.05822 0.76794 0.28129
 H1792 H 0.08039 0.78753 0.26215
 N1793 N 0.54826 0.70005 0.70890
 N1794 N 0.56389 0.68724 0.70071
 C1795 C 0.57894 0.69966 0.69065
 C1796 C 0.57205 0.72063 0.69297
 N1797 N 0.55269 0.72016 0.70434
 H1798 H 0.58075 0.73480 0.68785
 N1799 N 0.55521 0.22166 0.20752
 N1800 N 0.56946 0.21386 0.19296
 C1801 C 0.58712 0.20598 0.20430
 C1802 C 0.58334 0.20921 0.22636
 N1803 N 0.56307 0.21886 0.22764
 H1804 H 0.59439 0.20552 0.24000
 N1805 N 0.04703 0.69320 0.22965
 N1806 N 0.06241 0.68052 0.22071
 C1807 C 0.07690 0.69322 0.21024
 C1808 C 0.07002 0.71407 0.21307
 N1809 N 0.05123 0.71338 0.22516
 H1810 H 0.07864 0.72836 0.20816
 N1811 N 0.06010 0.22621 0.69460
 N1812 N 0.07393 0.21451 0.68256
 C1813 C 0.08645 0.20273 0.69649
 C1814 C 0.08000 0.20768 0.71760
 N1815 N 0.06333 0.22223 0.71561
 H1816 H 0.08663 0.20140 0.73279
 N1817 N 0.44639 0.70310 0.25122
 N1818 N 0.43277 0.68931 0.26051
 C1819 C 0.42226 0.69987 0.27685
 C1820 C 0.42976 0.72060 0.27728
 N1821 N 0.44491 0.72190 0.26113
 H1822 H 0.42421 0.73362 0.28770
 N1823 N 0.44729 0.18492 0.77236
 N1824 N 0.43138 0.17280 0.78064
 C1825 C 0.41922 0.18533 0.79423
 C1826 C 0.42811 0.20552 0.79404
 N1827 N 0.44571 0.20456 0.78033
 H1828 H 0.42196 0.21968 0.80236
 N1829 N 0.93463 0.75407 0.80154
 N1830 N 0.91899 0.74442 0.81310
 C1831 C 0.90756 0.73172 0.79905
 C1832 C 0.91658 0.73391 0.77847
 N1833 N 0.93347 0.74789 0.78078
 H1834 H 0.91133 0.72628 0.76332
 N1835 N 0.94551 0.21975 0.30096
 N1836 N 0.93093 0.21174 0.31481
 C1837 C 0.91506 0.20179 0.30269
 C1838 C 0.92036 0.20395 0.28085
 N1839 N 0.93967 0.21509 0.28050
 H1840 H 0.91090 0.19843 0.26670
 N1841 N 0.31271 0.26939 0.56673
 N1842 N 0.32472 0.27774 0.58300
 C1843 C 0.31003 0.28734 0.59668
 C1844 C 0.28860 0.28461 0.58833
 N1845 N 0.29102 0.27347 0.56954
 H1846 H 0.27279 0.28960 0.59549
 N1847 N 0.27569 0.79613 0.05382
 N1848 N 0.28318 0.80978 0.06876
 C1849 C 0.29038 0.79821 0.08592
 C1850 C 0.28701 0.77689 0.08106
 N1851 N 0.27800 0.77630 0.06073
 H1852 H 0.29012 0.76330 0.09144
 N1853 N 0.75698 0.32332 0.05741
 N1854 N 0.76762 0.33410 0.07311
 C1855 C 0.77857 0.31959 0.08546
 C1856 C 0.77432 0.29962 0.07693
 N1857 N 0.76100 0.30265 0.05937
 H1858 H 0.78041 0.28438 0.08274
 N1859 N 0.79475 0.77922 0.53202
 N1860 N 0.80728 0.79003 0.54627
 C1861 C 0.79349 0.79624 0.56256
 C1862 C 0.77215 0.78891 0.55792
 N1863 N 0.77359 0.77850 0.53864
 H1864 H 0.75728 0.79013 0.56800
 N1865 N 0.30893 0.72495 0.44278
 N1866 N 0.32159 0.71626 0.42730
 C1867 C 0.30746 0.70945 0.41136
 C1868 C 0.28570 0.71423 0.41753
 N1869 N 0.28735 0.72375 0.43732
 H1870 H 0.27032 0.71193 0.40819
 N1871 N 0.27826 0.19379 0.95541
 N1872 N 0.28804 0.18036 0.94161
 C1873 C 0.29919 0.19219 0.92704
 C1874 C 0.29588 0.21344 0.93227
 N1875 N 0.28292 0.21371 0.95028
 H1876 H 0.30193 0.22726 0.92373
 N1877 N 0.75037 0.68253 0.93477
 N1878 N 0.76203 0.67224 0.91951
 C1879 C 0.77453 0.68693 0.90931
 C1880 C 0.77015 0.70655 0.91873
 N1881 N 0.75516 0.70309 0.93464
 H1882 H 0.77645 0.72193 0.91392
 N1883 N 0.80629 0.22876 0.46077
 N1884 N 0.81776 0.21706 0.44651
 C1885 C 0.80277 0.20988 0.43153
 C1886 C 0.78174 0.21759 0.43695
 N1887 N 0.78465 0.22914 0.45541
 H1888 H 0.76605 0.21566 0.42803
 N1889 N 0.73670 0.30984 0.45361
 N1890 N 0.72929 0.32108 0.43674
 C1891 C 0.72075 0.30707 0.42205
 C1892 C 0.72312 0.28687 0.43045
 N1893 N 0.73298 0.28928 0.45026
 H1894 H 0.71903 0.27184 0.42258
 N1895 N 0.67790 0.75900 0.93748
 N1896 N 0.66631 0.76922 0.92217
 C1897 C 0.68149 0.77741 0.90837
 C1898 C 0.70279 0.77187 0.91563
 N1899 N 0.69979 0.76052 0.93391
 H1900 H 0.71880 0.77521 0.90811
 N1901 N 0.24526 0.30164 0.94943
 N1902 N 0.23403 0.31316 0.93490
 C1903 C 0.22275 0.29933 0.92189
 C1904 C 0.22750 0.27893 0.92876
 N1905 N 0.24143 0.28111 0.94608
 H1906 H 0.22125 0.26403 0.92211
 N1907 N 0.23500 0.80201 0.44354
 N1908 N 0.22469 0.81465 0.42936
 C1909 C 0.21598 0.80189 0.41360
 C1910 C 0.22131 0.78106 0.41844
 N1911 N 0.23296 0.78183 0.43736
 H1912 H 0.21707 0.76676 0.40929
 N1913 N 0.72989 0.69719 0.54179
 N1914 N 0.72279 0.68506 0.55787
 C1915 C 0.71271 0.69808 0.57254
 C1916 C 0.71391 0.71871 0.56497
 N1917 N 0.72459 0.71739 0.54562
 H1918 H 0.70806 0.73322 0.57286
 N1919 N 0.69154 0.23906 0.04682
 N1920 N 0.68079 0.22606 0.05999
 C1921 C 0.69612 0.21883 0.07457
 C1922 C 0.71663 0.22791 0.07010
 N1923 N 0.71303 0.24030 0.05258
 H1924 H 0.73238 0.22619 0.07896
 N1925 N 0.20086 0.72379 0.05499
 N1926 N 0.18792 0.71516 0.06998
 C1927 C 0.20180 0.70587 0.08466
 C1928 C 0.22374 0.70913 0.07827
 N1929 N 0.22238 0.72025 0.05957
 H1930 H 0.23910 0.70474 0.08681
 N1931 N 0.20061 0.23509 0.56240
 N1932 N 0.18854 0.22205 0.57438
 C1933 C 0.20328 0.20969 0.58545
 C1934 C 0.22482 0.21564 0.58010
 N1935 N 0.22236 0.23138 0.56550
 H1936 H 0.24065 0.20904 0.58589
   
