data_POSCAR
  _audit_creation_date              2014-09-24
  _audit_creation_method            'ToBaCCo'
  _symmetry_space_group_name_H-M    'P1'
  _symmetry_Int_Tables_number       1
  _symmetry_cell_setting            triclinic
  loop_
  _symmetry_equiv_pos_as_xyz
 x,y,z
_cell_length_a 102.4291
_cell_length_b 102.5303
_cell_length_c 102.5325
_cell_angle_alpha 89.995800
_cell_angle_beta 89.991400
_cell_angle_gamma 89.972300
loop_
  _atom_site_label
  _atom_site_type_symbol
  _atom_site_fract_x
  _atom_site_fract_y
  _atom_site_fract_z
C1 C 0.35447 0.33512 0.34504
 C2 C 0.34483 0.33509 0.35475
 C3 C 0.33528 0.34462 0.35482
 C4 C 0.33521 0.35430 0.34515
 C5 C 0.34473 0.35434 0.33559
 C6 C 0.35443 0.34468 0.33553
 C7 C 0.36470 0.32685 0.34234
 N8 N 0.37089 0.33115 0.33143
 C9 C 0.36466 0.34208 0.32722
 C10 C 0.34206 0.36460 0.32737
 N11 N 0.33114 0.37079 0.33168
 C12 C 0.32690 0.36452 0.34258
 C13 C 0.32704 0.34195 0.36508
 N14 N 0.33134 0.33101 0.37124
 C15 C 0.34224 0.32677 0.36495
 H16 H 0.36742 0.31833 0.34796
 H17 H 0.36713 0.34757 0.31855
 H18 H 0.34751 0.36715 0.31868
 H19 H 0.31841 0.36719 0.34827
 H20 H 0.31835 0.34739 0.36763
 H21 H 0.34792 0.31826 0.36759
 C22 C 0.35400 0.83503 -0.15545
 C23 C 0.34433 0.83504 -0.14577
 C24 C 0.33481 0.84459 -0.14575
 C25 C 0.33484 0.85429 -0.15541
 C26 C 0.34437 0.85428 -0.16490
 C27 C 0.35401 0.84455 -0.16493
 C28 C 0.36424 0.82677 -0.15808
 N29 N 0.37060 0.83096 -0.16903
 C30 C 0.36425 0.84193 -0.17319
 C31 C 0.34179 0.86455 -0.17312
 N32 N 0.33083 0.87092 -0.16894
 C33 C 0.32661 0.86455 -0.15801
 C34 C 0.32652 0.84198 -0.13552
 N35 N 0.33078 0.83106 -0.12930
 C36 C 0.34169 0.82677 -0.13553
 H37 H 0.36653 0.81820 -0.15241
 H38 H 0.36671 0.84778 -0.18160
 H39 H 0.34749 0.86684 -0.18168
 H40 H 0.31819 0.86701 -0.15217
 H41 H 0.31803 0.84765 -0.13281
 H42 H 0.34715 0.81808 -0.13302
 C43 C 0.85403 0.33528 -0.15561
 C44 C 0.84433 0.33530 -0.14595
 C45 C 0.83480 0.34485 -0.14598
 C46 C 0.83486 0.35453 -0.15565
 C47 C 0.84440 0.35450 -0.16512
 C48 C 0.85408 0.34481 -0.16509
 C49 C 0.86427 0.32701 -0.15821
 N50 N 0.87067 0.33121 -0.16913
 C51 C 0.86435 0.34219 -0.17331
 C52 C 0.84183 0.36474 -0.17338
 N53 N 0.83087 0.37113 -0.16923
 C54 C 0.82664 0.36480 -0.15828
 C55 C 0.82648 0.34224 -0.13578
 N56 N 0.83072 0.33133 -0.12953
 C57 C 0.84166 0.32704 -0.13571
 H58 H 0.86668 0.31858 -0.15238
 H59 H 0.86667 0.34788 -0.18186
 H60 H 0.84770 0.36717 -0.18178
 H61 H 0.81805 0.36711 -0.15262
 H62 H 0.81798 0.34791 -0.13310
 H63 H 0.84711 0.31836 -0.13319
 C64 C 0.85397 0.83503 0.34441
 C65 C 0.84431 0.83504 0.35411
 C66 C 0.83478 0.84460 0.35412
 C67 C 0.83482 0.85429 0.34446
 C68 C 0.84431 0.85425 0.33494
 C69 C 0.85397 0.84453 0.33492
 C70 C 0.86421 0.82676 0.34178
 N71 N 0.87054 0.83093 0.33081
 C72 C 0.86419 0.84189 0.32664
 C73 C 0.84170 0.86449 0.32669
 N74 N 0.83077 0.87088 0.33089
 C75 C 0.82659 0.86456 0.34186
 C76 C 0.82651 0.84200 0.36436
 N77 N 0.83077 0.83109 0.37059
 C78 C 0.84168 0.82679 0.36436
 H79 H 0.86650 0.81819 0.34746
 H80 H 0.86662 0.84772 0.31821
 H81 H 0.84753 0.86690 0.31825
 H82 H 0.81803 0.86687 0.34756
 H83 H 0.81803 0.84769 0.36707
 H84 H 0.84713 0.81811 0.36687
 C85 C 0.64626 0.66476 0.34442
 C86 C 0.65593 0.66464 0.35411
 C87 C 0.66543 0.65506 0.35404
 C88 C 0.66539 0.64545 0.34431
 C89 C 0.65584 0.64555 0.33478
 C90 C 0.64621 0.65528 0.33484
 C91 C 0.63606 0.67311 0.34185
 N92 N 0.62979 0.66892 0.33093
 C93 C 0.63596 0.65800 0.32660
 C94 C 0.65841 0.63534 0.32647
 N95 N 0.66932 0.62904 0.33069
 C96 C 0.67363 0.63520 0.34162
 C97 C 0.67373 0.65759 0.36428
 N98 N 0.66950 0.66847 0.37059
 C99 C 0.65859 0.67282 0.36440
 H100 H 0.63340 0.68158 0.34756
 H101 H 0.63341 0.65259 0.31791
 H102 H 0.65293 0.63290 0.31779
 H103 H 0.68212 0.63243 0.34726
 H104 H 0.68221 0.65188 0.36694
 H105 H 0.65316 0.68151 0.36697
 C106 C 0.64545 0.16506 -0.15594
 C107 C 0.65511 0.16511 -0.14624
 C108 C 0.66466 0.15558 -0.14619
 C109 C 0.66471 0.14591 -0.15587
 C110 C 0.65522 0.14588 -0.16538
 C111 C 0.64552 0.15555 -0.16543
 C112 C 0.63519 0.17328 -0.15860
 N113 N 0.62889 0.16908 -0.16957
 C114 C 0.63529 0.15814 -0.17372
 C115 C 0.65786 0.13563 -0.17360
 N116 N 0.66883 0.12930 -0.16940
 C117 C 0.67299 0.13568 -0.15845
 C118 C 0.67289 0.15822 -0.13592
 N119 N 0.66859 0.16914 -0.12973
 C120 C 0.65769 0.17339 -0.13601
 H121 H 0.63286 0.18185 -0.15292
 H122 H 0.63290 0.15229 -0.18214
 H123 H 0.65219 0.13332 -0.18218
 H124 H 0.68141 0.13325 -0.15260
 H125 H 0.68157 0.15277 -0.13337
 H126 H 0.65200 0.18188 -0.13334
 C127 C 0.14537 0.66518 -0.15546
 C128 C 0.15502 0.66521 -0.14575
 C129 C 0.16457 0.65568 -0.14569
 C130 C 0.16460 0.64599 -0.15536
 C131 C 0.15513 0.64599 -0.16489
 C132 C 0.14541 0.65564 -0.16492
 C133 C 0.13513 0.67342 -0.15814
 N134 N 0.12881 0.66920 -0.16909
 C135 C 0.13519 0.65823 -0.17321
 C136 C 0.15777 0.63574 -0.17312
 N137 N 0.16872 0.62939 -0.16890
 C138 C 0.17287 0.63575 -0.15793
 C139 C 0.17280 0.65832 -0.13542
 N140 N 0.16850 0.66925 -0.12924
 C141 C 0.15761 0.67351 -0.13553
 H142 H 0.13266 0.68186 -0.15234
 H143 H 0.13293 0.65252 -0.18177
 H144 H 0.15196 0.63329 -0.18155
 H145 H 0.18142 0.63345 -0.15221
 H146 H 0.18147 0.65285 -0.13287
 H147 H 0.15193 0.68201 -0.13287
 C148 C 0.14613 0.16487 0.34457
 C149 C 0.15580 0.16481 0.35426
 C150 C 0.16530 0.15524 0.35425
 C151 C 0.16524 0.14557 0.34457
 C152 C 0.15575 0.14565 0.33505
 C153 C 0.14612 0.15539 0.33505
 C154 C 0.13592 0.17317 0.34196
 N155 N 0.12957 0.16904 0.33098
 C156 C 0.13590 0.15808 0.32679
 C157 C 0.15833 0.13542 0.32678
 N158 N 0.16924 0.12898 0.33098
 C159 C 0.17344 0.13528 0.34195
 C160 C 0.17358 0.15779 0.36450
 N161 N 0.16934 0.16870 0.37075
 C162 C 0.15844 0.17304 0.36453
 H163 H 0.13365 0.18173 0.34766
 H164 H 0.13344 0.15227 0.31835
 H165 H 0.15249 0.13304 0.31834
 H166 H 0.18199 0.13293 0.34765
 H167 H 0.18204 0.15209 0.36720
 H168 H 0.15300 0.18173 0.36705
 C169 C 0.64595 0.33499 0.65507
 C170 C 0.65562 0.33506 0.64539
 C171 C 0.66515 0.34460 0.64544
 C172 C 0.66513 0.35422 0.65516
 C173 C 0.65558 0.35418 0.66468
 C174 C 0.64591 0.34449 0.66464
 C175 C 0.63572 0.32669 0.65766
 N176 N 0.62946 0.33091 0.66857
 C177 C 0.63565 0.34182 0.67288
 C178 C 0.65818 0.36440 0.67298
 N179 N 0.66910 0.37064 0.66875
 C180 C 0.67340 0.36445 0.65783
 C181 C 0.67346 0.34202 0.63522
 N182 N 0.66920 0.33114 0.62893
 C183 C 0.65827 0.32684 0.63512
 H184 H 0.63304 0.31822 0.65196
 H185 H 0.63311 0.34726 0.68156
 H186 H 0.65269 0.36688 0.68166
 H187 H 0.68190 0.36717 0.65219
 H188 H 0.68196 0.34768 0.63256
 H189 H 0.65282 0.31817 0.63257
 C190 C 0.64570 0.83509 1.15528
 C191 C 0.65535 0.83508 1.14556
 C192 C 0.66489 0.84460 1.14553
 C193 C 0.66492 0.85428 1.15519
 C194 C 0.65540 0.85429 1.16474
 C195 C 0.64574 0.84459 1.16479
 C196 C 0.63546 0.82685 1.15794
 N197 N 0.62915 0.83102 1.16892
 C198 C 0.63553 0.84197 1.17308
 C199 C 0.65805 0.86454 1.17299
 N200 N 0.66897 0.87074 1.16870
 C201 C 0.67321 0.86450 1.15779
 C202 C 0.67315 0.84196 1.13528
 N203 N 0.66886 0.83105 1.12907
 C204 C 0.65794 0.82681 1.13532
 H205 H 0.63316 0.81829 1.15226
 H206 H 0.63311 0.84781 1.18151
 H207 H 0.65261 0.86705 1.18169
 H208 H 0.68171 0.86718 1.15211
 H209 H 0.68165 0.84760 1.13256
 H210 H 0.65246 0.81813 1.13284
 C211 C 0.14564 0.33538 1.15576
 C212 C 0.15534 0.33531 1.14610
 C213 C 0.16492 0.34480 1.14608
 C214 C 0.16495 0.35449 1.15574
 C215 C 0.15540 0.35452 1.16527
 C216 C 0.14568 0.34489 1.16526
 C217 C 0.13537 0.32717 1.15839
 N218 N 0.12904 0.33137 1.16935
 C219 C 0.13543 0.34230 1.17352
 C220 C 0.15806 0.36473 1.17354
 N221 N 0.16900 0.37093 1.16928
 C222 C 0.17325 0.36470 1.15836
 C223 C 0.17319 0.34212 1.13584
 N224 N 0.16888 0.33121 1.12965
 C225 C 0.15794 0.32700 1.13589
 H226 H 0.13306 0.31861 1.15271
 H227 H 0.13303 0.34814 1.18195
 H228 H 0.15240 0.36745 1.18203
 H229 H 0.18195 0.36718 1.15290
 H230 H 0.18189 0.34755 1.13332
 H231 H 0.15225 0.31853 1.13321
 C232 C 0.14632 0.83530 0.65579
 C233 C 0.15602 0.83532 0.64614
 C234 C 0.16555 0.84487 0.64619
 C235 C 0.16549 0.85454 0.65586
 C236 C 0.15598 0.85450 0.66536
 C237 C 0.14631 0.84482 0.66534
 C238 C 0.13606 0.82704 0.65838
 N239 N 0.12982 0.83128 0.66929
 C240 C 0.13605 0.84218 0.67359
 C241 C 0.15857 0.86473 0.67363
 N242 N 0.16951 0.87111 0.66946
 C243 C 0.17372 0.86479 0.65850
 C244 C 0.17385 0.84228 0.63596
 N245 N 0.16961 0.83139 0.62969
 C246 C 0.15868 0.82710 0.63587
 H247 H 0.13356 0.81838 0.65289
 H248 H 0.13333 0.84782 0.68209
 H249 H 0.15271 0.86715 0.68205
 H250 H 0.18230 0.86710 0.65283
 H251 H 0.18234 0.84796 0.63328
 H252 H 0.15322 0.81843 0.63333
 C253 C 0.35436 0.66479 0.65556
 C254 C 0.34473 0.66490 0.64584
 C255 C 0.33513 0.65544 0.64573
 C256 C 0.33499 0.64574 0.65538
 C257 C 0.34448 0.64562 0.66496
 C258 C 0.35422 0.65523 0.66507
 C259 C 0.36465 0.67297 0.65827
 N260 N 0.37077 0.66863 0.66922
 C261 C 0.36442 0.65776 0.67342
 C262 C 0.34173 0.63537 0.67317
 N263 N 0.33079 0.62925 0.66883
 C264 C 0.32662 0.63556 0.65793
 C265 C 0.32694 0.65816 0.63545
 N266 N 0.33132 0.66907 0.62931
 C267 C 0.34222 0.67324 0.63563
 H268 H 0.36725 0.68164 0.65285
 H269 H 0.36703 0.65206 0.68191
 H270 H 0.34714 0.63279 0.68187
 H271 H 0.31813 0.63295 0.65221
 H272 H 0.31824 0.65277 0.63287
 H273 H 0.34796 0.68170 0.63300
 C274 C 0.35419 0.16453 1.15566
 C275 C 0.34449 0.16449 1.14600
 C276 C 0.33498 0.15493 1.14605
 C277 C 0.33505 0.14525 1.15573
 C278 C 0.34457 0.14531 1.16522
 C279 C 0.35422 0.15501 1.16521
 C280 C 0.36442 0.17282 1.15825
 N281 N 0.37066 0.16859 1.16917
 C282 C 0.36445 0.15768 1.17347
 C283 C 0.34198 0.13509 1.17351
 N284 N 0.33104 0.12869 1.16935
 C285 C 0.32684 0.13500 1.15838
 C286 C 0.32667 0.15751 1.13583
 N287 N 0.33090 0.16841 1.12957
 C288 C 0.34182 0.17272 1.13575
 H289 H 0.36690 0.18149 1.15277
 H290 H 0.36718 0.15205 1.18197
 H291 H 0.34783 0.13269 1.18193
 H292 H 0.31826 0.13268 1.15271
 H293 H 0.31818 0.15182 1.13316
 H294 H 0.34726 0.18140 1.13321
 C295 C 0.85439 0.66461 1.15518
 C296 C 0.84470 0.66467 1.14551
 C297 C 0.83517 0.65513 1.14546
 C298 C 0.83517 0.64541 1.15508
 C299 C 0.84469 0.64538 1.16463
 C300 C 0.85437 0.65505 1.16468
 C301 C 0.86463 0.67287 1.15785
 N302 N 0.87083 0.66857 1.16876
 C303 C 0.86459 0.65765 1.17298
 C304 C 0.84205 0.63513 1.17287
 N305 N 0.83115 0.62890 1.16856
 C306 C 0.82690 0.63516 1.15766
 C307 C 0.82691 0.65779 1.13521
 N308 N 0.83118 0.66874 1.12905
 C309 C 0.84208 0.67299 1.13532
 H310 H 0.86714 0.68157 1.15243
 H311 H 0.86727 0.65197 1.18147
 H312 H 0.84770 0.63240 1.18137
 H313 H 0.81823 0.63266 1.15217
 H314 H 0.81825 0.65233 1.13266
 H315 H 0.84774 0.68149 1.13266
 C316 C 0.85448 0.16524 0.65579
 C317 C 0.84481 0.16526 0.64610
 C318 C 0.83527 0.15573 0.64607
 C319 C 0.83524 0.14606 0.65575
 C320 C 0.84475 0.14609 0.66531
 C321 C 0.85444 0.15576 0.66531
 C322 C 0.86472 0.17349 0.65842
 N323 N 0.87104 0.16933 0.66941
 C324 C 0.86465 0.15839 0.67359
 C325 C 0.84211 0.13587 0.67360
 N326 N 0.83122 0.12962 0.66930
 C327 C 0.82698 0.13582 0.65836
 C328 C 0.82704 0.15833 0.63578
 N329 N 0.83134 0.16924 0.62957
 C330 C 0.84222 0.17352 0.63584
 H331 H 0.86703 0.18204 0.65273
 H332 H 0.86706 0.15257 0.68204
 H333 H 0.84775 0.13319 0.68211
 H334 H 0.81832 0.13329 0.65287
 H335 H 0.81838 0.15286 0.63324
 H336 H 0.84790 0.18200 0.63315
 C337 C 0.33467 0.35470 0.65547
 C338 C 0.33467 0.34499 0.64584
 C339 C 0.34422 0.33547 0.64586
 C340 C 0.35390 0.33550 0.65553
 C341 C 0.35389 0.34506 0.66504
 C342 C 0.34422 0.35475 0.66499
 C343 C 0.32637 0.36492 0.65807
 N344 N 0.33064 0.37120 0.66895
 C345 C 0.34158 0.36501 0.67322
 C346 C 0.36413 0.34246 0.67332
 N347 N 0.37038 0.33155 0.66908
 C348 C 0.36417 0.32725 0.65818
 C349 C 0.34159 0.32717 0.63564
 N350 N 0.33065 0.33140 0.62943
 C351 C 0.32637 0.34232 0.63563
 H352 H 0.31785 0.36758 0.65242
 H353 H 0.34704 0.36755 0.68189
 H354 H 0.36683 0.34815 0.68179
 H355 H 0.36669 0.31856 0.65273
 H356 H 0.34707 0.31849 0.63316
 H357 H 0.31786 0.34797 0.63293
 C358 C 0.33504 0.85416 0.15538
 C359 C 0.33505 0.84445 0.14575
 C360 C 0.34460 0.83492 0.14579
 C361 C 0.35426 0.83494 0.15548
 C362 C 0.35423 0.84450 0.16499
 C363 C 0.34457 0.85420 0.16492
 C364 C 0.32675 0.86440 0.15797
 N365 N 0.33100 0.87067 0.16886
 C366 C 0.34193 0.86446 0.17315
 C367 C 0.36446 0.84189 0.17329
 N368 N 0.37071 0.83098 0.16906
 C369 C 0.36451 0.82668 0.15815
 C370 C 0.34198 0.82663 0.13556
 N371 N 0.33106 0.83088 0.12933
 C372 C 0.32678 0.84180 0.13552
 H373 H 0.31824 0.86707 0.15230
 H374 H 0.34738 0.86699 0.18183
 H375 H 0.36715 0.84758 0.18176
 H376 H 0.36704 0.81800 0.15270
 H377 H 0.34746 0.81794 0.13308
 H378 H 0.31828 0.84745 0.13280
 C379 C 0.83515 0.35357 0.15519
 C380 C 0.83519 0.34389 0.14551
 C381 C 0.84474 0.33437 0.14554
 C382 C 0.85441 0.33438 0.15522
 C383 C 0.85439 0.34393 0.16474
 C384 C 0.84467 0.35357 0.16474
 C385 C 0.82687 0.36381 0.15779
 N386 N 0.83111 0.37003 0.16871
 C387 C 0.84202 0.36380 0.17301
 C388 C 0.86464 0.34132 0.17302
 N389 N 0.87088 0.33040 0.16877
 C390 C 0.86466 0.32612 0.15786
 C391 C 0.84214 0.32608 0.13531
 N392 N 0.83124 0.33034 0.12905
 C393 C 0.82694 0.34126 0.13525
 H394 H 0.81820 0.36632 0.15230
 H395 H 0.84767 0.36651 0.18150
 H396 H 0.86713 0.34679 0.18169
 H397 H 0.86737 0.31762 0.15222
 H398 H 0.84782 0.31759 0.13263
 H399 H 0.81826 0.34672 0.13272
 C400 C 0.83499 0.85463 0.65522
 C401 C 0.83491 0.84493 0.64557
 C402 C 0.84444 0.83538 0.64552
 C403 C 0.85417 0.83536 0.65515
 C404 C 0.85422 0.84488 0.66469
 C405 C 0.84456 0.85459 0.66473
 C406 C 0.82675 0.86489 0.65788
 N407 N 0.83107 0.87109 0.66879
 C408 C 0.84198 0.86482 0.67302
 C409 C 0.86447 0.84222 0.67293
 N410 N 0.87068 0.83130 0.66864
 C411 C 0.86441 0.82706 0.65774
 C412 C 0.84176 0.82713 0.63529
 N413 N 0.83082 0.83142 0.62912
 C414 C 0.82658 0.84233 0.63538
 H415 H 0.81805 0.86742 0.65245
 H416 H 0.84768 0.86749 0.68150
 H417 H 0.86721 0.84787 0.68142
 H418 H 0.86689 0.81839 0.65226
 H419 H 0.84721 0.81844 0.63275
 H420 H 0.81809 0.84801 0.63271
 C421 C 0.66456 0.64562 0.65540
 C422 C 0.66470 0.65525 0.64568
 C423 C 0.65523 0.66486 0.64557
 C424 C 0.64550 0.66500 0.65520
 C425 C 0.64536 0.65551 0.66477
 C426 C 0.65497 0.64576 0.66489
 C427 C 0.67273 0.63532 0.65812
 N428 N 0.66835 0.62920 0.66905
 C429 C 0.65747 0.63555 0.67323
 C430 C 0.63508 0.65826 0.67296
 N431 N 0.62897 0.66921 0.66861
 C432 C 0.63531 0.67338 0.65773
 C433 C 0.65798 0.67304 0.63529
 N434 N 0.66890 0.66865 0.62916
 C435 C 0.67306 0.65775 0.63548
 H436 H 0.68142 0.63271 0.65271
 H437 H 0.65174 0.63295 0.68171
 H438 H 0.63247 0.65286 0.68165
 H439 H 0.63272 0.68187 0.65201
 H440 H 0.65258 0.68174 0.63271
 H441 H 0.68153 0.65201 0.63286
 C442 C 0.66494 0.14561 0.15519
 C443 C 0.66493 0.15528 0.14552
 C444 C 0.65536 0.16480 0.14551
 C445 C 0.64563 0.16475 0.15514
 C446 C 0.64566 0.15523 0.16468
 C447 C 0.65538 0.14559 0.16471
 C448 C 0.67324 0.13539 0.15785
 N449 N 0.66898 0.12918 0.16877
 C450 C 0.65803 0.13539 0.17301
 C451 C 0.63541 0.15783 0.17295
 N452 N 0.62914 0.16872 0.16867
 C453 C 0.63536 0.17299 0.15776
 C454 C 0.65798 0.17308 0.13529
 N455 N 0.66892 0.16884 0.12907
 C456 C 0.67321 0.15794 0.13529
 H457 H 0.68195 0.13290 0.15240
 H458 H 0.65236 0.13269 0.18149
 H459 H 0.63273 0.15218 0.18146
 H460 H 0.63283 0.18166 0.15229
 H461 H 0.65229 0.18155 0.13258
 H462 H 0.68191 0.15249 0.13279
 C463 C 0.16497 0.64569 0.15573
 C464 C 0.16506 0.65538 0.14607
 C465 C 0.15556 0.66496 0.14603
 C466 C 0.14585 0.66502 0.15569
 C467 C 0.14580 0.65550 0.16523
 C468 C 0.15542 0.64577 0.16525
 C469 C 0.17319 0.63541 0.15837
 N470 N 0.16888 0.62923 0.16930
 C471 C 0.15799 0.63553 0.17355
 C472 C 0.13556 0.65819 0.17350
 N473 N 0.12938 0.66912 0.16921
 C474 C 0.13563 0.67333 0.15829
 C475 C 0.15824 0.67319 0.13578
 N476 N 0.16916 0.66886 0.12959
 C477 C 0.17337 0.65794 0.13585
 H478 H 0.18187 0.63285 0.15293
 H479 H 0.15231 0.63289 0.18205
 H480 H 0.13283 0.65255 0.18199
 H481 H 0.13316 0.68201 0.15281
 H482 H 0.15281 0.68189 0.13324
 H483 H 0.18184 0.65223 0.13317
 C484 C 0.16477 0.14565 0.65549
 C485 C 0.16464 0.15533 0.64583
 C486 C 0.15506 0.16483 0.64593
 C487 C 0.14543 0.16475 0.65566
 C488 C 0.14556 0.15520 0.66518
 C489 C 0.15528 0.14557 0.66508
 C490 C 0.17313 0.13546 0.65803
 N491 N 0.16896 0.12917 0.66895
 C492 C 0.15802 0.13532 0.67330
 C493 C 0.13536 0.15776 0.67353
 N494 N 0.12903 0.16864 0.66932
 C495 C 0.13515 0.17295 0.65837
 C496 C 0.15758 0.17315 0.63570
 N497 N 0.16847 0.16894 0.62938
 C498 C 0.17283 0.15802 0.63554
 H499 H 0.18161 0.13282 0.65232
 H500 H 0.15262 0.13276 0.68200
 H501 H 0.13275 0.15208 0.68203
 H502 H 0.13256 0.18163 0.65293
 H503 H 0.15186 0.18163 0.63307
 H504 H 0.18152 0.15260 0.63295
 C505 C 0.33533 0.64588 0.34491
 C506 C 0.33545 0.65562 0.35451
 C507 C 0.34503 0.66511 0.35437
 C508 C 0.35467 0.66497 0.34465
 C509 C 0.35455 0.65536 0.33518
 C510 C 0.34483 0.64574 0.33533
 C511 C 0.32698 0.63567 0.34241
 N512 N 0.33118 0.62932 0.33154
 C513 C 0.34211 0.63544 0.32717
 C514 C 0.36476 0.65786 0.32683
 N515 N 0.37109 0.66876 0.33099
 C516 C 0.36495 0.67314 0.34190
 C517 C 0.34250 0.67348 0.36455
 N518 N 0.33161 0.66931 0.37088
 C519 C 0.32725 0.65837 0.36478
 H520 H 0.31850 0.63307 0.34813
 H521 H 0.34753 0.63283 0.31849
 H522 H 0.36739 0.65212 0.31837
 H523 H 0.36754 0.68184 0.34729
 H524 H 0.34822 0.68196 0.36714
 H525 H 0.31856 0.65296 0.36739
 C526 C 0.33507 0.14605 0.84486
 C527 C 0.33515 0.15570 0.85455
 C528 C 0.34468 0.16524 0.85448
 C529 C 0.35430 0.16524 0.84474
 C530 C 0.35425 0.15570 0.83521
 C531 C 0.34456 0.14604 0.83527
 C532 C 0.32678 0.13582 0.84229
 N533 N 0.33099 0.12958 0.83137
 C534 C 0.34189 0.13579 0.82703
 C535 C 0.36445 0.15832 0.82689
 N536 N 0.37069 0.16925 0.83111
 C537 C 0.36451 0.17352 0.84204
 C538 C 0.34211 0.17352 0.86471
 N539 N 0.33124 0.16926 0.87102
 C540 C 0.32694 0.15834 0.86484
 H541 H 0.31831 0.13312 0.84800
 H542 H 0.34732 0.13326 0.81833
 H543 H 0.36692 0.15285 0.81820
 H544 H 0.36723 0.18202 0.84768
 H545 H 0.34778 0.18203 0.86736
 H546 H 0.31827 0.15288 0.86741
 C547 C 0.83506 0.64581 0.84440
 C548 C 0.83517 0.65545 0.85410
 C549 C 0.84472 0.66497 0.85402
 C550 C 0.85432 0.66496 0.84427
 C551 C 0.85424 0.65544 0.83473
 C552 C 0.84453 0.64579 0.83479
 C553 C 0.82674 0.63560 0.84182
 N554 N 0.83092 0.62937 0.83088
 C555 C 0.84183 0.63556 0.82654
 C556 C 0.86444 0.65805 0.82639
 N557 N 0.87070 0.66896 0.83062
 C558 C 0.86454 0.67323 0.84157
 C559 C 0.84217 0.67324 0.86427
 N560 N 0.83130 0.66899 0.87059
 C561 C 0.82698 0.65808 0.86440
 H562 H 0.81828 0.63292 0.84755
 H563 H 0.84723 0.63303 0.81783
 H564 H 0.86688 0.65259 0.81770
 H565 H 0.86729 0.68171 0.84721
 H566 H 0.84785 0.68174 0.86692
 H567 H 0.81830 0.65264 0.86697
 C568 C 0.83559 0.14523 0.34466
 C569 C 0.83560 0.15490 0.35433
 C570 C 0.84518 0.16440 0.35435
 C571 C 0.85490 0.16434 0.34472
 C572 C 0.85488 0.15481 0.33518
 C573 C 0.84515 0.14519 0.33515
 C574 C 0.82728 0.13503 0.34200
 N575 N 0.83154 0.12881 0.33109
 C576 C 0.84249 0.13499 0.32685
 C577 C 0.86513 0.15741 0.32691
 N578 N 0.87140 0.16828 0.33119
 C579 C 0.86519 0.17256 0.34210
 C580 C 0.84255 0.17269 0.36456
 N581 N 0.83160 0.16847 0.37077
 C582 C 0.82731 0.15757 0.36455
 H583 H 0.81857 0.13255 0.34744
 H584 H 0.84816 0.13229 0.31836
 H585 H 0.86781 0.15175 0.31841
 H586 H 0.86771 0.18123 0.34757
 H587 H 0.84824 0.18116 0.36727
 H588 H 0.81860 0.15214 0.36704
 C589 C 0.66506 0.35411 0.34455
 C590 C 0.66507 0.34446 0.35424
 C591 C 0.65554 0.33492 0.35427
 C592 C 0.64587 0.33488 0.34459
 C593 C 0.64584 0.34442 0.33505
 C594 C 0.65550 0.35410 0.33504
 C595 C 0.67333 0.36434 0.34190
 N596 N 0.66903 0.37056 0.33100
 C597 C 0.65810 0.36434 0.32676
 C598 C 0.63558 0.34178 0.32680
 N599 N 0.62938 0.33085 0.33108
 C600 C 0.63564 0.32659 0.34198
 C601 C 0.65819 0.32667 0.36452
 N602 N 0.66912 0.33095 0.37071
 C603 C 0.67338 0.34184 0.36446
 H604 H 0.68184 0.36705 0.34754
 H605 H 0.65262 0.36683 0.31809
 H606 H 0.63305 0.34724 0.31813
 H607 H 0.63296 0.31810 0.34764
 H608 H 0.65274 0.31799 0.36704
 H609 H 0.68188 0.34750 0.36713
 C610 C 0.66486 0.85455 0.84465
 C611 C 0.66487 0.84491 0.85435
 C612 C 0.65534 0.83537 0.85438
 C613 C 0.64568 0.83533 0.84469
 C614 C 0.64565 0.84485 0.83514
 C615 C 0.65532 0.85454 0.83513
 C616 C 0.67314 0.86478 0.84200
 N617 N 0.66886 0.87099 0.83109
 C618 C 0.65793 0.86477 0.82684
 C619 C 0.63540 0.84220 0.82689
 N620 N 0.62920 0.83128 0.83117
 C621 C 0.63545 0.82704 0.84208
 C622 C 0.65798 0.82713 0.86463
 N623 N 0.66891 0.83140 0.87083
 C624 C 0.67317 0.84230 0.86457
 H625 H 0.68164 0.86749 0.84765
 H626 H 0.65246 0.86726 0.81817
 H627 H 0.63287 0.84765 0.81821
 H628 H 0.63276 0.81855 0.84776
 H629 H 0.65252 0.81845 0.86716
 H630 H 0.68168 0.84795 0.86725
 C631 C 0.16499 0.35435 0.84512
 C632 C 0.16491 0.34470 0.85481
 C633 C 0.15537 0.33517 0.85475
 C634 C 0.14574 0.33519 0.84503
 C635 C 0.14579 0.34473 0.83551
 C636 C 0.15548 0.35438 0.83555
 C637 C 0.17329 0.36457 0.84254
 N638 N 0.16907 0.37083 0.83163
 C639 C 0.15816 0.36463 0.82731
 C640 C 0.13556 0.34212 0.82720
 N641 N 0.12932 0.33120 0.83143
 C642 C 0.13551 0.32692 0.84236
 C643 C 0.15795 0.32688 0.86498
 N644 N 0.16884 0.33113 0.87127
 C645 C 0.17314 0.34205 0.86509
 H646 H 0.18177 0.36726 0.84824
 H647 H 0.15272 0.36717 0.81862
 H648 H 0.13309 0.34759 0.81852
 H649 H 0.13279 0.31843 0.84800
 H650 H 0.15228 0.31838 0.86764
 H651 H 0.18182 0.34750 0.86764
 C652 C 0.16462 0.85433 0.34478
 C653 C 0.16465 0.84468 0.35449
 C654 C 0.15510 0.83516 0.35454
 C655 C 0.14537 0.83516 0.34491
 C656 C 0.14534 0.84467 0.33536
 C657 C 0.15505 0.85431 0.33528
 C658 C 0.17289 0.86455 0.34210
 N659 N 0.16860 0.87074 0.33118
 C660 C 0.15766 0.86451 0.32697
 C661 C 0.13506 0.84204 0.32714
 N662 N 0.12885 0.83113 0.33145
 C663 C 0.13513 0.82688 0.34234
 C664 C 0.15776 0.82690 0.36477
 N665 N 0.16870 0.83116 0.37095
 C666 C 0.17295 0.84207 0.36470
 H667 H 0.18159 0.86707 0.34753
 H668 H 0.15197 0.86719 0.31849
 H669 H 0.13252 0.84748 0.31846
 H670 H 0.13245 0.81839 0.34801
 H671 H 0.15210 0.81841 0.36750
 H672 H 0.18165 0.84753 0.36717
 O673 O 0.26669 0.98716 0.24894
 O674 O 0.24871 1.01258 0.26687
 O675 O 0.24871 0.98716 0.26687
 O676 O 0.26669 1.01257 0.24894
 O677 O 0.25148 1.01258 0.23372
 O678 O 0.23350 0.98717 0.25165
 O679 O 0.23350 1.01259 0.25165
 O680 O 0.25147 0.98717 0.23372
 Cu681 Cu 0.25922 0.99987 0.25943
 Cu682 Cu 0.24096 0.99988 0.24116
 C683 C 0.26214 0.98278 0.23827
 C684 C 0.23804 1.01697 0.26231
 C685 C 0.23804 0.98279 0.26232
 C686 C 0.26215 1.01695 0.23828
 O687 O 0.24835 0.51304 0.76704
 O688 O 0.26630 0.48765 0.74905
 O689 O 0.26625 0.51306 0.74903
 O690 O 0.24838 0.48762 0.76703
 O691 O 0.23312 0.48760 0.75186
 O692 O 0.25097 0.51304 0.73387
 O693 O 0.25104 0.48763 0.73388
 O694 O 0.23308 0.51302 0.75188
 Cu695 Cu 0.25885 0.50034 0.75956
 Cu696 Cu 0.24052 0.50032 0.74135
 C697 C 0.23766 0.51740 0.76253
 C698 C 0.26173 0.48326 0.73840
 C699 C 0.26166 0.51743 0.73838
 C700 C 0.23771 0.48322 0.76251
 O701 O 0.74861 -0.01284 0.23346
 O702 O 0.76656 0.01255 0.25142
 O703 O 0.76653 -0.01286 0.25143
 O704 O 0.74869 0.01257 0.23340
 O705 O 0.73341 0.01264 0.24856
 O706 O 0.75125 -0.01281 0.26659
 O707 O 0.75128 0.01261 0.26658
 O708 O 0.73333 -0.01278 0.24862
 Cu709 Cu 0.75913 -0.00015 0.24091
 Cu710 Cu 0.74079 -0.00008 0.25911
 C711 C 0.73791 -0.01718 0.23798
 C712 C 0.76198 0.01695 0.26207
 C713 C 0.76194 -0.01722 0.26208
 C714 C 0.73801 0.01699 0.23790
 O715 O 0.73314 0.51271 0.74871
 O716 O 0.75121 0.48734 0.76662
 O717 O 0.75117 0.51276 0.76658
 O718 O 0.73318 0.48729 0.74875
 O719 O 0.74835 0.48730 0.73348
 O720 O 0.76633 0.51276 0.75131
 O721 O 0.76638 0.48734 0.75135
 O722 O 0.74831 0.51271 0.73344
 Cu723 Cu 0.74065 0.50003 0.75919
 Cu724 Cu 0.75886 0.50003 0.74087
 C725 C 0.73764 0.51709 0.73803
 C726 C 0.76187 0.48297 0.76204
 C727 C 0.76182 0.51715 0.76199
 C728 C 0.73770 0.48291 0.73807
 O729 O 0.25170 0.48735 0.26678
 O730 O 0.23376 0.51275 0.24880
 O731 O 0.23381 0.48734 0.24878
 O732 O 0.25165 0.51276 0.26680
 O733 O 0.26694 0.51280 0.25165
 O734 O 0.24909 0.48738 0.23362
 O735 O 0.24904 0.51279 0.23364
 O736 O 0.26698 0.48738 0.25163
 Cu737 Cu 0.24120 0.50005 0.25931
 Cu738 Cu 0.25954 0.50009 0.24112
 C739 C 0.26239 0.48299 0.26227
 C740 C 0.23834 0.51715 0.23816
 C741 C 0.23841 0.48298 0.23812
 C742 C 0.26233 0.51717 0.26230
 O743 O 0.74823 1.01295 0.76630
 O744 O 0.76619 0.98755 0.74832
 O745 O 0.76620 1.01297 0.74837
 O746 O 0.74821 0.98754 0.76625
 O747 O 0.73300 0.98758 0.75103
 O748 O 0.75098 1.01302 0.73315
 O749 O 0.75097 0.98760 0.73310
 O750 O 0.73302 1.01300 0.75109
 Cu751 Cu 0.75873 1.00025 0.75883
 Cu752 Cu 0.74047 1.00030 0.74057
 C753 C 0.73756 1.01735 0.76176
 C754 C 0.76164 0.98320 0.73765
 C755 C 0.76165 1.01738 0.73771
 C756 C 0.73754 0.98317 0.76169
 O757 O 0.75096 0.51225 0.23243
 O758 O 0.73300 0.48689 0.25045
 O759 O 0.73302 0.51231 0.25039
 O760 O 0.75094 0.48683 0.23248
 O761 O 0.76618 0.48685 0.24767
 O762 O 0.74826 0.51232 0.26558
 O763 O 0.74825 0.48691 0.26563
 O764 O 0.76620 0.51226 0.24762
 Cu765 Cu 0.74045 0.49957 0.23991
 Cu766 Cu 0.75875 0.49958 0.25815
 C767 C 0.76164 0.51663 0.23696
 C768 C 0.73757 0.48253 0.26111
 C769 C 0.73758 0.51670 0.26104
 C770 C 0.76162 0.48245 0.23702
 O771 O 0.26687 0.01284 0.75160
 O772 O 0.24895 -0.01259 0.73367
 O773 O 0.24892 0.01282 0.73365
 O774 O 0.26689 -0.01257 0.75162
 O775 O 0.25166 -0.01257 0.76682
 O776 O 0.23369 0.01283 0.74885
 O777 O 0.23371 -0.01259 0.74887
 O778 O 0.25164 0.01285 0.76680
 Cu779 Cu 0.25944 0.00012 0.74111
 Cu780 Cu 0.24115 0.00013 0.75936
 C781 C 0.26231 0.01723 0.76226
 C782 C 0.23827 -0.01697 0.73822
 C783 C 0.23824 0.01720 0.73819
 C784 C 0.26234 -0.01695 0.76229
 O785 O 0.24881 0.26669 0.98776
 O786 O 0.26672 0.24866 1.01316
 O787 O 0.26671 0.24869 0.98774
 O788 O 0.24882 0.26667 1.01318
 O789 O 0.23355 0.25152 1.01317
 O790 O 0.25144 0.23353 0.98773
 O791 O 0.25144 0.23351 1.01315
 O792 O 0.23354 0.25154 0.98776
 Cu793 Cu 0.25930 0.25920 1.00046
 Cu794 Cu 0.24096 0.24101 1.00045
 C795 C 0.23812 0.26219 0.98339
 C796 C 0.26213 0.23801 1.01753
 C797 C 0.26213 0.23804 0.98335
 C798 C 0.23813 0.26216 1.01756
 O799 O 0.24898 0.76700 0.48743
 O800 O 0.26693 0.74899 0.51280
 O801 O 0.26694 0.74905 0.48739
 O802 O 0.24897 0.76694 0.51284
 O803 O 0.23375 0.75174 0.51281
 O804 O 0.25171 0.73385 0.48735
 O805 O 0.25171 0.73379 0.51277
 O806 O 0.23375 0.75180 0.48740
 Cu807 Cu 0.25948 0.75952 0.50012
 Cu808 Cu 0.24120 0.74127 0.50008
 C809 C 0.23830 0.76247 0.48304
 C810 C 0.26238 0.73832 0.51716
 C811 C 0.26239 0.73840 0.48298
 C812 C 0.23830 0.76239 0.51722
 O813 O 0.26669 0.75101 -0.01268
 O814 O 0.24872 0.73311 0.01276
 O815 O 0.24868 0.73312 -0.01266
 O816 O 0.26675 0.75097 0.01274
 O817 O 0.25157 0.76623 0.01278
 O818 O 0.23350 0.74838 -0.01261
 O819 O 0.23354 0.74837 0.01281
 O820 O 0.25150 0.76627 -0.01263
 Cu821 Cu 0.25923 0.74052 0.00004
 Cu822 Cu 0.24101 0.75884 0.00009
 C823 C 0.26215 0.76169 -0.01704
 C824 C 0.23807 0.73769 0.01717
 C825 C 0.23801 0.73771 -0.01701
 C826 C 0.26224 0.76164 0.01714
 O827 O 0.24849 0.23332 0.51295
 O828 O 0.26649 0.25128 0.48758
 O829 O 0.26645 0.25125 0.51299
 O830 O 0.24855 0.23333 0.48754
 O831 O 0.23332 0.24854 0.48751
 O832 O 0.25123 0.26646 0.51297
 O833 O 0.25126 0.26649 0.48756
 O834 O 0.23326 0.24854 0.51293
 Cu835 Cu 0.25902 0.24077 0.50026
 Cu836 Cu 0.24074 0.25903 0.50024
 C837 C 0.23780 0.23787 0.51731
 C838 C 0.26194 0.26195 0.48320
 C839 C 0.26189 0.26191 0.51737
 C840 C 0.23788 0.23788 0.48314
 O841 O 0.74833 0.76618 0.98718
 O842 O 0.76626 0.74822 1.01259
 O843 O 0.76631 0.74825 0.98718
 O844 O 0.74828 0.76614 1.01258
 O845 O 0.73307 0.75092 1.01254
 O846 O 0.75110 0.73303 0.98713
 O847 O 0.75105 0.73299 1.01254
 O848 O 0.73312 0.75097 0.98712
 Cu849 Cu 0.75882 0.75872 0.99989
 Cu850 Cu 0.74056 0.74045 0.99983
 C851 C 0.73767 0.76164 0.98277
 C852 C 0.76171 0.73754 1.01695
 C853 C 0.76178 0.73759 0.98277
 C854 C 0.73760 0.76158 1.01694
 O855 O 0.75142 0.23285 0.48719
 O856 O 0.73347 0.25087 0.51257
 O857 O 0.73346 0.25080 0.48715
 O858 O 0.75142 0.23291 0.51261
 O859 O 0.76665 0.24812 0.51256
 O860 O 0.74869 0.26600 0.48711
 O861 O 0.74870 0.26607 0.51252
 O862 O 0.76664 0.24805 0.48715
 Cu863 Cu 0.74092 0.24033 0.49989
 Cu864 Cu 0.75920 0.25858 0.49983
 C865 C 0.76209 0.23738 0.48280
 C866 C 0.73802 0.26154 0.51692
 C867 C 0.73801 0.26146 0.48275
 C868 C 0.76210 0.23747 0.51698
 O869 O 0.76655 0.25112 -0.01310
 O870 O 0.74867 0.23310 0.01232
 O871 O 0.74862 0.23316 -0.01310
 O872 O 0.76659 0.25108 0.01232
 O873 O 0.75133 0.26627 0.01237
 O874 O 0.73336 0.24835 -0.01304
 O875 O 0.73342 0.24829 0.01238
 O876 O 0.75130 0.26631 -0.01304
 Cu877 Cu 0.75913 0.24059 -0.00040
 Cu878 Cu 0.74083 0.25883 -0.00033
 C879 C 0.76197 0.26178 -0.01745
 C880 C 0.73800 0.23763 0.01673
 C881 C 0.73793 0.23771 -0.01745
 C882 C 0.76202 0.26173 0.01673
 O883 O 0.76674 0.75115 0.48730
 O884 O 0.74881 0.73318 0.51271
 O885 O 0.74884 0.73316 0.48730
 O886 O 0.76670 0.75118 0.51271
 O887 O 0.75142 0.76634 0.51267
 O888 O 0.73356 0.74832 0.48726
 O889 O 0.73353 0.74834 0.51267
 O890 O 0.75146 0.76631 0.48726
 Cu891 Cu 0.75931 0.74065 0.50001
 Cu892 Cu 0.74096 0.75885 0.49996
 C893 C 0.76216 0.76179 0.48290
 C894 C 0.73811 0.73770 0.51707
 C895 C 0.73816 0.73767 0.48290
 C896 C 0.76210 0.76184 0.51708
 O897 O 1.01323 0.23358 0.25174
 O898 O 0.98769 0.25141 0.23384
 O899 O 1.01312 0.25153 0.23381
 O900 O 0.98780 0.23347 0.25178
 O901 O 0.98774 0.24867 0.26699
 O902 O 1.01307 0.26674 0.24902
 O903 O 0.98763 0.26662 0.24905
 O904 O 1.01318 0.24878 0.26695
 Cu905 Cu 1.00047 0.24098 0.24127
 Cu906 Cu 1.00040 0.25922 0.25953
 C907 C 1.01761 0.23813 0.26240
 C908 C 0.98326 0.26206 0.23839
 C909 C 1.01746 0.26221 0.23835
 C910 C 0.98340 0.23799 0.26245
 O911 O 0.48719 0.25147 0.73297
 O912 O 0.51262 0.23346 0.75086
 O913 O 0.48718 0.23348 0.75085
 O914 O 0.51263 0.25146 0.73297
 O915 O 0.51264 0.26662 0.74822
 O916 O 0.48719 0.24864 0.76611
 O917 O 0.51262 0.24863 0.76611
 O918 O 0.48719 0.26664 0.74822
 Cu919 Cu 0.49991 0.24095 0.74038
 Cu920 Cu 0.49991 0.25915 0.75869
 C921 C 0.48280 0.26213 0.73755
 C922 C 0.51700 0.23797 0.76153
 C923 C 0.48280 0.23799 0.76153
 C924 C 0.51702 0.26210 0.73755
 O925 O -0.01281 0.26701 0.75149
 O926 O 0.01265 0.24900 0.73362
 O927 O -0.01279 0.24902 0.73360
 O928 O 0.01263 0.26702 0.75147
 O929 O 0.01263 0.25187 0.76674
 O930 O -0.01280 0.23387 0.74886
 O931 O 0.01264 0.23384 0.74889
 O932 O -0.01281 0.25186 0.76675
 Cu933 Cu -0.00008 0.25953 0.74101
 Cu934 Cu -0.00008 0.24134 0.75934
 C935 C -0.01720 0.26250 0.76217
 C936 C 0.01703 0.23835 0.73821
 C937 C -0.01718 0.23837 0.73818
 C938 C 0.01702 0.26251 0.76215
 O939 O 0.48729 0.26699 0.25092
 O940 O 0.51267 0.24900 0.23293
 O941 O 0.48723 0.24903 0.23299
 O942 O 0.51273 0.26693 0.25089
 O943 O 0.51272 0.25171 0.26610
 O944 O 0.48724 0.23382 0.24820
 O945 O 0.51267 0.23379 0.24814
 O946 O 0.48729 0.25177 0.26613
 Cu947 Cu 0.49998 0.25951 0.24041
 Cu948 Cu 0.49998 0.24125 0.25867
 C949 C 0.48291 0.26245 0.26159
 C950 C 0.51704 0.23832 0.23747
 C951 C 0.48284 0.23837 0.23754
 C952 C 0.51712 0.26237 0.26155
 O953 O 0.98741 0.75110 0.73259
 O954 O 1.01280 0.73316 0.75064
 O955 O 0.98736 0.73313 0.75051
 O956 O 1.01286 0.75112 0.73271
 O957 O 1.01276 0.76631 0.74794
 O958 O 0.98726 0.74832 0.76574
 O959 O 1.01269 0.74836 0.76587
 O960 O 0.98732 0.76629 0.74782
 Cu961 Cu 1.00012 0.74061 0.74009
 Cu962 Cu 1.00000 0.75884 0.75837
 C963 C 0.98299 0.76175 0.73714
 C964 C 1.01712 0.73770 0.76134
 C965 C 0.98291 0.73766 0.76116
 C966 C 1.01721 0.76178 0.73730
 O967 O 0.48760 0.75120 0.23320
 O968 O 0.51310 0.73331 0.25112
 O969 O 0.48766 0.73325 0.25114
 O970 O 0.51304 0.75127 0.23319
 O971 O 0.51300 0.76647 0.24841
 O972 O 0.48762 0.74845 0.26636
 O973 O 0.51306 0.74851 0.26634
 O974 O 0.48756 0.76640 0.24842
 Cu975 Cu 0.50035 0.74073 0.24064
 Cu976 Cu 0.50031 0.75898 0.25891
 C977 C 0.48318 0.76185 0.23776
 C978 C 0.51748 0.73786 0.26178
 C979 C 0.48327 0.73778 0.26181
 C980 C 0.51739 0.76194 0.23774
 O981 O -0.01292 0.73369 0.24841
 O982 O 0.01243 0.75168 0.26642
 O983 O -0.01301 0.75159 0.26640
 O984 O 0.01252 0.73379 0.24843
 O985 O 0.01247 0.74904 0.23325
 O986 O -0.01306 0.76684 0.25123
 O987 O 0.01239 0.76693 0.25125
 O988 O -0.01297 0.74894 0.23324
 Cu989 Cu -0.00024 0.74116 0.25893
 Cu990 Cu -0.00030 0.75947 0.24072
 C991 C -0.01731 0.73825 0.23776
 C992 C 0.01678 0.76237 0.26190
 C993 C -0.01743 0.76225 0.26188
 C994 C 0.01690 0.73838 0.23778
 O995 O 0.48704 0.76684 0.75149
 O996 O 0.51249 0.74898 0.73348
 O997 O 0.48705 0.74888 0.73357
 O998 O 0.51248 0.76693 0.75141
 O999 O 0.51258 0.75173 0.76663
 O1000 O 0.48717 0.73368 0.74879
 O1001 O 0.51260 0.73378 0.74870
 O1002 O 0.48714 0.75164 0.76671
 Cu1003 Cu 0.49975 0.75943 0.74097
 Cu1004 Cu 0.49989 0.74119 0.75924
 C1005 C 0.48270 0.76229 0.76217
 C1006 C 0.51693 0.73834 0.73802
 C1007 C 0.48273 0.73820 0.73814
 C1008 C 0.51691 0.76241 0.76207
 C1009 C 0.40139 0.32640 0.31161
 C1010 C 0.40325 0.31292 0.31275
 C1011 C 0.39451 0.30548 0.32013
 C1012 C 0.38392 0.31146 0.32632
 C1013 C 0.38192 0.32500 0.32520
 C1014 C 0.39080 0.33240 0.31778
 C1015 C 0.41403 0.30669 0.30625
 C1016 C 0.42298 0.30138 0.30076
 C1017 C 0.43337 0.29505 0.29430
 C1018 C 0.44217 0.28957 0.28875
 C1019 C 0.45259 0.28291 0.28207
 C1020 C 0.45761 0.27126 0.28712
 C1021 C 0.46754 0.26464 0.28051
 C1022 C 0.47258 0.26959 0.26873
 C1023 C 0.46752 0.28136 0.26379
 C1024 C 0.45758 0.28796 0.27042
 H1025 H 0.40812 0.33226 0.30594
 H1026 H 0.39582 0.29503 0.32104
 H1027 H 0.37718 0.30545 0.33178
 H1028 H 0.38964 0.34285 0.31686
 H1029 H 0.45380 0.26726 0.29613
 H1030 H 0.47122 0.25561 0.28458
 H1031 H 0.47117 0.28543 0.25475
 H1032 H 0.45375 0.29697 0.26642
 C1033 C 0.39693 0.82371 0.80714
 C1034 C 0.40282 0.81287 0.81292
 C1035 C 0.39809 0.80816 0.82478
 C1036 C 0.38745 0.81418 0.83084
 C1037 C 0.38122 0.82513 0.82513
 C1038 C 0.38629 0.82978 0.81314
 C1039 C 0.41361 0.80649 0.80658
 C1040 C 0.42258 0.80110 0.80120
 C1041 C 0.43300 0.79473 0.79482
 C1042 C 0.44182 0.78923 0.78931
 C1043 C 0.45227 0.78261 0.78265
 C1044 C 0.45735 0.77099 0.78770
 C1045 C 0.46731 0.76441 0.78110
 C1046 C 0.47233 0.76938 0.76932
 C1047 C 0.46721 0.78112 0.76436
 C1048 C 0.45725 0.78768 0.77099
 H1049 H 0.40051 0.82743 0.79792
 H1050 H 0.40261 0.79977 0.82936
 H1051 H 0.38431 0.81015 0.84003
 H1052 H 0.38207 0.83801 0.80812
 H1053 H 0.45356 0.76698 0.79671
 H1054 H 0.47103 0.75541 0.78517
 H1055 H 0.47085 0.78521 0.75533
 H1056 H 0.45338 0.79666 0.76699
 C1057 C -0.10174 0.32508 0.80818
 C1058 C -0.09708 0.31317 0.81283
 C1059 C -0.10305 0.30733 0.82358
 C1060 C -0.11370 0.31333 0.82965
 C1061 C -0.11869 0.32537 0.82505
 C1062 C -0.11239 0.33114 0.81419
 C1063 C -0.08628 0.30683 0.80645
 C1064 C -0.07731 0.30146 0.80105
 C1065 C -0.06689 0.29510 0.79466
 C1066 C -0.05807 0.28961 0.78916
 C1067 C -0.04762 0.28296 0.78252
 C1068 C -0.04257 0.27134 0.78762
 C1069 C -0.03261 0.26472 0.78105
 C1070 C -0.02756 0.26965 0.76927
 C1071 C -0.03265 0.28138 0.76427
 C1072 C -0.04261 0.28798 0.77086
 H1073 H -0.09716 0.32971 0.79985
 H1074 H -0.09952 0.29807 0.82726
 H1075 H -0.11799 0.30826 0.83781
 H1076 H -0.11547 0.34038 0.81021
 H1077 H -0.04639 0.26736 0.79664
 H1078 H -0.02892 0.25572 0.78516
 H1079 H -0.02898 0.28543 0.75523
 H1080 H -0.04646 0.29696 0.76682
 C1081 C -0.10201 0.80808 0.32458
 C1082 C -0.09729 0.81280 0.31271
 C1083 C -0.10317 0.82364 0.30694
 C1084 C -0.11380 0.82973 0.31296
 C1085 C -0.11885 0.82507 0.32495
 C1086 C -0.11263 0.81412 0.33065
 C1087 C -0.08651 0.80641 0.30635
 C1088 C -0.07755 0.80101 0.30096
 C1089 C -0.06715 0.79464 0.29456
 C1090 C -0.05833 0.78915 0.28904
 C1091 C -0.04788 0.78253 0.28236
 C1092 C -0.04288 0.78763 0.27073
 C1093 C -0.03291 0.78109 0.26410
 C1094 C -0.02782 0.76933 0.26902
 C1095 C -0.03286 0.76432 0.28077
 C1096 C -0.04283 0.77089 0.28738
 H1097 H -0.09749 0.79969 0.32915
 H1098 H -0.09960 0.82736 0.29772
 H1099 H -0.11801 0.83796 0.30795
 H1100 H -0.11577 0.81009 0.33985
 H1101 H -0.04673 0.79664 0.26675
 H1102 H -0.02925 0.78520 0.25509
 H1103 H -0.02916 0.75530 0.28483
 H1104 H -0.04664 0.76685 0.29638
 C1105 C 0.59920 0.67393 0.31133
 C1106 C 0.59739 0.68739 0.31258
 C1107 C 0.60619 0.69475 0.31998
 C1108 C 0.61679 0.68869 0.32606
 C1109 C 0.61875 0.67516 0.32482
 C1110 C 0.60980 0.66784 0.31740
 C1111 C 0.58660 0.69370 0.30617
 C1112 C 0.57763 0.69905 0.30074
 C1113 C 0.56722 0.70539 0.29434
 C1114 C 0.55839 0.71088 0.28882
 C1115 C 0.54794 0.71750 0.28218
 C1116 C 0.54288 0.72913 0.28724
 C1117 C 0.53291 0.73572 0.28066
 C1118 C 0.52786 0.73075 0.26890
 C1119 C 0.53296 0.71901 0.26393
 C1120 C 0.54293 0.71244 0.27053
 H1121 H 0.59243 0.66813 0.30565
 H1122 H 0.60491 0.70520 0.32097
 H1123 H 0.62358 0.69464 0.33153
 H1124 H 0.61093 0.65740 0.31639
 H1125 H 0.54669 0.73314 0.29624
 H1126 H 0.52920 0.74473 0.28475
 H1127 H 0.52930 0.71493 0.25490
 H1128 H 0.54679 0.70346 0.26652
 C1129 C 0.60259 0.17623 0.80654
 C1130 C 0.59670 0.18710 0.81226
 C1131 C 0.60142 0.19186 0.82411
 C1132 C 0.61204 0.18586 0.83021
 C1133 C 0.61827 0.17489 0.82455
 C1134 C 0.61322 0.17018 0.81258
 C1135 C 0.58593 0.19347 0.80587
 C1136 C 0.57698 0.19887 0.80047
 C1137 C 0.56659 0.20526 0.79408
 C1138 C 0.55779 0.21079 0.78857
 C1139 C 0.54737 0.21747 0.78192
 C1140 C 0.54235 0.22910 0.78701
 C1141 C 0.53240 0.23574 0.78043
 C1142 C 0.52735 0.23081 0.76865
 C1143 C 0.53242 0.21907 0.76366
 C1144 C 0.54236 0.21245 0.77026
 H1145 H 0.59902 0.17247 0.79734
 H1146 H 0.59689 0.20027 0.82864
 H1147 H 0.61517 0.18994 0.83938
 H1148 H 0.61744 0.16192 0.80761
 H1149 H 0.54616 0.23307 0.79602
 H1150 H 0.52873 0.24475 0.78453
 H1151 H 0.52875 0.21502 0.75462
 H1152 H 0.54619 0.20346 0.76623
 C1153 C 1.10139 0.67525 0.80801
 C1154 C 1.09666 0.68716 0.81262
 C1155 C 1.10253 0.69301 0.82342
 C1156 C 1.11315 0.68704 0.82957
 C1157 C 1.11820 0.67500 0.82501
 C1158 C 1.11200 0.66922 0.81410
 C1159 C 1.08591 0.69348 0.80616
 C1160 C 1.07698 0.69884 0.80068
 C1161 C 1.06660 0.70518 0.79422
 C1162 C 1.05782 0.71067 0.78864
 C1163 C 1.04741 0.71731 0.78193
 C1164 C 1.04234 0.72894 0.78696
 C1165 C 1.03242 0.73554 0.78031
 C1166 C 1.02744 0.73058 0.76852
 C1167 C 1.03256 0.71884 0.76358
 C1168 C 1.04248 0.71226 0.77025
 H1169 H 1.09688 0.67061 0.79965
 H1170 H 1.09896 0.70227 0.82707
 H1171 H 1.11735 0.69211 0.83777
 H1172 H 1.11513 0.65999 0.81015
 H1173 H 1.04610 0.73294 0.79599
 H1174 H 1.02870 0.74455 0.78438
 H1175 H 1.02895 0.71476 0.75453
 H1176 H 1.04635 0.70326 0.76625
 C1177 C 1.10333 0.17649 0.30713
 C1178 C 1.09744 0.18730 0.31296
 C1179 C 1.10214 0.19193 0.32486
 C1180 C 1.11275 0.18586 0.33091
 C1181 C 1.11897 0.17493 0.32515
 C1182 C 1.11394 0.17036 0.31312
 C1183 C 1.08667 0.19374 0.30663
 C1184 C 1.07772 0.19917 0.30127
 C1185 C 1.06732 0.20559 0.29492
 C1186 C 1.05851 0.21112 0.28942
 C1187 C 1.04807 0.21777 0.28278
 C1188 C 1.04303 0.22940 0.28784
 C1189 C 1.03306 0.23600 0.28126
 C1190 C 1.02800 0.23103 0.26951
 C1191 C 1.03309 0.21929 0.26454
 C1192 C 1.04306 0.21271 0.27114
 H1193 H 1.09976 0.17283 0.29788
 H1194 H 1.09762 0.20030 0.32949
 H1195 H 1.11587 0.18982 0.34014
 H1196 H 1.11816 0.16216 0.30806
 H1197 H 1.04685 0.23341 0.29684
 H1198 H 1.02936 0.24501 0.28535
 H1199 H 1.02942 0.21521 0.25551
 H1200 H 1.04690 0.20372 0.26712
 C1201 C 0.60579 0.30517 0.67954
 C1202 C 0.59700 0.31257 0.68692
 C1203 C 0.59884 0.32603 0.68816
 C1204 C 0.60946 0.33208 0.68209
 C1205 C 0.61840 0.32472 0.67469
 C1206 C 0.61641 0.31119 0.67346
 C1207 C 0.58618 0.30630 0.69332
 C1208 C 0.57720 0.30097 0.69873
 C1209 C 0.56677 0.29464 0.70511
 C1210 C 0.55793 0.28916 0.71060
 C1211 C 0.54747 0.28252 0.71722
 C1212 C 0.54244 0.28755 0.72887
 C1213 C 0.53247 0.28096 0.73545
 C1214 C 0.52739 0.26923 0.73045
 C1215 C 0.53246 0.26430 0.71868
 C1216 C 0.54243 0.27091 0.71212
 H1217 H 0.60449 0.29473 0.67856
 H1218 H 0.59208 0.33186 0.69382
 H1219 H 0.61061 0.34252 0.68309
 H1220 H 0.62319 0.30522 0.66800
 H1221 H 0.54628 0.29653 0.73291
 H1222 H 0.52879 0.28502 0.74448
 H1223 H 0.52877 0.25530 0.71457
 H1224 H 0.54626 0.26692 0.70311
 C1225 C 0.60296 0.82370 0.19286
 C1226 C 0.59701 0.81292 0.18705
 C1227 C 0.60165 0.80828 0.17513
 C1228 C 0.61226 0.81431 0.16904
 C1229 C 0.61855 0.82519 0.17478
 C1230 C 0.61358 0.82978 0.18683
 C1231 C 0.58625 0.80652 0.19342
 C1232 C 0.57731 0.80110 0.19881
 C1233 C 0.56692 0.79469 0.20518
 C1234 C 0.55813 0.78915 0.21069
 C1235 C 0.54772 0.78246 0.21733
 C1236 C 0.54274 0.77081 0.21227
 C1237 C 0.53280 0.76417 0.21885
 C1238 C 0.52773 0.76910 0.23062
 C1239 C 0.53275 0.78087 0.23559
 C1240 C 0.54268 0.78749 0.22898
 H1241 H 0.59945 0.82737 0.20213
 H1242 H 0.59708 0.79994 0.17052
 H1243 H 0.61533 0.81033 0.15980
 H1244 H 0.61786 0.83796 0.19188
 H1245 H 0.54657 0.76682 0.20327
 H1246 H 0.52916 0.75514 0.21477
 H1247 H 0.52906 0.78493 0.24461
 H1248 H 0.54648 0.79650 0.23299
 C1249 C 1.10277 0.32414 0.19324
 C1250 C 1.09687 0.31332 0.18748
 C1251 C 1.10156 0.30861 0.17559
 C1252 C 1.11217 0.31463 0.16950
 C1253 C 1.11842 0.32556 0.17521
 C1254 C 1.11339 0.33022 0.18721
 C1255 C 1.08612 0.30691 0.19386
 C1256 C 1.07719 0.30149 0.19927
 C1257 C 1.06684 0.29506 0.20567
 C1258 C 1.05807 0.28951 0.21120
 C1259 C 1.04769 0.28280 0.21787
 C1260 C 1.04272 0.27114 0.21282
 C1261 C 1.03282 0.26447 0.21943
 C1262 C 1.02776 0.26940 0.23121
 C1263 C 1.03277 0.28118 0.23616
 C1264 C 1.04266 0.28783 0.22953
 H1265 H 1.09922 0.32786 0.20247
 H1266 H 1.09702 0.30023 0.17102
 H1267 H 1.11528 0.31060 0.16030
 H1268 H 1.11762 0.33844 0.19222
 H1269 H 1.04655 0.26715 0.20381
 H1270 H 1.02919 0.25543 0.21536
 H1271 H 1.02909 0.28524 0.24519
 H1272 H 1.04645 0.29684 0.23353
 C1273 C 1.10606 0.82014 0.69489
 C1274 C 1.09732 0.81279 0.68742
 C1275 C 1.09922 0.81163 0.67395
 C1276 C 1.10985 0.81775 0.66798
 C1277 C 1.11874 0.82512 0.67541
 C1278 C 1.11670 0.82627 0.68894
 C1279 C 1.08649 0.80633 0.69361
 C1280 C 1.07750 0.80088 0.69887
 C1281 C 1.06705 0.79445 0.70513
 C1282 C 1.05819 0.78891 0.71054
 C1283 C 1.04772 0.78225 0.71710
 C1284 C 1.04274 0.77061 0.71200
 C1285 C 1.03275 0.76398 0.71851
 C1286 C 1.02760 0.76893 0.73024
 C1287 C 1.03261 0.78068 0.73525
 C1288 C 1.04261 0.78729 0.72871
 H1289 H 1.10471 0.82106 0.70533
 H1290 H 1.09249 0.80599 0.66807
 H1291 H 1.11104 0.81681 0.65754
 H1292 H 1.12344 0.83170 0.69497
 H1293 H 1.04664 0.76661 0.70302
 H1294 H 1.02912 0.75496 0.71440
 H1295 H 1.02887 0.78475 0.74425
 H1296 H 1.04639 0.79628 0.73276
 C1297 C 0.40140 0.68814 0.67424
 C1298 C 0.40314 0.68695 0.68773
 C1299 C 0.39430 0.67960 0.69508
 C1300 C 0.38371 0.67351 0.68901
 C1301 C 0.38182 0.67471 0.67546
 C1302 C 0.39081 0.68207 0.66815
 C1303 C 0.41390 0.69340 0.69404
 C1304 C 0.42283 0.69886 0.69940
 C1305 C 0.43321 0.70532 0.70573
 C1306 C 0.44200 0.71089 0.71121
 C1307 C 0.45240 0.71761 0.71782
 C1308 C 0.45748 0.71259 0.72946
 C1309 C 0.46741 0.71924 0.73604
 C1310 C 0.47239 0.73102 0.73105
 C1311 C 0.46727 0.73595 0.71930
 C1312 C 0.45734 0.72928 0.71274
 H1313 H 0.40820 0.69379 0.66845
 H1314 H 0.39553 0.67865 0.70554
 H1315 H 0.37689 0.66808 0.69495
 H1316 H 0.38973 0.68304 0.65769
 H1317 H 0.45372 0.70357 0.73349
 H1318 H 0.47113 0.71519 0.74505
 H1319 H 0.47088 0.74498 0.71520
 H1320 H 0.45347 0.73325 0.70375
 C1321 C 0.39430 0.17986 0.19481
 C1322 C 0.40303 0.18724 0.18736
 C1323 C 0.40117 0.18837 0.17389
 C1324 C 0.39057 0.18221 0.16789
 C1325 C 0.38170 0.17480 0.17531
 C1326 C 0.38371 0.17368 0.18884
 C1327 C 0.41381 0.19375 0.19357
 C1328 C 0.42277 0.19924 0.19885
 C1329 C 0.43317 0.20571 0.20514
 C1330 C 0.44199 0.21127 0.21059
 C1331 C 0.45242 0.21794 0.21720
 C1332 C 0.45741 0.22959 0.21213
 C1333 C 0.46737 0.23621 0.21870
 C1334 C 0.47247 0.23125 0.23044
 C1335 C 0.46744 0.21949 0.23542
 C1336 C 0.45748 0.21289 0.22883
 H1337 H 0.39562 0.17895 0.20526
 H1338 H 0.40789 0.19404 0.16801
 H1339 H 0.38941 0.18313 0.15745
 H1340 H 0.37697 0.16822 0.19486
 H1341 H 0.45355 0.23359 0.20314
 H1342 H 0.47102 0.24524 0.21461
 H1343 H 0.47114 0.21541 0.24443
 H1344 H 0.45368 0.20388 0.23285
 C1345 C -0.09865 0.68829 0.17369
 C1346 C -0.09684 0.68708 0.18716
 C1347 C -0.10560 0.67967 0.19454
 C1348 C -0.11617 0.67353 0.18850
 C1349 C -0.11814 0.67473 0.17497
 C1350 C -0.10923 0.68217 0.16763
 C1351 C -0.08608 0.69356 0.19344
 C1352 C -0.07715 0.69904 0.19879
 C1353 C -0.06678 0.70549 0.20513
 C1354 C -0.05799 0.71105 0.21063
 C1355 C -0.04759 0.71774 0.21729
 C1356 C -0.04255 0.71268 0.22892
 C1357 C -0.03263 0.71930 0.23554
 C1358 C -0.02763 0.73110 0.23061
 C1359 C -0.03272 0.73606 0.21887
 C1360 C -0.04264 0.72942 0.21226
 H1361 H -0.09191 0.69399 0.16787
 H1362 H -0.10431 0.67871 0.20499
 H1363 H -0.12294 0.66804 0.19447
 H1364 H -0.11036 0.68315 0.15718
 H1365 H -0.04632 0.70365 0.23290
 H1366 H -0.02893 0.71521 0.24455
 H1367 H -0.02909 0.74512 0.21481
 H1368 H -0.04649 0.73344 0.20327
 C1369 C -0.10147 0.19209 0.67559
 C1370 C -0.09681 0.18744 0.68751
 C1371 C -0.10275 0.17665 0.69332
 C1372 C -0.11337 0.17056 0.68730
 C1373 C -0.11836 0.17516 0.67526
 C1374 C -0.11209 0.18606 0.66952
 C1375 C -0.08605 0.19384 0.69387
 C1376 C -0.07711 0.19925 0.69926
 C1377 C -0.06673 0.20566 0.70564
 C1378 C -0.05793 0.21119 0.71115
 C1379 C -0.04752 0.21787 0.71779
 C1380 C -0.04252 0.21286 0.72946
 C1381 C -0.03258 0.21948 0.73606
 C1382 C -0.02752 0.23122 0.73107
 C1383 C -0.03257 0.23614 0.71928
 C1384 C -0.04250 0.22950 0.71270
 H1385 H -0.09691 0.20044 0.67098
 H1386 H -0.09923 0.17297 0.70258
 H1387 H -0.11763 0.16238 0.69235
 H1388 H -0.11517 0.19004 0.66028
 H1389 H -0.04634 0.20387 0.73350
 H1390 H -0.02892 0.21543 0.74511
 H1391 H -0.02889 0.24515 0.71517
 H1392 H -0.04631 0.23347 0.70368
 C1393 C 0.30537 0.39444 0.32066
 C1394 C 0.31278 0.40321 0.31329
 C1395 C 0.32626 0.40138 0.31208
 C1396 C 0.33231 0.39077 0.31817
 C1397 C 0.32494 0.38185 0.32556
 C1398 C 0.31139 0.38383 0.32676
 C1399 C 0.30651 0.41400 0.30684
 C1400 C 0.30118 0.42296 0.30140
 C1401 C 0.29486 0.43337 0.29496
 C1402 C 0.28939 0.44218 0.28942
 C1403 C 0.28277 0.45261 0.28275
 C1404 C 0.28787 0.45763 0.27113
 C1405 C 0.28130 0.46758 0.26450
 C1406 C 0.26951 0.47264 0.26942
 C1407 C 0.26450 0.46758 0.28116
 C1408 C 0.27110 0.45763 0.28777
 H1409 H 0.29491 0.39574 0.32162
 H1410 H 0.33210 0.40813 0.30642
 H1411 H 0.34276 0.38963 0.31719
 H1412 H 0.30541 0.37707 0.33222
 H1413 H 0.29690 0.45381 0.26715
 H1414 H 0.28542 0.47126 0.25549
 H1415 H 0.25546 0.47125 0.28521
 H1416 H 0.26705 0.45380 0.29675
 C1417 C 0.32478 -0.10152 0.80835
 C1418 C 0.31289 -0.09680 0.81303
 C1419 C 0.30705 -0.10271 0.82381
 C1420 C 0.31302 -0.11337 0.82988
 C1421 C 0.32503 -0.11843 0.82525
 C1422 C 0.33081 -0.11218 0.81436
 C1423 C 0.30658 -0.08599 0.80665
 C1424 C 0.30122 -0.07702 0.80125
 C1425 C 0.29487 -0.06660 0.79487
 C1426 C 0.28939 -0.05777 0.78936
 C1427 C 0.28275 -0.04733 0.78272
 C1428 C 0.27110 -0.04230 0.78777
 C1429 C 0.26449 -0.03235 0.78118
 C1430 C 0.26947 -0.02730 0.76942
 C1431 C 0.28124 -0.03236 0.76447
 C1432 C 0.28782 -0.04232 0.77108
 H1433 H 0.32941 -0.09698 0.80000
 H1434 H 0.29781 -0.09913 0.82751
 H1435 H 0.30795 -0.11760 0.83806
 H1436 H 0.34002 -0.11532 0.81035
 H1437 H 0.26708 -0.04612 0.79676
 H1438 H 0.25546 -0.02867 0.78525
 H1439 H 0.28533 -0.02870 0.75545
 H1440 H 0.29683 -0.04615 0.76707
 C1441 C 0.82366 0.39739 0.80690
 C1442 C 0.81285 0.40334 0.81268
 C1443 C 0.80815 0.39867 0.82457
 C1444 C 0.81415 0.38804 0.83065
 C1445 C 0.82507 0.38176 0.82492
 C1446 C 0.82972 0.38676 0.81291
 C1447 C 0.80648 0.41411 0.80632
 C1448 C 0.80107 0.42306 0.80093
 C1449 C 0.79466 0.43345 0.79456
 C1450 C 0.78913 0.44225 0.78906
 C1451 C 0.78244 0.45266 0.78242
 C1452 C 0.77079 0.45767 0.78752
 C1453 C 0.76414 0.46760 0.78094
 C1454 C 0.76905 0.47264 0.76915
 C1455 C 0.78081 0.46759 0.76415
 C1456 C 0.78745 0.45766 0.77075
 H1457 H 0.82738 0.40093 0.79765
 H1458 H 0.79979 0.40324 0.82916
 H1459 H 0.81013 0.38495 0.83986
 H1460 H 0.83792 0.38249 0.80788
 H1461 H 0.76682 0.45386 0.79654
 H1462 H 0.75512 0.47127 0.78505
 H1463 H 0.78486 0.47125 0.75511
 H1464 H 0.79644 0.45384 0.76671
 C1465 C 0.82346 -0.10287 0.30703
 C1466 C 0.81268 -0.09691 0.31287
 C1467 C 0.80804 -0.10157 0.32479
 C1468 C 0.81407 -0.11220 0.33084
 C1469 C 0.82495 -0.11849 0.32506
 C1470 C 0.82954 -0.11350 0.31302
 C1471 C 0.80628 -0.08614 0.30653
 C1472 C 0.80087 -0.07719 0.30115
 C1473 C 0.79446 -0.06680 0.29478
 C1474 C 0.78895 -0.05800 0.28926
 C1475 C 0.78230 -0.04758 0.28259
 C1476 C 0.77063 -0.04255 0.28761
 C1477 C 0.76403 -0.03261 0.28099
 C1478 C 0.76904 -0.02757 0.26924
 C1479 C 0.78083 -0.03263 0.26432
 C1480 C 0.78740 -0.04257 0.27096
 H1481 H 0.82713 -0.09934 0.29777
 H1482 H 0.79970 -0.09699 0.32942
 H1483 H 0.81009 -0.11527 0.34008
 H1484 H 0.83771 -0.11778 0.30795
 H1485 H 0.76659 -0.04637 0.29660
 H1486 H 0.75499 -0.02893 0.28504
 H1487 H 0.78494 -0.02897 0.25531
 H1488 H 0.79642 -0.04640 0.26698
 C1489 C 0.32569 0.59871 0.68842
 C1490 C 0.31220 0.59696 0.68719
 C1491 C 0.30486 0.60578 0.67980
 C1492 C 0.31096 0.61634 0.67370
 C1493 C 0.32452 0.61824 0.67493
 C1494 C 0.33182 0.60927 0.68234
 C1495 C 0.30586 0.58623 0.69364
 C1496 C 0.30049 0.57731 0.69910
 C1497 C 0.29413 0.56694 0.70556
 C1498 C 0.28864 0.55816 0.71113
 C1499 C 0.28200 0.54776 0.71783
 C1500 C 0.27034 0.54273 0.71283
 C1501 C 0.26375 0.53281 0.71946
 C1502 C 0.26875 0.52778 0.73122
 C1503 C 0.28053 0.53285 0.73613
 C1504 C 0.28710 0.54278 0.72947
 H1505 H 0.33148 0.59192 0.69410
 H1506 H 0.29440 0.60455 0.67882
 H1507 H 0.30503 0.62315 0.66823
 H1508 H 0.34228 0.61034 0.68334
 H1509 H 0.26630 0.54653 0.70383
 H1510 H 0.25471 0.52912 0.71542
 H1511 H 0.28465 0.52920 0.74515
 H1512 H 0.29612 0.54661 0.73344
 C1513 C 0.30833 1.10117 0.17558
 C1514 C 0.31301 1.09654 0.18750
 C1515 C 0.32381 1.10249 0.19328
 C1516 C 0.32987 1.11311 0.18725
 C1517 C 0.32524 1.11808 0.17521
 C1518 C 0.31434 1.11179 0.16949
 C1519 C 0.30663 1.08578 0.19387
 C1520 C 0.30123 1.07684 0.19928
 C1521 C 0.29483 1.06647 0.20567
 C1522 C 0.28930 1.05768 0.21119
 C1523 C 0.28263 1.04727 0.21785
 C1524 C 0.28768 1.04226 0.22950
 C1525 C 0.28107 1.03233 0.23611
 C1526 C 0.26930 1.02729 0.23115
 C1527 C 0.26434 1.03234 0.21938
 C1528 C 0.27098 1.04227 0.21279
 H1529 H 0.29998 1.09660 0.17099
 H1530 H 0.32751 1.09898 0.20254
 H1531 H 0.33806 1.11739 0.19228
 H1532 H 0.31033 1.11485 0.16026
 H1533 H 0.29669 1.04608 0.23351
 H1534 H 0.28514 1.02867 0.24514
 H1535 H 0.25531 1.02868 0.21530
 H1536 H 0.26698 1.04609 0.20378
 C1537 C 0.81146 0.59835 0.17322
 C1538 C 0.81262 0.59645 0.18668
 C1539 C 0.81997 0.60518 0.19415
 C1540 C 0.82612 0.61580 0.18820
 C1541 C 0.82497 0.61784 0.17467
 C1542 C 0.81758 0.60897 0.16724
 C1543 C 0.80614 0.58564 0.19288
 C1544 C 0.80068 0.57667 0.19816
 C1545 C 0.79425 0.56625 0.20444
 C1546 C 0.78872 0.55742 0.20990
 C1547 C 0.78207 0.54698 0.21653
 C1548 C 0.78714 0.54195 0.22815
 C1549 C 0.78055 0.53200 0.23476
 C1550 C 0.76877 0.52697 0.22982
 C1551 C 0.76379 0.53204 0.21807
 C1552 C 0.77041 0.54198 0.21148
 H1553 H 0.80580 0.59163 0.16733
 H1554 H 0.82089 0.60383 0.20459
 H1555 H 0.83156 0.62253 0.19423
 H1556 H 0.81665 0.61016 0.15680
 H1557 H 0.79616 0.54576 0.23216
 H1558 H 0.78465 0.52832 0.24378
 H1559 H 0.75475 0.52838 0.21400
 H1560 H 0.76638 0.54582 0.20249
 C1561 C 0.82004 1.10599 0.69497
 C1562 C 0.81271 1.09721 0.68753
 C1563 C 0.81157 1.09905 0.67405
 C1564 C 0.81769 1.10966 0.66805
 C1565 C 0.82505 1.11858 0.67545
 C1566 C 0.82618 1.11659 0.68899
 C1567 C 0.80624 1.08642 0.69375
 C1568 C 0.80078 1.07745 0.69905
 C1569 C 0.79434 1.06704 0.70534
 C1570 C 0.78880 1.05822 0.71079
 C1571 C 0.78213 1.04778 0.71740
 C1572 C 0.77047 1.04279 0.71232
 C1573 C 0.76384 1.03284 0.71887
 C1574 C 0.76880 1.02773 0.73062
 C1575 C 0.78057 1.03276 0.73560
 C1576 C 0.78718 1.04271 0.72902
 H1577 H 0.82094 1.10468 0.70542
 H1578 H 0.80593 1.09230 0.66819
 H1579 H 0.81677 1.11081 0.65760
 H1580 H 0.83160 1.12336 0.69500
 H1581 H 0.76647 1.04665 0.70333
 H1582 H 0.75481 1.02919 0.71478
 H1583 H 0.78465 1.02905 0.74461
 H1584 H 0.79619 1.04651 0.73305
 C1585 C 0.69491 0.60531 0.31944
 C1586 C 0.68742 0.59663 0.31204
 C1587 C 0.67395 0.59857 0.31087
 C1588 C 0.66798 0.60918 0.31703
 C1589 C 0.67543 0.61800 0.32446
 C1590 C 0.68896 0.61592 0.32562
 C1591 C 0.69361 0.58583 0.30554
 C1592 C 0.69889 0.57685 0.30007
 C1593 C 0.70517 0.56643 0.29363
 C1594 C 0.71062 0.55760 0.28809
 C1595 C 0.71723 0.54714 0.28144
 C1596 C 0.71214 0.54213 0.26981
 C1597 C 0.71871 0.53216 0.26320
 C1598 C 0.73047 0.52707 0.26816
 C1599 C 0.73546 0.53213 0.27991
 C1600 C 0.72887 0.54210 0.28649
 H1601 H 0.70535 0.60393 0.32037
 H1602 H 0.66806 0.59189 0.30518
 H1603 H 0.65754 0.61040 0.31608
 H1604 H 0.69500 0.62261 0.33110
 H1605 H 0.70314 0.54597 0.26581
 H1606 H 0.71461 0.52849 0.25419
 H1607 H 0.74449 0.52844 0.28398
 H1608 H 0.73290 0.54592 0.29548
 C1609 C 0.69274 1.10305 0.82336
 C1610 C 0.68693 1.09710 0.81258
 C1611 C 0.67502 1.10176 0.80791
 C1612 C 0.66894 1.11239 0.81391
 C1613 C 0.67469 1.11868 0.82479
 C1614 C 0.68673 1.11368 0.82942
 C1615 C 0.69329 1.08631 0.80621
 C1616 C 0.69867 1.07736 0.80081
 C1617 C 0.70503 1.06695 0.79442
 C1618 C 0.71052 1.05814 0.78890
 C1619 C 0.71716 1.04771 0.78223
 C1620 C 0.71209 1.04273 0.77058
 C1621 C 0.71868 1.03278 0.76395
 C1622 C 0.73044 1.02769 0.76891
 C1623 C 0.73540 1.03271 0.78068
 C1624 C 0.72880 1.04266 0.78728
 H1625 H 0.70201 1.09952 0.82705
 H1626 H 0.67041 1.09719 0.79957
 H1627 H 0.65971 1.11548 0.80991
 H1628 H 0.69178 1.11796 0.83759
 H1629 H 0.70309 1.04658 0.76658
 H1630 H 0.71459 1.02914 0.75492
 H1631 H 0.74443 1.02902 0.78476
 H1632 H 0.73282 1.04646 0.79629
 C1633 C 0.19157 0.60192 0.82503
 C1634 C 0.18688 0.59716 0.81317
 C1635 C 0.17604 0.60303 0.80736
 C1636 C 0.16994 0.61367 0.81332
 C1637 C 0.17458 0.61876 0.82531
 C1638 C 0.18552 0.61256 0.83105
 C1639 C 0.19328 0.58637 0.80686
 C1640 C 0.19869 0.57741 0.80150
 C1641 C 0.20509 0.56701 0.79514
 C1642 C 0.21060 0.55819 0.78964
 C1643 C 0.21724 0.54776 0.78299
 C1644 C 0.21215 0.54273 0.77137
 C1645 C 0.21874 0.53279 0.76475
 C1646 C 0.23053 0.52775 0.76967
 C1647 C 0.23552 0.53281 0.78141
 C1648 C 0.22892 0.54276 0.78801
 H1649 H 0.19995 0.59741 0.82964
 H1650 H 0.17233 0.59943 0.79814
 H1651 H 0.16171 0.61787 0.80828
 H1652 H 0.18954 0.61572 0.84024
 H1653 H 0.20312 0.54655 0.76738
 H1654 H 0.21463 0.52911 0.75574
 H1655 H 0.24457 0.52915 0.78547
 H1656 H 0.23295 0.54659 0.79700
 C1657 C 0.19192 1.10140 0.32481
 C1658 C 0.18723 1.09674 0.31291
 C1659 C 0.17644 1.10271 0.30711
 C1660 C 0.17039 1.11335 0.31312
 C1661 C 0.17504 1.11835 0.32513
 C1662 C 0.18593 1.11205 0.33087
 C1663 C 0.19360 1.08596 0.30656
 C1664 C 0.19900 1.07699 0.30118
 C1665 C 0.20539 1.06659 0.29482
 C1666 C 0.21091 1.05778 0.28933
 C1667 C 0.21757 1.04734 0.28270
 C1668 C 0.21253 1.04232 0.27105
 C1669 C 0.21913 1.03238 0.26446
 C1670 C 0.23090 1.02732 0.26943
 C1671 C 0.23585 1.03238 0.28119
 C1672 C 0.22922 1.04233 0.28777
 H1673 H 0.20027 1.09682 0.32941
 H1674 H 0.17273 1.09918 0.29786
 H1675 H 0.16220 1.11763 0.30808
 H1676 H 0.18995 1.11513 0.34009
 H1677 H 0.20352 1.04615 0.26704
 H1678 H 0.21505 1.02870 0.25543
 H1679 H 0.24488 1.02871 0.28528
 H1680 H 0.23322 1.04615 0.29677
 C1681 C 0.69476 0.39429 0.67995
 C1682 C 0.68731 0.40302 0.68733
 C1683 C 0.67383 0.40114 0.68851
 C1684 C 0.66783 0.39054 0.68237
 C1685 C 0.67525 0.38167 0.67496
 C1686 C 0.68879 0.38369 0.67380
 C1687 C 0.69353 0.41382 0.69379
 C1688 C 0.69883 0.42279 0.69923
 C1689 C 0.70514 0.43321 0.70564
 C1690 C 0.71062 0.44204 0.71115
 C1691 C 0.71726 0.45248 0.71777
 C1692 C 0.71223 0.45749 0.72943
 C1693 C 0.71883 0.46746 0.73600
 C1694 C 0.73056 0.47254 0.73099
 C1695 C 0.73549 0.46749 0.71921
 C1696 C 0.72888 0.45752 0.71266
 H1697 H 0.70521 0.39562 0.67902
 H1698 H 0.66795 0.40786 0.69418
 H1699 H 0.65738 0.38936 0.68332
 H1700 H 0.69481 0.37696 0.66834
 H1701 H 0.70325 0.45365 0.73347
 H1702 H 0.71477 0.47113 0.74504
 H1703 H 0.74450 0.47118 0.71509
 H1704 H 0.73287 0.45371 0.70364
 C1705 C 0.69474 -0.10566 0.17974
 C1706 C 0.68733 -0.09689 0.18713
 C1707 C 0.67385 -0.09872 0.18836
 C1708 C 0.66780 -0.10932 0.18227
 C1709 C 0.67517 -0.11823 0.17485
 C1710 C 0.68871 -0.11625 0.17364
 C1711 C 0.69361 -0.08610 0.19356
 C1712 C 0.69895 -0.07715 0.19899
 C1713 C 0.70531 -0.06675 0.20539
 C1714 C 0.71081 -0.05794 0.21090
 C1715 C 0.71746 -0.04752 0.21755
 C1716 C 0.71237 -0.04247 0.22917
 C1717 C 0.71897 -0.03253 0.23578
 C1718 C 0.73077 -0.02752 0.23084
 C1719 C 0.73576 -0.03261 0.21911
 C1720 C 0.72914 -0.04255 0.21252
 H1721 H 0.70519 -0.10436 0.17877
 H1722 H 0.66802 -0.09198 0.19404
 H1723 H 0.65735 -0.11046 0.18326
 H1724 H 0.69469 -0.12301 0.16817
 H1725 H 0.70334 -0.04626 0.23316
 H1726 H 0.71487 -0.02884 0.24478
 H1727 H 0.74481 -0.02897 0.21505
 H1728 H 0.73317 -0.04640 0.20354
 C1729 C 0.18018 0.39452 0.19498
 C1730 C 0.18758 0.40326 0.18755
 C1731 C 0.18878 0.40140 0.17409
 C1732 C 0.18264 0.39082 0.16806
 C1733 C 0.17520 0.38194 0.17545
 C1734 C 0.17403 0.38394 0.18898
 C1735 C 0.19406 0.41404 0.19380
 C1736 C 0.19951 0.42299 0.19912
 C1737 C 0.20593 0.43339 0.20546
 C1738 C 0.21144 0.44220 0.21095
 C1739 C 0.21807 0.45262 0.21762
 C1740 C 0.22975 0.45764 0.21261
 C1741 C 0.23633 0.46758 0.21922
 C1742 C 0.23132 0.47263 0.23097
 C1743 C 0.21953 0.46758 0.23588
 C1744 C 0.21296 0.45763 0.22924
 H1745 H 0.17923 0.39584 0.20542
 H1746 H 0.19447 0.40813 0.16824
 H1747 H 0.18360 0.38966 0.15762
 H1748 H 0.16855 0.37721 0.19497
 H1749 H 0.23380 0.45381 0.20362
 H1750 H 0.24538 0.47125 0.21518
 H1751 H 0.21540 0.47124 0.24489
 H1752 H 0.20394 0.45381 0.23321
 C1753 C 0.17675 -0.10266 0.69335
 C1754 C 0.18754 -0.09671 0.68755
 C1755 C 0.19223 -0.10136 0.67565
 C1756 C 0.18622 -0.11199 0.66958
 C1757 C 0.17533 -0.11827 0.67531
 C1758 C 0.17069 -0.11328 0.68734
 C1759 C 0.19392 -0.08593 0.69391
 C1760 C 0.19931 -0.07698 0.69929
 C1761 C 0.20570 -0.06658 0.70566
 C1762 C 0.21121 -0.05778 0.71116
 C1763 C 0.21786 -0.04735 0.71781
 C1764 C 0.22952 -0.04234 0.71276
 C1765 C 0.23612 -0.03239 0.71934
 C1766 C 0.23115 -0.02733 0.73109
 C1767 C 0.21938 -0.03238 0.73605
 C1768 C 0.21279 -0.04233 0.72944
 H1769 H 0.17305 -0.09913 0.70261
 H1770 H 0.20058 -0.09679 0.67104
 H1771 H 0.19023 -0.11507 0.66035
 H1772 H 0.16250 -0.11755 0.69238
 H1773 H 0.23354 -0.04617 0.70376
 H1774 H 0.24516 -0.02872 0.71526
 H1775 H 0.21528 -0.02870 0.74507
 H1776 H 0.20378 -0.04614 0.73345
 C1777 C 0.32029 0.30520 0.39478
 C1778 C 0.31292 0.31258 0.40359
 C1779 C 0.31171 0.32606 0.40180
 C1780 C 0.31781 0.33213 0.39121
 C1781 C 0.32520 0.32479 0.38226
 C1782 C 0.32640 0.31125 0.38420
 C1783 C 0.30648 0.30628 0.41436
 C1784 C 0.30105 0.30093 0.42330
 C1785 C 0.29463 0.29457 0.43369
 C1786 C 0.28909 0.28906 0.44248
 C1787 C 0.28242 0.28240 0.45289
 C1788 C 0.27076 0.28745 0.45789
 C1789 C 0.26413 0.28085 0.46782
 C1790 C 0.26909 0.26909 0.47287
 C1791 C 0.28087 0.26413 0.46783
 C1792 C 0.28748 0.27075 0.45790
 H1793 H 0.32125 0.29475 0.39605
 H1794 H 0.30605 0.33187 0.40858
 H1795 H 0.31683 0.34258 0.39011
 H1796 H 0.33185 0.30528 0.37741
 H1797 H 0.26675 0.29646 0.45407
 H1798 H 0.25509 0.28493 0.47148
 H1799 H 0.28496 0.25510 0.47150
 H1800 H 0.29650 0.26675 0.45409
 C1801 C 0.32599 0.81137 -0.09876
 C1802 C 0.31251 0.81258 -0.09689
 C1803 C 0.30507 0.81997 -0.10563
 C1804 C 0.31107 0.82610 -0.11623
 C1805 C 0.32461 0.82490 -0.11825
 C1806 C 0.33201 0.81748 -0.10937
 C1807 C 0.30627 0.80612 -0.08609
 C1808 C 0.30096 0.80068 -0.07713
 C1809 C 0.29465 0.79425 -0.06671
 C1810 C 0.28918 0.78873 -0.05789
 C1811 C 0.28255 0.78208 -0.04745
 C1812 C 0.27093 0.78717 -0.04238
 C1813 C 0.26433 0.78059 -0.03242
 C1814 C 0.26928 0.76880 -0.02740
 C1815 C 0.28102 0.76381 -0.03251
 C1816 C 0.28760 0.77041 -0.04247
 H1817 H 0.33184 0.80569 -0.09204
 H1818 H 0.29462 0.82093 -0.10430
 H1819 H 0.30507 0.83157 -0.12297
 H1820 H 0.34246 0.81650 -0.11054
 H1821 H 0.26693 0.79619 -0.04617
 H1822 H 0.25533 0.78470 -0.02871
 H1823 H 0.28509 0.75477 -0.02887
 H1824 H 0.29658 0.76638 -0.04633
 C1825 C 0.80493 0.32025 -0.10595
 C1826 C 0.81234 0.31286 -0.09717
 C1827 C 0.82583 0.31166 -0.09900
 C1828 C 0.83188 0.31776 -0.10958
 C1829 C 0.82452 0.32517 -0.11850
 C1830 C 0.81097 0.32637 -0.11653
 C1831 C 0.80606 0.30641 -0.08640
 C1832 C 0.80073 0.30095 -0.07745
 C1833 C 0.79440 0.29452 -0.06705
 C1834 C 0.78893 0.28897 -0.05824
 C1835 C 0.78231 0.28229 -0.04782
 C1836 C 0.78741 0.27064 -0.04284
 C1837 C 0.78084 0.26401 -0.03289
 C1838 C 0.76907 0.26894 -0.02780
 C1839 C 0.76408 0.28070 -0.03282
 C1840 C 0.77066 0.28732 -0.04277
 H1841 H 0.79448 0.32120 -0.10466
 H1842 H 0.83166 0.30598 -0.09225
 H1843 H 0.84234 0.31679 -0.11072
 H1844 H 0.80499 0.33183 -0.12330
 H1845 H 0.79641 0.26666 -0.04669
 H1846 H 0.78495 0.25498 -0.02925
 H1847 H 0.75505 0.28477 -0.02912
 H1848 H 0.76663 0.29633 -0.04656
 C1849 C 0.80507 0.82005 0.39429
 C1850 C 0.81250 0.81267 0.40304
 C1851 C 0.82598 0.81144 0.40116
 C1852 C 0.83200 0.81753 0.39054
 C1853 C 0.82461 0.82495 0.38165
 C1854 C 0.81107 0.82616 0.38368
 C1855 C 0.80626 0.80623 0.41384
 C1856 C 0.80095 0.80080 0.42282
 C1857 C 0.79463 0.79439 0.43324
 C1858 C 0.78916 0.78887 0.44206
 C1859 C 0.78254 0.78222 0.45251
 C1860 C 0.78764 0.77061 0.45755
 C1861 C 0.78107 0.76399 0.46750
 C1862 C 0.76928 0.76893 0.47255
 C1863 C 0.76427 0.78066 0.46747
 C1864 C 0.77087 0.78726 0.45752
 H1865 H 0.79462 0.82102 0.39562
 H1866 H 0.83183 0.80577 0.40789
 H1867 H 0.84245 0.81654 0.38936
 H1868 H 0.80506 0.83162 0.37693
 H1869 H 0.79666 0.76662 0.45373
 H1870 H 0.78518 0.75499 0.47119
 H1871 H 0.75523 0.78472 0.47113
 H1872 H 0.76683 0.79624 0.45368
 C1873 C 0.67408 0.31152 0.59836
 C1874 C 0.68756 0.31270 0.59654
 C1875 C 0.69497 0.32006 0.60533
 C1876 C 0.68895 0.32618 0.61592
 C1877 C 0.67540 0.32500 0.61789
 C1878 C 0.66802 0.31762 0.60896
 C1879 C 0.69384 0.30624 0.58577
 C1880 C 0.69917 0.30077 0.57683
 C1881 C 0.70550 0.29432 0.56644
 C1882 C 0.71098 0.28876 0.55764
 C1883 C 0.71762 0.28207 0.54723
 C1884 C 0.72926 0.28710 0.54218
 C1885 C 0.73587 0.28048 0.53226
 C1886 C 0.73090 0.26870 0.52725
 C1887 C 0.71913 0.26377 0.53233
 C1888 C 0.71255 0.27042 0.54226
 H1889 H 0.66824 0.30587 0.59160
 H1890 H 0.70543 0.32099 0.60404
 H1891 H 0.69493 0.33162 0.62269
 H1892 H 0.65757 0.31667 0.61009
 H1893 H 0.73328 0.29611 0.54597
 H1894 H 0.74490 0.28454 0.52856
 H1895 H 0.71504 0.25473 0.52870
 H1896 H 0.70354 0.26643 0.54611
 C1897 C 0.67360 0.81132 1.09856
 C1898 C 0.68708 0.81249 1.09668
 C1899 C 0.69453 0.81986 1.10541
 C1900 C 0.68855 0.82601 1.11601
 C1901 C 0.67500 0.82486 1.11803
 C1902 C 0.66759 0.81745 1.10916
 C1903 C 0.69331 0.80601 1.08589
 C1904 C 0.69862 0.80056 1.07693
 C1905 C 0.70494 0.79413 1.06652
 C1906 C 0.71044 0.78860 1.05771
 C1907 C 0.71710 0.78196 1.04729
 C1908 C 0.72875 0.78703 1.04228
 C1909 C 0.73538 0.78045 1.03234
 C1910 C 0.73044 0.76869 1.02728
 C1911 C 0.71867 0.76372 1.03232
 C1912 C 0.71206 0.77032 1.04227
 H1913 H 0.66773 0.80565 1.09184
 H1914 H 0.70498 0.82079 1.10408
 H1915 H 0.69457 0.83147 1.12274
 H1916 H 0.65714 0.81651 1.11034
 H1917 H 0.73274 0.79603 1.04611
 H1918 H 0.74441 0.78454 1.02868
 H1919 H 0.71460 0.75469 1.02865
 H1920 H 0.70305 0.76630 1.04608
 C1921 C 0.17991 0.30543 1.10606
 C1922 C 0.18732 0.31281 1.09729
 C1923 C 0.18856 0.32627 1.09912
 C1924 C 0.18246 0.33234 1.10971
 C1925 C 0.17503 0.32500 1.11862
 C1926 C 0.17380 0.31147 1.11665
 C1927 C 0.19375 0.30652 1.08651
 C1928 C 0.19918 0.30116 1.07756
 C1929 C 0.20559 0.29481 1.06716
 C1930 C 0.21111 0.28930 1.05835
 C1931 C 0.21775 0.28264 1.04793
 C1932 C 0.22942 0.28765 1.04292
 C1933 C 0.23602 0.28104 1.03297
 C1934 C 0.23102 0.26931 1.02791
 C1935 C 0.21923 0.26439 1.03296
 C1936 C 0.21265 0.27102 1.04290
 H1937 H 0.17893 0.29499 1.10477
 H1938 H 0.19425 0.33208 1.09237
 H1939 H 0.18346 0.34278 1.11084
 H1940 H 0.16832 0.30551 1.12341
 H1941 H 0.23346 0.29663 1.04675
 H1942 H 0.24507 0.28509 1.02931
 H1943 H 0.21512 0.25538 1.02928
 H1944 H 0.20363 0.26704 1.04672
 C1945 C 0.19534 0.82039 0.60600
 C1946 C 0.18792 0.81305 0.59721
 C1947 C 0.17444 0.81184 0.59907
 C1948 C 0.16840 0.81790 0.60969
 C1949 C 0.17579 0.82528 0.61862
 C1950 C 0.18933 0.82647 0.61662
 C1951 C 0.19417 0.80664 0.58640
 C1952 C 0.19949 0.80123 0.57741
 C1953 C 0.20581 0.79484 0.56698
 C1954 C 0.21128 0.78934 0.55814
 C1955 C 0.21791 0.78272 0.54767
 C1956 C 0.21284 0.77110 0.54263
 C1957 C 0.21941 0.76452 0.53266
 C1958 C 0.23117 0.76949 0.52759
 C1959 C 0.23615 0.78123 0.53267
 C1960 C 0.22955 0.78779 0.54264
 H1961 H 0.20579 0.82135 0.60469
 H1962 H 0.16859 0.80619 0.59231
 H1963 H 0.15795 0.81693 0.61085
 H1964 H 0.19532 0.83191 0.62339
 H1965 H 0.20384 0.76708 0.54646
 H1966 H 0.21533 0.75550 0.52897
 H1967 H 0.24517 0.78532 0.52899
 H1968 H 0.23357 0.79678 0.54649
 C1969 C 0.31183 0.67412 0.59868
 C1970 C 0.31310 0.68759 0.59689
 C1971 C 0.32048 0.69493 0.60571
 C1972 C 0.32652 0.68885 0.61632
 C1973 C 0.32526 0.67532 0.61825
 C1974 C 0.31786 0.66802 0.60928
 C1975 C 0.30672 0.69392 0.58610
 C1976 C 0.30132 0.69929 0.57714
 C1977 C 0.29493 0.70566 0.56674
 C1978 C 0.28943 0.71117 0.55793
 C1979 C 0.28279 0.71784 0.54750
 C1980 C 0.28786 0.72948 0.54251
 C1981 C 0.28127 0.73611 0.53257
 C1982 C 0.26950 0.73117 0.52750
 C1983 C 0.26453 0.71940 0.53253
 C1984 C 0.27114 0.71279 0.54247
 H1985 H 0.30616 0.66834 0.59189
 H1986 H 0.32149 0.70538 0.60445
 H1987 H 0.33198 0.69479 0.62312
 H1988 H 0.31683 0.65758 0.61039
 H1989 H 0.29686 0.73348 0.54634
 H1990 H 0.28536 0.74514 0.52891
 H1991 H 0.25551 0.71533 0.52884
 H1992 H 0.26712 0.70379 0.54627
 C1993 C 0.32600 0.18804 1.09901
 C1994 C 0.31251 0.18684 1.09719
 C1995 C 0.30511 0.17946 1.10596
 C1996 C 0.31115 0.17334 1.11655
 C1997 C 0.32469 0.17454 1.11853
 C1998 C 0.33205 0.18194 1.10960
 C1999 C 0.30623 0.19330 1.08642
 C2000 C 0.30090 0.19876 1.07747
 C2001 C 0.29458 0.20521 1.06708
 C2002 C 0.28911 0.21077 1.05828
 C2003 C 0.28249 0.21746 1.04786
 C2004 C 0.27082 0.21246 1.04283
 C2005 C 0.26423 0.21909 1.03290
 C2006 C 0.26924 0.23084 1.02787
 C2007 C 0.28102 0.23575 1.03294
 C2008 C 0.28759 0.22910 1.04287
 H2009 H 0.33183 0.19371 1.09226
 H2010 H 0.29466 0.17850 1.10467
 H2011 H 0.30517 0.16788 1.12332
 H2012 H 0.34251 0.18292 1.11074
 H2013 H 0.26678 0.20347 1.04664
 H2014 H 0.25519 0.21505 1.02922
 H2015 H 0.28514 0.24476 1.02928
 H2016 H 0.29661 0.23306 1.04671
 C2017 C 0.81153 0.67361 1.09849
 C2018 C 0.81269 0.68709 1.09669
 C2019 C 0.82004 0.69450 1.10548
 C2020 C 0.82617 0.68847 1.11607
 C2021 C 0.82502 0.67493 1.11802
 C2022 C 0.81765 0.66757 1.10908
 C2023 C 0.80623 0.69336 1.08591
 C2024 C 0.80078 0.69869 1.07696
 C2025 C 0.79434 0.70501 1.06656
 C2026 C 0.78880 0.71049 1.05775
 C2027 C 0.78214 0.71713 1.04732
 C2028 C 0.78720 0.72878 1.04231
 C2029 C 0.78060 0.73538 1.03237
 C2030 C 0.76884 0.73042 1.02730
 C2031 C 0.76388 0.71865 1.03235
 C2032 C 0.77050 0.71207 1.04230
 H2033 H 0.80588 0.66778 1.09172
 H2034 H 0.82097 0.70495 1.10421
 H2035 H 0.83161 0.69445 1.12285
 H2036 H 0.81671 0.65712 1.11020
 H2037 H 0.79620 0.73279 1.04614
 H2038 H 0.78468 0.74441 1.02870
 H2039 H 0.75486 0.71457 1.02867
 H2040 H 0.76650 0.70306 1.04612
 C2041 C 0.82030 0.19486 0.60581
 C2042 C 0.81296 0.18741 0.59704
 C2043 C 0.81178 0.17395 0.59892
 C2044 C 0.81786 0.16796 0.60957
 C2045 C 0.82522 0.17537 0.61848
 C2046 C 0.82639 0.18890 0.61645
 C2047 C 0.80653 0.19362 0.58621
 C2048 C 0.80110 0.19890 0.57721
 C2049 C 0.79469 0.20517 0.56677
 C2050 C 0.78917 0.21060 0.55792
 C2051 C 0.78252 0.21718 0.54745
 C2052 C 0.77087 0.21211 0.54245
 C2053 C 0.76426 0.21865 0.53247
 C2054 C 0.76923 0.23038 0.52735
 C2055 C 0.78100 0.23536 0.53239
 C2056 C 0.78759 0.22880 0.54237
 H2057 H 0.82124 0.20530 0.60447
 H2058 H 0.80614 0.16808 0.59218
 H2059 H 0.81690 0.15752 0.61075
 H2060 H 0.83182 0.19491 0.62321
 H2061 H 0.76685 0.20313 0.54632
 H2062 H 0.75523 0.21456 0.52882
 H2063 H 0.78509 0.24436 0.52867
 H2064 H 0.79660 0.23282 0.54617
 C2065 C 0.67439 0.68798 0.40122
 C2066 C 0.68787 0.68673 0.40306
 C2067 C 0.69527 0.67937 0.39427
 C2068 C 0.68924 0.67331 0.38365
 C2069 C 0.67570 0.67455 0.38166
 C2070 C 0.66834 0.68193 0.39060
 C2071 C 0.69414 0.69314 0.41386
 C2072 C 0.69947 0.69856 0.42283
 C2073 C 0.70579 0.70497 0.43325
 C2074 C 0.71125 0.71050 0.44207
 C2075 C 0.71785 0.71717 0.45251
 C2076 C 0.72952 0.71215 0.45755
 C2077 C 0.73609 0.71876 0.46750
 C2078 C 0.73107 0.73051 0.47254
 C2079 C 0.71929 0.73543 0.46746
 C2080 C 0.71274 0.72880 0.45751
 H2081 H 0.66856 0.69364 0.40799
 H2082 H 0.70572 0.67838 0.39557
 H2083 H 0.69522 0.66786 0.37687
 H2084 H 0.65789 0.68294 0.38945
 H2085 H 0.73357 0.70316 0.45374
 H2086 H 0.74513 0.71471 0.47119
 H2087 H 0.71517 0.74444 0.47112
 H2088 H 0.70373 0.73277 0.45367
 C2089 C 0.68818 0.17396 -0.09913
 C2090 C 0.68698 0.18743 -0.09729
 C2091 C 0.67961 0.19485 -0.10607
 C2092 C 0.67351 0.18884 -0.11668
 C2093 C 0.67471 0.17531 -0.11867
 C2094 C 0.68210 0.16793 -0.10975
 C2095 C 0.69342 0.19368 -0.08650
 C2096 C 0.69886 0.19899 -0.07753
 C2097 C 0.70528 0.20530 -0.06711
 C2098 C 0.71081 0.21076 -0.05829
 C2099 C 0.71748 0.21737 -0.04785
 C2100 C 0.71240 0.22898 -0.04278
 C2101 C 0.71900 0.23556 -0.03283
 C2102 C 0.73079 0.23060 -0.02781
 C2103 C 0.73577 0.21887 -0.03292
 C2104 C 0.72915 0.21231 -0.04287
 H2105 H 0.69384 0.16812 -0.09238
 H2106 H 0.67866 0.20529 -0.10477
 H2107 H 0.66807 0.19484 -0.12345
 H2108 H 0.68307 0.15749 -0.11089
 H2109 H 0.70338 0.23299 -0.04657
 H2110 H 0.71491 0.24457 -0.02912
 H2111 H 0.74481 0.21479 -0.02928
 H2112 H 0.73317 0.20333 -0.04674
 C2113 C 0.17955 0.69496 -0.10560
 C2114 C 0.18690 0.68754 -0.09681
 C2115 C 0.18809 0.67406 -0.09864
 C2116 C 0.18200 0.66804 -0.10925
 C2117 C 0.17463 0.67542 -0.11819
 C2118 C 0.17345 0.68895 -0.11621
 C2119 C 0.19335 0.69379 -0.08602
 C2120 C 0.19880 0.69909 -0.07705
 C2121 C 0.20523 0.70539 -0.06664
 C2122 C 0.21078 0.71084 -0.05782
 C2123 C 0.21747 0.71743 -0.04738
 C2124 C 0.22911 0.71232 -0.04240
 C2125 C 0.23576 0.71886 -0.03245
 C2126 C 0.23084 0.73062 -0.02736
 C2127 C 0.21907 0.73564 -0.03238
 C2128 C 0.21245 0.72907 -0.04233
 H2129 H 0.17861 0.70540 -0.10430
 H2130 H 0.19374 0.66822 -0.09188
 H2131 H 0.18296 0.65759 -0.11039
 H2132 H 0.16801 0.69495 -0.12298
 H2133 H 0.23309 0.70331 -0.04625
 H2134 H 0.24479 0.71474 -0.02880
 H2135 H 0.21502 0.74466 -0.02868
 H2136 H 0.20344 0.73312 -0.04613
 C2137 C 0.19504 0.17966 0.39447
 C2138 C 0.18762 0.18705 0.40322
 C2139 C 0.17414 0.18829 0.40135
 C2140 C 0.16812 0.18222 0.39072
 C2141 C 0.17551 0.17481 0.38182
 C2142 C 0.18904 0.17358 0.38385
 C2143 C 0.19386 0.19348 0.41403
 C2144 C 0.19917 0.19890 0.42301
 C2145 C 0.20547 0.20531 0.43343
 C2146 C 0.21093 0.21083 0.44226
 C2147 C 0.21754 0.21748 0.45271
 C2148 C 0.21246 0.22912 0.45771
 C2149 C 0.21902 0.23572 0.46768
 C2150 C 0.23078 0.23076 0.47277
 C2151 C 0.23576 0.21900 0.46773
 C2152 C 0.22918 0.21242 0.45776
 H2153 H 0.20549 0.17868 0.39580
 H2154 H 0.16830 0.19397 0.40808
 H2155 H 0.15767 0.18323 0.38955
 H2156 H 0.19504 0.16811 0.37710
 H2157 H 0.20346 0.23313 0.45386
 H2158 H 0.21493 0.24475 0.47134
 H2159 H 0.24478 0.21491 0.47142
 H2160 H 0.23321 0.20342 0.45395
 C2161 C 0.32577 0.40177 0.68856
 C2162 C 0.31228 0.40359 0.68739
 C2163 C 0.30486 0.39480 0.68005
 C2164 C 0.31089 0.38420 0.67393
 C2165 C 0.32444 0.38224 0.67509
 C2166 C 0.33182 0.39117 0.68246
 C2167 C 0.30601 0.41437 0.69384
 C2168 C 0.30067 0.42332 0.69929
 C2169 C 0.29432 0.43372 0.70571
 C2170 C 0.28882 0.44252 0.71125
 C2171 C 0.28217 0.45294 0.71792
 C2172 C 0.27050 0.45794 0.71289
 C2173 C 0.26388 0.46787 0.71950
 C2174 C 0.26887 0.47293 0.73125
 C2175 C 0.28066 0.46789 0.73618
 C2176 C 0.28726 0.45795 0.72955
 H2177 H 0.33161 0.40853 0.69421
 H2178 H 0.29441 0.39609 0.67912
 H2179 H 0.30490 0.37743 0.66850
 H2180 H 0.34228 0.39004 0.68341
 H2181 H 0.26647 0.45411 0.70390
 H2182 H 0.25483 0.47153 0.71545
 H2183 H 0.28476 0.47156 0.74519
 H2184 H 0.29628 0.45414 0.73353
 C2185 C 0.32615 0.90123 0.18849
 C2186 C 0.31267 0.90307 0.18730
 C2187 C 0.30525 0.89430 0.17993
 C2188 C 0.31127 0.88370 0.17381
 C2189 C 0.32482 0.88171 0.17500
 C2190 C 0.33219 0.89063 0.18238
 C2191 C 0.30640 0.91385 0.19375
 C2192 C 0.30107 0.92280 0.19921
 C2193 C 0.29473 0.93320 0.20564
 C2194 C 0.28924 0.94200 0.21118
 C2195 C 0.28259 0.95242 0.21784
 C2196 C 0.27094 0.95746 0.21278
 C2197 C 0.26433 0.96740 0.21938
 C2198 C 0.26928 0.97243 0.23115
 C2199 C 0.28104 0.96736 0.23611
 C2200 C 0.28764 0.95742 0.22949
 H2201 H 0.33199 0.90798 0.19415
 H2202 H 0.29479 0.89560 0.17899
 H2203 H 0.30528 0.87693 0.16837
 H2204 H 0.34265 0.88949 0.18335
 H2205 H 0.26694 0.95365 0.20377
 H2206 H 0.25530 0.97109 0.21529
 H2207 H 0.28512 0.97101 0.24514
 H2208 H 0.29664 0.95358 0.23350
 C2209 C 0.81993 0.39372 0.19434
 C2210 C 0.81257 0.40247 0.18688
 C2211 C 0.81141 0.40059 0.17342
 C2212 C 0.81753 0.38998 0.16743
 C2213 C 0.82492 0.38108 0.17484
 C2214 C 0.82607 0.38311 0.18838
 C2215 C 0.80610 0.41328 0.19309
 C2216 C 0.80064 0.42226 0.19837
 C2217 C 0.79421 0.43270 0.20465
 C2218 C 0.78868 0.44153 0.21010
 C2219 C 0.78203 0.45199 0.21670
 C2220 C 0.77037 0.45699 0.21164
 C2221 C 0.76376 0.46697 0.21819
 C2222 C 0.76874 0.47207 0.22992
 C2223 C 0.78052 0.46703 0.23489
 C2224 C 0.78710 0.45705 0.22831
 H2225 H 0.82085 0.39505 0.20478
 H2226 H 0.80575 0.40733 0.16754
 H2227 H 0.81660 0.38880 0.15698
 H2228 H 0.83152 0.37636 0.19440
 H2229 H 0.76635 0.45314 0.20266
 H2230 H 0.75473 0.47063 0.21411
 H2231 H 0.78462 0.47073 0.24389
 H2232 H 0.79612 0.45324 0.23232
 C2233 C 0.81142 0.90165 0.67367
 C2234 C 0.81264 0.90349 0.68714
 C2235 C 0.82003 0.89472 0.69453
 C2236 C 0.82615 0.88412 0.68851
 C2237 C 0.82494 0.88213 0.67498
 C2238 C 0.81752 0.89105 0.66762
 C2239 C 0.80618 0.91427 0.69341
 C2240 C 0.80073 0.92323 0.69874
 C2241 C 0.79430 0.93362 0.70507
 C2242 C 0.78876 0.94243 0.71056
 C2243 C 0.78210 0.95285 0.71721
 C2244 C 0.78715 0.95786 0.72885
 C2245 C 0.78055 0.96779 0.73547
 C2246 C 0.76878 0.97286 0.73051
 C2247 C 0.76382 0.96782 0.71874
 C2248 C 0.77045 0.95788 0.71215
 H2249 H 0.80573 0.90840 0.66784
 H2250 H 0.82100 0.89602 0.70497
 H2251 H 0.83162 0.87735 0.69448
 H2252 H 0.81653 0.88991 0.65718
 H2253 H 0.79616 0.95403 0.73286
 H2254 H 0.78463 0.97146 0.74450
 H2255 H 0.75479 0.97149 0.71466
 H2256 H 0.76644 0.95406 0.70314
 C2257 C 0.67922 0.60561 0.69490
 C2258 C 0.68658 0.59677 0.68755
 C2259 C 0.68782 0.59854 0.67407
 C2260 C 0.68179 0.60915 0.66798
 C2261 C 0.67441 0.61814 0.67529
 C2262 C 0.67317 0.61621 0.68883
 C2263 C 0.69299 0.58599 0.69387
 C2264 C 0.69842 0.57704 0.69922
 C2265 C 0.70485 0.56664 0.70557
 C2266 C 0.71039 0.55784 0.71105
 C2267 C 0.71708 0.54742 0.71767
 C2268 C 0.72872 0.54241 0.71257
 C2269 C 0.73538 0.53247 0.71914
 C2270 C 0.73046 0.52742 0.73092
 C2271 C 0.71870 0.53247 0.73592
 C2272 C 0.71207 0.54240 0.72933
 H2273 H 0.67824 0.60436 0.70535
 H2274 H 0.69348 0.59174 0.66828
 H2275 H 0.68279 0.61024 0.65753
 H2276 H 0.66772 0.62303 0.69477
 H2277 H 0.73270 0.54623 0.70355
 H2278 H 0.74440 0.52881 0.71502
 H2279 H 0.71466 0.52880 0.74496
 H2280 H 0.70307 0.54622 0.73337
 C2281 C 0.68871 0.09867 0.17367
 C2282 C 0.68747 0.09683 0.18713
 C2283 C 0.68007 0.10560 0.19453
 C2284 C 0.67396 0.11619 0.18850
 C2285 C 0.67517 0.11817 0.17497
 C2286 C 0.68261 0.10926 0.16762
 C2287 C 0.69389 0.08603 0.19341
 C2288 C 0.69930 0.07706 0.19877
 C2289 C 0.70566 0.06665 0.20514
 C2290 C 0.71114 0.05783 0.21067
 C2291 C 0.71774 0.04739 0.21735
 C2292 C 0.71262 0.04241 0.22899
 C2293 C 0.71916 0.03245 0.23564
 C2294 C 0.73093 0.02735 0.23073
 C2295 C 0.73596 0.03237 0.21898
 C2296 C 0.72940 0.04232 0.21235
 H2297 H 0.69440 0.09192 0.16785
 H2298 H 0.67910 0.10430 0.20497
 H2299 H 0.66847 0.12295 0.19447
 H2300 H 0.68359 0.11041 0.15717
 H2301 H 0.70361 0.04627 0.23296
 H2302 H 0.71503 0.02881 0.24465
 H2303 H 0.74499 0.02866 0.21494
 H2304 H 0.73345 0.04612 0.20336
 C2305 C 0.18849 0.59864 0.17417
 C2306 C 0.18730 0.59682 0.18764
 C2307 C 0.17994 0.60562 0.19504
 C2308 C 0.17382 0.61622 0.18902
 C2309 C 0.17501 0.61818 0.17549
 C2310 C 0.18239 0.60924 0.16812
 C2311 C 0.19376 0.58605 0.19391
 C2312 C 0.19922 0.57710 0.19924
 C2313 C 0.20566 0.56670 0.20557
 C2314 C 0.21121 0.55790 0.21106
 C2315 C 0.21788 0.54749 0.21771
 C2316 C 0.21279 0.54244 0.22932
 C2317 C 0.21939 0.53250 0.23594
 C2318 C 0.23120 0.52749 0.23102
 C2319 C 0.23619 0.53258 0.21929
 C2320 C 0.22957 0.54251 0.21269
 H2321 H 0.19415 0.59187 0.16834
 H2322 H 0.17899 0.60433 0.20549
 H2323 H 0.16838 0.62300 0.19500
 H2324 H 0.18336 0.61037 0.15767
 H2325 H 0.20375 0.54622 0.23331
 H2326 H 0.21529 0.52881 0.24494
 H2327 H 0.24526 0.52894 0.21523
 H2328 H 0.23360 0.54636 0.20371
 C2329 C 0.19487 0.10564 0.67988
 C2330 C 0.18752 0.09683 0.68728
 C2331 C 0.17404 0.09861 0.68854
 C2332 C 0.16792 0.10920 0.68247
 C2333 C 0.17522 0.11815 0.67505
 C2334 C 0.18877 0.11622 0.67380
 C2335 C 0.19387 0.08607 0.69370
 C2336 C 0.19924 0.07713 0.69912
 C2337 C 0.20562 0.06675 0.70553
 C2338 C 0.21113 0.05795 0.71106
 C2339 C 0.21779 0.04754 0.71773
 C2340 C 0.21273 0.04253 0.72937
 C2341 C 0.21933 0.03260 0.73600
 C2342 C 0.23111 0.02754 0.73105
 C2343 C 0.23607 0.03259 0.71929
 C2344 C 0.22945 0.04252 0.71268
 H2345 H 0.20532 0.10438 0.67888
 H2346 H 0.16825 0.09184 0.69422
 H2347 H 0.15747 0.11030 0.68349
 H2348 H 0.19471 0.12301 0.66832
 H2349 H 0.20371 0.04635 0.73337
 H2350 H 0.21524 0.02893 0.74502
 H2351 H 0.24511 0.02892 0.71521
 H2352 H 0.23347 0.04634 0.70368
 C2353 C 0.32617 0.59867 0.31210
 C2354 C 0.31268 0.59690 0.31333
 C2355 C 0.30531 0.60574 0.32067
 C2356 C 0.31138 0.61634 0.32672
 C2357 C 0.32494 0.61826 0.32549
 C2358 C 0.33226 0.60927 0.31813
 C2359 C 0.30637 0.58612 0.30692
 C2360 C 0.30102 0.57717 0.30149
 C2361 C 0.29469 0.56678 0.29506
 C2362 C 0.28923 0.55797 0.28952
 C2363 C 0.28262 0.54754 0.28283
 C2364 C 0.27096 0.54250 0.28784
 C2365 C 0.26440 0.53255 0.28121
 C2366 C 0.26942 0.52752 0.26946
 C2367 C 0.28120 0.53260 0.26455
 C2368 C 0.28774 0.54255 0.27120
 H2369 H 0.33198 0.59187 0.30646
 H2370 H 0.29485 0.60449 0.32164
 H2371 H 0.30543 0.62316 0.33215
 H2372 H 0.34272 0.61036 0.31714
 H2373 H 0.26691 0.54630 0.29682
 H2374 H 0.25536 0.52886 0.28525
 H2375 H 0.28532 0.52895 0.25554
 H2376 H 0.29676 0.54639 0.26723
 C2377 C 0.32613 0.09900 0.81176
 C2378 C 0.31265 0.09714 0.81302
 C2379 C 0.30525 0.10590 0.82042
 C2380 C 0.31126 0.11651 0.82650
 C2381 C 0.32480 0.11852 0.82525
 C2382 C 0.33217 0.10962 0.81783
 C2383 C 0.30639 0.08634 0.80660
 C2384 C 0.30107 0.07736 0.80119
 C2385 C 0.29475 0.06694 0.79479
 C2386 C 0.28928 0.05811 0.78928
 C2387 C 0.28266 0.04766 0.78264
 C2388 C 0.27102 0.04263 0.78770
 C2389 C 0.26443 0.03266 0.78112
 C2390 C 0.26942 0.02760 0.76937
 C2391 C 0.28118 0.03267 0.76441
 C2392 C 0.28775 0.04264 0.77101
 H2393 H 0.33196 0.09226 0.80607
 H2394 H 0.29480 0.10458 0.82141
 H2395 H 0.30528 0.12327 0.83198
 H2396 H 0.34262 0.11078 0.81681
 H2397 H 0.26699 0.04645 0.79669
 H2398 H 0.25541 0.02898 0.78521
 H2399 H 0.28528 0.02900 0.75540
 H2400 H 0.29675 0.04647 0.76700
 C2401 C 0.82594 0.59882 0.81126
 C2402 C 0.81247 0.59699 0.81255
 C2403 C 0.80509 0.60576 0.81996
 C2404 C 0.81115 0.61636 0.82604
 C2405 C 0.82469 0.61834 0.82477
 C2406 C 0.83202 0.60942 0.81732
 C2407 C 0.80616 0.58620 0.80615
 C2408 C 0.80080 0.57724 0.80075
 C2409 C 0.79444 0.56683 0.79438
 C2410 C 0.78894 0.55801 0.78889
 C2411 C 0.78228 0.54756 0.78228
 C2412 C 0.77065 0.54254 0.78739
 C2413 C 0.76403 0.53258 0.78084
 C2414 C 0.76896 0.52751 0.76907
 C2415 C 0.78070 0.53258 0.76405
 C2416 C 0.78730 0.54254 0.77062
 H2417 H 0.83175 0.59207 0.80556
 H2418 H 0.79465 0.60447 0.82098
 H2419 H 0.80519 0.62312 0.83153
 H2420 H 0.84247 0.61056 0.81628
 H2421 H 0.76667 0.54637 0.79640
 H2422 H 0.75502 0.52890 0.78496
 H2423 H 0.78476 0.52890 0.75502
 H2424 H 0.79629 0.54637 0.76657
 C2425 C 0.82039 0.10527 0.30532
 C2426 C 0.81296 0.09653 0.31271
 C2427 C 0.81173 0.09836 0.32618
 C2428 C 0.81787 0.10893 0.33224
 C2429 C 0.82533 0.11781 0.32489
 C2430 C 0.82654 0.11583 0.31135
 C2431 C 0.80649 0.08577 0.30644
 C2432 C 0.80103 0.07683 0.30109
 C2433 C 0.79461 0.06646 0.29473
 C2434 C 0.78908 0.05767 0.28922
 C2435 C 0.78242 0.04726 0.28255
 C2436 C 0.77073 0.04228 0.28756
 C2437 C 0.76411 0.03236 0.28095
 C2438 C 0.76911 0.02729 0.26921
 C2439 C 0.78091 0.03231 0.26429
 C2440 C 0.78751 0.04223 0.27092
 H2441 H 0.82136 0.10397 0.29488
 H2442 H 0.80602 0.09164 0.33200
 H2443 H 0.81689 0.11007 0.34268
 H2444 H 0.83204 0.12257 0.30538
 H2445 H 0.76670 0.04612 0.29655
 H2446 H 0.75506 0.02872 0.28500
 H2447 H 0.78502 0.02862 0.25529
 H2448 H 0.79654 0.04602 0.26695
 C2449 C 0.69471 0.39418 0.31976
 C2450 C 0.68725 0.40292 0.31239
 C2451 C 0.67377 0.40107 0.31124
 C2452 C 0.66776 0.39048 0.31740
 C2453 C 0.67518 0.38159 0.32480
 C2454 C 0.68873 0.38360 0.32593
 C2455 C 0.69348 0.41369 0.30588
 C2456 C 0.69878 0.42263 0.30039
 C2457 C 0.70508 0.43302 0.29392
 C2458 C 0.71055 0.44181 0.28835
 C2459 C 0.71717 0.45222 0.28165
 C2460 C 0.71209 0.45720 0.27000
 C2461 C 0.71867 0.46712 0.26335
 C2462 C 0.73044 0.47220 0.26828
 C2463 C 0.73543 0.46718 0.28005
 C2464 C 0.72883 0.45726 0.28668
 H2465 H 0.70516 0.39550 0.32067
 H2466 H 0.66790 0.40779 0.30558
 H2467 H 0.65731 0.38932 0.31647
 H2468 H 0.69475 0.37686 0.33139
 H2469 H 0.70309 0.45335 0.26601
 H2470 H 0.71458 0.47076 0.25432
 H2471 H 0.74446 0.47087 0.28411
 H2472 H 0.73285 0.45347 0.29568
 C2473 C 0.69455 0.89463 0.81992
 C2474 C 0.68710 0.90338 0.81255
 C2475 C 0.67362 0.90151 0.81137
 C2476 C 0.66761 0.89091 0.81749
 C2477 C 0.67501 0.88203 0.82490
 C2478 C 0.68856 0.88403 0.82607
 C2479 C 0.69334 0.91417 0.80608
 C2480 C 0.69865 0.92313 0.80063
 C2481 C 0.70497 0.93354 0.79421
 C2482 C 0.71045 0.94235 0.78869
 C2483 C 0.71709 0.95279 0.78205
 C2484 C 0.71204 0.95782 0.77041
 C2485 C 0.71864 0.96777 0.76382
 C2486 C 0.73040 0.97282 0.76879
 C2487 C 0.73536 0.96775 0.78055
 C2488 C 0.72874 0.95780 0.78712
 H2489 H 0.70500 0.89595 0.82086
 H2490 H 0.66776 0.90824 0.80570
 H2491 H 0.65715 0.88975 0.81654
 H2492 H 0.69457 0.87729 0.83152
 H2493 H 0.70304 0.95400 0.76640
 H2494 H 0.71456 0.97145 0.75480
 H2495 H 0.74438 0.97141 0.78464
 H2496 H 0.73275 0.95396 0.79612
 C2497 C 0.17395 0.40142 0.81204
 C2498 C 0.18742 0.40327 0.81329
 C2499 C 0.19483 0.39449 0.82068
 C2500 C 0.18880 0.38388 0.82675
 C2501 C 0.17527 0.38188 0.82551
 C2502 C 0.16790 0.39080 0.81810
 C2503 C 0.19369 0.41408 0.80689
 C2504 C 0.19902 0.42306 0.80148
 C2505 C 0.20534 0.43349 0.79509
 C2506 C 0.21080 0.44232 0.78959
 C2507 C 0.21740 0.45278 0.78294
 C2508 C 0.22905 0.45782 0.78797
 C2509 C 0.23562 0.46779 0.78138
 C2510 C 0.23061 0.47285 0.76965
 C2511 C 0.21884 0.46778 0.76471
 C2512 C 0.21229 0.45781 0.77132
 H2513 H 0.16812 0.40817 0.80637
 H2514 H 0.20528 0.39581 0.82167
 H2515 H 0.19479 0.37711 0.83221
 H2516 H 0.15745 0.38965 0.81709
 H2517 H 0.23310 0.45399 0.79696
 H2518 H 0.24466 0.47147 0.78544
 H2519 H 0.21473 0.47145 0.75571
 H2520 H 0.20329 0.45397 0.76733
 C2521 C 0.17966 0.89432 0.30540
 C2522 C 0.18706 0.90309 0.31279
 C2523 C 0.18828 0.90126 0.32626
 C2524 C 0.18218 0.89067 0.33232
 C2525 C 0.17475 0.88176 0.32497
 C2526 C 0.17354 0.88374 0.31144
 C2527 C 0.19351 0.91386 0.30650
 C2528 C 0.19896 0.92281 0.30117
 C2529 C 0.20538 0.93320 0.29483
 C2530 C 0.21092 0.94201 0.28935
 C2531 C 0.21758 0.95243 0.28271
 C2532 C 0.22924 0.95743 0.28778
 C2533 C 0.23586 0.96738 0.28120
 C2534 C 0.23090 0.97244 0.26944
 C2535 C 0.21914 0.96740 0.26447
 C2536 C 0.21253 0.95746 0.27107
 H2537 H 0.17869 0.89561 0.29496
 H2538 H 0.19397 0.90801 0.33207
 H2539 H 0.18317 0.88954 0.34276
 H2540 H 0.16806 0.87697 0.30547
 H2541 H 0.23324 0.95360 0.29678
 H2542 H 0.24489 0.97104 0.28528
 H2543 H 0.21506 0.97108 0.25544
 H2544 H 0.20353 0.95364 0.26705
 C2545 C 0.40099 0.31191 0.67389
 C2546 C 0.40286 0.31313 0.68735
 C2547 C 0.39409 0.32051 0.69477
 C2548 C 0.38347 0.32662 0.68877
 C2549 C 0.38145 0.32541 0.67525
 C2550 C 0.39036 0.31800 0.66787
 C2551 C 0.41367 0.30668 0.69359
 C2552 C 0.42265 0.30124 0.69890
 C2553 C 0.43308 0.29481 0.70519
 C2554 C 0.44192 0.28928 0.71064
 C2555 C 0.45237 0.28261 0.71724
 C2556 C 0.45742 0.28763 0.72888
 C2557 C 0.46738 0.28103 0.73545
 C2558 C 0.47244 0.26928 0.73045
 C2559 C 0.46736 0.26435 0.71869
 C2560 C 0.45739 0.27098 0.71214
 H2561 H 0.40773 0.30624 0.66805
 H2562 H 0.39541 0.32148 0.70521
 H2563 H 0.37671 0.33208 0.69477
 H2564 H 0.38920 0.31702 0.65743
 H2565 H 0.45359 0.29662 0.73293
 H2566 H 0.47107 0.28508 0.74448
 H2567 H 0.47103 0.25534 0.71458
 H2568 H 0.45355 0.26700 0.70314
 C2569 C 0.40131 0.81134 0.17393
 C2570 C 0.40316 0.81257 0.18739
 C2571 C 0.39437 0.81995 0.19479
 C2572 C 0.38376 0.82605 0.18878
 C2573 C 0.38177 0.82484 0.17525
 C2574 C 0.39069 0.81743 0.16789
 C2575 C 0.41397 0.80614 0.19365
 C2576 C 0.42295 0.80072 0.19898
 C2577 C 0.43339 0.79433 0.20530
 C2578 C 0.44223 0.78882 0.21077
 C2579 C 0.45270 0.78219 0.21739
 C2580 C 0.45772 0.78726 0.22903
 C2581 C 0.46770 0.78069 0.23562
 C2582 C 0.47279 0.76895 0.23065
 C2583 C 0.46773 0.76398 0.21889
 C2584 C 0.45775 0.77057 0.21232
 H2585 H 0.40807 0.80567 0.16810
 H2586 H 0.39568 0.82092 0.20523
 H2587 H 0.37699 0.83151 0.19476
 H2588 H 0.38954 0.81644 0.15744
 H2589 H 0.45387 0.79625 0.23305
 H2590 H 0.47138 0.78478 0.24464
 H2591 H 0.47143 0.75497 0.21480
 H2592 H 0.45392 0.76656 0.20333
 C2593 C 0.90142 0.32566 0.18850
 C2594 C 0.90330 0.31219 0.18734
 C2595 C 0.89456 0.30475 0.17996
 C2596 C 0.88395 0.31073 0.17381
 C2597 C 0.88193 0.32426 0.17496
 C2598 C 0.89082 0.33166 0.18236
 C2599 C 0.91410 0.30597 0.19383
 C2600 C 0.92307 0.30068 0.19930
 C2601 C 0.93349 0.29439 0.20575
 C2602 C 0.94232 0.28895 0.21130
 C2603 C 0.95277 0.28234 0.21797
 C2604 C 0.95786 0.27073 0.21291
 C2605 C 0.96784 0.26416 0.21950
 C2606 C 0.97286 0.26914 0.23127
 C2607 C 0.96773 0.28087 0.23623
 C2608 C 0.95775 0.28742 0.22962
 H2609 H 0.90815 0.33152 0.19417
 H2610 H 0.89589 0.29431 0.17904
 H2611 H 0.87721 0.30471 0.16835
 H2612 H 0.88964 0.34211 0.18330
 H2613 H 0.95406 0.26671 0.20390
 H2614 H 0.97156 0.25516 0.21542
 H2615 H 0.97138 0.28496 0.24526
 H2616 H 0.95387 0.29640 0.23362
 C2617 C 0.90122 0.81154 0.67332
 C2618 C 0.90313 0.81272 0.68678
 C2619 C 0.89440 0.82011 0.69424
 C2620 C 0.88379 0.82627 0.68828
 C2621 C 0.88173 0.82510 0.67476
 C2622 C 0.89060 0.81768 0.66734
 C2623 C 0.91394 0.80623 0.69298
 C2624 C 0.92292 0.80077 0.69827
 C2625 C 0.93334 0.79433 0.70456
 C2626 C 0.94217 0.78880 0.71003
 C2627 C 0.95261 0.78216 0.71667
 C2628 C 0.95761 0.78721 0.72833
 C2629 C 0.96756 0.78063 0.73494
 C2630 C 0.97265 0.76888 0.72998
 C2631 C 0.96762 0.76392 0.71821
 C2632 C 0.95766 0.77053 0.71161
 H2633 H 0.90793 0.80586 0.66744
 H2634 H 0.89576 0.82104 0.70468
 H2635 H 0.87706 0.83174 0.69431
 H2636 H 0.88941 0.81673 0.65690
 H2637 H 0.95376 0.79620 0.73234
 H2638 H 0.97121 0.78470 0.74398
 H2639 H 0.97131 0.75491 0.71413
 H2640 H 0.95385 0.76652 0.70260
 C2641 C 0.60574 0.30516 0.31995
 C2642 C 0.59697 0.31258 0.31259
 C2643 C 0.59881 0.32605 0.31142
 C2644 C 0.60941 0.33207 0.31754
 C2645 C 0.61833 0.32469 0.32492
 C2646 C 0.61635 0.31115 0.32609
 C2647 C 0.58619 0.30634 0.30611
 C2648 C 0.57722 0.30104 0.30064
 C2649 C 0.56682 0.29475 0.29419
 C2650 C 0.55800 0.28930 0.28864
 C2651 C 0.54755 0.28269 0.28198
 C2652 C 0.54256 0.28776 0.27033
 C2653 C 0.53259 0.28121 0.26371
 C2654 C 0.52749 0.26946 0.26867
 C2655 C 0.53253 0.26448 0.28043
 C2656 C 0.54250 0.27106 0.28703
 H2657 H 0.60444 0.29471 0.32088
 H2658 H 0.59206 0.33190 0.30576
 H2659 H 0.61055 0.34252 0.31659
 H2660 H 0.62311 0.30516 0.33154
 H2661 H 0.54641 0.29675 0.26633
 H2662 H 0.52893 0.28530 0.25469
 H2663 H 0.52883 0.25547 0.28451
 H2664 H 0.54631 0.26704 0.29603
 C2665 C 0.59862 0.82644 0.81153
 C2666 C 0.59678 0.81297 0.81274
 C2667 C 0.60556 0.80556 0.82011
 C2668 C 0.61617 0.81157 0.82622
 C2669 C 0.61815 0.82510 0.82503
 C2670 C 0.60923 0.83247 0.81763
 C2671 C 0.58597 0.80672 0.80631
 C2672 C 0.57700 0.80139 0.80088
 C2673 C 0.56658 0.79506 0.79449
 C2674 C 0.55776 0.78956 0.78899
 C2675 C 0.54731 0.78290 0.78237
 C2676 C 0.54233 0.77126 0.78746
 C2677 C 0.53237 0.76463 0.78091
 C2678 C 0.52727 0.76957 0.76915
 C2679 C 0.53229 0.78133 0.76417
 C2680 C 0.54225 0.78794 0.77074
 H2681 H 0.59186 0.83228 0.80587
 H2682 H 0.60425 0.79512 0.82107
 H2683 H 0.62294 0.80558 0.83168
 H2684 H 0.61037 0.84292 0.81665
 H2685 H 0.54619 0.76727 0.79645
 H2686 H 0.52873 0.75560 0.78501
 H2687 H 0.52858 0.78539 0.75515
 H2688 H 0.54605 0.79694 0.76671
 C2689 C 0.10566 0.30555 0.82026
 C2690 C 0.09692 0.31298 0.81287
 C2691 C 0.09879 0.32645 0.81168
 C2692 C 0.10940 0.33245 0.81780
 C2693 C 0.11829 0.32506 0.82523
 C2694 C 0.11627 0.31153 0.82640
 C2695 C 0.08611 0.30676 0.80642
 C2696 C 0.07713 0.30144 0.80099
 C2697 C 0.06671 0.29512 0.79459
 C2698 C 0.05788 0.28963 0.78909
 C2699 C 0.04743 0.28298 0.78247
 C2700 C 0.04241 0.28800 0.77081
 C2701 C 0.03245 0.28139 0.76424
 C2702 C 0.02738 0.26966 0.76925
 C2703 C 0.03244 0.26474 0.78103
 C2704 C 0.04240 0.27136 0.78758
 H2705 H 0.10433 0.29511 0.82120
 H2706 H 0.09207 0.33231 0.80600
 H2707 H 0.11058 0.34290 0.81685
 H2708 H 0.12301 0.30552 0.83187
 H2709 H 0.04625 0.29697 0.76677
 H2710 H 0.02878 0.28544 0.75520
 H2711 H 0.02876 0.25574 0.78514
 H2712 H 0.04623 0.26739 0.79660
 C2713 C 0.09826 0.82630 0.31182
 C2714 C 0.09642 0.81283 0.31301
 C2715 C 0.10520 0.80542 0.32039
 C2716 C 0.11581 0.81143 0.32651
 C2717 C 0.11779 0.82496 0.32532
 C2718 C 0.10887 0.83233 0.31792
 C2719 C 0.08564 0.80657 0.30655
 C2720 C 0.07669 0.80125 0.30109
 C2721 C 0.06629 0.79493 0.29464
 C2722 C 0.05749 0.78945 0.28909
 C2723 C 0.04708 0.78281 0.28241
 C2724 C 0.04208 0.77114 0.28743
 C2725 C 0.03216 0.76453 0.28081
 C2726 C 0.02710 0.76951 0.26906
 C2727 C 0.03214 0.78129 0.26413
 C2728 C 0.04207 0.78788 0.27077
 H2729 H 0.09151 0.83214 0.30615
 H2730 H 0.10390 0.79497 0.32134
 H2731 H 0.12258 0.80544 0.33196
 H2732 H 0.11001 0.84278 0.31695
 H2733 H 0.04591 0.76712 0.29643
 H2734 H 0.02850 0.75549 0.28487
 H2735 H 0.02847 0.78538 0.25512
 H2736 H 0.04588 0.79690 0.26679
 C2737 C 0.59835 0.67432 0.68813
 C2738 C 0.59661 0.68780 0.68691
 C2739 C 0.60546 0.69513 0.67954
 C2740 C 0.61604 0.68903 0.67347
 C2741 C 0.61793 0.67548 0.67469
 C2742 C 0.60893 0.66819 0.68207
 C2743 C 0.58585 0.69415 0.69334
 C2744 C 0.57691 0.69952 0.69879
 C2745 C 0.56653 0.70588 0.70523
 C2746 C 0.55773 0.71137 0.71078
 C2747 C 0.54731 0.71800 0.71748
 C2748 C 0.54223 0.72962 0.71244
 C2749 C 0.53229 0.73621 0.71907
 C2750 C 0.52729 0.73124 0.73086
 C2751 C 0.53242 0.71950 0.73581
 C2752 C 0.54236 0.71294 0.72916
 H2753 H 0.59154 0.66855 0.69379
 H2754 H 0.60424 0.70558 0.67857
 H2755 H 0.62287 0.69495 0.66802
 H2756 H 0.61000 0.65774 0.68307
 H2757 H 0.54600 0.73364 0.70342
 H2758 H 0.52856 0.74522 0.71500
 H2759 H 0.52880 0.71542 0.74485
 H2760 H 0.54624 0.70395 0.73315
 C2761 C 0.60550 0.17986 0.19438
 C2762 C 0.59672 0.18722 0.18695
 C2763 C 0.59855 0.18839 0.17348
 C2764 C 0.60916 0.18227 0.16746
 C2765 C 0.61809 0.17488 0.17484
 C2766 C 0.61610 0.17372 0.18838
 C2767 C 0.58593 0.19369 0.19321
 C2768 C 0.57697 0.19916 0.19853
 C2769 C 0.56658 0.20560 0.20486
 C2770 C 0.55778 0.21115 0.21036
 C2771 C 0.54736 0.21783 0.21701
 C2772 C 0.54237 0.22949 0.21196
 C2773 C 0.53243 0.23612 0.21856
 C2774 C 0.52738 0.23117 0.23033
 C2775 C 0.53241 0.21940 0.23528
 C2776 C 0.54234 0.21278 0.22866
 H2777 H 0.60420 0.17893 0.20482
 H2778 H 0.59180 0.19404 0.16763
 H2779 H 0.61031 0.18321 0.15701
 H2780 H 0.62287 0.16828 0.19437
 H2781 H 0.54619 0.23349 0.20296
 H2782 H 0.52878 0.24516 0.21449
 H2783 H 0.52874 0.21532 0.24431
 H2784 H 0.54615 0.20377 0.23266
 C2785 C 0.10570 0.68033 0.19485
 C2786 C 0.09696 0.68772 0.18740
 C2787 C 0.09885 0.68890 0.17394
 C2788 C 0.10946 0.68276 0.16794
 C2789 C 0.11834 0.67534 0.17535
 C2790 C 0.11631 0.67418 0.18888
 C2791 C 0.08614 0.69418 0.19362
 C2792 C 0.07716 0.69962 0.19892
 C2793 C 0.06672 0.70602 0.20523
 C2794 C 0.05787 0.71151 0.21071
 C2795 C 0.04740 0.71812 0.21735
 C2796 C 0.04235 0.72976 0.21232
 C2797 C 0.03236 0.73632 0.21891
 C2798 C 0.02729 0.73131 0.23065
 C2799 C 0.03239 0.71955 0.23558
 C2800 C 0.04238 0.71301 0.22897
 H2801 H 0.10436 0.67939 0.20529
 H2802 H 0.09213 0.69458 0.16807
 H2803 H 0.11065 0.68371 0.15750
 H2804 H 0.12304 0.66871 0.19489
 H2805 H 0.04618 0.73380 0.20334
 H2806 H 0.02866 0.74534 0.21485
 H2807 H 0.02871 0.71543 0.24459
 H2808 H 0.04623 0.70401 0.23296
 C2809 C 0.10550 0.17969 0.69517
 C2810 C 0.09666 0.18705 0.68780
 C2811 C 0.09842 0.18822 0.67431
 C2812 C 0.10900 0.18212 0.66823
 C2813 C 0.11798 0.17475 0.67555
 C2814 C 0.11608 0.17358 0.68910
 C2815 C 0.08591 0.19352 0.69411
 C2816 C 0.07697 0.19900 0.69945
 C2817 C 0.06659 0.20548 0.70578
 C2818 C 0.05780 0.21105 0.71126
 C2819 C 0.04739 0.21777 0.71788
 C2820 C 0.04240 0.22941 0.71277
 C2821 C 0.03246 0.23607 0.71933
 C2822 C 0.02738 0.23117 0.73111
 C2823 C 0.03241 0.21942 0.73612
 C2824 C 0.04235 0.21278 0.72954
 H2825 H 0.10426 0.17876 0.70562
 H2826 H 0.09162 0.19387 0.66851
 H2827 H 0.11008 0.18308 0.65777
 H2828 H 0.12289 0.16814 0.69505
 H2829 H 0.04623 0.23337 0.70376
 H2830 H 0.02880 0.24509 0.71522
 H2831 H 0.02872 0.21538 0.74516
 H2832 H 0.04615 0.20378 0.73358
 C2833 C 0.39469 0.67956 0.30510
 C2834 C 0.40352 0.68694 0.31243
 C2835 C 0.40174 0.68822 0.32590
 C2836 C 0.39113 0.68221 0.33202
 C2837 C 0.38215 0.67481 0.32473
 C2838 C 0.38408 0.67353 0.31119
 C2839 C 0.41431 0.69333 0.30610
 C2840 C 0.42327 0.69873 0.30072
 C2841 C 0.43367 0.70512 0.29436
 C2842 C 0.44249 0.71064 0.28886
 C2843 C 0.45292 0.71730 0.28222
 C2844 C 0.45791 0.72895 0.28728
 C2845 C 0.46786 0.73557 0.28070
 C2846 C 0.47293 0.73063 0.26893
 C2847 C 0.46789 0.71887 0.26397
 C2848 C 0.45795 0.71226 0.27057
 H2849 H 0.39594 0.67855 0.29466
 H2850 H 0.40854 0.69389 0.33168
 H2851 H 0.39003 0.68324 0.34246
 H2852 H 0.37726 0.66807 0.30527
 H2853 H 0.45408 0.73294 0.29628
 H2854 H 0.47151 0.74460 0.28478
 H2855 H 0.47157 0.71480 0.25494
 H2856 H 0.45414 0.70326 0.26656
 C2857 C 0.39429 0.19493 0.81986
 C2858 C 0.40303 0.18750 0.81246
 C2859 C 0.40117 0.17403 0.81128
 C2860 C 0.39058 0.16802 0.81744
 C2861 C 0.38171 0.17541 0.82488
 C2862 C 0.38371 0.18894 0.82604
 C2863 C 0.41381 0.19374 0.80598
 C2864 C 0.42277 0.19906 0.80052
 C2865 C 0.43317 0.20539 0.79409
 C2866 C 0.44199 0.21088 0.78856
 C2867 C 0.45242 0.21753 0.78191
 C2868 C 0.45742 0.21251 0.77025
 C2869 C 0.46737 0.21911 0.76365
 C2870 C 0.47244 0.23085 0.76864
 C2871 C 0.46740 0.23578 0.78042
 C2872 C 0.45745 0.22916 0.78700
 H2873 H 0.39561 0.20537 0.82080
 H2874 H 0.40790 0.16818 0.80559
 H2875 H 0.38943 0.15757 0.81649
 H2876 H 0.37697 0.19494 0.83152
 H2877 H 0.45359 0.20353 0.76622
 H2878 H 0.47104 0.21506 0.75461
 H2879 H 0.47108 0.24478 0.78453
 H2880 H 0.45363 0.23314 0.79602
 C2881 C 0.90116 0.67371 0.81076
 C2882 C 0.90305 0.68718 0.81195
 C2883 C 0.89433 0.69461 0.81938
 C2884 C 0.88374 0.68863 0.82555
 C2885 C 0.88172 0.67510 0.82438
 C2886 C 0.89057 0.66771 0.81692
 C2887 C 0.91384 0.69340 0.80547
 C2888 C 0.92280 0.69872 0.80001
 C2889 C 0.93321 0.70504 0.79359
 C2890 C 0.94204 0.71053 0.78808
 C2891 C 0.95248 0.71719 0.78146
 C2892 C 0.95747 0.72883 0.78654
 C2893 C 0.96743 0.73545 0.77999
 C2894 C 0.97254 0.73051 0.76824
 C2895 C 0.96751 0.71876 0.76325
 C2896 C 0.95754 0.71215 0.76982
 H2897 H 0.90787 0.66786 0.80505
 H2898 H 0.89567 0.70505 0.82032
 H2899 H 0.87702 0.69464 0.83105
 H2900 H 0.88939 0.65727 0.81596
 H2901 H 0.95361 0.73282 0.79553
 H2902 H 0.97109 0.74447 0.78409
 H2903 H 0.97121 0.71469 0.75423
 H2904 H 0.95374 0.70315 0.76579
 C2905 C 0.90199 0.18793 0.32639
 C2906 C 0.90383 0.18676 0.31291
 C2907 C 0.89505 0.17940 0.30549
 C2908 C 0.88445 0.17327 0.31149
 C2909 C 0.88246 0.17443 0.32503
 C2910 C 0.89138 0.18181 0.33241
 C2911 C 0.91461 0.19323 0.30666
 C2912 C 0.92356 0.19870 0.30134
 C2913 C 0.93394 0.20516 0.29502
 C2914 C 0.94274 0.21072 0.28953
 C2915 C 0.95314 0.21742 0.28289
 C2916 C 0.95818 0.21239 0.27124
 C2917 C 0.96809 0.21903 0.26463
 C2918 C 0.97309 0.23081 0.26958
 C2919 C 0.96801 0.23574 0.28135
 C2920 C 0.95810 0.22908 0.28794
 H2921 H 0.90874 0.19358 0.33223
 H2922 H 0.89635 0.17848 0.29504
 H2923 H 0.87768 0.16784 0.30549
 H2924 H 0.89023 0.18276 0.34286
 H2925 H 0.95440 0.20337 0.26723
 H2926 H 0.97178 0.21497 0.25560
 H2927 H 0.97164 0.24478 0.28543
 H2928 H 0.95426 0.23307 0.29695
 C2929 C 0.32583 0.31165 0.59895
 C2930 C 0.31235 0.31283 0.59710
 C2931 C 0.30492 0.32021 0.60586
 C2932 C 0.31093 0.32636 0.61644
 C2933 C 0.32448 0.32520 0.61842
 C2934 C 0.33186 0.31778 0.60953
 C2935 C 0.30609 0.30636 0.58633
 C2936 C 0.30076 0.30092 0.57738
 C2937 C 0.29443 0.29449 0.56698
 C2938 C 0.28894 0.28897 0.55817
 C2939 C 0.28230 0.28232 0.54775
 C2940 C 0.27065 0.28738 0.54272
 C2941 C 0.26404 0.28079 0.53277
 C2942 C 0.26901 0.26903 0.52772
 C2943 C 0.28078 0.26406 0.53279
 C2944 C 0.28736 0.27067 0.54274
 H2945 H 0.33168 0.30597 0.59221
 H2946 H 0.29446 0.32115 0.60455
 H2947 H 0.30493 0.33183 0.62318
 H2948 H 0.34232 0.31683 0.61068
 H2949 H 0.26663 0.29638 0.54654
 H2950 H 0.25501 0.28487 0.52909
 H2951 H 0.28487 0.25504 0.52912
 H2952 H 0.29637 0.26666 0.54657
 C2953 C 0.32630 0.81114 0.09881
 C2954 C 0.31282 0.81234 0.09694
 C2955 C 0.30538 0.81973 0.10568
 C2956 C 0.31136 0.82586 0.11628
 C2957 C 0.32491 0.82468 0.11829
 C2958 C 0.33231 0.81726 0.10942
 C2959 C 0.30658 0.80589 0.08614
 C2960 C 0.30126 0.80046 0.07717
 C2961 C 0.29493 0.79406 0.06676
 C2962 C 0.28943 0.78856 0.05794
 C2963 C 0.28277 0.78195 0.04750
 C2964 C 0.27113 0.78706 0.04250
 C2965 C 0.26449 0.78051 0.03255
 C2966 C 0.26941 0.76873 0.02748
 C2967 C 0.28117 0.76372 0.03252
 C2968 C 0.28779 0.77030 0.04247
 H2969 H 0.33216 0.80547 0.09209
 H2970 H 0.29492 0.82068 0.10435
 H2971 H 0.30535 0.83133 0.12301
 H2972 H 0.34276 0.81630 0.11059
 H2973 H 0.26715 0.79607 0.04633
 H2974 H 0.25547 0.78463 0.02889
 H2975 H 0.28522 0.75469 0.02884
 H2976 H 0.29678 0.76625 0.04629
 C2977 C 0.82020 0.30464 0.10539
 C2978 C 0.81284 0.31206 0.09661
 C2979 C 0.81163 0.32553 0.09846
 C2980 C 0.81771 0.33155 0.10908
 C2981 C 0.82510 0.32417 0.11800
 C2982 C 0.82630 0.31064 0.11600
 C2983 C 0.80642 0.30582 0.08580
 C2984 C 0.80100 0.30050 0.07682
 C2985 C 0.79460 0.29418 0.06640
 C2986 C 0.78909 0.28871 0.05757
 C2987 C 0.78244 0.28210 0.04713
 C2988 C 0.78753 0.27048 0.04207
 C2989 C 0.78094 0.26389 0.03211
 C2990 C 0.76915 0.26884 0.02708
 C2991 C 0.76417 0.28058 0.03217
 C2992 C 0.77078 0.28715 0.04213
 H2993 H 0.82116 0.29420 0.10408
 H2994 H 0.80597 0.33137 0.09171
 H2995 H 0.81673 0.34200 0.11023
 H2996 H 0.83174 0.30465 0.12277
 H2997 H 0.79654 0.26647 0.04588
 H2998 H 0.78504 0.25488 0.02841
 H2999 H 0.75513 0.28465 0.02852
 H3000 H 0.76675 0.29613 0.04598
 C3001 C 0.82590 0.81177 0.59858
 C3002 C 0.81242 0.81297 0.59677
 C3003 C 0.80502 0.82035 0.60555
 C3004 C 0.81106 0.82647 0.61614
 C3005 C 0.82461 0.82527 0.61809
 C3006 C 0.83197 0.81787 0.60917
 C3007 C 0.80614 0.80651 0.58601
 C3008 C 0.80080 0.80106 0.57706
 C3009 C 0.79448 0.79461 0.56667
 C3010 C 0.78902 0.78906 0.55786
 C3011 C 0.78241 0.78237 0.54744
 C3012 C 0.77075 0.78738 0.54240
 C3013 C 0.76417 0.78075 0.53245
 C3014 C 0.76919 0.76900 0.52742
 C3015 C 0.78097 0.76409 0.53251
 C3016 C 0.78752 0.77073 0.54245
 H3017 H 0.83173 0.80610 0.59183
 H3018 H 0.79456 0.82131 0.60427
 H3019 H 0.80508 0.83193 0.62291
 H3020 H 0.84242 0.81689 0.61029
 H3021 H 0.76669 0.79637 0.54620
 H3022 H 0.75513 0.78480 0.52876
 H3023 H 0.78510 0.75507 0.52886
 H3024 H 0.79654 0.76676 0.54630
 C3025 C 0.32069 0.69521 0.39441
 C3026 C 0.31333 0.68787 0.40325
 C3027 C 0.31210 0.67439 0.40150
 C3028 C 0.31815 0.66828 0.39092
 C3029 C 0.32553 0.67557 0.38192
 C3030 C 0.32676 0.68911 0.38382
 C3031 C 0.30691 0.69420 0.41402
 C3032 C 0.30148 0.69957 0.42296
 C3033 C 0.29506 0.70592 0.43336
 C3034 C 0.28953 0.71141 0.44216
 C3035 C 0.28285 0.71804 0.45259
 C3036 C 0.27119 0.71298 0.45758
 C3037 C 0.26457 0.71955 0.46753
 C3038 C 0.26953 0.73130 0.47262
 C3039 C 0.28130 0.73626 0.46759
 C3040 C 0.28791 0.72967 0.45763
 H3041 H 0.32167 0.70566 0.39564
 H3042 H 0.30644 0.66861 0.40831
 H3043 H 0.31715 0.65783 0.38984
 H3044 H 0.33220 0.69504 0.37700
 H3045 H 0.26719 0.70399 0.45374
 H3046 H 0.25553 0.71547 0.47119
 H3047 H 0.28538 0.74527 0.47128
 H3048 H 0.29692 0.73368 0.45383
 C3049 C 0.32020 0.19498 0.89468
 C3050 C 0.31288 0.18756 0.90348
 C3051 C 0.31170 0.17409 0.90166
 C3052 C 0.31777 0.16806 0.89104
 C3053 C 0.32512 0.17543 0.88209
 C3054 C 0.32629 0.18897 0.88406
 C3055 C 0.30645 0.19382 0.91429
 C3056 C 0.30103 0.19914 0.92327
 C3057 C 0.29463 0.20547 0.93369
 C3058 C 0.28912 0.21096 0.94251
 C3059 C 0.28249 0.21760 0.95295
 C3060 C 0.27082 0.21258 0.95796
 C3061 C 0.26423 0.21917 0.96792
 C3062 C 0.26923 0.23090 0.97300
 C3063 C 0.28102 0.23583 0.96795
 C3064 C 0.28759 0.22921 0.95799
 H3065 H 0.32114 0.20543 0.89597
 H3066 H 0.30607 0.16825 0.90843
 H3067 H 0.31682 0.15761 0.88990
 H3068 H 0.33171 0.19496 0.87727
 H3069 H 0.26678 0.20360 0.95412
 H3070 H 0.25518 0.21512 0.97158
 H3071 H 0.28514 0.24483 0.97163
 H3072 H 0.29662 0.23319 0.95417
 C3073 C 0.82028 0.69471 0.89425
 C3074 C 0.81293 0.68729 0.90305
 C3075 C 0.81175 0.67382 0.90122
 C3076 C 0.81783 0.66779 0.89060
 C3077 C 0.82520 0.67516 0.88166
 C3078 C 0.82638 0.68870 0.88364
 C3079 C 0.80648 0.69355 0.91383
 C3080 C 0.80102 0.69886 0.92279
 C3081 C 0.79457 0.70517 0.93319
 C3082 C 0.78901 0.71064 0.94200
 C3083 C 0.78232 0.71725 0.95242
 C3084 C 0.77066 0.71218 0.95740
 C3085 C 0.76401 0.71874 0.96734
 C3086 C 0.76894 0.73049 0.97243
 C3087 C 0.78072 0.73547 0.96742
 C3088 C 0.78735 0.72889 0.95748
 H3089 H 0.82121 0.70515 0.89554
 H3090 H 0.80610 0.66798 0.90798
 H3091 H 0.81687 0.65734 0.88946
 H3092 H 0.83180 0.69469 0.87685
 H3093 H 0.76667 0.70318 0.95354
 H3094 H 0.75497 0.71464 0.97098
 H3095 H 0.78479 0.74449 0.97112
 H3096 H 0.79637 0.73291 0.95369
 C3097 C 0.81184 0.17335 0.40126
 C3098 C 0.81307 0.18682 0.40312
 C3099 C 0.82050 0.19421 0.39437
 C3100 C 0.82664 0.18819 0.38379
 C3101 C 0.82542 0.17466 0.38179
 C3102 C 0.81797 0.16731 0.39067
 C3103 C 0.80660 0.19309 0.41389
 C3104 C 0.80115 0.19842 0.42284
 C3105 C 0.79472 0.20476 0.43323
 C3106 C 0.78918 0.21025 0.44204
 C3107 C 0.78252 0.21690 0.45246
 C3108 C 0.78759 0.22855 0.45746
 C3109 C 0.78099 0.23517 0.46740
 C3110 C 0.76922 0.23023 0.47246
 C3111 C 0.76425 0.21847 0.46742
 C3112 C 0.77087 0.21186 0.45748
 H3113 H 0.80613 0.16753 0.40799
 H3114 H 0.82148 0.20465 0.39569
 H3115 H 0.83214 0.19417 0.37705
 H3116 H 0.81697 0.15687 0.38952
 H3117 H 0.79660 0.23254 0.45363
 H3118 H 0.78508 0.24420 0.47106
 H3119 H 0.75522 0.21440 0.47109
 H3120 H 0.76685 0.20286 0.45367
 C3121 C 0.69489 0.31982 0.39429
 C3122 C 0.68748 0.31244 0.40306
 C3123 C 0.67399 0.31126 0.40124
 C3124 C 0.66794 0.31738 0.39066
 C3125 C 0.67532 0.32478 0.38174
 C3126 C 0.68887 0.32595 0.38371
 C3127 C 0.69375 0.30597 0.41383
 C3128 C 0.69908 0.30051 0.42278
 C3129 C 0.70542 0.29407 0.43317
 C3130 C 0.71091 0.28853 0.44196
 C3131 C 0.71757 0.28187 0.45238
 C3132 C 0.71251 0.27023 0.45740
 C3133 C 0.71911 0.26362 0.46735
 C3134 C 0.73088 0.26857 0.47239
 C3135 C 0.73584 0.28033 0.46733
 C3136 C 0.72922 0.28692 0.45739
 H3137 H 0.70535 0.32075 0.39558
 H3138 H 0.66815 0.30560 0.40799
 H3139 H 0.65749 0.31643 0.38952
 H3140 H 0.69485 0.33141 0.37695
 H3141 H 0.70350 0.26623 0.45359
 H3142 H 0.71502 0.25460 0.47102
 H3143 H 0.74488 0.28441 0.47100
 H3144 H 0.73324 0.29592 0.45357
 C3145 C 0.69466 0.82025 0.89442
 C3146 C 0.68724 0.81287 0.90318
 C3147 C 0.67375 0.81171 0.90136
 C3148 C 0.66771 0.81784 0.89077
 C3149 C 0.67509 0.82524 0.88186
 C3150 C 0.68864 0.82640 0.88384
 C3151 C 0.69350 0.80638 0.91394
 C3152 C 0.69883 0.80089 0.92287
 C3153 C 0.70515 0.79442 0.93325
 C3154 C 0.71063 0.78885 0.94204
 C3155 C 0.71727 0.78216 0.95244
 C3156 C 0.71221 0.77049 0.95740
 C3157 C 0.71879 0.76384 0.96733
 C3158 C 0.73055 0.76879 0.97243
 C3159 C 0.73551 0.78058 0.96743
 C3160 C 0.72891 0.78720 0.95750
 H3161 H 0.70512 0.82118 0.89571
 H3162 H 0.66791 0.80604 0.90810
 H3163 H 0.65725 0.81689 0.88964
 H3164 H 0.69464 0.83185 0.87708
 H3165 H 0.70321 0.76649 0.95355
 H3166 H 0.71471 0.75480 0.97096
 H3167 H 0.74453 0.78465 0.97113
 H3168 H 0.73292 0.79622 0.95372
 C3169 C 0.18843 0.32627 0.90186
 C3170 C 0.18725 0.31279 0.90368
 C3171 C 0.17990 0.30539 0.89489
 C3172 C 0.17379 0.31141 0.88429
 C3173 C 0.17497 0.32495 0.88232
 C3174 C 0.18234 0.33231 0.89126
 C3175 C 0.19369 0.30653 0.91447
 C3176 C 0.19913 0.30119 0.92342
 C3177 C 0.20555 0.29485 0.93382
 C3178 C 0.21108 0.28935 0.94263
 C3179 C 0.21772 0.28269 0.95305
 C3180 C 0.21263 0.27107 0.95807
 C3181 C 0.21921 0.26443 0.96801
 C3182 C 0.23100 0.26935 0.97305
 C3183 C 0.23600 0.28109 0.96799
 C3184 C 0.22940 0.28770 0.95805
 H3185 H 0.19408 0.33210 0.90863
 H3186 H 0.17896 0.29494 0.89617
 H3187 H 0.16836 0.30543 0.87750
 H3188 H 0.18330 0.34276 0.89013
 H3189 H 0.20360 0.26709 0.95426
 H3190 H 0.21510 0.25543 0.97169
 H3191 H 0.24505 0.28513 0.97165
 H3192 H 0.23344 0.29669 0.95422
 C3193 C 0.18850 0.82640 0.40144
 C3194 C 0.18730 0.81293 0.40332
 C3195 C 0.17989 0.80550 0.39460
 C3196 C 0.17373 0.81148 0.38401
 C3197 C 0.17491 0.82501 0.38198
 C3198 C 0.18235 0.83240 0.39084
 C3199 C 0.19378 0.80670 0.41411
 C3200 C 0.19924 0.80139 0.42306
 C3201 C 0.20568 0.79507 0.43346
 C3202 C 0.21121 0.78958 0.44227
 C3203 C 0.21787 0.78293 0.45270
 C3204 C 0.21280 0.77129 0.45771
 C3205 C 0.21940 0.76467 0.46765
 C3206 C 0.23117 0.76962 0.47270
 C3207 C 0.23614 0.78138 0.46765
 C3208 C 0.22952 0.78798 0.45772
 H3209 H 0.19419 0.83225 0.40815
 H3210 H 0.17894 0.79506 0.39593
 H3211 H 0.16825 0.80548 0.37728
 H3212 H 0.18331 0.84285 0.38966
 H3213 H 0.20379 0.76729 0.45388
 H3214 H 0.21531 0.75565 0.47131
 H3215 H 0.24517 0.78544 0.47133
 H3216 H 0.23354 0.79698 0.45390
 C3217 C 0.69481 0.67947 0.60560
 C3218 C 0.68747 0.68686 0.59677
 C3219 C 0.67399 0.68814 0.59855
 C3220 C 0.66787 0.68211 0.60914
 C3221 C 0.67517 0.67471 0.61812
 C3222 C 0.68872 0.67343 0.61619
 C3223 C 0.69381 0.69325 0.58600
 C3224 C 0.69919 0.69866 0.57705
 C3225 C 0.70556 0.70506 0.56665
 C3226 C 0.71106 0.71058 0.55785
 C3227 C 0.71770 0.71725 0.54743
 C3228 C 0.71261 0.72887 0.54239
 C3229 C 0.71919 0.73549 0.53245
 C3230 C 0.73099 0.73056 0.52742
 C3231 C 0.73599 0.71882 0.53249
 C3232 C 0.72938 0.71222 0.54243
 H3233 H 0.70527 0.67846 0.60434
 H3234 H 0.66821 0.69382 0.59176
 H3235 H 0.65742 0.68315 0.61024
 H3236 H 0.69465 0.66796 0.62300
 H3237 H 0.70358 0.73285 0.54620
 H3238 H 0.71508 0.74449 0.52877
 H3239 H 0.74504 0.71477 0.52884
 H3240 H 0.73342 0.70324 0.54627
 C3241 C 0.67996 0.19455 0.10541
 C3242 C 0.68736 0.18714 0.09665
 C3243 C 0.68861 0.17368 0.09852
 C3244 C 0.68251 0.16765 0.10914
 C3245 C 0.67508 0.17502 0.11803
 C3246 C 0.67385 0.18854 0.11602
 C3247 C 0.69379 0.19339 0.08585
 C3248 C 0.69920 0.19871 0.07687
 C3249 C 0.70558 0.20504 0.06644
 C3250 C 0.71108 0.21052 0.05760
 C3251 C 0.71769 0.21717 0.04715
 C3252 C 0.72933 0.21213 0.04210
 C3253 C 0.73591 0.21873 0.03213
 C3254 C 0.73090 0.23048 0.02709
 C3255 C 0.71914 0.23542 0.03218
 C3256 C 0.71259 0.22880 0.04214
 H3257 H 0.67898 0.20499 0.10408
 H3258 H 0.69429 0.16784 0.09179
 H3259 H 0.68351 0.15721 0.11030
 H3260 H 0.66837 0.19453 0.12276
 H3261 H 0.73338 0.20314 0.04591
 H3262 H 0.74494 0.21466 0.02844
 H3263 H 0.71502 0.24444 0.02852
 H3264 H 0.70358 0.23280 0.04599
 C3265 C 0.17408 0.68842 0.09899
 C3266 C 0.18755 0.68715 0.09714
 C3267 C 0.19494 0.67976 0.10592
 C3268 C 0.18891 0.67371 0.11654
 C3269 C 0.17537 0.67496 0.11853
 C3270 C 0.16802 0.68238 0.10961
 C3271 C 0.19384 0.69353 0.08633
 C3272 C 0.19918 0.69892 0.07734
 C3273 C 0.20552 0.70528 0.06691
 C3274 C 0.21101 0.71076 0.05807
 C3275 C 0.21765 0.71737 0.04761
 C3276 C 0.22927 0.71226 0.04256
 C3277 C 0.23588 0.71882 0.03259
 C3278 C 0.23094 0.73059 0.02754
 C3279 C 0.21920 0.73560 0.03263
 C3280 C 0.21261 0.72902 0.04260
 H3281 H 0.16826 0.69410 0.09223
 H3282 H 0.20539 0.67876 0.10461
 H3283 H 0.19488 0.66824 0.12331
 H3284 H 0.15757 0.68340 0.11076
 H3285 H 0.23327 0.70325 0.04638
 H3286 H 0.24489 0.71470 0.02890
 H3287 H 0.21513 0.74463 0.02896
 H3288 H 0.20363 0.73307 0.04645
 C3289 C 0.18797 0.17389 0.59875
 C3290 C 0.18677 0.18736 0.59696
 C3291 C 0.17942 0.19474 0.60579
 C3292 C 0.17334 0.18869 0.61639
 C3293 C 0.17455 0.17516 0.61832
 C3294 C 0.18191 0.16782 0.60935
 C3295 C 0.19320 0.19366 0.58619
 C3296 C 0.19864 0.19900 0.57724
 C3297 C 0.20507 0.20534 0.56685
 C3298 C 0.21062 0.21082 0.55805
 C3299 C 0.21730 0.21746 0.54763
 C3300 C 0.21224 0.22910 0.54260
 C3301 C 0.21886 0.23571 0.53267
 C3302 C 0.23065 0.23074 0.52764
 C3303 C 0.23560 0.21898 0.53271
 C3304 C 0.22896 0.21240 0.54265
 H3305 H 0.19362 0.16808 0.59196
 H3306 H 0.17846 0.20519 0.60453
 H3307 H 0.16791 0.19466 0.62320
 H3308 H 0.18289 0.15737 0.61046
 H3309 H 0.20322 0.23311 0.54640
 H3310 H 0.21478 0.24473 0.52898
 H3311 H 0.24465 0.21490 0.52907
 H3312 H 0.23297 0.20340 0.54648
   
