data_POSCAR
  _audit_creation_date              2014-09-24
  _audit_creation_method            'ToBaCCo'
  _symmetry_space_group_name_H-M    'P1'
  _symmetry_Int_Tables_number       1
  _symmetry_cell_setting            triclinic
  loop_
  _symmetry_equiv_pos_as_xyz
 x,y,z
_cell_length_a 63.7421
_cell_length_b 63.6252
_cell_length_c 63.6635
_cell_angle_alpha 90.065900
_cell_angle_beta 90.046400
_cell_angle_gamma 90.035800
loop_
  _atom_site_label
  _atom_site_type_symbol
  _atom_site_fract_x
  _atom_site_fract_y
  _atom_site_fract_z
C1 C 0.29738 0.43749 0.92211
 C2 C 0.29770 0.42194 0.93769
 C3 C 0.31332 0.42199 0.95282
 C4 C 0.32883 0.43766 0.95256
 C5 C 0.32848 0.45302 0.93716
 C6 C 0.31267 0.45293 0.92186
 C7 C 0.28513 0.44025 0.90453
 N8 N 0.29267 0.45695 0.89369
 C9 C 0.30946 0.46485 0.90412
 C10 C 0.34615 0.46517 0.93972
 N11 N 0.35719 0.45755 0.95627
 C12 C 0.34677 0.44076 0.96425
 C13 C 0.31059 0.40421 0.96486
 N14 N 0.29377 0.39351 0.95734
 C15 C 0.28577 0.40420 0.94076
 H16 H 0.27221 0.43037 0.89959
 H17 H 0.31907 0.47780 0.89872
 H18 H 0.35091 0.47813 0.92981
 H19 H 0.35222 0.43111 0.97715
 H20 H 0.32049 0.39902 0.97767
 H21 H 0.27268 0.39910 0.93119
 C22 C 0.43506 0.83151 0.45034
 C23 C 0.41974 0.81573 0.45037
 C24 C 0.41965 0.80053 0.43479
 C25 C 0.43496 0.80094 0.41897
 C26 C 0.45013 0.81655 0.41896
 C27 C 0.45017 0.83195 0.43475
 C28 C 0.43806 0.84894 0.46278
 N29 N 0.45462 0.85991 0.45510
 C30 C 0.46216 0.84967 0.43799
 C31 C 0.46218 0.81376 0.40125
 N32 N 0.45467 0.79689 0.39058
 C33 C 0.43805 0.78894 0.40123
 C34 C 0.40225 0.78810 0.43807
 N35 N 0.39190 0.79548 0.45516
 C36 C 0.40245 0.81233 0.46282
 H37 H 0.42852 0.85354 0.47607
 H38 H 0.47504 0.85507 0.42830
 H39 H 0.47511 0.82357 0.39626
 H40 H 0.42866 0.77569 0.39614
 H41 H 0.39707 0.77509 0.42839
 H42 H 0.39758 0.82183 0.47605
 C43 C 0.93461 0.91932 0.80099
 C44 C 0.91900 0.93484 0.80116
 C45 C 0.91891 0.94997 0.81677
 C46 C 0.93435 0.94979 0.83242
 C47 C 0.94976 0.93447 0.83233
 C48 C 0.94991 0.91911 0.81647
 C49 C 0.93781 0.90199 0.78846
 N50 N 0.95465 0.89131 0.79596
 C51 C 0.96217 0.90162 0.81306
 C52 C 0.96182 0.93749 0.85005
 N53 N 0.95401 0.95422 0.86076
 C54 C 0.93723 0.96185 0.85010
 C55 C 0.90139 0.96221 0.81383
 N56 N 0.89088 0.95483 0.79683
 C57 C 0.90148 0.93812 0.78894
 H58 H 0.92821 0.89725 0.77525
 H59 H 0.97522 0.89642 0.82263
 H60 H 0.97495 0.92796 0.85510
 H61 H 0.92749 0.97486 0.85506
 H62 H 0.89636 0.97513 0.82367
 H63 H 0.89644 0.92875 0.77565
 C64 C 0.43569 -0.08112 0.29980
 C65 C 0.42049 -0.06522 0.29967
 C66 C 0.42053 -0.04997 0.31519
 C67 C 0.43580 -0.05044 0.33105
 C68 C 0.45084 -0.06613 0.33116
 C69 C 0.45079 -0.08158 0.31543
 C70 C 0.43854 -0.09866 0.28748
 N71 N 0.45499 -0.10970 0.29529
 C72 C 0.46261 -0.09942 0.31236
 C73 C 0.46277 -0.06344 0.34899
 N74 N 0.45527 -0.04655 0.35960
 C75 C 0.43881 -0.03848 0.34881
 C76 C 0.40320 -0.03748 0.31197
 N77 N 0.39274 -0.04486 0.29494
 C78 C 0.40316 -0.06178 0.28728
 H79 H 0.42899 -0.10327 0.27420
 H80 H 0.47543 -0.10485 0.32212
 H81 H 0.47555 -0.07336 0.35414
 H82 H 0.42943 -0.02522 0.35385
 H83 H 0.39812 -0.02447 0.32168
 H84 H 0.39813 -0.07132 0.27412
 C85 C 0.80003 0.31503 0.32977
 C86 C 0.80020 0.33078 0.31441
 C87 C 0.81585 0.33112 0.29937
 C88 C 0.83156 0.31572 0.29952
 C89 C 0.83144 0.30016 0.31472
 C90 C 0.81554 0.29981 0.32996
 C91 C 0.78751 0.31170 0.34702
 N92 N 0.79505 0.29486 0.35764
 C93 C 0.81215 0.28744 0.34738
 C94 C 0.84918 0.28818 0.31175
 N95 N 0.85992 0.29612 0.29518
 C96 C 0.84932 0.31295 0.28758
 C97 C 0.81280 0.34882 0.28733
 N98 N 0.79575 0.35913 0.29478
 C99 C 0.78790 0.34826 0.31131
 H100 H 0.77430 0.32122 0.35184
 H101 H 0.82176 0.27443 0.35262
 H102 H 0.85421 0.27497 0.32120
 H103 H 0.85439 0.32275 0.27467
 H104 H 0.82258 0.35418 0.27451
 H105 H 0.77461 0.35301 0.32074
 C106 C -0.18546 0.83132 0.79927
 C107 C -0.17044 0.81523 0.79894
 C108 C -0.17092 0.79961 0.81402
 C109 C -0.18640 0.79985 0.82961
 C110 C -0.20127 0.81570 0.82999
 C111 C -0.20079 0.83158 0.81468
 C112 C -0.18798 0.84914 0.78732
 N113 N -0.20445 0.86019 0.79511
 C114 C -0.21240 0.84962 0.81182
 C115 C -0.21338 0.81263 0.84766
 N116 N -0.20612 0.79538 0.85789
 C117 C -0.18965 0.78745 0.84697
 C118 C -0.15370 0.78700 0.81084
 N119 N -0.14282 0.79463 0.79423
 C120 C -0.15290 0.81185 0.78679
 H121 H -0.17822 0.85390 0.77426
 H122 H -0.22535 0.85494 0.82145
 H123 H -0.22607 0.82256 0.85307
 H124 H -0.18028 0.77405 0.85159
 H125 H -0.14904 0.77373 0.82037
 H126 H -0.14740 0.82159 0.77399
 C127 C 0.95078 0.32987 0.43575
 C128 C 0.95086 0.31454 0.41986
 C129 C 0.93587 0.29878 0.41989
 C130 C 0.92064 0.29811 0.43572
 C131 C 0.92052 0.31323 0.45136
 C132 C 0.93568 0.32920 0.45138
 C133 C 0.96249 0.34779 0.43899
 N134 N 0.95481 0.35791 0.45612
 C135 C 0.93843 0.34669 0.46382
 C136 C 0.90311 0.30960 0.46360
 N137 N 0.89277 0.29273 0.45571
 C138 C 0.90334 0.28555 0.43869
 C139 C 0.93879 0.28694 0.40207
 N140 N 0.95517 0.29511 0.39124
 C141 C 0.96270 0.31197 0.40193
 H142 H 0.97524 0.35342 0.42926
 H143 H 0.92881 0.35116 0.47708
 H144 H 0.89787 0.31898 0.47680
 H145 H 0.89838 0.27267 0.42874
 H146 H 0.92936 0.27370 0.39710
 H147 H 0.97547 0.32190 0.39671
 C148 C 0.45173 0.43565 0.82921
 C149 C 0.45119 0.41980 0.81395
 C150 C 0.43561 0.41974 0.79879
 C151 C 0.42035 0.43563 0.79872
 C152 C 0.42087 0.45129 0.81384
 C153 C 0.43666 0.45130 0.82920
 C154 C 0.46410 0.43862 0.84667
 N155 N 0.45687 0.45567 0.85723
 C156 C 0.44012 0.46357 0.84670
 C157 C 0.40343 0.46367 0.81089
 N158 N 0.39242 0.45589 0.79439
 C159 C 0.40259 0.43878 0.78682
 C160 C 0.43820 0.40177 0.78699
 N161 N 0.45490 0.39106 0.79469
 C162 C 0.46296 0.40192 0.81115
 H163 H 0.47689 0.42862 0.85167
 H164 H 0.43072 0.47678 0.85184
 H165 H 0.39877 0.47695 0.82045
 H166 H 0.39706 0.42899 0.77403
 H167 H 0.42836 0.39652 0.77414
 H168 H 0.47606 0.39693 0.82075
 C169 C 0.80008 0.91981 0.93515
 C170 C 0.80063 0.93512 0.91941
 C171 C 0.81657 0.94991 0.91909
 C172 C 0.83221 0.94951 0.93463
 C173 C 0.83166 0.93432 0.95021
 C174 C 0.81548 0.91937 0.95046
 C175 C 0.78725 0.90274 0.93834
 N176 N 0.79452 0.89196 0.95520
 C177 C 0.81175 0.90198 0.96278
 C178 C 0.84929 0.93695 0.96244
 N179 N 0.86047 0.95335 0.95467
 C180 C 0.85020 0.96115 0.93769
 C181 C 0.81370 0.96193 0.90131
 N182 N 0.79650 0.95470 0.89100
 C183 C 0.78840 0.93834 0.90193
 H184 H 0.77407 0.89816 0.92862
 H185 H 0.82125 0.89657 0.97579
 H186 H 0.85379 0.92735 0.97571
 H187 H 0.85567 0.97404 0.92805
 H188 H 0.82366 0.97462 0.89592
 H189 H 0.77493 0.92909 0.89724
 C190 C 0.29885 0.82938 0.31366
 C191 C 0.29877 0.81356 0.32898
 C192 C 0.31437 0.79845 0.32907
 C193 C 0.33026 0.79897 0.31389
 C194 C 0.33038 0.81458 0.29876
 C195 C 0.31454 0.82989 0.29863
 C196 C 0.28651 0.84687 0.31069
 N197 N 0.29434 0.85792 0.29424
 C198 C 0.31145 0.84769 0.28674
 C199 C 0.34834 0.81196 0.28703
 N200 N 0.35898 0.79520 0.29474
 C201 C 0.34809 0.78714 0.31114
 C202 C 0.31129 0.78607 0.34648
 N203 N 0.29424 0.79334 0.35691
 C204 C 0.28643 0.81011 0.34637
 H205 H 0.27323 0.85147 0.32022
 H206 H 0.32128 0.85319 0.27400
 H207 H 0.35361 0.82180 0.27422
 H208 H 0.35303 0.77401 0.32072
 H209 H 0.32117 0.77323 0.35159
 H210 H 0.27323 0.81951 0.35146
 C211 C 0.79907 0.42027 0.43520
 C212 C 0.79904 0.43555 0.41933
 C213 C 0.81414 0.45119 0.41932
 C214 C 0.82944 0.45178 0.43510
 C215 C 0.82953 0.43669 0.45074
 C216 C 0.81424 0.42083 0.45080
 C217 C 0.78722 0.40247 0.43842
 N218 N 0.79486 0.39231 0.45549
 C219 C 0.81137 0.40336 0.46320
 C220 C 0.84702 0.44024 0.46295
 N221 N 0.85744 0.45706 0.45503
 C222 C 0.84683 0.46425 0.43802
 C223 C 0.81124 0.46299 0.40149
 N224 N 0.79477 0.45488 0.39070
 C225 C 0.78716 0.43812 0.40142
 H226 H 0.77440 0.39692 0.42872
 H227 H 0.82095 0.39873 0.47644
 H228 H 0.85221 0.43087 0.47616
 H229 H 0.85174 0.47710 0.42803
 H230 H 0.82077 0.47613 0.39646
 H231 H 0.77433 0.42824 0.39624
 C232 C 0.93690 0.82936 -0.04850
 C233 C 0.92137 0.81376 -0.04840
 C234 C 0.92136 0.79822 -0.06366
 C235 C 0.93696 0.79809 -0.07922
 C236 C 0.95231 0.81350 -0.07924
 C237 C 0.95226 0.82922 -0.06383
 C238 C 0.93979 0.84722 -0.03663
 N239 N 0.95649 0.85783 -0.04446
 C240 C 0.96426 0.84699 -0.06106
 C241 C 0.96443 0.81050 -0.09684
 N242 N 0.95680 0.79367 -0.10749
 C243 C 0.94001 0.78595 -0.09688
 C244 C 0.90363 0.78623 -0.06058
 N245 N 0.89303 0.79416 -0.04390
 C246 C 0.90371 0.81097 -0.03633
 H247 H 0.93011 0.85251 -0.02371
 H248 H 0.97722 0.85199 -0.07082
 H249 H 0.97736 0.82031 -0.10183
 H250 H 0.93035 0.77292 -0.10205
 H251 H 0.89842 0.77315 -0.07014
 H252 H 0.89867 0.82087 -0.02346
 C253 C 0.29877 0.32903 0.81373
 C254 C 0.29890 0.31359 0.82943
 C255 C 0.31453 0.29848 0.82970
 C256 C 0.33025 0.29863 0.81430
 C257 C 0.33010 0.31388 0.79881
 C258 C 0.31427 0.32914 0.79851
 C259 C 0.28646 0.34649 0.81044
 N260 N 0.29416 0.35708 0.79366
 C261 C 0.31113 0.34663 0.78622
 C262 C 0.34786 0.31109 0.78686
 N263 N 0.35871 0.29457 0.79475
 C264 C 0.34812 0.28681 0.81150
 C265 C 0.31155 0.28645 0.84740
 N266 N 0.29455 0.29393 0.85780
 C267 C 0.28669 0.31049 0.84699
 H268 H 0.27332 0.35157 0.81994
 H269 H 0.32091 0.35175 0.77332
 H270 H 0.35279 0.32074 0.77377
 H271 H 0.35338 0.27390 0.82123
 H272 H 0.32141 0.27365 0.85265
 H273 H 0.27346 0.31995 0.85193
 C274 C 0.16753 0.56606 0.55065
 C275 C 0.18310 0.58160 0.55058
 C276 C 0.19840 0.58175 0.56600
 C277 C 0.19831 0.56633 0.58172
 C278 C 0.18291 0.55096 0.58181
 C279 C 0.16740 0.55083 0.56615
 C280 C 0.15012 0.56289 0.53829
 N281 N 0.13946 0.54613 0.54592
 C282 C 0.14984 0.53860 0.56293
 C283 C 0.18606 0.53884 0.59944
 N284 N 0.20293 0.54652 0.60994
 C285 C 0.21055 0.56331 0.59927
 C286 C 0.21066 0.59927 0.56270
 N287 N 0.20307 0.60964 0.54572
 C288 C 0.18625 0.59899 0.53817
 H289 H 0.14529 0.57241 0.52507
 H290 H 0.14466 0.52556 0.57252
 H291 H 0.17654 0.52572 0.60457
 H292 H 0.22370 0.57291 0.60416
 H293 H 0.22374 0.60446 0.57224
 H294 H 0.17668 0.60383 0.52499
 C295 C 0.58120 0.68466 0.04957
 C296 C 0.56560 0.66906 0.04953
 C297 C 0.54989 0.66947 0.06453
 C298 C 0.54953 0.68540 0.07972
 C299 C 0.56489 0.70077 0.07978
 C300 C 0.58082 0.70040 0.06463
 C301 C 0.59905 0.68762 0.03775
 N302 N 0.60938 0.70467 0.04532
 C303 C 0.59839 0.71260 0.06174
 C304 C 0.56145 0.71329 0.09708
 N305 N 0.54445 0.70581 0.10744
 C306 C 0.53700 0.68880 0.09697
 C307 C 0.53768 0.65189 0.06158
 N308 N 0.54559 0.64086 0.04518
 C309 C 0.56264 0.65117 0.03766
 H310 H 0.60445 0.67783 0.02492
 H311 H 0.60307 0.72595 0.07119
 H312 H 0.57101 0.72639 0.10223
 H313 H 0.52393 0.67916 0.10194
 H314 H 0.52435 0.64722 0.07100
 H315 H 0.57241 0.64573 0.02487
 C316 C 0.68596 0.20205 0.67043
 C317 C 0.67091 0.20196 0.68647
 C318 C 0.67159 0.18670 0.70194
 C319 C 0.68737 0.17136 0.70159
 C320 C 0.70225 0.17146 0.68576
 C321 C 0.70153 0.18690 0.67008
 C322 C 0.68821 0.21404 0.65260
 N323 N 0.70474 0.20648 0.64153
 C324 C 0.71300 0.18992 0.65204
 C325 C 0.71463 0.15395 0.68845
 N326 N 0.70756 0.14330 0.70548
 C327 C 0.69094 0.15378 0.71364
 C328 C 0.65420 0.18946 0.71446
 N329 N 0.64310 0.20599 0.70690
 C330 C 0.65316 0.21376 0.68984
 H331 H 0.67822 0.22689 0.64774
 H332 H 0.72602 0.18045 0.64660
 H333 H 0.72732 0.14894 0.67834
 H334 H 0.68172 0.14854 0.72692
 H335 H 0.64960 0.17973 0.72760
 H336 H 0.64750 0.22657 0.68020
 C337 C 1.08075 0.06365 0.20077
 C338 C 1.06493 0.07891 0.20139
 C339 C 1.04929 0.07894 0.18632
 C340 C 1.04927 0.06369 0.17042
 C341 C 1.06489 0.04858 0.16977
 C342 C 1.08078 0.04856 0.18507
 C343 C 1.09853 0.06075 0.21263
 N344 N 1.10934 0.04429 0.20454
 C345 C 1.09868 0.03670 0.18770
 C346 C 1.06160 0.03673 0.15193
 N347 N 1.04445 0.04436 0.14184
 C348 C 1.03679 0.06083 0.15300
 C349 C 1.03701 0.09637 0.18991
 N350 N 1.04490 0.10682 0.20673
 C351 C 1.06194 0.09629 0.21391
 H352 H 1.10348 0.07024 0.22585
 H353 H 1.10388 0.02385 0.17784
 H354 H 1.07130 0.02392 0.14635
 H355 H 1.02350 0.07042 0.14855
 H356 H 1.02380 0.10154 0.18056
 H357 H 1.07187 0.10131 0.22676
 C358 C 0.06449 0.17069 1.04885
 C359 C 0.08037 0.18591 1.04944
 C360 C 0.08047 0.20103 1.06511
 C361 C 0.06463 0.20108 1.08041
 C362 C 0.04895 0.18601 1.07981
 C363 C 0.04888 0.17073 1.06393
 C364 C 0.06138 0.15327 1.03639
 N365 N 0.04431 0.14282 1.04362
 C366 C 0.03652 0.15333 1.06041
 C367 C 0.03657 0.18890 1.09726
 N368 N 0.04436 0.20535 1.10840
 C369 C 0.06148 0.21294 1.09825
 C370 C 0.09841 0.21284 1.06250
 N371 N 0.10905 0.20520 1.04570
 C372 C 0.09818 0.18876 1.03760
 H373 H 0.07126 0.14818 1.02354
 H374 H 0.02331 0.14822 1.06979
 H375 H 0.02329 0.17932 1.10178
 H376 H 0.07127 0.22570 1.10382
 H377 H 0.10366 0.22568 1.07237
 H378 H 0.10311 0.17923 1.02442
 C379 C 0.16788 0.69933 0.68346
 C380 C 0.18353 0.69913 0.66798
 C381 C 0.19879 0.68366 0.66818
 C382 C 0.19861 0.66820 0.68385
 C383 C 0.18317 0.66839 0.69913
 C384 C 0.16771 0.68405 0.69893
 C385 C 0.15045 0.71174 0.68648
 N386 N 0.13981 0.70432 0.70337
 C387 C 0.15019 0.68743 0.71110
 C388 C 0.18617 0.65094 0.71153
 N389 N 0.20302 0.64027 0.70409
 C390 C 0.21075 0.65065 0.68721
 C391 C 0.21118 0.68661 0.65075
 N392 N 0.20379 0.70346 0.64005
 C393 C 0.18692 0.71126 0.65041
 H394 H 0.14561 0.72485 0.67681
 H395 H 0.14504 0.67801 0.72428
 H396 H 0.17651 0.64609 0.72462
 H397 H 0.22391 0.64547 0.67779
 H398 H 0.22426 0.67690 0.64595
 H399 H 0.17753 0.72443 0.64519
 C400 C 1.18538 0.16863 0.19925
 C401 C 1.17019 0.18457 0.19971
 C402 C 1.17031 0.20011 0.18451
 C403 C 1.18556 0.19992 0.16868
 C404 C 1.20055 0.18422 0.16820
 C405 C 1.20047 0.16846 0.18360
 C406 C 1.18838 0.15089 0.21125
 N407 N 1.20488 0.14009 0.20326
 C408 C 1.21240 0.15065 0.18637
 C409 C 1.21247 0.18732 0.15044
 N410 N 1.20498 0.20447 0.14023
 C411 C 1.18854 0.21230 0.15125
 C412 C 1.15311 0.21266 0.18792
 N413 N 1.14257 0.20510 0.20478
 C414 C 1.15285 0.18797 0.21215
 H415 H 1.17902 0.14592 0.22453
 H416 H 1.22526 0.14553 0.17654
 H417 H 1.22526 0.17753 0.14500
 H418 H 1.17907 0.22565 0.14669
 H419 H 1.14825 0.22588 0.17841
 H420 H 1.14765 0.17833 0.22515
 C421 C 0.67082 1.04925 0.56362
 C422 C 0.68636 1.04898 0.57916
 C423 C 0.70143 1.06463 0.57978
 C424 C 0.70111 1.08078 0.56481
 C425 C 0.68573 1.08107 0.54942
 C426 C 0.67045 1.06517 0.54882
 C427 C 0.65346 1.03688 0.56030
 N428 N 0.64256 1.04490 0.54388
 C429 C 0.65278 1.06217 0.53670
 C430 C 0.68856 1.09915 0.53788
 N431 N 0.70523 1.10974 0.54592
 C432 C 0.71301 1.09867 0.56239
 C433 C 0.71350 1.06118 0.59739
 N434 N 0.70601 1.04391 0.60736
 C435 C 0.68946 1.03630 0.59636
 H436 H 0.64875 1.02347 0.56961
 H437 H 0.64731 1.07216 0.52408
 H438 H 0.67896 1.10447 0.52489
 H439 H 0.72606 1.10344 0.57219
 H440 H 0.72627 1.07091 0.60301
 H441 H 0.67991 1.02301 0.60092
 C442 C 0.56439 0.54883 0.16923
 C443 C 0.57955 0.54858 0.18519
 C444 C 0.57921 0.56374 0.20078
 C445 C 0.56369 0.57933 0.20064
 C446 C 0.54870 0.57961 0.18490
 C447 C 0.54905 0.56425 0.16906
 C448 C 0.56178 0.53688 0.15141
 N449 N 0.54527 0.54467 0.14048
 C450 C 0.53735 0.56137 0.15109
 C451 C 0.53661 0.59730 0.18797
 N452 N 0.54398 0.60762 0.20511
 C453 C 0.56051 0.59678 0.21298
 C454 C 0.59658 0.56061 0.21322
 N455 N 0.60739 0.54397 0.20550
 C456 C 0.59713 0.53646 0.18841
 H457 H 0.57151 0.52384 0.14650
 H458 H 0.52439 0.57100 0.14579
 H459 H 0.52385 0.60267 0.17811
 H460 H 0.56995 0.60158 0.22628
 H461 H 0.60139 0.57020 0.22643
 H462 H 0.60254 0.52362 0.17864
 C463 C 0.67105 0.68656 0.20068
 C464 C 0.68671 0.67109 0.20085
 C465 C 0.70190 0.67089 0.18532
 C466 C 0.70161 0.68608 0.16942
 C467 C 0.68616 0.70136 0.16922
 C468 C 0.67078 0.70161 0.18497
 C469 C 0.65354 0.68974 0.21292
 N470 N 0.64276 0.70630 0.20501
 C471 C 0.65313 0.71370 0.18795
 C472 C 0.68899 0.71309 0.15127
 N473 N 0.70570 0.70523 0.14070
 C474 C 0.71354 0.68874 0.15163
 C475 C 0.71414 0.65340 0.18849
 N476 N 0.70671 0.64300 0.20550
 C477 C 0.68998 0.65365 0.21321
 H478 H 0.64862 0.68036 0.22621
 H479 H 0.64789 0.72647 0.17805
 H480 H 0.67930 0.72600 0.14595
 H481 H 0.72660 0.67904 0.14674
 H482 H 0.72700 0.64822 0.17868
 H483 H 0.68048 0.64862 0.22637
 C484 C 0.17000 0.06465 1.04990
 C485 C 0.18525 0.08055 1.05034
 C486 C 0.20044 0.08062 1.06592
 C487 C 0.20055 0.06482 1.08125
 C488 C 0.18550 0.04915 1.08080
 C489 C 0.17016 0.04906 1.06505
 C490 C 0.15253 0.06139 1.03758
 N491 N 0.14221 0.04428 1.04497
 C492 C 0.15284 0.03661 1.06173
 C493 C 0.18848 0.03680 1.09825
 N494 N 0.20497 0.04462 1.10922
 C495 C 0.21250 0.06171 1.09900
 C496 C 0.21235 0.09845 1.06323
 N497 N 0.20473 0.10913 1.04645
 C498 C 0.18818 0.09837 1.03846
 H499 H 0.14726 0.07111 1.02467
 H500 H 0.14798 0.02340 1.07124
 H501 H 0.17899 0.02350 1.10292
 H502 H 0.22530 0.07149 1.10448
 H503 H 0.22525 0.10353 1.07306
 H504 H 0.17872 0.10345 1.02528
 C505 C 0.57967 0.20176 0.56321
 C506 C 0.56400 0.20216 0.57867
 C507 C 0.54824 0.18716 0.57852
 C508 C 0.54793 0.17160 0.56292
 C509 C 0.56337 0.17124 0.54766
 C510 C 0.57934 0.18638 0.54781
 C511 C 0.59769 0.21334 0.56033
 N512 N 0.60818 0.20531 0.54363
 C513 C 0.59713 0.18884 0.53584
 C514 C 0.56014 0.15359 0.53560
 N515 N 0.54316 0.14328 0.54323
 C516 C 0.53554 0.15412 0.55989
 C517 C 0.53619 0.19038 0.59615
 N518 N 0.54427 0.20690 0.60690
 C519 C 0.56125 0.21426 0.59639
 H520 H 0.60313 0.22626 0.56999
 H521 H 0.60195 0.17901 0.52284
 H522 H 0.56990 0.14823 0.52277
 H523 H 0.52246 0.14918 0.56954
 H524 H 0.52296 0.18099 0.60121
 H525 H 0.57128 0.22696 0.60162
 C526 C 0.08158 0.56636 0.69902
 C527 C 0.06615 0.58206 0.69883
 C528 C 0.05082 0.58204 0.68340
 C529 C 0.05073 0.56629 0.66795
 C530 C 0.06597 0.55080 0.66817
 C531 C 0.08147 0.55084 0.68378
 C532 C 0.09906 0.56317 0.71132
 N533 N 0.10945 0.54615 0.70384
 C534 C 0.09885 0.53848 0.68703
 C535 C 0.06284 0.53834 0.65080
 N536 N 0.04610 0.54589 0.64008
 C537 C 0.03854 0.56295 0.65039
 C538 C 0.03868 0.59968 0.68645
 N539 N 0.04631 0.61028 0.70329
 C540 C 0.06308 0.59968 0.71099
 H541 H 0.10421 0.57280 0.72437
 H542 H 0.10371 0.52525 0.67751
 H543 H 0.07238 0.52510 0.64603
 H544 H 0.02551 0.57250 0.64513
 H545 H 0.02558 0.60473 0.67688
 H546 H 0.07264 0.60465 0.72414
 C547 C 0.66869 0.55041 0.06391
 C548 C 0.68440 0.55021 0.07935
 C549 C 0.69978 0.56560 0.07945
 C550 C 0.69964 0.58140 0.06408
 C551 C 0.68414 0.58154 0.04884
 C552 C 0.66860 0.56598 0.04876
 C553 C 0.65106 0.53830 0.06074
 N554 N 0.64040 0.54622 0.04410
 C555 C 0.65097 0.56312 0.03663
 C556 C 0.68705 0.59922 0.03680
 N557 N 0.70391 0.60978 0.04438
 C558 C 0.71175 0.59907 0.06104
 C559 C 0.71210 0.56224 0.09689
 N560 N 0.70455 0.54526 0.10727
 C561 C 0.68763 0.53776 0.09671
 H562 H 0.64599 0.52508 0.07016
 H563 H 0.64591 0.57295 0.02373
 H564 H 0.67728 0.60429 0.02386
 H565 H 0.72493 0.60412 0.07052
 H566 H 0.72522 0.57177 0.10205
 H567 H 0.67802 0.52464 0.10161
 C568 C 0.06604 0.69926 0.58205
 C569 C 0.08168 0.69911 0.56659
 C570 C 0.08176 0.68360 0.55130
 C571 C 0.06614 0.66802 0.55130
 C572 C 0.05070 0.66822 0.56659
 C573 C 0.05065 0.68392 0.58204
 C574 C 0.06280 0.71167 0.59947
 N575 N 0.04588 0.70415 0.60994
 C576 C 0.03831 0.68721 0.59945
 C577 C 0.03834 0.65076 0.56351
 N578 N 0.04590 0.64002 0.54675
 C579 C 0.06287 0.65039 0.53914
 C580 C 0.09934 0.68675 0.53913
 N581 N 0.10979 0.70372 0.54671
 C582 C 0.09916 0.71139 0.56348
 H583 H 0.07234 0.72482 0.60454
 H584 H 0.02517 0.67765 0.60440
 H585 H 0.02514 0.64599 0.57306
 H586 H 0.07238 0.64517 0.52606
 H587 H 0.10446 0.67716 0.52605
 H588 H 0.10402 0.72462 0.57302
 C589 C 0.56385 1.04853 0.67078
 C590 C 0.57941 1.04870 0.68642
 C591 C 0.57917 1.06408 0.70185
 C592 C 0.56343 1.07946 0.70186
 C593 C 0.54811 1.07928 0.68646
 C594 C 0.54831 1.06373 0.67084
 C595 C 0.56090 1.03643 0.65305
 N596 N 0.54401 1.04398 0.64246
 C597 C 0.53620 1.06066 0.65322
 C598 C 0.53581 1.09681 0.68942
 N599 N 0.54335 1.10757 0.70623
 C600 C 0.56021 1.09711 0.71398
 C601 C 0.59677 1.06130 0.71405
 N602 N 0.60763 1.04465 0.70641
 C603 C 0.59719 1.03681 0.68956
 H604 H 0.57066 1.02350 0.64786
 H605 H 0.52309 1.07028 0.64832
 H606 H 0.52282 1.10167 0.67962
 H607 H 0.56981 1.10237 0.72701
 H608 H 0.60162 1.07105 0.72712
 H609 H 0.60252 1.02382 0.67995
 C610 C 0.45127 0.32966 0.93592
 C611 C 0.45103 0.31430 0.92007
 C612 C 0.43590 0.29867 0.92028
 C613 C 0.42083 0.29817 0.93630
 C614 C 0.42108 0.31331 0.95190
 C615 C 0.43636 0.32913 0.95172
 C616 C 0.46309 0.34755 0.93896
 N617 N 0.45563 0.35777 0.95613
 C618 C 0.43930 0.34663 0.96405
 C619 C 0.40379 0.31000 0.96437
 N620 N 0.39310 0.29326 0.95666
 C621 C 0.40336 0.28586 0.93955
 C622 C 0.43856 0.28678 0.90243
 N623 N 0.45491 0.29482 0.89144
 C624 C 0.46266 0.31163 0.90203
 H625 H 0.47571 0.35312 0.92904
 H626 H 0.42981 0.35121 0.97738
 H627 H 0.39892 0.31957 0.97756
 H628 H 0.39801 0.27300 0.92975
 H629 H 0.42899 0.27360 0.89755
 H630 H 0.47547 0.32144 0.89670
 C631 C 0.95032 0.43483 0.33041
 C632 C 0.95023 0.41910 0.31501
 C633 C 0.93464 0.41873 0.29989
 C634 C 0.91890 0.43412 0.30000
 C635 C 0.91896 0.44968 0.31525
 C636 C 0.93481 0.45004 0.33057
 C637 C 0.96279 0.43810 0.34773
 N638 N 0.95520 0.45491 0.35841
 C639 C 0.93813 0.46237 0.34807
 C640 C 0.90124 0.46167 0.31223
 N641 N 0.89055 0.45376 0.29557
 C642 C 0.90118 0.43693 0.28797
 C643 C 0.93778 0.40100 0.28786
 N644 N 0.95483 0.39074 0.29541
 C645 C 0.96257 0.40165 0.31198
 H646 H 0.97596 0.42851 0.35250
 H647 H 0.92847 0.47535 0.35331
 H648 H 0.89619 0.47488 0.32169
 H649 H 0.89615 0.42716 0.27499
 H650 H 0.92808 0.39559 0.27497
 H651 H 0.97583 0.39695 0.32151
 C652 C 0.30024 0.93619 0.41960
 C653 C 0.30012 0.92051 0.43504
 C654 C 0.31572 0.92001 0.45018
 C655 C 0.33170 0.93519 0.45004
 C656 C 0.33181 0.95068 0.43476
 C657 C 0.31598 0.95118 0.41946
 C658 C 0.28786 0.93967 0.40223
 N659 N 0.29572 0.95638 0.39161
 C660 C 0.31291 0.96356 0.40200
 C661 C 0.34965 0.96251 0.43770
 N662 N 0.36033 0.95457 0.45436
 C663 C 0.34951 0.93788 0.46202
 C664 C 0.31232 0.90240 0.46227
 N665 N 0.29513 0.89230 0.45477
 C666 C 0.28753 0.90322 0.43815
 H667 H 0.27450 0.93036 0.39728
 H668 H 0.32285 0.97638 0.39693
 H669 H 0.35467 0.97560 0.42810
 H670 H 0.35450 0.92816 0.47505
 H671 H 0.32197 0.89693 0.47515
 H672 H 0.27422 0.89861 0.42864
 O673 O 0.25147 0.47364 0.80626
 O674 O 0.21452 0.47563 0.79898
 O675 O 0.27587 0.44374 0.75157
 O676 O 0.27522 0.44920 0.71667
 O677 O 0.30580 0.49833 0.77664
 O678 O 0.29857 0.53535 0.77427
 O679 O 0.22146 0.50158 0.69580
 O680 O 0.22525 0.46488 0.70169
 O681 O 0.19526 0.52771 0.74870
 O682 O 0.20299 0.52586 0.78701
 O683 O 0.24794 0.55441 0.72241
 O684 O 0.28615 0.54684 0.72405
 O685 O 0.24705 0.52656 0.69525
 O686 O 0.28580 0.52364 0.70210
 O687 O 0.22302 0.55491 0.74799
 O688 O 0.22599 0.54791 0.78669
 O689 O 0.19470 0.50229 0.72351
 O690 O 0.20120 0.46386 0.72690
 O691 O 0.27699 0.49877 0.80587
 O692 O 0.27508 0.53595 0.79784
 O693 O 0.30527 0.47259 0.75172
 O694 O 0.29705 0.47624 0.71398
 O695 O 0.25115 0.44426 0.77744
 O696 O 0.21403 0.45212 0.77546
 Zr697 Zr 0.23835 0.47472 0.77594
 O698 O 0.21813 0.49334 0.75764
 Zr699 Zr 0.27491 0.47414 0.73868
 O700 O 0.25609 0.49245 0.71850
 Zr701 Zr 0.27553 0.51146 0.77538
 O702 O 0.25708 0.53162 0.75678
 Zr703 Zr 0.22427 0.48788 0.72567
 O704 O 0.24294 0.46736 0.74397
 Zr705 Zr 0.22522 0.52525 0.76231
 O706 O 0.24368 0.50670 0.78275
 Zr707 Zr 0.26159 0.52443 0.72485
 O708 O 0.28218 0.50609 0.74343
 O709 O 0.27004 0.47970 0.77041
 O710 O 0.22981 0.51975 0.73043
 C711 C 0.26649 0.48405 0.81483
 C712 C 0.26572 0.43525 0.76679
 C713 C 0.31427 0.48314 0.76640
 C714 C 0.23148 0.51671 0.68704
 C715 C 0.18649 0.51773 0.73353
 C716 C 0.23286 0.56316 0.73248
 H717 H 0.20341 0.49019 0.76133
 H718 H 0.26066 0.54639 0.75995
 H719 H 0.27895 0.47071 0.77940
 H720 H 0.25897 0.48884 0.70368
 H721 H 0.23204 0.45231 0.70783
 H722 H 0.26710 0.45382 0.70427
 H723 H 0.23793 0.55746 0.78400
 H724 H 0.26135 0.53508 0.80504
 H725 H 0.19182 0.46668 0.73894
 H726 H 0.21483 0.44501 0.76164
 H727 H 0.28464 0.55604 0.73648
 H728 H 0.30512 0.53445 0.76021
 H729 H 0.21527 0.48972 0.80554
 H730 H 0.19359 0.51361 0.78526
 H731 H 0.30518 0.48932 0.71628
 H732 H 0.28303 0.51167 0.69257
 O733 O 0.25197 -0.02758 0.30602
 O734 O 0.21496 -0.02598 0.29810
 O735 O 0.27811 -0.05599 0.25165
 O736 O 0.27782 -0.05020 0.21677
 O737 O 0.30603 -0.00105 0.27800
 O738 O 0.29788 0.03592 0.27578
 O739 O 0.22376 0.00120 0.19520
 O740 O 0.22825 -0.03559 0.20089
 O741 O 0.19541 0.02586 0.24770
 O742 O 0.20235 0.02385 0.28625
 O743 O 0.24815 0.05433 0.22315
 O744 O 0.28657 0.04755 0.22574
 O745 O 0.24867 0.02687 0.19562
 O746 O 0.28713 0.02487 0.20330
 O747 O 0.22255 0.05395 0.24806
 O748 O 0.22459 0.04659 0.28661
 O749 O 0.19611 0.00083 0.22212
 O750 O 0.20333 -0.03724 0.22520
 O751 O 0.27674 -0.00170 0.30647
 O752 O 0.27393 0.03550 0.29899
 O753 O 0.30665 -0.02636 0.25263
 O754 O 0.29923 -0.02265 0.21486
 O755 O 0.25259 -0.05644 0.27673
 O756 O 0.21539 -0.04930 0.27433
 Zr757 Zr 0.23922 -0.02621 0.27549
 O758 O 0.21898 -0.00789 0.25686
 Zr759 Zr 0.27657 -0.02549 0.23902
 O760 O 0.25785 -0.00735 0.21863
 Zr761 Zr 0.27549 0.01140 0.27616
 O762 O 0.25696 0.03133 0.25740
 Zr763 Zr 0.22599 -0.01279 0.22498
 O764 O 0.24467 -0.03308 0.24353
 Zr765 Zr 0.22512 0.02413 0.26205
 O766 O 0.24360 0.00582 0.28274
 Zr767 Zr 0.26244 0.02466 0.22553
 O768 O 0.28300 0.00654 0.24433
 O769 O 0.27087 -0.02041 0.27068
 O770 O 0.23063 0.01916 0.23023
 C771 C 0.26662 -0.01694 0.31498
 C772 C 0.26769 -0.06495 0.26643
 C773 C 0.31506 -0.01587 0.26769
 C774 C 0.23362 0.01669 0.18689
 C775 C 0.18724 0.01587 0.23219
 C776 C 0.23264 0.06263 0.23294
 H777 H 0.20426 -0.01145 0.26016
 H778 H 0.26010 0.04615 0.26085
 H779 H 0.27982 -0.02933 0.27971
 H780 H 0.26118 -0.01071 0.20385
 H781 H 0.23500 -0.04811 0.20719
 H782 H 0.27007 -0.04553 0.20415
 H783 H 0.23662 0.05620 0.28459
 H784 H 0.26003 0.03421 0.30581
 H785 H 0.19390 -0.03506 0.23733
 H786 H 0.21651 -0.05615 0.26041
 H787 H 0.28434 0.05676 0.23807
 H788 H 0.30493 0.03520 0.26195
 H789 H 0.21545 -0.01201 0.30494
 H790 H 0.19333 0.01137 0.28415
 H791 H 0.30690 -0.00935 0.21739
 H792 H 0.28506 0.01278 0.19374
 O793 O 0.50138 0.69495 0.22214
 O794 O 0.46451 0.70291 0.22396
 O795 O 0.52762 0.74954 0.19420
 O796 O 0.52748 0.78441 0.20037
 O797 O 0.55583 0.72272 0.24864
 O798 O 0.54793 0.72455 0.28560
 O799 O 0.47359 0.80553 0.25217
 O800 O 0.47789 0.80021 0.21541
 O801 O 0.44537 0.75271 0.27640
 O802 O 0.45236 0.71420 0.27405
 O803 O 0.49825 0.77722 0.30488
 O804 O 0.53659 0.77475 0.29796
 O805 O 0.49862 0.80498 0.27771
 O806 O 0.53717 0.79725 0.27538
 O807 O 0.47261 0.75232 0.30436
 O808 O 0.47468 0.71378 0.29670
 O809 O 0.44595 0.77850 0.25164
 O810 O 0.45307 0.77578 0.21350
 O811 O 0.52630 0.69419 0.24785
 O812 O 0.52389 0.70147 0.28517
 O813 O 0.55635 0.74829 0.22358
 O814 O 0.54901 0.78606 0.22784
 O815 O 0.50208 0.72442 0.19367
 O816 O 0.46489 0.72695 0.20097
 Zr817 Zr 0.48884 0.72550 0.22391
 O818 O 0.46874 0.74394 0.24253
 Zr819 Zr 0.52629 0.76194 0.22482
 O820 O 0.50767 0.78219 0.24324
 Zr821 Zr 0.52535 0.72445 0.26127
 O822 O 0.50696 0.74309 0.28150
 Zr823 Zr 0.47578 0.77587 0.23790
 O824 O 0.49434 0.75750 0.21733
 Zr825 Zr 0.47508 0.73849 0.27444
 O826 O 0.49340 0.71795 0.25581
 Zr827 Zr 0.51241 0.77505 0.27514
 O828 O 0.53286 0.75636 0.25675
 O829 O 0.52055 0.73021 0.22958
 O830 O 0.48057 0.77037 0.26975
 C831 C 0.51600 0.68583 0.23262
 C832 C 0.51716 0.73479 0.18520
 C833 C 0.56481 0.73315 0.23388
 C834 C 0.48352 0.81376 0.26768
 C835 C 0.43713 0.76827 0.26657
 C836 C 0.48273 0.76740 0.31313
 H837 H 0.45400 0.74065 0.23902
 H838 H 0.51018 0.73954 0.29626
 H839 H 0.52943 0.72122 0.22055
 H840 H 0.51100 0.79701 0.24002
 H841 H 0.48467 0.79408 0.20282
 H842 H 0.51977 0.79700 0.20521
 H843 H 0.48672 0.71581 0.30630
 H844 H 0.50996 0.69468 0.28393
 H845 H 0.44360 0.76366 0.21563
 H846 H 0.46616 0.74086 0.19414
 H847 H 0.53450 0.76225 0.30694
 H848 H 0.55487 0.73847 0.28512
 H849 H 0.46501 0.69595 0.23785
 H850 H 0.44324 0.71638 0.26167
 H851 H 0.55677 0.78338 0.24104
 H852 H 0.53494 0.80702 0.26351
 O853 O -0.02655 0.80664 0.75272
 O854 O -0.02418 0.79977 0.71553
 O855 O -0.05639 0.75187 0.77640
 O856 O -0.05099 0.71690 0.77540
 O857 O -0.00183 0.77644 0.80675
 O858 O 0.03517 0.77424 0.79941
 O859 O 0.00138 0.69629 0.72175
 O860 O -0.03529 0.70229 0.72554
 O861 O 0.02757 0.74932 0.69586
 O862 O 0.02570 0.78769 0.70391
 O863 O 0.05412 0.72267 0.74844
 O864 O 0.04648 0.72418 0.78679
 O865 O 0.02629 0.69556 0.74740
 O866 O 0.02344 0.70214 0.78616
 O867 O 0.05470 0.74845 0.72369
 O868 O 0.04781 0.78709 0.72685
 O869 O 0.00218 0.72415 0.69514
 O870 O -0.03614 0.72759 0.70152
 O871 O -0.00158 0.80599 0.77839
 O872 O 0.03559 0.79814 0.77616
 O873 O -0.02765 0.75163 0.80594
 O874 O -0.02408 0.71403 0.79745
 O875 O -0.05575 0.77788 0.75180
 O876 O -0.04776 0.77631 0.71469
 Zr877 Zr -0.02531 0.77647 0.73914
 O878 O -0.00674 0.75822 0.71879
 Zr879 Zr -0.02605 0.73888 0.77543
 O880 O -0.00773 0.71880 0.75652
 Zr881 Zr 0.01125 0.77555 0.77643
 O882 O 0.03140 0.75706 0.75783
 Zr883 Zr -0.01224 0.72620 0.72471
 O884 O -0.03273 0.74446 0.74346
 Zr885 Zr 0.02510 0.76280 0.72595
 O886 O 0.00660 0.78318 0.74459
 Zr887 Zr 0.02420 0.72509 0.76212
 O888 O 0.00583 0.74355 0.78282
 O889 O -0.02043 0.77065 0.77082
 O890 O 0.01957 0.73088 0.73033
 C891 C -0.01634 0.81502 0.76800
 C892 C -0.06480 0.76718 0.76629
 C893 C -0.01705 0.76617 0.81511
 C894 C 0.01646 0.68745 0.73176
 C895 C 0.01761 0.73418 0.68700
 C896 C 0.06290 0.73284 0.73342
 H897 H -0.00986 0.76202 0.70408
 H898 H 0.04614 0.76018 0.76147
 H899 H -0.02944 0.77952 0.77984
 H900 H -0.01135 0.70396 0.75930
 H901 H -0.04786 0.70848 0.73227
 H902 H -0.04629 0.70447 0.76734
 H903 H 0.05712 0.78449 0.73900
 H904 H 0.03468 0.80544 0.76247
 H905 H -0.03332 0.73974 0.69226
 H906 H -0.05482 0.76247 0.71526
 H907 H 0.05586 0.73646 0.78519
 H908 H 0.03426 0.76013 0.80590
 H909 H -0.01016 0.80641 0.71656
 H910 H 0.01352 0.78597 0.69443
 H911 H -0.01097 0.71615 0.80553
 H912 H 0.01138 0.69273 0.78342
 O913 O 0.05546 0.02713 0.00168
 O914 O 0.04791 0.02500 -0.03520
 O915 O 0.00090 0.05586 0.02705
 O916 O -0.03385 0.04994 0.02692
 O917 O 0.02722 0.00154 0.05616
 O918 O 0.02513 -0.03539 0.04885
 O919 O -0.05473 -0.00248 -0.02732
 O920 O -0.04934 0.03416 -0.02349
 O921 O -0.00185 -0.02789 -0.05422
 O922 O 0.03622 -0.02571 -0.04709
 O923 O -0.02717 -0.05509 -0.00112
 O924 O -0.02552 -0.04763 0.03688
 O925 O -0.05474 -0.02757 -0.00186
 O926 O -0.04740 -0.02445 0.03705
 O927 O -0.00191 -0.05518 -0.02637
 O928 O 0.03678 -0.04742 -0.02383
 O929 O -0.02731 -0.00280 -0.05440
 O930 O -0.02424 0.03581 -0.04759
 O931 O 0.05582 0.00172 0.02690
 O932 O 0.04816 -0.03573 0.02481
 O933 O 0.00184 0.02676 0.05626
 O934 O -0.03605 0.02265 0.04836
 O935 O 0.02625 0.05587 0.00180
 O936 O 0.02392 0.04802 -0.03546
 Zr937 Zr 0.02509 0.02544 -0.01114
 O938 O 0.00686 0.00658 -0.03127
 Zr939 Zr -0.01161 0.02528 0.02600
 O940 O -0.03178 0.00684 0.00721
 Zr941 Zr 0.02553 -0.01148 0.02583
 O942 O 0.00689 -0.03181 0.00756
 Zr943 Zr -0.02504 0.01158 -0.02473
 O944 O -0.00686 0.03229 -0.00606
 Zr945 Zr 0.01199 -0.02528 -0.02437
 O946 O 0.03241 -0.00646 -0.00611
 Zr947 Zr -0.02504 -0.02506 0.01248
 O948 O -0.00636 -0.00662 0.03297
 O949 O 0.02006 0.02022 0.02061
 O950 O -0.01987 -0.02025 -0.01939
 C951 C 0.06436 0.01676 0.01651
 C952 C 0.01580 0.06463 0.01666
 C953 C 0.01688 0.01646 0.06494
 C954 C -0.06322 -0.01775 -0.01730
 C955 C -0.01718 -0.01808 -0.06281
 C956 C -0.01711 -0.06370 -0.01629
 H957 H 0.01034 0.00982 -0.04603
 H958 H 0.01028 -0.04654 0.01106
 H959 H 0.02902 0.02932 0.02948
 H960 H -0.04659 0.01026 0.01027
 H961 H -0.04340 0.04675 -0.01650
 H962 H -0.04616 0.04535 0.01863
 H963 H 0.03423 -0.05721 -0.01204
 H964 H 0.05544 -0.03442 0.01114
 H965 H -0.01254 0.03296 -0.05737
 H966 H 0.01013 0.05508 -0.03429
 H967 H -0.01266 -0.05623 0.03562
 H968 H 0.01115 -0.03476 0.05559
 H969 H 0.05463 0.01099 -0.03462
 H970 H 0.03460 -0.01310 -0.05602
 H971 H -0.03336 0.00970 0.05654
 H972 H -0.05737 -0.01289 0.03417
 O973 O -0.00267 0.47302 0.44383
 O974 O 0.03446 0.47475 0.45155
 O975 O -0.02796 0.44389 0.49829
 O976 O -0.02734 0.44967 0.53330
 O977 O -0.05680 0.49877 0.47279
 O978 O -0.04879 0.53586 0.47501
 O979 O 0.02634 0.50164 0.55453
 O980 O 0.02192 0.46472 0.54876
 O981 O 0.05398 0.52651 0.50191
 O982 O 0.04653 0.52418 0.46317
 O983 O 0.00151 0.55452 0.52697
 O984 O -0.03720 0.54730 0.52453
 O985 O 0.00123 0.52707 0.55446
 O986 O -0.03706 0.52501 0.54732
 O987 O 0.02680 0.55433 0.50175
 O988 O 0.02452 0.54717 0.46342
 O989 O 0.05368 0.50141 0.52737
 O990 O 0.04675 0.46335 0.52430
 O991 O -0.02788 0.49844 0.44385
 O992 O -0.02528 0.53555 0.45138
 O993 O -0.05689 0.47318 0.49782
 O994 O -0.04923 0.47689 0.53540
 O995 O -0.00290 0.44391 0.47274
 O996 O 0.03417 0.45118 0.47499
 Zr997 Zr 0.01029 0.47419 0.47426
 O998 O 0.03059 0.49257 0.49281
 Zr999 Zr -0.02667 0.47440 0.51111
 O1000 O -0.00794 0.49275 0.53139
 Zr1001 Zr -0.02631 0.51145 0.47419
 O1002 O -0.00765 0.53151 0.49276
 Zr1003 Zr 0.02389 0.48757 0.52474
 O1004 O 0.00524 0.46715 0.50623
 Zr1005 Zr 0.02418 0.52453 0.48776
 O1006 O 0.00555 0.50618 0.46721
 Zr1007 Zr -0.01277 0.52477 0.52466
 O1008 O -0.03340 0.50642 0.50607
 O1009 O -0.02136 0.47966 0.47942
 O1010 O 0.01901 0.51948 0.51961
 C1011 C -0.01759 0.48345 0.43511
 C1012 C -0.01773 0.43516 0.48323
 C1013 C -0.06558 0.48376 0.48302
 C1014 C 0.01646 0.51705 0.56299
 C1015 C 0.06233 0.51658 0.51733
 C1016 C 0.01689 0.56292 0.51704
 H1017 H 0.04530 0.48913 0.48936
 H1018 H -0.01091 0.54631 0.48941
 H1019 H -0.03034 0.47071 0.47043
 H1020 H -0.01111 0.48937 0.54620
 H1021 H 0.01531 0.45212 0.54244
 H1022 H -0.01976 0.45454 0.54597
 H1023 H 0.01217 0.55639 0.46531
 H1024 H -0.01139 0.53453 0.44452
 H1025 H 0.05590 0.46547 0.51195
 H1026 H 0.03332 0.44438 0.48895
 H1027 H -0.03474 0.55696 0.51262
 H1028 H -0.05575 0.53497 0.48888
 H1029 H 0.03371 0.48866 0.44465
 H1030 H 0.05612 0.51221 0.46559
 H1031 H -0.05681 0.49028 0.53319
 H1032 H -0.03521 0.51256 0.55642
 O1033 O 0.55516 0.02775 0.50170
 O1034 O 0.54718 0.02586 0.46486
 O1035 O 0.50051 0.05547 0.52801
 O1036 O 0.46583 0.04903 0.52822
 O1037 O 0.52788 0.00112 0.55625
 O1038 O 0.52616 -0.03578 0.54844
 O1039 O 0.44497 -0.00294 0.47386
 O1040 O 0.45001 0.03379 0.47808
 O1041 O 0.49786 -0.02709 0.44575
 O1042 O 0.53620 -0.02450 0.45270
 O1043 O 0.47356 -0.05550 0.49866
 O1044 O 0.47583 -0.04852 0.53697
 O1045 O 0.44561 -0.02844 0.49891
 O1046 O 0.45340 -0.02588 0.53761
 O1047 O 0.49835 -0.05487 0.47297
 O1048 O 0.53686 -0.04698 0.47524
 O1049 O 0.47198 -0.00245 0.44626
 O1050 O 0.47455 0.03593 0.45348
 O1051 O 0.55616 0.00201 0.52658
 O1052 O 0.54899 -0.03545 0.52420
 O1053 O 0.50218 0.02601 0.55688
 O1054 O 0.46435 0.02152 0.54948
 O1055 O 0.52551 0.05607 0.50243
 O1056 O 0.52299 0.04863 0.46519
 Zr1057 Zr 0.52466 0.02577 0.48921
 O1058 O 0.50638 0.00698 0.46908
 Zr1059 Zr 0.48841 0.02472 0.52678
 O1060 O 0.46825 0.00620 0.50806
 Zr1061 Zr 0.52602 -0.01155 0.52575
 O1062 O 0.50745 -0.03191 0.50739
 Zr1063 Zr 0.47450 0.01148 0.47612
 O1064 O 0.49269 0.03217 0.49477
 Zr1065 Zr 0.51202 -0.02490 0.47549
 O1066 O 0.53243 -0.00608 0.49378
 Zr1067 Zr 0.47550 -0.02569 0.51280
 O1068 O 0.49415 -0.00721 0.53329
 O1069 O 0.52009 0.02013 0.52097
 O1070 O 0.48017 -0.02035 0.48094
 C1071 C 0.56439 0.01729 0.51627
 C1072 C 0.51511 0.06455 0.51748
 C1073 C 0.51741 0.01581 0.56530
 C1074 C 0.43680 -0.01846 0.48376
 C1075 C 0.48228 -0.01738 0.43748
 C1076 C 0.48338 -0.06371 0.48310
 H1077 H 0.50963 0.01048 0.45433
 H1078 H 0.51107 -0.04665 0.51063
 H1079 H 0.52903 0.02925 0.52984
 H1080 H 0.45344 0.00937 0.51137
 H1081 H 0.45596 0.04639 0.48504
 H1082 H 0.45341 0.04429 0.52018
 H1083 H 0.53472 -0.05676 0.48711
 H1084 H 0.55587 -0.03407 0.51033
 H1085 H 0.48640 0.03359 0.44374
 H1086 H 0.50908 0.05542 0.46650
 H1087 H 0.48852 -0.05726 0.53508
 H1088 H 0.51224 -0.03545 0.55530
 H1089 H 0.55417 0.01197 0.46529
 H1090 H 0.53402 -0.01207 0.44364
 H1091 H 0.46722 0.00842 0.55734
 H1092 H 0.44347 -0.01417 0.53525
 O1093 O 0.44371 0.49841 -0.02755
 O1094 O 0.45147 0.53552 -0.02567
 O1095 O 0.49825 0.47322 -0.05687
 O1096 O 0.53314 0.47365 -0.05110
 O1097 O 0.47271 0.44394 -0.00226
 O1098 O 0.47492 0.45173 0.03485
 O1099 O 0.55436 0.52717 0.00097
 O1100 O 0.54849 0.52303 -0.03590
 O1101 O 0.50186 0.55479 0.02618
 O1102 O 0.46316 0.54736 0.02387
 O1103 O 0.52682 0.50193 0.05384
 O1104 O 0.52454 0.46337 0.04641
 O1105 O 0.55431 0.50191 0.02627
 O1106 O 0.54710 0.46349 0.02396
 O1107 O 0.50165 0.52728 0.05384
 O1108 O 0.46340 0.52519 0.04667
 O1109 O 0.52725 0.55461 0.00106
 O1110 O 0.52409 0.54790 -0.03702
 O1111 O 0.44374 0.47305 -0.00227
 O1112 O 0.45138 0.47526 0.03478
 O1113 O 0.49768 0.44402 -0.02787
 O1114 O 0.53524 0.45167 -0.02401
 O1115 O 0.47269 0.49828 -0.05671
 O1116 O 0.47488 0.53538 -0.04920
 Zr1117 Zr 0.47415 0.51131 -0.02636
 O1118 O 0.49269 0.53154 -0.00788
 Zr1119 Zr 0.51097 0.47426 -0.02638
 O1120 O 0.53123 0.49294 -0.00799
 Zr1121 Zr 0.47410 0.47442 0.01063
 O1122 O 0.49268 0.49300 0.03077
 Zr1123 Zr 0.52457 0.52485 -0.01296
 O1124 O 0.50608 0.50627 -0.03344
 Zr1125 Zr 0.48771 0.52495 0.02402
 O1126 O 0.46716 0.50638 0.00559
 Zr1127 Zr 0.52454 0.48790 0.02398
 O1128 O 0.50594 0.46734 0.00557
 O1129 O 0.47930 0.47955 -0.02111
 O1130 O 0.51952 0.51979 0.01892
 C1131 C 0.43496 0.48351 -0.01712
 C1132 C 0.48323 0.48350 -0.06554
 C1133 C 0.48293 0.43522 -0.01733
 C1134 C 0.56285 0.51717 0.01627
 C1135 C 0.51724 0.56322 0.01626
 C1136 C 0.51687 0.51724 0.06238
 H1137 H 0.48924 0.54630 -0.01122
 H1138 H 0.48933 0.48963 0.04554
 H1139 H 0.47029 0.47063 -0.03010
 H1140 H 0.54601 0.48977 -0.01142
 H1141 H 0.54215 0.51644 -0.04850
 H1142 H 0.54575 0.48131 -0.04625
 H1143 H 0.46522 0.51272 0.05575
 H1144 H 0.44456 0.48921 0.03393
 H1145 H 0.51179 0.55709 -0.03479
 H1146 H 0.48883 0.53457 -0.05600
 H1147 H 0.51242 0.46554 0.05586
 H1148 H 0.48877 0.44476 0.03391
 H1149 H 0.44468 0.53480 -0.01171
 H1150 H 0.46557 0.55705 0.01197
 H1151 H 0.53295 0.44390 -0.01074
 H1152 H 0.55628 0.46552 0.01161
 O1153 O 0.77694 0.30548 0.49792
 O1154 O 0.77475 0.29816 0.53504
 O1155 O 0.80596 0.25048 0.47337
 O1156 O 0.80002 0.21556 0.47402
 O1157 O 0.75176 0.27620 0.44362
 O1158 O 0.71468 0.27416 0.45102
 O1159 O 0.74763 0.19512 0.52751
 O1160 O 0.78442 0.20070 0.52359
 O1161 O 0.72260 0.24836 0.55438
 O1162 O 0.72492 0.28680 0.54661
 O1163 O 0.69509 0.22272 0.50147
 O1164 O 0.70273 0.22438 0.46309
 O1165 O 0.72250 0.19499 0.50208
 O1166 O 0.72519 0.20184 0.46352
 O1167 O 0.69511 0.24815 0.52664
 O1168 O 0.70250 0.28654 0.52407
 O1169 O 0.74759 0.22281 0.55465
 O1170 O 0.78569 0.22551 0.54806
 O1171 O 0.75178 0.30538 0.47244
 O1172 O 0.71460 0.29788 0.47450
 O1173 O 0.77718 0.25101 0.44402
 O1174 O 0.77299 0.21338 0.45193
 O1175 O 0.80581 0.27628 0.49826
 O1176 O 0.79807 0.27449 0.53534
 Zr1177 Zr 0.77543 0.27515 0.51107
 O1178 O 0.75674 0.25692 0.53129
 Zr1179 Zr 0.77544 0.23790 0.47433
 O1180 O 0.75690 0.21789 0.49307
 Zr1181 Zr 0.73867 0.27504 0.47395
 O1182 O 0.71837 0.25668 0.49247
 Zr1183 Zr 0.76170 0.22488 0.52494
 O1184 O 0.78235 0.24308 0.50634
 Zr1185 Zr 0.72494 0.26201 0.52439
 O1186 O 0.74359 0.28231 0.50586
 Zr1187 Zr 0.72503 0.22466 0.48775
 O1188 O 0.74359 0.24304 0.46716
 O1189 O 0.77031 0.26970 0.47936
 O1190 O 0.72991 0.23004 0.51961
 C1191 C 0.76667 0.31416 0.48287
 C1192 C 0.81464 0.26559 0.48361
 C1193 C 0.76684 0.26586 0.43510
 C1194 C 0.73237 0.18656 0.51749
 C1195 C 0.73246 0.23308 0.56307
 C1196 C 0.68654 0.23288 0.51663
 H1197 H 0.76002 0.26053 0.54602
 H1198 H 0.70366 0.26007 0.48895
 H1199 H 0.77939 0.27859 0.47045
 H1200 H 0.76027 0.20302 0.49008
 H1201 H 0.79703 0.20682 0.51688
 H1202 H 0.79508 0.20304 0.48178
 H1203 H 0.69329 0.28439 0.51175
 H1204 H 0.71555 0.30497 0.48832
 H1205 H 0.78349 0.23795 0.55712
 H1206 H 0.80490 0.26054 0.53459
 H1207 H 0.69355 0.23678 0.46486
 H1208 H 0.71555 0.26019 0.44422
 H1209 H 0.76087 0.30507 0.53411
 H1210 H 0.73703 0.28474 0.55611
 H1211 H 0.75984 0.21576 0.44399
 H1212 H 0.73734 0.19247 0.46587
 O1213 O 0.77706 0.80650 -0.00202
 O1214 O 0.77527 0.79894 0.03479
 O1215 O 0.80560 0.75191 -0.02780
 O1216 O 0.79974 0.71721 -0.02807
 O1217 O 0.75097 0.77840 -0.05639
 O1218 O 0.71421 0.77616 -0.04880
 O1219 O 0.74824 0.69595 0.02662
 O1220 O 0.78468 0.70158 0.02267
 O1221 O 0.72285 0.74879 0.05408
 O1222 O 0.72444 0.78678 0.04714
 O1223 O 0.69530 0.72319 0.00102
 O1224 O 0.70216 0.72510 -0.03689
 O1225 O 0.72298 0.69590 0.00131
 O1226 O 0.72573 0.70360 -0.03770
 O1227 O 0.69527 0.74834 0.02646
 O1228 O 0.70277 0.78739 0.02382
 O1229 O 0.74794 0.72334 0.05393
 O1230 O 0.78639 0.72668 0.04685
 O1231 O 0.75142 0.80690 -0.02701
 O1232 O 0.71402 0.79911 -0.02453
 O1233 O 0.77620 0.75304 -0.05679
 O1234 O 0.77226 0.71494 -0.04903
 O1235 O 0.80580 0.77725 -0.00244
 O1236 O 0.79818 0.77486 0.03493
 Zr1237 Zr 0.77551 0.77605 0.01071
 O1238 O 0.75689 0.75769 0.03086
 Zr1239 Zr 0.77509 0.73942 -0.02662
 O1240 O 0.75700 0.71908 -0.00778
 Zr1241 Zr 0.73829 0.77652 -0.02596
 O1242 O 0.71823 0.75765 -0.00768
 Zr1243 Zr 0.76200 0.72578 0.02415
 O1244 O 0.78241 0.74410 0.00540
 Zr1245 Zr 0.72498 0.76265 0.02422
 O1246 O 0.74358 0.78327 0.00598
 Zr1247 Zr 0.72509 0.72572 -0.01283
 O1248 O 0.74318 0.74462 -0.03335
 O1249 O 0.77001 0.77111 -0.02103
 O1250 O 0.73015 0.73079 0.01905
 C1251 C 0.76656 0.81543 -0.01674
 C1252 C 0.81445 0.76677 -0.01738
 C1253 C 0.76581 0.76810 -0.06532
 C1254 C 0.73298 0.68740 0.01661
 C1255 C 0.73280 0.73345 0.06254
 C1256 C 0.68680 0.73305 0.01638
 H1257 H 0.76024 0.76116 0.04561
 H1258 H 0.70346 0.76097 -0.01105
 H1259 H 0.77901 0.78011 -0.02991
 H1260 H 0.76047 0.70428 -0.01096
 H1261 H 0.79714 0.70761 0.01560
 H1262 H 0.79546 0.70497 -0.01953
 H1263 H 0.69265 0.78454 0.01238
 H1264 H 0.71549 0.80636 -0.01084
 H1265 H 0.78355 0.73834 0.05672
 H1266 H 0.80537 0.76114 0.03357
 H1267 H 0.69371 0.73807 -0.03567
 H1268 H 0.71475 0.76216 -0.05557
 H1269 H 0.76123 0.80559 0.03439
 H1270 H 0.73740 0.78558 0.05560
 H1271 H 0.75942 0.71779 -0.05731
 H1272 H 0.73712 0.69346 -0.03479
 O1273 O 1.05631 0.22271 0.24866
 O1274 O 1.04893 0.22497 0.28556
 O1275 O 1.00180 0.19369 0.22348
 O1276 O 0.96707 0.19939 0.22358
 O1277 O 1.02779 0.24814 0.19420
 O1278 O 1.02565 0.28506 0.20149
 O1279 O 0.94604 0.25172 0.27766
 O1280 O 0.95170 0.21512 0.27405
 O1281 O 0.99893 0.27757 0.30459
 O1282 O 1.03685 0.27585 0.29744
 O1283 O 0.97312 0.30444 0.25141
 O1284 O 0.97491 0.29703 0.21345
 O1285 O 0.94587 0.27673 0.25211
 O1286 O 0.95325 0.27357 0.21319
 O1287 O 0.99839 0.30481 0.27669
 O1288 O 1.03731 0.29733 0.27394
 O1289 O 0.97356 0.25237 0.30483
 O1290 O 0.97680 0.21380 0.29815
 O1291 O 1.05650 0.24808 0.22339
 O1292 O 1.04874 0.28552 0.22554
 O1293 O 1.00253 0.22277 0.19421
 O1294 O 0.96463 0.22663 0.20218
 O1295 O 1.02722 0.19385 0.24871
 O1296 O 1.02497 0.20186 0.28599
 Zr1297 Zr 1.02599 0.22433 0.26157
 O1298 O 1.00772 0.24316 0.28166
 Zr1299 Zr 0.98918 0.22419 0.22448
 O1300 O 0.96898 0.24253 0.24324
 Zr1301 Zr 1.02617 0.26117 0.22453
 O1302 O 1.00745 0.28144 0.24274
 Zr1303 Zr 0.97582 0.23792 0.27518
 O1304 O 0.99406 0.21728 0.25655
 Zr1305 Zr 1.01263 0.27505 0.27468
 O1306 O 1.03313 0.25627 0.25648
 Zr1307 Zr 0.97556 0.27445 0.23784
 O1308 O 0.99430 0.25609 0.21740
 O1309 O 1.02085 0.22945 0.22981
 O1310 O 0.98080 0.26977 0.26974
 C1311 C 1.06511 0.23307 0.23376
 C1312 C 1.01674 0.18501 0.23387
 C1313 C 1.01746 0.23315 0.18548
 C1314 C 0.93746 0.26688 0.26755
 C1315 C 0.98367 0.26768 0.31323
 C1316 C 0.98307 0.31315 0.26663
 H1317 H 1.01126 0.23998 0.29642
 H1318 H 1.01074 0.29620 0.23921
 H1319 H 1.02979 0.22038 0.22094
 H1320 H 0.95418 0.23900 0.24018
 H1321 H 0.95770 0.20256 0.26710
 H1322 H 0.95481 0.20386 0.23197
 H1323 H 1.03446 0.30728 0.26236
 H1324 H 1.05603 0.28426 0.23921
 H1325 H 0.98857 0.21672 0.30786
 H1326 H 1.01124 0.19467 0.28483
 H1327 H 0.98769 0.30575 0.21473
 H1328 H 1.01164 0.28441 0.19481
 H1329 H 1.05560 0.23901 0.28490
 H1330 H 1.03562 0.26302 0.30612
 H1331 H 0.96729 0.23950 0.19388
 H1332 H 0.94328 0.26204 0.21615
 O1333 O 0.69473 1.02730 0.74847
 O1334 O 0.70244 1.02555 0.78561
 O1335 O 0.74938 1.05612 0.72312
 O1336 O 0.78424 1.05023 0.72367
 O1337 O 0.72350 1.00135 0.69425
 O1338 O 0.72553 0.96425 0.70227
 O1339 O 0.80524 0.99845 0.77739
 O1340 O 0.79956 1.03535 0.77298
 O1341 O 0.75267 0.97369 0.80517
 O1342 O 0.71394 0.97608 0.79776
 O1343 O 0.77741 0.94547 0.75250
 O1344 O 0.77510 0.95258 0.71391
 O1345 O 0.80503 0.97293 0.75228
 O1346 O 0.79777 0.97498 0.71387
 O1347 O 0.75229 0.94576 0.77788
 O1348 O 0.71407 0.95304 0.77577
 O1349 O 0.77820 0.99873 0.80481
 O1350 O 0.77521 1.03676 0.79791
 O1351 O 0.69459 1.00178 0.72330
 O1352 O 0.70198 0.96466 0.72583
 O1353 O 0.74865 1.02684 0.69418
 O1354 O 0.78618 1.02293 0.70181
 O1355 O 0.72392 1.05629 0.74827
 O1356 O 0.72599 1.04900 0.78540
 Zr1357 Zr 0.72515 1.02599 0.76143
 O1358 O 0.74362 1.00760 0.78175
 Zr1359 Zr 0.76195 1.02558 0.72440
 O1360 O 0.78213 1.00723 0.74314
 Zr1361 Zr 0.72487 0.98869 0.72479
 O1362 O 0.74336 0.96861 0.74345
 Zr1363 Zr 0.77553 1.01251 0.77500
 O1364 O 0.75711 1.03292 0.75634
 Zr1365 Zr 0.73847 0.97563 0.77535
 O1366 O 0.71798 0.99401 0.75671
 Zr1367 Zr 0.77525 0.97524 0.73830
 O1368 O 0.75673 0.99358 0.71766
 O1369 O 0.73026 1.02046 0.72974
 O1370 O 0.77029 0.98059 0.77013
 C1371 C 0.68592 1.01682 0.73361
 C1372 C 0.73445 1.06496 0.73341
 C1373 C 0.73381 1.01632 0.68547
 C1374 C 0.81363 0.98302 0.76748
 C1375 C 0.76813 0.98362 0.81351
 C1376 C 0.76746 0.93708 0.76788
 H1377 H 0.74021 1.01107 0.79648
 H1378 H 0.73993 0.95382 0.74018
 H1379 H 0.72131 1.02944 0.72077
 H1380 H 0.79693 1.01058 0.73994
 H1381 H 0.79326 1.04795 0.76639
 H1382 H 0.79686 1.04536 0.73128
 H1383 H 0.71580 0.94389 0.76332
 H1384 H 0.69517 0.96569 0.73976
 H1385 H 0.76290 1.03465 0.80711
 H1386 H 0.73997 1.05574 0.78457
 H1387 H 0.76295 0.94319 0.71617
 H1388 H 0.73938 0.96508 0.69529
 H1389 H 0.69556 1.01162 0.78491
 H1390 H 0.71643 0.98806 0.80737
 H1391 H 0.78383 1.00959 0.69414
 H1392 H 0.80705 0.98729 0.71584
 O1393 O 0.69409 0.52623 0.24750
 O1394 O 0.70126 0.52395 0.28453
 O1395 O 0.74870 0.55632 0.22347
 O1396 O 0.78355 0.55088 0.22401
 O1397 O 0.72371 0.50191 0.19308
 O1398 O 0.72622 0.46483 0.20004
 O1399 O 0.80440 0.49822 0.27759
 O1400 O 0.79846 0.53492 0.27405
 O1401 O 0.75146 0.47192 0.30362
 O1402 O 0.71334 0.47360 0.29578
 O1403 O 0.77798 0.44553 0.25064
 O1404 O 0.77642 0.45331 0.21249
 O1405 O 0.80505 0.47342 0.25179
 O1406 O 0.79822 0.47661 0.21298
 O1407 O 0.75240 0.44484 0.27555
 O1408 O 0.71371 0.45180 0.27256
 O1409 O 0.77658 0.49737 0.30439
 O1410 O 0.77327 0.53579 0.29806
 O1411 O 0.69456 0.50125 0.22180
 O1412 O 0.70265 0.46402 0.22356
 O1413 O 0.74854 0.52770 0.19380
 O1414 O 0.78629 0.52395 0.20202
 O1415 O 0.72282 0.55562 0.24817
 O1416 O 0.72472 0.54749 0.28527
 Zr1417 Zr 0.72434 0.52507 0.26074
 O1418 O 0.74262 0.50635 0.28088
 Zr1419 Zr 0.76160 0.52592 0.22418
 O1420 O 0.78176 0.50754 0.24294
 Zr1421 Zr 0.72502 0.48856 0.22327
 O1422 O 0.74362 0.46832 0.24163
 Zr1423 Zr 0.77455 0.51189 0.27483
 O1424 O 0.75626 0.53249 0.25624
 Zr1425 Zr 0.73803 0.47448 0.27357
 O1426 O 0.71759 0.49312 0.25518
 Zr1427 Zr 0.77550 0.47559 0.23720
 O1428 O 0.75692 0.49402 0.21669
 O1429 O 0.72992 0.52029 0.22900
 O1430 O 0.76987 0.48004 0.26907
 C1431 C 0.68559 0.51594 0.23235
 C1432 C 0.73347 0.56473 0.23367
 C1433 C 0.73386 0.51721 0.18473
 C1434 C 0.81321 0.48319 0.26744
 C1435 C 0.76652 0.48193 0.31253
 C1436 C 0.76790 0.43667 0.26565
 H1437 H 0.73889 0.50941 0.29562
 H1438 H 0.74049 0.45356 0.23793
 H1439 H 0.72095 0.52934 0.22014
 H1440 H 0.79656 0.51120 0.24011
 H1441 H 0.79234 0.54750 0.26726
 H1442 H 0.79592 0.54625 0.23216
 H1443 H 0.71646 0.44230 0.26057
 H1444 H 0.69538 0.46486 0.23727
 H1445 H 0.76115 0.53298 0.30734
 H1446 H 0.73849 0.55465 0.28452
 H1447 H 0.76394 0.44418 0.21383
 H1448 H 0.74025 0.46584 0.19346
 H1449 H 0.69466 0.50989 0.28359
 H1450 H 0.71485 0.48596 0.30509
 H1451 H 0.78395 0.51098 0.19373
 H1452 H 0.80775 0.48854 0.21588
 O1453 O 0.50200 0.19336 0.72375
 O1454 O 0.46506 0.20046 0.72566
 O1455 O 0.52644 0.24812 0.69411
 O1456 O 0.52595 0.28294 0.69958
 O1457 O 0.55614 0.22310 0.74890
 O1458 O 0.54866 0.22541 0.78580
 O1459 O 0.47186 0.30391 0.75145
 O1460 O 0.47565 0.29780 0.71489
 O1461 O 0.44545 0.25099 0.77766
 O1462 O 0.45309 0.21283 0.77610
 O1463 O 0.49820 0.27749 0.80456
 O1464 O 0.53619 0.27603 0.79724
 O1465 O 0.49735 0.30458 0.77653
 O1466 O 0.53620 0.29757 0.77378
 O1467 O 0.47328 0.25187 0.80505
 O1468 O 0.47620 0.21304 0.79795
 O1469 O 0.44500 0.27613 0.75224
 O1470 O 0.45165 0.27254 0.71387
 O1471 O 0.52743 0.19381 0.74896
 O1472 O 0.52507 0.20185 0.78621
 O1473 O 0.55572 0.24797 0.72317
 O1474 O 0.54742 0.28579 0.72676
 O1475 O 0.50168 0.22224 0.69445
 O1476 O 0.46448 0.22405 0.70229
 Zr1477 Zr 0.48880 0.22365 0.72488
 O1478 O 0.46850 0.24196 0.74344
 Zr1479 Zr 0.52536 0.26098 0.72451
 O1480 O 0.50644 0.28118 0.74265
 Zr1481 Zr 0.52578 0.22431 0.76178
 O1482 O 0.50729 0.24301 0.78183
 Zr1483 Zr 0.47463 0.27394 0.73797
 O1484 O 0.49342 0.25563 0.71756
 Zr1485 Zr 0.47545 0.23745 0.77538
 O1486 O 0.49394 0.21693 0.75688
 Zr1487 Zr 0.51184 0.27494 0.77463
 O1488 O 0.53249 0.25627 0.75645
 O1489 O 0.52046 0.22923 0.73001
 O1490 O 0.48005 0.26934 0.76987
 C1491 C 0.51703 0.18484 0.73415
 C1492 C 0.51628 0.23293 0.68552
 C1493 C 0.56468 0.23335 0.73379
 C1494 C 0.48190 0.31278 0.76653
 C1495 C 0.43669 0.26610 0.76761
 C1496 C 0.48316 0.26738 0.81333
 H1497 H 0.45380 0.23823 0.74024
 H1498 H 0.51084 0.23989 0.79661
 H1499 H 0.52943 0.22028 0.72103
 H1500 H 0.50935 0.29600 0.73902
 H1501 H 0.48253 0.29162 0.70239
 H1502 H 0.51756 0.29523 0.70400
 H1503 H 0.48807 0.21581 0.80759
 H1504 H 0.51142 0.19451 0.78509
 H1505 H 0.44222 0.26053 0.71672
 H1506 H 0.46535 0.23782 0.69512
 H1507 H 0.53494 0.26337 0.80616
 H1508 H 0.55522 0.23949 0.78501
 H1509 H 0.46571 0.19399 0.73979
 H1510 H 0.44407 0.21421 0.76354
 H1511 H 0.55565 0.28342 0.73973
 H1512 H 0.53333 0.30726 0.76198
 O1513 O 0.30557 0.75147 0.47257
 O1514 O 0.29812 0.71453 0.47463
 O1515 O 0.25103 0.77677 0.44379
 O1516 O 0.21629 0.77666 0.44958
 O1517 O 0.27719 0.80584 0.49833
 O1518 O 0.27505 0.79841 0.53522
 O1519 O 0.19530 0.72230 0.50155
 O1520 O 0.20087 0.72622 0.46496
 O1521 O 0.24809 0.69531 0.52708
 O1522 O 0.28615 0.70247 0.52525
 O1523 O 0.22251 0.74831 0.55437
 O1524 O 0.22434 0.78637 0.54722
 O1525 O 0.19520 0.74774 0.52673
 O1526 O 0.20262 0.78674 0.52382
 O1527 O 0.24772 0.72299 0.55449
 O1528 O 0.28657 0.72576 0.54705
 O1529 O 0.22267 0.69521 0.50194
 O1530 O 0.22595 0.70204 0.46341
 O1531 O 0.30583 0.77665 0.49809
 O1532 O 0.29812 0.77435 0.53550
 O1533 O 0.25192 0.80594 0.47298
 O1534 O 0.21401 0.79803 0.47694
 O1535 O 0.27640 0.75152 0.44377
 O1536 O 0.27416 0.71420 0.45154
 Zr1537 Zr 0.27522 0.73854 0.47415
 O1538 O 0.25692 0.71836 0.49284
 Zr1539 Zr 0.23847 0.77567 0.47430
 O1540 O 0.21825 0.75684 0.49255
 Zr1541 Zr 0.27552 0.77545 0.51120
 O1542 O 0.25680 0.75713 0.53137
 Zr1543 Zr 0.22504 0.72491 0.48769
 O1544 O 0.24329 0.74362 0.46717
 Zr1545 Zr 0.26191 0.72520 0.52475
 O1546 O 0.28241 0.74350 0.50610
 Zr1547 Zr 0.22490 0.76207 0.52448
 O1548 O 0.24364 0.78261 0.50623
 O1549 O 0.27013 0.77029 0.47948
 O1550 O 0.23009 0.73020 0.51954
 C1551 C 0.31441 0.76633 0.48300
 C1552 C 0.26593 0.76639 0.43504
 C1553 C 0.26691 0.81461 0.48337
 C1554 C 0.18677 0.73230 0.51682
 C1555 C 0.23274 0.68676 0.51720
 C1556 C 0.23242 0.73301 0.56293
 H1557 H 0.26042 0.70360 0.48955
 H1558 H 0.26012 0.76059 0.54614
 H1559 H 0.27909 0.77919 0.47045
 H1560 H 0.20345 0.75992 0.48907
 H1561 H 0.20689 0.73318 0.45243
 H1562 H 0.20398 0.76833 0.45406
 H1563 H 0.28383 0.73739 0.55700
 H1564 H 0.30535 0.76065 0.53417
 H1565 H 0.23764 0.69225 0.46630
 H1566 H 0.26040 0.71537 0.44440
 H1567 H 0.23714 0.78505 0.55590
 H1568 H 0.26105 0.80511 0.53461
 H1569 H 0.30480 0.71513 0.48866
 H1570 H 0.28469 0.69367 0.51252
 H1571 H 0.21672 0.80626 0.48988
 H1572 H 0.19262 0.78382 0.51229
 O1573 O 0.27812 0.30558 0.99950
 O1574 O 0.27652 0.29759 1.03640
 O1575 O 0.30577 0.25073 0.97311
 O1576 O 0.29943 0.21594 0.97318
 O1577 O 0.25137 0.27786 0.94508
 O1578 O 0.21448 0.27615 0.95314
 O1579 O 0.24794 0.19507 1.02739
 O1580 O 0.28465 0.20028 1.02297
 O1581 O 0.22392 0.24792 1.05574
 O1582 O 0.22659 0.28652 1.04881
 O1583 O 0.19521 0.22373 1.00295
 O1584 O 0.20199 0.22602 0.96456
 O1585 O 0.22231 0.19572 1.00246
 O1586 O 0.22441 0.20342 0.96389
 O1587 O 0.19595 0.24866 1.02860
 O1588 O 0.20383 0.28707 1.02660
 O1589 O 0.24852 0.22200 1.05503
 O1590 O 0.28670 0.22473 1.04781
 O1591 O 0.25232 0.30639 0.97468
 O1592 O 0.21507 0.29924 0.97719
 O1593 O 0.27628 0.25219 0.94444
 O1594 O 0.27190 0.21442 0.95180
 O1595 O 0.30652 0.27587 0.99866
 O1596 O 0.29937 0.27349 1.03591
 Zr1597 Zr 0.27636 0.27500 1.01203
 O1598 O 0.25778 0.25664 1.03225
 Zr1599 Zr 0.27513 0.23855 0.97453
 O1600 O 0.25675 0.21838 0.99326
 Zr1601 Zr 0.23888 0.27618 0.97565
 O1602 O 0.21870 0.25765 0.99416
 Zr1603 Zr 0.26225 0.22469 1.02517
 O1604 O 0.28276 0.24296 1.00649
 Zr1605 Zr 0.22591 0.26224 1.02605
 O1606 O 0.24451 0.28268 1.00760
 Zr1607 Zr 0.22488 0.22565 0.98867
 O1608 O 0.24323 0.24425 0.96811
 O1609 O 0.27054 0.27031 0.98030
 O1610 O 0.23043 0.23033 1.02052
 C1611 C 0.26757 0.31475 0.98496
 C1612 C 0.31489 0.26541 0.98356
 C1613 C 0.26601 0.26736 0.93602
 C1614 C 0.23239 0.18688 1.01751
 C1615 C 0.23363 0.23225 1.06389
 C1616 C 0.18705 0.23366 1.01848
 H1617 H 0.26137 0.25991 1.04699
 H1618 H 0.20396 0.26127 0.99099
 H1619 H 0.27956 0.27926 0.97139
 H1620 H 0.25989 0.20354 0.98991
 H1621 H 0.29721 0.20637 1.01613
 H1622 H 0.29462 0.20342 0.98100
 H1623 H 0.19425 0.28519 1.01452
 H1624 H 0.21640 0.30605 0.99111
 H1625 H 0.28448 0.23669 1.05748
 H1626 H 0.30603 0.25949 1.03470
 H1627 H 0.19315 0.23862 0.96662
 H1628 H 0.21492 0.26225 0.94616
 H1629 H 0.26263 0.30453 1.03605
 H1630 H 0.23884 0.28410 1.05804
 H1631 H 0.25870 0.21717 0.94408
 H1632 H 0.23630 0.19367 0.96600
 C1633 C 0.26339 0.40140 0.79214
 C1634 C 0.26399 0.38118 0.77849
 C1635 C 0.28645 0.37729 0.78612
 C1636 C 0.28599 0.39700 0.79995
 C1637 C 0.29567 0.38958 0.76760
 C1638 C 0.27303 0.39401 0.75981
 C1639 C 0.27248 0.41390 0.77355
 C1640 C 0.29499 0.40971 0.78128
 H1641 H 0.25005 0.40647 0.80213
 H1642 H 0.25149 0.36907 0.77750
 H1643 H 0.29147 0.39786 0.81648
 H1644 H 0.30901 0.38466 0.75754
 H1645 H 0.26757 0.39307 0.74327
 H1646 H 0.30761 0.42171 0.78237
 C1647 C 0.28203 -0.09055 0.29582
 C1648 C 0.26846 -0.11077 0.29622
 C1649 C 0.28716 -0.12287 0.28711
 C1650 C 0.30087 -0.10311 0.28696
 C1651 C 0.27980 -0.11892 0.26456
 C1652 C 0.26095 -0.10625 0.27347
 C1653 C 0.27455 -0.08627 0.27321
 C1654 C 0.29332 -0.09862 0.26425
 H1655 H 0.28288 -0.07861 0.30853
 H1656 H 0.25821 -0.11570 0.30940
 H1657 H 0.31731 -0.10217 0.29267
 H1658 H 0.27903 -0.13096 0.25195
 H1659 H 0.24451 -0.10724 0.26779
 H1660 H 0.30343 -0.09341 0.25106
 C1661 C 0.77518 0.89599 0.76148
 C1662 C 0.79781 0.89161 0.76935
 C1663 C 0.78849 0.87943 0.78792
 C1664 C 0.76606 0.88327 0.78018
 C1665 C 0.78800 0.89920 0.80166
 C1666 C 0.79706 0.91184 0.78294
 C1667 C 0.77458 0.91597 0.77509
 C1668 C 0.76541 0.90356 0.79372
 H1669 H 0.76979 0.89495 0.74493
 H1670 H 0.81117 0.88677 0.75930
 H1671 H 0.75355 0.87116 0.77920
 H1672 H 0.79343 0.90013 0.81821
 H1673 H 0.80963 0.92389 0.78399
 H1674 H 0.75205 0.90869 0.80365
 C1675 C 0.45377 0.83881 0.28254
 C1676 C 0.46254 0.85131 0.30153
 C1677 C 0.46221 0.87117 0.28798
 C1678 C 0.45317 0.85914 0.26915
 C1679 C 0.48475 0.86746 0.28057
 C1680 C 0.48525 0.84706 0.29391
 C1681 C 0.47637 0.83480 0.27501
 C1682 C 0.47592 0.85488 0.26159
 H1683 H 0.44121 0.82673 0.28328
 H1684 H 0.45687 0.85024 0.31797
 H1685 H 0.43994 0.86404 0.25894
 H1686 H 0.49723 0.87961 0.27992
 H1687 H 0.49848 0.84185 0.30399
 H1688 H 0.48155 0.85605 0.24514
 C1689 C -0.04596 0.83994 0.78287
 C1690 C -0.03723 0.85240 0.80189
 C1691 C -0.03785 0.87234 0.78846
 C1692 C -0.04682 0.86031 0.76959
 C1693 C -0.01530 0.86891 0.78093
 C1694 C -0.01452 0.84843 0.79415
 C1695 C -0.02334 0.83618 0.77521
 C1696 C -0.02407 0.85632 0.76190
 H1697 H -0.05842 0.82775 0.78360
 H1698 H -0.04281 0.85114 0.81835
 H1699 H -0.06015 0.86512 0.75946
 H1700 H -0.00294 0.88119 0.78029
 H1701 H -0.00118 0.84333 0.80413
 H1702 H -0.01852 0.85765 0.74543
 C1703 C -0.01007 -0.10468 -0.02379
 C1704 C -0.02856 -0.11764 -0.01459
 C1705 C -0.03622 -0.12177 -0.03702
 C1706 C -0.01789 -0.10933 -0.04640
 C1707 C -0.05023 -0.10222 -0.03661
 C1708 C -0.04238 -0.09759 -0.01403
 C1709 C -0.02398 -0.08495 -0.02328
 C1710 C -0.03175 -0.08934 -0.04576
 H1711 H 0.00647 -0.10539 -0.01839
 H1712 H -0.02740 -0.12966 -0.00203
 H1713 H -0.00786 -0.11424 -0.05978
 H1714 H -0.06677 -0.10163 -0.04205
 H1715 H -0.05237 -0.09253 -0.00067
 H1716 H -0.03299 -0.07739 -0.05840
 C1717 C -0.04710 0.40942 0.46874
 C1718 C -0.03807 0.39697 0.44987
 C1719 C -0.03823 0.37715 0.46349
 C1720 C -0.04751 0.38914 0.48222
 C1721 C -0.01578 0.38121 0.47106
 C1722 C -0.01547 0.40155 0.45763
 C1723 C -0.02459 0.41380 0.47641
 C1724 C -0.02486 0.39378 0.48993
 H1725 H -0.05984 0.42129 0.46786
 H1726 H -0.04364 0.39793 0.43337
 H1727 H -0.06074 0.38409 0.49235
 H1728 H -0.00313 0.36925 0.47184
 H1729 H -0.00224 0.40685 0.44761
 H1730 H -0.01931 0.39275 0.50643
 C1731 C 0.48499 -0.09689 0.45675
 C1732 C 0.48450 -0.11738 0.46995
 C1733 C 0.46193 -0.12103 0.46255
 C1734 C 0.46226 -0.10108 0.44913
 C1735 C 0.45297 -0.10911 0.48147
 C1736 C 0.47574 -0.10491 0.48903
 C1737 C 0.47619 -0.08475 0.47574
 C1738 C 0.45357 -0.08870 0.46822
 H1739 H 0.49821 -0.09164 0.44669
 H1740 H 0.49696 -0.12954 0.47051
 H1741 H 0.45654 -0.09990 0.43270
 H1742 H 0.43976 -0.11407 0.49167
 H1743 H 0.48142 -0.10619 0.50547
 H1744 H 0.44103 -0.07661 0.46757
 C1745 C 0.47610 0.39388 -0.01045
 C1746 C 0.45341 0.38910 -0.01795
 C1747 C 0.46261 0.37707 -0.03670
 C1748 C 0.48509 0.38127 -0.02933
 C1749 C 0.46255 0.39681 -0.05042
 C1750 C 0.45361 0.40931 -0.03154
 C1751 C 0.47615 0.41383 -0.02406
 C1752 C 0.48519 0.40154 -0.04286
 H1753 H 0.48178 0.39297 0.00601
 H1754 H 0.44030 0.38406 -0.00767
 H1755 H 0.49780 0.36937 -0.02859
 H1756 H 0.45685 0.39766 -0.06687
 H1757 H 0.44080 0.42111 -0.03236
 H1758 H 0.49831 0.40687 -0.05300
 C1759 C 0.76440 0.34780 0.45736
 C1760 C 0.76494 0.36810 0.47087
 C1761 C 0.78737 0.37207 0.46320
 C1762 C 0.78697 0.35225 0.44953
 C1763 C 0.79667 0.35996 0.48182
 C1764 C 0.77406 0.35546 0.48964
 C1765 C 0.77357 0.33547 0.47604
 C1766 C 0.79605 0.33972 0.46828
 H1767 H 0.75108 0.34260 0.44739
 H1768 H 0.75239 0.38015 0.47176
 H1769 H 0.79244 0.35130 0.43300
 H1770 H 0.81001 0.36504 0.49182
 H1771 H 0.76862 0.35649 0.50617
 H1772 H 0.80871 0.32777 0.46729
 C1773 C 0.76031 0.85685 -0.02404
 C1774 C 0.77933 0.86927 -0.01505
 C1775 C 0.78691 0.87296 -0.03756
 C1776 C 0.76805 0.86111 -0.04675
 C1777 C 0.80027 0.85298 -0.03719
 C1778 C 0.79249 0.84877 -0.01453
 C1779 C 0.77357 0.83667 -0.02357
 C1780 C 0.78127 0.84069 -0.04614
 H1781 H 0.74386 0.85813 -0.01850
 H1782 H 0.77871 0.88140 -0.00252
 H1783 H 0.75797 0.86613 -0.06005
 H1784 H 0.81673 0.85176 -0.04276
 H1785 H 0.80243 0.84348 -0.00122
 H1786 H 0.78199 0.82866 -0.05877
 C1787 C 0.79269 0.26371 0.40168
 C1788 C 0.77943 0.26449 0.38124
 C1789 C 0.78718 0.28699 0.37765
 C1790 C 0.80063 0.28636 0.39759
 C1791 C 0.76848 0.29619 0.38968
 C1792 C 0.76056 0.27350 0.39380
 C1793 C 0.77392 0.27278 0.41391
 C1794 C 0.78179 0.29534 0.41003
 H1795 H 0.80255 0.25029 0.40681
 H1796 H 0.77864 0.25205 0.36903
 H1797 H 0.81714 0.29180 0.39878
 H1798 H 0.75855 0.30962 0.38471
 H1799 H 0.74405 0.26809 0.39252
 H1800 H 0.78268 0.30789 0.42213
 C1801 C 0.76367 0.79402 -0.09878
 C1802 C 0.78635 0.80169 -0.10313
 C1803 C 0.78660 0.78810 -0.12300
 C1804 C 0.76408 0.78064 -0.11919
 C1805 C 0.79569 0.76929 -0.11100
 C1806 C 0.79519 0.78273 -0.09070
 C1807 C 0.77262 0.77515 -0.08657
 C1808 C 0.77297 0.76168 -0.10664
 H1809 H 0.75045 0.80408 -0.09354
 H1810 H 0.79200 0.81816 -0.10205
 H1811 H 0.75153 0.77995 -0.13127
 H1812 H 0.80890 0.75906 -0.11592
 H1813 H 0.80785 0.78352 -0.07872
 H1814 H 0.76735 0.74520 -0.10779
 C1815 C 0.25917 0.47727 0.85602
 C1816 C 0.26694 0.45470 0.86092
 C1817 C 0.28530 0.46422 0.87326
 C1818 C 0.27768 0.48662 0.86890
 C1819 C 0.29930 0.46438 0.85373
 C1820 C 0.28081 0.45507 0.84095
 C1821 C 0.27309 0.47752 0.83630
 C1822 C 0.29151 0.48692 0.84886
 H1823 H 0.24264 0.48270 0.85666
 H1824 H 0.25688 0.44139 0.86596
 H1825 H 0.27654 0.49934 0.88078
 H1826 H 0.31583 0.45892 0.85317
 H1827 H 0.28204 0.44224 0.82918
 H1828 H 0.30153 0.50022 0.84369
 C1829 C 0.27456 -0.01003 0.35613
 C1830 C 0.26572 -0.02874 0.36907
 C1831 C 0.28824 -0.03637 0.37256
 C1832 C 0.29728 -0.01780 0.36019
 C1833 C 0.28743 -0.05020 0.35288
 C1834 C 0.26475 -0.04239 0.34885
 C1835 C 0.27364 -0.02376 0.33624
 C1836 C 0.29623 -0.03148 0.34007
 H1837 H 0.26911 0.00651 0.35717
 H1838 H 0.25342 -0.02777 0.38137
 H1839 H 0.31070 -0.00768 0.36481
 H1840 H 0.29291 -0.06673 0.35190
 H1841 H 0.25132 -0.05238 0.34398
 H1842 H 0.30862 -0.03255 0.32786
 C1843 C -0.01519 -0.04405 -0.09632
 C1844 C -0.03776 -0.05221 -0.10040
 C1845 C -0.03864 -0.03851 -0.12013
 C1846 C -0.01624 -0.03056 -0.11660
 C1847 C -0.04796 -0.01998 -0.10786
 C1848 C -0.04682 -0.03352 -0.08767
 C1849 C -0.02437 -0.02545 -0.08383
 C1850 C -0.02536 -0.01189 -0.10379
 H1851 H -0.00166 -0.05383 -0.09132
 H1852 H -0.04303 -0.06881 -0.09939
 H1853 H -0.00391 -0.02951 -0.12886
 H1854 H -0.06148 -0.01004 -0.11250
 H1855 H -0.05920 -0.03465 -0.07547
 H1856 H -0.02014 0.00472 -0.10488
 C1857 C -0.04320 0.48556 0.40146
 C1858 C -0.02977 0.48481 0.38114
 C1859 C -0.03746 0.46230 0.37748
 C1860 C -0.05108 0.46289 0.39726
 C1861 C -0.01882 0.45310 0.38963
 C1862 C -0.01099 0.47581 0.39386
 C1863 C -0.02450 0.47651 0.41385
 C1864 C -0.03230 0.45395 0.40985
 H1865 H -0.05311 0.49897 0.40655
 H1866 H -0.02891 0.49725 0.36896
 H1867 H -0.06759 0.45742 0.39830
 H1868 H -0.00876 0.43970 0.38486
 H1869 H 0.00552 0.48126 0.39277
 H1870 H -0.03327 0.44140 0.42193
 C1871 C 0.45668 -0.01556 0.40378
 C1872 C 0.47036 -0.01636 0.38364
 C1873 C 0.46271 -0.03887 0.37986
 C1874 C 0.44886 -0.03823 0.39949
 C1875 C 0.48117 -0.04806 0.39226
 C1876 C 0.48896 -0.02535 0.39656
 C1877 C 0.47521 -0.02461 0.41639
 C1878 C 0.46747 -0.04718 0.41234
 H1879 H 0.44671 -0.00215 0.40874
 H1880 H 0.47139 -0.00394 0.37146
 H1881 H 0.43234 -0.04370 0.40028
 H1882 H 0.49118 -0.06148 0.38744
 H1883 H 0.50549 -0.01992 0.39565
 H1884 H 0.46634 -0.05967 0.42445
 C1885 C 0.49033 0.47614 -0.10673
 C1886 C 0.48250 0.45348 -0.11126
 C1887 C 0.46404 0.46283 -0.12356
 C1888 C 0.47173 0.48529 -0.11961
 C1889 C 0.45017 0.46329 -0.10395
 C1890 C 0.46877 0.45419 -0.09120
 C1891 C 0.47656 0.47671 -0.08692
 C1892 C 0.45804 0.48591 -0.09946
 H1893 H 0.50686 0.48156 -0.10757
 H1894 H 0.49258 0.44011 -0.11606
 H1895 H 0.47278 0.49783 -0.13167
 H1896 H 0.43364 0.45785 -0.10317
 H1897 H 0.46762 0.44155 -0.07924
 H1898 H 0.44810 0.49930 -0.09439
 C1899 C 0.46752 0.79724 0.33798
 C1900 C 0.44879 0.78825 0.35062
 C1901 C 0.46237 0.78909 0.37045
 C1902 C 0.48095 0.79831 0.35825
 C1903 C 0.47018 0.76660 0.36690
 C1904 C 0.45678 0.76561 0.34656
 C1905 C 0.47543 0.77469 0.33416
 C1906 C 0.48892 0.77563 0.35419
 H1907 H 0.46650 0.80966 0.32579
 H1908 H 0.43226 0.79362 0.34954
 H1909 H 0.49085 0.81182 0.36312
 H1910 H 0.47112 0.75425 0.37916
 H1911 H 0.44693 0.75211 0.34154
 H1912 H 0.50545 0.77031 0.35538
 C1913 C -0.03133 0.79535 0.84095
 C1914 C -0.05007 0.78638 0.85359
 C1915 C -0.03621 0.78651 0.87324
 C1916 C -0.01761 0.79572 0.86105
 C1917 C -0.02883 0.76398 0.86912
 C1918 C -0.04249 0.76370 0.84892
 C1919 C -0.02383 0.77277 0.83650
 C1920 C -0.01009 0.77300 0.85637
 H1921 H -0.03229 0.80810 0.82909
 H1922 H -0.06652 0.79204 0.85280
 H1923 H -0.00732 0.80892 0.86594
 H1924 H -0.02795 0.75133 0.88108
 H1925 H -0.05261 0.75048 0.84370
 H1926 H 0.00637 0.76738 0.85721
 C1927 C 0.41162 0.78291 0.29612
 C1928 C 0.39902 0.80169 0.28715
 C1929 C 0.37933 0.78788 0.28727
 C1930 C 0.39150 0.76925 0.29647
 C1931 C 0.38345 0.78044 0.26476
 C1932 C 0.40364 0.79407 0.26449
 C1933 C 0.41600 0.77536 0.27357
 C1934 C 0.39612 0.76166 0.27378
 H1935 H 0.42351 0.78385 0.30885
 H1936 H 0.39980 0.81819 0.29281
 H1937 H 0.38646 0.75906 0.30967
 H1938 H 0.37148 0.77958 0.25211
 H1939 H 0.40886 0.80419 0.25130
 H1940 H 0.39522 0.74516 0.26816
 C1941 C -0.10615 0.76051 0.77310
 C1942 C -0.11075 0.76807 0.79582
 C1943 C -0.12266 0.78689 0.78668
 C1944 C -0.11860 0.77949 0.76415
 C1945 C -0.10281 0.80046 0.78666
 C1946 C -0.09048 0.78150 0.79558
 C1947 C -0.08612 0.77400 0.77300
 C1948 C -0.09825 0.79289 0.76399
 H1949 H -0.10722 0.74405 0.76740
 H1950 H -0.11596 0.75790 0.80897
 H1951 H -0.13054 0.77884 0.75147
 H1952 H -0.10182 0.81691 0.79239
 H1953 H -0.07864 0.78225 0.80837
 H1954 H -0.09290 0.80301 0.75084
 C1955 C 0.84843 0.29080 0.48621
 C1956 C 0.86860 0.27719 0.48559
 C1957 C 0.87259 0.28500 0.46320
 C1958 C 0.85291 0.29877 0.46368
 C1959 C 0.86039 0.26649 0.45373
 C1960 C 0.85585 0.25853 0.47631
 C1961 C 0.83600 0.27223 0.47687
 C1962 C 0.84028 0.28014 0.45443
 H1963 H 0.84331 0.30070 0.49962
 H1964 H 0.88063 0.27615 0.49816
 H1965 H 0.85207 0.31535 0.45833
 H1966 H 0.86539 0.25656 0.44031
 H1967 H 0.85677 0.24194 0.48163
 H1968 H 0.82836 0.28128 0.44175
 C1969 C 0.85560 0.77391 -0.01014
 C1970 C 0.86845 0.76444 -0.02860
 C1971 C 0.87267 0.78678 -0.03649
 C1972 C 0.86035 0.79642 -0.01819
 C1973 C 0.85312 0.78633 -0.05047
 C1974 C 0.84839 0.76385 -0.04241
 C1975 C 0.83586 0.77337 -0.02404
 C1976 C 0.84037 0.79576 -0.03203
 H1977 H 0.85633 0.76869 0.00647
 H1978 H 0.88039 0.75181 -0.02735
 H1979 H 0.86532 0.80988 -0.00826
 H1980 H 0.85247 0.79158 -0.06708
 H1981 H 0.84327 0.75039 -0.05228
 H1982 H 0.82854 0.80850 -0.03337
 C1983 C -0.08811 -0.04779 -0.03240
 C1984 C -0.10845 -0.04860 -0.01908
 C1985 C -0.12044 -0.03945 -0.03786
 C1986 C -0.10056 -0.03891 -0.05134
 C1987 C -0.11682 -0.01691 -0.03020
 C1988 C -0.10429 -0.02585 -0.01127
 C1989 C -0.08420 -0.02519 -0.02462
 C1990 C -0.09643 -0.01621 -0.04348
 H1991 H -0.07601 -0.06031 -0.03322
 H1992 H -0.11335 -0.06196 -0.00903
 H1993 H -0.09942 -0.04444 -0.06784
 H1994 H -0.12898 -0.00445 -0.02946
 H1995 H -0.10554 -0.02036 0.00523
 H1996 H -0.09127 -0.00285 -0.05342
 C1997 C -0.10674 0.49080 0.47546
 C1998 C -0.11118 0.48288 0.45282
 C1999 C -0.12341 0.46436 0.46218
 C2000 C -0.11955 0.47215 0.48462
 C2001 C -0.10377 0.45054 0.46272
 C2002 C -0.09108 0.46919 0.45360
 C2003 C -0.08690 0.47708 0.47610
 C2004 C -0.09938 0.45851 0.48531
 H2005 H -0.10765 0.50738 0.48083
 H2006 H -0.11599 0.49291 0.43941
 H2007 H -0.13163 0.47319 0.49712
 H2008 H -0.10292 0.43397 0.45732
 H2009 H -0.07910 0.46806 0.44100
 H2010 H -0.09432 0.44860 0.49872
 C2011 C 0.39591 -0.01214 0.47571
 C2012 C 0.39184 -0.01977 0.45291
 C2013 C 0.37947 -0.03840 0.46185
 C2014 C 0.38301 -0.03091 0.48445
 C2015 C 0.39912 -0.05222 0.46252
 C2016 C 0.41194 -0.03343 0.45384
 C2017 C 0.41579 -0.02581 0.47649
 C2018 C 0.40321 -0.04451 0.48529
 H2019 H 0.39486 0.00437 0.48127
 H2020 H 0.38726 -0.00955 0.43957
 H2021 H 0.37075 -0.03001 0.49679
 H2022 H 0.40007 -0.06872 0.45692
 H2023 H 0.42413 -0.03441 0.44143
 H2024 H 0.40812 -0.05458 0.49865
 C2025 C 0.39378 0.49084 -0.02396
 C2026 C 0.38883 0.48300 -0.04653
 C2027 C 0.37658 0.46460 -0.03696
 C2028 C 0.38096 0.47230 -0.01459
 C2029 C 0.39609 0.45058 -0.03682
 C2030 C 0.40881 0.46912 -0.04615
 C2031 C 0.41350 0.47693 -0.02372
 C2032 C 0.40100 0.45847 -0.01431
 H2033 H 0.39313 0.50742 -0.01855
 H2034 H 0.38388 0.49311 -0.05982
 H2035 H 0.36914 0.47345 -0.00185
 H2036 H 0.39669 0.43400 -0.04226
 H2037 H 0.42053 0.46788 -0.05898
 H2038 H 0.40622 0.44848 -0.00101
 C2039 C 0.34782 0.45750 0.76408
 C2040 C 0.36810 0.47100 0.76439
 C2041 C 0.37218 0.46353 0.78689
 C2042 C 0.35240 0.44985 0.78672
 C2043 C 0.36016 0.48225 0.79611
 C2044 C 0.35554 0.48987 0.77343
 C2045 C 0.33558 0.47628 0.77316
 C2046 C 0.33995 0.46871 0.79572
 H2047 H 0.34255 0.44741 0.75085
 H2048 H 0.38006 0.47177 0.75175
 H2049 H 0.35148 0.43337 0.79234
 H2050 H 0.36530 0.49238 0.80935
 H2051 H 0.35655 0.50636 0.76783
 H2052 H 0.32810 0.46784 0.80847
 C2053 C 0.35617 -0.02335 0.26103
 C2054 C 0.36899 -0.01439 0.27978
 C2055 C 0.37267 -0.03692 0.28738
 C2056 C 0.36037 -0.04606 0.26879
 C2057 C 0.35297 -0.03629 0.30113
 C2058 C 0.34878 -0.01361 0.29335
 C2059 C 0.33629 -0.02263 0.27469
 C2060 C 0.34027 -0.04521 0.28240
 H2061 H 0.35718 -0.01788 0.24451
 H2062 H 0.38120 -0.00198 0.27887
 H2063 H 0.36517 -0.05947 0.25873
 H2064 H 0.35204 -0.04179 0.31765
 H2065 H 0.34379 -0.00020 0.30333
 H2066 H 0.32818 -0.05775 0.28342
 C2067 C 0.15326 0.54396 0.73528
 C2068 C 0.14931 0.55186 0.71260
 C2069 C 0.12943 0.53836 0.71180
 C2070 C 0.13287 0.53064 0.73432
 C2071 C 0.14152 0.51962 0.70270
 C2072 C 0.16183 0.53297 0.70374
 C2073 C 0.16554 0.52515 0.72631
 C2074 C 0.14547 0.51175 0.72541
 H2075 H 0.15832 0.55386 0.74873
 H2076 H 0.15046 0.56838 0.70715
 H2077 H 0.12058 0.52985 0.74664
 H2078 H 0.13666 0.50966 0.68924
 H2079 H 0.17404 0.53386 0.69136
 H2080 H 0.14419 0.49522 0.73081
 C2081 C 0.15387 0.01373 0.20609
 C2082 C 0.13358 0.01417 0.21954
 C2083 C 0.12961 0.03667 0.21199
 C2084 C 0.14940 0.03639 0.19836
 C2085 C 0.14170 0.04591 0.23070
 C2086 C 0.14616 0.02323 0.23839
 C2087 C 0.16614 0.02285 0.22487
 C2088 C 0.16192 0.04539 0.21721
 H2089 H 0.15910 0.00045 0.19607
 H2090 H 0.12156 0.00157 0.22033
 H2091 H 0.15034 0.04195 0.18187
 H2092 H 0.13669 0.05920 0.24081
 H2093 H 0.14511 0.01770 0.25488
 H2094 H 0.17386 0.05807 0.21633
 C2095 C 0.59876 0.70784 0.23620
 C2096 C 0.60300 0.69982 0.21360
 C2097 C 0.62257 0.71377 0.21281
 C2098 C 0.61885 0.72161 0.23526
 C2099 C 0.61009 0.73213 0.20351
 C2100 C 0.59010 0.71832 0.20452
 C2101 C 0.58608 0.72627 0.22703
 C2102 C 0.60584 0.74013 0.22614
 H2103 H 0.59389 0.69795 0.24970
 H2104 H 0.60220 0.68322 0.20827
 H2105 H 0.63105 0.72281 0.24764
 H2106 H 0.61481 0.74208 0.19001
 H2107 H 0.57800 0.71703 0.19202
 H2108 H 0.60673 0.75673 0.23144
 C2109 C 0.09615 0.70663 0.73488
 C2110 C 0.09996 0.69875 0.71217
 C2111 C 0.11986 0.71222 0.71132
 C2112 C 0.11654 0.71992 0.73389
 C2113 C 0.10775 0.73098 0.70234
 C2114 C 0.08742 0.71766 0.70341
 C2115 C 0.08383 0.72546 0.72603
 C2116 C 0.10391 0.73884 0.72509
 H2117 H 0.09116 0.69671 0.74832
 H2118 H 0.09875 0.68224 0.70666
 H2119 H 0.12889 0.72068 0.74617
 H2120 H 0.11259 0.74093 0.68888
 H2121 H 0.07513 0.71680 0.69108
 H2122 H 0.10526 0.75536 0.73055
 C2123 C 0.65290 0.23542 0.54205
 C2124 C 0.63279 0.23488 0.52833
 C2125 C 0.62858 0.21254 0.53619
 C2126 C 0.64820 0.21292 0.55008
 C2127 C 0.64080 0.20292 0.51780
 C2128 C 0.64553 0.22545 0.50981
 C2129 C 0.66534 0.22593 0.52360
 C2130 C 0.66087 0.20353 0.53155
 H2131 H 0.65810 0.24883 0.55194
 H2132 H 0.62087 0.24754 0.52718
 H2133 H 0.64890 0.20762 0.56667
 H2134 H 0.63575 0.18949 0.50787
 H2135 H 0.64472 0.23072 0.49321
 H2136 H 0.67271 0.19080 0.53279
 C2137 C 0.64574 0.73909 0.02433
 C2138 C 0.63319 0.72023 0.01523
 C2139 C 0.62951 0.71244 0.03768
 C2140 C 0.64155 0.73115 0.04697
 C2141 C 0.64938 0.69894 0.03707
 C2142 C 0.65356 0.70692 0.01446
 C2143 C 0.66580 0.72570 0.02362
 C2144 C 0.66186 0.71780 0.04613
 H2145 H 0.64452 0.75564 0.01898
 H2146 H 0.62104 0.72106 0.00276
 H2147 H 0.63657 0.74107 0.06041
 H2148 H 0.65047 0.68239 0.04246
 H2149 H 0.65871 0.69704 0.00104
 H2150 H 0.67394 0.71687 0.05867
 C2151 C 0.09794 0.04240 0.01416
 C2152 C 0.10232 0.05027 0.03678
 C2153 C 0.12208 0.03661 0.03723
 C2154 C 0.11821 0.02891 0.01476
 C2155 C 0.10996 0.01797 0.04649
 C2156 C 0.08978 0.03149 0.04582
 C2157 C 0.08562 0.02369 0.02329
 C2158 C 0.10556 0.01012 0.02383
 H2159 H 0.09278 0.05234 0.00081
 H2160 H 0.10136 0.06681 0.04227
 H2161 H 0.13029 0.02803 0.00224
 H2162 H 0.11495 0.00796 0.05985
 H2163 H 0.07782 0.03248 0.05845
 H2164 H 0.10660 -0.00643 0.01838
 C2165 C 0.08708 0.54642 0.53259
 C2166 C 0.09955 0.53750 0.55148
 C2167 C 0.11946 0.53823 0.53805
 C2168 C 0.10742 0.54739 0.51931
 C2169 C 0.11595 0.51572 0.53027
 C2170 C 0.09554 0.51483 0.54351
 C2171 C 0.08331 0.52385 0.52469
 C2172 C 0.10340 0.52468 0.51137
 H2173 H 0.07491 0.55885 0.53346
 H2174 H 0.09839 0.54296 0.56800
 H2175 H 0.11234 0.56084 0.50940
 H2176 H 0.12819 0.50334 0.52949
 H2177 H 0.09043 0.50139 0.55337
 H2178 H 0.10470 0.51928 0.49484
 C2179 C 0.59774 0.04329 0.51375
 C2180 C 0.60247 0.05083 0.53642
 C2181 C 0.62233 0.03730 0.53631
 C2182 C 0.61812 0.02994 0.51378
 C2183 C 0.61048 0.01843 0.54546
 C2184 C 0.59021 0.03183 0.54536
 C2185 C 0.58570 0.02435 0.52280
 C2186 C 0.60574 0.01092 0.52276
 H2187 H 0.59228 0.05341 0.50065
 H2188 H 0.60150 0.06727 0.54219
 H2189 H 0.62998 0.02934 0.50104
 H2190 H 0.61573 0.00822 0.55856
 H2191 H 0.57846 0.03252 0.55823
 H2192 H 0.60680 -0.00553 0.51703
 C2193 C 0.60378 0.52534 0.00984
 C2194 C 0.60796 0.54794 0.01800
 C2195 C 0.62025 0.53852 0.03644
 C2196 C 0.61658 0.51612 0.02843
 C2197 C 0.60055 0.53767 0.05016
 C2198 C 0.58782 0.54685 0.03157
 C2199 C 0.58389 0.52439 0.02346
 C2200 C 0.59638 0.51510 0.04197
 H2201 H 0.60481 0.52015 -0.00678
 H2202 H 0.61278 0.56151 0.00819
 H2203 H 0.62878 0.50373 0.02731
 H2204 H 0.59963 0.54291 0.06677
 H2205 H 0.57569 0.55930 0.03278
 H2206 H 0.59139 0.50155 0.05173
 C2207 C 0.04266 0.01430 0.09839
 C2208 C 0.05049 0.03694 0.10281
 C2209 C 0.03700 0.03726 0.12269
 C2210 C 0.02936 0.01477 0.11880
 C2211 C 0.01825 0.04653 0.11075
 C2212 C 0.03160 0.04596 0.09042
 C2213 C 0.02386 0.02341 0.08621
 C2214 C 0.01047 0.02384 0.10630
 H2215 H 0.05261 0.00098 0.09311
 H2216 H 0.06698 0.04248 0.10172
 H2217 H 0.02861 0.00217 0.13083
 H2218 H 0.00819 0.05984 0.11577
 H2219 H 0.03245 0.05865 0.07848
 H2220 H -0.00602 0.01832 0.10744
 C2221 C 0.04634 0.53238 0.58767
 C2222 C 0.03742 0.55129 0.60013
 C2223 C 0.03823 0.53792 0.62009
 C2224 C 0.04739 0.51915 0.60806
 C2225 C 0.01577 0.53006 0.61664
 C2226 C 0.01480 0.54326 0.59619
 C2227 C 0.02383 0.52442 0.58396
 C2228 C 0.02474 0.51114 0.60410
 H2229 H 0.05871 0.53324 0.57544
 H2230 H 0.04281 0.56784 0.59892
 H2231 H 0.06087 0.50928 0.61299
 H2232 H 0.00345 0.52929 0.62893
 H2233 H 0.00135 0.55308 0.59109
 H2234 H 0.01940 0.49459 0.60545
 C2235 C 0.53186 0.04526 0.59089
 C2236 C 0.51826 0.04576 0.61104
 C2237 C 0.53693 0.03669 0.62324
 C2238 C 0.55068 0.03643 0.60352
 C2239 C 0.52954 0.01411 0.61930
 C2240 C 0.51073 0.02299 0.60655
 C2241 C 0.52436 0.02264 0.58663
 C2242 C 0.54309 0.01370 0.59904
 H2243 H 0.53275 0.05794 0.57894
 H2244 H 0.50799 0.05898 0.61588
 H2245 H 0.56712 0.04211 0.60262
 H2246 H 0.52875 0.00154 0.63135
 H2247 H 0.49428 0.01734 0.60752
 H2248 H 0.55320 0.00046 0.59389
 C2249 C 0.54645 0.53228 0.08774
 C2250 C 0.53727 0.55092 0.10045
 C2251 C 0.53781 0.53713 0.12015
 C2252 C 0.54722 0.51865 0.10789
 C2253 C 0.51544 0.52929 0.11619
 C2254 C 0.51474 0.54289 0.09600
 C2255 C 0.52402 0.52434 0.08352
 C2256 C 0.52466 0.51066 0.10341
 H2257 H 0.55903 0.53344 0.07575
 H2258 H 0.54261 0.56750 0.09964
 H2259 H 0.56065 0.50872 0.11284
 H2260 H 0.50292 0.52822 0.12825
 H2261 H 0.50133 0.55278 0.09089
 H2262 H 0.51936 0.49406 0.10434
 C2263 C 0.20522 0.51509 0.65378
 C2264 C 0.19733 0.53779 0.64988
 C2265 C 0.21076 0.53860 0.62996
 C2266 C 0.21846 0.51605 0.63336
 C2267 C 0.22949 0.54768 0.64208
 C2268 C 0.21622 0.54664 0.66243
 C2269 C 0.22403 0.52404 0.66609
 C2270 C 0.23735 0.52494 0.64598
 H2271 H 0.19533 0.50164 0.65881
 H2272 H 0.18084 0.54326 0.65108
 H2273 H 0.21922 0.50373 0.62103
 H2274 H 0.23942 0.56114 0.63722
 H2275 H 0.21536 0.55902 0.67469
 H2276 H 0.25385 0.51953 0.64465
 C2277 C 0.23550 0.04275 0.15365
 C2278 C 0.23505 0.02940 0.13326
 C2279 C 0.21256 0.03690 0.12939
 C2280 C 0.21285 0.05044 0.14929
 C2281 C 0.20342 0.01810 0.14134
 C2282 C 0.22610 0.01044 0.14573
 C2283 C 0.22649 0.02388 0.16582
 C2284 C 0.20395 0.03149 0.16169
 H2285 H 0.24873 0.05280 0.15894
 H2286 H 0.24758 0.02871 0.12119
 H2287 H 0.20723 0.06692 0.15032
 H2288 H 0.19017 0.00801 0.13622
 H2289 H 0.23168 -0.00604 0.14456
 H2290 H 0.19134 0.03227 0.17368
 C2291 C 0.70294 0.21840 0.58872
 C2292 C 0.71226 0.19992 0.60152
 C2293 C 0.71187 0.21392 0.62110
 C2294 C 0.70232 0.23226 0.60876
 C2295 C 0.73420 0.22175 0.61692
 C2296 C 0.73474 0.20791 0.59686
 C2297 C 0.72533 0.22631 0.58429
 C2298 C 0.72485 0.24022 0.60405
 H2299 H 0.69026 0.21710 0.57682
 H2300 H 0.70693 0.18332 0.60090
 H2301 H 0.68893 0.24220 0.61378
 H2302 H 0.74681 0.22296 0.62889
 H2303 H 0.74811 0.19798 0.59175
 H2304 H 0.73014 0.25683 0.60479
 C2305 C 0.70733 0.73572 0.09621
 C2306 C 0.69929 0.71317 0.10069
 C2307 C 0.71314 0.71264 0.12035
 C2308 C 0.72100 0.73504 0.11637
 C2309 C 0.73151 0.70315 0.10804
 C2310 C 0.71781 0.70391 0.08794
 C2311 C 0.72577 0.72635 0.08369
 C2312 C 0.73952 0.72573 0.10355
 H2313 H 0.69747 0.74916 0.09112
 H2314 H 0.68272 0.70786 0.09992
 H2315 H 0.72215 0.74759 0.12843
 H2316 H 0.74142 0.68969 0.11297
 H2317 H 0.71658 0.69128 0.07595
 H2318 H 0.75610 0.73100 0.10443
 C2319 C 0.53178 0.70539 0.15992
 C2320 C 0.51821 0.70454 0.13974
 C2321 C 0.53679 0.71370 0.12751
 C2322 C 0.55049 0.71434 0.14727
 C2323 C 0.52915 0.73622 0.13121
 C2324 C 0.51042 0.72724 0.14398
 C2325 C 0.52403 0.72797 0.16392
 C2326 C 0.54267 0.73701 0.15149
 H2327 H 0.53279 0.69285 0.17200
 H2328 H 0.50820 0.69112 0.13486
 H2329 H 0.56699 0.70886 0.14825
 H2330 H 0.52824 0.74864 0.11902
 H2331 H 0.49391 0.73269 0.14293
 H2332 H 0.55263 0.75042 0.15653
 C2333 C 0.01161 0.72594 0.64597
 C2334 C 0.03043 0.73478 0.63327
 C2335 C 0.03813 0.71223 0.62992
 C2336 C 0.01946 0.70319 0.64211
 C2337 C 0.05165 0.71314 0.64979
 C2338 C 0.04377 0.73586 0.65365
 C2339 C 0.02503 0.72694 0.66603
 C2340 C 0.03284 0.70434 0.66240
 H2341 H -0.00490 0.73134 0.64469
 H2342 H 0.02961 0.74704 0.62090
 H2343 H 0.00951 0.68969 0.63732
 H2344 H 0.06815 0.70768 0.65093
 H2345 H 0.05366 0.74934 0.65863
 H2346 H 0.03376 0.69201 0.67469
 C2347 C 0.54518 0.66015 0.21805
 C2348 C 0.54554 0.63989 0.23150
 C2349 C 0.53637 0.62786 0.21273
 C2350 C 0.53622 0.64771 0.19914
 C2351 C 0.51388 0.63190 0.22019
 C2352 C 0.52289 0.64445 0.23911
 C2353 C 0.52265 0.66448 0.22562
 C2354 C 0.51359 0.65226 0.20678
 H2355 H 0.55792 0.67204 0.21724
 H2356 H 0.55875 0.63477 0.24164
 H2357 H 0.54185 0.64868 0.18268
 H2358 H 0.50126 0.61990 0.22090
 H2359 H 0.51728 0.64340 0.25558
 H2360 H 0.50039 0.65756 0.19671
 C2361 C 0.01486 0.65414 0.70542
 C2362 C 0.03754 0.65024 0.69757
 C2363 C 0.03834 0.63033 0.71105
 C2364 C 0.01582 0.63373 0.71871
 C2365 C 0.04735 0.64249 0.72980
 C2366 C 0.04632 0.66283 0.71648
 C2367 C 0.02375 0.66649 0.72425
 C2368 C 0.02465 0.64639 0.73762
 H2369 H 0.00145 0.65916 0.69549
 H2370 H 0.04302 0.65141 0.68107
 H2371 H 0.00353 0.62139 0.71946
 H2372 H 0.06078 0.63767 0.73979
 H2373 H 0.05867 0.67510 0.71564
 H2374 H 0.01921 0.64509 0.75413
 C2375 C 0.02350 0.10580 0.00954
 C2376 C 0.01426 0.11880 0.02801
 C2377 C 0.03662 0.12262 0.03599
 C2378 C 0.04605 0.11016 0.01767
 C2379 C 0.03580 0.10301 0.04989
 C2380 C 0.01330 0.09869 0.04175
 C2381 C 0.02260 0.08601 0.02336
 C2382 C 0.04501 0.09013 0.03143
 H2383 H 0.01831 0.10665 -0.00709
 H2384 H 0.00186 0.13098 0.02678
 H2385 H 0.05959 0.11494 0.00782
 H2386 H 0.04103 0.10224 0.06651
 H2387 H -0.00023 0.09377 0.05155
 H2388 H 0.05753 0.07806 0.03277
 C2389 C 0.01113 0.60407 0.52541
 C2390 C 0.01921 0.60799 0.54807
 C2391 C 0.03792 0.62001 0.53886
 C2392 C 0.03000 0.61660 0.51639
 C2393 C 0.05125 0.60001 0.53796
 C2394 C 0.03239 0.58756 0.54694
 C2395 C 0.02436 0.58388 0.52442
 C2396 C 0.04314 0.59611 0.51534
 H2397 H -0.00541 0.60545 0.52012
 H2398 H 0.00941 0.61291 0.56160
 H2399 H 0.02919 0.62891 0.50407
 H2400 H 0.06778 0.59876 0.54330
 H2401 H 0.03329 0.57532 0.55930
 H2402 H 0.05290 0.59101 0.50182
 C2403 C 0.54412 0.09046 0.53176
 C2404 C 0.54473 0.11033 0.51775
 C2405 C 0.53546 0.12291 0.53607
 C2406 C 0.53506 0.10346 0.55021
 C2407 C 0.51302 0.11878 0.52850
 C2408 C 0.52212 0.10566 0.51003
 C2409 C 0.52163 0.08603 0.52409
 C2410 C 0.51248 0.09880 0.54247
 H2411 H 0.55678 0.07854 0.53305
 H2412 H 0.55805 0.11511 0.50761
 H2413 H 0.54056 0.10294 0.56675
 H2414 H 0.50049 0.13082 0.52731
 H2415 H 0.51666 0.10627 0.49348
 H2416 H 0.49915 0.09383 0.55253
 C2417 C 0.53233 0.58832 0.04606
 C2418 C 0.55124 0.60072 0.03710
 C2419 C 0.53782 0.62068 0.03753
 C2420 C 0.51906 0.60871 0.04673
 C2421 C 0.53016 0.61688 0.01504
 C2422 C 0.54339 0.59644 0.01445
 C2423 C 0.52456 0.58427 0.02352
 C2424 C 0.51124 0.60441 0.02404
 H2425 H 0.53314 0.57629 0.05865
 H2426 H 0.56772 0.59962 0.04262
 H2427 H 0.50908 0.61380 0.06007
 H2428 H 0.52943 0.62899 0.00252
 H2429 H 0.55332 0.59117 0.00113
 H2430 H 0.49475 0.60565 0.01856
 C2431 C 0.73882 0.14557 0.52558
 C2432 C 0.73088 0.14130 0.54821
 C2433 C 0.71241 0.12899 0.53884
 C2434 C 0.72021 0.13272 0.51641
 C2435 C 0.69864 0.14869 0.53817
 C2436 C 0.71727 0.16147 0.54728
 C2437 C 0.72518 0.16549 0.52479
 C2438 C 0.70664 0.15294 0.51557
 H2439 H 0.75538 0.14457 0.52027
 H2440 H 0.74087 0.13656 0.56168
 H2441 H 0.72127 0.12054 0.50396
 H2442 H 0.68209 0.14960 0.54350
 H2443 H 0.71614 0.17358 0.55979
 H2444 H 0.69677 0.15795 0.50211
 C2445 C 0.73503 0.65385 0.04232
 C2446 C 0.71251 0.64971 0.05048
 C2447 C 0.71163 0.62995 0.03676
 C2448 C 0.73400 0.63359 0.02878
 C2449 C 0.70224 0.64224 0.01831
 C2450 C 0.70335 0.66244 0.03188
 C2451 C 0.72577 0.66634 0.02379
 C2452 C 0.72479 0.64639 0.01018
 H2453 H 0.74857 0.65886 0.05211
 H2454 H 0.70729 0.65066 0.06708
 H2455 H 0.74635 0.62135 0.02769
 H2456 H 0.68869 0.63742 0.00846
 H2457 H 0.69093 0.67461 0.03307
 H2458 H 0.72997 0.64532 -0.00643
 C2459 C 0.23445 0.59650 0.70638
 C2460 C 0.21180 0.60036 0.69844
 C2461 C 0.21093 0.62027 0.71196
 C2462 C 0.23343 0.61690 0.71972
 C2463 C 0.20186 0.60810 0.73064
 C2464 C 0.20297 0.58777 0.71728
 C2465 C 0.22553 0.58413 0.72514
 C2466 C 0.22456 0.60422 0.73856
 H2467 H 0.24790 0.59151 0.69650
 H2468 H 0.20636 0.59919 0.68191
 H2469 H 0.24570 0.62926 0.72056
 H2470 H 0.18840 0.61295 0.74055
 H2471 H 0.19064 0.57547 0.71634
 H2472 H 0.22995 0.60552 0.75509
 C2473 C 0.20682 0.09621 0.23465
 C2474 C 0.22034 0.11647 0.23357
 C2475 C 0.21249 0.11994 0.21109
 C2476 C 0.19879 0.10018 0.21201
 C2477 C 0.23097 0.10758 0.20189
 C2478 C 0.23897 0.10360 0.22456
 C2479 C 0.22537 0.08364 0.22558
 C2480 C 0.21742 0.08738 0.20305
 H2481 H 0.19698 0.09131 0.24817
 H2482 H 0.22138 0.12880 0.24587
 H2483 H 0.18223 0.09917 0.20668
 H2484 H 0.24085 0.11231 0.18836
 H2485 H 0.25553 0.10472 0.22985
 H2486 H 0.21629 0.07511 0.19069
 C2487 C 0.70954 1.09895 0.73604
 C2488 C 0.72327 1.11907 0.73521
 C2489 C 0.71522 1.12304 0.71289
 C2490 C 0.70133 1.10341 0.71358
 C2491 C 0.73348 1.11066 0.70326
 C2492 C 0.74168 1.10615 0.72578
 C2493 C 0.72785 1.08634 0.72656
 C2494 C 0.71972 1.09059 0.70418
 H2495 H 0.69978 1.09395 0.74958
 H2496 H 0.72456 1.13116 0.74772
 H2497 H 0.68471 1.10265 0.70841
 H2498 H 0.74326 1.11557 0.68972
 H2499 H 0.75830 1.10698 0.73092
 H2500 H 0.71833 1.07860 0.69156
 C2501 C 0.74045 0.60598 0.22658
 C2502 C 0.73269 0.61049 0.20393
 C2503 C 0.71419 0.62277 0.21319
 C2504 C 0.72179 0.61880 0.23567
 C2505 C 0.70037 0.60308 0.21356
 C2506 C 0.71901 0.59038 0.20451
 C2507 C 0.72671 0.58611 0.22703
 C2508 C 0.70814 0.59859 0.23618
 H2509 H 0.75696 0.60688 0.23206
 H2510 H 0.74276 0.61543 0.19060
 H2511 H 0.72277 0.63087 0.24823
 H2512 H 0.68386 0.60226 0.20805
 H2513 H 0.71793 0.57843 0.19183
 H2514 H 0.69815 0.59348 0.24950
 C2515 C 0.54240 0.15094 0.73648
 C2516 C 0.52871 0.13075 0.73592
 C2517 C 0.53625 0.12680 0.71342
 C2518 C 0.55013 0.14645 0.71383
 C2519 C 0.51774 0.13910 0.70418
 C2520 C 0.51006 0.14361 0.72687
 C2521 C 0.52383 0.16347 0.72739
 C2522 C 0.53147 0.15919 0.70484
 H2523 H 0.55243 0.15602 0.74982
 H2524 H 0.52773 0.11867 0.74845
 H2525 H 0.56662 0.14726 0.70831
 H2526 H 0.50757 0.13429 0.69086
 H2527 H 0.49356 0.14274 0.73237
 H2528 H 0.53255 0.17117 0.69220
 C2529 C 1.01409 0.15102 0.20880
 C2530 C 1.03653 0.14666 0.20058
 C2531 C 1.03733 0.12702 0.21443
 C2532 C 1.01503 0.13088 0.22249
 C2533 C 1.04690 0.13941 0.23276
 C2534 C 1.04588 0.15948 0.21904
 C2535 C 1.02352 0.16363 0.22719
 C2536 C 1.02441 0.14382 0.24097
 H2537 H 1.00053 0.15599 0.19904
 H2538 H 1.04168 0.14746 0.18395
 H2539 H 1.00259 0.11873 0.22373
 H2540 H 1.06046 0.13456 0.24255
 H2541 H 1.05843 0.17152 0.21770
 H2542 H 1.01929 0.14294 0.25760
 C2543 C 0.22435 0.64570 0.51114
 C2544 C 0.23340 0.63302 0.52991
 C2545 C 0.21097 0.62964 0.53785
 C2546 C 0.20173 0.64180 0.51924
 C2547 C 0.21197 0.64954 0.55136
 C2548 C 0.23455 0.65342 0.54324
 C2549 C 0.22544 0.66579 0.52455
 C2550 C 0.20296 0.66213 0.53260
 H2551 H 0.22957 0.64442 0.49456
 H2552 H 0.24565 0.62068 0.52898
 H2553 H 0.18817 0.63697 0.50942
 H2554 H 0.20669 0.65069 0.56793
 H2555 H 0.24809 0.65843 0.55301
 H2556 H 0.19065 0.67441 0.53363
 C2557 C 0.20650 0.15333 1.01550
 C2558 C 0.22002 0.13308 1.01633
 C2559 C 0.21227 0.12936 1.03879
 C2560 C 0.19857 0.14912 1.03812
 C2561 C 0.23080 0.14165 1.04806
 C2562 C 0.23869 0.14587 1.02542
 C2563 C 0.22510 0.16582 1.02465
 C2564 C 0.21726 0.16184 1.04716
 H2565 H 0.19661 0.15837 1.00206
 H2566 H 0.22099 0.12087 1.00390
 H2567 H 0.18205 0.15005 1.04352
 H2568 H 0.24075 0.13679 1.06151
 H2569 H 0.25523 0.14481 1.02006
 H2570 H 0.21619 0.17398 1.05966
 C2571 C 0.21698 0.70319 0.58757
 C2572 C 0.23030 0.70198 0.60790
 C2573 C 0.21173 0.71128 0.62004
 C2574 C 0.19826 0.71225 0.60014
 C2575 C 0.21972 0.73373 0.61665
 C2576 C 0.23845 0.72462 0.60399
 C2577 C 0.22508 0.72569 0.58391
 C2578 C 0.20643 0.73486 0.59626
 H2579 H 0.21593 0.69082 0.57530
 H2580 H 0.24006 0.68839 0.61275
 H2581 H 0.18169 0.70698 0.59898
 H2582 H 0.22067 0.74604 0.62898
 H2583 H 0.25503 0.72984 0.60529
 H2584 H 0.19670 0.74842 0.59126
 C2585 C 0.23517 0.20587 1.09697
 C2586 C 0.23486 0.21910 1.11747
 C2587 C 0.21225 0.21184 1.12117
 C2588 C 0.21241 0.19841 1.10120
 C2589 C 0.20337 0.23084 1.10932
 C2590 C 0.22618 0.23824 1.10507
 C2591 C 0.22644 0.22493 1.08489
 C2592 C 0.20378 0.21756 1.08889
 H2593 H 0.24829 0.19571 1.09166
 H2594 H 0.24738 0.21957 1.12958
 H2595 H 0.20657 0.18200 1.10002
 H2596 H 0.19026 0.24114 1.11433
 H2597 H 0.23197 0.25465 1.10636
 H2598 H 0.19119 0.21700 1.07684
 C2599 C 0.72611 0.51088 0.14347
 C2600 C 0.70341 0.51869 0.13938
 C2601 C 0.71247 0.53744 0.12730
 C2602 C 0.73498 0.52980 0.13085
 C2603 C 0.71315 0.55097 0.14720
 C2604 C 0.70431 0.53208 0.15970
 C2605 C 0.72687 0.52432 0.16355
 C2606 C 0.73581 0.54314 0.15126
 H2607 H 0.73157 0.49437 0.14221
 H2608 H 0.69002 0.50868 0.13445
 H2609 H 0.74734 0.52903 0.11861
 H2610 H 0.70766 0.56748 0.14838
 H2611 H 0.69183 0.53294 0.17184
 H2612 H 0.74920 0.55309 0.15635
 C2613 C 0.70454 1.03085 0.65979
 C2614 C 0.71369 1.04967 0.64741
 C2615 C 0.71344 1.03608 0.62755
 C2616 C 0.70406 1.01739 0.63949
 C2617 C 0.73584 1.02839 0.63162
 C2618 C 0.73623 1.04181 0.65197
 C2619 C 0.72699 1.02306 0.66414
 C2620 C 0.72665 1.00954 0.64410
 H2621 H 0.69180 1.03177 0.67165
 H2622 H 0.70823 1.06620 0.64840
 H2623 H 0.69076 1.00740 0.63429
 H2624 H 0.74847 1.02757 0.61965
 H2625 H 0.74952 1.05177 0.65729
 H2626 H 0.73209 0.99301 0.64304
 C2627 C 0.52357 0.24039 0.64444
 C2628 C 0.54615 0.23256 0.63981
 C2629 C 0.53677 0.21424 0.62727
 C2630 C 0.51437 0.22192 0.63136
 C2631 C 0.53629 0.20013 0.64674
 C2632 C 0.54545 0.21858 0.65971
 C2633 C 0.52300 0.22636 0.66410
 C2634 C 0.51375 0.20798 0.65133
 H2635 H 0.51821 0.25697 0.64379
 H2636 H 0.55954 0.24260 0.63498
 H2637 H 0.50184 0.22314 0.61931
 H2638 H 0.54169 0.18356 0.64730
 H2639 H 0.55810 0.21727 0.67165
 H2640 H 0.50037 0.19797 0.65628
 C2641 C 1.01072 0.22583 0.14419
 C2642 C 1.02951 0.23492 0.13156
 C2643 C 1.03708 0.21243 0.12760
 C2644 C 1.01844 0.20314 0.13966
 C2645 C 1.05076 0.21273 0.14738
 C2646 C 1.04300 0.23538 0.15186
 C2647 C 1.02429 0.22625 0.16417
 C2648 C 1.03198 0.20370 0.15990
 H2649 H 0.99423 0.23134 0.14318
 H2650 H 1.02866 0.24751 0.11954
 H2651 H 1.00832 0.18983 0.13471
 H2652 H 1.06725 0.20720 0.14833
 H2653 H 1.05300 0.24869 0.15709
 H2654 H 1.03292 0.19101 0.17182
 C2655 C 0.60594 0.22657 0.74082
 C2656 C 0.61075 0.20391 0.73315
 C2657 C 0.62281 0.21326 0.71454
 C2658 C 0.61855 0.23573 0.72206
 C2659 C 0.60310 0.21329 0.70077
 C2660 C 0.59061 0.20416 0.71951
 C2661 C 0.58606 0.22669 0.72712
 C2662 C 0.59835 0.23590 0.70845
 H2663 H 0.60681 0.23215 0.75732
 H2664 H 0.61596 0.19069 0.74324
 H2665 H 0.63042 0.24847 0.72295
 H2666 H 0.60231 0.20768 0.68427
 H2667 H 0.57884 0.19132 0.71852
 H2668 H 0.59305 0.24911 0.69838
 C2669 C 1.10633 0.23955 0.22610
 C2670 C 1.11896 0.22072 0.23513
 C2671 C 1.12257 0.21292 0.21265
 C2672 C 1.11047 0.23159 0.20343
 C2673 C 1.10272 0.19937 0.21332
 C2674 C 1.09861 0.20734 0.23594
 C2675 C 1.08631 0.22608 0.22685
 C2676 C 1.09021 0.21817 0.20432
 H2677 H 1.10752 0.25611 0.23148
 H2678 H 1.13116 0.22159 0.24755
 H2679 H 1.11538 0.24152 0.18999
 H2680 H 1.10161 0.18281 0.20790
 H2681 H 1.09352 0.19747 0.24938
 H2682 H 1.07812 0.21719 0.19178
 C2683 C 0.14577 0.73828 0.52523
 C2684 C 0.13313 0.71940 0.51628
 C2685 C 0.12977 0.71158 0.53877
 C2686 C 0.14190 0.73030 0.54792
 C2687 C 0.14966 0.69812 0.53786
 C2688 C 0.15351 0.70613 0.51521
 C2689 C 0.16584 0.72492 0.52422
 C2690 C 0.16222 0.71699 0.54677
 H2691 H 0.14444 0.75483 0.51991
 H2692 H 0.12080 0.72022 0.50399
 H2693 H 0.13709 0.74020 0.56143
 H2694 H 0.15085 0.68157 0.54324
 H2695 H 0.15850 0.69627 0.50171
 H2696 H 0.17449 0.71608 0.55911
 C2697 C 0.16166 0.20409 1.03326
 C2698 C 0.14909 0.21305 1.05207
 C2699 C 0.12935 0.21280 1.03834
 C2700 C 0.14149 0.20361 1.01967
 C2701 C 0.13337 0.23532 1.03087
 C2702 C 0.15361 0.23573 1.04442
 C2703 C 0.16594 0.22666 1.02569
 C2704 C 0.14600 0.22631 1.01207
 H2705 H 0.17358 0.19141 1.03417
 H2706 H 0.14996 0.20744 1.06855
 H2707 H 0.13647 0.19034 1.00951
 H2708 H 0.12136 0.24792 1.03005
 H2709 H 0.15883 0.24898 1.05451
 H2710 H 0.14501 0.23188 0.99558
 C2711 C 0.65188 0.51356 0.20687
 C2712 C 0.63169 0.51389 0.22048
 C2713 C 0.62762 0.53641 0.21304
 C2714 C 0.64730 0.53622 0.19927
 C2715 C 0.63979 0.54562 0.23169
 C2716 C 0.64440 0.52292 0.23928
 C2717 C 0.66426 0.52264 0.22558
 C2718 C 0.65990 0.54521 0.21805
 H2719 H 0.65706 0.50032 0.19677
 H2720 H 0.61970 0.50126 0.22132
 H2721 H 0.64812 0.54185 0.18279
 H2722 H 0.63475 0.55887 0.24184
 H2723 H 0.64350 0.51732 0.25576
 H2724 H 0.67178 0.55796 0.21711
 C2725 C 0.65210 1.01416 0.70835
 C2726 C 0.63195 1.01486 0.72198
 C2727 C 0.62791 1.03721 0.71403
 C2728 C 0.64757 1.03665 0.70023
 C2729 C 0.64017 1.04680 0.73244
 C2730 C 0.64473 1.02427 0.74054
 C2731 C 0.66457 1.02362 0.72682
 C2732 C 0.66026 1.04602 0.71877
 H2733 H 0.65720 1.00067 0.69852
 H2734 H 0.61994 1.00228 0.72313
 H2735 H 0.64838 1.04188 0.68362
 H2736 H 0.63521 1.06030 0.74231
 H2737 H 0.64384 1.01906 0.75715
 H2738 H 0.67216 1.05871 0.71753
 C2739 C 0.84657 0.48496 0.29356
 C2740 C 0.85063 0.46229 0.30146
 C2741 C 0.87044 0.46155 0.28789
 C2742 C 0.86688 0.48407 0.28017
 C2743 C 0.85826 0.45238 0.26922
 C2744 C 0.83801 0.45335 0.28264
 C2745 C 0.83419 0.47592 0.27482
 C2746 C 0.85420 0.47509 0.26135
 H2747 H 0.84154 0.49841 0.30347
 H2748 H 0.84955 0.45686 0.31799
 H2749 H 0.87912 0.49645 0.27931
 H2750 H 0.86312 0.43893 0.25926
 H2751 H 0.82584 0.44090 0.28359
 H2752 H 0.85539 0.48047 0.24482
 C2753 C 0.83840 0.96768 0.79723
 C2754 C 0.85103 0.94898 0.78812
 C2755 C 0.87083 0.96260 0.78904
 C2756 C 0.85863 0.98115 0.79839
 C2757 C 0.86730 0.97057 0.76663
 C2758 C 0.84701 0.95714 0.76555
 C2759 C 0.83461 0.97575 0.77476
 C2760 C 0.85459 0.98927 0.77578
 H2761 H 0.82621 0.96658 0.80962
 H2762 H 0.84999 0.93239 0.79336
 H2763 H 0.86347 0.99098 0.81196
 H2764 H 0.87956 0.97158 0.75430
 H2765 H 0.84200 0.94735 0.75199
 H2766 H 0.85576 1.00588 0.77059
 C2767 C 0.41136 0.29567 0.78248
 C2768 C 0.39124 0.29629 0.76881
 C2769 C 0.37900 0.28702 0.78734
 C2770 C 0.39867 0.28662 0.80116
 C2771 C 0.38295 0.26453 0.77970
 C2772 C 0.39571 0.27363 0.76103
 C2773 C 0.41558 0.27313 0.77474
 C2774 C 0.40313 0.26398 0.79334
 H2775 H 0.42333 0.30831 0.78356
 H2776 H 0.38630 0.30964 0.75876
 H2777 H 0.39950 0.29213 0.81769
 H2778 H 0.37090 0.25198 0.77871
 H2779 H 0.39477 0.26816 0.74449
 H2780 H 0.40825 0.25064 0.80333
 C2781 C 0.89653 0.27506 0.26109
 C2782 C 0.88372 0.26594 0.27971
 C2783 C 0.88008 0.28840 0.28760
 C2784 C 0.89239 0.29771 0.26912
 C2785 C 0.89980 0.28760 0.30134
 C2786 C 0.90393 0.26499 0.29327
 C2787 C 0.91643 0.27417 0.27472
 C2788 C 0.91254 0.29667 0.28271
 H2789 H 0.89547 0.26978 0.24450
 H2790 H 0.87150 0.25356 0.27864
 H2791 H 0.88758 0.31122 0.25923
 H2792 H 0.90074 0.29293 0.31792
 H2793 H 0.90889 0.25149 0.30312
 H2794 H 0.92469 0.30912 0.28387
 C2795 C 0.33953 0.79585 0.46820
 C2796 C 0.35979 0.79674 0.48162
 C2797 C 0.37188 0.78756 0.46293
 C2798 C 0.35203 0.78690 0.44938
 C2799 C 0.36826 0.76505 0.47063
 C2800 C 0.35564 0.77404 0.48948
 C2801 C 0.33561 0.77329 0.47602
 C2802 C 0.34791 0.76424 0.45726
 H2803 H 0.32744 0.80839 0.46728
 H2804 H 0.36470 0.81017 0.49161
 H2805 H 0.35092 0.79234 0.43285
 H2806 H 0.38046 0.75263 0.47145
 H2807 H 0.35683 0.76863 0.50601
 H2808 H 0.34282 0.75081 0.44734
 C2809 C 0.35612 0.27223 0.99043
 C2810 C 0.36878 0.26314 0.97165
 C2811 C 0.37289 0.28564 0.96418
 C2812 C 0.36077 0.29490 0.98280
 C2813 C 0.35319 0.28545 0.95040
 C2814 C 0.34856 0.26280 0.95805
 C2815 C 0.33624 0.27195 0.97674
 C2816 C 0.34065 0.29449 0.96916
 H2817 H 0.35703 0.26666 1.00693
 H2818 H 0.38075 0.25051 0.97251
 H2819 H 0.36583 0.30816 0.99295
 H2820 H 0.35236 0.29104 0.93391
 H2821 H 0.34332 0.24955 0.94798
 H2822 H 0.32880 0.30726 0.96819
 C2823 C 0.79591 0.46703 0.33799
 C2824 C 0.79645 0.48072 0.35812
 C2825 C 0.78719 0.46216 0.37035
 C2826 C 0.78688 0.44831 0.35065
 C2827 C 0.76475 0.46971 0.36630
 C2828 C 0.77382 0.48842 0.35357
 C2829 C 0.77342 0.47470 0.33368
 C2830 C 0.76427 0.45606 0.34609
 H2831 H 0.80855 0.46600 0.32605
 H2832 H 0.80973 0.49085 0.36308
 H2833 H 0.79241 0.43179 0.34986
 H2834 H 0.75218 0.47066 0.37832
 H2835 H 0.76834 0.50495 0.35448
 H2836 H 0.75100 0.44602 0.34090
 C2837 C 0.78307 0.95385 0.83858
 C2838 C 0.80211 0.96270 0.85088
 C2839 C 0.78877 0.96244 0.87087
 C2840 C 0.76987 0.95335 0.85900
 C2841 C 0.78131 0.98499 0.86710
 C2842 C 0.79446 0.98541 0.84661
 C2843 C 0.77549 0.97645 0.83454
 C2844 C 0.76226 0.97610 0.85472
 H2845 H 0.78371 0.94120 0.82656
 H2846 H 0.81854 0.95703 0.84973
 H2847 H 0.75978 0.94010 0.86410
 H2848 H 0.78076 0.99756 0.87920
 H2849 H 0.80449 0.99865 0.84129
 H2850 H 0.74582 0.98171 0.85601
 C2851 C 0.26333 0.79148 0.40106
 C2852 C 0.28580 0.79966 0.39673
 C2853 C 0.28659 0.78574 0.37710
 C2854 C 0.26425 0.77773 0.38093
 C2855 C 0.29609 0.76743 0.38952
 C2856 C 0.29508 0.78122 0.40956
 C2857 C 0.27270 0.77310 0.41369
 C2858 C 0.27357 0.75926 0.39389
 H2859 H 0.24979 0.80127 0.40601
 H2860 H 0.29100 0.81630 0.39752
 H2861 H 0.25183 0.77647 0.36878
 H2862 H 0.30962 0.75759 0.38471
 H2863 H 0.30763 0.78258 0.42161
 H2864 H 0.26841 0.74262 0.39301
 C2865 C 0.26361 0.29264 0.90201
 C2866 C 0.28619 0.30054 0.89764
 C2867 C 0.28682 0.28655 0.87805
 C2868 C 0.26439 0.27882 0.88191
 C2869 C 0.29609 0.26817 0.89052
 C2870 C 0.29525 0.28202 0.91053
 C2871 C 0.27276 0.27419 0.91468
 C2872 C 0.27348 0.26029 0.89491
 H2873 H 0.25020 0.30260 0.90695
 H2874 H 0.29159 0.31712 0.89839
 H2875 H 0.25194 0.27767 0.86976
 H2876 H 0.30951 0.25814 0.88575
 H2877 H 0.30781 0.28327 0.92257
 H2878 H 0.26811 0.24371 0.89408
 C2879 C 0.48523 0.29333 0.84681
 C2880 C 0.46263 0.30107 0.85133
 C2881 C 0.46237 0.28736 0.87109
 C2882 C 0.48482 0.27981 0.86707
 C2883 C 0.45313 0.26869 0.85894
 C2884 C 0.45361 0.28225 0.83874
 C2885 C 0.47611 0.27460 0.83446
 C2886 C 0.47576 0.26100 0.85441
 H2887 H 0.49849 0.30338 0.84159
 H2888 H 0.45708 0.31758 0.85046
 H2889 H 0.49742 0.27897 0.87908
 H2890 H 0.43986 0.25859 0.86398
 H2891 H 0.44094 0.28318 0.82680
 H2892 H 0.48128 0.24449 0.85540
 C2893 C 0.95416 0.28274 0.33852
 C2894 C 0.95347 0.26914 0.35867
 C2895 C 0.96278 0.28771 0.37093
 C2896 C 0.96324 0.30147 0.35120
 C2897 C 0.98520 0.28002 0.36701
 C2898 C 0.97607 0.26130 0.35425
 C2899 C 0.97663 0.27494 0.33434
 C2900 C 0.98581 0.29358 0.34678
 H2901 H 0.94156 0.28379 0.32651
 H2902 H 0.94011 0.25910 0.36358
 H2903 H 0.95780 0.31802 0.35034
 H2904 H 0.99772 0.27906 0.37909
 H2905 H 0.98147 0.24474 0.35523
 H2906 H 0.99916 0.30354 0.34165
 C2907 C 0.48841 0.35385 0.77383
 C2908 C 0.46972 0.36656 0.76472
 C2909 C 0.46219 0.37067 0.78719
 C2910 C 0.48074 0.35846 0.79647
 C2911 C 0.44839 0.35096 0.78693
 C2912 C 0.45610 0.34634 0.76430
 C2913 C 0.47472 0.33394 0.77347
 C2914 C 0.46708 0.33831 0.79599
 H2915 H 0.50490 0.35474 0.76832
 H2916 H 0.47064 0.37855 0.75211
 H2917 H 0.49085 0.36348 0.80976
 H2918 H 0.43190 0.35018 0.79247
 H2919 H 0.44606 0.34112 0.75103
 H2920 H 0.46607 0.32640 0.80868
 C2921 C 0.96795 0.33824 0.29627
 C2922 C 0.98129 0.35860 0.29702
 C2923 C 0.96259 0.37059 0.28775
 C2924 C 0.94911 0.35067 0.28723
 C2925 C 0.97030 0.36683 0.26529
 C2926 C 0.98915 0.35432 0.27436
 C2927 C 0.97577 0.33421 0.27375
 C2928 C 0.95700 0.34641 0.26461
 H2929 H 0.96706 0.32619 0.30883
 H2930 H 0.99124 0.36366 0.31041
 H2931 H 0.93261 0.34960 0.29269
 H2932 H 0.97109 0.37896 0.25280
 H2933 H 1.00566 0.35552 0.26895
 H2934 H 0.94710 0.34117 0.25124
 C2935 C 0.29270 0.84808 0.48560
 C2936 C 0.30065 0.85228 0.46300
 C2937 C 0.28721 0.87221 0.46244
 C2938 C 0.27943 0.86850 0.48489
 C2939 C 0.26851 0.86020 0.45314
 C2940 C 0.28182 0.83984 0.45393
 C2941 C 0.27394 0.83584 0.47643
 C2942 C 0.26058 0.85595 0.47578
 H2943 H 0.30256 0.84289 0.49901
 H2944 H 0.31716 0.85114 0.45760
 H2945 H 0.27863 0.88066 0.49738
 H2946 H 0.25862 0.86524 0.43971
 H2947 H 0.28272 0.82779 0.44132
 H2948 H 0.24406 0.85717 0.48116
 C2949 C 0.26054 0.35600 0.97832
 C2950 C 0.27923 0.36882 0.98737
 C2951 C 0.28657 0.37310 0.96487
 C2952 C 0.26802 0.36080 0.95565
 C2953 C 0.30048 0.35348 0.96490
 C2954 C 0.29297 0.34868 0.98754
 C2955 C 0.27435 0.33619 0.97842
 C2956 C 0.28180 0.34076 0.95588
 H2957 H 0.24408 0.35675 0.98396
 H2958 H 0.27833 0.38073 1.00008
 H2959 H 0.25777 0.36580 0.94248
 H2960 H 0.31693 0.35281 0.95923
 H2961 H 0.30312 0.34347 1.00071
 H2962 H 0.28279 0.32895 0.94305
 C2963 C 0.79404 0.40336 0.26392
 C2964 C 0.80164 0.39915 0.28666
 C2965 C 0.78810 0.37926 0.28702
 C2966 C 0.78069 0.38297 0.26443
 C2967 C 0.76933 0.39132 0.29601
 C2968 C 0.78271 0.41165 0.29541
 C2969 C 0.77519 0.41562 0.27278
 C2970 C 0.76176 0.39554 0.27324
 H2971 H 0.80410 0.40855 0.25067
 H2972 H 0.81807 0.40021 0.29235
 H2973 H 0.78002 0.37079 0.25195
 H2974 H 0.75921 0.38631 0.30926
 H2975 H 0.78348 0.42374 0.30798
 H2976 H 0.74532 0.39435 0.26759
   
