data_POSCAR
  _audit_creation_date              2014-09-24
  _audit_creation_method            'ToBaCCo'
  _symmetry_space_group_name_H-M    'P1'
  _symmetry_Int_Tables_number       1
  _symmetry_cell_setting            triclinic
  loop_
  _symmetry_equiv_pos_as_xyz
 x,y,z
_cell_length_a 54.6675
_cell_length_b 57.7647
_cell_length_c 52.4863
_cell_angle_alpha 89.810800
_cell_angle_beta 90.593900
_cell_angle_gamma 90.111000
loop_
  _atom_site_label
  _atom_site_type_symbol
  _atom_site_fract_x
  _atom_site_fract_y
  _atom_site_fract_z
N1 N 0.37701 0.31125 0.32514
 N2 N 0.37618 0.32589 0.30588
 C3 C 0.39271 0.31962 0.28841
 C4 C 0.40460 0.30029 0.29740
 C5 C 0.39435 0.29522 0.32069
 H6 H 0.39500 0.32765 0.26995
 H7 H 0.39773 0.28005 0.33232
 Cu8 Cu 0.35233 0.35064 0.30427
 Cu9 Cu 0.35209 0.31118 0.35157
 Cu10 Cu 0.30868 0.35507 0.34828
 N11 N 0.32871 0.37564 0.30324
 N12 N 0.31254 0.37819 0.32142
 C13 C 0.29785 0.39620 0.31558
 C14 C 0.30533 0.40513 0.29252
 C15 C 0.32462 0.39164 0.28498
 H16 H 0.28165 0.40099 0.32595
 H17 H 0.33398 0.39260 0.26696
 N18 N 0.30786 0.33003 0.37390
 N19 N 0.32488 0.31386 0.37589
 C20 C 0.31798 0.29821 0.39359
 C21 C 0.29552 0.30492 0.40276
 C22 C 0.28949 0.32490 0.38990
 H23 H 0.32738 0.28217 0.39779
 H24 H 0.27238 0.33417 0.39101
 H25 H 0.32494 0.32717 0.33004
 H26 H 0.34519 0.34615 0.34981
 N27 N 0.36601 0.80278 -0.18128
 N28 N 0.36551 0.81700 -0.20097
 C29 C 0.38627 0.81454 -0.21433
 C30 C 0.39997 0.79760 -0.20246
 C31 C 0.38698 0.79061 -0.18150
 H32 H 0.39153 0.82514 -0.23040
 H33 H 0.39289 0.77859 -0.16685
 Cu34 Cu 0.33905 0.83901 -0.20580
 Cu35 Cu 0.34030 0.80221 -0.15582
 Cu36 Cu 0.29343 0.84200 -0.16387
 N37 N 0.31749 0.86573 -0.20474
 N38 N 0.29967 0.86682 -0.18811
 C39 C 0.28846 0.88749 -0.19018
 C40 C 0.29981 0.89965 -0.20930
 C41 C 0.31839 0.88575 -0.21798
 H42 H 0.27421 0.89361 -0.17775
 H43 H 0.33221 0.89024 -0.23176
 N44 N 0.29402 0.81894 -0.13622
 N45 N 0.31228 0.80431 -0.13243
 C46 C 0.30699 0.79059 -0.11235
 C47 C 0.28436 0.79706 -0.10343
 C48 C 0.27650 0.81478 -0.11898
 H49 H 0.31787 0.77607 -0.10585
 H50 H 0.25900 0.82343 -0.11829
 H51 H 0.31309 0.81463 -0.17888
 H52 H 0.33055 0.83680 -0.16041
 N53 N 0.87434 0.31289 -0.18241
 N54 N 0.86826 0.32669 -0.20143
 C55 C 0.88240 0.32193 -0.22161
 C56 C 0.89851 0.30478 -0.21438
 C57 C 0.89300 0.29923 -0.18951
 H58 H 0.88073 0.32988 -0.24022
 H59 H 0.90072 0.28535 -0.17814
 Cu60 Cu 0.84244 0.34945 -0.19781
 Cu61 Cu 0.85568 0.31190 -0.15104
 Cu62 Cu 0.80307 0.34555 -0.14914
 N63 N 0.81594 0.37144 -0.19412
 N64 N 0.80056 0.36987 -0.17504
 C65 C 0.78582 0.38855 -0.17528
 C66 C 0.79221 0.40211 -0.19582
 C67 C 0.81160 0.39118 -0.20714
 H68 H 0.77297 0.39286 -0.16051
 H69 H 0.82290 0.39800 -0.22221
 N70 N 0.80984 0.32027 -0.12467
 N71 N 0.82974 0.30735 -0.12574
 C72 C 0.82780 0.28975 -0.10899
 C73 C 0.80607 0.29222 -0.09637
 C74 C 0.79496 0.31160 -0.10663
 H75 H 0.84057 0.27556 -0.10712
 H76 H 0.77671 0.31774 -0.10269
 H77 H 0.82359 0.32189 -0.16946
 H78 H 0.83990 0.34530 -0.15150
 N79 N 0.87044 0.80919 0.31527
 N80 N 0.86678 0.82438 0.29689
 C81 C 0.88415 0.82166 0.27912
 C82 C 0.89963 0.80427 0.28731
 C83 C 0.89052 0.79667 0.31024
 H84 H 0.88458 0.83056 0.26098
 H85 H 0.89643 0.78160 0.32092
 Cu86 Cu 0.83829 0.84466 0.29663
 Cu87 Cu 0.84557 0.80276 0.34030
 Cu88 Cu 0.80249 0.84546 0.34907
 N89 N 0.81547 0.86977 0.30317
 N90 N 0.80188 0.87023 0.32375
 C91 C 0.78919 0.89020 0.32420
 C92 C 0.79505 0.90255 0.30262
 C93 C 0.81201 0.88951 0.28983
 H94 H 0.77762 0.89576 0.33960
 H95 H 0.82204 0.89450 0.27302
 N96 N 0.80601 0.81849 0.37214
 N97 N 0.82188 0.80174 0.36798
 C98 C 0.81754 0.78407 0.38408
 C99 C 0.79854 0.79031 0.39946
 C100 C 0.79142 0.81212 0.39153
 H101 H 0.82663 0.76747 0.38382
 H102 H 0.77555 0.82158 0.39782
 H103 H 0.81481 0.81999 0.32550
 H104 H 0.83865 0.83775 0.34230
 N105 N 0.62478 0.68624 0.32320
 N106 N 0.62575 0.67071 0.30493
 C107 C 0.61010 0.67660 0.28610
 C108 C 0.59833 0.69644 0.29336
 C109 C 0.60797 0.70239 0.31688
 H110 H 0.60795 0.66754 0.26822
 H111 H 0.60424 0.71785 0.32772
 Cu112 Cu 0.64802 0.64486 0.30720
 Cu113 Cu 0.64721 0.68515 0.35245
 Cu114 Cu 0.69350 0.64375 0.34999
 N115 N 0.67354 0.62189 0.30530
 N116 N 0.69059 0.62050 0.32312
 C117 C 0.70644 0.60362 0.31698
 C118 C 0.69881 0.59439 0.29400
 C119 C 0.67826 0.60651 0.28681
 H120 H 0.72329 0.59984 0.32713
 H121 H 0.66823 0.60501 0.26902
 N122 N 0.69286 0.66884 0.37546
 N123 N 0.67509 0.68433 0.37672
 C124 C 0.68109 0.70029 0.39443
 C125 C 0.70362 0.69441 0.40453
 C126 C 0.71073 0.67468 0.39210
 H127 H 0.67095 0.71597 0.39805
 H128 H 0.72818 0.66605 0.39404
 H129 H 0.67464 0.67036 0.33130
 H130 H 0.65705 0.65073 0.35252
 N131 N 0.62880 0.18823 -0.18694
 N132 N 0.63470 0.17477 -0.20610
 C133 C 0.61875 0.17815 -0.22546
 C134 C 0.60177 0.19414 -0.21767
 C135 C 0.60858 0.20035 -0.19324
 H136 H 0.62010 0.17047 -0.24415
 H137 H 0.60079 0.21405 -0.18193
 Cu138 Cu 0.66357 0.15522 -0.20491
 Cu139 Cu 0.65042 0.19226 -0.15758
 Cu140 Cu 0.69730 0.15284 -0.15065
 N141 N 0.68661 0.13033 -0.19806
 N142 N 0.69972 0.12949 -0.17690
 C143 C 0.71259 0.10967 -0.17625
 C144 C 0.70732 0.09782 -0.19828
 C145 C 0.69052 0.11095 -0.21161
 H146 H 0.72355 0.10366 -0.16027
 H147 H 0.68069 0.10614 -0.22878
 N148 N 0.69189 0.17799 -0.12633
 N149 N 0.67441 0.19354 -0.12939
 C150 C 0.67782 0.21063 -0.11231
 C151 C 0.69796 0.20510 -0.09760
 C152 C 0.70658 0.18442 -0.10686
 H153 H 0.66744 0.22654 -0.11167
 H154 H 0.72350 0.17598 -0.10146
 H155 H 0.68257 0.17950 -0.17257
 H156 H 0.66052 0.15776 -0.15909
 N157 N 0.12249 0.68669 -0.17655
 N158 N 0.12295 0.67130 -0.19499
 C159 C 0.10790 0.67802 -0.21400
 C160 C 0.09695 0.69826 -0.20666
 C161 C 0.10652 0.70358 -0.18291
 H162 H 0.10555 0.66917 -0.23199
 H163 H 0.10331 0.71906 -0.17190
 Cu164 Cu 0.14378 0.64443 -0.19278
 Cu165 Cu 0.14450 0.68424 -0.14702
 Cu166 Cu 0.18974 0.64172 -0.15059
 N167 N 0.16915 0.62149 -0.19593
 N168 N 0.18654 0.61950 -0.17853
 C169 C 0.20235 0.60296 -0.18584
 C170 C 0.19430 0.59460 -0.20910
 C171 C 0.17354 0.60686 -0.21521
 H172 H 0.21938 0.59883 -0.17620
 H173 H 0.16311 0.60600 -0.23281
 N174 N 0.18939 0.66599 -0.12406
 N175 N 0.17214 0.68196 -0.12247
 C176 C 0.17860 0.69738 -0.10434
 C177 C 0.20088 0.69063 -0.09426
 C178 C 0.20736 0.67096 -0.10721
 H179 H 0.16912 0.71341 -0.10060
 H180 H 0.22464 0.66199 -0.10568
 H181 H 0.17141 0.66894 -0.16850
 H182 H 0.15351 0.64952 -0.14739
 N183 N 0.12563 0.18763 0.32377
 N184 N 0.12566 0.17293 0.30467
 C185 C 0.10840 0.17918 0.28753
 C186 C 0.09687 0.19854 0.29663
 C187 C 0.10811 0.20367 0.31961
 H188 H 0.10533 0.17112 0.26922
 H189 H 0.10517 0.21880 0.33123
 Cu190 Cu 0.14970 0.14826 0.30278
 Cu191 Cu 0.15131 0.18753 0.34985
 Cu192 Cu 0.19462 0.14369 0.34631
 N193 N 0.17356 0.12340 0.30134
 N194 N 0.19031 0.12091 0.31931
 C195 C 0.20508 0.10311 0.31332
 C196 C 0.19707 0.09427 0.29031
 C197 C 0.17737 0.10761 0.28296
 H198 H 0.22155 0.09838 0.32362
 H199 H 0.16744 0.10661 0.26508
 N200 N 0.19588 0.16836 0.37216
 N201 N 0.17900 0.18462 0.37407
 C202 C 0.18627 0.20010 0.39180
 C203 C 0.20877 0.19318 0.40109
 C204 C 0.21448 0.17321 0.38832
 H205 H 0.17699 0.21613 0.39602
 H206 H 0.23149 0.16374 0.38967
 H207 H 0.17787 0.17158 0.32817
 H208 H 0.15822 0.15253 0.34818
 N209 N 0.62602 0.31411 0.67644
 N210 N 0.62735 0.32793 0.69630
 C211 C 0.61015 0.32183 0.71320
 C212 C 0.59709 0.30366 0.70311
 C213 C 0.60753 0.29892 0.67985
 H214 H 0.60823 0.32902 0.73207
 H215 H 0.60358 0.28429 0.66766
 Cu216 Cu 0.65290 0.35104 0.69947
 Cu217 Cu 0.65152 0.31386 0.65049
 Cu218 Cu 0.69839 0.35445 0.65772
 N219 N 0.67885 0.37372 0.70350
 N220 N 0.69590 0.37600 0.68616
 C221 C 0.71137 0.39310 0.69318
 C222 C 0.70351 0.40153 0.71627
 C223 C 0.68314 0.38883 0.72252
 H224 H 0.72770 0.39808 0.68306
 H225 H 0.67252 0.39032 0.73970
 N226 N 0.69770 0.33107 0.63038
 N227 N 0.67954 0.31616 0.62701
 C228 C 0.68571 0.30115 0.60850
 C229 C 0.70881 0.30694 0.60025
 C230 C 0.71600 0.32572 0.61448
 H231 H 0.67529 0.28597 0.60311
 H232 H 0.73381 0.33389 0.61435
 H233 H 0.67916 0.32697 0.67349
 H234 H 0.66138 0.34816 0.65397
 N235 N 0.62723 0.81474 1.18011
 N236 N 0.62926 0.82931 1.19926
 C237 C 0.61349 0.82330 1.21761
 C238 C 0.60043 0.80448 1.20911
 C239 C 0.60951 0.79919 1.18535
 H240 H 0.61220 0.83149 1.23605
 H241 H 0.60487 0.78439 1.17367
 Cu242 Cu 0.65300 0.85409 1.19882
 Cu243 Cu 0.64967 0.81612 1.15127
 Cu244 Cu 0.69843 0.85503 1.15691
 N245 N 0.67998 0.87547 1.20269
 N246 N 0.69705 0.87692 1.18524
 C247 C 0.71332 0.89339 1.19214
 C248 C 0.70596 0.90218 1.21526
 C249 C 0.68506 0.89038 1.22166
 H250 H 0.72978 0.89771 1.18190
 H251 H 0.67453 0.89234 1.23885
 N252 N 0.69608 0.83138 1.12983
 N253 N 0.67738 0.81695 1.12727
 C254 C 0.68244 0.80158 1.10876
 C255 C 0.70536 0.80669 1.09953
 C256 C 0.71365 0.82534 1.11335
 H257 H 0.67150 0.78650 1.10424
 H258 H 0.73178 0.83282 1.11268
 H259 H 0.67819 0.82846 1.17370
 H260 H 0.66171 0.84988 1.15339
 N261 N 0.12376 0.31805 1.17997
 N262 N 0.12913 0.33315 1.19795
 C263 C 0.11560 0.32854 1.21868
 C264 C 0.10049 0.31014 1.21289
 C265 C 0.10598 0.30379 1.18827
 H266 H 0.11728 0.33726 1.23682
 H267 H 0.09906 0.28892 1.17798
 Cu268 Cu 0.15475 0.35600 1.19270
 Cu269 Cu 0.14270 0.31610 1.14859
 Cu270 Cu 0.19824 0.34602 1.15079
 N271 N 0.18022 0.37900 1.18702
 N272 N 0.19803 0.37432 1.17115
 C273 C 0.21600 0.39007 1.17415
 C274 C 0.20873 0.40571 1.19236
 C275 C 0.18598 0.39826 1.20025
 H276 H 0.23370 0.38922 1.16517
 H277 H 0.17585 0.40481 1.21625
 N278 N 0.19051 0.32216 1.12509
 N279 N 0.16963 0.31053 1.12450
 C280 C 0.17110 0.29369 1.10686
 C281 C 0.19365 0.29536 1.09554
 C282 C 0.20555 0.31350 1.10736
 H283 H 0.15731 0.28058 1.10341
 H284 H 0.22430 0.31885 1.10452
 H285 H 0.17287 0.32423 1.16919
 H286 H 0.16136 0.34772 1.14786
 N287 N 0.12789 0.81362 0.67900
 N288 N 0.13021 0.82884 0.69750
 C289 C 0.11386 0.82407 0.71577
 C290 C 0.10020 0.80540 0.70787
 C291 C 0.10947 0.79893 0.68456
 H292 H 0.11251 0.83294 0.73381
 H293 H 0.10445 0.78388 0.67347
 Cu294 Cu 0.15529 0.85256 0.69636
 Cu295 Cu 0.15066 0.81306 0.65043
 Cu296 Cu 0.19992 0.85151 0.65361
 N297 N 0.18173 0.87494 0.69785
 N298 N 0.19852 0.87543 0.68004
 C299 C 0.21490 0.89224 0.68558
 C300 C 0.20792 0.90235 0.70820
 C301 C 0.18716 0.89085 0.71573
 H302 H 0.23144 0.89566 0.67507
 H303 H 0.17726 0.89343 0.73322
 N304 N 0.19769 0.82594 0.62862
 N305 N 0.17874 0.81169 0.62700
 C306 C 0.18337 0.79540 0.60935
 C307 C 0.20632 0.79965 0.59972
 C308 C 0.21508 0.81880 0.61241
 H309 H 0.17188 0.78058 0.60531
 H310 H 0.23312 0.82631 0.61070
 H311 H 0.17952 0.82604 0.67174
 H312 H 0.16294 0.84702 0.65089
 N313 N 0.37325 0.69638 0.68718
 N314 N 0.37305 0.67968 0.70436
 C315 C 0.38971 0.68446 0.72271
 C316 C 0.40096 0.70496 0.71636
 C317 C 0.39024 0.71220 0.69381
 H318 H 0.39319 0.67405 0.73953
 H319 H 0.39384 0.72813 0.68362
 Cu320 Cu 0.35049 0.65386 0.70113
 Cu321 Cu 0.34983 0.69725 0.65901
 Cu322 Cu 0.31031 0.65026 0.65243
 N323 N 0.32820 0.62784 0.69791
 N324 N 0.31303 0.62587 0.67836
 C325 C 0.29840 0.60733 0.68214
 C326 C 0.30498 0.59740 0.70523
 C327 C 0.32359 0.61090 0.71483
 H328 H 0.28273 0.60286 0.67041
 H329 H 0.33185 0.60942 0.73357
 N330 N 0.31042 0.67690 0.62853
 N331 N 0.32494 0.69504 0.63173
 C332 C 0.31828 0.71180 0.61521
 C333 C 0.29908 0.70367 0.60075
 C334 C 0.29434 0.68156 0.60949
 H335 H 0.32584 0.72909 0.61464
 H336 H 0.27913 0.67063 0.60395
 H337 H 0.32245 0.67717 0.67533
 H338 H 0.34558 0.66201 0.65578
 N339 N 0.37775 0.18207 1.18034
 N340 N 0.37260 0.16681 1.19822
 C341 C 0.38642 0.17120 1.21905
 C342 C 0.40146 0.18963 1.21344
 C343 C 0.39568 0.19622 1.18881
 H344 H 0.38497 0.16231 1.23714
 H345 H 0.40249 0.21117 1.17863
 Cu346 Cu 0.34676 0.14411 1.19297
 Cu347 Cu 0.35824 0.18440 1.14899
 Cu348 Cu 0.30256 0.15504 1.15084
 N349 N 0.32135 0.12119 1.18626
 N350 N 0.30337 0.12625 1.17033
 C351 C 0.28538 0.11052 1.17283
 C352 C 0.29277 0.09448 1.19076
 C353 C 0.31564 0.10166 1.19904
 H354 H 0.26751 0.11176 1.16390
 H355 H 0.32580 0.09484 1.21517
 N356 N 0.31002 0.17913 1.12544
 N357 N 0.33102 0.19053 1.12487
 C358 C 0.32945 0.20744 1.10715
 C359 C 0.30666 0.20603 1.09581
 C360 C 0.29475 0.18801 1.10769
 H361 H 0.34335 0.22038 1.10365
 H362 H 0.27593 0.18278 1.10478
 H363 H 0.32815 0.17617 1.16966
 H364 H 0.33905 0.15276 1.14822
 N365 N 0.87863 0.68271 1.17695
 N366 N 0.87390 0.66886 1.19626
 C367 C 0.88824 0.67476 1.21625
 C368 C 0.90307 0.69275 1.20859
 C369 C 0.89665 0.69747 1.18364
 H370 H 0.88726 0.66722 1.23512
 H371 H 0.90297 0.71173 1.17204
 Cu372 Cu 0.84849 0.64533 1.19367
 Cu373 Cu 0.85839 0.68306 1.14616
 Cu374 Cu 0.80235 0.65569 1.15319
 N375 N 0.82225 0.62281 1.18883
 N376 N 0.80376 0.62751 1.17343
 C377 C 0.78594 0.61178 1.17686
 C378 C 0.79400 0.59606 1.19479
 C379 C 0.81701 0.60352 1.20228
 H380 H 0.76782 0.61276 1.16849
 H381 H 0.82774 0.59699 1.21815
 N382 N 0.80892 0.67835 1.12614
 N383 N 0.83040 0.68842 1.12294
 C384 C 0.82856 0.70401 1.10382
 C385 C 0.80486 0.70332 1.09462
 C386 C 0.79286 0.68697 1.10907
 H387 H 0.84288 0.71584 1.09816
 H388 H 0.77364 0.68253 1.10805
 H389 H 0.82973 0.67684 1.16932
 H390 H 0.83871 0.65200 1.14880
 N391 N 0.87373 0.18648 0.67733
 N392 N 0.87250 0.17250 0.69708
 C393 C 0.88983 0.17839 0.71425
 C394 C 0.90278 0.19671 0.70452
 C395 C 0.89221 0.20169 0.68112
 H396 H 0.89185 0.17099 0.73311
 H397 H 0.89609 0.21642 0.66907
 Cu398 Cu 0.84674 0.14960 0.70024
 Cu399 Cu 0.84798 0.18713 0.65126
 Cu400 Cu 0.80084 0.14688 0.65758
 N401 N 0.82088 0.12677 0.70320
 N402 N 0.80359 0.12488 0.68573
 C403 C 0.78795 0.10792 0.69257
 C404 C 0.79601 0.09915 0.71563
 C405 C 0.81665 0.11147 0.72209
 H406 H 0.77137 0.10330 0.68239
 H407 H 0.82739 0.10976 0.73941
 N408 N 0.80152 0.17060 0.63050
 N409 N 0.81985 0.18531 0.62743
 C410 C 0.81383 0.20051 0.60884
 C411 C 0.79064 0.19505 0.60021
 C412 C 0.78324 0.17624 0.61425
 H413 H 0.82447 0.21556 0.60361
 H414 H 0.76536 0.16822 0.61373
 H415 H 0.82025 0.17406 0.67403
 H416 H 0.83773 0.15286 0.65479
 N417 N 0.31047 0.38146 0.67428
 N418 N 0.32834 0.38097 0.69127
 C419 C 0.32471 0.39760 0.70868
 C420 C 0.30400 0.40958 0.70166
 C421 C 0.29513 0.39891 0.67992
 H422 H 0.33545 0.39996 0.72590
 H423 H 0.27777 0.40213 0.67050
 Cu424 Cu 0.35325 0.35733 0.69021
 Cu425 Cu 0.30610 0.35663 0.64934
 Cu426 Cu 0.35205 0.31472 0.64759
 N427 N 0.37527 0.33134 0.69339
 N428 N 0.37559 0.31503 0.67594
 C429 C 0.39254 0.29911 0.68251
 C430 C 0.40292 0.30595 0.70539
 C431 C 0.39140 0.32613 0.71205
 H432 H 0.39583 0.28315 0.67240
 H433 H 0.39409 0.33591 0.72940
 N434 N 0.32302 0.31431 0.62477
 N435 N 0.30546 0.33002 0.62576
 C436 C 0.28700 0.32361 0.61011
 C437 C 0.29347 0.30319 0.59869
 C438 C 0.31628 0.29756 0.60826
 H439 H 0.26974 0.33255 0.60795
 H440 H 0.32636 0.28180 0.60483
 H441 H 0.32551 0.33096 0.66880
 H442 H 0.34235 0.34935 0.64566
 N443 N 0.31439 0.87963 0.17821
 N444 N 0.33019 0.87584 0.19683
 C445 C 0.32552 0.89019 0.21627
 C446 C 0.30642 0.90419 0.20906
 C447 C 0.29947 0.89715 0.18488
 H448 H 0.33489 0.89010 0.23452
 H449 H 0.28391 0.90315 0.17382
 Cu450 Cu 0.35555 0.85265 0.19448
 Cu451 Cu 0.31328 0.85967 0.14821
 Cu452 Cu 0.34935 0.81014 0.15176
 N453 N 0.37917 0.82784 0.19229
 N454 N 0.37731 0.81140 0.17509
 C455 C 0.39468 0.79530 0.17974
 C456 C 0.40782 0.80233 0.20101
 C457 C 0.39747 0.82274 0.20864
 H458 H 0.39607 0.77889 0.17002
 H459 H 0.40180 0.83221 0.22585
 N460 N 0.32342 0.81444 0.12578
 N461 N 0.30928 0.83300 0.12495
 C462 C 0.29107 0.82943 0.10788
 C463 C 0.29437 0.80793 0.09719
 C464 C 0.31496 0.79881 0.10879
 H465 H 0.27584 0.84102 0.10455
 H466 H 0.32198 0.78146 0.10653
 H467 H 0.32447 0.83206 0.16995
 H468 H 0.34839 0.84499 0.14915
 N469 N 0.81235 0.37975 0.17981
 N470 N 0.83196 0.38038 0.19453
 C471 C 0.82945 0.39700 0.21216
 C472 C 0.80747 0.40781 0.20764
 C473 C 0.79682 0.39649 0.18718
 H474 H 0.84194 0.40002 0.22793
 H475 H 0.77840 0.39877 0.17989
 Cu476 Cu 0.85737 0.35764 0.19139
 Cu477 Cu 0.80694 0.35454 0.15554
 Cu478 Cu 0.85522 0.31540 0.14829
 N479 N 0.87736 0.33037 0.19507
 N480 N 0.87779 0.31416 0.17752
 C481 C 0.89392 0.29765 0.18477
 C482 C 0.90344 0.30409 0.20823
 C483 C 0.89238 0.32456 0.21443
 H484 H 0.89724 0.28172 0.17460
 H485 H 0.89482 0.33436 0.23179
 N486 N 0.82441 0.31401 0.12815
 N487 N 0.80559 0.32791 0.13208
 C488 C 0.78622 0.32036 0.11834
 C489 C 0.79350 0.30130 0.10480
 C490 C 0.81770 0.29758 0.11127
 H491 H 0.76810 0.32781 0.11855
 H492 H 0.82898 0.28321 0.10547
 H493 H 0.82999 0.32989 0.17202
 H494 H 0.84306 0.34964 0.14759
 N495 N 0.81520 0.88666 0.67271
 N496 N 0.83309 0.88551 0.68958
 C497 C 0.83044 0.90258 0.70670
 C498 C 0.81019 0.91529 0.69986
 C499 C 0.80075 0.90479 0.67828
 H500 H 0.84081 0.90420 0.72426
 H501 H 0.78313 0.90815 0.66948
 Cu502 Cu 0.85535 0.85950 0.69050
 Cu503 Cu 0.80864 0.86132 0.64912
 Cu504 Cu 0.84972 0.81532 0.64943
 N505 N 0.87763 0.83360 0.69157
 N506 N 0.87640 0.81683 0.67470
 C507 C 0.89300 0.80045 0.68100
 C508 C 0.90487 0.80759 0.70301
 C509 C 0.89454 0.82833 0.70946
 H510 H 0.89457 0.78378 0.67186
 H511 H 0.89809 0.83809 0.72665
 N512 N 0.82107 0.81713 0.62597
 N513 N 0.80505 0.83426 0.62671
 C514 C 0.78603 0.82931 0.61115
 C515 C 0.79055 0.80839 0.59983
 C516 C 0.81281 0.80095 0.60944
 H517 H 0.76970 0.83968 0.60889
 H518 H 0.82150 0.78450 0.60588
 H519 H 0.82504 0.83456 0.67012
 H520 H 0.84443 0.85027 0.64670
 N521 N 0.68395 0.61494 0.67407
 N522 N 0.66598 0.61508 0.69056
 C523 C 0.66973 0.59823 0.70791
 C524 C 0.69067 0.58653 0.70146
 C525 C 0.69945 0.59757 0.68002
 H526 H 0.65928 0.59591 0.72511
 H527 H 0.71712 0.59498 0.67141
 Cu528 Cu 0.64161 0.63942 0.68985
 Cu529 Cu 0.68885 0.64056 0.65030
 Cu530 Cu 0.64454 0.68394 0.64893
 N531 N 0.61787 0.66425 0.69070
 N532 N 0.61814 0.68107 0.67371
 C533 C 0.60118 0.69695 0.67999
 C534 C 0.59001 0.68956 0.70210
 C535 C 0.60123 0.66907 0.70860
 H536 H 0.59923 0.71376 0.67105
 H537 H 0.59882 0.65944 0.72610
 N538 N 0.67320 0.68373 0.62616
 N539 N 0.69050 0.66776 0.62754
 C540 C 0.70927 0.67417 0.61264
 C541 C 0.70324 0.69481 0.60119
 C542 C 0.68035 0.70056 0.60995
 H543 H 0.72639 0.66500 0.61091
 H544 H 0.67054 0.71646 0.60619
 H545 H 0.67039 0.66619 0.67045
 H546 H 0.65257 0.64938 0.64636
 N547 N 0.68543 0.11792 0.17216
 N548 N 0.66803 0.11710 0.18929
 C549 C 0.67287 0.10002 0.20603
 C550 C 0.69395 0.08902 0.19869
 C551 C 0.70180 0.10098 0.17733
 H552 H 0.66308 0.09715 0.22355
 H553 H 0.71933 0.09925 0.16817
 Cu554 Cu 0.64278 0.14054 0.19067
 Cu555 Cu 0.68788 0.14395 0.14802
 Cu556 Cu 0.64612 0.18887 0.15613
 N557 N 0.62072 0.16610 0.19681
 N558 N 0.62128 0.18462 0.18216
 C559 C 0.60473 0.20002 0.19045
 C560 C 0.59355 0.19055 0.21152
 C561 C 0.60420 0.16922 0.21536
 H562 H 0.60230 0.21733 0.18295
 H563 H 0.60082 0.15731 0.23088
 N564 N 0.67251 0.18994 0.13090
 N565 N 0.68791 0.17267 0.12704
 C566 C 0.70437 0.17935 0.10942
 C567 C 0.69902 0.20187 0.10247
 C568 C 0.67899 0.20814 0.11635
 H569 H 0.71991 0.16928 0.10342
 H570 H 0.67044 0.22500 0.11656
 H571 H 0.67215 0.16735 0.17263
 H572 H 0.65182 0.15447 0.14775
 N573 N 0.18698 0.62087 0.18129
 N574 N 0.16852 0.62163 0.19715
 C575 C 0.17165 0.60568 0.21557
 C576 C 0.19272 0.59381 0.21043
 C577 C 0.20228 0.60378 0.18870
 H578 H 0.16023 0.60375 0.23214
 H579 H 0.21994 0.60033 0.18043
 Cu580 Cu 0.14351 0.64480 0.19382
 Cu581 Cu 0.19171 0.64502 0.15552
 Cu582 Cu 0.14639 0.68765 0.15143
 N583 N 0.12352 0.67193 0.19735
 N584 N 0.12370 0.68848 0.18005
 C585 C 0.10794 0.70519 0.18699
 C586 C 0.09799 0.69858 0.21000
 C587 C 0.10837 0.67769 0.21628
 H588 H 0.10511 0.72134 0.17692
 H589 H 0.10541 0.66759 0.23337
 N590 N 0.17535 0.68698 0.12908
 N591 N 0.19270 0.67108 0.13099
 C592 C 0.21119 0.67687 0.11544
 C593 C 0.20496 0.69708 0.10313
 C594 C 0.18221 0.70317 0.11199
 H595 H 0.22829 0.66763 0.11387
 H596 H 0.17222 0.71884 0.10762
 H597 H 0.17205 0.67117 0.17376
 H598 H 0.15563 0.65320 0.14980
 N599 N 0.18594 0.11667 0.67517
 N600 N 0.16982 0.11792 0.69354
 C601 C 0.17409 0.10077 0.71044
 C602 C 0.19338 0.08778 0.70176
 C603 C 0.20064 0.09831 0.67941
 H604 H 0.16526 0.09898 0.72871
 H605 H 0.21707 0.09464 0.66887
 Cu606 Cu 0.14717 0.14377 0.69543
 Cu607 Cu 0.19053 0.14200 0.65095
 Cu608 Cu 0.15138 0.18915 0.65573
 N609 N 0.12461 0.16964 0.69750
 N610 N 0.12529 0.18673 0.68087
 C611 C 0.10800 0.20242 0.68678
 C612 C 0.09634 0.19465 0.70842
 C613 C 0.10743 0.17412 0.71500
 H614 H 0.10540 0.21889 0.67728
 H615 H 0.10376 0.16369 0.73170
 N616 N 0.17736 0.18722 0.62978
 N617 N 0.19253 0.16944 0.62858
 C618 C 0.21029 0.17437 0.61183
 C619 C 0.20562 0.19577 0.60147
 C620 C 0.18481 0.20372 0.61326
 H621 H 0.22618 0.16378 0.60835
 H622 H 0.17696 0.22083 0.61144
 H623 H 0.17695 0.16802 0.67367
 H624 H 0.15481 0.15428 0.65115
 N625 N 0.31048 0.62213 0.32670
 N626 N 0.32750 0.62178 0.30914
 C627 C 0.32211 0.60531 0.29193
 C628 C 0.30117 0.59415 0.29962
 C629 C 0.29393 0.60536 0.32155
 H630 H 0.33180 0.60259 0.27433
 H631 H 0.27691 0.60298 0.33154
 Cu632 Cu 0.35358 0.64445 0.30894
 Cu633 Cu 0.30947 0.64686 0.35229
 Cu634 Cu 0.35204 0.69146 0.34557
 N635 N 0.37645 0.66957 0.30379
 N636 N 0.37667 0.68756 0.31913
 C637 C 0.39371 0.70276 0.31115
 C638 C 0.40432 0.69370 0.28962
 C639 C 0.39281 0.67289 0.28514
 H640 H 0.39676 0.71979 0.31910
 H641 H 0.39552 0.66150 0.26911
 N642 N 0.32563 0.69196 0.37103
 N643 N 0.30997 0.67470 0.37427
 C644 C 0.29383 0.68066 0.39236
 C645 C 0.29945 0.70280 0.40028
 C646 C 0.31945 0.70958 0.38643
 H647 H 0.27826 0.67040 0.39807
 H648 H 0.32818 0.72639 0.38686
 H649 H 0.32531 0.67122 0.32843
 H650 H 0.34556 0.65704 0.35248
 N651 N 0.31158 0.12356 0.81622
 N652 N 0.33092 0.12418 0.80150
 C653 C 0.32871 0.10803 0.78321
 C654 C 0.30719 0.09630 0.78726
 C655 C 0.29658 0.10645 0.80822
 H656 H 0.34133 0.10557 0.76772
 H657 H 0.27869 0.10278 0.81586
 Cu658 Cu 0.35626 0.14704 0.80670
 Cu659 Cu 0.30597 0.14728 0.84206
 Cu660 Cu 0.35193 0.18866 0.85030
 N661 N 0.37638 0.17448 0.80483
 N662 N 0.37519 0.19071 0.82231
 C663 C 0.39050 0.20809 0.81604
 C664 C 0.40169 0.20212 0.79354
 C665 C 0.39205 0.18105 0.78660
 H666 H 0.39210 0.22434 0.82612
 H667 H 0.39541 0.17166 0.76918
 N668 N 0.32195 0.18772 0.87115
 N669 N 0.30401 0.17270 0.86708
 C670 C 0.28487 0.17834 0.88176
 C671 C 0.29136 0.19733 0.89602
 C672 C 0.31489 0.20300 0.88901
 H673 H 0.26731 0.16970 0.88168
 H674 H 0.32539 0.21790 0.89516
 H675 H 0.32748 0.17335 0.82599
 H676 H 0.34196 0.15421 0.85029
 N677 N 0.80973 0.62492 0.81807
 N678 N 0.82703 0.62666 0.80093
 C679 C 0.82311 0.61097 0.78244
 C680 C 0.80269 0.59844 0.78889
 C681 C 0.79444 0.60759 0.81147
 H682 H 0.83388 0.60920 0.76539
 H683 H 0.77779 0.60309 0.82131
 Cu684 Cu 0.85231 0.64980 0.80434
 Cu685 Cu 0.80628 0.64783 0.84505
 Cu686 Cu 0.84989 0.69213 0.84770
 N687 N 0.87451 0.67569 0.80299
 N688 N 0.87473 0.69171 0.82079
 C689 C 0.89168 0.70783 0.81480
 C690 C 0.90214 0.70130 0.79202
 C691 C 0.89067 0.68120 0.78484
 H692 H 0.89477 0.72379 0.82506
 H693 H 0.89327 0.67176 0.76731
 N694 N 0.82255 0.68924 0.87229
 N695 N 0.80582 0.67270 0.87066
 C696 C 0.78758 0.67739 0.88685
 C697 C 0.79340 0.69727 0.89982
 C698 C 0.81546 0.70469 0.89003
 H699 H 0.77048 0.66802 0.88788
 H700 H 0.82430 0.72112 0.89370
 H701 H 0.82394 0.67487 0.82629
 H702 H 0.84271 0.65735 0.84892
 N703 N 0.80828 0.12560 0.31912
 N704 N 0.82587 0.12717 0.30229
 C705 C 0.82230 0.11121 0.28402
 C706 C 0.80182 0.09875 0.29016
 C707 C 0.79311 0.10814 0.31245
 H708 H 0.83322 0.10930 0.26710
 H709 H 0.77630 0.10370 0.32200
 Cu710 Cu 0.85088 0.15080 0.30428
 Cu711 Cu 0.80473 0.14852 0.34595
 Cu712 Cu 0.84942 0.19137 0.35021
 N713 N 0.87480 0.17541 0.30614
 N714 N 0.87510 0.19085 0.32450
 C715 C 0.89269 0.20667 0.31957
 C716 C 0.90366 0.20051 0.29694
 C717 C 0.89165 0.18103 0.28872
 H718 H 0.89562 0.22247 0.33018
 H719 H 0.89398 0.17251 0.27059
 N720 N 0.82178 0.18895 0.37414
 N721 N 0.80437 0.17314 0.37176
 C722 C 0.78615 0.17809 0.38791
 C723 C 0.79266 0.19757 0.40128
 C724 C 0.81526 0.20418 0.39230
 H725 H 0.76888 0.16899 0.38893
 H726 H 0.82511 0.21985 0.39705
 H727 H 0.82283 0.17563 0.32761
 H728 H 0.84135 0.15669 0.34917
 N729 N 0.68867 0.38123 0.32186
 N730 N 0.67225 0.37910 0.30351
 C731 C 0.67642 0.39533 0.28558
 C732 C 0.69602 0.40854 0.29357
 C733 C 0.70354 0.39920 0.31656
 H734 H 0.66690 0.39664 0.26746
 H735 H 0.71989 0.40367 0.32725
 Cu736 Cu 0.64826 0.35422 0.30397
 Cu737 Cu 0.69256 0.35771 0.34823
 Cu738 Cu 0.64928 0.31359 0.35006
 N739 N 0.62468 0.32904 0.30445
 N740 N 0.62403 0.31410 0.32344
 C741 C 0.60643 0.29824 0.31866
 C742 C 0.59586 0.30365 0.29541
 C743 C 0.60793 0.32297 0.28670
 H744 H 0.60312 0.28292 0.33001
 H745 H 0.60548 0.33125 0.26834
 N746 N 0.67669 0.31604 0.37478
 N747 N 0.69357 0.33243 0.37340
 C748 C 0.71197 0.32737 0.38971
 C749 C 0.70613 0.30719 0.40212
 C750 C 0.68374 0.30029 0.39241
 H751 H 0.72896 0.33687 0.39142
 H752 H 0.67445 0.28413 0.39629
 H753 H 0.67597 0.33011 0.32909
 H754 H 0.65605 0.34848 0.34937
 N755 N 0.69317 0.87662 0.81749
 N756 N 0.67435 0.87669 0.80168
 C757 C 0.67731 0.89341 0.78409
 C758 C 0.69892 0.90453 0.78962
 C759 C 0.70872 0.89364 0.81082
 H760 H 0.66523 0.89655 0.76801
 H761 H 0.72633 0.89689 0.81968
 Cu762 Cu 0.64915 0.85355 0.80394
 Cu763 Cu 0.69723 0.85279 0.84356
 Cu764 Cu 0.64841 0.81440 0.85084
 N765 N 0.63059 0.82530 0.80074
 N766 N 0.62875 0.81051 0.81977
 C767 C 0.61320 0.79341 0.81293
 C768 C 0.60580 0.79777 0.78810
 C769 C 0.61708 0.81791 0.78085
 H770 H 0.60827 0.77880 0.82478
 H771 H 0.61516 0.82683 0.76279
 N772 N 0.67799 0.81405 0.87292
 N773 N 0.69709 0.82765 0.86894
 C774 C 0.71581 0.82074 0.88395
 C775 C 0.70792 0.80229 0.89822
 C776 C 0.68393 0.79831 0.89100
 H777 H 0.73403 0.82804 0.88392
 H778 H 0.67241 0.78408 0.89692
 H779 H 0.67500 0.82721 0.82760
 H780 H 0.66071 0.84870 0.84921
 N781 N 0.18803 0.38220 0.81779
 N782 N 0.16990 0.38088 0.80115
 C783 C 0.17313 0.39690 0.78280
 C784 C 0.19387 0.40934 0.78887
 C785 C 0.20309 0.39962 0.81102
 H786 H 0.16204 0.39856 0.76571
 H787 H 0.22052 0.40341 0.82002
 Cu788 Cu 0.14528 0.35691 0.80412
 Cu789 Cu 0.19347 0.35812 0.84351
 Cu790 Cu 0.14873 0.31510 0.84790
 N791 N 0.12361 0.33042 0.80252
 N792 N 0.12429 0.31423 0.82024
 C793 C 0.10748 0.29784 0.81453
 C794 C 0.09611 0.30430 0.79195
 C795 C 0.10694 0.32471 0.78461
 H796 H 0.10493 0.28187 0.82499
 H797 H 0.10345 0.33428 0.76721
 N798 N 0.17832 0.31599 0.87007
 N799 N 0.19545 0.33211 0.86795
 C800 C 0.21446 0.32664 0.88334
 C801 C 0.20873 0.30656 0.89601
 C802 C 0.18584 0.30004 0.88728
 H803 H 0.23154 0.33605 0.88460
 H804 H 0.17628 0.28416 0.89173
 H805 H 0.17416 0.33168 0.82553
 H806 H 0.15745 0.34996 0.84863
 N807 N 0.19137 0.87970 0.32382
 N808 N 0.17393 0.87937 0.30636
 C809 C 0.17810 0.89614 0.28913
 C810 C 0.19876 0.90795 0.29658
 C811 C 0.20704 0.89712 0.31854
 H812 H 0.16784 0.89869 0.27162
 H813 H 0.22421 0.90020 0.32838
 Cu814 Cu 0.14883 0.85570 0.30588
 Cu815 Cu 0.19462 0.85476 0.34884
 Cu816 Cu 0.14808 0.81377 0.35028
 N817 N 0.12442 0.83138 0.30537
 N818 N 0.12336 0.81545 0.32330
 C819 C 0.10535 0.80032 0.31749
 C820 C 0.09511 0.80718 0.29452
 C821 C 0.10770 0.82661 0.28716
 H822 H 0.10155 0.78456 0.32790
 H823 H 0.10577 0.83572 0.26922
 N824 N 0.17641 0.81304 0.37383
 N825 N 0.19458 0.82816 0.37265
 C826 C 0.21273 0.82126 0.38852
 C827 C 0.20516 0.80135 0.40057
 C828 C 0.18215 0.79651 0.39102
 H829 H 0.23043 0.82950 0.39041
 H830 H 0.17129 0.78129 0.39493
 H831 H 0.17540 0.82907 0.32905
 H832 H 0.15760 0.84795 0.35083
 C833 C 0.26920 0.95104 0.23578
 C834 C 0.25484 0.93956 0.25377
 C835 C 0.24086 0.95173 0.27139
 C836 C 0.24104 0.97612 0.27113
 C837 C 0.25526 0.98802 0.25280
 C838 C 0.26952 0.97543 0.23516
 C839 C 0.28406 0.98755 0.21768
 C840 C 0.28415 1.01170 0.21710
 C841 C 0.26943 1.02443 0.23375
 C842 C 0.25493 1.01252 0.25183
 C843 C 0.22673 0.98887 0.28815
 C844 C 0.22612 1.01299 0.28694
 C845 C 0.23989 1.02508 0.26875
 C846 C 0.23843 1.04936 0.26650
 C847 C 0.25244 1.06084 0.24821
 C848 C 0.26834 1.04877 0.23229
 H849 H 0.29548 0.97840 0.20431
 H850 H 0.29546 1.02033 0.20316
 H851 H 0.21560 0.98022 0.30225
 H852 H 0.21453 1.02212 0.30015
 H853 H 0.25438 0.92080 0.25401
 H854 H 0.25181 1.07957 0.24721
 C855 C 0.26272 0.45386 0.72659
 C856 C 0.24873 0.44186 0.74448
 C857 C 0.23499 0.45353 0.76265
 C858 C 0.23550 0.47790 0.76344
 C859 C 0.24909 0.49033 0.74497
 C860 C 0.26259 0.47827 0.72631
 C861 C 0.27610 0.49089 0.70834
 C862 C 0.27623 0.51507 0.70859
 C863 C 0.26287 0.52733 0.72684
 C864 C 0.24922 0.51486 0.74523
 C865 C 0.22233 0.49013 0.78184
 C866 C 0.22246 0.51426 0.78210
 C867 C 0.23577 0.52688 0.76397
 C868 C 0.23548 0.55124 0.76374
 C869 C 0.24931 0.56334 0.74582
 C870 C 0.26332 0.55175 0.72769
 H871 H 0.28672 0.48211 0.69400
 H872 H 0.28690 0.52412 0.69440
 H873 H 0.21176 0.48109 0.79611
 H874 H 0.21198 0.52300 0.79657
 H875 H 0.24868 0.42309 0.74437
 H876 H 0.24937 0.58209 0.74617
 C877 C 0.73637 0.04711 0.22851
 C878 C 0.74893 0.06121 0.24599
 C879 C 0.76316 0.05177 0.26563
 C880 C 0.76519 0.02764 0.26817
 C881 C 0.75327 0.01303 0.25030
 C882 C 0.73889 0.02276 0.23027
 C883 C 0.72697 0.00788 0.21304
 C884 C 0.72924 -0.01615 0.21539
 C885 C 0.74338 -0.02605 0.23516
 C886 C 0.75554 -0.01134 0.25270
 C887 C 0.77937 0.01784 0.28784
 C888 C 0.78167 -0.00606 0.29011
 C889 C 0.76977 -0.02095 0.27284
 C890 C 0.77179 -0.04518 0.27547
 C891 C 0.75910 -0.05959 0.25838
 C892 C 0.74496 -0.05028 0.23838
 H893 H 0.71570 0.01475 0.19770
 H894 H 0.71968 -0.02696 0.20171
 H895 H 0.78882 0.02861 0.30164
 H896 H 0.79279 -0.01278 0.30563
 H897 H 0.74743 0.07987 0.24451
 H898 H 0.76026 -0.07822 0.26048
 C899 C 0.73558 0.54665 0.72970
 C900 C 0.74887 0.56073 0.74650
 C901 C 0.76346 0.55124 0.76582
 C902 C 0.76459 0.52708 0.76892
 C903 C 0.75185 0.51253 0.75157
 C904 C 0.73756 0.52234 0.73160
 C905 C 0.72517 0.50763 0.71455
 C906 C 0.72687 0.48358 0.71708
 C907 C 0.74071 0.47355 0.73699
 C908 C 0.75324 0.48815 0.75439
 C909 C 0.77855 0.51714 0.78867
 C910 C 0.77955 0.49323 0.79171
 C911 C 0.76697 0.47845 0.77482
 C912 C 0.76799 0.45424 0.77799
 C913 C 0.75518 0.43992 0.76088
 C914 C 0.74166 0.44932 0.74046
 H915 H 0.71405 0.51465 0.69918
 H916 H 0.71700 0.47289 0.70352
 H917 H 0.78873 0.52782 0.80200
 H918 H 0.79032 0.48639 0.80744
 H919 H 0.74767 0.57939 0.74464
 H920 H 0.75575 0.42131 0.76333
 C921 C 0.26376 0.45040 0.26896
 C922 C 0.24923 0.43891 0.25087
 C923 C 0.23281 0.45094 0.23510
 C924 C 0.23140 0.47525 0.23681
 C925 C 0.24654 0.48720 0.25459
 C926 C 0.26236 0.47468 0.27113
 C927 C 0.27698 0.48679 0.28881
 C928 C 0.27647 0.51094 0.28984
 C929 C 0.26127 0.52371 0.27327
 C930 C 0.24614 0.51171 0.25552
 C931 C 0.21579 0.48796 0.22064
 C932 C 0.21572 0.51208 0.22125
 C933 C 0.23104 0.52421 0.23827
 C934 C 0.23137 0.54855 0.23864
 C935 C 0.24638 0.56021 0.25612
 C936 C 0.26141 0.54818 0.27339
 H937 H 0.28920 0.47767 0.30171
 H938 H 0.28837 0.51958 0.30343
 H939 H 0.20386 0.47933 0.20707
 H940 H 0.20361 0.52121 0.20822
 H941 H 0.24991 0.42019 0.24987
 H942 H 0.24661 0.57897 0.25595
 C943 C 0.76617 0.95464 0.72884
 C944 C 0.75422 0.94025 0.74622
 C945 C 0.73997 0.94939 0.76557
 C946 C 0.73756 0.97347 0.76801
 C947 C 0.74925 0.98830 0.75032
 C948 C 0.76349 0.97886 0.73048
 C949 C 0.77516 0.99386 0.71334
 C950 C 0.77281 1.01783 0.71569
 C951 C 0.75885 1.02748 0.73535
 C952 C 0.74688 1.01258 0.75269
 C953 C 0.72343 0.98300 0.78747
 C954 C 0.72108 1.00685 0.78977
 C955 C 0.73276 1.02191 0.77264
 C956 C 0.73060 1.04604 0.77521
 C957 C 0.74318 1.06071 0.75844
 C958 C 0.75726 1.05164 0.73865
 H959 H 0.78633 0.98713 0.69815
 H960 H 0.78219 1.02877 0.70213
 H961 H 0.71414 0.97207 0.80111
 H962 H 0.71015 1.01341 0.80523
 H963 H 0.75602 0.92162 0.74470
 H964 H 0.74192 1.07931 0.76054
 C965 C 0.76828 0.45220 0.23549
 C966 C 0.75318 0.44045 0.25253
 C967 C 0.73919 0.45238 0.27034
 C968 C 0.74047 0.47673 0.27145
 C969 C 0.75553 0.48886 0.25403
 C970 C 0.76956 0.47654 0.23604
 C971 C 0.78480 0.48880 0.21933
 C972 C 0.78577 0.51293 0.21985
 C973 C 0.77127 0.52548 0.23686
 C974 C 0.75616 0.51336 0.25424
 C975 C 0.72645 0.48927 0.28890
 C976 C 0.72677 0.51342 0.28883
 C977 C 0.74130 0.52571 0.27147
 C978 C 0.74066 0.55006 0.27025
 C979 C 0.75515 0.56178 0.25260
 C980 C 0.77080 0.54987 0.23633
 H981 H 0.79603 0.47980 0.20568
 H982 H 0.79758 0.52172 0.20648
 H983 H 0.71481 0.48047 0.30243
 H984 H 0.71527 0.52242 0.30222
 H985 H 0.75220 0.42173 0.25181
 H986 H 0.75488 0.58054 0.25219
 C987 C 0.27883 -0.04704 0.76443
 C988 C 0.26467 -0.06089 0.74800
 C989 C 0.24904 -0.05095 0.72965
 C990 C 0.24734 -0.02661 0.72757
 C991 C 0.26093 -0.01250 0.74461
 C992 C 0.27675 -0.02275 0.76299
 C993 C 0.28999 -0.00846 0.77984
 C994 C 0.28740 0.01549 0.77898
 C995 C 0.27157 0.02594 0.76119
 C996 C 0.25842 0.01192 0.74362
 C997 C 0.23174 -0.01604 0.70950
 C998 C 0.22932 0.00805 0.70845
 C999 C 0.24243 0.02229 0.72543
 C1000 C 0.23946 0.04658 0.72536
 C1001 C 0.25297 0.06013 0.74252
 C1002 C 0.26882 0.05013 0.76035
 H1003 H 0.30231 -0.01571 0.79403
 H1004 H 0.29791 0.02580 0.79239
 H1005 H 0.22108 -0.02637 0.69624
 H1006 H 0.21692 0.01546 0.69443
 H1007 H 0.26597 -0.07957 0.74917
 H1008 H 0.25084 0.07878 0.74224
 C1009 C 0.23533 0.26688 1.05121
 C1010 C 0.24948 0.25061 1.06446
 C1011 C 0.26411 0.23479 1.05154
 C1012 C 0.26491 0.23524 1.02471
 C1013 C 0.25008 0.25121 1.01106
 C1014 C 0.23510 0.26699 1.02437
 C1015 C 0.21995 0.28221 1.01054
 C1016 C 0.21930 0.28169 0.98397
 C1017 C 0.23429 0.26639 0.97044
 C1018 C 0.25021 0.25138 0.98408
 C1019 C 0.28034 0.22032 1.01123
 C1020 C 0.28122 0.22117 0.98467
 C1021 C 0.26621 0.23651 0.97079
 C1022 C 0.26634 0.23692 0.94392
 C1023 C 0.25023 0.25157 0.93064
 C1024 C 0.23416 0.26615 0.94359
 H1025 H 0.20821 0.29436 1.02021
 H1026 H 0.20719 0.29359 0.97407
 H1027 H 0.29204 0.20810 1.02117
 H1028 H 0.29348 0.20946 0.97505
 H1029 H 0.24921 0.25032 1.08511
 H1030 H 0.25016 0.25161 0.91000
 C1031 C 0.25444 0.72457 0.44603
 C1032 C 0.24099 0.74150 0.43285
 C1033 C 0.22484 0.75611 0.44564
 C1034 C 0.22289 0.75468 0.47235
 C1035 C 0.23714 0.73825 0.48598
 C1036 C 0.25230 0.72260 0.47270
 C1037 C 0.26582 0.70606 0.48653
 C1038 C 0.26568 0.70589 0.51311
 C1039 C 0.25198 0.72224 0.52662
 C1040 C 0.23697 0.73808 0.51298
 C1041 C 0.20790 0.77001 0.48583
 C1042 C 0.20783 0.76992 0.51241
 C1043 C 0.22264 0.75442 0.52629
 C1044 C 0.22439 0.75561 0.55307
 C1045 C 0.24032 0.74072 0.56620
 C1046 C 0.25385 0.72390 0.55335
 H1047 H 0.27712 0.69351 0.47691
 H1048 H 0.27687 0.69323 0.52302
 H1049 H 0.19673 0.78269 0.47592
 H1050 H 0.19665 0.78257 0.52204
 H1051 H 0.24245 0.74279 0.41232
 H1052 H 0.24175 0.74184 0.58677
 C1053 C 0.26462 0.76506 0.05545
 C1054 C 0.24714 0.75300 0.06961
 C1055 C 0.22910 0.73959 0.05760
 C1056 C 0.22805 0.73847 0.03080
 C1057 C 0.24589 0.75027 0.01625
 C1058 C 0.26440 0.76344 0.02862
 C1059 C 0.28201 0.77489 0.01384
 C1060 C 0.28143 0.77342 -0.01271
 C1061 C 0.26323 0.76044 -0.02528
 C1062 C 0.24534 0.74870 -0.01070
 C1063 C 0.21000 0.72528 0.01825
 C1064 C 0.20945 0.72375 -0.00825
 C1065 C 0.22695 0.73532 -0.02301
 C1066 C 0.22694 0.73331 -0.04975
 C1067 C 0.24422 0.74554 -0.06395
 C1068 C 0.26205 0.75934 -0.05211
 H1069 H 0.29632 0.78513 0.02275
 H1070 H 0.29538 0.78247 -0.02336
 H1071 H 0.19625 0.71595 0.02888
 H1072 H 0.19525 0.71334 -0.01712
 H1073 H 0.24778 0.75382 0.09024
 H1074 H 0.24374 0.74436 -0.08455
 C1075 C 0.26965 0.25931 0.55439
 C1076 C 0.25200 0.24612 0.56702
 C1077 C 0.23444 0.23328 0.55343
 C1078 C 0.23433 0.23388 0.52656
 C1079 C 0.25239 0.24689 0.51359
 C1080 C 0.27029 0.25943 0.52757
 C1081 C 0.28797 0.27233 0.51440
 C1082 C 0.28797 0.27299 0.48783
 C1083 C 0.27032 0.26074 0.47363
 C1084 C 0.25241 0.24755 0.48660
 C1085 C 0.21687 0.22140 0.51233
 C1086 C 0.21690 0.22203 0.48577
 C1087 C 0.23444 0.23511 0.47261
 C1088 C 0.23472 0.23566 0.44578
 C1089 C 0.25211 0.24920 0.43317
 C1090 C 0.26974 0.26185 0.44679
 H1091 H 0.30185 0.28211 0.52458
 H1092 H 0.30182 0.28329 0.47847
 H1093 H 0.20307 0.21102 0.52167
 H1094 H 0.20305 0.21221 0.47559
 H1095 H 0.25184 0.24605 0.58767
 H1096 H 0.25195 0.24982 0.41253
 C1097 C 0.76327 0.73278 0.94859
 C1098 C 0.74721 0.74691 0.93447
 C1099 C 0.72990 0.76083 0.94651
 C1100 C 0.72847 0.76086 0.97327
 C1101 C 0.74475 0.74693 0.98781
 C1102 C 0.76207 0.73270 0.97545
 C1103 C 0.77741 0.71839 0.99027
 C1104 C 0.77604 0.71837 1.01682
 C1105 C 0.75966 0.73304 1.02940
 C1106 C 0.74382 0.74739 1.01478
 C1107 C 0.71164 0.77509 0.98583
 C1108 C 0.71106 0.77589 1.01235
 C1109 C 0.72702 0.76222 1.02710
 C1110 C 0.72701 0.76340 1.05390
 C1111 C 0.74244 0.74891 1.06808
 C1112 C 0.75837 0.73361 1.05623
 H1113 H 0.79049 0.70699 0.98139
 H1114 H 0.78810 0.70695 1.02744
 H1115 H 0.69902 0.78596 0.97521
 H1116 H 0.69804 0.78734 1.02124
 H1117 H 0.74816 0.74714 0.91386
 H1118 H 0.74167 0.74917 1.08870
 C1119 C 0.73270 0.26490 0.55435
 C1120 C 0.74991 0.25144 0.56760
 C1121 C 0.76722 0.23823 0.55464
 C1122 C 0.76795 0.23896 0.52783
 C1123 C 0.75001 0.25179 0.51420
 C1124 C 0.73207 0.26451 0.52751
 C1125 C 0.71431 0.27696 0.51367
 C1126 C 0.71411 0.27682 0.48710
 C1127 C 0.73180 0.26437 0.47360
 C1128 C 0.74998 0.25186 0.48722
 C1129 C 0.78581 0.22674 0.51433
 C1130 C 0.78600 0.22709 0.48776
 C1131 C 0.76811 0.23939 0.47391
 C1132 C 0.76750 0.23901 0.44706
 C1133 C 0.74968 0.25174 0.43381
 C1134 C 0.73208 0.26457 0.44677
 H1135 H 0.70039 0.28685 0.52332
 H1136 H 0.70004 0.28660 0.47719
 H1137 H 0.79978 0.21684 0.52425
 H1138 H 0.80019 0.21756 0.47812
 H1139 H 0.74983 0.25123 0.58825
 H1140 H 0.74950 0.25168 0.41316
 C1141 C 0.76736 0.26273 -0.04966
 C1142 C 0.75317 0.24655 -0.06293
 C1143 C 0.74072 0.22889 -0.05014
 C1144 C 0.74265 0.22707 -0.02343
 C1145 C 0.75657 0.24367 -0.00972
 C1146 C 0.76904 0.26154 -0.02289
 C1147 C 0.78313 0.27757 -0.00901
 C1148 C 0.78455 0.27632 0.01750
 C1149 C 0.77159 0.25923 0.03094
 C1150 C 0.75758 0.24271 0.01724
 C1151 C 0.73032 0.20955 -0.01005
 C1152 C 0.73088 0.20893 0.01652
 C1153 C 0.74409 0.22559 0.03046
 C1154 C 0.74335 0.22609 0.05728
 C1155 C 0.75689 0.24282 0.07065
 C1156 C 0.77155 0.25887 0.05777
 H1157 H 0.79304 0.29126 -0.01858
 H1158 H 0.79539 0.28921 0.02745
 H1159 H 0.71979 0.19647 -0.02004
 H1160 H 0.72062 0.19547 0.02608
 H1161 H 0.75178 0.24775 -0.08351
 H1162 H 0.75663 0.24287 0.09129
 C1163 C 0.75908 0.76667 0.44951
 C1164 C 0.74327 0.75144 0.43668
 C1165 C 0.72648 0.73780 0.44999
 C1166 C 0.72559 0.73906 0.47676
 C1167 C 0.74254 0.75331 0.49002
 C1168 C 0.75921 0.76731 0.47634
 C1169 C 0.77619 0.78099 0.48983
 C1170 C 0.77715 0.78048 0.51640
 C1171 C 0.76093 0.76652 0.53028
 C1172 C 0.74313 0.75323 0.51701
 C1173 C 0.70878 0.72576 0.49063
 C1174 C 0.70900 0.72607 0.51719
 C1175 C 0.72623 0.73948 0.53068
 C1176 C 0.72748 0.73885 0.55749
 C1177 C 0.74530 0.75185 0.57042
 C1178 C 0.76194 0.76566 0.55712
 H1179 H 0.78925 0.79176 0.47989
 H1180 H 0.79076 0.79104 0.52602
 H1181 H 0.69551 0.71482 0.48102
 H1182 H 0.69588 0.71535 0.52711
 H1183 H 0.74335 0.75082 0.41605
 H1184 H 0.74625 0.75119 0.59105
 C1185 C 0.95081 0.26625 0.23570
 C1186 C 0.93839 0.25251 0.25337
 C1187 C 0.95098 0.23971 0.27201
 C1188 C 0.97674 0.24088 0.27329
 C1189 C 0.98956 0.25473 0.25545
 C1190 C 0.97655 0.26733 0.23648
 C1191 C 0.98953 0.28121 0.21922
 C1192 C 1.01500 0.28256 0.22044
 C1193 C 1.02825 0.27006 0.23895
 C1194 C 1.01544 0.25599 0.25658
 C1195 C 0.99003 0.22807 0.29152
 C1196 C 1.01554 0.22897 0.29232
 C1197 C 1.02850 0.24298 0.27516
 C1198 C 1.05426 0.24385 0.27565
 C1199 C 1.06665 0.25837 0.25874
 C1200 C 1.05397 0.27160 0.24055
 H1201 H 0.98006 0.29126 0.20474
 H1202 H 1.02425 0.29353 0.20680
 H1203 H 0.98078 0.21714 0.30519
 H1204 H 1.02507 0.21866 0.30653
 H1205 H 0.91859 0.25181 0.25258
 H1206 H 1.08646 0.25882 0.25931
 C1207 C 0.55299 0.23197 0.75761
 C1208 C 0.56503 0.24540 0.73940
 C1209 C 0.55218 0.26013 0.72292
 C1210 C 0.52647 0.26097 0.72382
 C1211 C 0.51403 0.24786 0.74258
 C1212 C 0.52737 0.23357 0.75979
 C1213 C 0.51476 0.22098 0.77845
 C1214 C 0.48935 0.22232 0.78012
 C1215 C 0.47580 0.23636 0.76323
 C1216 C 0.48824 0.24930 0.74434
 C1217 C 0.51299 0.27513 0.70705
 C1218 C 0.48758 0.27640 0.70867
 C1219 C 0.47492 0.26363 0.72718
 C1220 C 0.44933 0.26527 0.72938
 C1221 C 0.43723 0.25215 0.74783
 C1222 C 0.45008 0.23739 0.76444
 H1223 H 0.52447 0.20996 0.79186
 H1224 H 0.48037 0.21229 0.79479
 H1225 H 0.52204 0.28532 0.69256
 H1226 H 0.47789 0.28762 0.69543
 H1227 H 0.58482 0.24491 0.73847
 H1228 H 0.41748 0.25318 0.74887
 C1229 C 0.05084 0.23580 0.73219
 C1230 C 0.06312 0.24867 0.75088
 C1231 C 0.05045 0.26290 0.76770
 C1232 C 0.02468 0.26389 0.76641
 C1233 C 0.01201 0.25115 0.74733
 C1234 C 0.02517 0.23719 0.73002
 C1235 C 0.01231 0.22460 0.71133
 C1236 C -0.01314 0.22571 0.70964
 C1237 C -0.02647 0.23947 0.72655
 C1238 C -0.01383 0.25243 0.74547
 C1239 C 0.01132 0.27777 0.78323
 C1240 C -0.01416 0.27897 0.78145
 C1241 C -0.02702 0.26643 0.76271
 C1242 C -0.05272 0.26779 0.76047
 C1243 C -0.06495 0.25440 0.74217
 C1244 C -0.05221 0.24001 0.72559
 H1245 H 0.02186 0.21366 0.69801
 H1246 H -0.02234 0.21570 0.69498
 H1247 H 0.02052 0.28781 0.79786
 H1248 H -0.02373 0.28982 0.79485
 H1249 H 0.08291 0.24789 0.75207
 H1250 H -0.08476 0.25469 0.74117
 C1251 C 0.44797 0.22803 0.24190
 C1252 C 0.43538 0.24154 0.25953
 C1253 C 0.44791 0.25590 0.27667
 C1254 C 0.47367 0.25646 0.27682
 C1255 C 0.48662 0.24311 0.25883
 C1256 C 0.47371 0.22904 0.24113
 C1257 C 0.48687 0.21608 0.22330
 C1258 C 0.51235 0.21706 0.22274
 C1259 C 0.52543 0.23107 0.23998
 C1260 C 0.51250 0.24415 0.25824
 C1261 C 0.48676 0.27060 0.29394
 C1262 C 0.51225 0.27161 0.29337
 C1263 C 0.52541 0.25854 0.27564
 C1264 C 0.55111 0.26008 0.27425
 C1265 C 0.56364 0.24673 0.25644
 C1266 C 0.55115 0.23222 0.23954
 H1267 H 0.47753 0.20506 0.20966
 H1268 H 0.52177 0.20680 0.20869
 H1269 H 0.47732 0.28108 0.30778
 H1270 H 0.52160 0.28284 0.30679
 H1271 H 0.41556 0.24132 0.25956
 H1272 H 0.58341 0.24779 0.25558
 C1273 C 1.05209 0.74011 0.76860
 C1274 C 1.06489 0.75312 0.75060
 C1275 C 1.05265 0.76629 0.73206
 C1276 C 1.02687 0.76605 0.73098
 C1277 C 1.01367 0.75343 0.74958
 C1278 C 1.02634 0.74067 0.76868
 C1279 C 1.01296 0.72824 0.78690
 C1280 C 0.98744 0.72846 0.78647
 C1281 C 0.97455 0.74105 0.76776
 C1282 C 0.98775 0.75350 0.74903
 C1283 C 1.01399 0.77854 0.71218
 C1284 C 0.98847 0.77845 0.71151
 C1285 C 0.97508 0.76601 0.72973
 C1286 C 0.94931 0.76629 0.72958
 C1287 C 0.93650 0.75369 0.74794
 C1288 C 0.94877 0.74095 0.76684
 H1289 H 1.02216 0.71823 0.80160
 H1290 H 0.97786 0.71858 0.80083
 H1291 H 1.02359 0.78847 0.69788
 H1292 H 0.97927 0.78829 0.69667
 H1293 H 1.08471 0.75290 0.75095
 H1294 H 0.91668 0.75382 0.74753
 C1295 C 0.55311 0.73766 0.26833
 C1296 C 0.56581 0.75134 0.25088
 C1297 C 0.55352 0.76397 0.23192
 C1298 C 0.52784 0.76239 0.22979
 C1299 C 0.51471 0.74902 0.24780
 C1300 C 0.52738 0.73694 0.26743
 C1301 C 0.51408 0.72389 0.28519
 C1302 C 0.48863 0.72270 0.28368
 C1303 C 0.47575 0.73441 0.26427
 C1304 C 0.48888 0.74764 0.24614
 C1305 C 0.51494 0.77425 0.21051
 C1306 C 0.48947 0.77293 0.20890
 C1307 C 0.47619 0.75963 0.22646
 C1308 C 0.45045 0.75845 0.22527
 C1309 C 0.43778 0.74492 0.24288
 C1310 C 0.45009 0.73285 0.26223
 H1311 H 0.52330 0.71452 0.30038
 H1312 H 0.47910 0.71241 0.29773
 H1313 H 0.52447 0.78463 0.19653
 H1314 H 0.48022 0.78241 0.19381
 H1315 H 0.58561 0.75201 0.25197
 H1316 H 0.41797 0.74430 0.24190
 C1317 C 0.05025 0.76582 0.26900
 C1318 C 0.06335 0.75236 0.25176
 C1319 C 0.05135 0.73831 0.23393
 C1320 C 0.02559 0.73776 0.23301
 C1321 C 0.01211 0.75121 0.25048
 C1322 C 0.02449 0.76521 0.26864
 C1323 C 0.01081 0.77869 0.28556
 C1324 C -0.01470 0.77839 0.28464
 C1325 C -0.02726 0.76446 0.26694
 C1326 C -0.01378 0.75061 0.24984
 C1327 C 0.01302 0.72359 0.21552
 C1328 C -0.01248 0.72267 0.21521
 C1329 C -0.02615 0.73610 0.23216
 C1330 C -0.05189 0.73496 0.23235
 C1331 C -0.06499 0.74936 0.24863
 C1332 C -0.05300 0.76433 0.26552
 H1333 H 0.01978 0.78968 0.29950
 H1334 H -0.02454 0.78912 0.29794
 H1335 H 0.02284 0.71295 0.20212
 H1336 H -0.02143 0.71136 0.20158
 H1337 H 0.08317 0.75283 0.25222
 H1338 H -0.08481 0.74887 0.24823
 C1339 C 0.45441 0.77372 0.77255
 C1340 C 0.43861 0.76123 0.75641
 C1341 C 0.44782 0.74613 0.73807
 C1342 C 0.47327 0.74324 0.73555
 C1343 C 0.48934 0.75511 0.75230
 C1344 C 0.47987 0.77037 0.77083
 C1345 C 0.49610 0.78192 0.78739
 C1346 C 0.52120 0.77830 0.78599
 C1347 C 0.53088 0.76312 0.76787
 C1348 C 0.51491 0.75164 0.75066
 C1349 C 0.48304 0.72843 0.71703
 C1350 C 0.50828 0.72529 0.71514
 C1351 C 0.52449 0.73670 0.73184
 C1352 C 0.55001 0.73318 0.73067
 C1353 C 0.56556 0.74486 0.74770
 C1354 C 0.55626 0.75971 0.76615
 H1355 H 0.48951 0.79374 0.80173
 H1356 H 0.53299 0.78756 0.79918
 H1357 H 0.47118 0.71915 0.70392
 H1358 H 0.51503 0.71371 0.70064
 H1359 H 0.41899 0.76335 0.75784
 H1360 H 0.58517 0.74250 0.74646
 N1361 N 0.42005 0.28584 0.28264
 N1362 N 0.43411 0.27083 0.29275
 N1363 N 0.42309 0.79345 0.79372
 N1364 N 0.44507 0.78986 0.79077
 N1365 N -0.08580 0.29235 0.76904
 N1366 N -0.06677 0.28196 0.77724
 N1367 N -0.08376 0.79185 0.27172
 N1368 N -0.06736 0.77888 0.28147
 N1369 N 0.58300 0.71007 0.27721
 N1370 N 0.56675 0.72358 0.28583
 N1371 N 0.58543 0.20647 0.76591
 N1372 N 0.56721 0.21761 0.77440
 N1373 N 1.08212 0.71246 0.77726
 N1374 N 1.06551 0.72558 0.78589
 N1375 N 1.08103 0.21308 0.28198
 N1376 N 1.06826 0.22896 0.29195
 N1377 N 0.58124 0.28905 0.71735
 N1378 N 0.56579 0.27548 0.70696
 N1379 N 0.58479 0.79067 0.22452
 N1380 N 0.56739 0.77858 0.21531
 N1381 N 1.08585 0.29750 0.23051
 N1382 N 1.06744 0.28572 0.22307
 N1383 N 1.08413 0.79247 0.72372
 N1384 N 1.06674 0.78014 0.71489
 N1385 N 0.41856 0.71709 0.73149
 N1386 N 0.43102 0.73364 0.72224
 N1387 N 0.41620 0.20212 0.23130
 N1388 N 0.43441 0.21412 0.22412
 N1389 N -0.08219 0.70688 0.22485
 N1390 N -0.06501 0.71936 0.21604
 N1391 N -0.08147 0.21127 0.71922
 N1392 N -0.06587 0.22483 0.70929
 N1393 N 0.29178 0.42043 0.27642
 N1394 N 0.27934 0.43703 0.28540
 N1395 N 0.29734 -0.07822 0.78625
 N1396 N 0.29537 -0.05720 0.78277
 N1397 N 0.78655 0.42390 0.80114
 N1398 N 0.78192 0.44466 0.79885
 N1399 N 0.79042 -0.07553 0.29871
 N1400 N 0.78662 -0.05466 0.29575
 N1401 N 0.29074 0.58196 0.72028
 N1402 N 0.27855 0.56512 0.71107
 N1403 N 0.27664 1.07967 0.20446
 N1404 N 0.28424 1.06158 0.21587
 N1405 N 0.77846 0.58100 0.20883
 N1406 N 0.78646 0.56287 0.21985
 N1407 N 0.78386 1.08280 0.73153
 N1408 N 0.77015 1.06711 0.72220
 N1409 N 0.71253 0.57964 0.27787
 N1410 N 0.72544 0.56319 0.28682
 N1411 N 0.71181 1.07597 0.79796
 N1412 N 0.71560 1.05516 0.79507
 N1413 N 0.20755 0.58039 0.77375
 N1414 N 0.22120 0.56400 0.78157
 N1415 N 0.21029 1.07908 0.27413
 N1416 N 0.22337 1.06272 0.28307
 N1417 N 0.71569 0.41774 0.73247
 N1418 N 0.72866 0.43411 0.72358
 N1419 N 0.71864 -0.08168 0.23110
 N1420 N 0.73174 -0.06559 0.22182
 N1421 N 0.22477 0.42063 0.20633
 N1422 N 0.21688 0.43810 0.21844
 N1423 N 0.22157 -0.08167 0.72342
 N1424 N 0.23461 -0.06578 0.71360
 N1425 N 0.27917 0.29143 0.41780
 N1426 N 0.28682 0.27591 0.43316
 N1427 N 0.26940 0.78479 -0.08584
 N1428 N 0.27824 0.77265 -0.06770
 N1429 N 0.79504 0.27512 -0.08055
 N1430 N 0.77956 0.28051 -0.06369
 N1431 N 0.78507 0.77488 0.41525
 N1432 N 0.77434 0.78194 0.43511
 N1433 N 0.72453 0.29331 0.58482
 N1434 N 0.71621 0.27915 0.56835
 N1435 N 0.72031 0.79204 1.08444
 N1436 N 0.71142 0.77915 1.06707
 N1437 N 0.20453 0.27858 1.07932
 N1438 N 0.22254 0.28403 1.06538
 N1439 N 0.22032 0.78463 0.58403
 N1440 N 0.21023 0.77194 0.56716
 N1441 N 0.28371 0.71767 0.58495
 N1442 N 0.27010 0.70916 0.56756
 N1443 N 0.29574 0.22277 1.07919
 N1444 N 0.27686 0.21759 1.06604
 N1445 N 0.79379 0.71921 1.07710
 N1446 N 0.77106 0.71741 1.07210
 N1447 N 0.77508 0.20898 0.58451
 N1448 N 0.78359 0.22373 0.56889
 N1449 N 0.71912 0.70859 0.41998
 N1450 N 0.71046 0.72271 0.43607
 N1451 N 0.71095 0.22054 -0.08124
 N1452 N 0.72604 0.21305 -0.06457
 N1453 N 0.21723 0.70438 -0.07929
 N1454 N 0.20971 0.71873 -0.06280
 N1455 N 0.22517 0.20618 0.41683
 N1456 N 0.21762 0.22234 0.43112
 N1457 N 0.29084 0.42470 0.71789
 N1458 N 0.27728 0.44083 0.70926
 N1459 N 0.29351 0.91909 0.22578
 N1460 N 0.28324 0.93765 0.21823
 N1461 N 0.79544 0.42263 0.22509
 N1462 N 0.78183 0.43908 0.21743
 N1463 N 0.79669 0.92893 0.71727
 N1464 N 0.78130 0.94412 0.71009
 N1465 N 0.70477 0.57279 0.71874
 N1466 N 0.71985 0.55756 0.71130
 N1467 N 0.70906 0.07616 0.21592
 N1468 N 0.72056 0.05785 0.20988
 N1469 N 0.20533 0.57927 0.22805
 N1470 N 0.21722 0.56170 0.22071
 N1471 N 0.20827 0.07326 0.71750
 N1472 N 0.22255 0.05801 0.70851
 N1473 N 0.28611 0.58033 0.28334
 N1474 N 0.27724 0.56094 0.29031
 N1475 N 0.29610 0.08017 0.77019
 N1476 N 0.28130 0.06482 0.77810
 N1477 N 0.79042 0.58209 0.77301
 N1478 N 0.77686 0.56639 0.78234
 N1479 N 0.78993 0.08242 0.27399
 N1480 N 0.77571 0.06699 0.28276
 N1481 N 0.70986 0.42364 0.27773
 N1482 N 0.72360 0.43941 0.28690
 N1483 N 0.71055 0.92123 0.77385
 N1484 N 0.72776 0.93389 0.78238
 N1485 N 0.20654 0.42446 0.77201
 N1486 N 0.22076 0.44028 0.78023
 N1487 N 0.21248 0.92273 0.28033
 N1488 N 0.22600 0.93895 0.28880
 N1489 N 0.41858 0.29266 0.72158
 N1490 N 0.43528 0.27982 0.71267
 N1491 N 0.42368 0.78862 0.21655
 N1492 N 0.43665 0.77233 0.20774
 N1493 N 0.91834 0.29081 0.22516
 N1494 N 0.93700 0.27975 0.21771
 N1495 N 0.91975 0.79401 0.71969
 N1496 N 0.93586 0.78009 0.71161
 N1497 N 0.58032 0.28920 0.28035
 N1498 N 0.56474 0.27558 0.29023
 N1499 N 0.58923 0.78481 0.77266
 N1500 N 0.57273 0.77217 0.78238
 N1501 N 0.08054 0.29056 0.77611
 N1502 N 0.06419 0.27717 0.78496
 N1503 N 0.08002 0.79366 0.27806
 N1504 N 0.06344 0.78030 0.28643
 N1505 N 0.57706 0.70372 0.71953
 N1506 N 0.56053 0.71785 0.71241
 N1507 N 0.57782 0.20221 0.22876
 N1508 N 0.56501 0.21939 0.22150
 N1509 N 0.08271 0.71188 0.22612
 N1510 N 0.06555 0.72438 0.21717
 N1511 N 0.08051 0.20761 0.72439
 N1512 N 0.06481 0.22170 0.71534
 N1513 N 0.41989 0.70555 0.27230
 N1514 N 0.43618 0.71966 0.28010
 N1515 N 0.41477 0.21716 0.77706
 N1516 N 0.43694 0.22258 0.78155
 N1517 N 0.91747 0.71472 0.77586
 N1518 N 0.93480 0.72731 0.78433
 N1519 N 0.91842 0.21470 0.28101
 N1520 N 0.93746 0.22516 0.28906
 N1521 N 0.27782 0.28923 0.58315
 N1522 N 0.28616 0.27334 0.56899
 N1523 N 0.27682 0.79566 0.08204
 N1524 N 0.28288 0.77829 0.06868
 N1525 N 0.77803 0.28672 0.08978
 N1526 N 0.78675 0.27446 0.07200
 N1527 N 0.77346 0.79569 0.58456
 N1528 N 0.77992 0.77854 0.57113
 N1529 N 0.28470 0.71760 0.41547
 N1530 N 0.27033 0.70953 0.43222
 N1531 N 0.27516 0.21066 0.91122
 N1532 N 0.28284 0.22260 0.92997
 N1533 N 0.77621 0.71095 0.91337
 N1534 N 0.78075 0.71862 0.93561
 N1535 N 0.77658 0.21080 0.41672
 N1536 N 0.78446 0.22527 0.43306
 N1537 N 0.72248 0.29398 0.41769
 N1538 N 0.71488 0.27811 0.43246
 N1539 N 0.72308 0.78817 0.91411
 N1540 N 0.71421 0.77538 0.93147
 N1541 N 0.22517 0.29328 0.91141
 N1542 N 0.21751 0.28039 0.92932
 N1543 N 0.21994 0.78652 0.41609
 N1544 N 0.21020 0.77212 0.43131
 N1545 N 0.71921 0.70876 0.58624
 N1546 N 0.71101 0.72465 0.57170
 N1547 N 0.71355 0.21729 0.08763
 N1548 N 0.72842 0.21003 0.07103
 N1549 N 0.22069 0.71035 0.08720
 N1550 N 0.21254 0.72638 0.07280
 N1551 N 0.22281 0.20913 0.58741
 N1552 N 0.21682 0.21964 0.56695
   
