data_POSCAR
  _audit_creation_date              2014-09-24
  _audit_creation_method            'ToBaCCo'
  _symmetry_space_group_name_H-M    'P1'
  _symmetry_Int_Tables_number       1
  _symmetry_cell_setting            triclinic
  loop_
  _symmetry_equiv_pos_as_xyz
 x,y,z
_cell_length_a 56.1433
_cell_length_b 56.1103
_cell_length_c 43.8722
_cell_angle_alpha 89.944500
_cell_angle_beta 90.088500
_cell_angle_gamma 89.982500
loop_
  _atom_site_label
  _atom_site_type_symbol
  _atom_site_fract_x
  _atom_site_fract_y
  _atom_site_fract_z
C1 C 0.31802 -0.03181 0.25036
 C2 C 0.33043 -0.01141 0.24084
 C3 C 0.34513 -0.01249 0.21509
 C4 C 0.34768 -0.03386 0.19906
 C5 C 0.33511 -0.05410 0.20827
 C6 C 0.32025 -0.05312 0.23390
 C7 C 0.33053 0.01030 0.25951
 C8 C 0.34528 0.01129 0.28527
 C9 C 0.34808 0.03269 0.30124
 C10 C 0.33564 0.05303 0.29191
 C11 C 0.32073 0.05210 0.26630
 C12 C 0.31829 0.03080 0.24993
 H13 H 0.30712 -0.03115 0.27072
 H14 H 0.35537 0.00304 0.20839
 H15 H 0.35537 -0.00437 0.29199
 H16 H 0.30733 0.03026 0.22957
 H17 H 0.33740 -0.07072 0.19598
 H18 H 0.33801 0.06972 0.30402
 C19 C 0.18118 -0.03124 0.74868
 C20 C 0.16893 -0.01081 0.75841
 C21 C 0.15443 -0.01191 0.78434
 C22 C 0.15190 -0.03334 0.80032
 C23 C 0.16432 -0.05360 0.79087
 C24 C 0.17900 -0.05257 0.76510
 C25 C 0.16884 0.01099 0.73983
 C26 C 0.15431 0.01201 0.71386
 C27 C 0.15155 0.03347 0.69795
 C28 C 0.16381 0.05383 0.70755
 C29 C 0.17850 0.05285 0.73337
 C30 C 0.18090 0.03150 0.74969
 H31 H 0.19196 -0.03061 0.72822
 H32 H 0.14431 0.00364 0.79124
 H33 H 0.14435 -0.00365 0.70695
 H34 H 0.19168 0.03092 0.77019
 H35 H 0.16211 -0.07028 0.80306
 H36 H 0.16147 0.07056 0.69548
 C37 C 0.68264 0.46868 0.25004
 C38 C 0.67041 0.48910 0.25982
 C39 C 0.65577 0.48794 0.28561
 C40 C 0.65309 0.46645 0.30142
 C41 C 0.66550 0.44619 0.29192
 C42 C 0.68030 0.44728 0.26628
 C43 C 0.67037 0.51094 0.24131
 C44 C 0.65570 0.51208 0.21548
 C45 C 0.65296 0.53356 0.19966
 C46 C 0.66535 0.55384 0.20918
 C47 C 0.68017 0.55277 0.23487
 C48 C 0.68257 0.53138 0.25112
 H49 H 0.69351 0.46936 0.22966
 H50 H 0.64564 0.50348 0.29251
 H51 H 0.64560 0.49652 0.20856
 H52 H 0.69345 0.53072 0.27153
 H53 H 0.66315 0.42946 0.30396
 H54 H 0.66297 0.57056 0.19712
 C55 C 0.81892 0.46833 0.75201
 C56 C 0.83116 0.48870 0.74204
 C57 C 0.84565 0.48746 0.71611
 C58 C 0.84817 0.46596 0.70036
 C59 C 0.83576 0.44575 0.71005
 C60 C 0.82111 0.44691 0.73582
 C61 C 0.83122 0.51060 0.76037
 C62 C 0.84570 0.51174 0.78637
 C63 C 0.84844 0.53327 0.80207
 C64 C 0.83620 0.55359 0.79222
 C65 C 0.82155 0.55249 0.76637
 C66 C 0.81918 0.53107 0.75027
 H67 H 0.80814 0.46907 0.77246
 H68 H 0.85575 0.50298 0.70904
 H69 H 0.85565 0.49610 0.79348
 H70 H 0.80842 0.53038 0.72975
 H71 H 0.83796 0.42901 0.69801
 H72 H 0.83850 0.57038 0.80414
 C73 C 0.24439 0.40528 1.04104
 C74 C 0.25576 0.41646 1.01641
 C75 C 0.27828 0.42666 1.02053
 C76 C 0.28940 0.42582 1.04905
 C77 C 0.27821 0.41439 1.07353
 C78 C 0.25571 0.40395 1.06948
 C79 C 0.24456 0.41666 0.98607
 C80 C 0.22207 0.42698 0.98209
 C81 C 0.21097 0.42649 0.95354
 C82 C 0.22218 0.41532 0.92889
 C83 C 0.24463 0.40479 0.93281
 C84 C 0.25592 0.40572 0.96126
 H85 H 0.22722 0.39680 1.03765
 H86 H 0.28718 0.43515 1.00147
 H87 H 0.21318 0.43527 1.00128
 H88 H 0.27304 0.39712 0.96446
 H89 H 0.28727 0.41306 1.09533
 H90 H 0.21318 0.41421 0.90705
 C91 C 0.75601 0.09466 1.04057
 C92 C 0.74441 0.08347 1.01609
 C93 C 0.72193 0.07328 1.02048
 C94 C 0.71106 0.07413 1.04910
 C95 C 0.72247 0.08555 1.07344
 C96 C 0.74493 0.09598 1.06913
 C97 C 0.75533 0.08325 0.98562
 C98 C 0.77781 0.07297 0.98145
 C99 C 0.78863 0.07340 0.95278
 C100 C 0.77717 0.08448 0.92818
 C101 C 0.75473 0.09496 0.93229
 C102 C 0.74371 0.09408 0.96088
 H103 H 0.77315 0.10313 1.03697
 H104 H 0.71286 0.06479 1.00153
 H105 H 0.78690 0.06474 1.00060
 H106 H 0.72660 0.10266 0.96421
 H107 H 0.71360 0.08689 1.09532
 H108 H 0.78596 0.08555 0.90623
 C109 C 0.25603 0.59396 0.53910
 C110 C 0.24446 0.58295 0.51447
 C111 C 0.22198 0.57270 0.51871
 C112 C 0.21111 0.57332 0.54735
 C113 C 0.22252 0.58457 0.57183
 C114 C 0.24495 0.59504 0.56764
 C115 C 0.25541 0.58299 0.48401
 C116 C 0.27793 0.57282 0.47977
 C117 C 0.28881 0.57353 0.45113
 C118 C 0.27736 0.58476 0.42665
 C119 C 0.25488 0.59514 0.43083
 C120 C 0.24380 0.59398 0.45937
 H121 H 0.27314 0.60251 0.53570
 H122 H 0.21292 0.56436 0.49966
 H123 H 0.28703 0.56449 0.49883
 H124 H 0.22666 0.60248 0.46277
 H125 H 0.21369 0.58578 0.59374
 H126 H 0.28618 0.58604 0.40474
 C127 C 0.74465 0.90630 0.53981
 C128 C 0.75611 0.91734 0.51514
 C129 C 0.77861 0.92758 0.51929
 C130 C 0.78964 0.92689 0.54791
 C131 C 0.77833 0.91559 0.57243
 C132 C 0.75586 0.90515 0.56830
 C133 C 0.74501 0.91732 0.48473
 C134 C 0.72248 0.92749 0.48055
 C135 C 0.71145 0.92674 0.45197
 C136 C 0.72277 0.91546 0.42749
 C137 C 0.74526 0.90508 0.43162
 C138 C 0.75649 0.90627 0.46010
 H139 H 0.72752 0.89775 0.53646
 H140 H 0.78753 0.93595 0.50014
 H141 H 0.71348 0.93585 0.49962
 H142 H 0.77364 0.89777 0.46347
 H143 H 0.78721 0.91429 0.59435
 H144 H 0.71382 0.91415 0.40563
 C145 C -0.03009 0.23961 0.37157
 C146 C -0.00800 0.23869 0.38661
 C147 C -0.00094 0.21756 0.40132
 C148 C -0.01600 0.19759 0.40130
 C149 C -0.03791 0.19859 0.38591
 C150 C -0.04494 0.21952 0.37089
 C151 C 0.00775 0.25977 0.38669
 C152 C 0.00066 0.28086 0.40139
 C153 C 0.01569 0.30083 0.40147
 C154 C 0.03759 0.29990 0.38620
 C155 C 0.04465 0.27903 0.37119
 C156 C 0.02985 0.25892 0.37176
 H157 H -0.03549 0.25588 0.36010
 H158 H 0.01605 0.21685 0.41308
 H159 H -0.01633 0.28158 0.41308
 H160 H 0.03533 0.24273 0.36024
 H161 H -0.04952 0.18311 0.38572
 H162 H 0.04917 0.31537 0.38608
 C163 C -0.03064 0.75899 0.12837
 C164 C -0.00856 0.75978 0.11339
 C165 C -0.00142 0.78085 0.09866
 C166 C -0.01638 0.80087 0.09858
 C167 C -0.03828 0.80003 0.11388
 C168 C -0.04539 0.77917 0.12895
 C169 C 0.00715 0.73867 0.11348
 C170 C 0.00003 0.71754 0.09890
 C171 C 0.01510 0.69757 0.09888
 C172 C 0.03707 0.69858 0.11411
 C173 C 0.04413 0.71951 0.12899
 C174 C 0.02930 0.73959 0.12835
 H175 H -0.03610 0.74278 0.13990
 H176 H 0.01556 0.78152 0.08695
 H177 H -0.01701 0.71684 0.08725
 H178 H 0.03481 0.75583 0.13974
 H179 H -0.04976 0.81559 0.11396
 H180 H 0.04874 0.68315 0.11431
 C181 C 0.46921 0.25935 0.62842
 C182 C 0.49127 0.26010 0.61339
 C183 C 0.49841 0.28115 0.59862
 C184 C 0.48347 0.30119 0.59856
 C185 C 0.46160 0.30037 0.61392
 C186 C 0.45450 0.27954 0.62901
 C187 C 0.50694 0.23897 0.61347
 C188 C 0.49984 0.21790 0.59870
 C189 C 0.51484 0.19791 0.59871
 C190 C 0.53672 0.19879 0.61412
 C191 C 0.54378 0.21963 0.62919
 C192 C 0.52901 0.23977 0.62855
 H193 H 0.46369 0.24319 0.63999
 H194 H 0.51538 0.28179 0.58687
 H195 H 0.48288 0.21723 0.58689
 H196 H 0.53450 0.25595 0.64009
 H197 H 0.45010 0.31590 0.61406
 H198 H 0.54829 0.18330 0.61428
 C199 C 0.47053 0.73998 0.87166
 C200 C 0.49260 0.73906 0.88675
 C201 C 0.49961 0.71796 0.90156
 C202 C 0.48453 0.69802 0.90159
 C203 C 0.46264 0.69902 0.88614
 C204 C 0.45568 0.71991 0.87103
 C205 C 0.50837 0.76013 0.88677
 C206 C 0.50133 0.78122 0.90149
 C207 C 0.51637 0.80118 0.90151
 C208 C 0.53824 0.80023 0.88617
 C209 C 0.54525 0.77936 0.87114
 C210 C 0.53044 0.75925 0.87176
 H211 H 0.46512 0.75618 0.86009
 H212 H 0.51659 0.71726 0.91336
 H213 H 0.48436 0.78196 0.91322
 H214 H 0.53588 0.74306 0.86024
 H215 H 0.45097 0.68360 0.88593
 H216 H 0.54982 0.81570 0.88600
 C217 C -0.28211 0.56856 0.99859
 C218 C -0.26163 0.58071 1.00835
 C219 C -0.26266 0.59535 1.03418
 C220 C -0.28406 0.59810 1.05004
 C221 C -0.30439 0.58578 1.04058
 C222 C -0.30346 0.57097 1.01488
 C223 C -0.23984 0.58063 0.98986
 C224 C -0.23864 0.59535 0.96409
 C225 C -0.21714 0.59801 0.94833
 C226 C -0.19693 0.58547 0.95789
 C227 C -0.19808 0.57060 0.98351
 C228 C -0.21947 0.56829 0.99968
 H229 H -0.28148 0.55769 0.97817
 H230 H -0.24706 0.60540 1.04107
 H231 H -0.25419 0.60553 0.95722
 H232 H -0.22018 0.55738 1.02006
 H233 H -0.32103 0.58821 1.05276
 H234 H -0.18017 0.58774 0.94594
 C235 C -0.28223 0.43184 0.50010
 C236 C -0.26172 0.41973 0.49039
 C237 C -0.26271 0.40513 0.46454
 C238 C -0.28412 0.40233 0.44861
 C239 C -0.30448 0.41460 0.45801
 C240 C -0.30357 0.42940 0.48373
 C241 C -0.23994 0.41981 0.50901
 C242 C -0.23888 0.40531 0.53500
 C243 C -0.21745 0.40264 0.55093
 C244 C -0.19715 0.41494 0.54138
 C245 C -0.19813 0.42961 0.51555
 C246 C -0.21947 0.43193 0.49918
 H247 H -0.28162 0.44268 0.52054
 H248 H -0.24709 0.39510 0.45770
 H249 H -0.25445 0.39525 0.54195
 H250 H -0.22007 0.44268 0.47865
 H251 H -0.32112 0.41213 0.44579
 H252 H -0.18046 0.41261 0.55352
 C253 C 0.21876 -0.06928 -0.00078
 C254 C 0.23924 -0.08140 -0.01054
 C255 C 0.23821 -0.09590 -0.03650
 C256 C 0.21678 -0.09858 -0.05247
 C257 C 0.19646 -0.08626 -0.04296
 C258 C 0.19744 -0.07158 -0.01717
 C259 C 0.26101 -0.08138 0.00808
 C260 C 0.26199 -0.09577 0.03419
 C261 C 0.28339 -0.09839 0.05025
 C262 C 0.30373 -0.08612 0.04066
 C263 C 0.30280 -0.07157 0.01471
 C264 C 0.28150 -0.06933 -0.00176
 H265 H 0.21934 -0.05850 0.01970
 H266 H 0.25386 -0.10591 -0.04335
 H267 H 0.24633 -0.10572 0.04111
 H268 H 0.28095 -0.05864 -0.02234
 H269 H 0.17974 -0.08853 -0.05508
 H270 H 0.32042 -0.08833 0.05287
 C271 C 0.21847 1.06843 0.49903
 C272 C 0.23887 1.08079 0.50867
 C273 C 0.23772 1.09559 0.53433
 C274 C 0.21628 1.09829 0.55015
 C275 C 0.19606 1.08576 0.54079
 C276 C 0.19713 1.07081 0.51528
 C277 C 0.26066 1.08070 0.49019
 C278 C 0.26182 1.09528 0.46430
 C279 C 0.28329 1.09787 0.44846
 C280 C 0.30352 1.08539 0.45807
 C281 C 0.30241 1.07064 0.48382
 C282 C 0.28104 1.06840 0.50006
 H283 H 0.21914 1.05743 0.47875
 H284 H 0.25325 1.10580 0.54113
 H285 H 0.24625 1.10541 0.45737
 H286 H 0.28036 1.05757 0.52051
 H287 H 0.17937 1.08810 0.55286
 H288 H 0.32026 1.08759 0.44606
 C289 C 0.15601 0.49392 0.21133
 C290 C 0.16709 0.50551 0.23589
 C291 C 0.17733 0.52799 0.23153
 C292 C 0.17662 0.53885 0.20285
 C293 C 0.16530 0.52743 0.17844
 C294 C 0.15485 0.50499 0.18274
 C295 C 0.16714 0.49457 0.26639
 C296 C 0.17739 0.47209 0.27074
 C297 C 0.17676 0.46122 0.29942
 C298 C 0.16552 0.47265 0.32384
 C299 C 0.15505 0.49510 0.31954
 C300 C 0.15613 0.50617 0.29096
 H301 H 0.14746 0.47681 0.21482
 H302 H 0.18573 0.53707 0.25054
 H303 H 0.18573 0.46301 0.25172
 H304 H 0.14757 0.52328 0.28747
 H305 H 0.16402 0.53626 0.15650
 H306 H 0.16429 0.46382 0.34578
 C307 C -0.15549 1.00571 0.20925
 C308 C -0.16669 0.99427 0.23382
 C309 C -0.17692 0.97176 0.22963
 C310 C -0.17608 0.96070 0.20108
 C311 C -0.16464 0.97198 0.17665
 C312 C -0.15418 0.99446 0.18079
 C313 C -0.16681 1.00536 0.26420
 C314 C -0.17701 1.02791 0.26824
 C315 C -0.17644 1.03891 0.29685
 C316 C -0.16530 1.02752 0.32148
 C317 C -0.15489 1.00502 0.31748
 C318 C -0.15591 0.99384 0.28898
 H319 H -0.14697 1.02285 0.21271
 H320 H -0.18539 0.96285 0.24872
 H321 H -0.18526 1.03688 0.24901
 H322 H -0.14740 0.97669 0.28574
 H323 H -0.16328 0.96302 0.15480
 H324 H -0.16410 1.03637 0.34340
 C325 C 0.34516 0.50636 -0.29056
 C326 C 0.33390 0.49505 -0.26594
 C327 C 0.32349 0.47262 -0.27006
 C328 C 0.32423 0.46151 -0.29855
 C329 C 0.33573 0.47264 -0.32303
 C330 C 0.34637 0.49505 -0.31898
 C331 C 0.33381 0.50621 -0.23561
 C332 C 0.32357 0.52874 -0.23165
 C333 C 0.32410 0.53978 -0.20307
 C334 C 0.33526 0.52846 -0.17840
 C335 C 0.34572 0.50597 -0.18234
 C336 C 0.34472 0.49475 -0.21080
 H337 H 0.35379 0.52346 -0.28717
 H338 H 0.31494 0.46377 -0.25100
 H339 H 0.31529 0.53765 -0.25091
 H340 H 0.35326 0.47760 -0.21400
 H341 H 0.33698 0.46358 -0.34480
 H342 H 0.33642 0.53735 -0.15649
 C343 C 0.65495 -0.00630 -0.29036
 C344 C 0.66608 0.00521 -0.26578
 C345 C 0.67639 0.02767 -0.27007
 C346 C 0.67568 0.03860 -0.29870
 C347 C 0.66431 0.02728 -0.32315
 C348 C 0.65378 0.00484 -0.31894
 C349 C 0.66613 -0.00576 -0.23530
 C350 C 0.67641 -0.02823 -0.23097
 C351 C 0.67588 -0.03906 -0.20226
 C352 C 0.66471 -0.02761 -0.17780
 C353 C 0.65421 -0.00518 -0.18208
 C354 C 0.65518 0.00586 -0.21069
 H355 H 0.64638 -0.02341 -0.28684
 H356 H 0.68482 0.03668 -0.25104
 H357 H 0.68472 -0.03732 -0.25000
 H358 H 0.64662 0.02298 -0.21416
 H359 H 0.66308 0.03622 -0.34504
 H360 H 0.66359 -0.03640 -0.15582
 C361 C -0.01022 0.22010 0.87904
 C362 C -0.01113 0.24219 0.86401
 C363 C -0.03223 0.24925 0.84926
 C364 C -0.05216 0.23419 0.84924
 C365 C -0.05119 0.21228 0.86461
 C366 C -0.03030 0.20527 0.87967
 C367 C 0.00992 0.25795 0.86399
 C368 C 0.03094 0.25095 0.84910
 C369 C 0.05087 0.26602 0.84904
 C370 C 0.04998 0.28786 0.86450
 C371 C 0.02917 0.29482 0.87968
 C372 C 0.00909 0.27999 0.87910
 H373 H 0.00599 0.21464 0.89057
 H374 H -0.03298 0.26623 0.83749
 H375 H 0.03163 0.23402 0.83727
 H376 H -0.00705 0.28540 0.89073
 H377 H -0.06664 0.20068 0.86477
 H378 H 0.06543 0.29947 0.86462
 C379 C 0.50979 0.22024 0.12217
 C380 C 0.51077 0.24232 0.13717
 C381 C 0.53193 0.24933 0.15181
 C382 C 0.55185 0.23423 0.15174
 C383 C 0.55079 0.21234 0.13641
 C384 C 0.52985 0.20537 0.12146
 C385 C 0.48973 0.25813 0.13726
 C386 C 0.46866 0.25106 0.15201
 C387 C 0.44872 0.26614 0.15208
 C388 C 0.44966 0.28807 0.13676
 C389 C 0.47051 0.29509 0.12171
 C390 C 0.49059 0.28025 0.12229
 H391 H 0.49355 0.21483 0.11071
 H392 H 0.53275 0.26630 0.16355
 H393 H 0.46793 0.23406 0.16371
 H394 H 0.50676 0.28571 0.11075
 H395 H 0.56622 0.20070 0.13618
 H396 H 0.43421 0.29967 0.13663
 C397 C 0.00902 0.71986 0.62244
 C398 C 0.00996 0.74197 0.63738
 C399 C 0.03112 0.74905 0.65196
 C400 C 0.05107 0.73400 0.65192
 C401 C 0.05006 0.71208 0.63664
 C402 C 0.02912 0.70503 0.62175
 C403 C -0.01110 0.75775 0.63743
 C404 C -0.03216 0.75069 0.65219
 C405 C -0.05211 0.76577 0.65227
 C406 C -0.05116 0.78771 0.63693
 C407 C -0.03031 0.79472 0.62187
 C408 C -0.01024 0.77987 0.62245
 H409 H -0.00722 0.71439 0.61102
 H410 H 0.03191 0.76605 0.66365
 H411 H -0.03283 0.73367 0.66390
 H412 H 0.00594 0.78532 0.61090
 H413 H 0.06552 0.70048 0.63642
 H414 H -0.06658 0.79938 0.63675
 C415 C 0.49047 0.71979 0.37734
 C416 C 0.48968 0.74188 0.36228
 C417 C 0.46861 0.74905 0.34754
 C418 C 0.44859 0.73411 0.34756
 C419 C 0.44945 0.71220 0.36295
 C420 C 0.47030 0.70508 0.37800
 C421 C 0.51079 0.75757 0.36236
 C422 C 0.53185 0.75053 0.34759
 C423 C 0.55182 0.76554 0.34768
 C424 C 0.55092 0.78738 0.36316
 C425 C 0.53008 0.79437 0.37822
 C426 C 0.50997 0.77960 0.37750
 H427 H 0.50664 0.71426 0.38889
 H428 H 0.46794 0.76604 0.33578
 H429 H 0.53254 0.73360 0.33574
 H430 H 0.49380 0.78504 0.38905
 H431 H 0.43393 0.70070 0.36316
 H432 H 0.56640 0.79894 0.36339
 B433 B -0.02325 0.01451 1.01169
 B434 B -0.03126 0.00744 0.97626
 B435 B -0.01158 0.02914 0.98226
 B436 B 0.00587 0.02180 1.01222
 B437 B -0.00360 -0.00562 1.02453
 B438 B -0.02701 -0.01427 1.00209
 B439 B 0.01200 -0.01019 0.96601
 B440 B 0.02009 -0.00311 1.00141
 B441 B 0.00032 -0.02478 0.99544
 B442 B -0.01707 -0.01742 0.96548
 B443 B -0.00758 0.00996 0.95314
 B444 B 0.01581 0.01864 0.97555
 B445 B 0.47672 0.51467 0.51095
 B446 B 0.46882 0.50755 0.47549
 B447 B 0.48849 0.52925 0.48154
 B448 B 0.50584 0.52195 0.51160
 B449 B 0.49635 0.49456 0.52393
 B450 B 0.47299 0.48588 0.50140
 B451 B 0.51210 0.48990 0.46549
 B452 B 0.52010 0.49704 0.50091
 B453 B 0.50035 0.47535 0.49490
 B454 B 0.48303 0.48267 0.46484
 B455 B 0.49256 0.51003 0.45248
 B456 B 0.51589 0.51875 0.47498
 B457 B 0.52319 0.98458 0.51113
 B458 B 0.53105 0.99175 0.47569
 B459 B 0.51148 0.96996 0.48171
 B460 B 0.49411 0.97717 0.51171
 B461 B 0.50350 1.00460 0.52402
 B462 B 0.52680 1.01340 0.50155
 B463 B 0.48768 1.00922 0.46553
 B464 B 0.47974 1.00203 0.50094
 B465 B 0.49939 1.02380 0.49495
 B466 B 0.51672 1.01658 0.46496
 B467 B 0.50730 0.98918 0.45262
 B468 B 0.48402 0.98035 0.47505
 B469 B 0.02285 0.48509 1.01241
 B470 B 0.03083 0.49239 0.97705
 B471 B 0.01117 0.47064 0.98283
 B472 B -0.00626 0.47777 1.01280
 B473 B 0.00318 0.50512 1.02535
 B474 B 0.02656 0.51394 1.00304
 B475 B -0.01246 0.51003 0.96682
 B476 B -0.02052 0.50271 1.00215
 B477 B -0.00079 0.52446 0.99640
 B478 B 0.01660 0.51731 0.96643
 B479 B 0.00714 0.48999 0.95385
 B480 B -0.01623 0.48113 0.97613
 B481 B 0.02304 0.51465 0.48921
 B482 B 0.03101 0.50732 0.52459
 B483 B 0.01127 0.52901 0.51876
 B484 B -0.00610 0.52187 0.48866
 B485 B 0.00348 0.49457 0.47609
 B486 B 0.02688 0.48580 0.49851
 B487 B -0.01221 0.48950 0.53451
 B488 B -0.02025 0.49684 0.49916
 B489 B -0.00044 0.47516 0.50496
 B490 B 0.01689 0.48233 0.53505
 B491 B 0.00729 0.50959 0.54765
 B492 B -0.01610 0.51839 0.52527
 B493 B 0.52342 0.01501 -0.01101
 B494 B 0.53129 0.00784 0.02446
 B495 B 0.51150 0.02945 0.01838
 B496 B 0.49426 0.02214 -0.01176
 B497 B 0.50396 -0.00518 -0.02410
 B498 B 0.52731 -0.01379 -0.00150
 B499 B 0.48808 -0.01007 0.03427
 B500 B 0.48014 -0.00289 -0.00118
 B501 B 0.50000 -0.02448 0.00487
 B502 B 0.51720 -0.01715 0.03501
 B503 B 0.50748 0.01013 0.04738
 B504 B 0.48415 0.01878 0.02481
 B505 B 0.47681 0.48565 -0.01085
 B506 B 0.46900 0.49279 0.02460
 B507 B 0.48869 0.47111 0.01857
 B508 B 0.50594 0.47840 -0.01153
 B509 B 0.49634 0.50577 -0.02389
 B510 B 0.47304 0.51445 -0.00135
 B511 B 0.51228 0.51052 0.03451
 B512 B 0.52017 0.50335 -0.00091
 B513 B 0.50040 0.52502 0.00509
 B514 B 0.48320 0.51771 0.03518
 B515 B 0.49282 0.49037 0.04758
 B516 B 0.51610 0.48166 0.02507
 B517 B -0.02383 0.98515 0.48905
 B518 B -0.03166 0.99247 0.52444
 B519 B -0.01202 0.97071 0.51859
 B520 B 0.00527 0.97783 0.48847
 B521 B -0.00424 1.00517 0.47590
 B522 B -0.02753 1.01401 0.49834
 B523 B 0.01167 1.01012 0.53429
 B524 B 0.01956 1.00278 0.49893
 B525 B -0.00015 1.02453 0.50475
 B526 B -0.01740 1.01740 0.53487
 B527 B -0.00786 0.99009 0.54747
 B528 B 0.01541 0.98121 0.52506
 B529 B 0.76580 0.22617 0.23897
 B530 B 0.75855 0.21815 0.27434
 B531 B 0.78027 0.23784 0.26855
 B532 B 0.77309 0.25530 0.23853
 B533 B 0.74574 0.24584 0.22597
 B534 B 0.73698 0.22241 0.24831
 B535 B 0.74089 0.26144 0.28446
 B536 B 0.74815 0.26953 0.24912
 B537 B 0.72645 0.24977 0.25489
 B538 B 0.73365 0.23235 0.28490
 B539 B 0.76096 0.24184 0.29750
 B540 B 0.76975 0.26525 0.27519
 B541 B 0.73567 0.77340 0.73898
 B542 B 0.74278 0.78121 0.77447
 B543 B 0.72112 0.76151 0.76832
 B544 B 0.72844 0.74426 0.73824
 B545 B 0.75580 0.75386 0.72601
 B546 B 0.76445 0.77716 0.74861
 B547 B 0.76049 0.73789 0.78442
 B548 B 0.75337 0.73001 0.74896
 B549 B 0.77501 0.74978 0.75508
 B550 B 0.76767 0.76699 0.78515
 B551 B 0.74034 0.75737 0.79741
 B552 B 0.73167 0.73409 0.77484
 B553 B 0.26411 0.27388 0.76118
 B554 B 0.25700 0.28189 0.72574
 B555 B 0.27864 0.26213 0.73177
 B556 B 0.27132 0.24472 0.76174
 B557 B 0.24396 0.25429 0.77404
 B558 B 0.23533 0.27773 0.75158
 B559 B 0.23925 0.23865 0.71552
 B560 B 0.24637 0.23056 0.75094
 B561 B 0.22475 0.25040 0.74494
 B562 B 0.23209 0.26776 0.71498
 B563 B 0.25941 0.25817 0.70265
 B564 B 0.26807 0.23475 0.72507
 B565 B 0.23494 0.72709 0.26041
 B566 B 0.24217 0.71918 0.22503
 B567 B 0.22040 0.73881 0.23089
 B568 B 0.22756 0.75620 0.26092
 B569 B 0.25494 0.74677 0.27343
 B570 B 0.26375 0.72342 0.25103
 B571 B 0.25970 0.76254 0.21495
 B572 B 0.25245 0.77052 0.25031
 B573 B 0.27420 0.75081 0.24448
 B574 B 0.26702 0.73346 0.21445
 B575 B 0.23967 0.74292 0.20191
 B576 B 0.23083 0.76625 0.22428
 B577 B 0.26521 0.72654 0.73832
 B578 B 0.25807 0.71859 0.77375
 B579 B 0.27974 0.73830 0.76779
 B580 B 0.27245 0.75568 0.73774
 B581 B 0.24509 0.74615 0.72533
 B582 B 0.23642 0.72276 0.74780
 B583 B 0.24037 0.76188 0.78379
 B584 B 0.24752 0.76990 0.74839
 B585 B 0.22586 0.75011 0.75432
 B586 B 0.23317 0.73278 0.78436
 B587 B 0.26050 0.74234 0.79680
 B588 B 0.26920 0.76570 0.77437
 B589 B 0.23527 0.27336 0.23937
 B590 B 0.24244 0.28114 0.27486
 B591 B 0.22072 0.26151 0.26875
 B592 B 0.22796 0.24424 0.23865
 B593 B 0.25533 0.25375 0.22637
 B594 B 0.26407 0.27703 0.24896
 B595 B 0.26006 0.23778 0.28477
 B596 B 0.25286 0.22991 0.24932
 B597 B 0.27457 0.24963 0.25539
 B598 B 0.26731 0.26685 0.28549
 B599 B 0.23997 0.25731 0.29780
 B600 B 0.23121 0.23405 0.27525
 B601 B 0.76541 0.77403 0.26034
 B602 B 0.75825 0.78190 0.22487
 B603 B 0.77993 0.76219 0.23097
 B604 B 0.77266 0.74489 0.26106
 B605 B 0.74531 0.75446 0.27334
 B606 B 0.73662 0.77780 0.25077
 B607 B 0.74055 0.73859 0.21494
 B608 B 0.74773 0.73065 0.25038
 B609 B 0.72606 0.75043 0.24431
 B610 B 0.73335 0.76769 0.21423
 B611 B 0.76067 0.75810 0.20191
 B612 B 0.76939 0.73478 0.22446
 B613 B 0.73435 0.22633 0.76129
 B614 B 0.74149 0.21863 0.72580
 B615 B 0.71977 0.23825 0.73195
 B616 B 0.72703 0.25546 0.76212
 B617 B 0.75443 0.24590 0.77442
 B618 B 0.76314 0.22267 0.75176
 B619 B 0.75906 0.26201 0.71608
 B620 B 0.75192 0.26979 0.75155
 B621 B 0.77362 0.25009 0.74543
 B622 B 0.76634 0.23293 0.71527
 B623 B 0.73898 0.24251 0.70294
 B624 B 0.73023 0.26572 0.72556
 C625 C 0.41547 1.04996 0.40569
 C626 C 0.41820 1.05280 0.37064
 C627 C 0.39877 1.03384 0.36606
 C628 C 0.39568 1.03105 0.40064
 C629 C 0.43420 1.03002 0.40497
 C630 C 0.41473 1.01112 0.40031
 C631 C 0.43726 1.03281 0.37040
 C632 C 0.41756 1.01395 0.36549
 C633 C 0.37954 1.03454 0.34356
 C634 C 0.36439 1.03403 0.32414
 C635 C 0.45377 1.02582 0.42628
 C636 C 0.46936 1.02007 0.44361
 H637 H 0.41502 1.06479 0.42240
 H638 H 0.41933 1.06998 0.35816
 H639 H 0.37838 1.03029 0.41283
 H640 H 0.41357 0.99389 0.41267
 H641 H 0.45456 1.03352 0.35822
 H642 H 0.41820 0.99910 0.34880
 C643 C -0.08916 0.51667 0.90814
 C644 C -0.10341 0.53977 0.90166
 C645 C -0.10128 0.53476 0.86737
 C646 C -0.08732 0.51172 0.87360
 C647 C -0.06589 0.53102 0.90637
 C648 C -0.06385 0.52603 0.87208
 C649 C -0.07979 0.55413 0.90030
 C650 C -0.07804 0.54916 0.86555
 C651 C -0.12042 0.53537 0.84475
 C652 C -0.13545 0.53475 0.82517
 C653 C -0.04630 0.52682 0.92763
 C654 C -0.03071 0.52101 0.94492
 H655 H -0.09344 0.50326 0.92593
 H656 H -0.11991 0.54545 0.91354
 H657 H -0.09062 0.49427 0.86246
 H658 H -0.04737 0.52038 0.86014
 H659 H -0.07640 0.57150 0.91158
 H660 H -0.07372 0.56254 0.84775
 C661 C 0.08865 -0.01679 0.90747
 C662 C 0.10279 -0.03993 0.90094
 C663 C 0.10067 -0.03477 0.86666
 C664 C 0.08682 -0.01169 0.87294
 C665 C 0.06531 -0.03102 0.90555
 C666 C 0.06328 -0.02588 0.87128
 C667 C 0.07909 -0.05417 0.89943
 C668 C 0.07736 -0.04904 0.86471
 C669 C 0.11982 -0.03542 0.84414
 C670 C 0.13489 -0.03486 0.82467
 C671 C 0.04575 -0.02684 0.92678
 C672 C 0.03020 -0.02108 0.94408
 H673 H 0.09300 -0.00347 0.92533
 H674 H 0.11926 -0.04574 0.91285
 H675 H 0.09021 0.00579 0.86188
 H676 H 0.04683 -0.02010 0.85931
 H677 H 0.07562 -0.07157 0.91063
 H678 H 0.07298 -0.06234 0.84683
 C679 C 0.56392 0.47395 0.37120
 C680 C 0.58747 0.48812 0.37309
 C681 C 0.60134 0.46501 0.36708
 C682 C 0.57803 0.45076 0.36489
 C683 C 0.56569 0.46888 0.40551
 C684 C 0.57950 0.44571 0.39965
 C685 C 0.58903 0.48310 0.40766
 C686 C 0.60319 0.45993 0.40140
 C687 C 0.62067 0.46432 0.34482
 C688 C 0.63590 0.46487 0.32555
 C689 C 0.54601 0.47314 0.42653
 C690 C 0.53038 0.47897 0.44368
 H691 H 0.54756 0.47971 0.35900
 H692 H 0.59095 0.50557 0.36202
 H693 H 0.57377 0.43743 0.34701
 H694 H 0.57593 0.42833 0.41086
 H695 H 0.59325 0.49646 0.42552
 H696 H 0.61957 0.45413 0.41352
 C697 C 0.58462 0.55125 0.09397
 C698 C 0.58197 0.55416 0.12901
 C699 C 0.60132 0.53511 0.13364
 C700 C 0.60434 0.53225 0.09906
 C701 C 0.56581 0.53140 0.09483
 C702 C 0.58521 0.51242 0.09955
 C703 C 0.56282 0.53426 0.12941
 C704 C 0.58245 0.51531 0.13435
 C705 C 0.62059 0.53573 0.15608
 C706 C 0.63578 0.53514 0.17545
 C707 C 0.54620 0.52723 0.07359
 C708 C 0.53059 0.52145 0.05633
 H709 H 0.58511 0.56605 0.07717
 H710 H 0.58092 0.57137 0.14141
 H711 H 0.62162 0.53139 0.08683
 H712 H 0.58628 0.49516 0.08726
 H713 H 0.54554 0.53508 0.14162
 H714 H 0.58177 0.50050 0.15112
 C715 C 0.08871 1.01670 0.59228
 C716 C 0.10301 1.03979 0.59857
 C717 C 0.10104 1.03479 0.63290
 C718 C 0.08704 1.01177 0.62685
 C719 C 0.06546 1.03108 0.59419
 C720 C 0.06359 1.02610 0.62851
 C721 C 0.07939 1.05417 0.60008
 C722 C 0.07781 1.04921 0.63485
 C723 C 0.12027 1.03543 0.65539
 C724 C 0.13537 1.03486 0.67490
 C725 C 0.04574 1.02690 0.57312
 C726 C 0.03004 1.02110 0.55600
 H727 H 0.09291 1.00328 0.57449
 H728 H 0.11944 1.04544 0.58654
 H729 H 0.09039 0.99432 0.63802
 H730 H 0.04716 1.02047 0.64060
 H731 H 0.07596 1.07155 0.58877
 H732 H 0.07359 1.06261 0.65264
 C733 C -0.08434 0.44850 0.59394
 C734 C -0.08147 0.44530 0.62894
 C735 C -0.10071 0.46440 0.63389
 C736 C -0.10394 0.46755 0.59936
 C737 C -0.06543 0.46825 0.59489
 C738 C -0.08471 0.48729 0.59993
 C739 C -0.06224 0.46512 0.62941
 C740 C -0.08175 0.48411 0.63468
 C741 C -0.11982 0.46373 0.65647
 C742 C -0.13485 0.46433 0.67598
 C743 C -0.04594 0.47254 0.57359
 C744 C -0.03041 0.47842 0.55631
 H745 H -0.08501 0.43384 0.57699
 H746 H -0.08043 0.42799 0.64115
 H747 H -0.12128 0.46858 0.58725
 H748 H -0.08579 0.50464 0.58782
 H749 H -0.04489 0.46412 0.64151
 H750 H -0.08089 0.49879 0.65159
 C751 C 0.41599 -0.05121 0.09355
 C752 C 0.41869 -0.05414 0.12860
 C753 C 0.39926 -0.03518 0.13316
 C754 C 0.39619 -0.03229 0.09857
 C755 C 0.43471 -0.03128 0.09444
 C756 C 0.41524 -0.01238 0.09909
 C757 C 0.43775 -0.03415 0.12902
 C758 C 0.41805 -0.01529 0.13390
 C759 C 0.38002 -0.03588 0.15556
 C760 C 0.36485 -0.03536 0.17489
 C761 C 0.45428 -0.02699 0.07325
 C762 C 0.46984 -0.02112 0.05603
 H763 H 0.41555 -0.06599 0.07677
 H764 H 0.41982 -0.07135 0.14102
 H765 H 0.37890 -0.03150 0.08631
 H766 H 0.41408 0.00488 0.08678
 H767 H 0.45505 -0.03491 0.14127
 H768 H 0.41868 -0.00049 0.15066
 C769 C 0.37841 0.48548 0.05761
 C770 C 0.36345 0.47490 0.03119
 C771 C 0.35670 0.45380 0.05178
 C772 C 0.37126 0.46419 0.07830
 C773 C 0.39996 0.47111 0.04644
 C774 C 0.39328 0.44999 0.06701
 C775 C 0.38534 0.46070 0.02000
 C776 C 0.37830 0.43948 0.04059
 C777 C 0.33263 0.44395 0.05306
 C778 C 0.31286 0.43571 0.05224
 C779 C 0.42405 0.48008 0.04161
 C780 C 0.44390 0.48650 0.03555
 H781 H 0.37879 0.50449 0.06455
 H782 H 0.35093 0.48501 0.01644
 H783 H 0.36515 0.46547 0.10229
 H784 H 0.40588 0.43989 0.08166
 H785 H 0.39141 0.45938 -0.00403
 H786 H 0.37800 0.42047 0.03361
 C787 C -0.12165 0.98457 0.56092
 C788 C -0.13777 0.97708 0.53387
 C789 C -0.14422 0.95412 0.55107
 C790 C -0.12852 0.96141 0.57821
 C791 C -0.10084 0.97118 0.54608
 C792 C -0.10724 0.94820 0.56326
 C793 C -0.11660 0.96386 0.51902
 C794 C -0.12335 0.94079 0.53622
 C795 C -0.16834 0.94438 0.55209
 C796 C -0.18814 0.93621 0.55103
 C797 C -0.07669 0.98001 0.54138
 C798 C -0.05679 0.98632 0.53538
 H799 H -0.12062 1.00267 0.57101
 H800 H -0.15060 0.98882 0.52176
 H801 H -0.13374 0.96025 0.60255
 H802 H -0.09436 0.93647 0.57528
 H803 H -0.11142 0.96498 0.49464
 H804 H -0.12430 0.92269 0.52609
 C805 C -0.11764 0.02270 0.92858
 C806 C -0.13787 0.01904 0.95218
 C807 C -0.14399 0.04566 0.94971
 C808 C -0.12421 0.04952 0.92608
 C809 C -0.10056 0.02871 0.95482
 C810 C -0.10669 0.05532 0.95238
 C811 C -0.12037 0.02490 0.97842
 C812 C -0.12682 0.05160 0.97592
 C813 C -0.16813 0.05536 0.94859
 C814 C -0.18792 0.06353 0.94950
 C815 C -0.07637 0.01994 0.95951
 C816 C -0.05644 0.01365 0.96546
 H817 H -0.11353 0.01069 0.90920
 H818 H -0.15100 0.00425 0.95208
 H819 H -0.12609 0.05978 0.90457
 H820 H -0.09354 0.07009 0.95254
 H821 H -0.11848 0.01469 0.99999
 H822 H -0.13082 0.06358 0.99538
 C823 C 0.39018 0.54178 0.42504
 C824 C 0.36697 0.52681 0.42714
 C825 C 0.35625 0.54593 0.44808
 C826 C 0.37901 0.56103 0.44593
 C827 C 0.39963 0.52888 0.45347
 C828 C 0.38885 0.54799 0.47436
 C829 C 0.37690 0.51378 0.45566
 C830 C 0.36581 0.53304 0.47649
 C831 C 0.33211 0.55563 0.44688
 C832 C 0.31230 0.56376 0.44780
 C833 C 0.42378 0.52008 0.45839
 C834 C 0.44367 0.51377 0.46453
 H835 H 0.40054 0.54522 0.40396
 H836 H 0.35765 0.51826 0.40769
 H837 H 0.37962 0.58056 0.44193
 H838 H 0.39814 0.55656 0.49384
 H839 H 0.37636 0.49426 0.45972
 H840 H 0.35555 0.52958 0.49765
 C841 C 0.11989 0.52521 0.52193
 C842 C 0.12630 0.55188 0.52492
 C843 C 0.14374 0.54557 0.55073
 C844 C 0.13766 0.51899 0.54776
 C845 C 0.10030 0.52862 0.54591
 C846 C 0.11764 0.52225 0.57175
 C847 C 0.10638 0.55520 0.54884
 C848 C 0.12416 0.54904 0.57474
 C849 C 0.16787 0.55528 0.55171
 C850 C 0.18766 0.56346 0.55070
 C851 C 0.07610 0.51983 0.54135
 C852 C 0.05617 0.51353 0.53545
 H853 H 0.11783 0.51532 0.50017
 H854 H 0.13010 0.56416 0.50567
 H855 H 0.15082 0.50422 0.54733
 H856 H 0.11374 0.50994 0.59092
 H857 H 0.09320 0.56995 0.54922
 H858 H 0.12623 0.55897 0.59645
 C859 C 0.60650 0.05600 0.04752
 C860 C 0.62342 0.05121 0.07479
 C861 C 0.64371 0.04638 0.05217
 C862 C 0.62713 0.05132 0.02500
 C863 C 0.60036 0.02933 0.04664
 C864 C 0.62066 0.02457 0.02405
 C865 C 0.61685 0.02434 0.07385
 C866 C 0.63758 0.01971 0.05126
 C867 C 0.66782 0.05613 0.05343
 C868 C 0.68761 0.06431 0.05251
 C869 C 0.57623 0.02050 0.04169
 C870 C 0.55637 0.01415 0.03551
 H871 H 0.59340 0.07077 0.04590
 H872 H 0.62486 0.06230 0.09565
 H873 H 0.63158 0.06251 0.00491
 H874 H 0.61922 0.01353 0.00313
 H875 H 0.61228 0.01311 0.09385
 H876 H 0.65066 0.00492 0.05283
 C877 C 0.61733 0.97691 0.42785
 C878 C 0.63764 0.98072 0.45136
 C879 C 0.64390 0.95413 0.44901
 C880 C 0.62403 0.95012 0.42546
 C881 C 0.60039 0.97084 0.45417
 C882 C 0.60666 0.94426 0.45185
 C883 C 0.62028 0.97480 0.47769
 C884 C 0.62688 0.94813 0.47530
 C885 C 0.66809 0.94456 0.44783
 C886 C 0.68793 0.93648 0.44872
 C887 C 0.57617 0.97948 0.45889
 C888 C 0.55623 0.98566 0.46486
 H889 H 0.61306 0.98886 0.40842
 H890 H 0.65068 0.99558 0.45115
 H891 H 0.62588 0.93984 0.40399
 H892 H 0.59360 0.92941 0.45212
 H893 H 0.61844 0.98503 0.49921
 H894 H 0.63103 0.93621 0.49481
 C895 C 0.11884 0.47170 0.98139
 C896 C 0.12513 0.44552 0.97404
 C897 C 0.14359 0.45432 0.95079
 C898 C 0.13761 0.48041 0.95812
 C899 C 0.10015 0.47127 0.95579
 C900 C 0.11852 0.48014 0.93252
 C901 C 0.10612 0.44518 0.94850
 C902 C 0.12494 0.45385 0.92515
 C903 C 0.16772 0.44460 0.94964
 C904 C 0.18751 0.43640 0.95046
 C905 C 0.07596 0.48002 0.96041
 C906 C 0.05602 0.48626 0.96630
 H907 H 0.11602 0.47915 1.00455
 H908 H 0.12808 0.43120 0.99112
 H909 H 0.15085 0.49477 0.96207
 H910 H 0.11547 0.49449 0.91552
 H911 H 0.09285 0.43084 0.94458
 H912 H 0.12776 0.44636 0.90202
 C913 C -0.02565 0.39014 0.46019
 C914 C -0.01053 0.38551 0.43123
 C915 C 0.00015 0.36327 0.44650
 C916 C -0.01492 0.36746 0.47526
 C917 C -0.00506 0.40489 0.47351
 C918 C 0.00563 0.38267 0.48880
 C919 C 0.00997 0.40058 0.44476
 C920 C 0.02067 0.37811 0.45985
 C921 C 0.00440 0.34053 0.43081
 C922 C 0.00902 0.32226 0.41753
 C923 C -0.00617 0.42875 0.48716
 C924 C -0.00508 0.44892 0.49653
 H925 H -0.04473 0.39534 0.46055
 H926 H -0.01710 0.38650 0.40738
 H927 H -0.02513 0.35357 0.48765
 H928 H 0.01222 0.38171 0.51264
 H929 H 0.02022 0.41441 0.43230
 H930 H 0.03978 0.37302 0.45955
 C931 C 0.47500 -0.10964 -0.03957
 C932 C 0.49002 -0.11422 -0.06863
 C933 C 0.50086 -0.13640 -0.05341
 C934 C 0.48589 -0.13227 -0.02456
 C935 C 0.49558 -0.09480 -0.02639
 C936 C 0.50642 -0.11697 -0.01116
 C937 C 0.51051 -0.09906 -0.05524
 C938 C 0.52137 -0.12148 -0.04021
 C939 C 0.50512 -0.15913 -0.06912
 C940 C 0.50974 -0.17739 -0.08242
 C941 C 0.49441 -0.07095 -0.01276
 C942 C 0.49545 -0.05075 -0.00344
 H943 H 0.45590 -0.10452 -0.03909
 H944 H 0.48335 -0.11326 -0.09243
 H945 H 0.47579 -0.14620 -0.01210
 H946 H 0.51311 -0.11790 0.01263
 H947 H 0.52065 -0.08518 -0.06777
 H948 H 0.54049 -0.12649 -0.04064
 C949 C -0.01035 -0.09946 1.05505
 C950 C -0.02097 -0.12190 1.03987
 C951 C -0.00056 -0.13677 1.05347
 C952 C 0.01004 -0.11456 1.06884
 C953 C 0.00489 -0.09516 1.02646
 C954 C 0.02537 -0.10994 1.04005
 C955 C -0.00572 -0.11735 1.01109
 C956 C 0.01472 -0.13259 1.02488
 C957 C -0.00493 -0.15948 1.06918
 C958 C -0.00964 -0.17773 1.08249
 C959 C 0.00609 -0.07128 1.01288
 C960 C 0.00503 -0.05106 1.00361
 H961 H -0.02067 -0.08561 1.06737
 H962 H -0.04008 -0.12696 1.03997
 H963 H 0.01644 -0.11360 1.09276
 H964 H 0.04445 -0.10477 1.03990
 H965 H -0.01214 -0.11828 0.98718
 H966 H 0.02500 -0.14650 1.01264
 C967 C 0.48957 0.40080 0.55475
 C968 C 0.47893 0.37835 0.53963
 C969 C 0.49932 0.36348 0.55328
 C970 C 0.50994 0.38570 0.56858
 C971 C 0.50481 0.40503 0.52615
 C972 C 0.52528 0.39025 0.53978
 C973 C 0.49418 0.38283 0.51084
 C974 C 0.51460 0.36758 0.52468
 C975 C 0.49493 0.34080 0.56907
 C976 C 0.49021 0.32257 0.58242
 C977 C 0.50605 0.42889 0.51249
 C978 C 0.50502 0.44909 0.50316
 H979 H 0.47927 0.41468 0.56702
 H980 H 0.45981 0.37331 0.53975
 H981 H 0.51635 0.38671 0.59250
 H982 H 0.54437 0.39540 0.53961
 H983 H 0.48776 0.38186 0.48693
 H984 H 0.52487 0.35364 0.51248
 C985 C 0.50493 1.11633 0.51099
 C986 C 0.48434 1.13144 0.52452
 C987 C 0.49940 1.13561 0.55334
 C988 C 0.51997 1.12087 0.54000
 C989 C 0.49433 1.09405 0.52616
 C990 C 0.50936 1.09834 0.55498
 C991 C 0.47369 1.10869 0.53948
 C992 C 0.48881 1.11331 0.56850
 C993 C 0.50360 1.15830 0.56915
 C994 C 0.50819 1.17653 0.58253
 C995 C 0.49334 1.07021 0.51249
 C996 C 0.49456 1.05003 0.50317
 H997 H 0.51151 1.11736 0.48718
 H998 H 0.47407 1.14533 0.51216
 H999 H 0.53906 1.12602 0.54039
 H1000 H 0.51967 1.08451 0.56742
 H1001 H 0.45464 1.10343 0.53904
 H1002 H 0.48226 1.11224 0.59232
 C1003 C 0.00524 0.61690 1.01248
 C1004 C -0.01527 0.63218 1.02589
 C1005 C -0.00024 0.63631 1.05474
 C1006 C 0.02025 0.62140 1.04152
 C1007 C -0.00554 0.59472 1.02770
 C1008 C 0.00947 0.59897 1.05655
 C1009 C -0.02610 0.60954 1.04089
 C1010 C -0.01100 0.61411 1.06995
 C1011 C 0.00408 0.65902 1.07045
 C1012 C 0.00878 0.67727 1.08373
 C1013 C -0.00666 0.57087 1.01406
 C1014 C -0.00554 0.55068 1.00473
 H1015 H 0.01187 0.61783 0.98868
 H1016 H -0.02543 0.64611 1.01344
 H1017 H 0.03938 0.62642 1.04195
 H1018 H 0.01966 0.58510 1.06907
 H1019 H -0.04519 0.60441 1.04042
 H1020 H -0.01762 0.61315 1.09375
 C1021 C 0.48130 0.60487 -0.03916
 C1022 C 0.48668 0.62933 -0.02448
 C1023 C 0.49969 0.63683 -0.05377
 C1024 C 0.49426 0.61262 -0.06858
 C1025 C 0.50500 0.59528 -0.02650
 C1026 C 0.51801 0.60276 -0.05579
 C1027 C 0.51045 0.61944 -0.01157
 C1028 C 0.52345 0.62735 -0.04116
 C1029 C 0.49540 0.65951 -0.06965
 C1030 C 0.49076 0.67774 -0.08307
 C1031 C 0.50613 0.57146 -0.01270
 C1032 C 0.50505 0.55128 -0.00327
 H1033 H 0.46393 0.59544 -0.03821
 H1034 H 0.47371 0.64045 -0.01177
 H1035 H 0.48754 0.60997 -0.09215
 H1036 H 0.53096 0.59160 -0.06848
 H1037 H 0.51715 0.62200 0.01201
 H1038 H 0.54077 0.63684 -0.04218
 C1039 C 0.02506 1.10943 0.45947
 C1040 C 0.00978 1.11402 0.43056
 C1041 C -0.00076 1.13633 0.44575
 C1042 C 0.01446 1.13217 0.47445
 C1043 C 0.00451 1.09476 0.47300
 C1044 C -0.00604 1.11705 0.48820
 C1045 C -0.01068 1.09904 0.44430
 C1046 C -0.02123 1.12158 0.45931
 C1047 C -0.00505 1.15903 0.42993
 C1048 C -0.00972 1.17729 0.41656
 C1049 C 0.00564 1.07093 0.48678
 C1050 C 0.00455 1.05076 0.49625
 H1051 H 0.04412 1.10418 0.45975
 H1052 H 0.01621 1.11296 0.40669
 H1053 H 0.02479 1.14607 0.48669
 H1054 H -0.01249 1.11809 0.51207
 H1055 H -0.02103 1.08520 0.43199
 H1056 H -0.04033 1.12671 0.45907
 C1057 C 0.78378 0.68732 0.87949
 C1058 C 0.76484 0.66767 0.88414
 C1059 C 0.78465 0.64880 0.88369
 C1060 C 0.80370 0.66818 0.87937
 C1061 C 0.78117 0.68434 0.84488
 C1062 C 0.80103 0.66553 0.84427
 C1063 C 0.76218 0.66492 0.84929
 C1064 C 0.78203 0.64579 0.84907
 C1065 C 0.78514 0.62952 0.90612
 C1066 C 0.78442 0.61433 0.92549
 C1067 C 0.77710 0.70396 0.82360
 C1068 C 0.77139 0.71957 0.80629
 H1069 H 0.78449 0.70461 0.89174
 H1070 H 0.74991 0.66834 0.90069
 H1071 H 0.82080 0.66923 0.89202
 H1072 H 0.81594 0.66506 0.82770
 H1073 H 0.74502 0.66384 0.83677
 H1074 H 0.78127 0.62850 0.83681
 C1075 C 0.26669 0.16071 0.34281
 C1076 C 0.28980 0.14646 0.34919
 C1077 C 0.28478 0.14842 0.38350
 C1078 C 0.26173 0.16238 0.37736
 C1079 C 0.28099 0.18401 0.34480
 C1080 C 0.27599 0.18588 0.37910
 C1081 C 0.30411 0.17012 0.35077
 C1082 C 0.29913 0.17169 0.38552
 C1083 C 0.28542 0.12917 0.40597
 C1084 C 0.28479 0.11407 0.42545
 C1085 C 0.27678 0.20372 0.32370
 C1086 C 0.27098 0.21940 0.30654
 H1087 H 0.25330 0.15648 0.32497
 H1088 H 0.29551 0.13002 0.33717
 H1089 H 0.24430 0.15898 0.38845
 H1090 H 0.27031 0.20230 0.39118
 H1091 H 0.32147 0.17360 0.33954
 H1092 H 0.31249 0.17595 0.40337
 C1093 C 0.73358 0.33836 0.34248
 C1094 C 0.71032 0.35246 0.34841
 C1095 C 0.71510 0.35060 0.38281
 C1096 C 0.73829 0.33679 0.37712
 C1097 C 0.71942 0.31497 0.34437
 C1098 C 0.72418 0.31319 0.37876
 C1099 C 0.69617 0.32871 0.34990
 C1100 C 0.70090 0.32723 0.38474
 C1101 C 0.71415 0.36993 0.40510
 C1102 C 0.71451 0.38514 0.42441
 C1103 C 0.72390 0.29530 0.32337
 C1104 C 0.72986 0.27969 0.30625
 H1105 H 0.74707 0.34265 0.32484
 H1106 H 0.70459 0.36883 0.33622
 H1107 H 0.75562 0.34033 0.38847
 H1108 H 0.72989 0.29683 0.39101
 H1109 H 0.67892 0.32509 0.33841
 H1110 H 0.68744 0.32291 0.40240
 C1111 C 0.22449 0.81357 0.87812
 C1112 C 0.23863 0.83714 0.87635
 C1113 C 0.21554 0.85098 0.88253
 C1114 C 0.20131 0.82764 0.88458
 C1115 C 0.21936 0.81546 0.84383
 C1116 C 0.19620 0.82923 0.84984
 C1117 C 0.23355 0.83883 0.84181
 C1118 C 0.21039 0.85296 0.84823
 C1119 C 0.21486 0.87018 0.90500
 C1120 C 0.21540 0.88526 0.92450
 C1121 C 0.22359 0.79579 0.82274
 C1122 C 0.22941 0.78016 0.80558
 H1123 H 0.23028 0.79716 0.89019
 H1124 H 0.25609 0.84060 0.88741
 H1125 H 0.18803 0.82329 0.90246
 H1126 H 0.17881 0.82569 0.83865
 H1127 H 0.24685 0.84314 0.82393
 H1128 H 0.20457 0.86939 0.83622
 C1129 C 0.27570 0.81409 0.12044
 C1130 C 0.26147 0.83762 0.12191
 C1131 C 0.28455 0.85150 0.11579
 C1132 C 0.29886 0.82819 0.11403
 C1133 C 0.28068 0.81611 0.15475
 C1134 C 0.30382 0.82992 0.14879
 C1135 C 0.26640 0.83945 0.15648
 C1136 C 0.28954 0.85362 0.15011
 C1137 C 0.28526 0.87061 0.09312
 C1138 C 0.28474 0.88558 0.07346
 C1139 C 0.27643 0.79649 0.17594
 C1140 C 0.27062 0.78086 0.19315
 H1141 H 0.27001 0.79762 0.10847
 H1142 H 0.24405 0.84100 0.11070
 H1143 H 0.31224 0.82382 0.09629
 H1144 H 0.32116 0.82647 0.16014
 H1145 H 0.25301 0.84379 0.17423
 H1146 H 0.29526 0.87011 0.16202
 C1147 C 0.79998 0.33432 0.65675
 C1148 C 0.80274 0.33164 0.62168
 C1149 C 0.78385 0.35117 0.61717
 C1150 C 0.78114 0.35421 0.65177
 C1151 C 0.77999 0.31566 0.65596
 C1152 C 0.76116 0.33523 0.65137
 C1153 C 0.78269 0.31266 0.62137
 C1154 C 0.76390 0.33245 0.61654
 C1155 C 0.78457 0.37041 0.59470
 C1156 C 0.78405 0.38555 0.57526
 C1157 C 0.77575 0.29604 0.67715
 C1158 C 0.76995 0.28040 0.69435
 H1159 H 0.81483 0.33468 0.67346
 H1160 H 0.81988 0.33045 0.60919
 H1161 H 0.78047 0.37150 0.66403
 H1162 H 0.74397 0.33645 0.66374
 H1163 H 0.78332 0.29536 0.60913
 H1164 H 0.74903 0.33190 0.59985
 C1165 C 0.21567 0.18850 0.62025
 C1166 C 0.23458 0.16883 0.61543
 C1167 C 0.21474 0.14999 0.61597
 C1168 C 0.19573 0.16939 0.62046
 C1169 C 0.21842 0.18541 0.65484
 C1170 C 0.19854 0.16663 0.65553
 C1171 C 0.23736 0.16597 0.65026
 C1172 C 0.21749 0.14687 0.65057
 C1173 C 0.21413 0.13074 0.59355
 C1174 C 0.21472 0.11553 0.57424
 C1175 C 0.22257 0.20494 0.67618
 C1176 C 0.22833 0.22046 0.69355
 H1177 H 0.21493 0.20583 0.60805
 H1178 H 0.24943 0.16952 0.59878
 H1179 H 0.17858 0.17051 0.60793
 H1180 H 0.18370 0.16613 0.67220
 H1181 H 0.25457 0.16482 0.66268
 H1182 H 0.21828 0.12955 0.66277
 C1183 C 0.73815 0.66567 0.14981
 C1184 C 0.71830 0.64656 0.15063
 C1185 C 0.71504 0.64963 0.11609
 C1186 C 0.73486 0.66848 0.11505
 C1187 C 0.71927 0.68511 0.15479
 C1188 C 0.71602 0.68815 0.12027
 C1189 C 0.69941 0.66632 0.15600
 C1190 C 0.69610 0.66903 0.12100
 C1191 C 0.71415 0.63039 0.09368
 C1192 C 0.71454 0.61523 0.07429
 C1193 C 0.72368 0.70470 0.17595
 C1194 C 0.72958 0.72030 0.19315
 H1195 H 0.75553 0.66455 0.16183
 H1196 H 0.71927 0.62926 0.16287
 H1197 H 0.74947 0.66915 0.09804
 H1198 H 0.71509 0.70545 0.10804
 H1199 H 0.68483 0.66583 0.17303
 H1200 H 0.67876 0.67012 0.10887
 C1201 C 0.22164 0.63122 0.22965
 C1202 C 0.19548 0.62485 0.22234
 C1203 C 0.20427 0.60628 0.19924
 C1204 C 0.23035 0.61233 0.20654
 C1205 C 0.22114 0.64978 0.20390
 C1206 C 0.23000 0.63129 0.18078
 C1207 C 0.19506 0.64374 0.19664
 C1208 C 0.20372 0.62480 0.17345
 C1209 C 0.19461 0.58212 0.19832
 C1210 C 0.18646 0.56231 0.19940
 C1211 C 0.22985 0.67402 0.20839
 C1212 C 0.23607 0.69398 0.21423
 H1213 H 0.22912 0.63417 0.25279
 H1214 H 0.18120 0.62197 0.23943
 H1215 H 0.24473 0.59912 0.21061
 H1216 H 0.24431 0.63428 0.16378
 H1217 H 0.18070 0.65699 0.19262
 H1218 H 0.19621 0.62185 0.15034
 C1219 C 0.72076 0.13065 0.72918
 C1220 C 0.69461 0.12438 0.72165
 C1221 C 0.70345 0.10600 0.69832
 C1222 C 0.72951 0.11195 0.70584
 C1223 C 0.72035 0.14944 0.70370
 C1224 C 0.72926 0.13114 0.68035
 C1225 C 0.69429 0.14349 0.69622
 C1226 C 0.70299 0.12475 0.67280
 C1227 C 0.69375 0.08186 0.69708
 C1228 C 0.68556 0.06206 0.69797
 C1229 C 0.72908 0.17361 0.70859
 C1230 C 0.73533 0.19351 0.71473
 H1231 H 0.72817 0.13338 0.75240
 H1232 H 0.68028 0.12137 0.73863
 H1233 H 0.74386 0.09869 0.70978
 H1234 H 0.74362 0.13426 0.66346
 H1235 H 0.67995 0.15679 0.69232
 H1236 H 0.69555 0.12200 0.64961
 C1237 C 0.79143 0.13852 0.32434
 C1238 C 0.77662 0.11537 0.32029
 C1239 C 0.79653 0.10519 0.30017
 C1240 C 0.81148 0.12789 0.30425
 C1241 C 0.77964 0.14870 0.29553
 C1242 C 0.79955 0.13845 0.27545
 C1243 C 0.76470 0.12602 0.29141
 C1244 C 0.78475 0.11546 0.27139
 C1245 C 0.80617 0.08100 0.30102
 C1246 C 0.81429 0.06117 0.29991
 C1247 C 0.77093 0.17295 0.29100
 C1248 C 0.76471 0.19293 0.28513
 H1249 H 0.79403 0.14834 0.34605
 H1250 H 0.76733 0.10555 0.33876
 H1251 H 0.83082 0.12839 0.30951
 H1252 H 0.80884 0.14825 0.25696
 H1253 H 0.74537 0.12557 0.28609
 H1254 H 0.78213 0.10575 0.24960
 C1255 C 0.27573 0.62950 0.77139
 C1256 C 0.30245 0.62315 0.77373
 C1257 C 0.29667 0.60590 0.79990
 C1258 C 0.27004 0.61191 0.79759
 C1259 C 0.27954 0.64930 0.79505
 C1260 C 0.27369 0.63213 0.82125
 C1261 C 0.30617 0.64327 0.79733
 C1262 C 0.30053 0.62567 0.82359
 C1263 C 0.30648 0.58178 0.80091
 C1264 C 0.31472 0.56200 0.79992
 C1265 C 0.27067 0.67348 0.79048
 C1266 C 0.26432 0.69341 0.78458
 H1267 H 0.26545 0.63139 0.74988
 H1268 H 0.31437 0.61924 0.75420
 H1269 H 0.25531 0.59872 0.79771
 H1270 H 0.26174 0.63615 0.84071
 H1271 H 0.32088 0.65648 0.79715
 H1272 H 0.31087 0.62378 0.84504
 C1273 C 0.26965 0.36956 0.68097
 C1274 C 0.26988 0.38861 0.70657
 C1275 C 0.29592 0.39433 0.69873
 C1276 C 0.29590 0.37571 0.67309
 C1277 C 0.27861 0.35105 0.70408
 C1278 C 0.30465 0.35675 0.69628
 C1279 C 0.27868 0.36969 0.72967
 C1280 C 0.30481 0.37573 0.72182
 C1281 C 0.30584 0.41838 0.69747
 C1282 C 0.31418 0.43812 0.69828
 C1283 C 0.26967 0.32693 0.70889
 C1284 C 0.26328 0.30705 0.71491
 H1285 H 0.25507 0.36669 0.66425
 H1286 H 0.25571 0.40201 0.71079
 H1287 H 0.30312 0.37849 0.64982
 H1288 H 0.31879 0.34332 0.69210
 H1289 H 0.27148 0.36692 0.75297
 H1290 H 0.31936 0.37849 0.73862
 C1291 C 0.79858 0.86190 0.22424
 C1292 C 0.81185 0.87173 0.19603
 C1293 C 0.79674 0.89450 0.19792
 C1294 C 0.78362 0.88497 0.22611
 C1295 C 0.77966 0.85111 0.20304
 C1296 C 0.76455 0.87386 0.20496
 C1297 C 0.79279 0.86055 0.17482
 C1298 C 0.77781 0.88378 0.17666
 C1299 C 0.80647 0.91865 0.19688
 C1300 C 0.81463 0.93846 0.19795
 C1301 C 0.77083 0.82694 0.20783
 C1302 C 0.76450 0.80704 0.21390
 H1303 H 0.80699 0.85262 0.24387
 H1304 H 0.83140 0.87111 0.19236
 H1305 H 0.77999 0.89524 0.24721
 H1306 H 0.74500 0.87442 0.20869
 H1307 H 0.79641 0.85017 0.15380
 H1308 H 0.76942 0.89309 0.15707
 C1309 C 0.73597 0.87319 0.79236
 C1310 C 0.71580 0.88371 0.77240
 C1311 C 0.70395 0.89366 0.80125
 C1312 C 0.72399 0.88352 0.82132
 C1313 C 0.72125 0.85034 0.79623
 C1314 C 0.70940 0.86020 0.82511
 C1315 C 0.70122 0.86056 0.77621
 C1316 C 0.68922 0.87080 0.80508
 C1317 C 0.69410 0.91775 0.80227
 C1318 C 0.68583 0.93752 0.80121
 C1319 C 0.73015 0.82621 0.79148
 C1320 C 0.73651 0.80633 0.78543
 H1321 H 0.75529 0.87385 0.78708
 H1322 H 0.71830 0.89360 0.75071
 H1323 H 0.73320 0.89328 0.83990
 H1324 H 0.70692 0.85020 0.84672
 H1325 H 0.69200 0.85081 0.75760
 H1326 H 0.66990 0.87007 0.81031
 C1327 C 0.22976 0.37179 0.27816
 C1328 C 0.20348 0.37899 0.27311
 C1329 C 0.20442 0.39377 0.30255
 C1330 C 0.23061 0.38691 0.30766
 C1331 C 0.22134 0.35035 0.29704
 C1332 C 0.22232 0.36502 0.32653
 C1333 C 0.19516 0.35724 0.29191
 C1334 C 0.19595 0.37234 0.32143
 C1335 C 0.19474 0.41793 0.30377
 C1336 C 0.18659 0.43774 0.30283
 C1337 C 0.23006 0.32617 0.29207
 C1338 C 0.23629 0.30627 0.28588
 H1339 H 0.24376 0.37126 0.26032
 H1340 H 0.19562 0.38496 0.25115
 H1341 H 0.24506 0.39943 0.31417
 H1342 H 0.23021 0.35894 0.34841
 H1343 H 0.18072 0.34473 0.28537
 H1344 H 0.18191 0.37286 0.33922
 C1345 C 0.15122 0.24927 0.81068
 C1346 C 0.13311 0.26935 0.80397
 C1347 C 0.11305 0.25074 0.80345
 C1348 C 0.13088 0.23064 0.81036
 C1349 C 0.15454 0.24566 0.77621
 C1350 C 0.13456 0.22696 0.77560
 C1351 C 0.13668 0.26573 0.76935
 C1352 C 0.11628 0.24712 0.76896
 C1353 C 0.09041 0.25491 0.81933
 C1354 C 0.07221 0.25946 0.83278
 C1355 C 0.17834 0.24460 0.76248
 C1356 C 0.19850 0.24573 0.75315
 H1357 H 0.16582 0.25013 0.82774
 H1358 H 0.13239 0.28682 0.81579
 H1359 H 0.12829 0.21626 0.82742
 H1360 H 0.13542 0.20951 0.76374
 H1361 H 0.13925 0.28014 0.75232
 H1362 H 0.10165 0.24629 0.75195
 C1363 C 0.64129 0.72474 0.28889
 C1364 C 0.63654 0.73992 0.31778
 C1365 C 0.61420 0.75033 0.30248
 C1366 C 0.61850 0.73520 0.27379
 C1367 C 0.65580 0.74544 0.27545
 C1368 C 0.63347 0.75585 0.26013
 C1369 C 0.65138 0.76053 0.30413
 C1370 C 0.62880 0.77096 0.28901
 C1371 C 0.59147 0.75443 0.31821
 C1372 C 0.57322 0.75895 0.33154
 C1373 C 0.67965 0.74450 0.26184
 C1374 C 0.69983 0.74571 0.25255
 H1375 H 0.64668 0.70570 0.28862
 H1376 H 0.63763 0.73344 0.34166
 H1377 H 0.60470 0.72479 0.26148
 H1378 H 0.63242 0.76236 0.23626
 H1379 H 0.66511 0.77097 0.31652
 H1380 H 0.62352 0.79003 0.28923
 C1381 C 0.64148 0.27524 0.21013
 C1382 C 0.63670 0.26001 0.18127
 C1383 C 0.61445 0.24952 0.19664
 C1384 C 0.61879 0.26470 0.22529
 C1385 C 0.65614 0.25461 0.22358
 C1386 C 0.63391 0.24412 0.23895
 C1387 C 0.65168 0.23947 0.19492
 C1388 C 0.62920 0.22897 0.21010
 C1389 C 0.59167 0.24535 0.18098
 C1390 C 0.57335 0.24080 0.16775
 C1391 C 0.68002 0.25565 0.23718
 C1392 C 0.70021 0.25450 0.24652
 H1393 H 0.64677 0.29430 0.21036
 H1394 H 0.63766 0.26648 0.15739
 H1395 H 0.60499 0.27506 0.23762
 H1396 H 0.63298 0.23763 0.26283
 H1397 H 0.66542 0.22908 0.18252
 H1398 H 0.62401 0.20988 0.20992
 C1399 C 0.14056 0.77536 0.71026
 C1400 C 0.13580 0.76032 0.68124
 C1401 C 0.11371 0.74952 0.69661
 C1402 C 0.11803 0.76451 0.72543
 C1403 C 0.15545 0.75475 0.72335
 C1404 C 0.13337 0.74395 0.73873
 C1405 C 0.15101 0.73980 0.69453
 C1406 C 0.12868 0.72898 0.70972
 C1407 C 0.09090 0.74527 0.68104
 C1408 C 0.07258 0.74065 0.66786
 C1409 C 0.17937 0.75587 0.73683
 C1410 C 0.19960 0.75478 0.74606
 H1411 H 0.14569 0.79446 0.71070
 H1412 H 0.13662 0.76698 0.65743
 H1413 H 0.10419 0.77465 0.73798
 H1414 H 0.13259 0.73727 0.76253
 H1415 H 0.16479 0.72962 0.68191
 H1416 H 0.12366 0.70985 0.70933
 C1417 C 0.86750 0.75589 0.73907
 C1418 C 0.88269 0.73537 0.72548
 C1419 C 0.88678 0.75050 0.69670
 C1420 C 0.87196 0.77099 0.71010
 C1421 C 0.84527 0.74520 0.72386
 C1422 C 0.84948 0.76029 0.69509
 C1423 C 0.86000 0.72463 0.71049
 C1424 C 0.86453 0.73982 0.68151
 C1425 C 0.90944 0.75481 0.68091
 C1426 C 0.92765 0.75949 0.66754
 C1427 C 0.82144 0.74405 0.73753
 C1428 C 0.80127 0.74513 0.74685
 H1429 H 0.86851 0.76244 0.76290
 H1430 H 0.89663 0.72514 0.73782
 H1431 H 0.87701 0.79012 0.70977
 H1432 H 0.83560 0.77056 0.68267
 H1433 H 0.85483 0.70554 0.71088
 H1434 H 0.86349 0.73328 0.65767
 C1435 C 0.34907 0.26025 0.19548
 C1436 C 0.37151 0.27095 0.21058
 C1437 C 0.38638 0.25050 0.19718
 C1438 C 0.36417 0.23982 0.18189
 C1439 C 0.34483 0.24510 0.22420
 C1440 C 0.35961 0.22458 0.21082
 C1441 C 0.36702 0.25579 0.23950
 C1442 C 0.38226 0.23531 0.22590
 C1443 C 0.40908 0.25482 0.18146
 C1444 C 0.42732 0.25947 0.16816
 C1445 C 0.32099 0.24390 0.23782
 C1446 C 0.30081 0.24495 0.24713
 H1447 H 0.33521 0.27052 0.18305
 H1448 H 0.37655 0.29008 0.21032
 H1449 H 0.36318 0.23332 0.15803
 H1450 H 0.35447 0.20548 0.21113
 H1451 H 0.36798 0.26231 0.26335
 H1452 H 0.39618 0.22508 0.23825
 C1453 C 0.36698 0.74597 0.25983
 C1454 C 0.38168 0.76624 0.27489
 C1455 C 0.38616 0.75000 0.30259
 C1456 C 0.37184 0.72976 0.28772
 C1457 C 0.34451 0.75545 0.27567
 C1458 C 0.34912 0.73926 0.30337
 C1459 C 0.35874 0.77576 0.29052
 C1460 C 0.36367 0.75948 0.31841
 C1461 C 0.40890 0.74561 0.31825
 C1462 C 0.42717 0.74088 0.33151
 C1463 C 0.32063 0.75664 0.26210
 C1464 C 0.30043 0.75556 0.25280
 H1465 H 0.36813 0.74047 0.23558
 H1466 H 0.39534 0.77731 0.26334
 H1467 H 0.37738 0.71078 0.28674
 H1468 H 0.33552 0.72815 0.31500
 H1469 H 0.35311 0.79471 0.29145
 H1470 H 0.36249 0.76496 0.34267
 C1471 C 0.86613 0.24431 0.76153
 C1472 C 0.88125 0.26486 0.77522
 C1473 C 0.88546 0.24967 0.80394
 C1474 C 0.87071 0.22915 0.79045
 C1475 C 0.84388 0.25487 0.77677
 C1476 C 0.84822 0.23972 0.80549
 C1477 C 0.85853 0.27546 0.79023
 C1478 C 0.86319 0.26022 0.81916
 C1479 C 0.90816 0.24543 0.81973
 C1480 C 0.92642 0.24082 0.83310
 C1481 C 0.82003 0.25594 0.76309
 C1482 C 0.79985 0.25480 0.75374
 H1483 H 0.86712 0.23782 0.73768
 H1484 H 0.89511 0.27517 0.76293
 H1485 H 0.87587 0.21005 0.79071
 H1486 H 0.83441 0.22937 0.81784
 H1487 H 0.85327 0.29453 0.78991
 H1488 H 0.86216 0.26670 0.84302
 C1489 C 0.58371 0.99762 0.58612
 C1490 C 0.58343 0.98793 0.61900
 C1491 C 0.60975 0.98098 0.61551
 C1492 C 0.61018 0.99072 0.58280
 C1493 C 0.57653 0.97279 0.57446
 C1494 C 0.60283 0.96581 0.57078
 C1495 C 0.57605 0.96304 0.60716
 C1496 C 0.60274 0.95606 0.60402
 C1497 C 0.62712 0.98781 0.63886
 C1498 C 0.64021 0.99520 0.65847
 C1499 C 0.55743 0.97173 0.55183
 C1500 C 0.54175 0.97474 0.53350
 H1501 H 0.57570 1.01475 0.57861
 H1502 H 0.57558 0.99718 0.63897
 H1503 H 0.62433 1.00220 0.57298
 H1504 H 0.61055 0.95661 0.55069
 H1505 H 0.56184 0.95159 0.61690
 H1506 H 0.61086 0.93904 0.61168
 C1507 C 0.10148 0.46222 1.07394
 C1508 C 0.11188 0.48700 1.08223
 C1509 C 0.10979 0.48071 1.11620
 C1510 C 0.09973 0.45595 1.10846
 C1511 C 0.07627 0.47281 1.07545
 C1512 C 0.07416 0.46654 1.10940
 C1513 C 0.08648 0.49748 1.08336
 C1514 C 0.08456 0.49125 1.11747
 C1515 C 0.12731 0.48742 1.13940
 C1516 C 0.14052 0.49473 1.15893
 C1517 C 0.05706 0.47193 1.05296
 C1518 C 0.04135 0.47509 1.03473
 H1519 H 0.10816 0.45020 1.05578
 H1520 H 0.12752 0.49551 1.07125
 H1521 H 0.10547 0.43893 1.11908
 H1522 H 0.05848 0.45806 1.12032
 H1523 H 0.08085 0.51460 1.07286
 H1524 H 0.07773 0.50333 1.13549
 C1525 C -0.10270 0.03388 1.07119
 C1526 C -0.11051 0.00894 1.08266
 C1527 C -0.10990 0.01821 1.11557
 C1528 C -0.10243 0.04316 1.10462
 C1529 C -0.07653 0.02637 1.07482
 C1530 C -0.07587 0.03564 1.10772
 C1531 C -0.08417 0.00152 1.08594
 C1532 C -0.08371 0.01073 1.11901
 C1533 C -0.12736 0.01141 1.13876
 C1534 C -0.14052 0.00406 1.15828
 C1535 C -0.05738 0.02741 1.05232
 C1536 C -0.04172 0.02437 1.03406
 H1537 H -0.11024 0.04351 1.05126
 H1538 H -0.12487 -0.00213 1.07255
 H1539 H -0.11023 0.06022 1.11260
 H1540 H -0.06146 0.04668 1.11775
 H1541 H -0.07648 -0.01565 1.07810
 H1542 H -0.07604 0.00106 1.13881
 C1543 C 0.39670 0.52643 0.56766
 C1544 C 0.39428 0.50336 0.58676
 C1545 C 0.39050 0.51852 0.61547
 C1546 C 0.39261 0.54164 0.59681
 C1547 C 0.42359 0.52657 0.57428
 C1548 C 0.41992 0.54179 0.60296
 C1549 C 0.42129 0.50353 0.59308
 C1550 C 0.41740 0.51865 0.62199
 C1551 C 0.37315 0.51180 0.63881
 C1552 C 0.36002 0.50452 0.65842
 C1553 C 0.44262 0.52759 0.55162
 C1554 C 0.45823 0.52455 0.53329
 H1555 H 0.38841 0.52972 0.54506
 H1556 H 0.38363 0.48748 0.58029
 H1557 H 0.38052 0.55723 0.59863
 H1558 H 0.43065 0.55764 0.60931
 H1559 H 0.43327 0.48784 0.59141
 H1560 H 0.42577 0.51531 0.64453
 C1561 C 0.40052 0.48794 -0.06820
 C1562 C 0.40442 0.50118 -0.09863
 C1563 C 0.39023 0.48167 -0.11512
 C1564 C 0.38603 0.46840 -0.08493
 C1565 C 0.42345 0.47366 -0.07398
 C1566 C 0.40935 0.45399 -0.09031
 C1567 C 0.42747 0.48690 -0.10421
 C1568 C 0.41312 0.46736 -0.12096
 C1569 C 0.37288 0.48844 -0.13853
 C1570 C 0.35984 0.49577 -0.15825
 C1571 C 0.44256 0.47263 -0.05137
 C1572 C 0.45825 0.47570 -0.03311
 H1573 H 0.39553 0.49634 -0.04621
 H1574 H 0.40229 0.52066 -0.10217
 H1575 H 0.36876 0.46090 -0.07723
 H1576 H 0.41162 0.43455 -0.08658
 H1577 H 0.44469 0.49447 -0.11198
 H1578 H 0.41811 0.45898 -0.14296
 C1579 C -0.09782 0.99062 0.42961
 C1580 C -0.09321 0.99980 0.39700
 C1581 C -0.11034 0.98076 0.38467
 C1582 C -0.11522 0.97159 0.41708
 C1583 C -0.07711 0.97293 0.42585
 C1584 C -0.09417 0.95374 0.41374
 C1585 C -0.07238 0.98210 0.39343
 C1586 C -0.08969 0.96303 0.38081
 C1587 C -0.12769 0.98747 0.36124
 C1588 C -0.14075 0.99478 0.34152
 C1589 C -0.05804 0.97201 0.44852
 C1590 C -0.04238 0.97515 0.46682
 H1591 H -0.10098 1.00194 0.44996
 H1592 H -0.09294 1.01882 0.39001
 H1593 H -0.13304 0.96737 0.42660
 H1594 H -0.09429 0.93477 0.42091
 H1595 H -0.05459 0.98638 0.38387
 H1596 H -0.08657 0.95174 0.36044
 C1597 C 0.07561 0.53608 0.39346
 C1598 C 0.10197 0.54425 0.39637
 C1599 C 0.11004 0.51937 0.38596
 C1600 C 0.08404 0.51123 0.38271
 C1601 C 0.07648 0.52722 0.42655
 C1602 C 0.08472 0.50242 0.41597
 C1603 C 0.10247 0.53538 0.43001
 C1604 C 0.11088 0.51050 0.41907
 C1605 C 0.12757 0.51268 0.36283
 C1606 C 0.14076 0.50536 0.34334
 C1607 C 0.05724 0.52802 0.44892
 C1608 C 0.04152 0.52478 0.46703
 H1609 H 0.06093 0.54666 0.38320
 H1610 H 0.10936 0.56140 0.38802
 H1611 H 0.07660 0.50115 0.36313
 H1612 H 0.07745 0.48517 0.42419
 H1613 H 0.10977 0.54541 0.44972
 H1614 H 0.12550 0.49989 0.42941
 C1615 C 0.60311 0.03311 -0.06971
 C1616 C 0.60954 0.00839 -0.08310
 C1617 C 0.60972 0.01931 -0.11520
 C1618 C 0.60362 0.04405 -0.10233
 C1619 C 0.57657 0.02735 -0.07413
 C1620 C 0.57669 0.03828 -0.10621
 C1621 C 0.58285 0.00270 -0.08717
 C1622 C 0.58317 0.01357 -0.11944
 C1623 C 0.62704 0.01253 -0.13855
 C1624 C 0.64007 0.00515 -0.15817
 C1625 C 0.55752 0.02826 -0.05151
 C1626 C 0.54189 0.02508 -0.03324
 H1627 H 0.61104 0.04126 -0.04900
 H1628 H 0.62316 -0.00399 -0.07379
 H1629 H 0.61245 0.06099 -0.10886
 H1630 H 0.56301 0.05063 -0.11543
 H1631 H 0.57413 -0.01435 -0.08079
 H1632 H 0.57511 0.00538 -0.14004
 C1633 C 0.60666 0.51936 0.01397
 C1634 C 0.62763 0.51415 -0.00787
 C1635 C 0.63404 0.54075 -0.00736
 C1636 C 0.61337 0.54601 0.01453
 C1637 C 0.59054 0.52413 -0.01370
 C1638 C 0.59700 0.55072 -0.01314
 C1639 C 0.61110 0.51877 -0.03570
 C1640 C 0.61799 0.54560 -0.03508
 C1641 C 0.65763 0.55079 -0.00145
 C1642 C 0.67629 0.55989 0.00544
 C1643 C 0.56596 0.51562 -0.01412
 C1644 C 0.54560 0.50951 -0.01085
 H1645 H 0.60172 0.50843 0.03408
 H1646 H 0.64050 0.49923 -0.00560
 H1647 H 0.61464 0.55735 0.03517
 H1648 H 0.58412 0.56565 -0.01532
 H1649 H 0.60982 0.50747 -0.05639
 H1650 H 0.62297 0.55652 -0.05520
 C1651 C 0.10291 1.03852 0.46247
 C1652 C 0.11128 1.05539 0.48830
 C1653 C 0.13352 1.03981 0.49282
 C1654 C 0.12563 1.02305 0.46704
 C1655 C 0.09003 1.02319 0.48631
 C1656 C 0.11223 1.00758 0.49086
 C1657 C 0.09807 1.03997 0.51202
 C1658 C 0.12053 1.02450 0.51659
 C1659 C 0.15711 1.04985 0.49865
 C1660 C 0.17580 1.05896 0.50539
 C1661 C 0.06542 1.01478 0.48580
 C1662 C 0.04503 1.00879 0.48901
 H1663 H 0.09536 1.04415 0.44020
 H1664 H 0.11112 1.07516 0.48738
 H1665 H 0.13730 1.01621 0.44862
 H1666 H 0.11230 0.98781 0.49186
 H1667 H 0.08646 1.04692 0.53044
 H1668 H 0.12807 1.01881 0.53885
 C1669 C 0.09828 -0.04056 0.98718
 C1670 C 0.12079 -0.02519 0.98261
 C1671 C 0.13388 -0.04079 1.00602
 C1672 C 0.11161 -0.05628 1.01053
 C1673 C 0.09055 -0.02397 1.01322
 C1674 C 0.10355 -0.03960 1.03669
 C1675 C 0.11279 -0.00845 1.00868
 C1676 C 0.12630 -0.02422 1.03213
 C1677 C 0.15741 -0.05086 0.99983
 C1678 C 0.17606 -0.05991 0.99288
 C1679 C 0.06599 -0.01541 1.01407
 C1680 C 0.04560 -0.00927 1.01111
 H1681 H 0.08647 -0.04728 0.96879
 H1682 H 0.12817 -0.01933 0.96038
 H1683 H 0.11135 -0.07606 1.01115
 H1684 H 0.09616 -0.04538 1.05895
 H1685 H 0.11297 0.01133 1.00798
 H1686 H 0.13817 -0.01762 1.05054
 C1687 C 0.59844 0.45976 0.48716
 C1688 C 0.62093 0.47517 0.48274
 C1689 C 0.63397 0.45958 0.50621
 C1690 C 0.61170 0.44405 0.51058
 C1691 C 0.59057 0.47632 0.51315
 C1692 C 0.60351 0.46071 0.53670
 C1693 C 0.61281 0.49189 0.50876
 C1694 C 0.62626 0.47613 0.53229
 C1695 C 0.65751 0.44952 0.50011
 C1696 C 0.67616 0.44044 0.49315
 C1697 C 0.56599 0.48482 0.51384
 C1698 C 0.54559 0.49091 0.51075
 H1699 H 0.58671 0.45301 0.46871
 H1700 H 0.62840 0.48105 0.46056
 H1701 H 0.61148 0.42427 0.51119
 H1702 H 0.59605 0.45491 0.55891
 H1703 H 0.61295 0.51166 0.50807
 H1704 H 0.63805 0.48275 0.55077
 C1705 C -0.11136 0.48202 0.46456
 C1706 C -0.11844 0.45523 0.46495
 C1707 C -0.13433 0.46001 0.49277
 C1708 C -0.12772 0.48656 0.49247
 C1709 C -0.09074 0.47634 0.48643
 C1710 C -0.10670 0.48104 0.51421
 C1711 C -0.09739 0.44979 0.48678
 C1712 C -0.11361 0.45443 0.51454
 C1713 C -0.15799 0.45014 0.49864
 C1714 C -0.17673 0.44121 0.50548
 C1715 C -0.06612 0.48472 0.48601
 C1716 C -0.04572 0.49074 0.48926
 H1717 H -0.11008 0.49345 0.44396
 H1718 H -0.12359 0.44449 0.44475
 H1719 H -0.14047 0.50156 0.49492
 H1720 H -0.10160 0.49178 0.53441
 H1721 H -0.08463 0.43479 0.48442
 H1722 H -0.11487 0.44296 0.53510
 C1723 C 0.40353 -0.05062 -0.01364
 C1724 C 0.38716 -0.04603 0.01400
 C1725 C 0.36645 -0.04080 -0.00793
 C1726 C 0.38249 -0.04554 -0.03563
 C1727 C 0.40988 -0.02400 -0.01417
 C1728 C 0.38928 -0.01868 -0.03621
 C1729 C 0.39376 -0.01934 0.01348
 C1730 C 0.37276 -0.01417 -0.00843
 C1731 C 0.34288 -0.05087 -0.00211
 C1732 C 0.32418 -0.05991 0.00469
 C1733 C 0.43441 -0.01536 -0.01452
 C1734 C 0.45474 -0.00915 -0.01119
 H1735 H 0.41647 -0.06549 -0.01579
 H1736 H 0.38595 -0.05741 0.03464
 H1737 H 0.37754 -0.05644 -0.05576
 H1738 H 0.39049 -0.00734 -0.05689
 H1739 H 0.39868 -0.00843 0.03360
 H1740 H 0.35983 0.00069 -0.00618
 C1741 C 0.40296 1.04941 0.51283
 C1742 C 0.38665 1.04481 0.48508
 C1743 C 0.36591 1.03958 0.50686
 C1744 C 0.38189 1.04433 0.53466
 C1745 C 0.40934 1.02280 0.51341
 C1746 C 0.38870 1.01747 0.53531
 C1747 C 0.39329 1.01812 0.48566
 C1748 C 0.37224 1.01295 0.50741
 C1749 C 0.34236 1.04970 0.50086
 C1750 C 0.32371 1.05882 0.49395
 C1751 C 0.43390 1.01422 0.51394
 C1752 C 0.45427 1.00810 0.51077
 H1753 H 0.41588 1.06429 0.51507
 H1754 H 0.38548 1.05619 0.46443
 H1755 H 0.37688 1.05524 0.55475
 H1756 H 0.38989 1.00614 0.55600
 H1757 H 0.39825 1.00720 0.46558
 H1758 H 0.35933 0.99809 0.50507
 C1759 C -0.11323 0.50750 1.00925
 C1760 C -0.12682 0.52305 1.03279
 C1761 C -0.13454 0.53972 1.00678
 C1762 C -0.12137 0.52434 0.98329
 C1763 C -0.09108 0.52314 1.01393
 C1764 C -0.09896 0.53982 0.98800
 C1765 C -0.10415 0.53854 1.03750
 C1766 C -0.11235 0.55532 1.01144
 C1767 C -0.15811 0.54973 1.00062
 C1768 C -0.17677 0.55880 0.99364
 C1769 C -0.06647 0.51473 1.01478
 C1770 C -0.04604 0.50874 1.01181
 H1771 H -0.11329 0.48773 1.00841
 H1772 H -0.13862 0.51627 1.05113
 H1773 H -0.12875 0.51857 0.96100
 H1774 H -0.08722 0.54672 0.96968
 H1775 H -0.09676 0.54424 1.05981
 H1776 H -0.11221 0.57510 1.01220
 C1777 C 0.04281 0.60591 0.57207
 C1778 C 0.04499 0.63018 0.55535
 C1779 C 0.02610 0.64062 0.57691
 C1780 C 0.02398 0.61672 0.59381
 C1781 C 0.02275 0.59879 0.55000
 C1782 C 0.00391 0.60929 0.57157
 C1783 C 0.02487 0.62266 0.53302
 C1784 C 0.00605 0.63348 0.55483
 C1785 C 0.02745 0.66372 0.59255
 C1786 C 0.02826 0.68257 0.60578
 C1787 C 0.02000 0.57506 0.53642
 C1788 C 0.01679 0.55509 0.52712
 H1789 H 0.05792 0.59433 0.57897
 H1790 H 0.06192 0.63902 0.54886
 H1791 H 0.02360 0.61446 0.61894
 H1792 H -0.01303 0.60047 0.57810
 H1793 H 0.02524 0.62485 0.50788
 H1794 H -0.00909 0.64503 0.54792
 C1795 C 0.54348 0.10650 0.07088
 C1796 C 0.54508 0.13083 0.05420
 C1797 C 0.52657 0.14104 0.07647
 C1798 C 0.52504 0.11707 0.09332
 C1799 C 0.52302 0.09926 0.04949
 C1800 C 0.50457 0.10952 0.07177
 C1801 C 0.52456 0.12318 0.03256
 C1802 C 0.50612 0.13378 0.05508
 C1803 C 0.52803 0.16411 0.09217
 C1804 C 0.52893 0.18294 0.10544
 C1805 C 0.52019 0.07553 0.03591
 C1806 C 0.51697 0.05556 0.02664
 H1807 H 0.55884 0.09504 0.07718
 H1808 H 0.56179 0.13984 0.04715
 H1809 H 0.52522 0.11474 0.11845
 H1810 H 0.48785 0.10053 0.07886
 H1811 H 0.52436 0.12545 0.00742
 H1812 H 0.49073 0.14520 0.04877
 C1813 C -0.00459 0.10976 0.93017
 C1814 C -0.02457 0.11702 0.90770
 C1815 C -0.02710 0.14085 0.92461
 C1816 C -0.00714 0.13388 0.94692
 C1817 C -0.02347 0.09900 0.95149
 C1818 C -0.02600 0.12279 0.96848
 C1819 C -0.04343 0.10595 0.92918
 C1820 C -0.04603 0.13015 0.94591
 C1821 C -0.02857 0.16396 0.90894
 C1822 C -0.02944 0.18280 0.89568
 C1823 C -0.02055 0.07524 0.96499
 C1824 C -0.01723 0.05524 0.97415
 H1825 H 0.01251 0.10114 0.92384
 H1826 H -0.02397 0.11482 0.88256
 H1827 H 0.00781 0.14558 0.95403
 H1828 H -0.02658 0.12491 0.99362
 H1829 H -0.05836 0.09422 0.92208
 H1830 H -0.06312 0.13879 0.95219
 C1831 C 0.49132 0.60670 0.42246
 C1832 C 0.46838 0.61673 0.40767
 C1833 C 0.47316 0.64078 0.42325
 C1834 C 0.49608 0.63103 0.43787
 C1835 C 0.47670 0.59903 0.45041
 C1836 C 0.48148 0.62305 0.46605
 C1837 C 0.45376 0.60874 0.43580
 C1838 C 0.45849 0.63318 0.45120
 C1839 C 0.47179 0.66384 0.40746
 C1840 C 0.47102 0.68265 0.39410
 C1841 C 0.47957 0.57532 0.46405
 C1842 C 0.48287 0.55535 0.47333
 H1843 H 0.50487 0.59559 0.41077
 H1844 H 0.46301 0.61433 0.38350
 H1845 H 0.51349 0.64039 0.43853
 H1846 H 0.48686 0.62540 0.49021
 H1847 H 0.43638 0.59931 0.43517
 H1848 H 0.44495 0.64433 0.46285
 C1849 C 0.52584 0.87638 0.46749
 C1850 C 0.50703 0.86547 0.44566
 C1851 C 0.52704 0.85857 0.42350
 C1852 C 0.54593 0.86908 0.44507
 C1853 C 0.52345 0.90027 0.45064
 C1854 C 0.54348 0.89339 0.42848
 C1855 C 0.50462 0.88970 0.42906
 C1856 C 0.52465 0.88251 0.40674
 C1857 C 0.52848 0.83554 0.40771
 C1858 C 0.52930 0.81676 0.39435
 C1859 C 0.52054 0.92396 0.46428
 C1860 C 0.51719 0.94390 0.47354
 H1861 H 0.52633 0.87411 0.49262
 H1862 H 0.49202 0.85378 0.45255
 H1863 H 0.56297 0.86035 0.45146
 H1864 H 0.55846 0.90511 0.42161
 H1865 H 0.48757 0.89840 0.42262
 H1866 H 0.52415 0.88484 0.38161
 C1867 C 0.04617 0.38680 0.94828
 C1868 C 0.03286 0.36384 0.95826
 C1869 C 0.02627 0.35911 0.92477
 C1870 C 0.03961 0.38166 0.91458
 C1871 C 0.02286 0.40088 0.95175
 C1872 C 0.01630 0.39608 0.91827
 C1873 C 0.00951 0.37835 0.96195
 C1874 C 0.00300 0.37325 0.92827
 C1875 C 0.02762 0.33604 0.90906
 C1876 C 0.02840 0.31723 0.89576
 C1877 C 0.02007 0.42461 0.96532
 C1878 C 0.01681 0.44458 0.97457
 H1879 H 0.06389 0.39262 0.95671
 H1880 H 0.03969 0.35031 0.97455
 H1881 H 0.05198 0.38282 0.89492
 H1882 H 0.00947 0.40958 0.90194
 H1883 H -0.00286 0.37722 0.98160
 H1884 H -0.01475 0.36750 0.91986
 C1885 C 0.48191 0.37732 0.03404
 C1886 C 0.49644 0.36932 0.06231
 C1887 C 0.47351 0.35951 0.07672
 C1888 C 0.45890 0.36713 0.04867
 C1889 C 0.47703 0.40131 0.04970
 C1890 C 0.45407 0.39154 0.06409
 C1891 C 0.49159 0.39361 0.07775
 C1892 C 0.46864 0.38352 0.09233
 C1893 C 0.47212 0.33641 0.09243
 C1894 C 0.47130 0.31756 0.10570
 C1895 C 0.47987 0.42504 0.03610
 C1896 C 0.48314 0.44501 0.02683
 H1897 H 0.48735 0.37502 0.00991
 H1898 H 0.51388 0.35999 0.06177
 H1899 H 0.44541 0.35598 0.03688
 H1900 H 0.43667 0.40093 0.06461
 H1901 H 0.50508 0.40473 0.08958
 H1902 H 0.46320 0.38588 0.11645
 C1903 C -0.01599 0.87725 0.53558
 C1904 C -0.00380 0.87030 0.56602
 C1905 C -0.02729 0.85916 0.57692
 C1906 C -0.03957 0.86573 0.54670
 C1907 C -0.02378 0.90097 0.54993
 C1908 C -0.04730 0.88987 0.56082
 C1909 C -0.01155 0.89432 0.58016
 C1910 C -0.03507 0.88290 0.59124
 C1911 C -0.02868 0.83605 0.59261
 C1912 C -0.02950 0.81719 0.60587
 C1913 C -0.02093 0.92470 0.53632
 C1914 C -0.01764 0.94465 0.52699
 H1915 H -0.00816 0.87517 0.51252
 H1916 H 0.01410 0.86208 0.56835
 H1917 H -0.05112 0.85371 0.53310
 H1918 H -0.06517 0.89817 0.55847
 H1919 H 0.00001 0.90632 0.59381
 H1920 H -0.04291 0.88503 0.61430
 C1921 C 0.22439 0.35358 0.18288
 C1922 C 0.24727 0.35559 0.16342
 C1923 C 0.23188 0.35989 0.13499
 C1924 C 0.20895 0.35820 0.15401
 C1925 C 0.22357 0.32673 0.17609
 C1926 C 0.20810 0.33092 0.14769
 C1927 C 0.24641 0.32861 0.15692
 C1928 C 0.23105 0.33303 0.12829
 C1929 C 0.23875 0.37726 0.11168
 C1930 C 0.24614 0.39036 0.09208
 C1931 C 0.22243 0.30763 0.19872
 C1932 C 0.22541 0.29195 0.21705
 H1933 H 0.22154 0.36179 0.20559
 H1934 H 0.26346 0.36584 0.16970
 H1935 H 0.19363 0.37066 0.15254
 H1936 H 0.19194 0.32059 0.14152
 H1937 H 0.26184 0.31626 0.15825
 H1938 H 0.23393 0.32473 0.10564
 C1939 C 0.72016 0.85364 0.68151
 C1940 C 0.74440 0.85849 0.66589
 C1941 C 0.73165 0.86020 0.63498
 C1942 C 0.70738 0.85568 0.65012
 C1943 C 0.72361 0.82684 0.67588
 C1944 C 0.71083 0.82846 0.64499
 C1945 C 0.74780 0.83154 0.66059
 C1946 C 0.73510 0.83339 0.62950
 C1947 C 0.73839 0.87768 0.61174
 C1948 C 0.74569 0.89085 0.59218
 C1949 C 0.72264 0.80767 0.69843
 C1950 C 0.72573 0.79197 0.71669
 H1951 H 0.71391 0.86173 0.70315
 H1952 H 0.75829 0.87095 0.67428
 H1953 H 0.69083 0.86591 0.64552
 H1954 H 0.69697 0.81594 0.63669
 H1955 H 0.76445 0.82143 0.66503
 H1956 H 0.74139 0.82520 0.60794
 C1957 C 0.25251 0.66555 0.66402
 C1958 C 0.26180 0.66605 0.63099
 C1959 C 0.26929 0.63985 0.63439
 C1960 C 0.25994 0.63920 0.66726
 C1961 C 0.27731 0.67321 0.67527
 C1962 C 0.28483 0.64702 0.67887
 C1963 C 0.28666 0.67391 0.64242
 C1964 C 0.29418 0.64734 0.64548
 C1965 C 0.26254 0.62242 0.61112
 C1966 C 0.25521 0.60929 0.59153
 C1967 C 0.27826 0.69236 0.69780
 C1968 C 0.27515 0.70804 0.71603
 H1969 H 0.23532 0.67322 0.67179
 H1970 H 0.25217 0.67375 0.61116
 H1971 H 0.24887 0.62481 0.67728
 H1972 H 0.29441 0.63946 0.69882
 H1973 H 0.29770 0.68835 0.63248
 H1974 H 0.31126 0.63955 0.63756
 C1975 C 0.78077 0.14622 0.18100
 C1976 C 0.75647 0.14169 0.16532
 C1977 C 0.76915 0.14001 0.13441
 C1978 C 0.79348 0.14422 0.14961
 C1979 C 0.77757 0.17309 0.17554
 C1980 C 0.79029 0.17150 0.14465
 C1981 C 0.75332 0.16869 0.16017
 C1982 C 0.76595 0.16689 0.12909
 C1983 C 0.76219 0.12268 0.11113
 C1984 C 0.75469 0.10958 0.09160
 C1985 C 0.77872 0.19211 0.19823
 C1986 C 0.77572 0.20771 0.21660
 H1987 H 0.78698 0.13796 0.20260
 H1988 H 0.74247 0.12932 0.17361
 H1989 H 0.80993 0.13387 0.14498
 H1990 H 0.80426 0.18394 0.13645
 H1991 H 0.73677 0.17894 0.16466
 H1992 H 0.75971 0.17525 0.10757
 C1993 C 0.71207 0.14744 0.82260
 C1994 C 0.73691 0.13741 0.83136
 C1995 C 0.73029 0.13949 0.86520
 C1996 C 0.70547 0.14919 0.85699
 C1997 C 0.72226 0.17282 0.82421
 C1998 C 0.71566 0.17492 0.85804
 C1999 C 0.74700 0.16297 0.83260
 C2000 C 0.74043 0.16489 0.86659
 C2001 C 0.73706 0.12212 0.88858
 C2002 C 0.74443 0.10907 0.90826
 C2003 C 0.72133 0.19198 0.80166
 C2004 C 0.72444 0.20771 0.78346
 H2005 H 0.70032 0.14055 0.80424
 H2006 H 0.74574 0.12185 0.82059
 H2007 H 0.68845 0.14323 0.86732
 H2008 H 0.70685 0.19052 0.86875
 H2009 H 0.76412 0.16882 0.82239
 H2010 H 0.75224 0.17193 0.88479
 C2011 C 0.21203 0.64839 0.32183
 C2012 C 0.23678 0.63792 0.33017
 C2013 C 0.23054 0.64007 0.36412
 C2014 C 0.20581 0.65020 0.35634
 C2015 C 0.22267 0.67359 0.32333
 C2016 C 0.21644 0.67576 0.35727
 C2017 C 0.24731 0.66331 0.33128
 C2018 C 0.24112 0.66529 0.36538
 C2019 C 0.23725 0.62258 0.38737
 C2020 C 0.24458 0.60941 0.40695
 C2021 C 0.22181 0.69281 0.30085
 C2022 C 0.22498 0.70854 0.28266
 H2023 H 0.19998 0.64173 0.30366
 H2024 H 0.24523 0.62224 0.31921
 H2025 H 0.18879 0.64452 0.36694
 H2026 H 0.20801 0.69148 0.36816
 H2027 H 0.26442 0.66888 0.32080
 H2028 H 0.25323 0.67211 0.38341
 C2029 C 0.77648 0.85404 0.31684
 C2030 C 0.75381 0.85597 0.33669
 C2031 C 0.76949 0.86031 0.36484
 C2032 C 0.79221 0.85870 0.34542
 C2033 C 0.77748 0.82719 0.32367
 C2034 C 0.79324 0.83142 0.35178
 C2035 C 0.75484 0.82900 0.34322
 C2036 C 0.77049 0.83345 0.37158
 C2037 C 0.76277 0.87769 0.38816
 C2038 C 0.75546 0.89081 0.40775
 C2039 C 0.77845 0.80815 0.30100
 C2040 C 0.77535 0.79253 0.28266
 H2041 H 0.77904 0.86228 0.29407
 H2042 H 0.73752 0.86618 0.33067
 H2043 H 0.80751 0.87120 0.34661
 H2044 H 0.80949 0.82113 0.35768
 H2045 H 0.73945 0.81660 0.34218
 H2046 H 0.76788 0.82513 0.39429
 C2047 C 0.25173 0.33714 0.83263
 C2048 C 0.25805 0.33495 0.86670
 C2049 C 0.26854 0.36022 0.86563
 C2050 C 0.26217 0.36257 0.83170
 C2051 C 0.27638 0.32699 0.82454
 C2052 C 0.28692 0.35224 0.82323
 C2053 C 0.28273 0.32463 0.85845
 C2054 C 0.29328 0.35023 0.85771
 C2055 C 0.26191 0.37756 0.88903
 C2056 C 0.25470 0.39063 0.90874
 C2057 C 0.27724 0.30793 0.80189
 C2058 C 0.27408 0.29232 0.78357
 H2059 H 0.23460 0.33157 0.82214
 H2060 H 0.24603 0.32798 0.88469
 H2061 H 0.25361 0.37829 0.82090
 H2062 H 0.29889 0.35907 0.80510
 H2063 H 0.29126 0.30886 0.86919
 H2064 H 0.31031 0.35590 0.86832
 C2065 C 0.79955 0.34632 0.76422
 C2066 C 0.79498 0.36280 0.73661
 C2067 C 0.78988 0.38347 0.75858
 C2068 C 0.79461 0.36732 0.78624
 C2069 C 0.77293 0.34007 0.76473
 C2070 C 0.76773 0.36064 0.78681
 C2071 C 0.76828 0.35630 0.73712
 C2072 C 0.76324 0.37727 0.75906
 C2073 C 0.80008 0.40701 0.75276
 C2074 C 0.80926 0.42564 0.74593
 C2075 C 0.76425 0.31554 0.76502
 C2076 C 0.75807 0.29520 0.76163
 H2077 H 0.81437 0.33330 0.76635
 H2078 H 0.80631 0.36401 0.71597
 H2079 H 0.80556 0.37217 0.80638
 H2080 H 0.75643 0.35940 0.80749
 H2081 H 0.75732 0.35149 0.71698
 H2082 H 0.74844 0.39028 0.75684
 C2083 C 0.28974 0.84896 0.23685
 C2084 C 0.27435 0.87146 0.23217
 C2085 C 0.28969 0.88448 0.25589
 C2086 C 0.30520 0.86220 0.26051
 C2087 C 0.27296 0.84104 0.26259
 C2088 C 0.28832 0.85396 0.28637
 C2089 C 0.25741 0.86328 0.25794
 C2090 C 0.27293 0.87672 0.28171
 C2091 C 0.29981 0.90804 0.24998
 C2092 C 0.30901 0.92668 0.24318
 C2093 C 0.26449 0.81644 0.26321
 C2094 C 0.25847 0.79603 0.26011
 H2095 H 0.29665 0.83726 0.21848
 H2096 H 0.26868 0.87894 0.20988
 H2097 H 0.32496 0.86199 0.26144
 H2098 H 0.29393 0.84645 0.30867
 H2099 H 0.23766 0.86341 0.25694
 H2100 H 0.26614 0.88848 0.30008
 C2101 C 0.21130 0.85326 0.71223
 C2102 C 0.19450 0.86152 0.73815
 C2103 C 0.20999 0.88382 0.74257
 C2104 C 0.22668 0.87603 0.71670
 C2105 C 0.22677 0.84038 0.73598
 C2106 C 0.24229 0.86264 0.74044
 C2107 C 0.21007 0.84832 0.76179
 C2108 C 0.22544 0.87085 0.76626
 C2109 C 0.19990 0.90740 0.74843
 C2110 C 0.19079 0.92608 0.75518
 C2111 C 0.23528 0.81579 0.73542
 C2112 C 0.24138 0.79539 0.73856
 H2113 H 0.20562 0.84572 0.68999
 H2114 H 0.17474 0.86129 0.73734
 H2115 H 0.23338 0.88778 0.69823
 H2116 H 0.26205 0.86280 0.74132
 H2117 H 0.20324 0.83664 0.78024
 H2118 H 0.23118 0.87836 0.78848
 C2119 C 0.74324 0.36227 0.24150
 C2120 C 0.72784 0.37582 0.21769
 C2121 C 0.71103 0.38360 0.24345
 C2122 C 0.72628 0.37047 0.26721
 C2123 C 0.72763 0.34010 0.23677
 C2124 C 0.71082 0.34804 0.26245
 C2125 C 0.71237 0.35314 0.21294
 C2126 C 0.69546 0.36140 0.23874
 C2127 C 0.70105 0.40722 0.24940
 C2128 C 0.69202 0.42592 0.25625
 C2129 C 0.73606 0.31548 0.23619
 C2130 C 0.74208 0.29506 0.23933
 H2131 H 0.76299 0.36232 0.24258
 H2132 H 0.73471 0.38759 0.19936
 H2133 H 0.73193 0.37789 0.28952
 H2134 H 0.70381 0.33632 0.28076
 H2135 H 0.70679 0.34571 0.19060
 H2136 H 0.67570 0.36127 0.23774
 C2137 C 0.70063 0.65356 0.26324
 C2138 C 0.70516 0.63723 0.23553
 C2139 C 0.71077 0.61657 0.25737
 C2140 C 0.70611 0.63256 0.28514
 C2141 C 0.72717 0.66019 0.26343
 C2142 C 0.73289 0.63962 0.28538
 C2143 C 0.73176 0.64411 0.23571
 C2144 C 0.73732 0.62315 0.25752
 C2145 C 0.70086 0.59289 0.25164
 C2146 C 0.69187 0.57415 0.24488
 C2147 C 0.73558 0.68481 0.26371
 C2148 C 0.74161 0.70520 0.26036
 H2149 H 0.68566 0.66636 0.26560
 H2150 H 0.69363 0.63593 0.21503
 H2151 H 0.69544 0.62749 0.30541
 H2152 H 0.74438 0.64095 0.30591
 H2153 H 0.74244 0.64914 0.21544
 H2154 H 0.75229 0.61036 0.25506
 C2155 C 0.23037 0.14413 0.73547
 C2156 C 0.23556 0.12304 0.75723
 C2157 C 0.20898 0.11659 0.75652
 C2158 C 0.20373 0.13738 0.73472
 C2159 C 0.22553 0.16010 0.76322
 C2160 C 0.19896 0.15361 0.76246
 C2161 C 0.23088 0.13941 0.78512
 C2162 C 0.20407 0.13249 0.78431
 C2163 C 0.19903 0.09298 0.75045
 C2164 C 0.19008 0.07427 0.74350
 C2165 C 0.23405 0.18469 0.76383
 C2166 C 0.24017 0.20508 0.76070
 H2167 H 0.24132 0.14919 0.71546
 H2168 H 0.25049 0.11019 0.75497
 H2169 H 0.19242 0.13622 0.71401
 H2170 H 0.18403 0.16647 0.76463
 H2171 H 0.24214 0.14059 0.80588
 H2172 H 0.19314 0.12738 0.80433
 C2173 C 0.29003 0.15138 0.26285
 C2174 C 0.27457 0.12891 0.26728
 C2175 C 0.28998 0.11589 0.24370
 C2176 C 0.30557 0.13813 0.23932
 C2177 C 0.27339 0.15940 0.23694
 C2178 C 0.28883 0.14647 0.21330
 C2179 C 0.25777 0.13720 0.24136
 C2180 C 0.27335 0.12376 0.21772
 C2181 C 0.29997 0.09226 0.24964
 C2182 C 0.30901 0.07353 0.25641
 C2183 C 0.26496 0.18402 0.23631
 C2184 C 0.25894 0.20443 0.23944
 H2185 H 0.29690 0.16302 0.28132
 H2186 H 0.26877 0.12140 0.28948
 H2187 H 0.32533 0.13828 0.23862
 H2188 H 0.29455 0.15400 0.19108
 H2189 H 0.23801 0.13712 0.24213
 H2190 H 0.26661 0.11205 0.19924
 C2191 C 0.76896 0.63898 0.71437
 C2192 C 0.79579 0.63211 0.71517
 C2193 C 0.79091 0.61613 0.74294
 C2194 C 0.76431 0.62253 0.74223
 C2195 C 0.77425 0.65962 0.73631
 C2196 C 0.76945 0.64357 0.76402
 C2197 C 0.80084 0.65319 0.73706
 C2198 C 0.79611 0.63688 0.76477
 C2199 C 0.80092 0.59254 0.74903
 C2200 C 0.80992 0.57385 0.75607
 C2201 C 0.76570 0.68420 0.73579
 C2202 C 0.75956 0.70457 0.73902
 H2203 H 0.75770 0.64019 0.69360
 H2204 H 0.80674 0.62707 0.69515
 H2205 H 0.74942 0.60964 0.74447
 H2206 H 0.75848 0.64855 0.78404
 H2207 H 0.81574 0.66608 0.73492
 H2208 H 0.80741 0.63569 0.78548
 C2209 C 0.85727 0.75880 0.17208
 C2210 C 0.86752 0.78164 0.15733
 C2211 C 0.89149 0.77663 0.17302
 C2212 C 0.88153 0.75381 0.18759
 C2213 C 0.84971 0.77352 0.19999
 C2214 C 0.87366 0.76850 0.21573
 C2215 C 0.85963 0.79636 0.18542
 C2216 C 0.88400 0.79140 0.20093
 C2217 C 0.91456 0.77783 0.15734
 C2218 C 0.93338 0.77850 0.14408
 C2219 C 0.82599 0.77086 0.21355
 C2220 C 0.80601 0.76771 0.22278
 H2221 H 0.84604 0.74535 0.16033
 H2222 H 0.86518 0.78703 0.13315
 H2223 H 0.89072 0.73630 0.18830
 H2224 H 0.87594 0.76311 0.23991
 H2225 H 0.85038 0.81385 0.18474
 H2226 H 0.89526 0.80484 0.21263
 C2227 C 0.35325 0.26708 0.66752
 C2228 C 0.36775 0.29035 0.66383
 C2229 C 0.39023 0.27688 0.67405
 C2230 C 0.37601 0.25365 0.67755
 C2231 C 0.34846 0.27360 0.70099
 C2232 C 0.37093 0.26014 0.71122
 C2233 C 0.36261 0.29688 0.69752
 C2234 C 0.38551 0.28344 0.70753
 C2235 C 0.41329 0.27815 0.65835
 C2236 C 0.43209 0.27886 0.64506
 C2237 C 0.32472 0.27087 0.71449
 C2238 C 0.30474 0.26767 0.72367
 H2239 H 0.33973 0.26033 0.65117
 H2240 H 0.36663 0.30276 0.64416
 H2241 H 0.38169 0.23588 0.66915
 H2242 H 0.37201 0.24772 0.73089
 H2243 H 0.35686 0.31462 0.70594
 H2244 H 0.39906 0.29019 0.72383
 C2245 C 0.37336 0.72428 0.78200
 C2246 C 0.38430 0.74312 0.80376
 C2247 C 0.39134 0.72308 0.82592
 C2248 C 0.38079 0.70418 0.80442
 C2249 C 0.34954 0.72660 0.79891
 C2250 C 0.35656 0.70655 0.82108
 C2251 C 0.36014 0.74545 0.82043
 C2252 C 0.36747 0.72539 0.84276
 C2253 C 0.41442 0.72164 0.84165
 C2254 C 0.43325 0.72078 0.85496
 C2255 C 0.32581 0.72945 0.78531
 C2256 C 0.30583 0.73272 0.77604
 H2257 H 0.37554 0.72383 0.75687
 H2258 H 0.39592 0.75817 0.79681
 H2259 H 0.38953 0.68716 0.79802
 H2260 H 0.34491 0.69152 0.82801
 H2261 H 0.35143 0.76247 0.82688
 H2262 H 0.36523 0.72586 0.86789
 C2263 C 0.87399 0.23110 0.28411
 C2264 C 0.88197 0.24558 0.31241
 C2265 C 0.89186 0.22262 0.32677
 C2266 C 0.88425 0.20806 0.29870
 C2267 C 0.85005 0.22612 0.29978
 C2268 C 0.85988 0.20313 0.31413
 C2269 C 0.85772 0.24062 0.32784
 C2270 C 0.86788 0.21764 0.34238
 C2271 C 0.91495 0.22120 0.34247
 C2272 C 0.93380 0.22035 0.35574
 C2273 C 0.82631 0.22895 0.28617
 C2274 C 0.80634 0.23222 0.27688
 H2275 H 0.87627 0.23663 0.25999
 H2276 H 0.89125 0.26305 0.31189
 H2277 H 0.89543 0.19463 0.28688
 H2278 H 0.85055 0.18569 0.31462
 H2279 H 0.84657 0.25406 0.33971
 H2280 H 0.86556 0.21212 0.36650
 C2281 C 0.14317 0.25815 0.32741
 C2282 C 0.13304 0.28097 0.34230
 C2283 C 0.10907 0.27623 0.32646
 C2284 C 0.11892 0.25343 0.31175
 C2285 C 0.15090 0.27299 0.29965
 C2286 C 0.12697 0.26825 0.28376
 C2287 C 0.14109 0.29581 0.31436
 C2288 C 0.11673 0.29112 0.29870
 C2289 C 0.08596 0.27751 0.34206
 C2290 C 0.06711 0.27826 0.35525
 C2291 C 0.17466 0.27028 0.28615
 C2292 C 0.19464 0.26708 0.27694
 H2293 H 0.15428 0.24454 0.33910
 H2294 H 0.13535 0.28618 0.36653
 H2295 H 0.10962 0.23599 0.31086
 H2296 H 0.12471 0.26303 0.25953
 H2297 H 0.15045 0.31322 0.31523
 H2298 H 0.10560 0.30473 0.28706
 C2299 C 0.64378 0.75860 0.82738
 C2300 C 0.63354 0.78158 0.84175
 C2301 C 0.60955 0.77644 0.82616
 C2302 C 0.61951 0.75348 0.81197
 C2303 C 0.65132 0.77306 0.79922
 C2304 C 0.62737 0.76792 0.78358
 C2305 C 0.64141 0.79604 0.81340
 C2306 C 0.61703 0.79095 0.79800
 C2307 C 0.58649 0.77778 0.84185
 C2308 C 0.56767 0.77856 0.85511
 C2309 C 0.67505 0.77028 0.78568
 C2310 C 0.69502 0.76706 0.77647
 H2311 H 0.65501 0.74524 0.83935
 H2312 H 0.63589 0.78717 0.86583
 H2313 H 0.61032 0.73597 0.81157
 H2314 H 0.62507 0.76231 0.75950
 H2315 H 0.65066 0.81353 0.81377
 H2316 H 0.60576 0.80430 0.78608
 C2317 C 0.62746 0.23972 0.71112
 C2318 C 0.62225 0.24603 0.67739
 C2319 C 0.60817 0.22269 0.67413
 C2320 C 0.61302 0.21631 0.70767
 C2321 C 0.64999 0.22636 0.70101
 C2322 C 0.63598 0.20298 0.69777
 C2323 C 0.64507 0.23271 0.66748
 C2324 C 0.63071 0.20933 0.66402
 C2325 C 0.58507 0.22124 0.65847
 C2326 C 0.56623 0.22041 0.64521
 C2327 C 0.67373 0.22929 0.71451
 C2328 C 0.69370 0.23262 0.72372
 H2329 H 0.62636 0.25221 0.73067
 H2330 H 0.61643 0.26373 0.66884
 H2331 H 0.59956 0.20954 0.72404
 H2332 H 0.64187 0.18531 0.70635
 H2333 H 0.65850 0.23948 0.65106
 H2334 H 0.63185 0.19684 0.64447
 C2335 C 0.12808 0.73998 0.21032
 C2336 C 0.12273 0.74628 0.17663
 C2337 C 0.10872 0.72289 0.17343
 C2338 C 0.11370 0.71652 0.20694
 C2339 C 0.15062 0.72669 0.20008
 C2340 C 0.13667 0.70327 0.19692
 C2341 C 0.14556 0.73303 0.16658
 C2342 C 0.13127 0.70961 0.16320
 C2343 C 0.08556 0.72134 0.15793
 C2344 C 0.06666 0.72041 0.14482
 C2345 C 0.17438 0.72970 0.21349
 C2346 C 0.19435 0.73309 0.22266
 H2347 H 0.12700 0.75246 0.22988
 H2348 H 0.11682 0.76395 0.16811
 H2349 H 0.10032 0.70970 0.22339
 H2350 H 0.14265 0.68562 0.20546
 H2351 H 0.15891 0.73985 0.15009
 H2352 H 0.13239 0.69712 0.14364
   
