data_POSCAR
  _audit_creation_date              2014-09-24
  _audit_creation_method            'ToBaCCo'
  _symmetry_space_group_name_H-M    'P1'
  _symmetry_Int_Tables_number       1
  _symmetry_cell_setting            triclinic
  loop_
  _symmetry_equiv_pos_as_xyz
 x,y,z
_cell_length_a 55.9474
_cell_length_b 55.9221
_cell_length_c 55.9313
_cell_angle_alpha 89.956000
_cell_angle_beta 90.007300
_cell_angle_gamma 90.044300
loop_
  _atom_site_label
  _atom_site_type_symbol
  _atom_site_fract_x
  _atom_site_fract_y
  _atom_site_fract_z
C1 C 0.09209 0.01964 0.22066
 H2 H 0.09124 0.03342 0.23420
 C3 C 0.07943 0.02233 0.19926
 H4 H 0.06860 0.03812 0.19635
 C5 C 0.10812 -0.01727 0.20730
 H6 H 0.11987 -0.03231 0.21010
 C7 C 0.09578 -0.01529 0.18573
 H8 H 0.09780 -0.02900 0.17220
 N9 N 0.10613 0.00008 0.22424
 C10 C 0.12050 -0.00544 0.30065
 H11 H 0.13978 -0.00660 0.29971
 C12 C 0.10903 -0.00733 0.32268
 H13 H 0.11947 -0.00981 0.33880
 C14 C 0.08332 -0.00111 0.28070
 H15 H 0.07343 0.00100 0.26423
 C16 C 0.07108 -0.00292 0.30246
 H17 H 0.05175 -0.00196 0.30278
 Zn18 Zn 0.12571 -0.00117 0.25180
 N19 N 0.10762 -0.00221 0.28028
 C20 C 0.14337 0.04281 0.26940
 N21 N 0.14511 0.02654 0.25139
 C22 C 0.15884 0.03088 0.23177
 C23 C 0.17144 0.05238 0.22967
 C24 C 0.15568 0.06447 0.26803
 C25 C 0.13137 -0.05008 0.25409
 C26 C 0.14301 -0.07207 0.25477
 C27 C 0.18077 -0.05135 0.25058
 C28 C 0.16834 -0.02964 0.24997
 N29 N 0.14406 -0.02948 0.25152
 H30 H 0.13188 0.03939 0.28452
 H31 H 0.15949 0.01786 0.21748
 H32 H 0.18201 0.05590 0.21383
 H33 H 0.15385 0.07748 0.28226
 H34 H 0.11211 -0.04933 0.25560
 H35 H 0.13261 -0.08833 0.25673
 H36 H 0.20010 -0.05135 0.24927
 H37 H 0.17807 -0.01302 0.24841
 C38 C 0.08411 -0.00606 0.32361
 C39 C 0.08150 0.00477 0.18157
 C40 C 0.16794 -0.07276 0.25298
 C41 C 0.16964 0.06940 0.24791
 C42 C 0.40758 0.02099 0.78002
 H43 H 0.40883 0.03527 0.76701
 C44 C 0.41959 0.02289 0.80188
 H45 H 0.43032 0.03857 0.80568
 C46 C 0.39119 -0.01641 0.79156
 H47 H 0.37956 -0.03136 0.78786
 C48 C 0.40288 -0.01523 0.81354
 H49 H 0.40047 -0.02945 0.82649
 N50 N 0.39368 0.00156 0.77531
 C51 C 0.38166 -0.00160 0.69837
 H52 H 0.36238 -0.00310 0.69877
 C53 C 0.39372 -0.00250 0.67661
 H54 H 0.38373 -0.00462 0.66015
 C55 C 0.41823 0.00274 0.71943
 H56 H 0.42765 0.00448 0.73620
 C57 C 0.43106 0.00191 0.69794
 H58 H 0.45037 0.00322 0.69816
 Zn59 Zn 0.37498 0.00116 0.74709
 N60 N 0.39395 0.00118 0.71917
 C61 C 0.35784 0.04554 0.73013
 N62 N 0.35545 0.02878 0.74764
 C63 C 0.34098 0.03257 0.76683
 C64 C 0.32825 0.05399 0.76897
 C65 C 0.34544 0.06711 0.73155
 C66 C 0.36978 -0.04768 0.74298
 C67 C 0.35838 -0.06978 0.74156
 C68 C 0.32037 -0.04965 0.74575
 C69 C 0.33254 -0.02780 0.74708
 N70 N 0.35684 -0.02731 0.74593
 H71 H 0.36991 0.04258 0.71538
 H72 H 0.33981 0.01919 0.78077
 H73 H 0.31707 0.05707 0.78447
 H74 H 0.34777 0.08049 0.71772
 H75 H 0.38906 -0.04668 0.74183
 H76 H 0.36888 -0.08591 0.73942
 H77 H 0.30105 -0.05005 0.74686
 H78 H 0.32261 -0.01135 0.74900
 C79 C 0.41862 -0.00072 0.67637
 C80 C 0.41702 0.00467 0.81885
 C81 C 0.33348 -0.07080 0.74304
 C82 C 0.33069 0.07148 0.75123
 C83 C 0.90699 0.52086 0.28056
 H84 H 0.90852 0.53514 0.26759
 C85 C 0.91887 0.52258 0.30251
 H86 H 0.92978 0.53813 0.30636
 C87 C 0.89005 0.48365 0.29191
 H88 H 0.87827 0.46885 0.28809
 C89 C 0.90159 0.48463 0.31399
 H90 H 0.89889 0.47037 0.32685
 N91 N 0.89289 0.50161 0.27572
 C92 C 0.88144 0.49892 0.19867
 H93 H 0.86214 0.49771 0.19892
 C94 C 0.89365 0.49787 0.17700
 H95 H 0.88376 0.49596 0.16046
 C96 C 0.91792 0.50260 0.22002
 H97 H 0.92724 0.50414 0.23687
 C98 C 0.93089 0.50162 0.19863
 H99 H 0.95022 0.50260 0.19900
 Zn100 Zn 0.87442 0.50151 0.24734
 N101 N 0.89362 0.50143 0.21957
 C102 C 0.85790 0.54617 0.23048
 N103 N 0.85517 0.52933 0.24786
 C104 C 0.84054 0.53313 0.26692
 C105 C 0.82800 0.55466 0.26907
 C106 C 0.84570 0.56786 0.23192
 C107 C 0.86876 0.45275 0.24301
 C108 C 0.85715 0.43078 0.24127
 C109 C 0.81930 0.45129 0.24501
 C110 C 0.83168 0.47299 0.24667
 N111 N 0.85600 0.47324 0.24589
 H112 H 0.87010 0.54319 0.21584
 H113 H 0.83911 0.51967 0.28075
 H114 H 0.81669 0.55774 0.28448
 H115 H 0.84830 0.58130 0.21820
 H116 H 0.88807 0.45356 0.24214
 H117 H 0.86752 0.41456 0.23917
 H118 H 0.79996 0.45109 0.24581
 H119 H 0.82189 0.48954 0.24853
 C120 C 0.91858 0.49924 0.17696
 C121 C 0.91596 0.50435 0.31945
 C122 C 0.83223 0.43001 0.24234
 C123 C 0.83079 0.57224 0.25147
 C124 C 0.59158 0.52024 0.72137
 H125 H 0.59056 0.53398 0.73494
 C126 C 0.57886 0.52282 0.69999
 H127 H 0.56780 0.53846 0.69713
 C128 C 0.60808 0.48358 0.70790
 H129 H 0.62002 0.46869 0.71065
 C130 C 0.59568 0.48545 0.68635
 H131 H 0.59785 0.47179 0.67280
 N132 N 0.60587 0.50086 0.72488
 C133 C 0.62028 0.49524 0.80127
 H134 H 0.63957 0.49431 0.80031
 C135 C 0.60883 0.49312 0.82329
 H136 H 0.61931 0.49069 0.83940
 C137 C 0.58304 0.49925 0.78135
 H138 H 0.57312 0.50131 0.76489
 C139 C 0.57083 0.49719 0.80310
 H140 H 0.55148 0.49792 0.80343
 Zn141 Zn 0.62544 0.49973 0.75246
 N142 N 0.60735 0.49842 0.78092
 C143 C 0.64277 0.54376 0.77024
 N144 N 0.64463 0.52758 0.75217
 C145 C 0.65843 0.53202 0.73262
 C146 C 0.67103 0.55354 0.73071
 C147 C 0.65507 0.56543 0.76904
 C148 C 0.63151 0.45088 0.75460
 C149 C 0.64335 0.42899 0.75530
 C150 C 0.68091 0.45004 0.75132
 C151 C 0.66831 0.47164 0.75069
 N152 N 0.64402 0.47159 0.75213
 H153 H 0.63121 0.54025 0.78530
 H154 H 0.65918 0.51907 0.71829
 H155 H 0.68170 0.55713 0.71494
 H156 H 0.65319 0.57836 0.78334
 H157 H 0.61223 0.45144 0.75604
 H158 H 0.63319 0.41259 0.75717
 H159 H 0.70024 0.45009 0.75011
 H160 H 0.67791 0.48835 0.74922
 C161 C 0.58390 0.49410 0.82423
 C162 C 0.58112 0.50532 0.68226
 C163 C 0.66825 0.42856 0.75362
 C164 C 0.66916 0.57045 0.74903
 C165 C 0.27907 0.09278 0.97997
 H166 H 0.26549 0.09177 0.96622
 C167 C 0.30046 0.08011 0.97737
 H168 H 0.30333 0.06912 0.96170
 C169 C 0.29249 0.10917 1.01671
 H170 H 0.28970 0.12104 1.03165
 C171 C 0.31405 0.09682 1.01482
 H172 H 0.32759 0.09897 1.02851
 N173 N 0.27552 0.10697 0.99941
 C174 C 0.19909 0.12075 1.00507
 H175 H 0.19988 0.14006 1.00607
 C176 C 0.17718 0.10908 1.00714
 H177 H 0.16098 0.11940 1.00959
 C178 C 0.21933 0.08370 1.00096
 H179 H 0.23586 0.07394 0.99889
 C180 C 0.19769 0.07127 1.00296
 H181 H 0.19753 0.05192 1.00216
 Zn182 Zn 0.24785 0.12636 1.00062
 N183 N 0.21954 0.10802 1.00186
 C184 C 0.22995 0.14361 0.95662
 N185 N 0.24799 0.14563 0.97283
 C186 C 0.26745 0.15956 0.96838
 C187 C 0.26934 0.17209 0.94682
 C188 C 0.23112 0.15584 0.93490
 C189 C 0.24568 0.13216 1.04947
 C190 C 0.24491 0.14385 1.07143
 C191 C 0.24870 0.18162 1.05060
 C192 C 0.24939 0.16913 1.02893
 N193 N 0.24808 0.14483 1.02884
 H194 H 0.21496 0.13196 0.96013
 H195 H 0.28177 0.16043 0.98135
 H196 H 0.28506 0.18282 0.94321
 H197 H 0.21687 0.15380 0.92194
 H198 H 0.24435 0.11287 1.04877
 H199 H 0.24309 0.13346 1.08771
 H200 H 0.24982 0.20097 1.05056
 H201 H 0.25083 0.17883 1.01228
 C202 C 0.17646 0.08414 1.00607
 C203 C 0.31816 0.08234 0.99490
 C204 C 0.24645 0.16880 1.07204
 C205 C 0.25107 0.17001 0.92986
 C206 C 0.72025 0.40680 0.97988
 H207 H 0.73327 0.40808 0.96564
 C208 C 0.69845 0.41890 0.97801
 H209 H 0.69471 0.42972 0.96238
 C210 C 0.70864 0.39030 1.01721
 H211 H 0.71230 0.37862 1.03213
 C212 C 0.68671 0.40208 1.01605
 H213 H 0.67376 0.39968 1.03025
 N214 N 0.72491 0.39282 0.99927
 C215 C 0.80185 0.38104 1.00256
 H216 H 0.80151 0.36175 1.00402
 C217 C 0.82356 0.39320 1.00351
 H218 H 0.84005 0.38326 1.00560
 C219 C 0.78068 0.41755 0.99830
 H220 H 0.76388 0.42691 0.99656
 C221 C 0.80212 0.43047 0.99917
 H222 H 0.80184 0.44979 0.99789
 Zn223 Zn 0.75315 0.37417 0.99970
 N224 N 0.78102 0.39325 0.99980
 C225 C 0.77021 0.35731 0.95527
 N226 N 0.75271 0.35472 0.97198
 C227 C 0.73360 0.34014 0.96808
 C228 C 0.73155 0.32753 0.94658
 C229 C 0.76887 0.34502 0.93362
 C230 C 0.75722 0.36887 1.04853
 C231 C 0.75871 0.35745 1.07062
 C232 C 0.75471 0.31941 1.05041
 C233 C 0.75330 0.33163 1.02859
 N234 N 0.75433 0.35595 1.02814
 H235 H 0.78489 0.36946 0.95832
 H236 H 0.71967 0.33882 0.98143
 H237 H 0.71610 0.31628 0.94341
 H238 H 0.78269 0.34753 0.92028
 H239 H 0.75827 0.38817 1.04755
 H240 H 0.76081 0.36805 1.08671
 H241 H 0.75370 0.30005 1.05065
 H242 H 0.75143 0.32172 1.01212
 C243 C 0.82372 0.41811 1.00177
 C244 C 0.68148 0.41635 0.99621
 C245 C 0.75738 0.33249 1.07163
 C246 C 0.74927 0.33019 0.92913
 C247 C 0.22018 0.90710 0.47906
 H248 H 0.23321 0.90847 0.46483
 C249 C 0.19827 0.91899 0.47711
 H250 H 0.19447 0.92976 0.46146
 C251 C 0.20861 0.89052 0.51636
 H252 H 0.21232 0.87885 0.53128
 C253 C 0.18657 0.90209 0.51513
 H254 H 0.17360 0.89957 0.52929
 N255 N 0.22489 0.89316 0.49846
 C256 C 0.30183 0.88138 0.50158
 H257 H 0.30148 0.86208 0.50295
 C258 C 0.32355 0.89351 0.50258
 H259 H 0.34003 0.88356 0.50462
 C260 C 0.28068 0.91793 0.49752
 H261 H 0.26388 0.92730 0.49584
 C262 C 0.30213 0.93082 0.49844
 H263 H 0.30186 0.95016 0.49726
 Zn264 Zn 0.25314 0.87456 0.49880
 N265 N 0.28100 0.89362 0.49890
 C266 C 0.27005 0.85773 0.45430
 N267 N 0.25260 0.85519 0.47108
 C268 C 0.23340 0.84071 0.46723
 C269 C 0.23118 0.82818 0.44571
 C270 C 0.26853 0.84552 0.43262
 C271 C 0.25725 0.86906 0.54760
 C272 C 0.25879 0.85751 0.56962
 C273 C 0.25485 0.81960 0.54923
 C274 C 0.25339 0.83191 0.52747
 N275 N 0.25436 0.85624 0.52715
 H276 H 0.28479 0.86981 0.45732
 H277 H 0.21952 0.83943 0.48064
 H278 H 0.21566 0.81702 0.44258
 H279 H 0.28230 0.84800 0.41922
 H280 H 0.25826 0.88836 0.54674
 H281 H 0.26089 0.86792 0.58582
 H282 H 0.25389 0.80026 0.54949
 H283 H 0.25152 0.82208 0.51096
 C284 C 0.32373 0.91843 0.50097
 C285 C 0.18126 0.91627 0.49525
 C286 C 0.25752 0.83258 0.57047
 C287 C 0.24884 0.83081 0.42819
 C288 C 0.77813 0.59120 0.47974
 H289 H 0.76450 0.59045 0.46603
 C290 C 0.79937 0.57832 0.47697
 H291 H 0.80206 0.56741 0.46121
 C292 C 0.79188 0.60720 0.51653
 H293 H 0.78929 0.61901 0.53156
 C294 C 0.81329 0.59462 0.51448
 H295 H 0.82691 0.59653 0.52813
 N296 N 0.77482 0.60533 0.49928
 C297 C 0.69861 0.62021 0.50515
 H298 H 0.69967 0.63951 0.50616
 C299 C 0.67655 0.60884 0.50730
 H300 H 0.66051 0.61937 0.50981
 C301 C 0.71833 0.58289 0.50097
 H302 H 0.73473 0.57291 0.49885
 C303 C 0.69654 0.57076 0.50304
 H304 H 0.69612 0.55141 0.50225
 Zn305 Zn 0.74746 0.62512 0.50063
 N306 N 0.71888 0.60721 0.50188
 C307 C 0.72974 0.64297 0.45676
 N308 N 0.74786 0.64450 0.47293
 C309 C 0.76757 0.65810 0.46856
 C310 C 0.76962 0.67083 0.44714
 C311 C 0.73106 0.65541 0.43518
 C312 C 0.74555 0.63095 0.54953
 C313 C 0.74500 0.64272 0.57145
 C314 C 0.74916 0.68036 0.55054
 C315 C 0.74964 0.66783 0.52889
 N316 N 0.74804 0.64354 0.52886
 H317 H 0.71455 0.63157 0.46021
 H318 H 0.78194 0.65858 0.48150
 H319 H 0.78552 0.68132 0.44360
 H320 H 0.71673 0.65379 0.42225
 H321 H 0.74398 0.61168 0.54889
 H322 H 0.74310 0.63252 0.58782
 H323 H 0.75049 0.69969 0.55055
 H324 H 0.75112 0.67749 0.51222
 C325 C 0.67550 0.58391 0.50624
 C326 C 0.81716 0.58023 0.49444
 C327 C 0.74683 0.66762 0.57197
 C328 C 0.75125 0.66929 0.43024
 C329 C 0.02058 0.22041 0.09140
 H330 H 0.03482 0.23346 0.09020
 C331 C 0.02255 0.19859 0.07935
 H332 H 0.03823 0.19486 0.06863
 C333 C -0.01678 0.20872 0.10772
 H334 H -0.03173 0.21233 0.11935
 C335 C -0.01553 0.18676 0.09598
 H336 H -0.02971 0.17377 0.09835
 N337 N 0.00115 0.22502 0.10530
 C338 C -0.00211 0.30189 0.11770
 H339 H -0.00360 0.30135 0.13698
 C340 C -0.00306 0.32373 0.10577
 H341 H -0.00518 0.34010 0.11592
 C342 C 0.00222 0.28108 0.08100
 H343 H 0.00399 0.26436 0.07149
 C344 C 0.00136 0.30265 0.06829
 H345 H 0.00267 0.30250 0.04896
 Zn346 Zn 0.00072 0.25314 0.12412
 N347 N 0.00068 0.28118 0.10529
 C348 C 0.04510 0.27005 0.14129
 N349 N 0.02836 0.25252 0.14364
 C350 C 0.03218 0.23326 0.15804
 C351 C 0.05363 0.23105 0.17070
 C352 C 0.06671 0.26855 0.15363
 C353 C -0.04809 0.25718 0.12933
 C354 C -0.07017 0.25861 0.14074
 C355 C -0.05002 0.25436 0.17875
 C356 C -0.02820 0.25300 0.16658
 N357 N -0.02772 0.25419 0.14227
 H358 H 0.04210 0.28486 0.12928
 H359 H 0.01880 0.21932 0.15917
 H360 H 0.05675 0.21548 0.18180
 H361 H 0.08008 0.28239 0.15131
 H362 H -0.04711 0.25836 0.11005
 H363 H -0.08630 0.26081 0.13024
 H364 H -0.05040 0.25324 0.19808
 H365 H -0.01174 0.25106 0.17651
 C366 C -0.00129 0.32416 0.08085
 C367 C 0.00438 0.18155 0.08186
 C368 C -0.07117 0.25713 0.16565
 C369 C 0.07112 0.24879 0.16828
 C370 C 0.01966 0.77840 0.40813
 H371 H 0.03342 0.76484 0.40889
 C372 C 0.02238 0.79971 0.42095
 H373 H 0.03817 0.80251 0.43181
 C374 C -0.01722 0.79194 0.39218
 H375 H -0.03227 0.78925 0.38041
 C376 C -0.01521 0.81341 0.40469
 H377 H -0.02891 0.82696 0.40276
 N378 N 0.00010 0.77496 0.39406
 C379 C -0.00559 0.69862 0.37918
 H380 H -0.00678 0.69971 0.35990
 C381 C -0.00751 0.67651 0.39052
 H382 H -0.01004 0.66047 0.37996
 C383 C -0.00115 0.71829 0.41649
 H384 H 0.00101 0.73468 0.42649
 C385 C -0.00299 0.69644 0.42860
 H386 H -0.00200 0.69598 0.44793
 Zn387 Zn -0.00123 0.74753 0.37428
 N388 N -0.00230 0.71890 0.39219
 C389 C 0.04266 0.72994 0.35643
 N390 N 0.02645 0.74802 0.35484
 C391 C 0.03080 0.76772 0.34120
 C392 C 0.05226 0.76982 0.32854
 C393 C 0.06427 0.73132 0.34407
 C394 C -0.05014 0.74539 0.36863
 C395 C -0.07215 0.74485 0.35700
 C396 C -0.05148 0.74931 0.31925
 C397 C -0.02977 0.74976 0.33167
 N398 N -0.02957 0.74801 0.35595
 H399 H 0.03924 0.71476 0.36786
 H400 H 0.01784 0.78205 0.34066
 H401 H 0.05578 0.78572 0.31804
 H402 H 0.07723 0.71703 0.34577
 H403 H -0.04937 0.74372 0.38789
 H404 H -0.08839 0.74286 0.36740
 H405 H -0.05151 0.75078 0.29992
 H406 H -0.01316 0.75136 0.32194
 C407 C -0.00619 0.67539 0.41543
 C408 C 0.00485 0.81743 0.41902
 C409 C -0.07288 0.74685 0.33208
 C410 C 0.06921 0.75151 0.33018
 C411 C 0.52055 0.27914 0.90790
 H412 H 0.53426 0.26554 0.90892
 C413 C 0.52316 0.30050 0.92063
 H414 H 0.53881 0.30333 0.93169
 C415 C 0.48389 0.29266 0.89143
 H416 H 0.46897 0.28992 0.87950
 C417 C 0.48579 0.31419 0.90384
 H418 H 0.47214 0.32775 0.90168
 N419 N 0.50115 0.27565 0.89363
 C420 C 0.49535 0.19921 0.87959
 H421 H 0.49441 0.20006 0.86029
 C422 C 0.49317 0.17726 0.89119
 H423 H 0.49071 0.16109 0.88082
 C424 C 0.49939 0.21934 0.91671
 H425 H 0.50148 0.23585 0.92652
 C426 C 0.49729 0.19767 0.92907
 H427 H 0.49802 0.19745 0.94842
 Zn428 Zn 0.49990 0.24803 0.87415
 N429 N 0.49857 0.21963 0.89239
 C430 C 0.54388 0.23012 0.85689
 N431 N 0.52772 0.24820 0.85493
 C432 C 0.53221 0.26771 0.84106
 C433 C 0.55376 0.26960 0.82855
 C434 C 0.56559 0.23129 0.84468
 C435 C 0.45105 0.24596 0.86822
 C436 C 0.42913 0.24529 0.85646
 C437 C 0.44999 0.24919 0.81880
 C438 C 0.47165 0.24978 0.83132
 N439 N 0.47171 0.24837 0.85562
 H440 H 0.54034 0.21509 0.86849
 H441 H 0.51927 0.28206 0.84023
 H442 H 0.55740 0.28535 0.81786
 H443 H 0.57851 0.21700 0.84667
 H444 H 0.45171 0.24454 0.88751
 H445 H 0.41278 0.24346 0.86669
 H446 H 0.44996 0.25038 0.79947
 H447 H 0.48831 0.25122 0.82166
 C448 C 0.49415 0.17647 0.91613
 C449 C 0.50568 0.31824 0.91840
 C450 C 0.42857 0.24694 0.83156
 C451 C 0.57067 0.25129 0.83056
 C452 C 0.52102 0.72029 0.59338
 H453 H 0.53532 0.73325 0.59198
 C454 C 0.52272 0.69842 0.58136
 H455 H 0.53826 0.69458 0.57047
 C456 C 0.48376 0.70888 0.61011
 H457 H 0.46893 0.71263 0.62186
 C458 C 0.48474 0.68689 0.59842
 H459 H 0.47049 0.67399 0.60095
 N460 N 0.50175 0.72507 0.60744
 C461 C 0.49884 0.80206 0.61901
 H462 H 0.49750 0.80177 0.63831
 C463 C 0.49785 0.82375 0.60681
 H464 H 0.49584 0.84028 0.61672
 C465 C 0.50281 0.78079 0.58253
 H466 H 0.50443 0.76396 0.57320
 C467 C 0.50189 0.80220 0.56957
 H468 H 0.50301 0.80188 0.55024
 Zn469 Zn 0.50153 0.75338 0.62598
 N470 N 0.50147 0.78119 0.60683
 C471 C 0.54605 0.77035 0.64268
 N472 N 0.52928 0.75290 0.64536
 C473 C 0.53312 0.73383 0.66001
 C474 C 0.55463 0.73175 0.67260
 C475 C 0.56772 0.76897 0.65494
 C476 C 0.45279 0.75766 0.63131
 C477 C 0.43073 0.75921 0.64274
 C478 C 0.45093 0.75516 0.68074
 C479 C 0.47274 0.75370 0.66855
 N480 N 0.47317 0.75471 0.64423
 H481 H 0.54304 0.78499 0.63047
 H482 H 0.51971 0.71995 0.66141
 H483 H 0.55775 0.71634 0.68391
 H484 H 0.58111 0.78275 0.65236
 H485 H 0.45374 0.75870 0.61201
 H486 H 0.41459 0.76134 0.63224
 H487 H 0.45058 0.75416 0.70008
 H488 H 0.48920 0.75177 0.67847
 C489 C 0.49940 0.82385 0.58190
 C490 C 0.50446 0.68152 0.58408
 C491 C 0.42976 0.75788 0.66765
 C492 C 0.57215 0.74942 0.66985
 C493 C 0.91150 0.98071 0.71912
 H494 H 0.91325 0.96630 0.73192
 C495 C 0.92371 0.98002 0.69848
 H496 H 0.93542 0.96509 0.69466
 C497 C 0.89295 1.01779 0.70889
 H498 H 0.88052 1.03206 0.71240
 C499 C 0.90608 1.01784 0.68609
 H500 H 0.90329 1.03241 0.67359
 N501 N 0.89575 1.00042 0.72422
 C502 C 0.88264 1.00665 0.80223
 H503 H 0.86365 1.01017 0.80136
 C504 C 0.89369 1.00598 0.82338
 H505 H 0.88364 1.00909 0.83964
 C506 C 0.91869 0.99832 0.78084
 H507 H 0.92817 0.99492 0.76438
 C508 C 0.93168 0.99744 0.80388
 H509 H 0.95066 0.99352 0.80400
 Zn510 Zn 0.87683 1.00052 0.75250
 N511 N 0.89571 1.00210 0.78055
 C512 C 0.86143 0.95697 0.77262
 N513 N 0.85856 0.97186 0.75354
 C514 C 0.84409 0.96576 0.73494
 C515 C 0.83165 0.94401 0.73524
 C516 C 0.84935 0.93519 0.77364
 C517 C 0.86901 1.04920 0.75576
 C518 C 0.85686 1.07087 0.75399
 C519 C 0.82047 1.04899 0.74594
 C520 C 0.83335 1.02761 0.74789
 N521 N 0.85728 1.02817 0.75228
 H522 H 0.87343 0.96165 0.78696
 H523 H 0.84249 0.97762 0.71974
 H524 H 0.82031 0.93915 0.72032
 H525 H 0.85195 0.92344 0.78883
 H526 H 0.88803 1.04910 0.75926
 H527 H 0.86650 1.08752 0.75633
 H528 H 0.80152 1.04852 0.74199
 H529 H 0.82433 1.01071 0.74538
 C530 C 0.91954 1.00075 0.82431
 C531 C 0.92077 0.99968 0.68096
 C532 C 0.83246 1.07080 0.74874
 C533 C 0.83438 0.92859 0.75480
 C534 C 0.40867 0.48194 0.22045
 H535 H 0.41018 0.46755 0.23330
 C536 C 0.42186 0.48118 0.19916
 H537 H 0.43367 0.46624 0.19566
 C538 C 0.39084 0.51856 0.20869
 H539 H 0.37835 0.53285 0.21201
 C540 C 0.40365 0.51850 0.18732
 H541 H 0.40112 0.53285 0.17455
 N542 N 0.39361 0.50054 0.22486
 C543 C 0.38056 0.50654 0.30160
 H544 H 0.36147 0.50946 0.30076
 C545 C 0.39207 0.50604 0.32369
 H546 H 0.38186 0.50875 0.33993
 C547 C 0.41708 0.49878 0.28149
 H548 H 0.42668 0.49582 0.26501
 C549 C 0.42933 0.49811 0.30331
 H550 H 0.44837 0.49464 0.30360
 Zn551 Zn 0.37440 0.50079 0.25290
 N552 N 0.39302 0.50246 0.28112
 C553 C 0.35894 0.45709 0.27272
 N554 N 0.35613 0.47212 0.25375
 C555 C 0.34177 0.46613 0.23502
 C556 C 0.32941 0.44434 0.23508
 C557 C 0.34693 0.43526 0.27349
 C558 C 0.36663 0.54952 0.25556
 C559 C 0.35446 0.57117 0.25370
 C560 C 0.31803 0.54921 0.24604
 C561 C 0.33093 0.52785 0.24806
 N562 N 0.35489 0.52845 0.25231
 H563 H 0.37089 0.46166 0.28714
 H564 H 0.34023 0.47810 0.21990
 H565 H 0.31818 0.43956 0.22004
 H566 H 0.34951 0.42338 0.28859
 H567 H 0.38566 0.54945 0.25898
 H568 H 0.36410 0.58785 0.25587
 H569 H 0.29905 0.54871 0.24223
 H570 H 0.32190 0.51093 0.24578
 C571 C 0.41659 0.50146 0.32460
 C572 C 0.41924 0.49965 0.18246
 C573 C 0.33002 0.57105 0.24862
 C574 C 0.33210 0.42876 0.25451
 C575 C 0.59148 0.98489 0.28249
 H576 H 0.58912 0.96989 0.27050
 C577 C 0.57994 0.98540 0.30350
 H578 H 0.56816 0.97083 0.30846
 C579 C 0.61084 1.02218 0.29019
 H580 H 0.62328 1.03614 0.28550
 C581 C 0.59848 1.02353 0.31338
 H582 H 0.60184 1.03868 0.32502
 N583 N 0.60725 1.00415 0.27586
 C584 C 0.61541 1.00604 0.19826
 H585 H 0.63453 1.00886 0.19766
 C586 C 0.60241 1.00459 0.17706
 H587 H 0.61151 1.00646 0.16005
 C588 C 0.58029 0.99959 0.22116
 H589 H 0.57180 0.99753 0.23838
 C590 C 0.56657 0.99799 0.20028
 H591 H 0.54752 0.99471 0.20145
 Zn592 Zn 0.62473 1.00275 0.24674
 N593 N 0.60433 1.00308 0.21972
 C594 C 0.63913 0.95817 0.22817
 N595 N 0.64285 0.97401 0.24630
 C596 C 0.65826 0.96892 0.26444
 C597 C 0.67093 0.94732 0.26455
 C598 C 0.65139 0.93649 0.22760
 C599 C 0.63273 1.05122 0.24086
 C600 C 0.64504 1.07287 0.24159
 C601 C 0.68156 1.05103 0.24916
 C602 C 0.66850 1.02968 0.24825
 N603 N 0.64443 1.03025 0.24469
 H604 H 0.62637 0.96205 0.21425
 H605 H 0.66052 0.98152 0.27893
 H606 H 0.68308 0.94331 0.27909
 H607 H 0.64817 0.92402 0.21314
 H608 H 0.61359 1.05112 0.23807
 H609 H 0.63537 1.08948 0.23915
 H610 H 0.70061 1.05051 0.25263
 H611 H 0.67749 1.01283 0.25105
 C612 C 0.57784 1.00021 0.17804
 C613 C 0.58368 1.00587 0.31986
 C614 C 0.66961 1.07283 0.24617
 C615 C 0.66741 0.93098 0.24592
 C616 C 0.09149 0.48449 0.78127
 H617 H 0.08907 0.46953 0.76926
 C618 C 0.07951 0.48496 0.80325
 H619 H 0.06771 0.47039 0.80815
 C620 C 0.11037 0.52142 0.79012
 H621 H 0.12280 0.53538 0.78537
 C622 C 0.09878 0.52258 0.81214
 H623 H 0.10217 0.53752 0.82400
 N624 N 0.10646 0.50268 0.77506
 C625 C 0.11448 0.50521 0.69743
 H626 H 0.13360 0.50808 0.69688
 C627 C 0.10152 0.50384 0.67620
 H628 H 0.11064 0.50583 0.65923
 C629 C 0.07936 0.49849 0.72024
 H630 H 0.07085 0.49628 0.73744
 C631 C 0.06567 0.49696 0.69933
 H632 H 0.04664 0.49359 0.70046
 Zn633 Zn 0.12382 0.50150 0.74587
 N634 N 0.10340 0.50206 0.71886
 C635 C 0.13825 0.45708 0.72691
 N636 N 0.14194 0.47277 0.74517
 C637 C 0.15733 0.46753 0.76329
 C638 C 0.17001 0.44594 0.76323
 C639 C 0.15052 0.43542 0.72616
 C640 C 0.13190 0.55004 0.74052
 C641 C 0.14430 0.57164 0.74144
 C642 C 0.18076 0.54959 0.74859
 C643 C 0.16764 0.52830 0.74750
 N644 N 0.14355 0.52898 0.74406
 H645 H 0.12550 0.46108 0.71301
 H646 H 0.15957 0.48001 0.77789
 H647 H 0.18215 0.44182 0.77774
 H648 H 0.14732 0.42306 0.71159
 H649 H 0.11275 0.55003 0.73781
 H650 H 0.13473 0.58833 0.73925
 H651 H 0.19982 0.54904 0.75197
 H652 H 0.17659 0.51139 0.75006
 C653 C 0.07697 0.49934 0.67712
 C654 C 0.08324 0.50422 0.81881
 C655 C 0.16887 0.57145 0.74591
 C656 C 0.16653 0.42976 0.74445
 C657 C 0.77995 0.91006 0.01831
 H658 H 0.76718 0.91181 0.03273
 C659 C 0.80136 0.92306 0.01890
 H660 H 0.80506 0.93496 0.03371
 C661 C 0.79137 0.89181 -0.01818
 H662 H 0.78787 0.87922 -0.03236
 C663 C 0.81285 0.90441 -0.01830
 H664 H 0.82554 0.90163 -0.03267
 N665 N 0.77531 0.89488 -0.00014
 C666 C 0.69853 0.88224 -0.00620
 H667 H 0.69932 0.86315 -0.00921
 C668 C 0.67648 0.89378 -0.00565
 H669 H 0.66022 0.88361 -0.00843
 C670 C 0.71873 0.91869 0.00183
 H671 H 0.73523 0.92823 0.00492
 C672 C 0.69695 0.93097 0.00256
 H673 H 0.69670 0.94999 0.00618
 Zn674 Zn 0.74711 0.87587 -0.00021
 N675 N 0.71903 0.89465 -0.00201
 C676 C 0.72710 0.86083 0.04350
 N677 N 0.74610 0.85781 0.02857
 C678 C 0.76468 0.84335 0.03473
 C679 C 0.76443 0.83106 0.05656
 C680 C 0.72614 0.84892 0.06537
 C681 C 0.74421 0.86778 -0.04884
 C682 C 0.74611 0.85550 -0.07042
 C683 C 0.75393 0.81920 -0.04827
 C684 C 0.75186 0.83221 -0.02698
 N685 N 0.74753 0.85615 -0.02771
 H686 H 0.71280 0.87286 0.03880
 H687 H 0.77983 0.84164 0.02283
 H688 H 0.77934 0.81973 0.06145
 H689 H 0.71101 0.85165 0.07715
 H690 H 0.74075 0.88681 -0.04887
 H691 H 0.74391 0.86505 -0.08714
 H692 H 0.75783 0.80024 -0.04767
 H693 H 0.75421 0.82328 -0.01001
 C694 C 0.67563 0.91828 -0.00089
 C695 C 0.81796 0.92012 0.00039
 C696 C 0.75131 0.83108 -0.07016
 C697 C 0.74495 0.83395 0.07202
 C698 C 0.27911 0.40884 0.51774
 H699 H 0.26620 0.41036 0.53206
 C700 C 0.30043 0.42197 0.51864
 H701 H 0.30391 0.43375 0.53360
 C702 C 0.29095 0.39104 0.48115
 H703 H 0.28764 0.37859 0.46682
 C704 C 0.31235 0.40380 0.48134
 H705 H 0.32518 0.40126 0.46705
 N706 N 0.27472 0.39383 0.49908
 C707 C 0.19800 0.38113 0.49241
 H708 H 0.19880 0.36206 0.48927
 C709 C 0.17594 0.39268 0.49295
 H710 H 0.15970 0.38253 0.49005
 C711 C 0.21817 0.41753 0.50076
 H712 H 0.23465 0.42706 0.50397
 C713 C 0.19638 0.42981 0.50149
 H714 H 0.19612 0.44880 0.50524
 Zn715 Zn 0.24658 0.37475 0.49860
 N716 N 0.21849 0.39351 0.49677
 C717 C 0.22633 0.35933 0.54208
 N718 N 0.24540 0.35643 0.52721
 C719 C 0.26397 0.34194 0.53335
 C720 C 0.26364 0.32952 0.55511
 C721 C 0.22528 0.34727 0.56386
 C722 C 0.24417 0.36705 0.44985
 C723 C 0.24604 0.35488 0.42820
 C724 C 0.25331 0.31836 0.45017
 C725 C 0.25128 0.33127 0.47152
 N726 N 0.24722 0.35527 0.47092
 H727 H 0.21203 0.37137 0.53739
 H728 H 0.27918 0.34033 0.52152
 H729 H 0.27855 0.31819 0.56000
 H730 H 0.21011 0.34992 0.57560
 H731 H 0.24088 0.38611 0.44992
 H732 H 0.24402 0.36455 0.41152
 H733 H 0.25696 0.29935 0.45068
 H734 H 0.25340 0.32220 0.48845
 C735 C 0.17509 0.41714 0.49788
 C736 C 0.31719 0.41935 0.50024
 C737 C 0.25094 0.33039 0.42833
 C738 C 0.24410 0.33230 0.57050
 C739 C 0.21807 0.59088 0.01504
 H740 H 0.23006 0.58844 0.03002
 C741 C 0.19613 0.57881 0.01447
 H742 H 0.19129 0.56693 0.02900
 C743 C 0.20922 0.60991 -0.02180
 H744 H 0.21395 0.62244 -0.03569
 C745 C 0.18724 0.59826 -0.02309
 H746 H 0.17544 0.60172 -0.03807
 N747 N 0.22425 0.60597 -0.00305
 C748 C 0.30182 0.61452 -0.00526
 H749 H 0.30224 0.63366 -0.00806
 C750 C 0.32313 0.60173 -0.00390
 H751 H 0.34004 0.61099 -0.00582
 C752 C 0.27925 0.57917 0.00126
 H753 H 0.26212 0.57052 0.00339
 C754 C 0.30026 0.56565 0.00278
 H755 H 0.29926 0.54658 0.00607
 Zn756 Zn 0.25335 0.62350 -0.00169
 N757 N 0.28048 0.60325 -0.00222
 C758 C 0.27211 0.63789 0.04283
 N759 N 0.25389 0.64154 0.02709
 C760 C 0.23572 0.65688 0.03227
 C761 C 0.23570 0.66955 0.05386
 C762 C 0.27277 0.65015 0.06451
 C763 C 0.25881 0.63172 -0.05015
 C764 C 0.25795 0.64417 -0.07173
 C765 C 0.25063 0.68058 -0.04965
 C766 C 0.25167 0.66740 -0.02838
 N767 N 0.25517 0.64332 -0.02910
 H768 H 0.28604 0.62518 0.03888
 H769 H 0.22116 0.65909 0.01973
 H770 H 0.22116 0.68166 0.05793
 H771 H 0.28731 0.64699 0.07691
 H772 H 0.26157 0.61257 -0.05018
 H773 H 0.26023 0.63463 -0.08843
 H774 H 0.24722 0.69963 -0.04907
 H775 H 0.24904 0.67632 -0.01147
 C776 C 0.32238 0.57714 0.00048
 C777 C 0.18057 0.58259 -0.00481
 C778 C 0.25343 0.66873 -0.07151
 C779 C 0.25444 0.66612 0.07010
 C780 C 0.71885 0.09249 0.51481
 H781 H 0.73084 0.09019 0.52982
 C782 C 0.69701 0.08025 0.51425
 H783 H 0.69218 0.06839 0.52879
 C784 C 0.70995 0.11127 0.47784
 H785 H 0.71464 0.12373 0.46389
 C786 C 0.68806 0.09943 0.47659
 H787 H 0.67623 0.10267 0.46158
 N788 N 0.72498 0.10752 0.49664
 C789 C 0.80255 0.11584 0.49440
 H790 H 0.80312 0.13499 0.49170
 C791 C 0.82376 0.10286 0.49574
 H792 H 0.84075 0.11200 0.49391
 C793 C 0.77970 0.08062 0.50067
 H794 H 0.76250 0.07208 0.50270
 C795 C 0.80059 0.06693 0.50216
 H796 H 0.79943 0.04785 0.50532
 Zn797 Zn 0.75406 0.12506 0.49792
 N798 N 0.78111 0.10471 0.49735
 C799 C 0.77285 0.13932 0.54248
 N800 N 0.75465 0.14308 0.52673
 C801 C 0.73648 0.15838 0.53201
 C802 C 0.73640 0.17085 0.55372
 C803 C 0.77346 0.15140 0.56426
 C804 C 0.75953 0.13321 0.44943
 C805 C 0.75858 0.14558 0.42782
 C806 C 0.75100 0.18201 0.44978
 C807 C 0.75213 0.16891 0.47109
 N808 N 0.75581 0.14485 0.47046
 H809 H 0.78679 0.12664 0.53845
 H810 H 0.72192 0.16067 0.51949
 H811 H 0.72183 0.18289 0.55789
 H812 H 0.78798 0.14812 0.57667
 H813 H 0.76241 0.11408 0.44947
 H814 H 0.76093 0.13601 0.41115
 H815 H 0.74744 0.20104 0.45029
 H816 H 0.74941 0.17785 0.48798
 C817 C 0.82280 0.07825 0.49998
 C818 C 0.68150 0.08380 0.49491
 C819 C 0.75389 0.17012 0.42795
 C820 C 0.75510 0.16727 0.56998
 C821 C 0.98477 0.71776 0.91045
 H822 H 0.96980 0.72976 0.91287
 C823 C 0.98533 0.69676 0.92205
 H824 H 0.97085 0.69183 0.93393
 C825 C 1.02190 0.70998 0.89088
 H826 H 1.03577 0.71464 0.87834
 C827 C 1.02331 0.68681 0.90330
 H828 H 1.03841 0.67515 0.89988
 N829 N 1.00391 0.72434 0.89453
 C830 C 1.00629 0.80310 0.88509
 H831 H 1.00938 0.80342 0.86600
 C832 C 1.00493 0.82357 0.89729
 H833 H 1.00702 0.84048 0.88806
 C834 C 0.99991 0.77944 0.92015
 H835 H 0.99758 0.76235 0.92883
 C836 C 0.99830 0.80168 0.93439
 H837 H 0.99491 0.80058 0.95344
 Zn838 Zn 1.00241 0.75340 0.87690
 N839 N 1.00310 0.78056 0.89709
 C840 C 0.95791 0.77227 0.86270
 N841 N 0.97349 0.75392 0.85909
 C842 C 0.96806 0.73566 0.84393
 C843 C 0.94638 0.73568 0.83141
 C844 C 0.93616 0.77298 0.85058
 C845 C 1.05077 0.75915 0.86818
 C846 C 1.07221 0.75829 0.85554
 C847 C 1.04980 0.75046 0.81942
 C848 C 1.02867 0.75151 0.83279
 N849 N 1.02961 0.75525 0.85682
 H850 H 0.96209 0.78630 0.87525
 H851 H 0.98048 0.72100 0.84174
 H852 H 0.94212 0.72107 0.81944
 H853 H 0.92389 0.78764 0.85370
 H854 H 1.05098 0.76209 0.88730
 H855 H 1.08899 0.76076 0.86489
 H856 H 1.04904 0.74685 0.80041
 H857 H 1.01169 0.74866 0.82406
 C858 C 1.00033 0.82286 0.92328
 C859 C 1.00576 0.68037 0.91822
 C860 C 1.07176 0.75352 0.83103
 C861 C 0.93031 0.75456 0.83480
 C862 C 0.48441 0.21899 0.40740
 H863 H 0.46941 0.23096 0.40972
 C864 C 0.48492 0.19706 0.41950
 H865 H 0.47036 0.19215 0.43128
 C866 C 0.52139 0.21019 0.38867
 H867 H 0.53536 0.21495 0.37627
 C868 C 0.52260 0.18822 0.40037
 H869 H 0.53758 0.17640 0.39709
 N870 N 0.50260 0.22520 0.39246
 C871 C 0.50491 0.30282 0.38437
 H872 H 0.50770 0.30342 0.36524
 C873 C 0.50352 0.32402 0.39737
 H874 H 0.50541 0.34103 0.38827
 C875 C 0.49843 0.27990 0.41950
 H876 H 0.49634 0.26268 0.42800
 C877 C 0.49689 0.30077 0.43322
 H878 H 0.49362 0.29959 0.45228
 Zn879 Zn 0.50136 0.25435 0.37503
 N880 N 0.50188 0.28136 0.39544
 C881 C 0.45688 0.27318 0.36061
 N882 N 0.47262 0.25497 0.35693
 C883 C 0.46739 0.23680 0.34160
 C884 C 0.44575 0.23673 0.32901
 C885 C 0.43517 0.27381 0.34842
 C886 C 0.54985 0.25986 0.36699
 C887 C 0.57145 0.25893 0.35463
 C888 C 0.54947 0.25153 0.31816
 C889 C 0.52817 0.25263 0.33124
 N890 N 0.52882 0.25620 0.35532
 H891 H 0.46087 0.28713 0.37331
 H892 H 0.47991 0.22223 0.33937
 H893 H 0.44163 0.22216 0.31693
 H894 H 0.42276 0.28833 0.35163
 H895 H 0.54982 0.26265 0.38613
 H896 H 0.58812 0.26122 0.36422
 H897 H 0.54895 0.24806 0.29912
 H898 H 0.51129 0.24997 0.32228
 C899 C 0.49914 0.32302 0.42194
 C900 C 0.50424 0.18156 0.41590
 C901 C 0.57130 0.25434 0.33008
 C902 C 0.42951 0.25545 0.33250
 C903 C 0.98187 0.28018 0.59048
 H904 H 0.96753 0.26728 0.58885
 C905 C 0.98100 0.30160 0.57749
 H906 H 0.96602 0.30512 0.56572
 C907 C 1.01845 0.29187 0.60840
 H908 H 1.03276 0.28846 0.62086
 C909 C 1.01831 0.31338 0.59581
 H910 H 1.03266 0.32614 0.59850
 N911 N 1.00050 0.27566 0.60548
 C912 C 1.00679 0.19877 0.61788
 H913 H 1.00992 0.19952 0.63695
 C914 C 1.00623 0.17673 0.60628
 H915 H 1.00911 0.16046 0.61640
 C916 C 0.99854 0.21905 0.58153
 H917 H 0.99539 0.23557 0.57203
 C918 C 0.99780 0.19728 0.56919
 H919 H 0.99410 0.19707 0.55018
 Zn920 Zn 1.00095 0.24739 0.62442
 N921 N 1.00250 0.21931 0.60555
 C922 C 0.95745 0.22729 0.64003
 N923 N 0.97247 0.24625 0.64295
 C924 C 0.96661 0.26473 0.65767
 C925 C 0.94500 0.26440 0.67032
 C926 C 0.93580 0.22625 0.65230
 C927 C 1.04975 0.24479 0.63174
 C928 C 1.07150 0.24643 0.64376
 C929 C 1.04987 0.25335 0.68053
 C930 C 1.02841 0.25156 0.66776
 N931 N 1.02879 0.24778 0.64371
 H932 H 0.96191 0.21307 0.62780
 H933 H 0.97857 0.27985 0.65932
 H934 H 0.94034 0.27923 0.68185
 H935 H 0.92394 0.21115 0.64964
 H936 H 1.04950 0.24172 0.61265
 H937 H 1.08806 0.24444 0.63389
 H938 H 1.04947 0.25676 0.69960
 H939 H 1.01157 0.25362 0.67697
 C940 C 1.00137 0.17593 0.58180
 C941 C 0.99942 0.31837 0.58025
 C942 C 1.07162 0.25102 0.66832
 C943 C 0.92945 0.24496 0.66753
 C944 C 0.48156 0.78001 0.09136
 H945 H 0.46717 0.76718 0.08978
 C946 C 0.48080 0.80140 0.07832
 H947 H 0.46586 0.80500 0.06653
 C948 C 0.51819 0.79161 0.10927
 H949 H 0.53249 0.78818 0.12174
 C950 C 0.51813 0.81308 0.09660
 H951 H 0.53249 0.82582 0.09921
 N952 N 0.50017 0.77547 0.10640
 C953 C 0.50624 0.69864 0.11912
 H954 H 0.50925 0.69942 0.13821
 C955 C 0.50572 0.67658 0.10755
 H956 H 0.50851 0.66032 0.11771
 C957 C 0.49826 0.71887 0.08268
 H958 H 0.49521 0.73538 0.07313
 C959 C 0.49757 0.69708 0.07037
 H960 H 0.49400 0.69685 0.05134
 Zn961 Zn 0.50044 0.74730 0.12548
 N962 N 0.50207 0.71916 0.10673
 C963 C 0.45676 0.72738 0.14080
 N964 N 0.47179 0.74632 0.14378
 C965 C 0.46576 0.76496 0.15823
 C966 C 0.44393 0.76483 0.17050
 C967 C 0.43490 0.72654 0.15271
 C968 C 0.54915 0.74449 0.13309
 C969 C 0.57088 0.74630 0.14515
 C970 C 0.54917 0.75404 0.18169
 C971 C 0.52773 0.75205 0.16890
 N972 N 0.52817 0.74778 0.14494
 H973 H 0.46136 0.71303 0.12878
 H974 H 0.47773 0.78007 0.15990
 H975 H 0.43912 0.77980 0.18179
 H976 H 0.42303 0.71146 0.14999
 H977 H 0.54896 0.74107 0.11406
 H978 H 0.58747 0.74409 0.13542
 H979 H 0.54879 0.75787 0.20067
 H980 H 0.51087 0.75440 0.17801
 C981 C 0.50102 0.67575 0.08304
 C982 C 0.49928 0.81808 0.08104
 C983 C 0.57092 0.75140 0.16959
 C984 C 0.42835 0.74543 0.16762
 O985 O -0.01328 0.98425 0.93601
 O986 O 0.02730 0.99548 0.93614
 O987 O -0.01682 0.93298 0.99406
 O988 O -0.01034 0.93237 1.03324
 O989 O -0.06991 0.99018 0.98857
 O990 O -0.06910 1.03139 0.99766
 O991 O 0.04380 0.99795 1.05679
 O992 O 0.04587 0.95992 1.04126
 O993 O 0.05196 1.04560 0.99895
 O994 O 0.03531 1.04917 0.96132
 O995 O -0.00454 1.05557 1.04732
 O996 O -0.04335 1.03682 1.05364
 O997 O 0.01095 1.01806 1.07003
 O998 O -0.03237 1.00737 1.07036
 O999 O 0.01484 1.06837 1.01391
 O1000 O 0.00267 1.06670 0.97076
 O1001 O 0.06516 1.01323 1.01982
 O1002 O 0.06426 0.97202 1.00443
 O1003 O -0.04591 1.00489 0.94897
 O1004 O -0.05061 1.04327 0.96784
 O1005 O -0.05678 0.95734 1.00871
 O1006 O -0.03668 0.95493 1.04803
 O1007 O 0.00120 0.94586 0.95985
 O1008 O 0.04166 0.96418 0.96030
 Zr1009 Zr 0.00872 0.98211 0.96648
 O1010 O 0.03140 1.00440 0.98657
 Zr1011 Zr -0.02029 0.96402 1.01513
 O1012 O 0.00195 0.98487 1.03721
 Zr1013 Zr -0.03924 1.01178 0.98542
 O1014 O -0.01840 1.03482 1.00671
 Zr1015 Zr 0.03541 0.99020 1.02107
 O1016 O 0.01423 0.96658 1.00039
 Zr1017 Zr 0.01587 1.03804 0.99175
 O1018 O -0.00575 1.01685 0.96905
 Zr1019 Zr -0.01247 1.01939 1.04048
 O1020 O -0.03614 0.99776 1.02022
 O1021 O -0.02531 0.97765 0.98098
 O1022 O 0.02146 1.02445 1.02600
 C1023 C -0.03355 0.99446 0.93268
 C1024 C -0.00791 0.92954 0.97317
 C1025 C -0.07319 0.96984 0.99869
 C1026 C 0.03174 1.00880 1.07301
 C1027 C 0.06820 1.03373 1.00996
 C1028 C 0.00594 1.07168 1.03477
 H1029 H 0.04695 1.00581 0.97824
 H1030 H -0.02657 1.05043 1.00794
 H1031 H -0.03567 0.96732 0.97100
 H1032 H 0.00370 0.97684 1.05287
 H1033 H 0.04216 0.94571 1.03137
 H1034 H 0.00441 0.93610 1.04222
 H1035 H -0.01140 1.07349 0.97901
 H1036 H -0.03771 1.04777 0.95660
 H1037 H 0.07821 0.97260 1.01536
 H1038 H 0.04004 0.95340 0.94633
 H1039 H -0.04836 1.04871 1.04154
 H1040 H -0.07164 1.02663 1.01452
 H1041 H 0.02674 0.98338 0.92317
 H1042 H 0.03047 1.03840 0.94816
 H1043 H -0.04909 0.96715 1.05114
 H1044 H -0.02467 0.99267 1.07647
 O1045 O 0.48511 0.48513 0.43706
 O1046 O 0.52567 0.49648 0.43705
 O1047 O 0.48201 0.43349 0.49479
 O1048 O 0.48863 0.43265 0.53395
 O1049 O 0.42875 0.49056 0.48984
 O1050 O 0.42951 0.53174 0.49934
 O1051 O 0.54279 0.49825 0.55762
 O1052 O 0.54482 0.46027 0.54189
 O1053 O 0.55058 0.54618 0.49999
 O1054 O 0.53367 0.54999 0.46250
 O1055 O 0.49431 0.55575 0.54878
 O1056 O 0.45552 0.53691 0.55513
 O1057 O 0.50993 0.51816 0.57114
 O1058 O 0.46664 0.50737 0.57163
 O1059 O 0.51355 0.56878 0.51538
 O1060 O 0.50108 0.56743 0.47229
 O1061 O 0.56393 0.51371 0.52060
 O1062 O 0.56299 0.47257 0.50502
 O1063 O 0.45251 0.50565 0.45031
 O1064 O 0.44779 0.54387 0.46946
 O1065 O 0.44206 0.45762 0.50970
 O1066 O 0.46229 0.45508 0.54897
 O1067 O 0.49980 0.44665 0.46056
 O1068 O 0.54021 0.46503 0.46091
 Zr1069 Zr 0.50727 0.48286 0.46739
 O1070 O 0.53002 0.50505 0.48752
 Zr1071 Zr 0.47854 0.46438 0.51607
 O1072 O 0.50085 0.48515 0.53818
 Zr1073 Zr 0.45935 0.51230 0.48677
 O1074 O 0.48025 0.53525 0.50809
 Zr1075 Zr 0.53422 0.49064 0.52190
 O1076 O 0.51299 0.46711 0.50117
 Zr1077 Zr 0.51444 0.53863 0.49298
 O1078 O 0.49274 0.51754 0.47026
 Zr1079 Zr 0.48637 0.51962 0.54172
 O1080 O 0.46265 0.49805 0.52146
 O1081 O 0.47333 0.47823 0.48204
 O1082 O 0.52022 0.52482 0.52711
 C1083 C 0.46480 0.49533 0.43390
 C1084 C 0.49081 0.43021 0.47383
 C1085 C 0.42558 0.47012 0.49979
 C1086 C 0.53078 0.50898 0.57396
 C1087 C 0.56690 0.53426 0.51083
 C1088 C 0.50476 0.57193 0.53631
 H1089 H 0.54552 0.50654 0.47911
 H1090 H 0.47207 0.55084 0.50947
 H1091 H 0.46297 0.46794 0.47203
 H1092 H 0.50269 0.47702 0.55378
 H1093 H 0.54107 0.44611 0.53195
 H1094 H 0.50339 0.43637 0.54292
 H1095 H 0.48707 0.57417 0.48070
 H1096 H 0.46066 0.54852 0.45823
 H1097 H 0.57701 0.47312 0.51587
 H1098 H 0.53855 0.45436 0.44687
 H1099 H 0.45044 0.54887 0.54313
 H1100 H 0.42703 0.52678 0.51616
 H1101 H 0.52506 0.48448 0.42400
 H1102 H 0.52873 0.53934 0.44929
 H1103 H 0.44984 0.46724 0.55218
 H1104 H 0.47439 0.49264 0.57760
 O1105 O 0.44845 -0.04304 0.49356
 O1106 O 0.46685 -0.04672 0.45567
 O1107 O 0.50748 -0.05171 0.54230
 O1108 O 0.54213 -0.03373 0.55028
 O1109 O 0.45722 0.00698 0.55158
 O1110 O 0.45208 0.04429 0.53207
 O1111 O 0.56980 0.01344 0.48154
 O1112 O 0.57026 -0.02533 0.49458
 O1113 O 0.51397 0.01802 0.43035
 O1114 O 0.47458 0.00665 0.42905
 O1115 O 0.51793 0.06953 0.48557
 O1116 O 0.50835 0.07022 0.52745
 O1117 O 0.55605 0.04665 0.50073
 O1118 O 0.53589 0.05198 0.54035
 O1119 O 0.49835 0.05587 0.45263
 O1120 O 0.45876 0.03516 0.44851
 O1121 O 0.54738 -0.00062 0.44421
 O1122 O 0.54761 -0.04093 0.46179
 O1123 O 0.43459 -0.00969 0.51241
 O1124 O 0.43495 0.03196 0.50151
 O1125 O 0.49016 -0.01245 0.56544
 O1126 O 0.53245 0.00021 0.56403
 O1127 O 0.48660 -0.06541 0.51011
 O1128 O 0.50316 -0.06338 0.46896
 Zr1129 Zr 0.48480 -0.03557 0.48723
 O1130 O 0.50595 -0.01446 0.46436
 Zr1131 Zr 0.51281 -0.01505 0.53549
 O1132 O 0.53566 0.00611 0.51437
 Zr1133 Zr 0.46461 0.01291 0.51517
 O1134 O 0.48543 0.03578 0.49372
 Zr1135 Zr 0.53950 -0.00869 0.48011
 O1136 O 0.51912 -0.03165 0.50234
 Zr1137 Zr 0.49127 0.01973 0.46030
 O1138 O 0.46831 -0.00223 0.48093
 Zr1139 Zr 0.51980 0.03962 0.50840
 O1140 O 0.49782 0.01926 0.53168
 O1141 O 0.47920 -0.02073 0.52092
 O1142 O 0.52533 0.02540 0.47441
 C1143 C 0.43178 -0.03048 0.50311
 C1144 C 0.49695 -0.06828 0.53038
 C1145 C 0.46956 -0.00281 0.56826
 C1146 C 0.57261 0.03430 0.49069
 C1147 C 0.53497 0.00921 0.42762
 C1148 C 0.50853 0.07239 0.46484
 H1149 H 0.50738 -0.02264 0.44874
 H1150 H 0.47711 0.05130 0.49228
 H1151 H 0.46900 -0.03091 0.53121
 H1152 H 0.55130 0.00746 0.52248
 H1153 H 0.56484 -0.04054 0.50188
 H1154 H 0.55606 -0.03029 0.53998
 H1155 H 0.45535 0.04919 0.45872
 H1156 H 0.43160 0.02532 0.48545
 H1157 H 0.56349 -0.03909 0.45411
 H1158 H 0.49455 -0.07871 0.47124
 H1159 H 0.49203 0.07413 0.52191
 H1160 H 0.46517 0.04992 0.54257
 H1161 H 0.45998 -0.06287 0.45829
 H1162 H 0.46555 -0.00775 0.43394
 H1163 H 0.52439 0.01537 0.56830
 H1164 H 0.54953 0.04134 0.54404
 O1165 O 0.00646 0.44794 1.04355
 O1166 O 0.04442 0.46624 1.04719
 O1167 O -0.04202 0.50713 1.05254
 O1168 O -0.04998 0.54183 1.03467
 O1169 O -0.05167 0.45699 0.99376
 O1170 O -0.03235 0.45196 0.95636
 O1171 O 0.01870 0.56950 0.98745
 O1172 O 0.00581 0.56987 1.02624
 O1173 O 0.06967 0.51350 0.98256
 O1174 O 0.07087 0.47407 0.99374
 O1175 O 0.01427 0.51779 0.93119
 O1176 O -0.02759 0.50836 0.93057
 O1177 O -0.00067 0.55592 0.95427
 O1178 O -0.04038 0.53583 0.94899
 O1179 O 0.04718 0.49808 0.94469
 O1180 O 0.05124 0.45838 0.96528
 O1181 O 0.05601 0.54691 1.00135
 O1182 O 0.03856 0.54707 1.04168
 O1183 O -0.01252 0.43423 1.01020
 O1184 O -0.00179 0.43471 0.96853
 O1185 O -0.06535 0.48992 1.01332
 O1186 O -0.06384 0.53228 1.00075
 O1187 O -0.00987 0.48610 1.06610
 O1188 O 0.03133 0.50255 1.06400
 Zr1189 Zr 0.01289 0.48432 1.03618
 O1190 O 0.03575 0.50548 1.01508
 Zr1191 Zr -0.03534 0.51252 1.01588
 O1192 O -0.01421 0.53540 0.99475
 Zr1193 Zr -0.01528 0.46434 0.98772
 O1194 O 0.00614 0.48519 0.96486
 Zr1195 Zr 0.02011 0.53910 1.00946
 O1196 O -0.00211 0.51870 1.03242
 Zr1197 Zr 0.03964 0.49091 0.98083
 O1198 O 0.01902 0.46792 1.00278
 Zr1199 Zr -0.00842 0.51964 0.96118
 O1200 O -0.03170 0.49763 0.98152
 O1201 O -0.02086 0.47884 1.02142
 O1202 O 0.02564 0.52504 0.97532
 C1203 C -0.00316 0.43132 1.03096
 C1204 C -0.03008 0.49651 1.06906
 C1205 C -0.06827 0.46934 1.00364
 C1206 C 0.00947 0.57241 0.96664
 C1207 C 0.07253 0.53447 0.99145
 C1208 C 0.03496 0.50834 0.92824
 H1209 H 0.05140 0.50683 1.02322
 H1210 H 0.00749 0.47692 0.94931
 H1211 H -0.03114 0.46863 1.03160
 H1212 H -0.02227 0.55107 0.99348
 H1213 H -0.00146 0.56442 1.04144
 H1214 H -0.03961 0.55574 1.03131
 H1215 H 0.04099 0.45506 0.95125
 H1216 H 0.01427 0.43129 0.97511
 H1217 H 0.04629 0.56294 1.03988
 H1218 H 0.02907 0.49389 1.07931
 H1219 H -0.02220 0.49199 0.92665
 H1220 H -0.04284 0.46509 0.95082
 H1221 H 0.04183 0.45932 1.06333
 H1222 H 0.06603 0.46508 1.00818
 H1223 H -0.06823 0.52424 0.98560
 H1224 H -0.04396 0.54946 0.95966
 O1225 O 0.01023 0.42874 0.50975
 O1226 O -0.00102 0.42916 0.46907
 O1227 O 0.06256 0.48563 0.51355
 O1228 O 0.06416 0.52476 0.50746
 O1229 O 0.00475 0.48129 0.56634
 O1230 O -0.03627 0.49121 0.56510
 O1231 O 0.00006 0.55012 0.45283
 O1232 O 0.03757 0.53333 0.45090
 O1233 O -0.04932 0.49379 0.44398
 O1234 O -0.05378 0.45597 0.46019
 O1235 O -0.05843 0.54180 0.50062
 O1236 O -0.04007 0.54764 0.53942
 O1237 O -0.02016 0.56365 0.48551
 O1238 O -0.00988 0.56337 0.52908
 O1239 O -0.07199 0.50872 0.48119
 O1240 O -0.07137 0.46546 0.49287
 O1241 O -0.01631 0.51390 0.43120
 O1242 O 0.02437 0.49705 0.43221
 O1243 O -0.01039 0.44211 0.54224
 O1244 O -0.04854 0.46165 0.54632
 O1245 O 0.03821 0.50054 0.55344
 O1246 O 0.04174 0.53993 0.53352
 O1247 O 0.04916 0.45180 0.49522
 O1248 O 0.03093 0.45249 0.45476
 Zr1249 Zr 0.01305 0.45916 0.48765
 O1250 O -0.00851 0.47994 0.46481
 Zr1251 Zr 0.03201 0.50731 0.51695
 O1252 O 0.01198 0.52999 0.49461
 Zr1253 Zr -0.01656 0.47865 0.53542
 O1254 O -0.03884 0.50061 0.51445
 Zr1255 Zr 0.00657 0.51410 0.46106
 O1256 O 0.02943 0.49273 0.48237
 Zr1257 Zr -0.04214 0.48591 0.48006
 O1258 O -0.02174 0.46256 0.50181
 Zr1259 Zr -0.02254 0.53403 0.50879
 O1260 O -0.00169 0.51313 0.53258
 O1261 O 0.01757 0.47347 0.52175
 O1262 O -0.02764 0.51985 0.47475
 C1263 C -0.00009 0.42562 0.53003
 C1264 C 0.06567 0.46477 0.50449
 C1265 C 0.02531 0.49088 0.56977
 C1266 C -0.01050 0.56654 0.46487
 C1267 C -0.03707 0.50474 0.42794
 C1268 C -0.07481 0.52964 0.49013
 H1269 H -0.01003 0.47176 0.44919
 H1270 H -0.05447 0.50219 0.52251
 H1271 H 0.02762 0.46325 0.53215
 H1272 H 0.02044 0.54543 0.49302
 H1273 H 0.05141 0.52296 0.45465
 H1274 H 0.06091 0.53361 0.49251
 H1275 H -0.07792 0.47363 0.50711
 H1276 H -0.05299 0.45042 0.53340
 H1277 H 0.02420 0.50807 0.41830
 H1278 H 0.04131 0.43823 0.45644
 H1279 H -0.05204 0.53565 0.54452
 H1280 H -0.03112 0.50794 0.56780
 H1281 H 0.01070 0.41586 0.46972
 H1282 H -0.04344 0.44248 0.46507
 H1283 H 0.02959 0.54321 0.54596
 H1284 H 0.00489 0.56933 0.52138
 O1285 O 0.56311 0.98641 0.01591
 O1286 O 0.56315 1.02697 0.00467
 O1287 O 0.50521 0.98320 0.06734
 O1288 O 0.46606 0.98986 0.06800
 O1289 O 0.51034 0.92994 0.01032
 O1290 O 0.50099 0.93066 -0.03089
 O1291 O 0.44265 1.04398 0.00227
 O1292 O 0.45822 1.04605 0.04031
 O1293 O 0.50041 1.05178 -0.04541
 O1294 O 0.53791 1.03490 -0.04901
 O1295 O 0.45169 0.99542 -0.05517
 O1296 O 0.44525 0.95664 -0.03630
 O1297 O 0.42919 1.01111 -0.01770
 O1298 O 0.42863 0.96781 -0.00688
 O1299 O 0.48514 1.01468 -0.06806
 O1300 O 0.52821 1.00229 -0.06647
 O1301 O 0.47971 1.06516 -0.01303
 O1302 O 0.49513 1.06425 0.02817
 O1303 O 0.54993 0.95377 -0.00463
 O1304 O 0.53090 0.94896 -0.04289
 O1305 O 0.49034 0.94323 0.04315
 O1306 O 0.45109 0.96348 0.04552
 O1307 O 0.53947 1.00102 0.05433
 O1308 O 0.53913 1.04148 0.03597
 Zr1309 Zr 0.53276 1.00852 0.01810
 O1310 O 0.51274 1.03125 -0.00420
 Zr1311 Zr 0.48403 0.97974 0.03636
 O1312 O 0.46202 1.00204 0.01548
 Zr1313 Zr 0.51350 0.96054 -0.01141
 O1314 O 0.49228 0.98143 -0.03446
 Zr1315 Zr 0.47832 1.03543 0.01004
 O1316 O 0.49894 1.01421 0.03368
 Zr1317 Zr 0.50740 1.01565 -0.03779
 O1318 O 0.53002 0.99396 -0.01659
 Zr1319 Zr 0.45859 0.98754 -0.01899
 O1320 O 0.47876 0.96382 0.00267
 O1321 O 0.51811 0.97455 0.02267
 O1322 O 0.47322 1.02142 -0.02415
 C1323 C 0.56631 0.96610 0.00572
 C1324 C 0.52616 0.99201 0.07071
 C1325 C 0.50029 0.92675 0.03070
 C1326 C 0.42635 1.03197 -0.00853
 C1327 C 0.48953 1.06811 -0.03355
 C1328 C 0.46424 1.00585 -0.07131
 H1329 H 0.52115 1.04676 -0.00566
 H1330 H 0.49096 0.97323 -0.05005
 H1331 H 0.52808 0.96418 0.03300
 H1332 H 0.44640 1.00388 0.02353
 H1333 H 0.46810 1.04231 0.05452
 H1334 H 0.45711 1.00462 0.06423
 H1335 H 0.51985 0.98825 -0.07323
 H1336 H 0.54213 0.96184 -0.04752
 H1337 H 0.48429 1.07826 0.02756
 H1338 H 0.55311 1.03983 0.04674
 H1339 H 0.45728 0.95155 -0.04820
 H1340 H 0.48417 0.92817 -0.02600
 H1341 H 0.57614 1.02639 0.01674
 H1342 H 0.55107 1.03000 -0.03826
 H1343 H 0.44791 0.95104 0.03335
 H1344 H 0.42262 0.97557 0.00782
 O1345 O 0.48484 0.56325 0.01452
 O1346 O 0.49618 0.56330 -0.02603
 O1347 O 0.43342 0.50529 0.01761
 O1348 O 0.43273 0.46613 0.01106
 O1349 O 0.49045 0.51048 0.07094
 O1350 O 0.53164 0.50112 0.07024
 O1351 O 0.49838 0.44272 -0.04307
 O1352 O 0.46037 0.45831 -0.04514
 O1353 O 0.54610 0.50049 -0.05086
 O1354 O 0.54981 0.53799 -0.03397
 O1355 O 0.55581 0.45173 0.00553
 O1356 O 0.53701 0.44529 0.04425
 O1357 O 0.51833 0.42925 -0.01018
 O1358 O 0.50748 0.42875 0.03315
 O1359 O 0.56875 0.48517 -0.01373
 O1360 O 0.56723 0.52829 -0.00134
 O1361 O 0.51370 0.47979 -0.06423
 O1362 O 0.47253 0.49524 -0.06334
 O1363 O 0.50541 0.55007 0.04715
 O1364 O 0.54367 0.53104 0.05192
 O1365 O 0.45760 0.49050 0.05762
 O1366 O 0.45521 0.45119 0.03741
 O1367 O 0.44644 0.53957 -0.00021
 O1368 O 0.46486 0.53931 -0.04061
 Zr1369 Zr 0.48268 0.53289 -0.00763
 O1370 O 0.50494 0.51284 -0.03033
 Zr1371 Zr 0.46438 0.48414 0.02114
 O1372 O 0.48521 0.46210 -0.00114
 Zr1373 Zr 0.51217 0.51362 0.04036
 O1374 O 0.53518 0.49237 0.01950
 Zr1375 Zr 0.49065 0.47840 -0.03452
 O1376 O 0.46706 0.49905 -0.01332
 Zr1377 Zr 0.53853 0.50748 -0.01472
 O1378 O 0.51736 0.53014 0.00694
 Zr1379 Zr 0.51967 0.45867 0.01338
 O1380 O 0.49805 0.47887 0.03708
 O1381 O 0.47810 0.51823 0.02633
 O1382 O 0.52483 0.47330 -0.02049
 C1383 C 0.49503 0.56645 0.03483
 C1384 C 0.43006 0.52624 0.00877
 C1385 C 0.47005 0.50046 0.07411
 C1386 C 0.50916 0.42641 -0.03104
 C1387 C 0.53421 0.48961 -0.06719
 C1388 C 0.57197 0.46426 -0.00490
 H1389 H 0.50641 0.52125 -0.04584
 H1390 H 0.55076 0.49104 0.02770
 H1391 H 0.46777 0.52821 0.03668
 H1392 H 0.47714 0.44648 -0.00298
 H1393 H 0.44617 0.46820 -0.04141
 H1394 H 0.43646 0.45722 -0.00373
 H1395 H 0.57399 0.51991 0.01269
 H1396 H 0.54828 0.54229 0.03905
 H1397 H 0.47311 0.48438 -0.07734
 H1398 H 0.45412 0.55330 -0.03897
 H1399 H 0.54885 0.45737 0.04941
 H1400 H 0.52673 0.48429 0.07275
 H1401 H 0.48413 0.57630 -0.02546
 H1402 H 0.53906 0.55115 -0.02913
 H1403 H 0.46736 0.44805 0.04990
 H1404 H 0.49283 0.42268 0.02533
 O1405 O -0.00987 0.01095 0.57010
 O1406 O 0.03078 -0.00018 0.56958
 O1407 O -0.01386 0.06332 0.51315
 O1408 O -0.00778 0.06484 0.47401
 O1409 O -0.06668 0.00560 0.51773
 O1410 O -0.06560 -0.03545 0.50780
 O1411 O 0.04655 0.00054 0.44863
 O1412 O 0.04859 0.03812 0.46528
 O1413 O 0.05548 -0.04871 0.50504
 O1414 O 0.03933 -0.05312 0.54288
 O1415 O -0.00136 -0.05788 0.45715
 O1416 O -0.04014 -0.03942 0.45139
 O1417 O 0.01379 -0.01966 0.43520
 O1418 O -0.02971 -0.00931 0.43553
 O1419 O 0.01819 -0.07139 0.49018
 O1420 O 0.00662 -0.07067 0.53348
 O1421 O 0.06826 -0.01573 0.48485
 O1422 O 0.06738 0.02500 0.50156
 O1423 O -0.04245 -0.00965 0.55685
 O1424 O -0.04679 -0.04775 0.53732
 O1425 O -0.05377 0.03899 0.49835
 O1426 O -0.03401 0.04243 0.45893
 O1427 O 0.00453 0.04995 0.54696
 O1428 O 0.04500 0.03170 0.54610
 Zr1429 Zr 0.01207 0.01380 0.53960
 O1430 O 0.03477 -0.00785 0.51882
 Zr1431 Zr -0.01734 0.03272 0.49151
 O1432 O 0.00486 0.01259 0.46881
 Zr1433 Zr -0.03582 -0.01580 0.52028
 O1434 O -0.01499 -0.03817 0.49832
 Zr1435 Zr 0.03845 0.00717 0.48463
 O1436 O 0.01728 0.03012 0.50601
 Zr1437 Zr 0.01943 -0.04149 0.51294
 O1438 O -0.00217 -0.02099 0.53629
 Zr1439 Zr -0.00940 -0.02194 0.46487
 O1440 O -0.03306 -0.00098 0.48578
 O1441 O -0.02206 0.01833 0.52539
 O1442 O 0.02467 -0.02706 0.47898
 C1443 C -0.03013 0.00061 0.57329
 C1444 C -0.00477 0.06646 0.53400
 C1445 C -0.07009 0.02615 0.50810
 C1446 C 0.03445 -0.01005 0.43226
 C1447 C 0.07151 -0.03648 0.49407
 C1448 C 0.00916 -0.07425 0.46930
 H1449 H 0.05040 -0.00937 0.52697
 H1450 H -0.02308 -0.05380 0.49680
 H1451 H -0.03240 0.02840 0.53563
 H1452 H 0.00643 0.02102 0.45335
 H1453 H 0.04492 0.05200 0.47563
 H1454 H 0.00705 0.06150 0.46502
 H1455 H -0.00761 -0.07726 0.52532
 H1456 H -0.03382 -0.05228 0.54847
 H1457 H 0.08124 0.02480 0.49049
 H1458 H 0.04339 0.04216 0.56031
 H1459 H -0.04520 -0.05139 0.46340
 H1460 H -0.06835 -0.03029 0.49109
 H1461 H 0.03020 0.01160 0.58283
 H1462 H 0.03458 -0.04268 0.55633
 H1463 H -0.04644 0.03025 0.45568
 H1464 H -0.02203 0.00547 0.42956
 O1465 O 0.68250 0.23516 0.25953
 O1466 O 0.68291 0.24636 0.21893
 O1467 O 0.73981 0.18312 0.26318
 O1468 O 0.77895 0.18198 0.25692
 O1469 O 0.73507 0.24047 0.31635
 O1470 O 0.74464 0.28159 0.31546
 O1471 O 0.80373 0.24715 0.20292
 O1472 O 0.78753 0.20934 0.20076
 O1473 O 0.74676 0.29568 0.19442
 O1474 O 0.70903 0.29965 0.21078
 O1475 O 0.79477 0.30501 0.25131
 O1476 O 0.80067 0.28602 0.29013
 O1477 O 0.81703 0.26722 0.23580
 O1478 O 0.81716 0.25657 0.27903
 O1479 O 0.76163 0.31828 0.23181
 O1480 O 0.71842 0.31707 0.24351
 O1481 O 0.76716 0.26299 0.18135
 O1482 O 0.75103 0.22204 0.18215
 O1483 O 0.69574 0.25556 0.29223
 O1484 O 0.71499 0.29370 0.29691
 O1485 O 0.75469 0.20734 0.30325
 O1486 O 0.79397 0.20431 0.28328
 O1487 O 0.70586 0.19641 0.24502
 O1488 O 0.70664 0.21480 0.20459
 Zr1489 Zr 0.71300 0.23260 0.23759
 O1490 O 0.73353 0.25459 0.21495
 Zr1491 Zr 0.76128 0.21387 0.26678
 O1492 O 0.78375 0.23443 0.24464
 Zr1493 Zr 0.73223 0.26202 0.28561
 O1494 O 0.75389 0.28477 0.26484
 Zr1495 Zr 0.76783 0.23995 0.21111
 O1496 O 0.74670 0.21663 0.23220
 Zr1497 Zr 0.73914 0.28818 0.23048
 O1498 O 0.71606 0.26730 0.25205
 Zr1499 Zr 0.78744 0.26890 0.25909
 O1500 O 0.76681 0.24753 0.28266
 O1501 O 0.72732 0.22794 0.27168
 O1502 O 0.77321 0.27414 0.22507
 C1503 C 0.67931 0.24539 0.27983
 C1504 C 0.71894 0.17992 0.25415
 C1505 C 0.74493 0.22002 0.31966
 C1506 C 0.82001 0.25786 0.21505
 C1507 C 0.75771 0.28365 0.17825
 C1508 C 0.78246 0.32131 0.24088
 H1509 H 0.72531 0.25613 0.19936
 H1510 H 0.75530 0.30035 0.27304
 H1511 H 0.71718 0.21773 0.28202
 H1512 H 0.79929 0.22618 0.24297
 H1513 H 0.77737 0.19529 0.20439
 H1514 H 0.78800 0.18557 0.24218
 H1515 H 0.72657 0.32365 0.25775
 H1516 H 0.70386 0.29832 0.28395
 H1517 H 0.76205 0.22245 0.16826
 H1518 H 0.69252 0.20419 0.20616
 H1519 H 0.78883 0.29820 0.29500
 H1520 H 0.76139 0.27658 0.31814
 H1521 H 0.66977 0.23445 0.21946
 H1522 H 0.69569 0.28905 0.21553
 H1523 H 0.79727 0.21653 0.29565
 H1524 H 0.82299 0.24171 0.27143
 O1525 O 0.75576 0.70481 0.69696
 O1526 O 0.79371 0.70086 0.71518
 O1527 O 0.70720 0.69556 0.75599
 O1528 O 0.69952 0.71309 0.79097
 O1529 O 0.69785 0.75468 0.70637
 O1530 O 0.71731 0.79214 0.70163
 O1531 O 0.76838 0.75980 0.81883
 O1532 O 0.75527 0.72104 0.81889
 O1533 O 0.81924 0.76526 0.76292
 O1534 O 0.82043 0.75404 0.72340
 O1535 O 0.76417 0.81661 0.76746
 O1536 O 0.72232 0.81748 0.75818
 O1537 O 0.74927 0.79323 0.80547
 O1538 O 0.70946 0.79885 0.78554
 O1539 O 0.79698 0.80314 0.74758
 O1540 O 0.80098 0.78283 0.70784
 O1541 O 0.80551 0.74618 0.79618
 O1542 O 0.78802 0.70578 0.79595
 O1543 O 0.73689 0.73834 0.68350
 O1544 O 0.74780 0.77998 0.68420
 O1545 O 0.68411 0.73494 0.73921
 O1546 O 0.68570 0.74720 0.78163
 O1547 O 0.73930 0.68205 0.73487
 O1548 O 0.78052 0.68382 0.75139
 Zr1549 Zr 0.76225 0.71187 0.73335
 O1550 O 0.78525 0.73271 0.75461
 Zr1551 Zr 0.71413 0.73212 0.76174
 O1552 O 0.73539 0.75299 0.78472
 Zr1553 Zr 0.73427 0.76061 0.71373
 O1554 O 0.75584 0.78321 0.73469
 Zr1555 Zr 0.76963 0.73809 0.78827
 O1556 O 0.74729 0.71539 0.76777
 Zr1557 Zr 0.78927 0.76707 0.74025
 O1558 O 0.76851 0.74539 0.71716
 Zr1559 Zr 0.74133 0.78668 0.76917
 O1560 O 0.71792 0.76660 0.74708
 O1561 O 0.72858 0.72681 0.72803
 O1562 O 0.77530 0.77233 0.77442
 C1563 C 0.74614 0.71756 0.68046
 C1564 C 0.71903 0.67910 0.74522
 C1565 C 0.68122 0.74473 0.71867
 C1566 C 0.75934 0.78067 0.82186
 C1567 C 0.82203 0.75627 0.78387
 C1568 C 0.78485 0.81956 0.75799
 H1569 H 0.80088 0.72452 0.75591
 H1570 H 0.75725 0.79882 0.72652
 H1571 H 0.71824 0.71676 0.71776
 H1572 H 0.72735 0.75417 0.80042
 H1573 H 0.74798 0.70589 0.81332
 H1574 H 0.70984 0.71646 0.80491
 H1575 H 0.79071 0.79684 0.70454
 H1576 H 0.76383 0.77338 0.68071
 H1577 H 0.79576 0.70743 0.81183
 H1578 H 0.77815 0.66858 0.74265
 H1579 H 0.72760 0.82143 0.74177
 H1580 H 0.70679 0.79754 0.71479
 H1581 H 0.79104 0.68478 0.70817
 H1582 H 0.81544 0.73985 0.71410
 H1583 H 0.68141 0.76245 0.77372
 H1584 H 0.70590 0.78812 0.79915
 O1585 O 0.29407 0.19695 0.74572
 O1586 O 0.29720 0.21504 0.70753
 O1587 O 0.30364 0.25624 0.79380
 O1588 O 0.28599 0.29102 0.80181
 O1589 O 0.24484 0.20624 0.80420
 O1590 O 0.20724 0.20118 0.78526
 O1591 O 0.23804 0.31847 0.73334
 O1592 O 0.27697 0.31892 0.74603
 O1593 O 0.23260 0.26235 0.68274
 O1594 O 0.24355 0.22287 0.68159
 O1595 O 0.18179 0.26703 0.73869
 O1596 O 0.18159 0.25760 0.78060
 O1597 O 0.20507 0.30501 0.75316
 O1598 O 0.20027 0.28512 0.79313
 O1599 O 0.19492 0.24726 0.70567
 O1600 O 0.21521 0.20737 0.70159
 O1601 O 0.25163 0.29577 0.69610
 O1602 O 0.29211 0.29596 0.71323
 O1603 O 0.26087 0.18333 0.76507
 O1604 O 0.21909 0.18382 0.75458
 O1605 O 0.26465 0.23919 0.81757
 O1606 O 0.25215 0.28158 0.81605
 O1607 O 0.31679 0.23512 0.76155
 O1608 O 0.31434 0.25137 0.72032
 Zr1609 Zr 0.28666 0.23328 0.73912
 O1610 O 0.26539 0.25441 0.71639
 Zr1611 Zr 0.26695 0.26170 0.78746
 O1612 O 0.24567 0.28455 0.76646
 Zr1613 Zr 0.23846 0.21347 0.76784
 O1614 O 0.21543 0.23429 0.74658
 Zr1615 Zr 0.26004 0.28810 0.73197
 O1616 O 0.28315 0.26774 0.75403
 Zr1617 Zr 0.23107 0.23987 0.71290
 O1618 O 0.25316 0.21691 0.73337
 Zr1619 Zr 0.21201 0.26879 0.76108
 O1620 O 0.23252 0.24682 0.78422
 O1621 O 0.27223 0.22797 0.77303
 O1622 O 0.22582 0.27404 0.72685
 C1623 C 0.28156 0.18039 0.75558
 C1624 C 0.31998 0.24556 0.78172
 C1625 C 0.25495 0.21862 0.82066
 C1626 C 0.21730 0.32142 0.74270
 C1627 C 0.24152 0.28329 0.67973
 C1628 C 0.17863 0.25763 0.71801
 H1629 H 0.27338 0.25569 0.70065
 H1630 H 0.19984 0.22606 0.74540
 H1631 H 0.28248 0.21780 0.78326
 H1632 H 0.24451 0.30026 0.77446
 H1633 H 0.29223 0.31350 0.75317
 H1634 H 0.28250 0.30492 0.79147
 H1635 H 0.20123 0.20419 0.71194
 H1636 H 0.22554 0.18034 0.73848
 H1637 H 0.29028 0.31180 0.70545
 H1638 H 0.32962 0.24264 0.72241
 H1639 H 0.17752 0.24125 0.77524
 H1640 H 0.20183 0.21436 0.79574
 H1641 H 0.31333 0.20807 0.70996
 H1642 H 0.25798 0.21383 0.68631
 H1643 H 0.23704 0.27355 0.82062
 H1644 H 0.21092 0.29886 0.79644
 O1645 O 0.20398 0.80423 0.24419
 O1646 O 0.20025 0.78604 0.20619
 O1647 O 0.19436 0.74515 0.29271
 O1648 O 0.21178 0.71016 0.30051
 O1649 O 0.25354 0.79467 0.30244
 O1650 O 0.29104 0.79943 0.28319
 O1651 O 0.25888 0.68225 0.23193
 O1652 O 0.22005 0.68223 0.24481
 O1653 O 0.26471 0.73818 0.18111
 O1654 O 0.25360 0.77773 0.17981
 O1655 O 0.31569 0.73353 0.23658
 O1656 O 0.31628 0.74280 0.27847
 O1657 O 0.29219 0.69555 0.25127
 O1658 O 0.29757 0.71541 0.29115
 O1659 O 0.30249 0.75346 0.20366
 O1660 O 0.28223 0.79325 0.19950
 O1661 O 0.24549 0.70496 0.19472
 O1662 O 0.20501 0.70522 0.21194
 O1663 O 0.23740 0.81763 0.26329
 O1664 O 0.27908 0.81686 0.25260
 O1665 O 0.23367 0.76185 0.31606
 O1666 O 0.24581 0.71940 0.31455
 O1667 O 0.18107 0.76629 0.26049
 O1668 O 0.18308 0.74984 0.21925
 Zr1669 Zr 0.21103 0.76782 0.23774
 O1670 O 0.23198 0.74654 0.21489
 Zr1671 Zr 0.23094 0.73936 0.28601
 O1672 O 0.25190 0.71634 0.26491
 Zr1673 Zr 0.25961 0.78734 0.26604
 O1674 O 0.28231 0.76635 0.24464
 Zr1675 Zr 0.23721 0.71285 0.23055
 O1676 O 0.21441 0.73338 0.25274
 Zr1677 Zr 0.26637 0.76084 0.21110
 O1678 O 0.24460 0.78395 0.23169
 Zr1679 Zr 0.28562 0.73185 0.25919
 O1680 O 0.26545 0.75397 0.28245
 O1681 O 0.22577 0.77310 0.27152
 O1682 O 0.27149 0.72665 0.22511
 C1683 C 0.21669 0.82070 0.25389
 C1684 C 0.17798 0.75594 0.28074
 C1685 C 0.24352 0.78236 0.31902
 C1686 C 0.27969 0.67918 0.24109
 C1687 C 0.25570 0.71726 0.17826
 C1688 C 0.31880 0.74301 0.21591
 H1689 H 0.22389 0.74526 0.19920
 H1690 H 0.29793 0.77451 0.24334
 H1691 H 0.21569 0.78337 0.28180
 H1692 H 0.25301 0.70063 0.27295
 H1693 H 0.20487 0.68781 0.25199
 H1694 H 0.21516 0.69622 0.29021
 H1695 H 0.29619 0.79651 0.20985
 H1696 H 0.27254 0.82038 0.23653
 H1697 H 0.20668 0.68934 0.20422
 H1698 H 0.16785 0.75860 0.22152
 H1699 H 0.32035 0.75917 0.27314
 H1700 H 0.29641 0.78624 0.29371
 H1701 H 0.18417 0.79307 0.20875
 H1702 H 0.23934 0.78697 0.18467
 H1703 H 0.26106 0.72727 0.31892
 H1704 H 0.28681 0.70180 0.29462
 O1705 O 0.23965 0.68263 0.76511
 O1706 O 0.28025 0.68312 0.75394
 O1707 O 0.23598 0.73988 0.81723
 O1708 O 0.24221 0.77904 0.81844
 O1709 O 0.18284 0.73513 0.75984
 O1710 O 0.18373 0.74481 0.71872
 O1711 O 0.29618 0.80402 0.75337
 O1712 O 0.29830 0.78778 0.79119
 O1713 O 0.30475 0.74713 0.70483
 O1714 O 0.28842 0.70935 0.70075
 O1715 O 0.24784 0.79508 0.69547
 O1716 O 0.20899 0.80087 0.71442
 O1717 O 0.26332 0.81731 0.73328
 O1718 O 0.22010 0.81737 0.74389
 O1719 O 0.26739 0.76199 0.68219
 O1720 O 0.25571 0.71874 0.68328
 O1721 O 0.31776 0.76751 0.73757
 O1722 O 0.31696 0.75132 0.77847
 O1723 O 0.20697 0.69587 0.74469
 O1724 O 0.20229 0.71518 0.70659
 O1725 O 0.19593 0.75471 0.79301
 O1726 O 0.21582 0.79405 0.79611
 O1727 O 0.25415 0.70595 0.80390
 O1728 O 0.29456 0.70681 0.78556
 Zr1729 Zr 0.26158 0.71317 0.76774
 O1730 O 0.28421 0.73380 0.74583
 Zr1731 Zr 0.23237 0.76140 0.78652
 O1732 O 0.25448 0.78396 0.76603
 Zr1733 Zr 0.21357 0.73239 0.73830
 O1734 O 0.23433 0.75413 0.71562
 Zr1735 Zr 0.28801 0.76809 0.76054
 O1736 O 0.26694 0.74686 0.78379
 Zr1737 Zr 0.26870 0.73943 0.71224
 O1738 O 0.24714 0.71627 0.73303
 Zr1739 Zr 0.24005 0.78768 0.73155
 O1740 O 0.21649 0.76697 0.75286
 O1741 O 0.22749 0.72745 0.77239
 O1742 O 0.27407 0.77350 0.72635
 C1743 C 0.21937 0.67944 0.75486
 C1744 C 0.24502 0.71900 0.82040
 C1745 C 0.17953 0.74494 0.78030
 C1746 C 0.28406 0.82030 0.74265
 C1747 C 0.32089 0.75810 0.71691
 C1748 C 0.25832 0.78282 0.67918
 H1749 H 0.29981 0.72560 0.74431
 H1750 H 0.22615 0.75554 0.70003
 H1751 H 0.21717 0.71726 0.78256
 H1752 H 0.25613 0.79950 0.77430
 H1753 H 0.29468 0.77758 0.80521
 H1754 H 0.25690 0.78819 0.81487
 H1755 H 0.24147 0.72688 0.67670
 H1756 H 0.21526 0.70408 0.70196
 H1757 H 0.33084 0.76237 0.77811
 H1758 H 0.29300 0.69266 0.79614
 H1759 H 0.20417 0.78905 0.70219
 H1760 H 0.18103 0.76155 0.72379
 H1761 H 0.27972 0.66995 0.76582
 H1762 H 0.28364 0.69597 0.71129
 H1763 H 0.20347 0.79735 0.78387
 H1764 H 0.22768 0.82318 0.75877
 O1765 O 0.25498 0.20467 0.19502
 O1766 O 0.29300 0.20095 0.21313
 O1767 O 0.20667 0.19476 0.25420
 O1768 O 0.19887 0.21214 0.28921
 O1769 O 0.19668 0.25402 0.20478
 O1770 O 0.21582 0.29164 0.20013
 O1771 O 0.26750 0.25932 0.31707
 O1772 O 0.25467 0.22044 0.31705
 O1773 O 0.31813 0.26537 0.26104
 O1774 O 0.31929 0.25434 0.22147
 O1775 O 0.26263 0.31623 0.26599
 O1776 O 0.22074 0.31679 0.25677
 O1777 O 0.24805 0.29262 0.30390
 O1778 O 0.20812 0.29795 0.28411
 O1779 O 0.29551 0.30313 0.24597
 O1780 O 0.29954 0.28303 0.20609
 O1781 O 0.30465 0.24606 0.29426
 O1782 O 0.28748 0.20551 0.29396
 O1783 O 0.23581 0.23810 0.18174
 O1784 O 0.24637 0.27982 0.18260
 O1785 O 0.18318 0.23404 0.23758
 O1786 O 0.18480 0.24615 0.28005
 O1787 O 0.23881 0.18160 0.23294
 O1788 O 0.28007 0.18367 0.24931
 Zr1789 Zr 0.26149 0.21162 0.23143
 O1790 O 0.28438 0.23258 0.25271
 Zr1791 Zr 0.21329 0.23137 0.26003
 O1792 O 0.23443 0.25233 0.28304
 Zr1793 Zr 0.23307 0.26021 0.21208
 O1794 O 0.25450 0.28292 0.23307
 Zr1795 Zr 0.26882 0.23771 0.28644
 O1796 O 0.24660 0.21490 0.26590
 Zr1797 Zr 0.28807 0.26703 0.23848
 O1798 O 0.26744 0.24526 0.21536
 Zr1799 Zr 0.24005 0.28612 0.26761
 O1800 O 0.21675 0.26594 0.24549
 O1801 O 0.22769 0.22631 0.22625
 O1802 O 0.27415 0.27204 0.27270
 C1803 C 0.24523 0.21741 0.17859
 C1804 C 0.21862 0.17843 0.24336
 C1805 C 0.18016 0.24391 0.21709
 C1806 C 0.25831 0.28010 0.32021
 C1807 C 0.32105 0.25633 0.28194
 C1808 C 0.28328 0.31940 0.25650
 H1809 H 0.30008 0.22452 0.25394
 H1810 H 0.25576 0.29857 0.22496
 H1811 H 0.21741 0.21621 0.21597
 H1812 H 0.22644 0.25338 0.29877
 H1813 H 0.24749 0.20525 0.31145
 H1814 H 0.20925 0.21545 0.30312
 H1815 H 0.28919 0.29700 0.20292
 H1816 H 0.26245 0.27336 0.17905
 H1817 H 0.29525 0.20718 0.30981
 H1818 H 0.27780 0.16845 0.24052
 H1819 H 0.22600 0.32089 0.24039
 H1820 H 0.20532 0.29693 0.21335
 H1821 H 0.29044 0.18488 0.20607
 H1822 H 0.31440 0.24014 0.21215
 H1823 H 0.18035 0.26139 0.27220
 H1824 H 0.20470 0.28715 0.29770
 O1825 O 0.79475 0.69800 0.24660
 O1826 O 0.79796 0.71637 0.20856
 O1827 O 0.80435 0.75691 0.29516
 O1828 O 0.78676 0.79168 0.30336
 O1829 O 0.74550 0.70693 0.30510
 O1830 O 0.70791 0.70204 0.28612
 O1831 O 0.73888 0.81968 0.23502
 O1832 O 0.77779 0.81999 0.24777
 O1833 O 0.73338 0.76393 0.18408
 O1834 O 0.74425 0.72446 0.18262
 O1835 O 0.68254 0.76822 0.24006
 O1836 O 0.68234 0.75859 0.28189
 O1837 O 0.70587 0.80613 0.25472
 O1838 O 0.70106 0.78600 0.29459
 O1839 O 0.69566 0.74867 0.20691
 O1840 O 0.71597 0.70881 0.20252
 O1841 O 0.75249 0.79721 0.19765
 O1842 O 0.79295 0.79724 0.21483
 O1843 O 0.76152 0.68430 0.26583
 O1844 O 0.71973 0.68492 0.25531
 O1845 O 0.76531 0.73976 0.31875
 O1846 O 0.75288 0.78219 0.31751
 O1847 O 0.81751 0.73602 0.26276
 O1848 O 0.81511 0.75259 0.22163
 Zr1849 Zr 0.78739 0.73440 0.24027
 O1850 O 0.76616 0.75570 0.21768
 Zr1851 Zr 0.76768 0.76249 0.28880
 O1852 O 0.74645 0.78552 0.26794
 Zr1853 Zr 0.73914 0.71444 0.26880
 O1854 O 0.71615 0.73545 0.24770
 Zr1855 Zr 0.76085 0.78929 0.23349
 O1856 O 0.78392 0.76875 0.25542
 Zr1857 Zr 0.73181 0.74124 0.21407
 O1858 O 0.75388 0.71811 0.23437
 Zr1859 Zr 0.71277 0.76985 0.26243
 O1860 O 0.73324 0.74768 0.28542
 O1861 O 0.77293 0.72886 0.27413
 O1862 O 0.72661 0.77532 0.22825
 C1863 C 0.78221 0.68139 0.25633
 C1864 C 0.82069 0.74629 0.28302
 C1865 C 0.75559 0.71918 0.32166
 C1866 C 0.71813 0.82259 0.24437
 C1867 C 0.74236 0.78486 0.18120
 C1868 C 0.67936 0.75894 0.21934
 H1869 H 0.77416 0.75708 0.20195
 H1870 H 0.70056 0.72724 0.24646
 H1871 H 0.78316 0.71859 0.28429
 H1872 H 0.74531 0.80119 0.27604
 H1873 H 0.79304 0.81451 0.25490
 H1874 H 0.78330 0.80566 0.29312
 H1875 H 0.70198 0.70557 0.21284
 H1876 H 0.72622 0.68152 0.23921
 H1877 H 0.79114 0.81314 0.20717
 H1878 H 0.83038 0.74385 0.22369
 H1879 H 0.67828 0.74225 0.27647
 H1880 H 0.70252 0.71515 0.29671
 H1881 H 0.81408 0.70939 0.21096
 H1882 H 0.75876 0.71548 0.18724
 H1883 H 0.73776 0.77416 0.32202
 H1884 H 0.71170 0.79973 0.29797
 O1885 O 0.69626 0.24525 0.79428
 O1886 O 0.71426 0.20707 0.79763
 O1887 O 0.75558 0.29336 0.80361
 O1888 O 0.79056 0.30093 0.78598
 O1889 O 0.70582 0.30366 0.74477
 O1890 O 0.70056 0.28462 0.70730
 O1891 O 0.81767 0.23260 0.73814
 O1892 O 0.81812 0.24514 0.77706
 O1893 O 0.76122 0.18198 0.73280
 O1894 O 0.72183 0.18099 0.74403
 O1895 O 0.76617 0.23767 0.68192
 O1896 O 0.75680 0.27978 0.68161
 O1897 O 0.80425 0.25233 0.70508
 O1898 O 0.78454 0.29213 0.69997
 O1899 O 0.74615 0.20481 0.69518
 O1900 O 0.70630 0.20099 0.71562
 O1901 O 0.79475 0.19533 0.75162
 O1902 O 0.79508 0.21238 0.79217
 O1903 O 0.68272 0.26461 0.76105
 O1904 O 0.68309 0.25404 0.71929
 O1905 O 0.73884 0.31699 0.76446
 O1906 O 0.78114 0.31532 0.75209
 O1907 O 0.73440 0.26117 0.81692
 O1908 O 0.75065 0.21988 0.81458
 Zr1909 Zr 0.73255 0.23860 0.78686
 O1910 O 0.75352 0.21574 0.76560
 Zr1911 Zr 0.76114 0.28679 0.76694
 O1912 O 0.78384 0.26568 0.74565
 Zr1913 Zr 0.71282 0.26724 0.73856
 O1914 O 0.73349 0.24585 0.71555
 Zr1915 Zr 0.78726 0.23120 0.76012
 O1916 O 0.76705 0.25338 0.78324
 Zr1917 Zr 0.73891 0.21221 0.73132
 O1918 O 0.71611 0.23281 0.75341
 Zr1919 Zr 0.76804 0.26023 0.71201
 O1920 O 0.74624 0.28350 0.73252
 O1921 O 0.72736 0.27248 0.77230
 O1922 O 0.77314 0.22603 0.72594
 C1923 C 0.67974 0.25514 0.78176
 C1924 C 0.74484 0.28137 0.82002
 C1925 C 0.71830 0.32011 0.75476
 C1926 C 0.82066 0.24196 0.71738
 C1927 C 0.78219 0.17896 0.74159
 C1928 C 0.75664 0.21702 0.67884
 H1929 H 0.75476 0.20001 0.77363
 H1930 H 0.72523 0.24465 0.69998
 H1931 H 0.71723 0.28278 0.78251
 H1932 H 0.79957 0.27365 0.74444
 H1933 H 0.81272 0.25232 0.79231
 H1934 H 0.80443 0.29064 0.78231
 H1935 H 0.70317 0.21129 0.70158
 H1936 H 0.67952 0.23798 0.72582
 H1937 H 0.81086 0.20452 0.79027
 H1938 H 0.74200 0.22208 0.82989
 H1939 H 0.74057 0.27418 0.67738
 H1940 H 0.71383 0.29492 0.70174
 H1941 H 0.70735 0.20958 0.81377
 H1942 H 0.71276 0.18582 0.75841
 H1943 H 0.77325 0.31979 0.73688
 H1944 H 0.79808 0.29565 0.71078
 C1945 C 0.06990 1.00753 1.15877
 C1946 C 0.06078 1.00910 1.13931
 C1947 C 0.05056 1.01002 1.11626
 C1948 C 0.04199 1.00996 1.09649
 C1949 C 0.56941 0.50794 0.65950
 C1950 C 0.56019 0.50940 0.64008
 C1951 C 0.54985 0.51023 0.61709
 C1952 C 0.54117 0.51012 0.59737
 C1953 C 0.43104 -0.00157 0.65387
 C1954 C 0.44057 -0.00223 0.63457
 C1955 C 0.45098 -0.00281 0.61161
 C1956 C 0.45953 -0.00302 0.59184
 C1957 C -0.06885 0.49819 1.15455
 C1958 C -0.05922 0.49738 1.13530
 C1959 C -0.04872 0.49666 1.11238
 C1960 C -0.04013 0.49635 1.09263
 C1961 C -0.07372 0.50596 0.34146
 C1962 C -0.06509 0.50675 0.36120
 C1963 C -0.05535 0.50688 0.38448
 C1964 C -0.04709 0.50629 0.40438
 C1965 C 0.42797 1.00655 -0.15794
 C1966 C 0.43658 1.00743 -0.13820
 C1967 C 0.44624 1.00767 -0.11489
 C1968 C 0.45439 1.00721 -0.09495
 C1969 C 0.57208 0.49210 -0.15303
 C1970 C 0.56292 0.49067 -0.13359
 C1971 C 0.55278 0.48948 -0.11053
 C1972 C 0.54432 0.48910 -0.09072
 C1973 C 0.07226 -0.00783 0.34636
 C1974 C 0.06307 -0.00911 0.36580
 C1975 C 0.05292 -0.01017 0.38887
 C1976 C 0.04448 -0.01052 0.40868
 C1977 C 0.15383 1.07209 1.00797
 C1978 C 0.13446 1.06275 1.00932
 C1979 C 0.11148 1.05243 1.01038
 C1980 C 0.09172 1.04387 1.01064
 C1981 C 0.65273 0.57214 0.50828
 C1982 C 0.63328 0.56299 0.50975
 C1983 C 0.61023 0.55284 0.51097
 C1984 C 0.59043 0.54437 0.51137
 C1985 C 0.65835 0.42747 -0.00563
 C1986 C 0.63869 0.43623 -0.00649
 C1987 C 0.61546 0.44607 -0.00673
 C1988 C 0.59557 0.45434 -0.00626
 C1989 C 0.15802 -0.07289 0.49331
 C1990 C 0.13827 -0.06434 0.49237
 C1991 C 0.11497 -0.05469 0.49210
 C1992 C 0.09506 -0.04648 0.49258
 C1993 C 0.34619 -0.06908 0.50190
 C1994 C 0.36547 -0.05950 0.50260
 C1995 C 0.38842 -0.04905 0.50319
 C1996 C 0.40819 -0.04050 0.50339
 C1997 C -0.15382 0.43062 1.00261
 C1998 C -0.13455 0.44024 1.00324
 C1999 C -0.11161 0.45073 1.00377
 C2000 C -0.09185 0.45931 1.00393
 C2001 C -0.16020 0.56839 0.49162
 C2002 C -0.14086 0.55907 0.48999
 C2003 C -0.11792 0.54865 0.48900
 C2004 C -0.09823 0.53996 0.48902
 C2005 C 0.34090 1.07064 -0.00771
 C2006 C 0.36030 1.06141 -0.00915
 C2007 C 0.38327 1.05104 -0.00994
 C2008 C 0.40297 1.04235 -0.00977
 C2009 C 0.00636 1.15836 1.07090
 C2010 C 0.00732 1.13862 1.06230
 C2011 C 0.00766 1.11530 1.05267
 C2012 C 0.00725 1.09534 1.04455
 C2013 C 0.50610 0.65835 0.57304
 C2014 C 0.50680 0.63865 0.56434
 C2015 C 0.50684 0.61539 0.55455
 C2016 C 0.50624 0.59551 0.54629
 C2017 C -0.00801 0.65255 0.42715
 C2018 C -0.00933 0.63306 0.43626
 C2019 C -0.01047 0.60995 0.44636
 C2020 C -0.01088 0.59012 0.45479
 C2021 C 0.49210 1.15379 -0.07188
 C2022 C 0.49062 1.13441 -0.06258
 C2023 C 0.48940 1.11141 -0.05228
 C2024 C 0.48900 1.09164 -0.04372
 C2025 C 0.50830 0.34096 -0.06983
 C2026 C 0.50975 0.36035 -0.06056
 C2027 C 0.51054 0.38332 -0.05015
 C2028 C 0.51039 0.40301 -0.04144
 C2029 C 0.00763 -0.15985 0.43078
 C2030 C 0.00923 -0.14045 0.44003
 C2031 C 0.01020 -0.11745 0.45037
 C2032 C 0.01021 -0.09772 0.45902
 C2033 C 0.49844 -0.15372 0.56934
 C2034 C 0.49771 -0.13447 0.55969
 C2035 C 0.49705 -0.11156 0.54916
 C2036 C 0.49678 -0.09182 0.54052
 C2037 C -0.00210 0.34552 1.06919
 C2038 C -0.00275 0.36486 1.05969
 C2039 C -0.00331 0.38787 1.04934
 C2040 C -0.00347 0.40769 1.04088
 C2041 C 0.75831 0.32174 0.09237
 C2042 C 0.75894 0.31249 0.11184
 C2043 C 0.75921 0.30230 0.13493
 C2044 C 0.75889 0.29381 0.15473
 C2045 C 0.25862 0.82068 0.59324
 C2046 C 0.25928 0.81149 0.61272
 C2047 C 0.25961 0.80135 0.63582
 C2048 C 0.25937 0.79290 0.65564
 C2049 C 0.74629 0.67977 0.59460
 C2050 C 0.74589 0.68914 0.61397
 C2051 C 0.74561 0.69938 0.63699
 C2052 C 0.74565 0.70777 0.65681
 C2053 C 0.24581 0.17981 0.09263
 C2054 C 0.24528 0.18921 0.11200
 C2055 C 0.24487 0.19941 0.13504
 C2056 C 0.24481 0.20772 0.15489
 C2057 C 0.25310 0.18140 0.90688
 C2058 C 0.25432 0.19036 0.88731
 C2059 C 0.25517 0.20037 0.86417
 C2060 C 0.25537 0.20872 0.84430
 C2061 C 0.75340 0.68096 0.40741
 C2062 C 0.75473 0.69018 0.38798
 C2063 C 0.75569 0.70049 0.36498
 C2064 C 0.75597 0.70907 0.34522
 C2065 C 0.24643 0.81944 0.40524
 C2066 C 0.24494 0.81052 0.38568
 C2067 C 0.24381 0.80058 0.36253
 C2068 C 0.24337 0.79227 0.34266
 C2069 C 0.74707 0.31871 0.90620
 C2070 C 0.74577 0.30971 0.88666
 C2071 C 0.74485 0.29968 0.86352
 C2072 C 0.74457 0.29132 0.84366
 C2073 C 0.82027 0.40727 0.24104
 C2074 C 0.81106 0.38781 0.24022
 C2075 C 0.80091 0.36472 0.23975
 C2076 C 0.79249 0.34488 0.23989
 C2077 C 0.32174 0.90633 0.74209
 C2078 C 0.31265 0.88680 0.74154
 C2079 C 0.30260 0.86366 0.74132
 C2080 C 0.29419 0.84383 0.74161
 C2081 C 0.17891 0.90663 0.25353
 C2082 C 0.18831 0.88725 0.25398
 C2083 C 0.19855 0.86422 0.25432
 C2084 C 0.20692 0.84438 0.25433
 C2085 C 0.68046 0.40596 0.75428
 C2086 C 0.68985 0.38659 0.75476
 C2087 C 0.70010 0.36358 0.75514
 C2088 C 0.70849 0.34375 0.75517
 C2089 C 0.68075 0.59334 0.74703
 C2090 C 0.68992 0.61280 0.74583
 C2091 C 0.70021 0.63583 0.74500
 C2092 C 0.70882 0.65558 0.74480
 C2093 C 0.18111 0.09233 0.24568
 C2094 C 0.19013 0.11186 0.24430
 C2095 C 0.20023 0.13497 0.24330
 C2096 C 0.20865 0.15481 0.24300
 C2097 C 0.31909 0.09432 0.75350
 C2098 C 0.31000 0.11381 0.75484
 C2099 C 0.29989 0.13691 0.75575
 C2100 C 0.29149 0.15675 0.75598
 C2101 C 0.81936 0.59517 0.25377
 C2102 C 0.81040 0.61471 0.25518
 C2103 C 0.80041 0.63786 0.25621
 C2104 C 0.79209 0.65773 0.25656
 C2105 C 0.90599 0.25817 0.17740
 C2106 C 0.88647 0.25879 0.18648
 C2107 C 0.86335 0.25910 0.19653
 C2108 C 0.84352 0.25887 0.20493
 C2109 C 0.40693 0.75892 0.67940
 C2110 C 0.38739 0.75950 0.68846
 C2111 C 0.36425 0.75970 0.69846
 C2112 C 0.34441 0.75933 0.70683
 C2113 C 0.40592 0.24629 0.81943
 C2114 C 0.38651 0.24580 0.81012
 C2115 C 0.36346 0.24538 0.79993
 C2116 C 0.34362 0.24527 0.79156
 C2117 C 0.90650 0.74644 0.32111
 C2118 C 0.88713 0.74608 0.31169
 C2119 C 0.86412 0.74583 0.30138
 C2120 C 0.84431 0.74586 0.29293
 C2121 C 0.09208 0.75371 0.31861
 C2122 C 0.11156 0.75506 0.30949
 C2123 C 0.13461 0.75603 0.29929
 C2124 C 0.15440 0.75631 0.29079
 C2125 C 0.59363 0.25330 0.81915
 C2126 C 0.61317 0.25452 0.81016
 C2127 C 0.63628 0.25537 0.80009
 C2128 C 0.65612 0.25557 0.79170
 C2129 C 0.59507 0.74719 0.68131
 C2130 C 0.61461 0.74585 0.69029
 C2131 C 0.63775 0.74488 0.70032
 C2132 C 0.65760 0.74455 0.70869
 C2133 C 0.09401 0.24643 0.17978
 C2134 C 0.11353 0.24501 0.18879
 C2135 C 0.13666 0.24398 0.19882
 C2136 C 0.15652 0.24365 0.20718
 C2137 C -0.06956 0.99879 0.84601
 C2138 C -0.06070 0.99711 0.86559
 C2139 C -0.05101 0.99546 0.88884
 C2140 C -0.04303 0.99458 0.90884
 C2141 C 0.42824 0.49959 0.34747
 C2142 C 0.43720 0.49800 0.36701
 C2143 C 0.44703 0.49640 0.39019
 C2144 C 0.45516 0.49551 0.41013
 C2145 C 0.57281 0.00658 0.34165
 C2146 C 0.56372 0.00762 0.36117
 C2147 C 0.55355 0.00888 0.38424
 C2148 C 0.54505 0.00951 0.40404
 C2149 C 0.07193 0.50505 0.84191
 C2150 C 0.06305 0.50621 0.86152
 C2151 C 0.05313 0.50762 0.88469
 C2152 C 0.04484 0.50841 0.90457
 C2153 C 0.06385 0.49666 0.65515
 C2154 C 0.05385 0.49448 0.63618
 C2155 C 0.04314 0.49233 0.61343
 C2156 C 0.03469 0.49116 0.59364
 C2157 C 0.56467 0.99754 0.15610
 C2158 C 0.55464 0.99539 0.13714
 C2159 C 0.54391 0.99330 0.11440
 C2160 C 0.53548 0.99219 0.09460
 C2161 C 0.43163 0.49914 0.15989
 C2162 C 0.44123 0.49934 0.14058
 C2163 C 0.45176 0.49993 0.11764
 C2164 C 0.46028 0.50038 0.09784
 C2165 C -0.06786 -0.00087 0.65940
 C2166 C -0.05850 -0.00070 0.63998
 C2167 C -0.04822 -0.00007 0.61691
 C2168 C -0.03984 0.00044 0.59705
 C2169 C -0.15934 0.93227 1.00070
 C2170 C -0.13993 0.94166 1.00032
 C2171 C -0.11687 0.95192 0.99950
 C2172 C -0.09699 0.96025 0.99890
 C2173 C 0.33978 0.43171 0.50086
 C2174 C 0.35909 0.44131 0.50074
 C2175 C 0.38205 0.45182 0.50022
 C2176 C 0.40185 0.46035 0.49982
 C2177 C 0.34445 0.56418 0.00313
 C2178 C 0.36349 0.55434 0.00527
 C2179 C 0.38632 0.54381 0.00738
 C2180 C 0.40616 0.53550 0.00853
 C2181 C -0.15526 0.06507 0.50259
 C2182 C -0.13634 0.05499 0.50471
 C2183 C -0.11365 0.04416 0.50679
 C2184 C -0.09391 0.03561 0.50791
 C2185 C 0.65854 0.07218 0.49397
 C2186 C 0.63905 0.06305 0.49276
 C2187 C 0.61601 0.05284 0.49133
 C2188 C 0.59621 0.04434 0.49056
 C2189 C 0.15872 0.57182 0.99436
 C2190 C 0.13915 0.56285 0.99322
 C2191 C 0.11601 0.55283 0.99187
 C2192 C 0.09616 0.54445 0.99119
 C2193 C 0.15224 0.42877 0.49991
 C2194 C 0.13270 0.43766 0.50163
 C2195 C 0.10949 0.44737 0.50335
 C2196 C 0.08951 0.45535 0.50430
 C2197 C 0.65279 0.92991 0.00114
 C2198 C 0.63325 0.93880 0.00284
 C2199 C 0.61005 0.94853 0.00456
 C2200 C 0.59009 0.95656 0.00551
 C2201 C -0.00224 0.84383 0.93538
 C2202 C -0.00443 0.86290 0.94519
 C2203 C -0.00656 0.88575 0.95568
 C2204 C -0.00770 0.90561 0.96397
 C2205 C 0.49646 0.34494 0.43512
 C2206 C 0.49429 0.36388 0.44518
 C2207 C 0.49217 0.38659 0.45595
 C2208 C 0.49102 0.40636 0.46444
 C2209 C -0.00115 0.33983 0.56865
 C2210 C -0.00105 0.35917 0.55906
 C2211 C -0.00054 0.38213 0.54852
 C2212 C -0.00014 0.40192 0.53993
 C2213 C 0.49879 0.84075 0.06880
 C2214 C 0.49901 0.86012 0.05930
 C2215 C 0.49966 0.88314 0.04889
 C2216 C 0.50015 0.90298 0.04043
 C2217 C 0.49914 0.65290 0.07135
 C2218 C 0.49757 0.63337 0.06238
 C2219 C 0.49600 0.61018 0.05255
 C2220 C 0.49515 0.59023 0.04444
 C2221 C -0.00056 0.15309 0.57010
 C2222 C -0.00217 0.13353 0.56117
 C2223 C -0.00376 0.11030 0.55143
 C2224 C -0.00463 0.09031 0.54343
 C2225 C 0.50513 0.15852 0.42735
 C2226 C 0.50633 0.13896 0.43636
 C2227 C 0.50777 0.11585 0.44643
 C2228 C 0.50858 0.09602 0.45484
 C2229 C 0.00650 0.65857 0.92911
 C2230 C 0.00758 0.63903 0.93818
 C2231 C 0.00891 0.61592 0.94829
 C2232 C 0.00963 0.59607 0.95670
 C2233 C 0.25093 0.68129 0.90617
 C2234 C 0.24880 0.69088 0.88699
 C2235 C 0.24663 0.70125 0.86408
 C2236 C 0.24539 0.70956 0.84424
 C2237 C 0.75129 0.18258 0.40557
 C2238 C 0.74908 0.19209 0.38635
 C2239 C 0.74680 0.20237 0.36340
 C2240 C 0.74545 0.21062 0.34353
 C2241 C 0.25374 0.31803 0.40594
 C2242 C 0.25586 0.30855 0.38670
 C2243 C 0.25777 0.29824 0.36375
 C2244 C 0.25860 0.28985 0.34393
 C2245 C 0.75428 0.81865 0.90751
 C2246 C 0.75654 0.80916 0.88830
 C2247 C 0.75861 0.79884 0.86538
 C2248 C 0.75955 0.79044 0.84556
 C2249 C 0.74439 0.82246 0.09506
 C2250 C 0.74348 0.81344 0.11463
 C2251 C 0.74238 0.80336 0.13776
 C2252 C 0.74189 0.79492 0.15759
 C2253 C 0.24349 0.32073 0.59351
 C2254 C 0.24257 0.31169 0.61307
 C2255 C 0.24148 0.30161 0.63620
 C2256 C 0.24101 0.29322 0.65607
 C2257 C 0.75530 0.17905 0.59287
 C2258 C 0.75591 0.18829 0.61234
 C2259 C 0.75671 0.19857 0.63539
 C2260 C 0.75706 0.20706 0.65520
 C2261 C 0.25473 0.67818 0.09283
 C2262 C 0.25536 0.68769 0.11216
 C2263 C 0.25613 0.69828 0.13506
 C2264 C 0.25637 0.70703 0.15475
 C2265 C 0.18139 0.59378 0.74849
 C2266 C 0.19099 0.61296 0.75070
 C2267 C 0.20140 0.63584 0.75299
 C2268 C 0.20979 0.65565 0.75434
 C2269 C 0.68139 0.09404 0.24844
 C2270 C 0.69096 0.11325 0.25048
 C2271 C 0.70128 0.13619 0.25259
 C2272 C 0.70954 0.15606 0.25379
 C2273 C 0.82015 0.09323 0.74592
 C2274 C 0.81073 0.11249 0.74380
 C2275 C 0.80045 0.13546 0.74191
 C2276 C 0.79204 0.15529 0.74114
 C2277 C 0.31766 0.59345 0.24579
 C2278 C 0.30819 0.61270 0.24366
 C2279 C 0.29788 0.63565 0.24172
 C2280 C 0.28947 0.65547 0.24085
 C2281 C 0.32057 0.40572 0.25484
 C2282 C 0.31155 0.38614 0.25556
 C2283 C 0.30151 0.36297 0.25650
 C2284 C 0.29316 0.34309 0.25692
 C2285 C 0.82272 0.90562 0.75542
 C2286 C 0.81357 0.88610 0.75640
 C2287 C 0.80337 0.86302 0.75760
 C2288 C 0.79489 0.84319 0.75823
 C2289 C 0.67945 0.90823 0.24571
 C2290 C 0.68889 0.88886 0.24510
 C2291 C 0.69939 0.86591 0.24429
 C2292 C 0.70804 0.84617 0.24393
 C2293 C 0.17857 0.40702 0.74409
 C2294 C 0.18802 0.38766 0.74339
 C2295 C 0.19854 0.36473 0.74253
 C2296 C 0.20720 0.34500 0.74219
 C2297 C 0.09396 0.75098 0.81830
 C2298 C 0.11306 0.74883 0.80857
 C2299 C 0.13590 0.74662 0.79810
 C2300 C 0.15571 0.74535 0.78974
 C2301 C 0.59365 0.25174 0.31762
 C2302 C 0.61283 0.24953 0.30808
 C2303 C 0.63572 0.24724 0.29773
 C2304 C 0.65553 0.24590 0.28939
 C2305 C 0.59341 0.75421 0.18181
 C2306 C 0.61272 0.75634 0.19115
 C2307 C 0.63575 0.75827 0.20131
 C2308 C 0.65562 0.75915 0.20962
 C2309 C 0.09289 0.25342 0.67995
 C2310 C 0.11216 0.25537 0.68944
 C2311 C 0.13511 0.25714 0.69978
 C2312 C 0.15494 0.25792 0.70821
 C2313 C 0.90659 0.24435 0.67937
 C2314 C 0.88714 0.24339 0.68862
 C2315 C 0.86410 0.24223 0.69890
 C2316 C 0.84429 0.24165 0.70740
 C2317 C 0.40525 0.74504 0.17901
 C2318 C 0.38562 0.74425 0.18790
 C2319 C 0.36241 0.74322 0.19780
 C2320 C 0.34250 0.74271 0.20607
 C2321 C 0.40670 0.25565 0.32058
 C2322 C 0.38730 0.25620 0.31120
 C2323 C 0.36433 0.25688 0.30075
 C2324 C 0.34459 0.25705 0.29210
 C2325 C 0.90752 0.75493 0.82284
 C2326 C 0.88816 0.75564 0.81340
 C2327 C 0.86524 0.75650 0.80284
 C2328 C 0.84554 0.75683 0.79410
   
