data_POSCAR
  _audit_creation_date              2014-09-24
  _audit_creation_method            'ToBaCCo'
  _symmetry_space_group_name_H-M    'P1'
  _symmetry_Int_Tables_number       1
  _symmetry_cell_setting            triclinic
  loop_
  _symmetry_equiv_pos_as_xyz
 x,y,z
_cell_length_a 36.1060
_cell_length_b 36.1415
_cell_length_c 36.1312
_cell_angle_alpha 90.077800
_cell_angle_beta 89.996000
_cell_angle_gamma 90.002800
loop_
  _atom_site_label
  _atom_site_type_symbol
  _atom_site_fract_x
  _atom_site_fract_y
  _atom_site_fract_z
C1 C 0.24703 0.91965 -0.03549
 C2 C 0.24566 0.90143 -0.00110
 C3 C 0.24757 0.92031 0.03275
 C4 C 0.25066 0.95931 0.03245
 C5 C 0.25171 0.97875 -0.00171
 C6 C 0.24963 0.95898 -0.03573
 C7 C 0.25028 0.97927 -0.06891
 C8 C 0.25307 1.01761 -0.06896
 C9 C 0.25548 1.03784 -0.03584
 C10 C 0.25496 1.01815 -0.00175
 C11 C 0.25286 0.97948 0.06554
 C12 C 0.25639 1.01753 0.06552
 C13 C 0.25736 1.03770 0.03239
 C14 C 0.26063 1.07678 0.03248
 C15 C 0.26209 1.09523 -0.00154
 C16 C 0.25847 1.07708 -0.03569
 H17 H 0.24854 0.96604 -0.09556
 H18 H 0.25355 1.03095 -0.09561
 H19 H 0.25200 0.96642 0.09225
 H20 H 0.25843 1.03057 0.09221
 H21 H 0.24323 0.87184 -0.00043
 H22 H 0.26573 1.12461 -0.00135
 C23 C 0.74632 0.41870 0.46394
 C24 C 0.74493 0.40011 0.49804
 C25 C 0.74704 0.41877 0.53204
 C26 C 0.75041 0.45776 0.53201
 C27 C 0.75169 0.47732 0.49794
 C28 C 0.74930 0.45783 0.46386
 C29 C 0.75002 0.47812 0.43070
 C30 C 0.75329 0.51643 0.43079
 C31 C 0.75623 0.53633 0.46404
 C32 C 0.75549 0.51656 0.49801
 C33 C 0.75267 0.47783 0.56520
 C34 C 0.75668 0.51587 0.56526
 C35 C 0.75818 0.53593 0.53214
 C36 C 0.76202 0.57483 0.53226
 C37 C 0.76323 0.59355 0.49845
 C38 C 0.75973 0.57539 0.46438
 H39 H 0.74793 0.46489 0.40407
 H40 H 0.75364 0.53005 0.40427
 H41 H 0.75143 0.46473 0.59187
 H42 H 0.75856 0.52903 0.59193
 H43 H 0.74238 0.37050 0.49819
 H44 H 0.76619 0.62305 0.49877
 C45 C 0.75110 0.96382 0.91934
 C46 C 0.75095 0.99778 0.90051
 C47 C 0.74862 1.03182 0.91900
 C48 C 0.74650 1.03202 0.95809
 C49 C 0.74705 0.99813 0.97793
 C50 C 0.74912 0.96396 0.95854
 C51 C 0.74901 0.93093 0.97899
 C52 C 0.74724 0.93123 1.01738
 C53 C 0.74593 0.96459 1.03727
 C54 C 0.74555 0.99847 1.01736
 C55 C 0.74366 1.06526 0.97795
 C56 C 0.74208 1.06560 1.01617
 C57 C 0.74379 1.03273 1.03670
 C58 C 0.74366 1.03311 1.07593
 C59 C 0.74326 0.99923 1.09472
 C60 C 0.74488 0.96509 1.07645
 H61 H 0.75025 0.90422 0.96580
 H62 H 0.74685 0.90476 1.03107
 H63 H 0.74251 1.09178 0.96455
 H64 H 0.73923 1.09230 1.02905
 H65 H 0.75255 0.99780 0.87083
 H66 H 0.74133 0.99934 1.12432
 C67 C 0.24605 0.46497 0.57662
 C68 C 0.24513 0.49913 0.59501
 C69 C 0.24503 0.53295 0.57623
 C70 C 0.24463 0.53275 0.53713
 C71 C 0.24583 0.49861 0.51759
 C72 C 0.24630 0.46462 0.53735
 C73 C 0.24694 0.43137 0.51722
 C74 C 0.24801 0.43130 0.47874
 C75 C 0.24807 0.46447 0.45847
 C76 C 0.24661 0.49854 0.47813
 C77 C 0.24300 0.56580 0.51699
 C78 C 0.24387 0.56575 0.47873
 C79 C 0.24601 0.53261 0.45856
 C80 C 0.24740 0.53271 0.41943
 C81 C 0.24914 0.49876 0.40065
 C82 C 0.24942 0.46462 0.41920
 H83 H 0.24660 0.40484 0.53082
 H84 H 0.24873 0.40469 0.46529
 H85 H 0.24083 0.59239 0.53029
 H86 H 0.24279 0.59237 0.46554
 H87 H 0.24407 0.49951 0.62466
 H88 H 0.25019 0.49901 0.37095
 C89 C 0.91875 0.24887 0.03455
 C90 C 0.89997 0.24905 0.00051
 C91 C 0.91846 0.25125 -0.03363
 C92 C 0.95774 0.25321 -0.03356
 C93 C 0.97752 0.25255 0.00050
 C94 C 0.95797 0.25071 0.03457
 C95 C 0.97829 0.25098 0.06771
 C96 C 1.01672 0.25252 0.06767
 C97 C 1.03693 0.25331 0.03446
 C98 C 1.01706 0.25373 0.00043
 C99 C 0.97793 0.25608 -0.06662
 C100 C 1.01613 0.25735 -0.06669
 C101 C 1.03651 0.25532 -0.03374
 C102 C 1.07573 0.25514 -0.03404
 C103 C 1.09452 0.25557 -0.00014
 C104 C 1.07632 0.25396 0.03415
 H105 H 0.96495 0.25012 0.09436
 H106 H 1.03012 0.25322 0.09429
 H107 H 0.96488 0.25751 -0.09327
 H108 H 1.02911 0.26030 -0.09331
 H109 H 0.87028 0.24763 0.00070
 H110 H 1.12412 0.25776 -0.00055
 C111 C 0.57704 0.75160 0.53500
 C112 C 0.59511 0.75233 0.50069
 C113 C 0.57597 0.75261 0.46706
 C114 C 0.53686 0.75330 0.46764
 C115 C 0.51766 0.75224 0.50197
 C116 C 0.53778 0.75168 0.53576
 C117 C 0.51800 0.75134 0.56921
 C118 C 0.47950 0.75047 0.56966
 C119 C 0.45887 0.75039 0.53668
 C120 C 0.47819 0.75173 0.50243
 C121 C 0.51639 0.75515 0.43478
 C122 C 0.47812 0.75459 0.43522
 C123 C 0.45827 0.75250 0.46855
 C124 C 0.41912 0.75134 0.46882
 C125 C 0.40065 0.74962 0.50292
 C126 C 0.41958 0.74918 0.53691
 H127 H 0.53186 0.75179 0.59563
 H128 H 0.46634 0.74994 0.59642
 H129 H 0.52942 0.75728 0.40807
 H130 H 0.46471 0.75587 0.40870
 H131 H 0.62479 0.75324 0.50008
 H132 H 0.37091 0.74874 0.50291
 C133 C 0.03215 0.75181 0.08082
 C134 C -0.00181 0.75393 0.09950
 C135 C -0.03613 0.75297 0.08101
 C136 C -0.03614 0.75077 0.04164
 C137 C -0.00200 0.74844 0.02211
 C138 C 0.03206 0.74869 0.04181
 C139 C 0.06525 0.74560 0.02192
 C140 C 0.06544 0.74265 -0.01617
 C141 C 0.03247 0.74333 -0.03666
 C142 C -0.00180 0.74580 -0.01735
 C143 C -0.06921 0.75078 0.02108
 C144 C -0.06902 0.74841 -0.01730
 C145 C -0.03576 0.74586 -0.03731
 C146 C -0.03536 0.74328 -0.07660
 C147 C -0.00104 0.74050 -0.09460
 C148 C 0.03285 0.74159 -0.07583
 H149 H 0.09188 0.74525 0.03520
 H150 H 0.09216 0.73961 -0.02900
 H151 H -0.09593 0.75275 0.03412
 H152 H -0.09560 0.74852 -0.03083
 H153 H -0.00127 0.75619 0.12912
 H154 H -0.00058 0.73754 -0.12408
 C155 C 0.53113 0.24557 0.42366
 C156 C 0.49715 0.24603 0.40510
 C157 C 0.46318 0.24804 0.42372
 C158 C 0.46317 0.24821 0.46295
 C159 C 0.49736 0.24790 0.48249
 C160 C 0.53134 0.24637 0.46275
 C161 C 0.56463 0.24558 0.48268
 C162 C 0.56491 0.24724 0.52091
 C163 C 0.53190 0.24918 0.54129
 C164 C 0.49763 0.24913 0.52192
 C165 C 0.43007 0.24854 0.48327
 C166 C 0.43032 0.24971 0.52172
 C167 C 0.46370 0.25029 0.54177
 C168 C 0.46413 0.25177 0.58100
 C169 C 0.49843 0.25228 0.59939
 C170 C 0.53231 0.25096 0.58041
 H171 H 0.59117 0.24361 0.46927
 H172 H 0.59169 0.24684 0.53391
 H173 H 0.40340 0.24761 0.46987
 H174 H 0.40376 0.25014 0.53525
 H175 H 0.49718 0.24435 0.37546
 H176 H 0.49880 0.25355 0.62909
 C177 C 0.92489 -0.03192 0.26133
 C178 C 0.90602 0.00182 0.26221
 C179 C 0.92414 0.03590 0.25884
 C180 C 0.96328 0.03635 0.25590
 C181 C 0.98320 0.00246 0.25549
 C182 C 0.96387 -0.03169 0.25815
 C183 C 0.98407 -0.06475 0.25731
 C184 C 1.02213 -0.06463 0.25351
 C185 C 1.04213 -0.03144 0.25095
 C186 C 1.02254 0.00262 0.25202
 C187 C 0.98310 0.06961 0.25321
 C188 C 1.02147 0.06982 0.25026
 C189 C 1.04204 0.03674 0.24966
 C190 C 1.08137 0.03667 0.24681
 C191 C 1.09981 0.00238 0.24534
 C192 C 1.08110 -0.03152 0.24746
 H193 H 0.97099 -0.09141 0.25956
 H194 H 1.03527 -0.09129 0.25270
 H195 H 0.96938 0.09610 0.25351
 H196 H 1.03447 0.09653 0.24827
 H197 H 0.87647 0.00145 0.26496
 H198 H 1.12942 0.00183 0.24267
 C199 C 0.42441 0.46772 0.76184
 C200 C 0.40589 0.50169 0.76288
 C201 C 0.42435 0.53565 0.75971
 C202 C 0.46351 0.53561 0.75658
 C203 C 0.48305 0.50145 0.75592
 C204 C 0.46339 0.46750 0.75844
 C205 C 0.48327 0.43421 0.75725
 C206 C 0.52137 0.43390 0.75344
 C207 C 0.54170 0.46689 0.75113
 C208 C 0.52238 0.50115 0.75240
 C209 C 0.48374 0.56866 0.75396
 C210 C 0.52214 0.56838 0.75098
 C211 C 0.54219 0.53503 0.75024
 C212 C 0.58139 0.53456 0.74744
 C213 C 0.59968 0.50029 0.74586
 C214 C 0.58074 0.46646 0.74771
 H215 H 0.46991 0.40767 0.75922
 H216 H 0.53433 0.40713 0.75243
 H217 H 0.47030 0.59530 0.75433
 H218 H 0.53565 0.59488 0.74911
 H219 H 0.37633 0.50159 0.76559
 H220 H 0.62932 0.49988 0.74336
 C221 C 1.03636 0.92380 0.74415
 C222 C 1.00195 0.90579 0.74256
 C223 C 0.96825 0.92477 0.74314
 C224 C 0.96861 0.96381 0.74358
 C225 C 1.00279 0.98316 0.74581
 C226 C 1.03676 0.96315 0.74626
 C227 C 1.06997 0.98318 0.74885
 C228 C 1.07007 1.02155 0.75096
 C229 C 1.03699 1.04214 0.75046
 C230 C 1.00287 1.02266 0.74779
 C231 C 0.93561 0.98404 0.74191
 C232 C 0.93565 1.02220 0.74382
 C233 C 0.96874 1.04239 0.74710
 C234 C 0.96859 1.08160 0.74956
 C235 C 1.00273 1.10008 0.75230
 C236 C 1.03700 1.08147 0.75253
 H237 H 1.09653 0.96963 0.74941
 H238 H 1.09679 1.03457 0.75307
 H239 H 0.90903 0.97085 0.73883
 H240 H 0.90895 1.03524 0.74261
 H241 H 1.00109 0.87620 0.74094
 H242 H 1.00255 1.12970 0.75415
 C243 C 0.53457 0.42385 0.23910
 C244 C 0.50031 0.40585 0.23679
 C245 C 0.46661 0.42478 0.23874
 C246 C 0.46706 0.46375 0.24184
 C247 C 0.50139 0.48291 0.24377
 C248 C 0.53523 0.46290 0.24260
 C249 C 0.56867 0.48255 0.24518
 C250 C 0.56907 0.52086 0.24860
 C251 C 0.53606 0.54142 0.24953
 C252 C 0.50179 0.52219 0.24723
 C253 C 0.43409 0.48409 0.24331
 C254 C 0.43448 0.52221 0.24647
 C255 C 0.46786 0.54203 0.24833
 C256 C 0.46814 0.58107 0.25118
 C257 C 0.50228 0.59945 0.25350
 C258 C 0.53630 0.58057 0.25264
 H259 H 0.59512 0.46874 0.24458
 H260 H 0.59583 0.53389 0.25052
 H261 H 0.40730 0.47108 0.24193
 H262 H 0.40789 0.53553 0.24750
 H263 H 0.49980 0.37632 0.23421
 H264 H 0.50230 0.62909 0.25583
 O265 O 0.25645 0.15462 0.19197
 O266 O 0.29739 0.14577 0.24513
 O267 O 0.15829 0.19682 0.24447
 O268 O 0.14483 0.24475 0.28290
 O269 O 0.20287 0.24944 0.14759
 O270 O 0.25086 0.29463 0.14004
 O271 O 0.25382 0.30330 0.33946
 O272 O 0.20977 0.25320 0.34842
 O273 O 0.34837 0.25307 0.29571
 O274 O 0.35903 0.20854 0.24254
 O275 O 0.30504 0.34611 0.24418
 O276 O 0.25059 0.35598 0.20146
 O277 O 0.25432 0.34667 0.29388
 O278 O 0.21338 0.35836 0.24277
 O279 O 0.34905 0.30103 0.24426
 O280 O 0.36139 0.25344 0.20470
 O281 O 0.30419 0.25222 0.34064
 O282 O 0.25501 0.21228 0.35310
 O283 O 0.25607 0.19992 0.14823
 O284 O 0.29604 0.25201 0.13811
 O285 O 0.15764 0.24956 0.19167
 O286 O 0.14758 0.29135 0.24294
 O287 O 0.20434 0.15373 0.24344
 O288 O 0.25430 0.14323 0.28401
 Zr289 Zr 0.25343 0.18434 0.24243
 O290 O 0.28676 0.21649 0.27775
 Zr291 Zr 0.18703 0.24798 0.24237
 O292 O 0.21850 0.28360 0.27683
 Zr293 Zr 0.25256 0.24963 0.17763
 O294 O 0.28706 0.28383 0.20942
 Zr295 Zr 0.25426 0.25236 0.31033
 O296 O 0.22019 0.21624 0.27855
 Zr297 Zr 0.31937 0.25170 0.24535
 O298 O 0.28871 0.21699 0.20968
 Zr299 Zr 0.25434 0.31650 0.24452
 O300 O 0.21923 0.28441 0.21016
 O301 O 0.21865 0.21450 0.20804
 O302 O 0.28902 0.28683 0.27976
 C303 C 0.25752 0.16599 0.15826
 C304 C 0.17018 0.16319 0.24462
 C305 C 0.16882 0.25023 0.15785
 C306 C 0.25391 0.33700 0.32794
 C307 C 0.33802 0.25255 0.32969
 C308 C 0.33887 0.33492 0.24379
 H309 H 0.30208 0.19989 0.29314
 H310 H 0.30270 0.29866 0.19256
 H311 H 0.20328 0.19832 0.19212
 H312 H 0.20170 0.29885 0.29213
 H313 H 0.19263 0.23307 0.34110
 H314 H 0.15169 0.26163 0.30336
 H315 H 0.34993 0.24447 0.18151
 H316 H 0.28597 0.24587 0.11327
 H317 H 0.26825 0.19030 0.34362
 H318 H 0.23702 0.15156 0.30361
 H319 H 0.27191 0.35215 0.18469
 H320 H 0.23073 0.31139 0.14813
 H321 H 0.31581 0.15342 0.22634
 H322 H 0.35650 0.19314 0.26501
 H323 H 0.15618 0.31010 0.22494
 H324 H 0.19344 0.35124 0.26013
 O325 O 0.75066 0.85015 0.20412
 O326 O 0.70921 0.86052 0.25503
 O327 O 0.84681 0.80655 0.25775
 O328 O 0.85977 0.75792 0.29453
 O329 O 0.80350 0.75520 0.15843
 O330 O 0.75492 0.71229 0.14905
 O331 O 0.75137 0.70341 0.35005
 O332 O 0.79270 0.75264 0.36055
 O333 O 0.65444 0.75428 0.30536
 O334 O 0.64188 0.79345 0.25592
 O335 O 0.69880 0.65867 0.25572
 O336 O 0.75218 0.64750 0.21344
 O337 O 0.75005 0.65835 0.30601
 O338 O 0.79146 0.64705 0.25284
 O339 O 0.65528 0.70413 0.25673
 O340 O 0.65093 0.75711 0.20772
 O341 O 0.69962 0.75094 0.34928
 O342 O 0.74921 0.79436 0.36257
 O343 O 0.75088 0.80631 0.15875
 O344 O 0.70759 0.75428 0.15081
 O345 O 0.84697 0.75524 0.20424
 O346 O 0.85612 0.71206 0.25443
 O347 O 0.80132 0.85022 0.25740
 O348 O 0.74962 0.86092 0.29629
 Zr349 Zr 0.75194 0.82051 0.25400
 O350 O 0.71757 0.78883 0.28809
 Zr351 Zr 0.81736 0.75605 0.25412
 O352 O 0.78549 0.72097 0.28812
 Zr353 Zr 0.75287 0.75588 0.18826
 O354 O 0.71787 0.72117 0.22003
 Zr355 Zr 0.74985 0.75319 0.32062
 O356 O 0.78478 0.78851 0.28992
 Zr357 Zr 0.68499 0.75368 0.25545
 O358 O 0.71671 0.78857 0.22075
 Zr359 Zr 0.74971 0.68807 0.25569
 O360 O 0.78502 0.72021 0.22130
 O361 O 0.78675 0.79027 0.21968
 O362 O 0.71511 0.71863 0.29012
 C363 C 0.74983 0.84002 0.17008
 C364 C 0.83530 0.84024 0.25882
 C365 C 0.83726 0.75468 0.17010
 C366 C 0.75125 0.66945 0.33978
 C367 C 0.66565 0.75249 0.33911
 C368 C 0.66504 0.67013 0.25627
 H369 H 0.70211 0.80553 0.30327
 H370 H 0.70219 0.70624 0.20325
 H371 H 0.80267 0.80645 0.20433
 H372 H 0.80222 0.70588 0.30361
 H373 H 0.81129 0.77116 0.35262
 H374 H 0.85204 0.74201 0.31539
 H375 H 0.62781 0.74304 0.21228
 H376 H 0.71661 0.76113 0.12579
 H377 H 0.72966 0.81256 0.35663
 H378 H 0.76522 0.85160 0.31680
 H379 H 0.73240 0.65304 0.19534
 H380 H 0.77205 0.69337 0.15900
 H381 H 0.69055 0.85261 0.23655
 H382 H 0.65076 0.81511 0.27008
 H383 H 0.84785 0.69397 0.23556
 H384 H 0.81016 0.65291 0.27196
 O385 O 0.75080 0.15174 0.79691
 O386 O 0.71796 0.13718 0.74745
 O387 O 0.84903 0.20196 0.75053
 O388 O 0.86120 0.25181 0.71378
 O389 O 0.79817 0.24888 0.84727
 O390 O 0.75277 0.28500 0.85956
 O391 O 0.74828 0.29718 0.65237
 O392 O 0.78610 0.24908 0.63835
 O393 O 0.65317 0.25126 0.70150
 O394 O 0.64331 0.20954 0.74659
 O395 O 0.70233 0.34621 0.74637
 O396 O 0.74803 0.35612 0.78875
 O397 O 0.74851 0.34332 0.69529
 O398 O 0.79696 0.35098 0.74467
 O399 O 0.65653 0.30281 0.74768
 O400 O 0.64939 0.25219 0.79616
 O401 O 0.69636 0.24934 0.65557
 O402 O 0.75273 0.20335 0.64655
 O403 O 0.74918 0.19456 0.84314
 O404 O 0.70233 0.24804 0.84905
 O405 O 0.84457 0.25151 0.80454
 O406 O 0.85342 0.29574 0.75050
 O407 O 0.80652 0.15552 0.74807
 O408 O 0.75225 0.14734 0.70244
 Zr409 Zr 0.75419 0.18301 0.74890
 O410 O 0.71688 0.21432 0.71683
 Zr411 Zr 0.81714 0.24979 0.75221
 O412 O 0.78520 0.28158 0.71519
 Zr413 Zr 0.75047 0.24654 0.81541
 O414 O 0.71820 0.28310 0.78351
 Zr415 Zr 0.74865 0.24885 0.68328
 O416 O 0.78653 0.21661 0.71456
 Zr417 Zr 0.68475 0.25089 0.74929
 O418 O 0.71636 0.21369 0.78191
 Zr419 Zr 0.75052 0.31511 0.74694
 O420 O 0.78330 0.28407 0.78437
 O421 O 0.78662 0.21383 0.78489
 O422 O 0.71504 0.28432 0.71360
 C423 C 0.74924 0.16099 0.83099
 C424 C 0.84009 0.16782 0.74874
 C425 C 0.83230 0.25091 0.83814
 C426 C 0.74802 0.33125 0.66169
 C427 C 0.66263 0.25046 0.66747
 C428 C 0.66829 0.33657 0.74678
 H429 H 0.70090 0.19747 0.70231
 H430 H 0.70317 0.29901 0.80000
 H431 H 0.80237 0.19810 0.80084
 H432 H 0.80183 0.29653 0.69937
 H433 H 0.81004 0.25797 0.64823
 H434 H 0.85243 0.23858 0.69143
 H435 H 0.62450 0.26010 0.78771
 H436 H 0.70822 0.23640 0.87318
 H437 H 0.72826 0.19104 0.64564
 H438 H 0.77555 0.15098 0.68847
 H439 H 0.76739 0.34972 0.80706
 H440 H 0.74312 0.30864 0.84978
 H441 H 0.69267 0.14750 0.74919
 H442 H 0.64985 0.19082 0.76547
 H443 H 0.84807 0.31103 0.77262
 H444 H 0.78793 0.37603 0.73806
 O445 O 0.24537 0.84136 0.80475
 O446 O 0.28739 0.85137 0.75277
 O447 O 0.14978 0.79695 0.74842
 O448 O 0.13611 0.74903 0.71233
 O449 O 0.19302 0.74454 0.84772
 O450 O 0.24305 0.70084 0.85504
 O451 O 0.24515 0.69415 0.65557
 O452 O 0.20133 0.74531 0.64739
 O453 O 0.34080 0.74498 0.69897
 O454 O 0.35070 0.78824 0.75347
 O455 O 0.29658 0.65077 0.75156
 O456 O 0.24330 0.63906 0.79226
 O457 O 0.24767 0.65046 0.70077
 O458 O 0.20499 0.63849 0.75244
 O459 O 0.34166 0.69474 0.75035
 O460 O 0.35301 0.74268 0.79107
 O461 O 0.29535 0.74413 0.65533
 O462 O 0.24846 0.78423 0.64221
 O463 O 0.24438 0.79573 0.84813
 O464 O 0.28701 0.74551 0.85744
 O465 O 0.14958 0.74541 0.80192
 O466 O 0.14043 0.70295 0.75076
 O467 O 0.19365 0.84214 0.75171
 O468 O 0.24565 0.85357 0.71246
 Zr469 Zr 0.24393 0.81217 0.75372
 O470 O 0.27807 0.78037 0.71835
 Zr471 Zr 0.17910 0.74701 0.75209
 O472 O 0.21065 0.71220 0.71772
 Zr473 Zr 0.24345 0.74627 0.81797
 O474 O 0.27870 0.71270 0.78588
 Zr475 Zr 0.24600 0.74460 0.68530
 O476 O 0.21159 0.78013 0.71688
 Zr477 Zr 0.31148 0.74477 0.74995
 O478 O 0.27968 0.77911 0.78588
 Zr479 Zr 0.24637 0.67996 0.75048
 O480 O 0.21093 0.71116 0.78497
 O481 O 0.20932 0.78097 0.78725
 O482 O 0.28099 0.70993 0.71542
 C483 C 0.24546 0.82978 0.83847
 C484 C 0.15994 0.83099 0.74896
 C485 C 0.15936 0.74404 0.83601
 C486 C 0.24636 0.66044 0.66682
 C487 C 0.32938 0.74469 0.66519
 C488 C 0.33060 0.66096 0.75149
 H489 H 0.29319 0.79720 0.70300
 H490 H 0.29434 0.69780 0.80268
 H491 H 0.19322 0.79677 0.80284
 H492 H 0.19399 0.69698 0.70223
 H493 H 0.18506 0.76623 0.65449
 H494 H 0.14430 0.73453 0.69059
 H495 H 0.34132 0.75170 0.81413
 H496 H 0.27657 0.75057 0.88238
 H497 H 0.25827 0.80738 0.65295
 H498 H 0.22797 0.84591 0.69295
 H499 H 0.26299 0.64430 0.81056
 H500 H 0.22323 0.68375 0.84687
 H501 H 0.30590 0.84306 0.77118
 H502 H 0.34710 0.80465 0.73188
 H503 H 0.14855 0.68464 0.76944
 H504 H 0.18680 0.64376 0.73267
 O505 O 0.24990 0.35016 0.70472
 O506 O 0.20781 0.36053 0.75544
 O507 O 0.34548 0.30671 0.75875
 O508 O 0.35818 0.25832 0.79607
 O509 O 0.30248 0.25480 0.65973
 O510 O 0.25377 0.21215 0.65015
 O511 O 0.24965 0.20345 0.85106
 O512 O 0.29142 0.25289 0.86139
 O513 O 0.15314 0.25469 0.80616
 O514 O 0.14024 0.29303 0.75700
 O515 O 0.19755 0.15867 0.75684
 O516 O 0.25104 0.14756 0.71451
 O517 O 0.24884 0.15831 0.80710
 O518 O 0.29021 0.14707 0.75402
 O519 O 0.15404 0.20414 0.75734
 O520 O 0.15000 0.25773 0.70838
 O521 O 0.19822 0.25140 0.85018
 O522 O 0.24742 0.29418 0.86382
 O523 O 0.25006 0.30616 0.65951
 O524 O 0.20655 0.25425 0.65171
 O525 O 0.34582 0.25510 0.70567
 O526 O 0.35496 0.21230 0.75589
 O527 O 0.30000 0.35039 0.75840
 O528 O 0.24807 0.36121 0.79689
 Zr529 Zr 0.25066 0.32064 0.75477
 O530 O 0.21628 0.28895 0.78887
 Zr531 Zr 0.31605 0.25616 0.75537
 O532 O 0.28414 0.22104 0.78928
 Zr533 Zr 0.25174 0.25581 0.68928
 O534 O 0.21668 0.22113 0.72101
 Zr535 Zr 0.24844 0.25331 0.82160
 O536 O 0.28334 0.28872 0.79095
 Zr537 Zr 0.18374 0.25373 0.75629
 O538 O 0.21549 0.28860 0.72156
 Zr539 Zr 0.24845 0.18808 0.75680
 O540 O 0.28382 0.22024 0.72250
 O541 O 0.28557 0.29026 0.72069
 O542 O 0.21374 0.21869 0.79110
 C543 C 0.24921 0.33993 0.67068
 C544 C 0.33397 0.34041 0.75979
 C545 C 0.33618 0.25430 0.67153
 C546 C 0.24976 0.16945 0.84087
 C547 C 0.16431 0.25308 0.83993
 C548 C 0.16379 0.17014 0.75708
 H549 H 0.20077 0.30569 0.80395
 H550 H 0.20103 0.20619 0.70420
 H551 H 0.30157 0.30634 0.70535
 H552 H 0.30083 0.20596 0.80484
 H553 H 0.30971 0.27179 0.85365
 H554 H 0.35057 0.24212 0.81676
 H555 H 0.12729 0.24282 0.71227
 H556 H 0.21564 0.26102 0.62669
 H557 H 0.22892 0.31316 0.85706
 H558 H 0.26369 0.35207 0.81745
 H559 H 0.23106 0.15285 0.69657
 H560 H 0.27076 0.19317 0.66021
 H561 H 0.18954 0.35283 0.73650
 H562 H 0.14962 0.31537 0.76970
 H563 H 0.34665 0.19403 0.73722
 H564 H 0.30892 0.15298 0.77313
 O565 O 0.75881 0.65333 0.69353
 O566 O 0.79971 0.64398 0.74625
 O567 O 0.66094 0.69559 0.74596
 O568 O 0.64735 0.74333 0.78424
 O569 O 0.70600 0.74817 0.64912
 O570 O 0.75339 0.79188 0.64024
 O571 O 0.75667 0.80187 0.84104
 O572 O 0.71310 0.75169 0.85036
 O573 O 0.85145 0.75001 0.79671
 O574 O 0.86600 0.71189 0.74667
 O575 O 0.80693 0.84543 0.74552
 O576 O 0.75218 0.85486 0.70328
 O577 O 0.75692 0.84529 0.79550
 O578 O 0.71523 0.85669 0.74465
 O579 O 0.85108 0.80056 0.74722
 O580 O 0.86020 0.74542 0.70247
 O581 O 0.80744 0.75114 0.84182
 O582 O 0.75826 0.71071 0.85448
 O583 O 0.75888 0.69874 0.64986
 O584 O 0.80115 0.75049 0.64231
 O585 O 0.66073 0.74832 0.69320
 O586 O 0.65051 0.79011 0.74488
 O587 O 0.70685 0.65236 0.74512
 O588 O 0.75712 0.64216 0.78605
 Zr589 Zr 0.75602 0.68288 0.74411
 O590 O 0.78958 0.71513 0.77900
 Zr591 Zr 0.68983 0.74663 0.74402
 O592 O 0.72121 0.78214 0.77860
 Zr593 Zr 0.75555 0.74830 0.67939
 O594 O 0.78967 0.78311 0.71104
 Zr595 Zr 0.75725 0.75095 0.81186
 O596 O 0.72294 0.71490 0.78024
 Zr597 Zr 0.82205 0.75062 0.74670
 O598 O 0.79136 0.71547 0.71157
 Zr599 Zr 0.75667 0.81528 0.74619
 O600 O 0.72197 0.78304 0.71173
 O601 O 0.72148 0.71318 0.70971
 O602 O 0.79169 0.78565 0.78120
 C603 C 0.76006 0.66480 0.65985
 C604 C 0.67271 0.66194 0.74614
 C605 C 0.67194 0.74894 0.65939
 C606 C 0.75661 0.83556 0.82951
 C607 C 0.84123 0.75019 0.83071
 C608 C 0.84077 0.83442 0.74618
 H609 H 0.80507 0.69848 0.79417
 H610 H 0.80488 0.79841 0.69424
 H611 H 0.70607 0.69707 0.69377
 H612 H 0.70437 0.79723 0.79402
 H613 H 0.69578 0.73174 0.84298
 H614 H 0.65453 0.75952 0.80514
 H615 H 0.85907 0.76839 0.68765
 H616 H 0.79248 0.74397 0.61705
 H617 H 0.77215 0.68907 0.84515
 H618 H 0.73961 0.65045 0.80546
 H619 H 0.77331 0.85121 0.68624
 H620 H 0.73497 0.81004 0.64931
 H621 H 0.81824 0.65188 0.72767
 H622 H 0.85776 0.69021 0.76117
 H623 H 0.65885 0.80870 0.72658
 H624 H 0.69582 0.84980 0.76269
 O625 O 0.24917 0.65330 0.29795
 O626 O 0.21630 0.63909 0.24836
 O627 O 0.34782 0.70300 0.25160
 O628 O 0.36052 0.75269 0.21505
 O629 O 0.29726 0.75037 0.34837
 O630 O 0.25180 0.78640 0.36080
 O631 O 0.24793 0.79890 0.15340
 O632 O 0.28549 0.75057 0.13936
 O633 O 0.15256 0.75359 0.20243
 O634 O 0.14235 0.71192 0.24752
 O635 O 0.20245 0.84814 0.24721
 O636 O 0.24801 0.85777 0.28975
 O637 O 0.24862 0.84501 0.19634
 O638 O 0.29708 0.85220 0.24584
 O639 O 0.15633 0.80508 0.24846
 O640 O 0.14857 0.75471 0.29699
 O641 O 0.19578 0.75105 0.15655
 O642 O 0.25206 0.70498 0.14758
 O643 O 0.24813 0.69608 0.34424
 O644 O 0.20133 0.74993 0.34997
 O645 O 0.34371 0.75239 0.30566
 O646 O 0.35293 0.79668 0.25172
 O647 O 0.30500 0.65681 0.24941
 O648 O 0.25092 0.64892 0.20355
 Zr649 Zr 0.25290 0.68462 0.24998
 O650 O 0.21595 0.71620 0.21781
 Zr651 Zr 0.31632 0.75099 0.25334
 O652 O 0.28477 0.78298 0.21623
 Zr653 Zr 0.24958 0.74812 0.31649
 O654 O 0.21770 0.78494 0.28451
 Zr655 Zr 0.24803 0.75050 0.18430
 O656 O 0.28556 0.71798 0.21568
 Zr657 Zr 0.18407 0.75298 0.25024
 O658 O 0.21527 0.71552 0.28296
 Zr659 Zr 0.25033 0.81672 0.24797
 O660 O 0.28273 0.78545 0.28551
 O661 O 0.28552 0.71522 0.28599
 O662 O 0.21465 0.78618 0.21459
 C663 C 0.24788 0.66250 0.33205
 C664 C 0.33862 0.66894 0.25003
 C665 C 0.33140 0.75201 0.33924
 C666 C 0.24800 0.83298 0.16272
 C667 C 0.16205 0.75246 0.16843
 C668 C 0.16838 0.83871 0.24751
 H669 H 0.19988 0.69944 0.20328
 H670 H 0.20277 0.80098 0.30097
 H671 H 0.30115 0.69939 0.30198
 H672 H 0.30154 0.79780 0.20045
 H673 H 0.30948 0.75928 0.14927
 H674 H 0.35165 0.73974 0.19259
 H675 H 0.12375 0.76272 0.28842
 H676 H 0.20692 0.73786 0.37395
 H677 H 0.22760 0.69266 0.14675
 H678 H 0.27430 0.65241 0.18966
 H679 H 0.26727 0.85125 0.30812
 H680 H 0.24294 0.81028 0.35085
 H681 H 0.19109 0.64962 0.25011
 H682 H 0.14862 0.69325 0.26654
 H683 H 0.34778 0.81191 0.27393
 H684 H 0.28827 0.87732 0.23920
 O685 O 0.74433 0.34016 0.30202
 O686 O 0.78640 0.35027 0.24999
 O687 O 0.64897 0.29549 0.24493
 O688 O 0.63497 0.24712 0.20994
 O689 O 0.69216 0.24388 0.34503
 O690 O 0.74202 0.19970 0.35232
 O691 O 0.74429 0.19292 0.15303
 O692 O 0.70042 0.24398 0.14475
 O693 O 0.83986 0.24405 0.19635
 O694 O 0.84961 0.28749 0.25087
 O695 O 0.79585 0.14990 0.24902
 O696 O 0.74262 0.13805 0.28982
 O697 O 0.74689 0.14934 0.19834
 O698 O 0.70442 0.13720 0.24993
 O699 O 0.84083 0.19399 0.24788
 O700 O 0.85221 0.24196 0.28832
 O701 O 0.79443 0.24288 0.15271
 O702 O 0.74735 0.28297 0.13950
 O703 O 0.74350 0.29454 0.34541
 O704 O 0.78605 0.24437 0.35482
 O705 O 0.64870 0.24466 0.29925
 O706 O 0.63979 0.20141 0.24835
 O707 O 0.69273 0.34076 0.24865
 O708 O 0.74471 0.35247 0.20979
 Zr709 Zr 0.74300 0.31099 0.25096
 O710 O 0.77715 0.27928 0.21560
 Zr711 Zr 0.67825 0.24567 0.24942
 O712 O 0.70984 0.21094 0.21510
 Zr713 Zr 0.74255 0.24517 0.31529
 O714 O 0.77789 0.21171 0.28327
 Zr715 Zr 0.74510 0.24339 0.18264
 O716 O 0.71069 0.27884 0.21419
 Zr717 Zr 0.81056 0.24385 0.24732
 O718 O 0.77875 0.27809 0.28324
 Zr719 Zr 0.74558 0.17888 0.24796
 O720 O 0.71006 0.20996 0.28241
 O721 O 0.70841 0.27980 0.28448
 O722 O 0.78016 0.20887 0.21286
 C723 C 0.74449 0.32856 0.33573
 C724 C 0.65912 0.32950 0.24549
 C725 C 0.65850 0.24361 0.33334
 C726 C 0.74552 0.15925 0.16439
 C727 C 0.82844 0.24361 0.16258
 C728 C 0.82982 0.16023 0.24905
 H729 H 0.79223 0.29613 0.20024
 H730 H 0.79355 0.19689 0.30012
 H731 H 0.69231 0.29571 0.29994
 H732 H 0.69319 0.19566 0.19965
 H733 H 0.68403 0.26478 0.15193
 H734 H 0.64337 0.23303 0.18800
 H735 H 0.84043 0.25055 0.31150
 H736 H 0.77557 0.24936 0.37975
 H737 H 0.75773 0.30598 0.15001
 H738 H 0.72745 0.34456 0.19002
 H739 H 0.76231 0.14337 0.30811
 H740 H 0.72195 0.18282 0.34434
 H741 H 0.80483 0.34212 0.26856
 H742 H 0.84615 0.30372 0.22912
 H743 H 0.64769 0.18349 0.26748
 H744 H 0.68596 0.14266 0.23048
 C745 C 0.25856 0.09637 0.12656
 C746 C 0.22941 0.09794 0.09495
 C747 C 0.26090 0.09857 0.06608
 C748 C 0.29012 0.09667 0.09720
 C749 C 0.26174 0.14136 0.06750
 C750 C 0.23036 0.14060 0.09635
 C751 C 0.25939 0.13882 0.12733
 C752 C 0.29082 0.13951 0.09870
 H753 H 0.25721 0.07815 0.15123
 H754 H 0.20385 0.08094 0.09329
 H755 H 0.31492 0.07852 0.09735
 H756 H 0.26282 0.16235 0.04516
 H757 H 0.20575 0.15878 0.09611
 H758 H 0.31618 0.15678 0.10055
 C759 C 0.75942 0.59535 0.62809
 C760 C 0.73093 0.59801 0.59600
 C761 C 0.76290 0.59753 0.56770
 C762 C 0.79147 0.59457 0.59932
 C763 C 0.76529 0.64018 0.56910
 C764 C 0.73338 0.64058 0.59737
 C765 C 0.76176 0.63774 0.62888
 C766 C 0.79371 0.63734 0.60084
 H767 H 0.75699 0.57719 0.65271
 H768 H 0.70487 0.58186 0.59378
 H769 H 0.81558 0.57551 0.59981
 H770 H 0.76771 0.66066 0.54640
 H771 H 0.70954 0.65975 0.59662
 H772 H 0.81964 0.65370 0.60319
 C773 C 0.71793 0.90020 0.14396
 C774 C 0.74813 0.93035 0.14278
 C775 C 0.74608 0.93018 0.10001
 C776 C 0.71587 0.90006 0.10115
 C777 C 0.77651 0.90026 0.09836
 C778 C 0.77843 0.90039 0.14107
 C779 C 0.74829 0.87050 0.14235
 C780 C 0.74631 0.86967 0.09986
 H781 H 0.69373 0.89996 0.16292
 H782 H 0.74933 0.95366 0.16273
 H783 H 0.68998 0.90013 0.08458
 H784 H 0.80086 0.90046 0.07960
 H785 H 0.80450 0.90024 0.15712
 H786 H 0.74561 0.84435 0.08246
 C787 C 0.21871 0.40093 0.64469
 C788 C 0.24972 0.43020 0.64288
 C789 C 0.24697 0.42997 0.60014
 C790 C 0.21595 0.40069 0.60192
 C791 C 0.27650 0.39918 0.59812
 C792 C 0.27913 0.39938 0.64082
 C793 C 0.24817 0.37035 0.64274
 C794 C 0.24549 0.36945 0.60026
 H795 H 0.19481 0.40148 0.66402
 H796 H 0.25195 0.45352 0.66273
 H797 H 0.18981 0.40141 0.58577
 H798 H 0.30054 0.39861 0.57896
 H799 H 0.30550 0.39848 0.65637
 H800 H 0.24378 0.34411 0.58296
 C801 C 0.78003 0.10051 0.85714
 C802 C 0.77768 0.09842 0.89981
 C803 C 0.74860 0.06731 0.89626
 C804 C 0.75105 0.06930 0.85364
 C805 C 0.71709 0.09617 0.89621
 C806 C 0.74618 0.12772 0.89954
 C807 C 0.74860 0.12923 0.85721
 C808 C 0.71963 0.09826 0.85356
 H809 H 0.80607 0.10263 0.84093
 H810 H 0.80179 0.09826 0.91886
 H811 H 0.75314 0.04652 0.83315
 H812 H 0.69098 0.09412 0.91229
 H813 H 0.74418 0.15206 0.91820
 H814 H 0.69559 0.09850 0.83440
 C815 C 0.24550 0.62886 0.40060
 C816 C 0.21607 0.59758 0.39758
 C817 C 0.24730 0.56841 0.39693
 C818 C 0.27672 0.59924 0.40018
 C819 C 0.24907 0.57067 0.35429
 C820 C 0.21792 0.59993 0.35489
 C821 C 0.24723 0.63062 0.35824
 C822 C 0.27838 0.60158 0.35750
 H823 H 0.24404 0.65308 0.41946
 H824 H 0.19021 0.59569 0.41407
 H825 H 0.30115 0.59876 0.41882
 H826 H 0.25061 0.54801 0.33362
 H827 H 0.19357 0.60049 0.33614
 H828 H 0.30419 0.60354 0.34089
 C829 C 0.24712 0.89937 0.87042
 C830 C 0.21640 0.89950 0.90062
 C831 C 0.24640 0.89756 0.93099
 C832 C 0.27713 0.89772 0.90126
 C833 C 0.24519 0.85474 0.92980
 C834 C 0.21529 0.85669 0.89935
 C835 C 0.24593 0.85689 0.86980
 C836 C 0.27581 0.85495 0.90002
 H837 H 0.24794 0.91754 0.84569
 H838 H 0.19173 0.91782 0.90096
 H839 H 0.30281 0.91459 0.90214
 H840 H 0.24440 0.83409 0.95246
 H841 H 0.18971 0.83966 0.89834
 H842 H 0.30039 0.83649 0.89958
 C843 C 0.74634 0.39798 0.36792
 C844 C 0.71558 0.39806 0.39803
 C845 C 0.74548 0.39579 0.42845
 C846 C 0.77625 0.39599 0.39879
 C847 C 0.74407 0.35307 0.42708
 C848 C 0.71424 0.35529 0.39658
 C849 C 0.74495 0.35553 0.36709
 C850 C 0.77475 0.35325 0.39737
 H851 H 0.74729 0.41627 0.34328
 H852 H 0.69102 0.41653 0.39851
 H853 H 0.80197 0.41277 0.39990
 H854 H 0.74311 0.33274 0.45002
 H855 H 0.68858 0.33838 0.39541
 H856 H 0.79925 0.33470 0.39687
 C857 C 0.13899 0.22039 0.09827
 C858 C 0.09628 0.22326 0.09808
 C859 C 0.09869 0.25282 0.06738
 C860 C 0.14150 0.24976 0.06751
 C861 C 0.10045 0.28378 0.09673
 C862 C 0.09842 0.25424 0.12793
 C863 C 0.14091 0.25129 0.12736
 C864 C 0.14325 0.28073 0.09685
 H865 H 0.15434 0.19394 0.09925
 H866 H 0.07704 0.19930 0.09851
 H867 H 0.16183 0.24724 0.04463
 H868 H 0.08450 0.31003 0.09599
 H869 H 0.08095 0.25602 0.15314
 H870 H 0.16274 0.30448 0.09650
 C871 C 0.60151 0.75316 0.63022
 C872 C 0.60340 0.78211 0.59853
 C873 C 0.60089 0.75068 0.56976
 C874 C 0.59864 0.72171 0.60099
 C875 C 0.64360 0.74722 0.56925
 C876 C 0.64614 0.77866 0.59802
 C877 C 0.64395 0.74978 0.62905
 C878 C 0.64131 0.71839 0.60055
 H879 H 0.58445 0.75556 0.65566
 H880 H 0.58764 0.80846 0.59750
 H881 H 0.57911 0.69801 0.60205
 H882 H 0.66317 0.74423 0.54578
 H883 H 0.66586 0.80221 0.59699
 H884 H 0.65633 0.69176 0.60183
 C885 C 0.09759 0.71351 0.85954
 C886 C 0.09586 0.71075 0.90227
 C887 C 0.06664 0.74187 0.90270
 C888 C 0.06834 0.74461 0.86000
 C889 C 0.09745 0.77131 0.90611
 C890 C 0.12718 0.74019 0.90533
 C891 C 0.12821 0.74282 0.86296
 C892 C 0.09920 0.77384 0.86351
 H893 H 0.09791 0.68961 0.84020
 H894 H 0.09429 0.68461 0.91828
 H895 H 0.04603 0.74699 0.83904
 H896 H 0.09728 0.79543 0.92518
 H897 H 0.15175 0.73845 0.92370
 H898 H 0.10109 0.80012 0.84797
 C899 C 0.59611 0.21484 0.35776
 C900 C 0.59486 0.21291 0.40052
 C901 C 0.56643 0.24475 0.40073
 C902 C 0.56762 0.24664 0.35804
 C903 C 0.59797 0.27343 0.40329
 C904 C 0.62688 0.24160 0.40276
 C905 C 0.62746 0.24344 0.36034
 C906 C 0.59923 0.27519 0.36064
 H907 H 0.59566 0.19060 0.33885
 H908 H 0.59277 0.18715 0.41707
 H909 H 0.54474 0.24904 0.33770
 H910 H 0.59851 0.29783 0.42198
 H911 H 0.65162 0.23955 0.42087
 H912 H 0.60167 0.30116 0.34466
 C913 C 0.86955 0.75367 0.10057
 C914 C 0.90013 0.78401 0.10113
 C915 C 0.93017 0.75368 0.10284
 C916 C 0.90008 0.72333 0.10200
 C917 C 0.92873 0.75431 0.14567
 C918 C 0.89861 0.78455 0.14395
 C919 C 0.86868 0.75429 0.14307
 C920 C 0.89858 0.72407 0.14478
 H921 H 0.84491 0.75339 0.08221
 H922 H 0.90086 0.80891 0.08318
 H923 H 0.90077 0.69790 0.08475
 H924 H 0.95129 0.75453 0.16649
 H925 H 0.89779 0.80989 0.16135
 H926 H 0.89775 0.69926 0.16285
 C927 C 0.36822 0.25239 0.60217
 C928 C 0.39866 0.28281 0.60217
 C929 C 0.42880 0.25260 0.60415
 C930 C 0.39881 0.22218 0.60389
 C931 C 0.42766 0.25387 0.64690
 C932 C 0.39743 0.28399 0.64496
 C933 C 0.36760 0.25362 0.64464
 C934 C 0.39760 0.22352 0.64666
 H935 H 0.34347 0.25179 0.58395
 H936 H 0.39930 0.30741 0.58381
 H937 H 0.39957 0.19654 0.58696
 H938 H 0.45076 0.25454 0.66711
 H939 H 0.39659 0.30957 0.66200
 H940 H 0.39692 0.19898 0.66510
 C941 C 0.85436 0.28023 0.90128
 C942 C 0.85427 0.24869 0.93007
 C943 C 0.89694 0.25129 0.93254
 C944 C 0.89702 0.28293 0.90386
 C945 C 0.90085 0.22239 0.90127
 C946 C 0.85818 0.21993 0.89869
 C947 C 0.85839 0.25147 0.87014
 C948 C 0.90070 0.25402 0.87212
 H949 H 0.83511 0.30418 0.90101
 H950 H 0.83323 0.24638 0.95231
 H951 H 0.91294 0.30911 0.90616
 H952 H 0.91995 0.19831 0.90138
 H953 H 0.84208 0.19386 0.89624
 H954 H 0.91958 0.25620 0.84797
 C955 C 0.35428 0.78138 0.40211
 C956 C 0.35367 0.75006 0.43114
 C957 C 0.39634 0.75169 0.43331
 C958 C 0.39700 0.78308 0.40439
 C959 C 0.39942 0.72249 0.40223
 C960 C 0.35671 0.72098 0.39996
 C961 C 0.35749 0.75230 0.37117
 C962 C 0.39987 0.75389 0.37288
 H963 H 0.33559 0.80576 0.40175
 H964 H 0.33314 0.74842 0.45391
 H965 H 0.41359 0.80886 0.40648
 H966 H 0.41799 0.69802 0.40250
 H967 H 0.33999 0.69527 0.39778
 H968 H 0.41866 0.75545 0.34862
 C969 C 0.14566 0.10165 0.27522
 C970 C 0.10286 0.10011 0.27666
 C971 C 0.10321 0.07028 0.24603
 C972 C 0.14604 0.07175 0.24471
 C973 C 0.10091 0.10049 0.21597
 C974 C 0.10085 0.13080 0.24658
 C975 C 0.14335 0.13171 0.24528
 C976 C 0.14374 0.10204 0.21474
 H977 H 0.16419 0.10235 0.29973
 H978 H 0.08605 0.09921 0.30236
 H979 H 0.16687 0.04922 0.24394
 H980 H 0.08251 0.09989 0.19136
 H981 H 0.08248 0.15541 0.24737
 H982 H 0.16072 0.10308 0.18913
 C983 C 0.60316 0.63030 0.74779
 C984 C 0.60289 0.60022 0.71700
 C985 C 0.60470 0.56978 0.74685
 C986 C 0.60471 0.59942 0.77764
 C987 C 0.64750 0.57064 0.74562
 C988 C 0.64573 0.60116 0.71584
 C989 C 0.64568 0.63063 0.74658
 C990 C 0.64752 0.60034 0.77633
 H991 H 0.58511 0.65514 0.74871
 H992 H 0.58449 0.59998 0.69239
 H993 H 0.58777 0.59851 0.80327
 H994 H 0.66762 0.54748 0.74471
 H995 H 0.66277 0.60214 0.69028
 H996 H 0.66601 0.60062 0.80088
 C997 C 0.90053 0.14190 0.78040
 C998 C 0.90312 0.09925 0.77789
 C999 C 0.93468 0.10313 0.74929
 C1000 C 0.93218 0.14578 0.75194
 C1001 C 0.90622 0.10312 0.71737
 C1002 C 0.87421 0.09946 0.74597
 C1003 C 0.87221 0.14175 0.74858
 C1004 C 0.90363 0.14574 0.72012
 H1005 H 0.89789 0.15798 0.80649
 H1006 H 0.90300 0.08016 0.80193
 H1007 H 0.95437 0.16685 0.75448
 H1008 H 0.90869 0.08723 0.69117
 H1009 H 0.85007 0.08060 0.74352
 H1010 H 0.90360 0.16498 0.69619
 C1011 C 0.39917 0.64355 0.28160
 C1012 C 0.40140 0.60086 0.28009
 C1013 C 0.43262 0.60385 0.25107
 C1014 C 0.43051 0.64648 0.25267
 C1015 C 0.40381 0.60322 0.21950
 C1016 C 0.37215 0.60043 0.24853
 C1017 C 0.37050 0.64277 0.25010
 C1018 C 0.40160 0.64588 0.22119
 H1019 H 0.39691 0.66029 0.30730
 H1020 H 0.40155 0.58233 0.30457
 H1021 H 0.45333 0.66695 0.25440
 H1022 H 0.40596 0.58661 0.19373
 H1023 H 0.34785 0.58169 0.24681
 H1024 H 0.40137 0.66452 0.19680
 C1025 C 0.10209 0.86024 0.71460
 C1026 C 0.06969 0.85846 0.74233
 C1027 C 0.06955 0.90129 0.74465
 C1028 C 0.10188 0.90308 0.71675
 C1029 C 0.09715 0.89995 0.77719
 C1030 C 0.09725 0.85724 0.77482
 C1031 C 0.12942 0.85888 0.74711
 C1032 C 0.12997 0.90138 0.74938
 H1033 H 0.10434 0.84375 0.68875
 H1034 H 0.04692 0.83808 0.73935
 H1035 H 0.10369 0.92201 0.69265
 H1036 H 0.09505 0.91626 0.80317
 H1037 H 0.09523 0.83830 0.79874
 H1038 H 0.15512 0.91879 0.75230
 C1039 C 0.59588 0.35550 0.26995
 C1040 C 0.59611 0.39815 0.27279
 C1041 C 0.56934 0.40005 0.23962
 C1042 C 0.56914 0.35734 0.23681
 C1043 C 0.60233 0.40194 0.21254
 C1044 C 0.62955 0.39970 0.24581
 C1045 C 0.62872 0.35727 0.24306
 C1046 C 0.60223 0.35914 0.20989
 H1047 H 0.59306 0.33622 0.29352
 H1048 H 0.59342 0.41424 0.29884
 H1049 H 0.54594 0.33760 0.23302
 H1050 H 0.60476 0.42117 0.18874
 H1051 H 0.65477 0.41687 0.24955
 H1052 H 0.60503 0.34290 0.18394
 C1053 C 0.90482 0.87211 0.25987
 C1054 C 0.90312 0.90350 0.23060
 C1055 C 0.90228 0.93256 0.26189
 C1056 C 0.90431 0.90164 0.29124
 C1057 C 0.85954 0.93106 0.26268
 C1058 C 0.86045 0.90202 0.23147
 C1059 C 0.86233 0.87123 0.26064
 C1060 C 0.86144 0.90006 0.29190
 H1061 H 0.92318 0.84751 0.25869
 H1062 H 0.92023 0.90514 0.20513
 H1063 H 0.92247 0.90179 0.31602
 H1064 H 0.83889 0.95375 0.26370
 H1065 H 0.84238 0.90198 0.20677
 H1066 H 0.84413 0.89829 0.31723
 C1067 C 0.40351 0.37199 0.75993
 C1068 C 0.40147 0.40367 0.73099
 C1069 C 0.40145 0.43243 0.76256
 C1070 C 0.40379 0.40122 0.79158
 C1071 C 0.35872 0.43124 0.76417
 C1072 C 0.35881 0.40248 0.73267
 C1073 C 0.36105 0.37139 0.76151
 C1074 C 0.36094 0.39991 0.79305
 H1075 H 0.42167 0.34728 0.75817
 H1076 H 0.41811 0.40543 0.70522
 H1077 H 0.42242 0.40100 0.81602
 H1078 H 0.33832 0.45411 0.76586
 H1079 H 0.34015 0.40290 0.70841
 H1080 H 0.34409 0.39802 0.81869
 C1081 C 0.09485 0.25863 0.87184
 C1082 C 0.09220 0.22638 0.90019
 C1083 C 0.09717 0.25431 0.93221
 C1084 C 0.09945 0.28650 0.90436
 C1085 C 0.13965 0.24911 0.93048
 C1086 C 0.13465 0.22144 0.89837
 C1087 C 0.13702 0.25357 0.87076
 C1088 C 0.14194 0.28134 0.90265
 H1089 H 0.07670 0.26242 0.84734
 H1090 H 0.07181 0.20340 0.89932
 H1091 H 0.08494 0.31345 0.90703
 H1092 H 0.16022 0.24450 0.95281
 H1093 H 0.14850 0.19432 0.89514
 H1094 H 0.16258 0.30410 0.90344
 C1095 C 0.59608 0.75718 0.37101
 C1096 C 0.59362 0.72462 0.39897
 C1097 C 0.59833 0.75217 0.43134
 C1098 C 0.60043 0.78468 0.40384
 C1099 C 0.64080 0.74735 0.42964
 C1100 C 0.63611 0.71999 0.39721
 C1101 C 0.63833 0.75245 0.36996
 C1102 C 0.64294 0.77989 0.40218
 H1103 H 0.57793 0.76113 0.34654
 H1104 H 0.57334 0.70155 0.39787
 H1105 H 0.58566 0.81145 0.40684
 H1106 H 0.66109 0.74279 0.45222
 H1107 H 0.65012 0.69298 0.39369
 H1108 H 0.66340 0.80281 0.40329
 C1109 C 0.89874 0.71567 0.85932
 C1110 C 0.93135 0.74314 0.85803
 C1111 C 0.93151 0.74458 0.90089
 C1112 C 0.89893 0.71697 0.90218
 C1113 C 0.90421 0.77740 0.90019
 C1114 C 0.90408 0.77587 0.85742
 C1115 C 0.87169 0.74845 0.85858
 C1116 C 0.87114 0.74985 0.90111
 H1117 H 0.89626 0.69019 0.84230
 H1118 H 0.95404 0.74049 0.83750
 H1119 H 0.89693 0.69252 0.92063
 H1120 H 0.90655 0.80303 0.91701
 H1121 H 0.90644 0.80006 0.83890
 H1122 H 0.84601 0.75270 0.91856
 C1123 C 0.39986 0.22341 0.35431
 C1124 C 0.42821 0.25510 0.35792
 C1125 C 0.42802 0.24991 0.40043
 C1126 C 0.39962 0.21829 0.39682
 C1127 C 0.39638 0.27842 0.40400
 C1128 C 0.39648 0.28341 0.36150
 C1129 C 0.36837 0.25180 0.35776
 C1130 C 0.36751 0.24674 0.40002
 H1131 H 0.40117 0.20064 0.33368
 H1132 H 0.45160 0.25929 0.33849
 H1133 H 0.40108 0.19135 0.41148
 H1134 H 0.39509 0.30136 0.42442
 H1135 H 0.39464 0.31063 0.34769
 H1136 H 0.34220 0.24340 0.41711
 C1137 C 0.10170 0.78416 0.14191
 C1138 C 0.09925 0.78122 0.09926
 C1139 C 0.06793 0.75240 0.10335
 C1140 C 0.07028 0.75546 0.14592
 C1141 C 0.09666 0.72078 0.10364
 C1142 C 0.12842 0.74956 0.09977
 C1143 C 0.13027 0.75258 0.14205
 C1144 C 0.09906 0.72390 0.14620
 H1145 H 0.10412 0.81039 0.15777
 H1146 H 0.09911 0.80504 0.07990
 H1147 H 0.04767 0.75797 0.16655
 H1148 H 0.09436 0.69445 0.08795
 H1149 H 0.15261 0.74718 0.08097
 H1150 H 0.09922 0.70013 0.16563
 C1151 C 0.60186 0.28205 0.64204
 C1152 C 0.59924 0.28041 0.59934
 C1153 C 0.56825 0.25115 0.60268
 C1154 C 0.57077 0.25290 0.64530
 C1155 C 0.59732 0.21984 0.60184
 C1156 C 0.62876 0.24907 0.59875
 C1157 C 0.63078 0.25079 0.64111
 C1158 C 0.59990 0.22166 0.64448
 H1159 H 0.60405 0.30781 0.65869
 H1160 H 0.59877 0.30483 0.58074
 H1161 H 0.54822 0.25453 0.66607
 H1162 H 0.59523 0.19400 0.58533
 H1163 H 0.65289 0.24754 0.57977
 H1164 H 0.60040 0.19730 0.66316
 C1165 C 0.85570 0.21449 0.10114
 C1166 C 0.85313 0.24495 0.07137
 C1167 C 0.89588 0.24697 0.07007
 C1168 C 0.89852 0.21640 0.09976
 C1169 C 0.89572 0.27698 0.10049
 C1170 C 0.85298 0.27491 0.10181
 C1171 C 0.85558 0.24446 0.13137
 C1172 C 0.89807 0.24643 0.13063
 H1173 H 0.83911 0.18862 0.10167
 H1174 H 0.83267 0.24422 0.04850
 H1175 H 0.91732 0.19212 0.09872
 H1176 H 0.91219 0.30291 0.10004
 H1177 H 0.83411 0.29915 0.10285
 H1178 H 0.91637 0.24699 0.15530
 C1179 C 0.35427 0.77591 0.60440
 C1180 C 0.39704 0.77753 0.60301
 C1181 C 0.39685 0.74756 0.57255
 C1182 C 0.35408 0.74599 0.57393
 C1183 C 0.39920 0.71694 0.60222
 C1184 C 0.39909 0.74693 0.63313
 C1185 C 0.35657 0.74540 0.63393
 C1186 C 0.35637 0.71546 0.60366
 H1187 H 0.33565 0.80034 0.60547
 H1188 H 0.41378 0.80329 0.60258
 H1189 H 0.33361 0.74548 0.55106
 H1190 H 0.41775 0.69247 0.60114
 H1191 H 0.41745 0.74727 0.65777
 H1192 H 0.33952 0.68976 0.60415
 C1193 C 0.25125 0.09907 0.87080
 C1194 C 0.28422 0.09855 0.89852
 C1195 C 0.25665 0.09945 0.93113
 C1196 C 0.22371 0.09960 0.90391
 C1197 C 0.25731 0.14233 0.93094
 C1198 C 0.28478 0.14142 0.89831
 C1199 C 0.25192 0.14162 0.87132
 C1200 C 0.22450 0.14238 0.90373
 H1201 H 0.24865 0.08152 0.84571
 H1202 H 0.30900 0.08049 0.89647
 H1203 H 0.19836 0.08238 0.90628
 H1204 H 0.25950 0.16293 0.95361
 H1205 H 0.31000 0.15882 0.89582
 H1206 H 0.19995 0.16052 0.90612
 C1207 C 0.72695 0.64324 0.40332
 C1208 C 0.72459 0.60053 0.40322
 C1209 C 0.75817 0.59902 0.42953
 C1210 C 0.76048 0.64176 0.42961
 C1211 C 0.78482 0.59729 0.39620
 C1212 C 0.75116 0.59914 0.36942
 C1213 C 0.75343 0.64161 0.37015
 C1214 C 0.78699 0.64008 0.39621
 H1215 H 0.70326 0.66237 0.40654
 H1216 H 0.69874 0.58418 0.40627
 H1217 H 0.76431 0.66164 0.45269
 H1218 H 0.80883 0.57831 0.39347
 H1219 H 0.74724 0.58185 0.34431
 H1220 H 0.81275 0.65656 0.39308
 C1221 C 0.77699 0.10043 0.13523
 C1222 C 0.74900 0.06856 0.13988
 C1223 C 0.74433 0.06686 0.09736
 C1224 C 0.77256 0.09862 0.09275
 C1225 C 0.71227 0.09495 0.09926
 C1226 C 0.71692 0.09666 0.14179
 C1227 C 0.74500 0.12828 0.13724
 C1228 C 0.74045 0.12723 0.09503
 H1229 H 0.80398 0.10340 0.14940
 H1230 H 0.75316 0.04625 0.16050
 H1231 H 0.79580 0.09928 0.07265
 H1232 H 0.68546 0.09249 0.08441
 H1233 H 0.69388 0.09610 0.16215
 H1234 H 0.73705 0.15173 0.07686
 C1235 C 0.24140 0.62885 0.59724
 C1236 C 0.27362 0.60045 0.59466
 C1237 C 0.24561 0.56846 0.59897
 C1238 C 0.21342 0.59640 0.60119
 C1239 C 0.25027 0.56978 0.64145
 C1240 C 0.27811 0.60184 0.63715
 C1241 C 0.24598 0.62954 0.63948
 C1242 C 0.21806 0.59771 0.64372
 H1243 H 0.23784 0.65349 0.57928
 H1244 H 0.29680 0.60137 0.57450
 H1245 H 0.18664 0.59391 0.58630
 H1246 H 0.25443 0.54698 0.66154
 H1247 H 0.30513 0.60480 0.65126
 H1248 H 0.19504 0.59681 0.66408
 C1249 C 0.72503 0.89626 0.85400
 C1250 C 0.72319 0.89774 0.89671
 C1251 C 0.75306 0.92826 0.89662
 C1252 C 0.75485 0.92681 0.85390
 C1253 C 0.78384 0.89874 0.89918
 C1254 C 0.75396 0.86775 0.89898
 C1255 C 0.75570 0.86686 0.85652
 C1256 C 0.78553 0.89720 0.85639
 H1257 H 0.70068 0.89503 0.83527
 H1258 H 0.69732 0.89815 0.91331
 H1259 H 0.75531 0.94964 0.83343
 H1260 H 0.80823 0.89998 0.91784
 H1261 H 0.75363 0.84315 0.91734
 H1262 H 0.81133 0.89671 0.83966
 C1263 C 0.28308 0.39851 0.35519
 C1264 C 0.25248 0.42825 0.35329
 C1265 C 0.25101 0.42922 0.39606
 C1266 C 0.28170 0.39955 0.39801
 C1267 C 0.22104 0.39878 0.39598
 C1268 C 0.22256 0.39778 0.35321
 C1269 C 0.25315 0.36826 0.35514
 C1270 C 0.25172 0.36867 0.39765
 H1271 H 0.30876 0.39817 0.33828
 H1272 H 0.25289 0.45130 0.33307
 H1273 H 0.30623 0.40045 0.41651
 H1274 H 0.19530 0.39905 0.41278
 H1275 H 0.19808 0.39687 0.33464
 H1276 H 0.25145 0.34387 0.41573
 C1277 C 0.21610 0.85861 0.10209
 C1278 C 0.21794 0.90132 0.09965
 C1279 C 0.24713 0.89791 0.06859
 C1280 C 0.24519 0.85528 0.07093
 C1281 C 0.27855 0.89844 0.09757
 C1282 C 0.24938 0.90162 0.12906
 C1283 C 0.24747 0.85927 0.13089
 C1284 C 0.27654 0.85583 0.09995
 H1285 H 0.19025 0.84210 0.10428
 H1286 H 0.19359 0.92007 0.09932
 H1287 H 0.24345 0.83453 0.04837
 H1288 H 0.30450 0.91479 0.09551
 H1289 H 0.25108 0.92050 0.15326
 H1290 H 0.30083 0.83700 0.10031
 C1291 C 0.71584 0.35679 0.60116
 C1292 C 0.71756 0.39950 0.59883
 C1293 C 0.74669 0.39623 0.56771
 C1294 C 0.74486 0.35361 0.56992
 C1295 C 0.77818 0.39678 0.59659
 C1296 C 0.74909 0.39983 0.62815
 C1297 C 0.74728 0.35749 0.62988
 C1298 C 0.77628 0.35417 0.59886
 H1299 H 0.69005 0.34020 0.60341
 H1300 H 0.69317 0.41820 0.59859
 H1301 H 0.74312 0.33302 0.54720
 H1302 H 0.80408 0.41319 0.59448
 H1303 H 0.75080 0.41864 0.65240
 H1304 H 0.80062 0.33540 0.59913
 C1305 C 0.10301 0.14532 0.72581
 C1306 C 0.10137 0.10259 0.72446
 C1307 C 0.07075 0.10319 0.75428
 C1308 C 0.07237 0.14598 0.75554
 C1309 C 0.10026 0.10095 0.78514
 C1310 C 0.13136 0.10065 0.75530
 C1311 C 0.13241 0.14311 0.75652
 C1312 C 0.10197 0.14376 0.78627
 H1313 H 0.10432 0.16369 0.70124
 H1314 H 0.10105 0.08571 0.69878
 H1315 H 0.04995 0.16695 0.75570
 H1316 H 0.09902 0.08269 0.80978
 H1317 H 0.15593 0.08219 0.75523
 H1318 H 0.10245 0.16082 0.81186
 C1319 C 0.60356 0.64589 0.22590
 C1320 C 0.60197 0.60321 0.22376
 C1321 C 0.57202 0.60318 0.25423
 C1322 C 0.57359 0.64587 0.25631
 C1323 C 0.60221 0.60035 0.28434
 C1324 C 0.63263 0.60067 0.25385
 C1325 C 0.63364 0.64311 0.25590
 C1326 C 0.60387 0.64312 0.28633
 H1327 H 0.60429 0.66474 0.20167
 H1328 H 0.60102 0.58680 0.19779
 H1329 H 0.55075 0.66636 0.25738
 H1330 H 0.60146 0.58154 0.30860
 H1331 H 0.65719 0.58223 0.25287
 H1332 H 0.60490 0.65967 0.31223
 C1333 C 0.14250 0.89908 0.21552
 C1334 C 0.09979 0.90161 0.21783
 C1335 C 0.10358 0.93278 0.24685
 C1336 C 0.14620 0.93038 0.24442
 C1337 C 0.10337 0.90400 0.27837
 C1338 C 0.09981 0.87238 0.24939
 C1339 C 0.14213 0.87048 0.24699
 C1340 C 0.14597 0.90155 0.27587
 H1341 H 0.15874 0.89668 0.18952
 H1342 H 0.08073 0.90188 0.19373
 H1343 H 0.16691 0.95295 0.24235
 H1344 H 0.08732 0.90627 0.30448
 H1345 H 0.08094 0.84822 0.25140
 H1346 H 0.16509 0.90126 0.29993
 C1347 C 0.64203 0.39711 0.71528
 C1348 C 0.59930 0.39960 0.71761
 C1349 C 0.60305 0.43057 0.74686
 C1350 C 0.64568 0.42819 0.74441
 C1351 C 0.60286 0.40153 0.77814
 C1352 C 0.59937 0.37010 0.74893
 C1353 C 0.64174 0.36824 0.74651
 C1354 C 0.64548 0.39912 0.77564
 H1355 H 0.65826 0.39498 0.68925
 H1356 H 0.58025 0.40001 0.69350
 H1357 H 0.66641 0.45075 0.74252
 H1358 H 0.58680 0.40355 0.80426
 H1359 H 0.58050 0.34593 0.75074
 H1360 H 0.66459 0.39870 0.79971
 C1361 C 0.85697 0.09705 0.22465
 C1362 C 0.89976 0.09726 0.22349
 C1363 C 0.90043 0.07066 0.25682
 C1364 C 0.85760 0.07047 0.25790
 C1365 C 0.90130 0.10374 0.28381
 C1366 C 0.90029 0.13081 0.25042
 C1367 C 0.85774 0.12996 0.25148
 C1368 C 0.85843 0.10360 0.28478
 H1369 H 0.83862 0.09410 0.20034
 H1370 H 0.91685 0.09447 0.19810
 H1371 H 0.83769 0.04730 0.26086
 H1372 H 0.91963 0.10628 0.30835
 H1373 H 0.91760 0.15599 0.24724
 H1374 H 0.84120 0.10646 0.31008
 C1375 C 0.35710 0.59756 0.72679
 C1376 C 0.39987 0.59743 0.72491
 C1377 C 0.40093 0.57077 0.75819
 C1378 C 0.35811 0.57094 0.76002
 C1379 C 0.40248 0.60385 0.78518
 C1380 C 0.40108 0.63098 0.75183
 C1381 C 0.35851 0.63048 0.75362
 C1382 C 0.35961 0.60406 0.78688
 H1383 H 0.33828 0.59466 0.70285
 H1384 H 0.41649 0.59456 0.69921
 H1385 H 0.33804 0.54796 0.76335
 H1386 H 0.42122 0.60627 0.80941
 H1387 H 0.41855 0.65600 0.74838
 H1388 H 0.34286 0.60700 0.81249
 C1389 C 0.90300 0.85743 0.71706
 C1390 C 0.90429 0.89992 0.71220
 C1391 C 0.93262 0.90224 0.74403
 C1392 C 0.93130 0.85980 0.74892
 C1393 C 0.90093 0.90680 0.77238
 C1394 C 0.87213 0.90410 0.74052
 C1395 C 0.87147 0.86190 0.74531
 C1396 C 0.89956 0.86436 0.77707
 H1397 H 0.90362 0.83695 0.69414
 H1398 H 0.90650 0.91463 0.68534
 H1399 H 0.95407 0.83961 0.75296
 H1400 H 0.90030 0.92710 0.79545
 H1401 H 0.84744 0.92208 0.73718
 H1402 H 0.89689 0.85043 0.80417
 C1403 C 0.37060 0.40460 0.24365
 C1404 C 0.40322 0.40247 0.27162
 C1405 C 0.43100 0.40225 0.23918
 C1406 C 0.39885 0.40472 0.21115
 C1407 C 0.42951 0.35956 0.23765
 C1408 C 0.40176 0.35981 0.27001
 C1409 C 0.36974 0.36216 0.24216
 C1410 C 0.39730 0.36194 0.20975
 H1411 H 0.34602 0.42287 0.24620
 H1412 H 0.40588 0.41916 0.29730
 H1413 H 0.39794 0.42325 0.18669
 H1414 H 0.45211 0.33894 0.23520
 H1415 H 0.40303 0.34112 0.29416
 H1416 H 0.39455 0.34510 0.18418
   
