data_POSCAR
  _audit_creation_date              2014-09-24
  _audit_creation_method            'ToBaCCo'
  _symmetry_space_group_name_H-M    'P1'
  _symmetry_Int_Tables_number       1
  _symmetry_cell_setting            triclinic
  loop_
  _symmetry_equiv_pos_as_xyz
 x,y,z
_cell_length_a 71.3756
_cell_length_b 71.1940
_cell_length_c 71.4152
_cell_angle_alpha 89.996000
_cell_angle_beta 90.046200
_cell_angle_gamma 90.170000
loop_
  _atom_site_label
  _atom_site_type_symbol
  _atom_site_fract_x
  _atom_site_fract_y
  _atom_site_fract_z
C1 C 0.09883 0.01405 0.22981
 H2 H 0.09854 0.02497 0.24033
 C3 C 0.08829 0.01595 0.21341
 H4 H 0.07972 0.02831 0.21130
 C5 C 0.11095 -0.01509 0.21925
 H6 H 0.12017 -0.02690 0.22131
 C7 C 0.10064 -0.01374 0.20270
 H8 H 0.10178 -0.02464 0.19218
 N9 N 0.10985 -0.00131 0.23242
 C10 C 0.12116 -0.00490 0.29230
 H11 H 0.13630 -0.00543 0.29186
 C12 C 0.11184 -0.00652 0.30938
 H13 H 0.11979 -0.00819 0.32219
 C14 C 0.09225 -0.00247 0.27606
 H15 H 0.08469 -0.00122 0.26301
 C16 C 0.08235 -0.00403 0.29288
 H17 H 0.06718 -0.00377 0.29279
 Zn18 Zn 0.12548 -0.00204 0.25380
 N19 N 0.11131 -0.00281 0.27611
 C20 C 0.13956 0.03277 0.26705
 N21 N 0.14052 0.01982 0.25307
 C22 C 0.15094 0.02298 0.23742
 C23 C 0.16095 0.03975 0.23539
 C24 C 0.14935 0.04971 0.26558
 C25 C 0.13064 -0.04050 0.25568
 C26 C 0.14019 -0.05754 0.25609
 C27 C 0.16935 -0.04048 0.25255
 C28 C 0.15920 -0.02370 0.25222
 N29 N 0.14018 -0.02406 0.25358
 H30 H 0.13081 0.03025 0.27912
 H31 H 0.15112 0.01262 0.22634
 H32 H 0.16901 0.04229 0.22279
 H33 H 0.14831 0.06007 0.27664
 H34 H 0.11554 -0.04031 0.25700
 H35 H 0.13237 -0.07053 0.25765
 H36 H 0.18449 -0.04008 0.25134
 H37 H 0.16651 -0.01046 0.25096
 C38 C 0.09227 -0.00610 0.30966
 C39 C 0.08932 0.00196 0.19971
 C40 C 0.15972 -0.05756 0.25447
 C41 C 0.16002 0.05327 0.24956
 C42 C 0.40305 0.01833 0.77271
 H43 H 0.40364 0.02959 0.76254
 C44 C 0.41309 0.01980 0.78948
 H45 H 0.42158 0.03214 0.79221
 C46 C 0.39069 -0.01120 0.78200
 H47 H 0.38158 -0.02303 0.77932
 C48 C 0.40050 -0.01031 0.79887
 H49 H 0.39910 -0.02158 0.80897
 N50 N 0.39212 0.00300 0.76931
 C51 C 0.38183 0.00070 0.70922
 H52 H 0.36670 -0.00015 0.70954
 C53 C 0.39125 -0.00009 0.69215
 H54 H 0.38337 -0.00145 0.67925
 C55 C 0.41061 0.00330 0.72570
 H56 H 0.41806 0.00437 0.73883
 C57 C 0.42061 0.00254 0.70887
 H58 H 0.43578 0.00320 0.70904
 Zn59 Zn 0.37698 0.00268 0.74756
 N60 N 0.39155 0.00253 0.72551
 C61 C 0.36326 0.03757 0.73451
 N62 N 0.36185 0.02443 0.74830
 C63 C 0.35085 0.02730 0.76359
 C64 C 0.34063 0.04393 0.76539
 C65 C 0.35329 0.05434 0.73576
 C66 C 0.37200 -0.03577 0.74459
 C67 C 0.36251 -0.05288 0.74366
 C68 C 0.33327 -0.03621 0.74727
 C69 C 0.34333 -0.01934 0.74812
 N70 N 0.36237 -0.01948 0.74698
 H71 H 0.37246 0.03531 0.72274
 H72 H 0.35030 0.01681 0.77453
 H73 H 0.33207 0.04622 0.77769
 H74 H 0.35468 0.06482 0.72485
 H75 H 0.38711 -0.03540 0.74345
 H76 H 0.37031 -0.06579 0.74186
 H77 H 0.31813 -0.03607 0.74827
 H78 H 0.33594 -0.00621 0.74962
 C79 C 0.41080 0.00086 0.69197
 C80 C 0.41166 0.00538 0.80271
 C81 C 0.34300 -0.05310 0.74506
 C82 C 0.34196 0.05758 0.75138
 C83 C 0.90139 0.51596 0.27432
 H84 H 0.90201 0.52726 0.26421
 C85 C 0.91111 0.51750 0.29126
 H86 H 0.91936 0.52997 0.29415
 C87 C 0.88930 0.48620 0.28324
 H88 H 0.88042 0.47425 0.28032
 C89 C 0.89879 0.48715 0.30030
 H90 H 0.89734 0.47579 0.31031
 N91 N 0.89077 0.50048 0.27064
 C92 C 0.88230 0.49838 0.21029
 H93 H 0.86718 0.49724 0.21013
 C94 C 0.89226 0.49791 0.19352
 H95 H 0.88482 0.49647 0.18037
 C96 C 0.91049 0.50144 0.22767
 H97 H 0.91751 0.50258 0.24103
 C98 C 0.92103 0.50102 0.21117
 H99 H 0.93617 0.50200 0.21182
 Zn100 Zn 0.87623 0.50011 0.24849
 N101 N 0.89146 0.50029 0.22689
 C102 C 0.86258 0.53496 0.23526
 N103 N 0.86089 0.52174 0.24894
 C104 C 0.84955 0.52451 0.26400
 C105 C 0.83936 0.54116 0.26573
 C106 C 0.85264 0.55176 0.23645
 C107 C 0.87167 0.46158 0.24523
 C108 C 0.86233 0.44442 0.24375
 C109 C 0.83286 0.46088 0.24628
 C110 C 0.84277 0.47780 0.24771
 N111 N 0.86184 0.47780 0.24733
 H112 H 0.87202 0.53277 0.22367
 H113 H 0.84877 0.51394 0.27486
 H114 H 0.83058 0.54341 0.27788
 H115 H 0.85430 0.56233 0.22564
 H116 H 0.88681 0.46205 0.24470
 H117 H 0.87028 0.43157 0.24218
 H118 H 0.81769 0.46091 0.24666
 H119 H 0.83524 0.49087 0.24902
 C120 C 0.91179 0.49927 0.19396
 C121 C 0.90968 0.50299 0.30441
 C122 C 0.84277 0.44406 0.24430
 C123 C 0.84105 0.55495 0.25187
 C124 C 0.59916 0.51645 0.72828
 H125 H 0.59897 0.52747 0.73871
 C126 C 0.58857 0.51828 0.71192
 H127 H 0.58007 0.53067 0.70974
 C128 C 0.61096 0.48709 0.71799
 H129 H 0.62004 0.47519 0.72017
 C130 C 0.60060 0.48836 0.70147
 H131 H 0.60155 0.47731 0.69108
 N132 N 0.61003 0.50100 0.73102
 C133 C 0.62035 0.49759 0.79102
 H134 H 0.63549 0.49693 0.79087
 C135 C 0.61069 0.49620 0.80793
 H136 H 0.61840 0.49457 0.82091
 C137 C 0.59176 0.50014 0.77424
 H138 H 0.58445 0.50134 0.76105
 C139 C 0.58154 0.49881 0.79088
 H140 H 0.56637 0.49921 0.79051
 Zn141 Zn 0.62538 0.50024 0.75258
 N142 N 0.61082 0.49965 0.77464
 C143 C 0.63949 0.53498 0.76602
 N144 N 0.64056 0.52203 0.75204
 C145 C 0.65126 0.52513 0.73656
 C146 C 0.66147 0.54180 0.73473
 C147 C 0.64948 0.55181 0.76475
 C148 C 0.63036 0.46172 0.75466
 C149 C 0.63988 0.44467 0.75539
 C150 C 0.66911 0.46165 0.75239
 C151 C 0.65901 0.47844 0.75172
 N152 N 0.63996 0.47813 0.75268
 H153 H 0.63053 0.53251 0.77795
 H154 H 0.65154 0.51477 0.72548
 H155 H 0.66978 0.54427 0.72228
 H156 H 0.64837 0.56215 0.77583
 H157 H 0.61524 0.46194 0.75568
 H158 H 0.63210 0.43167 0.75687
 H159 H 0.68427 0.46193 0.75154
 H160 H 0.66639 0.49166 0.75055
 C161 C 0.59113 0.49681 0.80786
 C162 C 0.58938 0.50412 0.69838
 C163 C 0.65942 0.44463 0.75422
 C164 C 0.66046 0.55529 0.74892
 C165 C 0.27466 0.10068 0.98100
 H166 H 0.26397 0.10034 0.97025
 C167 C 0.29113 0.09036 0.97873
 H168 H 0.29311 0.08190 0.96628
 C169 C 0.28549 0.11259 1.01009
 H170 H 0.28346 0.12160 1.02208
 C171 C 0.30214 0.10250 1.00838
 H172 H 0.31276 0.10359 1.01917
 N173 N 0.27212 0.11145 0.99653
 C174 C 0.21204 0.12102 1.00116
 H175 H 0.21222 0.13618 1.00220
 C176 C 0.19510 0.11130 1.00235
 H177 H 0.18215 0.11898 1.00422
 C178 C 0.22874 0.09247 0.99765
 H179 H 0.24191 0.08520 0.99606
 C180 C 0.21205 0.08217 0.99878
 H181 H 0.21236 0.06698 0.99789
 Zn182 Zn 0.25033 0.12646 0.99790
 N183 N 0.22838 0.11156 0.99868
 C184 C 0.23590 0.14048 0.96373
 N185 N 0.25014 0.14191 0.97635
 C186 C 0.26524 0.15315 0.97304
 C187 C 0.26642 0.16352 0.95645
 C188 C 0.23652 0.15061 0.94702
 C189 C 0.24901 0.13102 1.03641
 C190 C 0.24806 0.14040 1.05352
 C191 C 0.24985 0.16995 1.03686
 C192 C 0.25076 0.15997 1.02002
 N193 N 0.25043 0.14085 1.02013
 H194 H 0.22428 0.13110 0.96633
 H195 H 0.27655 0.15372 0.98312
 H196 H 0.27861 0.17222 0.95377
 H197 H 0.22527 0.14914 0.93692
 H198 H 0.24848 0.11584 1.03603
 H199 H 0.24689 0.13237 1.06637
 H200 H 0.25006 0.18518 1.03664
 H201 H 0.25148 0.16749 1.00690
 C202 C 0.19510 0.09172 1.00112
 C203 C 0.30501 0.09135 0.99253
 C204 C 0.24845 0.16005 1.05376
 C205 C 0.25196 0.16212 0.94329
 C206 C 0.72729 0.39958 0.98557
 H207 H 0.73760 0.40039 0.97450
 C208 C 0.71037 0.40929 0.98390
 H209 H 0.70767 0.41774 0.97158
 C210 C 0.71781 0.38698 1.01483
 H211 H 0.72049 0.37788 1.02662
 C212 C 0.70074 0.39644 1.01371
 H213 H 0.69048 0.39478 1.02476
 N214 N 0.73069 0.38870 1.00088
 C215 C 0.79109 0.37987 1.00366
 H216 H 0.79108 0.36470 1.00470
 C217 C 0.80795 0.38976 1.00455
 H218 H 0.82101 0.38221 1.00619
 C219 C 0.77403 0.40825 1.00055
 H220 H 0.76075 0.41538 0.99926
 C221 C 0.79064 0.41872 1.00135
 H222 H 0.79015 0.43390 1.00051
 Zn223 Zn 0.75277 0.37403 1.00138
 N224 N 0.77459 0.38916 1.00156
 C225 C 0.76617 0.36042 0.96663
 N226 N 0.75240 0.35872 0.97970
 C227 C 0.73727 0.34740 0.97676
 C228 C 0.73559 0.33722 0.96010
 C229 C 0.76503 0.35049 0.94981
 C230 C 0.75563 0.36943 1.03975
 C231 C 0.75672 0.36014 1.05690
 C232 C 0.75379 0.33053 1.04049
 C233 C 0.75277 0.34044 1.02359
 N234 N 0.75352 0.35955 1.02357
 H235 H 0.77781 0.36986 0.96895
 H236 H 0.72633 0.34662 0.98721
 H237 H 0.72339 0.32844 0.95774
 H238 H 0.77592 0.35215 0.93937
 H239 H 0.75645 0.38460 1.03926
 H240 H 0.75831 0.36824 1.06966
 H241 H 0.75308 0.31532 1.04039
 H242 H 0.75146 0.33286 1.01055
 C243 C 0.80774 0.40934 1.00337
 C244 C 0.69694 0.40759 0.99806
 C245 C 0.75575 0.34051 1.05731
 C246 C 0.74954 0.33891 0.94646
 C247 C 0.22713 0.90007 0.48240
 H248 H 0.23750 0.90101 0.47140
 C249 C 0.21015 0.90969 0.48067
 H250 H 0.20748 0.91821 0.46839
 C251 C 0.21750 0.88722 0.51150
 H252 H 0.22014 0.87804 0.52324
 C253 C 0.20039 0.89658 0.51032
 H254 H 0.19007 0.89479 0.52130
 N255 N 0.23047 0.88910 0.49765
 C256 C 0.29086 0.87987 0.50083
 H257 H 0.29071 0.86471 0.50176
 C258 C 0.30779 0.88961 0.50208
 H259 H 0.32076 0.88194 0.50388
 C260 C 0.27408 0.90843 0.49773
 H261 H 0.26088 0.91568 0.49632
 C262 C 0.29077 0.91875 0.49889
 H263 H 0.29043 0.93394 0.49819
 Zn264 Zn 0.25252 0.87435 0.49823
 N265 N 0.27447 0.88933 0.49859
 C266 C 0.26594 0.86063 0.46351
 N267 N 0.25212 0.85907 0.47655
 C268 C 0.23692 0.84786 0.47362
 C269 C 0.23519 0.83764 0.45699
 C270 C 0.26476 0.85066 0.44672
 C271 C 0.25516 0.86968 0.53656
 C272 C 0.25610 0.86037 0.55371
 C273 C 0.25309 0.83081 0.53730
 C274 C 0.25222 0.84071 0.52038
 N275 N 0.25308 0.85982 0.52038
 H276 H 0.27764 0.87000 0.46584
 H277 H 0.22595 0.84720 0.48405
 H278 H 0.22294 0.82893 0.45464
 H279 H 0.27568 0.85219 0.43630
 H280 H 0.25608 0.88485 0.53609
 H281 H 0.25769 0.86837 0.56652
 H282 H 0.25233 0.81561 0.53728
 H283 H 0.25094 0.83313 0.50734
 C284 C 0.30776 0.90921 0.50112
 C285 C 0.19662 0.90780 0.49471
 C286 C 0.25501 0.84078 0.55409
 C287 C 0.24919 0.83917 0.44338
 C288 C 0.77374 0.59960 0.48291
 H289 H 0.76311 0.59932 0.47210
 C290 C 0.79019 0.58924 0.48073
 H291 H 0.79223 0.58081 0.46828
 C292 C 0.78443 0.61146 0.51208
 H293 H 0.78238 0.62049 0.52405
 C294 C 0.80106 0.60132 0.51046
 H295 H 0.81163 0.60239 0.52130
 N296 N 0.77115 0.61039 0.49843
 C297 C 0.71113 0.62042 0.50280
 H298 H 0.71141 0.63558 0.50381
 C299 C 0.69412 0.61082 0.50392
 H300 H 0.68122 0.61859 0.50572
 C301 C 0.72764 0.59175 0.49937
 H302 H 0.74077 0.58439 0.49784
 C303 C 0.71088 0.58157 0.50044
 H304 H 0.71109 0.56638 0.49955
 Zn305 Zn 0.74948 0.62556 0.49962
 N306 N 0.72741 0.61084 0.50038
 C307 C 0.73529 0.63958 0.46535
 N308 N 0.74951 0.64090 0.47800
 C309 C 0.76476 0.65194 0.47468
 C310 C 0.76611 0.66223 0.45806
 C311 C 0.73608 0.64963 0.44859
 C312 C 0.74801 0.63041 0.53811
 C313 C 0.74730 0.63995 0.55515
 C314 C 0.74967 0.66931 0.53828
 C315 C 0.75032 0.65920 0.52151
 N316 N 0.74963 0.64009 0.52176
 H317 H 0.72355 0.63036 0.46796
 H318 H 0.77605 0.65242 0.48479
 H319 H 0.77840 0.67077 0.45537
 H320 H 0.72484 0.64825 0.43847
 H321 H 0.74720 0.61524 0.53785
 H322 H 0.74601 0.63212 0.56810
 H323 H 0.75023 0.68451 0.53804
 H324 H 0.75119 0.66662 0.50834
 C325 C 0.69399 0.59124 0.50270
 C326 C 0.80400 0.59020 0.49461
 C327 C 0.74814 0.65956 0.55523
 C328 C 0.75167 0.66094 0.44486
 C329 C 0.01325 0.22880 0.10041
 H330 H 0.02436 0.23914 0.09969
 C331 C 0.01490 0.21187 0.09067
 H332 H 0.02725 0.20918 0.08229
 C333 C -0.01607 0.21924 0.11287
 H334 H -0.02787 0.22191 0.12193
 C335 C -0.01498 0.20215 0.10337
 H336 H -0.02604 0.19182 0.10496
 N337 N -0.00206 0.23215 0.11124
 C338 C -0.00413 0.29264 0.12006
 H339 H -0.00496 0.29272 0.13518
 C340 C -0.00469 0.30951 0.11018
 H341 H -0.00587 0.32266 0.11775
 C342 C -0.00171 0.27534 0.09176
 H343 H -0.00078 0.26197 0.08468
 C344 C -0.00223 0.29194 0.08130
 H345 H -0.00151 0.29132 0.06615
 Zn346 Zn -0.00229 0.25426 0.12589
 N347 N -0.00246 0.27603 0.11080
 C348 C 0.03265 0.26761 0.13925
 N349 N 0.01954 0.25379 0.14089
 C350 C 0.02249 0.23856 0.15202
 C351 C 0.03921 0.23681 0.16208
 C352 C 0.04951 0.26643 0.14907
 C353 C -0.04063 0.25706 0.13118
 C354 C -0.05751 0.25835 0.14088
 C355 C -0.04032 0.25610 0.16997
 C356 C -0.02369 0.25486 0.15970
 N357 N -0.02420 0.25518 0.14065
 H358 H 0.03032 0.27933 0.12995
 H359 H 0.01199 0.22759 0.15276
 H360 H 0.04158 0.22453 0.17071
 H361 H 0.05998 0.27737 0.14748
 H362 H -0.04055 0.25755 0.11603
 H363 H -0.07054 0.25971 0.13321
 H364 H -0.03989 0.25573 0.18513
 H365 H -0.01045 0.25376 0.16694
 C366 C -0.00368 0.30918 0.09064
 C367 C 0.00070 0.19839 0.09229
 C368 C -0.05736 0.25783 0.16043
 C369 C 0.05286 0.25084 0.16046
 C370 C 0.01542 0.77080 0.40076
 H371 H 0.02624 0.76020 0.40112
 C372 C 0.01748 0.78729 0.41120
 H373 H 0.02986 0.78939 0.41975
 C374 C -0.01362 0.78145 0.38863
 H375 H -0.02548 0.77939 0.37946
 C376 C -0.01212 0.79809 0.39885
 H377 H -0.02296 0.80865 0.39769
 N378 N 0.00003 0.76819 0.38977
 C379 C -0.00477 0.70816 0.37864
 H380 H -0.00556 0.70868 0.36351
 C381 C -0.00647 0.69100 0.38790
 H382 H -0.00845 0.67821 0.37992
 C383 C -0.00150 0.72427 0.40755
 H384 H 0.00017 0.73730 0.41513
 C385 C -0.00312 0.70735 0.41739
 H386 H -0.00250 0.70734 0.43255
 Zn387 Zn -0.00100 0.74665 0.37427
 N388 N -0.00219 0.72431 0.38850
 C389 C 0.03322 0.73240 0.36007
 N390 N 0.02081 0.74687 0.35927
 C391 C 0.02436 0.76244 0.34878
 C392 C 0.04094 0.76386 0.33848
 C393 C 0.04993 0.73325 0.34998
 C394 C -0.03941 0.74523 0.36869
 C395 C -0.05629 0.74470 0.35886
 C396 C -0.03887 0.74766 0.32995
 C397 C -0.02228 0.74811 0.34037
 N398 N -0.02288 0.74706 0.35939
 H399 H 0.03039 0.72036 0.36883
 H400 H 0.01441 0.77387 0.34867
 H401 H 0.04376 0.77637 0.33031
 H402 H 0.05983 0.72177 0.35084
 H403 H -0.03942 0.74412 0.38380
 H404 H -0.06936 0.74330 0.36648
 H405 H -0.03826 0.74854 0.31481
 H406 H -0.00897 0.74915 0.33324
 C407 C -0.00564 0.69060 0.40744
 C408 C 0.00363 0.80110 0.41011
 C409 C -0.05603 0.74593 0.33931
 C410 C 0.05386 0.74915 0.33918
 C411 C 0.51487 0.26997 0.90092
 H412 H 0.52571 0.25938 0.90139
 C413 C 0.51671 0.28638 0.91152
 H414 H 0.52893 0.28843 0.92029
 C415 C 0.48597 0.28060 0.88843
 H416 H 0.47424 0.27855 0.87909
 C417 C 0.48725 0.29716 0.89880
 H418 H 0.47638 0.30769 0.89758
 N419 N 0.49967 0.26740 0.88967
 C420 C 0.49530 0.20738 0.87854
 H421 H 0.49487 0.20781 0.86340
 C422 C 0.49353 0.19026 0.88786
 H423 H 0.49188 0.17740 0.87990
 C424 C 0.49774 0.22366 0.90744
 H425 H 0.49910 0.23675 0.91498
 C426 C 0.49602 0.20680 0.91733
 H427 H 0.49629 0.20688 0.93250
 Zn428 Zn 0.49896 0.24589 0.87413
 N429 N 0.49754 0.22359 0.88837
 C430 C 0.53349 0.23177 0.86062
 N431 N 0.52105 0.24618 0.85954
 C432 C 0.52474 0.26175 0.84910
 C433 C 0.54154 0.26324 0.83917
 C434 C 0.55041 0.23268 0.85090
 C435 C 0.46071 0.24447 0.86790
 C436 C 0.44399 0.24407 0.85782
 C437 C 0.46184 0.24700 0.82920
 C438 C 0.47829 0.24733 0.83984
 N439 N 0.47738 0.24627 0.85886
 H440 H 0.53052 0.21972 0.86932
 H441 H 0.51474 0.27314 0.84876
 H442 H 0.54449 0.27575 0.83104
 H443 H 0.56033 0.22124 0.85198
 H444 H 0.46047 0.24333 0.88301
 H445 H 0.43078 0.24274 0.86516
 H446 H 0.46258 0.24792 0.81407
 H447 H 0.49170 0.24831 0.83291
 C448 C 0.49393 0.18997 0.90741
 C449 C 0.50279 0.30012 0.91035
 C450 C 0.44456 0.24537 0.83831
 C451 C 0.55451 0.24860 0.84018
 C452 C 0.51630 0.73026 0.60027
 H453 H 0.52733 0.74069 0.59943
 C454 C 0.51782 0.71347 0.59025
 H455 H 0.52997 0.71097 0.58154
 C456 C 0.48734 0.72034 0.61329
 H457 H 0.47575 0.72280 0.62266
 C458 C 0.48831 0.70341 0.60352
 H459 H 0.47733 0.69300 0.60522
 N460 N 0.50123 0.73337 0.61152
 C461 C 0.49877 0.79372 0.62133
 H462 H 0.49848 0.79360 0.63648
 C463 C 0.49746 0.81070 0.61171
 H464 H 0.49629 0.82374 0.61944
 C465 C 0.50042 0.77684 0.59273
 H466 H 0.50129 0.76358 0.58543
 C467 C 0.49912 0.79357 0.58253
 H468 H 0.49920 0.79320 0.56737
 Zn469 Zn 0.50109 0.75525 0.62652
 N470 N 0.50038 0.77727 0.61179
 C471 C 0.53610 0.76873 0.63972
 N472 N 0.52314 0.75474 0.64122
 C473 C 0.52632 0.73937 0.65209
 C474 C 0.54307 0.73768 0.66209
 C475 C 0.55300 0.76760 0.64949
 C476 C 0.46284 0.75759 0.63237
 C477 C 0.44605 0.75845 0.64228
 C478 C 0.46358 0.75574 0.67113
 C479 C 0.48011 0.75494 0.66066
 N480 N 0.47940 0.75568 0.64162
 H481 H 0.53358 0.78057 0.63063
 H482 H 0.51594 0.72828 0.65271
 H483 H 0.54559 0.72532 0.67057
 H484 H 0.56332 0.77870 0.64808
 H485 H 0.46274 0.75841 0.61725
 H486 H 0.43292 0.75984 0.63478
 H487 H 0.46418 0.75503 0.68627
 H488 H 0.49345 0.75381 0.66773
 C489 C 0.49764 0.81063 0.59215
 C490 C 0.50373 0.69989 0.59201
 C491 C 0.44642 0.75747 0.66181
 C492 C 0.55655 0.75190 0.66068
 C493 C 0.90502 0.98440 0.72858
 H494 H 0.90576 0.97318 0.73877
 C495 C 0.91491 0.98332 0.71266
 H496 H 0.92371 0.97124 0.71000
 C497 C 0.89170 1.01391 0.71992
 H498 H 0.88231 1.02548 0.72238
 C499 C 0.90241 1.01337 0.70231
 H500 H 0.90093 1.02478 0.69236
 N501 N 0.89320 1.00037 0.73212
 C502 C 0.88336 1.00503 0.79330
 H503 H 0.86838 1.00731 0.79303
 C504 C 0.89248 1.00457 0.80963
 H505 H 0.88489 1.00656 0.82261
 C506 C 0.91136 0.99973 0.77575
 H507 H 0.91856 0.99763 0.76263
 C508 C 0.92204 0.99912 0.79349
 H509 H 0.93700 0.99656 0.79314
 Zn510 Zn 0.87832 1.00098 0.75415
 N511 N 0.89326 1.00205 0.77602
 C512 C 0.86563 0.96675 0.76953
 N513 N 0.86363 0.97873 0.75480
 C514 C 0.85224 0.97440 0.74010
 C515 C 0.84214 0.95752 0.74000
 C516 C 0.85582 0.94980 0.76998
 C517 C 0.87253 1.03946 0.75590
 C518 C 0.86288 1.05642 0.75471
 C519 C 0.83412 1.03896 0.75025
 C520 C 0.84434 1.02226 0.75152
 N521 N 0.86326 1.02284 0.75393
 H522 H 0.87511 0.97008 0.78083
 H523 H 0.85121 0.98396 0.72837
 H524 H 0.83318 0.95409 0.72823
 H525 H 0.85764 0.94032 0.78171
 H526 H 0.88755 1.03949 0.75794
 H527 H 0.87045 1.06958 0.75590
 H528 H 0.81912 1.03845 0.74797
 H529 H 0.83720 1.00892 0.75028
 C530 C 0.91288 1.00116 0.80976
 C531 C 0.91350 0.99866 0.69876
 C532 C 0.84355 1.05617 0.75163
 C533 C 0.84401 0.94511 0.75510
 C534 C 0.40272 0.48547 0.22721
 H535 H 0.40378 0.47404 0.23714
 C536 C 0.41310 0.48501 0.21059
 H537 H 0.42228 0.47327 0.20773
 C538 C 0.38903 0.51446 0.21835
 H539 H 0.37933 0.52571 0.22110
 C540 C 0.39914 0.51456 0.20166
 H541 H 0.39733 0.52598 0.19181
 N542 N 0.39105 0.50012 0.23082
 C543 C 0.38132 0.50330 0.29108
 H544 H 0.36627 0.50505 0.29076
 C545 C 0.39073 0.50296 0.30819
 H546 H 0.38294 0.50454 0.32111
 C547 C 0.40982 0.49875 0.27464
 H548 H 0.41717 0.49710 0.26153
 C549 C 0.41981 0.49833 0.29150
 H550 H 0.43484 0.49631 0.29137
 Zn551 Zn 0.37609 0.49996 0.25279
 N552 N 0.39087 0.50086 0.27479
 C553 C 0.36379 0.46524 0.26741
 N554 N 0.36170 0.47750 0.25292
 C555 C 0.35037 0.47336 0.23813
 C556 C 0.34036 0.45642 0.23771
 C557 C 0.35408 0.44823 0.26754
 C558 C 0.36985 0.53827 0.25530
 C559 C 0.36008 0.55515 0.25416
 C560 C 0.33157 0.53753 0.24884
 C561 C 0.34190 0.52090 0.25009
 N562 N 0.36076 0.52161 0.25287
 H563 H 0.37323 0.46842 0.27879
 H564 H 0.34926 0.48313 0.22658
 H565 H 0.33142 0.45316 0.22588
 H566 H 0.35594 0.43854 0.27910
 H567 H 0.38483 0.53839 0.25760
 H568 H 0.36752 0.56836 0.25567
 H569 H 0.31663 0.53695 0.24620
 H570 H 0.33490 0.50753 0.24846
 C571 C 0.41010 0.50024 0.30842
 C572 C 0.41124 0.49971 0.19772
 C573 C 0.34083 0.55480 0.25065
 C574 C 0.34228 0.44376 0.25258
 C575 C 0.59909 0.98494 0.27433
 H576 H 0.59757 0.97340 0.26458
 C577 C 0.58971 0.98477 0.29058
 H578 H 0.58054 0.97311 0.29396
 C579 C 0.61378 1.01429 0.28142
 H580 H 0.62339 1.02554 0.27814
 C581 C 0.60372 1.01472 0.29941
 H582 H 0.60590 1.02647 0.30883
 N583 N 0.61127 1.00043 0.26974
 C584 C 0.61648 1.00281 0.20894
 H585 H 0.63151 1.00459 0.20797
 C586 C 0.60567 1.00206 0.19269
 H587 H 0.61236 1.00333 0.17913
 C588 C 0.58943 0.99863 0.22779
 H589 H 0.58317 0.99730 0.24149
 C590 C 0.57807 0.99780 0.21184
 H591 H 0.56310 0.99576 0.21328
 Zn592 Zn 0.62473 1.00020 0.24683
 N593 N 0.60831 1.00070 0.22602
 C594 C 0.63628 0.96546 0.23170
 N595 N 0.63920 0.97789 0.24591
 C596 C 0.65158 0.97409 0.25992
 C597 C 0.66187 0.95739 0.25973
 C598 C 0.64624 0.94866 0.23099
 C599 C 0.63062 1.03854 0.24343
 C600 C 0.64036 1.05554 0.24365
 C601 C 0.66927 1.03825 0.24723
 C602 C 0.65894 1.02151 0.24692
 N603 N 0.63993 1.02201 0.24543
 H604 H 0.62602 0.96835 0.22099
 H605 H 0.65335 0.98399 0.27128
 H606 H 0.67168 0.95443 0.27092
 H607 H 0.64376 0.93886 0.21963
 H608 H 0.61552 1.03849 0.24216
 H609 H 0.63273 1.06862 0.24246
 H610 H 0.68436 1.03779 0.24883
 H611 H 0.66609 1.00823 0.24822
 C612 C 0.58634 0.99931 0.19414
 C613 C 0.59213 1.00059 0.30381
 C614 C 0.65983 1.05542 0.24581
 C615 C 0.65914 0.94458 0.24510
 C616 C 0.09900 0.48837 0.77467
 H617 H 0.09706 0.47686 0.76496
 C618 C 0.08934 0.48847 0.79173
 H619 H 0.07984 0.47709 0.79515
 C620 C 0.11404 0.51708 0.78244
 H621 H 0.12394 0.52804 0.77905
 C622 C 0.10471 0.51772 0.79957
 H623 H 0.10732 0.52926 0.80913
 N624 N 0.11090 0.50268 0.77027
 C625 C 0.11642 0.50509 0.70944
 H626 H 0.13147 0.50681 0.70868
 C627 C 0.10584 0.50443 0.69304
 H628 H 0.11272 0.50572 0.67958
 C629 C 0.08911 0.50091 0.72792
 H630 H 0.08267 0.49953 0.74152
 C631 C 0.07797 0.50015 0.71180
 H632 H 0.06298 0.49811 0.71303
 Zn633 Zn 0.12432 0.50217 0.74734
 N634 N 0.10803 0.50294 0.72641
 C635 C 0.13541 0.46732 0.73217
 N636 N 0.13849 0.47966 0.74642
 C637 C 0.15086 0.47569 0.76039
 C638 C 0.16101 0.45890 0.76010
 C639 C 0.14524 0.45044 0.73135
 C640 C 0.13078 0.54041 0.74406
 C641 C 0.14075 0.55727 0.74447
 C642 C 0.16939 0.53959 0.74808
 C643 C 0.15885 0.52299 0.74758
 N644 N 0.13985 0.52374 0.74601
 H645 H 0.12515 0.47035 0.72150
 H646 H 0.15275 0.48553 0.77178
 H647 H 0.17084 0.45582 0.77123
 H648 H 0.14265 0.44072 0.71996
 H649 H 0.11568 0.54057 0.74273
 H650 H 0.13334 0.57048 0.74334
 H651 H 0.18446 0.53897 0.74975
 H652 H 0.16582 0.50961 0.74884
 C653 C 0.08648 0.50170 0.69422
 C654 C 0.09223 0.50334 0.80424
 C655 C 0.16018 0.55687 0.74675
 C656 C 0.15816 0.44620 0.74540
 C657 C 0.77475 0.90272 0.01354
 H658 H 0.76462 0.90436 0.02468
 C659 C 0.79161 0.91282 0.01403
 H660 H 0.79446 0.92237 0.02549
 C661 C 0.78382 0.88788 -0.01475
 H662 H 0.78105 0.87786 -0.02574
 C663 C 0.80077 0.89765 -0.01479
 H664 H 0.81080 0.89526 -0.02592
 N665 N 0.77111 0.89065 -0.00080
 C666 C 0.71066 0.88197 -0.00480
 H667 H 0.71081 0.86688 -0.00650
 C668 C 0.69367 0.89156 -0.00477
 H669 H 0.68067 0.88385 -0.00652
 C670 C 0.72741 0.91041 -0.00004
 H671 H 0.74059 0.91767 0.00184
 C672 C 0.71065 0.92058 0.00010
 H673 H 0.71094 0.93566 0.00213
 Zn674 Zn 0.74872 0.87616 -0.00082
 N675 N 0.72705 0.89140 -0.00211
 C676 C 0.73331 0.86437 0.03364
 N677 N 0.74791 0.86188 0.02163
 C678 C 0.76231 0.85014 0.02596
 C679 C 0.76218 0.84011 0.04282
 C680 C 0.73264 0.85464 0.05057
 C681 C 0.74657 0.86978 -0.03898
 C682 C 0.74751 0.85991 -0.05580
 C683 C 0.75165 0.83121 -0.03821
 C684 C 0.75062 0.84166 -0.02163
 N685 N 0.74849 0.86064 -0.02236
 H686 H 0.72226 0.87412 0.03031
 H687 H 0.77395 0.84870 0.01638
 H688 H 0.77369 0.83082 0.04621
 H689 H 0.72099 0.85680 0.06004
 H690 H 0.74479 0.88487 -0.03912
 H691 H 0.74639 0.86739 -0.06897
 H692 H 0.75374 0.81616 -0.03760
 H693 H 0.75187 0.83464 -0.00828
 C694 C 0.69363 0.91099 -0.00208
 C695 C 0.80473 0.91022 -0.00031
 C696 C 0.75030 0.84051 -0.05543
 C697 C 0.74718 0.84242 0.05522
 C698 C 0.27369 0.40163 0.51105
 H699 H 0.26351 0.40303 0.52218
 C700 C 0.29039 0.41198 0.51166
 H701 H 0.29305 0.42147 0.52322
 C702 C 0.28302 0.38720 0.48264
 H703 H 0.28040 0.37726 0.47154
 C704 C 0.29983 0.39723 0.48272
 H705 H 0.30990 0.39512 0.47158
 N706 N 0.27025 0.38966 0.49658
 C707 C 0.20982 0.38093 0.49237
 H708 H 0.20990 0.36582 0.49073
 C709 C 0.19287 0.39060 0.49239
 H710 H 0.17984 0.38295 0.49069
 C711 C 0.22671 0.40931 0.49699
 H712 H 0.23992 0.41652 0.49881
 C713 C 0.21001 0.41956 0.49712
 H714 H 0.21038 0.43464 0.49909
 Zn715 Zn 0.24794 0.37505 0.49640
 N716 N 0.22626 0.39028 0.49502
 C717 C 0.23250 0.36338 0.53089
 N718 N 0.24708 0.36080 0.51888
 C719 C 0.26147 0.34908 0.52327
 C720 C 0.26137 0.33917 0.54021
 C721 C 0.23186 0.35379 0.54790
 C722 C 0.24603 0.36865 0.45822
 C723 C 0.24690 0.35875 0.44141
 C724 C 0.25078 0.33005 0.45905
 C725 C 0.24984 0.34052 0.47561
 N726 N 0.24785 0.35953 0.47486
 H727 H 0.22146 0.37313 0.52753
 H728 H 0.27311 0.34758 0.51369
 H729 H 0.27289 0.32992 0.54366
 H730 H 0.22024 0.35605 0.55739
 H731 H 0.24435 0.38375 0.45806
 H732 H 0.24583 0.36622 0.42823
 H733 H 0.25273 0.31498 0.45968
 H734 H 0.25101 0.33351 0.48897
 C735 C 0.19294 0.41005 0.49502
 C736 C 0.30356 0.40973 0.49733
 C737 C 0.24950 0.33932 0.44181
 C738 C 0.24640 0.34160 0.55263
 C739 C 0.22635 0.59780 0.01073
 H740 H 0.23583 0.59626 0.02246
 C741 C 0.20931 0.58800 0.01051
 H742 H 0.20573 0.57878 0.02205
 C743 C 0.21904 0.61219 -0.01830
 H744 H 0.22254 0.62195 -0.02931
 C745 C 0.20195 0.60268 -0.01909
 H746 H 0.19259 0.60506 -0.03082
 N747 N 0.23095 0.60952 -0.00363
 C748 C 0.29183 0.61707 -0.00425
 H749 H 0.29222 0.63217 -0.00599
 C750 C 0.30851 0.60700 -0.00297
 H751 H 0.32182 0.61432 -0.00379
 C752 C 0.27400 0.58914 -0.00057
 H753 H 0.26053 0.58227 0.00043
 C754 C 0.29040 0.57851 0.00080
 H755 H 0.28953 0.56346 0.00289
 Zn756 Zn 0.25352 0.62373 -0.00254
 N757 N 0.27502 0.60813 -0.00265
 C758 C 0.26732 0.63557 0.03264
 N759 N 0.25328 0.63800 0.01995
 C760 C 0.23862 0.64963 0.02363
 C761 C 0.23792 0.65962 0.04050
 C762 C 0.26717 0.64527 0.04960
 C763 C 0.25744 0.63040 -0.04065
 C764 C 0.25672 0.64041 -0.05743
 C765 C 0.25163 0.66885 -0.03968
 C766 C 0.25245 0.65828 -0.02318
 N767 N 0.25486 0.63933 -0.02401
 H768 H 0.27856 0.62587 0.02984
 H769 H 0.22741 0.65100 0.01353
 H770 H 0.22619 0.66881 0.04338
 H771 H 0.27839 0.64316 0.05959
 H772 H 0.25940 0.61533 -0.04089
 H773 H 0.25822 0.63307 -0.07063
 H774 H 0.24919 0.68384 -0.03900
 H775 H 0.25067 0.66515 -0.00983
 C776 C 0.30780 0.58758 -0.00017
 C777 C 0.19701 0.59049 -0.00458
 C778 C 0.25348 0.65975 -0.05695
 C779 C 0.25235 0.65739 0.05359
 C780 C 0.72696 0.09969 0.51347
 H781 H 0.73665 0.09802 0.52500
 C782 C 0.70988 0.08997 0.51349
 H783 H 0.70643 0.08067 0.52500
 C784 C 0.71921 0.11425 0.48463
 H785 H 0.72259 0.12404 0.47359
 C786 C 0.70206 0.10484 0.48411
 H787 H 0.69248 0.10727 0.47259
 N788 N 0.73136 0.11145 0.49907
 C789 C 0.79226 0.11824 0.49760
 H790 H 0.79285 0.13335 0.49608
 C791 C 0.80881 0.10789 0.49843
 H792 H 0.82220 0.11503 0.49749
 C793 C 0.77408 0.09051 0.50109
 H794 H 0.76053 0.08381 0.50214
 C795 C 0.79034 0.07960 0.50199
 H796 H 0.78928 0.06453 0.50379
 Zn797 Zn 0.75409 0.12540 0.49973
 N798 N 0.77536 0.10951 0.49932
 C799 C 0.76848 0.13714 0.53473
 N800 N 0.75437 0.13976 0.52215
 C801 C 0.73993 0.15164 0.52591
 C802 C 0.73949 0.16164 0.54278
 C803 C 0.76858 0.14685 0.55169
 C804 C 0.75753 0.13177 0.46156
 C805 C 0.75695 0.14170 0.44474
 C806 C 0.75277 0.17038 0.46235
 C807 C 0.75343 0.15988 0.47891
 N808 N 0.75535 0.14087 0.47817
 H809 H 0.77954 0.12727 0.53185
 H810 H 0.72866 0.15316 0.51589
 H811 H 0.72792 0.17099 0.54574
 H812 H 0.77982 0.14455 0.56162
 H813 H 0.75911 0.11666 0.46141
 H814 H 0.75816 0.13425 0.43157
 H815 H 0.75073 0.18544 0.46296
 H816 H 0.75196 0.16688 0.49224
 C817 C 0.80785 0.08844 0.50088
 C818 C 0.69734 0.09260 0.49864
 C819 C 0.75427 0.16113 0.44512
 C820 C 0.75397 0.15918 0.55578
 C821 C 0.98769 0.72665 0.90245
 H822 H 0.97601 0.73619 0.90393
 C823 C 0.98781 0.71034 0.91184
 H824 H 0.97625 0.70673 0.92099
 C825 C 1.01707 0.72012 0.88786
 H826 H 1.02819 0.72359 0.87824
 C827 C 1.01783 0.70209 0.89794
 H828 H 1.02966 0.69282 0.89573
 N829 N 1.00300 0.73151 0.89024
 C830 C 1.00445 0.79340 0.88298
 H831 H 1.00635 0.79390 0.86796
 C832 C 1.00362 0.80931 0.89285
 H833 H 1.00492 0.82274 0.88581
 C834 C 1.00059 0.77433 0.91028
 H835 H 0.99926 0.76078 0.91694
 C836 C 0.99962 0.79158 0.92176
 H837 H 0.99759 0.79044 0.93676
 Zn838 Zn 1.00206 0.75422 0.87631
 N839 N 1.00244 0.77552 0.89216
 C840 C 0.96717 0.76859 0.86450
 N841 N 0.97960 0.75432 0.86210
 C842 C 0.97579 0.73977 0.85030
 C843 C 0.95907 0.73943 0.84008
 C844 C 0.95035 0.76880 0.85456
 C845 C 1.04015 0.75826 0.86952
 C846 C 1.05683 0.75797 0.85936
 C847 C 1.03881 0.75342 0.83104
 C848 C 1.02242 0.75380 0.84175
 N849 N 1.02343 0.75576 0.86069
 H850 H 0.97012 0.77977 0.87427
 H851 H 0.98573 0.72840 0.84892
 H852 H 0.95611 0.72782 0.83071
 H853 H 0.94056 0.78022 0.85659
 H854 H 1.04052 0.75992 0.88457
 H855 H 1.07010 0.75946 0.86659
 H856 H 1.03798 0.75139 0.81602
 H857 H 1.00899 0.75213 0.83496
 C858 C 1.00084 0.80837 0.91332
 C859 C 1.00378 0.69735 0.90943
 C860 C 1.05616 0.75526 0.84000
 C861 C 0.94626 0.75412 0.84224
 C862 C 0.48461 0.22892 0.40018
 H863 H 0.47291 0.23845 0.40161
 C864 C 0.48464 0.21187 0.40993
 H865 H 0.47300 0.20825 0.41897
 C866 C 0.51386 0.22161 0.38629
 H867 H 0.52505 0.22516 0.37677
 C868 C 0.51444 0.20449 0.39574
 H869 H 0.52617 0.19509 0.39362
 N870 N 0.49918 0.23353 0.38876
 C871 C 0.50016 0.29452 0.38239
 H872 H 0.50200 0.29520 0.36737
 C873 C 0.49894 0.31104 0.39280
 H874 H 0.49994 0.32451 0.38581
 C875 C 0.49624 0.27611 0.40982
 H876 H 0.49516 0.26249 0.41637
 C877 C 0.49494 0.29234 0.42078
 H878 H 0.49284 0.29118 0.43575
 Zn879 Zn 0.49840 0.25631 0.37497
 N880 N 0.49842 0.27752 0.39093
 C881 C 0.46349 0.27040 0.36281
 N882 N 0.47616 0.25634 0.36044
 C883 C 0.47276 0.24188 0.34841
 C884 C 0.45622 0.24144 0.33790
 C885 C 0.44684 0.27049 0.35260
 C886 C 0.53662 0.26014 0.36868
 C887 C 0.55337 0.25997 0.35866
 C888 C 0.53557 0.25631 0.33008
 C889 C 0.51909 0.25655 0.34065
 N890 N 0.51996 0.25799 0.35965
 H891 H 0.46610 0.28148 0.37278
 H892 H 0.48288 0.23068 0.34705
 H893 H 0.45358 0.22991 0.32834
 H894 H 0.43684 0.28174 0.35461
 H895 H 0.53686 0.26141 0.38377
 H896 H 0.56660 0.26116 0.36602
 H897 H 0.53485 0.25468 0.31501
 H898 H 0.50572 0.25521 0.33370
 C899 C 0.49609 0.30994 0.41212
 C900 C 0.49973 0.19957 0.40766
 C901 C 0.55285 0.25777 0.33922
 C902 C 0.44318 0.25592 0.34003
 C903 C 0.98487 0.27249 0.59955
 H904 H 0.97369 0.26227 0.59837
 C905 C 0.98407 0.28922 0.58927
 H906 H 0.97230 0.29182 0.58004
 C907 C 1.01359 0.28196 0.61342
 H908 H 1.02487 0.27939 0.62314
 C909 C 1.01334 0.29878 0.60345
 H910 H 1.02456 0.30889 0.60542
 N911 N 0.99958 0.26912 0.61122
 C912 C 1.00398 0.20864 0.62022
 H913 H 1.00588 0.20883 0.63525
 C914 C 1.00400 0.19161 0.61060
 H915 H 1.00598 0.17860 0.61821
 C916 C 0.99880 0.22538 0.59196
 H917 H 0.99679 0.23857 0.58477
 C918 C 0.99869 0.20858 0.58178
 H919 H 0.99653 0.20885 0.56676
 Zn920 Zn 1.00003 0.24691 0.62591
 N921 N 1.00108 0.22504 0.61089
 C922 C 0.96600 0.23135 0.63896
 N923 N 0.97794 0.24621 0.64065
 C924 C 0.97379 0.26102 0.65195
 C925 C 0.95716 0.26110 0.66232
 C926 C 0.94931 0.23086 0.64908
 C927 C 1.03838 0.24519 0.63172
 C928 C 1.05533 0.24633 0.64138
 C929 C 1.03799 0.25060 0.67014
 C930 C 1.02131 0.24937 0.65990
 N931 N 1.02185 0.24707 0.64098
 H932 H 0.96919 0.21995 0.62955
 H933 H 0.98332 0.27284 0.65275
 H934 H 0.95387 0.27296 0.67122
 H935 H 0.93987 0.21901 0.64755
 H936 H 1.03836 0.24326 0.61669
 H937 H 1.06841 0.24517 0.63377
 H938 H 1.03748 0.25277 0.68516
 H939 H 1.00803 0.25057 0.66702
 C940 C 1.00112 0.19155 0.59125
 C941 C 0.99848 0.30247 0.59127
 C942 C 1.05514 0.24928 0.66073
 C943 C 0.94483 0.24586 0.66083
 C944 C 0.48478 0.77107 0.10043
 H945 H 0.47355 0.76088 0.09937
 C946 C 0.48395 0.78778 0.09014
 H947 H 0.47212 0.79046 0.08102
 C948 C 0.51369 0.78042 0.11398
 H949 H 0.52506 0.77781 0.12358
 C950 C 0.51339 0.79724 0.10400
 H951 H 0.52464 0.80734 0.10580
 N952 N 0.49961 0.76764 0.11194
 C953 C 0.50367 0.70708 0.12069
 H954 H 0.50572 0.70715 0.13570
 C955 C 0.50317 0.69008 0.11101
 H956 H 0.50493 0.67700 0.11855
 C957 C 0.49847 0.72404 0.09257
 H958 H 0.49662 0.73729 0.08547
 C959 C 0.49786 0.70730 0.08232
 H960 H 0.49551 0.70769 0.06734
 Zn961 Zn 0.50007 0.74540 0.12659
 N962 N 0.50095 0.72358 0.11147
 C963 C 0.46594 0.72998 0.13944
 N964 N 0.47797 0.74475 0.14132
 C965 C 0.47381 0.75952 0.15269
 C966 C 0.45707 0.75965 0.16289
 C967 C 0.44915 0.72955 0.14937
 C968 C 0.53846 0.74354 0.13232
 C969 C 0.55543 0.74466 0.14196
 C970 C 0.53816 0.74907 0.17073
 C971 C 0.52146 0.74785 0.16052
 N972 N 0.52195 0.74549 0.14161
 H973 H 0.46911 0.71864 0.12996
 H974 H 0.48339 0.77129 0.15363
 H975 H 0.45376 0.77150 0.17180
 H976 H 0.43962 0.71779 0.14764
 H977 H 0.53842 0.74157 0.11730
 H978 H 0.56851 0.74345 0.13438
 H979 H 0.53773 0.75130 0.18573
 H980 H 0.50819 0.74911 0.16767
 C981 C 0.50000 0.69017 0.09170
 C982 C 0.49842 0.80096 0.09198
 C983 C 0.55528 0.74767 0.16129
 C984 C 0.44464 0.74451 0.16115
 O985 O 0.03490 0.99911 1.04704
 O986 O 0.03760 0.96950 1.03408
 O987 O 0.04224 1.03636 1.00002
 O988 O 0.02841 1.04231 0.97283
 O989 O -0.00375 1.04461 1.03917
 O990 O -0.03336 1.02990 1.04295
 O991 O -0.00857 0.98764 0.95194
 O992 O 0.02189 0.99760 0.95154
 O993 O -0.01337 0.94875 0.99618
 O994 O -0.00560 0.94890 1.02919
 O995 O -0.05291 0.99226 0.99140
 O996 O -0.05346 1.02511 0.99848
 O997 O -0.03454 1.00325 0.96195
 O998 O -0.03831 1.03512 0.97716
 O999 O -0.04274 0.96662 1.00742
 O1000 O -0.02728 0.96371 1.03889
 O1001 O 0.00173 0.95895 0.97001
 O1002 O 0.03386 0.97258 0.97046
 O1003 O 0.00866 1.01411 1.05736
 O1004 O -0.02425 1.00584 1.05690
 O1005 O 0.01182 1.05485 1.01329
 O1006 O 0.00181 1.05317 0.97992
 O1007 O 0.05261 1.01108 1.01655
 O1008 O 0.05105 0.97787 1.00641
 Zr1009 Zr 0.02894 0.99344 1.01876
 O1010 O 0.01251 0.97515 1.00237
 Zr1011 Zr 0.01356 1.03105 0.99586
 O1012 O -0.00288 1.01419 0.97805
 Zr1013 Zr -0.00891 1.01604 1.03369
 O1014 O -0.02686 0.99902 1.01748
 Zr1015 Zr 0.00849 0.98712 0.97584
 O1016 O 0.02644 1.00480 0.99160
 Zr1017 Zr -0.01451 0.97256 1.01363
 O1018 O 0.00263 0.98901 1.03144
 Zr1019 Zr -0.02933 1.01002 0.99026
 O1020 O -0.01346 1.02854 1.00736
 O1021 O 0.01764 1.02009 1.02247
 O1022 O -0.01838 0.98317 0.98670
 C1023 C 0.02497 1.00692 1.05984
 C1024 C 0.05509 1.02691 1.00831
 C1025 C 0.00432 1.05740 1.02941
 C1026 C -0.02485 0.99479 0.94937
 C1027 C -0.00643 0.94625 0.97981
 C1028 C -0.05538 0.97605 0.99882
 H1029 H 0.01890 0.96287 1.00142
 H1030 H -0.03914 0.99810 1.02380
 H1031 H 0.02572 1.02822 1.03033
 H1032 H -0.00371 1.02026 0.96563
 H1033 H 0.03370 1.00359 0.95576
 H1034 H 0.02619 1.03375 0.96216
 H1035 H -0.03810 0.97201 1.04130
 H1036 H -0.01921 0.99323 1.05979
 H1037 H 0.03250 0.96586 0.95837
 H1038 H 0.06256 0.97954 1.01405
 H1039 H -0.05653 1.02129 1.01144
 H1040 H -0.03757 1.03790 1.03243
 H1041 H 0.02672 0.96538 1.04163
 H1042 H 0.00694 0.94531 1.02456
 H1043 H -0.00985 1.05703 0.98634
 H1044 H -0.03019 1.03733 0.96615
 O1045 O 0.49525 0.54653 0.53881
 O1046 O 0.46550 0.53371 0.54168
 O1047 O 0.53216 0.49977 0.54693
 O1048 O 0.53749 0.47186 0.53397
 O1049 O 0.54059 0.53755 0.49991
 O1050 O 0.52563 0.54113 0.47049
 O1051 O 0.48304 0.45041 0.49721
 O1052 O 0.49320 0.45055 0.52766
 O1053 O 0.44471 0.49458 0.49140
 O1054 O 0.44492 0.52792 0.49881
 O1055 O 0.48815 0.48922 0.45213
 O1056 O 0.52118 0.49623 0.45169
 O1057 O 0.49854 0.45999 0.47098
 O1058 O 0.53047 0.47463 0.46688
 O1059 O 0.46265 0.50559 0.46195
 O1060 O 0.45970 0.53726 0.47688
 O1061 O 0.45469 0.46867 0.50715
 O1062 O 0.46817 0.46978 0.53928
 O1063 O 0.51050 0.55629 0.51246
 O1064 O 0.50190 0.55543 0.47969
 O1065 O 0.55064 0.51189 0.51602
 O1066 O 0.54865 0.47831 0.50711
 O1067 O 0.50693 0.51647 0.55698
 O1068 O 0.47376 0.50622 0.55578
 Zr1069 Zr 0.48932 0.51812 0.53336
 O1070 O 0.47097 0.50138 0.51733
 Zr1071 Zr 0.52670 0.49469 0.51845
 O1072 O 0.50979 0.47658 0.50238
 Zr1073 Zr 0.51197 0.53227 0.49523
 O1074 O 0.49490 0.51573 0.47766
 Zr1075 Zr 0.48277 0.47467 0.51384
 O1076 O 0.50047 0.49079 0.53145
 Zr1077 Zr 0.46846 0.51216 0.49010
 O1078 O 0.48498 0.53034 0.50683
 Zr1079 Zr 0.50573 0.48835 0.47573
 O1080 O 0.52428 0.50573 0.49123
 O1081 O 0.51594 0.52149 0.52194
 O1082 O 0.47893 0.48508 0.48678
 C1083 C 0.50336 0.55909 0.52874
 C1084 C 0.52277 0.50841 0.55958
 C1085 C 0.55332 0.52780 0.50802
 C1086 C 0.48999 0.44759 0.48089
 C1087 C 0.44214 0.47826 0.49861
 C1088 C 0.47207 0.49675 0.44948
 H1089 H 0.45872 0.50056 0.52374
 H1090 H 0.49406 0.52186 0.46527
 H1091 H 0.52418 0.52949 0.52977
 H1092 H 0.51574 0.46407 0.50176
 H1093 H 0.49900 0.45497 0.53947
 H1094 H 0.52916 0.46103 0.53153
 H1095 H 0.46825 0.53969 0.46625
 H1096 H 0.48936 0.55845 0.48478
 H1097 H 0.46158 0.45754 0.53821
 H1098 H 0.47547 0.51415 0.56709
 H1099 H 0.51705 0.50896 0.44801
 H1100 H 0.53351 0.53048 0.46638
 H1101 H 0.46146 0.54108 0.53065
 H1102 H 0.44119 0.52333 0.51134
 H1103 H 0.55233 0.48425 0.49513
 H1104 H 0.53263 0.46384 0.47532
 O1105 O 0.51021 0.01502 0.44394
 O1106 O 0.47922 0.00577 0.44370
 O1107 O 0.51248 0.05682 0.48776
 O1108 O 0.50696 0.05853 0.51825
 O1109 O 0.55431 0.01232 0.48548
 O1110 O 0.55391 -0.01985 0.49406
 O1111 O 0.46483 0.00744 0.53851
 O1112 O 0.46292 0.03666 0.52512
 O1113 O 0.45914 -0.03203 0.49515
 O1114 O 0.47432 -0.03684 0.46481
 O1115 O 0.50319 -0.03756 0.53345
 O1116 O 0.53342 -0.02253 0.53790
 O1117 O 0.49064 -0.00772 0.54963
 O1118 O 0.52461 0.00127 0.54983
 O1119 O 0.48830 -0.04894 0.50764
 O1120 O 0.49769 -0.04931 0.47396
 O1121 O 0.44849 -0.00603 0.51027
 O1122 O 0.44917 0.02597 0.49630
 O1123 O 0.53584 -0.00056 0.45495
 O1124 O 0.53967 -0.03016 0.47080
 O1125 O 0.54366 0.03863 0.50005
 O1126 O 0.52776 0.04148 0.53074
 O1127 O 0.49805 0.04559 0.46159
 O1128 O 0.46703 0.03006 0.46032
 Zr1129 Zr 0.49279 0.01709 0.46758
 O1130 O 0.47490 0.00012 0.48386
 Zr1131 Zr 0.51511 0.03320 0.50521
 O1132 O 0.49769 0.01740 0.52303
 Zr1133 Zr 0.53048 -0.00506 0.48363
 O1134 O 0.51418 -0.02264 0.50092
 Zr1135 Zr 0.47159 0.01240 0.51036
 O1136 O 0.48813 0.03045 0.49351
 Zr1137 Zr 0.48739 -0.02598 0.48914
 O1138 O 0.50436 -0.00991 0.47087
 Zr1139 Zr 0.50925 -0.00943 0.52678
 O1140 O 0.52779 0.00706 0.51038
 O1141 O 0.51933 0.02145 0.47895
 O1142 O 0.48278 -0.01417 0.51542
 C1143 C 0.52626 0.00719 0.44182
 C1144 C 0.50533 0.05884 0.47140
 C1145 C 0.55666 0.02868 0.49266
 C1146 C 0.47425 -0.00058 0.55157
 C1147 C 0.44633 -0.02255 0.50344
 C1148 C 0.49510 -0.05069 0.52417
 H1149 H 0.46270 -0.00121 0.47742
 H1150 H 0.52067 -0.03478 0.50247
 H1151 H 0.52738 0.02939 0.47086
 H1152 H 0.49616 0.02419 0.53501
 H1153 H 0.46584 0.04756 0.51701
 H1154 H 0.49537 0.05576 0.52530
 H1155 H 0.50909 -0.05385 0.48039
 H1156 H 0.52953 -0.03421 0.46223
 H1157 H 0.43803 0.02555 0.50459
 H1158 H 0.46876 0.03732 0.44857
 H1159 H 0.53756 -0.03211 0.52879
 H1160 H 0.55589 -0.01540 0.50705
 H1161 H 0.48322 -0.00749 0.44269
 H1162 H 0.46452 -0.02785 0.46091
 H1163 H 0.53766 0.03219 0.53354
 H1164 H 0.51828 0.01280 0.55420
 O1165 O -0.04078 0.46742 0.99619
 O1166 O -0.02752 0.46457 0.96669
 O1167 O 0.00565 0.46044 1.03385
 O1168 O 0.03320 0.47406 1.03950
 O1169 O -0.03295 0.50681 1.04148
 O1170 O -0.03679 0.53623 1.02632
 O1171 O 0.05459 0.51092 0.98519
 O1172 O 0.05484 0.48049 0.99556
 O1173 O 0.01072 0.51536 0.94615
 O1174 O -0.02246 0.50735 0.94609
 O1175 O 0.01500 0.55539 0.98927
 O1176 O 0.00780 0.55616 1.02202
 O1177 O 0.04445 0.53714 1.00041
 O1178 O 0.02921 0.54120 1.03205
 O1179 O -0.00090 0.54494 0.96367
 O1180 O -0.03211 0.52943 0.96036
 O1181 O 0.03673 0.50017 0.95659
 O1182 O 0.03614 0.46817 0.97046
 O1183 O -0.05112 0.49376 1.01111
 O1184 O -0.05066 0.52660 1.00244
 O1185 O -0.00717 0.49123 1.05193
 O1186 O 0.02611 0.50097 1.05043
 O1187 O -0.01070 0.44987 1.00853
 O1188 O -0.00003 0.45094 0.97561
 Zr1189 Zr -0.01245 0.47337 0.99072
 O1190 O 0.00419 0.48962 0.97253
 Zr1191 Zr 0.01028 0.48908 1.02829
 O1192 O 0.02825 0.50544 1.01154
 Zr1193 Zr -0.02744 0.51150 1.01292
 O1194 O -0.01106 0.52930 0.99594
 Zr1195 Zr 0.03065 0.49376 0.98467
 O1196 O 0.01466 0.47592 1.00224
 Zr1197 Zr -0.00701 0.51667 0.96967
 O1198 O -0.02504 0.49969 0.98606
 Zr1199 Zr 0.01611 0.53190 1.00709
 O1200 O -0.00115 0.51616 1.02551
 O1201 O -0.01629 0.48495 1.01720
 O1202 O 0.01985 0.52066 0.98043
 C1203 C -0.05358 0.47735 1.00399
 C1204 C -0.00275 0.44754 1.02447
 C1205 C -0.02323 0.49890 1.05436
 C1206 C 0.05710 0.52736 0.99215
 C1207 C 0.02708 0.50832 0.94382
 C1208 C 0.00759 0.55773 0.97308
 H1209 H 0.00524 0.48308 0.96036
 H1210 H -0.01737 0.54159 0.99490
 H1211 H -0.02425 0.47700 1.02535
 H1212 H 0.04064 0.50636 1.01768
 H1213 H 0.05056 0.46865 1.00147
 H1214 H 0.04408 0.47676 1.03138
 H1215 H -0.03487 0.54003 0.96887
 H1216 H -0.05344 0.52140 0.98988
 H1217 H 0.04837 0.46941 0.96400
 H1218 H -0.00784 0.43950 0.97720
 H1219 H -0.00507 0.55930 1.01798
 H1220 H -0.02633 0.54056 1.03437
 H1221 H -0.03511 0.47541 0.96255
 H1222 H -0.01757 0.49489 0.94245
 H1223 H 0.01988 0.51286 1.05396
 H1224 H 0.04014 0.53302 1.03442
 O1225 O 0.00910 0.44315 0.50859
 O1226 O 0.00040 0.44290 0.47747
 O1227 O 0.04958 0.48822 0.51194
 O1228 O 0.05064 0.51891 0.50705
 O1229 O 0.00415 0.48420 0.55287
 O1230 O -0.02808 0.49195 0.55183
 O1231 O 0.00008 0.53817 0.46381
 O1232 O 0.02974 0.52557 0.46252
 O1233 O -0.03796 0.49385 0.45694
 O1234 O -0.04245 0.46315 0.47162
 O1235 O -0.04540 0.53165 0.50116
 O1236 O -0.03129 0.53615 0.53171
 O1237 O -0.01584 0.54869 0.48939
 O1238 O -0.00750 0.54873 0.52362
 O1239 O -0.05577 0.50564 0.48575
 O1240 O -0.05559 0.47167 0.49491
 O1241 O -0.01214 0.50982 0.44702
 O1242 O 0.02004 0.49653 0.44826
 O1243 O -0.00733 0.45352 0.53394
 O1244 O -0.03745 0.46848 0.53706
 O1245 O 0.03030 0.49962 0.54296
 O1246 O 0.03279 0.53073 0.52734
 O1247 O 0.03932 0.46187 0.49700
 O1248 O 0.02441 0.46031 0.46577
 Zr1249 Zr 0.01084 0.46706 0.49135
 O1250 O -0.00603 0.48314 0.47327
 Zr1251 Zr 0.02550 0.50499 0.51436
 O1252 O 0.00975 0.52265 0.49676
 Zr1253 Zr -0.01251 0.48216 0.52865
 O1254 O -0.03006 0.49924 0.51217
 Zr1255 Zr 0.00568 0.51006 0.47049
 O1256 O 0.02366 0.49347 0.48723
 Zr1257 Zr -0.03247 0.48763 0.48523
 O1258 O -0.01643 0.46952 0.50235
 Zr1259 Zr -0.01736 0.52557 0.50779
 O1260 O -0.00099 0.50933 0.52651
 O1261 O 0.01431 0.47831 0.51805
 O1262 O -0.02118 0.51432 0.48115
 C1263 C 0.00103 0.44068 0.52448
 C1264 C 0.05215 0.47199 0.50457
 C1265 C 0.02022 0.49181 0.55565
 C1266 C -0.00849 0.55094 0.47313
 C1267 C -0.02841 0.50260 0.44445
 C1268 C -0.05806 0.52211 0.49262
 H1269 H -0.00693 0.47679 0.46098
 H1270 H -0.04236 0.50041 0.51840
 H1271 H 0.02227 0.47035 0.52617
 H1272 H 0.01627 0.53485 0.49548
 H1273 H 0.04071 0.51767 0.46560
 H1274 H 0.04810 0.52578 0.49530
 H1275 H -0.06064 0.47797 0.50616
 H1276 H -0.04093 0.45980 0.52679
 H1277 H 0.01968 0.50493 0.43719
 H1278 H 0.03191 0.44873 0.46755
 H1279 H -0.04059 0.52663 0.53567
 H1280 H -0.02398 0.50506 0.55406
 H1281 H -0.01288 0.44151 0.48120
 H1282 H -0.03309 0.45952 0.46209
 H1283 H 0.02329 0.53313 0.53714
 H1284 H 0.00387 0.55368 0.51740
 O1285 O 0.50898 0.94253 0.00863
 O1286 O 0.50080 0.94245 -0.02262
 O1287 O 0.54932 0.98759 0.01302
 O1288 O 0.55044 1.01830 0.00833
 O1289 O 0.50308 0.98326 0.05304
 O1290 O 0.47087 0.99100 0.05142
 O1291 O 0.50069 1.03783 -0.03567
 O1292 O 0.53044 1.02529 -0.03644
 O1293 O 0.46289 0.99358 -0.04364
 O1294 O 0.45807 0.96278 -0.02926
 O1295 O 0.45458 1.03108 0.00064
 O1296 O 0.46828 1.03503 0.03185
 O1297 O 0.48428 1.04818 -0.01033
 O1298 O 0.49176 1.04820 0.02384
 O1299 O 0.44450 1.00521 -0.01518
 O1300 O 0.44447 0.97116 -0.00615
 O1301 O 0.48893 1.00960 -0.05291
 O1302 O 0.52110 0.99635 -0.05109
 O1303 O 0.49202 0.95271 0.03369
 O1304 O 0.46183 0.96758 0.03633
 O1305 O 0.52945 0.99869 0.04373
 O1306 O 0.53220 1.02991 0.02853
 O1307 O 0.53938 0.96134 -0.00232
 O1308 O 0.52502 0.95994 -0.03380
 Zr1309 Zr 0.51099 0.96654 -0.00844
 O1310 O 0.49447 0.98275 -0.02674
 Zr1311 Zr 0.52518 1.00431 0.01511
 O1312 O 0.50977 1.02210 -0.00264
 Zr1313 Zr 0.48690 0.98138 0.02849
 O1314 O 0.46966 0.99857 0.01178
 Zr1315 Zr 0.50624 1.00969 -0.02908
 O1316 O 0.52388 0.99297 -0.01212
 Zr1317 Zr 0.46779 0.98716 -0.01528
 O1318 O 0.48350 0.96892 0.00203
 Zr1319 Zr 0.48245 1.02492 0.00787
 O1320 O 0.49847 1.00856 0.02676
 O1321 O 0.51393 0.97760 0.01839
 O1322 O 0.47917 1.01386 -0.01892
 C1323 C 0.50062 0.93995 0.02434
 C1324 C 0.55205 0.97142 0.00558
 C1325 C 0.51913 0.99078 0.05616
 C1326 C 0.49191 1.05052 -0.02645
 C1327 C 0.47271 1.00241 -0.05587
 C1328 C 0.44210 1.02165 -0.00826
 H1329 H 0.49383 0.97649 -0.03909
 H1330 H 0.45723 0.99969 0.01776
 H1331 H 0.52174 0.96960 0.02660
 H1332 H 0.51629 1.03432 -0.00371
 H1333 H 0.54136 1.01742 -0.03313
 H1334 H 0.54802 1.02554 -0.00323
 H1335 H 0.43913 0.97745 0.00498
 H1336 H 0.45851 0.95906 0.02589
 H1337 H 0.52097 1.00483 -0.06211
 H1338 H 0.53246 0.94833 -0.03196
 H1339 H 0.45832 1.02589 0.03501
 H1340 H 0.47479 1.00415 0.05370
 H1341 H 0.48746 0.94102 -0.01912
 H1342 H 0.46768 0.95915 -0.03855
 H1343 H 0.52241 1.03227 0.03804
 H1344 H 0.50355 1.05284 0.01821
 O1345 O 0.54333 0.45985 0.00506
 O1346 O 0.53028 0.45710 0.03475
 O1347 O 0.49682 0.45194 -0.03223
 O1348 O 0.46906 0.46504 -0.03769
 O1349 O 0.53491 0.49883 -0.04040
 O1350 O 0.53865 0.52838 -0.02550
 O1351 O 0.44773 0.50230 0.01646
 O1352 O 0.44757 0.47176 0.00632
 O1353 O 0.49186 0.50756 0.05511
 O1354 O 0.52498 0.50016 0.05507
 O1355 O 0.48689 0.54713 0.01159
 O1356 O 0.49406 0.54754 -0.02141
 O1357 O 0.45762 0.52847 0.00090
 O1358 O 0.47238 0.53244 -0.03083
 O1359 O 0.50299 0.53716 0.03722
 O1360 O 0.53451 0.52205 0.04032
 O1361 O 0.46588 0.49194 0.04501
 O1362 O 0.46656 0.45984 0.03138
 O1363 O 0.55335 0.48621 -0.01015
 O1364 O 0.55274 0.51908 -0.00163
 O1365 O 0.50920 0.48282 -0.05060
 O1366 O 0.47580 0.49199 -0.04893
 O1367 O 0.51332 0.44180 -0.00687
 O1368 O 0.50287 0.44302 0.02614
 Zr1369 Zr 0.51499 0.46548 0.01073
 O1370 O 0.49836 0.48169 0.02888
 Zr1371 Zr 0.49191 0.48054 -0.02682
 O1372 O 0.47392 0.49681 -0.01010
 Zr1373 Zr 0.52955 0.50363 -0.01186
 O1374 O 0.51314 0.52138 0.00503
 Zr1375 Zr 0.47177 0.48538 0.01691
 O1376 O 0.48778 0.46758 -0.00061
 Zr1377 Zr 0.50937 0.50892 0.03144
 O1378 O 0.52741 0.49201 0.01511
 Zr1379 Zr 0.48590 0.52347 -0.00600
 O1380 O 0.50315 0.50779 -0.02437
 O1381 O 0.51857 0.47690 -0.01585
 O1382 O 0.48242 0.51245 0.02080
 C1383 C 0.55599 0.46987 -0.00296
 C1384 C 0.50536 0.43923 -0.02278
 C1385 C 0.52517 0.49072 -0.05317
 C1386 C 0.44510 0.51867 0.00940
 C1387 C 0.47557 0.50034 0.05763
 C1388 C 0.49433 0.54973 0.02773
 H1389 H 0.49744 0.47526 0.04113
 H1390 H 0.51936 0.53376 0.00591
 H1391 H 0.52654 0.46900 -0.02400
 H1392 H 0.46148 0.49751 -0.01615
 H1393 H 0.45186 0.45990 0.00050
 H1394 H 0.45821 0.46767 -0.02953
 H1395 H 0.53697 0.53278 0.03186
 H1396 H 0.55563 0.51398 0.01094
 H1397 H 0.45436 0.46097 0.03790
 H1398 H 0.51074 0.43167 0.02456
 H1399 H 0.50671 0.55124 -0.01707
 H1400 H 0.52809 0.53257 -0.03345
 H1401 H 0.53794 0.46803 0.03866
 H1402 H 0.52047 0.48751 0.05864
 H1403 H 0.48186 0.50397 -0.05257
 H1404 H 0.46164 0.52394 -0.03315
 O1405 O -0.05232 0.00279 0.51706
 O1406 O -0.05218 -0.02838 0.50775
 O1407 O -0.00692 0.00620 0.55682
 O1408 O 0.02376 0.00124 0.55734
 O1409 O -0.01195 0.04792 0.51245
 O1410 O -0.00472 0.04777 0.48011
 O1411 O 0.04287 -0.04051 0.50530
 O1412 O 0.03092 -0.04260 0.53523
 O1413 O -0.00190 -0.04715 0.46814
 O1414 O -0.03268 -0.03283 0.46444
 O1415 O 0.03515 -0.00193 0.46097
 O1416 O 0.03951 0.02846 0.47592
 O1417 O 0.05278 -0.01430 0.48982
 O1418 O 0.05263 0.01977 0.49906
 O1419 O 0.00928 -0.01761 0.45074
 O1420 O -0.02471 -0.00901 0.45173
 O1421 O 0.01444 -0.05753 0.49347
 O1422 O 0.00190 -0.05712 0.52591
 O1423 O -0.04248 0.02875 0.50108
 O1424 O -0.02804 0.03282 0.47080
 O1425 O 0.00405 0.03767 0.53806
 O1426 O 0.03519 0.02238 0.53978
 O1427 O -0.03318 -0.00898 0.54672
 O1428 O -0.03431 -0.04010 0.53147
 Zr1429 Zr -0.02822 -0.01415 0.51811
 O1430 O -0.01222 -0.03165 0.50057
 Zr1431 Zr 0.00957 0.00914 0.53259
 O1432 O 0.02715 -0.00788 0.51615
 Zr1433 Zr -0.01394 0.02400 0.49530
 O1434 O 0.00301 0.00814 0.47712
 Zr1435 Zr 0.01486 -0.03433 0.51171
 O1436 O -0.00163 -0.01819 0.53035
 Zr1437 Zr -0.00830 -0.01899 0.47433
 O1438 O -0.02633 -0.00247 0.49105
 Zr1439 Zr 0.02950 0.00386 0.48927
 O1440 O 0.01334 0.02199 0.50632
 O1441 O -0.01724 0.01271 0.52192
 O1442 O 0.01854 -0.02295 0.48504
 C1443 C -0.05507 0.01888 0.50940
 C1444 C -0.02305 -0.00134 0.55949
 C1445 C -0.00411 0.05048 0.52842
 C1446 C 0.05534 -0.03077 0.49669
 C1447 C 0.00700 -0.05981 0.47728
 C1448 C 0.02555 -0.01034 0.44830
 H1449 H -0.01844 -0.04404 0.49953
 H1450 H 0.00391 0.01470 0.46496
 H1451 H -0.02516 0.02059 0.53014
 H1452 H 0.03945 -0.00914 0.52240
 H1453 H 0.02324 -0.03987 0.54644
 H1454 H 0.03109 -0.01010 0.55427
 H1455 H -0.01867 0.00251 0.44685
 H1456 H -0.03668 0.02251 0.46727
 H1457 H 0.01043 -0.06807 0.52523
 H1458 H -0.04590 -0.03869 0.53900
 H1459 H 0.02999 0.03234 0.46663
 H1460 H 0.00840 0.05011 0.48399
 H1461 H -0.05397 -0.02419 0.49466
 H1462 H -0.03615 -0.04253 0.47374
 H1463 H 0.03742 0.03235 0.53037
 H1464 H 0.05780 0.01333 0.51019
 O1465 O 0.73893 0.19766 0.26320
 O1466 O 0.77002 0.19744 0.25483
 O1467 O 0.73550 0.24293 0.30343
 O1468 O 0.74100 0.27360 0.30424
 O1469 O 0.69458 0.23883 0.25820
 O1470 O 0.69550 0.24630 0.22592
 O1471 O 0.78394 0.29257 0.25326
 O1472 O 0.78516 0.28034 0.28314
 O1473 O 0.79046 0.24810 0.21583
 O1474 O 0.77561 0.21732 0.21166
 O1475 O 0.74617 0.28578 0.20800
 O1476 O 0.71560 0.29034 0.22249
 O1477 O 0.75837 0.30303 0.23724
 O1478 O 0.72425 0.30338 0.24572
 O1479 O 0.76154 0.25973 0.19791
 O1480 O 0.75240 0.22581 0.19842
 O1481 O 0.80055 0.26404 0.24157
 O1482 O 0.79931 0.25117 0.27384
 O1483 O 0.71352 0.20793 0.24678
 O1484 O 0.71004 0.22285 0.21672
 O1485 O 0.70465 0.25451 0.28411
 O1486 O 0.72038 0.28542 0.28642
 O1487 O 0.75029 0.21650 0.29337
 O1488 O 0.78166 0.21515 0.27867
 Zr1489 Zr 0.75609 0.22164 0.26492
 O1490 O 0.77418 0.23759 0.24785
 Zr1491 Zr 0.73328 0.25967 0.27925
 O1492 O 0.75087 0.27722 0.26328
 Zr1493 Zr 0.71874 0.23661 0.24150
 O1494 O 0.73524 0.25355 0.22375
 Zr1495 Zr 0.77709 0.26457 0.25931
 O1496 O 0.76036 0.24811 0.27749
 Zr1497 Zr 0.76214 0.24191 0.22140
 O1498 O 0.74501 0.22393 0.23765
 Zr1499 Zr 0.73977 0.27997 0.23617
 O1500 O 0.72107 0.26385 0.25276
 O1501 O 0.72941 0.23291 0.26831
 O1502 O 0.76637 0.26866 0.23243
 C1503 C 0.72307 0.19511 0.25508
 C1504 C 0.74270 0.22665 0.30610
 C1505 C 0.69189 0.24664 0.27415
 C1506 C 0.77471 0.30527 0.24448
 C1507 C 0.80304 0.25677 0.22535
 C1508 C 0.75463 0.27615 0.19543
 H1509 H 0.78644 0.23120 0.24701
 H1510 H 0.72895 0.25463 0.21146
 H1511 H 0.72126 0.22498 0.27629
 H1512 H 0.75224 0.28948 0.26963
 H1513 H 0.78210 0.27255 0.29422
 H1514 H 0.75241 0.28095 0.30140
 H1515 H 0.74109 0.23201 0.19338
 H1516 H 0.72030 0.21425 0.21315
 H1517 H 0.81039 0.25960 0.27347
 H1518 H 0.77989 0.20359 0.28625
 H1519 H 0.71179 0.28096 0.21299
 H1520 H 0.69336 0.25946 0.22985
 H1521 H 0.76649 0.19606 0.24149
 H1522 H 0.78533 0.21388 0.22091
 H1523 H 0.71081 0.28797 0.27671
 H1524 H 0.73051 0.30834 0.25706
 O1525 O 0.71637 0.70810 0.75280
 O1526 O 0.71381 0.72124 0.78230
 O1527 O 0.70963 0.75505 0.71544
 O1528 O 0.72360 0.78250 0.70985
 O1529 O 0.75517 0.71565 0.70728
 O1530 O 0.78475 0.71154 0.72204
 O1531 O 0.76110 0.80305 0.76419
 O1532 O 0.73066 0.80385 0.75400
 O1533 O 0.76523 0.75875 0.80281
 O1534 O 0.75687 0.72565 0.80266
 O1535 O 0.80482 0.76298 0.75932
 O1536 O 0.80515 0.75582 0.72644
 O1537 O 0.78693 0.79267 0.74858
 O1538 O 0.79046 0.77758 0.71676
 O1539 O 0.79442 0.74710 0.78495
 O1540 O 0.77863 0.71579 0.78809
 O1541 O 0.75035 0.78510 0.79267
 O1542 O 0.71829 0.78507 0.77905
 O1543 O 0.74245 0.69751 0.73771
 O1544 O 0.77531 0.69756 0.74588
 O1545 O 0.73995 0.74178 0.69707
 O1546 O 0.75023 0.77508 0.69873
 O1547 O 0.69909 0.73861 0.74071
 O1548 O 0.70060 0.74910 0.77373
 Zr1549 Zr 0.72266 0.73643 0.75836
 O1550 O 0.73925 0.75276 0.77655
 Zr1551 Zr 0.73830 0.75923 0.72082
 O1552 O 0.75498 0.77694 0.73759
 Zr1553 Zr 0.76034 0.72106 0.73578
 O1554 O 0.77845 0.73714 0.75272
 Zr1555 Zr 0.74362 0.77931 0.76458
 O1556 O 0.72546 0.76364 0.74702
 Zr1557 Zr 0.76612 0.74118 0.77912
 O1558 O 0.74881 0.72345 0.76274
 Zr1559 Zr 0.78126 0.76440 0.74170
 O1560 O 0.76518 0.74741 0.72329
 O1561 O 0.73395 0.73258 0.73178
 O1562 O 0.77033 0.76811 0.76849
 C1563 C 0.72612 0.69519 0.74493
 C1564 C 0.69673 0.74674 0.72485
 C1565 C 0.74727 0.72554 0.69452
 C1566 C 0.77747 0.80539 0.75711
 C1567 C 0.75847 0.77524 0.80531
 C1568 C 0.80718 0.75555 0.77550
 H1569 H 0.73285 0.75380 0.78878
 H1570 H 0.79065 0.73067 0.75363
 H1571 H 0.72583 0.72474 0.72368
 H1572 H 0.75601 0.78939 0.73154
 H1573 H 0.71873 0.79978 0.74816
 H1574 H 0.72637 0.79328 0.71814
 H1575 H 0.78933 0.71315 0.77970
 H1576 H 0.77031 0.69478 0.75852
 H1577 H 0.71977 0.79726 0.78560
 H1578 H 0.68907 0.74143 0.77218
 H1579 H 0.80824 0.74291 0.73047
 H1580 H 0.78900 0.72197 0.71390
 H1581 H 0.72462 0.71363 0.78645
 H1582 H 0.74449 0.73061 0.80637
 H1583 H 0.76192 0.76863 0.69501
 H1584 H 0.78243 0.78866 0.71454
 O1585 O 0.28497 0.20943 0.74453
 O1586 O 0.28712 0.22267 0.71488
 O1587 O 0.29288 0.25584 0.78197
 O1588 O 0.27952 0.28347 0.78788
 O1589 O 0.24664 0.21705 0.79050
 O1590 O 0.21698 0.21315 0.77597
 O1591 O 0.24154 0.30484 0.73433
 O1592 O 0.27211 0.30524 0.74409
 O1593 O 0.23619 0.26091 0.69541
 O1594 O 0.24387 0.22776 0.69511
 O1595 O 0.19721 0.26506 0.73950
 O1596 O 0.19739 0.25765 0.77245
 O1597 O 0.21573 0.29458 0.75014
 O1598 O 0.21232 0.27948 0.78180
 O1599 O 0.20699 0.24928 0.71361
 O1600 O 0.22230 0.21790 0.71005
 O1601 O 0.25166 0.28701 0.70552
 O1602 O 0.28386 0.28651 0.71875
 O1603 O 0.25900 0.19896 0.75999
 O1604 O 0.22606 0.19928 0.75186
 O1605 O 0.26252 0.24288 0.80069
 O1606 O 0.25291 0.27624 0.79942
 O1607 O 0.30278 0.23962 0.75634
 O1608 O 0.30098 0.25027 0.72340
 Zr1609 Zr 0.27895 0.23778 0.73907
 O1610 O 0.26238 0.25443 0.72125
 Zr1611 Zr 0.26422 0.26045 0.77701
 O1612 O 0.24759 0.27845 0.76062
 Zr1613 Zr 0.24138 0.22261 0.76206
 O1614 O 0.22329 0.23902 0.74551
 Zr1615 Zr 0.25862 0.28093 0.73349
 O1616 O 0.27676 0.26493 0.75066
 Zr1617 Zr 0.23530 0.24314 0.71897
 O1618 O 0.25256 0.22508 0.73495
 Zr1619 Zr 0.22106 0.26621 0.75676
 O1620 O 0.23712 0.24892 0.77481
 O1621 O 0.26798 0.23386 0.76579
 O1622 O 0.23166 0.27004 0.72985
 C1623 C 0.27524 0.19658 0.75262
 C1624 C 0.30550 0.24750 0.77227
 C1625 C 0.25484 0.22675 0.80324
 C1626 C 0.22530 0.30728 0.74163
 C1627 C 0.24324 0.27732 0.69291
 C1628 C 0.19449 0.25770 0.72334
 H1629 H 0.26863 0.25550 0.70894
 H1630 H 0.21098 0.23266 0.74474
 H1631 H 0.27606 0.22592 0.77378
 H1632 H 0.24685 0.29086 0.76677
 H1633 H 0.28406 0.30101 0.74971
 H1634 H 0.27668 0.29437 0.77980
 H1635 H 0.21182 0.21520 0.71871
 H1636 H 0.23101 0.19653 0.73921
 H1637 H 0.28252 0.29879 0.71233
 H1638 H 0.31243 0.24252 0.72482
 H1639 H 0.19384 0.24492 0.76814
 H1640 H 0.21285 0.22361 0.78410
 H1641 H 0.27623 0.21494 0.71105
 H1642 H 0.25637 0.23245 0.69139
 H1643 H 0.24108 0.26999 0.80314
 H1644 H 0.22070 0.29033 0.78408
 O1645 O 0.20633 0.74520 0.28379
 O1646 O 0.21976 0.71580 0.28660
 O1647 O 0.25274 0.78334 0.29086
 O1648 O 0.28023 0.78908 0.27718
 O1649 O 0.21373 0.79099 0.24494
 O1650 O 0.20978 0.77607 0.21546
 O1651 O 0.30140 0.73503 0.24013
 O1652 O 0.30181 0.74513 0.27052
 O1653 O 0.25757 0.69568 0.23542
 O1654 O 0.22450 0.69535 0.24356
 O1655 O 0.26149 0.73914 0.19585
 O1656 O 0.25425 0.77195 0.19528
 O1657 O 0.29107 0.75041 0.21410
 O1658 O 0.27561 0.78212 0.21027
 O1659 O 0.24570 0.71336 0.20620
 O1660 O 0.21450 0.70993 0.22188
 O1661 O 0.28372 0.70619 0.25043
 O1662 O 0.28326 0.71966 0.28255
 O1663 O 0.19577 0.76025 0.25764
 O1664 O 0.19604 0.75199 0.22484
 O1665 O 0.23964 0.80152 0.26035
 O1666 O 0.27287 0.80024 0.25053
 O1667 O 0.23654 0.75781 0.30132
 O1668 O 0.24733 0.72478 0.30001
 Zr1669 Zr 0.23467 0.74002 0.27781
 O1670 O 0.25117 0.72192 0.26140
 Zr1671 Zr 0.25718 0.77788 0.26227
 O1672 O 0.27503 0.76125 0.24577
 Zr1673 Zr 0.21933 0.76243 0.23996
 O1674 O 0.23559 0.74559 0.22203
 Zr1675 Zr 0.27757 0.73423 0.25724
 O1676 O 0.26173 0.75169 0.27522
 Zr1677 Zr 0.23977 0.71918 0.23445
 O1678 O 0.22189 0.73544 0.25158
 Zr1679 Zr 0.26272 0.75691 0.21939
 O1680 O 0.24555 0.77522 0.23528
 O1681 O 0.23066 0.76661 0.26642
 O1682 O 0.26659 0.73012 0.23044
 C1683 C 0.19343 0.75293 0.27393
 C1684 C 0.24446 0.77385 0.30371
 C1685 C 0.22349 0.80391 0.25285
 C1686 C 0.30380 0.74215 0.22380
 C1687 C 0.27405 0.69340 0.24223
 C1688 C 0.25411 0.72286 0.19347
 H1689 H 0.25230 0.70965 0.26781
 H1690 H 0.22919 0.74460 0.20979
 H1691 H 0.22271 0.77467 0.27443
 H1692 H 0.28740 0.76747 0.24485
 H1693 H 0.29761 0.75082 0.28244
 H1694 H 0.29105 0.78089 0.27450
 H1695 H 0.21181 0.71832 0.21118
 H1696 H 0.19331 0.73933 0.22991
 H1697 H 0.29551 0.71327 0.28119
 H1698 H 0.23969 0.72637 0.31150
 H1699 H 0.24129 0.76801 0.19230
 H1700 H 0.22014 0.78431 0.21123
 H1701 H 0.21220 0.71155 0.27577
 H1702 H 0.22946 0.69164 0.25595
 H1703 H 0.26656 0.80385 0.23872
 H1704 H 0.28666 0.78446 0.21833
 O1705 O 0.24805 0.78717 0.70729
 O1706 O 0.21839 0.78992 0.72031
 O1707 O 0.28523 0.79484 0.75410
 O1708 O 0.29039 0.78155 0.78186
 O1709 O 0.29365 0.74853 0.71579
 O1710 O 0.27890 0.71882 0.71198
 O1711 O 0.23623 0.74396 0.80256
 O1712 O 0.24632 0.77451 0.80295
 O1713 O 0.19772 0.73912 0.75813
 O1714 O 0.19809 0.74683 0.72502
 O1715 O 0.24122 0.69943 0.76307
 O1716 O 0.27423 0.69918 0.75615
 O1717 O 0.25181 0.71790 0.79261
 O1718 O 0.28357 0.71406 0.77798
 O1719 O 0.21567 0.70959 0.74697
 O1720 O 0.21271 0.72484 0.71564
 O1721 O 0.20771 0.75447 0.78427
 O1722 O 0.22139 0.78654 0.78393
 O1723 O 0.26331 0.76094 0.69722
 O1724 O 0.25510 0.72806 0.69766
 O1725 O 0.30363 0.76425 0.74172
 O1726 O 0.30178 0.75465 0.77496
 O1727 O 0.26003 0.80506 0.73742
 O1728 O 0.22701 0.80377 0.74782
 Zr1729 Zr 0.24235 0.78140 0.73560
 O1730 O 0.22407 0.76501 0.75200
 Zr1731 Zr 0.27974 0.76621 0.75884
 O1732 O 0.26288 0.74970 0.77657
 Zr1733 Zr 0.26506 0.74343 0.72098
 O1734 O 0.24798 0.72552 0.73712
 Zr1735 Zr 0.23587 0.76108 0.77862
 O1736 O 0.25350 0.77908 0.76286
 Zr1737 Zr 0.22154 0.73788 0.74081
 O1738 O 0.23806 0.75496 0.72300
 Zr1739 Zr 0.25882 0.72314 0.76440
 O1740 O 0.27736 0.73905 0.74742
 O1741 O 0.26896 0.77007 0.73212
 O1742 O 0.23199 0.73409 0.76780
 C1743 C 0.25604 0.77723 0.69461
 C1744 C 0.27591 0.80759 0.74549
 C1745 C 0.30633 0.75662 0.72568
 C1746 C 0.24332 0.72761 0.80515
 C1747 C 0.19510 0.74625 0.77441
 C1748 C 0.22511 0.69691 0.75551
 H1749 H 0.21183 0.77143 0.75286
 H1750 H 0.24712 0.71319 0.73081
 H1751 H 0.27713 0.77806 0.72422
 H1752 H 0.26886 0.74889 0.78903
 H1753 H 0.25225 0.78637 0.79875
 H1754 H 0.28234 0.77853 0.79271
 H1755 H 0.22131 0.71429 0.71307
 H1756 H 0.24244 0.73293 0.69482
 H1757 H 0.21478 0.78527 0.79608
 H1758 H 0.22860 0.81518 0.73999
 H1759 H 0.27013 0.69577 0.74336
 H1760 H 0.28683 0.71469 0.72258
 H1761 H 0.21443 0.77903 0.71262
 H1762 H 0.19433 0.75931 0.72976
 H1763 H 0.30545 0.74274 0.76883
 H1764 H 0.28589 0.72252 0.78873
 O1765 O 0.25226 0.21418 0.20462
 O1766 O 0.28174 0.21128 0.21788
 O1767 O 0.21468 0.20663 0.25117
 O1768 O 0.20903 0.22013 0.27867
 O1769 O 0.20682 0.25315 0.21259
 O1770 O 0.22180 0.28272 0.20889
 O1771 O 0.26331 0.25713 0.30007
 O1772 O 0.25317 0.22662 0.30024
 O1773 O 0.30226 0.26212 0.25608
 O1774 O 0.30218 0.25425 0.22286
 O1775 O 0.25916 0.30176 0.26075
 O1776 O 0.22620 0.30240 0.25337
 O1777 O 0.24799 0.28332 0.29001
 O1778 O 0.21635 0.28739 0.27486
 O1779 O 0.28472 0.29153 0.24475
 O1780 O 0.28775 0.27631 0.21335
 O1781 O 0.29194 0.24684 0.28212
 O1782 O 0.27826 0.21463 0.28144
 O1783 O 0.23729 0.24053 0.19437
 O1784 O 0.24569 0.27343 0.19498
 O1785 O 0.19646 0.23739 0.23834
 O1786 O 0.19803 0.24695 0.27165
 O1787 O 0.23999 0.19631 0.23475
 O1788 O 0.27301 0.19754 0.24527
 Zr1789 Zr 0.25772 0.21992 0.23297
 O1790 O 0.27594 0.23620 0.24959
 Zr1791 Zr 0.22016 0.23529 0.25577
 O1792 O 0.23693 0.25166 0.27374
 Zr1793 Zr 0.23536 0.25804 0.21812
 O1794 O 0.25235 0.27586 0.23450
 Zr1795 Zr 0.26387 0.24013 0.27607
 O1796 O 0.24629 0.22227 0.26009
 Zr1797 Zr 0.27866 0.26332 0.23843
 O1798 O 0.26227 0.24634 0.22043
 Zr1799 Zr 0.24127 0.27823 0.26167
 O1800 O 0.22282 0.26246 0.24442
 O1801 O 0.23119 0.23138 0.22918
 O1802 O 0.26797 0.26710 0.26532
 C1803 C 0.24449 0.22419 0.19184
 C1804 C 0.22410 0.19381 0.24277
 C1805 C 0.19398 0.24512 0.22230
 C1806 C 0.25632 0.27352 0.30262
 C1807 C 0.30465 0.25514 0.27246
 C1808 C 0.27538 0.30418 0.25341
 H1809 H 0.28816 0.22975 0.25060
 H1810 H 0.25335 0.28820 0.22824
 H1811 H 0.22306 0.22341 0.22121
 H1812 H 0.23082 0.25247 0.28613
 H1813 H 0.24727 0.21477 0.29593
 H1814 H 0.21727 0.22270 0.28950
 H1815 H 0.27938 0.28707 0.21082
 H1816 H 0.25831 0.26842 0.19222
 H1817 H 0.28481 0.21588 0.29364
 H1818 H 0.27132 0.18608 0.23752
 H1819 H 0.23047 0.30585 0.24065
 H1820 H 0.21376 0.28693 0.21936
 H1821 H 0.28591 0.22220 0.21037
 H1822 H 0.30600 0.24186 0.22780
 H1823 H 0.19445 0.25886 0.26549
 H1824 H 0.21395 0.27905 0.28568
 O1825 O 0.78601 0.70777 0.24601
 O1826 O 0.78838 0.72109 0.21645
 O1827 O 0.79375 0.75419 0.28361
 O1828 O 0.78030 0.78175 0.28956
 O1829 O 0.74746 0.71531 0.29180
 O1830 O 0.71788 0.71147 0.27713
 O1831 O 0.74267 0.80323 0.23583
 O1832 O 0.77322 0.80358 0.24575
 O1833 O 0.73742 0.75945 0.19680
 O1834 O 0.74514 0.72636 0.19635
 O1835 O 0.69829 0.76345 0.24066
 O1836 O 0.69836 0.75590 0.27366
 O1837 O 0.71674 0.79293 0.25142
 O1838 O 0.71313 0.77783 0.28302
 O1839 O 0.70820 0.74770 0.21480
 O1840 O 0.72366 0.71629 0.21128
 O1841 O 0.75286 0.78552 0.20706
 O1842 O 0.78503 0.78493 0.22038
 O1843 O 0.75994 0.69729 0.26128
 O1844 O 0.72707 0.69766 0.25303
 O1845 O 0.76329 0.74112 0.30214
 O1846 O 0.75368 0.77449 0.30090
 O1847 O 0.80381 0.73801 0.25802
 O1848 O 0.80216 0.74866 0.22505
 Zr1849 Zr 0.78006 0.73616 0.24061
 O1850 O 0.76357 0.75285 0.22274
 Zr1851 Zr 0.76511 0.75875 0.27852
 O1852 O 0.74856 0.77678 0.26208
 Zr1853 Zr 0.74235 0.72095 0.26336
 O1854 O 0.72434 0.73739 0.24674
 Zr1855 Zr 0.75975 0.77932 0.23502
 O1856 O 0.77779 0.76329 0.25225
 Zr1857 Zr 0.73649 0.74158 0.22028
 O1858 O 0.75368 0.72349 0.23632
 Zr1859 Zr 0.72205 0.76456 0.25805
 O1860 O 0.73802 0.74724 0.27615
 O1861 O 0.76894 0.73218 0.26726
 O1862 O 0.73281 0.76844 0.23122
 C1863 C 0.77621 0.69490 0.25398
 C1864 C 0.80644 0.74590 0.27396
 C1865 C 0.75560 0.72499 0.30460
 C1866 C 0.72637 0.80565 0.24299
 C1867 C 0.74444 0.77589 0.19441
 C1868 C 0.69564 0.75611 0.22448
 H1869 H 0.76987 0.75396 0.21045
 H1870 H 0.71204 0.73103 0.24589
 H1871 H 0.77699 0.72421 0.27527
 H1872 H 0.74779 0.78919 0.26825
 H1873 H 0.78517 0.79933 0.25137
 H1874 H 0.77763 0.79264 0.28140
 H1875 H 0.71300 0.71366 0.21974
 H1876 H 0.73207 0.69492 0.24040
 H1877 H 0.78373 0.79724 0.21400
 H1878 H 0.81361 0.74093 0.22654
 H1879 H 0.69472 0.74327 0.26917
 H1880 H 0.71370 0.72193 0.28524
 H1881 H 0.77746 0.71346 0.21247
 H1882 H 0.75771 0.73100 0.19278
 H1883 H 0.74181 0.76824 0.30453
 H1884 H 0.72154 0.78864 0.28540
 O1885 O 0.70781 0.24567 0.78634
 O1886 O 0.72148 0.21637 0.78901
 O1887 O 0.75385 0.28421 0.79348
 O1888 O 0.78130 0.29019 0.77984
 O1889 O 0.71479 0.29162 0.74754
 O1890 O 0.71093 0.27668 0.71806
 O1891 O 0.80292 0.23642 0.74251
 O1892 O 0.80331 0.24652 0.77293
 O1893 O 0.75950 0.19673 0.73780
 O1894 O 0.72639 0.19609 0.74602
 O1895 O 0.76294 0.24034 0.69835
 O1896 O 0.75528 0.27322 0.69800
 O1897 O 0.79240 0.25176 0.71654
 O1898 O 0.77683 0.28330 0.71277
 O1899 O 0.74742 0.21436 0.70864
 O1900 O 0.71630 0.21057 0.72430
 O1901 O 0.78554 0.20743 0.75286
 O1902 O 0.78500 0.22090 0.78500
 O1903 O 0.69709 0.26068 0.76023
 O1904 O 0.69739 0.25250 0.72745
 O1905 O 0.74060 0.30236 0.76298
 O1906 O 0.77381 0.30141 0.75318
 O1907 O 0.73794 0.25847 0.80388
 O1908 O 0.74898 0.22554 0.80246
 Zr1909 Zr 0.73619 0.24074 0.78032
 O1910 O 0.75286 0.22284 0.76385
 Zr1911 Zr 0.75834 0.27886 0.76487
 O1912 O 0.77634 0.26244 0.74830
 Zr1913 Zr 0.72062 0.26311 0.74254
 O1914 O 0.73702 0.24646 0.72455
 Zr1915 Zr 0.77914 0.23541 0.75970
 O1916 O 0.76314 0.25267 0.77774
 Zr1917 Zr 0.74146 0.22006 0.73691
 O1918 O 0.72343 0.23611 0.75408
 Zr1919 Zr 0.76403 0.25805 0.72193
 O1920 O 0.74672 0.27616 0.73789
 O1921 O 0.73193 0.26733 0.76901
 O1922 O 0.76816 0.23127 0.73290
 C1923 C 0.69483 0.25331 0.77651
 C1924 C 0.74568 0.27457 0.80631
 C1925 C 0.72444 0.30462 0.75546
 C1926 C 0.80521 0.24355 0.72617
 C1927 C 0.77599 0.19458 0.74461
 C1928 C 0.75572 0.22399 0.69593
 H1929 H 0.75411 0.21058 0.77023
 H1930 H 0.73061 0.24543 0.71232
 H1931 H 0.72392 0.27531 0.77703
 H1932 H 0.78865 0.26877 0.74738
 H1933 H 0.79907 0.25221 0.78485
 H1934 H 0.79225 0.28223 0.77696
 H1935 H 0.71347 0.21901 0.71367
 H1936 H 0.69483 0.23978 0.73244
 H1937 H 0.79730 0.21461 0.78361
 H1938 H 0.74131 0.22700 0.81395
 H1939 H 0.74250 0.26887 0.69478
 H1940 H 0.72123 0.28498 0.71380
 H1941 H 0.71393 0.21211 0.77818
 H1942 H 0.73148 0.19234 0.75835
 H1943 H 0.76751 0.30490 0.74133
 H1944 H 0.78774 0.28580 0.72095
 C1945 C 0.04668 1.00722 1.11281
 C1946 C 0.05241 1.02405 1.12171
 C1947 C 0.06036 1.02341 1.13996
 C1948 C 0.06252 1.00594 1.14918
 C1949 C 0.05647 0.98914 1.14041
 C1950 C 0.04854 0.98978 1.12217
 C1951 C 0.04268 0.97279 1.11365
 C1952 C 0.04459 0.95567 1.12289
 C1953 C 0.05235 0.95504 1.14073
 C1954 C 0.05825 0.97154 1.14945
 C1955 C 0.06605 1.04041 1.14855
 C1956 C 0.06397 1.05755 1.13937
 C1957 C 0.05621 1.05818 1.12152
 C1958 C 0.05047 1.04166 1.11272
 C1959 C 0.07156 1.00508 1.16738
 C1960 C 0.07943 1.00390 1.18227
 C1961 C 0.03903 1.00770 1.09398
 C1962 C 0.03266 1.00761 1.07835
 H1963 H 0.03655 0.97253 1.09979
 H1964 H 0.04002 0.94281 1.11617
 H1965 H 0.05380 0.94170 1.14786
 H1966 H 0.06417 0.97032 1.16335
 H1967 H 0.07212 1.04063 1.16244
 H1968 H 0.06840 1.07042 1.14615
 H1969 H 0.05465 1.07153 1.11444
 H1970 H 0.04450 1.04286 1.09884
 C1971 C 0.54508 0.50886 0.61229
 C1972 C 0.55192 0.52562 0.62055
 C1973 C 0.56026 0.52508 0.63862
 C1974 C 0.56171 0.50779 0.64831
 C1975 C 0.55455 0.49110 0.64020
 C1976 C 0.54621 0.49164 0.62214
 C1977 C 0.53924 0.47474 0.61427
 C1978 C 0.54044 0.45782 0.62399
 C1979 C 0.54859 0.45729 0.64166
 C1980 C 0.55559 0.47369 0.64974
 C1981 C 0.56707 0.54199 0.64656
 C1982 C 0.56569 0.55895 0.63692
 C1983 C 0.55755 0.55947 0.61924
 C1984 C 0.55070 0.54304 0.61108
 C1985 C 0.57113 0.50698 0.66631
 C1986 C 0.57926 0.50589 0.68107
 C1987 C 0.53714 0.50921 0.59359
 C1988 C 0.53059 0.50907 0.57804
 H1989 H 0.53276 0.47442 0.60057
 H1990 H 0.53502 0.44504 0.61777
 H1991 H 0.54949 0.44411 0.64916
 H1992 H 0.56177 0.47256 0.66353
 H1993 H 0.57349 0.54228 0.66030
 H1994 H 0.57097 0.57175 0.64320
 H1995 H 0.55654 0.57268 0.61179
 H1996 H 0.54446 0.54416 0.59731
 C1997 C 0.45186 -0.00118 0.60423
 C1998 C 0.44896 0.01618 0.61347
 C1999 C 0.44138 0.01643 0.63186
 C2000 C 0.43673 -0.00065 0.64090
 C2001 C 0.43983 -0.01801 0.63174
 C2002 C 0.44742 -0.01828 0.61335
 C2003 C 0.45035 -0.03579 0.60446
 C2004 C 0.44589 -0.05257 0.61348
 C2005 C 0.43847 -0.05232 0.63147
 C2006 C 0.43544 -0.03528 0.64056
 C2007 C 0.43856 0.03395 0.64080
 C2008 C 0.44309 0.05073 0.63181
 C2009 C 0.45050 0.05049 0.61382
 C2010 C 0.45343 0.03345 0.60469
 C2011 C 0.42814 -0.00030 0.65932
 C2012 C 0.42055 0.00017 0.67438
 C2013 C 0.45953 -0.00138 0.58541
 C2014 C 0.46609 -0.00122 0.56987
 H2015 H 0.45610 -0.03670 0.59047
 H2016 H 0.44822 -0.06585 0.60647
 H2017 H 0.43504 -0.06540 0.63842
 H2018 H 0.42967 -0.03580 0.65456
 H2019 H 0.43288 0.03488 0.65480
 H2020 H 0.44085 0.06400 0.63886
 H2021 H 0.45399 0.06356 0.60690
 H2022 H 0.45923 0.03399 0.59070
 C2023 C -0.04488 0.49827 1.10734
 C2024 C -0.04683 0.51541 1.11719
 C2025 C -0.05476 0.51548 1.13544
 C2026 C -0.06070 0.49840 1.14372
 C2027 C -0.05843 0.48121 1.13400
 C2028 C -0.05050 0.48115 1.11575
 C2029 C -0.04846 0.46381 1.10628
 C2030 C -0.05409 0.44701 1.11459
 C2031 C -0.06185 0.44707 1.13244
 C2032 C -0.06403 0.46394 1.14210
 C2033 C -0.05665 0.53280 1.14498
 C2034 C -0.05087 0.54958 1.13672
 C2035 C -0.04313 0.54952 1.11887
 C2036 C -0.04110 0.53267 1.10915
 C2037 C -0.06983 0.49861 1.16187
 C2038 C -0.07790 0.49888 1.17669
 C2039 C -0.03725 0.49829 1.08851
 C2040 C -0.03091 0.49848 1.07288
 H2041 H -0.04248 0.46305 1.09237
 H2042 H -0.05242 0.43388 1.10714
 H2043 H -0.06620 0.43399 1.13884
 H2044 H -0.07011 0.46326 1.15596
 H2045 H -0.06256 0.53356 1.15890
 H2046 H -0.05242 0.56270 1.14422
 H2047 H -0.03866 0.56259 1.11252
 H2048 H -0.03498 0.53335 1.09531
 C2049 C -0.05099 0.50496 0.39188
 C2050 C -0.05199 0.52197 0.38165
 C2051 C -0.05964 0.52201 0.36325
 C2052 C -0.06629 0.50505 0.35525
 C2053 C -0.06527 0.48805 0.36549
 C2054 C -0.05760 0.48800 0.38385
 C2055 C -0.05676 0.47082 0.39382
 C2056 C -0.06332 0.45418 0.38588
 C2057 C -0.07082 0.45422 0.36792
 C2058 C -0.07181 0.47091 0.35777
 C2059 C -0.06047 0.53916 0.35328
 C2060 C -0.05393 0.55581 0.36125
 C2061 C -0.04647 0.55577 0.37924
 C2062 C -0.04548 0.53909 0.38939
 C2063 C -0.07452 0.50502 0.33664
 C2064 C -0.08172 0.50436 0.32138
 C2065 C -0.04304 0.50477 0.41060
 C2066 C -0.03640 0.50406 0.42610
 H2067 H -0.05106 0.47005 0.40784
 H2068 H -0.06257 0.44118 0.39370
 H2069 H -0.07589 0.44125 0.36180
 H2070 H -0.07775 0.47019 0.34385
 H2071 H -0.06614 0.53987 0.33923
 H2072 H -0.05466 0.56881 0.35342
 H2073 H -0.04138 0.56874 0.38535
 H2074 H -0.03957 0.53976 0.40334
 C2075 C 0.45157 1.00576 -0.10898
 C2076 C 0.44632 1.02316 -0.11698
 C2077 C 0.43891 1.02372 -0.13547
 C2078 C 0.43679 1.00687 -0.14580
 C2079 C 0.44225 0.98949 -0.13786
 C2080 C 0.44965 0.98893 -0.11939
 C2081 C 0.45493 0.97138 -0.11173
 C2082 C 0.45295 0.95486 -0.12202
 C2083 C 0.44572 0.95541 -0.14008
 C2084 C 0.44041 0.97248 -0.14798
 C2085 C 0.43372 1.04126 -0.14317
 C2086 C 0.43578 1.05779 -0.13291
 C2087 C 0.44301 1.05725 -0.11483
 C2088 C 0.44823 1.04016 -0.10689
 C2089 C 0.42838 1.00718 -0.16431
 C2090 C 0.42101 1.00674 -0.17950
 C2091 C 0.45893 1.00506 -0.09003
 C2092 C 0.46512 1.00407 -0.07437
 H2093 H 0.46062 0.97021 -0.09773
 H2094 H 0.45705 0.94156 -0.11593
 H2095 H 0.44421 0.94254 -0.14802
 H2096 H 0.43489 0.97216 -0.16209
 H2097 H 0.42807 1.04239 -0.15719
 H2098 H 0.43175 1.07110 -0.13901
 H2099 H 0.44459 1.07013 -0.10693
 H2100 H 0.45378 1.04044 -0.09278
 C2101 C 0.54705 0.49111 -0.10604
 C2102 C 0.54518 0.50755 -0.11704
 C2103 C 0.55351 0.50842 -0.13509
 C2104 C 0.56366 0.49284 -0.14201
 C2105 C 0.56523 0.47627 -0.13115
 C2106 C 0.55689 0.47540 -0.11310
 C2107 C 0.55872 0.45873 -0.10246
 C2108 C 0.56851 0.44335 -0.10944
 C2109 C 0.57668 0.44420 -0.12708
 C2110 C 0.57511 0.46044 -0.13788
 C2111 C 0.55154 0.52504 -0.14579
 C2112 C 0.54163 0.54037 -0.13885
 C2113 C 0.53349 0.53952 -0.12120
 C2114 C 0.53520 0.52334 -0.11036
 C2115 C 0.57298 0.49411 -0.16002
 C2116 C 0.58105 0.49531 -0.17479
 C2117 C 0.53920 0.49055 -0.08731
 C2118 C 0.53278 0.49043 -0.07172
 H2119 H 0.55260 0.45740 -0.08866
 H2120 H 0.56977 0.43071 -0.10111
 H2121 H 0.58428 0.43221 -0.13244
 H2122 H 0.58169 0.46042 -0.15152
 H2123 H 0.55760 0.52636 -0.15961
 H2124 H 0.54027 0.55297 -0.14722
 H2125 H 0.52582 0.55147 -0.11587
 H2126 H 0.52861 0.52336 -0.09672
 C2127 C 0.04833 -0.01206 0.39586
 C2128 C 0.04018 -0.00115 0.38141
 C2129 C 0.04872 -0.00049 0.36345
 C2130 C 0.06535 -0.01073 0.36006
 C2131 C 0.07326 -0.02199 0.37438
 C2132 C 0.06471 -0.02266 0.39234
 C2133 C 0.07290 -0.03394 0.40647
 C2134 C 0.08908 -0.04428 0.40295
 C2135 C 0.09745 -0.04361 0.38540
 C2136 C 0.08969 -0.03262 0.37122
 C2137 C 0.04039 0.01060 0.34926
 C2138 C 0.02407 0.02074 0.35271
 C2139 C 0.01572 0.02010 0.37026
 C2140 C 0.02362 0.00931 0.38451
 C2141 C 0.07460 -0.00928 0.34202
 C2142 C 0.08250 -0.00787 0.32717
 C2143 C 0.04019 -0.01190 0.41447
 C2144 C 0.03350 -0.01140 0.42994
 H2145 H 0.06688 -0.03494 0.42034
 H2146 H 0.09516 -0.05285 0.41391
 H2147 H 0.11002 -0.05167 0.38275
 H2148 H 0.09670 -0.03257 0.35779
 H2149 H 0.04635 0.01153 0.33536
 H2150 H 0.01787 0.02915 0.34171
 H2151 H 0.00306 0.02802 0.37285
 H2152 H 0.01658 0.00923 0.39792
 C2153 C 0.10794 1.04914 1.00642
 C2154 C 0.11305 1.05992 0.99055
 C2155 C 0.13130 1.06785 0.98933
 C2156 C 0.14433 1.06499 1.00401
 C2157 C 0.13928 1.05409 1.01982
 C2158 C 0.12102 1.04614 1.02103
 C2159 C 0.11625 1.03537 1.03699
 C2160 C 0.12917 1.03251 1.05135
 C2161 C 0.14702 1.04026 1.05016
 C2162 C 0.15210 1.05094 1.03461
 C2163 C 0.13606 1.07861 0.97334
 C2164 C 0.12316 1.08146 0.95897
 C2165 C 0.10531 1.07371 0.96016
 C2166 C 0.10023 1.06306 0.97573
 C2167 C 0.16267 1.07381 1.00309
 C2168 C 0.17764 1.08165 1.00223
 C2169 C 0.08924 1.04115 1.00763
 C2170 C 0.07365 1.03462 1.00822
 H2171 H 0.10253 1.02907 1.03855
 H2172 H 0.12529 1.02423 1.06347
 H2173 H 0.15700 1.03799 1.06135
 H2174 H 0.16616 1.05667 1.03430
 H2175 H 0.14978 1.08492 0.97175
 H2176 H 0.12704 1.08972 0.94685
 H2177 H 0.09534 1.07597 0.94897
 H2178 H 0.08617 1.05734 0.97601
 C2179 C 0.60648 0.54930 0.50680
 C2180 C 0.61250 0.55864 0.49035
 C2181 C 0.63083 0.56642 0.48945
 C2182 C 0.64303 0.56484 0.50502
 C2183 C 0.63708 0.55532 0.52139
 C2184 C 0.61874 0.54753 0.52228
 C2185 C 0.61307 0.53816 0.53882
 C2186 C 0.62518 0.53651 0.55405
 C2187 C 0.64312 0.54412 0.55317
 C2188 C 0.64908 0.55344 0.53707
 C2189 C 0.63651 0.57575 0.47288
 C2190 C 0.62442 0.57735 0.45763
 C2191 C 0.60649 0.56975 0.45851
 C2192 C 0.60052 0.56049 0.47464
 C2193 C 0.66143 0.57355 0.50435
 C2194 C 0.67645 0.58130 0.50365
 C2195 C 0.58765 0.54159 0.50772
 C2196 C 0.57197 0.53528 0.50810
 H2197 H 0.59925 0.53201 0.54016
 H2198 H 0.62062 0.52929 0.56659
 H2199 H 0.65247 0.54280 0.56504
 H2200 H 0.66316 0.55911 0.53704
 H2201 H 0.65033 0.58188 0.47150
 H2202 H 0.62900 0.58452 0.44507
 H2203 H 0.59715 0.57103 0.44663
 H2204 H 0.58644 0.55481 0.47463
 C2205 C 0.60883 0.44796 -0.00588
 C2206 C 0.61167 0.42959 -0.01289
 C2207 C 0.62996 0.42171 -0.01288
 C2208 C 0.64529 0.43225 -0.00584
 C2209 C 0.64251 0.45079 0.00075
 C2210 C 0.62422 0.45866 0.00074
 C2211 C 0.62178 0.47719 0.00749
 C2212 C 0.63696 0.48764 0.01406
 C2213 C 0.65483 0.47994 0.01407
 C2214 C 0.65765 0.46173 0.00752
 C2215 C 0.63243 0.40328 -0.01987
 C2216 C 0.61728 0.39293 -0.02669
 C2217 C 0.59941 0.40063 -0.02670
 C2218 C 0.59655 0.41875 -0.01991
 C2219 C 0.66378 0.42382 -0.00484
 C2220 C 0.67901 0.41661 -0.00368
 C2221 C 0.59004 0.45570 -0.00508
 C2222 C 0.57447 0.46215 -0.00419
 H2223 H 0.60816 0.48381 0.00774
 H2224 H 0.63483 0.50179 0.01916
 H2225 H 0.66657 0.48812 0.01918
 H2226 H 0.67182 0.45637 0.00777
 H2227 H 0.64606 0.39668 -0.02018
 H2228 H 0.61942 0.37886 -0.03200
 H2229 H 0.58769 0.39253 -0.03200
 H2230 H 0.58240 0.42415 -0.02024
 C2231 C 0.10828 -0.05225 0.49265
 C2232 C 0.12210 -0.04551 0.50523
 C2233 C 0.14048 -0.05313 0.50481
 C2234 C 0.14498 -0.06739 0.49175
 C2235 C 0.13130 -0.07376 0.47882
 C2236 C 0.11289 -0.06619 0.47929
 C2237 C 0.09942 -0.07287 0.46633
 C2238 C 0.10403 -0.08658 0.45320
 C2239 C 0.12204 -0.09395 0.45271
 C2240 C 0.13557 -0.08768 0.46535
 C2241 C 0.15400 -0.04629 0.51765
 C2242 C 0.14952 -0.03226 0.53049
 C2243 C 0.13157 -0.02477 0.53085
 C2244 C 0.11796 -0.03126 0.51842
 C2245 C 0.16345 -0.07592 0.49214
 C2246 C 0.17867 -0.08318 0.49303
 C2247 C 0.08933 -0.04495 0.49366
 C2248 C 0.07371 -0.03866 0.49487
 H2249 H 0.08523 -0.06755 0.46617
 H2250 H 0.09357 -0.09151 0.44336
 H2251 H 0.12556 -0.10459 0.44247
 H2252 H 0.14939 -0.09381 0.46440
 H2253 H 0.16817 -0.05164 0.51789
 H2254 H 0.16003 -0.02718 0.54019
 H2255 H 0.12815 -0.01386 0.54083
 H2256 H 0.10421 -0.02497 0.51925
 C2257 C 0.39410 -0.04625 0.50594
 C2258 C 0.39114 -0.06362 0.51513
 C2259 C 0.37315 -0.07225 0.51465
 C2260 C 0.35822 -0.06345 0.50498
 C2261 C 0.36108 -0.04588 0.49614
 C2262 C 0.37906 -0.03723 0.49664
 C2263 C 0.38158 -0.01968 0.48766
 C2264 C 0.36677 -0.01092 0.47844
 C2265 C 0.34920 -0.01939 0.47793
 C2266 C 0.34632 -0.03667 0.48664
 C2267 C 0.37057 -0.08967 0.52388
 C2268 C 0.38531 -0.09827 0.53336
 C2269 C 0.40288 -0.08982 0.53384
 C2270 C 0.40586 -0.07271 0.52483
 C2271 C 0.34008 -0.07270 0.50373
 C2272 C 0.32520 -0.08068 0.50255
 C2273 C 0.41269 -0.03789 0.50555
 C2274 C 0.42810 -0.03094 0.50483
 H2275 H 0.39497 -0.01252 0.48769
 H2276 H 0.36893 0.00251 0.47166
 H2277 H 0.33775 -0.01254 0.47074
 H2278 H 0.33240 -0.04270 0.48587
 H2279 H 0.35715 -0.09678 0.52392
 H2280 H 0.38307 -0.11157 0.54038
 H2281 H 0.41426 -0.09654 0.54127
 H2282 H 0.41977 -0.06669 0.52560
 C2283 C -0.10607 0.45423 1.00622
 C2284 C -0.10916 0.43751 1.01652
 C2285 C -0.12715 0.42887 1.01637
 C2286 C -0.14193 0.43701 1.00593
 C2287 C -0.13893 0.45393 0.99594
 C2288 C -0.12094 0.46257 0.99609
 C2289 C -0.11827 0.47944 0.98594
 C2290 C -0.13293 0.48755 0.97593
 C2291 C -0.15051 0.47909 0.97577
 C2292 C -0.15355 0.46246 0.98562
 C2293 C -0.12987 0.41211 1.02670
 C2294 C -0.11527 0.40415 1.03693
 C2295 C -0.09771 0.41263 1.03711
 C2296 C -0.09460 0.42910 1.02702
 C2297 C -0.16005 0.42771 1.00510
 C2298 C -0.17490 0.41961 1.00431
 C2299 C -0.08749 0.46258 1.00567
 C2300 C -0.07202 0.46939 1.00502
 H2301 H -0.10486 0.48656 0.98566
 H2302 H -0.13065 0.50047 0.96826
 H2303 H -0.16185 0.48544 0.96796
 H2304 H -0.16747 0.45642 0.98509
 H2305 H -0.14329 0.40500 1.02702
 H2306 H -0.11762 0.39135 1.04478
 H2307 H -0.08643 0.40643 1.04513
 H2308 H -0.08069 0.43516 1.02760
 C2309 C -0.11022 0.54543 0.48921
 C2310 C -0.12494 0.53736 0.49983
 C2311 C -0.14286 0.54601 0.50008
 C2312 C -0.14595 0.56267 0.48971
 C2313 C -0.13139 0.57041 0.47864
 C2314 C -0.11347 0.56176 0.47839
 C2315 C -0.09909 0.56981 0.46732
 C2316 C -0.10234 0.58593 0.45675
 C2317 C -0.11987 0.59440 0.45699
 C2318 C -0.13427 0.58680 0.46780
 C2319 C -0.15731 0.53777 0.51091
 C2320 C -0.15417 0.52142 0.52116
 C2321 C -0.13665 0.51295 0.52090
 C2322 C -0.12215 0.52078 0.51040
 C2323 C -0.16388 0.57218 0.49099
 C2324 C -0.17863 0.58026 0.49246
 C2325 C -0.09164 0.53721 0.48991
 C2326 C -0.07626 0.53037 0.49092
 H2327 H -0.08523 0.56372 0.46667
 H2328 H -0.09120 0.59189 0.44833
 H2329 H -0.12232 0.60692 0.44876
 H2330 H -0.14767 0.59387 0.46752
 H2331 H -0.17119 0.54381 0.51153
 H2332 H -0.16539 0.51528 0.52933
 H2333 H -0.13428 0.50025 0.52888
 H2334 H -0.10878 0.51366 0.51064
 C2335 C 0.39033 1.04566 -0.01272
 C2336 C 0.37486 1.03675 -0.00401
 C2337 C 0.35709 1.04569 -0.00386
 C2338 C 0.35488 1.06349 -0.01243
 C2339 C 0.37022 1.07213 -0.02164
 C2340 C 0.38800 1.06318 -0.02179
 C2341 C 0.40316 1.07214 -0.03097
 C2342 C 0.40082 1.08945 -0.03978
 C2343 C 0.38344 1.09820 -0.03963
 C2344 C 0.36826 1.08971 -0.03068
 C2345 C 0.34187 1.03658 0.00507
 C2346 C 0.34415 1.01912 0.01359
 C2347 C 0.36153 1.01037 0.01343
 C2348 C 0.37676 1.01902 0.00476
 C2349 C 0.33705 1.07318 -0.01113
 C2350 C 0.32236 1.08135 -0.00965
 C2351 C 0.40875 1.03712 -0.01170
 C2352 C 0.42401 1.03004 -0.01037
 H2353 H 0.41694 1.06587 -0.03149
 H2354 H 0.41255 1.09610 -0.04674
 H2355 H 0.38169 1.11164 -0.04649
 H2356 H 0.35501 1.09704 -0.03097
 H2357 H 0.32807 1.04280 0.00553
 H2358 H 0.33235 1.01234 0.02034
 H2359 H 0.36322 0.99680 0.02005
 H2360 H 0.38999 1.01164 0.00498
 C2361 C 0.00606 1.11023 1.05176
 C2362 C 0.01020 1.11270 1.07100
 C2363 C 0.00973 1.13096 1.07900
 C2364 C 0.00512 1.14665 1.06771
 C2365 C 0.00135 1.14423 1.04840
 C2366 C 0.00182 1.12596 1.04039
 C2367 C -0.00209 1.12386 1.02107
 C2368 C -0.00634 1.13938 1.00997
 C2369 C -0.00680 1.15724 1.01780
 C2370 C -0.00301 1.15972 1.03678
 C2371 C 0.01381 1.13307 1.09829
 C2372 C 0.01823 1.11757 1.10935
 C2373 C 0.01868 1.09970 1.10152
 C2374 C 0.01473 1.09721 1.08257
 C2375 C 0.00381 1.16518 1.07609
 C2376 C 0.00249 1.18043 1.08328
 C2377 C 0.00572 1.09149 1.04377
 C2378 C 0.00520 1.07592 1.03720
 H2379 H -0.00188 1.11025 1.01433
 H2380 H -0.00928 1.13752 0.99521
 H2381 H -0.01010 1.16925 1.00911
 H2382 H -0.00352 1.17390 1.04223
 H2383 H 0.01366 1.14668 1.10503
 H2384 H 0.02131 1.11943 1.12408
 H2385 H 0.02209 1.08770 1.11017
 H2386 H 0.01529 1.08304 1.07712
 C2387 C 0.50695 0.61192 0.55090
 C2388 C 0.51159 0.61426 0.57004
 C2389 C 0.51176 0.63252 0.57807
 C2390 C 0.50728 0.64834 0.56691
 C2391 C 0.50306 0.64604 0.54767
 C2392 C 0.50289 0.62777 0.53964
 C2393 C 0.49850 0.62581 0.52040
 C2394 C 0.49443 0.64145 0.50941
 C2395 C 0.49461 0.65931 0.51726
 C2396 C 0.49886 0.66167 0.53617
 C2397 C 0.51633 0.63449 0.59727
 C2398 C 0.52061 0.61887 0.60821
 C2399 C 0.52042 0.60101 0.60036
 C2400 C 0.51598 0.59864 0.58150
 C2401 C 0.50640 0.66685 0.57539
 C2402 C 0.50535 0.68205 0.58274
 C2403 C 0.50590 0.59320 0.54292
 C2404 C 0.50482 0.57763 0.53640
 H2405 H 0.49819 0.61220 0.51366
 H2406 H 0.49112 0.63969 0.49472
 H2407 H 0.49145 0.67142 0.50866
 H2408 H 0.49884 0.67584 0.54164
 H2409 H 0.51667 0.64810 0.60402
 H2410 H 0.52407 0.62063 0.62287
 H2411 H 0.52371 0.58891 0.60892
 H2412 H 0.51604 0.58447 0.57603
 C2413 C -0.01040 0.60355 0.45038
 C2414 C 0.00259 0.61717 0.45684
 C2415 C 0.00299 0.63532 0.44858
 C2416 C -0.00961 0.63975 0.43392
 C2417 C -0.02290 0.62628 0.42776
 C2418 C -0.02330 0.60812 0.43603
 C2419 C -0.03666 0.59485 0.42963
 C2420 C -0.04929 0.59941 0.41546
 C2421 C -0.04888 0.61715 0.40734
 C2422 C -0.03586 0.63048 0.41335
 C2423 C 0.01617 0.64866 0.45519
 C2424 C 0.02859 0.64420 0.46957
 C2425 C 0.02820 0.62646 0.47766
 C2426 C 0.01538 0.61304 0.47143
 C2427 C -0.00850 0.65796 0.42484
 C2428 C -0.00729 0.67295 0.41709
 C2429 C -0.01019 0.58478 0.45827
 C2430 C -0.00962 0.56925 0.46495
 H2431 H -0.03753 0.58087 0.43552
 H2432 H -0.05944 0.58911 0.41076
 H2433 H -0.05872 0.62062 0.39633
 H2434 H -0.03610 0.64410 0.40663
 H2435 H 0.01701 0.66267 0.44936
 H2436 H 0.03857 0.65458 0.47446
 H2437 H 0.03787 0.62306 0.48883
 H2438 H 0.01559 0.59945 0.47820
 C2439 C 0.49013 1.10309 -0.04928
 C2440 C 0.50511 1.11560 -0.04547
 C2441 C 0.50535 1.13373 -0.05378
 C2442 C 0.49060 1.13924 -0.06584
 C2443 C 0.47544 1.12685 -0.06937
 C2444 C 0.47520 1.10871 -0.06106
 C2445 C 0.45995 1.09653 -0.06484
 C2446 C 0.44532 1.10213 -0.07650
 C2447 C 0.44555 1.11986 -0.08463
 C2448 C 0.46041 1.13214 -0.08117
 C2449 C 0.52053 1.14596 -0.04984
 C2450 C 0.53504 1.14044 -0.03802
 C2451 C 0.53480 1.12272 -0.02987
 C2452 C 0.52004 1.11038 -0.03350
 C2453 C 0.49138 1.15741 -0.07502
 C2454 C 0.49240 1.17236 -0.08286
 C2455 C 0.49029 1.08435 -0.04131
 C2456 C 0.49083 1.06884 -0.03460
 H2457 H 0.45914 1.08260 -0.05882
 H2458 H 0.43375 1.09265 -0.07922
 H2459 H 0.43415 1.12413 -0.09367
 H2460 H 0.45996 1.14581 -0.08779
 H2461 H 0.52134 1.15991 -0.05581
 H2462 H 0.54653 1.14998 -0.03516
 H2463 H 0.54610 1.11850 -0.02069
 H2464 H 0.52048 1.09676 -0.02681
 C2465 C 0.50661 0.38642 -0.04521
 C2466 C 0.49016 0.37528 -0.04447
 C2467 C 0.48995 0.35719 -0.05287
 C2468 C 0.50618 0.35034 -0.06195
 C2469 C 0.52274 0.36134 -0.06239
 C2470 C 0.52296 0.37944 -0.05398
 C2471 C 0.53964 0.39022 -0.05465
 C2472 C 0.55565 0.38333 -0.06342
 C2473 C 0.55543 0.36564 -0.07165
 C2474 C 0.53920 0.35471 -0.07119
 C2475 C 0.47330 0.34635 -0.05205
 C2476 C 0.45733 0.35319 -0.04318
 C2477 C 0.45755 0.37087 -0.03495
 C2478 C 0.47373 0.38185 -0.03555
 C2479 C 0.50556 0.33229 -0.07139
 C2480 C 0.50456 0.31749 -0.07953
 C2481 C 0.50654 0.40518 -0.03724
 C2482 C 0.50615 0.42075 -0.03066
 H2483 H 0.54050 0.40406 -0.04842
 H2484 H 0.56828 0.39177 -0.06383
 H2485 H 0.56790 0.36035 -0.07843
 H2486 H 0.53971 0.34103 -0.07776
 H2487 H 0.47243 0.33249 -0.05822
 H2488 H 0.44473 0.34471 -0.04268
 H2489 H 0.44511 0.37613 -0.02807
 H2490 H 0.47320 0.39551 -0.02893
 C2491 C 0.00837 -0.11196 0.45337
 C2492 C -0.00894 -0.11977 0.44749
 C2493 C -0.00941 -0.13786 0.43909
 C2494 C 0.00741 -0.14809 0.43670
 C2495 C 0.02470 -0.14032 0.44267
 C2496 C 0.02519 -0.12217 0.45098
 C2497 C 0.04265 -0.11462 0.45671
 C2498 C 0.05916 -0.12475 0.45435
 C2499 C 0.05868 -0.14252 0.44629
 C2500 C 0.04168 -0.15029 0.44048
 C2501 C -0.02688 -0.14530 0.43321
 C2502 C -0.04339 -0.13518 0.43559
 C2503 C -0.04293 -0.11753 0.44386
 C2504 C -0.02595 -0.10984 0.44977
 C2505 C 0.00681 -0.16639 0.42773
 C2506 C 0.00568 -0.18137 0.41993
 C2507 C 0.00871 -0.09343 0.46187
 C2508 C 0.00831 -0.07805 0.46890
 H2509 H 0.04372 -0.10086 0.46305
 H2510 H 0.07239 -0.11878 0.45882
 H2511 H 0.07154 -0.15034 0.44452
 H2512 H 0.04200 -0.16416 0.43429
 H2513 H -0.02799 -0.15898 0.42671
 H2514 H -0.05662 -0.14109 0.43100
 H2515 H -0.05579 -0.10972 0.44570
 H2516 H -0.02635 -0.09605 0.45612
 C2517 C 0.49402 -0.10247 0.54881
 C2518 C 0.47906 -0.11524 0.54593
 C2519 C 0.47963 -0.13335 0.55430
 C2520 C 0.49514 -0.13853 0.56554
 C2521 C 0.51006 -0.12570 0.56848
 C2522 C 0.50951 -0.10763 0.56007
 C2523 C 0.52460 -0.09506 0.56319
 C2524 C 0.53979 -0.10018 0.57432
 C2525 C 0.54032 -0.11784 0.58258
 C2526 C 0.52567 -0.13051 0.57974
 C2527 C 0.46454 -0.14591 0.55120
 C2528 C 0.44930 -0.14072 0.54015
 C2529 C 0.44874 -0.12300 0.53197
 C2530 C 0.46340 -0.11034 0.53480
 C2531 C 0.49570 -0.15688 0.57437
 C2532 C 0.49646 -0.17188 0.58217
 C2533 C 0.49371 -0.08410 0.54002
 C2534 C 0.49402 -0.06882 0.53277
 H2535 H 0.52485 -0.08114 0.55710
 H2536 H 0.55120 -0.09038 0.57656
 H2537 H 0.55214 -0.12176 0.59123
 H2538 H 0.52674 -0.14409 0.58647
 H2539 H 0.46436 -0.15984 0.55726
 H2540 H 0.43788 -0.15050 0.53790
 H2541 H 0.43689 -0.11905 0.52338
 H2542 H 0.46232 -0.09671 0.52818
 C2543 C -0.00369 0.39495 1.04736
 C2544 C -0.01983 0.38342 1.04601
 C2545 C -0.01985 0.36524 1.05425
 C2546 C -0.00373 0.35873 1.06379
 C2547 C 0.01248 0.37020 1.06498
 C2548 C 0.01250 0.38836 1.05674
 C2549 C 0.02884 0.39960 1.05816
 C2550 C 0.04471 0.39307 1.06747
 C2551 C 0.04468 0.37532 1.07554
 C2552 C 0.02880 0.36395 1.07436
 C2553 C -0.03616 0.35398 1.05277
 C2554 C -0.05199 0.36049 1.04338
 C2555 C -0.05197 0.37825 1.03531
 C2556 C -0.03612 0.38967 1.03659
 C2557 C -0.00393 0.34050 1.07289
 C2558 C -0.00390 0.32563 1.08094
 C2559 C -0.00367 0.41360 1.03918
 C2560 C -0.00338 0.42911 1.03247
 H2561 H 0.02955 0.41352 1.05211
 H2562 H 0.05708 0.40185 1.06842
 H2563 H 0.05704 0.37031 1.08277
 H2564 H 0.02948 0.35024 1.08085
 H2565 H -0.03683 0.34005 1.05879
 H2566 H -0.06434 0.35169 1.04235
 H2567 H -0.06429 0.38321 1.02799
 H2568 H -0.03678 0.40339 1.03010
 C2569 C 0.75819 0.29915 0.14305
 C2570 C 0.75413 0.28794 0.12715
 C2571 C 0.75414 0.29615 0.10900
 C2572 C 0.75822 0.31550 0.10685
 C2573 C 0.76268 0.32662 0.12271
 C2574 C 0.76268 0.31841 0.14086
 C2575 C 0.76712 0.32981 0.15650
 C2576 C 0.77144 0.34878 0.15428
 C2577 C 0.77143 0.35681 0.13655
 C2578 C 0.76711 0.34593 0.12089
 C2579 C 0.74995 0.28470 0.09333
 C2580 C 0.74588 0.26567 0.09553
 C2581 C 0.74589 0.25764 0.11327
 C2582 C 0.74994 0.26858 0.12895
 C2583 C 0.75743 0.32412 0.08843
 C2584 C 0.75665 0.33173 0.07335
 C2585 C 0.75727 0.29098 0.16167
 C2586 C 0.75623 0.28424 0.17712
 H2587 H 0.76734 0.32419 0.17058
 H2588 H 0.77483 0.35729 0.16640
 H2589 H 0.77478 0.37156 0.13491
 H2590 H 0.76731 0.35283 0.10739
 H2591 H 0.74981 0.29031 0.07925
 H2592 H 0.74271 0.25710 0.08340
 H2593 H 0.74273 0.24284 0.11488
 H2594 H 0.74980 0.26168 0.14245
 C2595 C 0.25802 0.79956 0.64189
 C2596 C 0.25609 0.78780 0.62600
 C2597 C 0.25580 0.79578 0.60775
 C2598 C 0.25744 0.81548 0.60551
 C2599 C 0.25963 0.82722 0.62139
 C2600 C 0.25993 0.81923 0.63963
 C2601 C 0.26206 0.83125 0.65529
 C2602 C 0.26387 0.85061 0.65299
 C2603 C 0.26358 0.85843 0.63517
 C2604 C 0.26148 0.84694 0.61950
 C2605 C 0.25378 0.78376 0.59209
 C2606 C 0.25212 0.76438 0.59439
 C2607 C 0.25242 0.75657 0.61223
 C2608 C 0.25437 0.76808 0.62790
 C2609 C 0.25663 0.82376 0.58694
 C2610 C 0.25589 0.83117 0.57178
 C2611 C 0.25761 0.79152 0.66057
 C2612 C 0.25703 0.78497 0.67612
 H2613 H 0.26238 0.82585 0.66944
 H2614 H 0.26550 0.85960 0.66512
 H2615 H 0.26498 0.87348 0.63347
 H2616 H 0.26134 0.85369 0.60592
 H2617 H 0.25348 0.78919 0.57794
 H2618 H 0.25060 0.75538 0.58226
 H2619 H 0.25113 0.74151 0.61392
 H2620 H 0.25452 0.76135 0.64149
 C2621 C 0.74533 0.70310 0.64186
 C2622 C 0.73426 0.68697 0.63827
 C2623 C 0.73444 0.67860 0.62020
 C2624 C 0.74569 0.68644 0.60583
 C2625 C 0.75646 0.70280 0.60932
 C2626 C 0.75628 0.71116 0.62739
 C2627 C 0.76722 0.72747 0.63057
 C2628 C 0.77802 0.73530 0.61630
 C2629 C 0.77820 0.72711 0.59863
 C2630 C 0.76758 0.71104 0.59510
 C2631 C 0.72334 0.66241 0.61698
 C2632 C 0.71233 0.65474 0.63118
 C2633 C 0.71213 0.66294 0.64884
 C2634 C 0.72296 0.67886 0.65243
 C2635 C 0.74651 0.67738 0.58764
 C2636 C 0.74726 0.66950 0.57273
 C2637 C 0.74579 0.71116 0.66052
 C2638 C 0.74637 0.71775 0.67605
 H2639 H 0.76752 0.73435 0.64408
 H2640 H 0.78628 0.74779 0.61897
 H2641 H 0.78661 0.73325 0.58760
 H2642 H 0.76816 0.70519 0.58113
 H2643 H 0.72301 0.65553 0.60347
 H2644 H 0.70391 0.64236 0.62846
 H2645 H 0.70355 0.65694 0.65982
 H2646 H 0.72233 0.68474 0.66639
 C2647 C 0.24331 0.20207 0.13901
 C2648 C 0.23357 0.18509 0.13544
 C2649 C 0.23428 0.17684 0.11733
 C2650 C 0.24470 0.18564 0.10290
 C2651 C 0.25409 0.20283 0.10636
 C2652 C 0.25339 0.21108 0.12447
 C2653 C 0.26296 0.22823 0.12762
 C2654 C 0.27292 0.23700 0.11329
 C2655 C 0.27362 0.22893 0.09558
 C2656 C 0.26434 0.21204 0.09208
 C2657 C 0.22452 0.15979 0.11413
 C2658 C 0.21433 0.15117 0.12839
 C2659 C 0.21362 0.15925 0.14609
 C2660 C 0.22311 0.17601 0.14966
 C2661 C 0.24608 0.17676 0.08465
 C2662 C 0.24725 0.16897 0.06971
 C2663 C 0.24337 0.21000 0.15774
 C2664 C 0.24372 0.21649 0.17332
 H2665 H 0.26281 0.23507 0.14115
 H2666 H 0.28014 0.25013 0.11593
 H2667 H 0.28139 0.23579 0.08449
 H2668 H 0.26527 0.20631 0.07807
 H2669 H 0.22463 0.15296 0.10059
 H2670 H 0.20695 0.13815 0.12569
 H2671 H 0.20567 0.15251 0.15713
 H2672 H 0.22212 0.18176 0.16365
 C2673 C 0.25546 0.20372 0.85568
 C2674 C 0.26767 0.21045 0.86982
 C2675 C 0.26719 0.20232 0.88801
 C2676 C 0.25450 0.18752 0.89193
 C2677 C 0.24233 0.18074 0.87776
 C2678 C 0.24282 0.18886 0.85959
 C2679 C 0.23054 0.18183 0.84566
 C2680 C 0.21812 0.16722 0.84957
 C2681 C 0.21762 0.15929 0.86734
 C2682 C 0.22956 0.16591 0.88133
 C2683 C 0.27953 0.20928 0.90191
 C2684 C 0.29199 0.22386 0.89797
 C2685 C 0.29246 0.23180 0.88019
 C2686 C 0.28048 0.22523 0.86622
 C2687 C 0.25399 0.17909 0.91044
 C2688 C 0.25325 0.17164 0.92558
 C2689 C 0.25572 0.21211 0.83716
 C2690 C 0.25554 0.21889 0.82169
 H2691 H 0.23040 0.18751 0.83161
 H2692 H 0.20883 0.16201 0.83874
 H2693 H 0.20794 0.14794 0.87032
 H2694 H 0.22864 0.15926 0.89492
 H2695 H 0.27968 0.20353 0.91594
 H2696 H 0.30132 0.22903 0.90877
 H2697 H 0.30218 0.24311 0.87720
 H2698 H 0.28138 0.23183 0.85260
 C2699 C 0.75593 0.70201 0.35706
 C2700 C 0.76778 0.70906 0.37135
 C2701 C 0.76717 0.70102 0.38957
 C2702 C 0.75470 0.68600 0.39338
 C2703 C 0.74290 0.67890 0.37906
 C2704 C 0.74353 0.68692 0.36085
 C2705 C 0.73162 0.67956 0.34675
 C2706 C 0.71944 0.66472 0.35055
 C2707 C 0.71881 0.65689 0.36836
 C2708 C 0.73037 0.66383 0.38250
 C2709 C 0.77915 0.70829 0.40363
 C2710 C 0.79139 0.72309 0.39980
 C2711 C 0.79200 0.73094 0.38198
 C2712 C 0.78036 0.72406 0.36786
 C2713 C 0.75402 0.67770 0.41193
 C2714 C 0.75313 0.67035 0.42711
 C2715 C 0.75628 0.71034 0.33852
 C2716 C 0.75619 0.71710 0.32305
 H2717 H 0.73161 0.68516 0.33267
 H2718 H 0.71044 0.65926 0.33960
 H2719 H 0.70931 0.64536 0.37124
 H2720 H 0.72936 0.65725 0.39612
 H2721 H 0.77918 0.70263 0.41769
 H2722 H 0.80046 0.72849 0.41071
 H2723 H 0.80154 0.74242 0.37907
 H2724 H 0.78134 0.73061 0.35422
 C2725 C 0.24360 0.79656 0.35633
 C2726 C 0.23297 0.81289 0.36008
 C2727 C 0.23349 0.82115 0.37821
 C2728 C 0.24469 0.81305 0.39245
 C2729 C 0.25506 0.79653 0.38878
 C2730 C 0.25448 0.78824 0.37068
 C2731 C 0.26498 0.77174 0.36735
 C2732 C 0.27576 0.76367 0.38149
 C2733 C 0.27636 0.77180 0.39917
 C2734 C 0.26617 0.78805 0.40285
 C2735 C 0.22277 0.83748 0.38161
 C2736 C 0.21182 0.84543 0.36753
 C2737 C 0.21132 0.83736 0.34981
 C2738 C 0.22177 0.82130 0.34604
 C2739 C 0.24598 0.82200 0.41069
 C2740 C 0.24732 0.82965 0.42570
 C2741 C 0.24364 0.78851 0.33764
 C2742 C 0.24390 0.78183 0.32213
 H2743 H 0.26495 0.76487 0.35383
 H2744 H 0.28369 0.75104 0.37870
 H2745 H 0.28476 0.76549 0.41010
 H2746 H 0.26707 0.79384 0.41683
 H2747 H 0.22268 0.84425 0.39518
 H2748 H 0.20367 0.85790 0.37039
 H2749 H 0.20277 0.84356 0.33893
 H2750 H 0.22092 0.81553 0.33205
 C2751 C 0.74450 0.29693 0.85907
 C2752 C 0.73404 0.31338 0.86281
 C2753 C 0.73442 0.32149 0.88101
 C2754 C 0.74527 0.31310 0.89535
 C2755 C 0.75544 0.29646 0.89170
 C2756 C 0.75503 0.28833 0.87352
 C2757 C 0.76534 0.27171 0.87021
 C2758 C 0.77577 0.26335 0.88443
 C2759 C 0.77620 0.27131 0.90220
 C2760 C 0.76619 0.28768 0.90587
 C2761 C 0.72389 0.33796 0.88438
 C2762 C 0.71328 0.34618 0.87020
 C2763 C 0.71292 0.33826 0.85242
 C2764 C 0.72317 0.32206 0.84868
 C2765 C 0.74645 0.32191 0.91367
 C2766 C 0.74772 0.32946 0.92874
 C2767 C 0.74469 0.28904 0.84032
 C2768 C 0.74506 0.28247 0.82477
 H2769 H 0.76543 0.26497 0.85662
 H2770 H 0.78357 0.25064 0.88165
 H2771 H 0.78433 0.26478 0.91320
 H2772 H 0.76694 0.29332 0.91992
 H2773 H 0.72371 0.34463 0.89800
 H2774 H 0.70529 0.35876 0.87304
 H2775 H 0.70463 0.34468 0.84146
 H2776 H 0.72244 0.31642 0.83462
 C2777 C 0.79904 0.35718 0.24071
 C2778 C 0.78810 0.37345 0.24381
 C2779 C 0.79676 0.39146 0.24387
 C2780 C 0.81629 0.39308 0.24084
 C2781 C 0.82716 0.37685 0.23728
 C2782 C 0.81850 0.35884 0.23721
 C2783 C 0.82965 0.34280 0.23373
 C2784 C 0.84882 0.34451 0.23043
 C2785 C 0.85728 0.36211 0.23046
 C2786 C 0.84665 0.37815 0.23385
 C2787 C 0.78557 0.40751 0.24710
 C2788 C 0.76635 0.40583 0.25016
 C2789 C 0.75789 0.38822 0.25011
 C2790 C 0.76857 0.37217 0.24699
 C2791 C 0.82531 0.41136 0.24186
 C2792 C 0.83306 0.42639 0.24291
 C2793 C 0.79039 0.33874 0.24168
 C2794 C 0.78323 0.32343 0.24281
 H2795 H 0.82370 0.32881 0.23351
 H2796 H 0.85716 0.33209 0.22786
 H2797 H 0.87218 0.36336 0.22785
 H2798 H 0.85387 0.39153 0.23372
 H2799 H 0.79151 0.42151 0.24724
 H2800 H 0.75800 0.41826 0.25257
 H2801 H 0.74296 0.38698 0.25249
 H2802 H 0.76134 0.35879 0.24706
 C2803 C 0.29950 0.85990 0.74311
 C2804 C 0.28853 0.87608 0.74657
 C2805 C 0.29707 0.89414 0.74650
 C2806 C 0.31650 0.89590 0.74297
 C2807 C 0.32741 0.87975 0.73917
 C2808 C 0.31888 0.86169 0.73924
 C2809 C 0.33007 0.84574 0.73549
 C2810 C 0.34915 0.84758 0.73177
 C2811 C 0.35749 0.86525 0.73167
 C2812 C 0.34682 0.88119 0.73532
 C2813 C 0.28585 0.91010 0.75005
 C2814 C 0.26673 0.90828 0.75355
 C2815 C 0.25837 0.89061 0.75362
 C2816 C 0.26908 0.87465 0.75019
 C2817 C 0.32540 0.91424 0.74360
 C2818 C 0.33315 0.92928 0.74424
 C2819 C 0.29095 0.84140 0.74384
 C2820 C 0.28401 0.82598 0.74456
 H2821 H 0.32422 0.83170 0.73537
 H2822 H 0.35750 0.83524 0.72898
 H2823 H 0.37231 0.86660 0.72876
 H2824 H 0.35395 0.89463 0.73507
 H2825 H 0.29171 0.92414 0.75012
 H2826 H 0.25835 0.92064 0.75623
 H2827 H 0.24351 0.88927 0.75635
 H2828 H 0.26195 0.86121 0.75037
 C2829 C 0.20128 0.85674 0.25395
 C2830 C 0.20220 0.86783 0.27039
 C2831 C 0.19425 0.88612 0.27052
 C2832 C 0.18540 0.89317 0.25423
 C2833 C 0.18463 0.88213 0.23775
 C2834 C 0.19261 0.86387 0.23760
 C2835 C 0.19165 0.85309 0.22097
 C2836 C 0.18301 0.86014 0.20494
 C2837 C 0.17516 0.87797 0.20510
 C2838 C 0.17592 0.88891 0.22126
 C2839 C 0.19532 0.89694 0.28711
 C2840 C 0.20399 0.88989 0.30312
 C2841 C 0.21176 0.87201 0.30300
 C2842 C 0.21090 0.86103 0.28686
 C2843 C 0.17657 0.91151 0.25452
 C2844 C 0.16874 0.92649 0.25457
 C2845 C 0.20918 0.83799 0.25383
 C2846 C 0.21570 0.82240 0.25350
 H2847 H 0.19755 0.83914 0.22015
 H2848 H 0.18241 0.85170 0.19235
 H2849 H 0.16844 0.88337 0.19262
 H2850 H 0.16964 0.90271 0.22066
 H2851 H 0.18952 0.91095 0.28787
 H2852 H 0.20470 0.89836 0.31570
 H2853 H 0.21852 0.86662 0.31545
 H2854 H 0.21713 0.84721 0.28745
 C2855 C 0.70183 0.35729 0.75586
 C2856 C 0.70250 0.36867 0.77211
 C2857 C 0.69450 0.38693 0.77182
 C2858 C 0.68584 0.39368 0.75530
 C2859 C 0.68528 0.38234 0.73901
 C2860 C 0.69331 0.36410 0.73929
 C2861 C 0.69255 0.35301 0.72284
 C2862 C 0.68408 0.35974 0.70660
 C2863 C 0.67619 0.37756 0.70634
 C2864 C 0.67675 0.38879 0.72231
 C2865 C 0.69532 0.39803 0.78824
 C2866 C 0.70381 0.39129 0.80448
 C2867 C 0.71164 0.37344 0.80475
 C2868 C 0.71102 0.36219 0.78880
 C2869 C 0.67705 0.41204 0.75513
 C2870 C 0.66930 0.42706 0.75479
 C2871 C 0.70988 0.33860 0.75611
 C2872 C 0.71652 0.32306 0.75599
 H2873 H 0.69848 0.33905 0.72234
 H2874 H 0.68362 0.35107 0.69416
 H2875 H 0.66961 0.38272 0.69369
 H2876 H 0.67046 0.40257 0.72139
 H2877 H 0.68946 0.41203 0.78869
 H2878 H 0.70432 0.39998 0.81691
 H2879 H 0.71827 0.36829 0.81738
 H2880 H 0.71729 0.34839 0.78970
 C2881 C 0.70361 0.64234 0.74361
 C2882 C 0.68962 0.63747 0.73040
 C2883 C 0.68130 0.61931 0.73089
 C2884 C 0.68704 0.60614 0.74459
 C2885 C 0.70132 0.61088 0.75754
 C2886 C 0.70965 0.62903 0.75704
 C2887 C 0.72387 0.63346 0.77015
 C2888 C 0.72969 0.62034 0.78340
 C2889 C 0.72152 0.60260 0.78392
 C2890 C 0.70749 0.59785 0.77118
 C2891 C 0.66725 0.61480 0.71761
 C2892 C 0.66163 0.62785 0.70419
 C2893 C 0.66980 0.64559 0.70369
 C2894 C 0.68362 0.65044 0.71662
 C2895 C 0.67790 0.58794 0.74576
 C2896 C 0.67010 0.57295 0.74706
 C2897 C 0.71153 0.66114 0.74369
 C2898 C 0.71814 0.67673 0.74409
 H2899 H 0.73067 0.64706 0.77030
 H2900 H 0.74060 0.62396 0.79332
 H2901 H 0.72609 0.59246 0.79425
 H2902 H 0.70159 0.58386 0.77213
 H2903 H 0.66052 0.60117 0.71743
 H2904 H 0.65089 0.62415 0.69412
 H2905 H 0.66541 0.65566 0.69322
 H2906 H 0.68957 0.66440 0.71566
 C2907 C 0.20199 0.14078 0.24254
 C2908 C 0.18678 0.13611 0.23067
 C2909 C 0.17866 0.11788 0.23155
 C2910 C 0.18581 0.10443 0.24429
 C2911 C 0.20127 0.10899 0.25588
 C2912 C 0.20940 0.12721 0.25499
 C2913 C 0.22482 0.13145 0.26676
 C2914 C 0.23200 0.11807 0.27904
 C2915 C 0.22403 0.10026 0.27993
 C2916 C 0.20883 0.09569 0.26853
 C2917 C 0.16340 0.11356 0.21961
 C2918 C 0.15640 0.12686 0.20713
 C2919 C 0.16436 0.14468 0.20626
 C2920 C 0.17937 0.14934 0.21788
 C2921 C 0.17695 0.08612 0.24587
 C2922 C 0.16939 0.07104 0.24744
 C2923 C 0.20978 0.15963 0.24226
 C2924 C 0.21626 0.17528 0.24233
 H2925 H 0.23152 0.14511 0.26656
 H2926 H 0.24380 0.12155 0.28793
 H2927 H 0.22965 0.08991 0.28950
 H2928 H 0.20313 0.08164 0.26971
 H2929 H 0.15676 0.09987 0.21976
 H2930 H 0.14475 0.12331 0.19808
 H2931 H 0.15890 0.15495 0.19652
 H2932 H 0.18510 0.16338 0.21668
 C2933 C 0.29874 0.14437 0.75556
 C2934 C 0.31812 0.14266 0.75942
 C2935 C 0.32665 0.12464 0.75939
 C2936 C 0.31573 0.10846 0.75549
 C2937 C 0.29627 0.11014 0.75205
 C2938 C 0.28775 0.12816 0.75209
 C2939 C 0.26829 0.12950 0.74853
 C2940 C 0.25755 0.11350 0.74502
 C2941 C 0.26589 0.09588 0.74497
 C2942 C 0.28502 0.09414 0.74843
 C2943 C 0.34607 0.12329 0.76318
 C2944 C 0.35676 0.13927 0.76689
 C2945 C 0.34843 0.15689 0.76690
 C2946 C 0.32934 0.15865 0.76324
 C2947 C 0.32465 0.09020 0.75442
 C2948 C 0.33234 0.07520 0.75320
 C2949 C 0.29024 0.16284 0.75471
 C2950 C 0.28331 0.17823 0.75381
 H2951 H 0.26116 0.14290 0.74845
 H2952 H 0.24268 0.11479 0.74233
 H2953 H 0.25749 0.08350 0.74224
 H2954 H 0.29087 0.08013 0.74828
 H2955 H 0.35319 0.10989 0.76335
 H2956 H 0.37160 0.13798 0.76975
 H2957 H 0.35681 0.16927 0.76974
 H2958 H 0.32349 0.17266 0.76344
 C2959 C 0.79911 0.64239 0.25651
 C2960 C 0.81840 0.64030 0.26062
 C2961 C 0.82663 0.62214 0.26045
 C2962 C 0.81552 0.60619 0.25618
 C2963 C 0.79614 0.60824 0.25249
 C2964 C 0.78790 0.62639 0.25266
 C2965 C 0.76852 0.62810 0.24885
 C2966 C 0.75758 0.61233 0.24497
 C2967 C 0.76564 0.59458 0.24479
 C2968 C 0.78469 0.59247 0.24849
 C2969 C 0.84598 0.62042 0.26448
 C2970 C 0.85687 0.63618 0.26856
 C2971 C 0.84882 0.65393 0.26872
 C2972 C 0.82981 0.65605 0.26481
 C2973 C 0.82415 0.58778 0.25502
 C2974 C 0.83163 0.57268 0.25374
 C2975 C 0.79090 0.66100 0.25582
 C2976 C 0.78416 0.67648 0.25505
 H2977 H 0.76161 0.64161 0.24886
 H2978 H 0.74277 0.61389 0.24209
 H2979 H 0.75708 0.58237 0.24176
 H2980 H 0.79031 0.57838 0.24821
 H2981 H 0.85288 0.60691 0.26455
 H2982 H 0.87164 0.63461 0.27161
 H2983 H 0.85735 0.66613 0.27186
 H2984 H 0.82418 0.67015 0.26515
 C2985 C 0.85582 0.25916 0.20338
 C2986 C 0.86362 0.27621 0.19674
 C2987 C 0.88188 0.27634 0.18881
 C2988 C 0.89222 0.25944 0.18759
 C2989 C 0.88456 0.24246 0.19459
 C2990 C 0.86630 0.24232 0.20249
 C2991 C 0.85888 0.22515 0.20927
 C2992 C 0.86922 0.20861 0.20830
 C2993 C 0.88709 0.20876 0.20060
 C2994 C 0.89474 0.22544 0.19380
 C2995 C 0.88935 0.29353 0.18216
 C2996 C 0.87907 0.31010 0.18330
 C2997 C 0.86120 0.30996 0.19104
 C2998 C 0.85350 0.29325 0.19773
 C2999 C 0.91038 0.25928 0.17848
 C3000 C 0.92525 0.25877 0.17051
 C3001 C 0.83700 0.25882 0.21101
 C3002 C 0.82142 0.25811 0.21744
 H3003 H 0.84504 0.22431 0.21540
 H3004 H 0.86333 0.19562 0.21357
 H3005 H 0.89508 0.19587 0.19989
 H3006 H 0.90871 0.22484 0.18797
 H3007 H 0.90320 0.29434 0.17604
 H3008 H 0.88500 0.32313 0.17816
 H3009 H 0.85326 0.32286 0.19186
 H3010 H 0.83957 0.29385 0.20367
 C3011 C 0.35957 0.75813 0.70469
 C3012 C 0.36758 0.77526 0.69851
 C3013 C 0.38589 0.77543 0.69071
 C3014 C 0.39609 0.75846 0.68916
 C3015 C 0.38824 0.74140 0.69573
 C3016 C 0.36992 0.74123 0.70350
 C3017 C 0.36232 0.72398 0.70986
 C3018 C 0.37253 0.70738 0.70857
 C3019 C 0.39045 0.70755 0.70098
 C3020 C 0.39828 0.72432 0.69460
 C3021 C 0.39356 0.79270 0.68451
 C3022 C 0.38342 0.80933 0.68598
 C3023 C 0.36550 0.80917 0.69359
 C3024 C 0.35761 0.79237 0.69983
 C3025 C 0.41427 0.75838 0.68008
 C3026 C 0.42911 0.75806 0.67206
 C3027 C 0.34064 0.75781 0.71207
 C3028 C 0.32493 0.75735 0.71822
 H3029 H 0.34844 0.72313 0.71589
 H3030 H 0.36650 0.69432 0.71351
 H3031 H 0.39833 0.69462 0.70002
 H3032 H 0.41228 0.72374 0.68883
 H3033 H 0.40746 0.79354 0.67852
 H3034 H 0.38950 0.82242 0.68117
 H3035 H 0.35767 0.82212 0.69465
 H3036 H 0.34364 0.79296 0.70568
 C3037 C 0.35845 0.24569 0.79390
 C3038 C 0.36910 0.26246 0.79511
 C3039 C 0.38726 0.26212 0.80326
 C3040 C 0.39464 0.24503 0.81016
 C3041 C 0.38415 0.22818 0.80858
 C3042 C 0.36598 0.22852 0.80042
 C3043 C 0.35569 0.21154 0.79909
 C3044 C 0.36313 0.19470 0.80566
 C3045 C 0.38091 0.19437 0.81362
 C3046 C 0.39136 0.21087 0.81511
 C3047 C 0.39762 0.27908 0.80440
 C3048 C 0.39024 0.29588 0.79769
 C3049 C 0.37247 0.29621 0.78973
 C3050 C 0.36196 0.27973 0.78841
 C3051 C 0.41265 0.24495 0.81958
 C3052 C 0.42737 0.24508 0.82785
 C3053 C 0.33966 0.24619 0.78621
 C3054 C 0.32403 0.24675 0.77987
 H3055 H 0.34183 0.21108 0.79297
 H3056 H 0.35505 0.18185 0.80458
 H3057 H 0.38663 0.18125 0.81869
 H3058 H 0.40513 0.20990 0.82138
 H3059 H 0.41152 0.27953 0.81044
 H3060 H 0.39835 0.30871 0.79866
 H3061 H 0.36678 0.30929 0.78453
 H3062 H 0.34822 0.28070 0.78208
 C3063 C 0.85932 0.74486 0.29592
 C3064 C 0.86953 0.76187 0.29745
 C3065 C 0.88766 0.76188 0.30568
 C3066 C 0.89545 0.74488 0.31236
 C3067 C 0.88538 0.72781 0.31050
 C3068 C 0.86726 0.72779 0.30225
 C3069 C 0.85741 0.71058 0.30063
 C3070 C 0.86525 0.69385 0.30698
 C3071 C 0.88299 0.69385 0.31503
 C3072 C 0.89301 0.71060 0.31681
 C3073 C 0.89758 0.77907 0.30712
 C3074 C 0.88980 0.79578 0.30062
 C3075 C 0.87206 0.79577 0.29258
 C3076 C 0.86198 0.77906 0.29098
 C3077 C 0.91347 0.74511 0.32176
 C3078 C 0.92823 0.74547 0.32998
 C3079 C 0.84056 0.74499 0.28809
 C3080 C 0.82496 0.74530 0.28164
 H3081 H 0.84358 0.70986 0.29444
 H3082 H 0.85751 0.68081 0.30567
 H3083 H 0.88903 0.68081 0.31992
 H3084 H 0.90677 0.70989 0.32314
 H3085 H 0.91144 0.77979 0.31324
 H3086 H 0.89759 0.80880 0.30182
 H3087 H 0.86608 0.80879 0.28755
 H3088 H 0.84824 0.77978 0.28460
 C3089 C 0.14072 0.75306 0.29627
 C3090 C 0.13153 0.77003 0.30087
 C3091 C 0.11338 0.76952 0.30904
 C3092 C 0.10455 0.75204 0.31255
 C3093 C 0.11364 0.73507 0.30770
 C3094 C 0.13179 0.73558 0.29955
 C3095 C 0.14063 0.71843 0.29489
 C3096 C 0.13180 0.70127 0.29819
 C3097 C 0.11405 0.70076 0.30616
 C3098 C 0.10501 0.71742 0.31089
 C3099 C 0.10447 0.78667 0.31356
 C3100 C 0.11326 0.80383 0.31012
 C3101 C 0.13102 0.80433 0.30215
 C3102 C 0.14012 0.78767 0.29756
 C3103 C 0.08635 0.75141 0.32160
 C3104 C 0.07142 0.75055 0.32943
 C3105 C 0.15942 0.75348 0.28830
 C3106 C 0.17496 0.75345 0.28174
 H3107 H 0.15444 0.71808 0.28865
 H3108 H 0.13876 0.68829 0.29453
 H3109 H 0.10724 0.68740 0.30868
 H3110 H 0.09120 0.71629 0.31703
 H3111 H 0.09064 0.78699 0.31975
 H3112 H 0.10625 0.81682 0.31366
 H3113 H 0.13778 0.81770 0.29951
 H3114 H 0.15392 0.78876 0.29137
 C3115 C 0.64208 0.25295 0.79874
 C3116 C 0.63240 0.26986 0.80253
 C3117 C 0.61416 0.26922 0.81049
 C3118 C 0.60573 0.25167 0.81462
 C3119 C 0.61534 0.23476 0.81067
 C3120 C 0.63357 0.23540 0.80271
 C3121 C 0.64293 0.21831 0.79893
 C3122 C 0.63452 0.20108 0.80290
 C3123 C 0.61669 0.20045 0.81069
 C3124 C 0.60715 0.21705 0.81456
 C3125 C 0.60477 0.28630 0.81419
 C3126 C 0.61316 0.30353 0.81014
 C3127 C 0.63100 0.30415 0.80236
 C3128 C 0.64057 0.28755 0.79856
 C3129 C 0.58737 0.25096 0.82332
 C3130 C 0.57228 0.25005 0.83083
 C3131 C 0.66080 0.25353 0.79085
 C3132 C 0.67636 0.25364 0.78432
 H3133 H 0.65681 0.21805 0.79287
 H3134 H 0.64188 0.18815 0.79992
 H3135 H 0.61021 0.18703 0.81375
 H3136 H 0.59330 0.21582 0.82059
 H3137 H 0.59086 0.28652 0.82021
 H3138 H 0.60578 0.31646 0.81306
 H3139 H 0.63745 0.31757 0.79924
 H3140 H 0.65441 0.28875 0.79249
 C3141 C 0.64400 0.74716 0.70245
 C3142 C 0.63537 0.76471 0.69896
 C3143 C 0.61716 0.76535 0.69094
 C3144 C 0.60767 0.74844 0.68646
 C3145 C 0.61622 0.73089 0.69009
 C3146 C 0.63446 0.73025 0.69810
 C3147 C 0.64276 0.71255 0.70154
 C3148 C 0.63332 0.69595 0.69720
 C3149 C 0.61549 0.69657 0.68938
 C3150 C 0.60697 0.71380 0.68583
 C3151 C 0.60885 0.78307 0.68753
 C3152 C 0.61827 0.79966 0.69191
 C3153 C 0.63608 0.79904 0.69975
 C3154 C 0.64460 0.78181 0.70327
 C3155 C 0.58932 0.74920 0.67770
 C3156 C 0.57426 0.75023 0.67014
 C3157 C 0.66271 0.74660 0.71040
 C3158 C 0.67826 0.74648 0.71699
 H3159 H 0.65661 0.71135 0.70760
 H3160 H 0.63987 0.68253 0.69993
 H3161 H 0.60822 0.68363 0.68604
 H3162 H 0.59308 0.71358 0.67976
 H3163 H 0.59501 0.78430 0.68146
 H3164 H 0.61171 0.81308 0.68920
 H3165 H 0.64335 0.81197 0.70313
 H3166 H 0.65848 0.78207 0.70939
 C3167 C 0.14096 0.24558 0.20066
 C3168 C 0.13299 0.26314 0.19589
 C3169 C 0.11461 0.26389 0.18828
 C3170 C 0.10431 0.24708 0.18548
 C3171 C 0.11223 0.22954 0.19038
 C3172 C 0.13063 0.22879 0.19799
 C3173 C 0.13829 0.21110 0.20273
 C3174 C 0.12805 0.19461 0.20004
 C3175 C 0.11006 0.19535 0.19260
 C3176 C 0.10217 0.21258 0.18779
 C3177 C 0.10695 0.28160 0.18356
 C3178 C 0.11716 0.29809 0.18629
 C3179 C 0.13514 0.29735 0.19374
 C3180 C 0.14303 0.28012 0.19850
 C3181 C 0.08580 0.24790 0.17710
 C3182 C 0.07063 0.24902 0.16976
 C3183 C 0.15979 0.24490 0.20829
 C3184 C 0.17543 0.24477 0.21465
 H3185 H 0.15223 0.20981 0.20855
 H3186 H 0.13410 0.18120 0.20377
 H3187 H 0.10217 0.18251 0.19054
 H3188 H 0.08813 0.21245 0.18207
 H3189 H 0.09302 0.28292 0.17773
 H3190 H 0.11109 0.31150 0.18260
 H3191 H 0.14302 0.31019 0.19584
 H3192 H 0.15706 0.28029 0.20425
 C3193 C -0.04627 0.99429 0.89628
 C3194 C -0.03989 1.00823 0.88362
 C3195 C -0.04768 1.00930 0.86533
 C3196 C -0.06180 0.99644 0.85981
 C3197 C -0.06793 0.98227 0.87235
 C3198 C -0.06015 0.98121 0.89065
 C3199 C -0.06658 0.96702 0.90299
 C3200 C -0.08030 0.95422 0.89740
 C3201 C -0.08791 0.95525 0.87950
 C3202 C -0.08185 0.96909 0.86707
 C3203 C -0.04115 1.02341 0.85295
 C3204 C -0.02733 1.03612 0.85849
 C3205 C -0.01970 1.03508 0.87637
 C3206 C -0.02586 1.02133 0.88885
 C3207 C -0.07045 0.99814 0.84148
 C3208 C -0.07802 0.99961 0.82645
 C3209 C -0.03884 0.99376 0.91520
 C3210 C -0.03256 0.99387 0.93087
 H3211 H -0.06107 0.96565 0.91704
 H3212 H -0.08506 0.94345 0.90700
 H3213 H -0.09856 0.94527 0.87524
 H3214 H -0.08817 0.96930 0.85329
 H3215 H -0.04662 1.02476 0.83888
 H3216 H -0.02250 1.04682 0.84885
 H3217 H -0.00896 1.04499 0.88059
 H3218 H -0.01948 1.02110 0.90260
 C3219 C 0.45082 0.49598 0.39632
 C3220 C 0.45184 0.51281 0.38578
 C3221 C 0.44435 0.51341 0.36734
 C3222 C 0.43586 0.49719 0.35957
 C3223 C 0.43513 0.48027 0.36999
 C3224 C 0.44263 0.47967 0.38843
 C3225 C 0.44168 0.46263 0.39861
 C3226 C 0.43357 0.44663 0.39079
 C3227 C 0.42623 0.44721 0.37276
 C3228 C 0.42696 0.46380 0.36242
 C3229 C 0.44548 0.53040 0.35710
 C3230 C 0.45378 0.54635 0.36484
 C3231 C 0.46110 0.54577 0.38287
 C3232 C 0.46018 0.52924 0.39328
 C3233 C 0.42729 0.49814 0.34114
 C3234 C 0.41975 0.49909 0.32606
 C3235 C 0.45812 0.49558 0.41530
 C3236 C 0.46434 0.49578 0.43099
 H3237 H 0.44720 0.46150 0.41269
 H3238 H 0.43297 0.43370 0.39876
 H3239 H 0.41995 0.43473 0.36675
 H3240 H 0.42110 0.46355 0.34844
 H3241 H 0.44002 0.53154 0.34301
 H3242 H 0.45454 0.55922 0.35680
 H3243 H 0.46754 0.55820 0.38882
 H3244 H 0.46608 0.52951 0.40724
 C3245 C 0.54895 0.00532 0.38930
 C3246 C 0.55783 0.02128 0.38144
 C3247 C 0.56627 0.02006 0.36345
 C3248 C 0.56577 0.00289 0.35344
 C3249 C 0.55669 -0.01300 0.36120
 C3250 C 0.54826 -0.01179 0.37919
 C3251 C 0.53932 -0.02789 0.38668
 C3252 C 0.53873 -0.04470 0.37670
 C3253 C 0.54698 -0.04588 0.35912
 C3254 C 0.55587 -0.03026 0.35138
 C3255 C 0.57512 0.03620 0.35592
 C3256 C 0.57562 0.05304 0.36586
 C3257 C 0.56736 0.05422 0.38344
 C3258 C 0.55855 0.03857 0.39120
 C3259 C 0.57492 0.00154 0.33534
 C3260 C 0.58283 0.00081 0.32045
 C3261 C 0.54080 0.00639 0.40789
 C3262 C 0.53413 0.00699 0.42338
 H3263 H 0.53269 -0.02767 0.40030
 H3264 H 0.53183 -0.05688 0.38264
 H3265 H 0.54648 -0.05898 0.35142
 H3266 H 0.56207 -0.03186 0.33765
 H3267 H 0.58173 0.03600 0.34229
 H3268 H 0.58246 0.06524 0.35989
 H3269 H 0.56777 0.06734 0.39110
 H3270 H 0.55231 0.04018 0.40491
 C3271 C 0.04977 0.50847 0.89129
 C3272 C 0.06496 0.52043 0.88666
 C3273 C 0.07332 0.51929 0.86864
 C3274 C 0.06644 0.50619 0.85535
 C3275 C 0.05112 0.49438 0.85991
 C3276 C 0.04275 0.49552 0.87793
 C3277 C 0.02749 0.48352 0.88218
 C3278 C 0.02069 0.47074 0.86902
 C3279 C 0.02888 0.46962 0.85141
 C3280 C 0.04392 0.48127 0.84682
 C3281 C 0.08853 0.53136 0.86436
 C3282 C 0.09529 0.54417 0.87752
 C3283 C 0.08712 0.54527 0.89514
 C3284 C 0.07212 0.53358 0.89973
 C3285 C 0.07523 0.50479 0.83707
 C3286 C 0.08278 0.50387 0.82201
 C3287 C 0.04170 0.50909 0.90993
 C3288 C 0.03502 0.50910 0.92542
 H3289 H 0.02063 0.48387 0.89569
 H3290 H 0.00901 0.46166 0.87249
 H3291 H 0.02354 0.45967 0.84125
 H3292 H 0.04981 0.47989 0.83294
 H3293 H 0.09535 0.53104 0.85084
 H3294 H 0.10695 0.55328 0.87401
 H3295 H 0.09241 0.55525 0.90531
 H3296 H 0.06620 0.53498 0.91361
 C3297 C 0.04104 0.49352 0.60897
 C3298 C 0.04095 0.51097 0.61850
 C3299 C 0.04922 0.51248 0.63655
 C3300 C 0.05750 0.49653 0.64498
 C3301 C 0.05712 0.47896 0.63568
 C3302 C 0.04886 0.47745 0.61761
 C3303 C 0.04877 0.45978 0.60852
 C3304 C 0.05662 0.44405 0.61703
 C3305 C 0.06469 0.44552 0.63470
 C3306 C 0.06498 0.46274 0.64398
 C3307 C 0.04911 0.53010 0.64573
 C3308 C 0.04104 0.54579 0.63732
 C3309 C 0.03294 0.54431 0.61968
 C3310 C 0.03286 0.52714 0.61031
 C3311 C 0.06714 0.49840 0.66280
 C3312 C 0.07565 0.49997 0.67731
 C3313 C 0.03355 0.49229 0.59010
 C3314 C 0.02746 0.49175 0.57437
 H3315 H 0.04262 0.45794 0.59479
 H3316 H 0.05646 0.43064 0.60988
 H3317 H 0.07076 0.43324 0.64125
 H3318 H 0.07139 0.46317 0.65771
 H3319 H 0.05520 0.53195 0.65949
 H3320 H 0.04107 0.55916 0.64455
 H3321 H 0.02668 0.55653 0.61321
 H3322 H 0.02636 0.52670 0.59663
 C3323 C 0.53961 0.99168 0.10960
 C3324 C 0.53913 1.00888 0.11955
 C3325 C 0.54762 1.01021 0.13751
 C3326 C 0.55651 0.99432 0.14542
 C3327 C 0.55644 0.97696 0.13573
 C3328 C 0.54798 0.97564 0.11776
 C3329 C 0.54824 0.95820 0.10825
 C3330 C 0.55662 0.94248 0.11629
 C3331 C 0.56488 0.94376 0.13388
 C3332 C 0.56484 0.96077 0.14355
 C3333 C 0.54713 1.02759 0.14712
 C3334 C 0.53847 1.04322 0.13921
 C3335 C 0.53014 1.04192 0.12166
 C3336 C 0.53043 1.02499 0.11188
 C3337 C 0.56647 0.99608 0.16306
 C3338 C 0.57524 0.99760 0.17742
 C3339 C 0.53211 0.99075 0.09073
 C3340 C 0.52610 0.99045 0.07497
 H3341 H 0.54195 0.95650 0.09456
 H3342 H 0.55671 0.92925 0.10883
 H3343 H 0.57136 0.93151 0.14007
 H3344 H 0.57141 0.96106 0.15721
 H3345 H 0.55337 1.02929 0.16083
 H3346 H 0.53821 1.05641 0.14676
 H3347 H 0.52342 1.05410 0.11559
 H3348 H 0.52374 1.02468 0.09828
 C3349 C 0.45363 0.50119 0.11052
 C3350 C 0.44520 0.51753 0.11798
 C3351 C 0.43724 0.51711 0.13622
 C3352 C 0.43775 0.50034 0.14689
 C3353 C 0.44643 0.48408 0.13955
 C3354 C 0.45438 0.48450 0.12131
 C3355 C 0.46290 0.46803 0.11423
 C3356 C 0.46355 0.45163 0.12488
 C3357 C 0.45578 0.45124 0.14271
 C3358 C 0.44730 0.46723 0.15004
 C3359 C 0.42882 0.53361 0.14334
 C3360 C 0.42829 0.55005 0.13275
 C3361 C 0.43607 0.55045 0.11492
 C3362 C 0.44445 0.53442 0.10754
 C3363 C 0.42888 0.49971 0.16518
 C3364 C 0.42111 0.49946 0.18017
 C3365 C 0.46136 0.50143 0.09171
 C3366 C 0.46779 0.50123 0.07611
 H3367 H 0.46915 0.46763 0.10044
 H3368 H 0.47012 0.43916 0.11925
 H3369 H 0.45633 0.43847 0.15092
 H3370 H 0.44149 0.46625 0.16399
 H3371 H 0.42261 0.53401 0.15715
 H3372 H 0.42180 0.56253 0.13842
 H3373 H 0.43562 0.56325 0.10675
 H3374 H 0.45032 0.53543 0.09361
 C3375 C -0.04422 -0.00158 0.61273
 C3376 C -0.04961 0.01544 0.62141
 C3377 C -0.05755 0.01515 0.63965
 C3378 C -0.06009 -0.00216 0.64911
 C3379 C -0.05442 -0.01916 0.64055
 C3380 C -0.04648 -0.01887 0.62230
 C3381 C -0.04103 -0.03605 0.61399
 C3382 C -0.04334 -0.05303 0.62345
 C3383 C -0.05108 -0.05330 0.64130
 C3384 C -0.05659 -0.03660 0.64982
 C3385 C -0.06290 0.03236 0.64801
 C3386 C -0.06047 0.04935 0.63861
 C3387 C -0.05271 0.04962 0.62077
 C3388 C -0.04732 0.03291 0.61220
 C3389 C -0.06911 -0.00247 0.66733
 C3390 C -0.07704 -0.00224 0.68223
 C3391 C -0.03660 -0.00133 0.59387
 C3392 C -0.03039 -0.00121 0.57818
 H3393 H -0.03493 -0.03656 0.60013
 H3394 H -0.03909 -0.06604 0.61688
 H3395 H -0.05284 -0.06652 0.64859
 H3396 H -0.06252 -0.03751 0.66374
 H3397 H -0.06897 0.03288 0.66188
 H3398 H -0.06463 0.06237 0.64522
 H3399 H -0.05086 0.06285 0.61352
 H3400 H -0.04134 0.03385 0.59831
 C3401 C -0.10804 0.95321 0.99764
 C3402 C -0.11296 0.93927 0.98437
 C3403 C -0.13107 0.93091 0.98490
 C3404 C -0.14415 0.93653 0.99870
 C3405 C -0.13932 0.95065 1.01181
 C3406 C -0.12122 0.95904 1.01126
 C3407 C -0.11672 0.97315 1.02451
 C3408 C -0.12971 0.97878 1.03792
 C3409 C -0.14738 0.97054 1.03848
 C3410 C -0.15221 0.95663 1.02561
 C3411 C -0.13563 0.91697 0.97149
 C3412 C -0.12270 0.91148 0.95796
 C3413 C -0.10500 0.91966 0.95745
 C3414 C -0.10010 0.93339 0.97048
 C3415 C -0.16249 0.92764 0.99949
 C3416 C -0.17756 0.91994 0.99986
 C3417 C -0.08933 0.96130 0.99755
 C3418 C -0.07380 0.96801 0.99786
 H3419 H -0.10317 0.97999 1.02462
 H3420 H -0.12604 0.98961 1.04793
 H3421 H -0.15741 0.97496 1.04894
 H3422 H -0.16613 0.95065 1.02660
 H3423 H -0.14923 0.91020 0.97130
 H3424 H -0.12644 0.90081 0.94781
 H3425 H -0.09502 0.91538 0.94689
 H3426 H -0.08617 0.93936 0.96951
 C3427 C 0.38982 0.45474 0.49636
 C3428 C 0.38616 0.43932 0.48438
 C3429 C 0.36828 0.43047 0.48464
 C3430 C 0.35414 0.43712 0.49687
 C3431 C 0.35772 0.45272 0.50864
 C3432 C 0.37560 0.46157 0.50838
 C3433 C 0.37885 0.47712 0.52030
 C3434 C 0.36484 0.48375 0.53215
 C3435 C 0.34737 0.47508 0.53242
 C3436 C 0.34377 0.45973 0.52083
 C3437 C 0.36500 0.41502 0.47258
 C3438 C 0.37897 0.40851 0.46062
 C3439 C 0.39644 0.41716 0.46037
 C3440 C 0.40008 0.43239 0.47209
 C3441 C 0.33600 0.42779 0.49740
 C3442 C 0.32109 0.41977 0.49762
 C3443 C 0.40833 0.46327 0.49670
 C3444 C 0.42376 0.47019 0.49733
 H3445 H 0.39220 0.48435 0.52058
 H3446 H 0.36756 0.49567 0.54116
 H3447 H 0.33654 0.48027 0.54166
 H3448 H 0.32995 0.45347 0.52153
 H3449 H 0.35163 0.40782 0.47225
 H3450 H 0.37622 0.39668 0.45148
 H3451 H 0.40724 0.41205 0.45105
 H3452 H 0.41388 0.43868 0.47137
 C3453 C 0.39277 0.54191 0.01065
 C3454 C 0.37737 0.53190 0.00304
 C3455 C 0.35964 0.54080 0.00129
 C3456 C 0.35741 0.55965 0.00718
 C3457 C 0.37267 0.56947 0.01532
 C3458 C 0.39040 0.56057 0.01707
 C3459 C 0.40546 0.57071 0.02515
 C3460 C 0.40310 0.58911 0.03133
 C3461 C 0.38578 0.59782 0.02961
 C3462 C 0.37070 0.58819 0.02170
 C3463 C 0.34451 0.53055 -0.00651
 C3464 C 0.34680 0.51202 -0.01236
 C3465 C 0.36412 0.50332 -0.01061
 C3466 C 0.37928 0.51308 -0.00303
 C3467 C 0.33957 0.56909 0.00452
 C3468 C 0.32495 0.57726 0.00229
 C3469 C 0.41124 0.53339 0.01096
 C3470 C 0.42668 0.52655 0.01062
 H3471 H 0.41919 0.56451 0.02682
 H3472 H 0.41476 0.59666 0.03748
 H3473 H 0.38402 0.61212 0.03443
 H3474 H 0.35750 0.59557 0.02068
 H3475 H 0.33076 0.53672 -0.00813
 H3476 H 0.33507 0.50438 -0.01827
 H3477 H 0.36582 0.48892 -0.01516
 H3478 H 0.39246 0.50569 -0.00192
 C3479 C -0.10745 0.04199 0.50987
 C3480 C -0.12243 0.03285 0.50054
 C3481 C -0.14013 0.04183 0.49902
 C3482 C -0.14276 0.05989 0.50687
 C3483 C -0.12790 0.06884 0.51659
 C3484 C -0.11020 0.05986 0.51810
 C3485 C -0.09553 0.06912 0.52780
 C3486 C -0.09827 0.08675 0.53580
 C3487 C -0.11556 0.09555 0.53430
 C3488 C -0.13025 0.08678 0.52482
 C3489 C -0.15484 0.03248 0.48949
 C3490 C -0.15215 0.01474 0.48170
 C3491 C -0.13485 0.00595 0.48320
 C3492 C -0.12011 0.01484 0.49249
 C3493 C -0.16057 0.06947 0.50464
 C3494 C -0.17513 0.07784 0.50282
 C3495 C -0.08902 0.03341 0.51028
 C3496 C -0.07358 0.02659 0.51017
 H3497 H -0.08184 0.06283 0.52936
 H3498 H -0.08692 0.09360 0.54322
 H3499 H -0.11761 0.10925 0.54053
 H3500 H -0.14343 0.09420 0.52404
 H3501 H -0.16855 0.03876 0.48797
 H3502 H -0.16356 0.00778 0.47447
 H3503 H -0.13283 -0.00782 0.47713
 H3504 H -0.10692 0.00742 0.49332
 C3505 C 0.60951 0.05109 0.49354
 C3506 C 0.62370 0.04205 0.50406
 C3507 C 0.64185 0.05024 0.50535
 C3508 C 0.64572 0.06739 0.49609
 C3509 C 0.63158 0.07633 0.48541
 C3510 C 0.61343 0.06815 0.48413
 C3511 C 0.59953 0.07736 0.47339
 C3512 C 0.60344 0.09418 0.46418
 C3513 C 0.62118 0.10217 0.46542
 C3514 C 0.63514 0.09343 0.47589
 C3515 C 0.65578 0.04097 0.51600
 C3516 C 0.65190 0.02408 0.52508
 C3517 C 0.63416 0.01607 0.52381
 C3518 C 0.62017 0.02489 0.51344
 C3519 C 0.66422 0.07588 0.49749
 C3520 C 0.67943 0.08325 0.49831
 C3521 C 0.59078 0.04306 0.49278
 C3522 C 0.57520 0.03647 0.49248
 H3523 H 0.58552 0.07167 0.47197
 H3524 H 0.59264 0.10103 0.45603
 H3525 H 0.62416 0.11523 0.45823
 H3526 H 0.64872 0.10021 0.47644
 H3527 H 0.66978 0.04667 0.51741
 H3528 H 0.66271 0.01717 0.53315
 H3529 H 0.63122 0.00294 0.53088
 H3530 H 0.60660 0.01808 0.51284
 C3531 C 0.11006 0.54946 0.99141
 C3532 C 0.11581 0.56244 0.97753
 C3533 C 0.13405 0.57050 0.97835
 C3534 C 0.14644 0.56553 0.99305
 C3535 C 0.14077 0.55235 1.00678
 C3536 C 0.12254 0.54428 1.00595
 C3537 C 0.11719 0.53116 1.01987
 C3538 C 0.12948 0.52615 1.03418
 C3539 C 0.14729 0.53405 1.03498
 C3540 C 0.15295 0.54701 1.02149
 C3541 C 0.13945 0.58350 0.96433
 C3542 C 0.12720 0.58837 0.94992
 C3543 C 0.10938 0.58047 0.94913
 C3544 C 0.10367 0.56766 0.96275
 C3545 C 0.16488 0.57417 0.99417
 C3546 C 0.18007 0.58163 0.99496
 C3547 C 0.09122 0.54170 0.99102
 C3548 C 0.07559 0.53521 0.99119
 H3549 H 0.10349 0.52461 1.01984
 H3550 H 0.12516 0.51608 1.04469
 H3551 H 0.15679 0.53011 1.04613
 H3552 H 0.16695 0.55277 1.02271
 H3553 H 0.15317 0.59001 0.96433
 H3554 H 0.13157 0.59832 0.93931
 H3555 H 0.09992 0.58428 0.93790
 H3556 H 0.08968 0.56189 0.96154
 C3557 C 0.10530 0.45088 0.50194
 C3558 C 0.11920 0.45554 0.51533
 C3559 C 0.13756 0.44803 0.51361
 C3560 C 0.14190 0.43589 0.49853
 C3561 C 0.12805 0.43136 0.48505
 C3562 C 0.10970 0.43887 0.48676
 C3563 C 0.09607 0.43407 0.47314
 C3564 C 0.10045 0.42220 0.45827
 C3565 C 0.11839 0.41487 0.45660
 C3566 C 0.13208 0.41935 0.46979
 C3567 C 0.15120 0.45285 0.52719
 C3568 C 0.14684 0.46475 0.54205
 C3569 C 0.12889 0.47209 0.54372
 C3570 C 0.11517 0.46759 0.53056
 C3571 C 0.16037 0.42748 0.49721
 C3572 C 0.17542 0.41990 0.49614
 C3573 C 0.08652 0.45848 0.50362
 C3574 C 0.07084 0.46468 0.50445
 H3575 H 0.08191 0.43940 0.47383
 H3576 H 0.08985 0.41867 0.44799
 H3577 H 0.12173 0.40566 0.44502
 H3578 H 0.14584 0.41330 0.46787
 H3579 H 0.16536 0.44751 0.52646
 H3580 H 0.15744 0.46830 0.55231
 H3581 H 0.12556 0.48131 0.55529
 H3582 H 0.10141 0.47363 0.53245
 C3583 C 0.60540 0.95068 0.00382
 C3584 C 0.61892 0.95526 0.01761
 C3585 C 0.63742 0.94803 0.01617
 C3586 C 0.64227 0.93625 0.00096
 C3587 C 0.62878 0.93179 -0.01290
 C3588 C 0.61029 0.93901 -0.01147
 C3589 C 0.59703 0.93429 -0.02547
 C3590 C 0.60189 0.92276 -0.04045
 C3591 C 0.61997 0.91569 -0.04186
 C3592 C 0.63331 0.92011 -0.02829
 C3593 C 0.65068 0.95276 0.03015
 C3594 C 0.64582 0.96430 0.04513
 C3595 C 0.62773 0.97136 0.04653
 C3596 C 0.61438 0.96694 0.03297
 C3597 C 0.66088 0.92813 -0.00012
 C3598 C 0.67603 0.92073 -0.00106
 C3599 C 0.58650 0.95807 0.00518
 C3600 C 0.57076 0.96416 0.00574
 H3601 H 0.58279 0.93942 -0.02500
 H3602 H 0.59158 0.91928 -0.05103
 H3603 H 0.62368 0.90675 -0.05353
 H3604 H 0.64718 0.91428 -0.03002
 H3605 H 0.66493 0.94762 0.02964
 H3606 H 0.65614 0.96778 0.05570
 H3607 H 0.62402 0.98032 0.05820
 H3608 H 0.60050 0.97277 0.03467
 C3609 C -0.00589 0.89330 0.95771
 C3610 C -0.02243 0.88354 0.95262
 C3611 C -0.02119 0.86544 0.94430
 C3612 C -0.00342 0.85724 0.94111
 C3613 C 0.01310 0.86686 0.94654
 C3614 C 0.01187 0.88494 0.95487
 C3615 C 0.02860 0.89431 0.96009
 C3616 C 0.04604 0.88607 0.95715
 C3617 C 0.04724 0.86840 0.94898
 C3618 C 0.03101 0.85884 0.94371
 C3619 C -0.03792 0.85598 0.93926
 C3620 C -0.05536 0.86416 0.94234
 C3621 C -0.05656 0.88187 0.95046
 C3622 C -0.04033 0.89152 0.95556
 C3623 C -0.00204 0.83927 0.93160
 C3624 C -0.00071 0.82460 0.92326
 C3625 C -0.00699 0.91206 0.96560
 C3626 C -0.00720 0.92769 0.97209
 H3627 H 0.02842 0.90808 0.96651
 H3628 H 0.05869 0.89344 0.96123
 H3629 H 0.06082 0.86206 0.94672
 H3630 H 0.03268 0.84511 0.93744
 H3631 H -0.03769 0.84216 0.93294
 H3632 H -0.06802 0.85672 0.93841
 H3633 H -0.07014 0.88816 0.95283
 H3634 H -0.04196 0.90525 0.96184
 C3635 C 0.48822 0.39466 0.45888
 C3636 C 0.47462 0.38943 0.44542
 C3637 C 0.47571 0.37157 0.43657
 C3638 C 0.49036 0.35906 0.44132
 C3639 C 0.50357 0.36405 0.45526
 C3640 C 0.50250 0.38190 0.46407
 C3641 C 0.51596 0.38664 0.47788
 C3642 C 0.53006 0.37408 0.48283
 C3643 C 0.53111 0.35662 0.47420
 C3644 C 0.51806 0.35159 0.46056
 C3645 C 0.46207 0.36673 0.42299
 C3646 C 0.44772 0.37914 0.41835
 C3647 C 0.44662 0.39656 0.42705
 C3648 C 0.45990 0.40174 0.44042
 C3649 C 0.49225 0.34137 0.43140
 C3650 C 0.49400 0.32689 0.42283
 C3651 C 0.48808 0.41342 0.46681
 C3652 C 0.48859 0.42904 0.47327
 H3653 H 0.51570 0.40004 0.48502
 H3654 H 0.54022 0.37791 0.49343
 H3655 H 0.54209 0.34692 0.47810
 H3656 H 0.51943 0.33783 0.45428
 H3657 H 0.46231 0.35331 0.41589
 H3658 H 0.43739 0.37520 0.40795
 H3659 H 0.43543 0.40612 0.42343
 H3660 H 0.45845 0.41543 0.44684
 C3661 C 0.00086 0.38830 0.54797
 C3662 C -0.00623 0.37270 0.53787
 C3663 C -0.00719 0.35475 0.54655
 C3664 C -0.00101 0.35250 0.56526
 C3665 C 0.00618 0.36809 0.57532
 C3666 C 0.00711 0.38604 0.56665
 C3667 C 0.01431 0.40142 0.57701
 C3668 C 0.02041 0.39913 0.59541
 C3669 C 0.01952 0.38158 0.60388
 C3670 C 0.01250 0.36619 0.59403
 C3671 C -0.01439 0.33938 0.53621
 C3672 C -0.02044 0.34167 0.51779
 C3673 C -0.01947 0.35921 0.50929
 C3674 C -0.01247 0.37460 0.51915
 C3675 C -0.00179 0.33416 0.57414
 C3676 C -0.00198 0.31913 0.58193
 C3677 C 0.00131 0.40676 0.53934
 C3678 C 0.00140 0.42221 0.53242
 H3679 H 0.01531 0.41535 0.57102
 H3680 H 0.02584 0.41104 0.60312
 H3681 H 0.02428 0.37987 0.61818
 H3682 H 0.01208 0.35283 0.60125
 H3683 H -0.01542 0.32547 0.54223
 H3684 H -0.02591 0.32977 0.51008
 H3685 H -0.02418 0.36092 0.49498
 H3686 H -0.01198 0.38796 0.51194
 C3687 C 0.50059 0.88758 0.04785
 C3688 C 0.50685 0.88542 0.06655
 C3689 C 0.50600 0.86750 0.07528
 C3690 C 0.49889 0.85184 0.06528
 C3691 C 0.49273 0.85399 0.04655
 C3692 C 0.49361 0.87191 0.03780
 C3693 C 0.48740 0.87370 0.01906
 C3694 C 0.48050 0.85823 0.00925
 C3695 C 0.47961 0.84072 0.01782
 C3696 C 0.48563 0.83854 0.03626
 C3697 C 0.51234 0.86571 0.09399
 C3698 C 0.51928 0.88117 0.10379
 C3699 C 0.52008 0.89869 0.09525
 C3700 C 0.51397 0.90088 0.07685
 C3701 C 0.49813 0.83355 0.07424
 C3702 C 0.49793 0.81854 0.08207
 C3703 C 0.50093 0.90602 0.03917
 C3704 C 0.50097 0.92146 0.03224
 H3705 H 0.48784 0.88703 0.01179
 H3706 H 0.47582 0.85985 -0.00508
 H3707 H 0.47422 0.82875 0.01014
 H3708 H 0.48467 0.82464 0.04233
 H3709 H 0.51200 0.85237 0.10126
 H3710 H 0.52406 0.87954 0.11809
 H3711 H 0.52544 0.91067 0.10292
 H3712 H 0.51490 0.91479 0.07081
 C3713 C 0.49406 0.60289 0.04931
 C3714 C 0.51069 0.61367 0.04760
 C3715 C 0.51163 0.63196 0.05550
 C3716 C 0.49594 0.63939 0.06506
 C3717 C 0.47918 0.62875 0.06645
 C3718 C 0.47824 0.61044 0.05855
 C3719 C 0.46139 0.60004 0.06017
 C3720 C 0.44590 0.60750 0.06938
 C3721 C 0.44681 0.62539 0.07713
 C3722 C 0.46323 0.63596 0.07572
 C3723 C 0.52844 0.64242 0.05372
 C3724 C 0.54388 0.63501 0.04437
 C3725 C 0.54295 0.61713 0.03662
 C3726 C 0.52659 0.60652 0.03818
 C3727 C 0.49727 0.65767 0.07399
 C3728 C 0.49853 0.67264 0.08179
 C3729 C 0.49342 0.58395 0.04180
 C3730 C 0.49347 0.56826 0.03548
 H3731 H 0.46000 0.58607 0.05434
 H3732 H 0.43312 0.59934 0.07052
 H3733 H 0.43473 0.63111 0.08427
 H3734 H 0.46325 0.64982 0.08194
 H3735 H 0.52983 0.65641 0.05948
 H3736 H 0.55662 0.64320 0.04314
 H3737 H 0.55498 0.61144 0.02937
 H3738 H 0.52657 0.59269 0.03189
 C3739 C -0.00310 0.10363 0.55005
 C3740 C 0.01343 0.10975 0.55920
 C3741 C 0.01441 0.12815 0.56685
 C3742 C -0.00115 0.14035 0.56527
 C3743 C -0.01762 0.13430 0.55595
 C3744 C -0.01860 0.11587 0.54832
 C3745 C -0.03522 0.11012 0.53911
 C3746 C -0.05043 0.12223 0.53746
 C3747 C -0.04948 0.14024 0.54493
 C3748 C -0.03330 0.14628 0.55409
 C3749 C 0.03106 0.13392 0.57601
 C3750 C 0.04632 0.12185 0.57756
 C3751 C 0.04538 0.10386 0.57005
 C3752 C 0.02917 0.09781 0.56097
 C3753 C -0.00039 0.15885 0.57381
 C3754 C 0.00032 0.17395 0.58142
 C3755 C -0.00405 0.08477 0.54238
 C3756 C -0.00437 0.06908 0.53604
 H3757 H -0.03663 0.09624 0.53308
 H3758 H -0.06302 0.11763 0.53031
 H3759 H -0.06135 0.14958 0.54361
 H3760 H -0.03321 0.16042 0.55964
 H3761 H 0.03249 0.14778 0.58205
 H3762 H 0.05894 0.12649 0.58461
 H3763 H 0.05727 0.09455 0.57128
 H3764 H 0.02913 0.08368 0.55537
 C3765 C 0.50400 0.11173 0.44913
 C3766 C 0.52003 0.11972 0.44057
 C3767 C 0.51903 0.13798 0.43259
 C3768 C 0.50200 0.14814 0.43322
 C3769 C 0.48603 0.14022 0.44194
 C3770 C 0.48702 0.12195 0.44991
 C3771 C 0.47084 0.11430 0.45850
 C3772 C 0.45416 0.12440 0.45919
 C3773 C 0.45319 0.14225 0.45139
 C3774 C 0.46890 0.15015 0.44284
 C3775 C 0.53524 0.14565 0.42405
 C3776 C 0.55193 0.13556 0.42341
 C3777 C 0.55290 0.11770 0.43122
 C3778 C 0.53717 0.10981 0.43972
 C3779 C 0.50085 0.16656 0.42456
 C3780 C 0.50011 0.18172 0.41707
 C3781 C 0.50488 0.09294 0.45698
 C3782 C 0.50532 0.07734 0.46351
 H3783 H 0.47089 0.10046 0.46477
 H3784 H 0.44192 0.11833 0.46581
 H3785 H 0.44020 0.15004 0.45195
 H3786 H 0.46746 0.16409 0.43700
 H3787 H 0.53520 0.15949 0.41780
 H3788 H 0.56419 0.14163 0.41682
 H3789 H 0.56589 0.10992 0.43069
 H3790 H 0.53861 0.09588 0.44561
 C3791 C 0.00743 0.61059 0.95074
 C3792 C 0.02384 0.61896 0.94334
 C3793 C 0.02299 0.63722 0.93533
 C3794 C 0.00573 0.64700 0.93479
 C3795 C -0.01063 0.63870 0.94239
 C3796 C -0.00978 0.62044 0.95038
 C3797 C -0.02635 0.61241 0.95783
 C3798 C -0.04326 0.62214 0.95739
 C3799 C -0.04408 0.63999 0.94957
 C3800 C -0.02800 0.64825 0.94213
 C3801 C 0.03958 0.64528 0.92796
 C3802 C 0.05650 0.63557 0.92849
 C3803 C 0.05732 0.61772 0.93632
 C3804 C 0.04122 0.60943 0.94368
 C3805 C 0.00473 0.66538 0.92602
 C3806 C 0.00409 0.68049 0.91842
 C3807 C 0.00814 0.59179 0.95858
 C3808 C 0.00825 0.57619 0.96514
 H3809 H -0.02643 0.59856 0.96407
 H3810 H -0.05579 0.61579 0.96315
 H3811 H -0.05725 0.64749 0.94926
 H3812 H -0.02934 0.66218 0.93622
 H3813 H 0.03966 0.65914 0.92174
 H3814 H 0.06905 0.64194 0.92279
 H3815 H 0.07050 0.61023 0.93671
 H3816 H 0.04255 0.59552 0.94963
 C3817 C 0.24275 0.70470 0.85765
 C3818 C 0.25196 0.71428 0.87243
 C3819 C 0.25384 0.70555 0.89023
 C3820 C 0.24647 0.68731 0.89317
 C3821 C 0.23678 0.67795 0.87855
 C3822 C 0.23492 0.68668 0.86074
 C3823 C 0.22528 0.67701 0.84632
 C3824 C 0.21764 0.65925 0.84941
 C3825 C 0.21947 0.65070 0.86681
 C3826 C 0.22893 0.65987 0.88126
 C3827 C 0.26324 0.71533 0.90473
 C3828 C 0.27054 0.73326 0.90174
 C3829 C 0.26867 0.74181 0.88434
 C3830 C 0.25951 0.73250 0.86980
 C3831 C 0.24911 0.67800 0.91109
 C3832 C 0.25125 0.66994 0.92579
 C3833 C 0.24214 0.71299 0.83908
 C3834 C 0.24226 0.71973 0.82359
 H3835 H 0.22346 0.68310 0.83255
 H3836 H 0.21024 0.65210 0.83825
 H3837 H 0.21353 0.63689 0.86913
 H3838 H 0.22996 0.65265 0.89456
 H3839 H 0.26502 0.70926 0.91850
 H3840 H 0.27768 0.74055 0.91299
 H3841 H 0.27435 0.75575 0.88210
 H3842 H 0.25837 0.73975 0.85654
 C3843 C 0.74367 0.20471 0.35903
 C3844 C 0.75270 0.21470 0.37364
 C3845 C 0.75469 0.20631 0.39160
 C3846 C 0.74761 0.18800 0.39485
 C3847 C 0.73820 0.17819 0.38035
 C3848 C 0.73622 0.18657 0.36240
 C3849 C 0.72682 0.17646 0.34811
 C3850 C 0.71958 0.15858 0.35147
 C3851 C 0.72154 0.15037 0.36901
 C3852 C 0.73074 0.15998 0.38334
 C3853 C 0.76388 0.21651 0.40595
 C3854 C 0.77087 0.23450 0.40266
 C3855 C 0.76890 0.24272 0.38511
 C3856 C 0.75995 0.23299 0.37071
 C3857 C 0.75021 0.17910 0.41297
 C3858 C 0.75223 0.17123 0.42779
 C3859 C 0.74273 0.21274 0.34036
 C3860 C 0.74241 0.21919 0.32475
 H3861 H 0.72492 0.18227 0.33424
 H3862 H 0.71238 0.15108 0.34040
 H3863 H 0.71590 0.13647 0.37155
 H3864 H 0.73189 0.15300 0.39674
 H3865 H 0.76573 0.21071 0.41983
 H3866 H 0.77785 0.24212 0.41379
 H3867 H 0.77434 0.25671 0.38263
 H3868 H 0.75872 0.23998 0.35731
 C3869 C 0.25766 0.29641 0.35515
 C3870 C 0.25955 0.31610 0.35723
 C3871 C 0.25823 0.32437 0.37530
 C3872 C 0.25506 0.31288 0.39120
 C3873 C 0.25361 0.29315 0.38917
 C3874 C 0.25491 0.28489 0.37109
 C3875 C 0.25332 0.26514 0.36940
 C3876 C 0.25050 0.25387 0.38512
 C3877 C 0.24923 0.26195 0.40279
 C3878 C 0.25076 0.28136 0.40488
 C3879 C 0.26003 0.34412 0.37699
 C3880 C 0.26304 0.35536 0.36129
 C3881 C 0.26435 0.34727 0.34364
 C3882 C 0.26264 0.32788 0.34154
 C3883 C 0.25303 0.32149 0.40953
 C3884 C 0.25135 0.32922 0.42446
 C3885 C 0.25781 0.28812 0.33655
 C3886 C 0.25744 0.28140 0.32106
 H3887 H 0.25427 0.25820 0.35595
 H3888 H 0.24932 0.23878 0.38359
 H3889 H 0.24704 0.25313 0.41495
 H3890 H 0.24971 0.28701 0.41891
 H3891 H 0.25915 0.35108 0.39043
 H3892 H 0.26436 0.37043 0.36283
 H3893 H 0.26671 0.35606 0.33149
 H3894 H 0.26381 0.32225 0.32752
 C3895 C 0.75960 0.79796 0.85789
 C3896 C 0.76164 0.81762 0.86008
 C3897 C 0.76008 0.82582 0.87816
 C3898 C 0.75652 0.81429 0.89395
 C3899 C 0.75494 0.79458 0.89181
 C3900 C 0.75649 0.78639 0.87373
 C3901 C 0.75478 0.76665 0.87193
 C3902 C 0.75163 0.75534 0.88755
 C3903 C 0.75011 0.76336 0.90523
 C3904 C 0.75173 0.78275 0.90742
 C3905 C 0.76203 0.84554 0.87997
 C3906 C 0.76546 0.85682 0.86439
 C3907 C 0.76700 0.84880 0.84672
 C3908 C 0.76512 0.82944 0.84451
 C3909 C 0.75425 0.82282 0.91228
 C3910 C 0.75236 0.83049 0.92721
 C3911 C 0.75989 0.78976 0.83927
 C3912 C 0.75959 0.78310 0.82375
 H3913 H 0.75590 0.75976 0.85847
 H3914 H 0.75037 0.74027 0.88594
 H3915 H 0.74767 0.75450 0.91731
 H3916 H 0.75046 0.78835 0.92145
 H3917 H 0.76097 0.85245 0.89342
 H3918 H 0.76693 0.87187 0.86603
 H3919 H 0.76967 0.85762 0.83466
 H3920 H 0.76647 0.82385 0.83048
 C3921 C 0.74309 0.79895 0.14198
 C3922 C 0.75515 0.79156 0.12807
 C3923 C 0.75600 0.80011 0.11010
 C3924 C 0.74478 0.81598 0.10612
 C3925 C 0.73249 0.82318 0.11993
 C3926 C 0.73165 0.81464 0.13791
 C3927 C 0.71932 0.82212 0.15150
 C3928 C 0.70812 0.83760 0.14745
 C3929 C 0.70895 0.84596 0.12988
 C3930 C 0.72096 0.83890 0.11622
 C3931 C 0.76823 0.79254 0.09647
 C3932 C 0.77928 0.77694 0.10047
 C3933 C 0.77843 0.76856 0.11802
 C3934 C 0.76653 0.77572 0.13172
 C3935 C 0.74595 0.82500 0.08790
 C3936 C 0.74674 0.83274 0.07290
 C3937 C 0.74292 0.79075 0.16060
 C3938 C 0.74327 0.78397 0.17606
 H3939 H 0.71816 0.81608 0.16536
 H3940 H 0.69876 0.84313 0.15800
 H3941 H 0.70023 0.85799 0.12680
 H3942 H 0.72109 0.84588 0.10276
 H3943 H 0.76937 0.79856 0.08260
 H3944 H 0.78855 0.77133 0.08988
 H3945 H 0.78703 0.75643 0.12105
 H3946 H 0.76635 0.76870 0.14516
 C3947 C 0.24221 0.29968 0.64016
 C3948 C 0.25451 0.29219 0.62652
 C3949 C 0.25543 0.30040 0.60839
 C3950 C 0.24402 0.31601 0.60398
 C3951 C 0.23151 0.32332 0.61753
 C3952 C 0.23060 0.31512 0.63567
 C3953 C 0.21803 0.32268 0.64899
 C3954 C 0.20667 0.33793 0.64453
 C3955 C 0.20756 0.34596 0.62681
 C3956 C 0.21980 0.33881 0.61341
 C3957 C 0.26791 0.29274 0.59504
 C3958 C 0.27914 0.27738 0.59946
 C3959 C 0.27822 0.26933 0.61717
 C3960 C 0.26608 0.27659 0.63060
 C3961 C 0.24523 0.32468 0.58559
 C3962 C 0.24601 0.33216 0.57045
 C3963 C 0.24191 0.29179 0.65892
 C3964 C 0.24216 0.28523 0.67448
 H3965 H 0.21681 0.31689 0.66295
 H3966 H 0.19712 0.34353 0.65489
 H3967 H 0.19871 0.35781 0.62342
 H3968 H 0.21997 0.34553 0.59982
 H3969 H 0.26911 0.29850 0.58107
 H3970 H 0.28859 0.27169 0.58907
 H3971 H 0.28695 0.25739 0.62052
 H3972 H 0.26585 0.26983 0.64416
 C3973 C 0.75622 0.20080 0.64351
 C3974 C 0.75095 0.18172 0.64138
 C3975 C 0.75006 0.17360 0.62321
 C3976 C 0.75447 0.18459 0.60726
 C3977 C 0.75978 0.20365 0.60940
 C3978 C 0.76067 0.21177 0.62758
 C3979 C 0.76603 0.23085 0.62936
 C3980 C 0.77039 0.24160 0.61364
 C3981 C 0.76950 0.23367 0.59587
 C3982 C 0.76427 0.21492 0.59369
 C3983 C 0.74475 0.15450 0.62145
 C3984 C 0.74044 0.14374 0.63718
 C3985 C 0.74132 0.15168 0.65494
 C3986 C 0.74651 0.17043 0.65710
 C3987 C 0.75391 0.17613 0.58874
 C3988 C 0.75371 0.16868 0.57357
 C3989 C 0.75662 0.20918 0.66206
 C3990 C 0.75653 0.21601 0.67751
 H3991 H 0.76694 0.23763 0.64289
 H3992 H 0.77447 0.25617 0.61526
 H3993 H 0.77290 0.24209 0.58371
 H3994 H 0.76379 0.20938 0.57959
 H3995 H 0.74385 0.14769 0.60794
 H3996 H 0.73640 0.12916 0.63557
 H3997 H 0.73798 0.14326 0.66712
 H3998 H 0.74701 0.17595 0.67121
 C3999 C 0.25435 0.69944 0.14114
 C4000 C 0.24912 0.68034 0.13913
 C4001 C 0.24817 0.67212 0.12100
 C4002 C 0.25248 0.68304 0.10497
 C4003 C 0.25773 0.70213 0.10700
 C4004 C 0.25868 0.71035 0.12513
 C4005 C 0.26399 0.72944 0.12679
 C4006 C 0.26824 0.74013 0.11099
 C4007 C 0.26729 0.73211 0.09327
 C4008 C 0.26210 0.71333 0.09121
 C4009 C 0.24289 0.65300 0.11936
 C4010 C 0.23870 0.64231 0.13516
 C4011 C 0.23965 0.65033 0.15288
 C4012 C 0.24479 0.66912 0.15492
 C4013 C 0.25198 0.67445 0.08651
 C4014 C 0.25190 0.66694 0.07136
 C4015 C 0.25486 0.70791 0.15965
 C4016 C 0.25484 0.71481 0.17508
 H4017 H 0.26494 0.73630 0.14028
 H4018 H 0.27229 0.75472 0.11252
 H4019 H 0.27060 0.74047 0.08105
 H4020 H 0.26155 0.70773 0.07714
 H4021 H 0.24192 0.64613 0.10588
 H4022 H 0.23469 0.62771 0.13365
 H4023 H 0.23640 0.64196 0.16511
 H4024 H 0.24535 0.67471 0.16900
 C4025 C 0.20276 0.64405 0.75399
 C4026 C 0.19367 0.63855 0.73721
 C4027 C 0.18577 0.62027 0.73565
 C4028 C 0.18703 0.60758 0.75086
 C4029 C 0.19626 0.61302 0.76758
 C4030 C 0.20413 0.63132 0.76915
 C4031 C 0.21323 0.63648 0.78601
 C4032 C 0.21453 0.62389 0.80090
 C4033 C 0.20683 0.60600 0.79938
 C4034 C 0.19777 0.60055 0.78294
 C4035 C 0.17666 0.61515 0.71878
 C4036 C 0.17542 0.62770 0.70386
 C4037 C 0.18319 0.64556 0.70537
 C4038 C 0.19222 0.65100 0.72181
 C4039 C 0.17824 0.58922 0.74947
 C4040 C 0.17037 0.57426 0.74820
 C4041 C 0.21073 0.66276 0.75547
 C4042 C 0.21729 0.67837 0.75597
 H4043 H 0.21941 0.65025 0.78786
 H4044 H 0.22158 0.62804 0.81368
 H4045 H 0.20788 0.59628 0.81099
 H4046 H 0.19203 0.58648 0.78240
 H4047 H 0.17042 0.60141 0.71691
 H4048 H 0.16840 0.62355 0.69107
 H4049 H 0.18220 0.65527 0.69374
 H4050 H 0.19801 0.66505 0.72229
 C4051 C 0.70140 0.14195 0.25269
 C4052 C 0.69317 0.13609 0.23560
 C4053 C 0.68539 0.11775 0.23402
 C4054 C 0.68590 0.10538 0.24954
 C4055 C 0.69433 0.11116 0.26656
 C4056 C 0.70209 0.12951 0.26814
 C4057 C 0.71038 0.13501 0.28531
 C4058 C 0.71101 0.12271 0.30048
 C4059 C 0.70340 0.10478 0.29894
 C4060 C 0.69514 0.09900 0.28221
 C4061 C 0.67717 0.11225 0.21682
 C4062 C 0.67665 0.12449 0.20161
 C4063 C 0.68428 0.14241 0.20314
 C4064 C 0.69246 0.14822 0.21990
 C4065 C 0.67712 0.08700 0.24816
 C4066 C 0.66930 0.07201 0.24700
 C4067 C 0.70912 0.16077 0.25427
 C4068 C 0.71548 0.17646 0.25501
 H4069 H 0.71647 0.14883 0.28718
 H4070 H 0.71744 0.12712 0.31349
 H4071 H 0.70392 0.09529 0.31077
 H4072 H 0.68945 0.08490 0.28167
 H4073 H 0.67107 0.09844 0.21493
 H4074 H 0.67031 0.12005 0.18856
 H4075 H 0.68387 0.15187 0.19128
 H4076 H 0.69819 0.16229 0.22038
 C4077 C 0.79988 0.14249 0.74279
 C4078 C 0.81945 0.14073 0.74012
 C4079 C 0.82802 0.12278 0.74142
 C4080 C 0.81697 0.10670 0.74538
 C4081 C 0.79734 0.10840 0.74755
 C4082 C 0.78876 0.12635 0.74625
 C4083 C 0.76912 0.12772 0.74859
 C4084 C 0.75826 0.11181 0.75209
 C4085 C 0.76665 0.09426 0.75336
 C4086 C 0.78596 0.09249 0.75114
 C4087 C 0.84763 0.12140 0.73881
 C4088 C 0.85845 0.13729 0.73505
 C4089 C 0.85006 0.15483 0.73381
 C4090 C 0.83079 0.15662 0.73629
 C4091 C 0.82589 0.08852 0.74758
 C4092 C 0.83366 0.07362 0.74947
 C4093 C 0.79132 0.16097 0.74278
 C4094 C 0.78429 0.17633 0.74330
 H4095 H 0.76195 0.14106 0.74768
 H4096 H 0.74326 0.11311 0.75382
 H4097 H 0.75815 0.08194 0.75608
 H4098 H 0.79184 0.07854 0.75222
 H4099 H 0.85481 0.10805 0.73962
 H4100 H 0.87343 0.13597 0.73310
 H4101 H 0.85853 0.16714 0.73093
 H4102 H 0.82490 0.17056 0.73513
 C4103 C 0.29751 0.64113 0.24078
 C4104 C 0.31710 0.63925 0.23836
 C4105 C 0.32556 0.62127 0.23992
 C4106 C 0.31437 0.60528 0.24387
 C4107 C 0.29472 0.60710 0.24578
 C4108 C 0.28626 0.62508 0.24423
 C4109 C 0.26660 0.62658 0.24630
 C4110 C 0.25561 0.61075 0.24978
 C4111 C 0.26389 0.59316 0.25130
 C4112 C 0.28322 0.59128 0.24934
 C4113 C 0.34520 0.61976 0.23758
 C4114 C 0.35615 0.63555 0.23381
 C4115 C 0.34787 0.65313 0.23230
 C4116 C 0.32857 0.65504 0.23452
 C4117 C 0.32317 0.58708 0.24631
 C4118 C 0.33091 0.57219 0.24836
 C4119 C 0.28908 0.65966 0.24059
 C4120 C 0.28217 0.67508 0.24100
 H4121 H 0.25952 0.63995 0.24519
 H4122 H 0.24059 0.61214 0.25131
 H4123 H 0.25529 0.58091 0.25400
 H4124 H 0.28901 0.57730 0.25061
 H4125 H 0.35230 0.60639 0.23861
 H4126 H 0.37114 0.63414 0.23206
 H4127 H 0.35643 0.66536 0.22941
 H4128 H 0.32277 0.66900 0.23316
 C4129 C 0.29916 0.35647 0.25505
 C4130 C 0.28847 0.37236 0.24984
 C4131 C 0.29704 0.39039 0.24911
 C4132 C 0.31625 0.39243 0.25365
 C4133 C 0.32690 0.37656 0.25908
 C4134 C 0.31833 0.35853 0.25976
 C4135 C 0.32927 0.34287 0.26514
 C4136 C 0.34815 0.34495 0.26968
 C4137 C 0.35653 0.36259 0.26905
 C4138 C 0.34609 0.37826 0.26383
 C4139 C 0.28609 0.40604 0.24377
 C4140 C 0.26719 0.40395 0.23929
 C4141 C 0.25880 0.38633 0.24003
 C4142 C 0.26924 0.37066 0.24523
 C4143 C 0.32508 0.41082 0.25285
 C4144 C 0.33269 0.42596 0.25246
 C4145 C 0.29061 0.33794 0.25501
 C4146 C 0.28360 0.32253 0.25456
 H4147 H 0.32337 0.32887 0.26589
 H4148 H 0.35632 0.33282 0.27369
 H4149 H 0.37120 0.36414 0.27260
 H4150 H 0.35325 0.39168 0.26355
 H4151 H 0.29200 0.42004 0.24300
 H4152 H 0.25902 0.41607 0.23522
 H4153 H 0.24411 0.38477 0.23655
 H4154 H 0.26207 0.35725 0.24563
 C4155 C 0.80112 0.85774 0.75876
 C4156 C 0.79034 0.87354 0.75344
 C4157 C 0.79884 0.89160 0.75252
 C4158 C 0.81806 0.89377 0.75696
 C4159 C 0.82878 0.87800 0.76252
 C4160 C 0.82029 0.85994 0.76341
 C4161 C 0.83131 0.84438 0.76892
 C4162 C 0.85019 0.84661 0.77342
 C4163 C 0.85848 0.86427 0.77259
 C4164 C 0.84798 0.87984 0.76721
 C4165 C 0.78780 0.90717 0.74708
 C4166 C 0.76889 0.90496 0.74271
 C4167 C 0.76057 0.88731 0.74363
 C4168 C 0.77111 0.87173 0.74891
 C4169 C 0.82682 0.91218 0.75588
 C4170 C 0.83441 0.92732 0.75526
 C4171 C 0.79267 0.83916 0.75880
 C4172 C 0.78570 0.82372 0.75835
 H4173 H 0.82548 0.83036 0.76981
 H4174 H 0.85842 0.83455 0.77756
 H4175 H 0.87315 0.86593 0.77612
 H4176 H 0.85508 0.89328 0.76676
 H4177 H 0.79365 0.92118 0.74616
 H4178 H 0.76066 0.91702 0.73859
 H4179 H 0.74588 0.88567 0.74022
 H4180 H 0.76400 0.85829 0.74943
 C4181 C 0.70356 0.85824 0.24176
 C4182 C 0.70753 0.87067 0.25675
 C4183 C 0.69890 0.88862 0.25737
 C4184 C 0.68638 0.89407 0.24299
 C4185 C 0.68266 0.88176 0.22783
 C4186 C 0.69128 0.86379 0.22721
 C4187 C 0.68731 0.85170 0.21197
 C4188 C 0.67514 0.85720 0.19773
 C4189 C 0.66669 0.87475 0.19833
 C4190 C 0.67035 0.88695 0.21317
 C4191 C 0.70298 0.90075 0.27255
 C4192 C 0.71527 0.89531 0.28671
 C4193 C 0.72374 0.87776 0.28608
 C4194 C 0.71996 0.86552 0.27132
 C4195 C 0.67708 0.91216 0.24394
 C4196 C 0.66910 0.92705 0.24464
 C4197 C 0.71172 0.83958 0.24162
 C4198 C 0.71842 0.82407 0.24195
 H4199 H 0.69356 0.83792 0.21088
 H4200 H 0.67226 0.84778 0.18617
 H4201 H 0.65724 0.87895 0.18725
 H4202 H 0.66344 0.90046 0.21301
 H4203 H 0.69676 0.91455 0.27364
 H4204 H 0.71825 0.90475 0.29822
 H4205 H 0.73329 0.87361 0.29710
 H4206 H 0.72690 0.85204 0.27146
 C4207 C 0.20252 0.35989 0.74083
 C4208 C 0.20729 0.37251 0.75541
 C4209 C 0.19864 0.39045 0.75631
 C4210 C 0.18530 0.39567 0.74260
 C4211 C 0.18078 0.38317 0.72782
 C4212 C 0.18943 0.36522 0.72693
 C4213 C 0.18465 0.35294 0.71207
 C4214 C 0.17169 0.35822 0.69847
 C4215 C 0.16320 0.37575 0.69935
 C4216 C 0.16764 0.38814 0.71382
 C4217 C 0.20353 0.40277 0.77109
 C4218 C 0.21663 0.39754 0.78459
 C4219 C 0.22512 0.38002 0.78370
 C4220 C 0.22055 0.36759 0.76931
 C4221 C 0.17602 0.41376 0.74384
 C4222 C 0.16807 0.42865 0.74475
 C4223 C 0.21068 0.34123 0.74048
 C4224 C 0.21737 0.32571 0.74068
 H4225 H 0.19090 0.33917 0.71079
 H4226 H 0.16821 0.34866 0.68719
 H4227 H 0.15313 0.37978 0.68876
 H4228 H 0.16068 0.40162 0.71389
 H4229 H 0.19731 0.41656 0.77238
 H4230 H 0.22021 0.40714 0.79580
 H4231 H 0.23530 0.37603 0.79420
 H4232 H 0.22756 0.35414 0.76921
 C4233 C 0.14203 0.74730 0.79579
 C4234 C 0.13243 0.76469 0.79531
 C4235 C 0.11434 0.76622 0.80348
 C4236 C 0.10597 0.75037 0.81207
 C4237 C 0.11539 0.73288 0.81216
 C4238 C 0.13348 0.73135 0.80399
 C4239 C 0.14267 0.71376 0.80434
 C4240 C 0.13424 0.69812 0.81253
 C4241 C 0.11655 0.69961 0.82052
 C4242 C 0.10717 0.71675 0.82038
 C4243 C 0.10507 0.78377 0.80293
 C4244 C 0.11342 0.79936 0.79455
 C4245 C 0.13110 0.79786 0.78656
 C4246 C 0.14056 0.78077 0.78689
 C4247 C 0.08801 0.75221 0.82141
 C4248 C 0.07333 0.75371 0.82961
 C4249 C 0.16084 0.74605 0.78819
 C4250 C 0.17651 0.74567 0.78193
 H4251 H 0.15643 0.71192 0.79827
 H4252 H 0.14146 0.68477 0.81267
 H4253 H 0.11006 0.68740 0.82686
 H4254 H 0.09342 0.71719 0.82674
 H4255 H 0.09128 0.78561 0.80892
 H4256 H 0.10613 0.81267 0.79425
 H4257 H 0.13753 0.81001 0.78006
 H4258 H 0.15427 0.78031 0.78045
 C4259 C 0.63868 0.24925 0.29509
 C4260 C 0.62991 0.26705 0.29585
 C4261 C 0.61186 0.26883 0.30404
 C4262 C 0.60270 0.25280 0.31141
 C4263 C 0.61129 0.23493 0.31027
 C4264 C 0.62934 0.23315 0.30208
 C4265 C 0.63770 0.21517 0.30118
 C4266 C 0.62847 0.19938 0.30817
 C4267 C 0.61082 0.20111 0.31618
 C4268 C 0.60226 0.21865 0.31726
 C4269 C 0.60342 0.28679 0.30475
 C4270 C 0.61254 0.30254 0.29755
 C4271 C 0.63019 0.30081 0.28954
 C4272 C 0.63885 0.28331 0.28867
 C4273 C 0.58476 0.25478 0.32075
 C4274 C 0.57007 0.25630 0.32892
 C4275 C 0.65748 0.24765 0.28752
 C4276 C 0.67318 0.24683 0.28138
 H4277 H 0.65140 0.21311 0.29506
 H4278 H 0.63506 0.18573 0.30737
 H4279 H 0.60371 0.18880 0.32158
 H4280 H 0.58850 0.21928 0.32359
 H4281 H 0.58969 0.28884 0.31082
 H4282 H 0.60587 0.31616 0.29820
 H4283 H 0.63723 0.31308 0.28397
 H4284 H 0.65257 0.28268 0.28228
 C4285 C 0.64240 0.75549 0.20334
 C4286 C 0.63424 0.77139 0.19471
 C4287 C 0.61593 0.77010 0.18694
 C4288 C 0.60591 0.75291 0.18784
 C4289 C 0.61394 0.73713 0.19682
 C4290 C 0.63223 0.73841 0.20459
 C4291 C 0.63999 0.72240 0.21341
 C4292 C 0.62996 0.70562 0.21453
 C4293 C 0.61207 0.70436 0.20693
 C4294 C 0.60409 0.71988 0.19815
 C4295 C 0.60810 0.78616 0.17830
 C4296 C 0.61806 0.80301 0.17739
 C4297 C 0.63595 0.80427 0.18500
 C4298 C 0.64402 0.78867 0.19357
 C4299 C 0.58767 0.75122 0.17896
 C4300 C 0.57275 0.74962 0.17119
 C4301 C 0.66135 0.75651 0.21071
 C4302 C 0.67706 0.75673 0.21690
 H4303 H 0.65385 0.72267 0.21956
 H4304 H 0.63610 0.69351 0.22133
 H4305 H 0.60434 0.69129 0.20783
 H4306 H 0.59011 0.71822 0.19248
 H4307 H 0.59421 0.78588 0.17221
 H4308 H 0.61185 0.81517 0.17076
 H4309 H 0.64362 0.81739 0.18427
 H4310 H 0.65797 0.79033 0.19930
 C4311 C 0.14121 0.25698 0.70239
 C4312 C 0.13274 0.27306 0.69442
 C4313 C 0.11443 0.27176 0.68667
 C4314 C 0.10473 0.25437 0.68693
 C4315 C 0.11306 0.23839 0.69524
 C4316 C 0.13135 0.23969 0.70300
 C4317 C 0.13943 0.22349 0.71116
 C4318 C 0.12970 0.20649 0.71164
 C4319 C 0.11181 0.20522 0.70405
 C4320 C 0.10351 0.22094 0.69593
 C4321 C 0.10628 0.28800 0.67870
 C4322 C 0.11594 0.30506 0.67842
 C4323 C 0.13384 0.30632 0.68601
 C4324 C 0.14222 0.29055 0.69393
 C4325 C 0.08652 0.25270 0.67800
 C4326 C 0.07164 0.25111 0.67015
 C4327 C 0.16016 0.25805 0.70972
 C4328 C 0.17588 0.25831 0.71586
 H4329 H 0.15330 0.22376 0.71726
 H4330 H 0.13608 0.19424 0.71793
 H4331 H 0.10430 0.19199 0.70446
 H4332 H 0.08955 0.21925 0.69024
 H4333 H 0.09238 0.28772 0.67266
 H4334 H 0.10949 0.31735 0.67229
 H4335 H 0.14129 0.31959 0.68576
 H4336 H 0.15616 0.29222 0.69967
 C4337 C 0.85790 0.24328 0.70378
 C4338 C 0.86728 0.26072 0.70168
 C4339 C 0.88546 0.26134 0.69359
 C4340 C 0.89415 0.24453 0.68764
 C4341 C 0.88489 0.22706 0.68999
 C4342 C 0.86671 0.22644 0.69809
 C4343 C 0.85769 0.20883 0.70023
 C4344 C 0.86638 0.19230 0.69451
 C4345 C 0.88416 0.19289 0.68661
 C4346 C 0.89338 0.21003 0.68434
 C4347 C 0.89453 0.27894 0.69159
 C4348 C 0.88588 0.29546 0.69741
 C4349 C 0.86811 0.29486 0.70532
 C4350 C 0.85884 0.27774 0.70746
 C4351 C 0.91236 0.24525 0.67861
 C4352 C 0.92730 0.24571 0.67074
 C4353 C 0.83917 0.24277 0.71167
 C4354 C 0.82362 0.24281 0.71823
 H4355 H 0.84386 0.20765 0.70633
 H4356 H 0.85928 0.17895 0.69621
 H4357 H 0.89086 0.18001 0.68220
 H4358 H 0.90720 0.20977 0.67814
 H4359 H 0.90838 0.28012 0.68555
 H4360 H 0.89302 0.30880 0.69578
 H4361 H 0.86145 0.30773 0.70982
 H4362 H 0.84504 0.27801 0.71369
 C4363 C 0.35678 0.74194 0.20212
 C4364 C 0.36612 0.75942 0.20013
 C4365 C 0.38449 0.76007 0.19249
 C4366 C 0.39341 0.74326 0.18686
 C4367 C 0.38415 0.72576 0.18907
 C4368 C 0.36578 0.72511 0.19673
 C4369 C 0.35679 0.70747 0.19876
 C4370 C 0.36569 0.69095 0.19334
 C4371 C 0.38364 0.69158 0.18584
 C4372 C 0.39284 0.70874 0.18370
 C4373 C 0.39353 0.77769 0.19060
 C4374 C 0.38467 0.79421 0.19609
 C4375 C 0.36671 0.79358 0.20356
 C4376 C 0.35747 0.77643 0.20558
 C4377 C 0.41183 0.74401 0.17828
 C4378 C 0.42693 0.74445 0.17074
 C4379 C 0.33791 0.74139 0.20966
 C4380 C 0.32227 0.74140 0.21601
 H4381 H 0.34283 0.70626 0.20454
 H4382 H 0.35860 0.67758 0.19495
 H4383 H 0.39049 0.67870 0.18166
 H4384 H 0.40681 0.70851 0.17783
 H4385 H 0.40753 0.77890 0.18490
 H4386 H 0.39179 0.80757 0.19455
 H4387 H 0.35988 0.80645 0.20781
 H4388 H 0.34351 0.77668 0.21147
 C4389 C 0.35719 0.25673 0.29517
 C4390 C 0.36488 0.27354 0.30250
 C4391 C 0.38291 0.27335 0.31098
 C4392 C 0.39311 0.25635 0.31208
 C4393 C 0.38556 0.23962 0.30444
 C4394 C 0.36754 0.23980 0.29595
 C4395 C 0.36025 0.22287 0.28849
 C4396 C 0.37046 0.20624 0.28939
 C4397 C 0.38807 0.20606 0.29768
 C4398 C 0.39561 0.22252 0.30515
 C4399 C 0.39028 0.29032 0.31830
 C4400 C 0.38013 0.30698 0.31728
 C4401 C 0.36249 0.30715 0.30902
 C4402 C 0.35490 0.29067 0.30166
 C4403 C 0.41110 0.25596 0.32156
 C4404 C 0.42585 0.25576 0.32977
 C4405 C 0.33853 0.25672 0.28709
 C4406 C 0.32303 0.25629 0.28043
 H4407 H 0.34662 0.22229 0.28187
 H4408 H 0.36466 0.19342 0.28361
 H4409 H 0.39596 0.19311 0.29834
 H4410 H 0.40939 0.22168 0.31143
 H4411 H 0.40395 0.29090 0.32484
 H4412 H 0.38598 0.31982 0.32295
 H4413 H 0.35464 0.32012 0.30830
 H4414 H 0.34115 0.29152 0.29532
 C4415 C 0.85978 0.75611 0.79822
 C4416 C 0.86785 0.77280 0.80540
 C4417 C 0.88592 0.77231 0.81378
 C4418 C 0.89580 0.75511 0.81494
 C4419 C 0.88784 0.73847 0.80750
 C4420 C 0.86977 0.73897 0.79912
 C4421 C 0.86207 0.72212 0.79187
 C4422 C 0.87194 0.70529 0.79284
 C4423 C 0.88960 0.70482 0.80102
 C4424 C 0.89753 0.72117 0.80829
 C4425 C 0.89368 0.78918 0.82092
 C4426 C 0.88386 0.80603 0.81984
 C4427 C 0.86618 0.80651 0.81168
 C4428 C 0.85821 0.79013 0.80450
 C4429 C 0.91390 0.75446 0.82422
 C4430 C 0.92876 0.75410 0.83224
 C4431 C 0.84111 0.75644 0.79014
 C4432 C 0.82560 0.75632 0.78347
 H4433 H 0.84838 0.72177 0.78536
 H4434 H 0.86583 0.69254 0.78722
 H4435 H 0.89722 0.69171 0.80174
 H4436 H 0.91133 0.72011 0.81449
 H4437 H 0.90739 0.78953 0.82739
 H4438 H 0.89000 0.81880 0.82538
 H4439 H 0.85859 0.81963 0.81092
 H4440 H 0.84443 0.79121 0.79825
   
