data_POSCAR
  _audit_creation_date              2014-09-24
  _audit_creation_method            'ToBaCCo'
  _symmetry_space_group_name_H-M    'P1'
  _symmetry_Int_Tables_number       1
  _symmetry_cell_setting            triclinic
  loop_
  _symmetry_equiv_pos_as_xyz
 x,y,z
_cell_length_a 37.5944
_cell_length_b 39.4502
_cell_length_c 45.7110
_cell_angle_alpha 90.371200
_cell_angle_beta 90.208000
_cell_angle_gamma 90.184300
loop_
  _atom_site_label
  _atom_site_type_symbol
  _atom_site_fract_x
  _atom_site_fract_y
  _atom_site_fract_z
B1 B 0.27652 0.25363 0.28251
 B2 B 0.23303 0.24627 0.27652
 B3 B 0.24691 0.28582 0.28448
 B4 B 0.28700 0.29168 0.26880
 B5 B 0.29745 0.25520 0.25018
 B6 B 0.26359 0.22698 0.25529
 B7 B 0.23669 0.28168 0.22622
 B8 B 0.28038 0.28868 0.23243
 B9 B 0.26577 0.24928 0.22414
 B10 B 0.22576 0.24342 0.24018
 B11 B 0.21559 0.27972 0.25839
 B12 B 0.24953 0.30802 0.25358
 B13 B 0.72065 0.76295 0.27874
 B14 B 0.76084 0.77898 0.26980
 B15 B 0.75658 0.73762 0.27890
 B16 B 0.71736 0.72309 0.26511
 B17 B 0.69779 0.75607 0.24736
 B18 B 0.72468 0.79076 0.25081
 B19 B 0.76118 0.74213 0.22016
 B20 B 0.72062 0.72662 0.22828
 B21 B 0.72511 0.76785 0.21984
 B22 B 0.76394 0.78199 0.23350
 B23 B 0.78358 0.74885 0.25118
 B24 B 0.75650 0.71430 0.24793
 B25 B 0.74894 0.21714 -0.22095
 B26 B 0.73810 0.25760 -0.22767
 B27 B 0.78032 0.24802 -0.21867
 B28 B 0.79003 0.21004 -0.23379
 B29 B 0.75319 0.19697 -0.25297
 B30 B 0.72121 0.22684 -0.24894
 B31 B 0.77710 0.25611 -0.27734
 B32 B 0.78767 0.21519 -0.27003
 B33 B 0.74575 0.22584 -0.27960
 B34 B 0.73586 0.26348 -0.26421
 B35 B 0.77234 0.27676 -0.24515
 B36 B 0.80485 0.24695 -0.24930
 B37 B 0.27339 0.75402 -0.27765
 B38 B 0.22973 0.75690 -0.26997
 B39 B 0.24835 0.71842 -0.27490
 B40 B 0.28986 0.71968 -0.26087
 B41 B 0.29667 0.75946 -0.24657
 B42 B 0.25908 0.78252 -0.25250
 B43 B 0.24201 0.72940 -0.21686
 B44 B 0.28573 0.72694 -0.22491
 B45 B 0.26658 0.76511 -0.21943
 B46 B 0.22513 0.76411 -0.23361
 B47 B 0.21833 0.72466 -0.24785
 B48 B 0.25594 0.70134 -0.24211
 B49 B 1.22788 1.26598 0.77815
 B50 B 1.27014 1.27121 0.76698
 B51 B 1.25630 1.23251 0.77710
 B52 B 1.21345 1.22776 0.76644
 B53 B 1.20145 1.26425 0.74867
 B54 B 1.23697 1.29102 0.74932
 B55 B 1.25598 1.23484 0.71800
 B56 B 1.21348 1.22954 0.72976
 B57 B 1.22829 1.26801 0.71905
 B58 B 1.27073 1.27304 0.73019
 B59 B 1.28273 1.23677 0.74746
 B60 B 1.24738 1.20950 0.74693
 B61 B 0.77516 0.75161 0.78406
 B62 B 0.73570 0.73265 0.77771
 B63 B 0.73699 0.77380 0.78764
 B64 B 0.77314 0.79176 0.77212
 B65 B 0.79364 0.76117 0.75185
 B66 B 0.77013 0.72432 0.75559
 B67 B 0.72683 0.77049 0.72916
 B68 B 0.76635 0.78925 0.73563
 B69 B 0.76484 0.74795 0.72572
 B70 B 0.72868 0.73021 0.74127
 B71 B 0.70820 0.76073 0.76143
 B72 B 0.73178 0.79768 0.75774
 B73 B 1.25001 0.71619 0.28221
 B74 B 1.23731 0.75618 0.27499
 B75 B 1.27954 0.74850 0.28557
 B76 B 1.29216 0.71123 0.27086
 B77 B 1.25757 0.69620 0.25044
 B78 B 1.22324 0.72434 0.25314
 B79 B 1.27903 0.75676 0.22704
 B80 B 1.29166 0.71670 0.23448
 B81 B 1.24965 0.72447 0.22362
 B82 B 1.23668 0.76179 0.23841
 B83 B 1.27146 0.77691 0.25885
 B84 B 1.30570 0.74879 0.25605
 B85 B 0.77405 1.26243 0.22147
 B86 B 0.73075 1.27052 0.22747
 B87 B 0.74407 1.23052 0.22037
 B88 B 0.78420 1.22472 0.23628
 B89 B 0.79530 1.26175 0.25375
 B90 B 0.76200 1.29014 0.24805
 B91 B 0.73440 1.23679 0.27858
 B92 B 0.77770 1.22882 0.27229
 B93 B 0.76434 1.26865 0.27984
 B94 B 0.72421 1.27474 0.26393
 B95 B 0.71305 1.23800 0.24626
 B96 B 0.74643 1.20942 0.25169
 O97 O 0.43707 0.94447 -0.04540
 O98 O 0.39837 0.97844 -0.01972
 C99 C 0.40538 0.95488 -0.03893
 O100 O 0.53954 0.94889 0.05756
 O101 O 0.57977 0.97706 0.02875
 C102 C 0.57169 0.95528 0.04900
 O103 O 0.44204 0.94624 0.05624
 O104 O 0.40046 0.97707 0.03104
 C105 C 0.40947 0.95320 0.04929
 O106 O 0.53587 0.94320 -0.04769
 O107 O 0.57777 0.97457 -0.02262
 C108 C 0.56856 0.95120 -0.04137
 Zr109 Zr 0.48744 0.96184 -0.03097
 O110 O 0.48811 0.90838 -0.02675
 O111 O 0.48791 0.95667 -0.07715
 Zr112 Zr 0.49035 0.96694 0.04245
 O113 O 0.49161 0.91406 0.04950
 O114 O 0.49043 0.97619 0.08802
 O115 O 0.45687 0.95804 0.00661
 O116 O 0.51985 0.95754 0.00525
 O117 O 0.53804 1.05922 -0.05422
 O118 O 0.57917 1.03124 -0.02605
 C119 C 0.57037 1.05038 -0.04798
 O120 O 0.44463 1.07531 0.04988
 O121 O 0.40174 1.04136 0.02882
 C122 C 0.41179 1.06773 0.04420
 O123 O 0.54199 1.06952 0.05214
 O124 O 0.58119 1.03659 0.02617
 C125 C 0.57388 1.06124 0.04426
 O126 O 0.43990 1.06680 -0.04717
 O127 O 0.39949 1.03739 -0.01950
 C128 C 0.40765 1.06019 -0.03883
 Zr129 Zr 0.48935 1.04669 -0.03435
 O130 O 0.49482 1.10009 -0.03622
 O131 O 0.48358 1.04448 -0.08041
 Zr132 Zr 0.49207 1.05075 0.03913
 O133 O 0.49520 1.10412 0.04274
 O134 O 0.48971 1.04830 0.08538
 Zr135 Zr 0.43564 1.00748 0.00513
 Zr136 Zr 0.54383 1.00577 0.00270
 O137 O 0.52199 1.05475 0.00124
 O138 O 0.45929 1.05604 0.00274
 O139 O 0.52000 1.00328 -0.03916
 O140 O 0.45924 1.00969 0.04688
 O141 O 0.45699 1.00477 -0.03739
 O142 O 0.52403 1.00864 0.04580
 H143 H 0.53483 0.93694 0.00559
 H144 H 0.44297 1.01098 0.06387
 H145 H 0.53822 1.07443 -0.00070
 H146 H 0.44059 1.00512 -0.05436
 H147 H 0.48979 0.95362 0.09738
 H148 H 0.51315 1.04042 0.09250
 H149 H 0.49892 1.11287 0.02278
 H150 H 0.47623 1.11006 -0.02356
 H151 H 0.49877 1.02573 -0.08750
 H152 H 0.47055 0.97273 -0.08548
 H153 H 0.46591 0.90139 -0.01686
 H154 H 0.48914 0.90314 0.03010
 O155 O 1.04362 0.56107 0.55678
 O156 O 1.08136 0.52874 0.52874
 C157 C 1.07495 0.54991 0.55001
 O158 O 0.93830 0.44410 0.55340
 O159 O 0.89896 0.47867 0.52925
 C160 C 0.90636 0.45385 0.54694
 O161 O 1.03684 0.44350 0.55591
 O162 O 1.07788 0.47265 0.52851
 C163 C 1.06923 0.45080 0.54841
 O164 O 0.94574 0.57214 0.55254
 O165 O 0.90275 0.53986 0.52979
 C166 C 0.91280 0.56475 0.54678
 Zr167 Zr 0.99312 0.54792 0.54000
 O168 O 0.99167 0.54322 0.58602
 O169 O 0.99753 0.60130 0.54361
 Zr170 Zr 0.98803 0.46351 0.54085
 O171 O 0.98816 0.47120 0.58664
 O172 O 0.98641 0.41041 0.54673
 O173 O 1.02273 0.50408 0.54552
 O174 O 0.95891 0.50739 0.54621
 O175 O 0.94267 0.56888 0.45346
 O176 O 0.90108 0.53935 0.47985
 C177 C 0.91010 0.56244 0.46102
 O178 O 1.03412 0.44133 0.45159
 O179 O 1.07702 0.47037 0.47752
 C180 C 1.06699 0.44739 0.45870
 O181 O 0.93554 0.44393 0.45449
 O182 O 0.89784 0.47949 0.47943
 C183 C 0.90411 0.45462 0.46135
 O184 O 1.04033 0.55762 0.44679
 O185 O 1.07988 0.52754 0.47482
 C186 C 1.07215 0.54744 0.45315
 Zr187 Zr 0.99121 0.54697 0.46664
 O188 O 0.98564 0.54939 0.42065
 O189 O 0.99911 0.60012 0.46835
 Zr190 Zr 0.98609 0.46185 0.46725
 O191 O 0.98160 0.46299 0.42105
 O192 O 0.98589 0.40819 0.46649
 Zr193 Zr 1.04330 0.50224 0.50263
 Zr194 Zr 0.93577 0.50769 0.50424
 O195 O 0.95738 0.50594 0.46185
 O196 O 1.02021 0.50249 0.46049
 O197 O 0.96074 0.55571 0.50367
 O198 O 1.01760 0.45475 0.50369
 O199 O 1.02413 0.55217 0.50273
 O200 O 0.95501 0.45749 0.50449
 H201 H 0.94281 0.50837 0.56332
 H202 H 1.03187 0.43369 0.50387
 H203 H 0.94105 0.50656 0.44480
 H204 H 1.04218 0.57051 0.50212
 H205 H 0.99007 0.39997 0.52729
 H206 H 0.96822 0.40052 0.48104
 H207 H 1.00454 0.47112 0.41313
 H208 H 0.99666 0.52868 0.41252
 H209 H 0.97987 0.60984 0.48049
 H210 H 1.00996 0.60956 0.52603
 H211 H 0.99213 0.56663 0.59399
 H212 H 0.98566 0.44840 0.59537
 O213 O 1.06327 0.55081 0.05467
 O214 O 1.03091 0.59039 0.02944
 C215 C 1.05582 0.58186 0.04776
 O216 O 1.06370 0.45818 -0.04790
 O217 O 1.02877 0.42006 -0.02336
 C218 C 1.05395 0.42747 -0.04173
 O219 O 1.06876 0.55235 -0.04331
 O220 O 1.03361 0.59105 -0.01929
 C221 C 1.05978 0.58316 -0.03650
 O222 O 1.05596 0.45716 0.05723
 O223 O 1.02520 0.41945 0.02806
 C224 C 1.04799 0.42662 0.04871
 Zr225 Zr 1.03963 0.50464 0.04161
 O226 O 1.09489 0.50219 0.05012
 O227 O 1.02941 0.50612 0.08702
 Zr228 Zr 1.04580 0.50531 -0.03191
 O229 O 1.10185 0.50105 -0.02919
 O230 O 1.04873 0.50953 -0.07801
 O231 O 1.05054 0.53496 0.00563
 O232 O 1.04868 0.47527 0.00472
 O233 O 0.93033 0.45994 0.05006
 O234 O 0.96333 0.42080 0.02459
 C235 C 0.93800 0.42911 0.04256
 O236 O 0.94085 0.55496 -0.05275
 O237 O 0.97211 0.59226 -0.02349
 C238 C 0.95061 0.58529 -0.04498
 O239 O 0.93796 0.46074 -0.05374
 O240 O 0.96672 0.42114 -0.02564
 C241 C 0.94410 0.42976 -0.04587
 O242 O 0.92855 0.55296 0.04757
 O243 O 0.96533 0.59170 0.02572
 C244 C 0.93766 0.58376 0.04142
 Zr245 Zr 0.95176 0.50650 0.03676
 O246 O 0.89562 0.50517 0.03858
 O247 O 0.95322 0.50954 0.08305
 Zr248 Zr 0.95703 0.50725 -0.03697
 O249 O 0.90084 0.50659 -0.04045
 O250 O 0.96195 0.51003 -0.08305
 Zr251 Zr 0.99963 0.55723 0.00307
 Zr252 Zr 0.99716 0.45445 0.00135
 O253 O 0.94683 0.47773 -0.00090
 O254 O 0.94774 0.53716 -0.00017
 O255 O 0.99447 0.47442 0.04430
 O256 O 1.00273 0.53603 -0.03930
 O257 O 0.99603 0.53603 0.04503
 O258 O 1.00102 0.47559 -0.04080
 H259 H 1.06952 0.46000 0.00543
 H260 H 1.00504 0.55105 -0.05648
 H261 H 0.92486 0.46387 -0.00220
 H262 H 0.99509 0.55190 0.06191
 H263 H 1.03503 0.49046 -0.08662
 H264 H 0.97392 0.48914 -0.08987
 H265 H 0.89169 0.52606 -0.02900
 H266 H 0.88701 0.50805 0.01831
 H267 H 0.96177 0.48748 0.09047
 H268 H 1.05301 0.50654 0.09672
 H269 H 1.10661 0.49733 0.03126
 H270 H 1.11033 0.51833 -0.01498
 O271 O 0.42972 0.95454 0.45457
 O272 O 0.46131 0.91711 0.48270
 C273 C 0.43675 0.92428 0.46366
 O274 O 0.55924 1.04371 0.44655
 O275 O 0.52958 1.08545 0.47181
 C276 C 0.55136 1.07516 0.45161
 O277 O 0.55401 0.95004 0.44979
 O278 O 0.52151 0.91516 0.47977
 C279 C 0.54379 0.92035 0.45848
 O280 O 0.43057 1.04800 0.45225
 O281 O 0.46640 1.08769 0.47459
 C282 C 0.43966 1.07902 0.45797
 Zr283 Zr 0.45114 1.00178 0.46682
 O284 O 0.45200 1.00119 0.42048
 O285 O 0.39487 1.00060 0.46551
 Zr286 Zr 0.54044 0.99868 0.46556
 O287 O 0.54464 0.99586 0.41953
 O288 O 0.59643 0.99407 0.46919
 O289 O 0.49423 0.96948 0.46188
 O290 O 0.49646 1.02942 0.45904
 O291 O 0.43228 1.05606 0.54907
 O292 O 0.46829 1.09165 0.52277
 C293 C 0.44224 1.08597 0.54084
 O294 O 0.55542 0.95897 0.55952
 O295 O 0.52298 0.91936 0.53356
 C296 C 0.54478 0.92818 0.55440
 O297 O 0.56577 1.05218 0.54928
 O298 O 0.53159 1.08932 0.52281
 C299 C 0.55699 1.08249 0.54120
 O300 O 0.43243 0.96302 0.55755
 O301 O 0.46274 0.92128 0.53294
 C302 C 0.43885 0.93152 0.55147
 Zr303 Zr 0.45378 1.00797 0.54036
 O304 O 0.46101 1.01505 0.58599
 O305 O 0.39833 1.00904 0.54777
 Zr306 Zr 0.54277 1.00479 0.53840
 O307 O 0.54729 1.01281 0.58408
 O308 O 0.59852 0.99773 0.53576
 Zr309 Zr 0.49451 0.95216 0.50545
 Zr310 Zr 0.49857 1.05451 0.49986
 O311 O 0.49947 1.03669 0.54318
 O312 O 0.49699 0.97644 0.54682
 O313 O 0.44633 1.03498 0.50202
 O314 O 0.54677 0.97132 0.50360
 O315 O 0.44440 0.97596 0.50529
 O316 O 0.54968 1.03228 0.50003
 H317 H 0.49543 1.04309 0.44095
 H318 H 0.56650 0.95473 0.50430
 H319 H 0.50025 1.05357 0.55932
 H320 H 0.42214 0.96251 0.50620
 H321 H 0.60649 1.01695 0.47271
 H322 H 0.60849 1.01670 0.52432
 H323 H 0.52746 1.00041 0.59336
 H324 H 0.46528 0.99255 0.59477
 H325 H 0.38667 1.00423 0.52880
 H326 H 0.38631 1.01641 0.48080
 H327 H 0.46176 0.97906 0.41414
 H328 H 0.52026 0.99794 0.41165
 O329 O 0.95141 0.93283 0.44601
 O330 O 0.98631 0.96761 0.41794
 C331 C 0.96185 0.94481 0.42110
 O332 O 0.93229 1.03744 0.53633
 O333 O 0.96791 1.00817 0.56827
 C334 C 0.94150 1.02787 0.56234
 O335 O 0.93501 1.04162 0.45475
 O336 O 0.97722 1.02223 0.42264
 C337 C 0.94779 1.03772 0.42871
 O338 O 0.95054 0.91842 0.52666
 O339 O 0.97505 0.95059 0.56348
 C340 C 0.95523 0.92583 0.55406
 Zr341 Zr 0.96989 0.94243 0.48884
 O342 O 0.91606 0.92709 0.48655
 O343 O 0.98370 0.89109 0.48126
 Zr344 Zr 0.95595 1.02690 0.49545
 O345 O 0.89993 1.02157 0.49489
 O346 O 0.95002 1.08028 0.49612
 O347 O 0.95792 0.98648 0.46619
 O348 O 0.95418 0.98105 0.51669
 O349 O 1.07263 0.93327 0.53551
 O350 O 1.03414 0.95810 0.56796
 C351 C 1.05998 0.93770 0.56167
 O352 O 1.06408 1.06276 0.46291
 O353 O 1.03847 1.03078 0.42643
 C354 C 1.05856 1.05546 0.43548
 O355 O 1.05213 1.05773 0.54440
 O356 O 1.02587 1.01624 0.57203
 C357 C 1.04350 1.04428 0.56925
 O358 O 1.08305 0.94687 0.45490
 O359 O 1.04737 0.97475 0.42223
 C360 C 1.07452 0.95588 0.42856
 Zr361 Zr 1.05790 0.95538 0.49524
 O362 O 1.11280 0.96394 0.50286
 O363 O 1.06845 0.90335 0.48804
 Zr364 Zr 1.04449 1.03944 0.50129
 O365 O 1.09992 1.04448 0.50875
 O366 O 1.03909 1.09276 0.50227
 Zr367 Zr 1.01037 0.99567 0.45187
 Zr368 Zr 1.00332 0.98637 0.53847
 O369 O 1.05558 0.99565 0.52417
 O370 O 1.06024 1.00112 0.47270
 O371 O 1.01266 0.93945 0.51754
 O372 O 1.00110 1.04206 0.47347
 O373 O 1.01681 0.94540 0.46605
 O374 O 0.99704 1.03698 0.52474
 H375 H 0.93210 0.97699 0.52792
 H376 H 0.99868 1.06292 0.46166
 H377 H 1.07480 0.99703 0.53903
 H378 H 1.02046 0.92751 0.45104
 H379 H 0.95658 1.08847 0.51594
 H380 H 1.01700 1.09776 0.51313
 H381 H 1.11227 1.03824 0.49041
 H382 H 1.12122 0.98007 0.48790
 H383 H 1.05106 0.89036 0.49971
 H384 H 0.98940 0.88086 0.50042
 H385 H 0.90170 0.94788 0.48870
 H386 H 0.89411 1.00361 0.48043
 O387 O 0.54497 0.41360 -0.04675
 O388 O 0.53238 0.45442 -0.08071
 C389 C 0.54280 0.42438 -0.07352
 O390 O 0.42342 0.46405 0.02595
 O391 O 0.46348 0.48059 0.06124
 C392 C 0.43294 0.46823 0.05301
 O393 O 0.43362 0.45835 -0.05499
 O394 O 0.47897 0.47522 -0.08498
 C395 C 0.44797 0.46180 -0.08059
 O396 O 0.54411 0.41847 0.03510
 O397 O 0.52212 0.45944 0.06578
 C398 C 0.53778 0.43067 0.06097
 Zr399 Zr 0.53468 0.43873 -0.00665
 O400 O 0.51273 0.38937 -0.00380
 O401 O 0.58652 0.41791 -0.00658
 Zr402 Zr 0.45239 0.47076 -0.01277
 O403 O 0.43498 0.41979 -0.01255
 O404 O 0.39936 0.48861 -0.01545
 O405 O 0.49330 0.44777 -0.03578
 O406 O 0.48866 0.44975 0.01585
 O407 O 0.58905 0.52786 0.03668
 O408 O 0.54277 0.51273 0.06649
 C409 C 0.57442 0.52484 0.06227
 O410 O 0.48266 0.57250 -0.05371
 O411 O 0.50147 0.52980 -0.08396
 C412 C 0.48912 0.55995 -0.07938
 O413 O 0.46981 0.57289 0.02647
 O414 O 0.48516 0.53434 0.06162
 C415 C 0.47150 0.56299 0.05335
 O416 O 0.59524 0.52899 -0.04535
 O417 O 0.55644 0.50849 -0.08010
 C418 C 0.58580 0.52344 -0.07236
 Zr419 Zr 0.56902 0.51764 -0.00575
 O420 O 0.59216 0.56653 -0.00213
 O421 O 0.62040 0.49581 -0.00514
 Zr422 Zr 0.48660 0.54977 -0.01225
 O423 O 0.50794 0.59936 -0.00835
 O424 O 0.43510 0.56979 -0.01910
 Zr425 Zr 0.51482 0.49297 -0.05277
 Zr426 Zr 0.50639 0.49570 0.03447
 O427 O 0.52767 0.54042 0.01650
 O428 O 0.53304 0.53919 -0.03491
 O429 O 0.55585 0.47656 0.02041
 O430 O 0.46571 0.51184 -0.03836
 O431 O 0.56041 0.47500 -0.03120
 O432 O 0.46051 0.51369 0.01303
 H433 H 0.47984 0.43154 0.02882
 H434 H 0.44803 0.51895 -0.05318
 H435 H 0.53407 0.55963 0.02958
 H436 H 0.58077 0.46709 -0.04313
 H437 H 0.39767 0.50443 -0.03208
 H438 H 0.41842 0.55591 -0.00748
 H439 H 0.52592 0.60215 -0.02391
 H440 H 0.58123 0.58085 -0.01737
 H441 H 0.62293 0.48339 0.01348
 H442 H 0.60013 0.42944 0.00916
 H443 H 0.49427 0.38734 -0.01921
 H444 H 0.40872 0.42048 -0.01431
 C445 C 0.26305 1.17845 0.16375
 C446 C 0.29606 1.18223 0.14946
 C447 C 0.31707 1.21089 0.15700
 C448 C 0.30738 1.23217 0.18043
 C449 C 0.27498 1.22776 0.19509
 C450 C 0.25258 1.20107 0.18578
 C451 C 0.34816 1.21775 0.14159
 C452 C 0.35899 1.19668 0.11887
 C453 C 0.34017 1.16665 0.11181
 C454 C 0.30918 1.15844 0.12828
 C455 C 0.29387 1.12590 0.12438
 C456 C 0.30930 1.10180 0.10586
 C457 C 0.33905 1.10990 0.08901
 C458 C 0.35308 1.14334 0.09034
 C459 C 0.38022 1.15195 0.07054
 C460 C 0.39629 1.12724 0.05336
 C461 C 0.38609 1.09310 0.05523
 C462 C 0.35603 1.08469 0.07185
 H463 H 0.24460 1.15846 0.15803
 H464 H 0.32585 1.25156 0.18768
 H465 H 0.22724 1.19660 0.19626
 H466 H 0.36427 1.23977 0.14705
 H467 H 0.38372 1.20337 0.10847
 H468 H 0.27130 1.11759 0.13697
 H469 H 0.29795 1.07653 0.10486
 H470 H 0.38983 1.17759 0.06816
 H471 H 0.41853 1.13460 0.03974
 H472 H 0.34740 1.05848 0.07296
 C473 C 0.83124 0.72732 0.66259
 C474 C 0.81663 0.69792 0.64929
 C475 C 0.78405 0.68544 0.66043
 C476 C 0.76671 0.70241 0.68348
 C477 C 0.78150 0.73174 0.69644
 C478 C 0.81432 0.74335 0.68593
 C479 C 0.76953 0.65543 0.64917
 C480 C 0.78747 0.63658 0.62807
 C481 C 0.82047 0.64747 0.61679
 C482 C 0.83427 0.67955 0.62649
 C483 C 0.86552 0.69206 0.61335
 C484 C 0.88455 0.67266 0.59353
 C485 C 0.87324 0.64012 0.58589
 C486 C 0.84062 0.62718 0.59664
 C487 C 0.83053 0.59397 0.58761
 C488 C 0.85293 0.57407 0.57004
 C489 C 0.88594 0.58662 0.56102
 C490 C 0.89521 0.62008 0.56822
 H491 H 0.85666 0.73772 0.65653
 H492 H 0.74204 0.69206 0.69183
 H493 H 0.82783 0.76452 0.69629
 H494 H 0.74445 0.64584 0.65739
 H495 H 0.77474 0.61342 0.62103
 H496 H 0.87609 0.71695 0.61792
 H497 H 0.90898 0.68297 0.58465
 H498 H 0.80618 0.58213 0.59461
 H499 H 0.84515 0.54829 0.56471
 H500 H 0.92048 0.63024 0.56089
 C501 C 0.65486 0.79342 0.16126
 C502 C 0.67093 0.82083 0.14654
 C503 C 0.70546 0.83098 0.15551
 C504 C 0.72381 0.81268 0.17727
 C505 C 0.70734 0.78546 0.19178
 C506 C 0.67243 0.77674 0.18373
 C507 C 0.72076 0.86009 0.14351
 C508 C 0.70175 0.88026 0.12394
 C509 C 0.66722 0.87109 0.11448
 C510 C 0.65279 0.83962 0.12450
 C511 C 0.62059 0.82783 0.11222
 C512 C 0.60113 0.84760 0.09318
 C513 C 0.61279 0.87995 0.08575
 C514 C 0.64624 0.89220 0.09563
 C515 C 0.65626 0.92552 0.08710
 C516 C 0.63304 0.94604 0.07073
 C517 C 0.59947 0.93384 0.06243
 C518 C 0.59032 0.90038 0.06912
 H519 H 0.62782 0.78551 0.15716
 H520 H 0.75026 0.82077 0.18379
 H521 H 0.65802 0.75710 0.19518
 H522 H 0.74720 0.86809 0.15015
 H523 H 0.71496 0.90278 0.11625
 H524 H 0.60990 0.80301 0.11669
 H525 H 0.57605 0.83781 0.08485
 H526 H 0.68116 0.93685 0.09377
 H527 H 0.64068 0.97185 0.06570
 H528 H 0.56466 0.89046 0.06219
 C529 C 1.18880 0.28813 0.64163
 C530 C 1.18433 0.32374 0.64278
 C531 C 1.19972 0.34137 0.66673
 C532 C 1.21452 0.32355 0.69024
 C533 C 1.21552 0.28790 0.69027
 C534 C 1.20479 0.27073 0.66476
 C535 C 1.19929 0.37671 0.66762
 C536 C 1.18290 0.39509 0.64559
 C537 C 1.16474 0.37868 0.62240
 C538 C 1.16474 0.34238 0.62136
 C539 C 1.14324 0.32589 0.60024
 C540 C 1.12150 0.34416 0.58145
 C541 C 1.12150 0.37951 0.58204
 C542 C 1.14459 0.39734 0.60136
 C543 C 1.14582 0.43318 0.59919
 C544 C 1.12269 0.45049 0.58054
 C545 C 1.09766 0.43268 0.56380
 C546 C 1.09774 0.39723 0.56401
 H547 H 1.18036 0.27307 0.62308
 H548 H 1.22455 0.33784 0.70883
 H549 H 1.20719 0.24351 0.66302
 H550 H 1.21139 0.39036 0.68577
 H551 H 1.18304 0.42224 0.64833
 H552 H 1.14101 0.29868 0.59888
 H553 H 1.10425 0.33041 0.56645
 H554 H 1.16435 0.44848 0.61160
 H555 H 1.12329 0.47795 0.58017
 H556 H 1.07874 0.38346 0.55048
 C557 C 0.73478 1.17140 -0.14522
 C558 C 0.70239 1.15357 -0.14976
 C559 C 0.68683 1.15535 -0.17796
 C560 C 0.70158 1.17590 -0.19962
 C561 C 0.73306 1.19441 -0.19478
 C562 C 0.75014 1.19084 -0.16759
 C563 C 0.65639 1.13666 -0.18467
 C564 C 0.64083 1.11593 -0.16405
 C565 C 0.65450 1.11380 -0.13533
 C566 C 0.68493 1.13388 -0.12764
 C567 C 0.69574 1.13464 -0.09799
 C568 C 0.67683 1.11716 -0.07652
 C569 C 0.64745 1.09696 -0.08388
 C570 C 0.63722 1.09369 -0.11369
 C571 C 0.60944 1.07081 -0.12068
 C572 C 0.58975 1.05534 -0.09885
 C573 C 0.59735 1.06132 -0.06932
 C574 C 0.62729 1.08092 -0.06175
 H575 H 0.74926 1.17012 -0.12485
 H576 H 0.68834 1.17687 -0.22069
 H577 H 0.77511 1.20353 -0.16328
 H578 H 0.64439 1.13801 -0.20624
 H579 H 0.61689 1.10311 -0.17100
 H580 H 0.71779 1.15000 -0.09051
 H581 H 0.68516 1.11967 -0.05388
 H582 H 0.60202 1.06449 -0.14284
 H583 H 0.56743 1.03938 -0.10511
 H584 H 0.63364 1.08519 -0.03887
 C585 C 1.23560 0.66997 0.35755
 C586 C 1.20425 0.65078 0.35240
 C587 C 1.18965 0.65152 0.32382
 C588 C 1.20411 0.67257 0.30234
 C589 C 1.23436 0.69264 0.30790
 C590 C 1.25067 0.68992 0.33548
 C591 C 1.16036 0.63141 0.31663
 C592 C 1.14498 0.61044 0.33721
 C593 C 1.15756 0.60955 0.36633
 C594 C 1.18689 0.63089 0.37438
 C595 C 1.19663 0.63277 0.40425
 C596 C 1.17768 0.61520 0.42559
 C597 C 1.14928 0.59395 0.41794
 C598 C 1.14018 0.58953 0.38798
 C599 C 1.11328 0.56575 0.38090
 C600 C 1.09326 0.55048 0.40266
 C601 C 1.09976 0.55758 0.43218
 C602 C 1.12887 0.57809 0.43994
 H603 H 1.24946 0.66951 0.37823
 H604 H 1.19162 0.67284 0.28095
 H605 H 1.27473 0.70371 0.34043
 H606 H 1.14907 0.63192 0.29477
 H607 H 1.12195 0.59645 0.32986
 H608 H 1.21776 0.64909 0.41199
 H609 H 1.18514 0.61857 0.44835
 H610 H 1.10670 0.55867 0.35872
 H611 H 1.07144 0.53392 0.39632
 H612 H 1.13425 0.58329 0.46286
 C613 C 0.27983 0.80122 -0.13951
 C614 C 0.29721 0.83258 -0.14406
 C615 C 0.30202 0.84300 -0.17341
 C616 C 0.29147 0.82190 -0.19690
 C617 C 0.27560 0.79006 -0.19210
 C618 C 0.26952 0.78049 -0.16297
 C619 C 0.31809 0.87413 -0.17925
 C620 C 0.32986 0.89514 -0.15666
 C621 C 0.32669 0.88557 -0.12703
 C622 C 0.31064 0.85351 -0.12063
 C623 C 0.30998 0.84283 -0.09116
 C624 C 0.32586 0.86192 -0.06895
 C625 C 0.34188 0.89304 -0.07486
 C626 C 0.34089 0.90613 -0.10372
 C627 C 0.35521 0.93894 -0.10813
 C628 C 0.37304 0.95612 -0.08564
 C629 C 0.37691 0.94157 -0.05801
 C630 C 0.36030 0.91051 -0.05237
 H631 H 0.27388 0.79175 -0.11803
 H632 H 0.29651 0.83018 -0.21907
 H633 H 0.25791 0.75641 -0.15768
 H634 H 0.32203 0.88224 -0.20163
 H635 H 0.34280 0.91824 -0.16328
 H636 H 0.29868 0.81897 -0.08458
 H637 H 0.32594 0.85195 -0.04690
 H638 H 0.35377 0.95173 -0.12885
 H639 H 0.38588 0.98010 -0.09040
 H640 H 0.36342 0.89908 -0.03100
 C641 C 0.79960 0.28990 0.35878
 C642 C 0.80104 0.32575 0.35916
 C643 C 0.78656 0.34293 0.33478
 C644 C 0.77418 0.32470 0.31017
 C645 C 0.77534 0.28904 0.30921
 C646 C 0.78689 0.27209 0.33438
 C647 C 0.78507 0.37828 0.33484
 C648 C 0.79857 0.39712 0.35821
 C649 C 0.81516 0.38135 0.38230
 C650 C 0.81664 0.34504 0.38266
 C651 C 0.83528 0.32923 0.40569
 C652 C 0.85308 0.34808 0.42693
 C653 C 0.85238 0.38339 0.42662
 C654 C 0.83214 0.40065 0.40517
 C655 C 0.83106 0.43660 0.40701
 C656 C 0.85206 0.45442 0.42737
 C657 C 0.87445 0.43701 0.44651
 C658 C 0.87343 0.40155 0.44678
 H659 H 0.80768 0.27475 0.37715
 H660 H 0.76405 0.33858 0.29155
 H661 H 0.78571 0.24484 0.33572
 H662 H 0.77365 0.39162 0.31642
 H663 H 0.79693 0.42425 0.35613
 H664 H 0.83818 0.30216 0.40718
 H665 H 0.86829 0.33479 0.44345
 H666 H 0.81504 0.45172 0.39254
 H667 H 0.85258 0.48186 0.42680
 H668 H 0.89075 0.38805 0.46173
 C669 C 1.20627 0.34901 0.16989
 C670 C 1.18041 0.33218 0.15283
 C671 C 1.17022 0.29897 0.16090
 C672 C 1.18898 0.28188 0.18329
 C673 C 1.21593 0.29870 0.19932
 C674 C 1.22268 0.33295 0.19309
 C675 C 1.14079 0.28386 0.14711
 C676 C 1.12053 0.30180 0.12663
 C677 C 1.13067 0.33465 0.11760
 C678 C 1.16287 0.34852 0.12928
 C679 C 1.17693 0.37831 0.11700
 C680 C 1.15805 0.39636 0.09641
 C681 C 1.12426 0.38575 0.08775
 C682 C 1.10999 0.35453 0.09761
 C683 C 1.07510 0.34574 0.08810
 C684 C 1.05482 0.36815 0.07092
 C685 C 1.06903 0.39953 0.06268
 C686 C 1.10425 0.40719 0.07010
 H687 H 1.21294 0.37537 0.16682
 H688 H 1.18182 0.25607 0.18878
 H689 H 1.24143 0.34777 0.20589
 H690 H 1.13247 0.25851 0.15309
 H691 H 1.09748 0.28910 0.11760
 H692 H 1.20299 0.38794 0.12268
 H693 H 1.16947 0.41964 0.08808
 H694 H 1.06227 0.32259 0.09486
 H695 H 1.02763 0.36165 0.06527
 H696 H 1.11577 0.43108 0.06315
 C697 C 0.67967 0.78056 0.65256
 C698 C 0.65523 0.80715 0.65786
 C699 C 0.65209 0.81897 0.68704
 C700 C 0.67435 0.80659 0.70913
 C701 C 0.70016 0.78179 0.70333
 C702 C 0.70130 0.76793 0.67501
 C703 C 0.62719 0.84365 0.69419
 C704 C 0.60570 0.85773 0.67289
 C705 C 0.60879 0.84824 0.64318
 C706 C 0.63415 0.82272 0.63542
 C707 C 0.63862 0.81480 0.60546
 C708 C 0.62009 0.83213 0.58377
 C709 C 0.59574 0.85744 0.59100
 C710 C 0.58866 0.86481 0.62087
 C711 C 0.56247 0.88946 0.62716
 C712 C 0.54707 0.90841 0.60498
 C713 C 0.55625 0.90290 0.57580
 C714 C 0.57945 0.87648 0.56862
 H715 H 0.68265 0.76889 0.63134
 H716 H 0.67153 0.81690 0.73102
 H717 H 0.71961 0.74797 0.66967
 H718 H 0.62452 0.85257 0.71657
 H719 H 0.58787 0.87713 0.68048
 H720 H 0.65745 0.79618 0.59794
 H721 H 0.62537 0.82606 0.56104
 H722 H 0.55365 0.89532 0.64899
 H723 H 0.52857 0.92839 0.61073
 H724 H 0.58635 0.87212 0.54589
 C725 C 1.22512 0.67106 -0.14980
 C726 C 1.19195 0.68207 -0.13893
 C727 C 1.17533 0.70966 -0.15317
 C728 C 1.19191 0.72567 -0.17703
 C729 C 1.22468 0.71399 -0.18781
 C730 C 1.24075 0.68646 -0.17382
 C731 C 1.14175 0.72036 -0.14412
 C732 C 1.12348 0.70325 -0.12223
 C733 C 1.13850 0.67500 -0.10798
 C734 C 1.17402 0.66539 -0.11549
 C735 C 1.19029 0.63897 -0.09967
 C736 C 1.17147 0.62022 -0.07942
 C737 C 1.13588 0.62721 -0.07379
 C738 C 1.11902 0.65535 -0.08707
 C739 C 1.08294 0.66151 -0.07971
 C740 C 1.06409 0.63927 -0.06160
 C741 C 1.08059 0.61039 -0.05036
 C742 C 1.11677 0.60527 -0.05567
 H743 H 1.23910 0.64953 -0.14117
 H744 H 1.17861 0.74654 -0.18776
 H745 H 1.26508 0.67563 -0.18189
 H746 H 1.12893 0.74161 -0.15470
 H747 H 1.09739 0.71271 -0.11709
 H748 H 1.21771 0.63192 -0.10251
 H749 H 1.18474 0.59939 -0.06857
 H750 H 1.06811 0.68247 -0.08845
 H751 H 1.03605 0.64367 -0.05775
 H752 H 1.12976 0.58316 -0.04660
 C753 C 0.68455 1.22623 0.35378
 C754 C 0.66796 1.19413 0.35036
 C755 C 0.67273 1.17703 0.32334
 C756 C 0.69473 1.19044 0.30178
 C757 C 0.71181 1.22188 0.30542
 C758 C 0.70541 1.24011 0.33136
 C759 C 0.65533 1.14653 0.31759
 C760 C 0.63237 1.13276 0.33783
 C761 C 0.62673 1.14851 0.36519
 C762 C 0.64621 1.17864 0.37229
 C763 C 0.64422 1.19129 0.40125
 C764 C 0.62436 1.17457 0.42260
 C765 C 0.60422 1.14577 0.41555
 C766 C 0.60368 1.13373 0.38624
 C767 C 0.58024 1.10696 0.37903
 C768 C 0.56188 1.08987 0.40063
 C769 C 0.56556 1.09911 0.43005
 C770 C 0.58538 1.12814 0.43750
 H771 H 0.68065 1.24171 0.37303
 H772 H 0.69764 1.17624 0.28158
 H773 H 0.71569 1.26549 0.33427
 H774 H 0.65925 1.13321 0.29702
 H775 H 0.62068 1.10869 0.33189
 H776 H 0.65928 1.21317 0.40835
 H777 H 0.62474 1.18431 0.44482
 H778 H 0.57552 1.09860 0.35684
 H779 H 0.54545 1.06836 0.39437
 H780 H 0.58758 1.13587 0.46024
 C781 C 0.83288 0.73903 0.15736
 C782 C 0.82999 0.70522 0.14698
 C783 C 0.80303 0.68468 0.15926
 C784 C 0.78322 0.69616 0.18314
 C785 C 0.78484 0.73004 0.19260
 C786 C 0.80998 0.75141 0.17926
 C787 C 0.79588 0.65257 0.14779
 C788 C 0.81469 0.64044 0.12396
 C789 C 0.84337 0.65894 0.11217
 C790 C 0.85269 0.69081 0.12503
 C791 C 0.88538 0.70580 0.11683
 C792 C 0.90879 0.68910 0.09777
 C793 C 0.89908 0.65846 0.08422
 C794 C 0.86476 0.64491 0.08955
 C795 C 0.85325 0.61719 0.07245
 C796 C 0.87677 0.60017 0.05434
 C797 C 0.91271 0.60969 0.05288
 C798 C 0.92344 0.64025 0.06642
 H799 H 0.85183 0.75658 0.14818
 H800 H 0.76584 0.67835 0.19401
 H801 H 0.81272 0.77756 0.18626
 H802 H 0.77504 0.63687 0.15698
 H803 H 0.80788 0.61522 0.11651
 H804 H 0.89454 0.72925 0.12661
 H805 H 0.93462 0.70027 0.09356
 H806 H 0.82617 0.60801 0.07294
 H807 H 0.86723 0.57781 0.04281
 H808 H 0.95082 0.64862 0.06464
 C809 C 0.27290 1.17679 0.64941
 C810 C 0.30697 1.18697 0.63970
 C811 C 0.32350 1.21439 0.65462
 C812 C 0.30640 1.23049 0.67833
 C813 C 0.27297 1.21929 0.68840
 C814 C 0.25664 1.19243 0.67330
 C815 C 0.35753 1.22492 0.64642
 C816 C 0.37633 1.20778 0.62472
 C817 C 0.36160 1.17951 0.60990
 C818 C 0.32573 1.16992 0.61665
 C819 C 0.31003 1.14309 0.60056
 C820 C 0.32945 1.12430 0.58053
 C821 C 0.36519 1.13149 0.57549
 C822 C 0.38171 1.15978 0.58923
 C823 C 0.41807 1.16597 0.58252
 C824 C 0.43751 1.14346 0.56481
 C825 C 0.42133 1.11433 0.55325
 C826 C 0.38483 1.10944 0.55767
 H827 H 0.25842 1.15592 0.63977
 H828 H 0.32002 1.25100 0.68963
 H829 H 0.23136 1.18266 0.67997
 H830 H 0.37024 1.24614 0.65749
 H831 H 0.40267 1.21717 0.62021
 H832 H 0.28266 1.13561 0.60310
 H833 H 0.31651 1.10321 0.56944
 H834 H 0.43265 1.18717 0.59153
 H835 H 0.46567 1.14781 0.56160
 H836 H 0.37199 1.08714 0.54840
 C837 C 0.85155 0.26144 -0.15672
 C838 C 0.84282 0.29390 -0.14543
 C839 C 0.81120 0.30909 -0.15595
 C840 C 0.79133 0.29388 -0.17840
 C841 C 0.80043 0.26209 -0.18994
 C842 C 0.83063 0.24588 -0.17852
 C843 C 0.79998 0.34015 -0.14486
 C844 C 0.81970 0.35705 -0.12374
 C845 C 0.85226 0.34398 -0.11334
 C846 C 0.86456 0.31231 -0.12482
 C847 C 0.89886 0.30123 -0.11649
 C848 C 0.92087 0.32106 -0.09853
 C849 C 0.90907 0.35197 -0.08711
 C850 C 0.87384 0.36280 -0.09319
 C851 C 0.86172 0.39260 -0.07928
 C852 C 0.88476 0.41289 -0.06310
 C853 C 0.92051 0.40410 -0.05949
 C854 C 0.93235 0.37275 -0.07035
 H855 H 0.87442 0.24753 -0.14922
 H856 H 0.76935 0.30788 -0.18763
 H857 H 0.83891 0.22152 -0.18710
 H858 H 0.77574 0.35179 -0.15283
 H859 H 0.80948 0.38141 -0.11722
 H860 H 0.91013 0.27797 -0.12469
 H861 H 0.94751 0.31222 -0.09375
 H862 H 0.83455 0.40108 -0.08046
 H863 H 0.87457 0.43620 -0.05370
 H864 H 0.95980 0.36536 -0.06697
 C865 C 0.34738 0.75957 0.35003
 C866 C 0.33797 0.79133 0.36218
 C867 C 0.30687 0.80710 0.35125
 C868 C 0.28853 0.79337 0.32723
 C869 C 0.29821 0.76208 0.31504
 C870 C 0.32780 0.74529 0.32697
 C871 C 0.29466 0.83712 0.36373
 C872 C 0.31310 0.85245 0.38653
 C873 C 0.34556 0.83908 0.39693
 C874 C 0.35872 0.80849 0.38409
 C875 C 0.39310 0.79740 0.39218
 C876 C 0.41454 0.81647 0.41106
 C877 C 0.40201 0.84642 0.42368
 C878 C 0.36650 0.85684 0.41816
 C879 C 0.35375 0.88552 0.43337
 C880 C 0.37665 0.90571 0.44981
 C881 C 0.41276 0.89771 0.45229
 C882 C 0.42506 0.86698 0.44068
 H883 H 0.36962 0.74507 0.35798
 H884 H 0.26738 0.80801 0.31747
 H885 H 0.33659 0.72127 0.31805
 H886 H 0.27062 0.84905 0.35567
 H887 H 0.30222 0.87606 0.39429
 H888 H 0.40507 0.77505 0.38285
 H889 H 0.44143 0.80798 0.41542
 H890 H 0.32633 0.89337 0.43262
 H891 H 0.36631 0.92867 0.45972
 H892 H 0.45283 0.86027 0.44320
 C893 C 1.19753 1.20880 0.34967
 C894 C 1.17133 1.18532 0.34062
 C895 C 1.16574 1.18079 0.31015
 C896 C 1.18476 1.20044 0.28981
 C897 C 1.21023 1.22424 0.29927
 C898 C 1.21643 1.22761 0.32947
 C899 C 1.14156 1.15640 0.30018
 C900 C 1.12337 1.13586 0.31977
 C901 C 1.12800 1.13953 0.35033
 C902 C 1.15132 1.16562 0.36086
 C903 C 1.15362 1.17151 0.39132
 C904 C 1.13542 1.15146 0.41097
 C905 C 1.11424 1.12469 0.40122
 C906 C 1.10998 1.11825 0.37082
 C907 C 1.08825 1.09044 0.36239
 C908 C 1.07160 1.07021 0.38329
 C909 C 1.07597 1.07691 0.41325
 C910 C 1.09729 1.10433 0.42194
 H911 H 1.20499 1.21267 0.37220
 H912 H 1.17996 1.19675 0.26662
 H913 H 1.23638 1.24487 0.33794
 H914 H 1.13704 1.15277 0.27693
 H915 H 1.10536 1.11760 0.31020
 H916 H 1.16879 1.19200 0.40084
 H917 H 1.13817 1.15689 0.43416
 H918 H 1.08397 1.08326 0.33988
 H919 H 1.05537 1.04908 0.37587
 H920 H 1.10097 1.10988 0.44503
 C921 C 0.71849 0.67736 -0.15352
 C922 C 0.69973 0.64917 -0.16481
 C923 C 0.69052 0.64910 -0.19487
 C924 C 0.70217 0.67541 -0.21312
 C925 C 0.72152 0.70302 -0.20163
 C926 C 0.72860 0.70380 -0.17153
 C927 C 0.66915 0.62316 -0.20629
 C928 C 0.65489 0.59849 -0.18806
 C929 C 0.66286 0.59814 -0.15784
 C930 C 0.68797 0.62222 -0.14672
 C931 C 0.70045 0.61877 -0.11778
 C932 C 0.68578 0.59512 -0.09915
 C933 C 0.65766 0.57467 -0.10847
 C934 C 0.64615 0.57520 -0.13806
 C935 C 0.61691 0.55435 -0.14602
 C936 C 0.59851 0.53581 -0.12494
 C937 C 0.60905 0.53700 -0.09550
 C938 C 0.63981 0.55507 -0.08781
 H939 H 0.72417 0.68059 -0.13053
 H940 H 0.69547 0.67452 -0.23617
 H941 H 0.74102 0.72540 -0.16131
 H942 H 0.66234 0.62265 -0.22936
 H943 H 0.63807 0.57964 -0.19831
 H944 H 0.72189 0.63398 -0.10897
 H945 H 0.69549 0.59400 -0.07682
 H946 H 0.60627 0.55345 -0.16794
 H947 H 0.57493 0.52183 -0.13153
 H948 H 0.64860 0.55590 -0.06518
 C949 C 0.87137 1.17096 0.69760
 C950 C 0.85666 1.14204 0.68359
 C951 C 0.81933 1.13742 0.68477
 C952 C 0.79806 1.16050 0.69974
 C953 C 0.81261 1.18993 0.71232
 C954 C 0.84964 1.19434 0.71188
 C955 C 0.80313 1.11010 0.67057
 C956 C 0.82291 1.08855 0.65315
 C957 C 0.85988 1.09319 0.64997
 C958 C 0.87742 1.11839 0.66739
 C959 C 0.91494 1.11922 0.66776
 C960 C 0.93457 1.09810 0.64962
 C961 C 0.91747 1.07658 0.62972
 C962 C 0.87984 1.07383 0.62955
 C963 C 0.86350 1.05367 0.60754
 C964 C 0.88381 1.03789 0.58611
 C965 C 0.92076 1.04080 0.58666
 C966 C 0.93767 1.05910 0.60893
 H967 H 0.89937 1.17685 0.69706
 H968 H 0.76970 1.15568 0.70093
 H969 H 0.86192 1.21626 0.72216
 H970 H 0.77465 1.10605 0.67207
 H971 H 0.80855 1.06809 0.64267
 H972 H 0.92990 1.13575 0.68212
 H973 H 0.96336 1.09979 0.65021
 H974 H 0.83506 1.05137 0.60515
 H975 H 0.87061 1.02392 0.56867
 H976 H 0.96642 1.06172 0.60876
 C977 C 0.36655 0.65382 0.21095
 C978 C 0.36744 0.65774 0.18025
 C979 C 0.34465 0.68225 0.16769
 C980 C 0.32071 0.70028 0.18496
 C981 C 0.31957 0.69593 0.21526
 C982 C 0.34308 0.67267 0.22809
 C983 C 0.34534 0.68850 0.13780
 C984 C 0.36868 0.67121 0.11988
 C985 C 0.39171 0.64628 0.13120
 C986 C 0.38992 0.63824 0.16157
 C987 C 0.40953 0.61021 0.17190
 C988 C 0.42972 0.59037 0.15301
 C989 C 0.43257 0.59868 0.12352
 C990 C 0.41511 0.62787 0.11268
 C991 C 0.42168 0.63753 0.08360
 C992 C 0.44125 0.61692 0.06514
 C993 C 0.45550 0.58617 0.07497
 C994 C 0.45221 0.57772 0.10456
 H995 H 0.38404 0.63684 0.22244
 H996 H 0.30255 0.71765 0.17446
 H997 H 0.34339 0.66863 0.25149
 H998 H 0.32765 0.70703 0.12815
 H999 H 0.36683 0.67680 0.09687
 H1000 H 0.40852 0.60197 0.19431
 H1001 H 0.44337 0.56841 0.16163
 H1002 H 0.41226 0.66104 0.07451
 H1003 H 0.44426 0.62491 0.04266
 H1004 H 0.46395 0.55451 0.11265
 C1005 C 1.18401 0.78089 0.65653
 C1006 C 1.16097 0.80758 0.66431
 C1007 C 1.15858 0.81645 0.69433
 C1008 C 1.17867 0.79893 0.71546
 C1009 C 1.20231 0.77309 0.70712
 C1010 C 1.20422 0.76443 0.67744
 C1011 C 1.13724 0.84358 0.70294
 C1012 C 1.11942 0.86306 0.68230
 C1013 C 1.12180 0.85576 0.65206
 C1014 C 1.14178 0.82670 0.64309
 C1015 C 1.14237 0.81790 0.61311
 C1016 C 1.12627 0.83799 0.59231
 C1017 C 1.10851 0.86741 0.60043
 C1018 C 1.10528 0.87661 0.63036
 C1019 C 1.08614 0.90659 0.63704
 C1020 C 1.07131 0.92640 0.61485
 C1021 C 1.07548 0.91728 0.58541
 C1022 C 1.09391 0.88762 0.57848
 H1023 H 1.18876 0.77314 0.63428
 H1024 H 1.17701 0.80661 0.73821
 H1025 H 1.22329 0.74659 0.66954
 H1026 H 1.13507 0.85045 0.72587
 H1027 H 1.10405 0.88387 0.69080
 H1028 H 1.15499 0.79541 0.60477
 H1029 H 1.12803 0.83050 0.56950
 H1030 H 1.08234 0.91562 0.65908
 H1031 H 1.05687 0.94915 0.62076
 H1032 H 1.09665 0.87991 0.55577
 C1033 C 0.68868 0.30082 0.15431
 C1034 C 0.66016 0.32129 0.16347
 C1035 C 0.65754 0.32951 0.19355
 C1036 C 0.68027 0.31393 0.21400
 C1037 C 0.70688 0.29133 0.20466
 C1038 C 0.71165 0.28653 0.17448
 C1039 C 0.63233 0.35321 0.20281
 C1040 C 0.61025 0.36933 0.18264
 C1041 C 0.61133 0.36087 0.15257
 C1042 C 0.63505 0.33473 0.14338
 C1043 C 0.63236 0.32199 0.11459
 C1044 C 0.60940 0.33634 0.09456
 C1045 C 0.58918 0.36453 0.10217
 C1046 C 0.58955 0.37733 0.13122
 C1047 C 0.56925 0.40680 0.13718
 C1048 C 0.55095 0.42356 0.11474
 C1049 C 0.55155 0.41092 0.08600
 C1050 C 0.56955 0.38057 0.08036
 H1051 H 0.69448 0.29612 0.13155
 H1052 H 0.67704 0.31940 0.23709
 H1053 H 0.73257 0.27053 0.16609
 H1054 H 0.63023 0.35996 0.22576
 H1055 H 0.59168 0.38756 0.19131
 H1056 H 0.64705 0.30013 0.10717
 H1057 H 0.60828 0.32584 0.07259
 H1058 H 0.56854 0.41843 0.15858
 H1059 H 0.53745 0.44711 0.11973
 H1060 H 0.57018 0.37021 0.05833
 C1061 C 0.78376 0.85711 0.31917
 C1062 C 0.82132 0.85867 0.31755
 C1063 C 0.83847 0.83620 0.29797
 C1064 C 0.81900 0.81142 0.28291
 C1065 C 0.78223 0.80772 0.28720
 C1066 C 0.76466 0.83237 0.30387
 C1067 C 0.87510 0.83796 0.29388
 C1068 C 0.89568 0.86036 0.31014
 C1069 C 0.88032 0.88151 0.33162
 C1070 C 0.84243 0.88113 0.33502
 C1071 C 0.82708 0.90174 0.35690
 C1072 C 0.84804 0.92014 0.37623
 C1073 C 0.88493 0.91920 0.37421
 C1074 C 0.90173 0.90141 0.35107
 C1075 C 0.93942 0.90308 0.34938
 C1076 C 0.95936 0.91887 0.37142
 C1077 C 0.94221 0.93327 0.39542
 C1078 C 0.90519 0.93474 0.39612
 H1079 H 0.76820 0.87474 0.33179
 H1080 H 0.83300 0.79447 0.26822
 H1081 H 0.73597 0.83301 0.30495
 H1082 H 0.88820 0.82120 0.27845
 H1083 H 0.92385 0.85934 0.30614
 H1084 H 0.79888 0.90301 0.36070
 H1085 H 0.83520 0.93441 0.39357
 H1086 H 0.95434 0.89187 0.33176
 H1087 H 0.98815 0.91844 0.37042
 H1088 H 0.89214 0.94700 0.41449
 C1089 C 0.30996 0.31524 -0.16458
 C1090 C 0.33131 0.34083 -0.17649
 C1091 C 0.33983 0.33921 -0.20655
 C1092 C 0.32166 0.31605 -0.22496
 C1093 C 0.29693 0.29308 -0.21308
 C1094 C 0.29364 0.29161 -0.18249
 C1095 C 0.36585 0.36106 -0.21762
 C1096 C 0.38383 0.38376 -0.19904
 C1097 C 0.37397 0.38729 -0.16935
 C1098 C 0.34511 0.36736 -0.15895
 C1099 C 0.32979 0.37515 -0.13169
 C1100 C 0.34474 0.39936 -0.11356
 C1101 C 0.37627 0.41539 -0.12146
 C1102 C 0.39152 0.40988 -0.14943
 C1103 C 0.42463 0.42558 -0.15538
 C1104 C 0.44267 0.44405 -0.13354
 C1105 C 0.42758 0.44815 -0.10570
 C1106 C 0.39349 0.43538 -0.10062
 H1107 H 0.30567 0.31284 -0.14132
 H1108 H 0.32614 0.31655 -0.24836
 H1109 H 0.27630 0.27360 -0.17197
 H1110 H 0.37298 0.36001 -0.24055
 H1111 H 0.40421 0.39941 -0.20867
 H1112 H 0.30551 0.36336 -0.12424
 H1113 H 0.33252 0.40428 -0.09251
 H1114 H 0.43818 0.42202 -0.17594
 H1115 H 0.46904 0.45381 -0.13805
 H1116 H 0.38113 0.43879 -0.07940
 C1117 C 1.20553 0.33793 -0.16610
 C1118 C 1.17961 0.32368 -0.14771
 C1119 C 1.16815 0.29009 -0.15368
 C1120 C 1.18491 0.27063 -0.17584
 C1121 C 1.21143 0.28512 -0.19364
 C1122 C 1.22013 0.31942 -0.18890
 C1123 C 1.13922 0.27691 -0.13819
 C1124 C 1.12060 0.29695 -0.11803
 C1125 C 1.13159 0.33043 -0.11131
 C1126 C 1.16319 0.34280 -0.12492
 C1127 C 1.17768 0.37395 -0.11533
 C1128 C 1.15993 0.39423 -0.09546
 C1129 C 1.12695 0.38448 -0.08455
 C1130 C 1.11231 0.35228 -0.09170
 C1131 C 1.07852 0.34420 -0.07972
 C1132 C 1.05973 0.36786 -0.06252
 C1133 C 1.07414 0.40005 -0.05668
 C1134 C 1.10829 0.40746 -0.06702
 H1135 H 1.21350 0.36418 -0.16461
 H1136 H 1.17618 0.24484 -0.18002
 H1137 H 1.23845 0.33264 -0.20306
 H1138 H 1.13000 0.25130 -0.14250
 H1139 H 1.09798 0.28539 -0.10757
 H1140 H 1.20326 0.38307 -0.12253
 H1141 H 1.17176 0.41832 -0.08920
 H1142 H 1.06543 0.32036 -0.08422
 H1143 H 1.03342 0.36140 -0.05470
 H1144 H 1.12021 0.43194 -0.06213
 C1145 C 0.69926 0.79296 0.35889
 C1146 C 0.66323 0.80318 0.35705
 C1147 C 0.64470 0.79550 0.33079
 C1148 C 0.66267 0.78150 0.30658
 C1149 C 0.69922 0.77395 0.30791
 C1150 C 0.71664 0.77832 0.33490
 C1151 C 0.60850 0.80273 0.32847
 C1152 C 0.59032 0.81827 0.35134
 C1153 C 0.60797 0.82846 0.37729
 C1154 C 0.64519 0.82124 0.38001
 C1155 C 0.66352 0.83394 0.40480
 C1156 C 0.64653 0.85390 0.42568
 C1157 C 0.61033 0.86117 0.42335
 C1158 C 0.59011 0.84731 0.39986
 C1159 C 0.55301 0.85385 0.39961
 C1160 C 0.53750 0.87557 0.42028
 C1161 C 0.55823 0.89124 0.44192
 C1162 C 0.59447 0.88334 0.44379
 H1163 H 0.71487 0.79607 0.37855
 H1164 H 0.64807 0.77745 0.28639
 H1165 H 0.74451 0.77227 0.33725
 H1166 H 0.59404 0.79665 0.30854
 H1167 H 0.56262 0.82347 0.34737
 H1168 H 0.69164 0.83029 0.40800
 H1169 H 0.66209 0.86413 0.44371
 H1170 H 0.53531 0.84298 0.38349
 H1171 H 0.50948 0.88156 0.41837
 H1172 H 0.61064 0.89555 0.46052
 C1173 C 0.82221 0.74121 -0.13953
 C1174 C 0.84620 0.71431 -0.14505
 C1175 C 0.85024 0.70362 -0.17446
 C1176 C 0.82830 0.71641 -0.19645
 C1177 C 0.80224 0.74083 -0.19037
 C1178 C 0.80119 0.75467 -0.16202
 C1179 C 0.87552 0.67942 -0.18188
 C1180 C 0.89633 0.66452 -0.16059
 C1181 C 0.89181 0.67244 -0.13067
 C1182 C 0.86593 0.69731 -0.12265
 C1183 C 0.85915 0.70274 -0.09260
 C1184 C 0.87590 0.68342 -0.07117
 C1185 C 0.90101 0.65890 -0.07874
 C1186 C 0.91068 0.65450 -0.10852
 C1187 C 0.93809 0.63126 -0.11508
 C1188 C 0.95193 0.61032 -0.09362
 C1189 C 0.93987 0.61243 -0.06484
 C1190 C 0.91557 0.63770 -0.05702
 H1191 H 0.81927 0.75245 -0.11811
 H1192 H 0.83140 0.70658 -0.21848
 H1193 H 0.78302 0.77487 -0.15672
 H1194 H 0.87894 0.67147 -0.20446
 H1195 H 0.91436 0.64535 -0.16834
 H1196 H 0.83946 0.72052 -0.08503
 H1197 H 0.86867 0.68735 -0.04847
 H1198 H 0.94917 0.62824 -0.13663
 H1199 H 0.97152 0.59147 -0.09974
 H1200 H 0.90664 0.63961 -0.03454
 C1201 C 0.34691 1.24239 0.34523
 C1202 C 0.34073 1.20869 0.35437
 C1203 C 0.31185 1.19095 0.34136
 C1204 C 0.29270 1.20509 0.31825
 C1205 C 0.29863 1.23858 0.30945
 C1206 C 0.32579 1.25720 0.32345
 C1207 C 0.30216 1.15898 0.35129
 C1208 C 0.32040 1.14410 0.37414
 C1209 C 0.35046 1.15992 0.38689
 C1210 C 0.36201 1.19183 0.37583
 C1211 C 0.39529 1.20466 0.38536
 C1212 C 0.41701 1.18614 0.40427
 C1213 C 0.40535 1.15537 0.41592
 C1214 C 0.37074 1.14338 0.40887
 C1215 C 0.35783 1.11474 0.42372
 C1216 C 0.38014 1.09586 0.44136
 C1217 C 0.41602 1.10474 0.44499
 C1218 C 0.42817 1.13568 0.43365
 H1219 H 0.36725 1.25811 0.35511
 H1220 H 0.27255 1.18983 0.30738
 H1221 H 0.33133 1.28311 0.31724
 H1222 H 0.27994 1.14541 0.34148
 H1223 H 0.31167 1.11902 0.38013
 H1224 H 0.40618 1.22798 0.37698
 H1225 H 0.44318 1.19593 0.40975
 H1226 H 0.33058 1.10628 0.42197
 H1227 H 0.36950 1.07315 0.45133
 H1228 H 0.45555 1.14339 0.43722
 C1229 C 1.22570 0.66117 0.16092
 C1230 C 1.19722 0.67683 0.14619
 C1231 C 1.18604 0.70911 0.15624
 C1232 C 1.20460 0.72576 0.17917
 C1233 C 1.23280 0.70957 0.19381
 C1234 C 1.24225 0.67680 0.18460
 C1235 C 1.15536 0.72360 0.14431
 C1236 C 1.13447 0.70576 0.12404
 C1237 C 1.14456 0.67335 0.11375
 C1238 C 1.17790 0.66007 0.12340
 C1239 C 1.19081 0.63015 0.11024
 C1240 C 1.17004 0.61150 0.09096
 C1241 C 1.13565 0.62183 0.08413
 C1242 C 1.12246 0.65327 0.09464
 C1243 C 1.08719 0.66221 0.08659
 C1244 C 1.06564 0.63989 0.07015
 C1245 C 1.07867 0.60823 0.06135
 C1246 C 1.11406 0.60009 0.06753
 H1247 H 1.23410 0.63563 0.15612
 H1248 H 1.19565 0.75040 0.18667
 H1249 H 1.26187 0.66218 0.19634
 H1250 H 1.14651 0.74832 0.15171
 H1251 H 1.11058 0.71810 0.11659
 H1252 H 1.21721 0.62063 0.11432
 H1253 H 1.18065 0.58810 0.08205
 H1254 H 1.07508 0.68556 0.09370
 H1255 H 1.03834 0.64675 0.06548
 H1256 H 1.12460 0.57592 0.06020
 C1257 C 0.72690 1.19205 0.64082
 C1258 C 0.68943 1.18874 0.64038
 C1259 C 0.67037 1.20297 0.66406
 C1260 C 0.68847 1.21566 0.68874
 C1261 C 0.72588 1.21553 0.69029
 C1262 C 0.74458 1.20577 0.66513
 C1263 C 0.63328 1.20366 0.66337
 C1264 C 0.61454 1.18944 0.64006
 C1265 C 0.63223 1.17245 0.61708
 C1266 C 0.67030 1.17149 0.61758
 C1267 C 0.68792 1.15138 0.59652
 C1268 C 0.66901 1.13172 0.57645
 C1269 C 0.63193 1.13247 0.57566
 C1270 C 0.61306 1.15435 0.59478
 C1271 C 0.57561 1.15617 0.59137
 C1272 C 0.55761 1.13454 0.57196
 C1273 C 0.57627 1.11056 0.55553
 C1274 C 0.61347 1.11035 0.55672
 H1275 H 0.74323 1.18454 0.62257
 H1276 H 0.67304 1.22502 0.70704
 H1277 H 0.77313 1.20758 0.66426
 H1278 H 0.61852 1.21500 0.68123
 H1279 H 0.58597 1.19040 0.64160
 H1280 H 0.71643 1.14860 0.59621
 H1281 H 0.68360 1.11530 0.56168
 H1282 H 0.55948 1.17371 0.60365
 H1283 H 0.52883 1.13510 0.57116
 H1284 H 0.62798 1.09201 0.54365
 C1285 C 0.84429 0.27060 0.15880
 C1286 C 0.83786 0.30354 0.14798
 C1287 C 0.80880 0.32171 0.15989
 C1288 C 0.78971 0.30886 0.18355
 C1289 C 0.79597 0.27613 0.19402
 C1290 C 0.82328 0.25700 0.18112
 C1291 C 0.79896 0.35287 0.14834
 C1292 C 0.81729 0.36651 0.12501
 C1293 C 0.84756 0.35032 0.11336
 C1294 C 0.85918 0.31925 0.12598
 C1295 C 0.89261 0.30623 0.11744
 C1296 C 0.91451 0.32392 0.09813
 C1297 C 0.90288 0.35388 0.08510
 C1298 C 0.86807 0.36582 0.09102
 C1299 C 0.85533 0.39354 0.07485
 C1300 C 0.87800 0.41192 0.05711
 C1301 C 0.91396 0.40326 0.05467
 C1302 C 0.92599 0.37300 0.06723
 H1303 H 0.86478 0.25453 0.14988
 H1304 H 0.76947 0.32454 0.19358
 H1305 H 0.82906 0.23163 0.18861
 H1306 H 0.77661 0.36677 0.15729
 H1307 H 0.80849 0.39107 0.11778
 H1308 H 0.90351 0.28353 0.12692
 H1309 H 0.94082 0.31415 0.09350
 H1310 H 0.82802 0.40179 0.07577
 H1311 H 0.86770 0.43425 0.04633
 H1312 H 0.95356 0.36560 0.06468
 C1313 C 0.34439 0.76709 0.66140
 C1314 C 0.33453 0.79838 0.64894
 C1315 C 0.30184 0.81280 0.65805
 C1316 C 0.28175 0.79788 0.68036
 C1317 C 0.29264 0.76764 0.69349
 C1318 C 0.32396 0.75224 0.68331
 C1319 C 0.28987 0.84280 0.64567
 C1320 C 0.31016 0.85966 0.62513
 C1321 C 0.34392 0.84754 0.61652
 C1322 C 0.35639 0.81641 0.62861
 C1323 C 0.39096 0.80531 0.62112
 C1324 C 0.41316 0.82465 0.60348
 C1325 C 0.40164 0.85537 0.59198
 C1326 C 0.36634 0.86651 0.59740
 C1327 C 0.35518 0.89685 0.58404
 C1328 C 0.37890 0.91671 0.56849
 C1329 C 0.41443 0.90703 0.56509
 C1330 C 0.42545 0.87560 0.57577
 H1331 H 0.36799 0.75355 0.65503
 H1332 H 0.25835 0.81089 0.68832
 H1333 H 0.33349 0.72888 0.69278
 H1334 H 0.26471 0.85375 0.65231
 H1335 H 0.29906 0.88306 0.61741
 H1336 H 0.40232 0.78230 0.62950
 H1337 H 0.43987 0.81567 0.59919
 H1338 H 0.32839 0.90627 0.58528
 H1339 H 0.36936 0.94027 0.55930
 H1340 H 0.45278 0.86768 0.57266
 C1341 C 0.32863 1.20241 -0.16793
 C1342 C 0.31031 1.18135 -0.14838
 C1343 C 0.27420 1.17366 -0.15435
 C1344 C 0.25598 1.19072 -0.17716
 C1345 C 0.27440 1.21330 -0.19558
 C1346 C 0.31132 1.21705 -0.19136
 C1347 C 0.25733 1.14840 -0.13796
 C1348 C 0.27620 1.12992 -0.11685
 C1349 C 0.31192 1.13797 -0.10978
 C1350 C 0.32784 1.16609 -0.12427
 C1351 C 0.36081 1.17858 -0.11413
 C1352 C 0.37974 1.16181 -0.09277
 C1353 C 0.36694 1.13159 -0.08123
 C1354 C 0.33272 1.11917 -0.08905
 C1355 C 0.32198 1.08770 -0.07690
 C1356 C 0.34534 1.06877 -0.05919
 C1357 C 0.37960 1.08101 -0.05282
 C1358 C 0.38926 1.11314 -0.06286
 H1359 H 0.35700 1.20654 -0.16653
 H1360 H 0.22800 1.18571 -0.18103
 H1361 H 0.32744 1.23203 -0.20598
 H1362 H 0.22977 1.14192 -0.14229
 H1363 H 0.26197 1.11001 -0.10575
 H1364 H 0.37230 1.20186 -0.12211
 H1365 H 0.40543 1.17187 -0.08614
 H1366 H 0.29657 1.07635 -0.08210
 H1367 H 0.33728 1.04392 -0.05171
 H1368 H 0.41544 1.12320 -0.05764
 C1369 C 0.82475 0.71782 0.34112
 C1370 C 0.81031 0.68926 0.35531
 C1371 C 0.77730 0.67651 0.34490
 C1372 C 0.75921 0.69281 0.32175
 C1373 C 0.77423 0.72113 0.30769
 C1374 C 0.80730 0.73292 0.31774
 C1375 C 0.76325 0.64691 0.35702
 C1376 C 0.78197 0.62890 0.37827
 C1377 C 0.81522 0.64039 0.38901
 C1378 C 0.82859 0.67202 0.37836
 C1379 C 0.86002 0.68538 0.39093
 C1380 C 0.87963 0.66718 0.41109
 C1381 C 0.86874 0.63503 0.41977
 C1382 C 0.83601 0.62129 0.40962
 C1383 C 0.82640 0.58858 0.41988
 C1384 C 0.84935 0.56992 0.43804
 C1385 C 0.88246 0.58324 0.44644
 C1386 C 0.89123 0.61626 0.43798
 H1387 H 0.85051 0.72820 0.34646
 H1388 H 0.73409 0.68257 0.31401
 H1389 H 0.82092 0.75320 0.30690
 H1390 H 0.73795 0.63697 0.34935
 H1391 H 0.76963 0.60596 0.38597
 H1392 H 0.87026 0.71014 0.38573
 H1393 H 0.90411 0.67817 0.41952
 H1394 H 0.80194 0.57626 0.41346
 H1395 H 0.84190 0.54446 0.44435
 H1396 H 0.91653 0.62706 0.44482
 C1397 C 0.73943 1.16045 0.15876
 C1398 C 0.70474 1.16476 0.14721
 C1399 C 0.68467 1.19248 0.15786
 C1400 C 0.69705 1.21207 0.18134
 C1401 C 0.73169 1.20842 0.19236
 C1402 C 0.75289 1.18244 0.18052
 C1403 C 0.65194 1.20042 0.14538
 C1404 C 0.63858 1.18147 0.12225
 C1405 C 0.65636 1.15227 0.11207
 C1406 C 0.68890 1.14259 0.12580
 C1407 C 0.70294 1.11025 0.11906
 C1408 C 0.68458 1.08761 0.10063
 C1409 C 0.65322 1.09740 0.08642
 C1410 C 0.64073 1.13101 0.09027
 C1411 C 0.61228 1.14196 0.07267
 C1412 C 0.59329 1.11908 0.05557
 C1413 C 0.60179 1.08453 0.05538
 C1414 C 0.63317 1.07390 0.06940
 H1415 H 0.75688 1.14078 0.15083
 H1416 H 0.67919 1.23042 0.19101
 H1417 H 0.77957 1.17830 0.18870
 H1418 H 0.63661 1.22179 0.15336
 H1419 H 0.61279 1.18888 0.11414
 H1420 H 0.72678 1.10098 0.12948
 H1421 H 0.69498 1.06226 0.09754
 H1422 H 0.60393 1.16810 0.07200
 H1423 H 0.57028 1.12822 0.04368
 H1424 H 0.64065 1.04740 0.06860
 C1425 C 1.23949 0.67034 0.64922
 C1426 C 1.20965 0.64901 0.65383
 C1427 C 1.19652 0.64689 0.68274
 C1428 C 1.20982 0.66818 0.70488
 C1429 C 1.23722 0.69169 0.69955
 C1430 C 1.25350 0.69060 0.67193
 C1431 C 1.16941 0.62416 0.68945
 C1432 C 1.15409 0.60400 0.66792
 C1433 C 1.16439 0.60662 0.63835
 C1434 C 1.19210 0.63002 0.63101
 C1435 C 1.19971 0.63506 0.60109
 C1436 C 1.17990 0.61893 0.57910
 C1437 C 1.15279 0.59602 0.58599
 C1438 C 1.14613 0.58822 0.61576
 C1439 C 1.12046 0.56298 0.62179
 C1440 C 1.09935 0.54932 0.59963
 C1441 C 1.10351 0.55948 0.57063
 C1442 C 1.13124 0.58181 0.56355
 H1443 H 1.25262 0.67172 0.62832
 H1444 H 1.19803 0.66655 0.72642
 H1445 H 1.27585 0.70675 0.66715
 H1446 H 1.15951 0.62219 0.71164
 H1447 H 1.13264 0.58793 0.67505
 H1448 H 1.21964 0.65289 0.59398
 H1449 H 1.18558 0.62480 0.55646
 H1450 H 1.11564 0.55350 0.64347
 H1451 H 1.07853 0.53149 0.60536
 H1452 H 1.13473 0.58948 0.54101
 C1453 C 0.66856 0.79024 -0.15018
 C1454 C 0.67949 0.82168 -0.13808
 C1455 C 0.71146 0.83615 -0.14868
 C1456 C 0.73124 0.81962 -0.17066
 C1457 C 0.71940 0.78884 -0.18306
 C1458 C 0.68777 0.77463 -0.17241
 C1459 C 0.72272 0.86773 -0.13818
 C1460 C 0.70208 0.88614 -0.11849
 C1461 C 0.66935 0.87339 -0.10810
 C1462 C 0.65872 0.83998 -0.11711
 C1463 C 0.62722 0.82620 -0.10535
 C1464 C 0.60524 0.84519 -0.08747
 C1465 C 0.61384 0.87852 -0.08017
 C1466 C 0.64639 0.89303 -0.08955
 C1467 C 0.65380 0.92688 -0.08057
 C1468 C 0.62921 0.94559 -0.06406
 C1469 C 0.59650 0.93130 -0.05626
 C1470 C 0.58946 0.89754 -0.06387
 H1471 H 0.64423 0.77770 -0.14416
 H1472 H 0.75503 0.83165 -0.17905
 H1473 H 0.67655 0.75193 -0.18215
 H1474 H 0.74732 0.87885 -0.14595
 H1475 H 0.71240 0.91057 -0.11201
 H1476 H 0.61848 0.80064 -0.10963
 H1477 H 0.58081 0.83375 -0.07966
 H1478 H 0.67795 0.93989 -0.08643
 H1479 H 0.63526 0.97166 -0.05827
 H1480 H 0.56447 0.88604 -0.05736
 C1481 C 1.23916 0.35241 0.34878
 C1482 C 1.20367 0.34732 0.35838
 C1483 C 1.18444 0.32014 0.34557
 C1484 C 1.19854 0.30169 0.32234
 C1485 C 1.23367 0.30635 0.31294
 C1486 C 1.25403 0.33184 0.32667
 C1487 C 1.15056 0.31175 0.35530
 C1488 C 1.13486 0.32997 0.37757
 C1489 C 1.15182 0.35851 0.39012
 C1490 C 1.18610 0.36833 0.37961
 C1491 C 1.20027 0.39971 0.38927
 C1492 C 1.18076 0.42134 0.40753
 C1493 C 1.14747 0.41157 0.41830
 C1494 C 1.13402 0.37891 0.41122
 C1495 C 1.10256 0.36805 0.42502
 C1496 C 1.08251 0.39032 0.44159
 C1497 C 1.09318 0.42405 0.44554
 C1498 C 1.12674 0.43427 0.43525
 H1499 H 1.25602 0.37180 0.35823
 H1500 H 1.18133 0.28358 0.31136
 H1501 H 1.28105 0.33668 0.31970
 H1502 H 1.13590 0.29080 0.34553
 H1503 H 1.10817 0.32237 0.38308
 H1504 H 1.22550 0.40908 0.38150
 H1505 H 1.19174 0.44598 0.41312
 H1506 H 1.09270 0.34241 0.42336
 H1507 H 1.05774 0.38123 0.45079
 H1508 H 1.13581 0.46002 0.43914
 C1509 C 0.34680 0.79434 0.17143
 C1510 C 0.32667 0.81761 0.15501
 C1511 C 0.29104 0.82348 0.16343
 C1512 C 0.27511 0.80322 0.18529
 C1513 C 0.29523 0.77884 0.20061
 C1514 C 0.33164 0.77635 0.19428
 C1515 C 0.27219 0.85007 0.15042
 C1516 C 0.28852 0.87148 0.13007
 C1517 C 0.32360 0.86550 0.12035
 C1518 C 0.34170 0.83649 0.13158
 C1519 C 0.37404 0.82663 0.11869
 C1520 C 0.38990 0.84608 0.09731
 C1521 C 0.37483 0.87668 0.08868
 C1522 C 0.34148 0.88713 0.09980
 C1523 C 0.32860 0.91932 0.09076
 C1524 C 0.34928 0.94079 0.07286
 C1525 C 0.38280 0.93030 0.06301
 C1526 C 0.39412 0.89744 0.06983
 H1527 H 0.37497 0.79092 0.16813
 H1528 H 0.24747 0.80723 0.19093
 H1529 H 0.34887 0.76004 0.20689
 H1530 H 0.24498 0.85514 0.15678
 H1531 H 0.27276 0.89198 0.12151
 H1532 H 0.38724 0.80328 0.12427
 H1533 H 0.41502 0.83768 0.08826
 H1534 H 0.30365 0.92924 0.09858
 H1535 H 0.33986 0.96605 0.06797
 H1536 H 0.41961 0.88858 0.06182
 C1537 C 0.82684 0.28257 0.65078
 C1538 C 0.81631 0.31656 0.64648
 C1539 C 0.79270 0.33091 0.66717
 C1540 C 0.77981 0.31140 0.69069
 C1541 C 0.79066 0.27755 0.69475
 C1542 C 0.81441 0.26379 0.67439
 C1543 C 0.78266 0.36483 0.66458
 C1544 C 0.79659 0.38525 0.64259
 C1545 C 0.82075 0.37232 0.62175
 C1546 C 0.82947 0.33700 0.62303
 C1547 C 0.85137 0.32328 0.60095
 C1548 C 0.86686 0.34366 0.57995
 C1549 C 0.86113 0.37851 0.57988
 C1550 C 0.83725 0.39348 0.60010
 C1551 C 0.83240 0.42917 0.59845
 C1552 C 0.85258 0.44906 0.57915
 C1553 C 0.87776 0.43394 0.56083
 C1554 C 0.88067 0.39860 0.56048
 H1555 H 0.84557 0.26982 0.63680
 H1556 H 0.76174 0.32301 0.70620
 H1557 H 0.82390 0.23833 0.67626
 H1558 H 0.76441 0.37601 0.68019
 H1559 H 0.78790 0.41125 0.64250
 H1560 H 0.85728 0.29666 0.59926
 H1561 H 0.88440 0.33206 0.56402
 H1562 H 0.81453 0.44266 0.61272
 H1563 H 0.85017 0.47641 0.57994
 H1564 H 0.90016 0.38682 0.54623
 C1565 C 1.12855 1.20775 0.68433
 C1566 C 1.12984 1.17204 0.68214
 C1567 C 1.15513 1.15489 0.69960
 C1568 C 1.18084 1.17320 0.71550
 C1569 C 1.18228 1.20872 0.71399
 C1570 C 1.15405 1.22561 0.70034
 C1571 C 1.15538 1.11958 0.70036
 C1572 C 1.13226 1.10077 0.68289
 C1573 C 1.10868 1.11670 0.66320
 C1574 C 1.10752 1.15296 0.66280
 C1575 C 1.08599 1.16902 0.64169
 C1576 C 1.06783 1.15046 0.62058
 C1577 C 1.06940 1.11523 0.62025
 C1578 C 1.08806 1.09769 0.64249
 C1579 C 1.08634 1.06179 0.64223
 C1580 C 1.06997 1.04433 0.61915
 C1581 C 1.05506 1.06212 0.59583
 C1582 C 1.05361 1.09745 0.59700
 H1583 H 1.10810 1.22266 0.67407
 H1584 H 1.20076 1.15956 0.72789
 H1585 H 1.15189 1.25292 0.70141
 H1586 H 1.17419 1.10631 0.71416
 H1587 H 1.13495 1.07365 0.68417
 H1588 H 1.08428 1.19615 0.63970
 H1589 H 1.05306 1.16391 0.60390
 H1590 H 1.09776 1.04649 0.65926
 H1591 H 1.07057 1.01687 0.61878
 H1592 H 1.04107 1.11117 0.57925
 C1593 C 0.69346 0.68088 0.15602
 C1594 C 0.67596 0.65151 0.16564
 C1595 C 0.66736 0.64896 0.19566
 C1596 C 0.68081 0.67305 0.21586
 C1597 C 0.70097 0.70088 0.20611
 C1598 C 0.70513 0.70516 0.17580
 C1599 C 0.64549 0.62241 0.20498
 C1600 C 0.63125 0.59919 0.18484
 C1601 C 0.64060 0.60034 0.15494
 C1602 C 0.66565 0.62534 0.14594
 C1603 C 0.68041 0.62311 0.11772
 C1604 C 0.66814 0.59944 0.09767
 C1605 C 0.64007 0.57793 0.10476
 C1606 C 0.62592 0.57768 0.13350
 C1607 C 0.59642 0.55625 0.13891
 C1608 C 0.58053 0.53754 0.11617
 C1609 C 0.59421 0.53894 0.08765
 C1610 C 0.62501 0.55797 0.08263
 H1611 H 0.69785 0.68610 0.13316
 H1612 H 0.67587 0.66986 0.23901
 H1613 H 0.71951 0.72649 0.16696
 H1614 H 0.63851 0.62012 0.22787
 H1615 H 0.61395 0.57982 0.19343
 H1616 H 0.70218 0.63903 0.11081
 H1617 H 0.67967 0.59903 0.07595
 H1618 H 0.58374 0.55513 0.16000
 H1619 H 0.55665 0.52306 0.12069
 H1620 H 0.63592 0.55943 0.06074
 C1621 C 1.19371 0.79360 0.34443
 C1622 C 1.17837 0.82365 0.33391
 C1623 C 1.17455 0.82755 0.30336
 C1624 C 1.19121 0.80460 0.28422
 C1625 C 1.21051 0.77693 0.29527
 C1626 C 1.20924 0.77063 0.32538
 C1627 C 1.15521 0.85490 0.29238
 C1628 C 1.13946 0.87825 0.31132
 C1629 C 1.14480 0.87629 0.34187
 C1630 C 1.16668 0.84978 0.35292
 C1631 C 1.17776 0.85092 0.38237
 C1632 C 1.16531 0.87561 0.40119
 C1633 C 1.14032 0.89907 0.39163
 C1634 C 1.12946 0.89992 0.36192
 C1635 C 1.10252 0.92323 0.35403
 C1636 C 1.08570 0.94318 0.37532
 C1637 C 1.09605 0.94112 0.40475
 C1638 C 1.12481 0.92045 0.41224
 H1639 H 1.19437 0.78740 0.36740
 H1640 H 1.19046 0.80937 0.26091
 H1641 H 1.22309 0.74971 0.33500
 H1642 H 1.15191 0.85807 0.26899
 H1643 H 1.12468 0.89858 0.30141
 H1644 H 1.19705 0.83352 0.39122
 H1645 H 1.17418 0.87538 0.42379
 H1646 H 1.09233 0.92491 0.33201
 H1647 H 1.06356 0.95903 0.36892
 H1648 H 1.13359 0.91891 0.43482
 C1649 C 0.68523 0.28227 -0.15812
 C1650 C 0.65824 0.30339 -0.16903
 C1651 C 0.65952 0.31282 -0.19885
 C1652 C 0.68533 0.29888 -0.21743
 C1653 C 0.71109 0.27658 -0.20646
 C1654 C 0.71113 0.26942 -0.17647
 C1655 C 0.63529 0.33636 -0.20973
 C1656 C 0.61135 0.35234 -0.19110
 C1657 C 0.60979 0.34401 -0.16112
 C1658 C 0.63143 0.31702 -0.15072
 C1659 C 0.62584 0.30463 -0.12224
 C1660 C 0.60330 0.32112 -0.10309
 C1661 C 0.58616 0.35072 -0.11153
 C1662 C 0.58830 0.36224 -0.14083
 C1663 C 0.57094 0.39285 -0.14796
 C1664 C 0.55449 0.41226 -0.12632
 C1665 C 0.55440 0.40150 -0.09715
 C1666 C 0.56856 0.36983 -0.09029
 H1667 H 0.68788 0.27631 -0.13522
 H1668 H 0.68522 0.30551 -0.24039
 H1669 H 0.73155 0.25411 -0.16671
 H1670 H 0.63574 0.34344 -0.23260
 H1671 H 0.59399 0.37082 -0.20087
 H1672 H 0.63858 0.28204 -0.11421
 H1673 H 0.60073 0.31156 -0.08100
 H1674 H 0.57148 0.40353 -0.16959
 H1675 H 0.54317 0.43646 -0.13231
 H1676 H 0.56807 0.36092 -0.06789
 C1677 C 0.86136 1.19527 0.31285
 C1678 C 0.85020 1.16314 0.32285
 C1679 C 0.81404 1.15400 0.31867
 C1680 C 0.79088 1.17539 0.30347
 C1681 C 0.80274 1.20653 0.29258
 C1682 C 0.83805 1.21643 0.29793
 C1683 C 0.80118 1.12336 0.32937
 C1684 C 0.82320 1.10186 0.34496
 C1685 C 0.85937 1.10990 0.34990
 C1686 C 0.87351 1.14013 0.33731
 C1687 C 0.91050 1.14612 0.33924
 C1688 C 0.93260 1.12461 0.35479
 C1689 C 0.91866 1.09680 0.36951
 C1690 C 0.88186 1.08887 0.36720
 C1691 C 0.86876 1.06121 0.38358
 C1692 C 0.89096 1.04346 0.40242
 C1693 C 0.92689 1.05202 0.40489
 C1694 C 0.94103 1.07778 0.38769
 H1695 H 0.88779 1.20506 0.31653
 H1696 H 0.76375 1.16724 0.29963
 H1697 H 0.84805 1.24058 0.29037
 H1698 H 0.77363 1.11606 0.32596
 H1699 H 0.81114 1.07867 0.35234
 H1700 H 0.92335 1.16709 0.32856
 H1701 H 0.96077 1.13047 0.35606
 H1702 H 0.84117 1.05380 0.38369
 H1703 H 0.87976 1.02364 0.41591
 H1704 H 0.96886 1.08464 0.39016
 C1705 C 0.36545 0.71685 -0.17056
 C1706 C 0.37498 0.68247 -0.17432
 C1707 C 0.35593 0.66319 -0.19542
 C1708 C 0.32698 0.67722 -0.21026
 C1709 C 0.31672 0.71101 -0.20540
 C1710 C 0.33729 0.73085 -0.18620
 C1711 C 0.36592 0.63002 -0.20183
 C1712 C 0.39381 0.61495 -0.18700
 C1713 C 0.41227 0.63229 -0.16447
 C1714 C 0.40266 0.66661 -0.15796
 C1715 C 0.41974 0.68334 -0.13437
 C1716 C 0.44358 0.66648 -0.11650
 C1717 C 0.45200 0.63266 -0.12185
 C1718 C 0.43818 0.61564 -0.14683
 C1719 C 0.44940 0.58190 -0.15203
 C1720 C 0.46911 0.56450 -0.13112
 C1721 C 0.47853 0.58035 -0.10474
 C1722 C 0.47212 0.61504 -0.10116
 H1723 H 0.37995 0.73403 -0.15650
 H1724 H 0.31279 0.66167 -0.22612
 H1725 H 0.33285 0.75762 -0.18371
 H1726 H 0.35191 0.61539 -0.21844
 H1727 H 0.39917 0.58902 -0.19296
 H1728 H 0.41376 0.70901 -0.12798
 H1729 H 0.45446 0.67971 -0.09761
 H1730 H 0.44222 0.56780 -0.17142
 H1731 H 0.47465 0.53786 -0.13475
 H1732 H 0.48042 0.62774 -0.08114
 C1733 C 0.82646 0.86321 0.70891
 C1734 C 0.82725 0.85757 0.67834
 C1735 C 0.80353 0.83306 0.66650
 C1736 C 0.78076 0.81478 0.68469
 C1737 C 0.78325 0.81770 0.71513
 C1738 C 0.80517 0.84327 0.72696
 C1739 C 0.80415 0.82519 0.63677
 C1740 C 0.82969 0.83924 0.61876
 C1741 C 0.85494 0.86266 0.62973
 C1742 C 0.85200 0.87391 0.65939
 C1743 C 0.87404 0.90083 0.66904
 C1744 C 0.89887 0.91555 0.65053
 C1745 C 0.90366 0.90316 0.62217
 C1746 C 0.88251 0.87581 0.61172
 C1747 C 0.89011 0.86237 0.58373
 C1748 C 0.91536 0.87751 0.56588
 C1749 C 0.93407 0.90637 0.57529
 C1750 C 0.92897 0.91841 0.60389
 H1751 H 0.84372 0.88118 0.71979
 H1752 H 0.76404 0.79553 0.67498
 H1753 H 0.80739 0.84698 0.75038
 H1754 H 0.78564 0.80685 0.62753
 H1755 H 0.82856 0.83173 0.59606
 H1756 H 0.87196 0.91182 0.69061
 H1757 H 0.91478 0.93659 0.65863
 H1758 H 0.87714 0.84004 0.57506
 H1759 H 0.91944 0.86703 0.54419
 H1760 H 0.94361 0.94048 0.61157
 C1761 C 0.35293 0.35302 0.20687
 C1762 C 0.34526 0.35715 0.17684
 C1763 C 0.31741 0.33729 0.16459
 C1764 C 0.29905 0.31367 0.18167
 C1765 C 0.30544 0.31123 0.21181
 C1766 C 0.33323 0.33073 0.22396
 C1767 C 0.30727 0.34170 0.13553
 C1768 C 0.32335 0.36632 0.11852
 C1769 C 0.35125 0.38673 0.12970
 C1770 C 0.36370 0.38077 0.15877
 C1771 C 0.39462 0.39799 0.16849
 C1772 C 0.41293 0.42004 0.15031
 C1773 C 0.40030 0.42701 0.12229
 C1774 C 0.36831 0.41171 0.11218
 C1775 C 0.35492 0.42181 0.08470
 C1776 C 0.37477 0.44278 0.06660
 C1777 C 0.40847 0.45453 0.07525
 C1778 C 0.42026 0.44802 0.10378
 H1779 H 0.37289 0.36779 0.21819
 H1780 H 0.27866 0.29810 0.17151
 H1781 H 0.33963 0.32950 0.24702
 H1782 H 0.28606 0.32650 0.12601
 H1783 H 0.31421 0.36793 0.09619
 H1784 H 0.40641 0.39373 0.18966
 H1785 H 0.43733 0.43166 0.15825
 H1786 H 0.32936 0.41361 0.07646
 H1787 H 0.36435 0.44834 0.04505
 H1788 H 0.44598 0.45746 0.11099
   
