data_POSCAR
  _audit_creation_date              2014-09-24
  _audit_creation_method            'ToBaCCo'
  _symmetry_space_group_name_H-M    'P1'
  _symmetry_Int_Tables_number       1
  _symmetry_cell_setting            triclinic
  loop_
  _symmetry_equiv_pos_as_xyz
 x,y,z
_cell_length_a 59.7374
_cell_length_b 57.9230
_cell_length_c 56.1128
_cell_angle_alpha 90.164700
_cell_angle_beta 89.803200
_cell_angle_gamma 89.402200
loop_
  _atom_site_label
  _atom_site_type_symbol
  _atom_site_fract_x
  _atom_site_fract_y
  _atom_site_fract_z
N1 N 0.34782 0.34447 0.35121
 N2 N 0.36688 0.85790 -0.15373
 N3 N 0.83512 0.34475 -0.14470
 N4 N 0.86132 0.83849 0.33021
 N5 N 0.63803 0.65628 0.34674
 N6 N 0.65380 0.14867 -0.17152
 N7 N 0.16785 0.67527 -0.14763
 N8 N 0.13279 0.16218 0.36271
 N9 N 0.65240 0.33400 0.66707
 N10 N 0.67113 0.82932 1.14884
 N11 N 0.14007 0.35964 1.16444
 N12 N 0.15450 0.85389 0.64333
 N13 N 0.34274 0.65470 0.65745
 N14 N 0.34288 0.16545 1.16343
 N15 N 0.84583 0.64771 1.15973
 N16 N 0.85355 0.13915 0.65673
 N17 N 0.34633 0.35328 0.66329
 N18 N 0.35427 0.87542 0.16026
 N19 N 0.82678 0.33665 0.15843
 N20 N 0.85005 0.83398 0.64839
 N21 N 0.66475 0.66230 0.64961
 N22 N 0.64360 0.13547 0.15740
 N23 N 0.16417 0.64849 0.13754
 N24 N 0.14812 0.15739 0.66488
 N25 N 0.35862 0.65906 0.33685
 N26 N 0.33828 0.16005 0.85183
 N27 N 0.86468 0.63702 0.83021
 N28 N 0.83909 0.15144 0.33857
 N29 N 0.65091 0.34659 0.35814
 N30 N 0.65679 0.83220 0.84270
 N31 N 0.14269 0.35120 0.84657
 N32 N 0.16260 0.83721 0.32463
 O33 O 0.26704 0.99632 0.26045
 O34 O 0.22503 1.03525 0.28757
 O35 O 0.22868 0.98982 0.28141
 O36 O 0.26419 1.03947 0.26711
 O37 O 0.24647 1.04381 0.23289
 O38 O 0.21238 0.99285 0.24633
 O39 O 0.20720 1.03735 0.25323
 O40 O 0.25010 0.99975 0.22562
 Cu41 Cu 0.24756 1.01492 0.27791
 Cu42 Cu 0.22711 1.01898 0.23617
 C43 C 0.26594 0.99182 0.23832
 C44 C 0.20898 1.04296 0.27501
 C45 C 0.21515 0.98224 0.26589
 C46 C 0.26188 1.04959 0.24723
 O47 O 0.26635 0.48031 0.75371
 O48 O 0.23770 0.52500 0.79017
 O49 O 0.23138 0.48108 0.78192
 O50 O 0.27245 0.52397 0.76187
 O51 O 0.24949 0.53448 0.73303
 O52 O 0.21079 0.48834 0.75020
 O53 O 0.21434 0.53171 0.76046
 O54 O 0.24599 0.49093 0.72280
 Cu55 Cu 0.25411 0.50169 0.77505
 Cu56 Cu 0.22797 0.51224 0.73857
 C57 C 0.26142 0.47849 0.73177
 C58 C 0.22084 0.53557 0.78157
 C59 C 0.21423 0.47713 0.76928
 C60 C 0.26785 0.53671 0.74413
 O61 O 0.75994 -0.03554 0.20624
 O62 O 0.78862 0.01583 0.22924
 O63 O 0.79621 -0.02781 0.22945
 O64 O 0.75127 0.00929 0.20520
 O65 O 0.73177 0.00424 0.23822
 O66 O 0.77847 -0.02887 0.26401
 O67 O 0.76823 0.01450 0.26210
 O68 O 0.74331 -0.03938 0.24121
 Cu69 Cu 0.77563 -0.00899 0.21391
 Cu70 Cu 0.75332 -0.01235 0.25469
 C71 C 0.74775 -0.04695 0.22047
 C72 C 0.78364 0.02359 0.24979
 C73 C 0.79504 -0.03461 0.25094
 C74 C 0.73362 0.01266 0.21745
 O75 O 0.72134 0.52480 0.73894
 O76 O 0.74467 0.48317 0.78170
 O77 O 0.75601 0.52377 0.76694
 O78 O 0.71160 0.48225 0.75192
 O79 O 0.73235 0.46951 0.72194
 O80 O 0.77828 0.50721 0.74031
 O81 O 0.76482 0.46687 0.75310
 O82 O 0.74510 0.51192 0.71163
 Cu83 Cu 0.73107 0.50498 0.76256
 Cu84 Cu 0.75704 0.48726 0.72874
 C85 C 0.73016 0.52630 0.71842
 C86 C 0.75859 0.46784 0.77479
 C87 C 0.77492 0.52222 0.75648
 C88 C 0.71457 0.46867 0.73432
 O89 O 0.24567 0.47826 0.22791
 O90 O 0.28802 0.51802 0.25087
 O91 O 0.27797 0.47527 0.25907
 O92 O 0.25435 0.52248 0.22183
 O93 O 0.23170 0.53172 0.25166
 O94 O 0.25612 0.48647 0.28883
 O95 O 0.26521 0.52860 0.28004
 O96 O 0.22384 0.48702 0.25853
 Cu97 Cu 0.26859 0.49747 0.23680
 Cu98 Cu 0.24160 0.50946 0.27247
 C99 C 0.22801 0.47509 0.23997
 C100 C 0.28389 0.53013 0.26929
 C101 C 0.27131 0.47325 0.28056
 C102 C 0.23947 0.53563 0.23103
 O103 O 0.78937 0.95947 0.76528
 O104 O 0.76468 1.01346 0.78894
 O105 O 0.75877 0.96929 0.79671
 O106 O 0.79717 1.00328 0.76010
 O107 O 0.77127 1.00658 0.73229
 O108 O 0.73554 0.96649 0.76636
 O109 O 0.73801 1.01158 0.76187
 O110 O 0.76685 0.96177 0.73422
 Cu111 Cu 0.77990 0.98633 0.78075
 Cu112 Cu 0.75038 0.98661 0.74578
 C113 C 0.78255 0.95169 0.74541
 C114 C 0.74703 1.02166 0.77942
 C115 C 0.74109 0.96127 0.78756
 C116 C 0.79054 1.01143 0.74037
 O117 O 0.72778 0.52533 0.27418
 O118 O 0.76131 0.47899 0.24620
 O119 O 0.75923 0.52345 0.24281
 O120 O 0.72821 0.48018 0.27786
 O121 O 0.70233 0.47949 0.24990
 O122 O 0.73493 0.51933 0.21352
 O123 O 0.73551 0.47437 0.21854
 O124 O 0.70420 0.52386 0.24395
 Cu125 Cu 0.74660 0.50184 0.26330
 Cu126 Cu 0.71672 0.49842 0.22860
 C127 C 0.71099 0.53337 0.26300
 C128 C 0.75439 0.46910 0.22745
 C129 C 0.75192 0.52912 0.22236
 C130 C 0.70948 0.47320 0.27013
 O131 O 0.22329 0.02170 0.74360
 O132 O 0.25046 -0.02398 0.77896
 O133 O 0.24718 0.02186 0.78162
 O134 O 0.22642 -0.02286 0.74089
 O135 O 0.25711 -0.01970 0.71910
 O136 O 0.27789 0.02525 0.75996
 O137 O 0.28148 -0.02016 0.75784
 O138 O 0.25377 0.02439 0.72136
 Cu139 Cu 0.23393 -0.00118 0.76376
 Cu140 Cu 0.27083 0.00271 0.73764
 C141 C 0.23378 0.03052 0.72620
 C142 C 0.27036 -0.03022 0.77400
 C143 C 0.26557 0.03183 0.77723
 C144 C 0.23805 -0.02861 0.72279
 O145 O 0.24861 0.23594 0.98194
 O146 O 0.20953 0.26250 1.02530
 O147 O 0.21707 0.26669 0.98012
 O148 O 0.24075 0.22985 1.02699
 O149 O 0.26565 0.25646 1.03556
 O150 O 0.24243 0.29318 0.98787
 O151 O 0.23465 0.28890 1.03394
 O152 O 0.27342 0.26274 0.99040
 Cu153 Cu 0.22643 0.24601 1.00307
 Cu154 Cu 0.25643 0.27805 1.01309
 C155 C 0.26750 0.24526 0.97835
 C156 C 0.21532 0.28044 1.03672
 C157 C 0.22618 0.28586 0.97549
 C158 C 0.25749 0.23655 1.03892
 O159 O 0.25272 0.77257 0.46968
 O160 O 0.27147 0.73842 0.52135
 O161 O 0.28165 0.73998 0.47635
 O162 O 0.24254 0.77189 0.51550
 O163 O 0.21611 0.74664 0.50769
 O164 O 0.25548 0.71406 0.46956
 O165 O 0.24509 0.71298 0.51401
 O166 O 0.22624 0.74719 0.46245
 Cu167 Cu 0.26459 0.75844 0.49655
 Cu168 Cu 0.23298 0.72776 0.48772
 C169 C 0.23660 0.76547 0.45700
 C170 C 0.26175 0.71958 0.52618
 C171 C 0.27523 0.72144 0.46655
 C172 C 0.22270 0.76470 0.51833
 O173 O 0.30508 0.76553 -0.01058
 O174 O 0.26239 0.73484 0.02403
 O175 O 0.27180 0.73842 -0.02110
 O176 O 0.29384 0.76326 0.03465
 O177 O 0.27112 0.79332 0.03068
 O178 O 0.24974 0.76904 -0.02504
 O179 O 0.23904 0.76432 0.01961
 O180 O 0.28221 0.79546 -0.01438
 Cu181 Cu 0.28567 0.74758 0.00714
 Cu182 Cu 0.25822 0.78358 0.00258
 C183 C 0.30084 0.78550 -0.01880
 C184 C 0.24339 0.74422 0.02756
 C185 C 0.25717 0.74981 -0.03268
 C186 C 0.28609 0.78245 0.04221
 O187 O 0.22432 0.24673 0.48487
 O188 O 0.25835 0.28046 0.52750
 O189 O 0.25930 0.27311 0.48149
 O190 O 0.22161 0.25607 0.52994
 O191 O 0.24341 0.22611 0.53798
 O192 O 0.28041 0.24224 0.48789
 O193 O 0.28009 0.24983 0.53294
 O194 O 0.24506 0.21599 0.49295
 Cu195 Cu 0.23881 0.26722 0.50531
 Cu196 Cu 0.26430 0.23044 0.51358
 C197 C 0.22871 0.22534 0.48216
 C198 C 0.27540 0.27086 0.53695
 C199 C 0.27634 0.26075 0.47647
 C200 C 0.22585 0.23811 0.54206
 O201 O 0.74903 0.74760 0.96363
 O202 O 0.78620 0.72351 1.01005
 O203 O 0.78273 0.71833 0.96392
 O204 O 0.75171 0.75174 1.00985
 O205 O 0.72848 0.72257 1.01409
 O206 O 0.75945 0.68939 0.96900
 O207 O 0.76320 0.69414 1.01428
 O208 O 0.72583 0.71859 0.96870
 Cu209 Cu 0.76976 0.73823 0.98639
 Cu210 Cu 0.74196 0.70326 0.99208
 C211 C 0.73089 0.73743 0.95859
 C212 C 0.78118 0.70442 1.01964
 C213 C 0.77648 0.69796 0.95894
 C214 C 0.73445 0.74290 1.01930
 O215 O 0.78063 0.23503 0.53006
 O216 O 0.75883 0.27351 0.48324
 O217 O 0.75839 0.27386 0.53047
 O218 O 0.78108 0.23546 0.48382
 O219 O 0.74948 0.21591 0.48381
 O220 O 0.72671 0.25461 0.53036
 O221 O 0.72688 0.25459 0.48358
 O222 O 0.74909 0.21543 0.52936
 Cu223 Cu 0.77280 0.25664 0.50707
 Cu224 Cu 0.73469 0.23343 0.50685
 C225 C 0.76880 0.21827 0.53715
 C226 C 0.73938 0.27009 0.47501
 C227 C 0.73886 0.27057 0.53868
 C228 C 0.76920 0.21906 0.47601
 O229 O 0.73486 0.26565 0.02913
 O230 O 0.70446 0.24521 -0.02329
 O231 O 0.70145 0.23766 0.02252
 O232 O 0.74009 0.26996 -0.01693
 O233 O 0.76314 0.23990 -0.01672
 O234 O 0.72287 0.20662 0.01783
 O235 O 0.72753 0.21540 -0.02677
 O236 O 0.75547 0.23379 0.02874
 Cu237 Cu 0.71801 0.25769 0.00306
 Cu238 Cu 0.74461 0.22099 0.00047
 C239 C 0.74996 0.25300 0.03828
 C240 C 0.71074 0.22702 -0.03413
 C241 C 0.70553 0.21636 0.02635
 C242 C 0.75848 0.26036 -0.02312
 O243 O 0.77045 0.76253 0.45900
 O244 O 0.74338 0.73948 0.51295
 O245 O 0.73779 0.73405 0.46719
 O246 O 0.77672 0.76712 0.50441
 O247 O 0.75331 0.79694 0.50443
 O248 O 0.71314 0.76266 0.46985
 O249 O 0.72093 0.77002 0.51430
 O250 O 0.74549 0.79093 0.45843
 Cu251 Cu 0.75948 0.74783 0.48581
 Cu252 Cu 0.73093 0.78323 0.48649
 C253 C 0.76230 0.78052 0.44936
 C254 C 0.72779 0.75106 0.52304
 C255 C 0.71859 0.74253 0.46272
 C256 C 0.77161 0.78753 0.51084
 O257 O 0.97364 0.26509 0.22461
 O258 O 1.01201 0.23879 0.26792
 O259 O 0.96919 0.23432 0.25654
 O260 O 1.01474 0.27115 0.23571
 O261 O 1.00425 0.29792 0.26162
 O262 O 0.96042 0.25973 0.28462
 O263 O 1.00276 0.26541 0.29449
 O264 O 0.96257 0.29049 0.25174
 Cu265 Cu 0.99364 0.24946 0.24382
 Cu266 Cu 0.98178 0.28101 0.27598
 C267 C 0.96121 0.28197 0.23088
 C268 C 1.01416 0.24768 0.28846
 C269 C 0.95660 0.24111 0.27350
 C270 C 1.01667 0.29125 0.24446
 O271 O 0.50866 0.20348 0.74290
 O272 O 0.46819 0.24818 0.72290
 O273 O 0.51075 0.23766 0.71351
 O274 O 0.46699 0.21291 0.75181
 O275 O 0.47903 0.23433 0.78165
 O276 O 0.51988 0.26218 0.74201
 O277 O 0.47812 0.27042 0.75297
 O278 O 0.52070 0.22760 0.77055
 Cu279 Cu 0.48744 0.22348 0.72965
 Cu280 Cu 0.50022 0.25105 0.76474
 C281 C 0.52183 0.20826 0.75991
 C282 C 0.46610 0.26684 0.73475
 C283 C 0.52303 0.25375 0.72135
 C284 C 0.46621 0.21877 0.77360
 O285 O 0.01859 0.24246 0.73686
 O286 O -0.02640 0.28098 0.75883
 O287 O 0.01604 0.27520 0.76774
 O288 O -0.02357 0.24762 0.72694
 O289 O -0.03248 0.22237 0.75469
 O290 O 0.00683 0.25053 0.79603
 O291 O -0.03558 0.25534 0.78609
 O292 O 0.00978 0.21695 0.76443
 Cu293 Cu -0.00314 0.26416 0.74479
 Cu294 Cu -0.01368 0.23376 0.77813
 C295 C 0.02186 0.22312 0.74691
 C296 C -0.03859 0.27483 0.77626
 C297 C 0.01820 0.26756 0.78877
 C298 C -0.03455 0.23012 0.73365
 O299 O 0.47748 0.22587 0.24758
 O300 O 0.51746 0.25171 0.28916
 O301 O 0.47574 0.25837 0.27883
 O302 O 0.52024 0.21930 0.25750
 O303 O 0.52887 0.24396 0.22903
 O304 O 0.48597 0.28434 0.25231
 O305 O 0.52805 0.27622 0.26137
 O306 O 0.48650 0.25150 0.22022
 Cu307 Cu 0.49681 0.23611 0.27089
 Cu308 Cu 0.50826 0.26652 0.23790
 C309 C 0.47472 0.23461 0.22707
 C310 C 0.52970 0.26826 0.28240
 C311 C 0.47342 0.27813 0.26941
 C312 C 0.53229 0.22504 0.23984
 O313 O 1.03700 0.73319 0.75849
 O314 O 0.99177 0.75010 0.71775
 O315 O 1.03375 0.76190 0.72300
 O316 O 0.99484 0.72268 0.75405
 O317 O 0.98615 0.75090 0.77914
 O318 O 1.02315 0.79028 0.74696
 O319 O 0.98158 0.77811 0.74235
 O320 O 1.02771 0.76186 0.78265
 Cu321 Cu 1.01535 0.73918 0.73580
 Cu322 Cu 1.00366 0.77318 0.76514
 C323 C 1.04007 0.74452 0.77758
 C324 C 0.97875 0.76676 0.72319
 C325 C 1.03498 0.78285 0.72969
 C326 C 0.98417 0.73017 0.77218
 O327 O 0.52635 0.79175 0.24574
 O328 O 0.47593 0.76305 0.26817
 O329 O 0.51877 0.75647 0.27367
 O330 O 0.48361 0.79750 0.23987
 O331 O 0.48703 0.77519 0.20804
 O332 O 0.51716 0.73200 0.24350
 O333 O 0.47530 0.74173 0.23547
 O334 O 0.52876 0.76655 0.21623
 Cu335 Cu 0.50120 0.77955 0.26006
 Cu336 Cu 0.50227 0.75140 0.22275
 C337 C 0.53617 0.78408 0.22719
 C338 C 0.46667 0.74793 0.25523
 C339 C 0.52335 0.73690 0.26450
 C340 C 0.47968 0.79345 0.21801
 O341 O 0.03696 0.73035 0.27597
 O342 O -0.01151 0.69619 0.25628
 O343 O 0.03200 0.69444 0.24708
 O344 O -0.00517 0.73024 0.28466
 O345 O -0.01349 0.75159 0.25321
 O346 O 0.02937 0.72011 0.21822
 O347 O -0.01447 0.71757 0.22392
 O348 O 0.02877 0.75572 0.24791
 Cu349 Cu 0.01393 0.71004 0.26873
 Cu350 Cu 0.00737 0.73842 0.23246
 C351 C 0.03988 0.74985 0.26620
 C352 C -0.02149 0.70131 0.23699
 C353 C 0.03750 0.70146 0.22650
 C354 C -0.01610 0.74666 0.27510
 O355 O 0.52577 0.74794 0.69926
 O356 O 0.48534 0.78688 0.72884
 O357 O 0.52814 0.78299 0.72883
 O358 O 0.48285 0.75284 0.69824
 O359 O 0.47995 0.72849 0.72827
 O360 O 0.52612 0.75856 0.75892
 O361 O 0.48251 0.76244 0.75881
 O362 O 0.52381 0.72372 0.72953
 Cu363 Cu 0.50579 0.77003 0.71075
 Cu364 Cu 0.50284 0.74079 0.74687
 C365 C 0.53164 0.72923 0.70930
 C366 C 0.47725 0.78148 0.74901
 C367 C 0.53463 0.77622 0.74917
 C368 C 0.47370 0.73554 0.70788
 C369 C 0.39354 0.31436 0.31706
 C370 C 0.40628 0.33285 0.31016
 C371 C 0.40072 0.35550 0.31613
 C372 C 0.38129 0.35920 0.32982
 C373 C 0.36769 0.34041 0.33692
 C374 C 0.37391 0.31769 0.33014
 O375 O 0.40226 0.29416 0.31057
 C376 C 0.42088 0.30000 0.29929
 C377 C 0.42406 0.32347 0.29831
 C378 C 0.44262 0.33325 0.28735
 C379 C 0.45862 0.31818 0.27719
 C380 C 0.45594 0.29392 0.27862
 C381 C 0.43670 0.28478 0.28971
 H382 H 0.41116 0.36976 0.31083
 H383 H 0.37694 0.37666 0.33514
 H384 H 0.36391 0.30301 0.33521
 H385 H 0.44478 0.35177 0.28679
 H386 H 0.47334 0.32537 0.26881
 H387 H 0.43417 0.26634 0.29099
 C388 C 0.40841 0.82315 0.81060
 C389 C 0.42030 0.84056 0.79999
 C390 C 0.41598 0.86379 0.80446
 C391 C 0.39861 0.86934 0.82042
 C392 C 0.38576 0.85178 0.83131
 C393 C 0.39073 0.82830 0.82615
 O394 O 0.41548 0.80220 0.80419
 C395 C 0.43213 0.80651 0.78913
 C396 C 0.43559 0.82972 0.78579
 C397 C 0.45177 0.83815 0.77033
 C398 C 0.46505 0.82200 0.75790
 C399 C 0.46221 0.79795 0.76143
 C400 C 0.44549 0.79012 0.77733
 H401 H 0.42570 0.87718 0.79603
 H402 H 0.39519 0.88731 0.82425
 H403 H 0.38098 0.81456 0.83388
 H404 H 0.45407 0.85651 0.76789
 H405 H 0.47787 0.82822 0.74591
 H406 H 0.44287 0.77187 0.78026
 C407 C -0.11793 0.31266 0.82465
 C408 C -0.10573 0.33078 0.81589
 C409 C -0.11183 0.35371 0.81971
 C410 C -0.13133 0.35815 0.83304
 C411 C -0.14457 0.33979 0.84193
 C412 C -0.13765 0.31667 0.83752
 O413 O -0.10886 0.29218 0.81963
 C414 C -0.09058 0.29750 0.80738
 C415 C -0.08799 0.32088 0.80440
 C416 C -0.07010 0.33023 0.79190
 C417 C -0.05416 0.31485 0.78219
 C418 C -0.05616 0.29067 0.78548
 C419 C -0.07472 0.28193 0.79824
 H420 H -0.10181 0.36770 0.81289
 H421 H -0.13611 0.37592 0.83654
 H422 H -0.14734 0.30227 0.84393
 H423 H -0.06846 0.34869 0.78974
 H424 H -0.04001 0.32180 0.77258
 H425 H -0.07677 0.26357 0.80097
 C426 C -0.09516 0.79757 0.30745
 C427 C -0.07856 0.80063 0.32410
 C428 C -0.08095 0.81561 0.34342
 C429 C -0.10118 0.82807 0.34547
 C430 C -0.11852 0.82485 0.32869
 C431 C -0.11562 0.80910 0.30968
 O432 O -0.08904 0.78391 0.28954
 C433 C -0.06817 0.77808 0.29500
 C434 C -0.06101 0.78758 0.31613
 C435 C -0.03962 0.78372 0.32513
 C436 C -0.02502 0.76958 0.31172
 C437 C -0.03189 0.76028 0.28957
 C438 C -0.05376 0.76455 0.28113
 H439 H -0.06752 0.81810 0.35604
 H440 H -0.10338 0.84035 0.35989
 H441 H -0.12858 0.80683 0.29647
 H442 H -0.03434 0.79135 0.34179
 H443 H -0.00821 0.76638 0.31819
 H444 H -0.05935 0.75753 0.26428
 C445 C 0.59000 0.69178 0.32460
 C446 C 0.57730 0.67489 0.31412
 C447 C 0.58278 0.65154 0.31542
 C448 C 0.60241 0.64539 0.32760
 C449 C 0.61613 0.66254 0.33796
 C450 C 0.60956 0.68604 0.33677
 O451 O 0.58275 0.71300 0.31989
 C452 C 0.56518 0.70946 0.30600
 C453 C 0.56120 0.68644 0.30183
 C454 C 0.54488 0.67887 0.28611
 C455 C 0.53225 0.69573 0.27411
 C456 C 0.53598 0.71956 0.27821
 C457 C 0.55248 0.72649 0.29467
 H458 H 0.57272 0.63859 0.30671
 H459 H 0.60750 0.62741 0.32822
 H460 H 0.62013 0.69949 0.34381
 H461 H 0.54238 0.66068 0.28272
 H462 H 0.51967 0.69024 0.26151
 H463 H 0.55603 0.74456 0.29768
 C464 C 0.60664 0.16817 0.79006
 C465 C 0.58981 0.15404 0.79802
 C466 C 0.59344 0.13684 0.81493
 C467 C 0.61513 0.13451 0.82433
 C468 C 0.63263 0.14889 0.81633
 C469 C 0.62846 0.16545 0.79843
 O470 O 0.59933 0.18520 0.77629
 C471 C 0.57742 0.18177 0.77543
 C472 C 0.57071 0.16275 0.78816
 C473 C 0.54828 0.15683 0.79071
 C474 C 0.53215 0.17128 0.78002
 C475 C 0.53874 0.19138 0.76764
 C476 C 0.56167 0.19655 0.76509
 H477 H 0.57985 0.12639 0.82149
 H478 H 0.61825 0.12211 0.83836
 H479 H 0.64148 0.17709 0.79272
 H480 H 0.54334 0.14199 0.80108
 H481 H 0.51456 0.16749 0.78231
 H482 H 0.56699 0.21210 0.75612
 C483 C 1.11796 0.69817 0.81949
 C484 C 1.10903 0.71294 0.83634
 C485 C 1.11822 0.71554 0.85891
 C486 C 1.13750 0.70251 0.86423
 C487 C 1.14718 0.68732 0.84707
 C488 C 1.13715 0.68513 0.82437
 O489 O 1.10681 0.69841 0.79908
 C490 C 1.09052 0.71369 0.80312
 C491 C 1.09115 0.72315 0.82561
 C492 C 1.07586 0.73983 0.83339
 C493 C 1.05918 0.74697 0.81736
 C494 C 1.05803 0.73730 0.79411
 C495 C 1.07402 0.72040 0.78698
 H496 H 1.11093 0.72729 0.87187
 H497 H 1.14507 0.70434 0.88163
 H498 H 1.14439 0.67400 0.81081
 H499 H 1.07676 0.74711 0.85114
 H500 H 1.04707 0.75986 0.82315
 H501 H 1.07373 0.71274 0.76936
 C502 C 1.08932 0.19606 0.32924
 C503 C 1.07673 0.20488 0.34778
 C504 C 1.08175 0.20045 0.37152
 C505 C 1.10039 0.18624 0.37631
 C506 C 1.11378 0.17702 0.35749
 C507 C 1.10817 0.18236 0.33360
 O508 O 1.08135 0.20167 0.30797
 C509 C 1.06336 0.21435 0.31318
 C510 C 1.05986 0.21703 0.33727
 C511 C 1.04201 0.22985 0.34656
 C512 C 1.02715 0.24024 0.33034
 C513 C 1.03018 0.23730 0.30541
 C514 C 1.04862 0.22416 0.29679
 H515 H 1.07149 0.20738 0.38583
 H516 H 1.10427 0.18219 0.39466
 H517 H 1.11809 0.17585 0.31882
 H518 H 1.03960 0.23177 0.36559
 H519 H 1.01309 0.25022 0.33717
 H520 H 1.05149 0.22174 0.27788
 C521 C 0.59709 0.30824 0.68448
 C522 C 0.60118 0.28535 0.67943
 C523 C 0.62163 0.27729 0.67084
 C524 C 0.63856 0.29349 0.66720
 C525 C 0.63467 0.31748 0.67129
 C526 C 0.61337 0.32483 0.67992
 O527 O 0.57723 0.31196 0.69461
 C528 C 0.56858 0.29095 0.69581
 C529 C 0.58242 0.27413 0.68635
 C530 C 0.57686 0.25088 0.68600
 C531 C 0.55636 0.24463 0.69625
 C532 C 0.54229 0.26147 0.70717
 C533 C 0.54838 0.28502 0.70674
 H534 H 0.62469 0.25908 0.66775
 H535 H 0.65482 0.28721 0.66143
 H536 H 0.60970 0.34286 0.68342
 H537 H 0.58807 0.23797 0.67849
 H538 H 0.55199 0.22653 0.69683
 H539 H 0.53805 0.29815 0.71523
 C540 C 0.61816 0.80690 0.17557
 C541 C 0.61009 0.82663 0.18643
 C542 C 0.62057 0.84783 0.18451
 C543 C 0.64038 0.84866 0.17112
 C544 C 0.64943 0.82845 0.16020
 C545 C 0.63801 0.80727 0.16242
 O546 O 0.60560 0.78855 0.17969
 C547 C 0.58934 0.79689 0.19352
 C548 C 0.59144 0.82006 0.19834
 C549 C 0.57665 0.83217 0.21304
 C550 C 0.55879 0.81993 0.22300
 C551 C 0.55592 0.79614 0.21784
 C552 C 0.57149 0.78447 0.20291
 H553 H 0.61386 0.86313 0.19317
 H554 H 0.64898 0.86495 0.16958
 H555 H 0.64475 0.79150 0.15471
 H556 H 0.57878 0.85036 0.21671
 H557 H 0.54693 0.82911 0.23428
 H558 H 0.56980 0.76630 0.19877
 C559 C 1.09083 0.32891 0.18943
 C560 C 1.07926 0.34712 0.19960
 C561 C 1.08585 0.36994 0.19708
 C562 C 1.10548 0.37406 0.18405
 C563 C 1.11806 0.35548 0.17404
 C564 C 1.11037 0.33262 0.17645
 O565 O 1.08220 0.30853 0.19460
 C566 C 1.06487 0.31397 0.20841
 C567 C 1.06239 0.33734 0.21216
 C568 C 1.04587 0.34668 0.22694
 C569 C 1.03113 0.33130 0.23804
 C570 C 1.03311 0.30715 0.23404
 C571 C 1.05033 0.29844 0.21904
 H572 H 1.07656 0.38397 0.20536
 H573 H 1.11145 0.39157 0.18246
 H574 H 1.12000 0.31814 0.16954
 H575 H 1.04440 0.36511 0.22984
 H576 H 1.01798 0.33824 0.24938
 H577 H 1.05241 0.28011 0.21577
 C578 C 1.10972 0.82160 0.67573
 C579 C 1.09668 0.83960 0.68405
 C580 C 1.10176 0.86261 0.67974
 C581 C 1.12102 0.86723 0.66622
 C582 C 1.13491 0.84896 0.65760
 C583 C 1.12909 0.82581 0.66257
 O584 O 1.10186 0.80101 0.68156
 C585 C 1.08345 0.80611 0.69389
 C586 C 1.07959 0.82949 0.69603
 C587 C 1.06147 0.83864 0.70861
 C588 C 1.04682 0.82308 0.71955
 C589 C 1.05034 0.79886 0.71751
 C590 C 1.06891 0.79031 0.70432
 H591 H 1.09116 0.87649 0.68636
 H592 H 1.12507 0.88498 0.66226
 H593 H 1.13934 0.81151 0.65628
 H594 H 1.05881 0.85710 0.71013
 H595 H 1.03268 0.82992 0.72954
 H596 H 1.07220 0.77196 0.70263
 C597 C 0.39249 0.68535 0.68263
 C598 C 0.40401 0.69026 0.66203
 C599 C 0.39647 0.68389 0.63958
 C600 C 0.37622 0.67193 0.63828
 C601 C 0.36370 0.66694 0.65920
 C602 C 0.37206 0.67389 0.68171
 O603 O 0.40280 0.69264 0.70216
 C604 C 0.42117 0.70245 0.69368
 C605 C 0.42259 0.70160 0.66921
 C606 C 0.44009 0.71137 0.65651
 C607 C 0.45679 0.72257 0.66954
 C608 C 0.45592 0.72344 0.69481
 C609 C 0.43790 0.71306 0.70706
 H610 H 0.40594 0.68779 0.62365
 H611 H 0.37031 0.66642 0.62099
 H612 H 0.36292 0.67044 0.69798
 H613 H 0.44076 0.71060 0.63724
 H614 H 0.47053 0.73039 0.65997
 H615 H 0.43670 0.71370 0.72631
 C616 C 0.39192 0.19366 0.19269
 C617 C 0.40478 0.19896 0.17312
 C618 C 0.39810 0.19408 0.14995
 C619 C 0.37746 0.18306 0.14688
 C620 C 0.36379 0.17747 0.16681
 C621 C 0.37113 0.18329 0.19002
 O622 O 0.40157 0.19899 0.21320
 C623 C 0.42094 0.20791 0.20645
 C624 C 0.42370 0.20851 0.18212
 C625 C 0.44272 0.21752 0.17132
 C626 C 0.45952 0.22627 0.18624
 C627 C 0.45718 0.22537 0.21139
 C628 C 0.43758 0.21600 0.22156
 H629 H 0.40857 0.19821 0.13481
 H630 H 0.37225 0.17856 0.12902
 H631 H 0.36109 0.17949 0.20558
 H632 H 0.44450 0.21792 0.15213
 H633 H 0.47442 0.23346 0.17826
 H634 H 0.43520 0.21537 0.24069
 C635 C -0.09952 0.66842 0.18465
 C636 C -0.10358 0.66613 0.20864
 C637 C -0.12411 0.65930 0.21769
 C638 C -0.14103 0.65413 0.20133
 C639 C -0.13704 0.65498 0.17631
 C640 C -0.11594 0.66275 0.16799
 O641 O -0.07917 0.67629 0.17988
 C642 C -0.07019 0.67883 0.20136
 C643 C -0.08435 0.67254 0.21953
 C644 C -0.07831 0.67359 0.24342
 C645 C -0.05694 0.68191 0.24884
 C646 C -0.04234 0.68942 0.23051
 C647 C -0.04903 0.68764 0.20638
 H648 H -0.12710 0.65825 0.23669
 H649 H -0.15723 0.64932 0.20828
 H650 H -0.11225 0.66406 0.14916
 H651 H -0.08974 0.66846 0.25739
 H652 H -0.05216 0.68345 0.26738
 H653 H -0.03828 0.69336 0.19204
 C654 C -0.10426 0.17270 0.69153
 C655 C -0.09216 0.18242 0.67330
 C656 C -0.09664 0.17814 0.64941
 C657 C -0.11444 0.16338 0.64408
 C658 C -0.12758 0.15355 0.66253
 C659 C -0.12221 0.15823 0.68663
 O660 O -0.09710 0.17878 0.71300
 C661 C -0.08017 0.19272 0.70823
 C662 C -0.07655 0.19564 0.68421
 C663 C -0.05994 0.20988 0.67526
 C664 C -0.04642 0.22148 0.69174
 C665 C -0.04954 0.21845 0.71663
 C666 C -0.06672 0.20381 0.72492
 H667 H -0.08677 0.18583 0.63537
 H668 H -0.11813 0.15966 0.62560
 H669 H -0.13193 0.15104 0.70108
 H670 H -0.05748 0.21200 0.65627
 H671 H -0.03331 0.23253 0.68509
 H672 H -0.06962 0.20123 0.74378
 C673 C 0.31753 0.39165 0.31862
 C674 C 0.30962 0.40463 0.33744
 C675 C 0.31328 0.39861 0.36110
 C676 C 0.32578 0.37843 0.36554
 C677 C 0.33405 0.36461 0.34645
 C678 C 0.32963 0.37133 0.32263
 O679 O 0.31276 0.40077 0.29752
 C680 C 0.30156 0.41995 0.30315
 C681 C 0.29910 0.42302 0.32735
 C682 C 0.28791 0.44188 0.33724
 C683 C 0.27881 0.45823 0.32155
 C684 C 0.28122 0.45563 0.29647
 C685 C 0.29288 0.43618 0.28718
 H686 H 0.30708 0.40926 0.37561
 H687 H 0.32937 0.37375 0.38380
 H688 H 0.33578 0.36120 0.30771
 H689 H 0.28621 0.44393 0.35634
 H690 H 0.27004 0.47304 0.32901
 H691 H 0.29493 0.43365 0.26817
 C692 C 0.33172 -0.09408 0.82163
 C693 C 0.31354 -0.10628 0.81372
 C694 C 0.31219 -0.13018 0.81551
 C695 C 0.33029 -0.14195 0.82597
 C696 C 0.34885 -0.12966 0.83497
 C697 C 0.34950 -0.10537 0.83288
 O698 O 0.33021 -0.07163 0.81711
 C699 C 0.31057 -0.06958 0.80627
 C700 C 0.29955 -0.09023 0.80410
 C701 C 0.27857 -0.09201 0.79364
 C702 C 0.26868 -0.07172 0.78476
 C703 C 0.28011 -0.05043 0.78595
 C704 C 0.30133 -0.04930 0.79690
 H705 H 0.29787 -0.13945 0.80882
 H706 H 0.32985 -0.16057 0.82747
 H707 H 0.36336 -0.09559 0.83983
 H708 H 0.27018 -0.10842 0.79224
 H709 H 0.25250 -0.07268 0.77618
 H710 H 0.31037 -0.03322 0.79791
 C711 C 0.80463 0.38936 0.81924
 C712 C 0.79640 0.40346 0.83705
 C713 C 0.80013 0.39916 0.86109
 C714 C 0.81294 0.37956 0.86699
 C715 C 0.82149 0.36459 0.84897
 C716 C 0.81709 0.36960 0.82473
 O717 O 0.79977 0.39691 0.79753
 C718 C 0.78820 0.41619 0.80173
 C719 C 0.78557 0.42091 0.82562
 C720 C 0.77408 0.44029 0.83400
 C721 C 0.76499 0.45547 0.81708
 C722 C 0.76772 0.45120 0.79228
 C723 C 0.77950 0.43117 0.78457
 H724 H 0.79369 0.41065 0.87478
 H725 H 0.81647 0.37614 0.88557
 H726 H 0.82342 0.35855 0.81059
 H727 H 0.77224 0.44364 0.85290
 H728 H 0.75611 0.47073 0.82332
 H729 H 0.78186 0.42737 0.76583
 C730 C 0.83995 -0.10422 0.30870
 C731 C 0.85200 -0.10188 0.28795
 C732 C 0.86853 -0.11756 0.28101
 C733 C 0.87231 -0.13679 0.29567
 C734 C 0.85943 -0.14020 0.31678
 C735 C 0.84377 -0.12288 0.32378
 O736 O 0.82358 -0.08873 0.31098
 C737 C 0.82522 -0.07645 0.29115
 C738 C 0.84242 -0.08368 0.27649
 C739 C 0.84592 -0.07446 0.25393
 C740 C 0.83081 -0.05744 0.24600
 C741 C 0.81255 -0.05015 0.26057
 C742 C 0.81013 -0.05950 0.28371
 H743 H 0.87761 -0.11556 0.26443
 H744 H 0.88467 -0.14936 0.28988
 H745 H 0.83389 -0.12452 0.33987
 H746 H 0.85932 -0.08073 0.24252
 H747 H 0.83289 -0.05057 0.22821
 H748 H 0.79617 -0.05473 0.29512
 C749 C 0.30942 0.61432 0.69538
 C750 C 0.32620 0.60083 0.70489
 C751 C 0.34872 0.60448 0.70003
 C752 C 0.35414 0.62261 0.68453
 C753 C 0.33713 0.63697 0.67459
 C754 C 0.31445 0.63285 0.68059
 O755 O 0.28905 0.60697 0.70072
 C756 C 0.29304 0.58845 0.71395
 C757 C 0.31549 0.58406 0.71728
 C758 C 0.32336 0.56517 0.73016
 C759 C 0.30744 0.55008 0.73975
 C760 C 0.28422 0.55386 0.73588
 C761 C 0.27697 0.57347 0.72294
 H762 H 0.36163 0.59332 0.70728
 H763 H 0.37152 0.62507 0.67979
 H764 H 0.30104 0.64332 0.67329
 H765 H 0.34110 0.56199 0.73246
 H766 H 0.31322 0.53506 0.74948
 H767 H 0.25938 0.57678 0.71964
 C768 C 0.30650 1.12566 0.19894
 C769 C 0.32244 1.11260 0.21044
 C770 C 0.34527 1.11594 0.20729
 C771 C 0.35194 1.13344 0.19161
 C772 C 0.33584 1.14771 0.17998
 C773 C 0.31273 1.14372 0.18405
 O774 O 0.28576 1.11851 0.20283
 C775 C 0.28867 1.10060 0.21723
 C776 C 0.31079 1.09648 0.22272
 C777 C 0.31767 1.07841 0.23728
 C778 C 0.30111 1.06378 0.24628
 C779 C 0.27828 1.06710 0.24010
 C780 C 0.27197 1.08590 0.22549
 H781 H 0.35752 1.10501 0.21603
 H782 H 0.36963 1.13562 0.18825
 H783 H 0.29994 1.15406 0.17543
 H784 H 0.33517 1.07547 0.24130
 H785 H 0.30617 1.04926 0.25721
 H786 H 0.25470 1.08870 0.22035
 C787 C 0.81387 0.59864 0.18649
 C788 C 0.79279 0.60352 0.17801
 C789 C 0.78796 0.62275 0.16416
 C790 C 0.80562 0.63756 0.15873
 C791 C 0.82771 0.63283 0.16686
 C792 C 0.83184 0.61287 0.18081
 O793 O 0.81465 0.57976 0.19989
 C794 C 0.79361 0.57256 0.19972
 C795 C 0.77966 0.58640 0.18636
 C796 C 0.75705 0.58196 0.18337
 C797 C 0.74837 0.56252 0.19478
 C798 C 0.76221 0.54825 0.20918
 C799 C 0.78520 0.55335 0.21169
 H800 H 0.77117 0.62629 0.15787
 H801 H 0.80212 0.65271 0.14809
 H802 H 0.84852 0.60854 0.18691
 H803 H 0.74645 0.59311 0.17272
 H804 H 0.73069 0.55895 0.19295
 H805 H 0.79612 0.54276 0.22259
 C806 C 0.82442 1.09054 0.68760
 C807 C 0.84246 1.07726 0.69450
 C808 C 0.86447 1.08346 0.68983
 C809 C 0.86800 1.10408 0.67733
 C810 C 0.84968 1.11820 0.67008
 C811 C 0.82757 1.11132 0.67564
 O812 O 0.80487 1.08152 0.69361
 C813 C 0.81067 1.06213 0.70462
 C814 C 0.83349 1.05878 0.70579
 C815 C 0.84322 1.04000 0.71734
 C816 C 0.82885 1.02421 0.72836
 C817 C 0.80527 1.02722 0.72723
 C818 C 0.79608 1.04634 0.71494
 H819 H 0.87841 1.07269 0.69538
 H820 H 0.88499 1.10897 0.67305
 H821 H 0.81324 1.12179 0.67062
 H822 H 0.86121 1.03782 0.71823
 H823 H 0.83605 1.00969 0.73786
 H824 H 0.77817 1.04932 0.71424
 C825 C 0.67311 0.60860 0.32083
 C826 C 0.67312 0.61514 0.29727
 C827 C 0.66401 0.63590 0.28944
 C828 C 0.65377 0.65021 0.30648
 C829 C 0.65248 0.64345 0.33074
 C830 C 0.66286 0.62262 0.33815
 O831 O 0.68204 0.58774 0.32420
 C832 C 0.68756 0.58096 0.30227
 C833 C 0.68221 0.59706 0.28518
 C834 C 0.68502 0.59305 0.26092
 C835 C 0.69395 0.57162 0.25394
 C836 C 0.70019 0.55491 0.27117
 C837 C 0.69705 0.55968 0.29573
 H838 H 0.66420 0.64060 0.27079
 H839 H 0.64591 0.66615 0.30068
 H840 H 0.66174 0.61692 0.35647
 H841 H 0.68030 0.60587 0.24782
 H842 H 0.69648 0.56820 0.23513
 H843 H 0.70150 0.54710 0.30919
 C844 C 0.68567 1.09707 0.80537
 C845 C 0.70726 1.10483 0.80749
 C846 C 0.71225 1.12718 0.81459
 C847 C 0.69428 1.14195 0.82037
 C848 C 0.67184 1.13402 0.81976
 C849 C 0.66755 1.11136 0.81145
 O850 O 0.68461 1.07527 0.79810
 C851 C 0.70598 1.06909 0.79580
 C852 C 0.72051 1.08649 0.80160
 C853 C 0.74364 1.08347 0.80149
 C854 C 0.75216 1.06170 0.79488
 C855 C 0.73755 1.04370 0.78811
 C856 C 0.71412 1.04748 0.78856
 H857 H 0.72936 1.13300 0.81577
 H858 H 0.69784 1.15944 0.82590
 H859 H 0.65071 1.10473 0.81056
 H860 H 0.75472 1.09735 0.80641
 H861 H 0.77013 1.05902 0.79442
 H862 H 0.70262 1.03397 0.78361
 C863 C 0.19460 0.62003 0.83125
 C864 C 0.17617 0.60606 0.82993
 C865 C 0.15488 0.61339 0.83684
 C866 C 0.15244 0.63616 0.84514
 C867 C 0.17103 0.65126 0.84591
 C868 C 0.19251 0.64278 0.83922
 O869 O 0.21314 0.61004 0.82292
 C870 C 0.20624 0.58936 0.81603
 C871 C 0.18371 0.58611 0.81979
 C872 C 0.17261 0.56645 0.81215
 C873 C 0.18522 0.54958 0.79993
 C874 C 0.20846 0.55249 0.79608
 C875 C 0.21921 0.57250 0.80451
 H876 H 0.14061 0.60210 0.83558
 H877 H 0.13597 0.64218 0.85054
 H878 H 0.20700 0.65383 0.83926
 H879 H 0.15478 0.56450 0.81484
 H880 H 0.17691 0.53436 0.79321
 H881 H 0.23682 0.57534 0.80111
 C882 C 0.16659 1.11747 0.32962
 C883 C 0.14998 1.10552 0.31823
 C884 C 0.12741 1.11119 0.32079
 C885 C 0.12178 1.12991 0.33573
 C886 C 0.13868 1.14293 0.34724
 C887 C 0.16144 1.13649 0.34393
 O888 O 0.18693 1.10892 0.32551
 C889 C 0.18312 1.09123 0.31108
 C890 C 0.16081 1.08853 0.30582
 C891 C 0.15322 1.07142 0.29045
 C892 C 0.16930 1.05656 0.28011
 C893 C 0.19231 1.05872 0.28577
 C894 C 0.19926 1.07627 0.30155
 H895 H 0.11457 1.10134 0.31192
 H896 H 0.10428 1.13416 0.33846
 H897 H 0.17478 1.14596 0.35238
 H898 H 0.13562 1.06971 0.28640
 H899 H 0.16386 1.04317 0.26799
 H900 H 0.21676 1.07846 0.30591
 C901 C 0.66881 0.39324 0.68693
 C902 C 0.66356 0.39237 0.71078
 C903 C 0.65378 0.37316 0.72120
 C904 C 0.64956 0.35400 0.70650
 C905 C 0.65455 0.35456 0.68171
 C906 C 0.66386 0.37485 0.67186
 O907 O 0.68046 0.41175 0.68101
 C908 C 0.68259 0.42288 0.70155
 C909 C 0.67227 0.41197 0.72030
 C910 C 0.67347 0.42009 0.74362
 C911 C 0.68624 0.43993 0.74784
 C912 C 0.69794 0.45076 0.72895
 C913 C 0.69570 0.44231 0.70542
 H914 H 0.65054 0.37250 0.74017
 H915 H 0.64320 0.33846 0.71462
 H916 H 0.66833 0.37575 0.65318
 H917 H 0.66544 0.41110 0.75815
 H918 H 0.68807 0.44604 0.76598
 H919 H 0.70472 0.45000 0.69072
 C920 C 0.70981 -0.12439 0.16792
 C921 C 0.71394 -0.13135 0.19094
 C922 C 0.70653 -0.15221 0.20007
 C923 C 0.69367 -0.16613 0.18509
 C924 C 0.68843 -0.15893 0.16164
 C925 C 0.69718 -0.13812 0.15266
 O926 O 0.71677 -0.10312 0.16349
 C927 C 0.72528 -0.09646 0.18421
 C928 C 0.72382 -0.11310 0.20159
 C929 C 0.72969 -0.10915 0.22517
 C930 C 0.73746 -0.08715 0.23109
 C931 C 0.73939 -0.06976 0.21348
 C932 C 0.73346 -0.07457 0.18961
 H933 H 0.70966 -0.15709 0.21837
 H934 H 0.68668 -0.18192 0.19206
 H935 H 0.69268 -0.13200 0.13509
 H936 H 0.72789 -0.12236 0.23863
 H937 H 0.74207 -0.08367 0.24940
 H938 H 0.73439 -0.06145 0.17595
 C939 C 0.17924 0.40437 0.18746
 C940 C 0.17824 0.39952 0.21143
 C941 C 0.16716 0.38055 0.22056
 C942 C 0.15595 0.36640 0.20440
 C943 C 0.15549 0.37169 0.17968
 C944 C 0.16785 0.39064 0.17101
 O945 O 0.19063 0.42342 0.18272
 C946 C 0.19669 0.43079 0.20419
 C947 C 0.18922 0.41691 0.22233
 C948 C 0.19250 0.42197 0.24628
 C949 C 0.20440 0.44198 0.25179
 C950 C 0.21310 0.45611 0.23345
 C951 C 0.20914 0.45048 0.20927
 H952 H 0.16676 0.37705 0.23949
 H953 H 0.14670 0.35185 0.21121
 H954 H 0.16754 0.39523 0.15233
 H955 H 0.18613 0.41092 0.26020
 H956 H 0.20758 0.44602 0.27033
 H957 H 0.21557 0.46105 0.19497
 C958 C 0.18671 -0.10290 0.67916
 C959 C 0.19751 -0.09117 0.66130
 C960 C 0.19452 -0.09624 0.63731
 C961 C 0.17991 -0.11422 0.63150
 C962 C 0.16902 -0.12713 0.64960
 C963 C 0.17258 -0.12121 0.67382
 O964 O 0.19114 -0.09478 0.70076
 C965 C 0.20513 -0.07762 0.69645
 C966 C 0.20978 -0.07484 0.67261
 C967 C 0.22424 -0.05802 0.66419
 C968 C 0.23411 -0.04331 0.68101
 C969 C 0.22902 -0.04538 0.70562
 C970 C 0.21437 -0.06289 0.71341
 H971 H 0.20290 -0.08652 0.62353
 H972 H 0.17705 -0.11808 0.61288
 H973 H 0.16461 -0.13062 0.68811
 H974 H 0.22771 -0.05621 0.64535
 H975 H 0.24518 -0.02989 0.67482
 H976 H 0.21024 -0.06490 0.73209
 C977 C 0.31525 0.31045 0.39619
 C978 C 0.33236 0.29964 0.40829
 C979 C 0.35478 0.30309 0.40282
 C980 C 0.35976 0.31821 0.38406
 C981 C 0.34241 0.32914 0.37077
 C982 C 0.31980 0.32504 0.37707
 O983 O 0.29516 0.30589 0.40505
 C984 C 0.29967 0.29181 0.42307
 C985 C 0.32216 0.28720 0.42566
 C986 C 0.33055 0.27297 0.44355
 C987 C 0.31515 0.26340 0.45962
 C988 C 0.29195 0.26858 0.45781
 C989 C 0.28414 0.28284 0.43909
 H990 H 0.36798 0.29478 0.41291
 H991 H 0.37715 0.32152 0.38000
 H992 H 0.30613 0.33310 0.36746
 H993 H 0.34832 0.26960 0.44525
 H994 H 0.32136 0.25270 0.47400
 H995 H 0.26654 0.28716 0.43731
 C996 C 0.33936 0.83790 -0.09711
 C997 C 0.35637 0.82512 -0.08709
 C998 C 0.37762 0.82365 -0.09720
 C999 C 0.38129 0.83534 -0.11878
 C1000 C 0.36363 0.84770 -0.13029
 C1001 C 0.34259 0.84956 -0.11847
 O1002 O 0.32015 0.83644 -0.08534
 C1003 C 0.32504 0.82227 -0.06755
 C1004 C 0.34697 0.81477 -0.06776
 C1005 C 0.35513 0.79851 -0.05167
 C1006 C 0.33999 0.78941 -0.03499
 C1007 C 0.31725 0.79681 -0.03458
 C1008 C 0.30987 0.81381 -0.05090
 H1009 H 0.39084 0.81360 -0.08895
 H1010 H 0.39783 0.83436 -0.12662
 H1011 H 0.32867 0.85915 -0.12589
 H1012 H 0.37235 0.79254 -0.05239
 H1013 H 0.34587 0.77630 -0.02272
 H1014 H 0.29252 0.81939 -0.05150
 C1015 C 0.80071 0.31413 -0.09871
 C1016 C 0.81729 0.30519 -0.08442
 C1017 C 0.83993 0.30853 -0.08894
 C1018 C 0.84572 0.32173 -0.10895
 C1019 C 0.82897 0.33088 -0.12429
 C1020 C 0.80610 0.32685 -0.11897
 O1021 O 0.78022 0.30916 -0.09115
 C1022 C 0.78394 0.29670 -0.07171
 C1023 C 0.80636 0.29363 -0.06692
 C1024 C 0.81407 0.28041 -0.04795
 C1025 C 0.79803 0.26973 -0.03348
 C1026 C 0.77482 0.27281 -0.03788
 C1027 C 0.76768 0.28673 -0.05714
 H1028 H 0.85268 0.30146 -0.07732
 H1029 H 0.86323 0.32500 -0.11239
 H1030 H 0.79289 0.33351 -0.13028
 H1031 H 0.83179 0.27805 -0.04467
 H1032 H 0.80366 0.25904 -0.01882
 H1033 H 0.75007 0.28901 -0.06114
 C1034 C 0.82670 0.81113 0.37802
 C1035 C 0.80558 0.81405 0.36875
 C1036 C 0.80178 0.82361 0.34642
 C1037 C 0.82049 0.83085 0.33333
 C1038 C 0.84241 0.82919 0.34302
 C1039 C 0.84547 0.81861 0.36552
 O1040 O 0.82670 0.80171 0.39955
 C1041 C 0.80510 0.79880 0.40406
 C1042 C 0.79144 0.80628 0.38590
 C1043 C 0.76818 0.80603 0.38751
 C1044 C 0.75867 0.79769 0.40869
 C1045 C 0.77246 0.78941 0.42738
 C1046 C 0.79600 0.78985 0.42495
 H1047 H 0.78503 0.82549 0.33935
 H1048 H 0.81790 0.83815 0.31581
 H1049 H 0.86188 0.81690 0.37343
 H1050 H 0.75776 0.81235 0.37314
 H1051 H 0.74061 0.79743 0.41047
 H1052 H 0.80687 0.78398 0.43916
 C1053 C 0.68157 0.31309 0.61159
 C1054 C 0.70352 0.31688 0.61761
 C1055 C 0.70975 0.32638 0.63934
 C1056 C 0.69265 0.33208 0.65558
 C1057 C 0.66978 0.32874 0.64972
 C1058 C 0.66426 0.31937 0.62715
 O1059 O 0.67934 0.30228 0.59085
 C1060 C 0.70036 0.29924 0.58360
 C1061 C 0.71577 0.30811 0.59921
 C1062 C 0.73874 0.30642 0.59537
 C1063 C 0.74613 0.29483 0.57476
 C1064 C 0.73060 0.28482 0.55878
 C1065 C 0.70734 0.28728 0.56321
 H1066 H 0.72717 0.32870 0.64391
 H1067 H 0.69722 0.33875 0.67292
 H1068 H 0.64702 0.31641 0.62222
 H1069 H 0.75054 0.31346 0.60797
 H1070 H 0.76397 0.29292 0.57172
 H1071 H 0.69510 0.27973 0.55142
 C1072 C 0.70129 0.79957 1.09843
 C1073 C 0.68356 0.79428 1.08393
 C1074 C 0.66167 0.80094 1.08908
 C1075 C 0.65781 0.81328 1.11026
 C1076 C 0.67563 0.81817 1.12618
 C1077 C 0.69779 0.81148 1.11979
 O1078 O 0.72076 0.79147 1.09032
 C1079 C 0.71516 0.78067 1.07034
 C1080 C 0.69255 0.78172 1.06577
 C1081 C 0.68280 0.77049 1.04657
 C1082 C 0.69693 0.75762 1.03148
 C1083 C 0.72033 0.75662 1.03556
 C1084 C 0.72964 0.76848 1.05514
 H1085 H 0.64802 0.79673 1.07725
 H1086 H 0.64086 0.81876 1.11435
 H1087 H 0.71183 0.81483 1.13138
 H1088 H 0.66492 0.77130 1.04355
 H1089 H 0.68973 0.74856 1.01647
 H1090 H 0.74742 0.76764 1.05877
 C1091 C 0.17463 0.33227 1.11570
 C1092 C 0.15808 0.32669 1.09978
 C1093 C 0.13576 0.33269 1.10334
 C1094 C 0.13017 0.34453 1.12439
 C1095 C 0.14671 0.34971 1.14173
 C1096 C 0.16940 0.34375 1.13697
 O1097 O 0.19480 0.32491 1.10888
 C1098 C 0.19083 0.31433 1.08831
 C1099 C 0.16858 0.31474 1.08207
 C1100 C 0.16053 0.30379 1.06179
 C1101 C 0.17608 0.29208 1.04723
 C1102 C 0.19920 0.29190 1.05293
 C1103 C 0.20666 0.30325 1.07377
 H1104 H 0.12306 0.32826 1.09045
 H1105 H 0.11281 0.34926 1.12740
 H1106 H 0.18248 0.34718 1.14976
 H1107 H 0.14290 0.30413 1.05742
 H1108 H 0.17020 0.28353 1.03127
 H1109 H 0.22418 0.30317 1.07865
 C1110 C 0.18553 0.82009 0.59644
 C1111 C 0.16806 0.81300 0.58239
 C1112 C 0.14588 0.81883 0.58730
 C1113 C 0.14156 0.83257 0.60748
 C1114 C 0.15926 0.83988 0.62249
 C1115 C 0.18157 0.83334 0.61683
 O1116 O 0.20538 0.81301 0.58847
 C1117 C 0.20034 0.80111 0.56901
 C1118 C 0.17773 0.80042 0.56458
 C1119 C 0.16877 0.78838 0.54542
 C1120 C 0.18375 0.77654 0.53026
 C1121 C 0.20717 0.77732 0.53427
 C1122 C 0.21554 0.78990 0.55390
 H1123 H 0.13242 0.81319 0.57590
 H1124 H 0.12444 0.83763 0.61141
 H1125 H 0.19542 0.83845 0.62799
 H1126 H 0.15090 0.78794 0.54238
 H1127 H 0.17714 0.76696 0.51530
 H1128 H 0.23331 0.79055 0.55758
 C1129 C 0.31060 0.68515 0.60931
 C1130 C 0.30040 0.66675 0.59844
 C1131 C 0.30354 0.64409 0.60591
 C1132 C 0.31774 0.64024 0.62541
 C1133 C 0.32812 0.65896 0.63734
 C1134 C 0.32438 0.68176 0.62905
 O1135 O 0.30619 0.70518 0.59878
 C1136 C 0.29285 0.69930 0.58093
 C1137 C 0.28863 0.67602 0.58007
 C1138 C 0.27512 0.66612 0.56277
 C1139 C 0.26577 0.68080 0.54551
 C1140 C 0.27032 0.70481 0.54562
 C1141 C 0.28399 0.71416 0.56374
 H1142 H 0.29564 0.62984 0.59682
 H1143 H 0.32081 0.62267 0.63114
 H1144 H 0.33215 0.69638 0.63764
 H1145 H 0.27205 0.64774 0.56244
 H1146 H 0.25548 0.67333 0.53169
 H1147 H 0.28780 0.73239 0.56431
 C1148 C 0.31125 0.19801 1.11653
 C1149 C 0.30171 0.18004 1.10428
 C1150 C 0.30560 0.15703 1.11003
 C1151 C 0.31972 0.15234 1.12938
 C1152 C 0.32927 0.17057 1.14281
 C1153 C 0.32508 0.19375 1.13606
 O1154 O 0.30569 0.21859 1.10789
 C1155 C 0.29226 0.21350 1.08986
 C1156 C 0.28915 0.19016 1.08703
 C1157 C 0.27544 0.18101 1.06950
 C1158 C 0.26463 0.19654 1.05411
 C1159 C 0.26794 0.22070 1.05630
 C1160 C 0.28195 0.22925 1.07453
 H1161 H 0.29809 0.14318 1.09995
 H1162 H 0.32312 0.13455 1.13410
 H1163 H 0.33215 0.20798 1.14593
 H1164 H 0.27317 0.16257 1.06770
 H1165 H 0.25409 0.18970 1.04017
 H1166 H 0.28476 0.24758 1.07671
 C1167 C 0.83236 0.68000 1.10450
 C1168 C 0.83493 0.66253 1.08800
 C1169 C 0.84397 0.64102 1.09368
 C1170 C 0.84972 0.63702 1.11753
 C1171 C 0.84633 0.65436 1.13505
 C1172 C 0.83834 0.67645 1.12829
 O1173 O 0.82120 0.69817 1.09604
 C1174 C 0.81644 0.69195 1.07383
 C1175 C 0.82440 0.67022 1.06809
 C1176 C 0.81909 0.65913 1.04687
 C1177 C 0.80501 0.67085 1.03092
 C1178 C 0.79680 0.69330 1.03630
 C1179 C 0.80285 0.70418 1.05789
 H1180 H 0.84529 0.62736 1.08053
 H1181 H 0.85532 0.61995 1.12279
 H1182 H 0.83466 0.68952 1.14161
 H1183 H 0.82497 0.64176 1.04307
 H1184 H 0.80028 0.66241 1.01446
 H1185 H 0.79619 0.72104 1.06263
 C1186 C 0.82023 0.17465 0.61337
 C1187 C 0.81048 0.15756 0.60004
 C1188 C 0.81444 0.13422 0.60411
 C1189 C 0.82900 0.12826 0.62274
 C1190 C 0.83880 0.14554 0.63731
 C1191 C 0.83417 0.16912 0.63243
 O1192 O 0.81516 0.19577 0.60587
 C1193 C 0.80179 0.19193 0.58747
 C1194 C 0.79816 0.16884 0.58335
 C1195 C 0.78445 0.16095 0.56514
 C1196 C 0.77423 0.17755 0.55047
 C1197 C 0.77832 0.20140 0.55392
 C1198 C 0.79228 0.20869 0.57272
 H1199 H 0.80691 0.12108 0.59308
 H1200 H 0.83274 0.11018 0.62575
 H1201 H 0.84131 0.18277 0.64309
 H1202 H 0.78177 0.14270 0.56229
 H1203 H 0.76367 0.17183 0.53600
 H1204 H 0.79561 0.22681 0.57573
 C1205 C 0.67528 0.68350 0.39233
 C1206 C 0.65963 0.68982 0.40923
 C1207 C 0.63720 0.68397 0.40755
 C1208 C 0.63050 0.67163 0.38733
 C1209 C 0.64603 0.66585 0.36894
 C1210 C 0.66892 0.67142 0.37190
 O1211 O 0.69560 0.69138 0.39704
 C1212 C 0.69264 0.70308 0.41722
 C1213 C 0.67087 0.70283 0.42529
 C1214 C 0.66367 0.71533 0.44514
 C1215 C 0.67958 0.72858 0.45721
 C1216 C 0.70222 0.72871 0.44956
 C1217 C 0.70888 0.71562 0.42937
 H1218 H 0.62521 0.68911 0.42111
 H1219 H 0.61302 0.66722 0.38559
 H1220 H 0.68120 0.66756 0.35820
 H1221 H 0.64635 0.71521 0.45087
 H1222 H 0.67437 0.73856 0.47265
 H1223 H 0.72599 0.71579 0.42296
 C1224 C 0.67617 0.17346 -0.11451
 C1225 C 0.66544 0.19454 -0.11414
 C1226 C 0.64998 0.20118 -0.13128
 C1227 C 0.64576 0.18566 -0.14992
 C1228 C 0.65700 0.16388 -0.15122
 C1229 C 0.67192 0.15757 -0.13263
 O1230 O 0.69082 0.17086 -0.09694
 C1231 C 0.68931 0.19079 -0.08526
 C1232 C 0.67394 0.20582 -0.09503
 C1233 C 0.66988 0.22780 -0.08591
 C1234 C 0.68212 0.23455 -0.06583
 C1235 C 0.69820 0.21945 -0.05541
 C1236 C 0.70181 0.19721 -0.06537
 H1237 H 0.64179 0.21792 -0.13061
 H1238 H 0.63414 0.19106 -0.16354
 H1239 H 0.68045 0.14100 -0.13260
 H1240 H 0.65777 0.23935 -0.09399
 H1241 H 0.67913 0.25164 -0.05853
 H1242 H 0.71390 0.18525 -0.05786
 C1243 C 0.21060 0.69547 -0.10411
 C1244 C 0.21576 0.71652 -0.11390
 C1245 C 0.20688 0.72421 -0.13535
 C1246 C 0.19173 0.70979 -0.14700
 C1247 C 0.18568 0.68826 -0.13703
 C1248 C 0.19563 0.68077 -0.11552
 O1249 O 0.21944 0.69234 -0.08266
 C1250 C 0.23028 0.71189 -0.07877
 C1251 C 0.22848 0.72726 -0.09735
 C1252 C 0.23658 0.74964 -0.09620
 C1253 C 0.24668 0.75659 -0.07489
 C1254 C 0.24871 0.74112 -0.05548
 C1255 C 0.24081 0.71829 -0.05758
 H1256 H 0.21091 0.74101 -0.14246
 H1257 H 0.18408 0.71561 -0.16342
 H1258 H 0.19079 0.66469 -0.10731
 H1259 H 0.23446 0.76159 -0.11083
 H1260 H 0.25255 0.77416 -0.07329
 H1261 H 0.24156 0.70644 -0.04270
 C1262 C 0.16721 0.19229 0.40877
 C1263 C 0.17383 0.17380 0.42245
 C1264 C 0.16690 0.15136 0.41802
 C1265 C 0.15275 0.14779 0.39849
 C1266 C 0.14611 0.16646 0.38368
 C1267 C 0.15331 0.18909 0.38912
 O1268 O 0.17589 0.21215 0.41594
 C1269 C 0.18834 0.20602 0.43449
 C1270 C 0.18773 0.18272 0.43909
 C1271 C 0.20013 0.17239 0.45712
 C1272 C 0.21370 0.18667 0.47103
 C1273 C 0.21446 0.21083 0.46690
 C1274 C 0.20146 0.22064 0.44838
 H1275 H 0.17230 0.13710 0.42909
 H1276 H 0.14716 0.13046 0.39462
 H1277 H 0.14863 0.20360 0.37803
 H1278 H 0.19950 0.15398 0.46026
 H1279 H 0.22344 0.17890 0.48520
 H1280 H 0.20185 0.23896 0.44467
 C1281 C 0.31524 0.40064 0.69560
 C1282 C 0.30966 0.41469 0.67677
 C1283 C 0.31609 0.40992 0.65345
 C1284 C 0.32867 0.38974 0.64930
 C1285 C 0.33432 0.37459 0.66828
 C1286 C 0.32754 0.38028 0.69183
 O1287 O 0.30743 0.40843 0.71637
 C1288 C 0.29664 0.42776 0.71045
 C1289 C 0.29740 0.43224 0.68641
 C1290 C 0.28670 0.45116 0.67617
 C1291 C 0.27474 0.46614 0.69133
 C1292 C 0.27390 0.46216 0.71628
 C1293 C 0.28512 0.44267 0.72595
 H1294 H 0.31158 0.42132 0.63895
 H1295 H 0.33395 0.38579 0.63126
 H1296 H 0.33144 0.36900 0.70663
 H1297 H 0.28743 0.45421 0.65716
 H1298 H 0.26633 0.48099 0.68366
 H1299 H 0.28464 0.43906 0.74487
 C1300 C 0.31500 0.92007 0.18612
 C1301 C 0.33010 0.93585 0.19453
 C1302 C 0.35302 0.93348 0.19111
 C1303 C 0.36077 0.91383 0.17888
 C1304 C 0.34569 0.89659 0.17086
 C1305 C 0.32235 0.90015 0.17428
 O1306 O 0.29391 0.92561 0.19133
 C1307 C 0.29580 0.94521 0.20346
 C1308 C 0.31764 0.95208 0.20611
 C1309 C 0.32358 0.97143 0.21929
 C1310 C 0.30629 0.98426 0.23014
 C1311 C 0.28366 0.97781 0.22717
 C1312 C 0.27830 0.95810 0.21353
 H1313 H 0.36456 0.94626 0.19772
 H1314 H 0.37861 0.91194 0.17604
 H1315 H 0.31023 0.88756 0.16855
 H1316 H 0.34091 0.97629 0.22140
 H1317 H 0.31042 0.99938 0.24058
 H1318 H 0.26111 0.95273 0.21134
 C1319 C 0.79216 0.38684 0.18069
 C1320 C 0.80841 0.40343 0.18212
 C1321 C 0.83031 0.39967 0.17464
 C1322 C 0.83589 0.37775 0.16576
 C1323 C 0.81980 0.35983 0.16496
 C1324 C 0.79743 0.36471 0.17214
 O1325 O 0.77246 0.39401 0.18922
 C1326 C 0.77648 0.41550 0.19633
 C1327 C 0.79831 0.42194 0.19255
 C1328 C 0.80667 0.44308 0.19993
 C1329 C 0.79191 0.45828 0.21166
 C1330 C 0.76921 0.45234 0.21535
 C1331 C 0.76129 0.43070 0.20740
 H1332 H 0.84275 0.41307 0.17586
 H1333 H 0.85295 0.37456 0.15997
 H1334 H 0.78480 0.35145 0.17199
 H1335 H 0.82402 0.44756 0.19709
 H1336 H 0.79807 0.47483 0.21766
 H1337 H 0.74409 0.42567 0.21034
 C1338 C 0.81948 0.88145 0.68088
 C1339 C 0.81926 0.87257 0.70358
 C1340 C 0.82741 0.85066 0.70894
 C1341 C 0.83664 0.83756 0.69023
 C1342 C 0.83814 0.84670 0.66679
 C1343 C 0.82892 0.86884 0.66204
 O1344 O 0.81098 0.90270 0.67970
 C1345 C 0.80546 0.90736 0.70217
 C1346 C 0.81040 0.88956 0.71752
 C1347 C 0.80714 0.89119 0.74203
 C1348 C 0.79831 0.91199 0.75108
 C1349 C 0.79256 0.93037 0.73556
 C1350 C 0.79611 0.92797 0.71073
 H1351 H 0.82688 0.84396 0.72692
 H1352 H 0.84311 0.82046 0.69409
 H1353 H 0.82984 0.87632 0.64441
 H1354 H 0.81146 0.87705 0.75378
 H1355 H 0.79558 0.91366 0.77010
 H1356 H 0.79211 0.94188 0.69856
 C1357 C 0.68469 0.60635 0.67678
 C1358 C 0.70703 0.60702 0.67094
 C1359 C 0.71670 0.62569 0.65964
 C1360 C 0.70270 0.64429 0.65359
 C1361 C 0.67917 0.64365 0.65788
 C1362 C 0.67023 0.62434 0.67014
 O1363 O 0.67927 0.58758 0.68901
 C1364 C 0.69861 0.57613 0.69067
 C1365 C 0.71601 0.58715 0.67954
 C1366 C 0.73769 0.57824 0.67885
 C1367 C 0.74175 0.55728 0.69055
 C1368 C 0.72437 0.54607 0.70314
 C1369 C 0.70241 0.55554 0.70303
 H1370 H 0.73449 0.62614 0.65599
 H1371 H 0.71043 0.65912 0.64549
 H1372 H 0.65259 0.62322 0.67432
 H1373 H 0.75107 0.58726 0.66988
 H1374 H 0.75866 0.55036 0.69081
 H1375 H 0.68890 0.54740 0.71267
 C1376 C 0.68160 0.08561 0.17105
 C1377 C 0.66695 0.07131 0.18269
 C1378 C 0.64424 0.07637 0.18503
 C1379 C 0.63641 0.09726 0.17543
 C1380 C 0.65132 0.11270 0.16409
 C1381 C 0.67415 0.10648 0.16137
 O1382 O 0.70270 0.07821 0.17199
 C1383 C 0.70135 0.05893 0.18463
 C1384 C 0.67985 0.05400 0.19171
 C1385 C 0.67483 0.03567 0.20668
 C1386 C 0.69271 0.02194 0.21482
 C1387 C 0.71502 0.02658 0.20768
 C1388 C 0.71933 0.04518 0.19208
 H1389 H 0.63307 0.06495 0.19447
 H1390 H 0.61891 0.10190 0.17751
 H1391 H 0.68591 0.11817 0.15318
 H1392 H 0.65783 0.03241 0.21239
 H1393 H 0.68920 0.00779 0.22679
 H1394 H 0.73624 0.04943 0.18681
 C1395 C 0.20000 0.60258 0.16496
 C1396 C 0.20660 0.61394 0.18529
 C1397 C 0.20119 0.63693 0.18992
 C1398 C 0.18802 0.64860 0.17313
 C1399 C 0.18055 0.63720 0.15232
 C1400 C 0.18695 0.61399 0.14791
 O1401 O 0.20570 0.58031 0.16490
 C1402 C 0.21599 0.57756 0.18571
 C1403 C 0.21685 0.59766 0.19882
 C1404 C 0.22512 0.59853 0.22190
 C1405 C 0.23272 0.57782 0.23198
 C1406 C 0.23219 0.55687 0.21889
 C1407 C 0.22402 0.55673 0.19525
 H1408 H 0.20629 0.64534 0.20624
 H1409 H 0.18283 0.66626 0.17663
 H1410 H 0.18084 0.60486 0.13242
 H1411 H 0.22519 0.61447 0.23201
 H1412 H 0.23895 0.57804 0.25010
 H1413 H 0.22301 0.54083 0.18513
 C1414 C 0.17939 0.10857 0.69378
 C1415 C 0.18826 0.09764 0.67405
 C1416 C 0.18397 0.10495 0.65094
 C1417 C 0.17012 0.12444 0.64806
 C1418 C 0.16135 0.13656 0.66815
 C1419 C 0.16604 0.12830 0.69135
 O1420 O 0.18521 0.09859 0.71414
 C1421 C 0.19814 0.08108 0.70710
 C1422 C 0.20076 0.07987 0.68276
 C1423 C 0.21428 0.06334 0.67163
 C1424 C 0.22548 0.04735 0.68621
 C1425 C 0.22255 0.04790 0.71129
 C1426 C 0.20864 0.06498 0.72187
 H1427 H 0.19094 0.09592 0.63567
 H1428 H 0.16636 0.13028 0.63019
 H1429 H 0.15967 0.13716 0.70702
 H1430 H 0.21625 0.06288 0.65245
 H1431 H 0.23609 0.03427 0.67800
 H1432 H 0.20635 0.06590 0.74101
 C1433 C 0.32694 0.60720 0.31731
 C1434 C 0.34297 0.59596 0.30381
 C1435 C 0.36470 0.60405 0.30139
 C1436 C 0.37000 0.62469 0.31315
 C1437 C 0.35361 0.63675 0.32685
 C1438 C 0.33184 0.62768 0.32910
 O1439 O 0.30710 0.59722 0.31655
 C1440 C 0.31062 0.57933 0.30220
 C1441 C 0.33227 0.57777 0.29385
 C1442 C 0.33924 0.56092 0.27767
 C1443 C 0.32322 0.54510 0.26974
 C1444 C 0.30080 0.54637 0.27817
 C1445 C 0.29454 0.56370 0.29478
 H1446 H 0.37699 0.59504 0.29051
 H1447 H 0.38667 0.63162 0.31126
 H1448 H 0.31889 0.63683 0.33897
 H1449 H 0.35630 0.56019 0.27112
 H1450 H 0.32827 0.53194 0.25702
 H1451 H 0.27752 0.56538 0.30130
 C1452 C 0.31494 0.10719 0.82217
 C1453 C 0.29242 0.11218 0.82334
 C1454 C 0.28401 0.13287 0.83233
 C1455 C 0.29940 0.14896 0.84091
 C1456 C 0.32277 0.14390 0.84122
 C1457 C 0.33056 0.12271 0.83124
 O1458 O 0.31939 0.08688 0.81199
 C1459 C 0.29920 0.07885 0.80683
 C1460 C 0.28215 0.09358 0.81372
 C1461 C 0.25968 0.08850 0.81052
 C1462 C 0.25453 0.06750 0.79944
 C1463 C 0.27176 0.05233 0.79133
 C1464 C 0.29446 0.05808 0.79517
 H1465 H 0.26622 0.13662 0.83250
 H1466 H 0.29300 0.16535 0.84742
 H1467 H 0.34820 0.11829 0.83086
 H1468 H 0.24658 0.10034 0.81623
 H1469 H 0.23711 0.06346 0.79637
 H1470 H 0.30794 0.04684 0.78913
 C1471 C 0.82588 0.59859 0.79676
 C1472 C 0.84084 0.58364 0.78601
 C1473 C 0.86393 0.58625 0.78778
 C1474 C 0.87186 0.60468 0.80168
 C1475 C 0.85671 0.62015 0.81323
 C1476 C 0.83338 0.61727 0.81004
 O1477 O 0.80472 0.59229 0.79441
 C1478 C 0.80628 0.57289 0.78190
 C1479 C 0.82799 0.56688 0.77614
 C1480 C 0.83340 0.54677 0.76371
 C1481 C 0.81574 0.53232 0.75698
 C1482 C 0.79323 0.53797 0.76309
 C1483 C 0.78852 0.55866 0.77568
 H1484 H 0.87541 0.57404 0.77953
 H1485 H 0.88972 0.60631 0.80427
 H1486 H 0.82135 0.62861 0.81875
 H1487 H 0.85059 0.54226 0.75951
 H1488 H 0.81966 0.51652 0.74741
 H1489 H 0.77157 0.56349 0.78064
 C1490 C 0.81287 0.10084 0.30855
 C1491 C 0.83120 0.09186 0.29669
 C1492 C 0.85266 0.10042 0.29949
 C1493 C 0.85525 0.11939 0.31471
 C1494 C 0.83650 0.12964 0.32643
 C1495 C 0.81502 0.11998 0.32348
 O1496 O 0.79399 0.09010 0.30335
 C1497 C 0.80053 0.07412 0.28774
 C1498 C 0.82310 0.07468 0.28284
 C1499 C 0.83338 0.06010 0.26631
 C1500 C 0.81990 0.04395 0.25467
 C1501 C 0.79675 0.04246 0.26007
 C1502 C 0.78691 0.05787 0.27676
 H1503 H 0.86682 0.09299 0.29002
 H1504 H 0.87173 0.12674 0.31678
 H1505 H 0.80037 0.12775 0.33174
 H1506 H 0.85113 0.06106 0.26258
 H1507 H 0.82764 0.03208 0.24208
 H1508 H 0.76927 0.05713 0.28114
 C1509 C 0.67851 0.39844 0.33116
 C1510 C 0.66007 0.41037 0.32305
 C1511 C 0.63831 0.40318 0.32730
 C1512 C 0.63545 0.38252 0.33990
 C1513 C 0.65421 0.36911 0.34746
 C1514 C 0.67607 0.37784 0.34361
 O1515 O 0.69775 0.40775 0.32450
 C1516 C 0.69132 0.42587 0.31173
 C1517 C 0.66842 0.42818 0.31021
 C1518 C 0.65804 0.44498 0.29634
 C1519 C 0.67184 0.45986 0.28336
 C1520 C 0.69551 0.45790 0.28473
 C1521 C 0.70538 0.44085 0.29941
 H1522 H 0.62403 0.41292 0.32081
 H1523 H 0.61858 0.37672 0.34329
 H1524 H 0.69092 0.36859 0.34920
 H1525 H 0.63999 0.44625 0.29513
 H1526 H 0.66411 0.47289 0.27219
 H1527 H 0.72338 0.43870 0.30041
 C1528 C 0.68740 0.88216 0.81613
 C1529 C 0.69393 0.89357 0.83643
 C1530 C 0.68904 0.88562 0.85921
 C1531 C 0.67677 0.86516 0.86113
 C1532 C 0.66992 0.85295 0.84046
 C1533 C 0.67549 0.86162 0.81763
 O1534 O 0.69379 0.89257 0.79621
 C1535 C 0.70466 0.91093 0.80411
 C1536 C 0.70530 0.91230 0.82859
 C1537 C 0.71654 0.92968 0.84062
 C1538 C 0.72784 0.94612 0.82688
 C1539 C 0.72745 0.94509 0.80160
 C1540 C 0.71540 0.92737 0.79009
 H1541 H 0.69433 0.89492 0.87493
 H1542 H 0.67238 0.85889 0.87867
 H1543 H 0.67056 0.85265 0.80157
 H1544 H 0.71697 0.93029 0.85990
 H1545 H 0.73708 0.95952 0.83591
 H1546 H 0.71518 0.92587 0.77086
 C1547 C 0.16766 0.40592 0.82337
 C1548 C 0.15845 0.40682 0.80099
 C1549 C 0.14284 0.39094 0.79309
 C1550 C 0.13702 0.37300 0.80862
 C1551 C 0.14682 0.37117 0.83165
 C1552 C 0.16163 0.38866 0.83933
 O1553 O 0.18330 0.42167 0.82687
 C1554 C 0.18401 0.43272 0.80621
 C1555 C 0.16902 0.42444 0.78981
 C1556 C 0.16757 0.43297 0.76672
 C1557 C 0.18224 0.45069 0.76025
 C1558 C 0.19818 0.45924 0.77672
 C1559 C 0.19889 0.45015 0.80010
 H1560 H 0.13596 0.39187 0.77529
 H1561 H 0.12547 0.36019 0.80221
 H1562 H 0.16910 0.38826 0.85687
 H1563 H 0.15577 0.42604 0.75405
 H1564 H 0.18150 0.45737 0.74227
 H1565 H 0.21087 0.45621 0.81308
 C1566 C 0.18347 0.89580 0.30748
 C1567 C 0.17732 0.89636 0.28390
 C1568 C 0.16690 0.87802 0.27261
 C1569 C 0.16251 0.85831 0.28622
 C1570 C 0.16834 0.85733 0.31073
 C1571 C 0.17895 0.87648 0.32148
 O1572 O 0.19381 0.91483 0.31452
 C1573 C 0.19412 0.92768 0.29495
 C1574 C 0.18409 0.91722 0.27579
 C1575 C 0.18262 0.92750 0.25350
 C1576 C 0.19220 0.94934 0.25073
 C1577 C 0.20321 0.96033 0.27002
 C1578 C 0.20394 0.94934 0.29255
 H1579 H 0.16242 0.87880 0.25395
 H1580 H 0.15449 0.84377 0.27777
 H1581 H 0.18341 0.87633 0.34015
 H1582 H 0.17464 0.91890 0.23870
 H1583 H 0.19157 0.95734 0.23333
 H1584 H 0.21226 0.95717 0.30761
 C1585 C 0.38911 0.31497 0.69262
 C1586 C 0.40215 0.33108 0.70383
 C1587 C 0.39736 0.35463 0.70309
 C1588 C 0.37856 0.36187 0.68997
 C1589 C 0.36474 0.34559 0.67821
 C1590 C 0.37005 0.32172 0.68007
 O1591 O 0.39710 0.29357 0.69452
 C1592 C 0.41560 0.29621 0.70726
 C1593 C 0.41935 0.31881 0.71357
 C1594 C 0.43781 0.32545 0.72687
 C1595 C 0.45297 0.30812 0.73396
 C1596 C 0.44969 0.28471 0.72734
 C1597 C 0.43068 0.27874 0.71374
 H1598 H 0.40805 0.36704 0.71176
 H1599 H 0.37514 0.38019 0.68847
 H1600 H 0.35995 0.30878 0.67139
 H1601 H 0.44045 0.34334 0.73162
 H1602 H 0.46746 0.31299 0.74431
 H1603 H 0.42763 0.26104 0.70851
 C1604 C 0.40692 0.85420 0.18839
 C1605 C 0.41914 0.84827 0.16840
 C1606 C 0.41154 0.85238 0.14538
 C1607 C 0.39032 0.86265 0.14287
 C1608 C 0.37729 0.86851 0.16319
 C1609 C 0.38587 0.86456 0.18627
 O1610 O 0.41615 0.84687 0.20849
 C1611 C 0.43452 0.83595 0.20106
 C1612 C 0.43712 0.83629 0.17668
 C1613 C 0.45395 0.82396 0.16494
 C1614 C 0.46847 0.81048 0.17886
 C1615 C 0.46598 0.80969 0.20401
 C1616 C 0.44904 0.82304 0.21527
 H1617 H 0.42121 0.84707 0.12993
 H1618 H 0.38357 0.86529 0.12520
 H1619 H 0.37580 0.86807 0.20196
 H1620 H 0.45535 0.82405 0.14570
 H1621 H 0.48133 0.80024 0.17003
 H1622 H 0.44634 0.82221 0.23435
 C1623 C 0.87995 0.32223 0.19027
 C1624 C 0.89214 0.31227 0.17203
 C1625 C 0.88400 0.31029 0.14893
 C1626 C 0.86237 0.31886 0.14449
 C1627 C 0.84943 0.32907 0.16305
 C1628 C 0.85844 0.33090 0.18623
 O1629 O 0.89033 0.32142 0.21112
 C1630 C 0.90947 0.31067 0.20595
 C1631 C 0.91140 0.30470 0.18228
 C1632 C 0.92957 0.29226 0.17324
 C1633 C 0.94628 0.28542 0.18932
 C1634 C 0.94457 0.29115 0.21389
 C1635 C 0.92600 0.30428 0.22220
 H1636 H 0.89381 0.30215 0.13494
 H1637 H 0.85552 0.31739 0.12673
 H1638 H 0.84870 0.33826 0.20073
 H1639 H 0.93059 0.28754 0.15459
 H1640 H 0.96035 0.27534 0.18268
 H1641 H 0.92398 0.30854 0.24089
 C1642 C 0.90288 0.81352 0.67779
 C1643 C 0.90539 0.79207 0.66750
 C1644 C 0.89059 0.78356 0.65063
 C1645 C 0.87236 0.79768 0.64425
 C1646 C 0.86939 0.81997 0.65452
 C1647 C 0.88517 0.82803 0.67132
 O1648 O 0.91820 0.81791 0.69422
 C1649 C 0.93067 0.79881 0.69429
 C1650 C 0.92364 0.78254 0.67814
 C1651 C 0.93416 0.76117 0.67544
 C1652 C 0.95262 0.75634 0.69007
 C1653 C 0.95996 0.77267 0.70720
 C1654 C 0.94880 0.79427 0.70922
 H1655 H 0.89274 0.76649 0.64302
 H1656 H 0.86030 0.79112 0.63163
 H1657 H 0.88341 0.84492 0.67946
 H1658 H 0.92828 0.74861 0.66265
 H1659 H 0.96088 0.73968 0.68836
 H1660 H 0.95398 0.80709 0.72209
 C1661 C 0.60531 0.31773 0.32380
 C1662 C 0.59406 0.30688 0.34193
 C1663 C 0.60065 0.30829 0.36562
 C1664 C 0.61955 0.32155 0.37085
 C1665 C 0.63146 0.33301 0.35250
 C1666 C 0.62427 0.33078 0.32857
 O1667 O 0.59617 0.31434 0.30255
 C1668 C 0.57878 0.30104 0.30739
 C1669 C 0.57680 0.29591 0.33121
 C1670 C 0.55991 0.28204 0.34018
 C1671 C 0.54446 0.27305 0.32392
 C1672 C 0.54603 0.27817 0.29923
 C1673 C 0.56347 0.29248 0.29093
 H1674 H 0.59149 0.29963 0.37959
 H1675 H 0.62466 0.32309 0.38922
 H1676 H 0.63320 0.33904 0.31416
 H1677 H 0.55873 0.27821 0.35901
 H1678 H 0.53123 0.26218 0.33062
 H1679 H 0.56524 0.29660 0.27221
 C1680 C 0.61132 0.80508 0.80624
 C1681 C 0.59940 0.82441 0.79957
 C1682 C 0.60521 0.84656 0.80660
 C1683 C 0.62409 0.84890 0.82115
 C1684 C 0.63714 0.82932 0.82791
 C1685 C 0.63058 0.80707 0.82010
 O1686 O 0.60247 0.78557 0.79828
 C1687 C 0.58465 0.79280 0.78621
 C1688 C 0.58220 0.81645 0.78624
 C1689 C 0.56503 0.82781 0.77423
 C1690 C 0.54971 0.81423 0.76171
 C1691 C 0.55152 0.78980 0.76189
 C1692 C 0.56920 0.77890 0.77440
 H1693 H 0.59535 0.86148 0.80139
 H1694 H 0.62849 0.86600 0.82726
 H1695 H 0.64013 0.79177 0.82477
 H1696 H 0.56355 0.84645 0.77440
 H1697 H 0.53616 0.82270 0.75225
 H1698 H 0.57100 0.76028 0.77464
 C1699 C 0.09840 0.31160 0.82472
 C1700 C 0.08088 0.31766 0.83955
 C1701 C 0.08276 0.33452 0.85716
 C1702 C 0.10349 0.34559 0.85945
 C1703 C 0.12179 0.33925 0.84462
 C1704 C 0.11930 0.32177 0.82729
 O1705 O 0.09273 0.29670 0.80785
 C1706 C 0.07120 0.29316 0.81215
 C1707 C 0.06315 0.30530 0.83155
 C1708 C 0.04084 0.30442 0.83880
 C1709 C 0.02622 0.29078 0.82527
 C1710 C 0.03407 0.27892 0.80473
 C1711 C 0.05688 0.27996 0.79821
 H1712 H 0.06864 0.33941 0.86828
 H1713 H 0.10538 0.35913 0.87260
 H1714 H 0.13301 0.31706 0.81552
 H1715 H 0.03483 0.31421 0.85403
 H1716 H 0.00867 0.29023 0.83012
 H1717 H 0.06312 0.27125 0.78238
 C1718 C 0.11668 0.79648 0.30876
 C1719 C 0.09896 0.81180 0.30758
 C1720 C 0.10070 0.83494 0.31379
 C1721 C 0.12172 0.84282 0.32092
 C1722 C 0.14056 0.82770 0.32138
 C1723 C 0.13786 0.80403 0.31572
 O1724 O 0.11153 0.77544 0.30113
 C1725 C 0.09017 0.77762 0.29482
 C1726 C 0.08182 0.79962 0.29824
 C1727 C 0.06044 0.80633 0.29127
 C1728 C 0.04702 0.78967 0.28040
 C1729 C 0.05499 0.76674 0.27709
 C1730 C 0.07682 0.76052 0.28460
 H1731 H 0.08651 0.84665 0.31257
 H1732 H 0.12365 0.86093 0.32518
 H1733 H 0.15206 0.79227 0.31543
 H1734 H 0.05442 0.82386 0.29377
 H1735 H 0.03028 0.79452 0.27481
 H1736 H 0.08334 0.74319 0.28196
 C1737 C 0.61210 0.67761 0.68191
 C1738 C 0.59713 0.67664 0.66333
 C1739 C 0.60303 0.66865 0.64075
 C1740 C 0.62540 0.66207 0.63695
 C1741 C 0.64132 0.66367 0.65552
 C1742 C 0.63446 0.67095 0.67851
 O1743 O 0.60359 0.68770 0.70127
 C1744 C 0.58291 0.69339 0.69471
 C1745 C 0.57819 0.68711 0.67160
 C1746 C 0.55848 0.69359 0.66017
 C1747 C 0.54305 0.70719 0.67304
 C1748 C 0.54742 0.71368 0.69691
 C1749 C 0.56748 0.70639 0.70805
 H1750 H 0.59108 0.66853 0.62629
 H1751 H 0.63075 0.65697 0.61923
 H1752 H 0.64656 0.67317 0.69262
 H1753 H 0.55543 0.68901 0.64176
 H1754 H 0.52779 0.71290 0.66438
 H1755 H 0.57145 0.71179 0.72603
 C1756 C 0.60011 0.17484 0.18436
 C1757 C 0.60432 0.17145 0.20818
 C1758 C 0.62194 0.15786 0.21635
 C1759 C 0.63553 0.14690 0.19927
 C1760 C 0.63101 0.14916 0.17451
 C1761 C 0.61319 0.16374 0.16703
 O1762 O 0.58247 0.18844 0.18046
 C1763 C 0.57532 0.19357 0.20231
 C1764 C 0.58799 0.18337 0.21987
 C1765 C 0.58289 0.18545 0.24398
 C1766 C 0.56404 0.19878 0.25026
 C1767 C 0.55108 0.21002 0.23254
 C1768 C 0.55684 0.20742 0.20820
 H1769 H 0.62502 0.15563 0.23521
 H1770 H 0.64932 0.13618 0.20534
 H1771 H 0.60914 0.16572 0.14835
 H1772 H 0.59296 0.17699 0.25744
 H1773 H 0.55982 0.20079 0.26895
 H1774 H 0.54708 0.21567 0.19434
 C1775 C 0.11244 0.67387 0.16528
 C1776 C 0.10229 0.65415 0.17336
 C1777 C 0.11089 0.63216 0.16888
 C1778 C 0.13093 0.63044 0.15583
 C1779 C 0.14202 0.65053 0.14775
 C1780 C 0.13248 0.67256 0.15251
 O1781 O 0.10203 0.69310 0.17225
 C1782 C 0.08502 0.68538 0.18514
 C1783 C 0.08452 0.66167 0.18654
 C1784 C 0.06908 0.65001 0.20054
 C1785 C 0.05355 0.66332 0.21362
 C1786 C 0.05353 0.68777 0.21216
 C1787 C 0.06938 0.69892 0.19751
 H1788 H 0.10273 0.61690 0.17561
 H1789 H 0.13822 0.61354 0.15256
 H1790 H 0.14096 0.68820 0.14735
 H1791 H 0.06927 0.63136 0.20172
 H1792 H 0.04152 0.65464 0.22486
 H1793 H 0.07004 0.71756 0.19650
 C1794 C 0.10217 0.18745 0.69910
 C1795 C 0.08961 0.16892 0.70618
 C1796 C 0.09532 0.14627 0.70030
 C1797 C 0.11471 0.14262 0.68652
 C1798 C 0.12824 0.16142 0.67928
 C1799 C 0.12183 0.18417 0.68598
 O1800 O 0.09328 0.20764 0.70549
 C1801 C 0.07473 0.20172 0.71692
 C1802 C 0.07180 0.17823 0.71809
 C1803 C 0.05342 0.16834 0.72927
 C1804 C 0.03733 0.18329 0.73945
 C1805 C 0.03967 0.20759 0.73780
 C1806 C 0.05876 0.21687 0.72647
 H1807 H 0.08498 0.13197 0.70572
 H1808 H 0.11906 0.12515 0.68124
 H1809 H 0.13171 0.19892 0.68086
 H1810 H 0.05146 0.14980 0.73000
 H1811 H 0.02275 0.17598 0.74797
 H1812 H 0.06102 0.23534 0.72500
 C1813 C 0.39867 0.70196 0.31221
 C1814 C 0.39114 0.70331 0.28909
 C1815 C 0.37209 0.69211 0.28124
 C1816 C 0.36064 0.67846 0.29773
 C1817 C 0.36853 0.67602 0.32145
 C1818 C 0.38749 0.68846 0.32895
 O1819 O 0.41791 0.71275 0.31554
 C1820 C 0.42268 0.72090 0.29403
 C1821 C 0.40687 0.71548 0.27720
 C1822 C 0.40947 0.72046 0.25313
 C1823 C 0.42924 0.73140 0.24608
 C1824 C 0.44567 0.73736 0.26313
 C1825 C 0.44220 0.73231 0.28749
 H1826 H 0.36663 0.69324 0.26291
 H1827 H 0.34608 0.66905 0.29189
 H1828 H 0.39407 0.68648 0.34678
 H1829 H 0.39702 0.71553 0.24015
 H1830 H 0.43181 0.73516 0.22738
 H1831 H 0.45477 0.73617 0.30074
 C1832 C 0.38794 0.17324 0.81418
 C1833 C 0.40416 0.17440 0.83150
 C1834 C 0.40025 0.16825 0.85507
 C1835 C 0.37854 0.16144 0.86122
 C1836 C 0.36124 0.16116 0.84396
 C1837 C 0.36621 0.16643 0.81993
 O1838 O 0.39471 0.18135 0.79327
 C1839 C 0.41555 0.18795 0.79755
 C1840 C 0.42206 0.18424 0.82073
 C1841 C 0.44246 0.19172 0.82963
 C1842 C 0.45679 0.20335 0.81396
 C1843 C 0.45065 0.20700 0.78986
 C1844 C 0.42977 0.19901 0.78152
 H1845 H 0.41319 0.16960 0.86844
 H1846 H 0.37473 0.15774 0.87968
 H1847 H 0.35312 0.16711 0.80665
 H1848 H 0.44700 0.18907 0.84808
 H1849 H 0.47275 0.20934 0.82052
 H1850 H 0.42449 0.20195 0.76333
 C1851 C 0.91199 0.66893 0.80138
 C1852 C 0.92435 0.67455 0.82115
 C1853 C 0.91853 0.66770 0.84402
 C1854 C 0.89905 0.65468 0.84669
 C1855 C 0.88552 0.64910 0.82672
 C1856 C 0.89232 0.65624 0.80366
 O1857 O 0.92029 0.67758 0.78133
 C1858 C 0.93819 0.68900 0.78867
 C1859 C 0.94128 0.68780 0.81293
 C1860 C 0.95812 0.69964 0.82468
 C1861 C 0.97229 0.71341 0.81088
 C1862 C 0.96967 0.71470 0.78584
 C1863 C 0.95253 0.70212 0.77450
 H1864 H 0.92856 0.67232 0.85930
 H1865 H 0.89435 0.64913 0.86440
 H1866 H 0.88229 0.65254 0.78811
 H1867 H 0.95997 0.69871 0.84384
 H1868 H 0.98531 0.72313 0.81965
 H1869 H 0.94994 0.70328 0.75544
 C1870 C 0.88378 0.19260 0.32093
 C1871 C 0.87839 0.19561 0.29731
 C1872 C 0.85917 0.18672 0.28711
 C1873 C 0.84526 0.17348 0.30165
 C1874 C 0.85098 0.16905 0.32575
 C1875 C 0.87022 0.17927 0.33571
 O1876 O 0.90328 0.20187 0.32673
 C1877 C 0.91042 0.21066 0.30625
 C1878 C 0.89587 0.20702 0.28768
 C1879 C 0.90068 0.21312 0.26430
 C1880 C 0.92124 0.22370 0.25990
 C1881 C 0.93620 0.22829 0.27881
 C1882 C 0.93072 0.22182 0.30237
 H1883 H 0.85538 0.18927 0.26845
 H1884 H 0.83059 0.16563 0.29393
 H1885 H 0.87516 0.17568 0.35388
 H1886 H 0.88913 0.20963 0.24995
 H1887 H 0.92532 0.22882 0.24186
 H1888 H 0.94205 0.22503 0.31701
 C1889 C 0.31371 0.32492 0.61454
 C1890 C 0.33087 0.31672 0.60038
 C1891 C 0.35331 0.32004 0.60575
 C1892 C 0.35829 0.33234 0.62661
 C1893 C 0.34094 0.34061 0.64184
 C1894 C 0.31830 0.33688 0.63556
 O1895 O 0.29355 0.31972 0.60628
 C1896 C 0.29810 0.30786 0.58652
 C1897 C 0.32071 0.30546 0.58222
 C1898 C 0.32933 0.29273 0.56322
 C1899 C 0.31403 0.28177 0.54820
 C1900 C 0.29065 0.28406 0.55215
 C1901 C 0.28252 0.29757 0.57139
 H1902 H 0.36651 0.31348 0.59425
 H1903 H 0.37564 0.33549 0.63093
 H1904 H 0.30473 0.34302 0.64682
 H1905 H 0.34719 0.29086 0.56038
 H1906 H 0.32035 0.27136 0.53353
 H1907 H 0.26475 0.29915 0.57503
 C1908 C 0.31913 0.84543 0.11524
 C1909 C 0.31960 0.82337 0.12433
 C1910 C 0.32927 0.81797 0.14611
 C1911 C 0.33943 0.83591 0.15874
 C1912 C 0.33995 0.85862 0.14936
 C1913 C 0.32918 0.86357 0.12755
 O1914 O 0.31027 0.84653 0.09359
 C1915 C 0.30523 0.82471 0.08889
 C1916 C 0.31076 0.80984 0.10706
 C1917 C 0.30872 0.78601 0.10513
 C1918 C 0.30059 0.77712 0.08358
 C1919 C 0.29443 0.79212 0.06472
 C1920 C 0.29660 0.81628 0.06753
 H1921 H 0.32966 0.80045 0.15276
 H1922 H 0.34783 0.83202 0.17534
 H1923 H 0.32995 0.88062 0.11978
 H1924 H 0.31365 0.77463 0.11949
 H1925 H 0.29899 0.75861 0.08158
 H1926 H 0.29246 0.82805 0.05320
 C1927 C 0.78930 0.30982 0.11322
 C1928 C 0.79064 0.28708 0.12018
 C1929 C 0.80161 0.28006 0.14074
 C1930 C 0.81224 0.29707 0.15428
 C1931 C 0.81200 0.32054 0.14698
 C1932 C 0.79982 0.32706 0.12645
 O1933 O 0.77896 0.31262 0.09251
 C1934 C 0.77384 0.29119 0.08621
 C1935 C 0.78078 0.27490 0.10244
 C1936 C 0.77858 0.25129 0.09857
 C1937 C 0.76866 0.24418 0.07715
 C1938 C 0.76094 0.26066 0.06037
 C1939 C 0.76351 0.28451 0.06506
 H1940 H 0.80256 0.26206 0.14578
 H1941 H 0.82156 0.29190 0.16994
 H1942 H 0.79984 0.34471 0.12016
 H1943 H 0.78457 0.23879 0.11142
 H1944 H 0.76675 0.22589 0.07376
 H1945 H 0.75810 0.29746 0.05237
 C1946 C 0.81286 0.82599 0.59562
 C1947 C 0.82847 0.82631 0.57752
 C1948 C 0.85094 0.83101 0.58143
 C1949 C 0.85768 0.83500 0.60499
 C1950 C 0.84210 0.83384 0.62411
 C1951 C 0.81924 0.82987 0.61921
 O1952 O 0.79274 0.81953 0.58837
 C1953 C 0.79574 0.81551 0.56527
 C1954 C 0.81735 0.81926 0.55774
 C1955 C 0.82474 0.81380 0.53482
 C1956 C 0.80928 0.80387 0.51912
 C1957 C 0.78692 0.80007 0.52647
 C1958 C 0.77996 0.80628 0.54972
 H1959 H 0.86297 0.83088 0.56696
 H1960 H 0.87521 0.83802 0.60857
 H1961 H 0.80712 0.82831 0.63348
 H1962 H 0.84198 0.81629 0.52951
 H1963 H 0.81474 0.79877 0.50143
 H1964 H 0.76316 0.80271 0.55593
 C1965 C 0.33268 0.69079 0.38832
 C1966 C 0.33163 0.67328 0.40478
 C1967 C 0.34079 0.65147 0.40070
 C1968 C 0.35093 0.64737 0.37851
 C1969 C 0.35134 0.66479 0.36073
 C1970 C 0.34257 0.68703 0.36606
 O1971 O 0.32198 0.70986 0.39528
 C1972 C 0.31385 0.70419 0.41649
 C1973 C 0.31914 0.68192 0.42305
 C1974 C 0.31074 0.67173 0.44361
 C1975 C 0.29626 0.68505 0.45796
 C1976 C 0.29090 0.70811 0.45170
 C1977 C 0.29998 0.71793 0.43084
 H1978 H 0.33966 0.63793 0.41389
 H1979 H 0.35776 0.63035 0.37478
 H1980 H 0.34223 0.70056 0.35279
 H1981 H 0.31473 0.65401 0.44812
 H1982 H 0.28918 0.67748 0.47389
 H1983 H 0.29562 0.73536 0.42551
 C1984 C 0.30984 0.18787 0.90457
 C1985 C 0.31802 0.20991 0.90283
 C1986 C 0.33247 0.21668 0.88480
 C1987 C 0.33878 0.20006 0.86782
 C1988 C 0.33095 0.17700 0.86932
 C1989 C 0.31641 0.17085 0.88823
 O1990 O 0.29546 0.18539 0.92248
 C1991 C 0.29465 0.20630 0.93227
 C1992 C 0.30836 0.22183 0.92104
 C1993 C 0.31018 0.24469 0.92828
 C1994 C 0.29715 0.25194 0.94777
 C1995 C 0.28236 0.23648 0.95928
 C1996 C 0.28119 0.21326 0.95145
 H1997 H 0.33842 0.23423 0.88363
 H1998 H 0.34974 0.20515 0.85341
 H1999 H 0.31028 0.15341 0.89001
 H2000 H 0.32110 0.25656 0.91913
 H2001 H 0.29807 0.26980 0.95343
 H2002 H 0.27004 0.20110 0.95987
 C2003 C 0.83363 0.66604 0.88026
 C2004 C 0.82584 0.64707 0.89228
 C2005 C 0.83081 0.62454 0.88535
 C2006 C 0.84420 0.62142 0.86502
 C2007 C 0.85203 0.64066 0.85191
 C2008 C 0.84682 0.66332 0.85984
 O2009 O 0.82674 0.68593 0.88975
 C2010 C 0.81426 0.67934 0.90809
 C2011 C 0.81309 0.65573 0.91030
 C2012 C 0.80033 0.64501 0.92770
 C2013 C 0.78825 0.65920 0.94351
 C2014 C 0.78930 0.68363 0.94183
 C2015 C 0.80264 0.69383 0.92390
 H2016 H 0.82451 0.60990 0.89516
 H2017 H 0.84830 0.60403 0.85922
 H2018 H 0.85249 0.67827 0.85009
 H2019 H 0.79956 0.62639 0.92894
 H2020 H 0.77822 0.65114 0.95721
 H2021 H 0.80361 0.71240 0.92206
 C2022 C 0.81415 0.18250 0.39131
 C2023 C 0.80741 0.16415 0.40495
 C2024 C 0.81146 0.14135 0.39835
 C2025 C 0.82264 0.13731 0.37668
 C2026 C 0.82898 0.15592 0.36166
 C2027 C 0.82479 0.17890 0.36946
 O2028 O 0.80904 0.20284 0.40095
 C2029 C 0.79869 0.19718 0.42103
 C2030 C 0.79702 0.17372 0.42421
 C2031 C 0.78599 0.16405 0.44360
 C2032 C 0.77641 0.17923 0.46044
 C2033 C 0.77851 0.20344 0.45781
 C2034 C 0.78985 0.21253 0.43786
 H2035 H 0.80627 0.12716 0.40954
 H2036 H 0.82616 0.11962 0.37155
 H2037 H 0.82925 0.19361 0.35867
 H2038 H 0.78467 0.14554 0.44560
 H2039 H 0.76775 0.17219 0.47573
 H2040 H 0.79142 0.23098 0.43537
 C2041 C 0.68506 0.32325 0.40834
 C2042 C 0.70222 0.31268 0.39588
 C2043 C 0.70335 0.31260 0.37111
 C2044 C 0.68606 0.32385 0.35871
 C2045 C 0.66862 0.33548 0.37120
 C2046 C 0.66823 0.33534 0.39637
 O2047 O 0.68613 0.31971 0.43167
 C2048 C 0.70444 0.30677 0.43403
 C2049 C 0.71511 0.30229 0.41269
 C2050 C 0.73449 0.28886 0.41099
 C2051 C 0.74303 0.27937 0.43211
 C2052 C 0.73180 0.28299 0.45410
 C2053 C 0.71232 0.29697 0.45515
 H2054 H 0.71673 0.30369 0.36168
 H2055 H 0.68617 0.32371 0.33942
 H2056 H 0.65492 0.34392 0.40622
 H2057 H 0.74255 0.28554 0.39400
 H2058 H 0.75781 0.26840 0.43124
 H2059 H 0.70337 0.29968 0.47175
 C2060 C 0.69038 0.79489 0.88425
 C2061 C 0.67357 0.78342 0.89590
 C2062 C 0.65102 0.78727 0.89109
 C2063 C 0.64558 0.80357 0.87351
 C2064 C 0.66261 0.81528 0.86071
 C2065 C 0.68537 0.81072 0.86629
 O2066 O 0.71067 0.78953 0.89228
 C2067 C 0.70657 0.77427 0.90933
 C2068 C 0.68414 0.76976 0.91209
 C2069 C 0.67610 0.75433 0.92891
 C2070 C 0.69180 0.74322 0.94363
 C2071 C 0.71499 0.74801 0.94159
 C2072 C 0.72244 0.76374 0.92408
 H2073 H 0.63806 0.77836 0.90082
 H2074 H 0.62810 0.80726 0.87003
 H2075 H 0.69878 0.81942 0.85705
 H2076 H 0.65838 0.75106 0.93075
 H2077 H 0.68580 0.73139 0.95707
 H2078 H 0.74001 0.76776 0.92210
 C2079 C 0.17091 0.32459 0.89965
 C2080 C 0.19302 0.32731 0.89350
 C2081 C 0.19966 0.33624 0.87168
 C2082 C 0.18281 0.34319 0.85580
 C2083 C 0.15980 0.34204 0.86228
 C2084 C 0.15390 0.33198 0.88442
 O2085 O 0.16817 0.31482 0.92082
 C2086 C 0.18901 0.31150 0.92828
 C2087 C 0.20485 0.31915 0.91237
 C2088 C 0.22772 0.31782 0.91686
 C2089 C 0.23453 0.30785 0.93847
 C2090 C 0.21853 0.29902 0.95467
 C2091 C 0.19544 0.30097 0.94955
 H2092 H 0.21717 0.33765 0.86696
 H2093 H 0.18771 0.34979 0.83856
 H2094 H 0.13662 0.33035 0.88992
 H2095 H 0.23986 0.32409 0.90414
 H2096 H 0.25226 0.30615 0.94216
 H2097 H 0.18293 0.29428 0.96163
 C2098 C 0.18687 0.80627 0.37754
 C2099 C 0.20930 0.81006 0.37394
 C2100 C 0.21749 0.82152 0.35409
 C2101 C 0.20190 0.82974 0.33743
 C2102 C 0.17849 0.82701 0.34110
 C2103 C 0.17101 0.81474 0.36144
 O2104 O 0.18266 0.79464 0.39741
 C2105 C 0.20288 0.79118 0.40661
 C2106 C 0.21973 0.80051 0.39305
 C2107 C 0.24211 0.79963 0.39977
 C2108 C 0.24736 0.78852 0.42126
 C2109 C 0.23038 0.77820 0.43525
 C2110 C 0.20780 0.77954 0.42777
 H2111 H 0.23526 0.82401 0.35147
 H2112 H 0.20811 0.83845 0.32174
 H2113 H 0.15337 0.81228 0.36493
 H2114 H 0.25504 0.80729 0.38890
 H2115 H 0.26471 0.78748 0.42675
 H2116 H 0.19450 0.77195 0.43820
 C2117 C 0.69099 0.69229 0.59773
 C2118 C 0.68795 0.71496 0.60449
 C2119 C 0.67750 0.72137 0.62571
 C2120 C 0.67003 0.70367 0.64067
 C2121 C 0.67300 0.68016 0.63413
 C2122 C 0.68328 0.67445 0.61211
 O2123 O 0.70153 0.68994 0.57698
 C2124 C 0.70516 0.71159 0.57048
 C2125 C 0.69703 0.72756 0.58662
 C2126 C 0.69852 0.75123 0.58308
 C2127 C 0.70873 0.75876 0.56199
 C2128 C 0.71749 0.74265 0.54519
 C2129 C 0.71579 0.71871 0.54961
 H2130 H 0.67530 0.73934 0.63064
 H2131 H 0.66200 0.70816 0.65739
 H2132 H 0.68534 0.65664 0.60654
 H2133 H 0.69188 0.76345 0.59599
 H2134 H 0.70997 0.77714 0.55881
 H2135 H 0.72210 0.70605 0.53696
 C2136 C 0.66140 0.17448 0.10781
 C2137 C 0.65988 0.15962 0.08874
 C2138 C 0.65277 0.13695 0.09099
 C2139 C 0.64703 0.12924 0.11385
 C2140 C 0.64856 0.14413 0.13389
 C2141 C 0.65572 0.16716 0.13072
 O2142 O 0.66993 0.19482 0.10204
 C2143 C 0.67395 0.19273 0.07882
 C2144 C 0.66808 0.17149 0.06986
 C2145 C 0.67249 0.16480 0.04649
 C2146 C 0.68389 0.18042 0.03191
 C2147 C 0.69033 0.20230 0.04077
 C2148 C 0.68487 0.20878 0.06441
 H2149 H 0.65204 0.12549 0.07575
 H2150 H 0.64155 0.11162 0.11606
 H2151 H 0.65751 0.17872 0.14577
 H2152 H 0.66813 0.14782 0.04000
 H2153 H 0.68835 0.17524 0.01393
 H2154 H 0.69036 0.22505 0.07179
 C2155 C 0.19950 0.68243 0.09484
 C2156 C 0.18323 0.69194 0.08053
 C2157 C 0.16069 0.68674 0.08304
 C2158 C 0.15465 0.67153 0.10137
 C2159 C 0.17096 0.66236 0.11731
 C2160 C 0.19385 0.66759 0.11339
 O2161 O 0.21997 0.68943 0.08943
 C2162 C 0.21654 0.70382 0.07142
 C2163 C 0.19434 0.70617 0.06538
 C2164 C 0.18701 0.72115 0.04760
 C2165 C 0.20326 0.73408 0.03548
 C2166 C 0.22630 0.73145 0.04103
 C2167 C 0.23296 0.71607 0.05928
 H2168 H 0.14819 0.69416 0.07135
 H2169 H 0.13716 0.66724 0.10338
 H2170 H 0.20695 0.66089 0.12478
 H2171 H 0.16943 0.72293 0.04332
 H2172 H 0.19799 0.74576 0.02151
 H2173 H 0.25040 0.71393 0.06408
 C2174 C 0.18311 0.19164 0.62239
 C2175 C 0.16674 0.20264 0.60939
 C2176 C 0.14403 0.19985 0.61395
 C2177 C 0.13795 0.18496 0.63253
 C2178 C 0.15452 0.17363 0.64651
 C2179 C 0.17747 0.17742 0.64142
 O2180 O 0.20363 0.19525 0.61413
 C2181 C 0.20015 0.20892 0.59553
 C2182 C 0.17789 0.21417 0.59204
 C2183 C 0.17045 0.22794 0.57337
 C2184 C 0.18659 0.23644 0.55752
 C2185 C 0.20960 0.23067 0.56029
 C2186 C 0.21645 0.21680 0.57971
 H2187 H 0.13143 0.20828 0.60311
 H2188 H 0.12036 0.18186 0.63571
 H2189 H 0.19056 0.16898 0.65157
 H2190 H 0.15284 0.23178 0.57092
 H2191 H 0.18106 0.24687 0.54263
 H2192 H 0.23386 0.21204 0.58222
   
