data_POSCAR
  _audit_creation_date              2014-09-24
  _audit_creation_method            'ToBaCCo'
  _symmetry_space_group_name_H-M    'P1'
  _symmetry_Int_Tables_number       1
  _symmetry_cell_setting            triclinic
  loop_
  _symmetry_equiv_pos_as_xyz
 x,y,z
_cell_length_a 42.4977
_cell_length_b 44.1130
_cell_length_c 52.5275
_cell_angle_alpha 89.919700
_cell_angle_beta 89.937000
_cell_angle_gamma 90.034600
loop_
  _atom_site_label
  _atom_site_type_symbol
  _atom_site_fract_x
  _atom_site_fract_y
  _atom_site_fract_z
Zr1 Zr 0.24893 0.24737 0.29368
 O2 O 0.27392 0.27054 0.32260
 O3 O 0.21882 0.21939 0.31500
 O4 O 0.21896 0.27561 0.31525
 O5 O 0.30680 0.19345 0.28288
 O6 O 0.19307 0.30384 0.28540
 O7 O 0.27930 0.21821 0.31396
 O8 O 0.18899 0.19595 0.28469
 O9 O 0.20717 0.24956 0.27266
 O10 O 0.24768 0.20814 0.27141
 O11 O 0.25190 0.28784 0.27256
 O12 O 0.29078 0.24797 0.27193
 Zr13 Zr 0.24976 0.25081 0.20499
 Zr14 Zr 0.21112 0.28867 0.25020
 Zr15 Zr 0.28766 0.20958 0.24843
 Zr16 Zr 0.20709 0.21115 0.24954
 O17 O 0.33736 0.21184 0.24687
 O18 O 0.15812 0.22033 0.24960
 O19 O 0.24694 0.20995 0.22581
 O20 O 0.20834 0.25020 0.22694
 O21 O 0.25111 0.29043 0.22686
 O22 O 0.29125 0.24862 0.22622
 C23 C 0.19682 0.20133 0.30787
 C24 C 0.30029 0.19926 0.30629
 C25 C 0.19907 0.29611 0.30852
 O26 O 0.16142 0.28661 0.24866
 O27 O 0.19550 0.30807 0.21571
 O28 O 0.22190 0.28205 0.18476
 C29 C 0.20229 0.30231 0.19233
 O30 O 0.31357 0.30231 0.28301
 Zr31 Zr 0.29168 0.28710 0.24898
 O32 O 0.27983 0.27857 0.18351
 O33 O 0.21707 0.33619 0.25270
 O34 O 0.28577 0.33480 0.25034
 O35 O 0.34093 0.27982 0.24685
 O36 O 0.30717 0.30483 0.21371
 C37 C 0.30011 0.29846 0.19051
 O38 O 0.22300 0.22931 0.17619
 O39 O 0.28213 0.16190 0.24906
 O40 O 0.27690 0.22025 0.18335
 O41 O 0.30166 0.19107 0.21320
 O42 O 0.21114 0.16323 0.25023
 O43 O 0.18865 0.19249 0.21538
 C44 C 0.29516 0.19842 0.19008
 H45 H 0.24755 0.18925 0.28161
 H46 H 0.18941 0.25073 0.21599
 H47 H 0.31041 0.24777 0.21551
 H48 H 0.25302 0.30568 0.28393
 H49 H 0.14711 0.20117 0.25383
 H50 H 0.15369 0.30775 0.24981
 H51 H 0.19573 0.34522 0.25216
 H52 H 0.30624 0.34414 0.24582
 H53 H 0.19005 0.15487 0.25423
 H54 H 0.30357 0.15308 0.24925
 H55 H 0.34505 0.19067 0.24588
 H56 H 0.35092 0.29958 0.24290
 H57 H 0.17020 0.17964 0.21942
 H58 H 0.23094 0.23676 0.15954
 H59 H 0.26616 0.26276 0.33920
 H60 H 0.32831 0.31905 0.27899
 Zr61 Zr 0.75171 0.75340 0.29386
 O62 O 0.72725 0.73068 0.32342
 O63 O 0.78218 0.78171 0.31443
 O64 O 0.78199 0.72547 0.31541
 O65 O 0.69347 0.80696 0.28306
 O66 O 0.80742 0.69679 0.28562
 O67 O 0.72154 0.78276 0.31412
 O68 O 0.81151 0.80467 0.28345
 O69 O 0.79314 0.75093 0.27235
 O70 O 0.75256 0.79230 0.27108
 O71 O 0.74847 0.71261 0.27330
 O72 O 0.70954 0.75240 0.27263
 Zr73 Zr 0.74945 0.74855 0.20521
 Zr74 Zr 0.78888 0.71148 0.25044
 Zr75 Zr 0.71222 0.79043 0.24860
 Zr76 Zr 0.79278 0.78899 0.24873
 O77 O 0.66250 0.78815 0.24757
 O78 O 0.84175 0.77982 0.24822
 O79 O 0.75256 0.78973 0.22548
 O80 O 0.79121 0.74959 0.22666
 O81 O 0.74852 0.70928 0.22763
 O82 O 0.70831 0.75105 0.22694
 C83 C 0.80409 0.79964 0.30679
 C84 C 0.70032 0.80148 0.30647
 C85 C 0.80175 0.70485 0.30871
 O86 O 0.83855 0.71367 0.24835
 O87 O 0.80411 0.69164 0.21604
 O88 O 0.77714 0.71708 0.18506
 C89 C 0.79698 0.69703 0.19267
 O90 O 0.68700 0.69814 0.28469
 Zr91 Zr 0.70832 0.71293 0.25021
 O92 O 0.71907 0.72039 0.18448
 O93 O 0.78311 0.66398 0.25355
 O94 O 0.71435 0.66526 0.25212
 O95 O 0.65903 0.72019 0.24865
 O96 O 0.69225 0.69465 0.21541
 C97 C 0.69892 0.70061 0.19204
 O98 O 0.77565 0.76961 0.17576
 O99 O 0.71771 0.83812 0.24864
 O100 O 0.72196 0.77879 0.18353
 O101 O 0.69776 0.80847 0.21332
 O102 O 0.78867 0.83690 0.24890
 O103 O 0.81061 0.80722 0.21412
 C104 C 0.70389 0.80078 0.19022
 H105 H 0.75281 0.81132 0.28105
 H106 H 0.80997 0.74894 0.21548
 H107 H 0.68899 0.75172 0.21645
 H108 H 0.74754 0.69494 0.28491
 H109 H 0.85283 0.79904 0.25209
 H110 H 0.84636 0.69256 0.24968
 H111 H 0.80446 0.65500 0.25287
 H112 H 0.69383 0.65582 0.24796
 H113 H 0.80979 0.84535 0.25258
 H114 H 0.69627 0.84692 0.24894
 H115 H 0.65480 0.80930 0.24638
 H116 H 0.64898 0.70038 0.24505
 H117 H 0.82909 0.82017 0.21778
 H118 H 0.76742 0.76188 0.15932
 H119 H 0.73528 0.73873 0.33981
 H120 H 0.67221 0.68135 0.28104
 Zr121 Zr 0.75109 0.24661 -0.29362
 O122 O 0.72637 0.26954 -0.32287
 O123 O 0.78102 0.21811 -0.31456
 O124 O 0.78131 0.27438 -0.31547
 O125 O 0.69266 0.19331 -0.28226
 O126 O 0.80736 0.30284 -0.28591
 O127 O 0.72047 0.21742 -0.31359
 O128 O 0.81056 0.19489 -0.28392
 O129 O 0.79283 0.24881 -0.27256
 O130 O 0.75195 0.20769 -0.27088
 O131 O 0.74843 0.28739 -0.27297
 O132 O 0.70921 0.24785 -0.27194
 Zr133 Zr 0.75010 0.25135 -0.20496
 Zr134 Zr 0.78917 0.28825 -0.25056
 Zr135 Zr 0.71194 0.20976 -0.24799
 Zr136 Zr 0.79250 0.21072 -0.24899
 O137 O 0.66225 0.21239 -0.24647
 O138 O 0.84156 0.21957 -0.24906
 O139 O 0.75260 0.21019 -0.22530
 O140 O 0.79155 0.25009 -0.22685
 O141 O 0.74914 0.29067 -0.22731
 O142 O 0.70863 0.24912 -0.22623
 C143 C 0.80284 0.19998 -0.30718
 C144 C 0.69926 0.19875 -0.30573
 C145 C 0.80133 0.29485 -0.30894
 O146 O 0.83884 0.28577 -0.24897
 O147 O 0.80499 0.30798 -0.21630
 O148 O 0.77825 0.28264 -0.18506
 C149 C 0.79812 0.30260 -0.19286
 O150 O 0.68690 0.30229 -0.28366
 Zr151 Zr 0.70859 0.28729 -0.24944
 O152 O 0.72016 0.27958 -0.18386
 O153 O 0.78373 0.33578 -0.25361
 O154 O 0.71502 0.33491 -0.25133
 O155 O 0.65927 0.28034 -0.24738
 O156 O 0.69306 0.30555 -0.21442
 C157 C 0.70000 0.29945 -0.19113
 O158 O 0.77657 0.23012 -0.17581
 O159 O 0.71702 0.16204 -0.24808
 O160 O 0.72273 0.22121 -0.18302
 O161 O 0.69781 0.19178 -0.21256
 O162 O 0.78799 0.16284 -0.24909
 O163 O 0.81070 0.19239 -0.21458
 C164 C 0.70437 0.19938 -0.18953
 H165 H 0.75192 0.18867 -0.28086
 H166 H 0.81047 0.25062 -0.21588
 H167 H 0.68945 0.24853 -0.21554
 H168 H 0.74748 0.30509 -0.28456
 H169 H 0.85241 0.20026 -0.25304
 H170 H 0.84680 0.30683 -0.25038
 H171 H 0.80516 0.34463 -0.25316
 H172 H 0.69465 0.34449 -0.24691
 H173 H 0.80899 0.15425 -0.25300
 H174 H 0.69550 0.15337 -0.24816
 H175 H 0.65438 0.19129 -0.24519
 H176 H 0.64942 0.30020 -0.24363
 H177 H 0.82901 0.17931 -0.21845
 H178 H 0.76863 0.23786 -0.15928
 H179 H 0.73409 0.26147 -0.33936
 H180 H 0.67234 0.31920 -0.27982
 Zr181 Zr 0.24787 0.75411 -0.29413
 O182 O 0.27242 0.73118 -0.32345
 O183 O 0.21761 0.78242 -0.31498
 O184 O 0.21759 0.72607 -0.31561
 O185 O 0.30623 0.80762 -0.28347
 O186 O 0.19185 0.69767 -0.28571
 O187 O 0.27825 0.78335 -0.31446
 O188 O 0.18832 0.80571 -0.28426
 O189 O 0.20631 0.75186 -0.27275
 O190 O 0.24709 0.79311 -0.27158
 O191 O 0.25081 0.71342 -0.27327
 O192 O 0.28992 0.75304 -0.27272
 Zr193 Zr 0.24960 0.74968 -0.20540
 Zr194 Zr 0.21025 0.71253 -0.25055
 Zr195 Zr 0.28729 0.79122 -0.24895
 Zr196 Zr 0.20672 0.79005 -0.24937
 O197 O 0.33700 0.78876 -0.24783
 O198 O 0.15770 0.78108 -0.24908
 O199 O 0.24682 0.79076 -0.22596
 O200 O 0.20797 0.75077 -0.22702
 O201 O 0.25047 0.71029 -0.22757
 O202 O 0.29087 0.75195 -0.22701
 C203 C 0.19579 0.80055 -0.30758
 C204 C 0.29949 0.80213 -0.30690
 C205 C 0.19770 0.70554 -0.30884
 O206 O 0.16058 0.71492 -0.24866
 O207 O 0.19473 0.69289 -0.21607
 O208 O 0.22163 0.71836 -0.18516
 C209 C 0.20172 0.69831 -0.19267
 O210 O 0.31228 0.69856 -0.28430
 Zr211 Zr 0.29082 0.71369 -0.25002
 O212 O 0.27979 0.72157 -0.18439
 O213 O 0.21578 0.66499 -0.25336
 O214 O 0.28447 0.66605 -0.25163
 O215 O 0.34014 0.72079 -0.24836
 O216 O 0.30671 0.69558 -0.21502
 C217 C 0.29995 0.70172 -0.19171
 O218 O 0.22334 0.77096 -0.17616
 O219 O 0.28201 0.83892 -0.24919
 O220 O 0.27716 0.77997 -0.18382
 O221 O 0.30178 0.80931 -0.21371
 O222 O 0.21112 0.83794 -0.24972
 O223 O 0.18873 0.80845 -0.21493
 C224 C 0.29549 0.80178 -0.19058
 H225 H 0.24698 0.81209 -0.28165
 H226 H 0.18914 0.75023 -0.21591
 H227 H 0.31015 0.75261 -0.21647
 H228 H 0.25171 0.69568 -0.28476
 H229 H 0.14676 0.80033 -0.25310
 H230 H 0.15266 0.69384 -0.24988
 H231 H 0.19438 0.65609 -0.25272
 H232 H 0.30488 0.65651 -0.24728
 H233 H 0.19007 0.84647 -0.25352
 H234 H 0.30350 0.84765 -0.24954
 H235 H 0.34481 0.80988 -0.24675
 H236 H 0.35008 0.70097 -0.24457
 H237 H 0.17032 0.82142 -0.21874
 H238 H 0.23144 0.76328 -0.15966
 H239 H 0.26452 0.73916 -0.33992
 H240 H 0.32692 0.68171 -0.28046
 Zr241 Zr 1.25062 1.25150 0.79501
 O242 O 1.22621 1.22812 0.82424
 O243 O 1.28085 1.27945 0.81604
 O244 O 1.28087 1.22341 0.81628
 O245 O 1.19181 1.30453 0.78490
 O246 O 1.30679 1.19566 0.78616
 O247 O 1.22028 1.28011 0.81560
 O248 O 1.31002 1.30334 0.78547
 O249 O 1.29211 1.24988 0.77356
 O250 O 1.25099 1.29080 0.77272
 O251 O 1.24792 1.21100 0.77408
 O252 O 1.20844 1.25042 0.77383
 Zr253 Zr 1.24844 1.24789 0.70636
 Zr254 Zr 1.28832 1.21078 0.75121
 Zr255 Zr 1.21069 1.28879 0.75017
 Zr256 Zr 1.29128 1.28832 0.75041
 O257 O 1.16098 1.28613 0.74924
 O258 O 1.34037 1.27976 0.74961
 O259 O 1.25106 1.28884 0.72706
 O260 O 1.29017 1.24925 0.72783
 O261 O 1.24798 1.20838 0.72846
 O262 O 1.20729 1.24962 0.72817
 C263 C 1.30272 1.29760 0.80876
 C264 C 1.19880 1.29865 0.80822
 C265 C 1.30077 1.20309 0.80931
 O266 O 1.33796 1.21359 0.74920
 O267 O 1.30377 1.19145 0.71676
 O268 O 1.27665 1.21695 0.68591
 C269 C 1.29662 1.19694 0.69343
 O270 O 1.18656 1.19609 0.78554
 Zr271 Zr 1.20776 1.21124 0.75112
 O272 O 1.21858 1.21925 0.68551
 O273 O 1.28315 1.16316 0.75376
 O274 O 1.21424 1.16362 0.75287
 O275 O 1.15838 1.21790 0.74938
 O276 O 1.19222 1.19288 0.71632
 C277 C 1.19888 1.19902 0.69302
 O278 O 1.27415 1.26978 0.67706
 O279 O 1.21577 1.33651 0.75050
 O280 O 1.22012 1.27776 0.68496
 O281 O 1.19559 1.30682 0.71501
 O282 O 1.28649 1.33616 0.75131
 O283 O 1.30889 1.30750 0.71609
 C284 C 1.20157 1.29931 0.69184
 H285 H 1.25106 1.30963 0.78296
 H286 H 1.30893 1.24896 0.71664
 H287 H 1.18794 1.25008 0.71771
 H288 H 1.24717 1.19313 0.78549
 H289 H 1.35121 1.29899 0.75386
 H290 H 1.34604 1.19257 0.75037
 H291 H 1.30461 1.15442 0.75316
 H292 H 1.19379 1.15399 0.74878
 H293 H 1.30746 1.34478 0.75529
 H294 H 1.19424 1.34510 0.75106
 H295 H 1.15307 1.30723 0.74840
 H296 H 1.14861 1.19797 0.74572
 H297 H 1.32707 1.32076 0.71998
 H298 H 1.26607 1.26203 0.66058
 H299 H 1.23416 1.23586 0.84077
 H300 H 1.17185 1.17926 0.78182
 Zr301 Zr 0.75014 0.74896 0.79512
 O302 O 0.77514 0.77276 0.82368
 O303 O 0.72038 0.72131 0.81696
 O304 O 0.72029 0.77723 0.81656
 O305 O 0.80880 0.69587 0.78473
 O306 O 0.69363 0.80458 0.78659
 O307 O 0.78092 0.72065 0.81557
 O308 O 0.69055 0.69705 0.78713
 O309 O 0.70820 0.75023 0.77433
 O310 O 0.74935 0.70936 0.77332
 O311 O 0.75231 0.78920 0.77372
 O312 O 0.79186 0.74980 0.77329
 Zr313 Zr 0.75042 0.75138 0.70645
 Zr314 Zr 0.71142 0.78906 0.75149
 Zr315 Zr 0.78918 0.71111 0.75012
 Zr316 Zr 0.70859 0.71150 0.75161
 O317 O 0.83885 0.71389 0.74839
 O318 O 0.65947 0.71989 0.75140
 O319 O 0.74832 0.71069 0.72764
 O320 O 0.70915 0.75029 0.72859
 O321 O 0.75127 0.79119 0.72808
 O322 O 0.79202 0.75001 0.72763
 C323 C 0.69833 0.70311 0.81023
 C324 C 0.80227 0.70205 0.80809
 C325 C 0.70016 0.79740 0.80972
 O326 O 0.66176 0.78603 0.75027
 O327 O 0.69530 0.80794 0.71706
 O328 O 0.72180 0.78206 0.68609
 C329 C 0.70199 0.80217 0.69369
 O330 O 0.81384 0.80434 0.78403
 Zr331 Zr 0.79197 0.78869 0.75013
 O332 O 0.77980 0.77971 0.68479
 O333 O 0.71643 0.83673 0.75347
 O334 O 0.78537 0.83632 0.75132
 O335 O 0.84132 0.78215 0.74773
 O336 O 0.80680 0.80650 0.71486
 C337 C 0.79968 0.80001 0.69174
 O338 O 0.72405 0.72902 0.67789
 O339 O 0.78424 0.66339 0.75105
 O340 O 0.77836 0.72130 0.68494
 O341 O 0.80361 0.69269 0.71493
 O342 O 0.71350 0.66369 0.75308
 O343 O 0.69034 0.69185 0.71777
 C344 C 0.79714 0.69990 0.69177
 H345 H 0.74952 0.69067 0.78377
 H346 H 0.69016 0.75041 0.71769
 H347 H 0.81115 0.74943 0.71688
 H348 H 0.75327 0.80721 0.78491
 H349 H 0.64878 0.70068 0.75600
 H350 H 0.65362 0.80704 0.75131
 H351 H 0.69492 0.84537 0.75307
 H352 H 0.80571 0.84592 0.74679
 H353 H 0.69263 0.65511 0.75748
 H354 H 0.80580 0.65486 0.75137
 H355 H 0.84681 0.69280 0.74769
 H356 H 0.85096 0.80206 0.74374
 H357 H 0.67239 0.67847 0.72209
 H358 H 0.73174 0.73651 0.66118
 H359 H 0.76760 0.76522 0.84042
 H360 H 0.82828 0.82128 0.77990
 Zr361 Zr 1.25008 0.74884 0.20498
 O362 O 1.22544 0.77255 0.17613
 O363 O 1.27983 0.72084 0.18351
 O364 O 1.28025 0.77675 0.18345
 O365 O 1.19095 0.69618 0.21553
 O366 O 1.30690 0.80424 0.21330
 O367 O 1.21927 0.72051 0.18462
 O368 O 1.30924 0.69663 0.21368
 O369 O 1.29189 0.75007 0.22596
 O370 O 1.25042 0.70943 0.22711
 O371 O 1.24808 0.78928 0.22604
 O372 O 1.20821 0.75015 0.22661
 Zr373 Zr 1.24923 0.75209 0.29363
 Zr374 Zr 1.28882 0.78911 0.24845
 Zr375 Zr 1.21045 0.71165 0.25011
 Zr376 Zr 1.29105 0.71153 0.24899
 O377 O 1.16079 0.71471 0.25160
 O378 O 1.34024 0.71960 0.24932
 O379 O 1.25115 0.71121 0.27277
 O380 O 1.29064 0.75052 0.27168
 O381 O 1.24882 0.79170 0.27166
 O382 O 1.20776 0.75076 0.27227
 C383 C 1.30169 0.70255 0.19048
 C384 C 1.19772 0.70209 0.19215
 C385 C 1.30043 0.79689 0.19021
 O386 O 1.33844 0.78580 0.24987
 O387 O 1.30493 0.80816 0.28281
 O388 O 1.27798 0.78273 0.31386
 C389 C 1.29804 0.80264 0.30620
 O390 O 1.18671 0.80468 0.21532
 Zr391 Zr 1.20825 0.78925 0.24945
 O392 O 1.21993 0.78083 0.31490
 O393 O 1.28418 0.83679 0.24609
 O394 O 1.21523 0.83681 0.24780
 O395 O 1.15883 0.78304 0.25176
 O396 O 1.19336 0.80754 0.28449
 C397 C 1.20028 0.80122 0.30770
 O398 O 1.27518 0.72988 0.32255
 O399 O 1.21505 0.66389 0.24960
 O400 O 1.22096 0.72232 0.31523
 O401 O 1.19571 0.69359 0.28537
 O402 O 1.28577 0.66374 0.24792
 O403 O 1.30888 0.69209 0.28309
 C404 C 1.20211 0.70095 0.30849
 H405 H 1.25019 0.69066 0.21681
 H406 H 1.30956 0.75062 0.28266
 H407 H 1.18855 0.75039 0.28295
 H408 H 1.24733 0.80720 0.21469
 H409 H 1.35079 0.70027 0.24494
 H410 H 1.34675 0.80676 0.24870
 H411 H 1.30576 0.84530 0.24653
 H412 H 1.19494 0.84660 0.25216
 H413 H 1.30660 0.65499 0.24372
 H414 H 1.19344 0.65547 0.24926
 H415 H 1.15268 0.69367 0.25248
 H416 H 1.14934 0.80306 0.25551
 H417 H 1.32680 0.67862 0.27898
 H418 H 1.26739 0.73757 0.33914
 H419 H 1.23304 0.76484 0.15948
 H420 H 1.17232 0.82170 0.21923
 Zr421 Zr 0.75003 1.25133 0.20487
 O422 O 0.77444 1.22805 0.17566
 O423 O 0.71993 1.27947 0.18380
 O424 O 0.71972 1.22339 0.18351
 O425 O 0.80899 1.30422 0.21517
 O426 O 0.69361 1.19548 0.21352
 O427 O 0.78056 1.28003 0.18437
 O428 O 0.69075 1.30324 0.21435
 O429 O 0.70846 1.24967 0.22624
 O430 O 0.74972 1.29051 0.22721
 O431 O 0.75250 1.21072 0.22577
 O432 O 0.79212 1.25002 0.22616
 Zr433 Zr 0.75189 1.24721 0.29358
 Zr434 Zr 0.71202 1.21043 0.24856
 Zr435 Zr 0.78994 1.28828 0.24985
 Zr436 Zr 0.70935 1.28799 0.24943
 O437 O 0.83963 1.28541 0.25087
 O438 O 0.66022 1.27957 0.25013
 O439 O 0.74949 1.28827 0.27289
 O440 O 0.71024 1.24880 0.27197
 O441 O 0.75227 1.20781 0.27143
 O442 O 0.79311 1.24899 0.27184
 C443 C 0.69808 1.29762 0.19106
 C444 C 0.80207 1.29852 0.19181
 C445 C 0.69972 1.20306 0.19039
 O446 O 0.66238 1.21341 0.25041
 O447 O 0.69625 1.19103 0.28298
 O448 O 0.72339 1.21627 0.31392
 C449 C 0.70329 1.19639 0.30635
 O450 O 0.81387 1.19568 0.21448
 Zr451 Zr 0.79258 1.21072 0.24885
 O452 O 0.78163 1.21843 0.31446
 O453 O 0.71700 1.16281 0.24600
 O454 O 0.78586 1.16313 0.24705
 O455 O 0.84198 1.21725 0.25070
 O456 O 0.80803 1.19219 0.28367
 C457 C 0.80136 1.19824 0.30698
 O458 O 0.72618 1.26899 0.32287
 O459 O 0.78510 1.33602 0.24959
 O460 O 0.78021 1.27701 0.31505
 O461 O 0.80497 1.30613 0.28506
 O462 O 0.71437 1.33581 0.24862
 O463 O 0.69170 1.30702 0.28375
 C464 C 0.79886 1.29856 0.30823
 H465 H 0.74975 1.30939 0.21700
 H466 H 0.69144 1.24851 0.28311
 H467 H 0.81243 1.24937 0.28235
 H468 H 0.75323 1.19290 0.21435
 H469 H 0.64948 1.29886 0.24590
 H470 H 0.65419 1.19243 0.24921
 H471 H 0.69550 1.15413 0.24657
 H472 H 0.80624 1.15342 0.25121
 H473 H 0.69346 1.34452 0.24458
 H474 H 0.80667 1.34454 0.24910
 H475 H 0.84765 1.30648 0.25179
 H476 H 0.85167 1.19728 0.25434
 H477 H 0.67363 1.32040 0.27984
 H478 H 0.73422 1.26116 0.33934
 H479 H 0.76658 1.23589 0.15913
 H480 H 0.82844 1.17875 0.21822
 N481 N 0.53315 0.94628 0.02760
 N482 N 0.55391 0.92502 0.03319
 N483 N 0.46682 0.96691 0.04491
 N484 N 0.44633 0.96003 0.06292
 N485 N 0.46708 0.94591 0.02719
 N486 N 0.44678 0.92420 0.03268
 N487 N 0.53289 0.96735 0.04525
 N488 N 0.55344 0.96100 0.06331
 C489 C 0.56668 0.93487 0.05525
 C490 C 0.43367 0.93370 0.05471
 N491 N 0.46634 1.05348 0.02745
 N492 N 0.44553 1.07472 0.03297
 N493 N 0.53243 1.03278 0.04539
 N494 N 0.55247 1.03964 0.06369
 N495 N 0.53245 1.05391 0.02774
 N496 N 0.55249 1.07570 0.03357
 N497 N 0.46635 1.03228 0.04505
 N498 N 0.44555 1.03852 0.06298
 Mn499 Mn 0.49962 0.99982 0.04535
 C500 C 0.43244 1.06472 0.05491
 C501 C 0.56516 1.06612 0.05575
 N502 N 0.46748 0.94603 -0.02774
 N503 N 0.44694 0.92459 -0.03341
 N504 N 0.53362 0.96756 -0.04499
 N505 N 0.55394 0.96086 -0.06315
 N506 N 0.53358 0.94642 -0.02733
 N507 N 0.55388 0.92482 -0.03303
 N508 N 0.46753 0.96723 -0.04533
 N509 N 0.44704 0.96080 -0.06340
 Mn510 Mn 0.50032 0.94591 -0.00006
 C511 C 0.43407 0.93446 -0.05545
 C512 C 0.56676 0.93452 -0.05511
 N513 N 0.53299 1.05403 -0.02720
 N514 N 0.55375 1.07542 -0.03252
 N515 N 0.46722 1.03260 -0.04519
 N516 N 0.44714 1.03929 -0.06350
 N517 N 0.46691 1.05364 -0.02751
 N518 N 0.44662 1.07521 -0.03336
 N519 N 0.53328 1.03294 -0.04484
 N520 N 0.55423 1.03940 -0.06260
 Mn521 Mn 0.49967 1.05402 0.00012
 Mn522 Mn 0.50042 1.00009 -0.04528
 Cl523 Cl 0.50001 0.99996 0.00003
 C524 C 0.56710 1.06563 -0.05438
 C525 C 0.43411 1.06555 -0.05555
 N526 N 1.05571 0.53200 0.52778
 N527 N 1.07785 0.55191 0.53359
 N528 N 1.03374 0.46817 0.54523
 N529 N 1.04058 0.44862 0.56345
 N530 N 1.05582 0.46823 0.52768
 N531 N 1.07827 0.44873 0.53357
 N532 N 1.03355 0.53191 0.54527
 N533 N 1.04001 0.55172 0.56335
 C534 C 1.06738 0.56432 0.55558
 C535 C 1.06806 0.43634 0.55565
 N536 N 0.94382 0.46787 0.52744
 N537 N 0.92171 0.44784 0.53306
 N538 N 0.96555 0.53165 0.54509
 N539 N 0.95840 0.55098 0.56337
 N540 N 0.94365 0.53163 0.52744
 N541 N 0.92102 0.55096 0.53330
 N542 N 0.96579 0.46792 0.54504
 N543 N 0.95923 0.44795 0.56302
 Mn544 Mn 0.99966 0.49991 0.54532
 C545 C 0.93200 0.43531 0.55506
 C546 C 0.93092 0.56320 0.55549
 N547 N 1.05612 0.46827 0.47250
 N548 N 1.07843 0.44852 0.46677
 N549 N 1.03406 0.53198 0.45496
 N550 N 1.04102 0.55156 0.43677
 N551 N 1.05596 0.53203 0.47262
 N552 N 1.07839 0.55163 0.46685
 N553 N 1.03413 0.46826 0.45492
 N554 N 1.04088 0.44853 0.43684
 Mn555 Mn 1.05617 0.50013 0.50015
 C556 C 1.06824 0.43609 0.44471
 C557 C 1.06837 0.56397 0.44472
 N558 N 0.94395 0.53183 0.47227
 N559 N 0.92181 0.55175 0.46655
 N560 N 0.96615 0.46816 0.45474
 N561 N 0.95934 0.44870 0.43647
 N562 N 0.94406 0.46806 0.47228
 N563 N 0.92165 0.44852 0.46635
 N564 N 0.96610 0.53190 0.45478
 N565 N 0.95963 0.55184 0.43677
 Mn566 Mn 0.94361 0.49985 0.49986
 Mn567 Mn 1.00011 0.50008 0.45469
 Cl568 Cl 0.99989 0.49999 0.50000
 C569 C 0.93227 0.56434 0.44459
 C570 C 0.93187 0.43629 0.44424
 N571 N 1.05660 0.53319 0.02691
 N572 N 1.07839 0.55351 0.03244
 N573 N 1.03506 0.46933 0.04452
 N574 N 1.04199 0.44983 0.06274
 N575 N 1.05712 0.46950 0.02698
 N576 N 1.07968 0.45012 0.03285
 N577 N 1.03450 0.53297 0.04443
 N578 N 1.04060 0.55312 0.06228
 C579 C 1.06769 0.56602 0.05429
 C580 C 1.06952 0.43769 0.05493
 N581 N 0.94520 0.46858 0.02701
 N582 N 0.92315 0.44855 0.03274
 N583 N 0.96671 0.53241 0.04455
 N584 N 0.95946 0.55154 0.06294
 N585 N 0.94471 0.53228 0.02698
 N586 N 0.92191 0.55131 0.03302
 N587 N 0.96725 0.46874 0.04453
 N588 N 0.96083 0.44884 0.06258
 Mn589 Mn 1.00089 0.50086 0.04468
 C590 C 0.93361 0.43612 0.05472
 C591 C 0.93184 0.56352 0.05520
 N592 N 1.05713 0.46946 -0.02804
 N593 N 1.07909 0.44926 -0.03343
 N594 N 1.03488 0.53301 -0.04574
 N595 N 1.04195 0.55214 -0.06423
 N596 N 1.05689 0.53316 -0.02819
 N597 N 1.07953 0.55240 -0.03435
 N598 N 1.03508 0.46934 -0.04556
 N599 N 1.04139 0.44909 -0.06329
 Mn600 Mn 1.05723 0.50133 -0.00058
 C601 C 1.06856 0.43650 -0.05522
 C602 C 1.06948 0.56444 -0.05660
 N603 N 0.94497 0.53244 -0.02803
 N604 N 0.92302 0.55264 -0.03343
 N605 N 0.96729 0.46897 -0.04564
 N606 N 0.96040 0.44968 -0.06400
 N607 N 0.94526 0.46876 -0.02807
 N608 N 0.92279 0.44934 -0.03406
 N609 N 0.96706 0.53261 -0.04555
 N610 N 0.96080 0.55291 -0.06329
 Mn611 Mn 0.94475 0.50051 -0.00053
 Mn612 Mn 1.00107 0.50098 -0.04580
 Cl613 Cl 1.00099 0.50092 -0.00056
 C614 C 0.93360 0.56547 -0.05522
 C615 C 0.93296 0.43726 -0.05623
 N616 N 0.46563 1.05328 0.47346
 N617 N 0.45943 1.07429 0.45626
 N618 N 0.44347 1.03231 0.52701
 N619 N 0.42155 1.03847 0.54406
 N620 N 0.46532 1.05341 0.52696
 N621 N 0.45881 1.07450 0.54400
 N622 N 0.44366 1.03230 0.47350
 N623 N 0.42191 1.03851 0.45631
 C624 C 0.43238 1.06450 0.44554
 C625 C 0.43172 1.06458 0.55468
 N626 N 0.46526 0.94577 0.52732
 N627 N 0.45881 0.92469 0.54444
 N628 N 0.44357 0.96679 0.47369
 N629 N 0.42186 0.96072 0.45647
 N630 N 0.46540 0.94570 0.47378
 N631 N 0.45911 0.92472 0.45661
 N632 N 0.44334 0.96677 0.52723
 N633 N 0.42139 0.96050 0.54430
 Mn634 Mn 0.44324 0.99954 0.50036
 C635 C 0.43165 0.93445 0.55507
 C636 C 0.43215 0.93467 0.44580
 N637 N 0.53331 1.05344 0.52708
 N638 N 0.53954 1.07451 0.54418
 N639 N 0.55544 1.03225 0.47363
 N640 N 0.57744 1.03839 0.45660
 N641 N 0.53363 1.05335 0.47354
 N642 N 0.54023 1.07442 0.45643
 N643 N 0.55521 1.03243 0.52717
 N644 N 0.57694 1.03866 0.54436
 Mn645 Mn 0.49947 1.05363 0.50026
 C646 C 0.56654 1.06472 0.55498
 C647 C 0.56736 1.06449 0.44584
 N648 N 0.53337 0.94572 0.47386
 N649 N 0.53965 0.92470 0.45672
 N650 N 0.55513 0.96693 0.52732
 N651 N 0.57694 0.96082 0.54446
 N652 N 0.53326 0.94584 0.52736
 N653 N 0.53964 0.92483 0.54453
 N654 N 0.55531 0.96673 0.47382
 N655 N 0.57710 0.96055 0.45664
 Mn656 Mn 0.49933 0.94550 0.50058
 Mn657 Mn 0.55555 0.99958 0.50049
 Cl658 Cl 0.49939 0.99956 0.50042
 C659 C 0.56672 0.93452 0.44596
 C660 C 0.56667 0.93478 0.55521
 N661 N 1.05615 0.96686 0.52748
 N662 N 1.07767 0.96071 0.54484
 N663 N 1.03502 0.94604 0.47389
 N664 N 1.04149 0.92522 0.45667
 N665 N 1.05682 0.96715 0.47407
 N666 N 1.07875 0.96129 0.45697
 N667 N 1.03427 0.94581 0.52728
 N668 N 1.04026 0.92478 0.54447
 C669 C 1.06710 0.93467 0.55543
 C670 C 1.06853 0.93534 0.44612
 N671 N 0.94531 0.96666 0.47320
 N672 N 0.92398 0.96060 0.45568
 N673 N 0.96656 0.94557 0.52671
 N674 N 0.96015 0.92449 0.54379
 N675 N 0.94459 0.96650 0.52657
 N676 N 0.92261 0.96026 0.54355
 N677 N 0.96734 0.94579 0.47335
 N678 N 0.96165 0.92497 0.45597
 Mn679 Mn 1.00079 0.94552 0.50031
 C680 C 0.93483 0.93481 0.44496
 C681 C 0.93298 0.93429 0.55429
 N682 N 1.05647 1.03246 0.47417
 N683 N 1.07821 1.03868 0.45696
 N684 N 1.03383 1.05310 0.52741
 N685 N 1.03979 1.07405 0.54464
 N686 N 1.05581 1.03217 0.52755
 N687 N 1.07734 1.03831 0.54487
 N688 N 1.03440 1.05330 0.47406
 N689 N 1.04045 1.07423 0.45680
 Mn690 Mn 1.05663 0.99967 0.50082
 C691 C 1.06755 1.06452 0.44616
 C692 C 1.06669 1.06420 0.55553
 N693 N 0.94428 1.03178 0.52672
 N694 N 0.92238 1.03772 0.54384
 N695 N 0.96673 1.05308 0.47352
 N696 N 0.96057 1.07413 0.45636
 N697 N 0.94495 1.03195 0.47331
 N698 N 0.92336 1.03802 0.45600
 N699 N 0.96615 1.05282 0.52691
 N700 N 0.95980 1.07364 0.54415
 Mn701 Mn 0.94447 0.99922 0.49995
 Mn702 Mn 1.00028 1.05335 0.50048
 Cl703 Cl 1.00055 0.99943 0.50039
 C704 C 0.93273 1.06363 0.55470
 C705 C 0.93375 1.06412 0.44543
 N706 N 0.55528 0.53167 0.02790
 N707 N 0.57735 0.55156 0.03376
 N708 N 0.53289 0.46789 0.04496
 N709 N 0.53900 0.44762 0.06277
 N710 N 0.55513 0.46799 0.02756
 N711 N 0.57702 0.44778 0.03312
 N712 N 0.53303 0.53153 0.04528
 N713 N 0.53931 0.55131 0.06338
 C714 C 0.56666 0.56393 0.05566
 C715 C 0.56625 0.43500 0.05488
 N716 N 0.44334 0.46827 0.02675
 N717 N 0.42125 0.44810 0.03195
 N718 N 0.46535 0.53170 0.04477
 N719 N 0.45916 0.55203 0.06247
 N720 N 0.44352 0.53195 0.02708
 N721 N 0.42183 0.55247 0.03231
 N722 N 0.46516 0.46806 0.04444
 N723 N 0.45856 0.44776 0.06212
 Mn724 Mn 0.49909 0.49979 0.04506
 C725 C 0.43146 0.43523 0.05380
 C726 C 0.43229 0.56503 0.05420
 N727 N 0.55577 0.46856 -0.02741
 N728 N 0.57785 0.44854 -0.03290
 N729 N 0.53403 0.53242 -0.04473
 N730 N 0.54032 0.55310 -0.06216
 N731 N 0.55584 0.53223 -0.02702
 N732 N 0.57761 0.55280 -0.03196
 N733 N 0.53398 0.46879 -0.04513
 N734 N 0.54061 0.44894 -0.06311
 Mn735 Mn 0.55582 0.50011 0.00025
 C736 C 0.56769 0.43621 -0.05497
 C737 C 0.56723 0.56586 -0.05369
 N738 N 0.44409 0.53241 -0.02788
 N739 N 0.42200 0.55235 -0.03357
 N740 N 0.46624 0.46886 -0.04557
 N741 N 0.46037 0.44852 -0.06333
 N742 N 0.44402 0.46872 -0.02818
 N743 N 0.42235 0.44827 -0.03365
 N744 N 0.46630 0.53251 -0.04530
 N745 N 0.45995 0.55253 -0.06326
 Mn746 Mn 0.44342 0.50034 -0.00056
 Mn747 Mn 0.50015 0.50065 -0.04539
 Cl748 Cl 0.49962 0.50022 -0.00016
 C749 C 0.43260 0.56502 -0.05541
 C750 C 0.43324 0.43563 -0.05539
 C751 C 0.30995 1.18114 0.17029
 C752 C 0.32292 1.16651 0.15399
 C753 C 0.33911 1.14893 0.13497
 C754 C 0.35796 1.16341 0.11672
 C755 C 0.37526 1.14624 0.09926
 C756 C 0.37378 1.11451 0.09994
 C757 C 0.35453 1.10005 0.11792
 C758 C 0.33723 1.11722 0.13538
 C759 C 0.39344 1.09683 0.08327
 C760 C 0.41075 1.08211 0.06994
 H761 H 0.35972 1.18791 0.11631
 H762 H 0.39024 1.15766 0.08557
 H763 H 0.35339 1.07553 0.11875
 H764 H 0.32286 1.10578 0.14949
 C765 C 0.81279 0.68315 0.67203
 C766 C 0.82651 0.66907 0.65575
 C767 C 0.84347 0.65211 0.63672
 C768 C 0.87215 0.66309 0.62722
 C769 C 0.88939 0.64597 0.60964
 C770 C 0.87804 0.61779 0.60145
 C771 C 0.84917 0.60699 0.61072
 C772 C 0.83194 0.62411 0.62829
 C773 C 0.89660 0.59932 0.58450
 C774 C 0.91224 0.58324 0.57089
 H775 H 0.88137 0.68466 0.63365
 H776 H 0.91174 0.65450 0.60274
 H777 H 0.84023 0.58517 0.60464
 H778 H 0.80987 0.61533 0.63555
 C779 C 0.68894 0.81791 0.17042
 C780 C 0.67589 0.83250 0.15413
 C781 C 0.65966 0.85013 0.13517
 C782 C 0.64018 0.83577 0.11737
 C783 C 0.62289 0.85305 0.09996
 C784 C 0.62500 0.88475 0.10028
 C785 C 0.64486 0.89908 0.11782
 C786 C 0.66216 0.88181 0.13522
 C787 C 0.60543 0.90257 0.08366
 C788 C 0.58822 0.91740 0.07033
 H789 H 0.63796 0.81131 0.11724
 H790 H 0.60743 0.84174 0.08661
 H791 H 0.64650 0.92358 0.11835
 H792 H 0.67703 0.89315 0.14898
 C793 C 1.18565 0.31591 0.67215
 C794 C 1.17173 0.32987 0.65591
 C795 C 1.15457 0.34667 0.63691
 C796 C 1.16863 0.37140 0.62456
 C797 C 1.15143 0.38850 0.60695
 C798 C 1.12008 0.38096 0.60158
 C799 C 1.10615 0.35601 0.61369
 C800 C 1.12335 0.33891 0.63130
 C801 C 1.10182 0.39969 0.58463
 C802 C 1.08643 0.41601 0.57103
 H803 H 1.19271 0.37769 0.62879
 H804 H 1.16240 0.40785 0.59781
 H805 H 1.08189 0.35005 0.60981
 H806 H 1.11219 0.31990 0.64078
 C807 C 0.68958 1.18233 -0.16959
 C808 C 0.67666 1.16781 -0.15317
 C809 C 0.66057 1.15027 -0.13405
 C810 C 0.66298 1.11860 -0.13407
 C811 C 0.64570 1.10140 -0.11657
 C812 C 0.62596 1.11580 -0.09897
 C813 C 0.62397 1.14751 -0.09867
 C814 C 0.64125 1.16471 -0.11617
 C815 C 0.60624 1.09804 -0.08240
 C816 C 0.58886 1.08320 -0.06920
 H817 H 0.67772 1.10720 -0.14791
 H818 H 0.64724 1.07689 -0.11710
 H819 H 0.60859 1.15887 -0.08527
 H820 H 0.63908 1.18918 -0.11608
 C821 C 1.18633 0.68438 0.32829
 C822 C 1.17250 0.67042 0.34460
 C823 C 1.15543 0.65360 0.36367
 C824 C 1.16852 0.62737 0.37437
 C825 C 1.15127 0.61024 0.39196
 C826 C 1.12084 0.61926 0.39896
 C827 C 1.10791 0.64570 0.38851
 C828 C 1.12517 0.66283 0.37092
 C829 C 1.10240 0.60059 0.41586
 C830 C 1.08687 0.58430 0.42941
 H831 H 1.19184 0.61994 0.36884
 H832 H 1.16144 0.58974 0.39980
 H833 H 1.08435 0.65280 0.39365
 H834 H 1.11476 0.68300 0.36270
 C835 C 0.31064 0.81881 -0.17082
 C836 C 0.32391 0.83325 -0.15456
 C837 C 0.34043 0.85062 -0.13560
 C838 C 0.33826 0.88232 -0.13553
 C839 C 0.35579 0.89932 -0.11810
 C840 C 0.37556 0.88470 -0.10063
 C841 C 0.37737 0.85298 -0.10045
 C842 C 0.35984 0.83598 -0.11788
 C843 C 0.39528 0.90227 -0.08393
 C844 C 0.41255 0.91698 -0.07055
 H845 H 0.32346 0.89390 -0.14922
 H846 H 0.35436 0.92383 -0.11854
 H847 H 0.39274 0.84143 -0.08716
 H848 H 0.36184 0.81150 -0.11784
 C849 C 0.81470 0.31516 0.32796
 C850 C 0.82853 0.32920 0.34419
 C851 C 0.84557 0.34617 0.36316
 C852 C 0.87626 0.33766 0.36982
 C853 C 0.89340 0.35493 0.38734
 C854 C 0.87994 0.38079 0.39833
 C855 C 0.84911 0.38909 0.39192
 C856 C 0.83197 0.37182 0.37439
 C857 C 0.89819 0.39959 0.41524
 C858 C 0.91355 0.41594 0.42883
 H859 H 0.88708 0.31794 0.36122
 H860 H 0.91726 0.34836 0.39204
 H861 H 0.83849 0.40912 0.40018
 H862 H 0.80831 0.37870 0.36935
 C863 C 1.18625 0.31945 0.17311
 C864 C 1.17238 0.33349 0.15693
 C865 C 1.15537 0.35004 0.13776
 C866 C 1.16971 0.37429 0.12497
 C867 C 1.15276 0.39092 0.10691
 C868 C 1.12143 0.38334 0.10155
 C869 C 1.10723 0.35887 0.11412
 C870 C 1.12417 0.34224 0.13217
 C871 C 1.10337 0.40165 0.08421
 C872 C 1.08801 0.41766 0.07039
 H873 H 1.19381 0.38053 0.12916
 H874 H 1.16391 0.40992 0.09741
 H875 H 1.08296 0.35292 0.11023
 H876 H 1.11285 0.32354 0.14196
 C877 C 0.68557 0.81938 0.67469
 C878 C 0.67109 0.83396 0.65920
 C879 C 0.65318 0.85142 0.64113
 C880 C 0.66423 0.87969 0.63281
 C881 C 0.64644 0.89690 0.61567
 C882 C 0.61749 0.88593 0.60682
 C883 C 0.60647 0.85765 0.61513
 C884 C 0.62426 0.84045 0.63225
 C885 C 0.59931 0.90346 0.58898
 C886 C 0.58424 0.91791 0.57377
 H887 H 0.68651 0.88844 0.63961
 H888 H 0.65522 0.91870 0.60934
 H889 H 0.58416 0.84891 0.60837
 H890 H 0.61544 0.81867 0.63862
 C891 C 1.18710 0.68263 -0.17522
 C892 C 1.17316 0.66841 -0.15910
 C893 C 1.15602 0.65166 -0.14000
 C894 C 1.16959 0.62625 -0.12833
 C895 C 1.15252 0.60955 -0.11032
 C896 C 1.12179 0.61819 -0.10385
 C897 C 1.10835 0.64378 -0.11533
 C898 C 1.12541 0.66047 -0.13333
 C899 C 1.10357 0.60001 -0.08638
 C900 C 1.08810 0.58420 -0.07237
 H901 H 1.19322 0.61920 -0.13334
 H902 H 1.16311 0.58972 -0.10168
 H903 H 1.08457 0.65060 -0.11059
 H904 H 1.11465 0.68006 -0.14223
 C905 C 0.68687 1.17904 0.32537
 C906 C 0.67229 1.16442 0.34087
 C907 C 0.65418 1.14696 0.35893
 C908 C 0.66911 1.13188 0.37907
 C909 C 0.65138 1.11488 0.39647
 C910 C 0.61861 1.11285 0.39383
 C911 C 0.60370 1.12789 0.37367
 C912 C 0.62142 1.14488 0.35627
 C913 C 0.60030 1.09559 0.41191
 C914 C 0.58510 1.08130 0.42722
 H915 H 0.69441 1.13326 0.38131
 H916 H 0.66319 1.10336 0.41198
 H917 H 0.57840 1.12650 0.37140
 H918 H 0.60960 1.15638 0.34076
 C919 C 0.81294 0.67975 0.17350
 C920 C 0.82681 0.66562 0.15738
 C921 C 0.84386 0.64899 0.13827
 C922 C 0.86990 0.66223 0.12619
 C923 C 0.88716 0.64575 0.10823
 C924 C 0.87843 0.61597 0.10226
 C925 C 0.85219 0.60285 0.11414
 C926 C 0.83493 0.61933 0.13209
 C927 C 0.89712 0.59837 0.08484
 C928 C 0.91293 0.58293 0.07089
 H929 H 0.87703 0.68514 0.13085
 H930 H 0.90748 0.65608 0.09926
 H931 H 0.84531 0.57979 0.10975
 H932 H 0.81488 0.60885 0.14134
 C933 C 0.31270 1.17952 0.67438
 C934 C 0.32692 1.16475 0.65886
 C935 C 0.34455 1.14703 0.64079
 C936 C 0.34927 1.15779 0.61597
 C937 C 0.36710 1.14087 0.59866
 C938 C 0.38033 1.11315 0.60611
 C939 C 0.37551 1.10234 0.63090
 C940 C 0.35768 1.11925 0.64820
 C941 C 0.39877 1.09583 0.58829
 C942 C 0.41401 1.08146 0.57314
 H943 H 0.33930 1.17927 0.61004
 H944 H 0.37064 1.14943 0.57953
 H945 H 0.38558 1.08093 0.63687
 H946 H 0.35425 1.11075 0.66737
 C947 C 0.81443 0.31979 -0.17382
 C948 C 0.82859 0.33383 -0.15783
 C949 C 0.84599 0.35036 -0.13888
 C950 C 0.87731 0.34259 -0.13371
 C951 C 0.89459 0.35912 -0.11582
 C952 C 0.88062 0.38347 -0.10299
 C953 C 0.84919 0.39105 -0.10797
 C954 C 0.83190 0.37451 -0.12586
 C955 C 0.89894 0.40158 -0.08570
 C956 C 0.91444 0.41742 -0.07184
 H957 H 0.88844 0.32398 -0.14368
 H958 H 0.91892 0.35318 -0.11225
 H959 H 0.83821 0.40995 -0.09827
 H960 H 0.80771 0.38074 -0.12972
 C961 C 0.31448 0.81987 0.32516
 C962 C 0.32894 0.83443 0.34066
 C963 C 0.34679 0.85186 0.35879
 C964 C 0.33189 0.87379 0.37385
 C965 C 0.34940 0.89092 0.39122
 C966 C 0.38189 0.88623 0.39359
 C967 C 0.39677 0.86431 0.37852
 C968 C 0.37927 0.84718 0.36116
 C969 C 0.39986 0.90359 0.41168
 C970 C 0.41476 0.91791 0.42707
 H971 H 0.30681 0.87766 0.37215
 H972 H 0.33763 0.90777 0.40280
 H973 H 0.42186 0.86044 0.38021
 H974 H 0.39106 0.83034 0.34958
 C975 C 1.18012 1.18507 0.32714
 C976 C 1.16602 1.17054 0.34281
 C977 C 1.14913 1.15244 0.36093
 C978 C 1.16549 1.13277 0.37713
 C979 C 1.14895 1.11430 0.39413
 C980 C 1.11603 1.11545 0.39489
 C981 C 1.09969 1.13521 0.37875
 C982 C 1.11622 1.15367 0.36176
 C983 C 1.09905 1.09680 0.41256
 C984 C 1.08471 1.08165 0.42767
 H985 H 1.19094 1.13159 0.37651
 H986 H 1.16176 1.09915 0.40662
 H987 H 1.07422 1.13630 0.37930
 H988 H 1.10339 1.16873 0.34920
 C989 C 0.68135 0.68799 -0.16993
 C990 C 0.66719 0.67496 -0.15334
 C991 C 0.65036 0.65884 -0.13383
 C992 C 0.61772 0.66230 -0.13151
 C993 C 0.60107 0.64515 -0.11360
 C994 C 0.61703 0.62454 -0.09794
 C995 C 0.64975 0.62154 -0.09992
 C996 C 0.66639 0.63868 -0.11783
 C997 C 0.59960 0.60490 -0.08126
 C998 C 0.58488 0.58755 -0.06814
 H999 H 0.60510 0.67777 -0.14386
 H1000 H 0.57574 0.64746 -0.11234
 H1001 H 0.66226 0.60549 -0.08803
 H1002 H 0.69162 0.63579 -0.11954
 C1003 C 0.81946 1.18330 0.67377
 C1004 C 0.83352 1.16843 0.65833
 C1005 C 0.85039 1.14995 0.64049
 C1006 C 0.85362 1.15926 0.61513
 C1007 C 0.87014 1.14115 0.59789
 C1008 C 0.88343 1.11373 0.60597
 C1009 C 0.88014 1.10440 0.63132
 C1010 C 0.86363 1.12250 0.64856
 C1011 C 0.90070 1.09539 0.58828
 C1012 C 0.91529 1.08050 0.57317
 H1013 H 0.84344 1.18045 0.60873
 H1014 H 0.87262 1.14855 0.57831
 H1015 H 0.89037 1.08325 0.63774
 H1016 H 0.86121 1.11513 0.66815
 C1017 C 0.31873 0.68716 0.17084
 C1018 C 0.33294 0.67394 0.15440
 C1019 C 0.34982 0.65766 0.13503
 C1020 C 0.33357 0.63858 0.11827
 C1021 C 0.35014 0.62142 0.10037
 C1022 C 0.38301 0.62331 0.09915
 C1023 C 0.39922 0.64280 0.11560
 C1024 C 0.38264 0.65996 0.13351
 C1025 C 0.40023 0.60375 0.08227
 C1026 C 0.41479 0.58654 0.06894
 H1027 H 0.30819 0.63659 0.11935
 H1028 H 0.33741 0.60627 0.08785
 H1029 H 0.42465 0.64428 0.11492
 H1030 H 0.39543 0.67460 0.14642
 C1031 C 1.18044 0.81548 0.67509
 C1032 C 1.16620 0.82996 0.65945
 C1033 C 1.14917 0.84792 0.64129
 C1034 C 1.16485 0.87031 0.62721
 C1035 C 1.14812 0.88843 0.61010
 C1036 C 1.11567 0.88424 0.60706
 C1037 C 1.10002 0.86179 0.62108
 C1038 C 1.11674 0.84367 0.63820
 C1039 C 1.09853 0.90261 0.58925
 C1040 C 1.08417 0.91759 0.57404
 H1041 H 1.18991 0.87383 0.62955
 H1042 H 1.16044 0.90567 0.59927
 H1043 H 1.07494 0.85832 0.61879
 H1044 H 1.10441 0.82648 0.64908
 C1045 C 0.68079 0.31321 0.17163
 C1046 C 0.66638 0.32659 0.15537
 C1047 C 0.64927 0.34302 0.13618
 C1048 C 0.61637 0.34129 0.13529
 C1049 C 0.59965 0.35845 0.11746
 C1050 C 0.61576 0.37739 0.10042
 C1051 C 0.64869 0.37877 0.10106
 C1052 C 0.66541 0.36161 0.11889
 C1053 C 0.59844 0.39677 0.08341
 C1054 C 0.58382 0.41377 0.06991
 H1055 H 0.60365 0.32706 0.14863
 H1056 H 0.57418 0.35738 0.11725
 H1057 H 0.66137 0.39351 0.08810
 H1058 H 0.69084 0.36320 0.11947
 C1059 C 0.82119 0.81611 0.32565
 C1060 C 0.83561 0.83077 0.34099
 C1061 C 0.85281 0.84897 0.35879
 C1062 C 0.85572 0.88022 0.35466
 C1063 C 0.87259 0.89806 0.37184
 C1064 C 0.88658 0.88466 0.39317
 C1065 C 0.88367 0.85340 0.39731
 C1066 C 0.86680 0.83556 0.38013
 C1067 C 0.90369 0.90294 0.41098
 C1068 C 0.91797 0.91784 0.42624
 H1069 H 0.84497 0.89076 0.33818
 H1070 H 0.87468 0.92223 0.36852
 H1071 H 0.89439 0.84288 0.41381
 H1072 H 0.86467 0.81140 0.38345
 C1073 C 0.32000 0.31310 -0.17182
 C1074 C 0.33432 0.32643 -0.15554
 C1075 C 0.35123 0.34285 -0.13630
 C1076 C 0.33494 0.36170 -0.11938
 C1077 C 0.35149 0.37895 -0.10155
 C1078 C 0.38438 0.37736 -0.10056
 C1079 C 0.40064 0.35812 -0.11720
 C1080 C 0.38409 0.34087 -0.13503
 C1081 C 0.40153 0.39692 -0.08367
 C1082 C 0.41596 0.41414 -0.07028
 H1083 H 0.30953 0.36345 -0.12027
 H1084 H 0.33872 0.39393 -0.08890
 H1085 H 0.42610 0.35691 -0.11671
 H1086 H 0.39691 0.32642 -0.14809
 C1087 C 1.18167 0.31444 -0.17240
 C1088 C 1.16748 0.32794 -0.15610
 C1089 C 1.15068 0.34443 -0.13681
 C1090 C 1.16712 0.36271 -0.11956
 C1091 C 1.15069 0.37987 -0.10155
 C1092 C 1.11777 0.37876 -0.10072
 C1093 C 1.10135 0.36011 -0.11772
 C1094 C 1.11778 0.34296 -0.13572
 C1095 C 1.10072 0.39818 -0.08362
 C1096 C 1.08619 0.41523 -0.07012
 H1097 H 1.19257 0.36405 -0.12027
 H1098 H 1.16360 0.39437 -0.08861
 H1099 H 1.07587 0.35925 -0.11735
 H1100 H 1.10484 0.32894 -0.14901
 C1101 C 0.68318 0.81809 0.32545
 C1102 C 0.66862 0.83253 0.34100
 C1103 C 0.65107 0.85016 0.35922
 C1104 C 0.66421 0.87651 0.36963
 C1105 C 0.64695 0.89395 0.38695
 C1106 C 0.61643 0.88516 0.39392
 C1107 C 0.60331 0.85878 0.38354
 C1108 C 0.62058 0.84133 0.36622
 C1109 C 0.59877 0.90296 0.41195
 C1110 C 0.58407 0.91758 0.42728
 H1111 H 0.68774 0.88359 0.36433
 H1112 H 0.65738 0.91425 0.39490
 H1113 H 0.57978 0.85170 0.38883
 H1114 H 0.61014 0.82104 0.35826
 C1115 C 0.81979 0.68655 -0.17261
 C1116 C 0.83422 0.67330 -0.15631
 C1117 C 0.85119 0.65706 -0.13697
 C1118 C 0.88411 0.65827 -0.13629
 C1119 C 0.90065 0.64128 -0.11824
 C1120 C 0.88431 0.62306 -0.10079
 C1121 C 0.85137 0.62221 -0.10122
 C1122 C 0.83483 0.63921 -0.11927
 C1123 C 0.90142 0.60373 -0.08365
 C1124 C 0.91597 0.58672 -0.07013
 H1125 H 0.89698 0.67193 -0.14994
 H1126 H 0.92613 0.64188 -0.11819
 H1127 H 0.83853 0.60800 -0.08796
 H1128 H 0.80937 0.63806 -0.11970
 C1129 C 0.31745 1.18265 0.32525
 C1130 C 0.33198 1.16807 0.34073
 C1131 C 0.34944 1.15017 0.35881
 C1132 C 0.37926 1.13898 0.35235
 C1133 C 0.39606 1.12116 0.36969
 C1134 C 0.38313 1.11440 0.39358
 C1135 C 0.35332 1.12561 0.40006
 C1136 C 0.33651 1.14343 0.38271
 C1137 C 0.40054 1.09632 0.41157
 C1138 C 0.41510 1.08152 0.42688
 H1139 H 0.38946 1.14397 0.33390
 H1140 H 0.41910 1.11267 0.36448
 H1141 H 0.34310 1.12058 0.41849
 H1142 H 0.31345 1.15189 0.38790
 C1143 C 1.18030 0.68648 0.17285
 C1144 C 1.16604 0.67318 0.15649
 C1145 C 1.14930 0.65695 0.13702
 C1146 C 1.11644 0.65868 0.13570
 C1147 C 1.10011 0.64183 0.11746
 C1148 C 1.11659 0.62323 0.10044
 C1149 C 1.14949 0.62186 0.10152
 C1150 C 1.16582 0.63871 0.11976
 C1151 C 1.09963 0.60407 0.08309
 C1152 C 1.08519 0.58717 0.06939
 H1153 H 1.10344 0.67266 0.14900
 H1154 H 1.07464 0.64287 0.11692
 H1155 H 1.16244 0.60737 0.08859
 H1156 H 1.19124 0.63716 0.12066
 C1157 C 0.68193 1.18208 0.67545
 C1158 C 0.66730 1.16752 0.66005
 C1159 C 0.64975 1.14967 0.64200
 C1160 C 0.65493 1.15322 0.61581
 C1161 C 0.63803 1.13566 0.59836
 C1162 C 0.61587 1.11444 0.60699
 C1163 C 0.61068 1.11090 0.63318
 C1164 C 0.62759 1.12845 0.65063
 C1165 C 0.59839 1.09648 0.58897
 C1166 C 0.58382 1.08173 0.57365
 H1167 H 0.67204 1.16950 0.60891
 H1168 H 0.64222 1.13863 0.57816
 H1169 H 0.59360 1.09460 0.64009
 H1170 H 0.62341 1.12546 0.67083
 C1171 C 0.81933 0.31448 0.17248
 C1172 C 0.83364 0.32812 0.15626
 C1173 C 0.85062 0.34479 0.13704
 C1174 C 0.83439 0.36377 0.12014
 C1175 C 0.85098 0.38094 0.10216
 C1176 C 0.88388 0.37918 0.10098
 C1177 C 0.90006 0.35990 0.11766
 C1178 C 0.88347 0.34273 0.13564
 C1179 C 0.90113 0.39840 0.08371
 C1180 C 0.91582 0.41519 0.06998
 H1181 H 0.80899 0.36559 0.12108
 H1182 H 0.83823 0.39591 0.08947
 H1183 H 0.92550 0.35850 0.11703
 H1184 H 0.89627 0.32819 0.14863
 C1185 C 0.31509 0.81724 0.67581
 C1186 C 0.32967 0.83169 0.66018
 C1187 C 0.34725 0.84938 0.64190
 C1188 C 0.33170 0.86985 0.62581
 C1189 C 0.34886 0.88746 0.60845
 C1190 C 0.38169 0.88475 0.60709
 C1191 C 0.39723 0.86424 0.62314
 C1192 C 0.38007 0.84664 0.64050
 C1193 C 0.39937 0.90269 0.58903
 C1194 C 0.41414 0.91741 0.57371
 H1195 H 0.30636 0.87226 0.62674
 H1196 H 0.33655 0.90316 0.59611
 H1197 H 0.42258 0.86186 0.62225
 H1198 H 0.39239 0.83097 0.65286
 C1199 C 0.31707 1.18675 -0.17118
 C1200 C 0.33072 1.17202 -0.15536
 C1201 C 0.34714 1.15346 -0.13723
 C1202 C 0.36252 1.12721 -0.14555
 C1203 C 0.37876 1.10905 -0.12820
 C1204 C 0.37969 1.11703 -0.10242
 C1205 C 0.36416 1.14319 -0.09401
 C1206 C 0.34787 1.16139 -0.11141
 C1207 C 0.39770 1.09888 -0.08498
 C1208 C 0.41374 1.08361 -0.07111
 H1209 H 0.36208 1.12087 -0.16547
 H1210 H 0.39083 1.08895 -0.13491
 H1211 H 0.36487 1.14963 -0.07412
 H1212 H 0.33601 1.18164 -0.10479
 C1213 C 0.81856 0.68919 0.32853
 C1214 C 0.83263 0.67543 0.34484
 C1215 C 0.84945 0.65830 0.36391
 C1216 C 0.88222 0.66100 0.36601
 C1217 C 0.89874 0.64315 0.38356
 C1218 C 0.88261 0.62249 0.39914
 C1219 C 0.84979 0.62008 0.39727
 C1220 C 0.83328 0.63793 0.37973
 C1221 C 0.89987 0.60271 0.41602
 C1222 C 0.91452 0.58556 0.42949
 H1223 H 0.89503 0.67654 0.35383
 H1224 H 0.92411 0.64511 0.38468
 H1225 H 0.83705 0.60408 0.40908
 H1226 H 0.80798 0.63551 0.37822
 C1227 C 0.68341 1.18694 0.17076
 C1228 C 0.66985 1.17259 0.15464
 C1229 C 0.65367 1.15468 0.13589
 C1230 C 0.66177 1.12416 0.13252
 C1231 C 0.64511 1.10624 0.11522
 C1232 C 0.62028 1.11878 0.10121
 C1233 C 0.61244 1.14941 0.10434
 C1234 C 0.62911 1.16733 0.12165
 C1235 C 0.60185 1.09995 0.08458
 C1236 C 0.58561 1.08433 0.07114
 H1237 H 0.68065 1.11413 0.14352
 H1238 H 0.65124 1.08254 0.11306
 H1239 H 0.59316 1.15928 0.09371
 H1240 H 0.62257 1.19087 0.12418
 C1241 C 1.18096 0.68972 0.67139
 C1242 C 1.16692 0.67579 0.65517
 C1243 C 1.15012 0.65846 0.63621
 C1244 C 1.11740 0.66138 0.63381
 C1245 C 1.10091 0.64342 0.61635
 C1246 C 1.11700 0.62240 0.60114
 C1247 C 1.14977 0.61974 0.60332
 C1248 C 1.16626 0.63771 0.62078
 C1249 C 1.09975 0.60261 0.58426
 C1250 C 1.08511 0.58548 0.57076
 H1251 H 1.10460 0.67720 0.64569
 H1252 H 1.07558 0.64559 0.61498
 H1253 H 1.16249 0.60348 0.59181
 H1254 H 1.19151 0.63510 0.62252
 C1255 C 0.68419 0.81377 -0.17060
 C1256 C 0.67092 0.82824 -0.15440
 C1257 C 0.65504 0.84619 -0.13553
 C1258 C 0.66228 0.87704 -0.13304
 C1259 C 0.64583 0.89495 -0.11559
 C1260 C 0.62209 0.88207 -0.10055
 C1261 C 0.61514 0.85113 -0.10279
 C1262 C 0.63160 0.83321 -0.12024
 C1263 C 0.60368 0.90084 -0.08387
 C1264 C 0.58737 0.91640 -0.07043
 H1265 H 0.68030 0.88732 -0.14485
 H1266 H 0.65123 0.91889 -0.11413
 H1267 H 0.59668 0.84099 -0.09136
 H1268 H 0.62574 0.80941 -0.12208
 C1269 C 1.18244 0.31196 0.32834
 C1270 C 1.16845 0.32581 0.34465
 C1271 C 1.15166 0.34298 0.36373
 C1272 C 1.16757 0.36446 0.37858
 C1273 C 1.15102 0.38220 0.39618
 C1274 C 1.11843 0.37858 0.39907
 C1275 C 1.10259 0.35683 0.38445
 C1276 C 1.11913 0.33909 0.36685
 C1277 C 1.10103 0.39816 0.41603
 C1278 C 1.08623 0.41512 0.42956
 H1279 H 1.19268 0.36779 0.37630
 H1280 H 1.16355 0.39903 0.40724
 H1281 H 1.07738 0.35390 0.38638
 H1282 H 1.10651 0.32267 0.35543
 C1283 C 0.31648 0.81306 0.17045
 C1284 C 0.32971 0.82739 0.15412
 C1285 C 0.34545 0.84521 0.13507
 C1286 C 0.33766 0.87586 0.13202
 C1287 C 0.35403 0.89372 0.11445
 C1288 C 0.37820 0.88097 0.09985
 C1289 C 0.38565 0.85020 0.10259
 C1290 C 0.36929 0.83233 0.12018
 C1291 C 0.39662 0.89978 0.08319
 C1292 C 0.41298 0.91544 0.06984
 H1293 H 0.31932 0.88604 0.14351
 H1294 H 0.34824 0.91754 0.11258
 H1295 H 0.40446 0.84019 0.09149
 H1296 H 0.37553 0.80868 0.12245
 C1297 C 0.81803 0.31042 0.67110
 C1298 C 0.83206 0.32414 0.65471
 C1299 C 0.84886 0.34124 0.63558
 C1300 C 0.88145 0.33769 0.63274
 C1301 C 0.89802 0.35555 0.61518
 C1302 C 0.88210 0.37706 0.60034
 C1303 C 0.84944 0.38031 0.60293
 C1304 C 0.83287 0.36246 0.62048
 C1305 C 0.89947 0.39686 0.58351
 C1306 C 0.91419 0.41404 0.57009
 H1307 H 0.89412 0.32149 0.64437
 H1308 H 0.92328 0.35293 0.61349
 H1309 H 0.83687 0.39698 0.59170
 H1310 H 0.80771 0.36554 0.62257
 C1311 C 1.18269 1.18193 0.67402
 C1312 C 1.16859 1.16707 0.65862
 C1313 C 1.15133 1.14894 0.64081
 C1314 C 1.14156 1.11973 0.64772
 C1315 C 1.12421 1.10219 0.63063
 C1316 C 1.11657 1.11386 0.60663
 C1317 C 1.12641 1.14305 0.59970
 C1318 C 1.14376 1.16059 0.61678
 C1319 C 1.09873 1.09594 0.58905
 C1320 C 1.08393 1.08121 0.57399
 H1321 H 1.14726 1.11060 0.66631
 H1322 H 1.11671 1.07963 0.63613
 H1323 H 1.12061 1.15222 0.58114
 H1324 H 1.15116 1.18319 0.61133
 C1325 C 0.68219 0.68408 0.17291
 C1326 C 0.66783 0.67002 0.15709
 C1327 C 0.65032 0.65286 0.13868
 C1328 C 0.62863 0.63109 0.14699
 C1329 C 0.61169 0.61409 0.12928
 C1330 C 0.61633 0.61878 0.10317
 C1331 C 0.63793 0.64064 0.09480
 C1332 C 0.65491 0.65769 0.11256
 C1333 C 0.59921 0.60056 0.08524
 C1334 C 0.58451 0.58436 0.07115
 H1335 H 0.62491 0.62719 0.16714
 H1336 H 0.59509 0.59719 0.13594
 H1337 H 0.64173 0.64439 0.07464
 H1338 H 0.67164 0.67450 0.10595
 C1339 C 1.18439 0.81821 0.32695
 C1340 C 1.17046 0.83286 0.34261
 C1341 C 1.15328 0.85062 0.36077
 C1342 C 1.16470 0.87902 0.36827
 C1343 C 1.14743 0.89670 0.38535
 C1344 C 1.11871 0.88601 0.39489
 C1345 C 1.10737 0.85756 0.38746
 C1346 C 1.12462 0.83989 0.37039
 C1347 C 1.10101 0.90398 0.41257
 C1348 C 1.08613 0.91861 0.42767
 H1349 H 1.18680 0.88752 0.36084
 H1350 H 1.15641 0.91865 0.39107
 H1351 H 1.08521 0.84909 0.39482
 H1352 H 1.11558 0.81799 0.36462
 C1353 C 0.68353 0.31581 -0.17171
 C1354 C 0.66949 0.32951 -0.15545
 C1355 C 0.65248 0.34600 -0.13628
 C1356 C 0.66778 0.36821 -0.12182
 C1357 C 0.65089 0.38515 -0.10396
 C1358 C 0.61866 0.37989 -0.10046
 C1359 C 0.60345 0.35738 -0.11466
 C1360 C 0.62034 0.34045 -0.13253
 C1361 C 0.60083 0.39882 -0.08349
 C1362 C 0.58574 0.41543 -0.07001
 H1363 H 0.69261 0.37272 -0.12462
 H1364 H 0.66282 0.40265 -0.09320
 H1365 H 0.57849 0.35329 -0.11223
 H1366 H 0.60827 0.32336 -0.14366
 C1367 C 0.81763 1.18115 0.32602
 C1368 C 0.83187 1.16638 0.34145
 C1369 C 0.84937 1.14841 0.35930
 C1370 C 0.87577 1.13215 0.35103
 C1371 C 0.89294 1.11464 0.36829
 C1372 C 0.88375 1.11333 0.39387
 C1373 C 0.85732 1.12956 0.40215
 C1374 C 0.84014 1.14708 0.38487
 C1375 C 0.90158 1.09562 0.41169
 C1376 C 0.91641 1.08104 0.42689
 H1377 H 0.88308 1.13305 0.33127
 H1378 H 0.91337 1.10220 0.36173
 H1379 H 0.85007 1.12872 0.42192
 H1380 H 0.81976 1.15959 0.39144
 C1381 C 0.31661 0.68543 -0.17233
 C1382 C 0.33082 0.67176 -0.15613
 C1383 C 0.34803 0.65530 -0.13703
 C1384 C 0.38068 0.65895 -0.13499
 C1385 C 0.39764 0.64202 -0.11715
 C1386 C 0.38200 0.62140 -0.10125
 C1387 C 0.34929 0.61805 -0.10304
 C1388 C 0.33233 0.63499 -0.12088
 C1389 C 0.39973 0.60244 -0.08419
 C1390 C 0.41470 0.58581 -0.07061
 H1391 H 0.39306 0.67456 -0.14741
 H1392 H 0.42295 0.64465 -0.11604
 H1393 H 0.33699 0.60203 -0.09094
 H1394 H 0.30709 0.63195 -0.12233
 C1395 C 0.81561 0.81669 0.67231
 C1396 C 0.82964 0.83116 0.65656
 C1397 C 0.84699 0.84878 0.63840
 C1398 C 0.87615 0.83839 0.62959
 C1399 C 0.89371 0.85610 0.61271
 C1400 C 0.88216 0.88425 0.60467
 C1401 C 0.85292 0.89457 0.61337
 C1402 C 0.83535 0.87685 0.63026
 C1403 C 0.90021 0.90234 0.58730
 C1404 C 0.91529 0.91718 0.57246
 H1405 H 0.88537 0.81676 0.63589
 H1406 H 0.91627 0.84792 0.60599
 H1407 H 0.84378 0.91628 0.60717
 H1408 H 0.81286 0.88509 0.63709
 C1409 C 0.31648 0.31455 0.17088
 C1410 C 0.33038 0.32808 0.15441
 C1411 C 0.34715 0.34443 0.13500
 C1412 C 0.37909 0.33847 0.13071
 C1413 C 0.39581 0.35540 0.11270
 C1414 C 0.38061 0.37830 0.09890
 C1415 C 0.34855 0.38391 0.10289
 C1416 C 0.33183 0.36698 0.12091
 C1417 C 0.39836 0.39737 0.08196
 C1418 C 0.41340 0.41417 0.06859
 H1419 H 0.39115 0.32111 0.14156
 H1420 H 0.42066 0.35105 0.10988
 H1421 H 0.33665 0.40173 0.09245
 H1422 H 0.30714 0.37179 0.12413
   
