data_POSCAR
  _audit_creation_date              2014-09-24
  _audit_creation_method            'ToBaCCo'
  _symmetry_space_group_name_H-M    'P1'
  _symmetry_Int_Tables_number       1
  _symmetry_cell_setting            triclinic
  loop_
  _symmetry_equiv_pos_as_xyz
 x,y,z
_cell_length_a 62.2329
_cell_length_b 64.2381
_cell_length_c 70.4170
_cell_angle_alpha 89.589700
_cell_angle_beta 88.735100
_cell_angle_gamma 91.132200
loop_
  _atom_site_label
  _atom_site_type_symbol
  _atom_site_fract_x
  _atom_site_fract_y
  _atom_site_fract_z
C1 C 0.21939 0.19346 0.23494
 C2 C 0.20278 0.19984 0.24726
 C3 C 0.18974 0.21661 0.24229
 C4 C 0.19368 0.22710 0.22498
 C5 C 0.21010 0.22081 0.21248
 C6 C 0.22304 0.20393 0.21746
 C7 C 0.23250 0.17684 0.23988
 C8 C 0.24910 0.17039 0.22756
 C9 C 0.25277 0.18107 0.21021
 C10 C 0.23980 0.19773 0.20507
 C11 C 0.24339 0.20835 0.18776
 C12 C 0.23032 0.22494 0.18256
 C13 C 0.21384 0.23124 0.19513
 H14 H 0.20039 0.19198 0.26082
 H15 H 0.18377 0.24012 0.22116
 H16 H 0.22972 0.16879 0.25333
 H17 H 0.26591 0.17682 0.20079
 H18 H 0.25627 0.20362 0.17822
 H19 H 0.20413 0.24448 0.19170
 C20 C 0.69289 0.68821 0.71782
 C21 C 0.67707 0.69039 0.73210
 C22 C 0.66177 0.70608 0.73096
 C23 C 0.66214 0.71951 0.71505
 C24 C 0.67778 0.71742 0.70054
 C25 C 0.69324 0.70174 0.70195
 C26 C 0.70827 0.67263 0.71913
 C27 C 0.72416 0.67043 0.70478
 C28 C 0.72414 0.68371 0.68885
 C29 C 0.70889 0.69940 0.68738
 C30 C 0.70901 0.71273 0.67152
 C31 C 0.69381 0.72860 0.67010
 C32 C 0.67814 0.73067 0.68460
 H33 H 0.67675 0.67992 0.74427
 H34 H 0.65006 0.73130 0.71368
 H35 H 0.70751 0.66206 0.73117
 H36 H 0.73620 0.68192 0.67766
 H37 H 0.72074 0.71036 0.66021
 H38 H 0.66626 0.74273 0.68349
 C39 C 0.28807 0.79654 0.71960
 C40 C 0.30304 0.79087 0.73323
 C41 C 0.31769 0.77492 0.72952
 C42 C 0.31681 0.76436 0.71217
 C43 C 0.30187 0.76983 0.69848
 C44 C 0.28742 0.78601 0.70215
 C45 C 0.27386 0.81271 0.72318
 C46 C 0.25894 0.81883 0.70959
 C47 C 0.25828 0.80808 0.69213
 C48 C 0.27242 0.79169 0.68837
 C49 C 0.27198 0.78100 0.67099
 C50 C 0.28640 0.76477 0.66731
 C51 C 0.30130 0.75944 0.68111
 H52 H 0.30297 0.79880 0.74673
 H53 H 0.32796 0.75195 0.70926
 H54 H 0.27460 0.82075 0.73667
 H55 H 0.24705 0.81229 0.68134
 H56 H 0.26073 0.78562 0.66032
 H57 H 0.31249 0.74704 0.67832
 C58 C 0.79694 0.31049 0.23313
 C59 C 0.81432 0.30547 0.24455
 C60 C 0.82777 0.28869 0.23985
 C61 C 0.82328 0.27702 0.22349
 C62 C 0.80603 0.28195 0.21189
 C63 C 0.79280 0.29874 0.21674
 C64 C 0.78355 0.32709 0.23792
 C65 C 0.76618 0.33222 0.22650
 C66 C 0.76202 0.32025 0.21027
 C67 C 0.77527 0.30365 0.20529
 C68 C 0.77119 0.29184 0.18906
 C69 C 0.78443 0.27526 0.18394
 C70 C 0.80176 0.27027 0.19557
 H71 H 0.81688 0.31466 0.25710
 H72 H 0.83336 0.26404 0.21966
 H73 H 0.78670 0.33615 0.25053
 H74 H 0.74829 0.32344 0.20163
 H75 H 0.75770 0.29566 0.18027
 H76 H 0.81178 0.25716 0.19224
 C77 C 0.79475 0.70671 0.27131
 C78 C 0.81055 0.71091 0.25715
 C79 C 0.82552 0.72758 0.25909
 C80 C 0.82422 0.73998 0.27548
 C81 C 0.80858 0.73595 0.28973
 C82 C 0.79381 0.71926 0.28766
 C83 C 0.77995 0.69005 0.26944
 C84 C 0.76421 0.68583 0.28373
 C85 C 0.76364 0.69833 0.30000
 C86 C 0.77821 0.71501 0.30204
 C87 C 0.77742 0.72744 0.31833
 C88 C 0.79189 0.74436 0.32037
 C89 C 0.80755 0.74835 0.30606
 H90 H 0.81090 0.70101 0.24483
 H91 H 0.83554 0.75285 0.27726
 H92 H 0.78105 0.68034 0.25699
 H93 H 0.75166 0.69511 0.31111
 H94 H 0.76573 0.72355 0.32944
 H95 H 0.81890 0.76122 0.30762
 C96 C 0.29719 0.19486 -0.21035
 C97 C 0.31384 0.19939 -0.22366
 C98 C 0.32853 0.21606 -0.22070
 C99 C 0.32624 0.22795 -0.20410
 C100 C 0.30972 0.22360 -0.19074
 C101 C 0.29509 0.20705 -0.19386
 C102 C 0.28267 0.17824 -0.21327
 C103 C 0.26591 0.17374 -0.19999
 C104 C 0.26408 0.18594 -0.18355
 C105 C 0.27848 0.20258 -0.18040
 C106 C 0.27659 0.21476 -0.16396
 C107 C 0.29112 0.23143 -0.16087
 C108 C 0.30768 0.23558 -0.17429
 H109 H 0.31507 0.18976 -0.23612
 H110 H 0.33739 0.24078 -0.20151
 H111 H 0.28483 0.16873 -0.22574
 H112 H 0.25131 0.18250 -0.17320
 H113 H 0.26405 0.21093 -0.15356
 H114 H 0.31900 0.24831 -0.17193
 C115 C 0.70054 0.29741 -0.20979
 C116 C 0.68432 0.29313 -0.22281
 C117 C 0.66999 0.27596 -0.22003
 C118 C 0.67241 0.26312 -0.20394
 C119 C 0.68849 0.26729 -0.19076
 C120 C 0.70261 0.28449 -0.19369
 C121 C 0.71472 0.31451 -0.21262
 C122 C 0.73103 0.31879 -0.19956
 C123 C 0.73270 0.30599 -0.18344
 C124 C 0.71870 0.28887 -0.18045
 C125 C 0.72058 0.27610 -0.16437
 C126 C 0.70674 0.25871 -0.16143
 C127 C 0.69064 0.25455 -0.17465
 H128 H 0.68330 0.30325 -0.23504
 H129 H 0.66162 0.24984 -0.20154
 H130 H 0.71271 0.32449 -0.22485
 H131 H 0.74510 0.30929 -0.17324
 H132 H 0.73261 0.28009 -0.15409
 H133 H 0.67980 0.24130 -0.17240
 C134 C 0.20496 0.79472 0.26421
 C135 C 0.18819 0.79024 0.25175
 C136 C 0.17381 0.77341 0.25546
 C137 C 0.17663 0.76093 0.27163
 C138 C 0.19330 0.76521 0.28416
 C139 C 0.20750 0.78220 0.28049
 C140 C 0.21930 0.81146 0.26055
 C141 C 0.23619 0.81608 0.27292
 C142 C 0.23856 0.80336 0.28919
 C143 C 0.22436 0.78653 0.29300
 C144 C 0.22688 0.77383 0.30910
 C145 C 0.21266 0.75691 0.31290
 C146 C 0.19602 0.75268 0.30027
 H147 H 0.18675 0.79970 0.23910
 H148 H 0.16573 0.74784 0.27449
 H149 H 0.21722 0.82099 0.24796
 H150 H 0.25137 0.80614 0.29900
 H151 H 0.24020 0.77700 0.31834
 H152 H 0.18510 0.73959 0.30303
 C153 C 0.46006 0.45903 0.48440
 C154 C 0.46546 0.44359 0.49758
 C155 C 0.48206 0.42963 0.49341
 C156 C 0.49350 0.43160 0.47606
 C157 C 0.48825 0.44692 0.46276
 C158 C 0.47145 0.46068 0.46690
 C159 C 0.44339 0.47280 0.48843
 C160 C 0.43782 0.48821 0.47525
 C161 C 0.44912 0.48958 0.45769
 C162 C 0.46597 0.47601 0.45350
 C163 C 0.47732 0.47743 0.43604
 C164 C 0.49427 0.46384 0.43190
 C165 C 0.49949 0.44859 0.44533
 H166 H 0.45689 0.44275 0.51111
 H167 H 0.50639 0.42099 0.47283
 H168 H 0.43467 0.47153 0.50190
 H169 H 0.44479 0.50091 0.44708
 H170 H 0.47262 0.48893 0.42573
 H171 H 0.51241 0.43797 0.44219
 C172 C -0.05812 -0.04899 0.96339
 C173 C -0.05677 -0.06572 0.97617
 C174 C -0.04223 -0.08179 0.97289
 C175 C -0.02904 -0.08115 0.95637
 C176 C -0.03027 -0.06452 0.94337
 C177 C -0.04487 -0.04839 0.94692
 C178 C -0.07259 -0.03293 0.96691
 C179 C -0.07413 -0.01604 0.95408
 C180 C -0.06099 -0.01581 0.93752
 C181 C -0.04638 -0.03175 0.93391
 C182 C -0.03328 -0.03128 0.91743
 C183 C -0.01841 -0.04713 0.91388
 C184 C -0.01721 -0.06379 0.92685
 H185 H -0.06702 -0.06619 0.98883
 H186 H -0.01811 -0.09366 0.95334
 H187 H -0.08256 -0.03404 0.97962
 H188 H -0.06200 -0.00305 0.92742
 H189 H -0.03507 -0.01869 0.90735
 H190 H -0.00596 -0.07615 0.92411
 C191 C 1.05190 0.54257 0.96590
 C192 C 1.04870 0.55917 0.97852
 C193 C 1.03353 0.57464 0.97464
 C194 C 1.02173 0.57315 0.95787
 C195 C 1.02471 0.55668 0.94525
 C196 C 1.03981 0.54131 0.94923
 C197 C 1.06703 0.52723 0.96971
 C198 C 1.07030 0.51054 0.95705
 C199 C 1.05797 0.50952 0.94052
 C200 C 1.04281 0.52472 0.93652
 C201 C 1.03065 0.52359 0.91995
 C202 C 1.01541 0.53888 0.91601
 C203 C 1.01272 0.55540 0.92870
 H204 H 1.05818 0.55979 0.99118
 H205 H 1.01002 0.58487 0.95461
 H206 H 1.07598 0.52858 0.98262
 H207 H 1.06019 0.49683 0.93063
 H208 H 1.03338 0.51097 0.91016
 H209 H 1.00108 0.56728 0.92573
 C210 C 0.54791 0.05220 0.48206
 C211 C 0.54289 0.06833 0.49465
 C212 C 0.52671 0.08253 0.49038
 C213 C 0.51536 0.08022 0.47349
 C214 C 0.52025 0.06423 0.46075
 C215 C 0.53658 0.05015 0.46504
 C216 C 0.56403 0.03804 0.48630
 C217 C 0.56912 0.02173 0.47382
 C218 C 0.55777 0.01999 0.45671
 C219 C 0.54158 0.03403 0.45232
 C220 C 0.53031 0.03218 0.43532
 C221 C 0.51384 0.04608 0.43101
 C222 C 0.50906 0.06211 0.44378
 H223 H 0.55135 0.06947 0.50788
 H224 H 0.50277 0.09103 0.47021
 H225 H 0.57260 0.03972 0.49947
 H226 H 0.56129 0.00794 0.44657
 H227 H 0.53472 0.02006 0.42548
 H228 H 0.49649 0.07296 0.44052
 C229 C -0.05457 0.04657 0.51969
 C230 C -0.04877 0.06427 0.50882
 C231 C -0.03152 0.07730 0.51416
 C232 C -0.01991 0.07226 0.53039
 C233 C -0.02556 0.05465 0.54144
 C234 C -0.04295 0.04173 0.53606
 C235 C -0.07171 0.03353 0.51433
 C236 C -0.07754 0.01576 0.52514
 C237 C -0.06567 0.01088 0.54133
 C238 C -0.04851 0.02380 0.54687
 C239 C -0.03674 0.01896 0.56302
 C240 C -0.01961 0.03188 0.56867
 C241 C -0.01399 0.04966 0.55769
 H242 H -0.05745 0.06749 0.49601
 H243 H -0.00648 0.08216 0.53445
 H244 H -0.08064 0.03727 0.50174
 H245 H -0.06936 -0.00310 0.54951
 H246 H -0.04100 0.00514 0.57132
 H247 H -0.00039 0.05942 0.56145
 C248 C 0.44539 0.54596 0.02389
 C249 C 0.44996 0.56230 0.01099
 C250 C 0.46473 0.57842 0.01548
 C251 C 0.47482 0.57771 0.03317
 C252 C 0.47040 0.56144 0.04614
 C253 C 0.45563 0.54548 0.04151
 C254 C 0.43059 0.53012 0.01940
 C255 C 0.42568 0.51384 0.03228
 C256 C 0.43616 0.51332 0.04983
 C257 C 0.45108 0.52907 0.05452
 C258 C 0.46148 0.52872 0.07204
 C259 C 0.47639 0.54458 0.07667
 C260 C 0.48056 0.56093 0.06369
 H261 H 0.44179 0.56213 -0.00237
 H262 H 0.48622 0.58993 0.03692
 H263 H 0.42266 0.53056 0.00584
 H264 H 0.43305 0.50068 0.05979
 H265 H 0.45760 0.51629 0.08206
 H266 H 0.49193 0.57324 0.06722
 C267 C 0.55889 -0.04590 0.02181
 C268 C 0.55631 -0.06189 0.00860
 C269 C 0.54127 -0.07815 0.01192
 C270 C 0.52886 -0.07842 0.02890
 C271 C 0.53131 -0.06250 0.04230
 C272 C 0.54642 -0.04618 0.03876
 C273 C 0.57379 -0.02962 0.01831
 C274 C 0.57663 -0.01366 0.03157
 C275 C 0.56402 -0.01389 0.04842
 C276 C 0.54899 -0.03010 0.05211
 C277 C 0.53642 -0.03042 0.06890
 C278 C 0.52146 -0.04677 0.07266
 C279 C 0.51894 -0.06263 0.05920
 H280 H 0.56597 -0.06164 -0.00441
 H281 H 0.51756 -0.09109 0.03196
 H282 H 0.58338 -0.02945 0.00525
 H283 H 0.56558 -0.00140 0.05856
 H284 H 0.53812 -0.01769 0.07876
 H285 H 0.50732 -0.07515 0.06195
 C286 C 1.05482 0.45657 0.52580
 C287 C 1.05153 0.44012 0.51302
 C288 C 1.03577 0.42444 0.51696
 C289 C 1.02350 0.42552 0.53394
 C290 C 1.02662 0.44177 0.54676
 C291 C 1.04226 0.45740 0.54270
 C292 C 1.07035 0.47230 0.52187
 C293 C 1.07350 0.48877 0.53470
 C294 C 1.06079 0.48944 0.55141
 C295 C 1.04526 0.47390 0.55553
 C296 C 1.03264 0.47466 0.57228
 C297 C 1.01689 0.45913 0.57631
 C298 C 1.01418 0.44266 0.56356
 H299 H 1.06119 0.43994 0.50009
 H300 H 1.01132 0.41363 0.53723
 H301 H 1.07957 0.47181 0.50869
 H302 H 1.06306 0.50214 0.56128
 H303 H 1.03541 0.48716 0.58220
 H304 H 1.00212 0.43061 0.56664
 C305 C 0.43229 -0.00012 0.22919
 H306 H 0.43318 0.01383 0.23768
 C307 C 0.44690 -0.00286 0.21414
 H308 H 0.45903 0.00909 0.21108
 C309 C 0.41540 -0.03266 0.22296
 H310 H 0.40332 -0.04439 0.22663
 C311 C 0.42965 -0.03600 0.20771
 H312 H 0.42836 -0.05043 0.19997
 N313 N 0.41671 -0.01476 0.23310
 C314 C 0.36432 0.01923 0.25985
 H315 H 0.36229 0.01084 0.27317
 C316 C 0.35073 0.03562 0.25562
 H317 H 0.33820 0.03947 0.26579
 C318 C 0.38255 0.02341 0.23014
 H319 H 0.39467 0.01838 0.22007
 C320 C 0.36931 0.03982 0.22532
 H321 H 0.37158 0.04743 0.21162
 Zn322 Zn 0.39736 -0.00924 0.25349
 N323 N 0.38000 0.01362 0.24726
 C324 C 0.41211 0.01488 0.28463
 N325 N 0.41401 -0.00332 0.27507
 C326 C 0.42832 -0.01784 0.28040
 C327 C 0.44090 -0.01466 0.29632
 C328 C 0.42442 0.01876 0.30064
 C329 C 0.36459 -0.03807 0.24488
 C330 C 0.35020 -0.05480 0.24797
 C331 C 0.36494 -0.05941 0.27914
 C332 C 0.37897 -0.04259 0.27544
 N333 N 0.37874 -0.03244 0.25845
 H334 H 0.40103 0.02645 0.27991
 H335 H 0.42976 -0.03204 0.27235
 H336 H 0.45197 -0.02663 0.30039
 H337 H 0.42214 0.03333 0.30786
 H338 H 0.36450 -0.02950 0.23160
 H339 H 0.33941 -0.05873 0.23671
 H340 H 0.36553 -0.06725 0.29279
 H341 H 0.38989 -0.03760 0.28627
 C342 C 0.35328 0.04625 0.23816
 C343 C 0.44546 -0.02079 0.20297
 C344 C 0.35024 -0.06584 0.26537
 C345 C 0.43902 0.00375 0.30685
 C346 C 0.08332 -0.00255 0.71360
 H347 H 0.08054 -0.01720 0.72101
 C348 C 0.07035 0.00288 0.69848
 H349 H 0.05744 -0.00767 0.69467
 C350 C 0.10314 0.02919 0.71037
 H351 H 0.11572 0.03955 0.71519
 C352 C 0.09055 0.03524 0.69519
 H353 H 0.09374 0.05016 0.68833
 N354 N 0.09962 0.01037 0.71898
 C355 C 0.14516 -0.03135 0.74503
 H356 H 0.14672 -0.02429 0.75885
 C357 C 0.15683 -0.04906 0.74050
 H358 H 0.16695 -0.05551 0.75123
 C359 C 0.12964 -0.03125 0.71464
 H360 H 0.11931 -0.02411 0.70445
 C361 C 0.14106 -0.04891 0.70948
 H362 H 0.13919 -0.05529 0.69540
 Zn363 Zn 0.11678 0.00137 0.73926
 N364 N 0.13171 -0.02295 0.73224
 C365 C 0.09686 -0.02282 0.76928
 N366 N 0.09810 -0.00391 0.76048
 C367 C 0.08566 0.01203 0.76639
 C368 C 0.07187 0.00956 0.78217
 C369 C 0.08322 -0.02603 0.78513
 C370 C 0.15260 0.02764 0.73174
 C371 C 0.16805 0.04310 0.73532
 C372 C 0.15297 0.04640 0.76703
 C373 C 0.13778 0.03092 0.76278
 N374 N 0.13761 0.02214 0.74527
 H375 H 0.10646 -0.03548 0.76408
 H376 H 0.08671 0.02683 0.75895
 H377 H 0.06238 0.02266 0.78673
 H378 H 0.08299 -0.04123 0.79177
 H379 H 0.15237 0.02015 0.71803
 H380 H 0.17961 0.04739 0.72417
 H381 H 0.15222 0.05301 0.78106
 H382 H 0.12615 0.02596 0.77356
 C383 C 0.15495 -0.05805 0.72242
 C384 C 0.07417 0.02188 0.68883
 C385 C 0.16838 0.05291 0.75312
 C386 C 0.07056 -0.00959 0.79196
 C387 C 0.57645 0.49571 0.22546
 H388 H 0.57631 0.48250 0.23508
 C389 C 0.56164 0.49652 0.21089
 H390 H 0.55009 0.48384 0.20936
 C391 C 0.59188 0.52816 0.21571
 H392 H 0.60366 0.54049 0.21765
 C393 C 0.57733 0.52963 0.20094
 H394 H 0.57861 0.54296 0.19151
 N395 N 0.59142 0.51120 0.22739
 C396 C 0.64488 0.48067 0.25438
 H397 H 0.64683 0.49024 0.26683
 C398 C 0.65889 0.46433 0.25089
 H399 H 0.67163 0.46168 0.26074
 C400 C 0.62649 0.47356 0.22598
 H401 H 0.61421 0.47748 0.21605
 C402 C 0.64013 0.45713 0.22192
 H403 H 0.63798 0.44837 0.20899
 Zn404 Zn 0.61144 0.50807 0.24703
 N405 N 0.62895 0.48485 0.24208
 C406 C 0.59734 0.48689 0.28089
 N407 N 0.59548 0.50434 0.27007
 C408 C 0.58151 0.51945 0.27506
 C409 C 0.56913 0.51761 0.29177
 C410 C 0.58522 0.48434 0.29772
 C411 C 0.64336 0.53606 0.23331
 C412 C 0.65819 0.55263 0.23396
 C413 C 0.64575 0.55969 0.26596
 C414 C 0.63112 0.54303 0.26463
 N415 N 0.63009 0.53167 0.24845
 H416 H 0.60815 0.47481 0.27647
 H417 H 0.58009 0.53303 0.26603
 H418 H 0.55825 0.52999 0.29547
 H419 H 0.58740 0.47027 0.30585
 H420 H 0.64251 0.52652 0.22073
 H421 H 0.66858 0.55576 0.22167
 H422 H 0.64584 0.56819 0.27911
 H423 H 0.62084 0.53901 0.27671
 C424 C 0.65651 0.45224 0.23446
 C425 C 0.56197 0.51358 0.19835
 C426 C 0.65974 0.56471 0.25047
 C427 C 0.57083 0.49992 0.30349
 C428 C 0.90927 0.51265 0.72264
 H429 H 0.91000 0.52582 0.73212
 C430 C 0.92318 0.51188 0.70687
 H431 H 0.93459 0.52458 0.70423
 C432 C 0.89358 0.48003 0.71474
 H433 H 0.88217 0.46755 0.71795
 C434 C 0.90724 0.47860 0.69880
 H435 H 0.90562 0.46518 0.68974
 N436 N 0.89471 0.49698 0.72616
 C437 C 0.84484 0.52631 0.76048
 H438 H 0.84454 0.51626 0.77288
 C439 C 0.83058 0.54275 0.75937
 H440 H 0.81935 0.54536 0.77105
 C441 C 0.85959 0.53484 0.73004
 H442 H 0.87071 0.53156 0.71852
 C443 C 0.84559 0.55144 0.72833
 H444 H 0.84670 0.56101 0.71564
 Zn445 Zn 0.87699 0.49944 0.74814
 N446 N 0.85905 0.52274 0.74598
 C447 C 0.89528 0.51959 0.78003
 N448 N 0.89553 0.50239 0.76891
 C449 C 0.90975 0.48698 0.77181
 C450 C 0.92412 0.48823 0.78671
 C451 C 0.90945 0.52157 0.79506
 C452 C 0.84418 0.47137 0.73805
 C453 C 0.82974 0.45458 0.74035
 C454 C 0.84520 0.44730 0.77080
 C455 C 0.85940 0.46417 0.76784
 N456 N 0.85875 0.47572 0.75162
 H457 H 0.88419 0.53190 0.77723
 H458 H 0.90984 0.47362 0.76254
 H459 H 0.93517 0.47562 0.78878
 H460 H 0.90846 0.53542 0.80357
 H461 H 0.84371 0.48106 0.72544
 H462 H 0.81830 0.45144 0.72930
 H463 H 0.84651 0.43861 0.78387
 H464 H 0.87070 0.46818 0.77870
 C465 C 0.83066 0.55543 0.74308
 C466 C 0.92238 0.49467 0.69477
 C467 C 0.82994 0.44227 0.75695
 C468 C 0.92421 0.50567 0.79864
 C469 C 0.21646 0.39563 0.01957
 H470 H 0.22533 0.39502 0.03259
 C471 C 0.20091 0.41074 0.01716
 H472 H 0.19781 0.42168 0.02848
 C473 C 0.21016 0.38238 -0.01115
 H474 H 0.21417 0.37164 -0.02234
 C475 C 0.19451 0.39728 -0.01419
 H476 H 0.18686 0.39762 -0.02780
 N477 N 0.22060 0.38168 0.00560
 C478 C 0.24949 0.32914 0.03435
 H479 H 0.26377 0.32751 0.02549
 C480 C 0.24565 0.31561 0.04970
 H481 H 0.25700 0.30344 0.05223
 C482 C 0.21707 0.34666 0.04102
 H483 H 0.20584 0.35860 0.03745
 C484 C 0.21259 0.33347 0.05652
 H485 H 0.19799 0.33553 0.06489
 Zn486 Zn 0.24261 0.36229 0.00969
 N487 N 0.23549 0.34452 0.03053
 C488 C 0.27777 0.37599 0.03172
 N489 N 0.26802 0.37783 0.01472
 C490 C 0.27539 0.39176 0.00139
 C491 C 0.29348 0.40433 0.00474
 C492 C 0.29582 0.38829 0.03574
 C493 C 0.22970 0.33245 -0.01658
 C494 C 0.23158 0.31902 -0.03199
 C495 C 0.26815 0.33145 -0.03709
 C496 C 0.26551 0.34469 -0.02159
 N497 N 0.24645 0.34510 -0.01181
 H498 H 0.27136 0.36527 0.04239
 H499 H 0.26704 0.39323 -0.01186
 H500 H 0.29855 0.41525 -0.00625
 H501 H 0.30320 0.38658 0.04945
 H502 H 0.21483 0.33283 -0.00836
 H503 H 0.21792 0.30918 -0.03552
 H504 H 0.28357 0.33178 -0.04439
 H505 H 0.27882 0.35448 -0.01729
 C506 C 0.22714 0.31794 0.06124
 C507 C 0.18959 0.41166 0.00018
 C508 C 0.25097 0.31829 -0.04257
 C509 C 0.30403 0.40275 0.02222
 C510 C 0.73012 0.10761 0.00785
 H511 H 0.73888 0.10631 -0.00551
 C512 C 0.71224 0.09468 0.01169
 H513 H 0.70769 0.08332 0.00120
 C514 C 0.72652 0.12332 0.03806
 H515 H 0.73239 0.13417 0.04847
 C516 C 0.70857 0.11067 0.04251
 H517 H 0.70061 0.11210 0.05626
 N518 N 0.73672 0.12175 0.02086
 C519 C 0.77276 0.16805 -0.01323
 H520 H 0.78796 0.16823 -0.00606
 C521 C 0.77001 0.18076 -0.02912
 H522 H 0.78324 0.19068 -0.03415
 C523 C 0.73706 0.15495 -0.01525
 H524 H 0.72412 0.14512 -0.00963
 C525 C 0.73357 0.16745 -0.03115
 H526 H 0.71788 0.16686 -0.03737
 Zn527 Zn 0.76160 0.13796 0.01447
 N528 N 0.75653 0.15518 -0.00685
 C529 C 0.79393 0.11878 -0.00835
 N530 N 0.78375 0.11902 0.00893
 C531 C 0.78818 0.10478 0.02257
 C532 C 0.80361 0.08970 0.01921
 C533 C 0.80951 0.10396 -0.01235
 C534 C 0.75494 0.17004 0.04046
 C535 C 0.75926 0.18293 0.05585
 C536 C 0.79334 0.16604 0.05909
 C537 C 0.78829 0.15343 0.04368
 N538 N 0.76917 0.15537 0.03495
 H539 H 0.78978 0.12985 -0.01921
 H540 H 0.77956 0.10507 0.03608
 H541 H 0.80679 0.07852 0.03036
 H542 H 0.81705 0.10436 -0.02630
 H543 H 0.74003 0.17151 0.03299
 H544 H 0.74734 0.19420 0.05972
 H545 H 0.80858 0.16400 0.06596
 H546 H 0.79967 0.14207 0.03879
 C547 C 0.75032 0.18042 -0.03847
 C548 C 0.70107 0.09629 0.02919
 C549 C 0.77865 0.18087 0.06565
 C550 C 0.81457 0.08902 0.00156
 C551 C 0.23271 0.60347 0.48043
 H552 H 0.24357 0.60412 0.46822
 C553 C 0.21681 0.58785 0.48182
 H554 H 0.21542 0.57654 0.47056
 C555 C 0.22170 0.61715 0.51016
 H556 H 0.22399 0.62826 0.52141
 C557 C 0.20557 0.60181 0.51213
 H558 H 0.19581 0.60139 0.52502
 N559 N 0.23470 0.61786 0.49438
 C560 C 0.26694 0.67173 0.46756
 H561 H 0.28021 0.67396 0.47705
 C562 C 0.26446 0.68537 0.45227
 H563 H 0.27597 0.69806 0.45000
 C564 C 0.23563 0.65264 0.45920
 H565 H 0.22416 0.64015 0.46218
 C566 C 0.23255 0.66589 0.44372
 H567 H 0.21857 0.66337 0.43513
 Zn568 Zn 0.25725 0.63800 0.49174
 N569 N 0.25280 0.65558 0.47056
 C570 C 0.29594 0.62626 0.47273
 N571 N 0.28313 0.62325 0.48843
 C572 C 0.28774 0.60862 0.50168
 C573 C 0.30586 0.59629 0.49947
 C574 C 0.31428 0.61439 0.46997
 C575 C 0.24132 0.66758 0.51711
 C576 C 0.24139 0.68097 0.53264
 C577 C 0.27678 0.66902 0.54017
 C578 C 0.27596 0.65580 0.52451
 N579 N 0.25835 0.65519 0.51346
 H580 H 0.29181 0.63763 0.46212
 H581 H 0.27712 0.60637 0.51393
 H582 H 0.30880 0.58492 0.51041
 H583 H 0.32414 0.61703 0.45726
 H584 H 0.22764 0.66704 0.50790
 H585 H 0.22755 0.69060 0.53527
 H586 H 0.29109 0.66878 0.54853
 H587 H 0.28952 0.64615 0.52115
 C588 C 0.24728 0.68238 0.43996
 C589 C 0.20284 0.58699 0.49772
 C590 C 0.25927 0.68194 0.54450
 C591 C 0.31945 0.59895 0.48328
 C592 C 0.70984 0.89394 0.50665
 H593 H 0.71810 0.89443 0.52001
 C594 C 0.69271 0.90721 0.50352
 H595 H 0.68778 0.91751 0.51479
 C596 C 0.70645 0.87964 0.47593
 H597 H 0.71207 0.86922 0.46503
 C598 C 0.68929 0.89258 0.47221
 H599 H 0.68173 0.89175 0.45851
 N600 N 0.71625 0.88039 0.49299
 C601 C 0.75014 0.83089 0.52175
 H602 H 0.76446 0.83066 0.51276
 C603 C 0.74789 0.81710 0.53707
 H604 H 0.76059 0.80625 0.53978
 C605 C 0.71635 0.84550 0.52912
 H606 H 0.70407 0.85656 0.52593
 C607 C 0.71342 0.83195 0.54465
 H608 H 0.69894 0.83314 0.55327
 Zn609 Zn 0.74021 0.86345 0.49759
 N610 N 0.73467 0.84496 0.51826
 C611 C 0.77331 0.87996 0.52027
 N612 N 0.76379 0.88133 0.50314
 C613 C 0.77021 0.89605 0.49014
 C614 C 0.78725 0.90981 0.49394
 C615 C 0.79031 0.89339 0.52471
 C616 C 0.73114 0.83243 0.47143
 C617 C 0.73409 0.81989 0.45554
 C618 C 0.76864 0.83681 0.44972
 C619 C 0.76496 0.84908 0.46576
 N620 N 0.74629 0.84693 0.47603
 H621 H 0.76762 0.86861 0.53068
 H622 H 0.76203 0.89711 0.47678
 H623 H 0.79176 0.92121 0.48318
 H624 H 0.79760 0.89191 0.53848
 H625 H 0.71657 0.83082 0.48003
 H626 H 0.72158 0.80866 0.45207
 H627 H 0.78358 0.83925 0.44188
 H628 H 0.77705 0.86034 0.46991
 C629 C 0.72945 0.81756 0.54886
 C630 C 0.68227 0.90669 0.48600
 C631 C 0.75293 0.82202 0.44426
 C632 C 0.79766 0.90857 0.51151
 C633 C 0.00896 0.22778 0.40718
 H634 H 0.02433 0.23582 0.40815
 C635 C 0.00335 0.21192 0.42014
 H636 H 0.01456 0.20822 0.43109
 C637 C -0.02447 0.22385 0.39203
 H638 H -0.03540 0.22873 0.38125
 C639 C -0.03072 0.20789 0.40467
 H640 H -0.04640 0.20049 0.40334
 N641 N -0.00478 0.23322 0.39333
 C642 C 0.03496 0.25976 0.34715
 H643 H 0.02745 0.27466 0.34527
 C644 C 0.05210 0.25417 0.33522
 H645 H 0.05734 0.26493 0.32413
 C646 C 0.03623 0.22747 0.36349
 H647 H 0.02981 0.21695 0.37431
 C648 C 0.05340 0.22126 0.35192
 H649 H 0.06016 0.20604 0.35411
 Zn650 Zn 0.00414 0.25504 0.37655
 N651 N 0.02758 0.24656 0.36110
 C652 C 0.03176 0.28766 0.38966
 N653 N 0.01218 0.27804 0.39167
 C654 C -0.00229 0.28415 0.40512
 C655 C 0.00249 0.30076 0.41707
 C656 C 0.03722 0.30443 0.40125
 C657 C -0.02510 0.24822 0.34735
 C658 C -0.04165 0.25289 0.33501
 C659 C -0.04400 0.28678 0.34948
 C660 C -0.02738 0.28146 0.36146
 N661 N -0.01848 0.26234 0.36037
 H662 H 0.04323 0.28234 0.37914
 H663 H -0.01767 0.27607 0.40652
 H664 H -0.00972 0.30510 0.42731
 H665 H 0.05290 0.31188 0.39933
 H666 H -0.01752 0.23322 0.34662
 H667 H -0.04648 0.24107 0.32508
 H668 H -0.05091 0.30208 0.35075
 H669 H -0.02162 0.29267 0.37159
 C670 C 0.06172 0.23472 0.33770
 C671 C -0.01668 0.20155 0.41882
 C672 C -0.05149 0.27247 0.33600
 C673 C 0.02260 0.31125 0.41528
 C674 C -0.00495 0.71644 0.08502
 H675 H -0.01968 0.72471 0.08283
 C676 C -0.00025 0.69903 0.07407
 H677 H -0.01182 0.69386 0.06380
 C678 C 0.02760 0.71317 0.10152
 H679 H 0.03859 0.71891 0.11201
 C680 C 0.03294 0.69568 0.09087
 H681 H 0.04796 0.68799 0.09340
 N682 N 0.00883 0.72307 0.09852
 C683 C -0.03119 0.75830 0.13799
 H684 H -0.02254 0.77308 0.13787
 C685 C -0.04938 0.75539 0.14977
 H686 H -0.05476 0.76828 0.15830
 C687 C -0.03454 0.72377 0.12667
 H688 H -0.02850 0.71133 0.11795
 C689 C -0.05280 0.72021 0.13820
 H690 H -0.06078 0.70507 0.13807
 Zn691 Zn 0.00140 0.74733 0.11206
 N692 N -0.02419 0.74262 0.12670
 C693 C -0.02091 0.77894 0.09234
 N694 N -0.00209 0.76872 0.09382
 C695 C 0.01469 0.77278 0.08161
 C696 C 0.01312 0.78792 0.06743
 C697 C -0.02323 0.79423 0.07835
 C698 C 0.02725 0.74111 0.14341
 C699 C 0.04329 0.74547 0.15643
 C700 C 0.05046 0.77820 0.14016
 C701 C 0.03432 0.77314 0.12743
 N702 N 0.02333 0.75470 0.12909
 H703 H -0.03425 0.77515 0.10189
 H704 H 0.02936 0.76417 0.08290
 H705 H 0.02680 0.79088 0.05794
 H706 H -0.03847 0.80189 0.07779
 H707 H 0.01795 0.72674 0.14461
 H708 H 0.04578 0.73410 0.16747
 H709 H 0.05911 0.79293 0.13844
 H710 H 0.03060 0.78401 0.11626
 C711 C -0.06031 0.73601 0.15012
 C712 C 0.01907 0.68853 0.07680
 C713 C 0.05538 0.76425 0.15485
 C714 C -0.00600 0.79899 0.06556
 C715 C 0.49557 0.22736 0.60214
 H716 H 0.48086 0.23594 0.60105
 C717 C 0.50005 0.21151 0.58928
 H718 H 0.48867 0.20835 0.57826
 C719 C 0.52852 0.22210 0.61752
 H720 H 0.53973 0.22647 0.62835
 C721 C 0.53363 0.20610 0.60498
 H722 H 0.54871 0.19816 0.60642
 N723 N 0.50960 0.23216 0.61605
 C724 C 0.47118 0.25998 0.66130
 H725 H 0.47956 0.27479 0.66272
 C726 C 0.45367 0.25495 0.67332
 H727 H 0.44854 0.26631 0.68363
 C728 C 0.46775 0.22757 0.64570
 H729 H 0.47347 0.21680 0.63512
 C730 C 0.45018 0.22190 0.65742
 H731 H 0.44240 0.20683 0.65563
 Zn732 Zn 0.50224 0.25407 0.63265
 N733 N 0.47778 0.24640 0.64776
 C734 C 0.47725 0.28713 0.61840
 N735 N 0.49657 0.27767 0.61739
 C736 C 0.51217 0.28422 0.60480
 C737 C 0.50885 0.30123 0.59282
 C738 C 0.47320 0.30418 0.60669
 C739 C 0.52968 0.24500 0.66238
 C740 C 0.54591 0.24845 0.67545
 C741 C 0.55193 0.28272 0.66175
 C742 C 0.53554 0.27860 0.64901
 N743 N 0.52494 0.25989 0.64941
 H744 H 0.46483 0.28140 0.62814
 H745 H 0.52726 0.27616 0.60407
 H746 H 0.52178 0.30580 0.58312
 H747 H 0.45767 0.31146 0.60779
 H748 H 0.52078 0.23036 0.66255
 H749 H 0.54915 0.23606 0.68533
 H750 H 0.56017 0.29774 0.66109
 H751 H 0.53124 0.29045 0.63892
 C752 C 0.44304 0.23555 0.67157
 C753 C 0.51925 0.20045 0.59075
 C754 C 0.55740 0.26762 0.67528
 C755 C 0.48906 0.31158 0.59364
 C756 C 0.49842 0.72208 0.90115
 H757 H 0.51281 0.73167 0.90242
 C758 C 0.49556 0.70423 0.91243
 H759 H 0.50813 0.70007 0.92201
 C760 C 0.46485 0.71599 0.88676
 H761 H 0.45272 0.72080 0.87701
 C762 C 0.46135 0.69801 0.89772
 H763 H 0.44660 0.68900 0.89614
 N764 N 0.48323 0.72754 0.88856
 C765 C 0.51643 0.76669 0.84597
 H766 H 0.50659 0.78038 0.84665
 C767 C 0.53323 0.76568 0.83257
 H768 H 0.53631 0.77872 0.82300
 C769 C 0.52395 0.73287 0.85734
 H770 H 0.52008 0.71999 0.86682
 C771 C 0.54093 0.73120 0.84417
 H772 H 0.55018 0.71715 0.84421
 Zn773 Zn 0.48790 0.75251 0.87455
 N774 N 0.51212 0.75044 0.85802
 C775 C 0.51046 0.78572 0.89226
 N776 N 0.49199 0.77408 0.89230
 C777 C 0.47629 0.77679 0.90571
 C778 C 0.47867 0.79196 0.91963
 C779 C 0.51357 0.80106 0.90594
 C780 C 0.46005 0.74422 0.84502
 C781 C 0.44322 0.74747 0.83265
 C782 C 0.43533 0.77926 0.84931
 C783 C 0.45230 0.77533 0.86139
 N784 N 0.46413 0.75793 0.85915
 H785 H 0.52296 0.78300 0.88174
 H786 H 0.46190 0.76707 0.90559
 H787 H 0.46587 0.79382 0.93013
 H788 H 0.52850 0.80987 0.90526
 H789 H 0.47002 0.73071 0.84333
 H790 H 0.44076 0.73613 0.82164
 H791 H 0.42615 0.79326 0.85138
 H792 H 0.45613 0.78634 0.87239
 C793 C 0.54556 0.74768 0.83135
 C794 C 0.47668 0.69204 0.91088
 C795 C 0.43047 0.76527 0.83467
 C796 C 0.49750 0.80439 0.92000
 C797 C 0.17224 0.22399 0.25495
 C798 C 0.16153 0.21138 0.26848
 C799 C 0.14368 0.21914 0.28032
 N800 N 0.13252 0.20590 0.29215
 N801 N 0.11620 0.21268 0.30284
 C802 C 0.11047 0.23296 0.30212
 N803 N 0.12169 0.24621 0.29034
 N804 N 0.13797 0.23942 0.27963
 C805 C 0.09246 0.24073 0.31376
 C806 C 0.07995 0.22763 0.32564
 H807 H 0.16565 0.19519 0.27002
 H808 H 0.08937 0.25720 0.31297
 H809 H 0.16679 0.23973 0.25279
 H810 H 0.08407 0.21135 0.32658
 C811 C 0.64530 0.70745 0.74635
 C812 C 0.63445 0.72564 0.75082
 C813 C 0.61841 0.72632 0.76647
 N814 N 0.60938 0.74464 0.77132
 N815 N 0.59480 0.74543 0.78543
 C816 C 0.58869 0.72790 0.79520
 N817 N 0.59770 0.70959 0.79033
 N818 N 0.61229 0.70880 0.77625
 C819 C 0.57241 0.72835 0.81066
 C820 C 0.56284 0.74677 0.81654
 H821 H 0.63816 0.73995 0.74313
 H822 H 0.56759 0.71360 0.81704
 H823 H 0.64235 0.69373 0.75515
 H824 H 0.56750 0.76116 0.80933
 C825 C 0.33394 0.76863 0.74341
 C826 C 0.34094 0.78131 0.75816
 C827 C 0.35772 0.77480 0.77120
 N828 N 0.36420 0.78782 0.78514
 N829 N 0.37958 0.78228 0.79691
 C830 C 0.38906 0.76350 0.79517
 N831 N 0.38256 0.75048 0.78125
 N832 N 0.36717 0.75601 0.76949
 C833 C 0.40637 0.75723 0.80778
 C834 C 0.41342 0.76988 0.82260
 H835 H 0.33462 0.79673 0.75999
 H836 H 0.41340 0.74232 0.80500
 H837 H 0.34144 0.75371 0.74137
 H838 H 0.40512 0.78435 0.82494
 C839 C -0.15460 0.28291 0.25085
 C840 C -0.14726 0.29357 0.26681
 C841 C -0.12892 0.28638 0.27780
 N842 N -0.12165 0.29802 0.29240
 N843 N -0.10518 0.29174 0.30260
 C844 C -0.09537 0.27353 0.29861
 N845 N -0.10267 0.26185 0.28402
 N846 N -0.11913 0.26816 0.27380
 C847 C -0.07725 0.26628 0.30986
 C848 C -0.06844 0.27840 0.32431
 H849 H -0.15454 0.30778 0.27153
 H850 H -0.07096 0.25123 0.30634
 H851 H -0.14584 0.26925 0.24651
 H852 H -0.07518 0.29363 0.32665
 C853 C -0.15811 0.73241 0.24550
 C854 C -0.15427 0.72168 0.22854
 C855 C -0.13628 0.72754 0.21548
 N856 N -0.13279 0.71645 0.19941
 N857 N -0.11642 0.72138 0.18760
 C858 C -0.10291 0.73761 0.19142
 N859 N -0.10644 0.74875 0.20745
 N860 N -0.12281 0.74382 0.21925
 C861 C -0.08449 0.74311 0.17875
 C862 C -0.07944 0.73163 0.16254
 H863 H -0.16419 0.70855 0.22452
 H864 H -0.07429 0.75605 0.18287
 H865 H -0.14744 0.74548 0.24847
 H866 H -0.08931 0.71807 0.15935
 C867 C 0.34550 0.22146 0.76649
 C868 C 0.34994 0.21175 0.74914
 C869 C 0.36814 0.21866 0.73675
 N870 N 0.37169 0.20929 0.71978
 N871 N 0.38811 0.21541 0.70847
 C872 C 0.40159 0.23114 0.71372
 N873 N 0.39804 0.24049 0.73067
 N874 N 0.38164 0.23438 0.74197
 C875 C 0.41986 0.23814 0.70151
 C876 C 0.42450 0.22908 0.68397
 H877 H 0.34011 0.19899 0.74414
 H878 H 0.43010 0.25043 0.70687
 H879 H 0.35598 0.23436 0.77034
 H880 H 0.41461 0.21604 0.67942
 C881 C 0.65337 0.27099 0.76735
 C882 C 0.64812 0.28271 0.75132
 C883 C 0.63055 0.27648 0.73875
 N884 N 0.62537 0.28905 0.72405
 N885 N 0.60953 0.28371 0.71252
 C886 C 0.59829 0.26556 0.71523
 N887 N 0.60350 0.25295 0.72991
 N888 N 0.61932 0.25831 0.74146
 C889 C 0.58074 0.25939 0.70261
 C890 C 0.57399 0.27240 0.68794
 H891 H 0.65654 0.29708 0.74768
 H892 H 0.57311 0.24441 0.70538
 H893 H 0.64368 0.25711 0.77041
 H894 H 0.58206 0.28744 0.68631
 C895 C 0.15600 0.76790 0.24266
 C896 C 0.14796 0.78127 0.22891
 C897 C 0.13009 0.77493 0.21673
 N898 N 0.12294 0.78827 0.20335
 N899 N 0.10680 0.78270 0.19222
 C900 C 0.09720 0.76359 0.19407
 N901 N 0.10433 0.75029 0.20747
 N902 N 0.12047 0.75584 0.21858
 C903 C 0.07940 0.75706 0.18189
 C904 C 0.07206 0.76970 0.16721
 H905 H 0.15447 0.79690 0.22710
 H906 H 0.07252 0.74177 0.18464
 H907 H 0.14838 0.75270 0.24459
 H908 H 0.08006 0.78470 0.16501
 C909 C 0.26259 0.15286 0.23358
 C910 C 0.27483 0.14099 0.22099
 C911 C 0.28816 0.12375 0.22745
 N912 N 0.29961 0.11267 0.21455
 N913 N 0.31185 0.09708 0.22012
 C914 C 0.31310 0.09198 0.23881
 N915 N 0.30163 0.10305 0.25172
 N916 N 0.28939 0.11865 0.24615
 C917 C 0.32659 0.07482 0.24519
 C918 C 0.33927 0.06352 0.23249
 H919 H 0.27447 0.14399 0.20588
 H920 H 0.32680 0.07150 0.26025
 H921 H 0.26226 0.14867 0.24852
 H922 H 0.33955 0.06800 0.21762
 C923 C 0.74063 0.65414 0.70570
 C924 C 0.74702 0.64501 0.72267
 C925 C 0.76333 0.62876 0.72317
 N926 N 0.76918 0.62066 0.74010
 N927 N 0.78379 0.60581 0.74082
 C928 C 0.79310 0.59851 0.72463
 N929 N 0.78728 0.60663 0.70771
 N930 N 0.77266 0.62147 0.70698
 C931 C 0.80912 0.58198 0.72514
 C932 C 0.81515 0.57259 0.74210
 H933 H 0.74030 0.65007 0.73611
 H934 H 0.81569 0.57678 0.71169
 H935 H 0.74865 0.64978 0.69255
 H936 H 0.80739 0.57734 0.75526
 C937 C 0.74645 0.33658 0.79810
 C938 C 0.75009 0.34770 0.78117
 C939 C 0.76619 0.36476 0.77967
 N940 N 0.76891 0.37557 0.76313
 N941 N 0.78352 0.39098 0.76158
 C942 C 0.79598 0.39611 0.77651
 N943 N 0.79328 0.38527 0.79302
 N944 N 0.77866 0.36991 0.79458
 C945 C 0.81225 0.41302 0.77516
 C946 C 0.81485 0.42571 0.75899
 H947 H 0.74145 0.34371 0.76852
 H948 H 0.82185 0.41546 0.78755
 H949 H 0.75602 0.34065 0.81024
 H950 H 0.80418 0.42278 0.74730
 C951 C 0.24999 -0.16683 0.26838
 C952 C 0.26706 -0.15973 0.27942
 C953 C 0.28084 -0.14179 0.27364
 N954 N 0.29660 -0.13506 0.28525
 N955 N 0.30924 -0.11887 0.28029
 C956 C 0.30663 -0.10879 0.26350
 N957 N 0.29090 -0.11554 0.25186
 N958 N 0.27823 -0.13173 0.25684
 C959 C 0.32049 -0.09085 0.25780
 C960 C 0.33634 -0.08287 0.26971
 H961 H 0.27065 -0.16702 0.29280
 H962 H 0.31772 -0.08402 0.24405
 H963 H 0.24710 -0.15835 0.25534
 H964 H 0.33795 -0.09036 0.28344
 C965 C 0.24566 -0.16433 0.71419
 C966 C 0.22992 -0.15585 0.70270
 C967 C 0.21770 -0.13755 0.70893
 N968 N 0.20184 -0.12998 0.69806
 N969 N 0.19089 -0.11335 0.70358
 C970 C 0.19545 -0.10366 0.72016
 N971 N 0.21130 -0.11121 0.73098
 N972 N 0.22220 -0.12783 0.72548
 C973 C 0.18376 -0.08519 0.72657
 C974 C 0.16689 -0.07680 0.71646
 H975 H 0.22629 -0.16233 0.68901
 H976 H 0.18907 -0.07802 0.73952
 H977 H 0.24794 -0.15714 0.72790
 H978 H 0.16248 -0.08406 0.70322
 C979 C 0.75239 0.34976 0.23224
 C980 C 0.73941 0.36038 0.21964
 C981 C 0.72541 0.37741 0.22569
 N982 N 0.71310 0.38698 0.21274
 N983 N 0.70016 0.40230 0.21792
 C984 C 0.69902 0.40862 0.23627
 N985 N 0.71137 0.39907 0.24924
 N986 N 0.72432 0.38372 0.24406
 C987 C 0.68476 0.42552 0.24218
 C988 C 0.67111 0.43508 0.22943
 H989 H 0.73956 0.35645 0.20474
 H990 H 0.68482 0.43007 0.25693
 H991 H 0.75299 0.35490 0.24684
 H992 H 0.67066 0.42935 0.21501
 C993 C 0.74827 0.66842 0.28264
 C994 C 0.74371 0.65721 0.26623
 C995 C 0.72703 0.64058 0.26629
 N996 N 0.72313 0.62971 0.25023
 N997 N 0.70800 0.61471 0.25015
 C998 C 0.69619 0.61008 0.26615
 N999 N 0.70009 0.62097 0.28218
 N1000 N 0.71521 0.63592 0.28225
 C1001 C 0.67940 0.59359 0.26650
 C1002 C 0.67526 0.58100 0.25080
 H1003 H 0.75202 0.66078 0.25294
 H1004 H 0.67062 0.59142 0.27977
 H1005 H 0.73905 0.66466 0.29548
 H1006 H 0.68500 0.58379 0.23804
 C1007 C 0.25030 0.15622 0.79756
 C1008 C 0.24708 0.14593 0.78039
 C1009 C 0.23135 0.12864 0.77864
 N1010 N 0.22911 0.11899 0.76170
 N1011 N 0.21491 0.10337 0.75983
 C1012 C 0.20241 0.09683 0.77485
 N1013 N 0.20465 0.10649 0.79179
 N1014 N 0.21887 0.12209 0.79367
 C1015 C 0.18640 0.07979 0.77303
 C1016 C 0.18389 0.06880 0.75608
 H1017 H 0.25588 0.15072 0.76766
 H1018 H 0.17660 0.07618 0.78550
 H1019 H 0.24045 0.15157 0.80980
 H1020 H 0.19467 0.07293 0.74429
 C1021 C 0.23475 0.23581 0.16423
 C1022 C 0.21922 0.24692 0.15461
 C1023 C 0.22413 0.25844 0.13687
 N1024 N 0.20830 0.26875 0.12806
 N1025 N 0.21252 0.27965 0.11220
 C1026 C 0.23275 0.28066 0.10458
 N1027 N 0.24857 0.27029 0.11336
 N1028 N 0.24435 0.25939 0.12922
 C1029 C 0.23782 0.29296 0.08730
 C1030 C 0.22233 0.30449 0.07805
 H1031 H 0.20284 0.24715 0.16006
 H1032 H 0.25438 0.29344 0.08232
 H1033 H 0.25064 0.23449 0.15781
 H1034 H 0.20611 0.30454 0.08397
 C1035 C 0.69347 0.74290 0.65347
 C1036 C 0.71136 0.74688 0.64158
 C1037 C 0.71073 0.76084 0.62496
 N1038 N 0.72872 0.76392 0.61401
 N1039 N 0.72854 0.77640 0.59885
 C1040 C 0.71034 0.78629 0.59402
 N1041 N 0.69232 0.78322 0.60498
 N1042 N 0.69249 0.77071 0.62016
 C1043 C 0.71002 0.80025 0.57734
 C1044 C 0.72815 0.80326 0.56550
 H1045 H 0.72660 0.73991 0.64457
 H1046 H 0.69520 0.80803 0.57448
 H1047 H 0.67878 0.75113 0.65090
 H1048 H 0.74241 0.79454 0.56857
 C1049 C 0.79151 0.75781 0.33741
 C1050 C 0.77364 0.75939 0.34962
 C1051 C 0.77366 0.77252 0.36665
 N1052 N 0.75590 0.77284 0.37815
 N1053 N 0.75555 0.78454 0.39369
 C1054 C 0.77295 0.79638 0.39832
 N1055 N 0.79072 0.79609 0.38679
 N1056 N 0.79109 0.78436 0.37126
 C1057 C 0.77267 0.80954 0.41538
 C1058 C 0.75499 0.80944 0.42805
 H1059 H 0.75886 0.75104 0.34665
 H1060 H 0.78670 0.81926 0.41767
 H1061 H 0.80568 0.76731 0.34012
 H1062 H 0.74171 0.79889 0.42503
 C1063 C 0.29004 0.24463 -0.14370
 C1064 C 0.27181 0.24652 -0.13196
 C1065 C 0.27157 0.26071 -0.11561
 N1066 N 0.25337 0.26271 -0.10486
 N1067 N 0.25291 0.27570 -0.09018
 C1068 C 0.27065 0.28717 -0.08571
 N1069 N 0.28884 0.28513 -0.09644
 N1070 N 0.28930 0.27215 -0.11110
 C1071 C 0.27050 0.30176 -0.06967
 C1072 C 0.25226 0.30448 -0.05801
 H1073 H 0.25712 0.23807 -0.13504
 H1074 H 0.28527 0.31033 -0.06732
 H1075 H 0.30413 0.25411 -0.14066
 H1076 H 0.23805 0.29520 -0.06111
 C1077 C 0.70820 0.24494 -0.14451
 C1078 C 0.72642 0.24392 -0.13331
 C1079 C 0.72726 0.23062 -0.11626
 N1080 N 0.74515 0.23098 -0.10559
 N1081 N 0.74621 0.21918 -0.09002
 C1082 C 0.72942 0.20655 -0.08455
 N1083 N 0.71153 0.20616 -0.09524
 N1084 N 0.71045 0.21799 -0.11079
 C1085 C 0.73039 0.19331 -0.06744
 C1086 C 0.74809 0.19381 -0.05556
 H1087 H 0.74076 0.25291 -0.13707
 H1088 H 0.71686 0.18292 -0.06452
 H1089 H 0.69452 0.23484 -0.14099
 H1090 H 0.76140 0.20431 -0.05923
 C1091 C 0.21492 0.74287 0.32951
 C1092 C 0.22643 0.74804 0.34567
 C1093 C 0.22809 0.73348 0.36180
 N1094 N 0.23923 0.73921 0.37733
 N1095 N 0.24090 0.72617 0.39201
 C1096 C 0.23149 0.70692 0.39168
 N1097 N 0.22034 0.70121 0.37616
 N1098 N 0.21868 0.71423 0.36149
 C1099 C 0.23315 0.69227 0.40772
 C1100 C 0.24502 0.69697 0.42378
 H1101 H 0.23410 0.76320 0.34690
 H1102 H 0.22524 0.67722 0.40644
 H1103 H 0.20648 0.72797 0.32922
 H1104 H 0.25385 0.71166 0.42417
 C1105 C 0.28708 0.75322 0.64917
 C1106 C 0.27017 0.75172 0.63651
 C1107 C 0.27167 0.73838 0.61958
 N1108 N 0.25465 0.73610 0.60799
 N1109 N 0.25578 0.72364 0.59294
 C1110 C 0.27398 0.71299 0.58895
 N1111 N 0.29098 0.71535 0.60050
 N1112 N 0.28985 0.72779 0.61551
 C1113 C 0.27559 0.69881 0.57266
 C1114 C 0.25878 0.69567 0.56004
 H1115 H 0.25525 0.75959 0.63937
 H1116 H 0.29059 0.69084 0.57092
 H1117 H 0.30138 0.74435 0.64619
 H1118 H 0.24433 0.70455 0.56239
 C1119 C 0.77919 0.26336 0.16662
 C1120 C 0.79349 0.25037 0.15708
 C1121 C 0.78748 0.23923 0.13972
 N1122 N 0.80171 0.22645 0.13106
 N1123 N 0.79645 0.21624 0.11537
 C1124 C 0.77676 0.21846 0.10774
 N1125 N 0.76256 0.23127 0.11637
 N1126 N 0.76781 0.24145 0.13206
 C1127 C 0.77051 0.20717 0.09052
 C1128 C 0.78397 0.19278 0.08168
 H1129 H 0.80964 0.24847 0.16206
 H1130 H 0.75467 0.21016 0.08532
 H1131 H 0.76347 0.26557 0.16069
 H1132 H 0.79948 0.19025 0.08793
 C1133 C 0.48821 0.41302 0.50685
 C1134 C 0.47453 0.40485 0.52115
 C1135 C 0.48094 0.38763 0.53358
 N1136 N 0.46676 0.37956 0.54671
 N1137 N 0.47222 0.36379 0.55789
 C1138 C 0.49210 0.35550 0.55636
 N1139 N 0.50629 0.36361 0.54327
 N1140 N 0.50082 0.37937 0.53209
 C1141 C 0.49839 0.33789 0.56840
 C1142 C 0.48431 0.32874 0.58198
 H1143 H 0.45839 0.41055 0.52295
 H1144 H 0.51446 0.33226 0.56614
 H1145 H 0.50383 0.40615 0.50470
 H1146 H 0.46849 0.33536 0.58359
 C1147 C -0.04185 0.90091 -0.01310
 C1148 C -0.02455 0.88767 -0.01086
 C1149 C -0.02475 0.87150 0.00410
 N1150 N -0.00717 0.85973 0.00669
 N1151 N -0.00707 0.84529 0.02038
 C1152 C -0.02458 0.84209 0.03200
 N1153 N -0.04217 0.85381 0.02936
 N1154 N -0.04225 0.86824 0.01569
 C1155 C -0.02479 0.82637 0.04735
 C1156 C -0.00697 0.81413 0.05103
 H1157 H -0.01017 0.88958 -0.01965
 H1158 H -0.03944 0.82485 0.05577
 H1159 H -0.05550 0.89925 -0.00335
 H1160 H 0.00720 0.81654 0.04199
 C1161 C 0.02947 0.59163 -0.01336
 C1162 C 0.03916 0.59553 0.00405
 C1163 C 0.03342 0.61386 0.01544
 N1164 N 0.04239 0.61704 0.03261
 N1165 N 0.03716 0.63353 0.04301
 C1166 C 0.02279 0.64745 0.03659
 N1167 N 0.01386 0.64427 0.01944
 N1168 N 0.01907 0.62781 0.00907
 C1169 C 0.01663 0.66573 0.04776
 C1170 C 0.02514 0.67009 0.06550
 H1171 H 0.05091 0.58522 0.00979
 H1172 H 0.00536 0.67618 0.04146
 H1173 H 0.01763 0.60264 -0.01795
 H1174 H 0.03739 0.66009 0.07100
 C1175 C 0.52080 0.09957 0.50342
 C1176 C 0.53481 0.10815 0.51660
 C1177 C 0.52843 0.12517 0.52929
 N1178 N 0.54304 0.13391 0.54099
 N1179 N 0.53750 0.14931 0.55258
 C1180 C 0.51711 0.15650 0.55292
 N1181 N 0.50250 0.14772 0.54124
 N1182 N 0.50805 0.13235 0.52963
 C1183 C 0.51064 0.17346 0.56563
 C1184 C 0.52511 0.18339 0.57764
 H1185 H 0.55113 0.10277 0.51739
 H1186 H 0.49397 0.17781 0.56556
 H1187 H 0.50506 0.10625 0.50199
 H1188 H 0.54150 0.17802 0.57786
 C1189 C -0.02466 0.09580 0.50271
 C1190 C -0.03830 0.10632 0.49061
 C1191 C -0.03085 0.12409 0.47875
 N1192 N -0.04496 0.13410 0.46766
 N1193 N -0.03842 0.14999 0.45657
 C1194 C -0.01749 0.15642 0.45613
 N1195 N -0.00338 0.14643 0.46724
 N1196 N -0.00993 0.13055 0.47835
 C1197 C -0.00990 0.17374 0.44376
 C1198 C -0.02371 0.18446 0.43195
 H1199 H -0.05505 0.10166 0.48984
 H1200 H 0.00709 0.17756 0.44375
 H1201 H -0.00837 0.10170 0.50430
 H1202 H -0.04048 0.17961 0.43179
 C1203 C 0.46984 0.59528 1.00316
 C1204 C 0.46120 0.59839 0.98518
 C1205 C 0.46704 0.61671 0.97335
 N1206 N 0.45781 0.61927 0.95624
 N1207 N 0.46270 0.63587 0.94543
 C1208 C 0.47703 0.65054 0.95134
 N1209 N 0.48632 0.64795 0.96843
 N1210 N 0.48141 0.63135 0.97924
 C1211 C 0.48240 0.66911 0.93971
 C1212 C 0.47243 0.67305 0.92253
 H1213 H 0.44972 0.58754 0.97932
 H1214 H 0.49389 0.68019 0.94530
 H1215 H 0.48131 0.60689 1.00801
 H1216 H 0.46008 0.66226 0.91784
 C1217 C 0.53952 0.90533 0.99744
 C1218 C 0.52176 0.89191 0.99573
 C1219 C 0.52069 0.87636 0.98050
 N1220 N 0.50289 0.86402 0.97883
 N1221 N 0.50169 0.85003 0.96499
 C1222 C 0.51825 0.84788 0.95229
 N1223 N 0.53604 0.86019 0.95399
 N1224 N 0.53724 0.87416 0.96783
 C1225 C 0.51728 0.83261 0.93684
 C1226 C 0.49942 0.81939 0.93441
 H1227 H 0.50799 0.89312 1.00526
 H1228 H 0.53118 0.83207 0.92743
 H1229 H 0.55254 0.90434 0.98703
 H1230 H 0.48609 0.82074 0.94447
 C1231 C 0.03136 0.40776 0.50468
 C1232 C 0.04225 0.40356 0.48756
 C1233 C 0.03561 0.38587 0.47565
 N1234 N 0.04752 0.38068 0.46007
 N1235 N 0.04155 0.36469 0.44928
 C1236 C 0.02341 0.35336 0.45366
 N1237 N 0.01148 0.35863 0.46917
 N1238 N 0.01747 0.37455 0.47996
 C1239 C 0.01634 0.33568 0.44203
 C1240 C 0.02867 0.32814 0.42681
 H1241 H 0.05595 0.41287 0.48270
 H1242 H 0.00118 0.32841 0.44620
 H1243 H 0.01836 0.39710 0.50890
 H1244 H 0.04416 0.33565 0.42389
 C1245 C 0.41976 0.50205 0.48028
 C1246 C 0.41515 0.52043 0.47058
 C1247 C 0.39679 0.53339 0.47607
 N1248 N 0.39236 0.55059 0.46567
 N1249 N 0.37567 0.56235 0.47033
 C1250 C 0.36281 0.55738 0.48560
 N1251 N 0.36730 0.54024 0.49604
 N1252 N 0.38396 0.52846 0.49137
 C1253 C 0.34410 0.57000 0.49083
 C1254 C 0.33768 0.58679 0.47964
 H1255 H 0.42514 0.52577 0.45872
 H1256 H 0.33511 0.56524 0.50346
 H1257 H 0.40981 0.49771 0.49255
 H1258 H 0.34721 0.59037 0.46692
 C1259 C 0.91173 0.00060 -0.04299
 C1260 C 0.89854 0.00319 -0.02683
 C1261 C 0.88402 0.02087 -0.02472
 N1262 N 0.87217 0.02286 -0.00845
 N1263 N 0.85884 0.03866 -0.00625
 C1264 C 0.85682 0.05309 -0.02025
 N1265 N 0.86866 0.05112 -0.03653
 N1266 N 0.88203 0.03531 -0.03873
 C1267 C 0.84194 0.07051 -0.01811
 C1268 C 0.82971 0.07329 -0.00141
 H1269 H 0.89868 -0.00761 -0.01504
 H1270 H 0.84084 0.08101 -0.03006
 H1271 H 0.91119 0.01249 -0.05397
 H1272 H 0.83200 0.06236 0.01013
 C1273 C 0.59264 0.00309 0.02704
 C1274 C 0.60267 0.01527 0.04072
 C1275 C 0.61972 0.03061 0.03552
 N1276 N 0.63060 0.04076 0.04927
 N1277 N 0.64647 0.05424 0.04472
 C1278 C 0.65201 0.05809 0.02624
 N1279 N 0.64104 0.04804 0.01250
 N1280 N 0.62521 0.03455 0.01705
 C1281 C 0.66987 0.07242 0.02086
 C1282 C 0.68225 0.08274 0.03429
 H1283 H 0.59887 0.01288 0.05565
 H1284 H 0.67322 0.07475 0.00586
 H1285 H 0.59776 0.00497 0.01231
 H1286 H 0.67774 0.08117 0.04919
 C1287 C 0.08938 0.50593 0.53112
 C1288 C 0.10693 0.50484 0.51848
 C1289 C 0.12264 0.52220 0.51626
 N1290 N 0.14008 0.52030 0.50454
 N1291 N 0.15456 0.53580 0.50266
 C1292 C 0.15209 0.55379 0.51244
 N1293 N 0.13462 0.55570 0.52411
 N1294 N 0.12017 0.54022 0.52598
 C1295 C 0.16802 0.57099 0.51088
 C1296 C 0.18629 0.57010 0.49908
 H1297 H 0.10981 0.49082 0.51048
 H1298 H 0.16497 0.58475 0.51919
 H1299 H 0.08767 0.51986 0.53957
 H1300 H 0.18829 0.55670 0.49000
 C1301 C 0.08530 0.49474 -0.03989
 C1302 C 0.09927 0.49368 -0.02459
 C1303 C 0.11456 0.47662 -0.02256
 N1304 N 0.12843 0.47673 -0.00796
 N1305 N 0.14242 0.46148 -0.00595
 C1306 C 0.14304 0.44550 -0.01848
 N1307 N 0.12915 0.44536 -0.03306
 N1308 N 0.11517 0.46062 -0.03507
 C1309 C 0.15848 0.42856 -0.01659
 C1310 C 0.17346 0.42815 -0.00210
 H1311 H 0.09958 0.50550 -0.01379
 H1312 H 0.15770 0.41618 -0.02686
 H1313 H 0.08628 0.48245 -0.05033
 H1314 H 0.17315 0.44042 0.00838
 C1315 C 0.58541 1.00795 0.47903
 C1316 C 0.59165 0.99042 0.46873
 C1317 C 0.60895 0.97682 0.47499
 N1318 N 0.61381 0.95967 0.46475
 N1319 N 0.62949 0.94722 0.47007
 C1320 C 0.64093 0.95147 0.48583
 N1321 N 0.63607 0.96862 0.49609
 N1322 N 0.62036 0.98106 0.49078
 C1323 C 0.65851 0.93800 0.49171
 C1324 C 0.66412 0.92033 0.48142
 H1325 H 0.58382 0.98599 0.45582
 H1326 H 0.66742 0.94259 0.50405
 H1327 H 0.59362 1.01101 0.49217
 H1328 H 0.65523 0.91669 0.46877
 C1329 C 0.90429 1.00247 0.51875
 C1330 C 0.89316 0.98814 0.53049
 C1331 C 0.87528 0.97507 0.52369
 N1332 N 0.86544 0.96108 0.53567
 N1333 N 0.84929 0.94903 0.52978
 C1334 C 0.84235 0.95052 0.51167
 N1335 N 0.85216 0.96456 0.49969
 N1336 N 0.86835 0.97660 0.50558
 C1337 C 0.82449 0.93728 0.50499
 C1338 C 0.81485 0.92182 0.51661
 H1339 H 0.89725 0.98649 0.54526
 H1340 H 0.81936 0.93987 0.49063
 H1341 H 0.89903 1.00454 0.50430
 H1342 H 0.82126 0.91977 0.53068
 C1343 C 0.40966 0.49779 0.02660
 C1344 C 0.39928 0.48366 0.03907
 C1345 C 0.38228 0.46924 0.03262
 N1346 N 0.37238 0.45585 0.04514
 N1347 N 0.35661 0.44310 0.03956
 C1348 C 0.35015 0.44329 0.02125
 N1349 N 0.36010 0.45664 0.00874
 N1350 N 0.37587 0.46936 0.01430
 C1351 C 0.33234 0.42980 0.01489
 C1352 C 0.32196 0.41523 0.02699
 H1353 H 0.40290 0.48352 0.05400
 H1354 H 0.32761 0.43173 0.00035
 H1355 H 0.40501 0.49779 0.01186
 H1356 H 0.32821 0.41347 0.04116
 C1357 C 0.50666 0.46459 0.41365
 C1358 C 0.50711 0.48149 0.40103
 C1359 C 0.52018 0.48148 0.38333
 N1360 N 0.52027 0.49827 0.37152
 N1361 N 0.53214 0.49853 0.35553
 C1362 C 0.54439 0.48200 0.35076
 N1363 N 0.54428 0.46522 0.36257
 N1364 N 0.53240 0.46495 0.37854
 C1365 C 0.55779 0.48202 0.33324
 C1366 C 0.55816 0.49870 0.32032
 H1367 H 0.49820 0.49535 0.40423
 H1368 H 0.56735 0.46842 0.33083
 H1369 H 0.51656 0.45136 0.41030
 H1370 H 0.54786 0.51169 0.32353
 C1371 C -0.00428 -0.04707 0.89660
 C1372 C 0.00051 -0.02922 0.88573
 C1373 C 0.01433 -0.02949 0.86850
 N1374 N 0.01784 -0.01165 0.85839
 N1375 N 0.03026 -0.01149 0.84274
 C1376 C 0.03968 -0.02918 0.83660
 N1377 N 0.03620 -0.04704 0.84672
 N1378 N 0.02373 -0.04721 0.86237
 C1379 C 0.05365 -0.02916 0.81941
 C1380 C 0.05687 -0.01125 0.80814
 H1381 H -0.00569 -0.01432 0.88996
 H1382 H 0.06134 -0.04359 0.81592
 H1383 H 0.00317 -0.06155 0.89263
 H1384 H 0.04821 0.00252 0.81231
 C1385 C -0.00764 0.02588 0.58576
 C1386 C 0.00457 0.03985 0.59638
 C1387 C 0.01611 0.03322 0.61336
 N1388 N 0.02714 0.04746 0.62366
 N1389 N 0.03773 0.04166 0.63901
 C1390 C 0.03770 0.02137 0.64460
 N1391 N 0.02667 0.00714 0.63430
 N1392 N 0.01607 0.01294 0.61897
 C1393 C 0.04946 0.01457 0.66138
 C1394 C 0.06140 0.02842 0.67237
 H1395 H 0.00539 0.05619 0.59258
 H1396 H 0.04913 -0.00190 0.66465
 H1397 H -0.00926 0.00988 0.59063
 H1398 H 0.06233 0.04467 0.66816
 C1399 C 0.48773 0.54500 0.09495
 C1400 C 0.49065 0.52754 0.10645
 C1401 C 0.50351 0.52864 0.12375
 N1402 N 0.50716 0.51109 0.13391
 N1403 N 0.51926 0.51180 0.14929
 C1404 C 0.52814 0.53011 0.15508
 N1405 N 0.52439 0.54767 0.14497
 N1406 N 0.51231 0.54696 0.12960
 C1407 C 0.54211 0.53114 0.17166
 C1408 C 0.54677 0.51353 0.18243
 H1409 H 0.48433 0.51246 0.10238
 H1410 H 0.54885 0.54620 0.17526
 H1411 H 0.49524 0.55963 0.09899
 H1412 H 0.53878 0.49891 0.17912
 C1413 C 0.50770 -0.04744 0.09012
 C1414 C 0.51269 -0.03678 0.10672
 C1415 C 0.49827 -0.03704 0.12357
 N1416 N 0.50370 -0.02591 0.13911
 N1417 N 0.49065 -0.02558 0.15435
 C1418 C 0.47166 -0.03638 0.15462
 N1419 N 0.46627 -0.04760 0.13912
 N1420 N 0.47932 -0.04792 0.12387
 C1421 C 0.45680 -0.03576 0.17116
 C1422 C 0.46078 -0.02306 0.18676
 H1423 H 0.52762 -0.02799 0.10762
 H1424 H 0.44198 -0.04476 0.17049
 H1425 H 0.49328 -0.05717 0.09003
 H1426 H 0.47516 -0.01327 0.18654
 C1427 C 1.00320 0.45929 0.59377
 C1428 C 0.99882 0.47724 0.60409
 C1429 C 0.98429 0.47685 0.62086
 N1430 N 0.97971 0.49483 0.62994
 N1431 N 0.96640 0.49476 0.64502
 C1432 C 0.95718 0.47668 0.65158
 N1433 N 0.96179 0.45869 0.64252
 N1434 N 0.97510 0.45877 0.62744
 C1435 C 0.94232 0.47631 0.66812
 C1436 C 0.93723 0.49434 0.67805
 H1437 H 1.00547 0.49217 0.59949
 H1438 H 0.93567 0.46136 0.67265
 H1439 H 0.99528 0.44479 0.59808
 H1440 H 0.94507 0.50890 0.67379
 C1441 C 1.00207 0.53856 0.89882
 C1442 C 0.99907 0.52128 0.88718
 C1443 C 0.98442 0.52187 0.87104
 N1444 N 0.98182 0.50486 0.85994
 N1445 N 0.96831 0.50514 0.84551
 C1446 C 0.95688 0.52242 0.84169
 N1447 N 0.95950 0.53941 0.85279
 N1448 N 0.97302 0.53914 0.86717
 C1449 C 0.94159 0.52300 0.82605
 C1450 C 0.93892 0.50634 0.81357
 H1451 H 1.00692 0.50679 0.89011
 H1452 H 0.93259 0.53708 0.82459
 H1453 H 0.99335 0.55255 0.89564
 H1454 H 0.94905 0.49299 0.81549
 C1455 C 0.50156 0.04474 0.41321
 C1456 C 0.50074 0.02714 0.40168
 C1457 C 0.48809 0.02644 0.38426
 N1458 N 0.48801 0.00901 0.37349
 N1459 N 0.47656 0.00804 0.35775
 C1460 C 0.46475 0.02447 0.35218
 N1461 N 0.46484 0.04190 0.36295
 N1462 N 0.47631 0.04288 0.37869
 C1463 C 0.45174 0.02356 0.33496
 C1464 C 0.45163 0.00616 0.32310
 H1465 H 0.50910 0.01321 0.40553
 H1466 H 0.44221 0.03699 0.33195
 H1467 H 0.49214 0.05806 0.40934
 H1468 H 0.46200 -0.00655 0.32680
   
