data_POSCAR
  _audit_creation_date              2014-09-24
  _audit_creation_method            'ToBaCCo'
  _symmetry_space_group_name_H-M    'P1'
  _symmetry_Int_Tables_number       1
  _symmetry_cell_setting            triclinic
  loop_
  _symmetry_equiv_pos_as_xyz
 x,y,z
_cell_length_a 83.5828
_cell_length_b 86.1406
_cell_length_c 84.8223
_cell_angle_alpha 91.000900
_cell_angle_beta 89.661500
_cell_angle_gamma 90.003300
loop_
  _atom_site_label
  _atom_site_type_symbol
  _atom_site_fract_x
  _atom_site_fract_y
  _atom_site_fract_z
C1 C 0.32362 0.44295 0.91394
 C2 C 0.31598 0.44962 0.90096
 C3 C 0.30192 0.44297 0.89473
 C4 C 0.29568 0.42957 0.90164
 C5 C 0.30322 0.42279 0.91449
 C6 C 0.31721 0.42950 0.92078
 C7 C 0.33769 0.44945 0.92001
 C8 C 0.34561 0.44283 0.93287
 C9 C 0.33903 0.42933 0.93971
 C10 C 0.32489 0.42263 0.93372
 C11 C 0.31839 0.40901 0.94023
 C12 C 0.30447 0.40224 0.93377
 C13 C 0.29704 0.40924 0.92095
 H14 H 0.32120 0.45982 0.89577
 H15 H 0.28493 0.42427 0.89686
 H16 H 0.34255 0.45976 0.91458
 H17 H 0.34484 0.42377 0.94945
 H18 H 0.32439 0.40352 0.94994
 H19 H 0.28636 0.40404 0.91592
 C20 C 0.43642 0.82859 0.41388
 C21 C 0.44467 0.84206 0.41863
 C22 C 0.44535 0.84665 0.43466
 C23 C 0.43734 0.83750 0.44590
 C24 C 0.42896 0.82412 0.44130
 C25 C 0.42853 0.81961 0.42527
 C26 C 0.43607 0.82386 0.39795
 C27 C 0.42800 0.81017 0.39336
 C28 C 0.41975 0.80162 0.40471
 C29 C 0.42009 0.80613 0.42062
 C30 C 0.41217 0.79730 0.43196
 C31 C 0.41262 0.80174 0.44797
 C32 C 0.42090 0.81521 0.45253
 H33 H 0.45071 0.84893 0.40979
 H34 H 0.43717 0.84063 0.45827
 H35 H 0.44211 0.83082 0.38923
 H36 H 0.41347 0.79110 0.40121
 H37 H 0.40532 0.78725 0.42819
 H38 H 0.42104 0.81875 0.46486
 C39 C 0.95544 0.93496 0.82467
 C40 C 0.96107 0.92121 0.81758
 C41 C 0.95108 0.91195 0.80802
 C42 C 0.93505 0.91662 0.80586
 C43 C 0.92927 0.93038 0.81294
 C44 C 0.93949 0.93957 0.82240
 C45 C 0.96558 0.94407 0.83410
 C46 C 0.95991 0.95777 0.84162
 C47 C 0.94393 0.96226 0.83921
 C48 C 0.93374 0.95332 0.82966
 C49 C 0.91790 0.95796 0.82722
 C50 C 0.90779 0.94915 0.81743
 C51 C 0.91343 0.93517 0.81060
 H52 H 0.97340 0.91777 0.81943
 H53 H 0.92686 0.90964 0.79894
 H54 H 0.97768 0.94006 0.83567
 H55 H 0.93933 0.97275 0.84489
 H56 H 0.91352 0.96866 0.83263
 H57 H 0.90556 0.92799 0.80347
 C58 C 0.43912 -0.08376 0.32532
 C59 C 0.44590 -0.09806 0.32064
 C60 C 0.44007 -0.10618 0.30729
 C61 C 0.42751 -0.09977 0.29863
 C62 C 0.42057 -0.08563 0.30322
 C63 C 0.42636 -0.07756 0.31659
 C64 C 0.44475 -0.07561 0.33868
 C65 C 0.43777 -0.06134 0.34335
 C66 C 0.42495 -0.05545 0.33469
 C67 C 0.41923 -0.06340 0.32134
 C68 C 0.40633 -0.05751 0.31280
 C69 C 0.40056 -0.06553 0.29939
 C70 C 0.40776 -0.07958 0.29472
 H71 H 0.45571 -0.10267 0.32737
 H72 H 0.42296 -0.10595 0.28835
 H73 H 0.45428 -0.08061 0.34551
 H74 H 0.41942 -0.04457 0.33834
 H75 H 0.40062 -0.04691 0.31693
 H76 H 0.40325 -0.08589 0.28450
 C77 C 0.83205 0.31923 0.34228
 C78 C 0.82267 0.31226 0.35395
 C79 C 0.80849 0.31938 0.35941
 C80 C 0.80399 0.33374 0.35325
 C81 C 0.81330 0.34085 0.34162
 C82 C 0.82736 0.33355 0.33599
 C83 C 0.84615 0.31212 0.33695
 C84 C 0.85569 0.31893 0.32531
 C85 C 0.85099 0.33330 0.31901
 C86 C 0.83683 0.34068 0.32430
 C87 C 0.83205 0.35513 0.31832
 C88 C 0.81800 0.36246 0.32400
 C89 C 0.80881 0.35523 0.33566
 H90 H 0.82673 0.30150 0.35897
 H91 H 0.79319 0.33941 0.35757
 H92 H 0.84972 0.30112 0.34189
 H93 H 0.85837 0.33892 0.31027
 H94 H 0.83943 0.36073 0.30957
 H95 H 0.79804 0.36084 0.34011
 C96 C -0.18896 0.83708 0.83463
 C97 C -0.19273 0.85034 0.82612
 C98 C -0.18485 0.85352 0.81177
 C99 C -0.17242 0.84361 0.80664
 C100 C -0.16860 0.83024 0.81503
 C101 C -0.17702 0.82683 0.82898
 C102 C -0.19717 0.83381 0.84861
 C103 C -0.19402 0.82016 0.85674
 C104 C -0.18208 0.80991 0.85113
 C105 C -0.17345 0.81324 0.83733
 C106 C -0.16137 0.80321 0.83169
 C107 C -0.15300 0.80652 0.81774
 C108 C -0.15659 0.82015 0.80957
 H109 H -0.20169 0.85814 0.83097
 H110 H -0.16603 0.84603 0.79579
 H111 H -0.20637 0.84169 0.85297
 H112 H -0.17937 0.79949 0.85758
 H113 H -0.15854 0.79278 0.83809
 H114 H -0.14987 0.82313 0.79909
 C115 C 0.92206 0.32970 0.44517
 C116 C 0.92761 0.34437 0.45003
 C117 C 0.93881 0.35259 0.44082
 C118 C 0.94461 0.34553 0.42678
 C119 C 0.93915 0.33082 0.42177
 C120 C 0.92783 0.32289 0.43102
 C121 C 0.91066 0.32179 0.45422
 C122 C 0.90490 0.30717 0.44938
 C123 C 0.91068 0.30046 0.43520
 C124 C 0.92211 0.30821 0.42605
 C125 C 0.92769 0.30161 0.41184
 C126 C 0.93895 0.30936 0.40246
 C127 C 0.94463 0.32404 0.40752
 H128 H 0.92320 0.34904 0.46112
 H129 H 0.95328 0.35159 0.41957
 H130 H 0.90614 0.32709 0.46506
 H131 H 0.90604 0.28944 0.43095
 H132 H 0.92318 0.29037 0.40800
 H133 H 0.95302 0.33042 0.40035
 C134 C 0.41562 0.42908 0.82690
 C135 C 0.42053 0.43825 0.83982
 C136 C 0.43341 0.43363 0.84919
 C137 C 0.44163 0.41981 0.84532
 C138 C 0.43681 0.41050 0.83250
 C139 C 0.42376 0.41513 0.82324
 C140 C 0.40265 0.43362 0.81764
 C141 C 0.39779 0.42445 0.80461
 C142 C 0.40581 0.41045 0.80121
 C143 C 0.41881 0.40577 0.81037
 C144 C 0.42692 0.39187 0.80686
 C145 C 0.44012 0.38731 0.81594
 C146 C 0.44488 0.39664 0.82879
 H147 H 0.41426 0.44896 0.84268
 H148 H 0.45197 0.41634 0.85204
 H149 H 0.39623 0.44413 0.82084
 H150 H 0.40200 0.40328 0.79129
 H151 H 0.42273 0.38456 0.79723
 H152 H 0.45494 0.39310 0.83591
 C153 C 0.83475 0.91399 0.93623
 C154 C 0.82732 0.90151 0.94373
 C155 C 0.81227 0.89368 0.93711
 C156 C 0.80670 0.90101 0.92221
 C157 C 0.81453 0.91355 0.91540
 C158 C 0.82841 0.92003 0.92224
 C159 C 0.84873 0.92045 0.94262
 C160 C 0.85679 0.93278 0.93531
 C161 C 0.85024 0.93889 0.92140
 C162 C 0.83612 0.93268 0.91488
 C163 C 0.82967 0.93883 0.90099
 C164 C 0.81577 0.93235 0.89428
 C165 C 0.80847 0.91968 0.90149
 H166 H 0.83237 0.89705 0.95448
 H167 H 0.79610 0.89622 0.91664
 H168 H 0.85353 0.91563 0.95335
 H169 H 0.85595 0.94840 0.91543
 H170 H 0.83565 0.94838 0.89527
 H171 H 0.79782 0.91461 0.89625
 C172 C 0.33170 0.83802 0.31358
 C173 C 0.32587 0.85142 0.30637
 C174 C 0.31213 0.85921 0.31214
 C175 C 0.30431 0.85327 0.32562
 C176 C 0.31006 0.83985 0.33304
 C177 C 0.32376 0.83220 0.32695
 C178 C 0.34536 0.83034 0.30756
 C179 C 0.35131 0.81693 0.31481
 C180 C 0.34324 0.81124 0.32812
 C181 C 0.32958 0.81875 0.33426
 C182 C 0.32171 0.81302 0.34764
 C183 C 0.30798 0.82046 0.35385
 C184 C 0.30235 0.83396 0.34651
 H185 H 0.33210 0.85578 0.29609
 H186 H 0.29392 0.85901 0.33062
 H187 H 0.35104 0.83473 0.29705
 H188 H 0.34766 0.80089 0.33375
 H189 H 0.32659 0.80295 0.35336
 H190 H 0.29187 0.83984 0.35128
 C191 C 0.82017 0.41651 0.44415
 C192 C 0.81436 0.40195 0.44863
 C193 C 0.80561 0.39260 0.43802
 C194 C 0.80245 0.39808 0.42291
 C195 C 0.80809 0.41261 0.41826
 C196 C 0.81701 0.42196 0.42890
 C197 C 0.82910 0.42540 0.45487
 C198 C 0.83590 0.44110 0.45084
 C199 C 0.83151 0.44604 0.43424
 C200 C 0.82257 0.43660 0.42408
 C201 C 0.81917 0.44175 0.40888
 C202 C 0.81007 0.43259 0.39843
 C203 C 0.80480 0.41794 0.40312
 H204 H 0.81645 0.39815 0.46053
 H205 H 0.79558 0.39096 0.41473
 H206 H 0.83155 0.42092 0.46648
 H207 H 0.83576 0.45715 0.43015
 H208 H 0.82384 0.45284 0.40519
 H209 H 0.79785 0.41080 0.39503
 C210 C 0.93734 0.83019 -0.08596
 C211 C 0.94314 0.84454 -0.08005
 C212 C 0.93625 0.85147 -0.06644
 C213 C 0.92369 0.84392 -0.05869
 C214 C 0.91808 0.82952 -0.06414
 C215 C 0.92480 0.82266 -0.07786
 C216 C 0.94365 0.82337 -0.09990
 C217 C 0.93756 0.80908 -0.10583
 C218 C 0.92529 0.80168 -0.09735
 C219 C 0.91888 0.80831 -0.08352
 C220 C 0.90650 0.80081 -0.07533
 C221 C 0.89979 0.80760 -0.06160
 C222 C 0.90572 0.82193 -0.05610
 H223 H 0.95266 0.85047 -0.08625
 H224 H 0.91836 0.84927 -0.04824
 H225 H 0.95304 0.82945 -0.10606
 H226 H 0.92050 0.79069 -0.10165
 H227 H 0.90237 0.78962 -0.07963
 H228 H 0.90061 0.82726 -0.04555
 C229 C 0.33500 0.33821 0.81188
 C230 C 0.33107 0.35350 0.80829
 C231 C 0.31944 0.36164 0.81706
 C232 C 0.31211 0.35454 0.83011
 C233 C 0.31621 0.33923 0.83414
 C234 C 0.32751 0.33099 0.82476
 C235 C 0.34623 0.32998 0.80267
 C236 C 0.34996 0.31451 0.80598
 C237 C 0.34255 0.30737 0.81889
 C238 C 0.33137 0.31550 0.82824
 C239 C 0.32409 0.30835 0.84107
 C240 C 0.31319 0.31645 0.85075
 C241 C 0.30920 0.33193 0.84724
 H242 H 0.33678 0.35898 0.79830
 H243 H 0.30339 0.36091 0.83716
 H244 H 0.35203 0.33559 0.79281
 H245 H 0.34569 0.29564 0.82202
 H246 H 0.32709 0.29642 0.84370
 H247 H 0.30049 0.33816 0.85442
 C248 C 0.16559 0.55845 0.57618
 C249 C 0.15047 0.55275 0.57154
 C250 C 0.14216 0.55966 0.55903
 C251 C 0.14911 0.57225 0.55127
 C252 C 0.16402 0.57808 0.55577
 C253 C 0.17232 0.57122 0.56827
 C254 C 0.17401 0.55173 0.58869
 C255 C 0.18910 0.55758 0.59328
 C256 C 0.19554 0.57035 0.58530
 C257 C 0.18729 0.57723 0.57290
 C258 C 0.19377 0.59010 0.56510
 C259 C 0.18540 0.59704 0.55270
 C260 C 0.17066 0.59080 0.54800
 H261 H 0.14522 0.54318 0.57783
 H262 H 0.14278 0.57766 0.54167
 H263 H 0.16862 0.54217 0.59487
 H264 H 0.20705 0.57502 0.58883
 H265 H 0.20539 0.59447 0.56857
 H266 H 0.16421 0.59605 0.53840
 C267 C 0.57269 0.69140 0.07786
 C268 C 0.58507 0.69849 0.06930
 C269 C 0.59008 0.69228 0.05457
 C270 C 0.58215 0.67918 0.04826
 C271 C 0.56976 0.67197 0.05662
 C272 C 0.56516 0.67801 0.07154
 C273 C 0.56781 0.69735 0.09271
 C274 C 0.55577 0.68977 0.10137
 C275 C 0.54864 0.67635 0.09508
 C276 C 0.55307 0.67056 0.08021
 C277 C 0.54556 0.65734 0.07398
 C278 C 0.54980 0.65137 0.05906
 C279 C 0.56204 0.65868 0.05042
 H280 H 0.59062 0.70882 0.07418
 H281 H 0.58584 0.67443 0.03689
 H282 H 0.57363 0.70754 0.09766
 H283 H 0.53938 0.67050 0.10175
 H284 H 0.53626 0.65169 0.08077
 H285 H 0.56581 0.65398 0.03908
 C286 C 0.68635 0.15768 0.66684
 C287 C 0.69355 0.16146 0.65247
 C288 C 0.68817 0.17418 0.64393
 C289 C 0.67498 0.18284 0.64954
 C290 C 0.66752 0.17906 0.66382
 C291 C 0.67330 0.16648 0.67257
 C292 C 0.69217 0.14531 0.67562
 C293 C 0.68526 0.14162 0.69031
 C294 C 0.67191 0.15022 0.69568
 C295 C 0.66597 0.16266 0.68700
 C296 C 0.65289 0.17140 0.69256
 C297 C 0.64716 0.18408 0.68397
 C298 C 0.65446 0.18771 0.66955
 H299 H 0.70368 0.15475 0.64810
 H300 H 0.67044 0.19243 0.64278
 H301 H 0.70193 0.13859 0.67064
 H302 H 0.66628 0.14742 0.70684
 H303 H 0.64709 0.16810 0.70344
 H304 H 0.65002 0.19738 0.66282
 C305 C 1.07611 0.05741 0.16999
 C306 C 1.09070 0.05294 0.17648
 C307 C 1.09754 0.06140 0.18899
 C308 C 1.08946 0.07458 0.19513
 C309 C 1.07471 0.07923 0.18871
 C310 C 1.06807 0.07060 0.17602
 C311 C 1.06964 0.04894 0.15733
 C312 C 1.05530 0.05352 0.15017
 C313 C 1.04725 0.06678 0.15627
 C314 C 1.05354 0.07526 0.16918
 C315 C 1.04563 0.08847 0.17522
 C316 C 1.05197 0.09717 0.18792
 C317 C 1.06663 0.09249 0.19455
 H318 H 1.09687 0.04283 0.17166
 H319 H 1.09472 0.08141 0.20460
 H320 H 1.07605 0.03883 0.15282
 H321 H 1.03619 0.07069 0.15115
 H322 H 1.03447 0.09206 0.16994
 H323 H 1.07201 0.09919 0.20402
 C324 C 0.04492 0.18048 1.06915
 C325 C 0.03859 0.16656 1.06326
 C326 C 0.04770 0.15601 1.05207
 C327 C 0.06413 0.16255 1.04764
 C328 C 0.06975 0.17670 1.05379
 C329 C 0.06029 0.18552 1.06449
 C330 C 0.03600 0.18938 1.08011
 C331 C 0.04225 0.20320 1.08655
 C332 C 0.05727 0.20838 1.08160
 C333 C 0.06638 0.19961 1.07083
 C334 C 0.08167 0.20464 1.06662
 C335 C 0.09106 0.19604 1.05595
 C336 C 0.08507 0.18208 1.04951
 H337 H 0.02680 0.16288 1.06705
 H338 H 0.07163 0.15589 1.03956
 H339 H 0.02420 0.18548 1.08364
 H340 H 0.06212 0.21905 1.08660
 H341 H 0.08632 0.21539 1.07165
 H342 H 0.09245 0.17521 1.04149
 C343 C 0.16881 0.67040 0.68874
 C344 C 0.15568 0.67789 0.69590
 C345 C 0.14912 0.69131 0.68937
 C346 C 0.15618 0.69753 0.67576
 C347 C 0.16937 0.69020 0.66853
 C348 C 0.17568 0.67654 0.67499
 C349 C 0.17507 0.65679 0.69507
 C350 C 0.18803 0.64904 0.68783
 C351 C 0.19487 0.65526 0.67406
 C352 C 0.18882 0.66900 0.66765
 C353 C 0.19563 0.67528 0.65397
 C354 C 0.18951 0.68906 0.64762
 C355 C 0.17631 0.69632 0.65492
 H356 H 0.15035 0.67312 0.70646
 H357 H 0.15166 0.70818 0.67088
 H358 H 0.16969 0.65211 0.70565
 H359 H 0.20483 0.64959 0.66819
 H360 H 0.20547 0.66925 0.64821
 H361 H 0.17145 0.70685 0.65000
 C362 C 1.18564 0.16239 0.16011
 C363 C 1.19498 0.15073 0.16670
 C364 C 1.19253 0.14615 0.18234
 C365 C 1.17997 0.15310 0.19116
 C366 C 1.17041 0.16469 0.18459
 C367 C 1.17338 0.16954 0.16908
 C368 C 1.18859 0.16713 0.14471
 C369 C 1.17983 0.17928 0.13822
 C370 C 1.16743 0.18636 0.14708
 C371 C 1.16405 0.18145 0.16250
 C372 C 1.15151 0.18814 0.17144
 C373 C 1.14830 0.18311 0.18689
 C374 C 1.15787 0.17144 0.19331
 H375 H 1.20444 0.14538 0.15966
 H376 H 1.17724 0.14948 0.20301
 H377 H 1.19810 0.16165 0.13786
 H378 H 1.16037 0.19552 0.14199
 H379 H 1.14412 0.19694 0.16616
 H380 H 1.15548 0.16754 0.20519
 C381 C 0.66382 1.08565 0.57083
 C382 C 0.65216 1.07914 0.56090
 C383 C 0.64438 1.06529 0.56483
 C384 C 0.64851 1.05784 0.57888
 C385 C 0.66009 1.06426 0.58896
 C386 C 0.66781 1.07820 0.58492
 C387 C 0.67170 1.09936 0.56670
 C388 C 0.68365 1.10590 0.57650
 C389 C 0.68751 1.09831 0.59056
 C390 C 0.67971 1.08455 0.59483
 C391 C 0.68381 1.07688 0.60871
 C392 C 0.67629 1.06282 0.61267
 C393 C 0.66428 1.05676 0.60287
 H394 H 0.64914 1.08486 0.55002
 H395 H 0.64313 1.04686 0.58192
 H396 H 0.66866 1.10444 0.55556
 H397 H 0.69672 1.10306 0.59821
 H398 H 0.69279 1.08192 0.61639
 H399 H 0.65845 1.04595 0.60591
 C400 C 0.56244 0.57496 0.17097
 C401 C 0.55691 0.57095 0.15579
 C402 C 0.56377 0.55839 0.14731
 C403 C 0.57625 0.54999 0.15408
 C404 C 0.58187 0.55384 0.16914
 C405 C 0.57497 0.56633 0.17767
 C406 C 0.55583 0.58760 0.17942
 C407 C 0.56146 0.59166 0.19459
 C408 C 0.57399 0.58295 0.20110
 C409 C 0.58082 0.57035 0.19277
 C410 C 0.59358 0.56187 0.19916
 C411 C 0.60049 0.54936 0.19059
 C412 C 0.59447 0.54547 0.17564
 H413 H 0.54754 0.57781 0.15057
 H414 H 0.58166 0.54038 0.14755
 H415 H 0.54654 0.59429 0.17392
 H416 H 0.57852 0.58608 0.21268
 H417 H 0.59821 0.56530 0.21058
 H418 H 0.59977 0.53593 0.16892
 C419 C 0.67984 0.69785 0.17746
 C420 C 0.66618 0.70385 0.18498
 C421 C 0.65846 0.69566 0.19700
 C422 C 0.66480 0.68129 0.20167
 C423 C 0.67861 0.67517 0.19431
 C424 C 0.68611 0.68348 0.18212
 C425 C 0.68711 0.70588 0.16510
 C426 C 0.70046 0.69966 0.15714
 C427 C 0.70696 0.68549 0.16211
 C428 C 0.69979 0.67734 0.17446
 C429 C 0.70597 0.66303 0.17912
 C430 C 0.69869 0.65468 0.19129
 C431 C 0.68490 0.66079 0.19878
 H432 H 0.66136 0.71489 0.18126
 H433 H 0.65917 0.67475 0.21093
 H434 H 0.68211 0.71683 0.16138
 H435 H 0.71758 0.68074 0.15651
 H436 H 0.71648 0.65831 0.17320
 H437 H 0.67882 0.65431 0.20784
 C438 C 0.16948 0.07000 1.08681
 C439 C 0.15740 0.06299 1.07774
 C440 C 0.15261 0.06935 1.06328
 C441 C 0.16014 0.08307 1.05826
 C442 C 0.17227 0.09018 1.06723
 C443 C 0.17698 0.08362 1.08159
 C444 C 0.17409 0.06350 1.10110
 C445 C 0.18611 0.07030 1.11050
 C446 C 0.19356 0.08406 1.10519
 C447 C 0.18908 0.09072 1.09076
 C448 C 0.19647 0.10435 1.08530
 C449 C 0.19202 0.11090 1.07084
 C450 C 0.17969 0.10379 1.06203
 H451 H 0.15178 0.05271 1.08231
 H452 H 0.15660 0.08823 1.04723
 H453 H 0.16819 0.05298 1.10494
 H454 H 0.20282 0.08969 1.11204
 H455 H 0.20580 0.10983 1.09227
 H456 H 0.17555 0.10891 1.05124
 C457 C 0.57694 0.16736 0.55784
 C458 C 0.59019 0.17313 0.54962
 C459 C 0.59942 0.18531 0.55596
 C460 C 0.59519 0.19179 0.57077
 C461 C 0.58185 0.18622 0.57907
 C462 C 0.57273 0.17391 0.57263
 C463 C 0.56796 0.15502 0.55154
 C464 C 0.55500 0.14878 0.56001
 C465 C 0.55075 0.15552 0.57466
 C466 C 0.55951 0.16803 0.58103
 C467 C 0.55539 0.17461 0.59576
 C468 C 0.56428 0.18711 0.60216
 C469 C 0.57759 0.19267 0.59380
 H470 H 0.59347 0.16801 0.53828
 H471 H 0.60238 0.20089 0.57610
 H472 H 0.57114 0.15050 0.53997
 H473 H 0.54069 0.15088 0.58120
 H474 H 0.54547 0.16975 0.60228
 H475 H 0.58459 0.20215 0.59875
 C476 C 0.07826 0.56752 0.67224
 C477 C 0.09076 0.56102 0.68087
 C478 C 0.09876 0.56987 0.69247
 C479 C 0.09393 0.58520 0.69555
 C480 C 0.08146 0.59183 0.68699
 C481 C 0.07348 0.58296 0.67534
 C482 C 0.07060 0.55882 0.66044
 C483 C 0.05810 0.56520 0.65170
 C484 C 0.05317 0.58060 0.65494
 C485 C 0.06082 0.58956 0.66674
 C486 C 0.05624 0.60503 0.67000
 C487 C 0.06434 0.61390 0.68158
 C488 C 0.07696 0.60724 0.68988
 H489 H 0.09400 0.54901 0.67865
 H490 H 0.10006 0.59206 0.70451
 H491 H 0.07445 0.54699 0.65797
 H492 H 0.04374 0.58578 0.64808
 H493 H 0.04665 0.61021 0.66335
 H494 H 0.08318 0.61406 0.69880
 C495 C 0.67325 0.57731 0.05934
 C496 C 0.65860 0.57095 0.05446
 C497 C 0.65089 0.55952 0.06345
 C498 C 0.65787 0.55480 0.07763
 C499 C 0.67248 0.56109 0.08272
 C500 C 0.68023 0.57232 0.07349
 C501 C 0.68096 0.58867 0.05036
 C502 C 0.69562 0.59504 0.05537
 C503 C 0.70257 0.58985 0.06932
 C504 C 0.69491 0.57870 0.07849
 C505 C 0.70165 0.57401 0.09269
 C506 C 0.69404 0.56291 0.10200
 C507 C 0.67941 0.55645 0.09696
 H508 H 0.65320 0.57522 0.04382
 H509 H 0.65191 0.54615 0.08472
 H510 H 0.67565 0.59232 0.03942
 H511 H 0.71385 0.59477 0.07322
 H512 H 0.71289 0.57906 0.09655
 H513 H 0.67320 0.54812 0.10419
 C514 C 0.07139 0.66446 0.58148
 C515 C 0.06370 0.67080 0.59477
 C516 C 0.07048 0.68323 0.60322
 C517 C 0.08534 0.68934 0.59837
 C518 C 0.09342 0.68287 0.58517
 C519 C 0.08632 0.67040 0.57669
 C520 C 0.06437 0.65217 0.57297
 C521 C 0.07221 0.64553 0.55979
 C522 C 0.08702 0.65150 0.55503
 C523 C 0.09418 0.66376 0.56347
 C524 C 0.10917 0.66932 0.55896
 C525 C 0.11649 0.68156 0.56730
 C526 C 0.10853 0.68842 0.58038
 H527 H 0.05227 0.66611 0.59852
 H528 H 0.09074 0.69879 0.60504
 H529 H 0.05268 0.64804 0.57652
 H530 H 0.09309 0.64641 0.54484
 H531 H 0.11524 0.66405 0.54887
 H532 H 0.11417 0.69772 0.58706
 C533 C 0.56272 1.07309 0.66429
 C534 C 0.55759 1.06475 0.65094
 C535 C 0.56761 1.05362 0.64344
 C536 C 0.58307 1.05128 0.64955
 C537 C 0.58838 1.05959 0.66294
 C538 C 0.57814 1.07053 0.67033
 C539 C 0.55264 1.08406 0.67164
 C540 C 0.55767 1.09248 0.68501
 C541 C 0.57316 1.09003 0.69088
 C542 C 0.58335 1.07906 0.68367
 C543 C 0.59870 1.07651 0.68963
 C544 C 0.60891 1.06542 0.68261
 C545 C 0.60374 1.05713 0.66908
 H546 H 0.54587 1.06740 0.64646
 H547 H 0.59101 1.04286 0.64393
 H548 H 0.54078 1.08605 0.66695
 H549 H 0.57750 1.09681 0.70083
 H550 H 0.60263 1.08303 0.69995
 H551 H 0.61159 1.04887 0.66318
 C552 C 0.41932 0.33093 0.94526
 C553 C 0.42493 0.34369 0.95406
 C554 C 0.43944 0.35101 0.95017
 C555 C 0.44826 0.34538 0.93698
 C556 C 0.44269 0.33266 0.92796
 C557 C 0.42820 0.32539 0.93216
 C558 C 0.40488 0.32368 0.94935
 C559 C 0.39923 0.31083 0.94056
 C560 C 0.40799 0.30558 0.92734
 C561 C 0.42244 0.31272 0.92312
 C562 C 0.43116 0.30739 0.90995
 C563 C 0.44576 0.31442 0.90576
 C564 C 0.45134 0.32716 0.91473
 H565 H 0.41795 0.34790 0.96408
 H566 H 0.45923 0.35092 0.93331
 H567 H 0.39799 0.32830 0.95921
 H568 H 0.40359 0.29581 0.92039
 H569 H 0.42630 0.29799 0.90283
 H570 H 0.46247 0.33273 0.91143
 C571 C 0.92343 0.44061 0.33072
 C572 C 0.92883 0.44663 0.34531
 C573 C 0.94295 0.44085 0.35227
 C574 C 0.95152 0.42902 0.34428
 C575 C 0.94621 0.42281 0.32989
 C576 C 0.93214 0.42858 0.32308
 C577 C 0.90939 0.44626 0.32370
 C578 C 0.90399 0.43989 0.30925
 C579 C 0.91270 0.42785 0.30192
 C580 C 0.92673 0.42221 0.30865
 C581 C 0.93536 0.41018 0.30116
 C582 C 0.94928 0.40419 0.30805
 C583 C 0.95471 0.41075 0.32232
 H584 H 0.92189 0.45572 0.35101
 H585 H 0.96237 0.42441 0.34939
 H586 H 0.90254 0.45532 0.32964
 H587 H 0.90852 0.42287 0.29085
 H588 H 0.93117 0.40572 0.28994
 H589 H 0.96547 0.40625 0.32768
 C590 C 0.32134 0.93971 0.42684
 C591 C 0.31377 0.94578 0.41350
 C592 C 0.30000 0.93856 0.40723
 C593 C 0.29400 0.92516 0.41431
 C594 C 0.30138 0.91899 0.42754
 C595 C 0.31505 0.92628 0.43389
 C596 C 0.33520 0.94670 0.43308
 C597 C 0.34277 0.94050 0.44645
 C598 C 0.33612 0.92725 0.45345
 C599 C 0.32251 0.92002 0.44720
 C600 C 0.31641 0.90646 0.45394
 C601 C 0.30299 0.89894 0.44737
 C602 C 0.29542 0.90546 0.43436
 H603 H 0.31885 0.95586 0.40792
 H604 H 0.28350 0.91947 0.40943
 H605 H 0.33987 0.95687 0.42738
 H606 H 0.34177 0.92228 0.46368
 H607 H 0.32214 0.90191 0.46428
 H608 H 0.28501 0.89978 0.42930
 O609 O 0.20845 0.51908 0.73801
 O610 O 0.21563 0.52395 0.76501
 O611 O 0.25095 0.53375 0.71346
 O612 O 0.27687 0.52697 0.71243
 O613 O 0.22697 0.49067 0.70122
 O614 O 0.22814 0.46509 0.71251
 O615 O 0.29269 0.49910 0.76006
 O616 O 0.28928 0.52459 0.75124
 O617 O 0.25268 0.48734 0.78586
 O618 O 0.22285 0.49011 0.78137
 O619 O 0.26867 0.45773 0.75178
 O620 O 0.26508 0.45629 0.72189
 O621 O 0.29053 0.47574 0.74554
 O622 O 0.28379 0.47103 0.71785
 O623 O 0.24936 0.46277 0.77016
 O624 O 0.22106 0.46997 0.76914
 O625 O 0.27269 0.50456 0.78108
 O626 O 0.27138 0.53097 0.76965
 O627 O 0.20628 0.49631 0.72413
 O628 O 0.21119 0.46968 0.73049
 O629 O 0.24678 0.50813 0.69639
 O630 O 0.27578 0.50390 0.70109
 O631 O 0.23203 0.53887 0.73226
 O632 O 0.23425 0.53958 0.76045
 Zr633 Zr 0.23204 0.51912 0.74651
 O634 O 0.24605 0.50850 0.76377
 Zr635 Zr 0.25859 0.51100 0.71818
 O636 O 0.27390 0.50005 0.73432
 Zr637 Zr 0.22911 0.48623 0.72551
 O638 O 0.24301 0.47410 0.74189
 Zr639 Zr 0.27025 0.50951 0.75703
 O640 O 0.25640 0.52182 0.74061
 Zr641 Zr 0.24066 0.48472 0.76426
 O642 O 0.22519 0.49568 0.74828
 Zr643 Zr 0.26736 0.47656 0.73619
 O644 O 0.25330 0.48711 0.71860
 O645 O 0.23447 0.50971 0.72396
 O646 O 0.26495 0.48599 0.75879
 C647 C 0.20059 0.50918 0.72957
 C648 C 0.24033 0.54253 0.72006
 C649 C 0.23464 0.49989 0.69211
 C650 C 0.29902 0.48534 0.75524
 C651 C 0.26496 0.49534 0.79009
 C652 C 0.26069 0.45443 0.76430
 H653 H 0.24411 0.51359 0.77413
 H654 H 0.23968 0.46310 0.74197
 H655 H 0.22758 0.51525 0.71646
 H656 H 0.28518 0.50122 0.73102
 H657 H 0.28481 0.53258 0.74427
 H658 H 0.28630 0.52450 0.71890
 H659 H 0.22118 0.46142 0.76121
 H660 H 0.20646 0.47277 0.74080
 H661 H 0.26271 0.53122 0.77763
 H662 H 0.24514 0.54365 0.75850
 H663 H 0.25632 0.44994 0.72628
 H664 H 0.23853 0.46401 0.70695
 H665 H 0.21010 0.51407 0.76724
 H666 H 0.22602 0.49979 0.78695
 H667 H 0.27266 0.49339 0.69732
 H668 H 0.29046 0.48032 0.71607
 O669 O 0.26570 -0.03280 0.26143
 O670 O 0.26302 -0.02814 0.23359
 O671 O 0.29174 0.00640 0.27834
 O672 O 0.28948 0.03195 0.27937
 O673 O 0.24861 -0.00893 0.30192
 O674 O 0.22037 -0.00483 0.29646
 O675 O 0.25105 0.05044 0.23960
 O676 O 0.27902 0.04324 0.24262
 O677 O 0.22760 0.01441 0.21920
 O678 O 0.22693 -0.01455 0.22406
 O679 O 0.20912 0.03408 0.26005
 O680 O 0.21524 0.03262 0.28822
 O681 O 0.23260 0.05259 0.25935
 O682 O 0.23411 0.04708 0.28812
 O683 O 0.20701 0.01580 0.24051
 O684 O 0.20980 -0.01295 0.24128
 O685 O 0.24966 0.02986 0.21871
 O686 O 0.27581 0.02510 0.22201
 O687 O 0.24604 -0.03078 0.28004
 O688 O 0.21867 -0.02261 0.27904
 O689 O 0.26946 0.00808 0.30143
 O690 O 0.26957 0.03575 0.29535
 O691 O 0.28945 -0.01290 0.25982
 O692 O 0.28196 -0.01304 0.23164
 Zr693 Zr 0.26606 -0.01059 0.25104
 O694 O 0.25332 0.00442 0.23619
 Zr695 Zr 0.26925 0.01719 0.27864
 O696 O 0.25661 0.03322 0.26508
 Zr697 Zr 0.23856 -0.00746 0.27920
 O698 O 0.22448 0.00752 0.26558
 Zr699 Zr 0.25957 0.02757 0.24112
 O700 O 0.27395 0.01255 0.25452
 Zr701 Zr 0.22873 0.00337 0.24137
 O702 O 0.24131 -0.01308 0.25507
 Zr703 Zr 0.23199 0.03054 0.26949
 O704 O 0.24480 0.01571 0.28449
 O705 O 0.26299 -0.00592 0.27494
 O706 O 0.23505 0.02642 0.24539
 C707 C 0.25702 -0.03841 0.27258
 C708 C 0.29733 -0.00512 0.27025
 C709 C 0.26058 -0.00190 0.30833
 C710 C 0.24045 0.05800 0.24763
 C711 C 0.23688 0.02433 0.21254
 C712 C 0.20163 0.02745 0.24863
 H713 H 0.25568 0.00171 0.22504
 H714 H 0.21308 0.00611 0.26836
 H715 H 0.26944 -0.01289 0.28154
 H716 H 0.26038 0.04388 0.26745
 H717 H 0.28843 0.03718 0.24599
 H718 H 0.28724 0.04080 0.27245
 H719 H 0.20337 -0.01114 0.25096
 H720 H 0.21838 -0.02749 0.26839
 H721 H 0.28478 0.01873 0.22577
 H722 H 0.29046 -0.00514 0.23297
 H723 H 0.20784 0.02369 0.28742
 H724 H 0.22248 0.00512 0.30209
 H725 H 0.25179 -0.03169 0.23444
 H726 H 0.23611 -0.01357 0.21674
 H727 H 0.25955 0.03509 0.30158
 H728 H 0.24387 0.05329 0.28620
 O729 O 0.49670 0.70498 0.22743
 O730 O 0.47010 0.71540 0.22640
 O731 O 0.52573 0.74528 0.21875
 O732 O 0.52969 0.76855 0.22966
 O733 O 0.53697 0.71418 0.25681
 O734 O 0.52605 0.71111 0.28289
 O735 O 0.48559 0.78377 0.26548
 O736 O 0.49210 0.78387 0.23751
 O737 O 0.45436 0.74617 0.27079
 O738 O 0.45562 0.71855 0.26424
 O739 O 0.49387 0.75247 0.30111
 O740 O 0.52270 0.74672 0.29899
 O741 O 0.50082 0.77639 0.28618
 O742 O 0.52866 0.76567 0.28649
 O743 O 0.47085 0.74043 0.29355
 O744 O 0.47026 0.71210 0.28247
 O745 O 0.46160 0.76872 0.25919
 O746 O 0.46837 0.77020 0.23265
 O747 O 0.51189 0.69772 0.24824
 O748 O 0.50588 0.69801 0.27600
 O749 O 0.54337 0.73561 0.24277
 O750 O 0.54144 0.76333 0.25136
 O751 O 0.50444 0.73031 0.21166
 O752 O 0.47534 0.73507 0.21408
 Zr753 Zr 0.49068 0.72838 0.23253
 O754 O 0.47549 0.74179 0.24737
 Zr755 Zr 0.52243 0.74925 0.24300
 O756 O 0.50867 0.76366 0.25810
 Zr757 Zr 0.51277 0.71760 0.26292
 O758 O 0.49872 0.73061 0.27908
 Zr759 Zr 0.48484 0.76424 0.25038
 O760 O 0.49907 0.75149 0.23385
 Zr761 Zr 0.47541 0.73275 0.27022
 O762 O 0.48898 0.71813 0.25485
 Zr763 Zr 0.50755 0.75344 0.28040
 O764 O 0.52278 0.73989 0.26574
 O765 O 0.51405 0.72667 0.24040
 O766 O 0.48398 0.75527 0.27288
 C767 C 0.50516 0.69503 0.23488
 C768 C 0.51758 0.73749 0.20859
 C769 C 0.54680 0.72243 0.24882
 C770 C 0.49203 0.78620 0.27902
 C771 C 0.45162 0.76022 0.26678
 C772 C 0.47949 0.74794 0.30358
 H773 H 0.46462 0.74218 0.24282
 H774 H 0.49877 0.72560 0.28947
 H775 H 0.52083 0.72039 0.23313
 H776 H 0.51334 0.77421 0.25854
 H777 H 0.49620 0.77996 0.22721
 H778 H 0.52273 0.77733 0.23290
 H779 H 0.47608 0.71247 0.29259
 H780 H 0.49472 0.69560 0.27299
 H781 H 0.47241 0.76546 0.22273
 H782 H 0.48005 0.74441 0.20925
 H783 H 0.51865 0.73677 0.30309
 H784 H 0.53314 0.71998 0.28552
 H785 H 0.46791 0.70843 0.23532
 H786 H 0.45168 0.72196 0.25389
 H787 H 0.54566 0.75836 0.26092
 H788 H 0.52960 0.77465 0.27945
 O789 O -0.04605 0.76204 0.75886
 O790 O -0.03871 0.73543 0.75856
 O791 O -0.00312 0.78391 0.77612
 O792 O 0.02214 0.78632 0.76889
 O793 O -0.02860 0.80237 0.73618
 O794 O -0.02960 0.79564 0.70911
 O795 O 0.03692 0.74400 0.73002
 O796 O 0.03499 0.74733 0.75754
 O797 O -0.00520 0.72057 0.71646
 O798 O -0.03286 0.72545 0.71756
 O799 O 0.01164 0.76108 0.69191
 O800 O 0.01000 0.78841 0.69667
 O801 O 0.03451 0.76207 0.71095
 O802 O 0.02691 0.79091 0.71356
 O803 O -0.00388 0.73964 0.69487
 O804 O -0.03472 0.74292 0.70158
 O805 O 0.01704 0.72277 0.73167
 O806 O 0.01678 0.72900 0.76091
 O807 O -0.04924 0.77918 0.73899
 O808 O -0.04519 0.77671 0.71053
 O809 O -0.00792 0.80451 0.75343
 O810 O 0.02140 0.79971 0.74786
 O811 O -0.02192 0.76498 0.77863
 O812 O -0.01863 0.73701 0.77331
 Zr813 Zr -0.02244 0.75403 0.75606
 O814 O -0.00919 0.73915 0.74094
 Zr815 Zr 0.00368 0.78273 0.75229
 O816 O 0.01867 0.76880 0.73782
 Zr817 Zr -0.02685 0.77953 0.72742
 O818 O -0.01296 0.76630 0.71134
 Zr819 Zr 0.01513 0.74510 0.74235
 O820 O 0.00204 0.75918 0.75865
 Zr821 Zr -0.01504 0.74286 0.71720
 O822 O -0.03018 0.75594 0.73251
 Zr823 Zr 0.01143 0.77148 0.71437
 O824 O -0.00270 0.78645 0.72872
 O825 O -0.02050 0.77740 0.75094
 O826 O 0.00920 0.74789 0.71883
 C827 C -0.05438 0.77174 0.75101
 C828 C -0.01348 0.77634 0.78414
 C829 C -0.02022 0.80996 0.74631
 C830 C 0.04219 0.75133 0.71800
 C831 C 0.00779 0.71523 0.72215
 C832 C 0.00597 0.74808 0.68701
 H833 H -0.01124 0.72829 0.74393
 H834 H -0.01649 0.76816 0.70044
 H835 H -0.02714 0.78391 0.75813
 H836 H 0.02999 0.77175 0.73942
 H837 H 0.03114 0.75291 0.76713
 H838 H 0.03074 0.77885 0.76616
 H839 H -0.03132 0.74800 0.69174
 H840 H -0.05007 0.76642 0.71235
 H841 H 0.00821 0.72119 0.75955
 H842 H -0.00792 0.73905 0.77781
 H843 H -0.00089 0.78786 0.69221
 H844 H -0.01925 0.80113 0.70814
 H845 H -0.04497 0.73487 0.74869
 H846 H -0.03299 0.72123 0.72833
 H847 H 0.01762 0.80592 0.73890
 H848 H 0.03597 0.78899 0.72072
 O849 O 0.05217 0.01370 0.00402
 O850 O 0.05390 0.00918 -0.02404
 O851 O 0.00916 0.03910 0.00997
 O852 O -0.01679 0.03601 0.00331
 O853 O 0.01900 0.00023 0.03918
 O854 O 0.01670 -0.02739 0.03529
 O855 O -0.02514 -0.00549 -0.03662
 O856 O -0.01949 0.02142 -0.03458
 O857 O 0.01839 -0.02777 -0.04525
 O858 O 0.04488 -0.02754 -0.03184
 O859 O -0.01312 -0.04343 -0.01101
 O860 O -0.01805 -0.03542 0.01748
 O861 O -0.03177 -0.02178 -0.01681
 O862 O -0.03340 -0.01812 0.01211
 O863 O 0.01080 -0.04654 -0.02358
 O864 O 0.03857 -0.04275 -0.01526
 O865 O 0.00151 -0.00808 -0.05132
 O866 O 0.00322 0.01977 -0.04763
 O867 O 0.04617 -0.00329 0.02344
 O868 O 0.03841 -0.03037 0.02267
 O869 O 0.00186 0.01972 0.03302
 O870 O -0.02416 0.01806 0.02046
 O871 O 0.03225 0.03598 -0.00411
 O872 O 0.03839 0.02703 -0.03020
 Zr873 Zr 0.03240 0.01256 -0.01117
 O874 O 0.02166 -0.00182 -0.02826
 Zr875 Zr -0.00181 0.01701 0.00858
 O876 O -0.01414 0.00276 -0.00782
 Zr877 Zr 0.02314 -0.01158 0.01756
 O878 O 0.01188 -0.02715 0.00163
 Zr879 Zr -0.00278 0.00367 -0.02990
 O880 O 0.00840 0.01943 -0.01405
 Zr881 Zr 0.02220 -0.02494 -0.02086
 O882 O 0.03476 -0.01074 -0.00449
 Zr883 Zr -0.01215 -0.02066 -0.00138
 O884 O -0.00138 -0.00619 0.01610
 O885 O 0.02220 0.01156 0.01115
 O886 O -0.00193 -0.01963 -0.02379
 C887 C 0.05541 0.00667 0.01686
 C888 C 0.02236 0.04419 0.00408
 C889 C 0.01041 0.01219 0.04282
 C890 C -0.03457 -0.01526 -0.03003
 C891 C 0.01015 -0.01991 -0.05503
 C892 C -0.00307 -0.05139 -0.01938
 H893 H 0.02741 -0.00051 -0.03836
 H894 H 0.01279 -0.03786 0.00549
 H895 H 0.02757 0.01861 0.01879
 H896 H -0.02542 0.00611 -0.00853
 H897 H -0.01567 0.03090 -0.02901
 H898 H -0.02499 0.03225 -0.00420
 H899 H 0.03459 -0.04791 -0.00568
 H900 H 0.04627 -0.03110 0.01391
 H901 H 0.01430 0.01764 -0.05121
 H902 H 0.02854 0.03279 -0.03287
 H903 H -0.00963 -0.04344 0.01815
 H904 H 0.00506 -0.02610 0.03707
 H905 H 0.05818 -0.00105 -0.02098
 H906 H 0.04615 -0.01905 -0.03945
 H907 H -0.02495 0.00866 0.02696
 H908 H -0.03877 -0.00851 0.00875
 O909 O -0.01132 0.54662 0.52951
 O910 O -0.03979 0.54527 0.52582
 O911 O -0.00081 0.50470 0.55298
 O912 O -0.00626 0.47897 0.54854
 O913 O 0.02789 0.51841 0.51463
 O914 O 0.02484 0.51700 0.48638
 O915 O -0.04424 0.46872 0.50566
 O916 O -0.04359 0.47326 0.53328
 O917 O -0.05636 0.51074 0.48534
 O918 O -0.04573 0.53787 0.48793
 O919 O -0.01860 0.48503 0.46791
 O920 O 0.01044 0.48241 0.47613
 O921 O -0.02340 0.46517 0.48864
 O922 O 0.00567 0.46599 0.49229
 O923 O -0.03320 0.50722 0.46627
 O924 O -0.02785 0.53454 0.47236
 O925 O -0.06156 0.49281 0.50406
 O926 O -0.05893 0.49395 0.53267
 O927 O 0.00973 0.54308 0.51265
 O928 O 0.01028 0.53701 0.48474
 O929 O 0.02295 0.50010 0.53307
 O930 O 0.01247 0.47401 0.53001
 O931 O -0.01725 0.52570 0.55137
 O932 O -0.04433 0.52877 0.54303
 Zr933 Zr -0.02447 0.52587 0.52771
 O934 O -0.04043 0.51460 0.51232
 Zr935 Zr -0.00142 0.49457 0.53011
 O936 O -0.01653 0.48182 0.51475
 Zr937 Zr 0.00600 0.52082 0.50273
 O938 O -0.00869 0.50929 0.48617
 Zr939 Zr -0.03993 0.49059 0.51626
 O940 O -0.02530 0.50209 0.53310
 Zr941 Zr -0.03237 0.51704 0.48903
 O942 O -0.01733 0.52996 0.50430
 Zr943 Zr -0.00965 0.48550 0.49118
 O944 O 0.00669 0.49677 0.50667
 O945 O -0.00095 0.51824 0.52604
 O946 O -0.03322 0.49319 0.49276
 C947 C 0.00169 0.55110 0.52288
 C948 C -0.00777 0.51682 0.55892
 C949 C 0.03215 0.50982 0.52613
 C950 C -0.03652 0.46079 0.49514
 C951 C -0.06563 0.50115 0.49234
 C952 C -0.02755 0.49453 0.46041
 H953 H -0.05123 0.51904 0.51388
 H954 H -0.00460 0.51113 0.47541
 H955 H 0.00619 0.52390 0.53341
 H956 H -0.01627 0.47070 0.51743
 H957 H -0.03861 0.47711 0.54317
 H958 H -0.01268 0.47032 0.54409
 H959 H -0.01760 0.53204 0.46701
 H960 H 0.00086 0.54398 0.48462
 H961 H -0.06354 0.50436 0.53108
 H962 H -0.04608 0.51864 0.54810
 H963 H 0.01051 0.49095 0.46849
 H964 H 0.02792 0.50595 0.48724
 H965 H -0.03730 0.55007 0.51558
 H966 H -0.05420 0.53753 0.49611
 H967 H 0.01913 0.47409 0.52032
 H968 H 0.00272 0.46015 0.50182
 O969 O 0.47509 -0.04002 0.49348
 O970 O 0.47278 -0.03096 0.52019
 O971 O 0.46191 0.00105 0.46803
 O972 O 0.47082 0.02540 0.46602
 O973 O 0.50344 -0.02612 0.45369
 O974 O 0.52994 -0.02802 0.46349
 O975 O 0.50594 0.04023 0.51070
 O976 O 0.47840 0.03936 0.50436
 O977 O 0.51616 0.00163 0.53689
 O978 O 0.51026 -0.02679 0.53373
 O979 O 0.54468 0.01283 0.49999
 O980 O 0.54343 0.00828 0.47066
 O981 O 0.52720 0.03558 0.49444
 O982 O 0.52921 0.02675 0.46652
 O983 O 0.53934 -0.00425 0.51948
 O984 O 0.52922 -0.03132 0.51950
 O985 O 0.49994 0.02238 0.53292
 O986 O 0.47190 0.02367 0.52366
 O987 O 0.49646 -0.04481 0.47733
 O988 O 0.52480 -0.04270 0.48236
 O989 O 0.48681 -0.00571 0.44946
 O990 O 0.49346 0.02213 0.45328
 O991 O 0.45654 -0.01573 0.48780
 O992 O 0.45833 -0.01163 0.51588
 Zr993 Zr 0.47790 -0.01672 0.50076
 O994 O 0.49175 -0.00351 0.51668
 Zr995 Zr 0.48623 0.00669 0.47112
 O996 O 0.50027 0.02117 0.48585
 Zr997 Zr 0.50944 -0.02387 0.47764
 O998 O 0.52466 -0.01079 0.49240
 Zr999 Zr 0.49246 0.01966 0.50937
 O1000 O 0.47702 0.00678 0.49434
 Zr1001 Zr 0.51561 -0.01105 0.51553
 O1002 O 0.50136 -0.02562 0.50108
 Zr1003 Zr 0.52387 0.01269 0.48608
 O1004 O 0.51020 -0.00079 0.46994
 O1005 O 0.48578 -0.01646 0.47751
 O1006 O 0.51615 0.01226 0.50941
 C1007 C 0.48349 -0.04890 0.48435
 C1008 C 0.45254 -0.00810 0.47553
 C1009 C 0.49425 -0.01809 0.44492
 C1010 C 0.51918 0.04420 0.50411
 C1011 C 0.50948 0.01439 0.54138
 C1012 C 0.54839 0.00557 0.51257
 H1013 H 0.48731 -0.00443 0.52744
 H1014 H 0.53563 -0.01504 0.49173
 H1015 H 0.47896 -0.02291 0.47050
 H1016 H 0.49974 0.03200 0.48221
 H1017 H 0.46916 0.03559 0.49812
 H1018 H 0.47456 0.03453 0.47218
 H1019 H 0.53760 -0.03203 0.51124
 H1020 H 0.52163 -0.04664 0.49282
 H1021 H 0.47112 0.01527 0.53142
 H1022 H 0.45498 -0.00088 0.51359
 H1023 H 0.54906 -0.00107 0.47437
 H1024 H 0.53230 -0.01817 0.45811
 H1025 H 0.48261 -0.03700 0.52217
 H1026 H 0.50079 -0.02282 0.53957
 H1027 H 0.50367 0.01811 0.44885
 H1028 H 0.52064 0.03461 0.46574
 O1029 O 0.53801 0.52736 -0.00617
 O1030 O 0.53257 0.52103 -0.03359
 O1031 O 0.49386 0.54675 0.01004
 O1032 O 0.46766 0.53936 0.00907
 O1033 O 0.51713 0.51303 0.03715
 O1034 O 0.51920 0.48504 0.03534
 O1035 O 0.45688 0.49328 -0.02370
 O1036 O 0.45844 0.52136 -0.02489
 O1037 O 0.50012 0.47687 -0.04213
 O1038 O 0.52869 0.48315 -0.03713
 O1039 O 0.48284 0.46042 -0.00024
 O1040 O 0.48371 0.47058 0.02806
 O1041 O 0.45909 0.47807 -0.00218
 O1042 O 0.46411 0.48407 0.02566
 O1043 O 0.50302 0.45998 -0.01834
 O1044 O 0.53088 0.46958 -0.01812
 O1045 O 0.47809 0.49215 -0.04433
 O1046 O 0.47727 0.51862 -0.04515
 O1047 O 0.53972 0.51221 0.01548
 O1048 O 0.53751 0.48466 0.01813
 O1049 O 0.49541 0.52873 0.03465
 O1050 O 0.46779 0.52263 0.02876
 O1051 O 0.51313 0.54609 -0.00905
 O1052 O 0.51371 0.53594 -0.03605
 Zr1053 Zr 0.51512 0.52248 -0.01547
 O1054 O 0.50302 0.50507 -0.02840
 Zr1055 Zr 0.48662 0.52341 0.01198
 O1056 O 0.47339 0.50579 0.00036
 Zr1057 Zr 0.51797 0.50003 0.01591
 O1058 O 0.50633 0.48151 0.00425
 Zr1059 Zr 0.47831 0.50619 -0.02390
 O1060 O 0.49014 0.52514 -0.01261
 Zr1061 Zr 0.50998 0.48325 -0.02019
 O1062 O 0.52339 0.50063 -0.00835
 Zr1063 Zr 0.48149 0.48385 0.00741
 O1064 O 0.49327 0.50152 0.02058
 O1065 O 0.51120 0.52193 0.00870
 O1066 O 0.48528 0.48422 -0.01683
 C1067 C 0.54540 0.52231 0.00598
 C1068 C 0.50444 0.55326 0.00126
 C1069 C 0.50747 0.52360 0.04230
 C1070 C 0.45165 0.48276 -0.01439
 C1071 C 0.48753 0.48135 -0.04934
 C1072 C 0.49195 0.45341 -0.01035
 H1073 H 0.50524 0.50625 -0.03978
 H1074 H 0.51033 0.47156 0.00830
 H1075 H 0.51705 0.53023 0.01446
 H1076 H 0.46184 0.50726 0.00247
 H1077 H 0.46258 0.53200 -0.02302
 H1078 H 0.45887 0.53374 0.00372
 H1079 H 0.53044 0.46443 -0.00780
 H1080 H 0.54294 0.48424 0.00773
 H1081 H 0.48244 0.52874 -0.04304
 H1082 H 0.50371 0.54206 -0.03532
 H1083 H 0.49334 0.46398 0.02688
 H1084 H 0.50850 0.48522 0.04040
 H1085 H 0.53927 0.51186 -0.03135
 H1086 H 0.52598 0.49078 -0.04527
 H1087 H 0.47003 0.51375 0.03567
 H1088 H 0.45646 0.49252 0.02350
 O1089 O 0.75809 0.26183 0.46070
 O1090 O 0.73061 0.26536 0.46752
 O1091 O 0.78207 0.27949 0.50186
 O1092 O 0.78306 0.27438 0.52744
 O1093 O 0.79654 0.23601 0.47992
 O1094 O 0.78594 0.21014 0.48106
 O1095 O 0.73594 0.24412 0.54407
 O1096 O 0.74320 0.27019 0.54001
 O1097 O 0.71053 0.22917 0.50498
 O1098 O 0.71544 0.23029 0.47571
 O1099 O 0.74673 0.20241 0.52202
 O1100 O 0.77623 0.20228 0.51924
 O1101 O 0.75114 0.22222 0.54273
 O1102 O 0.78054 0.21914 0.53580
 O1103 O 0.72760 0.20552 0.50339
 O1104 O 0.72903 0.21092 0.47479
 O1105 O 0.71436 0.24749 0.52423
 O1106 O 0.72458 0.27442 0.52227
 O1107 O 0.77367 0.24019 0.45908
 O1108 O 0.76752 0.21327 0.46443
 O1109 O 0.80046 0.25429 0.49921
 O1110 O 0.79494 0.25189 0.52785
 O1111 O 0.76285 0.28273 0.48329
 O1112 O 0.73406 0.28182 0.48568
 Zr1113 Zr 0.74925 0.26224 0.48390
 O1114 O 0.73208 0.25116 0.49796
 Zr1115 Zr 0.77797 0.25702 0.51024
 O1116 O 0.76193 0.24601 0.52569
 Zr1117 Zr 0.77202 0.23062 0.48178
 O1118 O 0.75597 0.21815 0.49606
 Zr1119 Zr 0.73852 0.25382 0.52174
 O1120 O 0.75482 0.26642 0.50778
 Zr1121 Zr 0.73280 0.22713 0.49345
 O1122 O 0.74855 0.23845 0.47779
 Zr1123 Zr 0.76133 0.22216 0.51999
 O1124 O 0.77873 0.23296 0.50559
 O1125 O 0.77253 0.25435 0.48650
 O1126 O 0.73799 0.22999 0.51727
 C1127 C 0.76749 0.25246 0.45320
 C1128 C 0.77506 0.28738 0.49121
 C1129 C 0.80539 0.24566 0.48765
 C1130 C 0.74143 0.23156 0.54987
 C1131 C 0.70572 0.23748 0.51682
 C1132 C 0.73400 0.19812 0.51473
 H1133 H 0.72138 0.25550 0.49584
 H1134 H 0.75646 0.20698 0.49322
 H1135 H 0.78014 0.25993 0.47965
 H1136 H 0.76515 0.24800 0.53674
 H1137 H 0.74997 0.27840 0.53538
 H1138 H 0.77603 0.27248 0.53662
 H1139 H 0.73731 0.20277 0.47551
 H1140 H 0.75708 0.21584 0.45968
 H1141 H 0.71687 0.27391 0.51348
 H1142 H 0.73607 0.28670 0.49614
 H1143 H 0.77351 0.19616 0.50966
 H1144 H 0.79113 0.20945 0.49149
 H1145 H 0.72869 0.25508 0.46248
 H1146 H 0.70970 0.24010 0.47808
 H1147 H 0.79935 0.24148 0.52527
 H1148 H 0.78020 0.22778 0.54364
 O1149 O 0.78484 0.74289 -0.03162
 O1150 O 0.77328 0.71713 -0.03303
 O1151 O 0.74540 0.77242 -0.04052
 O1152 O 0.72083 0.77667 -0.03044
 O1153 O 0.77652 0.78202 -0.00124
 O1154 O 0.77885 0.77136 0.02456
 O1155 O 0.70278 0.73412 0.00404
 O1156 O 0.70288 0.74136 -0.02289
 O1157 O 0.74014 0.70328 0.00961
 O1158 O 0.76925 0.70354 0.00310
 O1159 O 0.73509 0.74099 0.04094
 O1160 O 0.74161 0.76904 0.03961
 O1161 O 0.71055 0.74857 0.02534
 O1162 O 0.72218 0.77504 0.02732
 O1163 O 0.74890 0.71928 0.03357
 O1164 O 0.77574 0.71592 0.02222
 O1165 O 0.71818 0.71048 -0.00416
 O1166 O 0.71628 0.72056 -0.03101
 O1167 O 0.79259 0.75720 -0.01017
 O1168 O 0.79167 0.75128 0.01762
 O1169 O 0.75506 0.78919 -0.01581
 O1170 O 0.72674 0.78861 -0.00789
 O1171 O 0.75882 0.75037 -0.04774
 O1172 O 0.75327 0.72340 -0.04616
 Zr1173 Zr 0.76060 0.73765 -0.02699
 O1174 O 0.74600 0.72341 -0.01309
 Zr1175 Zr 0.74020 0.76937 -0.01643
 O1176 O 0.72458 0.75641 -0.00209
 Zr1177 Zr 0.77199 0.75869 0.00413
 O1178 O 0.75786 0.74542 0.01945
 Zr1179 Zr 0.72317 0.73342 -0.01060
 O1180 O 0.73721 0.74683 -0.02614
 Zr1181 Zr 0.75508 0.72292 0.00990
 O1182 O 0.77087 0.73568 -0.00453
 Zr1183 Zr 0.73452 0.75451 0.02052
 O1184 O 0.74928 0.76901 0.00668
 O1185 O 0.76310 0.76030 -0.01859
 O1186 O 0.73195 0.73174 0.01225
 C1187 C 0.79526 0.75074 -0.02372
 C1188 C 0.75268 0.76365 -0.05069
 C1189 C 0.76866 0.79190 -0.00927
 C1190 C 0.70022 0.74043 0.01767
 C1191 C 0.72625 0.70065 0.00373
 C1192 C 0.74114 0.72760 0.04370
 H1193 H 0.74555 0.71292 -0.01794
 H1194 H 0.76294 0.74533 0.02994
 H1195 H 0.76991 0.76664 -0.02557
 H1196 H 0.71387 0.76127 -0.00174
 H1197 H 0.70694 0.74710 -0.03210
 H1198 H 0.71095 0.77222 -0.02591
 H1199 H 0.77835 0.72420 0.03001
 H1200 H 0.79439 0.74067 0.01379
 H1201 H 0.72395 0.71193 -0.03265
 H1202 H 0.74210 0.72637 -0.04848
 H1203 H 0.75166 0.76481 0.04388
 H1204 H 0.76982 0.77838 0.02726
 H1205 H 0.78059 0.71508 -0.02416
 H1206 H 0.76474 0.69909 -0.00675
 H1207 H 0.73149 0.79188 0.00231
 H1208 H 0.71370 0.77683 0.01948
 O1209 O 1.04125 0.23391 0.24350
 O1210 O 1.03901 0.24058 0.27130
 O1211 O 1.00005 0.20629 0.23492
 O1212 O 0.97351 0.20875 0.24017
 O1213 O 1.01110 0.24290 0.20380
 O1214 O 1.00886 0.27065 0.20506
 O1215 O 0.95884 0.25505 0.27363
 O1216 O 0.96504 0.22726 0.27465
 O1217 O 0.99997 0.27857 0.28443
 O1218 O 1.02769 0.27796 0.27497
 O1219 O 0.97340 0.28935 0.24463
 O1220 O 0.97228 0.27782 0.21698
 O1221 O 0.95424 0.26774 0.25080
 O1222 O 0.95637 0.26137 0.22286
 O1223 O 0.99486 0.29440 0.26026
 O1224 O 1.02433 0.29022 0.25510
 O1225 O 0.98219 0.25960 0.29054
 O1226 O 0.98646 0.23337 0.29150
 O1227 O 1.03683 0.24861 0.22191
 O1228 O 1.02876 0.27482 0.21906
 O1229 O 0.99413 0.22328 0.21018
 O1230 O 0.96707 0.22433 0.22043
 O1231 O 1.02144 0.21135 0.25066
 O1232 O 1.02368 0.22284 0.27729
 Zr1233 Zr 1.01953 0.23522 0.25638
 O1234 O 1.00621 0.25086 0.27072
 Zr1235 Zr 0.98806 0.22780 0.23390
 O1236 O 0.97338 0.24323 0.24713
 Zr1237 Zr 1.01315 0.25637 0.22461
 O1238 O 0.99978 0.27294 0.23751
 Zr1239 Zr 0.98179 0.24514 0.27034
 O1240 O 0.99538 0.22804 0.25769
 Zr1241 Zr 1.00722 0.27317 0.26115
 O1242 O 1.02203 0.25789 0.24777
 Zr1243 Zr 0.97578 0.26575 0.23822
 O1244 O 0.98889 0.25000 0.22383
 O1245 O 1.01207 0.23394 0.23310
 O1246 O 0.98302 0.26749 0.26163
 C1247 C 1.04568 0.23997 0.23040
 C1248 C 1.01292 0.20221 0.24201
 C1249 C 1.00302 0.23060 0.20040
 C1250 C 0.95016 0.26345 0.26463
 C1251 C 0.98992 0.27214 0.29378
 C1252 C 0.98186 0.29839 0.25342
 H1253 H 1.01034 0.25065 0.28162
 H1254 H 1.00099 0.28322 0.23265
 H1255 H 1.01851 0.22664 0.22652
 H1256 H 0.96215 0.23961 0.24695
 H1257 H 0.97058 0.21732 0.27231
 H1258 H 0.96450 0.21290 0.24658
 H1259 H 1.02049 0.29554 0.24560
 H1260 H 1.03500 0.27713 0.22871
 H1261 H 0.99243 0.22387 0.28852
 H1262 H 1.01517 0.21491 0.27813
 H1263 H 0.98028 0.28626 0.21650
 H1264 H 0.99774 0.26856 0.20168
 H1265 H 1.04329 0.25069 0.26784
 H1266 H 1.02860 0.26967 0.28283
 H1267 H 0.96647 0.23300 0.21294
 H1268 H 0.95094 0.25184 0.22642
 O1269 O 0.75584 0.98396 0.79348
 O1270 O 0.72742 0.98785 0.78881
 O1271 O 0.77099 0.95656 0.75444
 O1272 O 0.77027 0.95765 0.72810
 O1273 O 0.79731 0.99664 0.76897
 O1274 O 0.79389 1.02421 0.76406
 O1275 O 0.73170 0.99873 0.70981
 O1276 O 0.73384 0.97128 0.71575
 O1277 O 0.71473 1.02249 0.74629
 O1278 O 0.72055 1.02323 0.77580
 O1279 O 0.75614 1.03688 0.72537
 O1280 O 0.78468 1.02903 0.72664
 O1281 O 0.75374 1.01392 0.70679
 O1282 O 0.78274 1.01071 0.71177
 O1283 O 0.73752 1.04075 0.74470
 O1284 O 0.73879 1.03864 0.77363
 O1285 O 0.71179 1.00045 0.73142
 O1286 O 0.71559 0.97305 0.73494
 O1287 O 0.77582 1.00176 0.79115
 O1288 O 0.77693 1.02789 0.78235
 O1289 O 0.79518 0.97626 0.75163
 O1290 O 0.78849 0.97582 0.72375
 O1291 O 0.75219 0.96037 0.77367
 O1292 O 0.72483 0.96867 0.77345
 Zr1293 Zr 0.74483 0.98350 0.77110
 O1294 O 0.73019 0.99658 0.75619
 Zr1295 Zr 0.77189 0.97780 0.74266
 O1296 O 0.75847 0.99065 0.72649
 Zr1297 Zr 0.77512 1.00811 0.76737
 O1298 O 0.76185 1.02236 0.75237
 Zr1299 Zr 0.73415 0.98967 0.73260
 O1300 O 0.74729 0.97515 0.74765
 Zr1301 Zr 0.73726 1.01995 0.75718
 O1302 O 0.75072 1.00717 0.77363
 Zr1303 Zr 0.76461 1.01425 0.72900
 O1304 O 0.77941 1.00111 0.74384
 O1305 O 0.76910 0.98474 0.76607
 O1306 O 0.74018 1.01309 0.73374
 C1307 C 0.76773 0.99183 0.79899
 C1308 C 0.76256 0.95201 0.76621
 C1309 C 0.80287 0.98447 0.76183
 C1310 C 0.74060 1.00796 0.70185
 C1311 C 0.70684 1.01357 0.73681
 C1312 C 0.74542 1.04507 0.73252
 H1313 H 0.71888 0.99530 0.75938
 H1314 H 0.76545 1.03323 0.75369
 H1315 H 0.77550 0.97830 0.77322
 H1316 H 0.76026 0.98668 0.71562
 H1317 H 0.73814 0.96202 0.72105
 H1318 H 0.76465 0.96056 0.71835
 H1319 H 0.74900 1.04410 0.77167
 H1320 H 0.76637 1.02916 0.78754
 H1321 H 0.70987 0.97527 0.74496
 H1322 H 0.72451 0.96209 0.76377
 H1323 H 0.78427 1.03679 0.73537
 H1324 H 0.79914 1.02135 0.75393
 H1325 H 0.72911 0.99866 0.79257
 H1326 H 0.71203 1.01533 0.77456
 H1327 H 0.79524 0.98526 0.72409
 H1328 H 0.78027 1.00098 0.70591
 O1329 O 0.74620 0.54477 0.23360
 O1330 O 0.77462 0.54285 0.23144
 O1331 O 0.73112 0.50101 0.21326
 O1332 O 0.73357 0.47593 0.21814
 O1333 O 0.71029 0.51862 0.25727
 O1334 O 0.71911 0.51877 0.28379
 O1335 O 0.78112 0.46663 0.25089
 O1336 O 0.77616 0.47087 0.22428
 O1337 O 0.79855 0.50942 0.26897
 O1338 O 0.78908 0.53617 0.26861
 O1339 O 0.76340 0.48562 0.29338
 O1340 O 0.73445 0.48239 0.29114
 O1341 O 0.76510 0.46508 0.27258
 O1342 O 0.73460 0.46629 0.27338
 O1343 O 0.77980 0.50660 0.29181
 O1344 O 0.77296 0.53470 0.28644
 O1345 O 0.79896 0.48906 0.25153
 O1346 O 0.79103 0.49210 0.22224
 O1347 O 0.72954 0.54292 0.25483
 O1348 O 0.73478 0.53767 0.28237
 O1349 O 0.71075 0.50025 0.23764
 O1350 O 0.72119 0.47288 0.24011
 O1351 O 0.74668 0.52262 0.21155
 O1352 O 0.77547 0.52496 0.21428
 Zr1353 Zr 0.75896 0.52368 0.23319
 O1354 O 0.77759 0.51266 0.24537
 Zr1355 Zr 0.73494 0.49311 0.23619
 O1356 O 0.75277 0.48046 0.24790
 Zr1357 Zr 0.73433 0.52083 0.26394
 O1358 O 0.75160 0.50920 0.27726
 Zr1359 Zr 0.77570 0.48854 0.24189
 O1360 O 0.75796 0.49962 0.22831
 Zr1361 Zr 0.77445 0.51616 0.26978
 O1362 O 0.75712 0.52900 0.25748
 Zr1363 Zr 0.75071 0.48521 0.27219
 O1364 O 0.73183 0.49667 0.26059
 O1365 O 0.73605 0.51698 0.23974
 O1366 O 0.77367 0.49222 0.26609
 C1367 C 0.73531 0.55017 0.24297
 C1368 C 0.73646 0.51286 0.20592
 C1369 C 0.70348 0.51025 0.24660
 C1370 C 0.77623 0.45985 0.26338
 C1371 C 0.80557 0.49801 0.26191
 C1372 C 0.77440 0.49457 0.29882
 H1373 H 0.78805 0.51662 0.24175
 H1374 H 0.74978 0.51150 0.28859
 H1375 H 0.72777 0.52256 0.23377
 H1376 H 0.75169 0.46926 0.24536
 H1377 H 0.76909 0.47437 0.21571
 H1378 H 0.74297 0.46910 0.21934
 H1379 H 0.76553 0.53158 0.29493
 H1380 H 0.74408 0.54447 0.28031
 H1381 H 0.79943 0.49963 0.22533
 H1382 H 0.77571 0.51454 0.20917
 H1383 H 0.73439 0.49217 0.29743
 H1384 H 0.71572 0.50776 0.28406
 H1385 H 0.77489 0.54786 0.24202
 H1386 H 0.79435 0.53611 0.25814
 H1387 H 0.71528 0.47459 0.25014
 H1388 H 0.73730 0.45889 0.26471
 O1389 O 0.50095 0.19228 0.74076
 O1390 O 0.47253 0.19623 0.74184
 O1391 O 0.51761 0.23171 0.71586
 O1392 O 0.51615 0.25761 0.71856
 O1393 O 0.54100 0.21780 0.75848
 O1394 O 0.53479 0.22095 0.78581
 O1395 O 0.47424 0.27432 0.75570
 O1396 O 0.47727 0.26727 0.72887
 O1397 O 0.45513 0.23508 0.77840
 O1398 O 0.46251 0.20773 0.77891
 O1399 O 0.49398 0.25854 0.79753
 O1400 O 0.52322 0.25837 0.79205
 O1401 O 0.49284 0.27703 0.77502
 O1402 O 0.52243 0.27314 0.77387
 O1403 O 0.47661 0.23831 0.79909
 O1404 O 0.48002 0.20961 0.79498
 O1405 O 0.45423 0.25293 0.75781
 O1406 O 0.45971 0.24822 0.72964
 O1407 O 0.51986 0.19485 0.75984
 O1408 O 0.51782 0.20306 0.78728
 O1409 O 0.53988 0.23431 0.73786
 O1410 O 0.53227 0.26184 0.73869
 O1411 O 0.49931 0.21219 0.71723
 O1412 O 0.47128 0.21195 0.72335
 Zr1413 Zr 0.48976 0.21411 0.74016
 O1414 O 0.47349 0.22794 0.75315
 Zr1415 Zr 0.51626 0.24278 0.73818
 O1416 O 0.50098 0.25801 0.75088
 Zr1417 Zr 0.51762 0.21805 0.76780
 O1418 O 0.50261 0.23225 0.78194
 Zr1419 Zr 0.47707 0.25134 0.74758
 O1420 O 0.49218 0.23735 0.73320
 Zr1421 Zr 0.47867 0.22658 0.77726
 O1422 O 0.49370 0.21115 0.76441
 Zr1423 Zr 0.50482 0.25553 0.77519
 O1424 O 0.52145 0.24153 0.76239
 O1425 O 0.51369 0.21955 0.74371
 O1426 O 0.48081 0.24998 0.77179
 C1427 C 0.51241 0.18699 0.74917
 C1428 C 0.51001 0.22003 0.70992
 C1429 C 0.54730 0.22473 0.74669
 C1430 C 0.48128 0.28213 0.76663
 C1431 C 0.44703 0.24584 0.77014
 C1432 C 0.48326 0.25060 0.80473
 H1433 H 0.46245 0.22451 0.75091
 H1434 H 0.50530 0.23088 0.79316
 H1435 H 0.52092 0.21278 0.73737
 H1436 H 0.50277 0.26878 0.74744
 H1437 H 0.48293 0.26214 0.71991
 H1438 H 0.50939 0.26668 0.72137
 H1439 H 0.48894 0.21246 0.80208
 H1440 H 0.50781 0.19693 0.78676
 H1441 H 0.45311 0.23906 0.73216
 H1442 H 0.47107 0.22184 0.71759
 H1443 H 0.52238 0.24975 0.79957
 H1444 H 0.53891 0.23167 0.78491
 H1445 H 0.47339 0.19207 0.75261
 H1446 H 0.45619 0.20728 0.76909
 H1447 H 0.53818 0.26139 0.74876
 H1448 H 0.52050 0.27905 0.76417
 O1449 O 0.29306 0.77873 0.50161
 O1450 O 0.29475 0.77168 0.52844
 O1451 O 0.30575 0.73585 0.47745
 O1452 O 0.29631 0.71187 0.47501
 O1453 O 0.26566 0.76383 0.46266
 O1454 O 0.23840 0.76510 0.47179
 O1455 O 0.26228 0.69960 0.52077
 O1456 O 0.28961 0.70046 0.51451
 O1457 O 0.25085 0.73921 0.54619
 O1458 O 0.25784 0.76791 0.54253
 O1459 O 0.22285 0.72678 0.51017
 O1460 O 0.22354 0.72869 0.48156
 O1461 O 0.24020 0.70363 0.50583
 O1462 O 0.23910 0.71089 0.47661
 O1463 O 0.22801 0.74531 0.52888
 O1464 O 0.23844 0.77171 0.52888
 O1465 O 0.26740 0.71847 0.54259
 O1466 O 0.29588 0.71740 0.53322
 O1467 O 0.27132 0.78302 0.48623
 O1468 O 0.24270 0.78084 0.49076
 O1469 O 0.28107 0.74236 0.45853
 O1470 O 0.27373 0.71459 0.46319
 O1471 O 0.31136 0.75320 0.49722
 O1472 O 0.30887 0.75204 0.52529
 Zr1473 Zr 0.28973 0.75600 0.50967
 O1474 O 0.27583 0.74376 0.52602
 Zr1475 Zr 0.28129 0.73101 0.48046
 O1476 O 0.26735 0.71735 0.49576
 Zr1477 Zr 0.25847 0.76202 0.48647
 O1478 O 0.24315 0.74975 0.50170
 Zr1479 Zr 0.27526 0.72026 0.51909
 O1480 O 0.29055 0.73221 0.50358
 Zr1481 Zr 0.25198 0.75125 0.52482
 O1482 O 0.26629 0.76499 0.50988
 Zr1483 Zr 0.24375 0.72584 0.49612
 O1484 O 0.25737 0.73849 0.47941
 O1485 O 0.28207 0.75447 0.48644
 O1486 O 0.25154 0.72763 0.51927
 C1487 C 0.28448 0.78732 0.49276
 C1488 C 0.31535 0.74472 0.48520
 C1489 C 0.27457 0.75503 0.45390
 C1490 C 0.24869 0.69546 0.51521
 C1491 C 0.25748 0.72663 0.55083
 C1492 C 0.21900 0.73502 0.52240
 H1493 H 0.28020 0.74524 0.53673
 H1494 H 0.23220 0.75401 0.50101
 H1495 H 0.28919 0.76044 0.47941
 H1496 H 0.26788 0.70632 0.49238
 H1497 H 0.29875 0.70392 0.50797
 H1498 H 0.29323 0.70340 0.48213
 H1499 H 0.23070 0.77255 0.52016
 H1500 H 0.24582 0.78556 0.50101
 H1501 H 0.29577 0.72541 0.54172
 H1502 H 0.31213 0.74108 0.52365
 H1503 H 0.22016 0.73967 0.48255
 H1504 H 0.23682 0.75514 0.46601
 H1505 H 0.28477 0.77757 0.53052
 H1506 H 0.26614 0.76341 0.54935
 H1507 H 0.26383 0.71871 0.45846
 H1508 H 0.24652 0.70198 0.47718
 O1509 O 0.26173 0.29991 1.00369
 O1510 O 0.25767 0.29249 1.03030
 O1511 O 0.28714 0.26139 0.98362
 O1512 O 0.28366 0.23596 0.98003
 O1513 O 0.24690 0.28092 0.95906
 O1514 O 0.21898 0.27943 0.96193
 O1515 O 0.24008 0.21653 1.01651
 O1516 O 0.26780 0.22131 1.01671
 O1517 O 0.21765 0.25452 1.03753
 O1518 O 0.21676 0.28152 1.03413
 O1519 O 0.20180 0.23692 0.99282
 O1520 O 0.21079 0.23894 0.96625
 O1521 O 0.22333 0.21697 0.99551
 O1522 O 0.23015 0.22456 0.96662
 O1523 O 0.19917 0.25286 1.01435
 O1524 O 0.20372 0.28293 1.01386
 O1525 O 0.23666 0.23563 1.03792
 O1526 O 0.26671 0.23930 1.03588
 O1527 O 0.24520 0.30079 0.98247
 O1528 O 0.21613 0.29420 0.98185
 O1529 O 0.26747 0.26361 0.95946
 O1530 O 0.26446 0.23457 0.96275
 O1531 O 0.28446 0.27869 1.00407
 O1532 O 0.27505 0.27491 1.03109
 Zr1533 Zr 0.26029 0.27676 1.01105
 O1534 O 0.24472 0.26198 1.02329
 Zr1535 Zr 0.26425 0.25169 0.98097
 O1536 O 0.24963 0.23528 0.99247
 Zr1537 Zr 0.23533 0.27822 0.98077
 O1538 O 0.21911 0.26271 0.99120
 Zr1539 Zr 0.25010 0.23886 1.01706
 O1540 O 0.26676 0.25360 1.00574
 Zr1541 Zr 0.22103 0.26511 1.01575
 O1542 O 0.23632 0.28169 1.00534
 Zr1543 Zr 0.22580 0.23955 0.98624
 O1544 O 0.24053 0.25516 0.97367
 O1545 O 0.25909 0.27464 0.98668
 O1546 O 0.22638 0.24198 1.01066
 C1547 C 0.25535 0.30696 0.99209
 C1548 C 0.29264 0.27188 0.99309
 C1549 C 0.25940 0.27455 0.95301
 C1550 C 0.22952 0.21028 1.00749
 C1551 C 0.22454 0.24292 1.04384
 C1552 C 0.19389 0.24247 1.00461
 H1553 H 0.24577 0.26404 1.03473
 H1554 H 0.20816 0.26493 0.98752
 H1555 H 0.26650 0.28182 0.98135
 H1556 H 0.25299 0.22458 0.98964
 H1557 H 0.27768 0.22611 1.01254
 H1558 H 0.28051 0.22685 0.98625
 H1559 H 0.19580 0.27962 1.00586
 H1560 H 0.21692 0.29979 0.99211
 H1561 H 0.26298 0.24697 1.04389
 H1562 H 0.28133 0.26524 1.02964
 H1563 H 0.20498 0.24894 0.96608
 H1564 H 0.21967 0.26935 0.95619
 H1565 H 0.24705 0.29742 1.02916
 H1566 H 0.22685 0.28263 1.04007
 H1567 H 0.25600 0.23739 0.95520
 H1568 H 0.23726 0.21610 0.97005
 C1569 C 0.31529 0.37745 0.81190
 C1570 C 0.29968 0.38321 0.81219
 C1571 C 0.29477 0.39688 0.80292
 C1572 C 0.27880 0.39802 0.79807
 C1573 C 0.27390 0.41008 0.78838
 C1574 C 0.28489 0.42139 0.78344
 C1575 C 0.30080 0.42044 0.78851
 C1576 C 0.30569 0.40842 0.79826
 C1577 C 0.28017 0.43419 0.77297
 C1578 C 0.26473 0.44032 0.77292
 H1579 H 0.29036 0.37627 0.81752
 H1580 H 0.27015 0.38929 0.80144
 H1581 H 0.26161 0.41026 0.78448
 H1582 H 0.30944 0.42912 0.78502
 H1583 H 0.31799 0.40829 0.80212
 H1584 H 0.28944 0.43990 0.76622
 H1585 H 0.32433 0.38353 0.80524
 H1586 H 0.25584 0.43590 0.78100
 C1587 C 0.30706 -0.12731 0.30418
 C1588 C 0.29301 -0.11882 0.30734
 C1589 C 0.28847 -0.10458 0.29862
 C1590 C 0.27227 -0.10034 0.29787
 C1591 C 0.26752 -0.08684 0.29015
 C1592 C 0.27894 -0.07703 0.28318
 C1593 C 0.29515 -0.08134 0.28384
 C1594 C 0.29989 -0.09488 0.29151
 C1595 C 0.27455 -0.06221 0.27537
 C1596 C 0.26005 -0.05439 0.27799
 H1597 H 0.28442 -0.12303 0.31582
 H1598 H 0.26320 -0.10757 0.30320
 H1599 H 0.25488 -0.08428 0.28963
 H1600 H 0.30425 -0.07403 0.27866
 H1601 H 0.31253 -0.09745 0.29216
 H1602 H 0.28365 -0.05655 0.26836
 H1603 H 0.31442 -0.12349 0.29445
 H1604 H 0.25126 -0.05922 0.28591
 C1605 C 0.81098 0.86613 0.80233
 C1606 C 0.79686 0.87470 0.80424
 C1607 C 0.79252 0.88771 0.79404
 C1608 C 0.77629 0.89138 0.79238
 C1609 C 0.77164 0.90406 0.78351
 C1610 C 0.78321 0.91349 0.77634
 C1611 C 0.79943 0.90960 0.77765
 C1612 C 0.80410 0.89687 0.78652
 C1613 C 0.77877 0.92772 0.76800
 C1614 C 0.76528 0.93640 0.77221
 H1615 H 0.78784 0.87110 0.81258
 H1616 H 0.76716 0.88443 0.79801
 H1617 H 0.75899 0.90642 0.78233
 H1618 H 0.80855 0.91673 0.77224
 H1619 H 0.81674 0.89458 0.78785
 H1620 H 0.78728 0.93245 0.75968
 H1621 H 0.81859 0.86866 0.79231
 H1622 H 0.75740 0.93249 0.78150
 C1623 C 0.44645 0.87864 0.30175
 C1624 C 0.45668 0.86911 0.31023
 C1625 C 0.46140 0.85365 0.30396
 C1626 C 0.47670 0.84782 0.30709
 C1627 C 0.48169 0.83365 0.30039
 C1628 C 0.47130 0.82501 0.29062
 C1629 C 0.45582 0.83061 0.28801
 C1630 C 0.45086 0.84470 0.29469
 C1631 C 0.47618 0.81049 0.28243
 C1632 C 0.48881 0.80110 0.28712
 H1633 H 0.46180 0.87306 0.32125
 H1634 H 0.48497 0.85448 0.31431
 H1635 H 0.49379 0.82980 0.30252
 H1636 H 0.44753 0.82408 0.28070
 H1637 H 0.43874 0.84854 0.29256
 H1638 H 0.46883 0.80656 0.27265
 H1639 H 0.44249 0.87455 0.29028
 H1640 H 0.49558 0.80398 0.29761
 C1641 C -0.04237 0.89838 0.80117
 C1642 C -0.04991 0.88893 0.78991
 C1643 C -0.04204 0.87495 0.78318
 C1644 C -0.04521 0.87051 0.76755
 C1645 C -0.03786 0.85741 0.76082
 C1646 C -0.02743 0.84829 0.76977
 C1647 C -0.02429 0.85276 0.78543
 C1648 C -0.03156 0.86591 0.79212
 C1649 C -0.01989 0.83392 0.76343
 C1650 C -0.02583 0.82565 0.75047
 H1651 H -0.06115 0.89232 0.78477
 H1652 H -0.05323 0.87734 0.76045
 H1653 H -0.04033 0.85466 0.74860
 H1654 H -0.01639 0.84590 0.79261
 H1655 H -0.02920 0.86878 0.80436
 H1656 H -0.01024 0.82890 0.77013
 H1657 H -0.03024 0.89537 0.80436
 H1658 H -0.03604 0.82991 0.74409
 C1659 C -0.05871 -0.13313 -0.06024
 C1660 C -0.04279 -0.12827 -0.05966
 C1661 C -0.03793 -0.11368 -0.05141
 C1662 C -0.02289 -0.11283 -0.04418
 C1663 C -0.01812 -0.09934 -0.03603
 C1664 C -0.02824 -0.08628 -0.03515
 C1665 C -0.04327 -0.08713 -0.04242
 C1666 C -0.04805 -0.10063 -0.05053
 C1667 C -0.02352 -0.07164 -0.02689
 C1668 C -0.00759 -0.06705 -0.02507
 H1669 H -0.03353 -0.13611 -0.06391
 H1670 H -0.01493 -0.12275 -0.04459
 H1671 H -0.00663 -0.09930 -0.03024
 H1672 H -0.05125 -0.07722 -0.04203
 H1673 H -0.05957 -0.10073 -0.05629
 H1674 H -0.03289 -0.06350 -0.02355
 H1675 H -0.06770 -0.12618 -0.05417
 H1676 H 0.00188 -0.07437 -0.02977
 C1677 C -0.05546 0.36750 0.44515
 C1678 C -0.06158 0.37669 0.45762
 C1679 C -0.05507 0.39212 0.46229
 C1680 C -0.06489 0.40237 0.47101
 C1681 C -0.05916 0.41682 0.47617
 C1682 C -0.04330 0.42128 0.47292
 C1683 C -0.03351 0.41108 0.46407
 C1684 C -0.03927 0.39662 0.45888
 C1685 C -0.03661 0.43644 0.47829
 C1686 C -0.04340 0.44571 0.49028
 H1687 H -0.07219 0.37308 0.46387
 H1688 H -0.07713 0.39922 0.47378
 H1689 H -0.06730 0.42444 0.48253
 H1690 H -0.02126 0.41421 0.46136
 H1691 H -0.03117 0.38892 0.45254
 H1692 H -0.02558 0.44025 0.47282
 H1693 H -0.04607 0.37242 0.43794
 H1694 H -0.05402 0.44192 0.49644
 C1695 C 0.45382 -0.13970 0.43871
 C1696 C 0.45635 -0.13425 0.45418
 C1697 C 0.46412 -0.11925 0.45814
 C1698 C 0.46119 -0.11261 0.47310
 C1699 C 0.46787 -0.09832 0.47737
 C1700 C 0.47768 -0.09033 0.46671
 C1701 C 0.48115 -0.09724 0.45198
 C1702 C 0.47444 -0.11156 0.44769
 C1703 C 0.48446 -0.07489 0.47058
 C1704 C 0.47741 -0.06468 0.48153
 H1705 H 0.45198 -0.14067 0.46410
 H1706 H 0.45353 -0.11843 0.48149
 H1707 H 0.46542 -0.09370 0.48907
 H1708 H 0.48893 -0.09144 0.44369
 H1709 H 0.47754 -0.11655 0.43630
 H1710 H 0.49468 -0.07102 0.46379
 H1711 H 0.45848 -0.13288 0.42913
 H1712 H 0.46654 -0.06791 0.48762
 C1713 C 0.44424 0.36389 -0.04054
 C1714 C 0.45899 0.37149 -0.04175
 C1715 C 0.46285 0.38572 -0.03248
 C1716 C 0.47893 0.38922 -0.02941
 C1717 C 0.48311 0.40301 -0.02156
 C1718 C 0.47125 0.41376 -0.01687
 C1719 C 0.45513 0.41006 -0.01954
 C1720 C 0.45095 0.39624 -0.02736
 C1721 C 0.47528 0.42917 -0.00997
 C1722 C 0.48950 0.43679 -0.01365
 H1723 H 0.46844 0.36665 -0.04906
 H1724 H 0.48831 0.38128 -0.03317
 H1725 H 0.49563 0.40523 -0.01929
 H1726 H 0.44578 0.41816 -0.01608
 H1727 H 0.43845 0.39415 -0.02985
 H1728 H 0.46599 0.43552 -0.00365
 H1729 H 0.43603 0.36801 -0.03146
 H1730 H 0.49832 0.43105 -0.02110
 C1731 C 0.79908 0.37733 0.44244
 C1732 C 0.80518 0.36851 0.45468
 C1733 C 0.79799 0.35367 0.45950
 C1734 C 0.79981 0.34901 0.47513
 C1735 C 0.79297 0.33519 0.48025
 C1736 C 0.78439 0.32563 0.46968
 C1737 C 0.78267 0.33024 0.45401
 C1738 C 0.78949 0.34408 0.44890
 C1739 C 0.77693 0.31092 0.47454
 C1740 C 0.78191 0.30259 0.48758
 H1741 H 0.81519 0.37280 0.46150
 H1742 H 0.80631 0.35623 0.48349
 H1743 H 0.79422 0.33225 0.49252
 H1744 H 0.77618 0.32304 0.44564
 H1745 H 0.78827 0.34703 0.43663
 H1746 H 0.76781 0.30597 0.46694
 H1747 H 0.78908 0.37292 0.43567
 H1748 H 0.79178 0.30668 0.49472
 C1749 C 0.80263 0.87936 -0.05603
 C1750 C 0.80619 0.87180 -0.04216
 C1751 C 0.79671 0.85827 -0.03697
 C1752 C 0.79997 0.85164 -0.02235
 C1753 C 0.79144 0.83863 -0.01732
 C1754 C 0.77956 0.83189 -0.02694
 C1755 C 0.77609 0.83873 -0.04142
 C1756 C 0.78457 0.85174 -0.04642
 C1757 C 0.77066 0.81771 -0.02247
 C1758 C 0.77633 0.80707 -0.01160
 H1759 H 0.81610 0.87581 -0.03496
 H1760 H 0.80914 0.85653 -0.01479
 H1761 H 0.79417 0.83404 -0.00587
 H1762 H 0.76696 0.83382 -0.04903
 H1763 H 0.78169 0.85655 -0.05776
 H1764 H 0.75994 0.81485 -0.02903
 H1765 H 0.80842 0.88658 -0.05847
 H1766 H 0.78754 0.80915 -0.00563
 C1767 C 0.79854 0.31261 0.37206
 C1768 C 0.79922 0.29699 0.37625
 C1769 C 0.79052 0.29054 0.38994
 C1770 C 0.78918 0.27435 0.39117
 C1771 C 0.78181 0.26777 0.40430
 C1772 C 0.77570 0.27731 0.41651
 C1773 C 0.77677 0.29348 0.41517
 C1774 C 0.78424 0.30005 0.40214
 C1775 C 0.76839 0.27101 0.43095
 C1776 C 0.77224 0.25653 0.43706
 H1777 H 0.80618 0.28895 0.36907
 H1778 H 0.79393 0.26676 0.38196
 H1779 H 0.78087 0.25526 0.40479
 H1780 H 0.77220 0.30107 0.42446
 H1781 H 0.78538 0.31254 0.40198
 H1782 H 0.76104 0.27887 0.43800
 H1783 H 0.79007 0.32025 0.37795
 H1784 H 0.78026 0.24876 0.43070
 C1785 C 0.79655 0.81696 -0.12894
 C1786 C 0.79143 0.80204 -0.12536
 C1787 C 0.78108 0.79869 -0.11166
 C1788 C 0.77150 0.78534 -0.11215
 C1789 C 0.76239 0.78119 -0.09904
 C1790 C 0.76294 0.79019 -0.08507
 C1791 C 0.77195 0.80392 -0.08479
 C1792 C 0.78104 0.80811 -0.09793
 C1793 C 0.75542 0.78485 -0.07032
 C1794 C 0.75497 0.76913 -0.06678
 H1795 H 0.79425 0.79258 -0.13349
 H1796 H 0.77119 0.77801 -0.12265
 H1797 H 0.75516 0.77078 -0.09980
 H1798 H 0.77257 0.81101 -0.07413
 H1799 H 0.78849 0.81836 -0.09703
 H1800 H 0.75285 0.79336 -0.06108
 H1801 H 0.79207 0.82677 -0.12210
 H1802 H 0.75905 0.76064 -0.07547
 C1803 C 0.29350 0.44909 0.88078
 C1804 C 0.29787 0.46236 0.87253
 C1805 C 0.28958 0.46707 0.85797
 C1806 C 0.29010 0.48267 0.85347
 C1807 C 0.28251 0.48743 0.83970
 C1808 C 0.27438 0.47657 0.83010
 C1809 C 0.27390 0.46100 0.83459
 C1810 C 0.28153 0.45624 0.84826
 C1811 C 0.26637 0.48089 0.81531
 C1812 C 0.27108 0.49343 0.80617
 H1813 H 0.30722 0.46987 0.87696
 H1814 H 0.29627 0.49123 0.86071
 H1815 H 0.28288 0.49959 0.83675
 H1816 H 0.26784 0.45239 0.82731
 H1817 H 0.28136 0.44402 0.85092
 H1818 H 0.25753 0.47288 0.81060
 H1819 H 0.28307 0.44268 0.87687
 H1820 H 0.28073 0.50093 0.81004
 C1821 C 0.29180 -0.05588 0.39297
 C1822 C 0.29311 -0.04085 0.38724
 C1823 C 0.28444 -0.03570 0.37306
 C1824 C 0.28160 -0.01979 0.37115
 C1825 C 0.27367 -0.01448 0.35782
 C1826 C 0.26856 -0.02502 0.34603
 C1827 C 0.27121 -0.04092 0.34801
 C1828 C 0.27922 -0.04623 0.36128
 C1829 C 0.26100 -0.01977 0.33133
 C1830 C 0.26514 -0.00574 0.32448
 H1831 H 0.29988 -0.03224 0.39383
 H1832 H 0.28547 -0.01144 0.38003
 H1833 H 0.27150 -0.00216 0.35682
 H1834 H 0.26750 -0.04924 0.33902
 H1835 H 0.28160 -0.05853 0.36200
 H1836 H 0.25368 -0.02795 0.32473
 H1837 H 0.28352 -0.06384 0.38734
 H1838 H 0.27373 0.00181 0.33026
 C1839 C -0.03076 -0.03327 -0.14791
 C1840 C -0.01479 -0.03630 -0.14411
 C1841 C -0.00741 -0.02949 -0.12985
 C1842 C 0.00322 -0.03859 -0.12124
 C1843 C 0.00835 -0.03364 -0.10636
 C1844 C 0.00292 -0.01943 -0.09991
 C1845 C -0.00651 -0.00972 -0.10917
 C1846 C -0.01164 -0.01468 -0.12403
 C1847 C 0.00593 -0.01464 -0.08341
 C1848 C 0.01059 -0.02482 -0.07165
 H1849 H -0.00809 -0.04534 -0.15011
 H1850 H 0.00690 -0.04992 -0.12568
 H1851 H 0.01619 -0.04117 -0.09990
 H1852 H -0.01051 0.00147 -0.10463
 H1853 H -0.01923 -0.00707 -0.13072
 H1854 H 0.00280 -0.00283 -0.08001
 H1855 H -0.03677 -0.02392 -0.14157
 H1856 H 0.01416 -0.03661 -0.07441
 C1857 C -0.05103 0.44610 0.36694
 C1858 C -0.05796 0.45745 0.37684
 C1859 C -0.05102 0.46199 0.39236
 C1860 C -0.05478 0.47661 0.39891
 C1861 C -0.04854 0.48133 0.41349
 C1862 C -0.03832 0.47149 0.42192
 C1863 C -0.03488 0.45672 0.41553
 C1864 C -0.04117 0.45198 0.40097
 C1865 C -0.03160 0.47584 0.43761
 C1866 C -0.03210 0.49087 0.44403
 H1867 H -0.06838 0.46378 0.37311
 H1868 H -0.06257 0.48444 0.39270
 H1869 H -0.05206 0.49259 0.41809
 H1870 H -0.02735 0.44875 0.42188
 H1871 H -0.03849 0.44035 0.39674
 H1872 H -0.02632 0.46673 0.44453
 H1873 H -0.03996 0.44094 0.37081
 H1874 H -0.03702 0.50028 0.43735
 C1875 C 0.44304 -0.05244 0.35749
 C1876 C 0.45795 -0.05419 0.36458
 C1877 C 0.46293 -0.04506 0.37870
 C1878 C 0.47929 -0.04376 0.38212
 C1879 C 0.48444 -0.03544 0.39545
 C1880 C 0.47326 -0.02834 0.40571
 C1881 C 0.45692 -0.02951 0.40225
 C1882 C 0.45177 -0.03792 0.38900
 C1883 C 0.47812 -0.01995 0.42025
 C1884 C 0.49157 -0.02412 0.42885
 H1885 H 0.46672 -0.06186 0.35917
 H1886 H 0.48813 -0.04914 0.37440
 H1887 H 0.49715 -0.03449 0.39761
 H1888 H 0.44809 -0.02424 0.41006
 H1889 H 0.43903 -0.03903 0.38716
 H1890 H 0.46981 -0.01159 0.42536
 H1891 H 0.43505 -0.04346 0.36188
 H1892 H 0.49920 -0.03347 0.42462
 C1893 C 0.43827 0.44371 -0.13737
 C1894 C 0.44627 0.43807 -0.12424
 C1895 C 0.45194 0.44798 -0.11098
 C1896 C 0.46386 0.44212 -0.10116
 C1897 C 0.46962 0.45095 -0.08847
 C1898 C 0.46353 0.46591 -0.08532
 C1899 C 0.45135 0.47165 -0.09492
 C1900 C 0.44560 0.46282 -0.10765
 C1901 C 0.46895 0.47544 -0.07170
 C1902 C 0.48350 0.47313 -0.06410
 H1903 H 0.44892 0.42580 -0.12369
 H1904 H 0.46877 0.43062 -0.10331
 H1905 H 0.47856 0.44583 -0.08101
 H1906 H 0.44622 0.48301 -0.09253
 H1907 H 0.43603 0.46758 -0.11457
 H1908 H 0.46107 0.48461 -0.06744
 H1909 H 0.43521 0.45588 -0.13790
 H1910 H 0.49195 0.46462 -0.06860
 C1911 C 0.42860 0.80385 0.37705
 C1912 C 0.44189 0.80577 0.36728
 C1913 C 0.44541 0.79508 0.35390
 C1914 C 0.46146 0.79225 0.34999
 C1915 C 0.46550 0.78105 0.33861
 C1916 C 0.45353 0.77243 0.33084
 C1917 C 0.43743 0.77592 0.33400
 C1918 C 0.43336 0.78711 0.34551
 C1919 C 0.45765 0.76058 0.31868
 C1920 C 0.47233 0.75291 0.31856
 H1921 H 0.45144 0.81341 0.37114
 H1922 H 0.47095 0.79844 0.35606
 H1923 H 0.47804 0.77933 0.33584
 H1924 H 0.42800 0.76983 0.32774
 H1925 H 0.42084 0.78944 0.34780
 H1926 H 0.44961 0.75901 0.30879
 H1927 H 0.41974 0.79521 0.37387
 H1928 H 0.48023 0.75412 0.32857
 C1929 C -0.05720 0.80186 0.87996
 C1930 C -0.04494 0.80710 0.87005
 C1931 C -0.04089 0.79912 0.85484
 C1932 C -0.02524 0.80009 0.84888
 C1933 C -0.02109 0.79291 0.83448
 C1934 C -0.03265 0.78482 0.82552
 C1935 C -0.04829 0.78381 0.83153
 C1936 C -0.05242 0.79093 0.84595
 C1937 C -0.02898 0.77751 0.80985
 C1938 C -0.01586 0.78174 0.80059
 H1939 H -0.03749 0.81677 0.87363
 H1940 H -0.01613 0.80632 0.85547
 H1941 H -0.00879 0.79367 0.83059
 H1942 H -0.05747 0.77773 0.82489
 H1943 H -0.06473 0.79029 0.84988
 H1944 H -0.03763 0.76946 0.80488
 H1945 H -0.06312 0.79117 0.87645
 H1946 H -0.00770 0.79057 0.80486
 C1947 C 0.36552 0.80819 0.30866
 C1948 C 0.37699 0.81429 0.29832
 C1949 C 0.39115 0.80562 0.29190
 C1950 C 0.39486 0.79023 0.29596
 C1951 C 0.40832 0.78270 0.28949
 C1952 C 0.41839 0.79030 0.27871
 C1953 C 0.41480 0.80568 0.27484
 C1954 C 0.40138 0.81321 0.28130
 C1955 C 0.43303 0.78292 0.27181
 C1956 C 0.43609 0.76694 0.27179
 H1957 H 0.37576 0.82622 0.29477
 H1958 H 0.38759 0.78386 0.30417
 H1959 H 0.41087 0.77105 0.29326
 H1960 H 0.42239 0.81191 0.26671
 H1961 H 0.39897 0.82506 0.27796
 H1962 H 0.44188 0.79049 0.26658
 H1963 H 0.36703 0.79655 0.31293
 H1964 H 0.42729 0.75906 0.27651
 C1965 C -0.14004 0.79602 0.81223
 C1966 C -0.13575 0.79466 0.79631
 C1967 C -0.12111 0.78682 0.79033
 C1968 C -0.11937 0.78455 0.77398
 C1969 C -0.10511 0.77876 0.76756
 C1970 C -0.09221 0.77520 0.77741
 C1971 C -0.09414 0.77682 0.79380
 C1972 C -0.10839 0.78270 0.80023
 C1973 C -0.07655 0.77018 0.77096
 C1974 C -0.07080 0.77505 0.75636
 H1975 H -0.14340 0.79998 0.78766
 H1976 H -0.12899 0.78756 0.76608
 H1977 H -0.10420 0.77718 0.75491
 H1978 H -0.08437 0.77409 0.80162
 H1979 H -0.10908 0.78447 0.81285
 H1980 H -0.06867 0.76379 0.77860
 H1981 H -0.13398 0.78914 0.82091
 H1982 H -0.07803 0.78255 0.74918
 C1983 C 0.89219 0.29980 0.45897
 C1984 C 0.88841 0.28397 0.45820
 C1985 C 0.87467 0.27713 0.46678
 C1986 C 0.86799 0.26319 0.46105
 C1987 C 0.85441 0.25685 0.46820
 C1988 C 0.84724 0.26433 0.48134
 C1989 C 0.85442 0.27784 0.48751
 C1990 C 0.86798 0.28417 0.48037
 C1991 C 0.83203 0.25901 0.48861
 C1992 C 0.82201 0.24759 0.48212
 H1993 H 0.89520 0.27633 0.45044
 H1994 H 0.87307 0.25738 0.45076
 H1995 H 0.84960 0.24623 0.46321
 H1996 H 0.84933 0.28374 0.49775
 H1997 H 0.87312 0.29454 0.48560
 H1998 H 0.82780 0.26545 0.49890
 H1999 H 0.88540 0.30738 0.46678
 H2000 H 0.82567 0.24087 0.47186
 C2001 C 0.88677 0.80017 -0.05247
 C2002 C 0.87660 0.78862 -0.05848
 C2003 C 0.86293 0.78219 -0.04944
 C2004 C 0.85648 0.76778 -0.05409
 C2005 C 0.84327 0.76156 -0.04617
 C2006 C 0.83614 0.76977 -0.03348
 C2007 C 0.84267 0.78411 -0.02877
 C2008 C 0.85580 0.79033 -0.03670
 C2009 C 0.82183 0.76407 -0.02497
 C2010 C 0.81097 0.75328 -0.03122
 H2011 H 0.87852 0.78403 -0.07028
 H2012 H 0.86170 0.76128 -0.06389
 H2013 H 0.83881 0.75034 -0.04997
 H2014 H 0.83734 0.79073 -0.01911
 H2015 H 0.85996 0.80170 -0.03301
 H2016 H 0.81887 0.76982 -0.01386
 H2017 H 0.88494 0.80441 -0.04052
 H2018 H 0.81315 0.74787 -0.04263
 C2019 C -0.12888 -0.06182 -0.05773
 C2020 C -0.11898 -0.04999 -0.06346
 C2021 C -0.10366 -0.04540 -0.05579
 C2022 C -0.09731 -0.03058 -0.05854
 C2023 C -0.08296 -0.02582 -0.05149
 C2024 C -0.07453 -0.03588 -0.04162
 C2025 C -0.08079 -0.05074 -0.03901
 C2026 C -0.09507 -0.05553 -0.04610
 C2027 C -0.05952 -0.03126 -0.03350
 C2028 C -0.04955 -0.01918 -0.03834
 H2029 H -0.12256 -0.04337 -0.07353
 H2030 H -0.10360 -0.02257 -0.06600
 H2031 H -0.07875 -0.01416 -0.05358
 H2032 H -0.07452 -0.05876 -0.03152
 H2033 H -0.09912 -0.06725 -0.04409
 H2034 H -0.05582 -0.03816 -0.02360
 H2035 H -0.12526 -0.06731 -0.04694
 H2036 H -0.05231 -0.01283 -0.04886
 C2037 C -0.15323 0.45066 0.46289
 C2038 C -0.14730 0.46533 0.45968
 C2039 C -0.13492 0.47270 0.46960
 C2040 C -0.12780 0.48651 0.46459
 C2041 C -0.11466 0.49273 0.47258
 C2042 C -0.10832 0.48512 0.48570
 C2043 C -0.11611 0.47186 0.49129
 C2044 C -0.12926 0.46566 0.48332
 C2045 C -0.09324 0.49001 0.49333
 C2046 C -0.08185 0.49939 0.48607
 H2047 H -0.15072 0.47103 0.44893
 H2048 H -0.13208 0.49224 0.45416
 H2049 H -0.10945 0.50330 0.46821
 H2050 H -0.11161 0.46591 0.50150
 H2051 H -0.13461 0.45509 0.48762
 H2052 H -0.09022 0.48468 0.50440
 H2053 H -0.15871 0.44623 0.45635
 H2054 H -0.08432 0.50481 0.47495
 C2055 C 0.35692 -0.05339 0.45307
 C2056 C 0.36586 -0.04090 0.44731
 C2057 C 0.38143 -0.03621 0.45429
 C2058 C 0.38704 -0.02098 0.45230
 C2059 C 0.40168 -0.01625 0.45875
 C2060 C 0.41105 -0.02676 0.46725
 C2061 C 0.40551 -0.04197 0.46910
 C2062 C 0.39100 -0.04673 0.46256
 C2063 C 0.42652 -0.02241 0.47450
 C2064 C 0.43631 -0.01042 0.46920
 H2065 H 0.36145 -0.03406 0.43772
 H2066 H 0.37997 -0.01268 0.44589
 H2067 H 0.40545 -0.00435 0.45730
 H2068 H 0.41257 -0.05033 0.47545
 H2069 H 0.38756 -0.05874 0.46381
 H2070 H 0.43100 -0.02987 0.48364
 H2071 H 0.36133 -0.05898 0.46351
 H2072 H 0.43265 -0.00345 0.45937
 C2073 C 0.35990 0.44998 -0.06199
 C2074 C 0.36909 0.44563 -0.04902
 C2075 C 0.38418 0.45375 -0.04475
 C2076 C 0.38897 0.45434 -0.02893
 C2077 C 0.40304 0.46204 -0.02450
 C2078 C 0.41282 0.46911 -0.03590
 C2079 C 0.40808 0.46839 -0.05175
 C2080 C 0.39400 0.46073 -0.05616
 C2081 C 0.42786 0.47743 -0.03181
 C2082 C 0.43617 0.47525 -0.01778
 H2083 H 0.36486 0.43681 -0.04112
 H2084 H 0.38165 0.44904 -0.01991
 H2085 H 0.40598 0.46261 -0.01211
 H2086 H 0.41540 0.47363 -0.06079
 H2087 H 0.39101 0.46010 -0.06855
 H2088 H 0.43305 0.48494 -0.04059
 H2089 H 0.36398 0.45998 -0.06846
 H2090 H 0.43183 0.46701 -0.00929
 C2091 C 0.38410 0.42890 0.79462
 C2092 C 0.37891 0.44424 0.79321
 C2093 C 0.36478 0.44906 0.78399
 C2094 C 0.36200 0.46500 0.78222
 C2095 C 0.34847 0.47025 0.77435
 C2096 C 0.33738 0.45961 0.76804
 C2097 C 0.34027 0.44366 0.76949
 C2098 C 0.35375 0.43840 0.77748
 C2099 C 0.32242 0.46478 0.76057
 C2100 C 0.31729 0.48008 0.76168
 H2101 H 0.38572 0.45338 0.79895
 H2102 H 0.37025 0.47348 0.78713
 H2103 H 0.34663 0.48264 0.77338
 H2104 H 0.33186 0.43525 0.76475
 H2105 H 0.35515 0.42603 0.77873
 H2106 H 0.31459 0.45614 0.75526
 H2107 H 0.37854 0.41978 0.78768
 H2108 H 0.30832 0.48249 0.75843
 C2109 C 0.38651 -0.06012 0.29051
 C2110 C 0.38104 -0.04482 0.29106
 C2111 C 0.36592 -0.03973 0.28378
 C2112 C 0.36324 -0.02377 0.28215
 C2113 C 0.34867 -0.01835 0.27649
 C2114 C 0.33643 -0.02884 0.27244
 C2115 C 0.33925 -0.04481 0.27353
 C2116 C 0.35379 -0.05024 0.27929
 C2117 C 0.32049 -0.02345 0.26757
 C2118 C 0.31384 -0.00972 0.27357
 H2119 H 0.38819 -0.03602 0.29694
 H2120 H 0.37239 -0.01544 0.28546
 H2121 H 0.34702 -0.00596 0.27534
 H2122 H 0.32996 -0.05308 0.27046
 H2123 H 0.35515 -0.06262 0.28067
 H2124 H 0.31321 -0.03120 0.26041
 H2125 H 0.38054 -0.06854 0.28299
 H2126 H 0.32053 -0.00258 0.28183
 C2127 C 0.11208 0.56347 0.70171
 C2128 C 0.12200 0.55159 0.69598
 C2129 C 0.13585 0.54547 0.70467
 C2130 C 0.14235 0.53118 0.69973
 C2131 C 0.15584 0.52517 0.70706
 C2132 C 0.16312 0.53336 0.71960
 C2133 C 0.15664 0.54768 0.72453
 C2134 C 0.14316 0.55371 0.71716
 C2135 C 0.17807 0.52801 0.72701
 C2136 C 0.18419 0.51303 0.72503
 H2137 H 0.11968 0.54651 0.68447
 H2138 H 0.13709 0.52471 0.68999
 H2139 H 0.16068 0.51437 0.70248
 H2140 H 0.16220 0.55435 0.73396
 H2141 H 0.13890 0.56498 0.72104
 H2142 H 0.18490 0.53646 0.73377
 H2143 H 0.11438 0.56879 0.71310
 H2144 H 0.17738 0.50412 0.71898
 C2145 C 0.11341 0.05621 0.19460
 C2146 C 0.11998 0.05995 0.20929
 C2147 C 0.13539 0.05321 0.21451
 C2148 C 0.13813 0.05127 0.23066
 C2149 C 0.15222 0.04426 0.23588
 C2150 C 0.16395 0.03918 0.22499
 C2151 C 0.16134 0.04137 0.20887
 C2152 C 0.14733 0.04845 0.20367
 C2153 C 0.17886 0.03137 0.22994
 C2154 C 0.18593 0.03398 0.24461
 H2155 H 0.11306 0.06678 0.21772
 H2156 H 0.12917 0.05486 0.23926
 H2157 H 0.15367 0.04251 0.24838
 H2158 H 0.17026 0.03771 0.20025
 H2159 H 0.14598 0.05024 0.19116
 H2160 H 0.18517 0.02427 0.22125
 H2161 H 0.11973 0.04797 0.18708
 H2162 H 0.18059 0.04220 0.25287
 C2163 C 0.64368 0.70259 0.20392
 C2164 C 0.63355 0.69541 0.21475
 C2165 C 0.61821 0.70250 0.21997
 C2166 C 0.61172 0.69861 0.23468
 C2167 C 0.59718 0.70503 0.23984
 C2168 C 0.58877 0.71536 0.23024
 C2169 C 0.59523 0.71917 0.21552
 C2170 C 0.60969 0.71273 0.21035
 C2171 C 0.57336 0.72248 0.23506
 C2172 C 0.56286 0.71594 0.24594
 H2173 H 0.63688 0.68451 0.21990
 H2174 H 0.61801 0.69071 0.24227
 H2175 H 0.59274 0.70206 0.25140
 H2176 H 0.58893 0.72699 0.20784
 H2177 H 0.61394 0.71557 0.19869
 H2178 H 0.56955 0.73270 0.22881
 H2179 H 0.64051 0.71406 0.19997
 H2180 H 0.56587 0.70515 0.25156
 C2181 C 0.13508 0.69862 0.69723
 C2182 C 0.12388 0.70759 0.68925
 C2183 C 0.10936 0.71445 0.69673
 C2184 C 0.10099 0.72594 0.68862
 C2185 C 0.08703 0.73251 0.69498
 C2186 C 0.08112 0.72770 0.70968
 C2187 C 0.08939 0.71610 0.71769
 C2188 C 0.10333 0.70952 0.71133
 C2189 C 0.06609 0.73382 0.71675
 C2190 C 0.05793 0.74690 0.71149
 H2191 H 0.12567 0.70968 0.67682
 H2192 H 0.10522 0.72981 0.67725
 H2193 H 0.08085 0.74107 0.68814
 H2194 H 0.08498 0.71199 0.72891
 H2195 H 0.10901 0.70038 0.71781
 H2196 H 0.06108 0.72754 0.72659
 H2197 H 0.13335 0.69625 0.70958
 H2198 H 0.06272 0.75375 0.70201
 C2199 C 0.61379 0.19032 0.54708
 C2200 C 0.62174 0.20438 0.54978
 C2201 C 0.63659 0.20873 0.54132
 C2202 C 0.64092 0.22445 0.54074
 C2203 C 0.65506 0.22897 0.53321
 C2204 C 0.66524 0.21778 0.52624
 C2205 C 0.66087 0.20208 0.52672
 C2206 C 0.64678 0.19755 0.53429
 C2207 C 0.68052 0.22195 0.51853
 C2208 C 0.68935 0.23512 0.52274
 H2209 H 0.61662 0.21287 0.55787
 H2210 H 0.63330 0.23328 0.54608
 H2211 H 0.65787 0.24121 0.53276
 H2212 H 0.66857 0.19323 0.52152
 H2213 H 0.64419 0.18528 0.53489
 H2214 H 0.68578 0.21353 0.51039
 H2215 H 0.61789 0.18274 0.53759
 H2216 H 0.68495 0.24302 0.53182
 C2217 C 0.60352 0.69895 0.04532
 C2218 C 0.61525 0.70883 0.05161
 C2219 C 0.62951 0.71407 0.04260
 C2220 C 0.63777 0.72735 0.04786
 C2221 C 0.65171 0.73226 0.04019
 C2222 C 0.65786 0.72380 0.02715
 C2223 C 0.64947 0.71064 0.02177
 C2224 C 0.63552 0.70575 0.02942
 C2225 C 0.67294 0.72810 0.01894
 C2226 C 0.68457 0.73800 0.02536
 H2227 H 0.61424 0.71288 0.06371
 H2228 H 0.63341 0.73399 0.05797
 H2229 H 0.65751 0.74269 0.04452
 H2230 H 0.65392 0.70387 0.01178
 H2231 H 0.62984 0.69521 0.02521
 H2232 H 0.67550 0.72236 0.00774
 H2233 H 0.60449 0.69534 0.03307
 H2234 H 0.68274 0.74337 0.03684
 C2235 C 0.14049 0.06275 0.05374
 C2236 C 0.13254 0.04872 0.05670
 C2237 C 0.11924 0.04246 0.04694
 C2238 C 0.11500 0.02676 0.04841
 C2239 C 0.10219 0.02045 0.03990
 C2240 C 0.09324 0.02978 0.02979
 C2241 C 0.09755 0.04543 0.02818
 C2242 C 0.11029 0.05176 0.03674
 C2243 C 0.07940 0.02374 0.02072
 C2244 C 0.07037 0.01081 0.02505
 H2245 H 0.13633 0.04148 0.06623
 H2246 H 0.12165 0.01931 0.05617
 H2247 H 0.09950 0.00825 0.04118
 H2248 H 0.09081 0.05289 0.02050
 H2249 H 0.11277 0.06400 0.03555
 H2250 H 0.07537 0.03057 0.01089
 H2251 H 0.13738 0.06887 0.04316
 H2252 H 0.07344 0.00438 0.03545
 C2253 C 0.12601 0.55471 0.55376
 C2254 C 0.11818 0.54105 0.55800
 C2255 C 0.10216 0.53702 0.55162
 C2256 C 0.09774 0.52137 0.54979
 C2257 C 0.08305 0.51731 0.54296
 C2258 C 0.07246 0.52891 0.53795
 C2259 C 0.07671 0.54453 0.54016
 C2260 C 0.09127 0.54857 0.54708
 C2261 C 0.05711 0.52531 0.53007
 C2262 C 0.04843 0.51170 0.53244
 H2263 H 0.12427 0.53258 0.56506
 H2264 H 0.10584 0.51225 0.55328
 H2265 H 0.08025 0.50514 0.54126
 H2266 H 0.06868 0.55368 0.53659
 H2267 H 0.09389 0.56077 0.54889
 H2268 H 0.05174 0.53439 0.52317
 H2269 H 0.12025 0.56208 0.54529
 H2270 H 0.05280 0.50307 0.54047
 C2271 C 0.63242 0.05878 0.55369
 C2272 C 0.62110 0.04761 0.55783
 C2273 C 0.60909 0.04104 0.54681
 C2274 C 0.59603 0.03299 0.55314
 C2275 C 0.58438 0.02655 0.54331
 C2276 C 0.58560 0.02792 0.52685
 C2277 C 0.59860 0.03599 0.52047
 C2278 C 0.61036 0.04235 0.53031
 C2279 C 0.57300 0.02181 0.51631
 C2280 C 0.56363 0.00909 0.52032
 H2281 H 0.62029 0.04402 0.56996
 H2282 H 0.59471 0.03183 0.56578
 H2283 H 0.57423 0.02087 0.54869
 H2284 H 0.59973 0.03725 0.50782
 H2285 H 0.62041 0.04809 0.52486
 H2286 H 0.57068 0.02784 0.50545
 H2287 H 0.63213 0.06361 0.54202
 H2288 H 0.56665 0.00242 0.53059
 C2289 C 0.63534 0.55259 0.05872
 C2290 C 0.62914 0.55321 0.04344
 C2291 C 0.61348 0.54649 0.03877
 C2292 C 0.61019 0.54440 0.02265
 C2293 C 0.59558 0.53814 0.01767
 C2294 C 0.58390 0.53391 0.02879
 C2295 C 0.58714 0.53605 0.04488
 C2296 C 0.60168 0.54240 0.04986
 C2297 C 0.56844 0.52688 0.02415
 C2298 C 0.56124 0.52894 0.00950
 H2299 H 0.63632 0.55819 0.03418
 H2300 H 0.61902 0.54748 0.01384
 H2301 H 0.59365 0.53637 0.00518
 H2302 H 0.57831 0.53292 0.05367
 H2303 H 0.60342 0.54423 0.06236
 H2304 H 0.56199 0.52050 0.03307
 H2305 H 0.62896 0.54612 0.06757
 H2306 H 0.56676 0.53633 0.00084
 C2307 C 0.05007 0.04472 0.13701
 C2308 C 0.03672 0.04788 0.12766
 C2309 C 0.03319 0.03886 0.11298
 C2310 C 0.01752 0.03863 0.10709
 C2311 C 0.01392 0.03052 0.09309
 C2312 C 0.02601 0.02256 0.08463
 C2313 C 0.04162 0.02273 0.09055
 C2314 C 0.04525 0.03091 0.10442
 C2315 C 0.02298 0.01419 0.06953
 C2316 C 0.01092 0.01836 0.05911
 H2317 H 0.02841 0.05696 0.13103
 H2318 H 0.00801 0.04469 0.11338
 H2319 H 0.00167 0.03041 0.08904
 H2320 H 0.05118 0.01681 0.08418
 H2321 H 0.05760 0.03125 0.10809
 H2322 H 0.03172 0.00563 0.06565
 H2323 H 0.05716 0.03465 0.13374
 H2324 H 0.00280 0.02772 0.06224
 C2325 C 0.05124 0.55549 0.63883
 C2326 C 0.03599 0.55748 0.63257
 C2327 C 0.02966 0.54714 0.61989
 C2328 C 0.01308 0.54501 0.61857
 C2329 C 0.00676 0.53549 0.60660
 C2330 C 0.01693 0.52809 0.59552
 C2331 C 0.03352 0.53007 0.59697
 C2332 C 0.03983 0.53957 0.60892
 C2333 C 0.01076 0.51889 0.58191
 C2334 C -0.00409 0.52180 0.57516
 H2335 H 0.02806 0.56611 0.63776
 H2336 H 0.00499 0.55066 0.62688
 H2337 H -0.00607 0.53395 0.60612
 H2338 H 0.04162 0.52460 0.58854
 H2339 H 0.05265 0.54125 0.60924
 H2340 H 0.01908 0.51136 0.57558
 H2341 H 0.05826 0.54561 0.63483
 H2342 H -0.01199 0.53033 0.58055
 C2343 C 0.56288 0.04496 0.62996
 C2344 C 0.54740 0.04506 0.62360
 C2345 C 0.54263 0.03692 0.60879
 C2346 C 0.52625 0.03607 0.60523
 C2347 C 0.52103 0.02919 0.59115
 C2348 C 0.53213 0.02301 0.58026
 C2349 C 0.54848 0.02356 0.58388
 C2350 C 0.55374 0.03058 0.59792
 C2351 C 0.52703 0.01589 0.56513
 C2352 C 0.51330 0.02056 0.55718
 H2353 H 0.53786 0.05099 0.62984
 H2354 H 0.51740 0.04082 0.61336
 H2355 H 0.50831 0.02859 0.58892
 H2356 H 0.55725 0.01885 0.57565
 H2357 H 0.56647 0.03121 0.59993
 H2358 H 0.53506 0.00763 0.55943
 H2359 H 0.57177 0.03751 0.62442
 H2360 H 0.50602 0.02995 0.56191
 C2361 C 0.55878 0.55383 0.13117
 C2362 C 0.54400 0.55741 0.12457
 C2363 C 0.53927 0.55125 0.10886
 C2364 C 0.52303 0.54859 0.10568
 C2365 C 0.51834 0.54178 0.09133
 C2366 C 0.52986 0.53766 0.07984
 C2367 C 0.54603 0.54073 0.08286
 C2368 C 0.55070 0.54760 0.09712
 C2369 C 0.52562 0.52969 0.06486
 C2370 C 0.51065 0.53083 0.05780
 H2371 H 0.53509 0.56352 0.13159
 H2372 H 0.51400 0.55136 0.11450
 H2373 H 0.50578 0.53936 0.08952
 H2374 H 0.55511 0.53781 0.07413
 H2375 H 0.56327 0.55002 0.09887
 H2376 H 0.53505 0.52344 0.05862
 H2377 H 0.56677 0.54616 0.12464
 H2378 H 0.50149 0.53819 0.06303
 C2379 C 0.19843 0.55127 0.60662
 C2380 C 0.19531 0.53724 0.61416
 C2381 C 0.20489 0.53168 0.62770
 C2382 C 0.20462 0.51584 0.63141
 C2383 C 0.21335 0.51025 0.64420
 C2384 C 0.22248 0.52047 0.65364
 C2385 C 0.22275 0.53628 0.64992
 C2386 C 0.21397 0.54186 0.63724
 C2387 C 0.23166 0.51536 0.66757
 C2388 C 0.22817 0.50202 0.67613
 H2389 H 0.18604 0.52965 0.60966
 H2390 H 0.19770 0.50773 0.62432
 H2391 H 0.21303 0.49795 0.64651
 H2392 H 0.22954 0.54444 0.65707
 H2393 H 0.21413 0.55422 0.63525
 H2394 H 0.24037 0.52344 0.67238
 H2395 H 0.20880 0.55791 0.61025
 H2396 H 0.21878 0.49424 0.67223
 C2397 C 0.18998 0.06279 0.12468
 C2398 C 0.20150 0.06757 0.13571
 C2399 C 0.20515 0.05863 0.15017
 C2400 C 0.21999 0.06085 0.15753
 C2401 C 0.22409 0.05247 0.17091
 C2402 C 0.21341 0.04155 0.17732
 C2403 C 0.19833 0.03974 0.17033
 C2404 C 0.19421 0.04816 0.15695
 C2405 C 0.21732 0.03247 0.19161
 C2406 C 0.23296 0.03027 0.19684
 H2407 H 0.20879 0.07766 0.13348
 H2408 H 0.22852 0.06906 0.15284
 H2409 H 0.23554 0.05486 0.17629
 H2410 H 0.18970 0.03175 0.17522
 H2411 H 0.18236 0.04654 0.15217
 H2412 H 0.20755 0.02766 0.19841
 H2413 H 0.18366 0.05212 0.12706
 H2414 H 0.24287 0.03468 0.18999
 C2415 C 0.69671 0.17819 0.62928
 C2416 C 0.69830 0.19347 0.62437
 C2417 C 0.70830 0.19788 0.61076
 C2418 C 0.71438 0.21304 0.61030
 C2419 C 0.72376 0.21776 0.59760
 C2420 C 0.72702 0.20744 0.58497
 C2421 C 0.72114 0.19221 0.58551
 C2422 C 0.71175 0.18748 0.59823
 C2423 C 0.73604 0.21233 0.57091
 C2424 C 0.73561 0.22754 0.56560
 H2425 H 0.69319 0.20273 0.63158
 H2426 H 0.71196 0.22122 0.61986
 H2427 H 0.72847 0.22946 0.59777
 H2428 H 0.72344 0.18409 0.57586
 H2429 H 0.70695 0.17582 0.59798
 H2430 H 0.74146 0.20339 0.56347
 H2431 H 0.70340 0.16907 0.62328
 H2432 H 0.72894 0.23631 0.57213
 C2433 C 0.70698 0.70819 0.14352
 C2434 C 0.71578 0.70111 0.13133
 C2435 C 0.72017 0.70907 0.11661
 C2436 C 0.73293 0.70319 0.10751
 C2437 C 0.73683 0.70972 0.09303
 C2438 C 0.72782 0.72215 0.08722
 C2439 C 0.71527 0.72824 0.09647
 C2440 C 0.71139 0.72174 0.11097
 C2441 C 0.73099 0.72896 0.07160
 C2442 C 0.73908 0.72107 0.05947
 H2443 H 0.71932 0.68909 0.13223
 H2444 H 0.73989 0.69346 0.11161
 H2445 H 0.74693 0.70499 0.08654
 H2446 H 0.70815 0.73782 0.09227
 H2447 H 0.70119 0.72635 0.11739
 H2448 H 0.72588 0.74025 0.06926
 H2449 H 0.70378 0.72031 0.14264
 H2450 H 0.74360 0.70947 0.06123
 C2451 C 0.55038 0.69504 0.11717
 C2452 C 0.54939 0.71056 0.12203
 C2453 C 0.54091 0.71519 0.13678
 C2454 C 0.54553 0.72868 0.14503
 C2455 C 0.53792 0.73296 0.15922
 C2456 C 0.52544 0.72379 0.16534
 C2457 C 0.52037 0.71072 0.15666
 C2458 C 0.52797 0.70647 0.14255
 C2459 C 0.51750 0.72722 0.18069
 C2460 C 0.52436 0.73639 0.19256
 H2461 H 0.55472 0.71951 0.11489
 H2462 H 0.55521 0.73580 0.14063
 H2463 H 0.54183 0.74344 0.16522
 H2464 H 0.51062 0.70362 0.16092
 H2465 H 0.52353 0.69640 0.13614
 H2466 H 0.50646 0.72116 0.18327
 H2467 H 0.54557 0.68623 0.12481
 H2468 H 0.53572 0.74206 0.19057
 C2469 C 0.06179 0.68906 0.61733
 C2470 C 0.06065 0.70476 0.62142
 C2471 C 0.04933 0.71037 0.63378
 C2472 C 0.04187 0.72481 0.63209
 C2473 C 0.03064 0.73014 0.64322
 C2474 C 0.02691 0.72124 0.65654
 C2475 C 0.03446 0.70681 0.65824
 C2476 C 0.04558 0.70144 0.64703
 C2477 C 0.01573 0.72677 0.66912
 C2478 C 0.01208 0.74242 0.67171
 H2479 H 0.06663 0.71322 0.61414
 H2480 H 0.04448 0.73185 0.62193
 H2481 H 0.02486 0.74114 0.64119
 H2482 H 0.03193 0.69975 0.66841
 H2483 H 0.05138 0.69039 0.64888
 H2484 H 0.01202 0.71853 0.67795
 H2485 H 0.05417 0.68089 0.62339
 H2486 H 0.01688 0.75108 0.66392
 C2487 C 0.55515 0.60521 0.20384
 C2488 C 0.54153 0.61378 0.19988
 C2489 C 0.53598 0.62789 0.20869
 C2490 C 0.52064 0.63379 0.20562
 C2491 C 0.51507 0.64728 0.21331
 C2492 C 0.52480 0.65522 0.22425
 C2493 C 0.54006 0.64929 0.22741
 C2494 C 0.54567 0.63590 0.21965
 C2495 C 0.51961 0.66959 0.23267
 C2496 C 0.50793 0.67977 0.22716
 H2497 H 0.53422 0.60992 0.19011
 H2498 H 0.51290 0.62792 0.19723
 H2499 H 0.50312 0.65131 0.21078
 H2500 H 0.54783 0.65521 0.23574
 H2501 H 0.55771 0.63217 0.22214
 H2502 H 0.52630 0.67298 0.24309
 H2503 H 0.56152 0.60828 0.21449
 H2504 H 0.50176 0.67722 0.21625
 C2505 C 0.06020 0.63021 0.68538
 C2506 C 0.04454 0.63577 0.68552
 C2507 C 0.04030 0.65097 0.69283
 C2508 C 0.02524 0.65275 0.69997
 C2509 C 0.02112 0.66662 0.70775
 C2510 C 0.03192 0.67916 0.70828
 C2511 C 0.04696 0.67744 0.70102
 C2512 C 0.05109 0.66353 0.69327
 C2513 C 0.02775 0.69414 0.71609
 C2514 C 0.01202 0.69940 0.71705
 H2515 H 0.03493 0.62797 0.68216
 H2516 H 0.01677 0.64323 0.69988
 H2517 H 0.00958 0.66735 0.71355
 H2518 H 0.05544 0.68695 0.70117
 H2519 H 0.06267 0.66271 0.68754
 H2520 H 0.03734 0.70191 0.71963
 H2521 H 0.06953 0.63739 0.69047
 H2522 H 0.00255 0.69246 0.71189
 C2523 C 0.04014 0.13995 0.04629
 C2524 C 0.04814 0.12916 0.03682
 C2525 C 0.04085 0.11410 0.03230
 C2526 C 0.05029 0.10300 0.02435
 C2527 C 0.04393 0.08857 0.02005
 C2528 C 0.02783 0.08499 0.02339
 C2529 C 0.01842 0.09602 0.03152
 C2530 C 0.02482 0.11047 0.03590
 C2531 C 0.02080 0.06969 0.01906
 C2532 C 0.02716 0.06036 0.00699
 H2533 H 0.06030 0.13151 0.03304
 H2534 H 0.06271 0.10542 0.02163
 H2535 H 0.05184 0.08020 0.01443
 H2536 H 0.00606 0.09349 0.03441
 H2537 H 0.01722 0.11876 0.04209
 H2538 H 0.01051 0.06564 0.02563
 H2539 H 0.04483 0.14795 0.04868
 H2540 H 0.03690 0.06466 -0.00016
 C2541 C 0.06513 0.63254 0.55062
 C2542 C 0.05484 0.62175 0.55741
 C2543 C 0.04710 0.60884 0.54864
 C2544 C 0.03410 0.60139 0.55578
 C2545 C 0.02634 0.58911 0.54814
 C2546 C 0.03141 0.58401 0.53308
 C2547 C 0.04464 0.59119 0.52606
 C2548 C 0.05241 0.60353 0.53371
 C2549 C 0.02374 0.57069 0.52494
 C2550 C 0.00807 0.56614 0.52819
 H2551 H 0.05203 0.62289 0.56985
 H2552 H 0.02993 0.60507 0.56738
 H2553 H 0.01665 0.58344 0.55427
 H2554 H 0.04898 0.58722 0.51462
 H2555 H 0.06269 0.60859 0.52797
 H2556 H 0.03080 0.56404 0.51646
 H2557 H 0.06854 0.63136 0.53835
 H2558 H 0.00058 0.57319 0.53592
 C2559 C 0.54560 0.13532 0.55395
 C2560 C 0.55117 0.12508 0.54216
 C2561 C 0.54215 0.11139 0.53627
 C2562 C 0.54613 0.10516 0.52137
 C2563 C 0.53858 0.09179 0.51559
 C2564 C 0.52703 0.08415 0.52476
 C2565 C 0.52281 0.09055 0.53954
 C2566 C 0.53032 0.10400 0.54530
 C2567 C 0.51934 0.06946 0.51945
 C2568 C 0.52599 0.05954 0.50797
 H2569 H 0.56273 0.12701 0.53679
 H2570 H 0.55514 0.11068 0.51414
 H2571 H 0.54183 0.08760 0.50392
 H2572 H 0.51393 0.08492 0.54684
 H2573 H 0.52715 0.10821 0.55699
 H2574 H 0.50864 0.06578 0.52563
 H2575 H 0.53402 0.13329 0.55930
 H2576 H 0.53716 0.06249 0.50228
 C2577 C 0.54136 0.63720 0.05347
 C2578 C 0.54100 0.63181 0.03785
 C2579 C 0.53183 0.61777 0.03304
 C2580 C 0.52690 0.61600 0.01731
 C2581 C 0.51818 0.60289 0.01245
 C2582 C 0.51432 0.59127 0.02328
 C2583 C 0.51918 0.59306 0.03898
 C2584 C 0.52801 0.60603 0.04379
 C2585 C 0.50585 0.57686 0.01858
 C2586 C 0.50792 0.56983 0.00379
 H2587 H 0.54665 0.63853 0.02871
 H2588 H 0.52970 0.62483 0.00879
 H2589 H 0.51440 0.60197 0.00030
 H2590 H 0.51653 0.58416 0.04748
 H2591 H 0.53207 0.60656 0.05586
 H2592 H 0.50006 0.57029 0.02780
 H2593 H 0.53415 0.63129 0.06212
 H2594 H 0.51498 0.57559 -0.00511
 C2595 C 0.69229 0.11936 0.57250
 C2596 C 0.68878 0.12878 0.55966
 C2597 C 0.69909 0.14166 0.55423
 C2598 C 0.69261 0.15232 0.54370
 C2599 C 0.70207 0.16400 0.53732
 C2600 C 0.71835 0.16520 0.54121
 C2601 C 0.72477 0.15485 0.55208
 C2602 C 0.71530 0.14308 0.55844
 C2603 C 0.72871 0.17737 0.53448
 C2604 C 0.72560 0.18414 0.51998
 H2605 H 0.67777 0.12711 0.55326
 H2606 H 0.68015 0.15156 0.54032
 H2607 H 0.69650 0.17215 0.52948
 H2608 H 0.73725 0.15566 0.55539
 H2609 H 0.72089 0.13496 0.56626
 H2610 H 0.73902 0.18116 0.54121
 H2611 H 0.70218 0.12272 0.58000
 H2612 H 0.71584 0.17990 0.51277
 C2613 C 0.70410 0.60717 0.04652
 C2614 C 0.69634 0.61818 0.03742
 C2615 C 0.70462 0.63199 0.03116
 C2616 C 0.69796 0.63978 0.01838
 C2617 C 0.70506 0.65331 0.01272
 C2618 C 0.71888 0.65940 0.01993
 C2619 C 0.72562 0.65150 0.03258
 C2620 C 0.71853 0.63803 0.03824
 C2621 C 0.72656 0.67400 0.01494
 C2622 C 0.71881 0.68544 0.00640
 H2623 H 0.68366 0.61705 0.03518
 H2624 H 0.68723 0.63539 0.01277
 H2625 H 0.69969 0.65885 0.00271
 H2626 H 0.73621 0.65598 0.03839
 H2627 H 0.72376 0.63276 0.04847
 H2628 H 0.73850 0.67636 0.01928
 H2629 H 0.71686 0.60813 0.04834
 H2630 H 0.70671 0.68371 0.00231
 C2631 C 0.19367 0.63443 0.69506
 C2632 C 0.20612 0.62505 0.68925
 C2633 C 0.21069 0.61021 0.69663
 C2634 C 0.22620 0.60435 0.69418
 C2635 C 0.23091 0.59037 0.70091
 C2636 C 0.22008 0.58184 0.71012
 C2637 C 0.20455 0.58765 0.71248
 C2638 C 0.19984 0.60159 0.70572
 C2639 C 0.22446 0.56706 0.71767
 C2640 C 0.23724 0.55764 0.71280
 H2641 H 0.21323 0.62875 0.67934
 H2642 H 0.23477 0.61073 0.68717
 H2643 H 0.24308 0.58648 0.69907
 H2644 H 0.19594 0.58128 0.71943
 H2645 H 0.18760 0.60535 0.70746
 H2646 H 0.21667 0.56299 0.72699
 H2647 H 0.18763 0.63098 0.70576
 H2648 H 0.24462 0.56087 0.70288
 C2649 C 0.20266 0.13468 0.18836
 C2650 C 0.20315 0.13031 0.20414
 C2651 C 0.21352 0.11765 0.20966
 C2652 C 0.21816 0.11768 0.22552
 C2653 C 0.22716 0.10546 0.23141
 C2654 C 0.23148 0.09284 0.22155
 C2655 C 0.22727 0.09300 0.20559
 C2656 C 0.21825 0.10522 0.19969
 C2657 C 0.23948 0.07898 0.22774
 C2658 C 0.23638 0.07378 0.24292
 H2659 H 0.19654 0.13676 0.21305
 H2660 H 0.21472 0.12715 0.23340
 H2661 H 0.23059 0.10587 0.24369
 H2662 H 0.23040 0.08335 0.19780
 H2663 H 0.21454 0.10457 0.18750
 H2664 H 0.24590 0.07147 0.21950
 H2665 H 0.21116 0.12928 0.18028
 H2666 H 0.22871 0.08049 0.25078
 C2667 C 0.69111 1.12962 0.69975
 C2668 C 0.70560 1.12183 0.69701
 C2669 C 0.71125 1.10875 0.70655
 C2670 C 0.72758 1.10499 0.70606
 C2671 C 0.73339 1.09224 0.71418
 C2672 C 0.72288 1.08288 0.72284
 C2673 C 0.70662 1.08683 0.72365
 C2674 C 0.70079 1.09955 0.71548
 C2675 C 0.72838 1.06881 0.73089
 C2676 C 0.74175 1.06029 0.72594
 H2677 H 0.71380 1.12581 0.68807
 H2678 H 0.73590 1.11192 0.69931
 H2679 H 0.74608 1.08984 0.71367
 H2680 H 0.69833 1.07980 0.73031
 H2681 H 0.68807 1.10181 0.71585
 H2682 H 0.72074 1.06417 0.74004
 H2683 H 0.68430 1.12674 0.71019
 H2684 H 0.74887 1.06407 0.71603
 C2685 C 0.70558 0.63941 0.19534
 C2686 C 0.70275 0.63197 0.20960
 C2687 C 0.71008 0.61685 0.21349
 C2688 C 0.71158 0.61289 0.22939
 C2689 C 0.71852 0.59879 0.23356
 C2690 C 0.72394 0.58825 0.22186
 C2691 C 0.72238 0.59217 0.20596
 C2692 C 0.71540 0.60624 0.20178
 C2693 C 0.73144 0.57324 0.22574
 C2694 C 0.72852 0.56555 0.23983
 H2695 H 0.69583 0.63782 0.21872
 H2696 H 0.70757 0.62083 0.23863
 H2697 H 0.71987 0.59637 0.24595
 H2698 H 0.72638 0.58421 0.19672
 H2699 H 0.71400 0.60860 0.18939
 H2700 H 0.73874 0.56756 0.21675
 H2701 H 0.71402 0.63432 0.18704
 H2702 H 0.72022 0.57040 0.24842
 C2703 C 0.54672 0.10425 0.69198
 C2704 C 0.54819 0.11021 0.70733
 C2705 C 0.53829 0.12316 0.71366
 C2706 C 0.53786 0.12594 0.73002
 C2707 C 0.52943 0.13862 0.73637
 C2708 C 0.52133 0.14881 0.72641
 C2709 C 0.52144 0.14584 0.71012
 C2710 C 0.52996 0.13328 0.70376
 C2711 C 0.51310 0.16289 0.73241
 C2712 C 0.51809 0.17112 0.74581
 H2713 H 0.55674 0.10506 0.71521
 H2714 H 0.54417 0.11834 0.73790
 H2715 H 0.52928 0.14039 0.74903
 H2716 H 0.51535 0.15359 0.70221
 H2717 H 0.53032 0.13191 0.69108
 H2718 H 0.50417 0.16802 0.72488
 H2719 H 0.53682 0.10792 0.68480
 H2720 H 0.52771 0.16670 0.75295
 C2721 C 1.04308 0.11130 0.19336
 C2722 C 1.04621 0.11972 0.20730
 C2723 C 1.03743 0.13409 0.21222
 C2724 C 1.03879 0.13953 0.22788
 C2725 C 1.03111 0.15321 0.23295
 C2726 C 1.02193 0.16188 0.22238
 C2727 C 1.02041 0.15637 0.20679
 C2728 C 1.02815 0.14275 0.20170
 C2729 C 1.01395 0.17672 0.22702
 C2730 C 1.01901 0.18625 0.23955
 H2731 H 1.05509 0.11544 0.21534
 H2732 H 1.04582 0.13314 0.23627
 H2733 H 1.03230 0.15682 0.24515
 H2734 H 1.01347 0.16283 0.19838
 H2735 H 1.02704 0.13935 0.18944
 H2736 H 1.00474 0.18104 0.21931
 H2737 H 1.03316 0.11484 0.18614
 H2738 H 1.02901 0.18272 0.24669
 C2739 C 0.19170 0.61060 0.54411
 C2740 C 0.20199 0.62159 0.55088
 C2741 C 0.20796 0.63549 0.54256
 C2742 C 0.22145 0.64318 0.54859
 C2743 C 0.22758 0.65629 0.54122
 C2744 C 0.22035 0.66205 0.52755
 C2745 C 0.20654 0.65470 0.52180
 C2746 C 0.20041 0.64152 0.52917
 C2747 C 0.22662 0.67597 0.51953
 C2748 C 0.24264 0.68040 0.52054
 H2749 H 0.20605 0.61996 0.56283
 H2750 H 0.22731 0.63901 0.55906
 H2751 H 0.23780 0.66203 0.54647
 H2752 H 0.20053 0.65911 0.51153
 H2753 H 0.18964 0.63635 0.52445
 H2754 H 0.21842 0.68291 0.51275
 H2755 H 0.18747 0.61218 0.53223
 H2756 H 0.25103 0.67306 0.52660
 C2757 C 0.20004 0.12541 1.06552
 C2758 C 0.20014 0.13026 1.04977
 C2759 C 0.20727 0.14502 1.04400
 C2760 C 0.20412 0.14941 1.02842
 C2761 C 0.21047 0.16311 1.02229
 C2762 C 0.22023 0.17285 1.03162
 C2763 C 0.22353 0.16837 1.04714
 C2764 C 0.21714 0.15468 1.05329
 C2765 C 0.22719 0.18767 1.02585
 C2766 C 0.22362 0.19459 1.01142
 H2767 H 0.19460 0.12288 1.04094
 H2768 H 0.19663 0.14220 1.02091
 H2769 H 0.20769 0.16588 1.01025
 H2770 H 0.23110 0.17554 1.05461
 H2771 H 0.22016 0.15176 1.06524
 H2772 H 0.23510 0.19388 1.03384
 H2773 H 0.20616 0.13227 1.07439
 H2774 H 0.21540 0.18910 1.00328
 C2775 C 0.19617 0.69608 0.63316
 C2776 C 0.21168 0.69341 0.62750
 C2777 C 0.21826 0.70118 0.61340
 C2778 C 0.23492 0.70257 0.61170
 C2779 C 0.24155 0.71003 0.59868
 C2780 C 0.23160 0.71615 0.58702
 C2781 C 0.21497 0.71466 0.58864
 C2782 C 0.20834 0.70713 0.60158
 C2783 C 0.23807 0.72416 0.57308
 C2784 C 0.25294 0.72066 0.56635
 H2785 H 0.21974 0.68631 0.63422
 H2786 H 0.24282 0.69805 0.62060
 H2787 H 0.25442 0.71120 0.59794
 H2788 H 0.20706 0.71914 0.57971
 H2789 H 0.19549 0.70583 0.60211
 H2790 H 0.23012 0.73188 0.56690
 H2791 H 0.18881 0.70460 0.62741
 H2792 H 0.26038 0.71177 0.57140
 C2793 C 0.18439 0.18429 1.12225
 C2794 C 0.18417 0.19979 1.11780
 C2795 C 0.19279 0.20546 1.10369
 C2796 C 0.19684 0.22125 1.10310
 C2797 C 0.20570 0.22698 1.09046
 C2798 C 0.21058 0.21703 1.07802
 C2799 C 0.20652 0.20127 1.07854
 C2800 C 0.19756 0.19554 1.09112
 C2801 C 0.21970 0.22278 1.06432
 C2802 C 0.21764 0.23777 1.05880
 H2803 H 0.17925 0.20837 1.12597
 H2804 H 0.19339 0.22914 1.11261
 H2805 H 0.20893 0.23915 1.09062
 H2806 H 0.21005 0.19342 1.06903
 H2807 H 0.19437 0.18339 1.09079
 H2808 H 0.22685 0.21460 1.05746
 H2809 H 0.19054 0.17582 1.11488
 H2810 H 0.20919 0.24550 1.06464
 C2811 C 0.70156 0.55890 0.11715
 C2812 C 0.69887 0.54502 0.12497
 C2813 C 0.70720 0.54121 0.13977
 C2814 C 0.70975 0.52559 0.14340
 C2815 C 0.71780 0.52161 0.15715
 C2816 C 0.72325 0.53323 0.16770
 C2817 C 0.72063 0.54884 0.16408
 C2818 C 0.71259 0.55282 0.15034
 C2819 C 0.73163 0.52957 0.18250
 C2820 C 0.72980 0.51549 0.19019
 H2821 H 0.69147 0.53615 0.11952
 H2822 H 0.70572 0.51645 0.13544
 H2823 H 0.71992 0.50945 0.15930
 H2824 H 0.72461 0.55801 0.17205
 H2825 H 0.71042 0.56498 0.14820
 H2826 H 0.73840 0.53877 0.18824
 H2827 H 0.71050 0.56685 0.12173
 H2828 H 0.72207 0.50658 0.18531
 C2829 C 0.68084 1.05401 0.62679
 C2830 C 0.69630 1.05435 0.63291
 C2831 C 0.70176 1.04409 0.64562
 C2832 C 0.71815 1.04098 0.64676
 C2833 C 0.72399 1.03140 0.65849
 C2834 C 0.71352 1.02481 0.66961
 C2835 C 0.69707 1.02799 0.66850
 C2836 C 0.69122 1.03754 0.65665
 C2837 C 0.71924 1.01536 0.68296
 C2838 C 0.73538 1.01280 0.68624
 H2839 H 0.70529 1.06135 0.62715
 H2840 H 0.72653 1.04595 0.63845
 H2841 H 0.73672 1.02944 0.65868
 H2842 H 0.68873 1.02326 0.67697
 H2843 H 0.67853 1.03998 0.65642
 H2844 H 0.71042 1.01154 0.69149
 H2845 H 0.67229 1.04574 0.63131
 H2846 H 0.74465 1.01685 0.67843
 C2847 C 0.56036 0.19435 0.61770
 C2848 C 0.54521 0.19358 0.62472
 C2849 C 0.54112 0.20072 0.64027
 C2850 C 0.52491 0.20228 0.64441
 C2851 C 0.52039 0.20853 0.65908
 C2852 C 0.53205 0.21327 0.67002
 C2853 C 0.54826 0.21197 0.66585
 C2854 C 0.55279 0.20563 0.65120
 C2855 C 0.52765 0.21953 0.68581
 C2856 C 0.51384 0.21486 0.69373
 H2857 H 0.53558 0.18807 0.61825
 H2858 H 0.51566 0.19866 0.63624
 H2859 H 0.50777 0.20975 0.66173
 H2860 H 0.55746 0.21554 0.67410
 H2861 H 0.56542 0.20433 0.64872
 H2862 H 0.53614 0.22699 0.69190
 H2863 H 0.56958 0.20129 0.62327
 H2864 H 0.50610 0.20621 0.68838
 C2865 C 1.03391 0.21218 0.09906
 C2866 C 1.02484 0.20511 0.11077
 C2867 C 1.02074 0.21299 0.12588
 C2868 C 1.00820 0.20708 0.13504
 C2869 C 1.00494 0.21334 0.15003
 C2870 C 1.01438 0.22550 0.15622
 C2871 C 1.02665 0.23164 0.14689
 C2872 C 1.02990 0.22541 0.13193
 C2873 C 1.01207 0.23197 0.17232
 C2874 C 1.00413 0.22415 0.18430
 H2875 H 1.02157 0.19301 0.10944
 H2876 H 1.00100 0.19750 0.13065
 H2877 H 0.99505 0.20857 0.15663
 H2878 H 1.03410 0.24100 0.15138
 H2879 H 1.04001 0.22999 0.12550
 H2880 H 1.01771 0.24301 0.17510
 H2881 H 1.03679 0.22439 0.10020
 H2882 H 0.99878 0.21290 0.18208
 C2883 C 0.63326 0.19344 0.68939
 C2884 C 0.62836 0.19449 0.70515
 C2885 C 0.61388 0.20297 0.71062
 C2886 C 0.61193 0.20602 0.72683
 C2887 C 0.59807 0.21321 0.73264
 C2888 C 0.58580 0.21742 0.72230
 C2889 C 0.58789 0.21477 0.70606
 C2890 C 0.60169 0.20748 0.70026
 C2891 C 0.57054 0.22417 0.72800
 C2892 C 0.56392 0.22070 0.74266
 H2893 H 0.63566 0.18918 0.71407
 H2894 H 0.62114 0.20272 0.73506
 H2895 H 0.59702 0.21546 0.74519
 H2896 H 0.57856 0.21789 0.69788
 H2897 H 0.60244 0.20506 0.68774
 H2898 H 0.56340 0.23051 0.71966
 H2899 H 0.62722 0.20027 0.68066
 H2900 H 0.57032 0.21333 0.75067
 C2901 C 1.13472 0.18909 0.19657
 C2902 C 1.12663 0.20297 0.19385
 C2903 C 1.11273 0.20825 0.20353
 C2904 C 1.10870 0.22407 0.20383
 C2905 C 1.09537 0.22941 0.21237
 C2906 C 1.08565 0.21896 0.22067
 C2907 C 1.08983 0.20320 0.22061
 C2908 C 1.10312 0.19785 0.21203
 C2909 C 1.07090 0.22402 0.22907
 C2910 C 1.06175 0.23654 0.22409
 H2911 H 1.13099 0.21064 0.18483
 H2912 H 1.11591 0.23234 0.19744
 H2913 H 1.09277 0.24172 0.21249
 H2914 H 1.08250 0.19492 0.22685
 H2915 H 1.10549 0.18551 0.21177
 H2916 H 1.06616 0.21667 0.23823
 H2917 H 1.13142 0.18244 0.20679
 H2918 H 1.06565 0.24309 0.21400
 C2919 C 0.13267 0.68623 0.56203
 C2920 C 0.13931 0.70095 0.56439
 C2921 C 0.15451 0.70541 0.55657
 C2922 C 0.15689 0.72089 0.55226
 C2923 C 0.17049 0.72514 0.54363
 C2924 C 0.18203 0.71395 0.53927
 C2925 C 0.17989 0.69858 0.54400
 C2926 C 0.16639 0.69436 0.55271
 C2927 C 0.19623 0.71779 0.52962
 C2928 C 0.20343 0.73238 0.52999
 H2929 H 0.13238 0.70988 0.57042
 H2930 H 0.14796 0.72962 0.55512
 H2931 H 0.17166 0.73707 0.54000
 H2932 H 0.18873 0.68979 0.54097
 H2933 H 0.16531 0.68243 0.55635
 H2934 H 0.20215 0.70841 0.52319
 H2935 H 0.13899 0.67803 0.55445
 H2936 H 0.19875 0.74140 0.53776
 C2937 C 0.10720 0.20194 1.05227
 C2938 C 0.11458 0.20000 1.03759
 C2939 C 0.12941 0.20847 1.03358
 C2940 C 0.13188 0.21323 1.01803
 C2941 C 0.14525 0.22217 1.01413
 C2942 C 0.15655 0.22629 1.02571
 C2943 C 0.15422 0.22127 1.04119
 C2944 C 0.14086 0.21235 1.04508
 C2945 C 0.17090 0.23567 1.02210
 C2946 C 0.17792 0.23589 1.00717
 H2947 H 0.10836 0.19378 1.02827
 H2948 H 0.12321 0.21040 1.00898
 H2949 H 0.14646 0.22608 1.00213
 H2950 H 0.16284 0.22414 1.05027
 H2951 H 0.13958 0.20847 1.05709
 H2952 H 0.17714 0.24120 1.03187
 H2953 H 0.11258 0.20976 1.06085
 H2954 H 0.17275 0.22918 0.99758
 C2955 C 0.61446 0.54039 0.19619
 C2956 C 0.62076 0.54120 0.21140
 C2957 C 0.63539 0.53259 0.21587
 C2958 C 0.63801 0.52928 0.23179
 C2959 C 0.65194 0.52161 0.23643
 C2960 C 0.66363 0.51725 0.22520
 C2961 C 0.66091 0.52034 0.20927
 C2962 C 0.64705 0.52805 0.20464
 C2963 C 0.67906 0.51013 0.22964
 C2964 C 0.68638 0.51326 0.24408
 H2965 H 0.61459 0.54779 0.22053
 H2966 H 0.62924 0.53263 0.24067
 H2967 H 0.65346 0.51911 0.24878
 H2968 H 0.66978 0.51722 0.20040
 H2969 H 0.64583 0.53081 0.19233
 H2970 H 0.68591 0.50418 0.22048
 H2971 H 0.61985 0.53235 0.18778
 H2972 H 0.68025 0.52033 0.25288
 C2973 C 0.62473 1.06289 0.68998
 C2974 C 0.63385 1.04943 0.68773
 C2975 C 0.64832 1.04588 0.69706
 C2976 C 0.65344 1.03041 0.69764
 C2977 C 0.66645 1.02628 0.70691
 C2978 C 0.67465 1.03757 0.71594
 C2979 C 0.67001 1.05315 0.71481
 C2980 C 0.65700 1.05731 0.70547
 C2981 C 0.68849 1.03352 0.72595
 C2982 C 0.69116 1.01850 0.73119
 H2983 H 0.62942 1.04033 0.67998
 H2984 H 0.64723 1.02141 0.69102
 H2985 H 0.67011 1.01424 0.70671
 H2986 H 0.67640 1.06213 0.72128
 H2987 H 0.65392 1.06947 0.70486
 H2988 H 0.69719 1.04249 0.72872
 H2989 H 0.62848 1.07137 0.69875
 H2990 H 0.68250 1.00944 0.72882
 C2991 C 0.88904 0.44496 0.30159
 C2992 C 0.88283 0.45998 0.30285
 C2993 C 0.86875 0.46492 0.29361
 C2994 C 0.86729 0.48054 0.28939
 C2995 C 0.85434 0.48548 0.28036
 C2996 C 0.84241 0.47489 0.27557
 C2997 C 0.84384 0.45930 0.27987
 C2998 C 0.85678 0.45437 0.28887
 C2999 C 0.82815 0.47964 0.26649
 C3000 C 0.82202 0.49471 0.26691
 H3001 H 0.88930 0.46871 0.30957
 H3002 H 0.87635 0.48889 0.29288
 H3003 H 0.85386 0.49753 0.27704
 H3004 H 0.83476 0.45093 0.27648
 H3005 H 0.85721 0.44233 0.29228
 H3006 H 0.82105 0.47054 0.26097
 H3007 H 0.88360 0.43685 0.29334
 H3008 H 0.82814 0.50373 0.27355
 C3009 C 0.89160 0.95512 0.81421
 C3010 C 0.88403 0.95238 0.79982
 C3011 C 0.86918 0.96033 0.79517
 C3012 C 0.86617 0.96203 0.77906
 C3013 C 0.85243 0.96960 0.77403
 C3014 C 0.84121 0.97539 0.78507
 C3015 C 0.84424 0.97377 0.80121
 C3016 C 0.85805 0.96622 0.80625
 C3017 C 0.82622 0.98287 0.78006
 C3018 C 0.81887 0.97894 0.76585
 H3019 H 0.89010 0.94544 0.79086
 H3020 H 0.87461 0.95766 0.77030
 H3021 H 0.85074 0.97103 0.76151
 H3022 H 0.83573 0.97809 0.80992
 H3023 H 0.85979 0.96479 0.81877
 H3024 H 0.82002 0.99044 0.78841
 H3025 H 0.88651 0.96345 0.82253
 H3026 H 0.82410 0.97012 0.75818
 C3027 C 0.36220 0.30647 0.79619
 C3028 C 0.36356 0.29033 0.79501
 C3029 C 0.37715 0.28262 0.78691
 C3030 C 0.38259 0.26836 0.79254
 C3031 C 0.39628 0.26140 0.78610
 C3032 C 0.40467 0.26854 0.77375
 C3033 C 0.39869 0.28234 0.76753
 C3034 C 0.38506 0.28934 0.77405
 C3035 C 0.42008 0.26242 0.76780
 C3036 C 0.42814 0.25069 0.77542
 H3037 H 0.35517 0.28303 0.80119
 H3038 H 0.37655 0.26289 0.80232
 H3039 H 0.40048 0.25065 0.79104
 H3040 H 0.40484 0.28794 0.75790
 H3041 H 0.38082 0.30003 0.76904
 H3042 H 0.42593 0.26824 0.75808
 H3043 H 0.37064 0.31367 0.78992
 H3044 H 0.43739 0.24833 0.77281
 C3045 C 0.87054 0.31060 0.32053
 C3046 C 0.87900 0.31301 0.30653
 C3047 C 0.89282 0.30320 0.30155
 C3048 C 0.89679 0.30214 0.28549
 C3049 C 0.90940 0.29268 0.28023
 C3050 C 0.91837 0.28397 0.29097
 C3051 C 0.91473 0.28542 0.30710
 C3052 C 0.90214 0.29492 0.31237
 C3053 C 0.93213 0.27410 0.28590
 C3054 C 0.93458 0.26917 0.27032
 H3055 H 0.87457 0.32138 0.29826
 H3056 H 0.89003 0.30859 0.27693
 H3057 H 0.91217 0.29255 0.26777
 H3058 H 0.92166 0.27917 0.31566
 H3059 H 0.89995 0.29587 0.32492
 H3060 H 0.94104 0.27124 0.29462
 H3061 H 0.87419 0.30114 0.32792
 H3062 H 0.92575 0.27164 0.26146
 C3063 C 0.40345 0.79322 0.45994
 C3064 C 0.39998 0.77741 0.45838
 C3065 C 0.38718 0.76982 0.46752
 C3066 C 0.37958 0.75677 0.46088
 C3067 C 0.36585 0.75067 0.46787
 C3068 C 0.35948 0.75758 0.48168
 C3069 C 0.36790 0.76976 0.48904
 C3070 C 0.38164 0.77583 0.48206
 C3071 C 0.34375 0.75318 0.48827
 C3072 C 0.33193 0.74557 0.47952
 H3073 H 0.40543 0.77080 0.44879
 H3074 H 0.38385 0.75170 0.44985
 H3075 H 0.36016 0.74081 0.46220
 H3076 H 0.36346 0.77504 0.49990
 H3077 H 0.38759 0.78542 0.48795
 H3078 H 0.34069 0.75768 0.49992
 H3079 H 0.39864 0.79995 0.46975
 H3080 H 0.33446 0.74089 0.46787
 C3081 C 0.38406 0.30287 0.94454
 C3082 C 0.37714 0.30338 0.95959
 C3083 C 0.36189 0.29558 0.96364
 C3084 C 0.35822 0.29318 0.97959
 C3085 C 0.34383 0.28616 0.98397
 C3086 C 0.33275 0.28147 0.97244
 C3087 C 0.33644 0.28376 0.95649
 C3088 C 0.35077 0.29087 0.95211
 C3089 C 0.31727 0.27423 0.97651
 C3090 C 0.30922 0.27710 0.99074
 H3091 H 0.38350 0.30911 0.96912
 H3092 H 0.36655 0.29671 0.98870
 H3093 H 0.34153 0.28427 0.99635
 H3094 H 0.32804 0.28032 0.94739
 H3095 H 0.35285 0.29289 0.93973
 H3096 H 0.31123 0.26766 0.96730
 H3097 H 0.37874 0.29562 0.93545
 H3098 H 0.31439 0.28475 0.99959
 C3099 C 0.80574 0.43797 0.38259
 C3100 C 0.80406 0.45366 0.37906
 C3101 C 0.79788 0.45915 0.36388
 C3102 C 0.80103 0.47449 0.35952
 C3103 C 0.79478 0.48036 0.34561
 C3104 C 0.78515 0.47095 0.33581
 C3105 C 0.78193 0.45565 0.34025
 C3106 C 0.78818 0.44979 0.35413
 C3107 C 0.77789 0.47653 0.32112
 C3108 C 0.78157 0.49057 0.31397
 H3109 H 0.80702 0.46243 0.38785
 H3110 H 0.80830 0.48198 0.36695
 H3111 H 0.79734 0.49230 0.34284
 H3112 H 0.77439 0.44821 0.33303
 H3113 H 0.78494 0.43811 0.35732
 H3114 H 0.76946 0.46879 0.31532
 H3115 H 0.80290 0.42919 0.37378
 H3116 H 0.79039 0.49839 0.31891
 C3117 C 0.80860 0.93794 0.87951
 C3118 C 0.80965 0.95318 0.87425
 C3119 C 0.80047 0.95851 0.86041
 C3120 C 0.79595 0.97417 0.85954
 C3121 C 0.78671 0.97936 0.84695
 C3122 C 0.78191 0.96895 0.83491
 C3123 C 0.78659 0.95335 0.83569
 C3124 C 0.79591 0.94821 0.84817
 C3125 C 0.77232 0.97389 0.82126
 C3126 C 0.77340 0.98871 0.81500
 H3127 H 0.81600 0.96175 0.88129
 H3128 H 0.79931 0.98235 0.86878
 H3129 H 0.78311 0.99142 0.84684
 H3130 H 0.78323 0.94515 0.82646
 H3131 H 0.79962 0.93618 0.84806
 H3132 H 0.76598 0.96499 0.81460
 H3133 H 0.80069 0.92996 0.87338
 H3134 H 0.78105 0.99731 0.82057
 C3135 C 0.29972 0.81481 0.36832
 C3136 C 0.30069 0.79943 0.37348
 C3137 C 0.29346 0.79355 0.38836
 C3138 C 0.29246 0.77742 0.39043
 C3139 C 0.28652 0.77124 0.40448
 C3140 C 0.28155 0.78108 0.41700
 C3141 C 0.28229 0.79723 0.41484
 C3142 C 0.28823 0.80342 0.40077
 C3143 C 0.27569 0.77508 0.43241
 C3144 C 0.27843 0.75996 0.43767
 H3145 H 0.30675 0.79097 0.36599
 H3146 H 0.29636 0.76950 0.38111
 H3147 H 0.28582 0.75876 0.40536
 H3148 H 0.27855 0.80513 0.42424
 H3149 H 0.28901 0.81589 0.39987
 H3150 H 0.26999 0.78329 0.44047
 H3151 H 0.29218 0.82298 0.37473
 H3152 H 0.28500 0.75179 0.43030
 C3153 C 0.30611 0.30794 0.86409
 C3154 C 0.30158 0.31484 0.87844
 C3155 C 0.29647 0.30555 0.89217
 C3156 C 0.28639 0.31236 0.90360
 C3157 C 0.28108 0.30382 0.91649
 C3158 C 0.28587 0.28828 0.91829
 C3159 C 0.29656 0.28169 0.90730
 C3160 C 0.30178 0.29019 0.89433
 C3161 C 0.28011 0.27896 0.93171
 C3162 C 0.26485 0.28117 0.93805
 H3163 H 0.30166 0.32737 0.87968
 H3164 H 0.28246 0.32427 0.90245
 H3165 H 0.27337 0.30948 0.92513
 H3166 H 0.30070 0.26987 0.90863
 H3167 H 0.31013 0.28473 0.88617
 H3168 H 0.28791 0.27021 0.93653
 H3169 H 0.30555 0.29542 0.86286
 H3170 H 0.25685 0.28929 0.93249
 C3171 C 0.45504 0.30904 0.89172
 C3172 C 0.45406 0.29380 0.88582
 C3173 C 0.46136 0.28822 0.87080
 C3174 C 0.45530 0.27454 0.86394
 C3175 C 0.46146 0.26872 0.84971
 C3176 C 0.47417 0.27630 0.84207
 C3177 C 0.48027 0.29003 0.84893
 C3178 C 0.47398 0.29594 0.86317
 C3179 C 0.48098 0.27052 0.82682
 C3180 C 0.47790 0.25572 0.82053
 H3181 H 0.44695 0.28548 0.89221
 H3182 H 0.44550 0.26841 0.86950
 H3183 H 0.45592 0.25844 0.84476
 H3184 H 0.48999 0.29618 0.84329
 H3185 H 0.47919 0.30639 0.86818
 H3186 H 0.48858 0.27830 0.82022
 H3187 H 0.46268 0.31737 0.88596
 H3188 H 0.47078 0.24755 0.82706
 C3189 C 0.94385 0.30183 0.38728
 C3190 C 0.95671 0.30655 0.37787
 C3191 C 0.96100 0.29869 0.36268
 C3192 C 0.97663 0.30019 0.35673
 C3193 C 0.98113 0.29286 0.34251
 C3194 C 0.96999 0.28397 0.33386
 C3195 C 0.95435 0.28257 0.33976
 C3196 C 0.94983 0.28995 0.35389
 C3197 C 0.97419 0.27575 0.31888
 C3198 C 0.98697 0.27993 0.30914
 H3199 H 0.96452 0.31573 0.38204
 H3200 H 0.98547 0.30687 0.36321
 H3201 H 0.99339 0.29396 0.33855
 H3202 H 0.94553 0.27584 0.33331
 H3203 H 0.93752 0.28892 0.35771
 H3204 H 0.96624 0.26657 0.31489
 H3205 H 0.93724 0.29158 0.38370
 H3206 H 0.99438 0.28980 0.31224
 C3207 C 0.44891 0.37267 0.81269
 C3208 C 0.44918 0.36527 0.79791
 C3209 C 0.45763 0.35046 0.79454
 C3210 C 0.46033 0.34606 0.77874
 C3211 C 0.46766 0.33191 0.77492
 C3212 C 0.47232 0.32179 0.78687
 C3213 C 0.46996 0.32628 0.80267
 C3214 C 0.46254 0.34040 0.80651
 C3215 C 0.47944 0.30645 0.78319
 C3216 C 0.47546 0.29798 0.76962
 H3217 H 0.44349 0.37086 0.78809
 H3218 H 0.45672 0.35359 0.76931
 H3219 H 0.46972 0.32901 0.76261
 H3220 H 0.47346 0.31865 0.81206
 H3221 H 0.46037 0.34311 0.81882
 H3222 H 0.48688 0.30111 0.79202
 H3223 H 0.45611 0.36815 0.82211
 H3224 H 0.46685 0.30256 0.76143
 C3225 C 0.95849 0.39113 0.30087
 C3226 C 0.95232 0.38087 0.28949
 C3227 C 0.96107 0.36706 0.28340
 C3228 C 0.95657 0.36054 0.26882
 C3229 C 0.96384 0.34697 0.26304
 C3230 C 0.97563 0.33948 0.27192
 C3231 C 0.98037 0.34618 0.28634
 C3232 C 0.97313 0.35978 0.29210
 C3233 C 0.98294 0.32454 0.26683
 C3234 C 0.97579 0.31424 0.25610
 H3235 H 0.94050 0.38274 0.28481
 H3236 H 0.94734 0.36595 0.26188
 H3237 H 0.96015 0.34248 0.25166
 H3238 H 0.98941 0.34064 0.29342
 H3239 H 0.97667 0.36416 0.30358
 H3240 H 0.99365 0.32087 0.27288
 H3241 H 0.97047 0.38926 0.30522
 H3242 H 0.96467 0.31724 0.25046
 C3243 C 0.29654 0.88422 0.45353
 C3244 C 0.30537 0.87388 0.46253
 C3245 C 0.29920 0.85847 0.46697
 C3246 C 0.30515 0.85145 0.48052
 C3247 C 0.29983 0.83674 0.48488
 C3248 C 0.28862 0.82864 0.47554
 C3249 C 0.28271 0.83567 0.46197
 C3250 C 0.28798 0.85038 0.45765
 C3251 C 0.28266 0.81301 0.47953
 C3252 C 0.29049 0.80302 0.48971
 H3253 H 0.31724 0.87697 0.46649
 H3254 H 0.31383 0.85744 0.48786
 H3255 H 0.30441 0.83194 0.49563
 H3256 H 0.27413 0.82966 0.45453
 H3257 H 0.28352 0.85517 0.44683
 H3258 H 0.27199 0.80891 0.47357
 H3259 H 0.28451 0.88105 0.45008
 H3260 H 0.30164 0.80642 0.49518
 C3261 C 0.29750 0.38750 0.93935
 C3262 C 0.29868 0.38205 0.95470
 C3263 C 0.28978 0.36805 0.95975
 C3264 C 0.28456 0.36694 0.97545
 C3265 C 0.27537 0.35424 0.98027
 C3266 C 0.27138 0.34230 0.96944
 C3267 C 0.27685 0.34330 0.95383
 C3268 C 0.28607 0.35592 0.94906
 C3269 C 0.26174 0.32858 0.97388
 C3270 C 0.26114 0.32279 0.98913
 H3271 H 0.30485 0.38898 0.96354
 H3272 H 0.28728 0.37610 0.98393
 H3273 H 0.27119 0.35399 0.99235
 H3274 H 0.27414 0.33417 0.94530
 H3275 H 0.29034 0.35604 0.93699
 H3276 H 0.25656 0.32166 0.96441
 H3277 H 0.28970 0.38139 0.93121
 H3278 H 0.26748 0.32871 0.99855
 C3279 C 0.81255 0.37786 0.31862
 C3280 C 0.81621 0.38414 0.30396
 C3281 C 0.80868 0.39873 0.29853
 C3282 C 0.80634 0.40087 0.28234
 C3283 C 0.79835 0.41403 0.27694
 C3284 C 0.79271 0.42545 0.28767
 C3285 C 0.79544 0.42350 0.30382
 C3286 C 0.80343 0.41038 0.30921
 C3287 C 0.78361 0.43928 0.28263
 C3288 C 0.78431 0.44526 0.26744
 H3289 H 0.82337 0.37746 0.29561
 H3290 H 0.81030 0.39211 0.27387
 H3291 H 0.79627 0.41495 0.26442
 H3292 H 0.79138 0.43218 0.31233
 H3293 H 0.80549 0.40946 0.32173
 H3294 H 0.77680 0.44560 0.29157
 H3295 H 0.80393 0.38387 0.32609
 H3296 H 0.79211 0.43999 0.25864
   
