data_POSCAR
  _audit_creation_date              2014-09-24
  _audit_creation_method            'ToBaCCo'
  _symmetry_space_group_name_H-M    'P1'
  _symmetry_Int_Tables_number       1
  _symmetry_cell_setting            triclinic
  loop_
  _symmetry_equiv_pos_as_xyz
 x,y,z
_cell_length_a 53.4614
_cell_length_b 57.8848
_cell_length_c 53.9202
_cell_angle_alpha 89.909400
_cell_angle_beta 89.730700
_cell_angle_gamma 89.991000
loop_
  _atom_site_label
  _atom_site_type_symbol
  _atom_site_fract_x
  _atom_site_fract_y
  _atom_site_fract_z
C1 C 1.20955 0.25434 0.28519
 H2 H 1.20742 0.23576 0.28503
 C3 C 1.19453 0.26778 0.30080
 H4 H 1.18084 0.25945 0.31266
 C5 C 1.23052 0.28776 0.27046
 H6 H 1.24481 0.29548 0.25891
 C7 C 1.21616 0.30179 0.28600
 H8 H 1.21923 0.32029 0.28591
 N9 N 1.22687 0.26450 0.27016
 C10 C 1.24024 0.21320 0.21201
 H11 H 1.26047 0.21276 0.21216
 C12 C 1.22706 0.19873 0.19604
 H13 H 1.23724 0.18720 0.18383
 C14 C 1.20241 0.22896 0.22760
 H15 H 1.19285 0.24088 0.23976
 C16 C 1.18849 0.21501 0.21166
 H17 H 1.16826 0.21605 0.21202
 Zn18 Zn 1.24735 0.24539 0.24997
 N19 N 1.22781 0.22745 0.22788
 C20 C 1.26575 0.20266 0.26872
 N21 N 1.26602 0.22596 0.27138
 C22 C 1.27946 0.23610 0.28968
 C23 C 1.29405 0.22277 0.30569
 C24 C 1.28039 0.18867 0.28394
 C25 C 1.25870 0.27809 0.21339
 C26 C 1.27377 0.29195 0.19827
 C27 C 1.31021 0.27551 0.21787
 C28 C 1.29444 0.26198 0.23266
 N29 N 1.26918 0.26369 0.23037
 H30 H 1.25411 0.19472 0.25486
 H31 H 1.27919 0.25471 0.29155
 H32 H 1.30530 0.23199 0.31900
 H33 H 1.27872 0.17022 0.28136
 H34 H 1.23856 0.27891 0.21177
 H35 H 1.26500 0.30368 0.18529
 H36 H 1.33027 0.27375 0.21983
 H37 H 1.30243 0.25004 0.24583
 C38 C 1.20083 0.19939 0.19592
 C39 C 1.19784 0.29183 0.30137
 C40 C 1.29992 0.29084 0.20045
 C41 C 1.29533 0.19845 0.30286
 C42 C 0.71497 -0.24085 0.28945
 H43 H 0.71348 -0.25949 0.28957
 C44 C 0.70009 -0.22776 0.30545
 H45 H 0.68711 -0.23639 0.31786
 C46 C 0.73410 -0.20696 0.27354
 H47 H 0.74753 -0.19890 0.26127
 C48 C 0.71982 -0.19323 0.28946
 H49 H 0.72209 -0.17464 0.28899
 N50 N 0.73123 -0.23032 0.27355
 C51 C 0.73974 -0.27951 0.21253
 H52 H 0.75969 -0.27901 0.20947
 C53 C 0.72483 -0.29303 0.19707
 H54 H 0.73367 -0.30352 0.18292
 C55 C 0.70396 -0.26584 0.23392
 H56 H 0.69565 -0.25474 0.24769
 C57 C 0.68835 -0.27902 0.21885
 H58 H 0.66830 -0.27795 0.22150
 Zn59 Zn 0.75066 -0.24896 0.25175
 N60 N 0.72925 -0.26674 0.23102
 C61 C 0.78578 -0.28528 0.26033
 N62 N 0.77177 -0.26842 0.27118
 C63 C 0.77295 -0.26467 0.29607
 C64 C 0.78812 -0.27841 0.31105
 C65 C 0.80123 -0.29943 0.27464
 C66 C 0.75802 -0.21586 0.21474
 C67 C 0.77141 -0.20091 0.19930
 C68 C 0.80978 -0.21554 0.21693
 C69 C 0.79563 -0.22998 0.23231
 N70 N 0.77023 -0.22981 0.23099
 H71 H 0.78521 -0.28775 0.24055
 H72 H 0.76241 -0.25079 0.30442
 H73 H 0.78893 -0.27492 0.33076
 H74 H 0.81189 -0.31297 0.26565
 H75 H 0.73780 -0.21620 0.21402
 H76 H 0.76143 -0.18984 0.18651
 H77 H 0.82998 -0.21567 0.21832
 H78 H 0.80494 -0.24116 0.24542
 C79 C 0.69875 -0.29310 0.20032
 C80 C 0.70239 -0.20363 0.30548
 C81 C 0.79762 -0.20066 0.20031
 C82 C 0.80244 -0.29615 0.30040
 C83 C 0.71162 0.26022 -0.21368
 H84 H 0.70909 0.24169 -0.21442
 C85 C 0.69715 0.27345 -0.19741
 H86 H 0.68353 0.26500 -0.18556
 C87 C 0.73271 0.29371 -0.22805
 H88 H 0.74670 0.30152 -0.23989
 C89 C 0.71886 0.30756 -0.21183
 H90 H 0.72206 0.32603 -0.21162
 N91 N 0.72861 0.27053 -0.22894
 C92 C 0.73537 0.22178 -0.29021
 H93 H 0.75546 0.21965 -0.29092
 C94 C 0.72020 0.20940 -0.30647
 H95 H 0.72879 0.19749 -0.31942
 C96 C 0.69986 0.23953 -0.27198
 H97 H 0.69199 0.25158 -0.25882
 C98 C 0.68399 0.22755 -0.28793
 H99 H 0.66402 0.23051 -0.28677
 Zn100 Zn 0.74693 0.25144 -0.25100
 N101 N 0.72501 0.23607 -0.27301
 C102 C 0.76046 0.20663 -0.23400
 N103 N 0.76475 0.22968 -0.23156
 C104 C 0.78112 0.23783 -0.21444
 C105 C 0.79450 0.22255 -0.19944
 C106 C 0.77343 0.19075 -0.21939
 C107 C 0.75846 0.28467 -0.28665
 C108 C 0.77333 0.29827 -0.30221
 C109 C 0.80988 0.28003 -0.28486
 C110 C 0.79419 0.26671 -0.26975
 N111 N 0.76900 0.26943 -0.27070
 H112 H 0.74678 0.20046 -0.24707
 H113 H 0.78386 0.25626 -0.21256
 H114 H 0.80783 0.22939 -0.18630
 H115 H 0.76957 0.17250 -0.22149
 H116 H 0.73831 0.28642 -0.28711
 H117 H 0.76368 0.31086 -0.31343
 H118 H 0.82964 0.27628 -0.28393
 H119 H 0.80224 0.25393 -0.25756
 C120 C 0.69409 0.21200 -0.30526
 C121 C 0.70063 0.29746 -0.19646
 C122 C 0.79979 0.29639 -0.30171
 C123 C 0.79081 0.19863 -0.20189
 C124 C 1.21825 -0.23800 -0.21381
 H125 H 1.21561 -0.25638 -0.21129
 C126 C 1.20478 -0.22244 -0.19917
 H127 H 1.19148 -0.22902 -0.18572
 C128 C 1.23883 -0.20718 -0.23444
 H129 H 1.25240 -0.20125 -0.24790
 C130 C 1.22575 -0.19102 -0.22021
 H131 H 1.22947 -0.17280 -0.22291
 N132 N 1.23477 -0.23020 -0.23118
 C133 C 1.24143 -0.28304 -0.28858
 H134 H 1.26143 -0.28288 -0.29152
 C135 C 1.22634 -0.29637 -0.30402
 H136 H 1.23506 -0.30703 -0.31809
 C137 C 1.20585 -0.26879 -0.26726
 H138 H 1.19778 -0.25766 -0.25335
 C139 C 1.19004 -0.28181 -0.28233
 H140 H 1.17001 -0.28051 -0.27969
 Zn141 Zn 1.25309 -0.25201 -0.25039
 N142 N 1.23112 -0.26991 -0.27030
 C143 C 1.28441 -0.28992 -0.23826
 N144 N 1.27197 -0.27138 -0.22882
 C145 C 1.27369 -0.26589 -0.20434
 C146 C 1.28811 -0.27937 -0.18835
 C147 C 1.29909 -0.30381 -0.22295
 C148 C 1.26512 -0.22400 -0.29106
 C149 C 1.28057 -0.21147 -0.30709
 C150 C 1.31638 -0.22475 -0.28389
 C151 C 1.30023 -0.23694 -0.26822
 N152 N 1.27511 -0.23619 -0.27195
 H153 H 1.28327 -0.29385 -0.25775
 H154 H 1.26434 -0.25075 -0.19720
 H155 H 1.28955 -0.27447 -0.16903
 H156 H 1.30867 -0.31858 -0.23084
 H157 H 1.24505 -0.22374 -0.29356
 H158 H 1.27217 -0.20133 -0.32174
 H159 H 1.33633 -0.22562 -0.28067
 H160 H 1.30776 -0.24676 -0.25293
 C161 C 1.20025 -0.29597 -0.30092
 C162 C 1.20844 -0.19858 -0.20230
 C163 C 1.30659 -0.21161 -0.30351
 C164 C 1.30112 -0.29858 -0.19763
 C165 C 0.26381 0.22308 0.71048
 H166 H 0.24369 0.22279 0.70842
 C167 C 0.27892 0.21048 0.69423
 H168 H 0.27020 0.20025 0.67987
 C169 C 0.29940 0.23621 0.73238
 H170 H 0.30726 0.24617 0.74738
 C171 C 0.31523 0.22397 0.71647
 H172 H 0.33525 0.22493 0.71921
 N173 N 0.27421 0.23538 0.72924
 C174 C 0.21854 0.23796 0.78842
 H175 H 0.21636 0.25640 0.79090
 C176 C 0.20500 0.22269 0.80338
 H177 H 0.19191 0.23004 0.81651
 C178 C 0.23772 0.20682 0.76734
 H179 H 0.25090 0.20064 0.75364
 C180 C 0.22449 0.19090 0.78178
 H181 H 0.22846 0.17278 0.77894
 Zn182 Zn 0.25269 0.25142 0.75106
 N183 N 0.23439 0.22987 0.77069
 C184 C 0.20536 0.26856 0.73489
 N185 N 0.23058 0.26943 0.73139
 C186 C 0.24072 0.28229 0.71275
 C187 C 0.22548 0.29557 0.69735
 C188 C 0.18942 0.28154 0.71987
 C189 C 0.27446 0.26487 0.79660
 C190 C 0.28904 0.27834 0.81240
 C191 C 0.29880 0.30336 0.77784
 C192 C 0.28398 0.28946 0.76272
 N193 N 0.27203 0.27066 0.77225
 H194 H 0.19743 0.25765 0.74911
 H195 H 0.26066 0.28194 0.70950
 H196 H 0.23406 0.30599 0.68296
 H197 H 0.16942 0.28043 0.72285
 H198 H 0.26551 0.24952 0.80378
 H199 H 0.29100 0.27323 0.83162
 H200 H 0.30794 0.31837 0.76991
 H201 H 0.28225 0.29366 0.74332
 C202 C 0.20766 0.19857 0.80028
 C203 C 0.30502 0.21069 0.69721
 C204 C 0.30149 0.29786 0.80305
 C205 C 0.19944 0.29538 0.70086
 C206 C 0.75863 0.71464 0.71353
 H207 H 0.73856 0.71225 0.71324
 C208 C 0.77393 0.70126 0.69819
 H209 H 0.76548 0.68834 0.68640
 C210 C 0.79390 0.73430 0.72952
 H211 H 0.80158 0.74750 0.74138
 C212 C 0.80992 0.72130 0.71447
 H213 H 0.82983 0.72465 0.71498
 N214 N 0.76878 0.73059 0.72898
 C215 C 0.71017 0.73874 0.78492
 H216 H 0.70706 0.75719 0.78384
 C217 C 0.69575 0.72529 0.80105
 H218 H 0.68207 0.73400 0.81256
 C219 C 0.73298 0.70588 0.77194
 H220 H 0.74758 0.69837 0.76062
 C221 C 0.71935 0.69180 0.78815
 H222 H 0.72336 0.67349 0.78808
 Zn223 Zn 0.74633 0.74822 0.74857
 N224 N 0.72796 0.72884 0.77036
 C225 C 0.69948 0.76003 0.72682
 N226 N 0.72461 0.76375 0.72641
 C227 C 0.73517 0.77850 0.70974
 C228 C 0.72021 0.79113 0.69346
 C229 C 0.68383 0.77226 0.71083
 C230 C 0.78033 0.76145 0.78529
 C231 C 0.79370 0.77652 0.80048
 C232 C 0.77227 0.80857 0.78124
 C233 C 0.75935 0.79288 0.76639
 N234 N 0.76384 0.76982 0.76838
 H235 H 0.69147 0.74761 0.73951
 H236 H 0.75525 0.78082 0.70951
 H237 H 0.72895 0.80341 0.68099
 H238 H 0.66387 0.76912 0.71151
 H239 H 0.78325 0.74301 0.78679
 H240 H 0.80717 0.76952 0.81340
 H241 H 0.76829 0.82683 0.77948
 H242 H 0.74556 0.79921 0.75350
 C243 C 0.70004 0.70128 0.80294
 C244 C 0.79998 0.70447 0.69855
 C245 C 0.78984 0.80047 0.79848
 C246 C 0.69412 0.78831 0.69409
 C247 C 0.75998 0.21904 0.21032
 H248 H 0.74048 0.22292 0.20710
 C249 C 0.77253 0.20377 0.19458
 H250 H 0.76242 0.19564 0.17959
 C251 C 0.79685 0.22506 0.23362
 H252 H 0.80647 0.23356 0.24855
 C253 C 0.81006 0.20975 0.21845
 H254 H 0.82971 0.20668 0.22196
 N255 N 0.77208 0.22903 0.22970
 C256 C 0.73107 0.23550 0.29672
 H257 H 0.74141 0.24995 0.30409
 C258 C 0.71561 0.22264 0.31246
 H259 H 0.71432 0.22730 0.33186
 C260 C 0.71916 0.21261 0.26237
 H261 H 0.72038 0.20887 0.24281
 C262 C 0.70346 0.19933 0.27742
 H263 H 0.69310 0.18519 0.26928
 Zn264 Zn 0.75297 0.24856 0.25087
 N265 N 0.73266 0.23026 0.27216
 C266 C 0.70707 0.26787 0.23549
 N267 N 0.73207 0.26708 0.23081
 C268 C 0.74243 0.27921 0.21175
 C269 C 0.72747 0.29308 0.19664
 C270 C 0.69143 0.28141 0.22079
 C271 C 0.78977 0.25777 0.28710
 C272 C 0.80496 0.27143 0.30213
 C273 C 0.78685 0.30540 0.28334
 C274 C 0.77224 0.29110 0.26844
 N275 N 0.77401 0.26772 0.27044
 H276 H 0.69921 0.25806 0.25071
 H277 H 0.76237 0.27823 0.20844
 H278 H 0.73615 0.30298 0.18188
 H279 H 0.67154 0.28157 0.22468
 H280 H 0.79026 0.23917 0.28897
 H281 H 0.81727 0.26324 0.31540
 H282 H 0.78525 0.32398 0.28146
 H283 H 0.75928 0.29875 0.25551
 C284 C 0.70151 0.20430 0.30283
 C285 C 0.79782 0.19872 0.19878
 C286 C 0.80350 0.29557 0.30040
 C287 C 0.70158 0.29435 0.20111
 C288 C 0.26031 0.72140 0.21443
 H289 H 0.24015 0.72064 0.21286
 C290 C 0.27528 0.70757 0.19923
 H291 H 0.26644 0.69595 0.18623
 C292 C 0.29614 0.73726 0.23368
 H293 H 0.30421 0.74909 0.24689
 C294 C 0.31183 0.72377 0.21881
 H295 H 0.33190 0.72544 0.22073
 N296 N 0.27087 0.73565 0.23144
 C297 C 0.21124 0.74466 0.28631
 H298 H 0.20907 0.76324 0.28622
 C299 C 0.19620 0.73109 0.30182
 H300 H 0.18244 0.73932 0.31366
 C301 C 0.23233 0.71138 0.27151
 H302 H 0.24667 0.70375 0.25997
 C303 C 0.21795 0.69721 0.28695
 H304 H 0.22105 0.67873 0.28677
 Zn305 Zn 0.24909 0.75387 0.25114
 N306 N 0.22864 0.73464 0.27129
 C307 C 0.20413 0.77038 0.22879
 N308 N 0.22952 0.77192 0.22911
 C309 C 0.24194 0.78627 0.21329
 C310 C 0.22875 0.80079 0.19732
 C311 C 0.19019 0.78437 0.21285
 C312 C 0.28134 0.76300 0.29080
 C313 C 0.29596 0.77628 0.30680
 C314 C 0.28212 0.81046 0.28517
 C315 C 0.26746 0.79651 0.26999
 N316 N 0.26780 0.77319 0.27258
 H317 H 0.19458 0.75838 0.24091
 H318 H 0.26217 0.78674 0.21346
 H319 H 0.23892 0.81239 0.18514
 H320 H 0.16997 0.78327 0.21315
 H321 H 0.28113 0.74438 0.29263
 H322 H 0.30728 0.76702 0.32004
 H323 H 0.28039 0.82891 0.28265
 H324 H 0.25574 0.80450 0.25619
 C325 C 0.19955 0.70704 0.30229
 C326 C 0.30145 0.70858 0.20135
 C327 C 0.29717 0.80062 0.30401
 C328 C 0.20253 0.80007 0.19715
 N329 N 0.97334 -0.02683 0.03928
 N330 N 0.95694 -0.03221 0.05676
 N331 N 1.02589 -0.04177 0.02097
 N332 N 1.04236 -0.05808 0.02589
 N333 N 1.02596 -0.02594 0.03840
 N334 N 1.04256 -0.03113 0.05563
 N335 N 0.97348 -0.04262 0.02181
 N336 N 0.95731 -0.05915 0.02698
 C337 C 0.94689 -0.05231 0.04868
 C338 C 1.05288 -0.05111 0.04738
 N339 N 1.02490 -0.02535 -0.04967
 N340 N 1.04196 -0.02968 -0.06686
 N341 N 0.97279 -0.04223 -0.03164
 N342 N 0.95604 -0.05840 -0.03619
 N343 N 0.97235 -0.02627 -0.04896
 N344 N 0.95528 -0.03119 -0.06578
 N345 N 1.02535 -0.04130 -0.03235
 N346 N 1.04275 -0.05681 -0.03719
 Mn347 Mn 0.99936 -0.04215 -0.00532
 C348 C 1.05314 -0.04926 -0.05865
 C349 C 0.94507 -0.05119 -0.05742
 N350 N 1.02485 0.02408 0.03867
 N351 N 1.04151 0.02948 0.05575
 N352 N 0.97152 0.03894 0.02225
 N353 N 0.95439 0.05460 0.02750
 N354 N 0.97230 0.02304 0.03963
 N355 N 0.95574 0.02756 0.05723
 N356 N 1.02401 0.04014 0.02146
 N357 N 1.03999 0.05684 0.02638
 Mn358 Mn 0.99914 -0.00141 0.03925
 C359 C 1.05103 0.04987 0.04765
 C360 C 0.94448 0.04717 0.04924
 N361 N 0.97125 0.02361 -0.04871
 N362 N 0.95433 0.02841 -0.06574
 N363 N 1.02348 0.04037 -0.03188
 N364 N 1.04038 0.05644 -0.03640
 N365 N 1.02380 0.02458 -0.04933
 N366 N 1.04092 0.02956 -0.06626
 N367 N 0.97095 0.03930 -0.03116
 N368 N 0.95382 0.05512 -0.03574
 Mn369 Mn 0.99809 -0.00086 -0.04944
 Mn370 Mn 0.99746 0.03987 -0.00484
 Cl371 Cl 0.99852 -0.00114 -0.00507
 C372 C 0.94338 0.04800 -0.05723
 C373 C 1.05127 0.04940 -0.05780
 N374 N 1.04567 0.52352 0.52732
 N375 N 1.06257 0.53957 0.53189
 N376 N 1.02760 0.47515 0.54466
 N377 N 1.03181 0.45908 0.56150
 N378 N 1.04516 0.47493 0.52756
 N379 N 1.06178 0.45866 0.53230
 N380 N 1.02812 0.52366 0.54443
 N381 N 1.03261 0.53979 0.56109
 C382 C 1.05406 0.54971 0.55294
 C383 C 1.05310 0.44878 0.55345
 N384 N 0.95644 0.47584 0.52711
 N385 N 0.93929 0.45998 0.53170
 N386 N 0.97424 0.52422 0.54418
 N387 N 0.96958 0.54026 0.56094
 N388 N 0.95708 0.52441 0.52686
 N389 N 0.94027 0.54060 0.53138
 N390 N 0.97368 0.47565 0.54437
 N391 N 0.96873 0.45963 0.56114
 Mn392 Mn 1.00091 0.49966 0.54465
 C393 C 0.94731 0.44985 0.55289
 C394 C 0.94843 0.55050 0.55261
 N395 N 1.04581 0.47478 0.47409
 N396 N 1.06266 0.45862 0.46967
 N397 N 1.02908 0.52342 0.45651
 N398 N 1.03390 0.53958 0.43985
 N399 N 1.04630 0.52329 0.47380
 N400 N 1.06334 0.53926 0.46930
 N401 N 1.02856 0.47476 0.45685
 N402 N 1.03316 0.45851 0.44028
 Mn403 Mn 1.04599 0.49914 0.50070
 C404 C 1.05442 0.44845 0.44863
 C405 C 1.05527 0.54944 0.44816
 N406 N 0.95766 0.52419 0.47336
 N407 N 0.94090 0.54028 0.46848
 N408 N 0.97460 0.47529 0.45658
 N409 N 0.96992 0.45917 0.43994
 N410 N 0.95699 0.47570 0.47363
 N411 N 0.93981 0.45995 0.46899
 N412 N 0.97515 0.52388 0.45618
 N413 N 0.97074 0.53977 0.43916
 Mn414 Mn 0.95680 0.50005 0.50024
 Mn415 Mn 1.00185 0.49933 0.45627
 Cl416 Cl 1.00139 0.49955 0.50046
 C417 C 0.94941 0.55002 0.44720
 C418 C 0.94823 0.44961 0.44804
 N419 N 0.54366 0.02559 0.52788
 N420 N 0.55987 0.04234 0.53191
 N421 N 0.52690 -0.02314 0.54544
 N422 N 0.53102 -0.03975 0.56171
 N423 N 0.54437 -0.02300 0.52827
 N424 N 0.56086 -0.03953 0.53237
 N425 N 0.52625 0.02542 0.54511
 N426 N 0.53013 0.04206 0.56135
 C427 C 0.55110 0.05258 0.55279
 C428 C 0.55222 -0.04992 0.55325
 N429 N 0.45576 -0.02401 0.52816
 N430 N 0.43967 -0.04090 0.53230
 N431 N 0.47246 0.02478 0.54500
 N432 N 0.46822 0.04143 0.56113
 N433 N 0.45516 0.02460 0.52781
 N434 N 0.43864 0.04116 0.53181
 N435 N 0.47306 -0.02372 0.54536
 N436 N 0.46920 -0.04035 0.56168
 Mn437 Mn 0.49966 0.00083 0.54549
 C438 C 0.44838 -0.05102 0.55323
 C439 C 0.44713 0.05160 0.55261
 N440 N 0.54471 -0.02321 0.47493
 N441 N 0.56180 -0.03918 0.47076
 N442 N 0.52678 0.02489 0.45719
 N443 N 0.53118 0.04108 0.44046
 N444 N 0.54396 0.02525 0.47450
 N445 N 0.56049 0.04166 0.47003
 N446 N 0.52743 -0.02370 0.45771
 N447 N 0.53230 -0.04010 0.44138
 Mn448 Mn 0.54444 0.00117 0.50140
 C449 C 0.55373 -0.04972 0.44989
 C450 C 0.55218 0.05153 0.44882
 N451 N 0.45545 0.02431 0.47431
 N452 N 0.43839 0.04017 0.46950
 N453 N 0.47346 -0.02421 0.45750
 N454 N 0.46889 -0.04008 0.44059
 N455 N 0.45602 -0.02435 0.47473
 N456 N 0.43921 -0.04047 0.47008
 N457 N 0.47284 0.02422 0.45703
 N458 N 0.46800 0.03990 0.43994
 Mn459 Mn 0.45531 0.00014 0.50126
 Mn460 Mn 0.50014 0.00029 0.45710
 Cl461 Cl 0.49987 0.00061 0.50130
 C462 C 0.44659 0.04990 0.44808
 C463 C 0.44761 -0.05028 0.44881
 N464 N 0.54412 0.52384 0.03214
 N465 N 0.56079 0.54012 0.03653
 N466 N 0.52663 0.47527 0.04928
 N467 N 0.53117 0.45916 0.06603
 N468 N 0.54405 0.47527 0.03205
 N469 N 0.56088 0.45914 0.03657
 N470 N 0.52668 0.52379 0.04935
 N471 N 0.53103 0.54002 0.06595
 C472 C 0.55229 0.55019 0.05760
 C473 C 0.55250 0.44910 0.05773
 N474 N 0.45544 0.47538 0.03191
 N475 N 0.43857 0.45923 0.03637
 N476 N 0.47275 0.52387 0.04927
 N477 N 0.46814 0.53997 0.06599
 N478 N 0.45550 0.52399 0.03202
 N479 N 0.43870 0.54018 0.03654
 N480 N 0.47268 0.47533 0.04917
 N481 N 0.46799 0.45916 0.06584
 Mn482 Mn 0.49968 0.49956 0.04952
 C483 C 0.44675 0.44911 0.05751
 C484 C 0.44693 0.55014 0.05772
 N485 N 0.54454 0.47550 -0.02138
 N486 N 0.56171 0.45972 -0.02613
 N487 N 0.52736 0.52417 -0.03850
 N488 N 0.53241 0.54007 -0.05539
 N489 N 0.54465 0.52395 -0.02129
 N490 N 0.56199 0.53957 -0.02609
 N491 N 0.52730 0.47551 -0.03863
 N492 N 0.53224 0.45965 -0.05553
 Mn493 Mn 0.54458 0.49964 0.00540
 C494 C 0.55368 0.44979 -0.04736
 C495 C 0.55398 0.54968 -0.04727
 N496 N 0.45589 0.52414 -0.02149
 N497 N 0.43894 0.54012 -0.02625
 N498 N 0.47336 0.47565 -0.03875
 N499 N 0.46882 0.45973 -0.05563
 N500 N 0.45584 0.47559 -0.02160
 N501 N 0.43891 0.45962 -0.02637
 N502 N 0.47342 0.52418 -0.03863
 N503 N 0.46886 0.54017 -0.05549
 Mn504 Mn 0.45540 0.49978 0.00521
 Mn505 Mn 0.50035 0.49988 -0.03888
 Cl506 Cl 0.49999 0.49971 0.00530
 C507 C 0.44740 0.55013 -0.04741
 C508 C 0.44738 0.44972 -0.04756
 C509 C 1.15864 0.15342 0.14935
 C510 C 1.15264 0.17705 0.15053
 C511 C 1.16629 0.19197 0.16569
 C512 C 1.18644 0.18365 0.17970
 C513 C 1.19263 0.16009 0.17836
 C514 C 1.17876 0.14510 0.16347
 C515 C 1.14387 0.13757 0.13360
 N516 N 1.14511 0.11431 0.13686
 N517 N 1.13150 0.10012 0.12291
 C518 C 1.11623 0.10860 0.10500
 N519 N 1.11511 0.13184 0.10168
 N520 N 1.12859 0.14602 0.11571
 C521 C 1.10069 0.09299 0.08970
 C522 C 1.08942 0.10123 0.06793
 C523 C 1.07386 0.08696 0.05398
 C524 C 1.06898 0.06419 0.06161
 C525 C 1.08056 0.05573 0.08311
 C526 C 1.09640 0.06996 0.09696
 H527 H 1.13721 0.18401 0.13994
 H528 H 1.16126 0.21009 0.16627
 H529 H 1.20795 0.15320 0.18916
 H530 H 1.18390 0.12701 0.16293
 H531 H 1.09248 0.11880 0.06171
 H532 H 1.06522 0.09395 0.03746
 H533 H 1.07715 0.03822 0.08938
 H534 H 1.10479 0.06309 0.11365
 C535 C 1.15316 0.66181 0.65275
 C536 C 1.14744 0.66496 0.67800
 C537 C 1.16261 0.67874 0.69295
 C538 C 1.18382 0.68979 0.68301
 C539 C 1.18937 0.68688 0.65769
 C540 C 1.17425 0.67302 0.64275
 C541 C 1.13750 0.64659 0.63708
 N542 N 1.14446 0.64143 0.61347
 N543 N 1.13074 0.62724 0.59965
 C544 C 1.10943 0.61764 0.60884
 N545 N 1.10239 0.62293 0.63240
 N546 N 1.11613 0.63708 0.64622
 C547 C 1.09459 0.60119 0.59383
 C548 C 1.07185 0.59233 0.60295
 C549 C 1.05844 0.57598 0.58939
 C550 C 1.06751 0.56805 0.56646
 C551 C 1.08995 0.57720 0.55704
 C552 C 1.10334 0.59364 0.57056
 H553 H 1.13141 0.65651 0.68635
 H554 H 1.15799 0.68036 0.71244
 H555 H 1.20532 0.69546 0.64935
 H556 H 1.17913 0.67111 0.62335
 H557 H 1.06448 0.59783 0.62073
 H558 H 1.04115 0.56926 0.59708
 H559 H 1.09734 0.57144 0.53937
 H560 H 1.12076 0.60011 0.56295
 C561 C 0.64686 0.16998 0.64844
 C562 C 0.66908 0.17959 0.63891
 C563 C 0.68421 0.19351 0.65378
 C564 C 0.67750 0.19812 0.67852
 C565 C 0.65509 0.18882 0.68790
 C566 C 0.63994 0.17495 0.67304
 C567 C 0.63139 0.15431 0.63311
 N568 N 0.60967 0.14541 0.64215
 N569 N 0.59625 0.13063 0.62879
 C570 C 0.60397 0.12407 0.60583
 N571 N 0.62559 0.13309 0.59671
 N572 N 0.63901 0.14790 0.61005
 C573 C 0.58963 0.10675 0.59148
 C574 C 0.59866 0.09862 0.56856
 C575 C 0.58588 0.08131 0.55576
 C576 C 0.56379 0.07181 0.56557
 C577 C 0.55438 0.08030 0.58813
 C578 C 0.56717 0.09757 0.60096
 H579 H 0.67492 0.17624 0.62000
 H580 H 0.70116 0.20070 0.64588
 H581 H 0.64955 0.19176 0.70698
 H582 H 0.62301 0.16780 0.68103
 H583 H 0.61585 0.10532 0.56067
 H584 H 0.59352 0.07513 0.53835
 H585 H 0.53734 0.07334 0.59608
 H586 H 0.55960 0.10348 0.61850
 C587 C 0.65174 0.66370 0.15503
 C588 C 0.64640 0.66688 0.18034
 C589 C 0.66161 0.68092 0.19495
 C590 C 0.68247 0.69221 0.18460
 C591 C 0.68771 0.68919 0.15924
 C592 C 0.67254 0.67506 0.14463
 C593 C 0.63594 0.64829 0.13974
 N594 N 0.64246 0.64315 0.11600
 N595 N 0.62860 0.62879 0.10252
 C596 C 0.60760 0.61901 0.11218
 N597 N 0.60100 0.62429 0.13585
 N598 N 0.61488 0.63860 0.14934
 C599 C 0.59268 0.60236 0.09754
 C600 C 0.57029 0.59318 0.10717
 C601 C 0.55688 0.57659 0.09394
 C602 C 0.56561 0.56876 0.07084
 C603 C 0.58766 0.57825 0.06092
 C604 C 0.60104 0.59491 0.07411
 H605 H 0.63063 0.65831 0.18901
 H606 H 0.65727 0.68260 0.21450
 H607 H 0.70341 0.69791 0.15060
 H608 H 0.67713 0.67309 0.12517
 H609 H 0.56323 0.59859 0.12510
 H610 H 0.53989 0.56961 0.10200
 H611 H 0.59478 0.57258 0.04311
 H612 H 0.61817 0.60163 0.06610
 C613 C 0.83998 -0.15484 0.15331
 C614 C 0.81927 -0.14662 0.16680
 C615 C 0.80540 -0.16154 0.18193
 C616 C 0.81220 -0.18489 0.18415
 C617 C 0.83299 -0.19309 0.17084
 C618 C 0.84664 -0.17826 0.15543
 C619 C 0.85462 -0.13914 0.13713
 N620 N 0.87007 -0.14778 0.11938
 N621 N 0.88342 -0.13373 0.10491
 C622 C 0.88197 -0.11045 0.10765
 N623 N 0.86653 -0.10178 0.12542
 N624 N 0.85305 -0.11585 0.13980
 C625 C 0.89737 -0.09498 0.09190
 C626 C 0.90184 -0.07196 0.09889
 C627 C 0.91763 -0.05788 0.08465
 C628 C 0.92896 -0.06649 0.06301
 C629 C 0.92389 -0.08925 0.05564
 C630 C 0.90839 -0.10339 0.07000
 H631 H 0.81364 -0.12869 0.16552
 H632 H 0.78954 -0.15479 0.19217
 H633 H 0.83848 -0.21107 0.17212
 H634 H 0.86254 -0.18512 0.14534
 H635 H 0.89364 -0.06499 0.11568
 H636 H 0.92120 -0.04036 0.09071
 H637 H 0.93234 -0.09635 0.03903
 H638 H 0.90517 -0.12098 0.06399
 C639 C 0.84577 0.33816 0.65240
 C640 C 0.82053 0.33461 0.64666
 C641 C 0.80534 0.32078 0.66171
 C642 C 0.81481 0.30974 0.68324
 C643 C 0.84053 0.31327 0.68851
 C644 C 0.85559 0.32725 0.67344
 C645 C 0.86161 0.35343 0.63673
 N646 N 0.88544 0.35858 0.64341
 N647 N 0.89942 0.37276 0.62964
 C648 C 0.89019 0.38236 0.60857
 N649 N 0.86642 0.37709 0.60182
 N650 N 0.85244 0.36295 0.61560
 C651 C 0.90543 0.39876 0.59365
 C652 C 0.89618 0.40786 0.57129
 C653 C 0.91003 0.42410 0.55780
 C654 C 0.93337 0.43167 0.56639
 C655 C 0.94288 0.42228 0.58845
 C656 C 0.92908 0.40598 0.60192
 H657 H 0.81236 0.34254 0.63039
 H658 H 0.78644 0.31815 0.65535
 H659 H 0.84923 0.30647 0.70501
 H660 H 0.87497 0.32972 0.67854
 H661 H 0.87810 0.40263 0.56429
 H662 H 0.90225 0.43101 0.54082
 H663 H 0.96087 0.42776 0.59549
 H664 H 0.93681 0.39932 0.61902
 C665 C 0.35392 -0.16921 0.65013
 C666 C 0.35900 -0.17184 0.67553
 C667 C 0.34383 -0.18579 0.69046
 C668 C 0.32330 -0.19757 0.68033
 C669 C 0.31850 -0.19530 0.65483
 C670 C 0.33360 -0.18124 0.63991
 C671 C 0.36928 -0.15345 0.63463
 N672 N 0.36250 -0.14830 0.61101
 N673 N 0.37576 -0.13338 0.59747
 C674 C 0.39639 -0.12301 0.60696
 N675 N 0.40329 -0.12832 0.63050
 N676 N 0.39001 -0.14320 0.64405
 C677 C 0.41051 -0.10558 0.59240
 C678 C 0.43257 -0.09585 0.60188
 C679 C 0.44514 -0.07846 0.58887
 C680 C 0.43588 -0.07037 0.56615
 C681 C 0.41418 -0.08040 0.55633
 C682 C 0.40163 -0.09787 0.56930
 H683 H 0.37442 -0.16275 0.68406
 H684 H 0.34784 -0.18687 0.71009
 H685 H 0.30307 -0.20443 0.64637
 H686 H 0.32926 -0.17972 0.62038
 H687 H 0.44002 -0.10144 0.61954
 H688 H 0.46189 -0.07109 0.59684
 H689 H 0.40668 -0.07453 0.53879
 H690 H 0.38472 -0.10500 0.56143
 C691 C 0.34697 0.33473 0.15524
 C692 C 0.35310 0.33017 0.18011
 C693 C 0.33794 0.31584 0.19469
 C694 C 0.31632 0.30568 0.18476
 C695 C 0.31034 0.31003 0.15982
 C696 C 0.32546 0.32440 0.14525
 C697 C 0.36268 0.35046 0.13998
 N698 N 0.35575 0.35639 0.11661
 N699 N 0.36953 0.37097 0.10314
 C700 C 0.39087 0.38021 0.11244
 N701 N 0.39787 0.37417 0.13575
 N702 N 0.38407 0.35963 0.14923
 C703 C 0.40582 0.39702 0.09776
 C704 C 0.42834 0.40594 0.10715
 C705 C 0.44187 0.42253 0.09383
 C706 C 0.43316 0.43062 0.07088
 C707 C 0.41094 0.42144 0.06123
 C708 C 0.39743 0.40479 0.07451
 H709 H 0.36946 0.33788 0.18846
 H710 H 0.34291 0.31310 0.21391
 H711 H 0.29404 0.30218 0.15148
 H712 H 0.32023 0.32742 0.12614
 H713 H 0.43543 0.40030 0.12493
 H714 H 0.45898 0.42926 0.10170
 H715 H 0.40381 0.42732 0.04355
 H716 H 0.38020 0.39829 0.06668
 C717 C 0.83213 0.15041 -0.15670
 C718 C 0.82743 0.14563 -0.18180
 C719 C 0.81400 0.16123 -0.19641
 C720 C 0.80493 0.18199 -0.18628
 C721 C 0.80951 0.18672 -0.16115
 C722 C 0.82294 0.17112 -0.14653
 C723 C 0.84685 0.13410 -0.14131
 N724 N 0.85222 0.13912 -0.11732
 N725 N 0.86597 0.12479 -0.10367
 C726 C 0.87493 0.10478 -0.11339
 N727 N 0.86944 0.09967 -0.13733
 N728 N 0.85569 0.11402 -0.15100
 C729 C 0.89112 0.08932 -0.09844
 C730 C 0.90051 0.06860 -0.10845
 C731 C 0.91697 0.05479 -0.09482
 C732 C 0.92443 0.06145 -0.07094
 C733 C 0.91455 0.08179 -0.06067
 C734 C 0.89807 0.09555 -0.07424
 H735 H 0.83429 0.12990 -0.19029
 H736 H 0.81107 0.15721 -0.21579
 H737 H 0.80247 0.20239 -0.15269
 H738 H 0.82612 0.17535 -0.12725
 H739 H 0.89548 0.06321 -0.12699
 H740 H 0.92428 0.03917 -0.10318
 H741 H 0.91990 0.08731 -0.04226
 H742 H 0.89115 0.11132 -0.06588
 C743 C 0.84897 0.66045 0.34613
 C744 C 0.85744 0.66799 0.32274
 C745 C 0.84237 0.68205 0.30790
 C746 C 0.81851 0.68890 0.31610
 C747 C 0.81007 0.68140 0.33948
 C748 C 0.82511 0.66736 0.35431
 C749 C 0.86477 0.64530 0.36180
 N750 N 0.85662 0.63817 0.38445
 N751 N 0.87056 0.62423 0.39837
 C752 C 0.89327 0.61681 0.39026
 N753 N 0.90148 0.62403 0.36766
 N754 N 0.88754 0.63798 0.35373
 C755 C 0.90838 0.60067 0.40545
 C756 C 0.93149 0.59231 0.39668
 C757 C 0.94509 0.57620 0.41049
 C758 C 0.93589 0.56812 0.43334
 C759 C 0.91312 0.57685 0.44240
 C760 C 0.89951 0.59294 0.42862
 H761 H 0.87573 0.66306 0.31586
 H762 H 0.84954 0.68779 0.29012
 H763 H 0.79164 0.68611 0.34618
 H764 H 0.81793 0.66182 0.37216
 H765 H 0.93893 0.59793 0.37897
 H766 H 0.96263 0.56981 0.40308
 H767 H 0.90560 0.57097 0.46000
 H768 H 0.88185 0.59906 0.43600
 C769 C 0.34216 0.15707 0.34754
 C770 C 0.33410 0.17874 0.35589
 C771 C 0.31875 0.19260 0.34109
 C772 C 0.31040 0.18500 0.31752
 C773 C 0.31857 0.16288 0.30962
 C774 C 0.33431 0.14935 0.32425
 C775 C 0.35873 0.14248 0.36291
 N776 N 0.37315 0.12591 0.35222
 N777 N 0.38783 0.11248 0.36595
 C778 C 0.38857 0.11493 0.39097
 N779 N 0.37414 0.13150 0.40170
 N780 N 0.35960 0.14508 0.38793
 C781 C 0.40430 0.09940 0.40614
 C782 C 0.39884 0.09561 0.43135
 C783 C 0.41278 0.07971 0.44514
 C784 C 0.43269 0.06763 0.43407
 C785 C 0.43866 0.07198 0.40912
 C786 C 0.42448 0.08755 0.39524
 H787 H 0.33977 0.18509 0.37389
 H788 H 0.31259 0.20875 0.34908
 H789 H 0.31421 0.15614 0.29147
 H790 H 0.34032 0.13271 0.31724
 H791 H 0.38337 0.10445 0.44023
 H792 H 0.40786 0.07671 0.46438
 H793 H 0.45391 0.06291 0.40012
 H794 H 0.42926 0.09023 0.37591
 C795 C 0.34724 0.65962 -0.14987
 C796 C 0.32390 0.66782 -0.14158
 C797 C 0.30898 0.68145 -0.15701
 C798 C 0.31702 0.68712 -0.18111
 C799 C 0.34040 0.67904 -0.18935
 C800 C 0.35535 0.66547 -0.17392
 C801 C 0.36290 0.64478 -0.13372
 N802 N 0.38560 0.63714 -0.14163
 N803 N 0.39944 0.62339 -0.12741
 C804 C 0.39121 0.61666 -0.10465
 N805 N 0.36856 0.62439 -0.09668
 N806 N 0.35472 0.63817 -0.11090
 C807 C 0.40625 0.60064 -0.08924
 C808 C 0.39715 0.59269 -0.06624
 C809 C 0.41077 0.57664 -0.05238
 C810 C 0.43377 0.56821 -0.06120
 C811 C 0.44319 0.57655 -0.08385
 C812 C 0.42958 0.59258 -0.09773
 H813 H 0.31704 0.66363 -0.12319
 H814 H 0.29095 0.68724 -0.15023
 H815 H 0.34729 0.68341 -0.20769
 H816 H 0.37323 0.65953 -0.18091
 H817 H 0.37930 0.59857 -0.05909
 H818 H 0.40309 0.57054 -0.03493
 H819 H 0.46091 0.57041 -0.09108
 H820 H 0.43723 0.59839 -0.11529
 C821 C 1.16707 -0.14987 -0.15766
 C822 C 1.17150 -0.14550 -0.18296
 C823 C 1.18500 -0.16124 -0.19741
 C824 C 1.19438 -0.18170 -0.18690
 C825 C 1.19015 -0.18597 -0.16157
 C826 C 1.17667 -0.17025 -0.14712
 C827 C 1.15212 -0.13356 -0.14243
 N828 N 1.14716 -0.13824 -0.11822
 N829 N 1.13310 -0.12402 -0.10468
 C830 C 1.12340 -0.10447 -0.11474
 N831 N 1.12850 -0.09967 -0.13891
 N832 N 1.14257 -0.11392 -0.15246
 C833 C 1.10676 -0.08929 -0.09988
 C834 C 1.09664 -0.06897 -0.11010
 C835 C 1.07971 -0.05552 -0.09648
 C836 C 1.07252 -0.06219 -0.07244
 C837 C 1.08315 -0.08211 -0.06198
 C838 C 1.10010 -0.09547 -0.07551
 H839 H 1.16433 -0.13002 -0.19171
 H840 H 1.18772 -0.15758 -0.21694
 H841 H 1.19747 -0.20140 -0.15284
 H842 H 1.17372 -0.17415 -0.12768
 H843 H 1.10145 -0.06364 -0.12878
 H844 H 1.07182 -0.04022 -0.10498
 H845 H 1.07804 -0.08761 -0.04343
 H846 H 1.10757 -0.11093 -0.06698
 C847 C 1.15334 0.33515 0.34924
 C848 C 1.17944 0.33793 0.34783
 C849 C 1.19384 0.32385 0.33232
 C850 C 1.18252 0.30648 0.31810
 C851 C 1.15650 0.30340 0.31977
 C852 C 1.14203 0.31770 0.33505
 C853 C 1.13807 0.35062 0.36512
 N854 N 1.11287 0.35198 0.36229
 N855 N 1.09929 0.36641 0.37611
 C856 C 1.11032 0.37998 0.39345
 N857 N 1.13548 0.37847 0.39640
 N858 N 1.14907 0.36415 0.38250
 C859 C 1.09541 0.39658 0.40834
 C860 C 1.10588 0.40729 0.42925
 C861 C 1.09230 0.42372 0.44268
 C862 C 1.06807 0.43000 0.43534
 C863 C 1.05740 0.41906 0.41470
 C864 C 1.07088 0.40242 0.40141
 H865 H 1.18875 0.35122 0.35847
 H866 H 1.21389 0.32643 0.33156
 H867 H 1.14731 0.29022 0.30888
 H868 H 1.12199 0.31505 0.33577
 H869 H 1.12466 0.40309 0.43519
 H870 H 1.10099 0.43185 0.45853
 H871 H 1.03871 0.42352 0.40868
 H872 H 1.06227 0.39452 0.38539
 C873 C 0.65639 -0.16138 0.35278
 C874 C 0.68234 -0.15762 0.35123
 C875 C 0.69727 -0.17137 0.33590
 C876 C 0.68663 -0.18934 0.32206
 C877 C 0.66078 -0.19337 0.32387
 C878 C 0.64577 -0.17943 0.33896
 C879 C 0.64051 -0.14627 0.36839
 N880 N 0.61531 -0.14565 0.36531
 N881 N 0.60114 -0.13151 0.37887
 C882 C 0.61159 -0.11753 0.39618
 N883 N 0.63675 -0.11831 0.39939
 N884 N 0.65092 -0.13234 0.38574
 C885 C 0.59608 -0.10122 0.41073
 C886 C 0.60599 -0.09031 0.43177
 C887 C 0.59193 -0.07401 0.44483
 C888 C 0.56776 -0.06810 0.43698
 C889 C 0.55760 -0.07928 0.41625
 C890 C 0.57159 -0.09579 0.40332
 H891 H 0.69109 -0.14383 0.36160
 H892 H 0.71719 -0.16805 0.33496
 H893 H 0.65213 -0.20704 0.31323
 H894 H 0.62587 -0.18280 0.33980
 H895 H 0.62472 -0.09422 0.43808
 H896 H 0.60021 -0.06570 0.46078
 H897 H 0.53897 -0.07507 0.40987
 H898 H 0.56343 -0.10388 0.38717
 C899 C 0.65547 0.34007 -0.14851
 C900 C 0.68154 0.34314 -0.14975
 C901 C 0.69620 0.32931 -0.16530
 C902 C 0.68515 0.31192 -0.17970
 C903 C 0.65916 0.30862 -0.17823
 C904 C 0.64445 0.32264 -0.16292
 C905 C 0.63988 0.35518 -0.13254
 N906 N 0.61467 0.35613 -0.13545
 N907 N 0.60073 0.37011 -0.12146
 C908 C 0.61141 0.38363 -0.10387
 N909 N 0.63659 0.38256 -0.10086
 N910 N 0.65054 0.36867 -0.11493
 C911 C 0.59607 0.39966 -0.08871
 C912 C 0.60618 0.41014 -0.06750
 C913 C 0.59215 0.42599 -0.05375
 C914 C 0.56780 0.43191 -0.06105
 C915 C 0.55749 0.42121 -0.08200
 C916 C 0.57143 0.40514 -0.09562
 H917 H 0.69063 0.35644 -0.13894
 H918 H 0.71623 0.33208 -0.16594
 H919 H 0.65015 0.29545 -0.18930
 H920 H 0.62444 0.31978 -0.16235
 H921 H 0.62503 0.40619 -0.06157
 H922 H 0.60057 0.43395 -0.03766
 H923 H 0.53872 0.42542 -0.08800
 H924 H 0.56309 0.39740 -0.11187
 C925 C 1.16585 0.15111 -0.15523
 C926 C 1.17122 0.17339 -0.14654
 C927 C 1.18495 0.18891 -0.16103
 C928 C 1.19393 0.18266 -0.18479
 C929 C 1.18866 0.16006 -0.19322
 C930 C 1.17481 0.14461 -0.17870
 C931 C 1.15061 0.13495 -0.14006
 N932 N 1.14395 0.11389 -0.14898
 N933 N 1.12966 0.09969 -0.13557
 C934 C 1.12146 0.10592 -0.11265
 N935 N 1.12827 0.12690 -0.10369
 N936 N 1.14253 0.14110 -0.11709
 C937 C 1.10471 0.09060 -0.09805
 C938 C 1.09627 0.09738 -0.07442
 C939 C 1.07936 0.08369 -0.06118
 C940 C 1.07048 0.06291 -0.07122
 C941 C 1.07936 0.05575 -0.09452
 C942 C 1.09631 0.06947 -0.10782
 H943 H 1.16480 0.17894 -0.12842
 H944 H 1.18915 0.20553 -0.15294
 H945 H 1.19414 0.15434 -0.21153
 H946 H 1.17089 0.12761 -0.18607
 H947 H 1.10241 0.11347 -0.06625
 H948 H 1.07291 0.08960 -0.04320
 H949 H 1.07286 0.03977 -0.10268
 H950 H 1.10249 0.06368 -0.12593
 C951 C 1.15485 0.66324 0.34961
 C952 C 1.18096 0.66049 0.34832
 C953 C 1.19542 0.67474 0.33300
 C954 C 1.18416 0.69224 0.31885
 C955 C 1.15814 0.69528 0.32041
 C956 C 1.14360 0.68082 0.33550
 C957 C 1.13951 0.64759 0.36529
 N958 N 1.11433 0.64626 0.36232
 N959 N 1.10068 0.63170 0.37598
 C960 C 1.11164 0.61796 0.39326
 N961 N 1.13679 0.61944 0.39634
 N962 N 1.15043 0.63389 0.38261
 C963 C 1.09666 0.60127 0.40801
 C964 C 1.10702 0.59040 0.42892
 C965 C 1.09333 0.57395 0.44227
 C966 C 1.06909 0.56782 0.43486
 C967 C 1.05854 0.57888 0.41420
 C968 C 1.07213 0.59553 0.40098
 H969 H 1.19024 0.64711 0.35890
 H970 H 1.21549 0.67218 0.33233
 H971 H 1.14898 0.70855 0.30956
 H972 H 1.12355 0.68344 0.33612
 H973 H 1.12580 0.59451 0.43493
 H974 H 1.10194 0.56572 0.45814
 H975 H 1.03985 0.57452 0.40812
 H976 H 1.06360 0.60355 0.38496
 C977 C 0.65325 0.16338 0.34973
 C978 C 0.67679 0.17067 0.35820
 C979 C 0.69236 0.18408 0.34308
 C980 C 0.68476 0.19049 0.31912
 C981 C 0.66112 0.18343 0.31075
 C982 C 0.64554 0.17004 0.32587
 C983 C 0.63709 0.14848 0.36542
 N984 N 0.61465 0.14086 0.35700
 N985 N 0.60050 0.12686 0.37077
 C986 C 0.60816 0.11989 0.39357
 N987 N 0.63051 0.12765 0.40207
 N988 N 0.64466 0.14165 0.38830
 C989 C 0.59296 0.10348 0.40844
 C990 C 0.60141 0.09571 0.43166
 C991 C 0.58785 0.07920 0.44501
 C992 C 0.56555 0.07010 0.43545
 C993 C 0.55671 0.07826 0.41259
 C994 C 0.57027 0.09478 0.39921
 H995 H 0.68336 0.16583 0.37645
 H996 H 0.71058 0.18906 0.34995
 H997 H 0.65457 0.18840 0.29253
 H998 H 0.62750 0.16482 0.31877
 H999 H 0.61874 0.10208 0.43938
 H1000 H 0.59506 0.07327 0.46265
 H1001 H 0.53953 0.07158 0.40482
 H1002 H 0.56315 0.10043 0.38144
 C1003 C 0.65590 0.65866 -0.14939
 C1004 C 0.68065 0.65263 -0.15518
 C1005 C 0.69512 0.66652 -0.17088
 C1006 C 0.68541 0.68719 -0.18096
 C1007 C 0.66057 0.69327 -0.17465
 C1008 C 0.64601 0.67911 -0.15932
 C1009 C 0.64043 0.64358 -0.13327
 N1010 N 0.61507 0.64501 -0.13353
 N1011 N 0.60117 0.63107 -0.11940
 C1012 C 0.61208 0.61525 -0.10428
 N1013 N 0.63744 0.61394 -0.10389
 N1014 N 0.65132 0.62776 -0.11815
 C1015 C 0.59673 0.59938 -0.08894
 C1016 C 0.60739 0.58771 -0.06871
 C1017 C 0.59325 0.57203 -0.05478
 C1018 C 0.56828 0.56742 -0.06103
 C1019 C 0.55747 0.57927 -0.08103
 C1020 C 0.57151 0.59525 -0.09475
 H1021 H 0.68885 0.63699 -0.14774
 H1022 H 0.71426 0.66128 -0.17421
 H1023 H 0.65173 0.70845 -0.18237
 H1024 H 0.62694 0.68421 -0.15522
 H1025 H 0.62671 0.59063 -0.06366
 H1026 H 0.60206 0.56312 -0.03945
 H1027 H 0.53823 0.57608 -0.08618
 H1028 H 0.56278 0.60394 -0.11026
 C1029 C 0.83183 -0.15212 -0.15615
 C1030 C 0.82281 -0.17301 -0.14620
 C1031 C 0.80910 -0.18831 -0.16085
 C1032 C 0.80408 -0.18311 -0.18581
 C1033 C 0.81294 -0.16216 -0.19571
 C1034 C 0.82663 -0.14684 -0.18106
 C1035 C 0.84695 -0.13616 -0.14078
 N1036 N 0.85537 -0.11579 -0.15019
 N1037 N 0.86948 -0.10174 -0.13660
 C1038 C 0.87578 -0.10745 -0.11299
 N1039 N 0.86724 -0.12775 -0.10354
 N1040 N 0.85312 -0.14179 -0.11712
 C1041 C 0.89233 -0.09228 -0.09816
 C1042 C 0.90025 -0.09912 -0.07442
 C1043 C 0.91696 -0.08549 -0.06100
 C1044 C 0.92608 -0.06470 -0.07096
 C1045 C 0.91770 -0.05749 -0.09437
 C1046 C 0.90102 -0.07115 -0.10785
 H1047 H 0.82637 -0.17761 -0.12707
 H1048 H 0.80222 -0.20414 -0.15256
 H1049 H 0.80968 -0.15777 -0.21495
 H1050 H 0.83335 -0.13097 -0.18938
 H1051 H 0.89390 -0.11523 -0.06633
 H1052 H 0.92304 -0.09145 -0.04295
 H1053 H 0.92440 -0.04151 -0.10248
 H1054 H 0.89524 -0.06529 -0.12602
 C1055 C 0.84819 0.33903 0.34740
 C1056 C 0.85906 0.32020 0.33491
 C1057 C 0.84451 0.30595 0.31981
 C1058 C 0.81891 0.31045 0.31661
 C1059 C 0.80806 0.32929 0.32902
 C1060 C 0.82250 0.34333 0.34438
 C1061 C 0.86352 0.35424 0.36334
 N1062 N 0.85245 0.36876 0.37982
 N1063 N 0.86614 0.38273 0.39389
 C1064 C 0.89148 0.38287 0.39200
 N1065 N 0.90257 0.36833 0.37553
 N1066 N 0.88888 0.35424 0.36155
 C1067 C 0.90655 0.39900 0.40711
 C1068 C 0.93153 0.40390 0.40075
 C1069 C 0.94523 0.42013 0.41426
 C1070 C 0.93432 0.43156 0.43455
 C1071 C 0.90961 0.42620 0.44135
 C1072 C 0.89582 0.41021 0.42769
 H1073 H 0.87878 0.31639 0.33690
 H1074 H 0.85333 0.29160 0.31032
 H1075 H 0.78831 0.33299 0.32704
 H1076 H 0.81357 0.35772 0.35368
 H1077 H 0.94033 0.39559 0.38499
 H1078 H 0.96429 0.42390 0.40867
 H1079 H 0.90073 0.43474 0.45693
 H1080 H 0.87668 0.40671 0.43318
 C1081 C 0.34400 -0.15807 0.34862
 C1082 C 0.33606 -0.15028 0.32536
 C1083 C 0.32032 -0.16379 0.31075
 C1084 C 0.31225 -0.18597 0.31865
 C1085 C 0.32071 -0.19365 0.34217
 C1086 C 0.33605 -0.17980 0.35696
 C1087 C 0.36053 -0.14347 0.36397
 N1088 N 0.36138 -0.14608 0.38900
 N1089 N 0.37586 -0.13247 0.40275
 C1090 C 0.39024 -0.11585 0.39199
 N1091 N 0.38953 -0.11340 0.36696
 N1092 N 0.37492 -0.12687 0.35325
 C1093 C 0.40588 -0.10025 0.40713
 C1094 C 0.42602 -0.08834 0.39622
 C1095 C 0.44004 -0.07264 0.41003
 C1096 C 0.43395 -0.06822 0.43493
 C1097 C 0.41409 -0.08038 0.44601
 C1098 C 0.40031 -0.09641 0.43229
 H1099 H 0.34198 -0.13360 0.31837
 H1100 H 0.31589 -0.15698 0.29263
 H1101 H 0.31464 -0.20985 0.35015
 H1102 H 0.34180 -0.18621 0.37493
 H1103 H 0.43088 -0.09105 0.37692
 H1104 H 0.45526 -0.06351 0.40101
 H1105 H 0.40907 -0.07733 0.46521
 H1106 H 0.38485 -0.10529 0.44118
 C1107 C 0.34758 0.33994 -0.14960
 C1108 C 0.35538 0.33449 -0.17384
 C1109 C 0.34045 0.32084 -0.18916
 C1110 C 0.31739 0.31225 -0.18059
 C1111 C 0.30966 0.31752 -0.15631
 C1112 C 0.32455 0.33124 -0.14100
 C1113 C 0.36320 0.35486 -0.13357
 N1114 N 0.35519 0.36117 -0.11061
 N1115 N 0.36899 0.37501 -0.09647
 C1116 C 0.39141 0.38310 -0.10465
 N1117 N 0.39947 0.37668 -0.12755
 N1118 N 0.38567 0.36286 -0.14170
 C1119 C 0.40640 0.39917 -0.08931
 C1120 C 0.42960 0.40744 -0.09791
 C1121 C 0.44315 0.42349 -0.08407
 C1122 C 0.43380 0.43164 -0.06135
 C1123 C 0.41092 0.42302 -0.05242
 C1124 C 0.39736 0.40694 -0.06624
 H1125 H 0.37301 0.34084 -0.18108
 H1126 H 0.34709 0.31679 -0.20765
 H1127 H 0.29187 0.31135 -0.14927
 H1128 H 0.31793 0.33511 -0.12246
 H1129 H 0.43720 0.40178 -0.11553
 H1130 H 0.46078 0.42979 -0.09139
 H1131 H 0.40329 0.42896 -0.03491
 H1132 H 0.37960 0.40089 -0.05900
 C1133 C 1.16039 -0.15401 0.15029
 C1134 C 1.18033 -0.14562 0.16459
 C1135 C 1.19417 -0.16060 0.17959
 C1136 C 1.18813 -0.18419 0.18087
 C1137 C 1.16814 -0.19257 0.16670
 C1138 C 1.15453 -0.17768 0.15143
 C1139 C 1.14570 -0.13820 0.13437
 N1140 N 1.13084 -0.14669 0.11618
 N1141 N 1.11743 -0.13255 0.10198
 C1142 C 1.11819 -0.10932 0.10543
 N1143 N 1.13304 -0.10080 0.12364
 N1144 N 1.14658 -0.11495 0.13776
 C1145 C 1.10272 -0.09377 0.08994
 C1146 C 1.09777 -0.07092 0.09734
 C1147 C 1.08191 -0.05681 0.08332
 C1148 C 1.07097 -0.06521 0.06149
 C1149 C 1.07654 -0.08778 0.05371
 C1150 C 1.09211 -0.10194 0.06783
 H1151 H 1.18536 -0.12751 0.16409
 H1152 H 1.20937 -0.15367 0.19051
 H1153 H 1.16322 -0.21072 0.16724
 H1154 H 1.13924 -0.18468 0.14070
 H1155 H 1.10565 -0.06412 0.11429
 H1156 H 1.07796 -0.03946 0.08971
 H1157 H 1.06840 -0.09473 0.03694
 H1158 H 1.09568 -0.11938 0.06149
 C1159 C 1.15192 0.33709 0.65432
 C1160 C 1.14658 0.33444 0.67972
 C1161 C 1.16190 0.32083 0.69476
 C1162 C 1.18287 0.30947 0.68475
 C1163 C 1.18803 0.31189 0.65929
 C1164 C 1.17277 0.32556 0.64426
 C1165 C 1.13615 0.35216 0.63854
 N1166 N 1.14280 0.35682 0.61470
 N1167 N 1.12903 0.37090 0.60076
 C1168 C 1.10798 0.38088 0.61004
 N1169 N 1.10124 0.37608 0.63382
 N1170 N 1.11504 0.36204 0.64777
 C1171 C 1.09316 0.39726 0.59486
 C1172 C 1.07065 0.40654 0.60406
 C1173 C 1.05735 0.42289 0.59033
 C1174 C 1.06631 0.43039 0.56716
 C1175 C 1.08848 0.42078 0.55768
 C1176 C 1.10175 0.40435 0.57136
 H1177 H 1.13075 0.34314 0.68812
 H1178 H 1.15759 0.31957 0.71436
 H1179 H 1.20378 0.30305 0.65090
 H1180 H 1.17735 0.32710 0.62475
 H1181 H 1.06342 0.40139 0.62202
 H1182 H 1.04027 0.42996 0.59807
 H1183 H 1.09578 0.42620 0.53983
 H1184 H 1.11898 0.39755 0.56368
 C1185 C 0.64753 -0.16867 0.64805
 C1186 C 0.64015 -0.17435 0.67236
 C1187 C 0.65508 -0.18856 0.68712
 C1188 C 0.67773 -0.19750 0.67791
 C1189 C 0.68489 -0.19219 0.65344
 C1190 C 0.66997 -0.17793 0.63868
 C1191 C 0.63227 -0.15264 0.63287
 N1192 N 0.64024 -0.14565 0.61010
 N1193 N 0.62698 -0.13056 0.59690
 C1194 C 0.60517 -0.12182 0.60589
 N1195 N 0.59711 -0.12895 0.62856
 N1196 N 0.61037 -0.14402 0.64177
 C1197 C 0.59093 -0.10427 0.59170
 C1198 C 0.56831 -0.09537 0.60107
 C1199 C 0.55552 -0.07800 0.58835
 C1200 C 0.56508 -0.06912 0.56599
 C1201 C 0.58738 -0.07829 0.55631
 C1202 C 0.60017 -0.09570 0.56901
 H1203 H 0.62302 -0.16749 0.68022
 H1204 H 0.64919 -0.19205 0.70599
 H1205 H 0.70205 -0.19908 0.64568
 H1206 H 0.67617 -0.17403 0.62000
 H1207 H 0.56059 -0.10161 0.61843
 H1208 H 0.53832 -0.07129 0.59620
 H1209 H 0.59513 -0.07181 0.53906
 H1210 H 0.61750 -0.10217 0.56121
 C1211 C 0.65421 0.33766 0.15610
 C1212 C 0.67409 0.32527 0.14531
 C1213 C 0.68941 0.31118 0.15986
 C1214 C 0.68527 0.30922 0.18555
 C1215 C 0.66539 0.32163 0.19631
 C1216 C 0.65002 0.33562 0.18176
 C1217 C 0.63813 0.35286 0.14079
 N1218 N 0.61753 0.36308 0.15073
 N1219 N 0.60334 0.37711 0.13716
 C1220 C 0.60915 0.38156 0.11308
 N1221 N 0.62969 0.37126 0.10310
 N1222 N 0.64385 0.35718 0.11666
 C1223 C 0.59386 0.39786 0.09828
 C1224 C 0.60174 0.40486 0.07451
 C1225 C 0.58803 0.42120 0.06114
 C1226 C 0.56611 0.43079 0.07120
 C1227 C 0.55784 0.42339 0.09464
 C1228 C 0.57160 0.40714 0.10808
 H1229 H 0.67778 0.32636 0.12559
 H1230 H 0.70432 0.30160 0.15093
 H1231 H 0.66193 0.32082 0.21609
 H1232 H 0.63500 0.34503 0.19073
 H1233 H 0.61876 0.39806 0.06638
 H1234 H 0.59480 0.42655 0.04306
 H1235 H 0.54097 0.43047 0.10283
 H1236 H 0.56491 0.40206 0.12626
 C1237 C 0.83705 0.14969 0.15281
 C1238 C 0.82112 0.16625 0.14214
 C1239 C 0.80831 0.18211 0.15705
 C1240 C 0.81131 0.18188 0.18291
 C1241 C 0.82721 0.16535 0.19359
 C1242 C 0.83986 0.14937 0.17873
 C1243 C 0.85098 0.13311 0.13702
 N1244 N 0.86378 0.11525 0.14729
 N1245 N 0.87686 0.10071 0.13316
 C1246 C 0.87775 0.10344 0.10815
 N1247 N 0.86483 0.12123 0.09786
 N1248 N 0.85169 0.13572 0.11199
 C1249 C 0.89333 0.08798 0.09255
 C1250 C 0.89815 0.09351 0.06758
 C1251 C 0.91431 0.07989 0.05336
 C1252 C 0.92583 0.06035 0.06371
 C1253 C 0.92036 0.05432 0.08837
 C1254 C 0.90436 0.06805 0.10269
 H1255 H 0.81852 0.16699 0.12226
 H1256 H 0.79632 0.19479 0.14831
 H1257 H 0.82964 0.16460 0.21350
 H1258 H 0.85199 0.13688 0.18757
 H1259 H 0.88996 0.10870 0.05916
 H1260 H 0.91811 0.08489 0.03435
 H1261 H 0.92898 0.03932 0.09682
 H1262 H 0.90092 0.06321 0.12181
 C1263 C 0.84770 0.66247 0.65215
 C1264 C 0.85495 0.66827 0.67640
 C1265 C 0.83959 0.68203 0.69136
 C1266 C 0.81661 0.69033 0.68244
 C1267 C 0.80950 0.68476 0.65811
 C1268 C 0.82484 0.67100 0.64315
 C1269 C 0.86362 0.64726 0.63654
 N1270 N 0.85611 0.64079 0.61354
 N1271 N 0.87007 0.62663 0.59978
 C1272 C 0.89216 0.61835 0.60841
 N1273 N 0.89974 0.62493 0.63135
 N1274 N 0.88578 0.63908 0.64511
 C1275 C 0.90727 0.60191 0.59346
 C1276 C 0.93008 0.59329 0.60251
 C1277 C 0.94370 0.57694 0.58898
 C1278 C 0.93481 0.56883 0.56614
 C1279 C 0.91233 0.57777 0.55679
 C1280 C 0.89870 0.59414 0.57029
 H1281 H 0.87239 0.66197 0.68398
 H1282 H 0.84548 0.68578 0.71011
 H1283 H 0.79210 0.69117 0.65054
 H1284 H 0.81870 0.66698 0.62455
 H1285 H 0.93730 0.59893 0.62022
 H1286 H 0.96101 0.57039 0.59662
 H1287 H 0.90505 0.57186 0.53919
 H1288 H 0.88126 0.60043 0.56271
 C1289 C 0.35161 0.16836 0.65016
 C1290 C 0.35725 0.17117 0.67541
 C1291 C 0.34229 0.18507 0.69055
 C1292 C 0.32140 0.19662 0.68080
 C1293 C 0.31599 0.19413 0.65545
 C1294 C 0.33089 0.18011 0.64031
 C1295 C 0.36689 0.15276 0.63446
 N1296 N 0.35959 0.14722 0.61110
 N1297 N 0.37288 0.13248 0.59741
 C1298 C 0.39407 0.12270 0.60646
 N1299 N 0.40146 0.12841 0.62972
 N1300 N 0.38816 0.14309 0.64342
 C1301 C 0.40834 0.10551 0.59177
 C1302 C 0.43095 0.09652 0.60085
 C1303 C 0.44376 0.07935 0.58782
 C1304 C 0.43424 0.07074 0.56545
 C1305 C 0.41197 0.08005 0.55600
 C1306 C 0.39916 0.09730 0.56902
 H1307 H 0.37299 0.16229 0.68366
 H1308 H 0.34677 0.18629 0.71007
 H1309 H 0.30027 0.20307 0.64727
 H1310 H 0.32611 0.17844 0.62091
 H1311 H 0.43865 0.10251 0.61822
 H1312 H 0.46094 0.07256 0.59549
 H1313 H 0.40426 0.07376 0.53875
 H1314 H 0.38182 0.10387 0.56147
 C1315 C 0.34814 0.66469 0.15590
 C1316 C 0.32666 0.67517 0.14600
 C1317 C 0.31166 0.68955 0.16064
 C1318 C 0.31774 0.69377 0.18557
 C1319 C 0.33935 0.68345 0.19541
 C1320 C 0.35437 0.66911 0.18076
 C1321 C 0.36369 0.64892 0.14057
 N1322 N 0.38506 0.63960 0.14974
 N1323 N 0.39872 0.62502 0.13620
 C1324 C 0.39159 0.61910 0.11291
 N1325 N 0.37028 0.62850 0.10370
 N1326 N 0.35663 0.64310 0.11722
 C1327 C 0.40639 0.60226 0.09817
 C1328 C 0.39787 0.59461 0.07494
 C1329 C 0.41125 0.57795 0.06160
 C1330 C 0.43346 0.56863 0.07116
 C1331 C 0.44229 0.57660 0.09409
 C1332 C 0.42889 0.59320 0.10747
 H1333 H 0.32135 0.67226 0.12690
 H1334 H 0.29538 0.69752 0.15237
 H1335 H 0.34439 0.68608 0.21462
 H1336 H 0.37072 0.66128 0.18904
 H1337 H 0.38065 0.60123 0.06718
 H1338 H 0.40404 0.57217 0.04393
 H1339 H 0.45939 0.56975 0.10189
 H1340 H 0.43608 0.59874 0.12523
   
