data_POSCAR
  _audit_creation_date              2014-09-24
  _audit_creation_method            'ToBaCCo'
  _symmetry_space_group_name_H-M    'P1'
  _symmetry_Int_Tables_number       1
  _symmetry_cell_setting            triclinic
  loop_
  _symmetry_equiv_pos_as_xyz
 x,y,z
_cell_length_a 69.1028
_cell_length_b 67.9928
_cell_length_c 70.6623
_cell_angle_alpha 89.637600
_cell_angle_beta 90.432900
_cell_angle_gamma 89.539300
loop_
  _atom_site_label
  _atom_site_type_symbol
  _atom_site_fract_x
  _atom_site_fract_y
  _atom_site_fract_z
C1 C 0.34431 0.33755 0.32999
 N2 N 0.33248 0.35278 0.32487
 C3 C 0.31746 0.35813 0.33616
 N4 N 0.31443 0.34822 0.35257
 C5 C 0.32617 0.33301 0.35780
 N6 N 0.34103 0.32772 0.34646
 C7 C 0.36139 0.82104 -0.16314
 N8 N 0.35423 0.83707 -0.17242
 C9 C 0.33831 0.84668 -0.16602
 N10 N 0.32939 0.84014 -0.15008
 C11 C 0.33652 0.82412 -0.14061
 N12 N 0.35248 0.81467 -0.14722
 C13 C 0.86219 0.32091 -0.15892
 N14 N 0.85464 0.33666 -0.16837
 C15 C 0.83866 0.34604 -0.16184
 N16 N 0.83021 0.33958 -0.14563
 C17 C 0.83774 0.32383 -0.13606
 N18 N 0.85368 0.31454 -0.14282
 C19 C 0.85071 0.82996 0.33607
 N20 N 0.84694 0.82033 0.35237
 C21 C 0.83282 0.82614 0.36421
 N22 N 0.82187 0.84225 0.35997
 C23 C 0.82508 0.85340 0.34303
 N24 N 0.84024 0.84619 0.33117
 C25 C 0.64964 0.66547 0.34105
 N26 N 0.65669 0.67320 0.35724
 C27 C 0.67308 0.66599 0.36532
 N28 N 0.68250 0.65055 0.35720
 C29 C 0.67531 0.64242 0.34103
 N30 N 0.65895 0.65008 0.33295
 C31 C 0.64901 0.17250 -0.15422
 N32 N 0.65561 0.15527 -0.16147
 C33 C 0.67095 0.14574 -0.15346
 N34 N 0.67976 0.15355 -0.13799
 C35 C 0.67330 0.17077 -0.13061
 N36 N 0.65793 0.18019 -0.13879
 C37 C 0.14887 0.67806 -0.16523
 N38 N 0.15457 0.66115 -0.17378
 C39 C 0.16981 0.65053 -0.16694
 N40 N 0.17941 0.65694 -0.15135
 C41 C 0.17389 0.67377 -0.14262
 N42 N 0.15859 0.68436 -0.14961
 C43 C 0.15693 0.17087 0.33908
 N44 N 0.16406 0.17559 0.35640
 C45 C 0.17852 0.16488 0.36449
 N46 N 0.18598 0.14934 0.35513
 C47 C 0.17926 0.14440 0.33773
 N48 N 0.16462 0.15522 0.32958
 C49 C 0.65399 0.32934 0.66504
 N50 N 0.66063 0.34594 0.67329
 C51 C 0.67483 0.35657 0.66517
 N52 N 0.68252 0.35044 0.64862
 C53 C 0.67616 0.33376 0.64019
 N54 N 0.66183 0.32308 0.64845
 C55 C 0.65342 0.84291 1.16375
 N56 N 0.65927 0.83367 1.14776
 C57 C 0.67433 0.84078 1.13764
 N58 N 0.68369 0.85714 1.14364
 C59 C 0.67802 0.86640 1.15966
 N60 N 0.66285 0.85921 1.16959
 C61 C 0.15247 0.33275 1.15532
 N62 N 0.16061 0.34852 1.16411
 C63 C 0.17555 0.35821 1.15587
 N64 N 0.18228 0.35210 1.13893
 C65 C 0.17444 0.33639 1.13015
 N66 N 0.15953 0.32673 1.13837
 C67 C 0.14860 0.83292 0.65823
 N68 N 0.15446 0.82423 0.64193
 C69 C 0.17029 0.83088 0.63263
 N70 N 0.18034 0.84629 0.63977
 C71 C 0.17466 0.85508 0.65604
 N72 N 0.15877 0.84832 0.66518
 C73 C 0.34785 0.66767 0.65579
 N74 N 0.33980 0.65257 0.66568
 C75 C 0.32308 0.64429 0.65943
 N76 N 0.31453 0.65112 0.64334
 C77 C 0.32238 0.66611 0.63340
 N78 N 0.33906 0.67440 0.63968
 C79 C 0.34152 0.16658 1.16721
 N80 N 0.33001 0.15165 1.17309
 C81 C 0.31513 0.14538 1.16207
 N82 N 0.31189 0.15411 1.14509
 C83 C 0.32319 0.16903 1.13894
 N84 N 0.33803 0.17536 1.15008
 C85 C 0.84533 0.65884 1.16327
 N86 N 0.83697 0.66606 1.14720
 C87 C 0.82166 0.65671 1.13918
 N88 N 0.81464 0.64014 1.14745
 C89 C 0.82300 0.63286 1.16355
 N90 N 0.83830 0.64227 1.17130
 C91 C 0.84817 0.15532 0.66426
 N92 N 0.84019 0.14107 0.67524
 C93 C 0.82350 0.13219 0.66969
 N94 N 0.81488 0.13770 0.65311
 C95 C 0.82277 0.15190 0.64207
 N96 N 0.83941 0.16065 0.64775
 C97 C 0.34127 0.35640 0.67650
 N98 N 0.35730 0.34530 0.68015
 C99 C 0.36236 0.33046 0.66834
 N100 N 0.35128 0.32675 0.65289
 C101 C 0.33520 0.33773 0.64914
 N102 N 0.33023 0.35253 0.66098
 C103 C 0.34306 0.85551 0.16760
 N104 N 0.36002 0.84711 0.17337
 C105 C 0.36821 0.83244 0.16321
 N106 N 0.35936 0.82614 0.14727
 C107 C 0.34241 0.83427 0.14134
 N108 N 0.33413 0.84902 0.15153
 C109 C 0.83827 0.35612 0.17517
 N110 N 0.83069 0.34856 0.15898
 C111 C 0.83990 0.33370 0.14987
 N112 N 0.85674 0.32637 0.15707
 C113 C 0.86447 0.33379 0.17322
 N114 N 0.85517 0.34867 0.18228
 C115 C 0.83128 0.86494 0.67252
 N116 N 0.82284 0.85687 0.65712
 C117 C 0.83077 0.84089 0.64875
 N118 N 0.84743 0.83284 0.65588
 C119 C 0.85607 0.84098 0.67134
 N120 N 0.84789 0.85696 0.67960
 C121 C 0.67423 0.63760 0.67577
 N122 N 0.65630 0.64534 0.67881
 C123 C 0.64959 0.66037 0.66762
 N124 N 0.66074 0.66727 0.65329
 C125 C 0.67860 0.65948 0.65032
 N126 N 0.68526 0.64486 0.66168
 C127 C 0.66226 0.15244 0.17275
 N128 N 0.67226 0.15905 0.15749
 C129 C 0.66576 0.17492 0.14746
 N130 N 0.64918 0.18414 0.15276
 C131 C 0.63912 0.17771 0.16795
 N132 N 0.64572 0.16184 0.17794
 C133 C 0.15421 0.65172 0.16479
 N134 N 0.16356 0.65866 0.14916
 C135 C 0.15479 0.67269 0.13808
 N136 N 0.13702 0.67958 0.14269
 C137 C 0.12785 0.67291 0.15822
 N138 N 0.13651 0.65905 0.16929
 C139 C 0.16813 0.14024 0.66967
 N140 N 0.14979 0.14700 0.67214
 C141 C 0.14250 0.16152 0.66081
 N142 N 0.15367 0.16925 0.64698
 C143 C 0.17210 0.16274 0.64456
 N144 N 0.17936 0.14834 0.65601
 C145 C 0.33857 0.64490 0.32540
 N146 N 0.33081 0.65578 0.33964
 C147 C 0.34063 0.67165 0.34640
 N148 N 0.35790 0.67660 0.33869
 C149 C 0.36557 0.66573 0.32454
 N150 N 0.35588 0.64995 0.31805
 C151 C 0.33746 0.14327 0.83026
 N152 N 0.35320 0.14861 0.82010
 C153 C 0.36328 0.16499 0.82478
 N154 N 0.35747 0.17612 0.83967
 C155 C 0.34171 0.17088 0.84985
 N156 N 0.33183 0.15443 0.84507
 C157 C 0.83297 0.64290 0.83612
 N158 N 0.84768 0.64614 0.82382
 C159 C 0.85962 0.66173 0.82626
 N160 N 0.85677 0.67407 0.84108
 C161 C 0.84217 0.67086 0.85342
 N162 N 0.83030 0.65530 0.85082
 C163 C 0.84356 0.15272 0.32633
 N164 N 0.83598 0.15888 0.34292
 C165 C 0.84299 0.17511 0.35169
 N166 N 0.85788 0.18526 0.34373
 C167 C 0.86552 0.17900 0.32703
 N168 N 0.85820 0.16288 0.31847
 C169 C 0.66133 0.34667 0.33549
 N170 N 0.66806 0.33639 0.35071
 C171 C 0.65871 0.32005 0.35686
 N172 N 0.64252 0.31398 0.34761
 C173 C 0.63567 0.32423 0.33235
 N174 N 0.64512 0.34052 0.32638
 C175 C 0.65999 0.84903 0.83156
 N176 N 0.64400 0.84060 0.82375
 C177 C 0.63622 0.82428 0.83189
 N178 N 0.64445 0.81654 0.84778
 C179 C 0.66036 0.82476 0.85559
 N180 N 0.66810 0.84099 0.84745
 C181 C 0.15858 0.35405 0.82201
 N182 N 0.14292 0.34390 0.81579
 C183 C 0.13727 0.32732 0.82505
 N184 N 0.14733 0.32098 0.84053
 C185 C 0.16293 0.33106 0.84685
 N186 N 0.16848 0.34753 0.83755
 C187 C 0.15410 0.85283 0.32337
 N188 N 0.16126 0.84441 0.33952
 C189 C 0.15201 0.82872 0.34741
 N190 N 0.13579 0.82151 0.33897
 C191 C 0.12874 0.82999 0.32287
 N192 N 0.13795 0.84553 0.31524
 O193 O 0.26737 0.97587 0.24196
 O194 O 0.24319 1.01770 0.26651
 O195 O 0.24595 0.97953 0.27238
 O196 O 0.26953 1.01385 0.24057
 O197 O 0.24406 1.01420 0.22145
 O198 O 0.22182 0.97606 0.25205
 O199 O 0.21780 1.01399 0.24772
 O200 O 0.24297 0.97566 0.22159
 Cu201 Cu 0.25886 0.99685 0.25736
 Cu202 Cu 0.22925 0.99476 0.23377
 C203 C 0.25917 0.96899 0.22720
 C204 C 0.22617 1.02279 0.26115
 C205 C 0.23023 0.97153 0.26762
 C206 C 0.26091 1.02022 0.22592
 O207 O 0.26116 0.51870 0.78848
 O208 O 0.28126 0.48068 0.75688
 O209 O 0.28581 0.51856 0.76085
 O210 O 0.25800 0.48066 0.78558
 O211 O 0.23375 0.48453 0.76532
 O212 O 0.26123 0.52379 0.74126
 O213 O 0.25713 0.48607 0.73679
 O214 O 0.23648 0.52274 0.76878
 Cu215 Cu 0.27401 0.49918 0.77494
 Cu216 Cu 0.24468 0.50478 0.75107
 C217 C 0.24535 0.52722 0.78391
 C218 C 0.27251 0.47693 0.74143
 C219 C 0.27824 0.52780 0.74699
 C220 C 0.24137 0.47589 0.77958
 O221 O 0.74919 -0.01395 0.28257
 O222 O 0.72001 0.02632 0.26073
 O223 O 0.72054 -0.01191 0.25864
 O224 O 0.74714 0.02429 0.28656
 O225 O 0.76828 0.02758 0.26349
 O226 O 0.74227 -0.01009 0.23594
 O227 O 0.74129 0.02824 0.23765
 O228 O 0.77083 -0.01043 0.25997
 Cu229 Cu 0.73209 0.00595 0.27445
 Cu230 Cu 0.75780 0.00912 0.24698
 C231 C 0.76501 -0.01902 0.27480
 C232 C 0.72575 0.03405 0.24534
 C233 C 0.72691 -0.01740 0.24275
 C234 C 0.76207 0.03229 0.27977
 O235 O 0.73310 0.47303 0.75102
 O236 O 0.76469 0.51049 0.76997
 O237 O 0.76156 0.47252 0.77497
 O238 O 0.73249 0.51114 0.75040
 O239 O 0.71378 0.51339 0.77550
 O240 O 0.74298 0.47612 0.80003
 O241 O 0.74602 0.51412 0.79497
 O242 O 0.71408 0.47485 0.77590
 Cu243 Cu 0.74982 0.49160 0.75918
 Cu244 Cu 0.72739 0.49489 0.78908
 C245 C 0.71839 0.46728 0.75999
 C246 C 0.76091 0.51885 0.78544
 C247 C 0.75699 0.46777 0.79181
 C248 C 0.71806 0.51873 0.75889
 O249 O 0.21449 0.52592 0.24499
 O250 O 0.23776 0.48818 0.27654
 O251 O 0.23415 0.52629 0.27728
 O252 O 0.21086 0.48737 0.25072
 O253 O 0.23632 0.48458 0.23220
 O254 O 0.25863 0.52671 0.25735
 O255 O 0.26355 0.48942 0.25830
 O256 O 0.23942 0.52319 0.22583
 Cu257 Cu 0.22191 0.50724 0.26387
 Cu258 Cu 0.25159 0.50562 0.24138
 C259 C 0.22329 0.53088 0.22989
 C260 C 0.25503 0.48278 0.27270
 C261 C 0.25010 0.53336 0.27198
 C262 C 0.21959 0.47890 0.23737
 O263 O 0.74264 0.97859 0.78630
 O264 O 0.76851 1.01868 0.76255
 O265 O 0.76988 0.98055 0.76116
 O266 O 0.74326 1.01704 0.78953
 O267 O 0.76624 1.01530 0.81139
 O268 O 0.79271 0.97911 0.78319
 O269 O 0.79159 1.01731 0.78431
 O270 O 0.76549 0.97696 0.80827
 Cu271 Cu 0.75372 0.99885 0.77275
 Cu272 Cu 0.78124 0.99704 0.79903
 C273 C 0.74972 0.97075 0.80118
 C274 C 0.78444 1.02481 0.76925
 C275 C 0.78588 0.97367 0.76740
 C276 C 0.75044 1.02253 0.80524
 O277 O 0.72417 0.51364 0.25997
 O278 O 0.74814 0.47366 0.23410
 O279 O 0.74775 0.51188 0.23143
 O280 O 0.72229 0.47496 0.26061
 O281 O 0.69820 0.47552 0.23988
 O282 O 0.72373 0.51135 0.21063
 O283 O 0.72410 0.47324 0.21334
 O284 O 0.70026 0.51387 0.23906
 Cu285 Cu 0.73795 0.49357 0.24866
 Cu286 Cu 0.70914 0.49346 0.22373
 C287 C 0.70830 0.52080 0.25380
 C288 C 0.74029 0.46662 0.21936
 C289 C 0.73999 0.51781 0.21599
 C290 C 0.70587 0.46887 0.25497
 O291 O 0.25243 -0.02096 0.77912
 O292 O 0.23435 0.01686 0.74593
 O293 O 0.22720 -0.02038 0.75148
 O294 O 0.26057 0.01594 0.77229
 O295 O 0.28301 0.00707 0.75188
 O296 O 0.24962 -0.02856 0.73082
 O297 O 0.25687 0.00863 0.72537
 O298 O 0.27467 -0.02967 0.75844
 Cu299 Cu 0.24139 -0.00132 0.76429
 Cu300 Cu 0.26828 -0.01153 0.73958
 C301 C 0.26654 -0.03186 0.77439
 C302 C 0.24264 0.01939 0.73014
 C303 C 0.23279 -0.03066 0.73756
 C304 C 0.27744 0.01778 0.76544
 O305 O 0.23479 0.26205 0.96899
 O306 O 0.26680 0.24261 1.00663
 O307 O 0.26491 0.23890 0.96979
 O308 O 0.23543 0.26408 1.00593
 O309 O 0.21670 0.23798 1.00796
 O310 O 0.24639 0.21275 0.97278
 O311 O 0.24797 0.21668 1.00934
 O312 O 0.21630 0.23581 0.97123
 Cu313 Cu 0.25235 0.25456 0.98758
 Cu314 Cu 0.23002 0.22318 0.99058
 C315 C 0.22023 0.25224 0.96358
 C316 C 0.26272 0.22639 1.01454
 C317 C 0.26048 0.22146 0.96512
 C318 C 0.22106 0.25521 1.01311
 O319 O 0.28388 0.75638 0.50103
 O320 O 0.25585 0.78447 0.46580
 O321 O 0.25962 0.78571 0.50264
 O322 O 0.27747 0.75293 0.46472
 O323 O 0.25280 0.73319 0.46975
 O324 O 0.23451 0.76626 0.50644
 O325 O 0.23094 0.76472 0.46957
 O326 O 0.25888 0.73712 0.50629
 Cu327 Cu 0.27166 0.77181 0.48307
 Cu328 Cu 0.24181 0.74835 0.48839
 C329 C 0.27618 0.74229 0.50995
 C330 C 0.23879 0.77939 0.46149
 C331 C 0.24401 0.78137 0.51110
 C332 C 0.26806 0.73742 0.46083
 O333 O 0.26409 0.77020 -0.01638
 O334 O 0.24748 0.73702 0.02076
 O335 O 0.24084 0.74063 -0.01581
 O336 O 0.26637 0.77013 0.02062
 O337 O 0.24036 0.78900 0.02305
 O338 O 0.21457 0.75860 -0.01103
 O339 O 0.22172 0.75579 0.02523
 O340 O 0.23773 0.78851 -0.01397
 Cu341 Cu 0.25726 0.75267 0.00202
 Cu342 Cu 0.22606 0.77479 0.00621
 C343 C 0.25375 0.78458 -0.02199
 C344 C 0.23199 0.74071 0.02952
 C345 C 0.22322 0.74486 -0.01959
 C346 C 0.25753 0.78471 0.02794
 O347 O 0.27203 0.26049 0.48573
 O348 O 0.25088 0.22746 0.52139
 O349 O 0.24534 0.23408 0.48579
 O350 O 0.27801 0.25402 0.52186
 O351 O 0.25645 0.27711 0.52837
 O352 O 0.22331 0.25658 0.49269
 O353 O 0.22969 0.25065 0.52873
 O354 O 0.25011 0.28317 0.49242
 Cu355 Cu 0.26385 0.24176 0.50307
 Cu356 Cu 0.23771 0.26919 0.51126
 C357 C 0.26443 0.27732 0.48278
 C358 C 0.23668 0.23348 0.53112
 C359 C 0.22878 0.24186 0.48308
 C360 C 0.27280 0.26894 0.53128
 O361 O 0.76753 0.78641 0.97435
 O362 O 0.79286 0.75829 1.01178
 O363 O 0.78972 0.75528 0.97506
 O364 O 0.77044 0.78916 1.01108
 O365 O 0.74412 0.76954 1.01405
 O366 O 0.76439 0.73604 0.97870
 O367 O 0.76724 0.73947 1.01534
 O368 O 0.74219 0.76711 0.97732
 Cu369 Cu 0.78264 0.77412 0.99272
 Cu370 Cu 0.75203 0.75117 0.99660
 C371 C 0.75061 0.78146 0.96935
 C372 C 0.78432 0.74428 1.02010
 C373 C 0.78032 0.73993 0.97078
 C374 C 0.75348 0.78568 1.01964
 O375 O 0.78430 0.25148 0.51847
 O376 O 0.75597 0.27941 0.48305
 O377 O 0.75301 0.27294 0.51931
 O378 O 0.78717 0.25784 0.48209
 O379 O 0.76955 0.23150 0.47662
 O380 O 0.73505 0.24693 0.51346
 O381 O 0.73842 0.25314 0.47707
 O382 O 0.76634 0.22531 0.51329
 Cu383 Cu 0.77189 0.26801 0.50130
 Cu384 Cu 0.75061 0.23655 0.49456
 C385 C 0.77998 0.23378 0.52215
 C386 C 0.74254 0.27103 0.47388
 C387 C 0.73825 0.26251 0.52276
 C388 C 0.78405 0.24220 0.47286
 O389 O 0.75830 0.27919 -0.00991
 O390 O 0.73099 0.25350 0.02735
 O391 O 0.73130 0.25296 -0.00969
 O392 O 0.75826 0.27967 0.02720
 O393 O 0.73614 0.30329 0.02647
 O394 O 0.70930 0.27670 -0.01046
 O395 O 0.70889 0.27714 0.02636
 O396 O 0.73632 0.30294 -0.01053
 Cu397 Cu 0.74696 0.26397 0.00884
 Cu398 Cu 0.72048 0.29240 0.00791
 C399 C 0.75182 0.29530 -0.01674
 C400 C 0.71527 0.26104 0.03322
 C401 C 0.71579 0.26040 -0.01648
 C402 C 0.75167 0.29594 0.03325
 O403 O 0.78616 0.74406 0.49242
 O404 O 0.75569 0.71784 0.52731
 O405 O 0.76145 0.71439 0.49163
 O406 O 0.78553 0.74000 0.52982
 O407 O 0.76374 0.76397 0.52869
 O408 O 0.74103 0.73924 0.48733
 O409 O 0.73355 0.74118 0.52356
 O410 O 0.76489 0.76849 0.49231
 Cu411 Cu 0.77442 0.72711 0.51020
 Cu412 Cu 0.74865 0.75549 0.50782
 C413 C 0.78064 0.76107 0.48681
 C414 C 0.73918 0.72526 0.53116
 C415 C 0.74747 0.72227 0.48271
 C416 C 0.77888 0.75605 0.53604
 O417 O 0.99402 0.27220 0.23897
 O418 O 1.03085 0.23762 0.25647
 O419 O 0.99404 0.24395 0.26369
 O420 O 1.03170 0.26928 0.23539
 O421 O 1.03657 0.28929 0.25942
 O422 O 1.00108 0.26304 0.28791
 O423 O 1.03769 0.25738 0.28023
 O424 O 0.99890 0.29166 0.26339
 Cu425 Cu 1.01212 0.25382 0.24627
 Cu426 Cu 1.01921 0.27727 0.27507
 C427 C 0.98969 0.28747 0.24826
 C428 C 1.04075 0.24157 0.27108
 C429 C 0.99112 0.24945 0.28066
 C430 C 1.04049 0.28377 0.24280
 O431 O 0.52509 0.21511 0.74512
 O432 O 0.48939 0.24829 0.72188
 O433 O 0.52573 0.23891 0.71600
 O434 O 0.48830 0.22295 0.74938
 O435 O 0.49593 0.24715 0.76867
 O436 O 0.53443 0.26220 0.73589
 O437 O 0.49840 0.27222 0.74094
 O438 O 0.53249 0.23893 0.76493
 Cu439 Cu 0.50633 0.22892 0.73110
 Cu440 Cu 0.51614 0.25752 0.75453
 C441 C 0.53481 0.22148 0.75911
 C442 C 0.48781 0.26591 0.72763
 C443 C 0.53665 0.25309 0.72039
 C444 C 0.48553 0.23243 0.76455
 O445 O -0.02373 0.26252 0.73912
 O446 O 0.01261 0.22876 0.71927
 O447 O -0.02508 0.22885 0.72196
 O448 O 0.01378 0.26255 0.73630
 O449 O 0.01627 0.24704 0.76377
 O450 O -0.02276 0.21348 0.74951
 O451 O 0.01492 0.21326 0.74677
 O452 O -0.02115 0.24713 0.76666
 Cu453 Cu -0.00585 0.24717 0.72637
 Cu454 Cu -0.00293 0.22865 0.75943
 C455 C -0.02859 0.26057 0.75631
 C456 C 0.02005 0.21536 0.72969
 C457 C -0.03066 0.21554 0.73333
 C458 C 0.02163 0.26054 0.75250
 O459 O 0.47020 0.26780 0.25992
 O460 O 0.50822 0.24159 0.23292
 O461 O 0.47083 0.24718 0.22892
 O462 O 0.50799 0.26383 0.26254
 O463 O 0.50433 0.23685 0.27964
 O464 O 0.46566 0.22101 0.24679
 O465 O 0.50281 0.21478 0.24984
 O466 O 0.46691 0.24134 0.27786
 Cu467 Cu 0.48972 0.25778 0.24432
 Cu468 Cu 0.48444 0.22586 0.26526
 C469 C 0.46218 0.25886 0.27361
 C470 C 0.51197 0.22368 0.23695
 C471 C 0.46174 0.23141 0.23221
 C472 C 0.51283 0.25305 0.27655
 O473 O 1.02423 0.76447 0.72437
 O474 O 0.98785 0.74440 0.75677
 O475 O 1.02536 0.74150 0.75393
 O476 O 0.98627 0.76606 0.72633
 O477 O 0.98421 0.74009 0.70786
 O478 O 1.02235 0.71533 0.73585
 O479 O 0.98472 0.71769 0.73783
 O480 O 1.02202 0.73828 0.70620
 Cu481 Cu 1.00619 0.75668 0.74203
 Cu482 Cu 1.00311 0.72535 0.72014
 C483 C 1.02959 0.75478 0.71001
 C484 C 0.97911 0.72729 0.75352
 C485 C 1.03046 0.72413 0.74950
 C486 C 0.97849 0.75715 0.71248
 O487 O 0.49253 0.75738 0.22501
 O488 O 0.52829 0.72187 0.24370
 O489 O 0.49212 0.72998 0.25052
 O490 O 0.52882 0.74957 0.21807
 O491 O 0.53744 0.77134 0.23955
 O492 O 0.50128 0.75221 0.27273
 O493 O 0.53707 0.74364 0.26510
 O494 O 0.50117 0.77902 0.24659
 Cu495 Cu 0.50962 0.73761 0.23219
 Cu496 Cu 0.52021 0.76366 0.25803
 C497 C 0.49054 0.77408 0.23275
 C498 C 0.53880 0.72677 0.25765
 C499 C 0.48946 0.73749 0.26783
 C500 C 0.53938 0.76376 0.22328
 O501 O -0.00456 0.75037 0.26805
 O502 O -0.04031 0.73340 0.23346
 O503 O -0.00445 0.72456 0.24119
 O504 O -0.04002 0.76021 0.25908
 O505 O -0.02996 0.78263 0.23874
 O506 O 0.00493 0.74675 0.22030
 O507 O -0.03094 0.75575 0.21273
 O508 O 0.00560 0.77235 0.24730
 Cu509 Cu -0.02335 0.73993 0.25255
 Cu510 Cu -0.01155 0.76664 0.22772
 C511 C 0.00683 0.76407 0.26347
 C512 C -0.04194 0.74168 0.21738
 C513 C 0.00634 0.72969 0.22760
 C514 C -0.04121 0.77736 0.25187
 O515 O 0.47878 0.76374 0.73785
 O516 O 0.51628 0.73001 0.71926
 O517 O 0.47812 0.73103 0.71888
 O518 O 0.51642 0.76380 0.73624
 O519 O 0.51710 0.74778 0.76353
 O520 O 0.47849 0.71496 0.74613
 O521 O 0.51650 0.71388 0.74647
 O522 O 0.47950 0.74754 0.76503
 Cu523 Cu 0.49733 0.74865 0.72529
 Cu524 Cu 0.49799 0.72937 0.75796
 C525 C 0.47278 0.76133 0.75467
 C526 C 0.52296 0.71635 0.72989
 C527 C 0.47150 0.71766 0.72961
 C528 C 0.52326 0.76145 0.75281
 C529 C 0.36055 0.33172 0.31773
 C530 C 0.37158 0.31486 0.32169
 C531 C 0.38789 0.30774 0.31004
 C532 C 0.39330 0.28789 0.31169
 C533 C 0.40894 0.28043 0.30158
 C534 C 0.41994 0.29279 0.28985
 C535 C 0.41436 0.31262 0.28794
 C536 C 0.39852 0.32009 0.29799
 C537 C 0.43692 0.28523 0.27927
 C538 C 0.44700 0.26828 0.28491
 H539 H 0.36752 0.30575 0.33364
 H540 H 0.38529 0.27803 0.32077
 H541 H 0.41210 0.26488 0.30288
 H542 H 0.42246 0.32243 0.27889
 H543 H 0.39497 0.33556 0.29662
 H544 H 0.44159 0.29318 0.26680
 H545 H 0.36339 0.34047 0.30524
 H546 H 0.44313 0.26082 0.29788
 C547 C 0.37750 0.81082 0.83005
 C548 C 0.38690 0.81619 0.81331
 C549 C 0.40336 0.80504 0.80518
 C550 C 0.40745 0.80738 0.78586
 C551 C 0.42269 0.79699 0.77753
 C552 C 0.43437 0.78414 0.78845
 C553 C 0.43040 0.78201 0.80782
 C554 C 0.41515 0.79237 0.81614
 C555 C 0.45035 0.77224 0.78032
 C556 C 0.45768 0.77458 0.76205
 H557 H 0.38135 0.82859 0.80515
 H558 H 0.39862 0.81708 0.77710
 H559 H 0.42493 0.79892 0.76252
 H560 H 0.43916 0.77227 0.81661
 H561 H 0.41289 0.79054 0.83116
 H562 H 0.45673 0.76093 0.78931
 H563 H 0.38229 0.79792 0.83786
 H564 H 0.45233 0.78613 0.75278
 C565 C -0.12077 0.31041 0.83386
 C566 C -0.11115 0.31658 0.81760
 C567 C -0.09471 0.30573 0.80920
 C568 C -0.08974 0.30979 0.79037
 C569 C -0.07472 0.29948 0.78164
 C570 C -0.06428 0.28486 0.79167
 C571 C -0.06893 0.28121 0.81066
 C572 C -0.08389 0.29155 0.81938
 C573 C -0.04873 0.27283 0.78304
 C574 C -0.04321 0.27399 0.76410
 H575 H -0.11653 0.32947 0.81007
 H576 H -0.09770 0.32080 0.78227
 H577 H -0.07161 0.30307 0.76709
 H578 H -0.06102 0.27020 0.81880
 H579 H -0.08674 0.28840 0.83410
 H580 H -0.04154 0.26203 0.79205
 H581 H -0.11629 0.29720 0.84132
 H582 H -0.04975 0.28457 0.75451
 C583 C -0.13517 0.82214 0.32440
 C584 C -0.12989 0.83001 0.30695
 C585 C -0.11603 0.81906 0.29518
 C586 C -0.10061 0.82874 0.28649
 C587 C -0.08597 0.81786 0.27764
 C588 C -0.08687 0.79716 0.27718
 C589 C -0.10293 0.78773 0.28498
 C590 C -0.11741 0.79854 0.29378
 C591 C -0.07114 0.78461 0.26980
 C592 C -0.05602 0.79121 0.25856
 H593 H -0.13510 0.84436 0.30239
 H594 H -0.09939 0.84458 0.28737
 H595 H -0.07375 0.82567 0.27194
 H596 H -0.10407 0.77185 0.28467
 H597 H -0.12947 0.79078 0.29996
 H598 H -0.07175 0.76904 0.27315
 H599 H -0.12805 0.80871 0.32921
 H600 H -0.05550 0.80631 0.25372
 C601 C 0.63264 0.67481 0.33226
 C602 C 0.62571 0.67005 0.31433
 C603 C 0.61058 0.68220 0.30499
 C604 C 0.59730 0.67353 0.29257
 C605 C 0.58251 0.68485 0.28417
 C606 C 0.58104 0.70514 0.28790
 C607 C 0.59467 0.71380 0.29996
 C608 C 0.60935 0.70253 0.30830
 C609 C 0.56552 0.71789 0.27998
 C610 C 0.55326 0.71274 0.26510
 H611 H 0.63128 0.65721 0.30712
 H612 H 0.59811 0.65791 0.28971
 H613 H 0.57219 0.67752 0.27514
 H614 H 0.59400 0.72940 0.30293
 H615 H 0.61983 0.70986 0.31721
 H616 H 0.56410 0.73250 0.28588
 H617 H 0.62590 0.68671 0.33999
 H618 H 0.55452 0.69859 0.25832
 C619 C 0.63326 0.18239 0.83762
 C620 C 0.62333 0.17516 0.82180
 C621 C 0.60657 0.18524 0.81269
 C622 C 0.60081 0.17935 0.79450
 C623 C 0.58527 0.18863 0.78521
 C624 C 0.57506 0.20394 0.79407
 C625 C 0.58065 0.20964 0.81234
 C626 C 0.59611 0.20034 0.82164
 C627 C 0.55927 0.21505 0.78452
 C628 C 0.54920 0.20863 0.76853
 H629 H 0.62841 0.16169 0.81532
 H630 H 0.60856 0.16772 0.78731
 H631 H 0.58170 0.18406 0.77099
 H632 H 0.57299 0.22139 0.81948
 H633 H 0.59960 0.20502 0.83583
 H634 H 0.55531 0.22912 0.79055
 H635 H 0.62897 0.19622 0.84383
 H636 H 0.55181 0.19418 0.76273
 C637 C 1.13230 0.68956 0.82714
 C638 C 1.12246 0.68367 0.81077
 C639 C 1.10581 0.69423 0.80186
 C640 C 1.09974 0.68823 0.78381
 C641 C 1.08402 0.69732 0.77473
 C642 C 1.07371 0.71256 0.78362
 C643 C 1.07986 0.71876 0.80159
 C644 C 1.09568 0.70966 0.81071
 C645 C 1.05695 0.72254 0.77428
 C646 C 1.04611 0.71384 0.75986
 H647 H 1.12754 0.67056 0.80366
 H648 H 1.10730 0.67648 0.77659
 H649 H 1.08028 0.69252 0.76063
 H650 H 1.07226 0.73056 0.80870
 H651 H 1.09967 0.71463 0.82468
 H652 H 1.05283 0.73706 0.77913
 H653 H 1.12818 0.70288 0.83440
 H654 H 1.04921 0.69888 0.75567
 C655 C 1.14202 0.18262 0.33169
 C656 C 1.13265 0.17967 0.31439
 C657 C 1.11679 0.19303 0.30789
 C658 C 1.10169 0.18566 0.29669
 C659 C 1.08609 0.19778 0.29125
 C660 C 1.08545 0.21771 0.29666
 C661 C 1.10077 0.22512 0.30755
 C662 C 1.11631 0.21303 0.31297
 C663 C 1.06915 0.23118 0.29151
 C664 C 1.05601 0.22749 0.27691
 H665 H 1.13603 0.16674 0.30612
 H666 H 1.10172 0.17035 0.29255
 H667 H 1.07448 0.19128 0.28319
 H668 H 1.10077 0.24040 0.31181
 H669 H 1.12799 0.21946 0.32104
 H670 H 1.06805 0.24505 0.29891
 H671 H 1.13719 0.19468 0.34047
 H672 H 1.05742 0.21429 0.26857
 C673 C 0.63878 0.31851 0.67493
 C674 C 0.62948 0.30184 0.66812
 C675 C 0.61412 0.29237 0.67943
 C676 C 0.59807 0.28395 0.67041
 C677 C 0.58260 0.27673 0.68109
 C678 C 0.58312 0.27765 0.70100
 C679 C 0.59953 0.28537 0.70993
 C680 C 0.61493 0.29243 0.69933
 C681 C 0.56672 0.27164 0.71302
 C682 C 0.55218 0.25881 0.70736
 H683 H 0.63245 0.29665 0.65397
 H684 H 0.59716 0.28365 0.65511
 H685 H 0.57008 0.27112 0.67368
 H686 H 0.60038 0.28610 0.72523
 H687 H 0.62739 0.29814 0.70679
 H688 H 0.56655 0.27700 0.72744
 H689 H 0.63426 0.32460 0.68833
 H690 H 0.55265 0.25198 0.69359
 C691 C 0.63812 0.83585 0.17449
 C692 C 0.62786 0.81891 0.16984
 C693 C 0.61204 0.81095 0.18161
 C694 C 0.59911 0.79756 0.17350
 C695 C 0.58406 0.78959 0.18414
 C696 C 0.58177 0.79475 0.20326
 C697 C 0.59478 0.80806 0.21137
 C698 C 0.60982 0.81599 0.20076
 C699 C 0.56614 0.78682 0.21530
 C700 C 0.55410 0.77129 0.21025
 H701 H 0.63119 0.81133 0.15680
 H702 H 0.60056 0.79334 0.15882
 H703 H 0.57431 0.77960 0.17716
 H704 H 0.59344 0.81223 0.22607
 H705 H 0.61978 0.82573 0.20782
 H706 H 0.56439 0.79327 0.22919
 H707 H 0.63420 0.84417 0.18689
 H708 H 0.55560 0.76401 0.19679
 C709 C 1.13693 0.32264 0.16324
 C710 C 1.12873 0.32764 0.18062
 C711 C 1.11213 0.31713 0.18917
 C712 C 1.10900 0.31908 0.20866
 C713 C 1.09347 0.30973 0.21738
 C714 C 1.08040 0.29839 0.20673
 C715 C 1.08358 0.29631 0.18725
 C716 C 1.09919 0.30566 0.17850
 C717 C 1.06372 0.28828 0.21561
 C718 C 1.05570 0.29447 0.23265
 H719 H 1.13518 0.33939 0.18876
 H720 H 1.11875 0.32775 0.21724
 H721 H 1.09203 0.31120 0.23253
 H722 H 1.07379 0.28764 0.17871
 H723 H 1.10076 0.30411 0.16337
 H724 H 1.05745 0.27580 0.20842
 H725 H 1.13130 0.31024 0.15548
 H726 H 1.06112 0.30758 0.23941
 C727 C 1.13244 0.82625 0.66807
 C728 C 1.12130 0.81026 0.66216
 C729 C 1.10436 0.80267 0.67273
 C730 C 1.09148 0.78997 0.66348
 C731 C 1.07549 0.78225 0.67295
 C732 C 1.07213 0.78696 0.69201
 C733 C 1.08496 0.79968 0.70122
 C734 C 1.10096 0.80734 0.69180
 C735 C 1.05542 0.77926 0.70274
 C736 C 1.04501 0.76248 0.69779
 H737 H 1.12488 0.80311 0.64897
 H738 H 1.09372 0.78612 0.64881
 H739 H 1.06573 0.77286 0.66519
 H740 H 1.08274 0.80352 0.71591
 H741 H 1.11069 0.81658 0.69972
 H742 H 1.05184 0.78656 0.71586
 H743 H 1.12854 0.83412 0.68074
 H744 H 1.04889 0.75409 0.68541
 C745 C 0.36598 0.67692 0.66217
 C746 C 0.37604 0.67098 0.67851
 C747 C 0.39427 0.68028 0.68514
 C748 C 0.40010 0.67771 0.70409
 C749 C 0.41697 0.68654 0.71100
 C750 C 0.42855 0.69803 0.69898
 C751 C 0.42288 0.70028 0.67995
 C752 C 0.40606 0.69144 0.67306
 C753 C 0.44610 0.70853 0.70566
 C754 C 0.45524 0.70538 0.72318
 H755 H 0.36989 0.65952 0.68728
 H756 H 0.39139 0.66909 0.71370
 H757 H 0.42054 0.68460 0.72580
 H758 H 0.43153 0.70895 0.67033
 H759 H 0.40255 0.69330 0.65823
 H760 H 0.45209 0.71952 0.69625
 H761 H 0.37122 0.68907 0.65376
 H762 H 0.45018 0.69412 0.73274
 C763 C 0.35678 0.17231 0.17896
 C764 C 0.36970 0.18734 0.17449
 C765 C 0.38611 0.19293 0.18704
 C766 C 0.40161 0.20342 0.17931
 C767 C 0.41735 0.20894 0.19063
 C768 C 0.41782 0.20420 0.21005
 C769 C 0.40237 0.19368 0.21777
 C770 C 0.38660 0.18826 0.20650
 C771 C 0.43413 0.20975 0.22263
 C772 C 0.44640 0.22549 0.21890
 H773 H 0.36828 0.19481 0.16095
 H774 H 0.40167 0.20718 0.16439
 H775 H 0.42920 0.21658 0.18402
 H776 H 0.40235 0.18987 0.23268
 H777 H 0.37479 0.18073 0.21326
 H778 H 0.43580 0.20189 0.23594
 H779 H 0.35871 0.16414 0.19203
 H780 H 0.44417 0.23448 0.20638
 C781 C -0.13946 0.66839 0.17223
 C782 C -0.13131 0.68585 0.16565
 C783 C -0.11639 0.69611 0.17686
 C784 C -0.10185 0.70675 0.16771
 C785 C -0.08698 0.71548 0.17821
 C786 C -0.08666 0.71387 0.19809
 C787 C -0.10166 0.70388 0.20717
 C788 C -0.11643 0.69524 0.19674
 C789 C -0.07077 0.72149 0.20999
 C790 C -0.05695 0.73500 0.20409
 H791 H -0.13536 0.69171 0.15187
 H792 H -0.10167 0.70779 0.15241
 H793 H -0.07559 0.72293 0.17067
 H794 H -0.10189 0.70262 0.22247
 H795 H -0.12787 0.68786 0.20431
 H796 H -0.07025 0.71641 0.22456
 H797 H -0.13390 0.66180 0.18518
 H798 H -0.05747 0.74135 0.19003
 C799 C -0.13387 0.16527 0.66990
 C800 C -0.12397 0.16110 0.68677
 C801 C -0.10615 0.17156 0.69258
 C802 C -0.10112 0.17222 0.71185
 C803 C -0.08472 0.18245 0.71790
 C804 C -0.07285 0.19206 0.70470
 C805 C -0.07770 0.19107 0.68542
 C806 C -0.09405 0.18083 0.67938
 C807 C -0.05590 0.20394 0.71040
 C808 C -0.04664 0.20244 0.72800
 H809 H -0.13005 0.15053 0.69655
 H810 H -0.11015 0.16515 0.72231
 H811 H -0.08177 0.18316 0.73292
 H812 H -0.06878 0.19826 0.67495
 H813 H -0.09698 0.18013 0.66435
 H814 H -0.05031 0.21428 0.70010
 H815 H -0.12872 0.17670 0.66054
 H816 H -0.05110 0.19153 0.73823
 C817 C 0.30428 0.37445 0.33099
 C818 C 0.30600 0.38508 0.31417
 C819 C 0.29325 0.40192 0.30889
 C820 C 0.29969 0.41509 0.29503
 C821 C 0.28832 0.43120 0.28952
 C822 C 0.27015 0.43464 0.29783
 C823 C 0.26338 0.42115 0.31129
 C824 C 0.27482 0.40496 0.31685
 C825 C 0.25780 0.45158 0.29188
 C826 C 0.26586 0.46868 0.28452
 H827 H 0.31782 0.38149 0.30477
 H828 H 0.31364 0.41293 0.28842
 H829 H 0.29371 0.44066 0.27842
 H830 H 0.24926 0.42317 0.31756
 H831 H 0.26899 0.39479 0.32710
 H832 H 0.24221 0.45018 0.29238
 H833 H 0.29318 0.37829 0.34104
 H834 H 0.28143 0.47030 0.28467
 C835 C 0.33139 -0.13716 0.82370
 C836 C 0.31506 -0.12616 0.82865
 C837 C 0.30786 -0.10954 0.81681
 C838 C 0.29719 -0.09433 0.82522
 C839 C 0.29052 -0.07830 0.81441
 C840 C 0.29421 -0.07735 0.79485
 C841 C 0.30469 -0.09268 0.78645
 C842 C 0.31130 -0.10867 0.79722
 C843 C 0.28769 -0.06072 0.78267
 C844 C 0.27322 -0.04732 0.78760
 H845 H 0.30779 -0.12925 0.84186
 H846 H 0.29429 -0.09469 0.84027
 H847 H 0.28282 -0.06664 0.82154
 H848 H 0.30764 -0.09239 0.77142
 H849 H 0.31884 -0.12040 0.79003
 H850 H 0.29398 -0.05955 0.76870
 H851 H 0.33944 -0.13301 0.81123
 H852 H 0.26590 -0.04857 0.80101
 C853 C 0.83121 0.36203 0.82792
 C854 C 0.81462 0.37237 0.83334
 C855 C 0.80617 0.38935 0.82272
 C856 C 0.78948 0.39835 0.82994
 C857 C 0.78087 0.41438 0.82066
 C858 C 0.78890 0.42203 0.80394
 C859 C 0.80539 0.41287 0.79649
 C860 C 0.81400 0.39675 0.80575
 C861 C 0.78011 0.43901 0.79366
 C862 C 0.76754 0.45230 0.80226
 H863 H 0.80729 0.36781 0.84613
 H864 H 0.78296 0.39287 0.84282
 H865 H 0.76772 0.42040 0.82655
 H866 H 0.81172 0.41828 0.78350
 H867 H 0.82669 0.39033 0.79940
 H868 H 0.78366 0.44113 0.77888
 H869 H 0.83884 0.36618 0.81525
 H870 H 0.76453 0.45102 0.81721
 C871 C 0.81184 -0.12661 0.33740
 C872 C 0.81449 -0.11693 0.32028
 C873 C 0.80311 -0.09933 0.31460
 C874 C 0.80618 -0.09109 0.29666
 C875 C 0.79577 -0.07447 0.29070
 C876 C 0.78212 -0.06554 0.30268
 C877 C 0.77884 -0.07395 0.32055
 C878 C 0.78927 -0.09066 0.32652
 C879 C 0.77075 -0.04794 0.29669
 C880 C 0.77695 -0.03520 0.28247
 H881 H 0.82523 -0.12260 0.31055
 H882 H 0.81659 -0.09761 0.28713
 H883 H 0.79827 -0.06899 0.27653
 H884 H 0.76829 -0.06750 0.32997
 H885 H 0.78649 -0.09671 0.34043
 H886 H 0.75720 -0.04489 0.30373
 H887 H 0.81854 -0.13672 0.34024
 H888 H 0.79094 -0.03742 0.27603
 C889 C 0.31368 0.62817 0.66972
 C890 C 0.32121 0.61948 0.68615
 C891 C 0.31104 0.60336 0.69608
 C892 C 0.32178 0.58946 0.70658
 C893 C 0.31255 0.57374 0.71558
 C894 C 0.29228 0.57181 0.71446
 C895 C 0.28157 0.58593 0.70420
 C896 C 0.29078 0.60160 0.69523
 C897 C 0.28175 0.55530 0.72342
 C898 C 0.28949 0.54342 0.73781
 H899 H 0.33534 0.62387 0.69129
 H900 H 0.33739 0.59052 0.70749
 H901 H 0.32145 0.56302 0.72301
 H902 H 0.26596 0.58491 0.70321
 H903 H 0.28191 0.61239 0.68784
 H904 H 0.26689 0.55295 0.71906
 H905 H 0.30035 0.62269 0.66370
 H906 H 0.30391 0.54602 0.74323
 C907 C 0.30322 1.13000 0.16766
 C908 C 0.30558 1.11999 0.18483
 C909 C 0.29383 1.10278 0.19033
 C910 C 0.30116 1.09007 0.20436
 C911 C 0.29090 1.07342 0.20979
 C912 C 0.27302 1.06899 0.20119
 C913 C 0.26530 1.08206 0.18765
 C914 C 0.27558 1.09881 0.18222
 C915 C 0.26188 1.05142 0.20691
 C916 C 0.27105 1.03487 0.21456
 H917 H 0.31733 1.12412 0.19421
 H918 H 0.31496 1.09298 0.21112
 H919 H 0.29692 1.06432 0.22101
 H920 H 0.25133 1.07926 0.18120
 H921 H 0.26902 1.10864 0.17190
 H922 H 0.24623 1.05190 0.20596
 H923 H 0.29206 1.12550 0.15783
 H924 H 0.28669 1.03409 0.21492
 C925 C 0.81596 0.61627 0.17278
 C926 C 0.79978 0.60584 0.16670
 C927 C 0.79175 0.58924 0.17774
 C928 C 0.78058 0.57511 0.16841
 C929 C 0.77250 0.55947 0.17849
 C930 C 0.77527 0.55781 0.19819
 C931 C 0.78658 0.57184 0.20748
 C932 C 0.79457 0.58751 0.19744
 C933 C 0.76653 0.54184 0.20950
 C934 C 0.74956 0.53247 0.20402
 H935 H 0.79294 0.60966 0.15330
 H936 H 0.77821 0.57610 0.15326
 H937 H 0.76429 0.54866 0.17074
 H938 H 0.78887 0.57092 0.22265
 H939 H 0.80251 0.59843 0.20531
 H940 H 0.77279 0.53842 0.22324
 H941 H 0.82358 0.61150 0.18545
 H942 H 0.74230 0.53669 0.19097
 C943 C 0.81492 1.11761 0.68074
 C944 C 0.82267 1.11089 0.69799
 C945 C 0.81333 1.09554 0.70978
 C946 C 0.82455 1.08498 0.72309
 C947 C 0.81628 1.07021 0.73426
 C948 C 0.79648 1.06586 0.73245
 C949 C 0.78523 1.07664 0.71935
 C950 C 0.79347 1.09139 0.70825
 C951 C 0.78700 1.04993 0.74334
 C952 C 0.79481 1.04075 0.75947
 H953 H 0.83649 1.11651 0.70278
 H954 H 0.83986 1.08794 0.72464
 H955 H 0.82556 1.06209 0.74395
 H956 H 0.76993 1.07370 0.71773
 H957 H 0.78410 1.09960 0.69872
 H958 H 0.77277 1.04545 0.73854
 H959 H 0.80176 1.11117 0.67530
 H960 H 0.80853 1.04538 0.76530
 C961 C 0.68509 0.62529 0.33246
 C962 C 0.67784 0.61652 0.31601
 C963 C 0.68611 0.59878 0.30680
 C964 C 0.67892 0.59353 0.28890
 C965 C 0.68579 0.57677 0.27968
 C966 C 0.69997 0.56465 0.28827
 C967 C 0.70727 0.56995 0.30612
 C968 C 0.70039 0.58676 0.31536
 C969 C 0.70793 0.54686 0.27890
 C970 C 0.69914 0.53755 0.26350
 H971 H 0.66523 0.62314 0.30926
 H972 H 0.66796 0.60252 0.28192
 H973 H 0.68012 0.57365 0.26574
 H974 H 0.71827 0.56095 0.31304
 H975 H 0.70619 0.59002 0.32922
 H976 H 0.72132 0.54072 0.28451
 H977 H 0.69803 0.61964 0.33933
 H978 H 0.68533 0.54270 0.25806
 C979 C 0.67742 1.12821 0.83856
 C980 C 0.69324 1.11754 0.84571
 C981 C 0.70075 1.09941 0.83677
 C982 C 0.71995 1.09368 0.84049
 C983 C 0.72783 1.07698 0.83200
 C984 C 0.71653 1.06544 0.81978
 C985 C 0.69727 1.07104 0.81620
 C986 C 0.68937 1.08774 0.82470
 C987 C 0.72462 1.04813 0.80990
 C988 C 0.74088 1.03784 0.81644
 H989 H 0.70120 1.12325 0.85773
 H990 H 0.72904 1.10241 0.84969
 H991 H 0.74291 1.07356 0.83469
 H992 H 0.68827 1.06240 0.80683
 H993 H 0.67434 1.09127 0.82188
 H994 H 0.71755 1.04339 0.79699
 H995 H 0.66996 1.12317 0.82601
 H996 H 0.74740 1.04150 0.82992
 C997 C 0.17547 0.63336 0.82384
 C998 C 0.19124 0.62183 0.82990
 C999 C 0.19820 0.60404 0.81989
 C1000 C 0.21124 0.59131 0.82928
 C1001 C 0.21862 0.57465 0.82024
 C1002 C 0.21320 0.57046 0.80148
 C1003 C 0.20006 0.58310 0.79215
 C1004 C 0.19273 0.59977 0.80115
 C1005 C 0.22079 0.55325 0.79106
 C1006 C 0.23751 0.54274 0.79615
 H1007 H 0.19883 0.62585 0.84276
 H1008 H 0.21572 0.59424 0.84371
 H1009 H 0.22838 0.56510 0.82811
 H1010 H 0.19567 0.58025 0.77768
 H1011 H 0.18316 0.60934 0.79312
 H1012 H 0.21346 0.54943 0.77799
 H1013 H 0.16709 0.62906 0.81159
 H1014 H 0.24571 0.54655 0.80867
 C1015 C 0.18815 1.12851 0.32880
 C1016 C 0.18383 1.12186 0.31063
 C1017 C 0.19460 1.10506 0.30219
 C1018 C 0.18553 1.09339 0.28853
 C1019 C 0.19503 1.07695 0.28102
 C1020 C 0.21391 1.07176 0.28711
 C1021 C 0.22326 1.08397 0.30016
 C1022 C 0.21381 1.10045 0.30755
 C1023 C 0.22450 1.05420 0.27991
 C1024 C 0.21553 1.03904 0.27009
 H1025 H 0.17181 1.12835 0.30281
 H1026 H 0.17092 1.09682 0.28384
 H1027 H 0.18747 1.06860 0.27037
 H1028 H 0.23793 1.08068 0.30476
 H1029 H 0.22173 1.10959 0.31734
 H1030 H 0.23997 1.05318 0.28244
 H1031 H 0.19930 1.12088 0.33688
 H1032 H 0.20008 1.03945 0.26764
 C1033 C 0.68259 0.37413 0.67454
 C1034 C 0.67639 0.38016 0.69242
 C1035 C 0.68551 0.39638 0.70312
 C1036 C 0.67550 0.40509 0.71821
 C1037 C 0.68393 0.42020 0.72880
 C1038 C 0.70265 0.42674 0.72449
 C1039 C 0.71266 0.41786 0.70956
 C1040 C 0.70431 0.40281 0.69908
 C1041 C 0.71238 0.44295 0.73458
 C1042 C 0.70656 0.45151 0.75163
 H1043 H 0.66437 0.37265 0.69894
 H1044 H 0.66105 0.40029 0.72173
 H1045 H 0.67569 0.42679 0.74009
 H1046 H 0.72716 0.42250 0.70601
 H1047 H 0.71287 0.39610 0.68810
 H1048 H 0.72557 0.44822 0.72817
 H1049 H 0.69373 0.38214 0.66719
 H1050 H 0.69388 0.44646 0.75904
 C1051 C 0.68807 -0.11714 0.16598
 C1052 C 0.68326 -0.10770 0.18285
 C1053 C 0.69405 -0.09101 0.19096
 C1054 C 0.69158 -0.08692 0.21020
 C1055 C 0.70108 -0.07119 0.21861
 C1056 C 0.71308 -0.05889 0.20784
 C1057 C 0.71584 -0.06313 0.18863
 C1058 C 0.70633 -0.07897 0.18019
 C1059 C 0.72312 -0.04193 0.21644
 C1060 C 0.71621 -0.03268 0.23264
 H1061 H 0.67148 -0.11344 0.19123
 H1062 H 0.68236 -0.09607 0.21886
 H1063 H 0.69917 -0.06899 0.23362
 H1064 H 0.72514 -0.05398 0.18007
 H1065 H 0.70839 -0.08145 0.16524
 H1066 H 0.73611 -0.03649 0.20977
 H1067 H 0.70026 -0.11218 0.15777
 H1068 H 0.70259 -0.03713 0.23868
 C1069 C 0.18490 0.37522 0.16474
 C1070 C 0.18120 0.38148 0.18312
 C1071 C 0.19137 0.39838 0.19184
 C1072 C 0.18300 0.40777 0.20741
 C1073 C 0.19190 0.42402 0.21572
 C1074 C 0.20943 0.43135 0.20854
 C1075 C 0.21817 0.42148 0.19344
 C1076 C 0.20933 0.40516 0.18521
 C1077 C 0.21919 0.44884 0.21662
 C1078 C 0.20981 0.46232 0.22824
 H1079 H 0.17002 0.37420 0.19117
 H1080 H 0.16943 0.40261 0.21310
 H1081 H 0.18500 0.43051 0.22786
 H1082 H 0.23188 0.42646 0.18791
 H1083 H 0.21682 0.39785 0.17385
 H1084 H 0.23421 0.45135 0.21309
 H1085 H 0.19527 0.38300 0.15618
 H1086 H 0.19466 0.46055 0.23147
 C1087 C 0.18536 -0.12926 0.66320
 C1088 C 0.18049 -0.11953 0.67994
 C1089 C 0.19201 -0.10335 0.68825
 C1090 C 0.18342 -0.09127 0.70193
 C1091 C 0.19386 -0.07611 0.71045
 C1092 C 0.21328 -0.07280 0.70556
 C1093 C 0.22184 -0.08491 0.69188
 C1094 C 0.21142 -0.10005 0.68338
 C1095 C 0.22524 -0.05712 0.71420
 C1096 C 0.21960 -0.04530 0.72935
 H1097 H 0.16737 -0.12366 0.68722
 H1098 H 0.16852 -0.09353 0.70601
 H1099 H 0.18653 -0.06712 0.72075
 H1100 H 0.23679 -0.08279 0.68788
 H1101 H 0.21884 -0.10930 0.67334
 H1102 H 0.23963 -0.05511 0.70854
 H1103 H 0.19781 -0.12459 0.65520
 H1104 H 0.20555 -0.04690 0.73575
 C1105 C 0.32279 0.32200 0.37545
 C1106 C 0.30792 0.32716 0.38778
 C1107 C 0.30298 0.31612 0.40523
 C1108 C 0.28554 0.32076 0.41426
 C1109 C 0.27989 0.31062 0.43051
 C1110 C 0.29175 0.29567 0.43829
 C1111 C 0.30924 0.29106 0.42934
 C1112 C 0.31490 0.30122 0.41304
 C1113 C 0.28591 0.28402 0.45507
 C1114 C 0.27177 0.29022 0.46776
 H1115 H 0.29881 0.33968 0.38408
 H1116 H 0.27603 0.33211 0.40854
 H1117 H 0.26601 0.31427 0.43655
 H1118 H 0.31859 0.27954 0.43498
 H1119 H 0.32861 0.29731 0.40681
 H1120 H 0.29295 0.26990 0.45742
 H1121 H 0.33201 0.30942 0.37834
 H1122 H 0.26527 0.30468 0.46640
 C1123 C 0.32709 0.81636 -0.12354
 C1124 C 0.31013 0.82425 -0.11590
 C1125 C 0.30047 0.81523 -0.09930
 C1126 C 0.28874 0.82683 -0.08753
 C1127 C 0.28009 0.81866 -0.07140
 C1128 C 0.28298 0.79867 -0.06689
 C1129 C 0.29417 0.78702 -0.07901
 C1130 C 0.30267 0.79510 -0.09507
 C1131 C 0.27557 0.78932 -0.04944
 C1132 C 0.26032 0.79632 -0.03836
 H1133 H 0.30410 0.83770 -0.12186
 H1134 H 0.28663 0.84233 -0.09060
 H1135 H 0.27167 0.82811 -0.06230
 H1136 H 0.29641 0.77152 -0.07602
 H1137 H 0.31084 0.78543 -0.10416
 H1138 H 0.28213 0.77532 -0.04553
 H1139 H 0.33399 0.80379 -0.11678
 H1140 H 0.25246 0.80957 -0.04230
 C1141 C 0.82888 0.31644 -0.11858
 C1142 C 0.81276 0.32531 -0.11032
 C1143 C 0.80381 0.31773 -0.09276
 C1144 C 0.79271 0.33053 -0.08165
 C1145 C 0.78414 0.32389 -0.06493
 C1146 C 0.78630 0.30414 -0.05912
 C1147 C 0.79730 0.29134 -0.07031
 C1148 C 0.80584 0.29797 -0.08700
 C1149 C 0.77737 0.29620 -0.04168
 C1150 C 0.76189 0.30513 -0.03239
 H1151 H 0.80696 0.33875 -0.11651
 H1152 H 0.79086 0.34580 -0.08581
 H1153 H 0.77610 0.33437 -0.05659
 H1154 H 0.79907 0.27603 -0.06627
 H1155 H 0.81369 0.28743 -0.09545
 H1156 H 0.78232 0.28190 -0.03671
 H1157 H 0.83571 0.30382 -0.11187
 H1158 H 0.75591 0.31893 -0.03750
 C1159 C 0.82960 0.81425 0.38125
 C1160 C 0.81314 0.81595 0.39233
 C1161 C 0.80956 0.80273 0.40862
 C1162 C 0.79710 0.80914 0.42287
 C1163 C 0.79339 0.79715 0.43849
 C1164 C 0.80213 0.77842 0.44021
 C1165 C 0.81410 0.77173 0.42568
 C1166 C 0.81783 0.78374 0.41002
 C1167 C 0.79789 0.76527 0.45638
 C1168 C 0.79211 0.77271 0.47371
 H1169 H 0.80274 0.82758 0.38925
 H1170 H 0.79023 0.82349 0.42193
 H1171 H 0.78327 0.80248 0.44891
 H1172 H 0.82057 0.75717 0.42644
 H1173 H 0.82686 0.77788 0.39893
 H1174 H 0.79800 0.74951 0.45419
 H1175 H 0.84051 0.80332 0.38473
 H1176 H 0.79241 0.78840 0.47613
 C1177 C 0.68571 0.32745 0.62265
 C1178 C 0.68251 0.30947 0.61375
 C1179 C 0.69421 0.30292 0.59733
 C1180 C 0.68651 0.28934 0.58448
 C1181 C 0.69728 0.28308 0.56884
 C1182 C 0.71614 0.29016 0.56589
 C1183 C 0.72388 0.30350 0.57892
 C1184 C 0.71318 0.30969 0.59450
 C1185 C 0.72826 0.28435 0.54952
 C1186 C 0.72472 0.26822 0.53788
 H1187 H 0.67100 0.30009 0.61874
 H1188 H 0.67201 0.28376 0.58640
 H1189 H 0.69062 0.27299 0.55905
 H1190 H 0.73841 0.30905 0.57715
 H1191 H 0.72001 0.31953 0.60443
 H1192 H 0.74125 0.29279 0.54705
 H1193 H 0.69623 0.33747 0.61682
 H1194 H 0.71235 0.25893 0.54028
 C1195 C 0.68053 0.83033 1.12055
 C1196 C 0.69552 0.83713 1.10915
 C1197 C 0.70291 0.82656 1.09235
 C1198 C 0.72012 0.83309 1.08401
 C1199 C 0.72797 0.82330 1.06849
 C1200 C 0.71871 0.80675 1.06095
 C1201 C 0.70133 0.80044 1.06898
 C1202 C 0.69344 0.81024 1.08446
 C1203 C 0.72693 0.79550 1.04507
 C1204 C 0.74436 0.80035 1.03665
 H1205 H 0.70269 0.85062 1.11310
 H1206 H 0.72765 0.84570 1.08967
 H1207 H 0.74137 0.82860 1.06255
 H1208 H 0.69385 0.78779 1.06334
 H1209 H 0.67995 0.80487 1.09000
 H1210 H 0.71935 0.78253 1.04025
 H1211 H 0.67323 0.81675 1.11739
 H1212 H 0.74915 0.79340 1.02827
 C1213 C 0.18271 0.32999 1.11209
 C1214 C 0.17671 0.31314 1.10263
 C1215 C 0.18629 0.30590 1.08530
 C1216 C 0.17610 0.29341 1.07312
 C1217 C 0.18489 0.28587 1.05691
 C1218 C 0.20421 0.29053 1.05270
 C1219 C 0.21432 0.30315 1.06478
 C1220 C 0.20556 0.31062 1.08099
 C1221 C 0.21438 0.28233 1.03611
 C1222 C 0.20932 0.26452 1.02786
 H1223 H 0.16440 0.30509 1.10796
 H1224 H 0.16125 0.28953 1.07612
 H1225 H 0.17644 0.27657 1.04771
 H1226 H 0.22924 0.30687 1.06191
 H1227 H 0.21418 0.31964 1.09030
 H1228 H 0.22732 0.28968 1.03131
 H1229 H 0.19411 0.33893 1.10625
 H1230 H 0.19721 0.25626 1.03323
 C1231 C 0.17638 0.82114 0.61506
 C1232 C 0.19270 0.82697 0.60490
 C1233 C 0.19956 0.81707 0.58748
 C1234 C 0.21301 0.82670 0.57590
 C1235 C 0.22010 0.81774 0.55953
 C1236 C 0.21395 0.79880 0.55445
 C1237 C 0.20052 0.78920 0.56603
 C1238 C 0.19349 0.79811 0.58238
 C1239 C 0.22094 0.78843 0.53736
 C1240 C 0.23713 0.79377 0.52678
 H1241 H 0.20069 0.83964 0.60976
 H1242 H 0.21799 0.84129 0.57950
 H1243 H 0.23018 0.82582 0.55089
 H1244 H 0.19558 0.77458 0.56253
 H1245 H 0.18360 0.78985 0.59105
 H1246 H 0.21338 0.77513 0.53345
 H1247 H 0.16751 0.80921 0.61006
 H1248 H 0.24559 0.80648 0.53054
 C1249 C 0.31247 0.67299 0.61604
 C1250 C 0.31883 0.68892 0.60526
 C1251 C 0.30869 0.69624 0.58794
 C1252 C 0.31846 0.70917 0.57585
 C1253 C 0.30941 0.71677 0.55958
 C1254 C 0.29021 0.71164 0.55499
 C1255 C 0.28045 0.69874 0.56714
 C1256 C 0.28948 0.69117 0.58343
 C1257 C 0.27957 0.71980 0.53825
 C1258 C 0.28768 0.73245 0.52490
 H1259 H 0.33207 0.69616 0.60949
 H1260 H 0.33319 0.71346 0.57902
 H1261 H 0.31761 0.72679 0.55095
 H1262 H 0.26562 0.69464 0.56414
 H1263 H 0.28111 0.68173 0.59253
 H1264 H 0.26439 0.71619 0.53673
 H1265 H 0.29981 0.66491 0.61170
 H1266 H 0.30273 0.73646 0.52583
 C1267 C 0.31906 0.17826 1.12036
 C1268 C 0.30536 0.16990 1.10819
 C1269 C 0.29806 0.17849 1.09016
 C1270 C 0.30326 0.19725 1.08348
 C1271 C 0.29485 0.20491 1.06685
 C1272 C 0.28111 0.19395 1.05662
 C1273 C 0.27620 0.17520 1.06326
 C1274 C 0.28455 0.16758 1.07977
 C1275 C 0.27075 0.20158 1.03962
 C1276 C 0.27506 0.21905 1.03015
 H1277 H 0.29904 0.15602 1.11237
 H1278 H 0.31343 0.20624 1.09114
 H1279 H 0.29887 0.21955 1.06244
 H1280 H 0.26560 0.16645 1.05578
 H1281 H 0.28015 0.15314 1.08460
 H1282 H 0.25872 0.19298 1.03441
 H1283 H 0.32664 0.19152 1.11653
 H1284 H 0.28732 0.22783 1.03433
 C1285 C 0.81240 0.66455 1.12183
 C1286 C 0.81885 0.68178 1.11311
 C1287 C 0.81009 0.69085 1.09588
 C1288 C 0.81927 0.70722 1.08787
 C1289 C 0.81154 0.71666 1.07188
 C1290 C 0.79440 0.70985 1.06339
 C1291 C 0.78515 0.69354 1.07144
 C1292 C 0.79286 0.68411 1.08749
 C1293 C 0.78530 0.71968 1.04670
 C1294 C 0.79444 0.73384 1.03558
 H1295 H 0.83123 0.68914 1.11926
 H1296 H 0.83245 0.71288 1.09411
 H1297 H 0.81896 0.72946 1.06659
 H1298 H 0.77182 0.68809 1.06532
 H1299 H 0.78505 0.67179 1.09324
 H1300 H 0.77062 0.71558 1.04303
 H1301 H 0.80039 0.65644 1.11604
 H1302 H 0.80929 0.73785 1.03831
 C1303 C 0.81305 0.15788 0.62427
 C1304 C 0.82082 0.17219 0.61230
 C1305 C 0.81145 0.17965 0.59466
 C1306 C 0.82231 0.19166 0.58256
 C1307 C 0.81401 0.19983 0.56618
 C1308 C 0.79452 0.19631 0.56160
 C1309 C 0.78375 0.18393 0.57342
 C1310 C 0.79204 0.17578 0.58986
 C1311 C 0.78497 0.20548 0.54484
 C1312 C 0.79091 0.22340 0.53717
 H1313 H 0.83476 0.17832 0.61602
 H1314 H 0.83730 0.19483 0.58582
 H1315 H 0.82298 0.20878 0.55715
 H1316 H 0.76871 0.18096 0.57018
 H1317 H 0.78299 0.16689 0.59884
 H1318 H 0.77185 0.19885 0.53944
 H1319 H 0.79961 0.15073 0.62069
 H1320 H 0.80306 0.23103 0.54336
 C1321 C 0.68017 0.67562 0.38254
 C1322 C 0.69919 0.67425 0.38908
 C1323 C 0.70641 0.68618 0.40513
 C1324 C 0.72301 0.67985 0.41499
 C1325 C 0.73009 0.69055 0.43033
 C1326 C 0.72062 0.70787 0.43628
 C1327 C 0.70450 0.71465 0.42592
 C1328 C 0.69747 0.70399 0.41050
 C1329 C 0.72738 0.71933 0.45287
 C1330 C 0.73916 0.71111 0.46696
 H1331 H 0.70903 0.66402 0.38236
 H1332 H 0.73046 0.66648 0.41087
 H1333 H 0.74313 0.68523 0.43724
 H1334 H 0.69724 0.72819 0.42984
 H1335 H 0.68522 0.70998 0.40274
 H1336 H 0.72271 0.73451 0.45419
 H1337 H 0.66999 0.68515 0.38965
 H1338 H 0.74328 0.69577 0.46627
 C1339 C 0.68306 0.17898 -0.11386
 C1340 C 0.67695 0.19657 -0.10562
 C1341 C 0.68628 0.20561 -0.08885
 C1342 C 0.68175 0.22525 -0.08464
 C1343 C 0.69001 0.23447 -0.06896
 C1344 C 0.70289 0.22412 -0.05694
 C1345 C 0.70749 0.20450 -0.06117
 C1346 C 0.69921 0.19526 -0.07686
 C1347 C 0.71230 0.23345 -0.04037
 C1348 C 0.70524 0.25047 -0.03178
 H1349 H 0.66495 0.20451 -0.11212
 H1350 H 0.67190 0.23360 -0.09366
 H1351 H 0.68651 0.24977 -0.06663
 H1352 H 0.71744 0.19622 -0.05220
 H1353 H 0.70285 0.18001 -0.07929
 H1354 H 0.72524 0.22650 -0.03461
 H1355 H 0.69547 0.17103 -0.10829
 H1356 H 0.69177 0.25710 -0.03654
 C1357 C 0.18473 0.68005 -0.12572
 C1358 C 0.18050 0.69733 -0.11600
 C1359 C 0.19116 0.70374 -0.09881
 C1360 C 0.18273 0.71821 -0.08740
 C1361 C 0.19223 0.72487 -0.07116
 C1362 C 0.21047 0.71713 -0.06587
 C1363 C 0.21909 0.70293 -0.07747
 C1364 C 0.20959 0.69627 -0.09376
 C1365 C 0.22126 0.72428 -0.04902
 C1366 C 0.21236 0.73440 -0.03431
 H1367 H 0.16837 0.70629 -0.12082
 H1368 H 0.16872 0.72445 -0.09108
 H1369 H 0.18532 0.73642 -0.06317
 H1370 H 0.23327 0.69699 -0.07396
 H1371 H 0.21697 0.68560 -0.10243
 H1372 H 0.23679 0.72194 -0.04843
 H1373 H 0.19617 0.67036 -0.12073
 H1374 H 0.19682 0.73628 -0.03426
 C1375 C 0.18691 0.17039 0.38282
 C1376 C 0.18115 0.18727 0.39244
 C1377 C 0.19129 0.19445 0.40952
 C1378 C 0.18164 0.20740 0.42170
 C1379 C 0.19107 0.21496 0.43762
 C1380 C 0.21047 0.20983 0.44150
 C1381 C 0.22006 0.19686 0.42932
 C1382 C 0.21068 0.18936 0.41344
 C1383 C 0.22143 0.21759 0.45784
 C1384 C 0.21587 0.23391 0.46844
 H1385 H 0.16877 0.19563 0.38725
 H1386 H 0.16674 0.21163 0.41890
 H1387 H 0.18303 0.22464 0.44680
 H1388 H 0.23504 0.19278 0.43190
 H1389 H 0.21889 0.18003 0.40408
 H1390 H 0.23529 0.21069 0.46100
 H1391 H 0.19833 0.16107 0.38850
 H1392 H 0.20239 0.24157 0.46560
 C1393 C 0.33610 0.37246 0.68941
 C1394 C 0.31990 0.38445 0.68621
 C1395 C 0.31391 0.40080 0.69869
 C1396 C 0.29529 0.40882 0.69625
 C1397 C 0.28893 0.42436 0.70747
 C1398 C 0.30122 0.43248 0.72129
 C1399 C 0.31978 0.42437 0.72388
 C1400 C 0.32616 0.40878 0.71264
 C1401 C 0.29497 0.44897 0.73350
 C1402 C 0.27976 0.46168 0.72864
 H1403 H 0.31074 0.38140 0.67408
 H1404 H 0.28553 0.40292 0.68568
 H1405 H 0.27427 0.42965 0.70541
 H1406 H 0.32948 0.43026 0.73450
 H1407 H 0.34074 0.40335 0.71482
 H1408 H 0.30278 0.45133 0.74663
 H1409 H 0.34518 0.37450 0.70174
 H1410 H 0.27244 0.46029 0.71514
 C1411 C 0.33482 0.87137 0.17920
 C1412 C 0.31780 0.88153 0.17460
 C1413 C 0.30994 0.89760 0.18651
 C1414 C 0.29754 0.91167 0.17822
 C1415 C 0.28982 0.92700 0.18899
 C1416 C 0.29407 0.92838 0.20847
 C1417 C 0.30664 0.91444 0.21673
 C1418 C 0.31437 0.89911 0.20595
 C1419 C 0.28568 0.94414 0.22043
 C1420 C 0.26803 0.95317 0.21601
 H1421 H 0.31046 0.87823 0.16140
 H1422 H 0.29398 0.91095 0.16328
 H1423 H 0.28077 0.93785 0.18190
 H1424 H 0.31022 0.91520 0.23166
 H1425 H 0.32346 0.88832 0.21306
 H1426 H 0.29302 0.94796 0.23349
 H1427 H 0.34300 0.87544 0.19165
 H1428 H 0.25988 0.94825 0.20382
 C1429 C 0.82825 0.37215 0.18521
 C1430 C 0.81076 0.38024 0.17862
 C1431 C 0.79996 0.39620 0.18829
 C1432 C 0.78529 0.40629 0.17824
 C1433 C 0.77459 0.42132 0.18678
 C1434 C 0.77822 0.42648 0.20572
 C1435 C 0.79287 0.41638 0.21577
 C1436 C 0.80355 0.40135 0.20724
 C1437 C 0.76756 0.44251 0.21539
 C1438 C 0.74999 0.45060 0.20905
 H1439 H 0.80482 0.37493 0.16539
 H1440 H 0.78219 0.40264 0.16363
 H1441 H 0.76377 0.42898 0.17836
 H1442 H 0.79598 0.42004 0.23037
 H1443 H 0.81435 0.39372 0.21571
 H1444 H 0.77367 0.44787 0.22854
 H1445 H 0.83508 0.37770 0.19787
 H1446 H 0.74290 0.44500 0.19653
 C1447 C 0.82187 0.88184 0.68154
 C1448 C 0.82900 0.89026 0.69808
 C1449 C 0.81893 0.90640 0.70803
 C1450 C 0.82953 0.91805 0.72064
 C1451 C 0.82046 0.93312 0.73067
 C1452 C 0.80047 0.93663 0.72847
 C1453 C 0.78991 0.92511 0.71574
 C1454 C 0.79897 0.91004 0.70572
 C1455 C 0.79017 0.95205 0.73917
 C1456 C 0.79681 0.95912 0.75649
 H1457 H 0.84269 0.88505 0.70386
 H1458 H 0.84492 0.91555 0.72265
 H1459 H 0.82923 0.94205 0.73993
 H1460 H 0.77450 0.92751 0.71383
 H1461 H 0.79013 0.90105 0.69659
 H1462 H 0.77627 0.95715 0.73379
 H1463 H 0.80886 0.88761 0.67487
 H1464 H 0.81005 0.95339 0.76273
 C1465 C 0.68218 0.62119 0.68693
 C1466 C 0.67099 0.60787 0.69699
 C1467 C 0.67975 0.58973 0.70512
 C1468 C 0.67209 0.58147 0.72162
 C1469 C 0.68096 0.56503 0.73011
 C1470 C 0.69768 0.55650 0.72212
 C1471 C 0.70457 0.56412 0.70500
 C1472 C 0.69571 0.58049 0.69655
 C1473 C 0.70852 0.53995 0.73110
 C1474 C 0.70607 0.53410 0.74985
 H1475 H 0.65574 0.61086 0.69910
 H1476 H 0.65949 0.58801 0.72818
 H1477 H 0.67461 0.55922 0.74286
 H1478 H 0.71708 0.55759 0.69826
 H1479 H 0.70142 0.58583 0.68328
 H1480 H 0.71973 0.53280 0.72293
 H1481 H 0.69762 0.61865 0.68581
 H1482 H 0.69537 0.54118 0.75861
 C1483 C 0.66915 0.13529 0.18385
 C1484 C 0.68590 0.12487 0.17909
 C1485 C 0.69366 0.10767 0.18985
 C1486 C 0.68763 0.10284 0.20830
 C1487 C 0.69588 0.08677 0.21801
 C1488 C 0.71036 0.07523 0.20949
 C1489 C 0.71635 0.08015 0.19114
 C1490 C 0.70813 0.09615 0.18146
 C1491 C 0.72021 0.05853 0.21928
 C1492 C 0.71437 0.05006 0.23639
 H1493 H 0.69364 0.12930 0.16650
 H1494 H 0.67692 0.11159 0.21554
 H1495 H 0.69113 0.08383 0.23227
 H1496 H 0.72756 0.07163 0.18426
 H1497 H 0.71317 0.09957 0.16735
 H1498 H 0.73291 0.05246 0.21247
 H1499 H 0.66054 0.13079 0.19580
 H1500 H 0.70141 0.05506 0.24342
 C1501 C 0.16265 0.63662 0.17744
 C1502 C 0.17855 0.62485 0.17302
 C1503 C 0.18478 0.60837 0.18559
 C1504 C 0.19308 0.59148 0.17765
 C1505 C 0.19802 0.57526 0.18903
 C1506 C 0.19514 0.57575 0.20875
 C1507 C 0.18701 0.59273 0.21671
 C1508 C 0.18204 0.60893 0.20532
 C1509 C 0.20066 0.55901 0.22135
 C1510 C 0.21544 0.54585 0.21675
 H1511 H 0.18528 0.62647 0.15931
 H1512 H 0.19530 0.59066 0.16251
 H1513 H 0.20372 0.56227 0.18223
 H1514 H 0.18472 0.59357 0.23183
 H1515 H 0.17621 0.62191 0.21206
 H1516 H 0.19422 0.55809 0.23526
 H1517 H 0.15480 0.63367 0.19033
 H1518 H 0.22309 0.54771 0.20358
 C1519 C 0.17549 0.12415 0.68178
 C1520 C 0.19320 0.11482 0.67850
 C1521 C 0.20029 0.09786 0.68986
 C1522 C 0.21354 0.08469 0.68177
 C1523 C 0.22043 0.06839 0.69201
 C1524 C 0.21436 0.06508 0.71073
 C1525 C 0.20124 0.07840 0.71884
 C1526 C 0.19433 0.09465 0.70860
 C1527 C 0.22115 0.04812 0.72236
 C1528 C 0.23597 0.03515 0.71726
 H1529 H 0.20168 0.11933 0.66641
 H1530 H 0.21838 0.08688 0.66737
 H1531 H 0.23031 0.05848 0.68503
 H1532 H 0.19639 0.07631 0.73326
 H1533 H 0.18459 0.10477 0.71554
 H1534 H 0.21446 0.04611 0.73606
 H1535 H 0.16613 0.11891 0.69289
 H1536 H 0.24350 0.03682 0.70402
 C1537 C 0.32861 0.62810 0.31688
 C1538 C 0.30977 0.62243 0.32092
 C1539 C 0.30033 0.60666 0.30990
 C1540 C 0.28701 0.59420 0.31867
 C1541 C 0.27876 0.57862 0.30866
 C1542 C 0.28344 0.57545 0.28951
 C1543 C 0.29642 0.58823 0.28068
 C1544 C 0.30464 0.60375 0.29067
 C1545 C 0.27544 0.55891 0.27842
 C1546 C 0.25833 0.54945 0.28317
 H1547 H 0.30215 0.62911 0.33261
 H1548 H 0.28339 0.59620 0.33342
 H1549 H 0.26914 0.56890 0.31615
 H1550 H 0.30013 0.58628 0.26594
 H1551 H 0.31430 0.61353 0.28324
 H1552 H 0.28282 0.55459 0.26560
 H1553 H 0.33659 0.62011 0.30622
 H1554 H 0.25011 0.55431 0.29525
 C1555 C 0.32615 0.12571 0.82545
 C1556 C 0.33023 0.11399 0.80980
 C1557 C 0.31863 0.09663 0.80427
 C1558 C 0.32635 0.08349 0.79103
 C1559 C 0.31581 0.06717 0.78502
 C1560 C 0.29715 0.06362 0.79212
 C1561 C 0.28943 0.07679 0.80534
 C1562 C 0.29995 0.09313 0.81132
 C1563 C 0.28497 0.04692 0.78581
 C1564 C 0.29078 0.03270 0.77280
 H1565 H 0.34273 0.11753 0.80130
 H1566 H 0.34061 0.08589 0.78524
 H1567 H 0.32244 0.05768 0.77471
 H1568 H 0.27505 0.07459 0.81093
 H1569 H 0.29312 0.10307 0.82113
 H1570 H 0.27039 0.04612 0.79129
 H1571 H 0.31432 0.12208 0.83472
 H1572 H 0.30517 0.03279 0.76697
 C1573 C 0.81967 0.62630 0.83383
 C1574 C 0.82248 0.61168 0.82040
 C1575 C 0.80927 0.59481 0.81812
 C1576 C 0.81646 0.57753 0.80998
 C1577 C 0.80437 0.56149 0.80698
 C1578 C 0.78462 0.56254 0.81169
 C1579 C 0.77750 0.57965 0.82027
 C1580 C 0.78965 0.59570 0.82337
 C1581 C 0.77116 0.54633 0.80720
 C1582 C 0.77431 0.53413 0.79175
 H1583 H 0.83538 0.61207 0.81178
 H1584 H 0.83152 0.57642 0.80594
 H1585 H 0.81059 0.54831 0.80098
 H1586 H 0.76237 0.58081 0.82405
 H1587 H 0.78346 0.60892 0.82932
 H1588 H 0.75782 0.54506 0.81506
 H1589 H 0.80770 0.62532 0.84356
 H1590 H 0.78678 0.53655 0.78289
 C1591 C 0.83600 0.13542 0.31644
 C1592 C 0.82097 0.12404 0.32353
 C1593 C 0.81295 0.10698 0.31328
 C1594 C 0.80320 0.09242 0.32354
 C1595 C 0.79509 0.07631 0.31430
 C1596 C 0.79631 0.07460 0.29450
 C1597 C 0.80622 0.08905 0.28428
 C1598 C 0.81434 0.10515 0.29351
 C1599 C 0.78739 0.05815 0.28404
 C1600 C 0.77191 0.04735 0.29103
 H1601 H 0.81523 0.12738 0.33738
 H1602 H 0.80198 0.09346 0.33878
 H1603 H 0.78808 0.06520 0.32279
 H1604 H 0.80735 0.08810 0.26903
 H1605 H 0.82125 0.11630 0.28500
 H1606 H 0.79227 0.05537 0.26975
 H1607 H 0.84281 0.13149 0.30325
 H1608 H 0.76594 0.05067 0.30475
 C1609 C 0.67181 0.36421 0.32891
 C1610 C 0.66576 0.37485 0.31293
 C1611 C 0.67595 0.39213 0.30502
 C1612 C 0.67104 0.39834 0.28663
 C1613 C 0.67997 0.41460 0.27844
 C1614 C 0.69391 0.42530 0.28860
 C1615 C 0.69901 0.41902 0.30694
 C1616 C 0.69006 0.40267 0.31516
 C1617 C 0.70372 0.44255 0.28014
 C1618 C 0.69541 0.45362 0.26546
 H1619 H 0.65313 0.36979 0.30525
 H1620 H 0.66036 0.39043 0.27843
 H1621 H 0.67613 0.41842 0.26401
 H1622 H 0.70981 0.42692 0.31500
 H1623 H 0.69408 0.39862 0.32948
 H1624 H 0.71783 0.44659 0.28558
 H1625 H 0.68476 0.36829 0.33655
 H1626 H 0.68086 0.45049 0.26069
 C1627 C 0.66843 0.86682 0.82289
 C1628 C 0.68492 0.87568 0.83059
 C1629 C 0.69440 0.89358 0.82297
 C1630 C 0.71267 0.89864 0.83021
 C1631 C 0.72224 0.91540 0.82375
 C1632 C 0.71365 0.92771 0.80993
 C1633 C 0.69536 0.92266 0.80268
 C1634 C 0.68578 0.90585 0.80913
 C1635 C 0.72340 0.94545 0.80225
 C1636 C 0.73987 0.95404 0.81026
 H1637 H 0.69165 0.86885 0.84290
 H1638 H 0.71969 0.88947 0.84086
 H1639 H 0.73645 0.91835 0.82948
 H1640 H 0.68839 0.93183 0.79200
 H1641 H 0.67162 0.90277 0.80336
 H1642 H 0.71725 0.95210 0.78957
 H1643 H 0.66159 0.87270 0.81025
 H1644 H 0.74609 0.94833 0.82327
 C1645 C 0.16492 0.37187 0.81185
 C1646 C 0.18189 0.38151 0.81713
 C1647 C 0.18984 0.39905 0.80749
 C1648 C 0.20929 0.40367 0.81085
 C1649 C 0.21755 0.42025 0.80261
 C1650 C 0.20640 0.43294 0.79102
 C1651 C 0.18697 0.42822 0.78741
 C1652 C 0.17870 0.41147 0.79562
 C1653 C 0.21483 0.45077 0.78218
 C1654 C 0.23136 0.45983 0.78938
 H1655 H 0.19044 0.37537 0.82869
 H1656 H 0.21825 0.39428 0.81982
 H1657 H 0.23276 0.42280 0.80519
 H1658 H 0.17811 0.43765 0.77841
 H1659 H 0.16357 0.40859 0.79290
 H1660 H 0.20781 0.45692 0.76970
 H1661 H 0.15648 0.37692 0.79979
 H1662 H 0.23789 0.45457 0.80243
 C1663 C 0.16346 0.86930 0.31369
 C1664 C 0.18010 0.87874 0.31988
 C1665 C 0.18836 0.89489 0.30843
 C1666 C 0.19669 0.91111 0.31739
 C1667 C 0.20308 0.92719 0.30671
 C1668 C 0.20148 0.92711 0.28681
 C1669 C 0.19360 0.91064 0.27789
 C1670 C 0.18729 0.89462 0.28853
 C1671 C 0.20772 0.94383 0.27488
 C1672 C 0.22223 0.95665 0.28044
 H1673 H 0.18628 0.87520 0.33363
 H1674 H 0.19766 0.91162 0.33269
 H1675 H 0.20875 0.93978 0.31412
 H1676 H 0.19242 0.91013 0.26260
 H1677 H 0.18154 0.88205 0.28112
 H1678 H 0.20192 0.94502 0.26062
 H1679 H 0.15647 0.87439 0.30077
 H1680 H 0.22930 0.95469 0.29404
 C1681 C 0.37958 0.31819 0.67204
 C1682 C 0.39101 0.32046 0.68820
 C1683 C 0.40827 0.30820 0.69270
 C1684 C 0.42066 0.31435 0.70726
 C1685 C 0.43689 0.30315 0.71239
 C1686 C 0.44120 0.28549 0.70294
 C1687 C 0.42869 0.27921 0.68852
 C1688 C 0.41239 0.29039 0.68342
 C1689 C 0.45785 0.27278 0.70845
 C1690 C 0.47330 0.27936 0.71943
 H1691 H 0.38731 0.33208 0.69800
 H1692 H 0.41769 0.32783 0.71483
 H1693 H 0.44562 0.30824 0.72409
 H1694 H 0.43147 0.26550 0.68124
 H1695 H 0.40299 0.28472 0.67251
 H1696 H 0.45769 0.25753 0.70408
 H1697 H 0.38318 0.30726 0.66158
 H1698 H 0.47429 0.29467 0.72332
 C1699 C 0.38617 0.82265 0.16936
 C1700 C 0.39599 0.82739 0.18598
 C1701 C 0.41306 0.81598 0.19257
 C1702 C 0.42717 0.82509 0.20377
 C1703 C 0.44350 0.81454 0.21003
 C1704 C 0.44580 0.79455 0.20537
 C1705 C 0.43153 0.78546 0.19435
 C1706 C 0.41529 0.79597 0.18813
 C1707 C 0.46262 0.78251 0.21160
 C1708 C 0.47548 0.78780 0.22595
 H1709 H 0.39136 0.84001 0.19412
 H1710 H 0.42570 0.84047 0.20746
 H1711 H 0.45426 0.82223 0.21826
 H1712 H 0.43284 0.77006 0.19070
 H1713 H 0.40436 0.78823 0.18013
 H1714 H 0.46432 0.76814 0.20522
 H1715 H 0.39168 0.81107 0.16040
 H1716 H 0.47396 0.80167 0.23320
 C1717 C 0.88265 0.32518 0.18067
 C1718 C 0.89171 0.33135 0.19735
 C1719 C 0.90957 0.32178 0.20500
 C1720 C 0.92170 0.33216 0.21743
 C1721 C 0.93871 0.32347 0.22469
 C1722 C 0.94381 0.30410 0.21974
 C1723 C 0.93150 0.29369 0.20757
 C1724 C 0.91456 0.30230 0.20042
 C1725 C 0.96172 0.29405 0.22652
 C1726 C 0.97341 0.30004 0.24167
 H1727 H 0.88585 0.34392 0.20478
 H1728 H 0.91812 0.34713 0.22132
 H1729 H 0.94788 0.33206 0.23388
 H1730 H 0.93494 0.27869 0.20366
 H1731 H 0.90532 0.29344 0.19154
 H1732 H 0.96538 0.28033 0.21964
 H1733 H 0.88912 0.31357 0.17240
 H1734 H 0.96997 0.31319 0.24953
 C1735 C 0.87405 0.83284 0.67964
 C1736 C 0.88346 0.81606 0.67291
 C1737 C 0.90135 0.80788 0.68186
 C1738 C 0.91335 0.79534 0.67137
 C1739 C 0.93032 0.78738 0.67938
 C1740 C 0.93552 0.79167 0.69821
 C1741 C 0.92352 0.80420 0.70867
 C1742 C 0.90656 0.81205 0.70071
 C1743 C 0.95319 0.78347 0.70749
 C1744 C 0.96242 0.76623 0.70166
 H1745 H 0.87787 0.80901 0.66032
 H1746 H 0.90969 0.79183 0.65685
 H1747 H 0.93936 0.77813 0.67067
 H1748 H 0.92711 0.80766 0.72321
 H1749 H 0.89747 0.82106 0.70959
 H1750 H 0.95825 0.79045 0.72033
 H1751 H 0.88010 0.84077 0.69146
 H1752 H 0.95692 0.75824 0.68961
 C1753 C 0.61824 0.31800 0.32195
 C1754 C 0.60783 0.30114 0.32662
 C1755 C 0.59052 0.29465 0.31582
 C1756 C 0.57747 0.28168 0.32442
 C1757 C 0.56098 0.27527 0.31466
 C1758 C 0.55733 0.28159 0.29596
 C1759 C 0.57045 0.29444 0.28736
 C1760 C 0.58691 0.30078 0.29706
 C1761 C 0.54007 0.27548 0.28494
 C1762 C 0.52873 0.25913 0.28919
 H1763 H 0.61217 0.29266 0.33899
 H1764 H 0.57992 0.27667 0.33883
 H1765 H 0.55109 0.26566 0.32195
 H1766 H 0.56806 0.29945 0.27294
 H1767 H 0.59684 0.31021 0.28961
 H1768 H 0.53677 0.28373 0.27212
 H1769 H 0.61348 0.32733 0.31036
 H1770 H 0.53217 0.24986 0.30126
 C1771 C 0.61897 0.81455 0.82410
 C1772 C 0.60987 0.81987 0.80711
 C1773 C 0.59297 0.80890 0.79965
 C1774 C 0.58970 0.80811 0.78004
 C1775 C 0.57448 0.79697 0.77262
 C1776 C 0.56203 0.78659 0.78474
 C1777 C 0.56503 0.78784 0.80435
 C1778 C 0.58019 0.79897 0.81175
 C1779 C 0.54629 0.77376 0.77766
 C1780 C 0.53858 0.77480 0.75937
 H1781 H 0.61607 0.83139 0.79846
 H1782 H 0.59927 0.81568 0.77042
 H1783 H 0.57294 0.79617 0.75741
 H1784 H 0.55560 0.78014 0.81403
 H1785 H 0.58175 0.79978 0.82696
 H1786 H 0.54020 0.76325 0.78750
 H1787 H 0.61376 0.80197 0.83194
 H1788 H 0.54353 0.78587 0.74952
 C1789 C 0.12051 0.31586 0.81865
 C1790 C 0.10943 0.32088 0.80272
 C1791 C 0.09289 0.30891 0.79609
 C1792 C 0.08698 0.31033 0.77709
 C1793 C 0.07180 0.29883 0.77020
 C1794 C 0.06203 0.28578 0.78231
 C1795 C 0.06773 0.28468 0.80139
 C1796 C 0.08286 0.29617 0.80827
 C1797 C 0.04619 0.27278 0.77578
 C1798 C 0.03715 0.27409 0.75807
 H1799 H 0.11364 0.33343 0.79423
 H1800 H 0.09437 0.32013 0.76745
 H1801 H 0.06813 0.30009 0.75536
 H1802 H 0.06041 0.27487 0.81108
 H1803 H 0.08644 0.29511 0.82316
 H1804 H 0.04120 0.26168 0.78563
 H1805 H 0.11731 0.30266 0.82661
 H1806 H 0.04118 0.28530 0.74798
 C1807 C 0.11175 0.82250 0.31285
 C1808 C 0.10120 0.80617 0.31852
 C1809 C 0.08504 0.79902 0.30669
 C1810 C 0.06864 0.79094 0.31520
 C1811 C 0.05272 0.78541 0.30413
 C1812 C 0.05315 0.78763 0.28429
 C1813 C 0.06981 0.79517 0.27583
 C1814 C 0.08564 0.80063 0.28685
 C1815 C 0.03661 0.78267 0.27187
 C1816 C 0.02184 0.76997 0.27706
 H1817 H 0.10421 0.79921 0.33207
 H1818 H 0.06791 0.78948 0.33046
 H1819 H 0.04004 0.77993 0.31122
 H1820 H 0.07061 0.79684 0.26060
 H1821 H 0.09836 0.80613 0.27977
 H1822 H 0.03672 0.78837 0.25751
 H1823 H 0.10744 0.83038 0.30011
 H1824 H 0.02189 0.76304 0.29087
 C1825 C 0.63060 0.66968 0.67088
 C1826 C 0.61893 0.66494 0.68627
 C1827 C 0.60065 0.67555 0.69070
 C1828 C 0.58739 0.66671 0.70299
 C1829 C 0.57036 0.67654 0.70812
 C1830 C 0.56634 0.69562 0.70120
 C1831 C 0.57947 0.70434 0.68871
 C1832 C 0.59649 0.69453 0.68361
 C1833 C 0.54886 0.70696 0.70677
 C1834 C 0.53868 0.70335 0.72340
 H1835 H 0.62332 0.65290 0.69550
 H1836 H 0.59020 0.65211 0.70865
 H1837 H 0.56041 0.66905 0.71738
 H1838 H 0.57677 0.71902 0.68320
 H1839 H 0.60650 0.70219 0.67454
 H1840 H 0.54482 0.71966 0.69824
 H1841 H 0.62599 0.68088 0.66086
 H1842 H 0.54325 0.69162 0.73287
 C1843 C 0.62130 0.18821 0.17334
 C1844 C 0.61075 0.18304 0.18936
 C1845 C 0.59287 0.19328 0.19561
 C1846 C 0.58223 0.18475 0.21030
 C1847 C 0.56550 0.19384 0.21706
 C1848 C 0.55886 0.21174 0.20917
 C1849 C 0.56962 0.22045 0.19464
 C1850 C 0.58643 0.21136 0.18788
 C1851 C 0.54147 0.22213 0.21639
 C1852 C 0.52736 0.21284 0.22717
 H1853 H 0.61573 0.17057 0.19774
 H1854 H 0.58696 0.17100 0.21672
 H1855 H 0.55819 0.18693 0.22879
 H1856 H 0.56504 0.23440 0.18853
 H1857 H 0.59434 0.21881 0.17687
 H1858 H 0.53992 0.23772 0.21340
 H1859 H 0.61657 0.20019 0.16429
 H1860 H 0.52811 0.19715 0.22964
 C1861 C 0.10921 0.68175 0.16327
 C1862 C 0.09959 0.67712 0.17994
 C1863 C 0.08231 0.68817 0.18615
 C1864 C 0.06918 0.67915 0.19842
 C1865 C 0.05290 0.68944 0.20478
 C1866 C 0.04966 0.70910 0.19913
 C1867 C 0.06287 0.71807 0.18692
 C1868 C 0.07908 0.70783 0.18060
 C1869 C 0.03304 0.72101 0.20568
 C1870 C 0.02092 0.71579 0.22055
 H1871 H 0.10481 0.66502 0.18869
 H1872 H 0.07146 0.66407 0.20298
 H1873 H 0.04299 0.68184 0.21397
 H1874 H 0.06082 0.73323 0.18247
 H1875 H 0.08924 0.71556 0.17174
 H1876 H 0.03090 0.73528 0.19904
 H1877 H 0.10328 0.69277 0.15371
 H1878 H 0.02257 0.70185 0.22783
 C1879 C 0.12301 0.16968 0.66381
 C1880 C 0.11166 0.16421 0.67920
 C1881 C 0.09326 0.17415 0.68432
 C1882 C 0.08158 0.16548 0.69819
 C1883 C 0.06483 0.17499 0.70447
 C1884 C 0.05950 0.19352 0.69708
 C1885 C 0.07081 0.20191 0.68281
 C1886 C 0.08758 0.19246 0.67658
 C1887 C 0.04259 0.20472 0.70407
 C1888 C 0.03508 0.20222 0.72219
 H1889 H 0.11676 0.15237 0.68833
 H1890 H 0.08553 0.15136 0.70435
 H1891 H 0.05615 0.16775 0.71507
 H1892 H 0.06698 0.21616 0.67685
 H1893 H 0.09621 0.19995 0.66615
 H1894 H 0.03697 0.21660 0.69527
 H1895 H 0.11799 0.18078 0.65389
 H1896 H 0.04119 0.19128 0.73172
 C1897 C 0.38382 0.67108 0.31545
 C1898 C 0.39370 0.68838 0.31942
 C1899 C 0.41073 0.69472 0.30842
 C1900 C 0.42381 0.70800 0.31647
 C1901 C 0.43979 0.71455 0.30621
 C1902 C 0.44286 0.70799 0.28762
 C1903 C 0.42971 0.69484 0.27955
 C1904 C 0.41376 0.68835 0.28974
 C1905 C 0.45920 0.71491 0.27609
 C1906 C 0.47204 0.72906 0.28237
 H1907 H 0.38887 0.69757 0.33097
 H1908 H 0.42168 0.71330 0.33074
 H1909 H 0.44963 0.72479 0.31281
 H1910 H 0.43161 0.68976 0.26518
 H1911 H 0.40363 0.67875 0.28271
 H1912 H 0.46078 0.70925 0.26186
 H1913 H 0.38925 0.66112 0.30483
 H1914 H 0.48062 0.73326 0.27530
 C1915 C 0.38021 0.17048 0.81344
 C1916 C 0.39151 0.18690 0.81751
 C1917 C 0.40841 0.19284 0.80605
 C1918 C 0.42237 0.20516 0.81415
 C1919 C 0.43843 0.21123 0.80374
 C1920 C 0.44072 0.20527 0.78485
 C1921 C 0.42672 0.19299 0.77676
 C1922 C 0.41069 0.18693 0.78715
 C1923 C 0.45739 0.21124 0.77308
 C1924 C 0.46995 0.22659 0.77748
 H1925 H 0.38822 0.19545 0.82999
 H1926 H 0.42095 0.20996 0.82867
 H1927 H 0.44902 0.22035 0.81070
 H1928 H 0.42806 0.18822 0.76222
 H1929 H 0.40003 0.17793 0.78014
 H1930 H 0.45938 0.20364 0.75979
 H1931 H 0.38394 0.16100 0.80178
 H1932 H 0.46800 0.23515 0.79017
 C1933 C 0.87546 0.66517 0.81278
 C1934 C 0.88821 0.68087 0.81494
 C1935 C 0.90431 0.68565 0.80193
 C1936 C 0.91668 0.70110 0.80690
 C1937 C 0.93187 0.70659 0.79512
 C1938 C 0.93506 0.69674 0.77797
 C1939 C 0.92281 0.68121 0.77299
 C1940 C 0.90755 0.67572 0.78479
 C1941 C 0.95072 0.70267 0.76496
 C1942 C 0.96202 0.71905 0.76854
 H1943 H 0.88637 0.69034 0.82709
 H1944 H 0.91455 0.70906 0.81996
 H1945 H 0.94101 0.71863 0.79945
 H1946 H 0.92491 0.67344 0.75982
 H1947 H 0.89833 0.66389 0.78021
 H1948 H 0.95291 0.69450 0.75201
 H1949 H 0.87692 0.65504 0.80117
 H1950 H 0.97030 0.72241 0.76071
 C1951 C 0.88135 0.18922 0.31736
 C1952 C 0.89346 0.20304 0.32566
 C1953 C 0.91036 0.21086 0.31523
 C1954 C 0.92736 0.21553 0.32514
 C1955 C 0.94389 0.22160 0.31540
 C1956 C 0.94362 0.22343 0.29552
 C1957 C 0.92648 0.21910 0.28570
 C1958 C 0.91001 0.21306 0.29541
 C1959 C 0.96074 0.22975 0.28450
 C1960 C 0.97581 0.24065 0.29226
 H1961 H 0.89169 0.20664 0.34046
 H1962 H 0.92802 0.21393 0.34039
 H1963 H 0.95689 0.22439 0.32352
 H1964 H 0.92579 0.22052 0.27042
 H1965 H 0.89699 0.21019 0.28731
 H1966 H 0.96068 0.22717 0.26938
 H1967 H 0.88452 0.18420 0.30320
 H1968 H 0.97542 0.24477 0.30701
 C1969 C 0.32295 0.33347 0.63261
 C1970 C 0.32805 0.31894 0.61967
 C1971 C 0.31583 0.31320 0.60340
 C1972 C 0.32444 0.30273 0.58860
 C1973 C 0.31335 0.29617 0.57335
 C1974 C 0.29328 0.29972 0.57275
 C1975 C 0.28471 0.31049 0.58738
 C1976 C 0.29582 0.31708 0.60264
 C1977 C 0.28085 0.29244 0.55722
 C1978 C 0.28596 0.27658 0.54582
 H1979 H 0.34190 0.31151 0.62135
 H1980 H 0.33985 0.29961 0.58883
 H1981 H 0.32064 0.28847 0.56208
 H1982 H 0.26928 0.31345 0.58722
 H1983 H 0.28853 0.32470 0.61396
 H1984 H 0.26663 0.29906 0.55545
 H1985 H 0.30985 0.34207 0.63065
 H1986 H 0.29955 0.26888 0.54800
 C1987 C 0.33351 0.82617 0.12417
 C1988 C 0.31539 0.83155 0.11701
 C1989 C 0.30696 0.82125 0.10049
 C1990 C 0.29450 0.83139 0.08801
 C1991 C 0.28698 0.82201 0.07200
 C1992 C 0.29155 0.80214 0.06837
 C1993 C 0.30379 0.79199 0.08102
 C1994 C 0.31127 0.80133 0.09697
 C1995 C 0.28381 0.79143 0.05177
 C1996 C 0.26668 0.79686 0.04257
 H1997 H 0.30762 0.84383 0.12313
 H1998 H 0.29091 0.84669 0.09044
 H1999 H 0.27790 0.83049 0.06241
 H2000 H 0.30738 0.77665 0.07870
 H2001 H 0.32022 0.79279 0.10665
 H2002 H 0.29091 0.77784 0.04771
 H2003 H 0.34183 0.81499 0.11694
 H2004 H 0.25862 0.80960 0.04728
 C2005 C 0.83175 0.32513 0.13246
 C2006 C 0.81488 0.33241 0.12384
 C2007 C 0.80607 0.32371 0.10663
 C2008 C 0.79330 0.33523 0.09561
 C2009 C 0.78430 0.32747 0.07954
 C2010 C 0.78767 0.30780 0.07428
 C2011 C 0.80054 0.29633 0.08526
 C2012 C 0.80957 0.30411 0.10129
 C2013 C 0.77813 0.29865 0.05765
 C2014 C 0.76173 0.30644 0.04855
 H2015 H 0.80807 0.34544 0.12962
 H2016 H 0.79035 0.35038 0.09939
 H2017 H 0.77490 0.33704 0.07131
 H2018 H 0.80338 0.28113 0.08159
 H2019 H 0.81889 0.29455 0.10965
 H2020 H 0.78365 0.28452 0.05302
 H2021 H 0.83954 0.31297 0.12623
 H2022 H 0.75527 0.32005 0.05328
 C2023 C 0.82064 0.83262 0.63232
 C2024 C 0.82659 0.81566 0.62303
 C2025 C 0.81544 0.80740 0.60699
 C2026 C 0.82505 0.79579 0.59365
 C2027 C 0.81497 0.78794 0.57827
 C2028 C 0.79492 0.79127 0.57611
 C2029 C 0.78531 0.80290 0.58942
 C2030 C 0.79538 0.81072 0.60482
 C2031 C 0.78375 0.78273 0.56023
 C2032 C 0.78931 0.76514 0.55184
 H2033 H 0.84015 0.80867 0.62712
 H2034 H 0.84046 0.79300 0.59500
 H2035 H 0.82302 0.77953 0.56800
 H2036 H 0.76989 0.80562 0.58811
 H2037 H 0.78728 0.81901 0.61514
 H2038 H 0.77035 0.78982 0.55579
 H2039 H 0.80787 0.84049 0.62742
 H2040 H 0.80188 0.75725 0.55722
 C2041 C 0.33306 0.68393 0.36179
 C2042 C 0.31605 0.68000 0.37158
 C2043 C 0.30924 0.69255 0.38737
 C2044 C 0.29736 0.68438 0.40134
 C2045 C 0.29105 0.69573 0.41662
 C2046 C 0.29631 0.71564 0.41810
 C2047 C 0.30807 0.72381 0.40404
 C2048 C 0.31435 0.71249 0.38879
 C2049 C 0.29012 0.72832 0.43404
 C2050 C 0.27451 0.72407 0.44575
 H2051 H 0.30807 0.66679 0.36829
 H2052 H 0.29323 0.66907 0.40061
 H2053 H 0.28241 0.68866 0.42733
 H2054 H 0.31230 0.73910 0.40476
 H2055 H 0.32298 0.71957 0.37806
 H2056 H 0.29761 0.74210 0.43605
 H2057 H 0.34187 0.69628 0.36593
 H2058 H 0.26600 0.71103 0.44338
 C2059 C 0.33525 0.18310 0.86581
 C2060 C 0.31841 0.17852 0.87568
 C2061 C 0.31037 0.18996 0.89160
 C2062 C 0.29154 0.18558 0.89747
 C2063 C 0.28327 0.19531 0.91273
 C2064 C 0.29378 0.20954 0.92275
 C2065 C 0.31246 0.21432 0.91668
 C2066 C 0.32078 0.20455 0.90129
 C2067 C 0.28529 0.21975 0.93922
 C2068 C 0.27118 0.21098 0.95040
 H2069 H 0.31018 0.16588 0.87115
 H2070 H 0.28310 0.17458 0.89015
 H2071 H 0.26854 0.19178 0.91645
 H2072 H 0.32075 0.22537 0.92407
 H2073 H 0.33538 0.20827 0.89736
 H2074 H 0.29033 0.23435 0.94267
 H2075 H 0.34358 0.19597 0.86933
 H2076 H 0.26714 0.19587 0.94786
 C2077 C 0.83922 0.68429 0.86941
 C2078 C 0.82568 0.68018 0.88342
 C2079 C 0.82143 0.69314 0.89961
 C2080 C 0.81152 0.68516 0.91506
 C2081 C 0.80617 0.69695 0.93026
 C2082 C 0.81039 0.71715 0.93019
 C2083 C 0.82078 0.72507 0.91500
 C2084 C 0.82616 0.71324 0.89976
 C2085 C 0.80394 0.73026 0.94558
 C2086 C 0.78759 0.72633 0.95639
 H2087 H 0.81794 0.66640 0.88275
 H2088 H 0.80783 0.66970 0.91536
 H2089 H 0.79880 0.69014 0.94202
 H2090 H 0.82427 0.74057 0.91468
 H2091 H 0.83349 0.72004 0.88798
 H2092 H 0.81141 0.74406 0.94753
 H2093 H 0.84815 0.69724 0.87025
 H2094 H 0.77910 0.71335 0.95364
 C2095 C 0.83359 0.18132 0.36936
 C2096 C 0.83765 0.19863 0.37910
 C2097 C 0.82622 0.20476 0.39587
 C2098 C 0.83465 0.21680 0.40970
 C2099 C 0.82418 0.22244 0.42575
 C2100 C 0.80492 0.21633 0.42815
 C2101 C 0.79645 0.20458 0.41416
 C2102 C 0.80685 0.19900 0.39817
 C2103 C 0.79313 0.22150 0.44495
 C2104 C 0.79731 0.23680 0.45741
 H2105 H 0.84968 0.20761 0.37465
 H2106 H 0.84949 0.22156 0.40824
 H2107 H 0.83138 0.23127 0.43630
 H2108 H 0.78160 0.19979 0.41551
 H2109 H 0.79950 0.19039 0.38754
 H2110 H 0.77983 0.21345 0.44702
 H2111 H 0.82252 0.17164 0.37471
 H2112 H 0.80986 0.24590 0.45522
 C2113 C 0.66602 0.30879 0.37335
 C2114 C 0.68260 0.31451 0.38329
 C2115 C 0.69117 0.30387 0.39979
 C2116 C 0.70799 0.31155 0.40810
 C2117 C 0.71695 0.30209 0.42346
 C2118 C 0.70918 0.28472 0.43106
 C2119 C 0.69242 0.27695 0.42273
 C2120 C 0.68344 0.28641 0.40731
 C2121 C 0.71855 0.27393 0.44704
 C2122 C 0.73207 0.28241 0.45924
 H2123 H 0.68996 0.32767 0.37859
 H2124 H 0.71438 0.32487 0.40256
 H2125 H 0.73018 0.30831 0.42894
 H2126 H 0.68622 0.26349 0.42819
 H2127 H 0.67058 0.27983 0.40143
 H2128 H 0.71460 0.25871 0.44932
 H2129 H 0.65810 0.29585 0.37748
 H2130 H 0.73557 0.29782 0.45794
 C2131 C 0.66898 0.81574 0.87268
 C2132 C 0.68590 0.82269 0.88113
 C2133 C 0.69513 0.81331 0.89796
 C2134 C 0.70855 0.82409 0.90860
 C2135 C 0.71772 0.81571 0.92446
 C2136 C 0.71377 0.79621 0.92988
 C2137 C 0.70032 0.78545 0.91928
 C2138 C 0.69122 0.79379 0.90341
 C2139 C 0.72319 0.78659 0.94643
 C2140 C 0.74094 0.79245 0.95393
 H2141 H 0.69247 0.83586 0.87544
 H2142 H 0.71184 0.83913 0.90472
 H2143 H 0.72763 0.82466 0.93251
 H2144 H 0.69708 0.77039 0.92312
 H2145 H 0.68146 0.78469 0.89536
 H2146 H 0.71646 0.77351 0.95216
 H2147 H 0.66153 0.80330 0.87869
 H2148 H 0.74861 0.80469 0.94775
 C2149 C 0.17404 0.32432 0.86354
 C2150 C 0.16922 0.30739 0.87368
 C2151 C 0.18032 0.30004 0.89035
 C2152 C 0.17152 0.28657 0.90265
 C2153 C 0.18157 0.27903 0.91838
 C2154 C 0.20078 0.28467 0.92200
 C2155 C 0.20953 0.29821 0.90976
 C2156 C 0.19951 0.30573 0.89404
 C2157 C 0.21213 0.27703 0.93836
 C2158 C 0.20778 0.25973 0.94813
 H2159 H 0.15640 0.29936 0.86954
 H2160 H 0.15675 0.28198 0.90016
 H2161 H 0.17410 0.26903 0.92772
 H2162 H 0.22431 0.30279 0.91222
 H2163 H 0.20706 0.31565 0.88471
 H2164 H 0.22514 0.28488 0.94225
 H2165 H 0.18613 0.33323 0.86794
 H2166 H 0.19554 0.25090 0.94396
 C2167 C 0.15936 0.81903 0.36476
 C2168 C 0.17593 0.82519 0.37438
 C2169 C 0.18391 0.81504 0.39144
 C2170 C 0.19696 0.82513 0.40310
 C2171 C 0.20540 0.81589 0.41890
 C2172 C 0.20118 0.79615 0.42324
 C2173 C 0.18783 0.78618 0.41183
 C2174 C 0.17938 0.79542 0.39602
 C2175 C 0.21056 0.78548 0.43931
 C2176 C 0.22852 0.79082 0.44673
 H2177 H 0.18323 0.83827 0.36941
 H2178 H 0.20063 0.84027 0.40000
 H2179 H 0.21510 0.82434 0.42768
 H2180 H 0.18427 0.77100 0.41487
 H2181 H 0.16976 0.78690 0.38725
 H2182 H 0.20386 0.77216 0.44448
 H2183 H 0.15115 0.80675 0.37010
 H2184 H 0.23610 0.80324 0.44079
 C2185 C 0.69099 0.66624 0.63490
 C2186 C 0.68454 0.67882 0.62054
 C2187 C 0.69697 0.68437 0.60444
 C2188 C 0.68822 0.69053 0.58743
 C2189 C 0.69950 0.69560 0.57186
 C2190 C 0.71984 0.69488 0.57312
 C2191 C 0.72859 0.68858 0.59005
 C2192 C 0.71733 0.68362 0.60565
 C2193 C 0.73224 0.70133 0.55735
 C2194 C 0.72620 0.71594 0.54474
 H2195 H 0.66955 0.68360 0.62037
 H2196 H 0.67259 0.69125 0.58614
 H2197 H 0.69222 0.69993 0.55887
 H2198 H 0.74421 0.68799 0.59137
 H2199 H 0.72469 0.67963 0.61868
 H2200 H 0.74714 0.69624 0.55701
 H2201 H 0.70538 0.65993 0.63437
 H2202 H 0.71193 0.72242 0.54609
 C2203 C 0.67680 0.18213 0.13109
 C2204 C 0.67099 0.19900 0.12112
 C2205 C 0.68159 0.20766 0.10497
 C2206 C 0.67723 0.22712 0.09970
 C2207 C 0.68662 0.23606 0.08453
 C2208 C 0.70046 0.22558 0.07402
 C2209 C 0.70487 0.20610 0.07931
 C2210 C 0.69549 0.19715 0.09457
 C2211 C 0.71087 0.23465 0.05792
 C2212 C 0.70419 0.25142 0.04830
 H2213 H 0.65828 0.20691 0.12589
 H2214 H 0.66663 0.23557 0.10750
 H2215 H 0.68316 0.25127 0.08142
 H2216 H 0.71551 0.19771 0.07150
 H2217 H 0.69900 0.18200 0.09791
 H2218 H 0.72418 0.22771 0.05332
 H2219 H 0.68991 0.17433 0.12736
 H2220 H 0.69046 0.25805 0.05193
 C2221 C 0.16400 0.68171 0.12155
 C2222 C 0.18358 0.68052 0.11720
 C2223 C 0.19157 0.69356 0.10234
 C2224 C 0.20590 0.68663 0.09008
 C2225 C 0.21238 0.69847 0.07513
 C2226 C 0.20488 0.71768 0.07245
 C2227 C 0.19110 0.72476 0.08522
 C2228 C 0.18458 0.71292 0.10001
 C2229 C 0.21056 0.73071 0.05649
 C2230 C 0.22639 0.72720 0.04485
 H2231 H 0.19290 0.66999 0.12443
 H2232 H 0.21160 0.67182 0.09170
 H2233 H 0.22287 0.69223 0.06559
 H2234 H 0.18523 0.73951 0.08370
 H2235 H 0.17401 0.71898 0.10963
 H2236 H 0.20216 0.74405 0.05412
 H2237 H 0.15480 0.69131 0.11303
 H2238 H 0.23563 0.71453 0.04729
 C2239 C 0.18445 0.17188 0.63025
 C2240 C 0.17659 0.18025 0.61388
 C2241 C 0.18843 0.19147 0.60047
 C2242 C 0.20146 0.20572 0.60694
 C2243 C 0.21144 0.21744 0.59403
 C2244 C 0.20902 0.21460 0.57454
 C2245 C 0.19626 0.20010 0.56806
 C2246 C 0.18578 0.18884 0.58097
 C2247 C 0.21898 0.22757 0.56111
 C2248 C 0.22806 0.22026 0.54510
 H2249 H 0.16144 0.17805 0.61050
 H2250 H 0.20340 0.20824 0.62196
 H2251 H 0.22108 0.22871 0.59924
 H2252 H 0.19394 0.19794 0.55304
 H2253 H 0.17561 0.17807 0.57576
 H2254 H 0.21992 0.24310 0.56433
 H2255 H 0.19998 0.17184 0.63249
 H2256 H 0.22932 0.20452 0.54307
   
