data_POSCAR
  _audit_creation_date              2014-09-24
  _audit_creation_method            'ToBaCCo'
  _symmetry_space_group_name_H-M    'P1'
  _symmetry_Int_Tables_number       1
  _symmetry_cell_setting            triclinic
  loop_
  _symmetry_equiv_pos_as_xyz
 x,y,z
_cell_length_a 52.3953
_cell_length_b 52.3582
_cell_length_c 44.8184
_cell_angle_alpha 89.674500
_cell_angle_beta 89.465700
_cell_angle_gamma 86.989000
loop_
  _atom_site_label
  _atom_site_type_symbol
  _atom_site_fract_x
  _atom_site_fract_y
  _atom_site_fract_z
C1 C 0.31703 -0.03562 0.22806
 C2 C 0.33009 -0.01304 0.22282
 C3 C 0.35002 -0.01330 0.20158
 C4 C 0.35773 -0.03589 0.18663
 C5 C 0.34540 -0.05830 0.19289
 C6 C 0.32523 -0.05863 0.21369
 C7 C 0.32953 0.00752 0.24549
 C8 C 0.34827 0.00526 0.26768
 C9 C 0.35234 0.02524 0.28787
 C10 C 0.33532 0.04693 0.28627
 C11 C 0.31786 0.05077 0.26264
 C12 C 0.31463 0.03060 0.24248
 H13 H 0.30265 -0.03593 0.24560
 H14 H 0.36077 0.00367 0.19836
 H15 H 0.36099 -0.01163 0.26686
 H16 H 0.30179 0.03328 0.22379
 H17 H 0.35201 -0.07588 0.18192
 H18 H 0.33589 0.06166 0.30304
 C19 C 0.18492 -0.03183 0.76667
 C20 C 0.16902 -0.01002 0.77323
 C21 C 0.14893 -0.01200 0.79399
 C22 C 0.14409 -0.03549 0.80747
 C23 C 0.16011 -0.05698 0.80096
 C24 C 0.18040 -0.05536 0.78058
 C25 C 0.16812 0.01235 0.75290
 C26 C 0.14689 0.01555 0.73450
 C27 C 0.14371 0.03594 0.71379
 C28 C 0.16253 0.05440 0.71395
 C29 C 0.18312 0.05237 0.73406
 C30 C 0.18620 0.03100 0.75306
 H31 H 0.19971 -0.03087 0.74968
 H32 H 0.13602 0.00450 0.79820
 H33 H 0.13230 0.00212 0.73827
 H34 H 0.20191 0.02946 0.76864
 H35 H 0.15611 -0.07536 0.81075
 H36 H 0.16134 0.07080 0.69922
 C37 C 0.69147 0.46526 0.26783
 C38 C 0.67865 0.48962 0.26734
 C39 C 0.65910 0.49542 0.28817
 C40 C 0.65285 0.47781 0.31032
 C41 C 0.66762 0.45485 0.31258
 C42 C 0.68577 0.44740 0.29040
 C43 C 0.68068 0.50736 0.24182
 C44 C 0.66332 0.50480 0.21850
 C45 C 0.65676 0.52549 0.19947
 C46 C 0.67068 0.54749 0.20152
 C47 C 0.68803 0.55072 0.22477
 C48 C 0.69301 0.53049 0.24503
 H49 H 0.70464 0.45993 0.24989
 H50 H 0.64754 0.51306 0.28554
 H51 H 0.65300 0.48745 0.21737
 H52 H 0.70459 0.53343 0.26448
 H53 H 0.66390 0.44219 0.33110
 H54 H 0.66616 0.56353 0.18689
 C55 C 0.81878 0.46065 0.73004
 C56 C 0.83226 0.48263 0.72449
 C57 C 0.85070 0.48255 0.70182
 C58 C 0.85716 0.46020 0.68583
 C59 C 0.84292 0.43858 0.69049
 C60 C 0.82372 0.43878 0.71254
 C61 C 0.83235 0.50336 0.74630
 C62 C 0.85109 0.50157 0.76835
 C63 C 0.85580 0.52233 0.78719
 C64 C 0.83982 0.54459 0.78359
 C65 C 0.82269 0.54759 0.75947
 C66 C 0.81860 0.52652 0.74129
 H67 H 0.80509 0.46037 0.74829
 H68 H 0.86150 0.49946 0.69837
 H69 H 0.86323 0.48428 0.76826
 H70 H 0.80610 0.52842 0.72221
 H71 H 0.84766 0.42116 0.67824
 H72 H 0.84078 0.56013 0.79918
 C73 C 0.24888 0.38428 1.02660
 C74 C 0.26256 0.39693 1.00420
 C75 C 0.28188 0.41297 1.01204
 C76 C 0.28752 0.41689 1.04200
 C77 C 0.27375 0.40461 1.06421
 C78 C 0.25422 0.38794 1.05709
 C79 C 0.25496 0.39580 0.97270
 C80 C 0.23242 0.40904 0.96415
 C81 C 0.22420 0.40870 0.93456
 C82 C 0.23911 0.39538 0.91303
 C83 C 0.26194 0.38184 0.92129
 C84 C 0.26985 0.38220 0.95125
 H85 H 0.23352 0.37248 1.02010
 H86 H 0.29277 0.42220 0.99475
 H87 H 0.22063 0.41894 0.98093
 H88 H 0.28717 0.37153 0.95789
 H89 H 0.28009 0.40648 1.08698
 H90 H 0.23205 0.39403 0.89046
 C91 C 0.75108 0.12832 1.03326
 C92 C 0.74028 0.11731 1.00807
 C93 C 0.71944 0.10186 1.01134
 C94 C 0.70968 0.09669 1.03966
 C95 C 0.72043 0.10749 1.06466
 C96 C 0.74136 0.12350 1.06210
 C97 C 0.75236 0.11940 0.97854
 C98 C 0.77598 0.10646 0.97352
 C99 C 0.78697 0.10546 0.94496
 C100 C 0.77418 0.11792 0.92121
 C101 C 0.75058 0.13163 0.92618
 C102 C 0.73966 0.13210 0.95490
 H103 H 0.76762 0.13966 1.03022
 H104 H 0.71094 0.09368 0.99186
 H105 H 0.78567 0.09664 0.99191
 H106 H 0.72115 0.14184 0.95872
 H107 H 0.71100 0.10458 1.08591
 H108 H 0.78287 0.11759 0.89917
 C109 C 0.24748 0.63812 0.53564
 C110 C 0.23573 0.62722 0.51108
 C111 C 0.21435 0.61268 0.51551
 C112 C 0.20486 0.60870 0.54437
 C113 C 0.21650 0.61977 0.56876
 C114 C 0.23809 0.63439 0.56464
 C115 C 0.24869 0.62705 0.48189
 C116 C 0.27248 0.61401 0.47974
 C117 C 0.28638 0.61327 0.45296
 C118 C 0.27551 0.62491 0.42747
 C119 C 0.25123 0.63799 0.42920
 C120 C 0.23791 0.63907 0.45660
 H121 H 0.26462 0.64852 0.53222
 H122 H 0.20549 0.60398 0.49660
 H123 H 0.28028 0.60431 0.49937
 H124 H 0.21924 0.64894 0.45818
 H125 H 0.20846 0.61722 0.59088
 H126 H 0.28616 0.62452 0.40663
 C127 C 0.75135 0.88219 0.52817
 C128 C 0.76568 0.89374 0.50596
 C129 C 0.78652 0.90763 0.51369
 C130 C 0.79242 0.91149 0.54386
 C131 C 0.77735 0.90062 0.56616
 C132 C 0.75742 0.88486 0.55831
 C133 C 0.75593 0.89507 0.47550
 C134 C 0.73328 0.90964 0.47087
 C135 C 0.72166 0.91040 0.44304
 C136 C 0.73330 0.89696 0.41934
 C137 C 0.75659 0.88251 0.42343
 C138 C 0.76786 0.88157 0.45180
 H139 H 0.73509 0.87151 0.52188
 H140 H 0.79742 0.91658 0.49618
 H141 H 0.72407 0.91972 0.48948
 H142 H 0.78550 0.87030 0.45548
 H143 H 0.78267 0.90244 0.58933
 H144 H 0.72353 0.89672 0.39815
 C145 C -0.03924 0.24697 0.39289
 C146 C -0.01702 0.24698 0.40980
 C147 C -0.01192 0.22786 0.43118
 C148 C -0.03047 0.21025 0.43813
 C149 C -0.05372 0.21177 0.42241
 C150 C -0.05770 0.22877 0.39791
 C151 C 0.00046 0.26757 0.40457
 C152 C -0.00511 0.29161 0.41758
 C153 C 0.00904 0.31260 0.40956
 C154 C 0.02855 0.30925 0.38820
 C155 C 0.03547 0.28493 0.37640
 C156 C 0.02092 0.26415 0.38429
 H157 H -0.04092 0.26070 0.37487
 H158 H 0.00590 0.22749 0.44330
 H159 H -0.02081 0.29407 0.43341
 H160 H 0.02556 0.24537 0.37504
 H161 H -0.06807 0.19862 0.42866
 H162 H 0.03935 0.32555 0.38188
 C163 C -0.02798 0.74842 0.10715
 C164 C -0.00522 0.74989 0.09063
 C165 C -0.00057 0.77178 0.07380
 C166 C -0.01850 0.79231 0.07350
 C167 C -0.04096 0.79112 0.09030
 C168 C -0.04646 0.76902 0.10705
 C169 C 0.01404 0.72860 0.09038
 C170 C 0.00986 0.70653 0.07417
 C171 C 0.02998 0.68817 0.06883
 C172 C 0.05419 0.69208 0.08113
 C173 C 0.05781 0.71335 0.09947
 C174 C 0.03773 0.73174 0.10340
 H175 H -0.03132 0.73088 0.11909
 H176 H 0.01705 0.77287 0.06109
 H177 H -0.00855 0.70477 0.06374
 H178 H 0.04071 0.74897 0.11594
 H179 H -0.05346 0.80823 0.09108
 H180 H 0.06977 0.67788 0.07800
 C181 C 0.46754 0.26629 0.59655
 C182 C 0.48943 0.26641 0.57843
 C183 C 0.49382 0.28776 0.56054
 C184 C 0.47610 0.30881 0.56009
 C185 C 0.45408 0.30857 0.57823
 C186 C 0.44996 0.28746 0.59677
 C187 C 0.50776 0.24417 0.57790
 C188 C 0.50358 0.22344 0.55925
 C189 C 0.52182 0.20293 0.55712
 C190 C 0.54410 0.20312 0.57427
 C191 C 0.54827 0.22366 0.59353
 C192 C 0.52997 0.24421 0.59504
 H193 H 0.46405 0.24966 0.61025
 H194 H 0.51089 0.28787 0.54668
 H195 H 0.48637 0.22352 0.54599
 H196 H 0.53324 0.26056 0.60898
 H197 H 0.44029 0.32475 0.57804
 H198 H 0.55789 0.18699 0.57308
 C199 C 0.47016 0.74007 0.90095
 C200 C 0.49305 0.73784 0.91677
 C201 C 0.49798 0.71722 0.93639
 C202 C 0.47950 0.69897 0.94106
 C203 C 0.45695 0.70118 0.92408
 C204 C 0.45204 0.72152 0.90392
 C205 C 0.51219 0.75668 0.91097
 C206 C 0.51048 0.78039 0.92529
 C207 C 0.52640 0.79989 0.91642
 C208 C 0.54398 0.79527 0.89282
 C209 C 0.54575 0.77149 0.87843
 C210 C 0.52983 0.75226 0.88781
 H211 H 0.46675 0.75627 0.88612
 H212 H 0.51572 0.71612 0.94862
 H213 H 0.49607 0.78389 0.94251
 H214 H 0.53053 0.73403 0.87641
 H215 H 0.44383 0.68594 0.92523
 H216 H 0.55661 0.81000 0.88599
 C217 C -0.28535 0.56135 1.00397
 C218 C -0.26375 0.57598 1.00388
 C219 C -0.26172 0.59522 1.02510
 C220 C -0.28002 0.59903 1.04815
 C221 C -0.30005 0.58212 1.04990
 C222 C -0.30359 0.56404 1.02718
 C223 C -0.24502 0.57454 0.97909
 C224 C -0.24924 0.59107 0.95478
 C225 C -0.22994 0.59487 0.93326
 C226 C -0.20683 0.58020 0.93600
 C227 C -0.20175 0.56432 0.96095
 C228 C -0.22113 0.56134 0.98240
 H229 H -0.28764 0.54759 0.98634
 H230 H -0.24639 0.60804 1.02207
 H231 H -0.26689 0.60276 0.95479
 H232 H -0.21715 0.55021 1.00244
 H233 H -0.31407 0.58419 1.06771
 H234 H -0.19218 0.58140 0.91894
 C235 C -0.27857 0.42956 0.50013
 C236 C -0.25570 0.41401 0.49970
 C237 C -0.25336 0.39305 0.48042
 C238 C -0.27215 0.38865 0.45936
 C239 C -0.29316 0.40618 0.45752
 C240 C -0.29843 0.42514 0.47962
 C241 C -0.23511 0.41637 0.52182
 C242 C -0.23206 0.39706 0.54344
 C243 C -0.20916 0.39323 0.55929
 C244 C -0.18996 0.41060 0.55524
 C245 C -0.19271 0.43036 0.53391
 C246 C -0.21522 0.43297 0.51688
 H247 H -0.28103 0.44374 0.51747
 H248 H -0.23699 0.37971 0.48280
 H249 H -0.24694 0.38362 0.54610
 H250 H -0.21670 0.44701 0.49901
 H251 H -0.30542 0.40459 0.43847
 H252 H -0.17209 0.40776 0.56705
 C253 C 0.22408 -0.07077 -0.00599
 C254 C 0.24603 -0.08696 -0.01104
 C255 C 0.24568 -0.10553 -0.03337
 C256 C 0.22395 -0.10848 -0.05104
 C257 C 0.20278 -0.09118 -0.04683
 C258 C 0.20216 -0.07316 -0.02362
 C259 C 0.26799 -0.08832 0.00969
 C260 C 0.27010 -0.10885 0.03002
 C261 C 0.29228 -0.11358 0.04737
 C262 C 0.31212 -0.09657 0.04446
 C263 C 0.31089 -0.07694 0.02300
 C264 C 0.28878 -0.07270 0.00571
 H265 H 0.22343 -0.05772 0.01268
 H266 H 0.26259 -0.11808 -0.03644
 H267 H 0.25417 -0.12120 0.03202
 H268 H 0.28826 -0.05817 -0.01165
 H269 H 0.18541 -0.09350 -0.05924
 H270 H 0.32975 -0.09994 0.05667
 C271 C 0.21512 1.06921 0.51026
 C272 C 0.23810 1.08178 0.51253
 C273 C 0.24171 1.09828 0.53656
 C274 C 0.22249 1.10254 0.55830
 C275 C 0.20034 1.08888 0.55654
 C276 C 0.19601 1.07302 0.53216
 C277 C 0.25575 1.08254 0.48683
 C278 C 0.25097 1.10143 0.46490
 C279 C 0.26856 1.10506 0.44138
 C280 C 0.28971 1.08756 0.43934
 C281 C 0.29644 1.07083 0.46295
 C282 C 0.27898 1.06789 0.48652
 H283 H 0.21143 1.05813 0.49055
 H284 H 0.25884 1.10900 0.53716
 H285 H 0.23442 1.11437 0.46811
 H286 H 0.28390 1.05544 0.50522
 H287 H 0.18512 1.09244 0.57274
 H288 H 0.30216 1.08778 0.41996
 C289 C 0.11869 0.50365 0.20710
 C290 C 0.12962 0.51629 0.23104
 C291 C 0.14459 0.53720 0.22542
 C292 C 0.14928 0.54518 0.19606
 C293 C 0.13816 0.53266 0.17231
 C294 C 0.12263 0.51184 0.17759
 C295 C 0.12817 0.50564 0.26148
 C296 C 0.14031 0.48174 0.26698
 C297 C 0.14031 0.47085 0.29555
 C298 C 0.12809 0.48432 0.31909
 C299 C 0.11535 0.50840 0.31386
 C300 C 0.11563 0.51904 0.28493
 H301 H 0.10757 0.48713 0.21149
 H302 H 0.15306 0.54692 0.24387
 H303 H 0.14983 0.47142 0.24874
 H304 H 0.10631 0.53766 0.28074
 H305 H 0.14096 0.53977 0.14983
 H306 H 0.12762 0.47567 0.34110
 C307 C -0.10928 0.99290 0.22166
 C308 C -0.11960 0.98089 0.24669
 C309 C -0.13538 0.96059 0.24284
 C310 C -0.14275 0.95312 0.21418
 C311 C -0.13372 0.96654 0.18926
 C312 C -0.11600 0.98596 0.19256
 C313 C -0.12016 0.99401 0.27566
 C314 C -0.13383 1.01752 0.27696
 C315 C -0.13862 1.03020 0.30405
 C316 C -0.12916 1.01864 0.33031
 C317 C -0.11450 0.99516 0.32943
 C318 C -0.11037 0.98269 0.30191
 H319 H -0.09784 1.00923 0.22522
 H320 H -0.14377 0.95205 0.26248
 H321 H -0.14237 1.02505 0.25656
 H322 H -0.10000 0.96427 0.30096
 H323 H -0.13850 0.95991 0.16729
 H324 H -0.13179 1.02870 0.35125
 C325 C 0.38332 0.49035 -0.26871
 C326 C 0.37111 0.47945 -0.24406
 C327 C 0.35625 0.45829 -0.24784
 C328 C 0.35246 0.44835 -0.27631
 C329 C 0.36438 0.45970 -0.30092
 C330 C 0.38006 0.48077 -0.29767
 C331 C 0.37026 0.49250 -0.21509
 C332 C 0.35824 0.51687 -0.21323
 C333 C 0.35315 0.52849 -0.18548
 C334 C 0.36122 0.51549 -0.15941
 C335 C 0.37555 0.49185 -0.16126
 C336 C 0.37922 0.48013 -0.18919
 H337 H 0.39392 0.50728 -0.26525
 H338 H 0.34702 0.45015 -0.22854
 H339 H 0.35142 0.52622 -0.23354
 H340 H 0.38905 0.46147 -0.19082
 H341 H 0.36167 0.45151 -0.32265
 H342 H 0.35846 0.52489 -0.13805
 C343 C 0.62040 -0.00233 -0.29218
 C344 C 0.63166 0.00717 -0.26644
 C345 C 0.64817 0.02727 -0.26869
 C346 C 0.65375 0.03776 -0.29656
 C347 C 0.64224 0.02854 -0.32206
 C348 C 0.62541 0.00822 -0.32052
 C349 C 0.62739 -0.00508 -0.23735
 C350 C 0.63556 -0.03067 -0.23346
 C351 C 0.63250 -0.04305 -0.20596
 C352 C 0.62125 -0.02935 -0.18201
 C353 C 0.61249 -0.00362 -0.18585
 C354 C 0.61574 0.00850 -0.21354
 H355 H 0.60834 -0.01840 -0.28985
 H356 H 0.65648 0.03487 -0.24876
 H357 H 0.64463 -0.04098 -0.25198
 H358 H 0.60944 0.02840 -0.21647
 H359 H 0.64515 0.03885 -0.34271
 H360 H 0.61863 -0.03885 -0.16074
 C361 C -0.01134 0.21560 0.86301
 C362 C -0.01149 0.23684 0.84390
 C363 C -0.03386 0.24469 0.82853
 C364 C -0.05625 0.23149 0.83294
 C365 C -0.05593 0.21062 0.85276
 C366 C -0.03347 0.20227 0.86754
 C367 C 0.01111 0.25219 0.84354
 C368 C 0.03394 0.24307 0.82964
 C369 C 0.05669 0.25528 0.83469
 C370 C 0.05635 0.27636 0.85388
 C371 C 0.03341 0.28628 0.86685
 C372 C 0.01083 0.27396 0.86159
 H373 H 0.00612 0.20954 0.87437
 H374 H -0.03398 0.26122 0.81387
 H375 H 0.03416 0.22611 0.81585
 H376 H -0.00697 0.28101 0.87181
 H377 H -0.07324 0.20051 0.85621
 H378 H 0.07406 0.28543 0.85816
 C379 C 0.51138 0.21374 0.15576
 C380 C 0.51220 0.23532 0.17375
 C381 C 0.53312 0.23853 0.19219
 C382 C 0.55315 0.21976 0.19336
 C383 C 0.55221 0.19792 0.17542
 C384 C 0.53142 0.19497 0.15618
 C385 C 0.49080 0.25431 0.17367
 C386 C 0.46844 0.24951 0.18961
 C387 C 0.44812 0.26788 0.19019
 C388 C 0.45004 0.29073 0.17414
 C389 C 0.47230 0.29550 0.15765
 C390 C 0.49272 0.27713 0.15765
 H391 H 0.49484 0.21138 0.14188
 H392 H 0.53362 0.25547 0.20595
 H393 H 0.46698 0.23167 0.20173
 H394 H 0.51026 0.28068 0.14565
 H395 H 0.56793 0.18363 0.17591
 H396 H 0.43391 0.30456 0.17411
 C397 C 0.00270 0.72476 0.65864
 C398 C 0.00541 0.74680 0.67570
 C399 C 0.02832 0.75028 0.69081
 C400 C 0.04869 0.73194 0.68859
 C401 C 0.04587 0.70999 0.67124
 C402 C 0.02291 0.70622 0.65622
 C403 C -0.01535 0.76678 0.67664
 C404 C -0.03893 0.76176 0.68977
 C405 C -0.05839 0.78122 0.69230
 C406 C -0.05423 0.80537 0.67970
 C407 C -0.03124 0.81002 0.66432
 C408 C -0.01161 0.79076 0.66386
 H409 H -0.01510 0.72212 0.64719
 H410 H 0.03049 0.76753 0.70362
 H411 H -0.04160 0.74297 0.69926
 H412 H 0.00661 0.79421 0.65335
 H413 H 0.06177 0.69598 0.66911
 H414 H -0.06978 0.81982 0.67976
 C415 C 0.49466 0.72500 0.37292
 C416 C 0.49392 0.74074 0.34737
 C417 C 0.47473 0.73839 0.32607
 C418 C 0.45617 0.72046 0.33018
 C419 C 0.45800 0.70379 0.35473
 C420 C 0.47670 0.70622 0.37689
 C421 C 0.51229 0.76076 0.34344
 C422 C 0.52976 0.75916 0.31969
 C423 C 0.54693 0.77837 0.31508
 C424 C 0.54557 0.79990 0.33359
 C425 C 0.52885 0.80144 0.35869
 C426 C 0.51229 0.78140 0.36328
 H427 H 0.50897 0.72774 0.38970
 H428 H 0.47335 0.75159 0.30737
 H429 H 0.53061 0.74249 0.30540
 H430 H 0.49932 0.78146 0.38217
 H431 H 0.44405 0.68934 0.35668
 H432 H 0.55848 0.81479 0.32866
 B433 B -0.02681 0.01616 1.00263
 B434 B -0.04071 0.00950 0.96988
 B435 B -0.01611 0.02872 0.96965
 B436 B 0.00498 0.01871 0.99599
 B437 B -0.00634 -0.00806 1.01192
 B438 B -0.03506 -0.01384 0.99571
 B439 B 0.00213 -0.01842 0.95289
 B440 B 0.01643 -0.01058 0.98512
 B441 B -0.00835 -0.03049 0.98532
 B442 B -0.02981 -0.02018 0.95901
 B443 B -0.01801 0.00615 0.94311
 B444 B 0.01047 0.01199 0.95893
 B445 B 0.47506 0.52060 0.51262
 B446 B 0.46055 0.52260 0.47904
 B447 B 0.48324 0.54338 0.48716
 B448 B 0.50630 0.52745 0.50773
 B449 B 0.49765 0.49671 0.51149
 B450 B 0.46923 0.49381 0.49366
 B451 B 0.50438 0.50616 0.45177
 B452 B 0.51929 0.50416 0.48499
 B453 B 0.49637 0.48367 0.47721
 B454 B 0.47350 0.49950 0.45661
 B455 B 0.48214 0.53030 0.45284
 B456 B 0.51064 0.53296 0.47062
 B457 B 0.52836 0.99322 0.48848
 B458 B 0.54337 0.99477 0.45509
 B459 B 0.52090 0.97314 0.46022
 B460 B 0.49751 0.98631 0.48255
 B461 B 0.50548 1.01663 0.49033
 B462 B 0.53407 1.02187 0.47320
 B463 B 0.49966 1.01337 0.42966
 B464 B 0.48446 1.01141 0.46294
 B465 B 0.50689 1.03324 0.45795
 B466 B 0.53048 1.02001 0.43561
 B467 B 0.52243 0.98971 0.42790
 B468 B 0.49377 0.98460 0.44494
 B469 B 0.02978 0.48029 0.98917
 B470 B 0.04385 0.48383 0.95539
 B471 B 0.02082 0.46278 0.95947
 B472 B -0.00162 0.47504 0.98380
 B473 B 0.00766 0.50443 0.99396
 B474 B 0.03619 0.50963 0.97652
 B475 B 0.00000 0.50547 0.93339
 B476 B -0.01441 0.50185 0.96690
 B477 B 0.00884 0.52304 0.96312
 B478 B 0.03126 0.51069 0.93894
 B479 B 0.02185 0.48162 0.92888
 B480 B -0.00645 0.47599 0.94642
 B481 B 0.02073 0.53423 0.50105
 B482 B 0.03700 0.52274 0.53131
 B483 B 0.01087 0.54237 0.53661
 B484 B -0.01098 0.53639 0.51052
 B485 B 0.00128 0.51177 0.48927
 B486 B 0.03154 0.50331 0.50191
 B487 B -0.00256 0.49393 0.54627
 B488 B -0.01947 0.50624 0.51732
 B489 B 0.00645 0.48597 0.51150
 B490 B 0.02897 0.49201 0.53733
 B491 B 0.01641 0.51623 0.55856
 B492 B -0.01326 0.52495 0.54629
 B493 B 0.52535 0.02365 0.00320
 B494 B 0.54069 0.01246 0.03410
 B495 B 0.51418 0.03176 0.03812
 B496 B 0.49349 0.02542 0.01092
 B497 B 0.50697 0.00082 -0.00962
 B498 B 0.53667 -0.00712 0.00471
 B499 B 0.50085 -0.01677 0.04725
 B500 B 0.48526 -0.00479 0.01707
 B501 B 0.51158 -0.02477 0.01311
 B502 B 0.53280 -0.01830 0.04005
 B503 B 0.51912 0.00581 0.06042
 B504 B 0.48981 0.01408 0.04654
 B505 B 0.47509 0.48287 0.02582
 B506 B 0.46093 0.49067 0.05879
 B507 B 0.48601 0.46931 0.05850
 B508 B 0.50687 0.47769 0.03173
 B509 B 0.49509 0.50578 0.01602
 B510 B 0.46623 0.51361 0.03283
 B511 B 0.50304 0.51473 0.07518
 B512 B 0.51767 0.50574 0.04279
 B513 B 0.49274 0.52808 0.04323
 B514 B 0.47120 0.51937 0.06960
 B515 B 0.48331 0.49203 0.08514
 B516 B 0.51186 0.48364 0.06874
 B517 B -0.02733 0.99685 0.52598
 B518 B -0.04390 1.00298 0.55782
 B519 B -0.01812 0.98256 0.55910
 B520 B 0.00399 0.99253 0.53462
 B521 B -0.00786 1.02053 0.51914
 B522 B -0.03791 1.02706 0.53356
 B523 B -0.00405 1.02819 0.57945
 B524 B 0.01280 1.02093 0.54784
 B525 B -0.01289 1.04216 0.54669
 B526 B -0.03564 1.03190 0.57088
 B527 B -0.02345 1.00446 0.58609
 B528 B 0.00656 0.99766 0.57203
 B529 B 0.76034 0.21520 0.25618
 B530 B 0.76034 0.19876 0.28880
 B531 B 0.78163 0.22145 0.28361
 B532 B 0.76744 0.24575 0.26354
 B533 B 0.73684 0.23806 0.25717
 B534 B 0.73245 0.20871 0.27290
 B535 B 0.74273 0.24126 0.31777
 B536 B 0.74325 0.25794 0.28542
 B537 B 0.72178 0.23522 0.29046
 B538 B 0.73597 0.21072 0.31048
 B539 B 0.76650 0.21862 0.31683
 B540 B 0.77076 0.24794 0.30119
 B541 B 0.71765 0.77086 0.72849
 B542 B 0.71453 0.78008 0.76459
 B543 B 0.69908 0.75426 0.75242
 B544 B 0.71819 0.73833 0.72736
 B545 B 0.74562 0.75400 0.72417
 B546 B 0.74345 0.78010 0.74719
 B547 B 0.74171 0.73760 0.78220
 B548 B 0.74451 0.72782 0.74645
 B549 B 0.76021 0.75351 0.75756
 B550 B 0.74133 0.76979 0.78304
 B551 B 0.71361 0.75424 0.78606
 B552 B 0.71642 0.72817 0.76318
 B553 B 0.27785 0.26857 0.75141
 B554 B 0.26454 0.28404 0.72155
 B555 B 0.28786 0.26081 0.71650
 B556 B 0.28408 0.23750 0.74214
 B557 B 0.25769 0.24632 0.76300
 B558 B 0.24586 0.27550 0.75055
 B559 B 0.24223 0.24106 0.70554
 B560 B 0.25557 0.22544 0.73496
 B561 B 0.23220 0.24857 0.74013
 B562 B 0.23598 0.27207 0.71465
 B563 B 0.26218 0.26314 0.69383
 B564 B 0.27399 0.23413 0.70643
 B565 B 0.23686 0.72332 0.23437
 B566 B 0.24618 0.70731 0.20315
 B567 B 0.22819 0.73480 0.19986
 B568 B 0.23645 0.75513 0.22651
 B569 B 0.26084 0.74057 0.24591
 B570 B 0.26699 0.71049 0.23156
 B571 B 0.27723 0.74540 0.18824
 B572 B 0.26697 0.76186 0.21893
 B573 B 0.28574 0.73453 0.22230
 B574 B 0.27724 0.71350 0.19574
 B575 B 0.25306 0.72832 0.17645
 B576 B 0.24697 0.75823 0.19042
 B577 B 0.27261 0.71758 0.75608
 B578 B 0.26470 0.70356 0.78881
 B579 B 0.28568 0.72663 0.78898
 B580 B 0.27739 0.74886 0.76301
 B581 B 0.24997 0.73983 0.74715
 B582 B 0.24193 0.71134 0.76309
 B583 B 0.23974 0.74783 0.80612
 B584 B 0.24889 0.76192 0.77416
 B585 B 0.22704 0.73909 0.77379
 B586 B 0.23550 0.71636 0.79984
 B587 B 0.26267 0.72576 0.81569
 B588 B 0.27081 0.75377 0.80007
 B589 B 0.22525 0.28128 0.23835
 B590 B 0.22779 0.29443 0.27249
 B591 B 0.20677 0.27151 0.26778
 B592 B 0.21964 0.24966 0.24305
 B593 B 0.24935 0.25917 0.23366
 B594 B 0.25428 0.28718 0.25189
 B595 B 0.24882 0.24992 0.29401
 B596 B 0.24607 0.23630 0.26019
 B597 B 0.26708 0.25953 0.26497
 B598 B 0.25419 0.28139 0.28930
 B599 B 0.22497 0.27164 0.29859
 B600 B 0.21973 0.24377 0.28039
 B601 B 0.76289 0.77613 0.23881
 B602 B 0.75922 0.79112 0.20551
 B603 B 0.78003 0.76568 0.20783
 B604 B 0.76852 0.74442 0.23248
 B605 B 0.73930 0.75644 0.24421
 B606 B 0.73340 0.78564 0.22741
 B607 B 0.73678 0.74955 0.18373
 B608 B 0.74154 0.73441 0.21677
 B609 B 0.71998 0.75972 0.21429
 B610 B 0.73172 0.78152 0.18992
 B611 B 0.76048 0.76913 0.17826
 B612 B 0.76662 0.74002 0.19495
 B613 B 0.72447 0.22397 0.73945
 B614 B 0.73620 0.20821 0.70886
 B615 B 0.71611 0.23413 0.70433
 B616 B 0.72174 0.25570 0.73079
 B617 B 0.74653 0.24355 0.75161
 B618 B 0.75553 0.21364 0.73825
 B619 B 0.76416 0.24867 0.69457
 B620 B 0.75153 0.26476 0.72410
 B621 B 0.77235 0.23923 0.72913
 B622 B 0.76671 0.21695 0.70276
 B623 B 0.74217 0.22933 0.68189
 B624 B 0.73298 0.25871 0.69499
 C625 C 0.41959 1.02305 0.34101
 C626 C 0.41068 1.00034 0.32955
 C627 C 0.38780 1.00102 0.31361
 C628 C 0.37403 1.02444 0.30726
 C629 C 0.38359 1.04716 0.31943
 C630 C 0.40606 1.04646 0.33650
 C631 C 0.44325 1.02213 0.35875
 C632 C 0.45179 1.04457 0.37156
 C633 C 0.47303 1.04291 0.39086
 C634 C 0.48411 1.01876 0.39899
 C635 C 0.47736 0.99723 0.38231
 C636 C 0.45649 0.99858 0.36329
 C637 C 0.41550 1.06875 0.34889
 C638 C 0.43789 1.06781 0.36616
 C639 C 0.42486 0.97718 0.33419
 C640 C 0.44752 0.97635 0.35053
 H641 H 0.40524 1.08705 0.34563
 H642 H 0.44403 1.08535 0.37588
 H643 H 0.41833 0.95951 0.32523
 H644 H 0.45769 0.95802 0.35395
 H645 H 0.38086 0.98291 0.30680
 H646 H 0.37459 1.06578 0.31478
 H647 H 0.47944 1.06002 0.40127
 H648 H 0.48667 0.97856 0.38616
 C649 C -0.07827 0.51893 0.84236
 C650 C -0.08761 0.49648 0.83078
 C651 C -0.11017 0.49770 0.81447
 C652 C -0.12292 0.52140 0.80714
 C653 C -0.11276 0.54399 0.81898
 C654 C -0.09081 0.54271 0.83704
 C655 C -0.05523 0.51729 0.86110
 C656 C -0.04664 0.53931 0.87483
 C657 C -0.02639 0.53681 0.89558
 C658 C -0.01570 0.51230 0.90301
 C659 C -0.02225 0.49141 0.88504
 C660 C -0.04266 0.49344 0.86559
 C661 C -0.08097 0.56469 0.84977
 C662 C -0.05945 0.56299 0.86855
 C663 C -0.07419 0.47297 0.83561
 C664 C -0.05177 0.47154 0.85227
 H665 H -0.09027 0.58332 0.84567
 H666 H -0.05302 0.58029 0.87853
 H667 H -0.08104 0.45552 0.82643
 H668 H -0.04207 0.45297 0.85571
 H669 H -0.11766 0.47971 0.80820
 H670 H -0.12099 0.56278 0.81365
 H671 H -0.02004 0.55352 0.90688
 H672 H -0.01318 0.47251 0.88803
 C673 C 0.07791 -0.04246 0.86280
 C674 C 0.07524 -0.03104 0.83445
 C675 C 0.09693 -0.02927 0.81615
 C676 C 0.12114 -0.03816 0.82644
 C677 C 0.12333 -0.05009 0.85457
 C678 C 0.10170 -0.05259 0.87275
 C679 C 0.05571 -0.04242 0.88317
 C680 C 0.05831 -0.05369 0.91155
 C681 C 0.03795 -0.05080 0.93204
 C682 C 0.01710 -0.03353 0.92605
 C683 C 0.01351 -0.02510 0.89621
 C684 C 0.03273 -0.02963 0.87463
 C685 C 0.10342 -0.06457 0.90088
 C686 C 0.08191 -0.06567 0.91970
 C687 C 0.05113 -0.02087 0.82549
 C688 C 0.03029 -0.01980 0.84545
 H689 H 0.12160 -0.07279 0.90863
 H690 H 0.08416 -0.07475 0.94137
 H691 H 0.04859 -0.01273 0.80335
 H692 H 0.01237 -0.01058 0.83827
 H693 H 0.09514 -0.02066 0.79416
 H694 H 0.14197 -0.05680 0.86252
 H695 H 0.03931 -0.06034 0.95327
 H696 H -0.00310 -0.01306 0.89022
 C697 C 0.58354 0.49062 0.36132
 C698 C 0.59081 0.46575 0.35210
 C699 C 0.61362 0.46160 0.33571
 C700 C 0.62929 0.48211 0.32890
 C701 C 0.62156 0.50690 0.33845
 C702 C 0.59870 0.51128 0.35447
 C703 C 0.56006 0.49504 0.37936
 C704 C 0.55352 0.51976 0.38949
 C705 C 0.53311 0.52345 0.40939
 C706 C 0.52004 0.50248 0.42084
 C707 C 0.52444 0.47842 0.40722
 C708 C 0.54526 0.47436 0.38731
 C709 C 0.59085 0.53593 0.36409
 C710 C 0.56860 0.54011 0.38129
 C711 C 0.57517 0.44558 0.35963
 C712 C 0.55278 0.44982 0.37690
 H713 H 0.60224 0.55205 0.35873
 H714 H 0.56360 0.55932 0.38903
 H715 H 0.58052 0.42626 0.35259
 H716 H 0.54169 0.43363 0.38288
 H717 H 0.61894 0.44249 0.32791
 H718 H 0.63345 0.52278 0.33369
 H719 H 0.52894 0.54264 0.41761
 H720 H 0.51372 0.46237 0.41462
 C721 C 0.58463 0.53257 0.15420
 C722 C 0.58744 0.51648 0.17919
 C723 C 0.61112 0.51387 0.19333
 C724 C 0.63242 0.52649 0.18217
 C725 C 0.62917 0.54241 0.15670
 C726 C 0.60520 0.54595 0.14310
 C727 C 0.56011 0.53419 0.13829
 C728 C 0.55768 0.54907 0.11225
 C729 C 0.53615 0.54673 0.09424
 C730 C 0.51821 0.52838 0.10118
 C731 C 0.51906 0.51681 0.12974
 C732 C 0.54036 0.51899 0.14790
 C733 C 0.60149 0.56215 0.11819
 C734 C 0.57810 0.56369 0.10301
 C735 C 0.56654 0.50305 0.18945
 C736 C 0.54339 0.50421 0.17398
 H737 H 0.61708 0.57297 0.10967
 H738 H 0.57647 0.57535 0.08299
 H739 H 0.56839 0.49081 0.20896
 H740 H 0.52813 0.49261 0.18180
 H741 H 0.61262 0.50236 0.21343
 H742 H 0.64520 0.55200 0.14726
 H743 H 0.53561 0.55639 0.07301
 H744 H 0.50490 0.50352 0.13644
 C745 C 0.07453 1.04109 0.66439
 C746 C 0.09027 1.06189 0.66322
 C747 C 0.11344 1.06055 0.67931
 C748 C 0.12153 1.03785 0.69514
 C749 C 0.10602 1.01657 0.69269
 C750 C 0.08217 1.01863 0.67953
 C751 C 0.05016 1.04216 0.64822
 C752 C 0.03441 1.02148 0.65061
 C753 C 0.01277 1.02116 0.63312
 C754 C 0.00890 1.03892 0.60943
 C755 C 0.02225 1.06168 0.61056
 C756 C 0.04357 1.06308 0.62962
 C757 C 0.06581 0.99831 0.68137
 C758 C 0.04192 1.00005 0.66790
 C759 C 0.08230 1.08345 0.64599
 C760 C 0.05959 1.08388 0.62913
 H761 H 0.07148 0.98096 0.69341
 H762 H 0.02989 0.98387 0.66961
 H763 H 0.09409 1.09983 0.64482
 H764 H 0.05483 1.10036 0.61515
 H765 H 0.12450 1.07737 0.67956
 H766 H 0.11215 0.99775 0.70050
 H767 H 0.00145 1.00454 0.63523
 H768 H 0.01708 1.07743 0.59577
 C769 C -0.07535 0.45972 0.63155
 C770 C -0.09669 0.44735 0.62114
 C771 C -0.11871 0.44691 0.63916
 C772 C -0.11937 0.45891 0.66720
 C773 C -0.09735 0.47015 0.67774
 C774 C -0.07546 0.47094 0.65990
 C775 C -0.05313 0.46244 0.61170
 C776 C -0.03265 0.47636 0.62143
 C777 C -0.01346 0.48226 0.60110
 C778 C -0.01565 0.47609 0.57064
 C779 C -0.03451 0.45930 0.56227
 C780 C -0.05369 0.45290 0.58256
 C781 C -0.05403 0.48357 0.66946
 C782 C -0.03293 0.48622 0.65051
 C783 C -0.09586 0.43659 0.59248
 C784 C -0.07470 0.43934 0.57348
 H785 H -0.05394 0.49228 0.69136
 H786 H -0.01721 0.49704 0.65821
 H787 H -0.11206 0.42678 0.58425
 H788 H -0.07533 0.43184 0.55102
 H789 H -0.13556 0.43816 0.63096
 H790 H -0.09742 0.47874 0.69969
 H791 H 0.00146 0.49418 0.60858
 H792 H -0.03628 0.45370 0.53927
 C793 C 0.42487 -0.04264 0.13182
 C794 C 0.42626 -0.03192 0.16037
 C795 C 0.40405 -0.02937 0.17799
 C796 C 0.38069 -0.03736 0.16721
 C797 C 0.37978 -0.04875 0.13888
 C798 C 0.40188 -0.05141 0.12103
 C799 C 0.44765 -0.04336 0.11222
 C800 C 0.44588 -0.05252 0.08298
 C801 C 0.46608 -0.04881 0.06286
 C802 C 0.48684 -0.03439 0.07132
 C803 C 0.49006 -0.02937 0.10196
 C804 C 0.47011 -0.03300 0.12229
 C805 C 0.40138 -0.06228 0.09242
 C806 C 0.42310 -0.06295 0.07373
 C807 C 0.44968 -0.02359 0.17048
 C808 C 0.47129 -0.02412 0.15173
 H809 H 0.38391 -0.06963 0.08399
 H810 H 0.42173 -0.07069 0.05142
 H811 H 0.45113 -0.01584 0.19271
 H812 H 0.48869 -0.01642 0.15988
 H813 H 0.40493 -0.02130 0.20011
 H814 H 0.36187 -0.05525 0.13063
 H815 H 0.46416 -0.05467 0.03995
 H816 H 0.50666 -0.01984 0.10957
 C817 C 0.35900 0.44822 0.06121
 C818 C 0.33686 0.46428 0.06423
 C819 C 0.31289 0.45426 0.05831
 C820 C 0.31160 0.42844 0.04968
 C821 C 0.33388 0.41268 0.04765
 C822 C 0.35758 0.42245 0.05290
 C823 C 0.38430 0.45877 0.06520
 C824 C 0.40596 0.44305 0.05914
 C825 C 0.42953 0.45359 0.05841
 C826 C 0.43307 0.47939 0.06607
 C827 C 0.41102 0.49486 0.07379
 C828 C 0.38639 0.48469 0.07246
 C829 C 0.37995 0.40705 0.04882
 C830 C 0.40380 0.41730 0.05145
 C831 C 0.33942 0.49000 0.07237
 C832 C 0.36371 0.49996 0.07659
 H833 H 0.37901 0.38718 0.04250
 H834 H 0.42072 0.40508 0.04689
 H835 H 0.32255 0.50265 0.07508
 H836 H 0.36473 0.51996 0.08230
 H837 H 0.29554 0.46640 0.05983
 H838 H 0.33270 0.39283 0.04119
 H839 H 0.44438 0.44190 0.04782
 H840 H 0.41280 0.51496 0.07847
 C841 C -0.13968 0.94809 0.55908
 C842 C -0.16175 0.95721 0.57433
 C843 C -0.18448 0.94407 0.57107
 C844 C -0.18510 0.92340 0.55083
 C845 C -0.16261 0.91475 0.53609
 C846 C -0.13991 0.92648 0.54064
 C847 C -0.11595 0.96175 0.56156
 C848 C -0.09420 0.95167 0.54694
 C849 C -0.07211 0.96456 0.54814
 C850 C -0.07081 0.98880 0.56187
 C851 C -0.09280 0.99861 0.57745
 C852 C -0.11552 0.98477 0.57760
 C853 C -0.11749 0.91706 0.52652
 C854 C -0.09483 0.92926 0.53004
 C855 C -0.16059 0.97964 0.59151
 C856 C -0.13801 0.99333 0.59280
 H857 H -0.11751 0.90027 0.51248
 H858 H -0.07782 0.92153 0.51863
 H859 H -0.17744 0.98701 0.60347
 H860 H -0.13822 1.01077 0.60571
 H861 H -0.20185 0.95094 0.58241
 H862 H -0.16272 0.89838 0.52132
 H863 H -0.05610 0.95578 0.53609
 H864 H -0.09234 1.01674 0.58891
 C865 C -0.13965 0.06645 0.94669
 C866 C -0.15896 0.05564 0.93021
 C867 C -0.18288 0.06922 0.92756
 C868 C -0.18714 0.09318 0.94156
 C869 C -0.16723 0.10400 0.95692
 C870 C -0.14359 0.09069 0.95982
 C871 C -0.11512 0.05177 0.95136
 C872 C -0.09657 0.06250 0.96874
 C873 C -0.07378 0.04865 0.97394
 C874 C -0.06847 0.02376 0.96224
 C875 C -0.08742 0.01315 0.94453
 C876 C -0.11096 0.02716 0.93916
 C877 C -0.12422 0.10079 0.97676
 C878 C -0.10109 0.08688 0.98122
 C879 C -0.15414 0.03114 0.91787
 C880 C -0.13061 0.01720 0.92222
 H881 H -0.12714 0.11937 0.98713
 H882 H -0.08674 0.09516 0.99490
 H883 H -0.16881 0.02252 0.90503
 H884 H -0.12792 -0.00166 0.91252
 H885 H -0.19841 0.06076 0.91602
 H886 H -0.17064 0.12231 0.96786
 H887 H -0.06026 0.05753 0.98809
 H888 H -0.08400 -0.00579 0.93523
 C889 C 0.35911 0.57347 0.46190
 C890 C 0.35101 0.59236 0.48250
 C891 C 0.32823 0.60656 0.47766
 C892 C 0.31264 0.60129 0.45332
 C893 C 0.32125 0.58285 0.43216
 C894 C 0.34476 0.56891 0.43633
 C895 C 0.38307 0.55822 0.46737
 C896 C 0.39221 0.54018 0.44624
 C897 C 0.41619 0.52716 0.45074
 C898 C 0.43079 0.53218 0.47627
 C899 C 0.42010 0.54942 0.49778
 C900 C 0.39680 0.56267 0.49327
 C901 C 0.35407 0.55019 0.41599
 C902 C 0.37751 0.53629 0.42068
 C903 C 0.36544 0.59629 0.50808
 C904 C 0.38792 0.58156 0.51346
 H905 H 0.34326 0.54638 0.39616
 H906 H 0.38416 0.52240 0.40415
 H907 H 0.35920 0.61071 0.52418
 H908 H 0.39864 0.58525 0.53341
 H909 H 0.32199 0.62111 0.49367
 H910 H 0.30931 0.57870 0.41336
 H911 H 0.42392 0.51418 0.43379
 H912 H 0.43136 0.55541 0.51628
 C913 C 0.13479 0.57120 0.55053
 C914 C 0.13485 0.59794 0.54689
 C915 C 0.15800 0.60987 0.54618
 C916 C 0.18106 0.59539 0.54852
 C917 C 0.18103 0.56866 0.55281
 C918 C 0.15769 0.55638 0.55376
 C919 C 0.11037 0.55849 0.54920
 C920 C 0.10992 0.53165 0.55119
 C921 C 0.08641 0.51971 0.54751
 C922 C 0.06389 0.53461 0.54072
 C923 C 0.06568 0.56150 0.53865
 C924 C 0.08813 0.57343 0.54363
 C925 C 0.15663 0.52964 0.55680
 C926 C 0.13320 0.51751 0.55558
 C927 C 0.11181 0.61221 0.54272
 C928 C 0.08881 0.60012 0.54089
 H929 H 0.17412 0.51791 0.55956
 H930 H 0.13341 0.49686 0.55735
 H931 H 0.11166 0.63279 0.53991
 H932 H 0.07144 0.61173 0.53672
 H933 H 0.15823 0.63038 0.54277
 H934 H 0.19900 0.55757 0.55460
 H935 H 0.08592 0.49906 0.54838
 H936 H 0.05060 0.57344 0.52897
 C937 C 0.63917 0.06011 0.04779
 C938 C 0.63949 0.08668 0.04277
 C939 C 0.66279 0.09821 0.04053
 C940 C 0.68574 0.08350 0.04287
 C941 C 0.68545 0.05694 0.04829
 C942 C 0.66198 0.04506 0.05064
 C943 C 0.61452 0.04780 0.04857
 C944 C 0.61376 0.02107 0.05183
 C945 C 0.59001 0.00939 0.04975
 C946 C 0.56746 0.02440 0.04339
 C947 C 0.56942 0.05120 0.04060
 C948 C 0.59224 0.06290 0.04371
 C949 C 0.66064 0.01848 0.05505
 C950 C 0.63700 0.00672 0.05561
 C951 C 0.61650 0.10116 0.03919
 C952 C 0.59323 0.08944 0.03949
 H953 H 0.67807 0.00660 0.05750
 H954 H 0.63696 -0.01385 0.05835
 H955 H 0.61654 0.12161 0.03529
 H956 H 0.57586 0.10115 0.03573
 H957 H 0.66319 0.11866 0.03656
 H958 H 0.70334 0.04572 0.05023
 H959 H 0.58934 -0.01123 0.05125
 H960 H 0.55418 0.06312 0.03135
 C961 C 0.64712 0.94660 0.44431
 C962 C 0.65303 0.92519 0.46252
 C963 C 0.67711 0.91290 0.46045
 C964 C 0.69557 0.92200 0.44086
 C965 C 0.68943 0.94300 0.42195
 C966 C 0.66496 0.95550 0.42368
 C967 C 0.62187 0.96003 0.44730
 C968 C 0.61530 0.98125 0.42901
 C969 C 0.59058 0.99339 0.43167
 C970 C 0.57290 0.98429 0.45269
 C971 C 0.58075 0.96330 0.47106
 C972 C 0.60464 0.95111 0.46835
 C973 C 0.65798 0.97693 0.40583
 C974 C 0.63355 0.98947 0.40831
 C975 C 0.63500 0.91676 0.48306
 C976 C 0.61116 0.92959 0.48600
 H977 H 0.67153 0.98406 0.38982
 H978 H 0.62896 1.00577 0.39399
 H979 H 0.63942 0.90024 0.49712
 H980 H 0.59765 0.92256 0.50216
 H981 H 0.68190 0.89664 0.47484
 H982 H 0.70382 0.95001 0.40692
 H983 H 0.58502 1.00932 0.41717
 H984 H 0.56759 0.95500 0.48659
 C985 C 0.14757 0.43844 0.93270
 C986 C 0.15363 0.41399 0.94460
 C987 C 0.17848 0.40350 0.94185
 C988 C 0.19763 0.41764 0.92874
 C989 C 0.19139 0.44175 0.91584
 C990 C 0.16607 0.45226 0.91767
 C991 C 0.12175 0.45025 0.93763
 C992 C 0.11528 0.47472 0.92603
 C993 C 0.09042 0.48578 0.93118
 C994 C 0.07274 0.47281 0.94895
 C995 C 0.08066 0.44890 0.96150
 C996 C 0.10437 0.43720 0.95505
 C997 C 0.15900 0.47669 0.90619
 C998 C 0.13398 0.48759 0.91000
 C999 C 0.13517 0.40111 0.96072
 C1000 C 0.11099 0.41266 0.96616
 H1001 H 0.17300 0.48760 0.89448
 H1002 H 0.12944 0.50649 0.90094
 H1003 H 0.13973 0.38229 0.97005
 H1004 H 0.09739 0.40239 0.97934
 H1005 H 0.18350 0.38506 0.95197
 H1006 H 0.20632 0.45272 0.90598
 H1007 H 0.08505 0.50438 0.92182
 H1008 H 0.06826 0.43902 0.97656
 C1009 C 0.00366 0.38541 0.45301
 C1010 C 0.00337 0.38438 0.42169
 C1011 C 0.00407 0.36051 0.40758
 C1012 C 0.00493 0.33774 0.42454
 C1013 C 0.00457 0.33914 0.45594
 C1014 C 0.00424 0.36296 0.47031
 C1015 C 0.00408 0.41046 0.46795
 C1016 C 0.00567 0.41154 0.49918
 C1017 C 0.00697 0.43547 0.51314
 C1018 C 0.00525 0.45829 0.49623
 C1019 C 0.00392 0.45651 0.46477
 C1020 C 0.00353 0.43280 0.45061
 C1021 C 0.00526 0.36479 0.50157
 C1022 C 0.00610 0.38864 0.51575
 C1023 C 0.00298 0.40725 0.40511
 C1024 C 0.00289 0.43105 0.41934
 H1025 H 0.00575 0.34762 0.51520
 H1026 H 0.00710 0.38915 0.53988
 H1027 H 0.00290 0.40675 0.38095
 H1028 H 0.00263 0.44823 0.40573
 H1029 H 0.00443 0.35958 0.38343
 H1030 H 0.00577 0.32169 0.46908
 H1031 H 0.00931 0.43623 0.53708
 H1032 H 0.00346 0.47352 0.45093
 C1033 C 0.51888 -0.12647 -0.04212
 C1034 C 0.52297 -0.12819 -0.07308
 C1035 C 0.52535 -0.15231 -0.08640
 C1036 C 0.52397 -0.17468 -0.06903
 C1037 C 0.51996 -0.17261 -0.03793
 C1038 C 0.51737 -0.14850 -0.02436
 C1039 C 0.51635 -0.10108 -0.02805
 C1040 C 0.51286 -0.09922 0.00298
 C1041 C 0.51126 -0.07495 0.01629
 C1042 C 0.51216 -0.05263 -0.00137
 C1043 C 0.51582 -0.05513 -0.03252
 C1044 C 0.51803 -0.07916 -0.04588
 C1045 C 0.51351 -0.14593 0.00660
 C1046 C 0.51136 -0.12170 0.02005
 C1047 C 0.52466 -0.10577 -0.09013
 C1048 C 0.52224 -0.08164 -0.07675
 H1049 H 0.51226 -0.16277 0.02058
 H1050 H 0.50849 -0.12058 0.04399
 H1051 H 0.52799 -0.10688 -0.11400
 H1052 H 0.52385 -0.06479 -0.09066
 H1053 H 0.52795 -0.15362 -0.11036
 H1054 H 0.51915 -0.18971 -0.02429
 H1055 H 0.50987 -0.07362 0.04031
 H1056 H 0.51743 -0.03841 -0.04661
 C1057 C -0.00883 -0.13552 1.03232
 C1058 C -0.02000 -0.15465 1.01583
 C1059 C -0.02238 -0.17888 1.02893
 C1060 C -0.01312 -0.18382 1.05789
 C1061 C -0.00113 -0.16482 1.07359
 C1062 C 0.00069 -0.14046 1.06114
 C1063 C -0.00797 -0.10954 1.01972
 C1064 C 0.00090 -0.09006 1.03748
 C1065 C -0.00009 -0.06514 1.02651
 C1066 C -0.00709 -0.05962 0.99662
 C1067 C -0.01558 -0.07957 0.97881
 C1068 C -0.01680 -0.10448 0.99066
 C1069 C 0.01082 -0.12067 1.07748
 C1070 C 0.01050 -0.09574 1.06604
 C1071 C -0.02908 -0.14889 0.98698
 C1072 C -0.02715 -0.12433 0.97445
 H1073 H 0.01845 -0.12433 1.09958
 H1074 H 0.01788 -0.08081 1.07964
 H1075 H -0.03783 -0.16344 0.97404
 H1076 H -0.03438 -0.12071 0.95217
 H1077 H -0.03192 -0.19361 1.01711
 H1078 H 0.00570 -0.16875 1.09602
 H1079 H 0.00600 -0.05027 1.04111
 H1080 H -0.02206 -0.07558 0.95629
 C1081 C 0.49180 0.37686 0.51175
 C1082 C 0.50903 0.36706 0.53335
 C1083 C 0.50415 0.34416 0.54799
 C1084 C 0.48167 0.33168 0.54225
 C1085 C 0.46462 0.34145 0.52032
 C1086 C 0.46983 0.36400 0.50464
 C1087 C 0.49598 0.40194 0.49788
 C1088 C 0.47851 0.41232 0.47692
 C1089 C 0.48114 0.43748 0.46631
 C1090 C 0.49987 0.45285 0.47840
 C1091 C 0.51742 0.44142 0.49898
 C1092 C 0.51610 0.41604 0.50798
 C1093 C 0.45323 0.37444 0.48272
 C1094 C 0.45765 0.39804 0.46887
 C1095 C 0.53014 0.38096 0.54099
 C1096 C 0.53339 0.40528 0.52888
 H1097 H 0.43641 0.36455 0.47666
 H1098 H 0.44402 0.40567 0.45266
 H1099 H 0.54364 0.37350 0.55743
 H1100 H 0.54918 0.41602 0.53652
 H1101 H 0.51721 0.33665 0.56493
 H1102 H 0.44737 0.33165 0.51577
 H1103 H 0.46700 0.44585 0.45116
 H1104 H 0.53085 0.45279 0.51046
 C1105 C 0.50884 1.13691 0.50462
 C1106 C 0.52995 1.15137 0.49780
 C1107 C 0.53423 1.17315 0.51496
 C1108 C 0.51703 1.18076 0.53802
 C1109 C 0.49547 1.16660 0.54374
 C1110 C 0.49163 1.14430 0.52764
 C1111 C 0.50550 1.11275 0.48860
 C1112 C 0.48623 1.09697 0.49800
 C1113 C 0.48544 1.07250 0.48605
 C1114 C 0.50275 1.06372 0.46336
 C1115 C 0.52081 1.08077 0.45257
 C1116 C 0.52283 1.10495 0.46589
 C1117 C 0.47154 1.12867 0.53499
 C1118 C 0.46913 1.10519 0.52075
 C1119 C 0.54661 1.14333 0.47448
 C1120 C 0.54292 1.12071 0.45856
 H1121 H 0.45815 1.13416 0.55267
 H1122 H 0.45406 1.09311 0.52803
 H1123 H 0.56286 1.15441 0.46877
 H1124 H 0.55648 1.11504 0.44113
 H1125 H 0.55089 1.18409 0.51061
 H1126 H 0.48237 1.17236 0.56165
 H1127 H 0.47242 1.05966 0.49635
 H1128 H 0.53481 1.07437 0.43592
 C1129 C 0.01653 0.62345 1.01672
 C1130 C 0.03922 0.63609 1.01229
 C1131 C 0.04416 0.65708 1.03038
 C1132 C 0.02573 0.66649 1.05139
 C1133 C 0.00266 0.65392 1.05464
 C1134 C -0.00155 0.63189 1.03826
 C1135 C 0.01212 0.60024 0.99942
 C1136 C -0.00873 0.58575 1.00683
 C1137 C -0.01077 0.56191 0.99357
 C1138 C 0.00643 0.55312 0.97083
 C1139 C 0.02613 0.56911 0.96203
 C1140 C 0.02978 0.59202 0.97731
 C1141 C -0.02309 0.61764 1.04376
 C1142 C -0.02629 0.59460 1.02881
 C1143 C 0.05653 0.62734 0.98996
 C1144 C 0.05168 0.60595 0.97244
 H1145 H -0.03708 0.62385 1.06051
 H1146 H -0.04257 0.58356 1.03462
 H1147 H 0.07404 0.63702 0.98610
 H1148 H 0.06567 0.59969 0.95573
 H1149 H 0.06176 0.66678 1.02709
 H1150 H -0.01139 0.66034 1.07125
 H1151 H -0.02476 0.54953 1.00277
 H1152 H 0.04023 0.56253 0.94560
 C1153 C 0.48840 0.63291 -0.00482
 C1154 C 0.51010 0.64264 -0.01852
 C1155 C 0.50759 0.66570 -0.03480
 C1156 C 0.48325 0.67826 -0.03869
 C1157 C 0.46203 0.66860 -0.02338
 C1158 C 0.46448 0.64607 -0.00657
 C1159 C 0.49044 0.60781 0.01032
 C1160 C 0.46860 0.59789 0.02334
 C1161 C 0.47023 0.57329 0.03582
 C1162 C 0.49325 0.55796 0.03444
 C1163 C 0.51509 0.56881 0.02213
 C1164 C 0.51386 0.59365 0.01017
 C1165 C 0.44318 0.63591 0.00755
 C1166 C 0.44523 0.61226 0.02237
 C1167 C 0.53357 0.62840 -0.01694
 C1168 C 0.53539 0.60426 -0.00298
 H1169 H 0.42463 0.64603 0.00648
 H1170 H 0.42821 0.60480 0.03233
 H1171 H 0.55051 0.63560 -0.02735
 H1172 H 0.55368 0.59357 -0.00306
 H1173 H 0.52415 0.67248 -0.04645
 H1174 H 0.44341 0.67860 -0.02462
 H1175 H 0.45304 0.56571 0.04519
 H1176 H 0.53307 0.55819 0.02149
 C1177 C -0.01809 1.14521 0.49294
 C1178 C -0.04019 1.16103 0.49744
 C1179 C -0.04417 1.18297 0.47952
 C1180 C -0.02538 1.19009 0.45864
 C1181 C -0.00231 1.17499 0.45636
 C1182 C 0.00080 1.15187 0.47227
 C1183 C -0.01543 1.12044 0.50883
 C1184 C 0.00450 1.10296 0.50075
 C1185 C 0.00494 1.07825 0.51274
 C1186 C -0.01218 1.07158 0.53582
 C1187 C -0.03148 1.08997 0.54460
 C1188 C -0.03380 1.11400 0.53023
 C1189 C 0.02164 1.13453 0.46659
 C1190 C 0.02310 1.11022 0.48002
 C1191 C -0.05820 1.15410 0.51910
 C1192 C -0.05477 1.13127 0.53567
 H1193 H 0.03633 1.13933 0.45065
 H1194 H 0.03890 1.09697 0.47409
 H1195 H -0.07519 1.16632 0.52311
 H1196 H -0.06918 1.12664 0.55202
 H1197 H -0.06177 1.19464 0.48198
 H1198 H 0.01206 1.17983 0.44001
 H1199 H 0.01862 1.06412 0.50362
 H1200 H -0.04570 1.08504 0.56105
 C1201 C 0.76005 0.65642 0.87185
 C1202 C 0.78487 0.64811 0.87984
 C1203 C 0.78831 0.62716 0.89948
 C1204 C 0.76701 0.61445 0.91121
 C1205 C 0.74234 0.62288 0.90174
 C1206 C 0.73876 0.64388 0.88262
 C1207 C 0.75617 0.67869 0.85180
 C1208 C 0.73127 0.68679 0.84419
 C1209 C 0.72748 0.70701 0.82437
 C1210 C 0.74823 0.71900 0.81050
 C1211 C 0.77316 0.71213 0.82046
 C1212 C 0.77726 0.69138 0.84055
 C1213 C 0.71411 0.65269 0.87432
 C1214 C 0.71041 0.67391 0.85556
 C1215 C 0.80566 0.66125 0.86840
 C1216 C 0.80194 0.68243 0.84904
 H1217 H 0.69753 0.64317 0.88249
 H1218 H 0.69105 0.68009 0.84956
 H1219 H 0.82500 0.65507 0.87440
 H1220 H 0.81851 0.69171 0.84046
 H1221 H 0.80754 0.62196 0.90676
 H1222 H 0.72567 0.61295 0.90872
 H1223 H 0.70787 0.71238 0.81881
 H1224 H 0.78926 0.72215 0.81195
 C1225 C 0.26294 0.17113 0.38585
 C1226 C 0.28677 0.15836 0.38970
 C1227 C 0.28852 0.13641 0.40786
 C1228 C 0.26648 0.12674 0.42196
 C1229 C 0.24271 0.14012 0.41735
 C1230 C 0.24090 0.16226 0.39969
 C1231 C 0.26085 0.19394 0.36640
 C1232 C 0.23687 0.20626 0.36231
 C1233 C 0.23440 0.22631 0.34198
 C1234 C 0.25531 0.23352 0.32399
 C1235 C 0.27989 0.22318 0.33118
 C1236 C 0.28263 0.20260 0.35165
 C1237 C 0.21729 0.17559 0.39542
 C1238 C 0.21533 0.19733 0.37716
 C1239 C 0.30840 0.16786 0.37534
 C1240 C 0.30635 0.18956 0.35661
 H1241 H 0.20015 0.16903 0.40605
 H1242 H 0.19666 0.20681 0.37398
 H1243 H 0.32702 0.15822 0.37824
 H1244 H 0.32337 0.19582 0.34542
 H1245 H 0.30740 0.12776 0.41179
 H1246 H 0.22524 0.13310 0.42655
 H1247 H 0.21537 0.23492 0.33880
 H1248 H 0.29655 0.23002 0.31986
 C1249 C 0.73202 0.31878 0.40870
 C1250 C 0.75459 0.32970 0.41780
 C1251 C 0.75311 0.35301 0.43299
 C1252 C 0.72924 0.36499 0.44062
 C1253 C 0.70670 0.35341 0.43162
 C1254 C 0.70802 0.33056 0.41520
 C1255 C 0.73368 0.29506 0.39101
 C1256 C 0.71135 0.28493 0.37988
 C1257 C 0.71354 0.26431 0.35963
 C1258 C 0.73791 0.25532 0.34940
 C1259 C 0.75963 0.26318 0.36472
 C1260 C 0.75778 0.28370 0.38431
 C1261 C 0.68592 0.31928 0.40495
 C1262 C 0.68756 0.29693 0.38750
 C1263 C 0.77831 0.31719 0.41134
 C1264 C 0.77987 0.29439 0.39516
 H1265 H 0.66721 0.32814 0.40984
 H1266 H 0.67010 0.28941 0.37925
 H1267 H 0.79585 0.32523 0.41856
 H1268 H 0.79858 0.28561 0.39003
 H1269 H 0.77067 0.36178 0.43863
 H1270 H 0.68809 0.36190 0.43763
 H1271 H 0.69652 0.25718 0.34975
 H1272 H 0.77858 0.25528 0.35910
 C1273 C 0.21964 0.82677 0.89330
 C1274 C 0.20716 0.84994 0.88455
 C1275 C 0.20809 0.87139 0.90325
 C1276 C 0.22248 0.87010 0.92990
 C1277 C 0.23481 0.84642 0.93799
 C1278 C 0.23319 0.82480 0.92011
 C1279 C 0.21945 0.80439 0.87347
 C1280 C 0.23265 0.78154 0.88198
 C1281 C 0.23523 0.76141 0.86166
 C1282 C 0.22592 0.76440 0.83230
 C1283 C 0.20986 0.78614 0.82558
 C1284 C 0.20734 0.80664 0.84573
 C1285 C 0.24518 0.80126 0.92846
 C1286 C 0.24485 0.77996 0.90974
 C1287 C 0.19458 0.85129 0.85692
 C1288 C 0.19475 0.83005 0.83780
 H1289 H 0.25536 0.79945 0.94938
 H1290 H 0.25503 0.76240 0.91661
 H1291 H 0.18505 0.86908 0.84966
 H1292 H 0.18569 0.83221 0.81622
 H1293 H 0.19864 0.88930 0.89622
 H1294 H 0.24491 0.84433 0.95891
 H1295 H 0.24684 0.74454 0.86797
 H1296 H 0.20156 0.78833 0.80366
 C1297 C 0.30059 0.81953 0.10090
 C1298 C 0.28716 0.81901 0.07401
 C1299 C 0.28452 0.84121 0.05655
 C1300 C 0.29536 0.86411 0.06544
 C1301 C 0.30970 0.86387 0.09217
 C1302 C 0.31203 0.84175 0.11016
 C1303 C 0.30146 0.79678 0.12050
 C1304 C 0.31334 0.79767 0.14839
 C1305 C 0.31068 0.77735 0.16866
 C1306 C 0.29422 0.75774 0.16221
 C1307 C 0.28631 0.75516 0.13230
 C1308 C 0.28889 0.77509 0.11181
 C1309 C 0.32495 0.84151 0.13759
 C1310 C 0.32569 0.81981 0.15632
 C1311 C 0.27613 0.79637 0.06527
 C1312 C 0.27698 0.77475 0.08388
 H1313 H 0.33399 0.85845 0.14507
 H1314 H 0.33512 0.82074 0.17766
 H1315 H 0.26604 0.79561 0.04432
 H1316 H 0.26722 0.75806 0.07692
 H1317 H 0.27468 0.84024 0.03547
 H1318 H 0.31792 0.88116 0.09994
 H1319 H 0.31949 0.77800 0.19020
 H1320 H 0.27518 0.73930 0.12575
 C1321 C 0.79705 0.32442 0.61138
 C1322 C 0.78752 0.32396 0.58227
 C1323 C 0.78752 0.34616 0.56484
 C1324 C 0.79536 0.36925 0.57686
 C1325 C 0.80601 0.36923 0.60568
 C1326 C 0.80699 0.34667 0.62304
 C1327 C 0.79475 0.30176 0.63074
 C1328 C 0.80329 0.30241 0.66025
 C1329 C 0.79768 0.28235 0.67980
 C1330 C 0.78176 0.26294 0.67065
 C1331 C 0.77609 0.26115 0.64000
 C1332 C 0.78210 0.28071 0.62011
 C1333 C 0.81660 0.34610 0.65223
 C1334 C 0.81505 0.32424 0.67040
 C1335 C 0.77680 0.30177 0.57167
 C1336 C 0.77383 0.28060 0.59041
 H1337 H 0.82447 0.36301 0.66153
 H1338 H 0.82161 0.32506 0.69322
 H1339 H 0.76948 0.30123 0.54918
 H1340 H 0.76407 0.26444 0.58194
 H1341 H 0.78043 0.34574 0.54218
 H1342 H 0.81233 0.38688 0.61498
 H1343 H 0.80313 0.28368 0.70292
 H1344 H 0.76473 0.24596 0.63201
 C1345 C 0.21968 0.16651 0.61777
 C1346 C 0.21002 0.14337 0.62746
 C1347 C 0.21210 0.12209 0.60854
 C1348 C 0.22317 0.12404 0.57979
 C1349 C 0.23228 0.14764 0.57035
 C1350 C 0.23076 0.16884 0.58930
 C1351 C 0.21917 0.18842 0.63828
 C1352 C 0.23036 0.21094 0.62923
 C1353 C 0.23357 0.23011 0.65019
 C1354 C 0.22704 0.22629 0.68051
 C1355 C 0.21246 0.20526 0.68811
 C1356 C 0.20914 0.18583 0.66723
 C1357 C 0.24024 0.19231 0.58038
 C1358 C 0.24015 0.21300 0.60008
 C1359 C 0.19865 0.14197 0.65592
 C1360 C 0.19815 0.16288 0.67547
 H1361 H 0.24846 0.19448 0.55830
 H1362 H 0.24859 0.23045 0.59279
 H1363 H 0.19080 0.12431 0.66352
 H1364 H 0.19024 0.16063 0.69769
 H1365 H 0.20503 0.10407 0.61613
 H1366 H 0.24003 0.14973 0.54801
 H1367 H 0.24372 0.24666 0.64327
 H1368 H 0.20642 0.20236 0.71098
 C1369 C 0.72263 0.66804 0.10008
 C1370 C 0.69945 0.65603 0.09836
 C1371 C 0.69846 0.63331 0.08174
 C1372 C 0.72089 0.62186 0.06830
 C1373 C 0.74421 0.63367 0.07233
 C1374 C 0.74497 0.65714 0.08685
 C1375 C 0.72378 0.69225 0.11656
 C1376 C 0.74684 0.70446 0.11709
 C1377 C 0.74858 0.72624 0.13432
 C1378 C 0.72863 0.73427 0.15428
 C1379 C 0.70455 0.72385 0.15073
 C1380 C 0.70216 0.70233 0.13216
 C1381 C 0.76773 0.67003 0.08803
 C1382 C 0.76852 0.69358 0.10241
 C1383 C 0.67779 0.66716 0.11316
 C1384 C 0.67921 0.68968 0.13011
 H1385 H 0.78504 0.66193 0.07761
 H1386 H 0.78653 0.70285 0.10305
 H1387 H 0.65971 0.65809 0.11217
 H1388 H 0.66232 0.69703 0.14201
 H1389 H 0.68014 0.62511 0.07888
 H1390 H 0.76199 0.62498 0.06390
 H1391 H 0.76690 0.73489 0.13467
 H1392 H 0.68828 0.73131 0.16361
 C1393 C 0.19008 0.61329 0.18701
 C1394 C 0.20298 0.58987 0.18020
 C1395 C 0.18941 0.56727 0.18188
 C1396 C 0.16343 0.56842 0.19074
 C1397 C 0.15081 0.59208 0.19663
 C1398 C 0.16397 0.61452 0.19494
 C1399 C 0.20441 0.63683 0.18755
 C1400 C 0.19158 0.65953 0.19643
 C1401 C 0.20536 0.68101 0.20050
 C1402 C 0.23192 0.68141 0.19455
 C1403 C 0.24459 0.65850 0.18437
 C1404 C 0.23085 0.63592 0.18137
 C1405 C 0.15168 0.63808 0.20222
 C1406 C 0.16531 0.66023 0.20311
 C1407 C 0.22923 0.58962 0.17291
 C1408 C 0.24289 0.61221 0.17347
 H1409 H 0.13155 0.63927 0.20816
 H1410 H 0.15531 0.67798 0.20972
 H1411 H 0.23946 0.57174 0.16734
 H1412 H 0.26317 0.61095 0.16835
 H1413 H 0.19910 0.54889 0.17734
 H1414 H 0.13085 0.59285 0.20341
 H1415 H 0.19538 0.69651 0.21191
 H1416 H 0.26501 0.65792 0.18021
 C1417 C 0.69041 0.10841 0.69678
 C1418 C 0.70570 0.08566 0.69490
 C1419 C 0.69390 0.06207 0.69698
 C1420 C 0.66719 0.06168 0.70141
 C1421 C 0.65235 0.08460 0.70317
 C1422 C 0.66376 0.10795 0.70094
 C1423 C 0.70247 0.13322 0.69560
 C1424 C 0.68698 0.15546 0.69899
 C1425 C 0.69824 0.17858 0.70146
 C1426 C 0.72506 0.18090 0.69973
 C1427 C 0.74054 0.15828 0.69503
 C1428 C 0.72923 0.13423 0.69338
 C1429 C 0.64896 0.13087 0.70340
 C1430 C 0.66040 0.15427 0.70255
 C1431 C 0.73237 0.08720 0.69151
 C1432 C 0.74391 0.11101 0.69093
 H1433 H 0.62845 0.13070 0.70669
 H1434 H 0.64840 0.17162 0.70536
 H1435 H 0.74448 0.06984 0.68987
 H1436 H 0.76453 0.11121 0.68909
 H1437 H 0.70525 0.04423 0.69535
 H1438 H 0.63182 0.08413 0.70639
 H1439 H 0.68583 0.19370 0.71006
 H1440 H 0.76116 0.15917 0.69452
 C1441 C 0.81628 0.09903 0.29851
 C1442 C 0.81340 0.08342 0.32371
 C1443 C 0.82940 0.06102 0.32674
 C1444 C 0.84737 0.05398 0.30400
 C1445 C 0.85034 0.07071 0.27963
 C1446 C 0.83502 0.09299 0.27675
 C1447 C 0.79978 0.12247 0.29496
 C1448 C 0.80399 0.13841 0.27054
 C1449 C 0.79029 0.16159 0.26846
 C1450 C 0.77122 0.16929 0.28962
 C1451 C 0.76643 0.15252 0.31365
 C1452 C 0.78110 0.12917 0.31666
 C1453 C 0.83819 0.10930 0.25228
 C1454 C 0.82301 0.13179 0.24934
 C1455 C 0.79429 0.09039 0.34490
 C1456 C 0.77839 0.11281 0.34140
 H1457 H 0.85268 0.10478 0.23544
 H1458 H 0.82630 0.14420 0.23040
 H1459 H 0.79162 0.07847 0.36439
 H1460 H 0.76414 0.11756 0.35842
 H1461 H 0.82671 0.04847 0.34569
 H1462 H 0.86500 0.06658 0.26283
 H1463 H 0.79676 0.17469 0.25171
 H1464 H 0.75264 0.15830 0.33081
 C1465 C 0.31718 0.60223 0.81068
 C1466 C 0.33938 0.59627 0.79377
 C1467 C 0.35108 0.57184 0.79561
 C1468 C 0.34175 0.55343 0.81527
 C1469 C 0.32042 0.56019 0.83382
 C1470 C 0.30742 0.58443 0.83067
 C1471 C 0.30370 0.62748 0.80674
 C1472 C 0.28038 0.63333 0.82165
 C1473 C 0.26707 0.65728 0.81613
 C1474 C 0.27760 0.67523 0.79641
 C1475 C 0.30197 0.66883 0.78364
 C1476 C 0.31443 0.64519 0.78769
 C1477 C 0.28449 0.59111 0.84618
 C1478 C 0.27109 0.61497 0.84152
 C1479 C 0.34938 0.61471 0.77488
 C1480 C 0.33732 0.63896 0.77226
 H1481 H 0.27655 0.57759 0.86162
 H1482 H 0.25333 0.61903 0.85356
 H1483 H 0.36665 0.61036 0.76197
 H1484 H 0.34562 0.65277 0.75744
 H1485 H 0.36788 0.56724 0.78196
 H1486 H 0.31288 0.54611 0.84885
 H1487 H 0.24893 0.66192 0.82713
 H1488 H 0.31137 0.68203 0.76917
 C1489 C 0.30532 0.38430 0.71217
 C1490 C 0.29818 0.40293 0.73346
 C1491 C 0.31336 0.42408 0.73685
 C1492 C 0.33580 0.42638 0.71949
 C1493 C 0.34237 0.40751 0.69803
 C1494 C 0.32710 0.38662 0.69408
 C1495 C 0.29060 0.36112 0.70999
 C1496 C 0.29841 0.34211 0.68948
 C1497 C 0.28661 0.31879 0.69015
 C1498 C 0.26921 0.31330 0.71322
 C1499 C 0.25931 0.33357 0.73130
 C1500 C 0.27016 0.35760 0.72986
 C1501 C 0.33357 0.36768 0.67286
 C1502 C 0.31929 0.34589 0.67036
 C1503 C 0.27641 0.39967 0.75142
 C1504 C 0.26267 0.37735 0.74970
 H1505 H 0.35013 0.36941 0.65848
 H1506 H 0.32533 0.33138 0.65426
 H1507 H 0.27053 0.41401 0.76777
 H1508 H 0.24677 0.37506 0.76495
 H1509 H 0.30775 0.43859 0.75310
 H1510 H 0.35974 0.40861 0.68492
 H1511 H 0.29283 0.30423 0.67431
 H1512 H 0.24517 0.33002 0.74843
 C1513 C 0.81451 0.88732 0.20656
 C1514 C 0.80792 0.90827 0.18816
 C1515 C 0.82256 0.93023 0.18967
 C1516 C 0.84239 0.93155 0.21100
 C1517 C 0.84786 0.91031 0.22961
 C1518 C 0.83467 0.88815 0.22693
 C1519 C 0.80031 0.86381 0.20443
 C1520 C 0.80871 0.84270 0.22122
 C1521 C 0.79626 0.82039 0.21887
 C1522 C 0.77341 0.81839 0.20238
 C1523 C 0.76502 0.83998 0.18516
 C1524 C 0.77898 0.86272 0.18567
 C1525 C 0.84177 0.86661 0.24409
 C1526 C 0.82928 0.84405 0.24087
 C1527 C 0.78680 0.90664 0.16901
 C1528 C 0.77238 0.88447 0.16814
 H1529 H 0.85736 0.86706 0.25979
 H1530 H 0.83552 0.82761 0.25425
 H1531 H 0.78118 0.92274 0.15481
 H1532 H 0.75616 0.88428 0.15336
 H1533 H 0.81777 0.94655 0.17543
 H1534 H 0.86355 0.91040 0.24524
 H1535 H 0.80428 0.80467 0.23197
 H1536 H 0.74810 0.83910 0.17160
 C1537 C 0.66013 0.87898 0.79184
 C1538 C 0.66829 0.89441 0.81503
 C1539 C 0.65798 0.91978 0.81733
 C1540 C 0.64000 0.92939 0.79626
 C1541 C 0.63120 0.91314 0.77425
 C1542 C 0.64142 0.88816 0.77161
 C1543 C 0.67251 0.85332 0.78735
 C1544 C 0.66557 0.83909 0.76276
 C1545 C 0.67884 0.81608 0.75675
 C1546 C 0.69879 0.80614 0.77479
 C1547 C 0.70507 0.82032 0.80030
 C1548 C 0.69219 0.84424 0.80635
 C1549 C 0.63431 0.87273 0.74798
 C1550 C 0.64642 0.84868 0.74342
 C1551 C 0.68744 0.88445 0.83436
 C1552 C 0.69910 0.85979 0.83017
 H1553 H 0.61992 0.87965 0.73227
 H1554 H 0.64110 0.83769 0.72423
 H1555 H 0.69389 0.89604 0.85246
 H1556 H 0.71410 0.85314 0.84523
 H1557 H 0.66491 0.93238 0.83419
 H1558 H 0.61734 0.92051 0.75808
 H1559 H 0.67524 0.80747 0.73587
 H1560 H 0.72043 0.81335 0.81470
 C1561 C 0.17551 0.39571 0.29354
 C1562 C 0.18541 0.41343 0.31314
 C1563 C 0.17292 0.43793 0.31581
 C1564 C 0.15086 0.44424 0.29886
 C1565 C 0.14063 0.42568 0.28068
 C1566 C 0.15298 0.40163 0.27758
 C1567 C 0.18941 0.37081 0.28867
 C1568 C 0.17980 0.35397 0.26808
 C1569 C 0.19293 0.33080 0.26285
 C1570 C 0.21563 0.32324 0.27823
 C1571 C 0.22518 0.34044 0.29910
 C1572 C 0.21211 0.36448 0.30419
 C1573 C 0.14376 0.38382 0.25768
 C1574 C 0.15702 0.36038 0.25293
 C1575 C 0.20805 0.40649 0.32862
 C1576 C 0.22105 0.38243 0.32437
 H1577 H 0.12643 0.38824 0.24526
 H1578 H 0.14948 0.34722 0.23709
 H1579 H 0.21592 0.41986 0.34396
 H1580 H 0.23842 0.37798 0.33671
 H1581 H 0.18097 0.45234 0.32962
 H1582 H 0.12374 0.43058 0.26758
 H1583 H 0.18475 0.31823 0.24690
 H1584 H 0.24238 0.33512 0.31137
 C1585 C 0.12948 0.24138 0.79298
 C1586 C 0.12714 0.23894 0.82410
 C1587 C 0.10286 0.24157 0.83743
 C1588 C 0.08105 0.24687 0.81993
 C1589 C 0.08350 0.24798 0.78863
 C1590 C 0.10781 0.24555 0.77502
 C1591 C 0.15521 0.24115 0.77918
 C1592 C 0.15773 0.24504 0.74829
 C1593 C 0.18230 0.24645 0.73562
 C1594 C 0.20428 0.24401 0.75363
 C1595 C 0.20108 0.24025 0.78466
 C1596 C 0.17677 0.23852 0.79743
 C1597 C 0.11107 0.24855 0.74403
 C1598 C 0.13558 0.24831 0.73091
 C1599 C 0.14921 0.23529 0.84145
 C1600 C 0.17362 0.23512 0.82834
 H1601 H 0.09454 0.25174 0.72988
 H1602 H 0.13720 0.25126 0.70704
 H1603 H 0.14762 0.23321 0.86546
 H1604 H 0.19016 0.23287 0.84262
 H1605 H 0.10097 0.24081 0.86153
 H1606 H 0.06674 0.25242 0.77517
 H1607 H 0.18420 0.25030 0.71195
 H1608 H 0.21742 0.23939 0.79931
 C1609 C 0.61552 0.76590 0.26370
 C1610 C 0.59833 0.78609 0.25530
 C1611 C 0.57528 0.79012 0.27155
 C1612 C 0.56937 0.77351 0.29526
 C1613 C 0.58642 0.75286 0.30242
 C1614 C 0.60971 0.74931 0.28727
 C1615 C 0.64066 0.76281 0.24864
 C1616 C 0.65858 0.74435 0.25938
 C1617 C 0.68321 0.74322 0.24750
 C1618 C 0.69010 0.75883 0.22313
 C1619 C 0.67145 0.77678 0.21181
 C1620 C 0.64685 0.77927 0.22509
 C1621 C 0.62779 0.73017 0.29622
 C1622 C 0.65198 0.72797 0.28279
 C1623 C 0.60500 0.80213 0.23145
 C1624 C 0.62869 0.79859 0.21640
 H1625 H 0.62351 0.71732 0.31442
 H1626 H 0.66575 0.71351 0.29101
 H1627 H 0.59192 0.81770 0.22454
 H1628 H 0.63311 0.81156 0.19838
 H1629 H 0.56219 0.80617 0.26617
 H1630 H 0.58208 0.74036 0.32097
 H1631 H 0.69727 0.73035 0.25805
 H1632 H 0.67651 0.78977 0.19406
 C1633 C 0.61867 0.23242 0.24630
 C1634 C 0.61069 0.25038 0.22443
 C1635 C 0.58888 0.24625 0.20781
 C1636 C 0.57556 0.22392 0.21211
 C1637 C 0.58372 0.20596 0.23401
 C1638 C 0.60523 0.21029 0.25148
 C1639 C 0.64239 0.23616 0.26281
 C1640 C 0.65103 0.21790 0.28400
 C1641 C 0.67509 0.22020 0.29723
 C1642 C 0.69123 0.23951 0.28764
 C1643 C 0.68139 0.25811 0.26715
 C1644 C 0.65707 0.25683 0.25519
 C1645 C 0.61397 0.19279 0.27351
 C1646 C 0.63636 0.19663 0.28965
 C1647 C 0.62517 0.27170 0.21885
 C1648 C 0.64817 0.27472 0.23374
 H1649 H 0.60368 0.17573 0.27793
 H1650 H 0.64274 0.18233 0.30587
 H1651 H 0.61919 0.28568 0.20207
 H1652 H 0.65941 0.29083 0.22785
 H1653 H 0.58269 0.25996 0.19078
 H1654 H 0.57331 0.18881 0.23740
 H1655 H 0.68231 0.20532 0.31233
 H1656 H 0.69353 0.27218 0.25772
 C1657 C 0.12234 0.74198 0.72612
 C1658 C 0.11955 0.73983 0.69508
 C1659 C 0.09528 0.73707 0.68323
 C1660 C 0.07374 0.73654 0.70201
 C1661 C 0.07655 0.73958 0.73308
 C1662 C 0.10103 0.74196 0.74534
 C1663 C 0.14820 0.74343 0.73870
 C1664 C 0.15147 0.74425 0.76979
 C1665 C 0.17651 0.74398 0.78150
 C1666 C 0.19801 0.74330 0.76214
 C1667 C 0.19374 0.74312 0.73097
 C1668 C 0.16924 0.74297 0.71928
 C1669 C 0.10486 0.74365 0.77632
 C1670 C 0.12961 0.74461 0.78833
 C1671 C 0.14118 0.73989 0.67645
 C1672 C 0.16561 0.74148 0.68834
 H1673 H 0.08863 0.74378 0.79148
 H1674 H 0.13165 0.74538 0.81234
 H1675 H 0.13923 0.73832 0.65249
 H1676 H 0.18187 0.74102 0.67320
 H1677 H 0.09308 0.73508 0.65933
 H1678 H 0.05990 0.73920 0.74759
 H1679 H 0.17924 0.74353 0.80543
 H1680 H 0.20949 0.74219 0.71518
 C1681 C 0.86868 0.76677 0.72724
 C1682 C 0.88057 0.78863 0.73669
 C1683 C 0.90475 0.79379 0.72471
 C1684 C 0.91776 0.77612 0.70529
 C1685 C 0.90593 0.75351 0.69768
 C1686 C 0.88101 0.74945 0.70731
 C1687 C 0.84227 0.76256 0.73714
 C1688 C 0.82923 0.74316 0.72378
 C1689 C 0.80338 0.74130 0.73004
 C1690 C 0.79085 0.75555 0.75324
 C1691 C 0.80458 0.77472 0.76713
 C1692 C 0.83002 0.77900 0.75812
 C1693 C 0.86772 0.72904 0.69616
 C1694 C 0.84199 0.72639 0.70358
 C1695 C 0.86776 0.80495 0.75749
 C1696 C 0.84318 0.79991 0.76849
 H1697 H 0.87694 0.71566 0.68061
 H1698 H 0.83203 0.71103 0.69353
 H1699 H 0.87679 0.82178 0.76531
 H1700 H 0.83407 0.81300 0.78444
 H1701 H 0.91379 0.81105 0.73121
 H1702 H 0.91525 0.74012 0.68217
 H1703 H 0.79306 0.72853 0.71631
 H1704 H 0.79504 0.78728 0.78334
 C1705 C 0.37547 0.25727 0.23014
 C1706 C 0.38372 0.24213 0.20571
 C1707 C 0.40833 0.24458 0.19404
 C1708 C 0.42415 0.26273 0.20584
 C1709 C 0.41596 0.27745 0.23065
 C1710 C 0.39159 0.27459 0.24314
 C1711 C 0.34897 0.25602 0.24114
 C1712 C 0.34043 0.27134 0.26527
 C1713 C 0.31472 0.27097 0.27462
 C1714 C 0.29737 0.25637 0.25898
 C1715 C 0.30656 0.24157 0.23442
 C1716 C 0.33227 0.24064 0.22612
 C1717 C 0.38261 0.28929 0.26760
 C1718 C 0.35754 0.28752 0.27865
 C1719 C 0.36677 0.22580 0.19247
 C1720 C 0.34134 0.22530 0.20227
 H1721 H 0.39492 0.30259 0.27798
 H1722 H 0.35127 0.29950 0.29723
 H1723 H 0.37295 0.21397 0.17373
 H1724 H 0.32858 0.21310 0.19081
 H1725 H 0.41470 0.23346 0.17476
 H1726 H 0.42832 0.29144 0.23964
 H1727 H 0.30801 0.28304 0.29293
 H1728 H 0.29361 0.23077 0.22136
 C1729 C 0.38570 0.72663 0.28231
 C1730 C 0.40850 0.72229 0.26594
 C1731 C 0.43195 0.72034 0.28132
 C1732 C 0.43225 0.72219 0.31274
 C1733 C 0.40916 0.72649 0.32851
 C1734 C 0.38594 0.72884 0.31354
 C1735 C 0.36103 0.72889 0.26660
 C1736 C 0.33854 0.73319 0.28330
 C1737 C 0.31519 0.73497 0.26876
 C1738 C 0.31361 0.73289 0.23734
 C1739 C 0.33649 0.72855 0.22073
 C1740 C 0.36034 0.72651 0.23538
 C1741 C 0.36295 0.73335 0.32935
 C1742 C 0.33962 0.73550 0.31447
 C1743 C 0.40717 0.71989 0.23470
 C1744 C 0.38355 0.72193 0.21972
 H1745 H 0.36296 0.73520 0.35343
 H1746 H 0.32225 0.73894 0.32751
 H1747 H 0.42452 0.71630 0.22171
 H1748 H 0.38348 0.71987 0.19568
 H1749 H 0.44976 0.71708 0.26911
 H1750 H 0.40936 0.72829 0.35262
 H1751 H 0.29825 0.73809 0.28250
 H1752 H 0.33572 0.72657 0.19671
 C1753 C 0.87255 0.24263 0.78794
 C1754 C 0.89520 0.24048 0.77094
 C1755 C 0.91888 0.23878 0.78567
 C1756 C 0.91972 0.23872 0.81710
 C1757 C 0.89685 0.24198 0.83363
 C1758 C 0.87322 0.24376 0.81923
 C1759 C 0.84760 0.24254 0.77282
 C1760 C 0.82513 0.24374 0.79003
 C1761 C 0.80156 0.24278 0.77584
 C1762 C 0.79994 0.24091 0.74441
 C1763 C 0.82286 0.23912 0.72756
 C1764 C 0.84674 0.24025 0.74164
 C1765 C 0.85024 0.24548 0.83560
 C1766 C 0.82659 0.24547 0.82125
 C1767 C 0.89361 0.23894 0.73969
 C1768 C 0.86982 0.23879 0.72531
 H1769 H 0.85055 0.24636 0.85976
 H1770 H 0.80932 0.24643 0.83477
 H1771 H 0.91090 0.23737 0.72624
 H1772 H 0.86951 0.23723 0.70123
 H1773 H 0.93645 0.23594 0.77288
 H1774 H 0.89746 0.24199 0.85781
 H1775 H 0.78452 0.24340 0.78971
 H1776 H 0.82219 0.23662 0.70364
 C1777 C 0.58749 0.99036 0.59995
 C1778 C 0.61212 0.99965 0.59883
 C1779 C 0.62516 1.00337 0.62522
 C1780 C 0.61340 0.99971 0.65326
 C1781 C 0.58902 0.98888 0.65392
 C1782 C 0.57600 0.98426 0.62720
 C1783 C 0.57299 0.98841 0.57208
 C1784 C 0.54813 0.97947 0.57260
 C1785 C 0.53408 0.97898 0.54570
 C1786 C 0.54448 0.98874 0.51899
 C1787 C 0.56910 0.99870 0.52019
 C1788 C 0.58375 0.99732 0.54569
 C1789 C 0.55126 0.97486 0.62708
 C1790 C 0.53769 0.97226 0.60026
 C1791 C 0.62289 1.00648 0.57140
 C1792 C 0.60871 1.00580 0.54528
 H1793 H 0.54211 0.96989 0.64793
 H1794 H 0.51859 0.96532 0.60131
 H1795 H 0.64195 1.01355 0.57031
 H1796 H 0.61724 1.01231 0.52465
 H1797 H 0.64450 1.00962 0.62359
 H1798 H 0.57920 0.98577 0.67486
 H1799 H 0.51485 0.97233 0.54587
 H1800 H 0.57728 1.00826 0.50125
 C1801 C 0.08626 0.48184 1.10100
 C1802 C 0.11211 0.48769 1.09954
 C1803 C 0.12423 0.49570 1.12523
 C1804 C 0.11050 0.49907 1.15214
 C1805 C 0.08484 0.49197 1.15369
 C1806 C 0.07256 0.48339 1.12802
 C1807 C 0.07275 0.47607 1.07323
 C1808 C 0.04655 0.47158 1.07400
 C1809 C 0.03331 0.46902 1.04683
 C1810 C 0.04583 0.47288 1.01911
 C1811 C 0.07218 0.47755 1.01974
 C1812 C 0.08584 0.47794 1.04611
 C1813 C 0.04660 0.47763 1.12832
 C1814 C 0.03387 0.47166 1.10184
 C1815 C 0.12504 0.48702 1.07202
 C1816 C 0.11199 0.48259 1.04566
 H1817 H 0.03582 0.47846 1.14906
 H1818 H 0.01369 0.46816 1.10303
 H1819 H 0.14504 0.49124 1.07066
 H1820 H 0.12230 0.48358 1.02463
 H1821 H 0.14410 0.50042 1.12394
 H1822 H 0.07405 0.49443 1.17431
 H1823 H 0.01289 0.46666 1.04740
 H1824 H 0.08211 0.48406 1.00033
 C1825 C -0.08229 0.01680 1.11501
 C1826 C -0.10760 0.00918 1.11439
 C1827 C -0.11896 0.00018 1.14042
 C1828 C -0.10523 -0.00194 1.16731
 C1829 C -0.08018 0.00731 1.16788
 C1830 C -0.06852 0.01627 1.14163
 C1831 C -0.06941 0.02346 1.08678
 C1832 C -0.04342 0.02894 1.08658
 C1833 C -0.03040 0.03147 1.05893
 C1834 C -0.04291 0.02682 1.03171
 C1835 C -0.06940 0.02246 1.03332
 C1836 C -0.08267 0.02134 1.06017
 C1837 C -0.04294 0.02336 1.14104
 C1838 C -0.03062 0.02955 1.11402
 C1839 C -0.12078 0.00940 1.08734
 C1840 C -0.10844 0.01518 1.06061
 H1841 H -0.03208 0.02326 1.16150
 H1842 H -0.01062 0.03382 1.11452
 H1843 H -0.14040 0.00384 1.08662
 H1844 H -0.11886 0.01372 1.03995
 H1845 H -0.13861 -0.00523 1.13948
 H1846 H -0.06888 0.00573 1.18797
 H1847 H -0.00998 0.03389 1.05884
 H1848 H -0.07953 0.01585 1.01443
 C1849 C 0.41681 0.50828 0.62478
 C1850 C 0.39278 0.49782 0.62282
 C1851 C 0.38020 0.49040 0.64874
 C1852 C 0.39176 0.49197 0.67696
 C1853 C 0.41546 0.50396 0.67864
 C1854 C 0.42812 0.51196 0.65250
 C1855 C 0.43087 0.51428 0.59710
 C1856 C 0.45526 0.52423 0.59843
 C1857 C 0.46906 0.52842 0.57153
 C1858 C 0.45874 0.52173 0.54372
 C1859 C 0.43439 0.51107 0.54391
 C1860 C 0.42017 0.50834 0.56980
 C1861 C 0.45230 0.52257 0.65323
 C1862 C 0.46554 0.52873 0.62673
 C1863 C 0.38207 0.49384 0.59481
 C1864 C 0.39572 0.49866 0.56869
 H1865 H 0.46128 0.52575 0.67447
 H1866 H 0.48425 0.53644 0.62845
 H1867 H 0.36342 0.48597 0.59305
 H1868 H 0.38724 0.49438 0.54745
 H1869 H 0.36124 0.48337 0.64659
 H1870 H 0.42502 0.50553 0.69981
 H1871 H 0.48808 0.53555 0.57238
 H1872 H 0.42624 0.50394 0.52373
 C1873 C 0.41485 0.46879 -0.08171
 C1874 C 0.42763 0.46568 -0.10914
 C1875 C 0.41418 0.47151 -0.13558
 C1876 C 0.38826 0.48059 -0.13440
 C1877 C 0.37540 0.48167 -0.10680
 C1878 C 0.38867 0.47637 -0.08041
 C1879 C 0.42966 0.46679 -0.05385
 C1880 C 0.41742 0.47392 -0.02725
 C1881 C 0.43210 0.47786 -0.00234
 C1882 C 0.45877 0.47183 -0.00158
 C1883 C 0.47060 0.46255 -0.02821
 C1884 C 0.45621 0.46106 -0.05477
 C1885 C 0.37668 0.48048 -0.05267
 C1886 C 0.39093 0.47965 -0.02649
 C1887 C 0.45393 0.45846 -0.10936
 C1888 C 0.46791 0.45596 -0.08264
 H1889 H 0.35647 0.48592 -0.05132
 H1890 H 0.38131 0.48449 -0.00558
 H1891 H 0.46398 0.45561 -0.13040
 H1892 H 0.48826 0.45126 -0.08397
 H1893 H 0.42429 0.47071 -0.15678
 H1894 H 0.35541 0.48819 -0.10575
 H1895 H 0.42245 0.48864 0.01501
 H1896 H 0.49116 0.45900 -0.02904
 C1897 C -0.07951 0.97813 0.41300
 C1898 C -0.06507 0.97316 0.38697
 C1899 C -0.07701 0.97654 0.35902
 C1900 C -0.10312 0.98477 0.35750
 C1901 C -0.11765 0.98699 0.38392
 C1902 C -0.10584 0.98471 0.41161
 C1903 C -0.06646 0.97893 0.44199
 C1904 C -0.08043 0.98790 0.46676
 C1905 C -0.06758 0.99313 0.49267
 C1906 C -0.04116 0.98668 0.49629
 C1907 C -0.02745 0.97634 0.47142
 C1908 C -0.03996 0.97335 0.44380
 C1909 C -0.11952 0.99117 0.43772
 C1910 C -0.10690 0.99324 0.46481
 C1911 C -0.03872 0.96670 0.38956
 C1912 C -0.02647 0.96645 0.41750
 H1913 H -0.13983 0.99619 0.43689
 H1914 H -0.11784 0.99974 0.48422
 H1915 H -0.02733 0.96249 0.36973
 H1916 H -0.00607 0.96197 0.41830
 H1917 H -0.06567 0.97467 0.33872
 H1918 H -0.13783 0.99271 0.38289
 H1919 H -0.07853 1.00357 0.50955
 H1920 H -0.00698 0.97247 0.47290
 C1921 C 0.07590 0.54105 0.38986
 C1922 C 0.06234 0.53859 0.36330
 C1923 C 0.07556 0.52939 0.33756
 C1924 C 0.10191 0.52209 0.33888
 C1925 C 0.11526 0.52588 0.36535
 C1926 C 0.10241 0.53524 0.39085
 C1927 C 0.06181 0.54749 0.41783
 C1928 C 0.07525 0.54721 0.44450
 C1929 C 0.06177 0.54758 0.47135
 C1930 C 0.03468 0.54852 0.47299
 C1931 C 0.02155 0.55234 0.44555
 C1932 C 0.03503 0.55079 0.41790
 C1933 C 0.11538 0.53738 0.41783
 C1934 C 0.10202 0.54322 0.44424
 C1935 C 0.03570 0.54401 0.36363
 C1936 C 0.02230 0.54998 0.39042
 H1937 H 0.13585 0.53330 0.41882
 H1938 H 0.11261 0.54326 0.46492
 H1939 H 0.02496 0.54267 0.34323
 H1940 H 0.00169 0.55287 0.38977
 H1941 H 0.06518 0.52648 0.31716
 H1942 H 0.13551 0.52049 0.36638
 H1943 H 0.07339 0.54244 0.48983
 H1944 H 0.00085 0.55287 0.44545
 C1945 C 0.57721 0.03068 -0.10868
 C1946 C 0.56259 0.02862 -0.13455
 C1947 C 0.57452 0.01886 -0.16073
 C1948 C 0.60059 0.01054 -0.16047
 C1949 C 0.61508 0.01377 -0.13478
 C1950 C 0.60353 0.02376 -0.10883
 C1951 C 0.56434 0.03761 -0.08016
 C1952 C 0.57865 0.03658 -0.05405
 C1953 C 0.56601 0.03695 -0.02662
 C1954 C 0.53899 0.03864 -0.02419
 C1955 C 0.52515 0.04364 -0.05088
 C1956 C 0.53766 0.04185 -0.07898
 C1957 C 0.61752 0.02534 -0.08249
 C1958 C 0.60527 0.03161 -0.05550
 C1959 C 0.53614 0.03491 -0.13307
 C1960 C 0.52390 0.04142 -0.10578
 H1961 H 0.63786 0.02037 -0.08242
 H1962 H 0.61653 0.03112 -0.03531
 H1963 H 0.52461 0.03371 -0.15289
 H1964 H 0.50332 0.04482 -0.10543
 H1965 H 0.56335 0.01627 -0.18062
 H1966 H 0.63511 0.00740 -0.13469
 H1967 H 0.57785 0.03115 -0.00840
 H1968 H 0.50444 0.04484 -0.05014
 C1969 C 0.62569 0.52946 0.02841
 C1970 C 0.63441 0.54021 0.00170
 C1971 C 0.65903 0.54976 0.00063
 C1972 C 0.67391 0.55046 0.02679
 C1973 C 0.66480 0.53926 0.05322
 C1974 C 0.64115 0.52801 0.05385
 C1975 C 0.59940 0.52070 0.03030
 C1976 C 0.59089 0.51007 0.05705
 C1977 C 0.56535 0.50413 0.05987
 C1978 C 0.54765 0.50977 0.03677
 C1979 C 0.55721 0.51784 0.00888
 C1980 C 0.58300 0.52404 0.00580
 C1981 C 0.63236 0.51594 0.07970
 C1982 C 0.60773 0.50680 0.08114
 C1983 C 0.61787 0.54219 -0.02288
 C1984 C 0.59256 0.53444 -0.02079
 H1985 H 0.64438 0.51409 0.09921
 H1986 H 0.60139 0.49826 0.10180
 H1987 H 0.62429 0.55052 -0.04365
 H1988 H 0.58023 0.53712 -0.03996
 H1989 H 0.66559 0.55867 -0.01976
 H1990 H 0.67627 0.53913 0.07325
 H1991 H 0.55915 0.49640 0.08101
 H1992 H 0.54431 0.52088 -0.00973
 C1993 C 0.11925 1.05004 0.53098
 C1994 C 0.12442 1.07588 0.53431
 C1995 C 0.14949 1.08313 0.53185
 C1996 C 0.16973 1.06472 0.52792
 C1997 C 0.16438 1.03893 0.52330
 C1998 C 0.13890 1.03148 0.52475
 C1999 C 0.09283 1.04229 0.53505
 C2000 C 0.08716 1.01662 0.53145
 C2001 C 0.06167 1.00964 0.53535
 C2002 C 0.04216 1.02818 0.54349
 C2003 C 0.04905 1.05339 0.54807
 C2004 C 0.07380 1.06075 0.54314
 C2005 C 0.13259 1.00587 0.52119
 C2006 C 0.10714 0.99861 0.52422
 C2007 C 0.10461 1.09393 0.54140
 C2008 C 0.07971 1.08642 0.54608
 H2009 H 0.14744 0.99131 0.51620
 H2010 H 0.10315 0.97869 0.52131
 H2011 H 0.10850 1.11390 0.54407
 H2012 H 0.06496 1.10082 0.55208
 H2013 H 0.15348 1.10310 0.53465
 H2014 H 0.17994 1.02473 0.52001
 H2015 H 0.05721 0.98987 0.53228
 H2016 H 0.03511 1.06792 0.55461
 C2017 C 0.12597 -0.04304 0.99413
 C2018 C 0.13241 -0.06919 0.99821
 C2019 C 0.15773 -0.07827 0.99385
 C2020 C 0.17678 -0.06159 0.98551
 C2021 C 0.17041 -0.03515 0.98291
 C2022 C 0.14477 -0.02580 0.98683
 C2023 C 0.09880 -0.03392 0.99584
 C2024 C 0.09180 -0.00831 0.98928
 C2025 C 0.06559 -0.00060 0.98753
 C2026 C 0.04635 -0.01838 0.99228
 C2027 C 0.05437 -0.04333 1.00125
 C2028 C 0.08019 -0.05140 1.00224
 C2029 C 0.13721 0.00014 0.98230
 C2030 C 0.11122 0.00868 0.98333
 C2031 C 0.11323 -0.08599 1.00532
 C2032 C 0.08758 -0.07721 1.00753
 H2033 H 0.15143 0.01382 0.97708
 H2034 H 0.10626 0.02867 0.97882
 H2035 H 0.11798 -0.10621 1.00852
 H2036 H 0.07329 -0.09093 1.01231
 H2037 H 0.16254 -0.09861 0.99573
 H2038 H 0.18499 -0.02225 0.97639
 H2039 H 0.06032 0.01896 0.98125
 H2040 H 0.04101 -0.05772 1.00432
 C2041 C 0.62633 0.46091 0.48313
 C2042 C 0.63131 0.43841 0.46692
 C2043 C 0.65580 0.42677 0.46684
 C2044 C 0.67652 0.43772 0.48139
 C2045 C 0.67085 0.46047 0.49810
 C2046 C 0.64570 0.47196 0.49913
 C2047 C 0.60007 0.47278 0.48362
 C2048 C 0.59423 0.49479 0.50069
 C2049 C 0.56862 0.50536 0.50152
 C2050 C 0.54928 0.49398 0.48502
 C2051 C 0.55657 0.47251 0.46742
 C2052 C 0.58123 0.46157 0.46713
 C2053 C 0.63938 0.49427 0.51573
 C2054 C 0.61415 0.50537 0.51661
 C2055 C 0.61163 0.42758 0.45111
 C2056 C 0.58702 0.43910 0.45099
 H2057 H 0.65402 0.50316 0.52833
 H2058 H 0.61024 0.52239 0.52986
 H2059 H 0.61529 0.41013 0.43855
 H2060 H 0.57234 0.43016 0.43845
 H2061 H 0.65788 0.40838 0.45606
 H2062 H 0.68569 0.46968 0.50988
 H2063 H 0.56383 0.52211 0.51493
 H2064 H 0.54277 0.46286 0.45491
 C2065 C -0.12417 0.46987 0.52009
 C2066 C -0.13912 0.47476 0.54585
 C2067 C -0.16211 0.46253 0.54966
 C2068 C -0.17060 0.44607 0.52761
 C2069 C -0.15589 0.44209 0.50140
 C2070 C -0.13234 0.45355 0.49779
 C2071 C -0.09896 0.48110 0.51709
 C2072 C -0.08286 0.47449 0.49274
 C2073 C -0.05790 0.48356 0.49151
 C2074 C -0.04923 0.49942 0.51427
 C2075 C -0.06676 0.50714 0.53727
 C2076 C -0.09100 0.49736 0.53940
 C2077 C -0.11625 0.44824 0.47301
 C2078 C -0.09184 0.45823 0.47073
 C2079 C -0.13031 0.49111 0.56778
 C2080 C -0.10679 0.50244 0.56445
 H2081 H -0.12230 0.43568 0.45560
 H2082 H -0.07978 0.45297 0.45173
 H2083 H -0.14150 0.49491 0.58788
 H2084 H -0.10052 0.51462 0.58212
 H2085 H -0.17313 0.46524 0.57006
 H2086 H -0.16211 0.42898 0.48469
 H2087 H -0.04509 0.47755 0.47355
 H2088 H -0.06118 0.51935 0.55516
 C2089 C 0.38112 -0.04027 0.01103
 C2090 C 0.36272 -0.03005 0.03136
 C2091 C 0.33910 -0.04140 0.03414
 C2092 C 0.33410 -0.06288 0.01701
 C2093 C 0.35268 -0.07298 -0.00320
 C2094 C 0.37631 -0.06163 -0.00639
 C2095 C 0.40646 -0.02917 0.00914
 C2096 C 0.42532 -0.03994 -0.01021
 C2097 C 0.45007 -0.03054 -0.01004
 C2098 C 0.45618 -0.01143 0.01040
 C2099 C 0.43627 0.00017 0.02804
 C2100 C 0.41168 -0.00889 0.02791
 C2101 C 0.39543 -0.07163 -0.02593
 C2102 C 0.41944 -0.06084 -0.02796
 C2103 C 0.36857 -0.00929 0.04923
 C2104 C 0.39268 0.00109 0.04757
 H2105 H 0.39197 -0.08819 -0.03940
 H2106 H 0.43371 -0.06939 -0.04300
 H2107 H 0.35464 -0.00132 0.06510
 H2108 H 0.39665 0.01669 0.06232
 H2109 H 0.32499 -0.03408 0.05025
 H2110 H 0.34899 -0.09007 -0.01563
 H2111 H 0.46474 -0.03924 -0.02436
 H2112 H 0.44000 0.01530 0.04348
 C2113 C 0.37495 1.04340 0.46462
 C2114 C 0.35653 1.02732 0.47599
 C2115 C 0.33052 1.03596 0.47580
 C2116 C 0.32340 1.06053 0.46447
 C2117 C 0.34254 1.07644 0.45430
 C2118 C 0.36801 1.06787 0.45360
 C2119 C 0.40212 1.03471 0.46443
 C2120 C 0.42004 1.05094 0.45271
 C2121 C 0.44562 1.04299 0.45259
 C2122 C 0.45435 1.01933 0.46464
 C2123 C 0.43601 1.00287 0.47618
 C2124 C 0.40971 1.01056 0.47603
 C2125 C 0.38662 1.08349 0.44195
 C2126 C 0.41228 1.07509 0.44138
 C2127 C 0.36466 1.00303 0.48706
 C2128 C 0.39077 0.99482 0.48714
 H2129 H 0.38130 1.10231 0.43309
 H2130 H 0.42618 1.08768 0.43224
 H2131 H 0.35075 0.99030 0.49583
 H2132 H 0.39616 0.97604 0.49599
 H2133 H 0.31601 1.02365 0.48404
 H2134 H 0.33767 1.09580 0.44683
 H2135 H 0.45864 1.05599 0.44336
 H2136 H 0.44207 0.98425 0.48498
 C2137 C -0.12347 0.53708 0.96978
 C2138 C -0.14258 0.52044 0.97777
 C2139 C -0.16853 0.52918 0.97565
 C2140 C -0.17494 0.55444 0.96593
 C2141 C -0.15526 0.57097 0.95962
 C2142 C -0.12973 0.56231 0.96071
 C2143 C -0.09637 0.52791 0.97026
 C2144 C -0.07780 0.54429 0.96044
 C2145 C -0.05241 0.53541 0.95940
 C2146 C -0.04437 0.51088 0.96975
 C2147 C -0.06336 0.49451 0.97996
 C2148 C -0.08954 0.50289 0.97978
 C2149 C -0.11038 0.57837 0.95205
 C2150 C -0.08483 0.56939 0.95154
 C2151 C -0.13517 0.49541 0.98712
 C2152 C -0.10914 0.48688 0.98837
 H2153 H -0.11509 0.59788 0.94502
 H2154 H -0.07045 0.58223 0.94418
 H2155 H -0.14959 0.48226 0.99345
 H2156 H -0.10437 0.46749 0.99572
 H2157 H -0.18355 0.51633 0.98070
 H2158 H -0.15986 0.59064 0.95312
 H2159 H -0.03893 0.54820 0.95055
 H2160 H -0.05791 0.47526 0.98731
 C2161 C 0.01547 0.63796 0.60536
 C2162 C 0.02544 0.63648 0.63437
 C2163 C 0.02775 0.65890 0.65069
 C2164 C 0.02003 0.68277 0.63841
 C2165 C 0.00968 0.68400 0.60939
 C2166 C 0.00754 0.66155 0.59264
 C2167 C 0.01345 0.61431 0.58797
 C2168 C 0.00392 0.61550 0.55872
 C2169 C 0.00254 0.59272 0.54215
 C2170 C 0.01070 0.56898 0.55486
 C2171 C 0.01978 0.56862 0.58462
 C2172 C 0.02133 0.59094 0.60098
 C2173 C -0.00213 0.66212 0.56342
 C2174 C -0.00384 0.63953 0.54674
 C2175 C 0.03302 0.61259 0.64656
 C2176 C 0.03096 0.59017 0.63015
 H2177 H -0.00833 0.68020 0.55328
 H2178 H -0.01126 0.64090 0.52429
 H2179 H 0.04063 0.61121 0.66894
 H2180 H 0.03708 0.57209 0.64035
 H2181 H 0.03534 0.65780 0.67312
 H2182 H 0.00379 0.70239 0.59977
 H2183 H -0.00441 0.59347 0.51944
 H2184 H 0.02653 0.55104 0.59534
 C2185 C 0.52332 0.12726 0.10501
 C2186 C 0.53265 0.12549 0.13432
 C2187 C 0.53591 0.14776 0.15046
 C2188 C 0.52974 0.17179 0.13772
 C2189 C 0.52055 0.17338 0.10816
 C2190 C 0.51735 0.15105 0.09164
 C2191 C 0.51955 0.10370 0.08818
 C2192 C 0.51046 0.10511 0.05873
 C2193 C 0.50756 0.08229 0.04269
 C2194 C 0.51385 0.05838 0.05615
 C2195 C 0.52205 0.05788 0.08624
 C2196 C 0.52523 0.08015 0.10199
 C2197 C 0.50814 0.15191 0.06221
 C2198 C 0.50487 0.12935 0.04600
 C2199 C 0.53822 0.10143 0.14720
 C2200 C 0.53453 0.07910 0.13129
 H2201 H 0.50342 0.17017 0.05161
 H2202 H 0.49787 0.13089 0.02336
 H2203 H 0.54539 0.09987 0.16977
 H2204 H 0.53910 0.06085 0.14200
 H2205 H 0.54245 0.14638 0.17333
 H2206 H 0.51583 0.19191 0.09816
 H2207 H 0.50131 0.08313 0.01971
 H2208 H 0.52719 0.04019 0.09773
 C2209 C -0.02920 0.13136 0.91562
 C2210 C -0.01721 0.15222 0.92771
 C2211 C -0.01895 0.17584 0.91244
 C2212 C -0.03271 0.17837 0.88547
 C2213 C -0.04495 0.15728 0.87428
 C2214 C -0.04327 0.13385 0.88912
 C2215 C -0.02628 0.10615 0.93028
 C2216 C -0.03712 0.08531 0.91694
 C2217 C -0.03302 0.06124 0.92946
 C2218 C -0.01949 0.05741 0.95651
 C2219 C -0.00907 0.07870 0.97012
 C2220 C -0.01213 0.10318 0.95672
 C2221 C -0.05484 0.11266 0.87735
 C2222 C -0.05171 0.08870 0.89098
 C2223 C -0.00347 0.14877 0.95444
 C2224 C -0.00111 0.12472 0.96877
 H2225 H -0.06601 0.11451 0.85716
 H2226 H -0.06062 0.07264 0.88096
 H2227 H 0.00571 0.16473 0.96425
 H2228 H 0.00977 0.12289 0.98917
 H2229 H -0.00953 0.19206 0.92131
 H2230 H -0.05498 0.15878 0.85324
 H2231 H -0.04117 0.04551 0.91800
 H2232 H 0.00167 0.07616 0.99056
 C2233 C 0.47634 0.64935 0.44600
 C2234 C 0.49941 0.66076 0.43971
 C2235 C 0.49964 0.68057 0.41819
 C2236 C 0.47674 0.68924 0.40389
 C2237 C 0.45350 0.67965 0.41379
 C2238 C 0.45335 0.65878 0.43320
 C2239 C 0.47667 0.62535 0.46346
 C2240 C 0.45484 0.61128 0.46360
 C2241 C 0.45705 0.58573 0.47192
 C2242 C 0.47908 0.57451 0.48570
 C2243 C 0.50017 0.59032 0.48876
 C2244 C 0.49960 0.61505 0.47560
 C2245 C 0.43098 0.64565 0.43757
 C2246 C 0.43189 0.62179 0.45168
 C2247 C 0.52190 0.65079 0.45346
 C2248 C 0.52188 0.62864 0.47160
 H2249 H 0.41312 0.65278 0.42781
 H2250 H 0.41473 0.61109 0.45240
 H2251 H 0.53981 0.65970 0.44942
 H2252 H 0.53980 0.62119 0.48088
 H2253 H 0.51774 0.68792 0.41135
 H2254 H 0.43551 0.68704 0.40464
 H2255 H 0.44292 0.57451 0.46244
 H2256 H 0.51805 0.58225 0.49752
 C2257 C 0.52971 0.86794 0.41526
 C2258 C 0.50840 0.85293 0.41665
 C2259 C 0.50804 0.83093 0.39861
 C2260 C 0.52932 0.82350 0.38008
 C2261 C 0.55125 0.83794 0.38147
 C2262 C 0.55108 0.86063 0.39761
 C2263 C 0.52906 0.89266 0.43098
 C2264 C 0.54867 0.90911 0.42548
 C2265 C 0.54587 0.93412 0.43538
 C2266 C 0.52575 0.94262 0.45476
 C2267 C 0.50679 0.92509 0.46173
 C2268 C 0.50781 0.90045 0.44866
 C2269 C 0.57146 0.87684 0.39504
 C2270 C 0.56997 0.90101 0.40811
 C2271 C 0.48757 0.86090 0.43510
 C2272 C 0.48743 0.88405 0.45114
 H2273 H 0.58805 0.87140 0.38144
 H2274 H 0.58544 0.91362 0.40427
 H2275 H 0.47104 0.84936 0.43682
 H2276 H 0.47078 0.88965 0.46456
 H2277 H 0.49086 0.82038 0.39843
 H2278 H 0.56851 0.83218 0.36936
 H2279 H 0.55853 0.94723 0.42529
 H2280 H 0.49013 0.93138 0.47478
 C2281 C 0.03165 0.35791 0.91271
 C2282 C 0.01693 0.33851 0.92428
 C2283 C 0.01761 0.31468 0.90968
 C2284 C 0.03300 0.31054 0.88384
 C2285 C 0.04768 0.33030 0.87299
 C2286 C 0.04706 0.35388 0.88716
 C2287 C 0.03020 0.38331 0.92677
 C2288 C 0.04378 0.40274 0.91373
 C2289 C 0.04093 0.42715 0.92519
 C2290 C 0.02564 0.43295 0.95078
 C2291 C 0.01239 0.41299 0.96420
 C2292 C 0.01442 0.38805 0.95193
 C2293 C 0.06111 0.37373 0.87558
 C2294 C 0.05940 0.39786 0.88860
 C2295 C 0.00161 0.34362 0.94979
 C2296 C 0.00045 0.36791 0.96342
 H2297 H 0.07312 0.37075 0.85595
 H2298 H 0.07009 0.41294 0.87863
 H2299 H -0.00980 0.32880 0.95910
 H2300 H -0.01182 0.37105 0.98277
 H2301 H 0.00623 0.29953 0.91824
 H2302 H 0.05896 0.32766 0.85273
 H2303 H 0.05058 0.44182 0.91315
 H2304 H -0.00017 0.41704 0.98312
 C2305 C 0.47863 0.36759 0.11364
 C2306 C 0.46719 0.36630 0.14207
 C2307 C 0.46535 0.34267 0.15603
 C2308 C 0.47457 0.32017 0.14186
 C2309 C 0.48609 0.32160 0.11328
 C2310 C 0.48815 0.34544 0.09901
 C2311 C 0.48076 0.39267 0.09912
 C2312 C 0.49218 0.39440 0.07069
 C2313 C 0.49410 0.41870 0.05715
 C2314 C 0.48468 0.44089 0.07220
 C2315 C 0.47328 0.43818 0.10078
 C2316 C 0.47127 0.41450 0.11413
 C2317 C 0.49947 0.34771 0.07055
 C2318 C 0.50142 0.37176 0.05663
 C2319 C 0.45783 0.38871 0.15620
 C2320 C 0.45980 0.41246 0.14240
 H2321 H 0.50691 0.33078 0.05895
 H2322 H 0.51029 0.37263 0.03474
 H2323 H 0.44895 0.38787 0.17809
 H2324 H 0.45235 0.42939 0.15403
 H2325 H 0.45704 0.34182 0.17824
 H2326 H 0.49317 0.30429 0.10214
 H2327 H 0.50273 0.42031 0.03521
 H2328 H 0.46507 0.45447 0.11288
 C2329 C -0.02497 0.88135 0.61748
 C2330 C -0.01276 0.85929 0.60540
 C2331 C -0.01453 0.83585 0.62078
 C2332 C -0.02811 0.83470 0.64826
 C2333 C -0.03958 0.85731 0.66012
 C2334 C -0.03850 0.88044 0.64469
 C2335 C -0.02360 0.90598 0.60151
 C2336 C -0.03626 0.92761 0.61373
 C2337 C -0.03478 0.95090 0.59926
 C2338 C -0.02035 0.95373 0.57254
 C2339 C -0.00796 0.93158 0.56010
 C2340 C -0.00968 0.90751 0.57458
 C2341 C -0.05097 0.90268 0.65598
 C2342 C -0.05004 0.92586 0.64061
 C2343 C 0.00071 0.86124 0.57816
 C2344 C 0.00232 0.88491 0.56312
 H2345 H -0.06164 0.90214 0.67678
 H2346 H -0.06001 0.94263 0.65003
 H2347 H 0.01021 0.84435 0.56845
 H2348 H 0.01303 0.88548 0.54236
 H2349 H -0.00579 0.81857 0.61109
 H2350 H -0.04943 0.85699 0.68147
 H2351 H -0.04525 0.96694 0.60949
 H2352 H 0.00305 0.93309 0.53964
 C2353 C 0.22593 0.34616 0.13024
 C2354 C 0.22538 0.33512 0.10187
 C2355 C 0.23296 0.34957 0.07677
 C2356 C 0.24160 0.37470 0.08036
 C2357 C 0.23941 0.38584 0.10892
 C2358 C 0.23252 0.37160 0.13379
 C2359 C 0.22150 0.33031 0.15704
 C2360 C 0.22560 0.34079 0.18498
 C2361 C 0.22617 0.32498 0.20982
 C2362 C 0.21948 0.29910 0.20883
 C2363 C 0.21401 0.28903 0.18039
 C2364 C 0.21591 0.30445 0.15425
 C2365 C 0.23398 0.38194 0.16244
 C2366 C 0.23110 0.36662 0.18765
 C2367 C 0.21878 0.30941 0.09964
 C2368 C 0.21393 0.29445 0.12529
 H2369 H 0.23886 0.40162 0.16541
 H2370 H 0.23384 0.37489 0.20944
 H2371 H 0.21803 0.30054 0.07792
 H2372 H 0.20959 0.27462 0.12242
 H2373 H 0.23418 0.34036 0.05520
 H2374 H 0.24395 0.40558 0.11223
 H2375 H 0.23405 0.33300 0.22953
 H2376 H 0.21033 0.26894 0.17836
 C2377 C 0.72453 0.83964 0.62682
 C2378 C 0.72950 0.86532 0.63247
 C2379 C 0.73871 0.88048 0.60945
 C2380 C 0.74401 0.86992 0.58121
 C2381 C 0.73808 0.84436 0.57557
 C2382 C 0.72831 0.82912 0.59836
 C2383 C 0.71737 0.82293 0.65174
 C2384 C 0.71381 0.79685 0.64674
 C2385 C 0.70993 0.78047 0.67133
 C2386 C 0.71143 0.78982 0.70073
 C2387 C 0.71501 0.81625 0.70454
 C2388 C 0.71695 0.83285 0.68056
 C2389 C 0.72352 0.80324 0.59374
 C2390 C 0.71622 0.78742 0.61749
 C2391 C 0.72666 0.87496 0.66147
 C2392 C 0.72081 0.85887 0.68524
 H2393 H 0.72618 0.79496 0.57177
 H2394 H 0.71354 0.76741 0.61312
 H2395 H 0.73025 0.89474 0.66605
 H2396 H 0.72012 0.86666 0.70761
 H2397 H 0.74274 0.90020 0.61384
 H2398 H 0.74235 0.83590 0.55396
 H2399 H 0.70839 0.76017 0.66765
 H2400 H 0.71883 0.82400 0.72621
 C2401 C 0.27102 0.66531 0.64283
 C2402 C 0.26331 0.63999 0.64283
 C2403 C 0.25399 0.62973 0.61667
 C2404 C 0.25118 0.64483 0.59079
 C2405 C 0.25983 0.66995 0.59069
 C2406 C 0.26976 0.68033 0.61682
 C2407 C 0.27827 0.67699 0.67121
 C2408 C 0.28444 0.70278 0.67196
 C2409 C 0.28785 0.71467 0.69979
 C2410 C 0.28251 0.70163 0.72674
 C2411 C 0.27692 0.67546 0.72467
 C2412 C 0.27580 0.66295 0.69753
 C2413 C 0.27721 0.70575 0.61800
 C2414 C 0.28463 0.71670 0.64503
 C2415 C 0.26351 0.62585 0.66946
 C2416 C 0.26927 0.63728 0.69648
 H2417 H 0.27651 0.71755 0.59808
 H2418 H 0.28928 0.73662 0.64510
 H2419 H 0.25776 0.60626 0.66967
 H2420 H 0.26762 0.62623 0.71687
 H2421 H 0.24800 0.61023 0.61676
 H2422 H 0.25774 0.68175 0.57083
 H2423 H 0.29117 0.73492 0.70033
 H2424 H 0.26962 0.66519 0.74344
 C2425 C 0.76132 0.15954 0.14188
 C2426 C 0.75259 0.13467 0.14241
 C2427 C 0.74872 0.12213 0.11574
 C2428 C 0.75130 0.13471 0.08806
 C2429 C 0.76197 0.15916 0.08778
 C2430 C 0.76687 0.17170 0.11486
 C2431 C 0.76322 0.17351 0.17018
 C2432 C 0.77189 0.19848 0.17039
 C2433 C 0.77273 0.21180 0.19788
 C2434 C 0.76345 0.20057 0.22439
 C2435 C 0.75334 0.17607 0.22235
 C2436 C 0.75465 0.16206 0.19633
 C2437 C 0.77589 0.19661 0.11568
 C2438 C 0.77866 0.20962 0.14295
 C2439 C 0.74622 0.12319 0.16958
 C2440 C 0.74672 0.13689 0.19609
 H2441 H 0.78045 0.20633 0.09508
 H2442 H 0.78536 0.22885 0.14246
 H2443 H 0.73957 0.10394 0.17016
 H2444 H 0.74057 0.12781 0.21652
 H2445 H 0.74281 0.10263 0.11681
 H2446 H 0.76456 0.16936 0.06698
 H2447 H 0.77949 0.23100 0.19843
 H2448 H 0.74440 0.16722 0.24134
 C2449 C 0.71754 0.16996 0.85027
 C2450 C 0.72053 0.18398 0.87647
 C2451 C 0.73010 0.17117 0.90212
 C2452 C 0.73720 0.14478 0.90106
 C2453 C 0.73299 0.13097 0.87503
 C2454 C 0.72341 0.14342 0.84955
 C2455 C 0.71073 0.18362 0.82229
 C2456 C 0.71114 0.16983 0.79579
 C2457 C 0.71107 0.18302 0.76884
 C2458 C 0.70985 0.21008 0.76704
 C2459 C 0.70550 0.22350 0.79423
 C2460 C 0.70736 0.21041 0.82194
 C2461 C 0.72126 0.13006 0.82280
 C2462 C 0.71534 0.14307 0.79629
 C2463 C 0.71534 0.21065 0.87583
 C2464 C 0.70877 0.22361 0.84909
 H2465 H 0.72563 0.10960 0.82202
 H2466 H 0.71549 0.13224 0.77573
 H2467 H 0.71745 0.22177 0.89588
 H2468 H 0.70616 0.24428 0.84937
 H2469 H 0.73338 0.18188 0.92223
 H2470 H 0.73820 0.11065 0.87432
 H2471 H 0.71674 0.17129 0.75057
 H2472 H 0.70467 0.24422 0.79411
 C2473 C 0.22509 0.67339 0.34808
 C2474 C 0.23089 0.64687 0.34921
 C2475 C 0.23817 0.63537 0.37626
 C2476 C 0.23999 0.65013 0.40210
 C2477 C 0.23293 0.67653 0.40114
 C2478 C 0.22577 0.68836 0.37391
 C2479 C 0.22055 0.68598 0.31885
 C2480 C 0.21707 0.71273 0.31700
 C2481 C 0.21683 0.72478 0.28864
 C2482 C 0.22221 0.71035 0.26242
 C2483 C 0.22388 0.68333 0.26543
 C2484 C 0.22277 0.67119 0.29306
 C2485 C 0.22067 0.71497 0.37153
 C2486 C 0.21640 0.72692 0.34361
 C2487 C 0.23084 0.63252 0.32292
 C2488 C 0.22698 0.64450 0.29527
 H2489 H 0.22095 0.72679 0.39127
 H2490 H 0.21371 0.74757 0.34273
 H2491 H 0.23503 0.61203 0.32358
 H2492 H 0.22851 0.63289 0.27533
 H2493 H 0.24343 0.61506 0.37706
 H2494 H 0.23441 0.68796 0.42109
 H2495 H 0.21605 0.74549 0.28746
 H2496 H 0.23030 0.67119 0.24747
 C2497 C 0.77578 0.83849 0.34643
 C2498 C 0.77972 0.82680 0.37433
 C2499 C 0.77556 0.84164 0.40031
 C2500 C 0.76784 0.86788 0.39787
 C2501 C 0.76688 0.87957 0.36967
 C2502 C 0.76960 0.86489 0.34399
 C2503 C 0.77554 0.82254 0.31948
 C2504 C 0.76691 0.83389 0.29302
 C2505 C 0.76212 0.81850 0.26910
 C2506 C 0.76991 0.79215 0.26841
 C2507 C 0.77951 0.78090 0.29512
 C2508 C 0.78124 0.79600 0.32122
 C2509 C 0.76374 0.87581 0.31615
 C2510 C 0.76177 0.86041 0.29114
 C2511 C 0.78595 0.80027 0.37548
 C2512 C 0.78716 0.78524 0.34934
 H2513 H 0.75897 0.89614 0.31408
 H2514 H 0.75567 0.86926 0.27029
 H2515 H 0.78931 0.79093 0.39681
 H2516 H 0.79157 0.76486 0.35136
 H2517 H 0.77647 0.83251 0.42205
 H2518 H 0.76151 0.89980 0.36773
 H2519 H 0.75183 0.82768 0.25090
 H2520 H 0.78400 0.76048 0.29608
 C2521 C 0.29138 0.33113 0.85368
 C2522 C 0.28436 0.32121 0.88158
 C2523 C 0.27681 0.33815 0.90457
 C2524 C 0.27534 0.36473 0.89936
 C2525 C 0.28368 0.37441 0.87177
 C2526 C 0.29193 0.35763 0.84885
 C2527 C 0.29585 0.31356 0.82829
 C2528 C 0.30116 0.32355 0.79997
 C2529 C 0.30045 0.30756 0.77497
 C2530 C 0.29290 0.28220 0.77794
 C2531 C 0.29202 0.27160 0.80710
 C2532 C 0.29257 0.28737 0.83228
 C2533 C 0.29948 0.36673 0.82072
 C2534 C 0.30459 0.34986 0.79687
 C2535 C 0.28340 0.29460 0.88529
 C2536 C 0.28741 0.27795 0.86102
 H2537 H 0.30060 0.38708 0.81680
 H2538 H 0.30988 0.35764 0.77540
 H2539 H 0.27833 0.28668 0.90679
 H2540 H 0.28522 0.25769 0.86453
 H2541 H 0.27026 0.33069 0.92575
 H2542 H 0.28271 0.39488 0.86782
 H2543 H 0.30349 0.31574 0.75323
 H2544 H 0.28788 0.25171 0.81034
 C2545 C 0.78628 0.36927 0.72470
 C2546 C 0.78060 0.38488 0.69971
 C2547 C 0.79270 0.40787 0.69626
 C2548 C 0.80982 0.41555 0.71788
 C2549 C 0.81494 0.40019 0.74322
 C2550 C 0.80345 0.37668 0.74650
 C2551 C 0.77497 0.34418 0.72727
 C2552 C 0.78218 0.32752 0.75078
 C2553 C 0.77325 0.30260 0.75134
 C2554 C 0.75736 0.29440 0.72847
 C2555 C 0.74885 0.31241 0.70649
 C2556 C 0.75822 0.33679 0.70519
 C2557 C 0.80934 0.36005 0.77053
 C2558 C 0.79906 0.33580 0.77248
 C2559 C 0.76359 0.37680 0.67817
 C2560 C 0.75242 0.35321 0.68099
 H2561 H 0.82245 0.36561 0.78760
 H2562 H 0.80471 0.32329 0.79087
 H2563 H 0.75933 0.38855 0.65868
 H2564 H 0.73992 0.34736 0.66346
 H2565 H 0.78921 0.41966 0.67657
 H2566 H 0.82856 0.40611 0.75956
 H2567 H 0.77951 0.28947 0.76875
 H2568 H 0.73639 0.30719 0.68871
 C2569 C 0.29827 0.86806 0.22849
 C2570 C 0.28076 0.88842 0.22140
 C2571 C 0.28931 0.91348 0.21946
 C2572 C 0.31559 0.91763 0.22157
 C2573 C 0.33281 0.89681 0.22858
 C2574 C 0.32411 0.87224 0.23314
 C2575 C 0.28966 0.84163 0.22962
 C2576 C 0.30699 0.82145 0.23753
 C2577 C 0.29907 0.79623 0.23706
 C2578 C 0.27479 0.79074 0.22612
 C2579 C 0.25737 0.81160 0.21952
 C2580 C 0.26462 0.83699 0.22151
 C2581 C 0.34087 0.85165 0.24152
 C2582 C 0.33232 0.82675 0.24424
 C2583 C 0.25539 0.88309 0.21498
 C2584 C 0.24757 0.85778 0.21454
 H2585 H 0.36077 0.85477 0.24586
 H2586 H 0.34592 0.81138 0.25048
 H2587 H 0.24168 0.89850 0.20920
 H2588 H 0.22808 0.85448 0.20840
 H2589 H 0.27600 0.92922 0.21358
 H2590 H 0.35305 0.89981 0.23051
 H2591 H 0.31279 0.78111 0.24284
 H2592 H 0.23827 0.80822 0.21197
 C2593 C 0.21722 0.87116 0.76768
 C2594 C 0.22639 0.88759 0.78939
 C2595 C 0.21539 0.91247 0.79199
 C2596 C 0.19544 0.92092 0.77312
 C2597 C 0.18691 0.90459 0.75085
 C2598 C 0.19767 0.87951 0.74816
 C2599 C 0.22724 0.84428 0.76661
 C2600 C 0.21689 0.82727 0.74641
 C2601 C 0.22495 0.80119 0.74735
 C2602 C 0.24293 0.79206 0.76860
 C2603 C 0.25427 0.80999 0.78724
 C2604 C 0.24609 0.83583 0.78684
 C2605 C 0.18851 0.86222 0.72738
 C2606 C 0.19792 0.83656 0.72657
 C2607 C 0.24561 0.87846 0.80891
 C2608 C 0.25545 0.85307 0.80750
 H2609 H 0.17350 0.86842 0.71209
 H2610 H 0.18987 0.82375 0.71070
 H2611 H 0.25274 0.89090 0.82582
 H2612 H 0.26996 0.84669 0.82333
 H2613 H 0.22138 0.92486 0.80963
 H2614 H 0.17104 0.91096 0.73683
 H2615 H 0.21652 0.78803 0.73233
 H2616 H 0.26841 0.80384 0.80356
 C2617 C 0.71274 0.36813 0.28897
 C2618 C 0.68879 0.37533 0.30133
 C2619 C 0.68018 0.40093 0.30055
 C2620 C 0.69582 0.42006 0.28948
 C2621 C 0.72014 0.41255 0.27743
 C2622 C 0.72847 0.38642 0.27666
 C2623 C 0.72113 0.34080 0.28841
 C2624 C 0.74438 0.33299 0.27460
 C2625 C 0.75154 0.30659 0.27316
 C2626 C 0.73564 0.28825 0.28583
 C2627 C 0.71302 0.29713 0.30044
 C2628 C 0.70543 0.32293 0.30136
 C2629 C 0.75205 0.37805 0.26375
 C2630 C 0.75974 0.35181 0.26249
 C2631 C 0.67368 0.35679 0.31419
 C2632 C 0.68203 0.33102 0.31455
 H2633 H 0.76450 0.39184 0.25415
 H2634 H 0.77785 0.34623 0.25193
 H2635 H 0.65529 0.36225 0.32418
 H2636 H 0.66986 0.31726 0.32478
 H2637 H 0.66090 0.40572 0.30832
 H2638 H 0.73250 0.42683 0.26877
 H2639 H 0.76937 0.30044 0.26233
 H2640 H 0.70038 0.28400 0.31033
 C2641 C 0.71163 0.62758 0.22909
 C2642 C 0.72996 0.60767 0.23493
 C2643 C 0.72239 0.58213 0.23503
 C2644 C 0.69659 0.57698 0.22995
 C2645 C 0.67840 0.59756 0.22666
 C2646 C 0.68588 0.62261 0.22488
 C2647 C 0.71952 0.65412 0.22647
 C2648 C 0.70141 0.67337 0.21822
 C2649 C 0.70899 0.69819 0.21433
 C2650 C 0.73394 0.70504 0.22077
 C2651 C 0.75209 0.68533 0.22918
 C2652 C 0.74502 0.65969 0.23147
 C2653 C 0.66815 0.64263 0.21765
 C2654 C 0.67588 0.66757 0.21391
 C2655 C 0.75546 0.61385 0.23958
 C2656 C 0.76278 0.63941 0.23830
 H2657 H 0.64827 0.63886 0.21404
 H2658 H 0.66172 0.68246 0.20774
 H2659 H 0.76990 0.59880 0.24419
 H2660 H 0.78258 0.64328 0.24218
 H2661 H 0.73650 0.56643 0.23780
 H2662 H 0.65838 0.59392 0.22383
 H2663 H 0.69490 0.71206 0.20649
 H2664 H 0.77169 0.68975 0.23336
 C2665 C 0.22468 0.11983 0.74146
 C2666 C 0.20883 0.11256 0.76510
 C2667 C 0.19666 0.08939 0.76329
 C2668 C 0.19948 0.07421 0.73756
 C2669 C 0.21578 0.08145 0.71428
 C2670 C 0.22878 0.10417 0.71631
 C2671 C 0.23594 0.14508 0.74220
 C2672 C 0.25115 0.15268 0.71821
 C2673 C 0.25955 0.17766 0.71755
 C2674 C 0.25177 0.19546 0.73995
 C2675 C 0.23831 0.18672 0.76500
 C2676 C 0.22998 0.16168 0.76604
 C2677 C 0.24496 0.11203 0.69326
 C2678 C 0.25614 0.13582 0.69429
 C2679 C 0.20448 0.12912 0.78939
 C2680 C 0.21474 0.15337 0.78975
 H2681 H 0.24839 0.10010 0.67381
 H2682 H 0.26778 0.14153 0.67555
 H2683 H 0.19239 0.12365 0.80784
 H2684 H 0.21010 0.16596 0.80835
 H2685 H 0.18386 0.08387 0.78107
 H2686 H 0.21776 0.06978 0.69442
 H2687 H 0.27035 0.18364 0.69826
 H2688 H 0.23335 0.19955 0.78312
 C2689 C 0.28611 0.12816 0.25513
 C2690 C 0.31154 0.12302 0.26375
 C2691 C 0.32162 0.09791 0.26400
 C2692 C 0.30632 0.07728 0.25781
 C2693 C 0.28080 0.08265 0.24849
 C2694 C 0.27066 0.10832 0.24690
 C2695 C 0.27551 0.15489 0.25529
 C2696 C 0.25031 0.16080 0.24607
 C2697 C 0.24065 0.18676 0.24644
 C2698 C 0.25600 0.20634 0.25690
 C2699 C 0.28067 0.19893 0.26704
 C2700 C 0.29077 0.17400 0.26545
 C2701 C 0.24539 0.11477 0.23788
 C2702 C 0.23550 0.14049 0.23719
 C2703 C 0.32637 0.14299 0.27294
 C2704 C 0.31602 0.16804 0.27425
 H2705 H 0.23311 0.09982 0.23131
 H2706 H 0.21599 0.14444 0.23004
 H2707 H 0.34598 0.13916 0.27980
 H2708 H 0.32792 0.18290 0.28209
 H2709 H 0.34153 0.09444 0.26987
 H2710 H 0.26881 0.06708 0.24334
 H2711 H 0.22127 0.19154 0.23930
 H2712 H 0.29270 0.21239 0.27659
 C2713 C 0.79161 0.62356 0.74261
 C2714 C 0.81600 0.61949 0.75494
 C2715 C 0.82631 0.59471 0.75818
 C2716 C 0.81181 0.57360 0.75175
 C2717 C 0.78761 0.57787 0.73828
 C2718 C 0.77752 0.60303 0.73337
 C2719 C 0.78029 0.64979 0.74062
 C2720 C 0.75595 0.65442 0.72824
 C2721 C 0.74502 0.67969 0.72784
 C2722 C 0.75795 0.69979 0.74112
 C2723 C 0.78184 0.69383 0.75413
 C2724 C 0.79353 0.66961 0.75286
 C2725 C 0.75340 0.60824 0.72039
 C2726 C 0.74290 0.63352 0.71761
 C2727 C 0.82931 0.64020 0.76514
 C2728 C 0.81800 0.66487 0.76470
 H2729 H 0.74242 0.59267 0.71261
 H2730 H 0.72415 0.63664 0.70783
 H2731 H 0.84816 0.63719 0.77466
 H2732 H 0.82838 0.68034 0.77390
 H2733 H 0.84556 0.59198 0.76666
 H2734 H 0.77635 0.56190 0.73251
 H2735 H 0.72608 0.68339 0.71876
 H2736 H 0.79164 0.70786 0.76615
 C2737 C 0.88281 0.76812 0.15349
 C2738 C 0.90334 0.75255 0.16406
 C2739 C 0.92694 0.75241 0.14858
 C2740 C 0.92993 0.76789 0.12272
 C2741 C 0.90847 0.78267 0.11241
 C2742 C 0.88529 0.78313 0.12770
 C2743 C 0.85798 0.76836 0.16920
 C2744 C 0.83769 0.78353 0.15772
 C2745 C 0.81402 0.78299 0.17130
 C2746 C 0.80951 0.76764 0.19684
 C2747 C 0.83031 0.75266 0.20860
 C2748 C 0.85473 0.75294 0.19464
 C2749 C 0.86442 0.79830 0.11725
 C2750 C 0.84097 0.79854 0.13209
 C2751 C 0.89973 0.73759 0.18987
 C2752 C 0.87587 0.73775 0.20484
 H2753 H 0.86619 0.80998 0.09737
 H2754 H 0.82517 0.81033 0.12318
 H2755 H 0.91541 0.72549 0.19844
 H2756 H 0.87391 0.72572 0.22437
 H2757 H 0.94297 0.74101 0.15748
 H2758 H 0.90920 0.79326 0.09163
 H2759 H 0.79883 0.79442 0.16080
 H2760 H 0.82737 0.74038 0.22773
 C2761 C 0.38188 0.27897 0.64789
 C2762 C 0.38454 0.26810 0.61932
 C2763 C 0.40672 0.27166 0.60265
 C2764 C 0.42609 0.28609 0.61412
 C2765 C 0.42311 0.29749 0.64245
 C2766 C 0.40093 0.29377 0.65965
 C2767 C 0.35896 0.27417 0.66601
 C2768 C 0.35638 0.28416 0.69498
 C2769 C 0.33452 0.27894 0.71223
 C2770 C 0.31498 0.26470 0.70011
 C2771 C 0.31850 0.25482 0.67089
 C2772 C 0.34021 0.25932 0.65401
 C2773 C 0.39753 0.30397 0.68851
 C2774 C 0.37568 0.29922 0.70587
 C2775 C 0.36518 0.25346 0.60813
 C2776 C 0.34330 0.24924 0.62515
 H2777 H 0.41201 0.31550 0.69791
 H2778 H 0.37392 0.30735 0.72801
 H2779 H 0.36705 0.24504 0.58613
 H2780 H 0.32876 0.23780 0.61571
 H2781 H 0.40921 0.26287 0.58089
 H2782 H 0.43822 0.30855 0.65126
 H2783 H 0.33280 0.28612 0.73466
 H2784 H 0.30406 0.24386 0.66055
 C2785 C 0.38366 0.72199 0.85161
 C2786 C 0.38415 0.71113 0.88033
 C2787 C 0.40603 0.71236 0.89754
 C2788 C 0.42821 0.72284 0.88585
 C2789 C 0.42745 0.73371 0.85680
 C2790 C 0.40496 0.73376 0.83982
 C2791 C 0.36020 0.72131 0.83385
 C2792 C 0.35878 0.73346 0.80580
 C2793 C 0.33551 0.73405 0.78999
 C2794 C 0.31412 0.72222 0.80215
 C2795 C 0.31688 0.70910 0.82974
 C2796 C 0.33935 0.70901 0.84576
 C2797 C 0.40323 0.74523 0.81135
 C2798 C 0.38045 0.74535 0.79479
 C2799 C 0.36276 0.69904 0.89138
 C2800 C 0.34081 0.69771 0.87419
 H2801 H 0.41949 0.75454 0.80196
 H2802 H 0.37981 0.75486 0.77326
 H2803 H 0.36303 0.69042 0.91343
 H2804 H 0.32463 0.68822 0.88350
 H2805 H 0.40564 0.70498 0.92014
 H2806 H 0.44429 0.74174 0.84716
 H2807 H 0.33382 0.74438 0.76903
 H2808 H 0.30107 0.69971 0.83994
 C2809 C 0.88150 0.22103 0.33680
 C2810 C 0.88883 0.20076 0.35598
 C2811 C 0.90886 0.20344 0.37585
 C2812 C 0.92141 0.22667 0.37792
 C2813 C 0.91324 0.24703 0.35843
 C2814 C 0.89365 0.24416 0.33769
 C2815 C 0.85954 0.21857 0.31686
 C2816 C 0.85121 0.23916 0.29856
 C2817 C 0.82826 0.23772 0.28251
 C2818 C 0.81233 0.21699 0.28726
 C2819 C 0.82206 0.19640 0.30519
 C2820 C 0.84566 0.19661 0.31895
 C2821 C 0.88545 0.26418 0.31833
 C2822 C 0.86476 0.26164 0.29893
 C2823 C 0.87555 0.17819 0.35552
 C2824 C 0.85409 0.17628 0.33759
 H2825 H 0.89477 0.28217 0.31863
 H2826 H 0.85863 0.27780 0.28510
 H2827 H 0.88108 0.16233 0.37013
 H2828 H 0.84351 0.15906 0.33902
 H2829 H 0.91485 0.18684 0.38892
 H2830 H 0.92116 0.26561 0.35978
 H2831 H 0.82121 0.25424 0.26980
 H2832 H 0.81025 0.18164 0.31289
 C2833 C 0.10507 0.27960 0.32531
 C2834 C 0.10273 0.29487 0.35096
 C2835 C 0.08036 0.29521 0.36772
 C2836 C 0.05948 0.28157 0.35862
 C2837 C 0.06207 0.26571 0.33312
 C2838 C 0.08516 0.26456 0.31641
 C2839 C 0.12915 0.27904 0.30800
 C2840 C 0.13268 0.26297 0.28308
 C2841 C 0.15672 0.26169 0.26790
 C2842 C 0.17689 0.27639 0.27792
 C2843 C 0.17189 0.29228 0.30312
 C2844 C 0.14867 0.29391 0.31774
 C2845 C 0.08897 0.24891 0.29106
 C2846 C 0.11232 0.24801 0.27484
 C2847 C 0.12278 0.30971 0.35959
 C2848 C 0.14540 0.30933 0.34313
 H2849 H 0.07388 0.23704 0.28387
 H2850 H 0.11450 0.23535 0.25586
 H2851 H 0.12101 0.32165 0.37926
 H2852 H 0.16063 0.32090 0.35064
 H2853 H 0.07919 0.30642 0.38801
 H2854 H 0.04620 0.25478 0.32613
 H2855 H 0.16006 0.24853 0.24954
 H2856 H 0.18668 0.30253 0.31355
 C2857 C 0.60136 0.75629 0.80950
 C2858 C 0.59795 0.73815 0.83221
 C2859 C 0.57941 0.74321 0.85426
 C2860 C 0.56447 0.76630 0.85401
 C2861 C 0.56764 0.78410 0.83067
 C2862 C 0.58605 0.77906 0.80813
 C2863 C 0.62241 0.75203 0.78785
 C2864 C 0.62662 0.77030 0.76557
 C2865 C 0.64888 0.76749 0.74767
 C2866 C 0.66848 0.74934 0.75557
 C2867 C 0.66105 0.72844 0.77359
 C2868 C 0.63872 0.73021 0.79065
 C2869 C 0.58989 0.79639 0.78458
 C2870 C 0.60959 0.79187 0.76335
 C2871 C 0.61371 0.71567 0.83303
 C2872 C 0.63382 0.71174 0.81254
 H2873 H 0.57796 0.81386 0.78292
 H2874 H 0.61231 0.80601 0.74607
 H2875 H 0.61105 0.70142 0.85026
 H2876 H 0.64632 0.69469 0.81472
 H2877 H 0.57720 0.72956 0.87227
 H2878 H 0.55590 0.80177 0.83016
 H2879 H 0.65097 0.77966 0.72853
 H2880 H 0.67371 0.71182 0.77752
 C2881 C 0.61830 0.22806 0.64158
 C2882 C 0.59516 0.23500 0.65610
 C2883 C 0.57212 0.23314 0.64057
 C2884 C 0.57229 0.22433 0.61081
 C2885 C 0.59572 0.21712 0.59691
 C2886 C 0.61873 0.21906 0.61208
 C2887 C 0.64261 0.23050 0.65740
 C2888 C 0.66558 0.22392 0.64252
 C2889 C 0.68856 0.22608 0.65738
 C2890 C 0.68912 0.23436 0.68740
 C2891 C 0.66580 0.24126 0.70197
 C2892 C 0.64243 0.23936 0.68697
 C2893 C 0.64220 0.21251 0.59810
 C2894 C 0.66525 0.21496 0.61305
 C2895 C 0.59564 0.24382 0.68569
 C2896 C 0.61885 0.24590 0.70087
 H2897 H 0.64276 0.20558 0.57535
 H2898 H 0.68299 0.20978 0.60142
 H2899 H 0.57792 0.24923 0.69721
 H2900 H 0.61832 0.25277 0.72363
 H2901 H 0.55414 0.23849 0.65156
 H2902 H 0.59610 0.21068 0.57396
 H2903 H 0.70594 0.22037 0.64542
 H2904 H 0.66583 0.24748 0.72499
 C2905 C 0.12906 0.72622 0.14140
 C2906 C 0.10634 0.72952 0.15798
 C2907 C 0.08308 0.72490 0.14425
 C2908 C 0.08254 0.71695 0.11421
 C2909 C 0.10555 0.71353 0.09803
 C2910 C 0.12885 0.71827 0.11146
 C2911 C 0.15358 0.73092 0.15571
 C2912 C 0.17616 0.72735 0.13908
 C2913 C 0.19943 0.73049 0.15292
 C2914 C 0.20075 0.73646 0.18370
 C2915 C 0.17773 0.74152 0.19968
 C2916 C 0.15405 0.73838 0.18582
 C2917 C 0.15195 0.71532 0.09548
 C2918 C 0.17523 0.71984 0.10906
 C2919 C 0.10737 0.73737 0.18790
 C2920 C 0.13081 0.74168 0.20159
 H2921 H 0.15206 0.70935 0.07235
 H2922 H 0.19268 0.71709 0.09603
 H2923 H 0.08992 0.74006 0.20091
 H2924 H 0.13075 0.74741 0.22477
 H2925 H 0.06539 0.72737 0.15690
 H2926 H 0.10523 0.70774 0.07485
 H2927 H 0.21648 0.72702 0.13947
 H2928 H 0.17832 0.74630 0.22315
   
