data_POSCAR
  _audit_creation_date              2014-09-24
  _audit_creation_method            'ToBaCCo'
  _symmetry_space_group_name_H-M    'P1'
  _symmetry_Int_Tables_number       1
  _symmetry_cell_setting            triclinic
  loop_
  _symmetry_equiv_pos_as_xyz
 x,y,z
_cell_length_a 50.9406
_cell_length_b 52.0447
_cell_length_c 52.0089
_cell_angle_alpha 90.016100
_cell_angle_beta 89.969500
_cell_angle_gamma 89.952600
loop_
  _atom_site_label
  _atom_site_type_symbol
  _atom_site_fract_x
  _atom_site_fract_y
  _atom_site_fract_z
O1 O 0.32240 0.35813 0.02521
 O2 O 0.35808 0.32248 -0.02491
 O3 O 0.32264 0.35851 -0.02475
 O4 O 0.35818 0.32241 0.02505
 O5 O 0.32729 0.29274 0.02483
 O6 O 0.29142 0.32924 -0.02481
 O7 O 0.32704 0.29295 -0.02511
 O8 O 0.29132 0.32864 0.02509
 Cu9 Cu 0.34342 0.34333 0.00017
 Cu10 Cu 0.30615 0.30793 -0.00003
 C11 C 0.30066 0.34960 0.03361
 C12 C 0.34878 0.30151 -0.03347
 C13 C 0.30081 0.35027 -0.03321
 C14 C 0.34897 0.30130 0.03333
 O15 O 0.64205 0.67807 -0.02518
 O16 O 0.67821 0.64219 0.02440
 O17 O 0.64246 0.67797 0.02481
 O18 O 0.67746 0.64203 -0.02552
 O19 O 0.70870 0.67129 -0.02579
 O20 O 0.67341 0.70758 0.02443
 O21 O 0.70934 0.67162 0.02405
 O22 O 0.67309 0.70759 -0.02555
 Cu23 Cu 0.65693 0.65714 -0.00033
 Cu24 Cu 0.69424 0.69250 -0.00076
 C25 C 0.65128 0.69906 -0.03375
 C26 C 0.70007 0.65062 0.03255
 C27 C 0.65179 0.69902 0.03312
 C28 C 0.69923 0.65028 -0.03415
 O29 O 0.67601 0.35943 0.97557
 O30 O 0.64063 0.32338 1.02558
 O31 O 0.67587 0.35958 1.02554
 O32 O 0.64052 0.32347 0.97560
 O33 O 0.67164 0.29398 0.97566
 O34 O 0.70724 0.33040 1.02544
 O35 O 0.67186 0.29399 1.02559
 O36 O 0.70727 0.33008 0.97554
 Cu37 Cu 0.65513 0.34440 1.00057
 Cu38 Cu 0.69263 0.30917 1.00057
 C39 C 0.69779 0.35103 0.96711
 C40 C 0.65008 0.30242 1.03402
 C41 C 0.69776 0.35137 1.03393
 C42 C 0.64989 0.30246 0.96720
 O43 O 0.32460 0.63922 0.97525
 O44 O 0.36181 0.67534 1.02380
 O45 O 0.32620 0.63913 1.02530
 O46 O 0.35999 0.67514 0.97415
 O47 O 0.32930 0.70502 0.97581
 O48 O 0.29461 0.66807 1.02577
 O49 O 0.33010 0.70419 1.02585
 O50 O 0.29363 0.66885 0.97587
 Cu51 Cu 0.34623 0.65422 0.99958
 Cu52 Cu 0.30878 0.68948 1.00093
 C53 C 0.30277 0.64784 0.96719
 C54 C 0.35244 0.69601 1.03298
 C55 C 0.30440 0.64719 1.03410
 C56 C 0.35064 0.69643 0.96648
 O57 O 0.02391 0.32762 0.36294
 O58 O -0.02712 0.36075 0.32557
 O59 O -0.02681 0.32574 0.36102
 O60 O 0.02358 0.36329 0.32715
 O61 O 0.02655 0.33312 0.29744
 O62 O -0.02398 0.29546 0.33153
 O63 O -0.02449 0.33085 0.29561
 O64 O 0.02699 0.29785 0.33284
 Cu65 Cu -0.00176 0.34737 0.34715
 Cu66 Cu 0.00148 0.31131 0.31135
 C67 C 0.03395 0.30694 0.35445
 C68 C -0.03447 0.35157 0.30413
 C69 C -0.03394 0.30404 0.35227
 C70 C 0.03345 0.35481 0.30637
 O71 O 0.02457 0.67485 0.63860
 O72 O -0.02522 0.63966 0.67561
 O73 O -0.02616 0.67467 0.64007
 O74 O 0.02582 0.63959 0.67452
 O75 O 0.02601 0.66938 0.70469
 O76 O -0.02476 0.70531 0.66928
 O77 O -0.02491 0.67005 0.70517
 O78 O 0.02631 0.70453 0.66888
 Cu79 Cu -0.00024 0.65414 0.65426
 Cu80 Cu 0.00074 0.69036 0.68999
 C81 C 0.03378 0.69580 0.64726
 C82 C -0.03362 0.64879 0.69671
 C83 C -0.03415 0.69622 0.64853
 C84 C 0.03451 0.64824 0.69573
 O85 O 0.97454 0.67403 0.36005
 O86 O 1.02739 0.64071 0.32506
 O87 O 1.02557 0.67582 0.36048
 O88 O 0.97670 0.63834 0.32455
 O89 O 0.97474 0.66875 0.29503
 O90 O 1.02482 0.70571 0.33049
 O91 O 1.02586 0.67033 0.29476
 O92 O 0.97396 0.70432 0.33041
 Cu93 Cu 1.00107 0.65425 0.34556
 Cu94 Cu 0.99974 0.69027 0.30965
 C95 C 0.96549 0.69510 0.35144
 C96 C 1.03548 0.64967 0.30376
 C97 C 1.03363 0.69721 0.35174
 C98 C 0.96752 0.64699 0.30356
 O99 O 0.97449 0.32372 0.64020
 O100 O 1.02524 0.35905 0.67596
 O101 O 1.02551 0.32388 0.64041
 O102 O 0.97424 0.35907 0.67576
 O103 O 0.97424 0.32910 0.70573
 O104 O 1.02536 0.29371 0.67013
 O105 O 1.02517 0.32901 0.70587
 O106 O 0.97442 0.29359 0.67002
 Cu107 Cu 0.99985 0.34443 0.65510
 Cu108 Cu 0.99977 0.30834 0.69093
 C109 C 0.96595 0.30247 0.64883
 C110 C 1.03378 0.35019 0.69712
 C111 C 1.03414 0.30264 0.64905
 C112 C 0.96566 0.35028 0.69694
 O113 O 0.32220 -0.02506 0.35716
 O114 O 0.35728 0.02548 0.32176
 O115 O 0.32165 0.02486 0.35765
 O116 O 0.35763 -0.02442 0.32109
 O117 O 0.32664 -0.02427 0.29148
 O118 O 0.29045 0.02492 0.32826
 O119 O 0.32627 0.02558 0.29217
 O120 O 0.29102 -0.02499 0.32775
 Cu121 Cu 0.34280 0.00021 0.34236
 Cu122 Cu 0.30546 0.00032 0.30696
 C123 C 0.30052 -0.03355 0.34866
 C124 C 0.34794 0.03403 0.30080
 C125 C 0.29980 0.03321 0.34933
 C126 C 0.34844 -0.03264 0.29992
 O127 O 0.64157 0.02558 0.67719
 O128 O 0.67672 -0.02485 0.64150
 O129 O 0.64111 -0.02435 0.67738
 O130 O 0.67707 0.02508 0.64115
 O131 O 0.70827 0.02496 0.67054
 O132 O 0.67208 -0.02440 0.70701
 O133 O 0.70787 -0.02494 0.67095
 O134 O 0.67260 0.02547 0.70676
 Cu135 Cu 0.65601 0.00038 0.65636
 Cu136 Cu 0.69333 0.00027 0.69178
 C137 C 0.65093 0.03402 0.69819
 C138 C 0.69840 -0.03342 0.65001
 C139 C 0.65031 -0.03272 0.69848
 C140 C 0.69892 0.03335 0.64950
 O141 O 0.35818 0.97464 0.67728
 O142 O 0.32334 1.02520 0.64160
 O143 O 0.35885 1.02458 0.67751
 O144 O 0.32252 0.97531 0.64140
 O145 O 0.29136 0.97568 0.67086
 O146 O 0.32788 1.02486 0.70717
 O147 O 0.29220 1.02553 0.67110
 O148 O 0.32720 0.97496 0.70692
 Cu149 Cu 0.34384 0.99988 0.65650
 Cu150 Cu 0.30654 1.00027 0.69199
 C151 C 0.34881 0.96629 0.69831
 C152 C 0.30171 1.03390 0.65012
 C153 C 0.34968 1.03306 0.69860
 C154 C 0.30060 0.96723 0.64979
 O155 O 0.67633 1.02459 0.35966
 O156 O 0.64070 0.97463 0.32384
 O157 O 0.67621 0.97462 0.35983
 O158 O 0.64071 1.02457 0.32378
 O159 O 0.67175 1.02446 0.29420
 O160 O 0.70737 0.97447 0.33037
 O161 O 0.67173 0.97456 0.29424
 O162 O 0.70752 1.02436 0.33030
 Cu163 Cu 0.65539 0.99962 0.34473
 Cu164 Cu 0.69271 0.99946 0.30932
 C165 C 0.69818 1.03293 0.35129
 C166 C 0.65000 0.96618 0.30280
 C167 C 0.69795 0.96610 0.35139
 C168 C 0.65002 1.03294 0.30272
 O169 O 0.85798 0.82025 0.47585
 O170 O 0.82272 0.85670 0.52566
 O171 O 0.85814 0.82067 0.52581
 O172 O 0.82277 0.85657 0.47572
 O173 O 0.79138 0.82741 0.47592
 O174 O 0.82700 0.79123 0.52592
 O175 O 0.79139 0.82747 0.52585
 O176 O 0.82678 0.79089 0.47604
 Cu177 Cu 0.84353 0.84147 0.50073
 Cu178 Cu 0.80599 0.80631 0.50094
 C179 C 0.84857 0.79922 0.46757
 C180 C 0.80093 0.84843 0.53417
 C181 C 0.84877 0.79971 0.53431
 C182 C 0.80091 0.84830 0.46740
 O183 O 0.13990 0.17876 0.47696
 O184 O 0.17687 0.14205 0.52522
 O185 O 0.14154 0.17795 0.52656
 O186 O 0.17536 0.14227 0.47520
 O187 O 0.20708 0.17109 0.47503
 O188 O 0.17224 0.20780 0.52519
 O189 O 0.20791 0.17157 0.52497
 O190 O 0.17173 0.20747 0.47520
 Cu191 Cu 0.15533 0.15727 0.50096
 Cu192 Cu 0.19290 0.19241 0.50002
 C193 C 0.14934 0.19949 0.46802
 C194 C 0.19867 0.15054 0.53345
 C195 C 0.15088 0.19917 0.53441
 C196 C 0.19720 0.15033 0.46659
 O197 O 0.13865 0.82373 0.52331
 O198 O 0.17545 0.85958 0.47428
 O199 O 0.13992 0.82386 0.47361
 O200 O 0.17448 0.85977 0.52433
 O201 O 0.20593 0.83062 0.52451
 O202 O 0.17048 0.79383 0.47498
 O203 O 0.20631 0.82983 0.47459
 O204 O 0.17023 0.79471 0.52500
 Cu205 Cu 0.15405 0.84474 0.49889
 Cu206 Cu 0.19136 0.80928 0.49984
 C207 C 0.14802 0.80302 0.53240
 C208 C 0.19714 0.85085 0.46598
 C209 C 0.14910 0.80252 0.46585
 C210 C 0.19630 0.85154 0.53286
 O211 O 0.82368 0.14107 0.47362
 O212 O 0.85950 0.17705 0.52338
 O213 O 0.82407 0.14099 0.52360
 O214 O 0.85930 0.17695 0.47337
 O215 O 0.82822 0.20648 0.47361
 O216 O 0.79288 0.17041 0.52382
 O217 O 0.82843 0.20660 0.52353
 O218 O 0.79243 0.17043 0.47394
 Cu219 Cu 0.84476 0.15607 0.49847
 Cu220 Cu 0.80737 0.19144 0.49873
 C221 C 0.80180 0.14946 0.46543
 C222 C 0.85021 0.19808 0.53185
 C223 C 0.80234 0.14941 0.53217
 C224 C 0.84991 0.19797 0.46503
 O225 O 0.47390 0.85892 0.82371
 O226 O 0.52521 0.82386 0.85902
 O227 O 0.52491 0.85937 0.82373
 O228 O 0.47420 0.82347 0.85907
 O229 O 0.47450 0.79352 0.82906
 O230 O 0.52517 0.82955 0.79359
 O231 O 0.52544 0.79388 0.82903
 O232 O 0.47423 0.82910 0.79357
 Cu233 Cu 0.49953 0.84440 0.84439
 Cu234 Cu 0.49987 0.80851 0.80829
 C235 C 0.46543 0.85014 0.80248
 C236 C 0.53394 0.80274 0.85021
 C237 C 0.53357 0.85074 0.80250
 C238 C 0.46582 0.80225 0.85025
 O239 O 0.52572 0.17630 0.14138
 O240 O 0.47442 0.14098 0.17644
 O241 O 0.47472 0.17624 0.14097
 O242 O 0.52545 0.14078 0.17672
 O243 O 0.52520 0.17064 0.20682
 O244 O 0.47455 0.20630 0.17087
 O245 O 0.47425 0.17089 0.20649
 O246 O 0.52548 0.20631 0.17133
 Cu247 Cu 0.50012 0.15557 0.15588
 Cu248 Cu 0.49987 0.19154 0.19189
 C249 C 0.53419 0.19749 0.15021
 C250 C 0.46567 0.14979 0.19756
 C251 C 0.46608 0.19744 0.14967
 C252 C 0.53384 0.14948 0.19801
 O253 O 0.47451 0.17655 0.85906
 O254 O 0.52583 0.14141 0.82375
 O255 O 0.52552 0.17673 0.85924
 O256 O 0.47484 0.14105 0.82376
 O257 O 0.47475 0.17089 0.79365
 O258 O 0.52535 0.20678 0.82934
 O259 O 0.52568 0.17131 0.79370
 O260 O 0.47442 0.20655 0.82911
 Cu261 Cu 0.50019 0.15594 0.84445
 Cu262 Cu 0.50004 0.19189 0.80844
 C263 C 0.46584 0.19768 0.85026
 C264 C 0.53438 0.15022 0.80256
 C265 C 0.53396 0.19797 0.85051
 C266 C 0.46628 0.14970 0.80252
 O267 O 0.47616 0.82454 0.13867
 O268 O 0.52561 0.85997 0.17591
 O269 O 0.52686 0.82484 0.14041
 O270 O 0.47457 0.86000 0.17440
 O271 O 0.47414 0.83032 0.20466
 O272 O 0.52535 0.79435 0.16982
 O273 O 0.52503 0.82973 0.20562
 O274 O 0.47425 0.79497 0.16904
 Cu275 Cu 0.50082 0.84538 0.15439
 Cu276 Cu 0.49960 0.80931 0.19027
 C277 C 0.46691 0.80361 0.14736
 C278 C 0.53379 0.85097 0.19715
 C279 C 0.53481 0.80340 0.14909
 C280 C 0.46569 0.85141 0.19556
 O281 O 0.85875 0.52526 0.82265
 O282 O 0.82308 0.47547 0.85859
 O283 O 0.85868 0.47531 0.82261
 O284 O 0.82315 0.52542 0.85850
 O285 O 0.79195 0.52532 0.82910
 O286 O 0.82772 0.47541 0.79298
 O287 O 0.79197 0.47546 0.82911
 O288 O 0.82774 0.52531 0.79306
 Cu289 Cu 0.84402 0.50035 0.84354
 Cu290 Cu 0.80673 0.50037 0.80809
 C291 C 0.84945 0.53372 0.80163
 C292 C 0.80132 0.46708 0.85015
 C293 C 0.84942 0.46693 0.80154
 C294 C 0.80138 0.53383 0.85006
 O295 O 0.17676 0.47496 0.14301
 O296 O 0.14360 0.52703 0.17814
 O297 O 0.17905 0.52489 0.14232
 O298 O 0.14103 0.47749 0.17915
 O299 O 0.17258 0.47551 0.20817
 O300 O 0.21004 0.52420 0.17192
 O301 O 0.17423 0.52553 0.20808
 O302 O 0.20824 0.47440 0.17211
 Cu303 Cu 0.15704 0.50112 0.15767
 Cu304 Cu 0.19439 0.49981 0.19304
 C305 C 0.19838 0.46603 0.15130
 C306 C 0.15302 0.53496 0.19931
 C307 C 0.20104 0.53268 0.15077
 C308 C 0.15016 0.46856 0.20004
 O309 O 0.82542 0.52481 0.14017
 O310 O 0.85922 0.47345 0.17584
 O311 O 0.82371 0.47482 0.14007
 O312 O 0.86143 0.52308 0.17606
 O313 O 0.83002 0.52513 0.20524
 O314 O 0.79281 0.47570 0.16979
 O315 O 0.82862 0.47508 0.20582
 O316 O 0.79412 0.52551 0.16949
 Cu317 Cu 0.84551 0.49900 0.15503
 Cu318 Cu 0.80829 0.50047 0.19057
 C319 C 0.80379 0.53370 0.14853
 C320 C 0.84986 0.46567 0.19709
 C321 C 0.80183 0.46696 0.14873
 C322 C 0.85230 0.53221 0.19687
 O323 O 0.14134 0.47422 0.82252
 O324 O 0.17669 0.52430 0.85838
 O325 O 0.14137 0.52413 0.82215
 O326 O 0.17675 0.47434 0.85856
 O327 O 0.20812 0.47429 0.82931
 O328 O 0.17250 0.52386 0.79265
 O329 O 0.20797 0.52418 0.82904
 O330 O 0.17253 0.47402 0.79308
 Cu331 Cu 0.15592 0.49928 0.84335
 Cu332 Cu 0.19343 0.49908 0.80808
 C333 C 0.15075 0.46568 0.80157
 C334 C 0.19848 0.53268 0.84999
 C335 C 0.15072 0.53234 0.80104
 C336 C 0.19860 0.46592 0.85027
 C337 C 0.25683 0.39467 0.08815
 C338 C 0.28286 0.40112 0.08204
 C339 C 0.29722 0.38625 0.06463
 C340 C 0.28591 0.36450 0.05309
 C341 C 0.26006 0.35771 0.05966
 C342 C 0.24563 0.37271 0.07694
 C343 C 0.24117 0.41144 0.10539
 C344 C 0.21530 0.41819 0.09891
 C345 C 0.20117 0.43549 0.11412
 C346 C 0.21256 0.44627 0.13624
 C347 C 0.23817 0.43891 0.14313
 C348 C 0.25235 0.42174 0.12781
 H349 H 0.31709 0.39200 0.05999
 H350 H 0.25079 0.34106 0.05110
 H351 H 0.18148 0.44076 0.10830
 H352 H 0.24750 0.44684 0.16007
 H353 H 0.22567 0.36717 0.08150
 H354 H 0.20628 0.41073 0.08159
 H355 H 0.29190 0.41811 0.09016
 H356 H 0.27215 0.41664 0.13341
 C357 C 0.74463 0.60498 0.08597
 C358 C 0.75577 0.62693 0.07467
 C359 C 0.74111 0.64213 0.05778
 C360 C 0.71509 0.63553 0.05167
 C361 C 0.70386 0.61377 0.06327
 C362 C 0.71845 0.59871 0.08029
 C363 C 0.76045 0.58809 0.10291
 C364 C 0.74956 0.57789 0.12552
 C365 C 0.76390 0.56074 0.14068
 C366 C 0.78939 0.55328 0.13345
 C367 C 0.80049 0.56391 0.11111
 C368 C 0.78620 0.58121 0.09605
 H369 H 0.75032 0.65877 0.04915
 H370 H 0.68387 0.60817 0.05896
 H371 H 0.75480 0.55293 0.15779
 H372 H 0.82009 0.55857 0.10503
 H373 H 0.70946 0.58174 0.08849
 H374 H 0.72987 0.58309 0.13141
 H375 H 0.77583 0.63233 0.07890
 H376 H 0.79499 0.58859 0.07859
 C377 C 0.74155 0.39643 0.91286
 C378 C 0.71562 0.40307 0.91927
 C379 C 0.70126 0.38809 0.93656
 C380 C 0.71247 0.36606 0.94769
 C381 C 0.73819 0.35907 0.94078
 C382 C 0.75261 0.37416 0.92362
 C383 C 0.75733 0.41331 0.89587
 C384 C 0.78335 0.41946 0.90232
 C385 C 0.79777 0.43658 0.88722
 C386 C 0.78654 0.44781 0.86525
 C387 C 0.76072 0.44116 0.85844
 C388 C 0.74623 0.42417 0.87365
 H389 H 0.68149 0.39398 0.94147
 H390 H 0.74737 0.34219 0.94900
 H391 H 0.81762 0.44129 0.89299
 H392 H 0.75152 0.44947 0.84161
 H393 H 0.77246 0.36845 0.91881
 H394 H 0.79231 0.41160 0.91948
 H395 H 0.70670 0.42028 0.91148
 H396 H 0.72630 0.41955 0.86810
 C397 C 0.25827 0.60308 0.91297
 C398 C 0.28426 0.59635 0.91902
 C399 C 0.29880 0.61111 0.93633
 C400 C 0.28774 0.63301 0.94788
 C401 C 0.26194 0.64007 0.94139
 C402 C 0.24732 0.62520 0.92419
 C403 C 0.24239 0.58643 0.89583
 C404 C 0.21641 0.58016 0.90235
 C405 C 0.20199 0.56309 0.88719
 C406 C 0.21318 0.55203 0.86508
 C407 C 0.23893 0.55886 0.85817
 C408 C 0.25341 0.57581 0.87344
 H409 H 0.31863 0.60515 0.94090
 H410 H 0.25287 0.65685 0.94994
 H411 H 0.18219 0.55824 0.89303
 H412 H 0.24810 0.55071 0.84124
 H413 H 0.22742 0.63096 0.91968
 H414 H 0.20750 0.58784 0.91963
 H415 H 0.29310 0.57925 0.91090
 H416 H 0.27330 0.58053 0.86781
 C417 C 0.08695 0.26299 0.40098
 C418 C 0.06926 0.28022 0.41239
 C419 C 0.05273 0.29525 0.39715
 C420 C 0.05320 0.29283 0.37026
 C421 C 0.07118 0.27578 0.35884
 C422 C 0.08817 0.26118 0.37410
 C423 C 0.10318 0.24612 0.41725
 C424 C 0.13067 0.24733 0.41625
 C425 C 0.14584 0.23204 0.43266
 C426 C 0.13368 0.21487 0.44979
 C427 C 0.10616 0.21323 0.45019
 C428 C 0.09104 0.22894 0.43427
 H429 H 0.03895 0.30811 0.40644
 H430 H 0.07194 0.27362 0.33814
 H431 H 0.16702 0.23362 0.43199
 H432 H 0.09630 0.20030 0.46333
 H433 H 0.10167 0.24790 0.36502
 H434 H 0.14032 0.26053 0.40322
 H435 H 0.06812 0.28185 0.43313
 H436 H 0.06984 0.22771 0.43519
 C437 C 0.08604 0.74082 0.60092
 C438 C 0.08655 0.74325 0.62776
 C439 C 0.06974 0.72841 0.64300
 C440 C 0.05267 0.71052 0.63158
 C441 C 0.05287 0.70762 0.60472
 C442 C 0.06920 0.72285 0.58951
 C443 C 0.10220 0.75764 0.58457
 C444 C 0.08999 0.77506 0.56786
 C445 C 0.10501 0.79038 0.55149
 C446 C 0.13250 0.78810 0.55114
 C447 C 0.14472 0.77072 0.56802
 C448 C 0.12966 0.75580 0.58486
 H449 H 0.06998 0.73098 0.66367
 H450 H 0.03979 0.69411 0.59541
 H451 H 0.09508 0.80349 0.53856
 H452 H 0.16588 0.76865 0.56814
 H453 H 0.06861 0.72076 0.56879
 H454 H 0.06879 0.77669 0.56744
 H455 H 0.09942 0.75712 0.63682
 H456 H 0.13934 0.74237 0.59763
 C457 C 0.91043 0.73845 0.39682
 C458 C 0.91713 0.71321 0.40383
 C459 C 0.93457 0.69888 0.38880
 C460 C 0.94551 0.70944 0.36635
 C461 C 0.93813 0.73439 0.35894
 C462 C 0.92086 0.74877 0.37406
 C463 C 0.89364 0.75437 0.41384
 C464 C 0.90067 0.77988 0.41935
 C465 C 0.88579 0.79456 0.43648
 C466 C 0.86343 0.78411 0.44834
 C467 C 0.85604 0.75877 0.44239
 C468 C 0.87108 0.74401 0.42540
 H469 H 0.93985 0.67970 0.39502
 H470 H 0.94617 0.74308 0.34173
 H471 H 0.89199 0.81401 0.44065
 H472 H 0.83893 0.75017 0.45123
 H473 H 0.91578 0.76807 0.36806
 H474 H 0.91813 0.78827 0.41094
 H475 H 0.90956 0.70486 0.42140
 H476 H 0.86511 0.72446 0.42132
 C477 C 0.91203 0.25830 0.60303
 C478 C 0.92305 0.24780 0.62545
 C479 C 0.94002 0.26237 0.64071
 C480 C 0.94650 0.28768 0.63375
 C481 C 0.93507 0.29833 0.61158
 C482 C 0.91795 0.28382 0.59644
 C483 C 0.89530 0.24241 0.58596
 C484 C 0.87241 0.25266 0.57492
 C485 C 0.85743 0.23807 0.55779
 C486 C 0.86515 0.21298 0.55117
 C487 C 0.88783 0.20260 0.56254
 C488 C 0.90268 0.21712 0.57981
 H489 H 0.94849 0.25361 0.65768
 H490 H 0.93965 0.31778 0.60570
 H491 H 0.84005 0.24662 0.54937
 H492 H 0.89430 0.18333 0.55785
 H493 H 0.90995 0.29233 0.57913
 H494 H 0.86613 0.27201 0.57951
 H495 H 0.91861 0.22826 0.63111
 H496 H 0.92038 0.20882 0.58781
 C497 C 0.39327 0.08821 0.25691
 C498 C 0.37054 0.07712 0.24640
 C499 C 0.35539 0.06004 0.26089
 C500 C 0.36280 0.05354 0.28609
 C501 C 0.38525 0.06504 0.29675
 C502 C 0.40027 0.08225 0.28234
 C503 C 0.41035 0.10503 0.24112
 C504 C 0.42135 0.12744 0.25162
 C505 C 0.43881 0.14235 0.23724
 C506 C 0.44579 0.13504 0.21213
 C507 C 0.43435 0.11291 0.20145
 C508 C 0.41675 0.09811 0.21577
 H509 H 0.33819 0.05151 0.25214
 H510 H 0.39147 0.06045 0.31612
 H511 H 0.44725 0.15932 0.24600
 H512 H 0.43930 0.10678 0.18215
 H513 H 0.41784 0.09030 0.29084
 H514 H 0.41654 0.13335 0.27102
 H515 H 0.36458 0.08158 0.22692
 H516 H 0.40879 0.08079 0.20728
 C517 C 0.60599 0.08831 0.74248
 C518 C 0.59869 0.08227 0.71714
 C519 C 0.61356 0.06500 0.70261
 C520 C 0.63615 0.05351 0.71304
 C521 C 0.64383 0.06007 0.73815
 C522 C 0.62884 0.07722 0.75276
 C523 C 0.58911 0.10521 0.75843
 C524 C 0.57800 0.12762 0.74801
 C525 C 0.56076 0.14263 0.76258
 C526 C 0.55412 0.13543 0.78781
 C527 C 0.56569 0.11331 0.79839
 C528 C 0.58307 0.09841 0.78389
 H529 H 0.60713 0.06037 0.68331
 H530 H 0.66114 0.05156 0.74673
 H531 H 0.55221 0.15958 0.75387
 H532 H 0.56100 0.10725 0.81778
 H533 H 0.63504 0.08173 0.77215
 H534 H 0.58254 0.13344 0.72852
 H535 H 0.58102 0.09032 0.70882
 H536 H 0.59113 0.08110 0.79232
 C537 C 0.39367 0.91193 0.74253
 C538 C 0.37086 0.92310 0.75286
 C539 C 0.35588 0.94025 0.73827
 C540 C 0.36353 0.94675 0.71313
 C541 C 0.38606 0.93517 0.70265
 C542 C 0.40092 0.91789 0.71716
 C543 C 0.41057 0.89504 0.75846
 C544 C 0.42169 0.87263 0.74803
 C545 C 0.43898 0.85766 0.76256
 C546 C 0.44565 0.86490 0.78776
 C547 C 0.43407 0.88702 0.79837
 C548 C 0.41665 0.90188 0.78390
 H549 H 0.33861 0.94882 0.74689
 H550 H 0.39247 0.93975 0.68333
 H551 H 0.44754 0.84071 0.75384
 H552 H 0.43879 0.89310 0.81773
 H553 H 0.41855 0.90980 0.70880
 H554 H 0.41712 0.86678 0.72855
 H555 H 0.36469 0.91864 0.77228
 H556 H 0.40859 0.91920 0.79234
 C557 C 0.60484 0.91231 0.25831
 C558 C 0.62793 0.92307 0.24821
 C559 C 0.64296 0.94008 0.26289
 C560 C 0.63509 0.94684 0.28790
 C561 C 0.61227 0.93567 0.29817
 C562 C 0.59735 0.91853 0.28356
 C563 C 0.58794 0.89561 0.24221
 C564 C 0.58236 0.90244 0.21666
 C565 C 0.56513 0.88768 0.20191
 C566 C 0.55323 0.86566 0.21232
 C567 C 0.55932 0.85846 0.23768
 C568 C 0.57641 0.87335 0.25251
 H569 H 0.66047 0.94832 0.25443
 H570 H 0.60569 0.94046 0.31739
 H571 H 0.56087 0.89374 0.18243
 H572 H 0.55047 0.84160 0.24625
 H573 H 0.57950 0.91074 0.29174
 H574 H 0.59073 0.91965 0.20832
 H575 H 0.63430 0.91840 0.22890
 H576 H 0.58057 0.86752 0.27207
 C577 C 0.39407 0.25742 0.91234
 C578 C 0.37122 0.24708 0.92335
 C579 C 0.35612 0.26161 0.94047
 C580 C 0.36371 0.28672 0.94710
 C581 C 0.38631 0.29721 0.93570
 C582 C 0.40128 0.28275 0.91844
 C583 C 0.41101 0.24157 0.89541
 C584 C 0.41714 0.21613 0.90217
 C585 C 0.43456 0.20171 0.88723
 C586 C 0.44608 0.21236 0.86511
 C587 C 0.43937 0.23757 0.85796
 C588 C 0.42209 0.25205 0.87301
 H589 H 0.33880 0.25299 0.94891
 H590 H 0.39267 0.31650 0.94039
 H591 H 0.43931 0.18234 0.89325
 H592 H 0.44789 0.24632 0.84101
 H593 H 0.41895 0.29112 0.91046
 H594 H 0.40910 0.20765 0.91948
 H595 H 0.36509 0.22769 0.91878
 H596 H 0.41749 0.27153 0.86722
 C597 C 0.60572 0.74314 0.91233
 C598 C 0.59856 0.71781 0.91846
 C599 C 0.61359 0.70337 0.93566
 C600 C 0.63622 0.71388 0.94697
 C601 C 0.64374 0.73901 0.94035
 C602 C 0.62857 0.75353 0.92329
 C603 C 0.58875 0.75895 0.89541
 C604 C 0.58259 0.78439 0.90214
 C605 C 0.56518 0.79878 0.88719
 C606 C 0.55369 0.78809 0.86508
 C607 C 0.56042 0.76287 0.85795
 C608 C 0.57769 0.74842 0.87303
 H609 H 0.60728 0.68406 0.94034
 H610 H 0.66107 0.74765 0.94872
 H611 H 0.56041 0.81816 0.89319
 H612 H 0.55192 0.75409 0.84102
 H613 H 0.63467 0.77292 0.91871
 H614 H 0.59062 0.79291 0.91943
 H615 H 0.58089 0.70941 0.91052
 H616 H 0.58231 0.72894 0.86725
 C617 C 0.39859 0.74161 0.08468
 C618 C 0.37111 0.74310 0.08547
 C619 C 0.35595 0.72813 0.06876
 C620 C 0.36810 0.71103 0.05153
 C621 C 0.39561 0.70910 0.05136
 C622 C 0.41072 0.72449 0.06759
 C623 C 0.41481 0.75844 0.10099
 C624 C 0.43197 0.77611 0.08956
 C625 C 0.44828 0.79138 0.10476
 C626 C 0.44813 0.78881 0.13165
 C627 C 0.43077 0.77121 0.14310
 C628 C 0.41398 0.75634 0.12787
 H629 H 0.33477 0.72993 0.06928
 H630 H 0.40547 0.69621 0.03815
 H631 H 0.46158 0.80467 0.09542
 H632 H 0.43026 0.76891 0.16379
 H633 H 0.43193 0.72310 0.06679
 H634 H 0.43281 0.77796 0.06882
 H635 H 0.36147 0.75629 0.09854
 H636 H 0.40087 0.74272 0.13696
 C637 C 0.60528 0.25786 0.08815
 C638 C 0.62822 0.24772 0.07708
 C639 C 0.64314 0.26241 0.05997
 C640 C 0.63529 0.28747 0.05341
 C641 C 0.61260 0.29775 0.06485
 C642 C 0.59781 0.28313 0.08210
 C643 C 0.58854 0.24184 0.10508
 C644 C 0.57739 0.25222 0.12751
 C645 C 0.56030 0.23757 0.14258
 C646 C 0.55384 0.21231 0.13540
 C647 C 0.56545 0.20177 0.11325
 C648 C 0.58268 0.21636 0.09831
 H649 H 0.66054 0.25394 0.05150
 H650 H 0.60604 0.31700 0.06022
 H651 H 0.55170 0.24624 0.15954
 H652 H 0.56089 0.18237 0.10721
 H653 H 0.58006 0.29135 0.09012
 H654 H 0.58179 0.27173 0.13332
 H655 H 0.63456 0.22838 0.08160
 H656 H 0.59079 0.20796 0.08098
 C657 C 0.25842 0.08839 0.60462
 C658 C 0.28430 0.08179 0.59802
 C659 C 0.29853 0.06447 0.61307
 C660 C 0.28724 0.05349 0.63514
 C661 C 0.26160 0.06065 0.64215
 C662 C 0.24731 0.07785 0.62699
 C663 C 0.24270 0.10525 0.58756
 C664 C 0.21668 0.09878 0.58146
 C665 C 0.20228 0.11371 0.56418
 C666 C 0.21354 0.13554 0.55272
 C667 C 0.23938 0.14235 0.55928
 C668 C 0.25385 0.12730 0.57645
 H669 H 0.31825 0.05937 0.60717
 H670 H 0.25236 0.05256 0.65906
 H671 H 0.18241 0.10795 0.55956
 H672 H 0.24860 0.15907 0.55080
 H673 H 0.22749 0.08282 0.63267
 H674 H 0.20768 0.08173 0.58951
 H675 H 0.29326 0.08941 0.58074
 H676 H 0.27380 0.13285 0.58100
 C677 C 0.74149 0.08642 0.39558
 C678 C 0.75172 0.07686 0.37240
 C679 C 0.73721 0.05965 0.35745
 C680 C 0.71220 0.05133 0.36553
 C681 C 0.70187 0.06133 0.38860
 C682 C 0.71631 0.07872 0.40336
 C683 C 0.75738 0.10357 0.41217
 C684 C 0.74597 0.12517 0.42392
 C685 C 0.76060 0.14048 0.44071
 C686 C 0.78687 0.13435 0.44628
 C687 C 0.79840 0.11300 0.43415
 C688 C 0.78384 0.09784 0.41718
 H689 H 0.74587 0.05254 0.33980
 H690 H 0.68271 0.05553 0.39551
 H691 H 0.75116 0.15680 0.44975
 H692 H 0.81860 0.10779 0.43802
 H693 H 0.70806 0.08560 0.42129
 H694 H 0.72568 0.13014 0.42019
 H695 H 0.77100 0.08270 0.36585
 H696 H 0.79305 0.08116 0.40857
 C697 C 0.74178 0.91176 0.60488
 C698 C 0.71589 0.91827 0.59826
 C699 C 0.70165 0.93575 0.61316
 C700 C 0.71295 0.94697 0.63510
 C701 C 0.73863 0.93996 0.64208
 C702 C 0.75293 0.92261 0.62707
 C703 C 0.75742 0.89458 0.58804
 C704 C 0.78346 0.90085 0.58174
 C705 C 0.79773 0.88561 0.56459
 C706 C 0.78632 0.86367 0.55348
 C707 C 0.76049 0.85704 0.56030
 C708 C 0.74616 0.87239 0.57733
 H709 H 0.68191 0.94073 0.60727
 H710 H 0.74789 0.94825 0.65889
 H711 H 0.81759 0.89124 0.55975
 H712 H 0.75116 0.84024 0.55209
 H713 H 0.77277 0.91773 0.63275
 H714 H 0.79254 0.91798 0.58949
 H715 H 0.70690 0.91042 0.58111
 H716 H 0.72621 0.86698 0.58206
 C717 C 0.25698 0.91216 0.39416
 C718 C 0.28295 0.91849 0.40064
 C719 C 0.29726 0.93572 0.38557
 C720 C 0.28596 0.94689 0.36359
 C721 C 0.26024 0.93998 0.35669
 C722 C 0.24587 0.92286 0.37187
 C723 C 0.24119 0.89545 0.41130
 C724 C 0.21525 0.90218 0.41754
 C725 C 0.20084 0.88746 0.43499
 C726 C 0.21199 0.86558 0.44647
 C727 C 0.23773 0.85848 0.43975
 C728 C 0.25221 0.87333 0.42242
 H729 H 0.31704 0.94062 0.39139
 H730 H 0.25099 0.94822 0.33985
 H731 H 0.18105 0.89343 0.43973
 H732 H 0.24686 0.84172 0.44824
 H733 H 0.22598 0.91810 0.36628
 H734 H 0.20635 0.91929 0.40951
 H735 H 0.29192 0.91075 0.41785
 H736 H 0.27209 0.86757 0.41776
 C737 C 0.08853 0.39498 0.74132
 C738 C 0.07736 0.37260 0.75172
 C739 C 0.06008 0.35767 0.73714
 C740 C 0.05345 0.36495 0.71194
 C741 C 0.06504 0.38707 0.70139
 C742 C 0.08246 0.40187 0.71590
 C743 C 0.10551 0.41175 0.75726
 C744 C 0.12839 0.42273 0.74695
 C745 C 0.14349 0.43975 0.76157
 C746 C 0.13587 0.44630 0.78671
 C747 C 0.11325 0.43492 0.79717
 C748 C 0.09828 0.41777 0.78263
 H749 H 0.05151 0.34073 0.74582
 H750 H 0.06036 0.39318 0.68202
 H751 H 0.16083 0.44818 0.75297
 H752 H 0.10686 0.43954 0.81649
 H753 H 0.09057 0.41917 0.70749
 H754 H 0.13454 0.41823 0.72753
 H755 H 0.08191 0.36671 0.77118
 H756 H 0.08059 0.40981 0.79098
 C757 C 0.09169 0.60632 0.25973
 C758 C 0.08549 0.59912 0.28505
 C759 C 0.06769 0.61353 0.29954
 C760 C 0.05578 0.63554 0.28908
 C761 C 0.06261 0.64320 0.26404
 C762 C 0.08032 0.62870 0.24950
 C763 C 0.10874 0.58970 0.24365
 C764 C 0.10164 0.58407 0.21818
 C765 C 0.11641 0.56677 0.20359
 C766 C 0.13870 0.55481 0.21411
 C767 C 0.14630 0.56107 0.23932
 C768 C 0.13141 0.57827 0.25398
 H769 H 0.06288 0.60712 0.31878
 H770 H 0.05383 0.66010 0.25545
 H771 H 0.11004 0.56239 0.18422
 H772 H 0.16339 0.55220 0.24797
 H773 H 0.08496 0.63485 0.23013
 H774 H 0.08411 0.59235 0.20980
 H775 H 0.09372 0.58181 0.29334
 H776 H 0.13749 0.58248 0.27348
 C777 C 0.91060 0.39464 0.25840
 C778 C 0.92270 0.37254 0.24834
 C779 C 0.94001 0.35808 0.26340
 C780 C 0.94570 0.36556 0.28876
 C781 C 0.93310 0.38733 0.29898
 C782 C 0.91571 0.40166 0.28399
 C783 C 0.89379 0.41115 0.24199
 C784 C 0.90159 0.41722 0.21680
 C785 C 0.88699 0.43448 0.20202
 C786 C 0.86420 0.44597 0.21206
 C787 C 0.85595 0.43928 0.23697
 C788 C 0.87064 0.42210 0.25180
 H789 H 0.94937 0.34139 0.25498
 H790 H 0.93703 0.39360 0.31846
 H791 H 0.89386 0.43920 0.18289
 H792 H 0.83844 0.44773 0.24524
 H793 H 0.90692 0.41877 0.29218
 H794 H 0.91950 0.40930 0.20883
 H795 H 0.91892 0.36654 0.22875
 H796 H 0.86401 0.41754 0.27105
 C797 C 0.91165 0.60442 0.74137
 C798 C 0.92310 0.62670 0.75172
 C799 C 0.94038 0.64151 0.73701
 C800 C 0.94673 0.63421 0.71174
 C801 C 0.93487 0.61220 0.70126
 C802 C 0.91746 0.59752 0.71588
 C803 C 0.89466 0.58773 0.75738
 C804 C 0.90201 0.58155 0.78266
 C805 C 0.88707 0.56436 0.79719
 C806 C 0.86435 0.55310 0.78680
 C807 C 0.85660 0.55984 0.76175
 C808 C 0.87167 0.57690 0.74716
 H809 H 0.94918 0.65838 0.74562
 H810 H 0.93932 0.60608 0.68183
 H811 H 0.89354 0.55961 0.81644
 H812 H 0.83918 0.55152 0.75321
 H813 H 0.90916 0.58030 0.70751
 H814 H 0.91978 0.58940 0.79093
 H815 H 0.91877 0.63258 0.77124
 H816 H 0.86542 0.58153 0.72781
 C817 C 0.74196 0.60514 0.91247
 C818 C 0.71674 0.59770 0.92036
 C819 C 0.70249 0.61277 0.93768
 C820 C 0.71305 0.63583 0.94742
 C821 C 0.73808 0.64358 0.93887
 C822 C 0.75241 0.62832 0.92174
 C823 C 0.75764 0.58818 0.89545
 C824 C 0.78404 0.58288 0.90119
 C825 C 0.79837 0.56552 0.88622
 C826 C 0.78666 0.55328 0.86504
 C827 C 0.76046 0.55912 0.85889
 C828 C 0.74606 0.57629 0.87403
 H829 H 0.68330 0.60609 0.94366
 H830 H 0.74692 0.66121 0.94578
 H831 H 0.81853 0.56147 0.89142
 H832 H 0.75088 0.55001 0.84269
 H833 H 0.77174 0.63460 0.91575
 H834 H 0.79338 0.59159 0.91774
 H835 H 0.70831 0.57980 0.91371
 H836 H 0.72581 0.58022 0.86905
 C837 C 0.25789 0.39524 0.91346
 C838 C 0.28311 0.40273 0.92129
 C839 C 0.29739 0.38775 0.93863
 C840 C 0.28687 0.36472 0.94846
 C841 C 0.26181 0.35693 0.94004
 C842 C 0.24745 0.37212 0.92287
 C843 C 0.24224 0.41204 0.89627
 C844 C 0.25388 0.42375 0.87477
 C845 C 0.23951 0.44076 0.85944
 C846 C 0.21328 0.44662 0.86547
 C847 C 0.20152 0.43455 0.88673
 C848 C 0.21581 0.41736 0.90190
 H849 H 0.31659 0.39446 0.94452
 H850 H 0.25300 0.33933 0.94703
 H851 H 0.24914 0.44973 0.84319
 H852 H 0.18133 0.43863 0.89185
 H853 H 0.22813 0.36579 0.91695
 H854 H 0.27415 0.41980 0.86987
 H855 H 0.29153 0.42060 0.91453
 H856 H 0.20643 0.40879 0.91850
 C857 C 0.26204 0.60221 0.08783
 C858 C 0.28717 0.59461 0.07973
 C859 C 0.30136 0.60963 0.06230
 C860 C 0.29081 0.63275 0.05269
 C861 C 0.26592 0.64067 0.06152
 C862 C 0.25169 0.62552 0.07876
 C863 C 0.24621 0.58535 0.10480
 C864 C 0.21966 0.58071 0.09921
 C865 C 0.20495 0.56386 0.11434
 C866 C 0.21639 0.55143 0.13554
 C867 C 0.24282 0.55647 0.14147
 C868 C 0.25762 0.57315 0.12615
 H869 H 0.32045 0.60284 0.05611
 H870 H 0.25710 0.65837 0.05476
 H871 H 0.18463 0.56041 0.10927
 H872 H 0.25220 0.54716 0.15766
 H873 H 0.23248 0.63197 0.08494
 H874 H 0.21043 0.58962 0.08271
 H875 H 0.29553 0.57662 0.08626
 H876 H 0.27799 0.57655 0.13100
 C877 C 0.74092 0.39637 0.08700
 C878 C 0.71566 0.40392 0.07929
 C879 C 0.70126 0.38889 0.06208
 C880 C 0.71170 0.36579 0.05227
 C881 C 0.73675 0.35792 0.06067
 C882 C 0.75121 0.37311 0.07771
 C883 C 0.75686 0.41329 0.10379
 C884 C 0.78329 0.41817 0.09784
 C885 C 0.79796 0.43533 0.11265
 C886 C 0.78660 0.44783 0.13388
 C887 C 0.76034 0.44248 0.14021
 C888 C 0.74558 0.42548 0.12523
 H889 H 0.68205 0.39566 0.05622
 H890 H 0.74548 0.34025 0.05373
 H891 H 0.81816 0.43901 0.10729
 H892 H 0.75102 0.45180 0.15645
 H893 H 0.77054 0.36672 0.08357
 H894 H 0.79241 0.40926 0.08126
 H895 H 0.70735 0.42188 0.08597
 H896 H 0.72530 0.42189 0.13037
 C897 C 0.91139 0.73949 0.60479
 C898 C 0.91854 0.71458 0.59714
 C899 C 0.93618 0.70014 0.61178
 C900 C 0.94699 0.71020 0.63460
 C901 C 0.93912 0.73491 0.64261
 C902 C 0.92166 0.74942 0.62778
 C903 C 0.89421 0.75541 0.58816
 C904 C 0.90082 0.78107 0.58287
 C905 C 0.88579 0.79559 0.56573
 C906 C 0.86368 0.78483 0.55368
 C907 C 0.85663 0.75939 0.55956
 C908 C 0.87183 0.74479 0.57652
 H909 H 0.94159 0.68121 0.60492
 H910 H 0.94685 0.74336 0.66007
 H911 H 0.89171 0.81514 0.56164
 H912 H 0.83970 0.75056 0.55060
 H913 H 0.91625 0.76849 0.63424
 H914 H 0.91812 0.78966 0.59137
 H915 H 0.91111 0.70654 0.57937
 H916 H 0.86617 0.72512 0.58045
 C917 C 0.91225 0.25910 0.39510
 C918 C 0.92323 0.24949 0.37226
 C919 C 0.94051 0.26451 0.35772
 C920 C 0.94749 0.28940 0.36590
 C921 C 0.93604 0.29907 0.38861
 C922 C 0.91859 0.28414 0.40294
 C923 C 0.89510 0.24280 0.41139
 C924 C 0.87233 0.25304 0.42272
 C925 C 0.85723 0.23824 0.43958
 C926 C 0.86472 0.21295 0.44565
 C927 C 0.88716 0.20253 0.43384
 C928 C 0.90213 0.21727 0.41681
 H929 H 0.94877 0.25635 0.34034
 H930 H 0.94077 0.31811 0.39562
 H931 H 0.84003 0.24682 0.44832
 H932 H 0.89343 0.18310 0.43807
 H933 H 0.91065 0.29194 0.42062
 H934 H 0.86632 0.27259 0.41868
 H935 H 0.91847 0.23031 0.36567
 H936 H 0.91971 0.20897 0.40854
 C937 C 0.08882 0.25973 0.60514
 C938 C 0.07924 0.25008 0.62853
 C939 C 0.06169 0.26447 0.64337
 C940 C 0.05305 0.28881 0.63500
 C941 C 0.06318 0.29862 0.61177
 C942 C 0.08091 0.28429 0.59710
 C943 C 0.10598 0.24379 0.58849
 C944 C 0.09984 0.21787 0.58399
 C945 C 0.11476 0.20325 0.56683
 C946 C 0.13630 0.21417 0.55395
 C947 C 0.14293 0.23989 0.55904
 C948 C 0.12783 0.25459 0.57604
 H949 H 0.05452 0.25623 0.66116
 H950 H 0.05716 0.31727 0.60463
 H951 H 0.10917 0.18348 0.56335
 H952 H 0.15940 0.24885 0.54941
 H953 H 0.08779 0.29210 0.57902
 H954 H 0.08295 0.20912 0.59311
 H955 H 0.08525 0.23129 0.63529
 H956 H 0.13313 0.27446 0.57934
 C957 C 0.08704 0.74147 0.39569
 C958 C 0.07962 0.71680 0.40379
 C959 C 0.06226 0.70209 0.38915
 C960 C 0.05199 0.71162 0.36586
 C961 C 0.06002 0.73614 0.35747
 C962 C 0.07722 0.75093 0.37230
 C963 C 0.10411 0.75760 0.41219
 C964 C 0.09769 0.78345 0.41682
 C965 C 0.11260 0.79817 0.43388
 C966 C 0.13440 0.78743 0.44650
 C967 C 0.14129 0.76180 0.44127
 C968 C 0.12622 0.74700 0.42438
 H969 H 0.05668 0.68334 0.39632
 H970 H 0.05269 0.74417 0.33965
 H971 H 0.10681 0.81788 0.43746
 H972 H 0.15797 0.75297 0.45068
 H973 H 0.08282 0.76981 0.36551
 H974 H 0.08061 0.79203 0.40787
 H975 H 0.08668 0.70915 0.42187
 H976 H 0.13174 0.72720 0.42096
 C977 C 0.60480 0.91344 0.74278
 C978 C 0.59769 0.91944 0.71738
 C979 C 0.61269 0.93662 0.70289
 C980 C 0.63525 0.94806 0.71342
 C981 C 0.64270 0.94161 0.73862
 C982 C 0.62757 0.92456 0.75319
 C983 C 0.58791 0.89643 0.75860
 C984 C 0.57698 0.87400 0.74806
 C985 C 0.55985 0.85879 0.76253
 C986 C 0.55311 0.86582 0.78779
 C987 C 0.56444 0.88800 0.79848
 C988 C 0.58172 0.90309 0.78407
 H989 H 0.60642 0.94117 0.68353
 H990 H 0.65998 0.95008 0.74728
 H991 H 0.55148 0.84181 0.75373
 H992 H 0.55968 0.89393 0.81789
 H993 H 0.63364 0.92009 0.77264
 H994 H 0.58162 0.86827 0.72856
 H995 H 0.58009 0.91139 0.70895
 H996 H 0.58963 0.92041 0.79261
 C997 C 0.39406 0.91396 0.25511
 C998 C 0.37141 0.92533 0.24472
 C999 C 0.35623 0.94223 0.25945
 C1000 C 0.36354 0.94830 0.28480
 C1001 C 0.38601 0.93664 0.29527
 C1002 C 0.40105 0.91959 0.28063
 C1003 C 0.41094 0.89697 0.23922
 C1004 C 0.42159 0.87434 0.24961
 C1005 C 0.43880 0.85918 0.23517
 C1006 C 0.44590 0.86642 0.21007
 C1007 C 0.43479 0.88877 0.19948
 C1008 C 0.41743 0.90383 0.21387
 H1009 H 0.33903 0.95090 0.25082
 H1010 H 0.39218 0.94090 0.31474
 H1011 H 0.44698 0.84206 0.24390
 H1012 H 0.43985 0.89487 0.18020
 H1013 H 0.41857 0.91134 0.28905
 H1014 H 0.41670 0.86844 0.26900
 H1015 H 0.36544 0.92114 0.22518
 H1016 H 0.40971 0.92130 0.20544
 C1017 C 0.60487 0.08703 0.25831
 C1018 C 0.59757 0.08098 0.28365
 C1019 C 0.61247 0.06374 0.29819
 C1020 C 0.63511 0.05230 0.28779
 C1021 C 0.64279 0.05884 0.26266
 C1022 C 0.62776 0.07594 0.24804
 C1023 C 0.58804 0.10400 0.24237
 C1024 C 0.57686 0.12638 0.25283
 C1025 C 0.55978 0.14153 0.23822
 C1026 C 0.55335 0.13450 0.21289
 C1027 C 0.56494 0.11238 0.20228
 C1028 C 0.58216 0.09735 0.21683
 H1029 H 0.60603 0.05913 0.31750
 H1030 H 0.66014 0.05038 0.25410
 H1031 H 0.55120 0.15846 0.24695
 H1032 H 0.56041 0.10644 0.18283
 H1033 H 0.63399 0.08046 0.22865
 H1034 H 0.58126 0.13210 0.27238
 H1035 H 0.57988 0.08900 0.29197
 H1036 H 0.59026 0.08008 0.20834
 C1037 C 0.39520 0.08699 0.74272
 C1038 C 0.37232 0.07606 0.75310
 C1039 C 0.35720 0.05897 0.73859
 C1040 C 0.36479 0.05229 0.71346
 C1041 C 0.38746 0.06354 0.70297
 C1042 C 0.40245 0.08077 0.71740
 C1043 C 0.41208 0.10402 0.75852
 C1044 C 0.42317 0.12635 0.74792
 C1045 C 0.44026 0.14157 0.76242
 C1046 C 0.44678 0.13465 0.78775
 C1047 C 0.43528 0.11258 0.79849
 C1048 C 0.41805 0.09748 0.78406
 H1049 H 0.33983 0.05065 0.74722
 H1050 H 0.39383 0.05881 0.68366
 H1051 H 0.44877 0.15847 0.75360
 H1052 H 0.43988 0.10673 0.81796
 H1053 H 0.42014 0.08868 0.70901
 H1054 H 0.41870 0.13198 0.72836
 H1055 H 0.36615 0.08071 0.77248
 H1056 H 0.41000 0.08024 0.79264
 C1057 C 0.60686 0.74325 0.08758
 C1058 C 0.59947 0.71801 0.08134
 C1059 C 0.61433 0.70351 0.06403
 C1060 C 0.63701 0.71387 0.05266
 C1061 C 0.64480 0.73888 0.05941
 C1062 C 0.62982 0.75345 0.07662
 C1063 C 0.58994 0.75921 0.10449
 C1064 C 0.58426 0.78479 0.09790
 C1065 C 0.56680 0.79930 0.11271
 C1066 C 0.55473 0.78860 0.13453
 C1067 C 0.56100 0.76325 0.14156
 C1068 C 0.57835 0.74868 0.12664
 H1069 H 0.60780 0.68429 0.05926
 H1070 H 0.66219 0.74741 0.05101
 H1071 H 0.56241 0.81878 0.10678
 H1072 H 0.55207 0.75445 0.15827
 H1073 H 0.63612 0.77277 0.08127
 H1074 H 0.59266 0.79333 0.08079
 H1075 H 0.58172 0.70973 0.08925
 H1076 H 0.58259 0.72909 0.13233
 C1077 C 0.39444 0.25708 0.08730
 C1078 C 0.40144 0.28251 0.08141
 C1079 C 0.38643 0.29698 0.06422
 C1080 C 0.36396 0.28640 0.05264
 C1081 C 0.35659 0.26117 0.05901
 C1082 C 0.37174 0.24662 0.07608
 C1083 C 0.41141 0.24127 0.10425
 C1084 C 0.42235 0.25176 0.12672
 C1085 C 0.43960 0.23732 0.14183
 C1086 C 0.44645 0.21214 0.13468
 C1087 C 0.43510 0.20149 0.11247
 C1088 C 0.41771 0.21587 0.09747
 H1089 H 0.39263 0.31636 0.05974
 H1090 H 0.33939 0.25247 0.05043
 H1091 H 0.44798 0.24607 0.15884
 H1092 H 0.43994 0.18214 0.10644
 H1093 H 0.36575 0.22715 0.08046
 H1094 H 0.41763 0.27120 0.13254
 H1095 H 0.41898 0.29098 0.08954
 H1096 H 0.40980 0.20737 0.08012
 C1097 C 0.60495 0.25811 0.91298
 C1098 C 0.62782 0.24785 0.92407
 C1099 C 0.64278 0.26245 0.94123
 C1100 C 0.63505 0.28754 0.94781
 C1101 C 0.61242 0.29794 0.93636
 C1102 C 0.59759 0.28341 0.91907
 C1103 C 0.58817 0.24220 0.89597
 C1104 C 0.57705 0.25267 0.87358
 C1105 C 0.55996 0.23809 0.85843
 C1106 C 0.55348 0.21280 0.86547
 C1107 C 0.56503 0.20218 0.88760
 C1108 C 0.58225 0.21669 0.90263
 H1109 H 0.66012 0.25389 0.94971
 H1110 H 0.60595 0.31721 0.94100
 H1111 H 0.55142 0.24682 0.84149
 H1112 H 0.56046 0.18275 0.89354
 H1113 H 0.57991 0.29172 0.91104
 H1114 H 0.58148 0.27219 0.86786
 H1115 H 0.63408 0.22848 0.91953
 H1116 H 0.59031 0.20821 0.91992
 C1117 C 0.39488 0.74147 0.91224
 C1118 C 0.37230 0.75168 0.92396
 C1119 C 0.35751 0.73685 0.94108
 C1120 C 0.36512 0.71156 0.94698
 C1121 C 0.38742 0.70121 0.93485
 C1122 C 0.40208 0.71597 0.91762
 C1123 C 0.41158 0.75762 0.89534
 C1124 C 0.42240 0.74750 0.87263
 C1125 C 0.43949 0.76222 0.85762
 C1126 C 0.44627 0.78731 0.86510
 C1127 C 0.43499 0.79760 0.88753
 C1128 C 0.41778 0.78294 0.90244
 H1129 H 0.34043 0.74538 0.95008
 H1130 H 0.39381 0.68179 0.93896
 H1131 H 0.44781 0.75374 0.84043
 H1132 H 0.43979 0.81687 0.89382
 H1133 H 0.41954 0.70768 0.90911
 H1134 H 0.41775 0.72813 0.86656
 H1135 H 0.36615 0.77120 0.91996
 H1136 H 0.40996 0.79116 0.91998
 C1137 C 0.74152 0.91157 0.39676
 C1138 C 0.71564 0.91814 0.40343
 C1139 C 0.70136 0.93554 0.38848
 C1140 C 0.71259 0.94663 0.36643
 C1141 C 0.73827 0.93959 0.35942
 C1142 C 0.75261 0.92231 0.37448
 C1143 C 0.75719 0.89440 0.41361
 C1144 C 0.78331 0.90055 0.41967
 C1145 C 0.79764 0.88532 0.43678
 C1146 C 0.78622 0.86349 0.44809
 C1147 C 0.76030 0.85696 0.44152
 C1148 C 0.74591 0.87231 0.42454
 H1149 H 0.68163 0.94055 0.39441
 H1150 H 0.74747 0.94776 0.34253
 H1151 H 0.81756 0.89088 0.44142
 H1152 H 0.75095 0.84026 0.44989
 H1153 H 0.77242 0.91739 0.36874
 H1154 H 0.79243 0.91760 0.41177
 H1155 H 0.70668 0.91039 0.42065
 H1156 H 0.72590 0.86697 0.42000
 C1157 C 0.25590 0.91416 0.60383
 C1158 C 0.28207 0.91989 0.59752
 C1159 C 0.29669 0.93681 0.61266
 C1160 C 0.28552 0.94825 0.63457
 C1161 C 0.25952 0.94210 0.64121
 C1162 C 0.24483 0.92531 0.62593
 C1163 C 0.24005 0.89726 0.58689
 C1164 C 0.21421 0.90402 0.58029
 C1165 C 0.19982 0.88896 0.56307
 C1166 C 0.21092 0.86671 0.55222
 C1167 C 0.23654 0.85962 0.55935
 C1168 C 0.25097 0.87478 0.57643
 H1169 H 0.31667 0.94114 0.60702
 H1170 H 0.25034 0.95060 0.65796
 H1171 H 0.18013 0.89494 0.55799
 H1172 H 0.24565 0.84258 0.55137
 H1173 H 0.22478 0.92104 0.63138
 H1174 H 0.20538 0.92138 0.58786
 H1175 H 0.29103 0.91181 0.58044
 H1176 H 0.27074 0.86896 0.58140
 C1177 C 0.25585 0.08698 0.39534
 C1178 C 0.24463 0.07600 0.37325
 C1179 C 0.25906 0.05895 0.35798
 C1180 C 0.28496 0.05236 0.36461
 C1181 C 0.29628 0.06362 0.38653
 C1182 C 0.28191 0.08080 0.40166
 C1183 C 0.24025 0.10414 0.41228
 C1184 C 0.25150 0.12642 0.42280
 C1185 C 0.23729 0.14177 0.43993
 C1186 C 0.21156 0.13508 0.44705
 C1187 C 0.20012 0.11307 0.43612
 C1188 C 0.21428 0.09781 0.41885
 H1189 H 0.24978 0.05060 0.34122
 H1190 H 0.31618 0.05896 0.39217
 H1191 H 0.24667 0.15862 0.44798
 H1192 H 0.18034 0.10738 0.44119
 H1193 H 0.29098 0.08873 0.41874
 H1194 H 0.27137 0.13192 0.41785
 H1195 H 0.22466 0.08061 0.36778
 H1196 H 0.20519 0.08062 0.41124
 C1197 C 0.74299 0.08694 0.60352
 C1198 C 0.71690 0.08089 0.59721
 C1199 C 0.70248 0.06381 0.61237
 C1200 C 0.71377 0.05250 0.63428
 C1201 C 0.73967 0.05901 0.64094
 C1202 C 0.75416 0.07597 0.62565
 C1203 C 0.75872 0.10386 0.58649
 C1204 C 0.78463 0.09725 0.57998
 C1205 C 0.79895 0.11228 0.56268
 C1206 C 0.78772 0.13434 0.55163
 C1207 C 0.76202 0.14130 0.55863
 C1208 C 0.74764 0.12617 0.57581
 H1209 H 0.68258 0.05921 0.60671
 H1210 H 0.74893 0.05065 0.65770
 H1211 H 0.81870 0.10639 0.55770
 H1212 H 0.75281 0.15820 0.55049
 H1213 H 0.77415 0.08049 0.63111
 H1214 H 0.79358 0.08002 0.58770
 H1215 H 0.70787 0.08882 0.58012
 H1216 H 0.72781 0.13187 0.58069
 C1217 C 0.91550 0.60035 0.25849
 C1218 C 0.93293 0.58902 0.27598
 C1219 C 0.94927 0.60429 0.29115
 C1220 C 0.94890 0.63117 0.28865
 C1221 C 0.93134 0.64253 0.27116
 C1222 C 0.91450 0.62721 0.25641
 C1223 C 0.89907 0.58396 0.24190
 C1224 C 0.87160 0.58479 0.24365
 C1225 C 0.85625 0.56804 0.22892
 C1226 C 0.86817 0.55069 0.21178
 C1227 C 0.89567 0.55045 0.20961
 C1228 C 0.91098 0.56673 0.22476
 H1229 H 0.96273 0.59504 0.30435
 H1230 H 0.93064 0.66320 0.26892
 H1231 H 0.83509 0.56863 0.23090
 H1232 H 0.90537 0.53716 0.19668
 H1233 H 0.90119 0.63624 0.24292
 H1234 H 0.86212 0.59795 0.25687
 H1235 H 0.93391 0.56831 0.27783
 H1236 H 0.93217 0.56587 0.22317
 C1237 C 0.91134 0.39573 0.74122
 C1238 C 0.91729 0.40239 0.71570
 C1239 C 0.93452 0.38735 0.70116
 C1240 C 0.94605 0.36521 0.71176
 C1241 C 0.93954 0.35816 0.73707
 C1242 C 0.92245 0.37332 0.75167
 C1243 C 0.89453 0.41273 0.75717
 C1244 C 0.90182 0.41880 0.78250
 C1245 C 0.88695 0.43608 0.79704
 C1246 C 0.86433 0.44754 0.78664
 C1247 C 0.85667 0.44098 0.76151
 C1248 C 0.87167 0.42384 0.74690
 H1249 H 0.93912 0.39330 0.68172
 H1250 H 0.94808 0.34122 0.74579
 H1251 H 0.89337 0.44071 0.81634
 H1252 H 0.83933 0.44946 0.75294
 H1253 H 0.91799 0.36760 0.77121
 H1254 H 0.91949 0.41076 0.79082
 H1255 H 0.90924 0.41969 0.70723
 H1256 H 0.86545 0.41931 0.72751
 C1257 C 0.08880 0.60278 0.73994
 C1258 C 0.07803 0.62542 0.75022
 C1259 C 0.06096 0.64055 0.73561
 C1260 C 0.05414 0.63326 0.71045
 C1261 C 0.06535 0.61089 0.69999
 C1262 C 0.08257 0.59587 0.71455
 C1263 C 0.10555 0.58585 0.75599
 C1264 C 0.12831 0.57448 0.74576
 C1265 C 0.14335 0.55757 0.76059
 C1266 C 0.13580 0.55149 0.78588
 C1267 C 0.11325 0.56317 0.79620
 C1268 C 0.09835 0.58022 0.78145
 H1269 H 0.05269 0.65768 0.74423
 H1270 H 0.06050 0.60475 0.68067
 H1271 H 0.16061 0.54889 0.75207
 H1272 H 0.10690 0.55890 0.81561
 H1273 H 0.09039 0.57839 0.70622
 H1274 H 0.13444 0.57866 0.72627
 H1275 H 0.08272 0.63135 0.76964
 H1276 H 0.08075 0.58848 0.78974
 C1277 C 0.08645 0.40157 0.26250
 C1278 C 0.08768 0.37470 0.26061
 C1279 C 0.07060 0.35937 0.27506
 C1280 C 0.05252 0.37071 0.29207
 C1281 C 0.05195 0.39759 0.29449
 C1282 C 0.06856 0.41289 0.27960
 C1283 C 0.10300 0.41792 0.24596
 C1284 C 0.09121 0.43526 0.22887
 C1285 C 0.10664 0.45121 0.21346
 C1286 C 0.13414 0.45051 0.21532
 C1287 C 0.14595 0.43312 0.23246
 C1288 C 0.13048 0.41669 0.24744
 H1289 H 0.07145 0.33869 0.27289
 H1290 H 0.03810 0.40682 0.30733
 H1291 H 0.09703 0.46455 0.20054
 H1292 H 0.16712 0.43219 0.23421
 H1293 H 0.06739 0.43360 0.28131
 H1294 H 0.07002 0.43640 0.22744
 H1295 H 0.10132 0.36567 0.24743
 H1296 H 0.13988 0.40342 0.26058
   
