data_POSCAR
  _audit_creation_date              2014-09-24
  _audit_creation_method            'ToBaCCo'
  _symmetry_space_group_name_H-M    'P1'
  _symmetry_Int_Tables_number       1
  _symmetry_cell_setting            triclinic
  loop_
  _symmetry_equiv_pos_as_xyz
 x,y,z
_cell_length_a 53.6754
_cell_length_b 35.9387
_cell_length_c 37.6434
_cell_angle_alpha 89.946900
_cell_angle_beta 89.959200
_cell_angle_gamma 89.985900
loop_
  _atom_site_label
  _atom_site_type_symbol
  _atom_site_fract_x
  _atom_site_fract_y
  _atom_site_fract_z
C1 C 0.00074 -0.00023 0.11481
 C2 C 0.00066 0.00006 -0.11813
 C3 C -0.05725 -0.06106 0.05278
 C4 C -0.05715 0.06064 0.05296
 C5 C -0.05699 -0.06105 -0.05573
 C6 C 0.05817 -0.05769 -0.05904
 C7 C 0.05812 0.05721 -0.05918
 C8 C 0.05774 -0.05749 0.05625
 C9 C -0.05702 0.06105 -0.05536
 C10 C 0.05779 0.05710 0.05621
 O11 O -0.03411 -0.06917 -0.06347
 O12 O -0.06372 -0.03563 -0.03345
 O13 O -0.03415 0.06934 -0.06296
 O14 O -0.06374 0.03537 -0.03334
 O15 O 0.03493 0.06503 0.06405
 O16 O 0.06455 0.03391 0.03184
 O17 O -0.00005 0.03164 -0.10188
 O18 O 0.00093 -0.03158 -0.10188
 O19 O 0.00074 0.03148 0.09882
 O20 O 0.00015 -0.03194 0.09888
 O21 O 0.03521 -0.06519 -0.06696
 O22 O 0.06467 -0.03455 -0.03442
 O23 O -0.03438 -0.06927 0.06049
 O24 O -0.06390 -0.03559 0.03048
 O25 O 0.03488 -0.06535 0.06417
 O26 O 0.06451 -0.03435 0.03182
 O27 O 0.03517 0.06465 -0.06720
 O28 O 0.06463 0.03417 -0.03446
 O29 O 0.00166 0.10411 0.05201
 O30 O 0.00188 0.10399 -0.05588
 O31 O 0.00175 -0.10423 -0.05580
 O32 O 0.00168 -0.10448 0.05231
 O33 O -0.02114 -0.04919 -0.00154
 O34 O -0.02114 0.04886 -0.00152
 O35 O 0.02157 -0.04888 -0.00146
 O36 O -0.02239 -0.00017 0.04586
 O37 O -0.06385 0.03531 0.03057
 O38 O -0.03428 0.06871 0.06070
 O39 O 0.02311 -0.00023 0.04607
 O40 O 0.02330 -0.00011 -0.04913
 O41 O 0.02160 0.04853 -0.00151
 O42 O -0.02231 -0.00013 -0.04883
 Zr43 Zr 0.00032 0.04595 0.04463
 Zr44 Zr 0.00046 -0.04619 -0.04768
 Zr45 Zr -0.04227 -0.00016 -0.00146
 Zr46 Zr 0.00025 -0.04635 0.04467
 Zr47 Zr 0.00041 0.04596 -0.04767
 Zr48 Zr 0.04301 -0.00019 -0.00146
 H49 H 0.03165 -0.07196 -0.00144
 H50 H -0.03354 -0.00019 0.06680
 H51 H 0.03169 0.07158 -0.00152
 H52 H -0.03346 -0.00009 -0.06975
 H53 H -0.00363 0.11502 0.02910
 H54 H 0.00092 0.11515 -0.03193
 H55 H -0.00300 -0.11547 0.02918
 H56 H -0.00041 -0.11541 -0.03199
 C57 C 0.25042 0.24959 0.13284
 C58 C 0.25019 0.24986 0.36579
 C59 C 0.19250 0.31090 0.19501
 C60 C 0.19234 0.18883 0.19538
 C61 C 0.19232 0.31095 0.30357
 C62 C 0.30727 0.30759 0.30661
 C63 C 0.30717 0.19184 0.30672
 C64 C 0.30740 0.30758 0.19251
 C65 C 0.19222 0.18912 0.30365
 C66 C 0.30736 0.19176 0.19241
 O67 O 0.21520 0.31905 0.31122
 O68 O 0.18558 0.28549 0.28134
 O69 O 0.21507 0.18096 0.31147
 O70 O 0.18555 0.21453 0.28131
 O71 O 0.28450 0.18414 0.18425
 O72 O 0.31405 0.21521 0.21658
 O73 O 0.25014 0.21816 0.34984
 O74 O 0.24965 0.28156 0.34980
 O75 O 0.24961 0.21800 0.14911
 O76 O 0.25062 0.28122 0.14904
 O77 O 0.28441 0.31531 0.31470
 O78 O 0.31400 0.28408 0.28250
 O79 O 0.21539 0.31889 0.18729
 O80 O 0.18570 0.28551 0.21733
 O81 O 0.28459 0.31543 0.18441
 O82 O 0.31408 0.28398 0.21656
 O83 O 0.28431 0.18410 0.31475
 O84 O 0.31394 0.21532 0.28259
 O85 O 0.25102 0.14560 0.19523
 O86 O 0.25082 0.14561 0.30357
 O87 O 0.25110 0.35404 0.30332
 O88 O 0.25102 0.35386 0.19487
 O89 O 0.22834 0.29889 0.24933
 O90 O 0.22824 0.20087 0.24947
 O91 O 0.27101 0.29839 0.24942
 O92 O 0.22713 0.24982 0.20201
 O93 O 0.18560 0.21450 0.21740
 O94 O 0.21522 0.18051 0.18790
 O95 O 0.27275 0.24967 0.20180
 O96 O 0.27261 0.24978 0.29712
 O97 O 0.27093 0.20106 0.24952
 O98 O 0.22702 0.24988 0.29676
 Zr99 Zr 0.24980 0.20365 0.20332
 Zr100 Zr 0.24976 0.29595 0.29556
 Zr101 Zr 0.20713 0.24995 0.24937
 Zr102 Zr 0.24991 0.29583 0.20319
 Zr103 Zr 0.24970 0.20371 0.29566
 Zr104 Zr 0.29244 0.24968 0.24951
 H105 H 0.28103 0.32151 0.24944
 H106 H 0.21602 0.24985 0.18104
 H107 H 0.28093 0.17791 0.24956
 H108 H 0.21587 0.24991 0.31770
 H109 H 0.24892 0.13443 0.21906
 H110 H 0.24665 0.13456 0.28027
 H111 H 0.24866 0.36508 0.21861
 H112 H 0.24726 0.36511 0.27990
 C113 C 0.49956 -0.00024 0.11615
 C114 C 0.49982 -0.00223 -0.11598
 C115 C 0.55817 0.05914 0.05467
 C116 C 0.55815 -0.06164 0.05558
 C117 C 0.55832 0.05905 -0.05518
 C118 C 0.44310 0.05650 -0.05712
 C119 C 0.44306 -0.05948 -0.05647
 C120 C 0.44319 0.05724 0.05704
 C121 C 0.55828 -0.06241 -0.05447
 C122 C 0.44283 -0.05909 0.05790
 O123 O 0.53531 0.06728 -0.06232
 O124 O 0.56488 0.03361 -0.03267
 O125 O 0.53529 -0.07095 -0.06127
 O126 O 0.56485 -0.03671 -0.03231
 O127 O 0.46580 -0.06734 0.06521
 O128 O 0.43637 -0.03490 0.03412
 O129 O 0.50039 -0.03384 -0.09986
 O130 O 0.50003 0.02957 -0.10028
 O131 O 0.49954 -0.03211 0.10052
 O132 O 0.50029 0.03131 0.09998
 O133 O 0.46597 0.06406 -0.06533
 O134 O 0.43638 0.03318 -0.03280
 O135 O 0.53529 0.06706 0.06250
 O136 O 0.56496 0.03435 0.03174
 O137 O 0.46607 0.06547 0.06454
 O138 O 0.43646 0.03309 0.03353
 O139 O 0.46591 -0.06792 -0.06400
 O140 O 0.43638 -0.03529 -0.03295
 O141 O 0.49982 -0.10527 0.05434
 O142 O 0.49983 -0.10598 -0.05342
 O143 O 0.49987 0.10246 -0.05507
 O144 O 0.49986 0.10349 0.05233
 O145 O 0.52229 0.04769 -0.00032
 O146 O 0.52218 -0.05046 0.00051
 O147 O 0.47943 0.04743 -0.00024
 O148 O 0.52326 -0.00106 0.04722
 O149 O 0.56477 -0.03737 0.03192
 O150 O 0.53515 -0.06875 0.06378
 O151 O 0.47775 -0.00088 0.04776
 O152 O 0.47780 -0.00167 -0.04736
 O153 O 0.47932 -0.04997 0.00051
 O154 O 0.52332 -0.00172 -0.04726
 Zr155 Zr 0.50051 -0.04714 0.04656
 Zr156 Zr 0.50067 0.04448 -0.04632
 Zr157 Zr 0.54337 -0.00144 -0.00002
 Zr158 Zr 0.50067 0.04520 0.04578
 Zr159 Zr 0.50064 -0.04788 -0.04560
 Zr160 Zr 0.45794 -0.00120 0.00027
 H161 H 0.46944 0.07058 -0.00035
 H162 H 0.53428 -0.00097 0.06826
 H163 H 0.46925 -0.07303 0.00073
 H164 H 0.53436 -0.00184 -0.06831
 H165 H 0.50555 -0.11616 0.03163
 H166 H 0.49903 -0.11694 -0.02934
 H167 H 0.50595 0.11391 0.02960
 H168 H 0.49899 0.11380 -0.03118
 C169 C 0.75114 0.24919 0.13431
 C170 C 0.75099 0.24984 0.36645
 C171 C 0.69288 0.30956 0.19502
 C172 C 0.69294 0.18857 0.19582
 C173 C 0.69274 0.31010 0.30472
 C174 C 0.80780 0.30709 0.30756
 C175 C 0.80808 0.19213 0.30841
 C176 C 0.80778 0.30666 0.19250
 C177 C 0.69302 0.18923 0.30559
 C178 C 0.80792 0.19168 0.19292
 O179 O 0.71562 0.31870 0.31198
 O180 O 0.68606 0.28460 0.28251
 O181 O 0.71589 0.18172 0.31379
 O182 O 0.68620 0.21359 0.28226
 O183 O 0.78506 0.18373 0.18517
 O184 O 0.81467 0.21496 0.21721
 O185 O 0.75099 0.21807 0.35068
 O186 O 0.75038 0.28150 0.35039
 O187 O 0.75094 0.21750 0.15031
 O188 O 0.75069 0.28093 0.15010
 O189 O 0.78494 0.31563 0.31491
 O190 O 0.81454 0.28314 0.28385
 O191 O 0.71578 0.31721 0.18700
 O192 O 0.68608 0.28506 0.21826
 O193 O 0.78493 0.31497 0.18495
 O194 O 0.81452 0.28300 0.21651
 O195 O 0.78510 0.18482 0.31645
 O196 O 0.81463 0.21494 0.28348
 O197 O 0.75130 0.14491 0.19672
 O198 O 0.75169 0.14530 0.30363
 O199 O 0.75104 0.35393 0.30404
 O200 O 0.75137 0.35362 0.19713
 O201 O 0.72868 0.29850 0.25010
 O202 O 0.72882 0.20038 0.25060
 O203 O 0.77163 0.29803 0.25013
 O204 O 0.72771 0.24916 0.20311
 O205 O 0.68618 0.21399 0.21810
 O206 O 0.71584 0.18018 0.18845
 O207 O 0.77318 0.24920 0.20284
 O208 O 0.77318 0.24970 0.29784
 O209 O 0.77167 0.20058 0.25056
 O210 O 0.72768 0.24964 0.29752
 Zr211 Zr 0.75040 0.20302 0.20447
 Zr212 Zr 0.75027 0.29583 0.29617
 Zr213 Zr 0.70761 0.24938 0.25029
 Zr214 Zr 0.75034 0.29538 0.20413
 Zr215 Zr 0.75044 0.20353 0.29663
 Zr216 Zr 0.79306 0.24925 0.25032
 H217 H 0.78174 0.32106 0.24996
 H218 H 0.71667 0.24901 0.18208
 H219 H 0.78175 0.17752 0.25075
 H220 H 0.71662 0.24978 0.31855
 H221 H 0.75226 0.13398 0.22079
 H222 H 0.74490 0.13463 0.28145
 H223 H 0.74485 0.36424 0.21952
 H224 H 0.75278 0.36490 0.28007
 C225 C 0.00050 0.50072 0.11580
 C226 C -0.00003 0.49979 -0.11712
 C227 C -0.05732 0.43917 0.05445
 C228 C -0.05774 0.56113 0.05373
 C229 C -0.05774 0.43880 -0.05413
 C230 C 0.05724 0.44298 -0.05804
 C231 C 0.05707 0.55781 -0.05827
 C232 C 0.05750 0.44329 0.05707
 C233 C -0.05788 0.56085 -0.05458
 C234 C 0.05728 0.55809 0.05675
 O235 O -0.03485 0.43055 -0.06168
 O236 O -0.06447 0.46448 -0.03213
 O237 O -0.03503 0.56900 -0.06244
 O238 O -0.06454 0.53540 -0.03225
 O239 O 0.03441 0.56584 0.06476
 O240 O 0.06401 0.53487 0.03237
 O241 O 0.00013 0.53144 -0.10096
 O242 O -0.00071 0.46822 -0.10077
 O243 O -0.00027 0.53237 0.09974
 O244 O 0.00061 0.46896 0.09995
 O245 O 0.03439 0.43505 -0.06592
 O246 O 0.06398 0.46624 -0.03376
 O247 O -0.03442 0.43192 0.06269
 O248 O -0.06423 0.46388 0.03151
 O249 O 0.03468 0.43541 0.06517
 O250 O 0.06415 0.46643 0.03256
 O251 O 0.03420 0.56559 -0.06615
 O252 O 0.06388 0.53462 -0.03393
 O253 O 0.00107 0.60473 0.05287
 O254 O 0.00059 0.60418 -0.05528
 O255 O 0.00106 0.39594 -0.05442
 O256 O 0.00140 0.39618 0.05316
 O257 O -0.02164 0.45113 -0.00017
 O258 O -0.02185 0.54912 -0.00060
 O259 O 0.02108 0.45170 -0.00042
 O260 O -0.02286 0.50034 0.04692
 O261 O -0.06446 0.53543 0.03175
 O262 O -0.03487 0.56947 0.06119
 O263 O 0.02271 0.50059 0.04701
 O264 O 0.02253 0.50015 -0.04817
 O265 O 0.02090 0.54908 -0.00076
 O266 O -0.02307 0.50001 -0.04777
 Zr267 Zr -0.00026 0.54658 0.04547
 Zr268 Zr -0.00029 0.45400 -0.04648
 Zr269 Zr -0.04292 0.50000 -0.00029
 Zr270 Zr -0.00000 0.45436 0.04584
 Zr271 Zr -0.00039 0.54617 -0.04682
 Zr272 Zr 0.04243 0.50047 -0.00063
 H273 H 0.03121 0.42867 -0.00034
 H274 H -0.03395 0.50036 0.06792
 H275 H 0.03091 0.57220 -0.00084
 H276 H -0.03424 0.49992 -0.06867
 H277 H -0.00357 0.61565 0.02968
 H278 H -0.00124 0.61545 -0.03147
 H279 H -0.00453 0.38533 0.03056
 H280 H 0.00101 0.38488 -0.03037
 C281 C 0.25066 0.75067 0.13359
 C282 C 0.25049 0.75124 0.36584
 C283 C 0.19256 0.81162 0.19537
 C284 C 0.19258 0.68988 0.19527
 C285 C 0.19235 0.81178 0.30365
 C286 C 0.30731 0.80907 0.30667
 C287 C 0.30757 0.69320 0.30688
 C288 C 0.30764 0.80886 0.19238
 C289 C 0.19256 0.68984 0.30417
 C290 C 0.30754 0.69296 0.19275
 O291 O 0.21521 0.82009 0.31121
 O292 O 0.18568 0.78616 0.28156
 O293 O 0.21546 0.68180 0.31184
 O294 O 0.18581 0.71521 0.28180
 O295 O 0.28471 0.68511 0.18475
 O296 O 0.31425 0.71661 0.21672
 O297 O 0.25051 0.71950 0.35001
 O298 O 0.24984 0.78290 0.34983
 O299 O 0.25064 0.71899 0.14958
 O300 O 0.25002 0.78240 0.14940
 O301 O 0.28444 0.81676 0.31469
 O302 O 0.31411 0.78551 0.28266
 O303 O 0.21543 0.81986 0.18773
 O304 O 0.18582 0.78613 0.21761
 O305 O 0.28477 0.81631 0.18404
 O306 O 0.31432 0.78559 0.21677
 O307 O 0.28472 0.68536 0.31492
 O308 O 0.31427 0.71677 0.28278
 O309 O 0.25131 0.64650 0.19626
 O310 O 0.25112 0.64683 0.30433
 O311 O 0.25098 0.85521 0.30351
 O312 O 0.25132 0.85501 0.19533
 O313 O 0.22839 0.79983 0.24950
 O314 O 0.22850 0.70174 0.24983
 O315 O 0.27115 0.79966 0.24956
 O316 O 0.22735 0.75075 0.20239
 O317 O 0.18582 0.71521 0.21766
 O318 O 0.21548 0.68184 0.18758
 O319 O 0.27291 0.75083 0.20208
 O320 O 0.27281 0.75108 0.29728
 O321 O 0.27126 0.70229 0.24983
 O322 O 0.22723 0.75090 0.29702
 Zr323 Zr 0.25005 0.70464 0.20372
 Zr324 Zr 0.24984 0.79713 0.29565
 Zr325 Zr 0.20731 0.75071 0.24968
 Zr326 Zr 0.25003 0.79696 0.20343
 Zr327 Zr 0.25002 0.70485 0.29595
 Zr328 Zr 0.29268 0.75104 0.24968
 H329 H 0.28112 0.82283 0.24947
 H330 H 0.21624 0.75070 0.18142
 H331 H 0.28129 0.67918 0.24988
 H332 H 0.21609 0.75090 0.31797
 H333 H 0.24635 0.63557 0.21933
 H334 H 0.25003 0.63560 0.28041
 H335 H 0.24763 0.86618 0.21874
 H336 H 0.24775 0.86629 0.27990
 C337 C 0.49919 0.49961 0.11615
 C338 C 0.49908 0.50010 -0.11602
 C339 C 0.55742 0.56023 0.05503
 C340 C 0.55766 0.43925 0.05437
 C341 C 0.55729 0.56082 -0.05455
 C342 C 0.44231 0.55807 -0.05671
 C343 C 0.44244 0.44225 -0.05703
 C344 C 0.44256 0.55787 0.05747
 C345 C 0.55731 0.43979 -0.05503
 C346 C 0.44266 0.44174 0.05719
 O347 O 0.53440 0.56918 -0.06195
 O348 O 0.56407 0.53542 -0.03226
 O349 O 0.53444 0.43213 -0.06303
 O350 O 0.56415 0.46434 -0.03195
 O351 O 0.46552 0.43340 0.06463
 O352 O 0.43588 0.46591 0.03371
 O353 O 0.49964 0.46838 -0.10015
 O354 O 0.49923 0.53180 -0.10008
 O355 O 0.49994 0.46796 0.10019
 O356 O 0.49912 0.53136 0.10029
 O357 O 0.46516 0.56588 -0.06478
 O358 O 0.43562 0.53449 -0.03258
 O359 O 0.53454 0.56780 0.06318
 O360 O 0.56422 0.53578 0.03180
 O361 O 0.46542 0.56608 0.06500
 O362 O 0.43581 0.53385 0.03386
 O363 O 0.46529 0.43473 -0.06532
 O364 O 0.43572 0.46554 -0.03270
 O365 O 0.49949 0.39554 0.05425
 O366 O 0.49878 0.39582 -0.05298
 O367 O 0.49895 0.60436 -0.05400
 O368 O 0.49920 0.60413 0.05365
 O369 O 0.52150 0.54906 0.00011
 O370 O 0.52162 0.45095 -0.00013
 O371 O 0.47870 0.54868 0.00024
 O372 O 0.52271 0.49983 0.04730
 O373 O 0.56433 0.46483 0.03216
 O374 O 0.53479 0.43070 0.06172
 O375 O 0.47721 0.49973 0.04775
 O376 O 0.47702 0.50014 -0.04739
 O377 O 0.47878 0.45131 0.00006
 O378 O 0.52258 0.50022 -0.04720
 Zr379 Zr 0.50013 0.45360 0.04604
 Zr380 Zr 0.49986 0.54629 -0.04593
 Zr381 Zr 0.54269 0.50005 -0.00000
 Zr382 Zr 0.49998 0.54596 0.04624
 Zr383 Zr 0.49992 0.45405 -0.04606
 Zr384 Zr 0.45729 0.49998 0.00027
 H385 H 0.46867 0.57179 0.00030
 H386 H 0.53377 0.49970 0.06831
 H387 H 0.46877 0.42818 -0.00008
 H388 H 0.53361 0.50036 -0.06827
 H389 H 0.49819 0.38444 0.03030
 H390 H 0.50515 0.38516 -0.03051
 H391 H 0.50490 0.61493 0.03087
 H392 H 0.49860 0.61541 -0.02996
 C393 C 0.75045 0.75021 0.13367
 C394 C 0.75062 0.75092 0.36584
 C395 C 0.69208 0.81026 0.19471
 C396 C 0.69252 0.68931 0.19549
 C397 C 0.69224 0.81103 0.30404
 C398 C 0.80722 0.80850 0.30688
 C399 C 0.80760 0.69367 0.30749
 C400 C 0.80716 0.80816 0.19174
 C401 C 0.69273 0.68991 0.30522
 C402 C 0.80745 0.69329 0.19222
 O403 O 0.71509 0.81963 0.31136
 O404 O 0.68556 0.78547 0.28188
 O405 O 0.71564 0.68257 0.31333
 O406 O 0.68582 0.71426 0.28190
 O407 O 0.78461 0.68525 0.18445
 O408 O 0.81418 0.71663 0.21646
 O409 O 0.75077 0.71915 0.35005
 O410 O 0.74979 0.78256 0.34979
 O411 O 0.74994 0.71855 0.14970
 O412 O 0.75025 0.78198 0.14944
 O413 O 0.78434 0.81626 0.31480
 O414 O 0.81403 0.78525 0.28260
 O415 O 0.71492 0.81881 0.18712
 O416 O 0.68546 0.78504 0.21733
 O417 O 0.78427 0.81589 0.18386
 O418 O 0.81397 0.78504 0.21617
 O419 O 0.78476 0.68575 0.31551
 O420 O 0.81426 0.71681 0.28295
 O421 O 0.75111 0.64611 0.19609
 O422 O 0.75145 0.64635 0.30292
 O423 O 0.75066 0.85496 0.30341
 O424 O 0.75077 0.85477 0.19603
 O425 O 0.72807 0.79942 0.24956
 O426 O 0.72843 0.70128 0.25003
 O427 O 0.77097 0.79941 0.24946
 O428 O 0.72715 0.75022 0.20253
 O429 O 0.68573 0.71462 0.21783
 O430 O 0.71542 0.68105 0.18802
 O431 O 0.77261 0.75053 0.20217
 O432 O 0.77274 0.75091 0.29717
 O433 O 0.77129 0.70197 0.24987
 O434 O 0.72723 0.75056 0.29700
 Zr435 Zr 0.74992 0.70421 0.20386
 Zr436 Zr 0.74972 0.79686 0.29558
 Zr437 Zr 0.70713 0.75016 0.24982
 Zr438 Zr 0.74966 0.79659 0.20347
 Zr439 Zr 0.75009 0.70459 0.29600
 Zr440 Zr 0.79257 0.75081 0.24960
 H441 H 0.78097 0.82255 0.24932
 H442 H 0.71607 0.75003 0.18154
 H443 H 0.78144 0.67898 0.24998
 H444 H 0.71617 0.75065 0.31804
 H445 H 0.75213 0.63518 0.22015
 H446 H 0.74462 0.63569 0.28075
 H447 H 0.74471 0.86561 0.21858
 H448 H 0.75055 0.86596 0.27933
 C449 C 0.00010 0.00087 0.38338
 C450 C -0.00014 0.00050 0.61601
 C451 C -0.05800 0.06173 0.44549
 C452 C -0.05784 -0.06008 0.44530
 C453 C -0.05793 0.06148 0.55400
 C454 C 0.05703 0.05805 0.55730
 C455 C 0.05703 -0.05666 0.55727
 C456 C 0.05700 0.05819 0.44217
 C457 C -0.05794 -0.06049 0.55360
 C458 C 0.05711 -0.05657 0.44210
 O459 O -0.03508 0.06951 0.56186
 O460 O -0.06464 0.03619 0.53158
 O461 O -0.03508 -0.06876 0.56117
 O462 O -0.06466 -0.03481 0.53156
 O463 O 0.03427 -0.06446 0.43418
 O464 O 0.06381 -0.03338 0.46648
 O465 O -0.00090 -0.03118 0.60005
 O466 O 0.00006 0.03225 0.60009
 O467 O 0.00010 -0.03085 0.39936
 O468 O -0.00059 0.03256 0.39933
 O469 O 0.03417 0.06596 0.56520
 O470 O 0.06376 0.03487 0.53291
 O471 O -0.03513 0.07025 0.43810
 O472 O -0.06471 0.03598 0.46748
 O473 O 0.03415 0.06607 0.43423
 O474 O 0.06374 0.03498 0.46654
 O475 O 0.03417 -0.06448 0.56525
 O476 O 0.06376 -0.03348 0.53285
 O477 O 0.00096 -0.10346 0.44594
 O478 O 0.00087 -0.10352 0.55391
 O479 O 0.00081 0.10491 0.55351
 O480 O 0.00077 0.10502 0.44542
 O481 O -0.02202 0.04977 0.49973
 O482 O -0.02197 -0.04831 0.49964
 O483 O 0.02073 0.04946 0.49970
 O484 O -0.02315 0.00078 0.45231
 O485 O -0.06459 -0.03478 0.46769
 O486 O -0.03497 -0.06811 0.43750
 O487 O 0.02237 0.00086 0.45213
 O488 O 0.02234 0.00064 0.54728
 O489 O 0.02078 -0.04798 0.49969
 O490 O -0.02321 0.00066 0.54700
 Zr491 Zr -0.00040 -0.04534 0.45353
 Zr492 Zr -0.00048 0.04679 0.54588
 Zr493 Zr -0.04312 0.00072 0.49964
 Zr494 Zr -0.00053 0.04697 0.45355
 Zr495 Zr -0.00051 -0.04547 0.54582
 Zr496 Zr 0.04219 0.00075 0.49970
 H497 H 0.03080 0.07253 0.49973
 H498 H -0.03427 0.00082 0.43135
 H499 H 0.03087 -0.07104 0.49968
 H500 H -0.03437 0.00060 0.56793
 H501 H -0.00409 -0.11446 0.46893
 H502 H -0.00064 -0.11465 0.53000
 H503 H -0.00083 0.11615 0.46932
 H504 H -0.00407 0.11592 0.53045
 C505 C 0.25034 0.24935 0.86708
 C506 C 0.25032 0.24909 0.63449
 C507 C 0.19229 0.18831 0.80518
 C508 C 0.19224 0.31029 0.80471
 C509 C 0.19220 0.18828 0.69671
 C510 C 0.30717 0.19125 0.69370
 C511 C 0.30714 0.30741 0.69363
 C512 C 0.30735 0.19104 0.80760
 C513 C 0.19220 0.31008 0.69658
 C514 C 0.30721 0.30731 0.80768
 O515 O 0.21507 0.18005 0.68906
 O516 O 0.18550 0.21374 0.71897
 O517 O 0.21507 0.31822 0.68885
 O518 O 0.18549 0.28461 0.71887
 O519 O 0.28435 0.31543 0.81539
 O520 O 0.31393 0.28333 0.78400
 O521 O 0.25029 0.28080 0.65043
 O522 O 0.24975 0.21739 0.65048
 O523 O 0.24956 0.28103 0.85110
 O524 O 0.25053 0.21761 0.85120
 O525 O 0.28432 0.18304 0.68607
 O526 O 0.31389 0.21524 0.71735
 O527 O 0.21516 0.17991 0.81267
 O528 O 0.18555 0.21392 0.78308
 O529 O 0.28451 0.18273 0.81524
 O530 O 0.31400 0.21521 0.78401
 O531 O 0.28428 0.31560 0.68607
 O532 O 0.31389 0.28336 0.71727
 O533 O 0.25072 0.35338 0.80520
 O534 O 0.25056 0.35339 0.69633
 O535 O 0.25075 0.14493 0.69679
 O536 O 0.25063 0.14502 0.80563
 O537 O 0.22821 0.20011 0.75092
 O538 O 0.22817 0.29823 0.75076
 O539 O 0.27093 0.20052 0.75081
 O540 O 0.22704 0.24916 0.79821
 O541 O 0.18552 0.28463 0.78272
 O542 O 0.21510 0.31856 0.81225
 O543 O 0.27260 0.24924 0.79843
 O544 O 0.27254 0.24918 0.70313
 O545 O 0.27089 0.29793 0.75071
 O546 O 0.22699 0.24918 0.70347
 Zr547 Zr 0.24969 0.29537 0.79688
 Zr548 Zr 0.24967 0.20301 0.70471
 Zr549 Zr 0.20708 0.24917 0.75086
 Zr550 Zr 0.24978 0.20301 0.79703
 Zr551 Zr 0.24968 0.29534 0.70460
 Zr552 Zr 0.29236 0.24926 0.75073
 H553 H 0.28096 0.17742 0.75076
 H554 H 0.21592 0.24918 0.81918
 H555 H 0.28089 0.32106 0.75069
 H556 H 0.21587 0.24919 0.68252
 H557 H 0.24895 0.36463 0.78135
 H558 H 0.24748 0.36456 0.71993
 H559 H 0.24950 0.13372 0.78174
 H560 H 0.24721 0.13384 0.72031
 C561 C 0.49920 0.00103 0.38390
 C562 C 0.49905 -0.00079 0.61608
 C563 C 0.55728 -0.05983 0.44471
 C564 C 0.55747 0.06108 0.44588
 C565 C 0.55725 -0.06089 0.55412
 C566 C 0.44229 -0.05815 0.55643
 C567 C 0.44240 0.05764 0.55751
 C568 C 0.44244 -0.05706 0.44236
 C569 C 0.55725 0.05994 0.55539
 C570 C 0.44249 0.05888 0.44330
 O571 O 0.53437 -0.06940 0.56147
 O572 O 0.56399 -0.03535 0.53195
 O573 O 0.53438 0.06760 0.56346
 O574 O 0.56406 0.03557 0.53209
 O575 O 0.46534 0.06731 0.43589
 O576 O 0.43575 0.03458 0.46669
 O577 O 0.49962 0.03106 0.60042
 O578 O 0.49909 -0.03236 0.59991
 O579 O 0.49934 0.03265 0.39998
 O580 O 0.49963 -0.03077 0.39964
 O581 O 0.46511 -0.06668 0.56389
 O582 O 0.43563 -0.03379 0.53305
 O583 O 0.53441 -0.06744 0.43667
 O584 O 0.56409 -0.03540 0.46794
 O585 O 0.46529 -0.06520 0.43461
 O586 O 0.43571 -0.03333 0.46626
 O587 O 0.46524 0.06504 0.56586
 O588 O 0.43569 0.03463 0.53298
 O589 O 0.49941 0.10497 0.44625
 O590 O 0.49876 0.10401 0.55379
 O591 O 0.49911 -0.10455 0.55360
 O592 O 0.49890 -0.10364 0.44600
 O593 O 0.52143 -0.04893 0.49961
 O594 O 0.52148 0.04923 0.50038
 O595 O 0.47859 -0.04843 0.49957
 O596 O 0.52257 0.00065 0.45273
 O597 O 0.56412 0.03551 0.46807
 O598 O 0.53462 0.06966 0.43847
 O599 O 0.47709 0.00075 0.45233
 O600 O 0.47698 -0.00025 0.54750
 O601 O 0.47871 0.04899 0.50033
 O602 O 0.52248 -0.00037 0.54723
 Zr603 Zr 0.49996 0.04686 0.45421
 Zr604 Zr 0.49979 -0.04645 0.54567
 Zr605 Zr 0.54255 0.00012 0.49999
 Zr606 Zr 0.49988 -0.04550 0.45360
 Zr607 Zr 0.49986 0.04584 0.54641
 Zr608 Zr 0.45724 0.00036 0.49988
 H609 H 0.46853 -0.07150 0.49931
 H610 H 0.53365 0.00087 0.43171
 H611 H 0.46870 0.07212 0.50061
 H612 H 0.53352 -0.00066 0.56826
 H613 H 0.49843 0.11596 0.47028
 H614 H 0.50488 0.11484 0.53124
 H615 H 0.50461 -0.11456 0.46870
 H616 H 0.49805 -0.11552 0.52957
 C617 C 0.75047 0.24908 0.86664
 C618 C 0.74993 0.24927 0.63445
 C619 C 0.69229 0.18861 0.80626
 C620 C 0.69206 0.30968 0.80520
 C621 C 0.69207 0.18826 0.69640
 C622 C 0.80698 0.19216 0.69283
 C623 C 0.80676 0.30697 0.69257
 C624 C 0.80720 0.19237 0.80799
 C625 C 0.69174 0.30926 0.69600
 C626 C 0.80703 0.30702 0.80773
 O627 O 0.71494 0.17997 0.68886
 O628 O 0.68532 0.21355 0.71879
 O629 O 0.71457 0.31757 0.68818
 O630 O 0.68513 0.28412 0.71870
 O631 O 0.78417 0.31487 0.81567
 O632 O 0.81376 0.28380 0.78338
 O633 O 0.74980 0.28099 0.65033
 O634 O 0.74939 0.21756 0.65041
 O635 O 0.75016 0.28080 0.85069
 O636 O 0.75003 0.21737 0.85080
 O637 O 0.78413 0.18413 0.68507
 O638 O 0.81372 0.21544 0.71710
 O639 O 0.71520 0.18125 0.81438
 O640 O 0.68539 0.21288 0.78285
 O641 O 0.78439 0.18445 0.81618
 O642 O 0.81382 0.21547 0.78344
 O643 O 0.78386 0.31473 0.68473
 O644 O 0.81357 0.28380 0.71695
 O645 O 0.75034 0.35350 0.80465
 O646 O 0.75034 0.35362 0.69725
 O647 O 0.75064 0.14500 0.69662
 O648 O 0.75107 0.14483 0.80313
 O649 O 0.72800 0.19998 0.75079
 O650 O 0.72780 0.29810 0.75062
 O651 O 0.77085 0.20071 0.75054
 O652 O 0.72692 0.24920 0.79794
 O653 O 0.68532 0.28420 0.78301
 O654 O 0.71493 0.31815 0.81256
 O655 O 0.77241 0.24940 0.79794
 O656 O 0.77219 0.24934 0.70292
 O657 O 0.77066 0.29816 0.75037
 O658 O 0.72671 0.24910 0.70346
 Zr659 Zr 0.74951 0.29544 0.79657
 Zr660 Zr 0.74947 0.20307 0.70457
 Zr661 Zr 0.70677 0.24890 0.75084
 Zr662 Zr 0.74966 0.20313 0.79673
 Zr663 Zr 0.74929 0.29541 0.70443
 Zr664 Zr 0.79216 0.24954 0.75032
 H665 H 0.78099 0.17771 0.75057
 H666 H 0.71590 0.24929 0.81901
 H667 H 0.78068 0.32128 0.75025
 H668 H 0.71561 0.24898 0.68250
 H669 H 0.75072 0.36460 0.78062
 H670 H 0.74431 0.36433 0.71987
 H671 H 0.74373 0.13437 0.78120
 H672 H 0.75189 0.13399 0.72064
 C673 C 0.00067 0.50023 0.38426
 C674 C -0.00009 0.49979 0.61689
 C675 C -0.05755 0.56084 0.44597
 C676 C -0.05722 0.43891 0.44571
 C677 C -0.05791 0.56069 0.55430
 C678 C 0.05710 0.55744 0.55839
 C679 C 0.05735 0.44247 0.55813
 C680 C 0.05747 0.55778 0.44322
 C681 C -0.05768 0.43865 0.55442
 C682 C 0.05762 0.44305 0.44286
 O683 O -0.03507 0.56904 0.56196
 O684 O -0.06453 0.53507 0.53219
 O685 O -0.03480 0.43056 0.56219
 O686 O -0.06438 0.46417 0.53218
 O687 O 0.03478 0.43526 0.43480
 O688 O 0.06428 0.46606 0.46745
 O689 O 0.00022 0.46810 0.60090
 O690 O -0.00088 0.53151 0.60097
 O691 O 0.00021 0.46848 0.40016
 O692 O 0.00049 0.53191 0.40026
 O693 O 0.03421 0.56510 0.56632
 O694 O 0.06396 0.53436 0.53400
 O695 O -0.03465 0.56903 0.43840
 O696 O -0.06431 0.53527 0.46815
 O697 O 0.03461 0.56559 0.43526
 O698 O 0.06419 0.53454 0.46762
 O699 O 0.03448 0.43446 0.56589
 O700 O 0.06412 0.46588 0.53392
 O701 O 0.00162 0.39583 0.44732
 O702 O 0.00087 0.39565 0.55472
 O703 O 0.00082 0.60399 0.55496
 O704 O 0.00121 0.60442 0.44702
 O705 O -0.02176 0.54887 0.50049
 O706 O -0.02155 0.45087 0.50036
 O707 O 0.02102 0.54875 0.50072
 O708 O -0.02270 0.50006 0.45312
 O709 O -0.06415 0.46371 0.46853
 O710 O -0.03432 0.43152 0.43761
 O711 O 0.02286 0.50022 0.45308
 O712 O 0.02258 0.49995 0.54822
 O713 O 0.02121 0.45138 0.50056
 O714 O -0.02302 0.49973 0.54777
 Zr715 Zr 0.00010 0.45403 0.45433
 Zr716 Zr -0.00040 0.54596 0.54675
 Zr717 Zr -0.04283 0.49976 0.50030
 Zr718 Zr -0.00007 0.54626 0.45447
 Zr719 Zr -0.00018 0.45372 0.54665
 Zr720 Zr 0.04258 0.50013 0.50070
 H721 H 0.03103 0.57187 0.50079
 H722 H -0.03377 0.50010 0.43212
 H723 H 0.03133 0.42836 0.50047
 H724 H -0.03422 0.49964 0.56865
 H725 H -0.00457 0.38504 0.46984
 H726 H 0.00150 0.38461 0.53069
 H727 H -0.00389 0.61531 0.47002
 H728 H -0.00071 0.61520 0.53107
 C729 C 0.25031 0.75041 0.86599
 C730 C 0.25021 0.75086 0.63379
 C731 C 0.19211 0.68974 0.80394
 C732 C 0.19218 0.81158 0.80443
 C733 C 0.19205 0.68988 0.69601
 C734 C 0.30705 0.69266 0.69278
 C735 C 0.30708 0.80855 0.69277
 C736 C 0.30708 0.69250 0.80694
 C737 C 0.19217 0.81177 0.69571
 C738 C 0.30720 0.80843 0.80697
 O739 O 0.21492 0.68156 0.68842
 O740 O 0.18535 0.71551 0.71808
 O741 O 0.21504 0.81980 0.68790
 O742 O 0.18544 0.78642 0.71810
 O743 O 0.28435 0.81626 0.81503
 O744 O 0.31388 0.78497 0.78281
 O745 O 0.25012 0.78255 0.64972
 O746 O 0.24965 0.71914 0.64971
 O747 O 0.25016 0.78216 0.85013
 O748 O 0.24974 0.71875 0.85006
 O749 O 0.28419 0.68446 0.68522
 O750 O 0.31378 0.71670 0.71639
 O751 O 0.21497 0.68145 0.81153
 O752 O 0.18540 0.71536 0.78187
 O753 O 0.28421 0.68425 0.81451
 O754 O 0.31380 0.71661 0.78333
 O755 O 0.28425 0.81635 0.68474
 O756 O 0.31382 0.78507 0.71692
 O757 O 0.25079 0.85483 0.80436
 O758 O 0.25084 0.85502 0.69607
 O759 O 0.25050 0.64659 0.69538
 O760 O 0.25058 0.64638 0.80415
 O761 O 0.22801 0.70170 0.74993
 O762 O 0.22810 0.79985 0.74999
 O763 O 0.27081 0.70196 0.74986
 O764 O 0.22693 0.75067 0.79730
 O765 O 0.18544 0.78605 0.78229
 O766 O 0.21506 0.81994 0.81187
 O767 O 0.27245 0.75057 0.79750
 O768 O 0.27243 0.75070 0.70232
 O769 O 0.27084 0.79939 0.74993
 O770 O 0.22689 0.75080 0.70264
 Zr771 Zr 0.24964 0.79681 0.79608
 Zr772 Zr 0.24954 0.70458 0.70382
 Zr773 Zr 0.20695 0.75084 0.75001
 Zr774 Zr 0.24958 0.70444 0.79595
 Zr775 Zr 0.24961 0.79691 0.70384
 Zr776 Zr 0.29226 0.75066 0.74989
 H777 H 0.28083 0.67883 0.74985
 H778 H 0.21582 0.75064 0.81828
 H779 H 0.28085 0.82251 0.74991
 H780 H 0.21575 0.75083 0.68170
 H781 H 0.24893 0.86607 0.78052
 H782 H 0.24648 0.86603 0.71932
 H783 H 0.24763 0.63522 0.78052
 H784 H 0.24851 0.63528 0.71917
 C785 C 0.49932 0.50004 0.38398
 C786 C 0.49864 0.49987 0.61614
 C787 C 0.55730 0.43894 0.44546
 C788 C 0.55775 0.56009 0.44592
 C789 C 0.55684 0.43883 0.55541
 C790 C 0.44197 0.44228 0.55696
 C791 C 0.44230 0.55793 0.55695
 C792 C 0.44237 0.44204 0.44264
 C793 C 0.55723 0.55974 0.55539
 C794 C 0.44272 0.55835 0.44262
 O795 O 0.53390 0.43141 0.56334
 O796 O 0.56383 0.46341 0.53237
 O797 O 0.53433 0.56759 0.56319
 O798 O 0.56408 0.53504 0.53240
 O799 O 0.46564 0.56651 0.43526
 O800 O 0.43584 0.53424 0.46612
 O801 O 0.49937 0.53156 0.60019
 O802 O 0.49864 0.46814 0.60026
 O803 O 0.50012 0.53171 0.39989
 O804 O 0.49915 0.46833 0.39990
 O805 O 0.46478 0.43449 0.56519
 O806 O 0.43535 0.46570 0.53265
 O807 O 0.53440 0.43136 0.43745
 O808 O 0.56412 0.46356 0.46850
 O809 O 0.46524 0.43362 0.43530
 O810 O 0.43561 0.46624 0.46611
 O811 O 0.46516 0.56534 0.56526
 O812 O 0.43558 0.53469 0.53259
 O813 O 0.49972 0.60412 0.44573
 O814 O 0.49878 0.60412 0.55275
 O815 O 0.49821 0.39543 0.55304
 O816 O 0.49936 0.39565 0.44590
 O817 O 0.52125 0.45058 0.50019
 O818 O 0.52162 0.54863 0.50022
 O819 O 0.47843 0.45127 0.49992
 O820 O 0.52270 0.49970 0.45292
 O821 O 0.56435 0.53449 0.46814
 O822 O 0.53492 0.56875 0.43851
 O823 O 0.47716 0.50007 0.45226
 O824 O 0.47676 0.49993 0.54737
 O825 O 0.47873 0.54861 0.49992
 O826 O 0.52234 0.49956 0.54736
 Zr827 Zr 0.50018 0.54607 0.45402
 Zr828 Zr 0.49949 0.45366 0.54613
 Zr829 Zr 0.54263 0.49940 0.50030
 Zr830 Zr 0.49984 0.45373 0.45396
 Zr831 Zr 0.49980 0.54585 0.54608
 Zr832 Zr 0.45711 0.50007 0.49969
 H833 H 0.46834 0.42823 0.49997
 H834 H 0.53381 0.49969 0.43193
 H835 H 0.46877 0.57179 0.49998
 H836 H 0.53330 0.49945 0.56848
 H837 H 0.49818 0.61526 0.46963
 H838 H 0.50541 0.61463 0.53037
 H839 H 0.49770 0.38458 0.46983
 H840 H 0.50461 0.38478 0.53059
 C841 C 0.75058 0.75041 0.86599
 C842 C 0.75015 0.75049 0.63382
 C843 C 0.69215 0.69052 0.80521
 C844 C 0.69237 0.81125 0.80524
 C845 C 0.69186 0.69008 0.69580
 C846 C 0.80686 0.69262 0.69228
 C847 C 0.80712 0.80748 0.69197
 C848 C 0.80702 0.69279 0.80741
 C849 C 0.69228 0.81108 0.69498
 C850 C 0.80734 0.80759 0.80712
 O851 O 0.71471 0.68150 0.68838
 O852 O 0.68519 0.71566 0.71797
 O853 O 0.71517 0.81854 0.68680
 O854 O 0.68542 0.78668 0.71825
 O855 O 0.78452 0.81557 0.81518
 O856 O 0.81398 0.78434 0.78275
 O857 O 0.75027 0.78220 0.64971
 O858 O 0.74935 0.71879 0.64978
 O859 O 0.75007 0.78213 0.85007
 O860 O 0.75038 0.71870 0.85011
 O861 O 0.78396 0.68489 0.68446
 O862 O 0.81370 0.71584 0.71654
 O863 O 0.71502 0.68275 0.81318
 O864 O 0.68533 0.71516 0.78214
 O865 O 0.78416 0.68507 0.81544
 O866 O 0.81379 0.71592 0.78295
 O867 O 0.78427 0.81547 0.68413
 O868 O 0.81386 0.78426 0.71635
 O869 O 0.75065 0.85479 0.80349
 O870 O 0.75097 0.85481 0.69704
 O871 O 0.75019 0.64621 0.69594
 O872 O 0.75059 0.64612 0.80272
 O873 O 0.72786 0.70166 0.75011
 O874 O 0.72813 0.79972 0.74996
 O875 O 0.77075 0.70163 0.74989
 O876 O 0.72700 0.75065 0.79723
 O877 O 0.68544 0.78673 0.78215
 O878 O 0.71529 0.81890 0.81304
 O879 O 0.77251 0.75040 0.79733
 O880 O 0.77235 0.75026 0.70232
 O881 O 0.77099 0.79903 0.74979
 O882 O 0.72683 0.75057 0.70281
 Zr883 Zr 0.74977 0.79665 0.79597
 Zr884 Zr 0.74937 0.70429 0.70394
 Zr885 Zr 0.70681 0.75085 0.75013
 Zr886 Zr 0.74959 0.70440 0.79602
 Zr887 Zr 0.74967 0.79655 0.70382
 Zr888 Zr 0.79229 0.75021 0.74974
 H889 H 0.78077 0.67851 0.74993
 H890 H 0.71599 0.75072 0.81832
 H891 H 0.78113 0.82203 0.74966
 H892 H 0.71575 0.75052 0.68182
 H893 H 0.75227 0.86561 0.77945
 H894 H 0.74397 0.86541 0.71914
 H895 H 0.74374 0.63564 0.78049
 H896 H 0.75146 0.63516 0.71993
 C897 C 0.00144 0.00019 0.22932
 C898 C 0.00850 0.03203 0.21003
 C899 C 0.00822 0.03191 0.17290
 C900 C 0.00112 -0.00017 0.15415
 C901 C -0.00569 -0.03214 0.17336
 C902 C -0.00566 -0.03190 0.21049
 C903 C 0.00134 0.00049 0.26888
 C904 C 0.00831 -0.03136 0.28822
 C905 C 0.00784 -0.03125 0.32534
 C906 C 0.00063 0.00082 0.34405
 C907 C -0.00610 0.03279 0.32479
 C908 C -0.00588 0.03256 0.28766
 H909 H 0.01382 0.05688 0.15888
 H910 H -0.01143 -0.05723 0.15971
 H911 H 0.01339 -0.05622 0.33939
 H912 H -0.01191 0.05788 0.33840
 H913 H -0.01162 -0.05671 0.22442
 H914 H 0.01442 -0.05631 0.27469
 H915 H 0.01452 0.05700 0.22360
 H916 H -0.01177 0.05738 0.27368
 C917 C 0.25129 0.24952 1.02119
 C918 C 0.25351 0.28296 1.04028
 C919 C 0.25307 0.28307 1.07741
 C920 C 0.25083 0.24956 1.09680
 C921 C 0.24900 0.21600 1.07744
 C922 C 0.24898 0.21608 1.04031
 C923 C 0.25120 0.24955 0.98155
 C924 C 0.26171 0.21982 0.96233
 C925 C 0.26125 0.21961 0.92519
 C926 C 0.25070 0.24943 0.90635
 C927 C 0.24045 0.27934 0.92537
 C928 C 0.24049 0.27925 0.96250
 H929 H 0.25480 0.30965 1.09076
 H930 H 0.24713 0.18943 1.09081
 H931 H 0.26953 0.19636 0.91119
 H932 H 0.23196 0.30253 0.91153
 H933 H 0.24675 0.18982 1.02664
 H934 H 0.27060 0.19684 0.97592
 H935 H 0.25588 0.30921 1.02658
 H936 H 0.23173 0.30225 0.97622
 C937 C 0.11519 0.11152 0.11698
 C938 C 0.09054 0.11003 0.12956
 C939 C 0.07194 0.09261 0.10970
 C940 C 0.07756 0.07591 0.07690
 C941 C 0.10222 0.07704 0.06441
 C942 C 0.12080 0.09481 0.08413
 C943 C 0.13488 0.13074 0.13787
 C944 C 0.15935 0.11675 0.13888
 C945 C 0.17794 0.13534 0.15785
 C946 C 0.17246 0.16819 0.17654
 C947 C 0.14794 0.18189 0.17599
 C948 C 0.12941 0.16350 0.15677
 H949 H 0.05318 0.09180 0.12031
 H950 H 0.10712 0.06460 0.03915
 H951 H 0.19661 0.12393 0.15788
 H952 H 0.14313 0.20734 0.18978
 H953 H 0.13948 0.09595 0.07334
 H954 H 0.16412 0.09126 0.12518
 H955 H 0.08563 0.12194 0.15502
 H956 H 0.11090 0.17544 0.15611
 C957 C 0.36513 0.36481 0.13498
 C958 C 0.37028 0.34781 0.16784
 C959 C 0.35158 0.32905 0.18646
 C960 C 0.32726 0.32724 0.17282
 C961 C 0.32206 0.34434 0.14007
 C962 C 0.34081 0.36275 0.12129
 C963 C 0.38503 0.38457 0.11504
 C964 C 0.37968 0.41739 0.09616
 C965 C 0.39834 0.43580 0.07719
 C966 C 0.42284 0.42202 0.07695
 C967 C 0.42824 0.38934 0.09597
 C968 C 0.40952 0.37073 0.11465
 H969 H 0.35611 0.31640 0.21177
 H970 H 0.30355 0.34306 0.12868
 H971 H 0.39363 0.46113 0.06309
 H972 H 0.44690 0.37786 0.09611
 H973 H 0.33630 0.37492 0.09577
 H974 H 0.36112 0.42918 0.09641
 H975 H 0.38869 0.34940 0.17944
 H976 H 0.41420 0.34519 0.12839
 C977 C 0.36528 0.13437 0.13478
 C978 C 0.37041 0.15167 0.16750
 C979 C 0.35167 0.17043 0.18612
 C980 C 0.32727 0.17201 0.17267
 C981 C 0.32208 0.15461 0.14008
 C982 C 0.34087 0.13619 0.12130
 C983 C 0.38528 0.11458 0.11481
 C984 C 0.37997 0.08192 0.09565
 C985 C 0.39870 0.06348 0.07674
 C986 C 0.42327 0.07703 0.07677
 C987 C 0.42863 0.10953 0.09605
 C988 C 0.40986 0.12817 0.11467
 H989 H 0.35625 0.18328 0.21129
 H990 H 0.30354 0.15564 0.12880
 H991 H 0.39397 0.03830 0.06247
 H992 H 0.44732 0.12087 0.09644
 H993 H 0.33631 0.12384 0.09590
 H994 H 0.36139 0.07022 0.09566
 H995 H 0.38885 0.15030 0.17904
 H996 H 0.41457 0.15357 0.12856
 C997 C 0.13496 0.36928 0.13782
 C998 C 0.12947 0.33665 0.15693
 C999 C 0.14804 0.31814 0.17599
 C1000 C 0.17263 0.33158 0.17615
 C1001 C 0.17814 0.36427 0.15717
 C1002 C 0.15950 0.38299 0.13837
 C1003 C 0.11519 0.38867 0.11718
 C1004 C 0.12059 0.40519 0.08416
 C1005 C 0.10192 0.42306 0.06466
 C1006 C 0.07737 0.42447 0.07758
 C1007 C 0.07196 0.40800 0.11056
 C1008 C 0.09066 0.39049 0.13020
 H1009 H 0.14320 0.29281 0.19000
 H1010 H 0.19686 0.37549 0.15691
 H1011 H 0.10664 0.43531 0.03924
 H1012 H 0.05330 0.40904 0.12148
 H1013 H 0.16429 0.40838 0.12446
 H1014 H 0.13917 0.40380 0.07305
 H1015 H 0.11090 0.32491 0.15661
 H1016 H 0.08592 0.37873 0.15582
 C1017 C 0.36484 0.13517 0.36496
 C1018 C 0.37004 0.15188 0.33197
 C1019 C 0.35135 0.17040 0.31312
 C1020 C 0.32698 0.17228 0.32663
 C1021 C 0.32172 0.15544 0.35949
 C1022 C 0.34046 0.13727 0.37852
 C1023 C 0.38475 0.11566 0.38517
 C1024 C 0.37941 0.08309 0.40447
 C1025 C 0.39809 0.06486 0.42357
 C1026 C 0.42261 0.07855 0.42355
 C1027 C 0.42800 0.11101 0.40416
 C1028 C 0.40927 0.12944 0.38535
 H1029 H 0.35594 0.18284 0.28772
 H1030 H 0.30318 0.15676 0.37079
 H1031 H 0.39337 0.03971 0.43794
 H1032 H 0.44667 0.12242 0.40378
 H1033 H 0.33590 0.12533 0.40412
 H1034 H 0.36085 0.07132 0.40441
 H1035 H 0.38849 0.15024 0.32045
 H1036 H 0.41395 0.15480 0.37130
 C1037 C 0.13486 0.36911 0.36134
 C1038 C 0.15938 0.38289 0.36049
 C1039 C 0.17796 0.36428 0.34146
 C1040 C 0.17244 0.33160 0.32252
 C1041 C 0.14787 0.31809 0.32293
 C1042 C 0.12935 0.33650 0.34223
 C1043 C 0.11515 0.38843 0.38222
 C1044 C 0.09054 0.39008 0.36956
 C1045 C 0.07191 0.40759 0.38937
 C1046 C 0.07745 0.42425 0.42220
 C1047 C 0.10208 0.42298 0.43478
 C1048 C 0.12069 0.40511 0.41510
 H1049 H 0.19667 0.37555 0.34154
 H1050 H 0.14301 0.29278 0.30897
 H1051 H 0.05319 0.40848 0.37869
 H1052 H 0.10693 0.43537 0.46006
 H1053 H 0.11080 0.32469 0.34276
 H1054 H 0.08567 0.37822 0.34407
 H1055 H 0.16421 0.40826 0.37435
 H1056 H 0.13934 0.40386 0.42596
 C1057 C 0.13446 0.13153 0.36099
 C1058 C 0.15887 0.11732 0.36012
 C1059 C 0.17758 0.13577 0.34123
 C1060 C 0.17226 0.16866 0.32249
 C1061 C 0.14779 0.18258 0.32292
 C1062 C 0.12915 0.16434 0.34207
 C1063 C 0.11465 0.11248 0.38179
 C1064 C 0.09007 0.11106 0.36901
 C1065 C 0.07135 0.09374 0.38877
 C1066 C 0.07681 0.07707 0.42164
 C1067 C 0.10141 0.07818 0.43435
 C1068 C 0.12009 0.09586 0.41473
 H1069 H 0.19622 0.12420 0.34125
 H1070 H 0.14312 0.20808 0.30909
 H1071 H 0.05264 0.09294 0.37803
 H1072 H 0.10618 0.06578 0.45969
 H1073 H 0.11068 0.17642 0.34265
 H1074 H 0.08531 0.12295 0.34346
 H1075 H 0.16350 0.09177 0.37386
 H1076 H 0.13873 0.09698 0.42566
 C1077 C 0.36489 0.36510 0.36436
 C1078 C 0.34048 0.36312 0.37783
 C1079 C 0.32179 0.34463 0.35900
 C1080 C 0.32710 0.32731 0.32640
 C1081 C 0.35151 0.32904 0.31297
 C1082 C 0.37015 0.34789 0.33164
 C1083 C 0.38477 0.38491 0.38443
 C1084 C 0.40933 0.37128 0.38472
 C1085 C 0.42800 0.38988 0.40350
 C1086 C 0.42254 0.42236 0.42277
 C1087 C 0.39798 0.43594 0.42264
 C1088 C 0.37936 0.41755 0.40356
 H1089 H 0.30323 0.34348 0.37025
 H1090 H 0.35615 0.31626 0.28778
 H1091 H 0.44669 0.37852 0.40323
 H1092 H 0.39319 0.46110 0.43691
 H1093 H 0.38861 0.34939 0.32014
 H1094 H 0.41411 0.34589 0.37085
 H1095 H 0.33584 0.37540 0.40324
 H1096 H 0.36077 0.42924 0.40342
 C1097 C 0.49839 0.00081 0.23031
 C1098 C 0.50597 0.03246 0.21120
 C1099 C 0.50617 0.03220 0.17412
 C1100 C 0.49901 0.00017 0.15536
 C1101 C 0.49141 -0.03148 0.17441
 C1102 C 0.49099 -0.03110 0.21148
 C1103 C 0.49845 0.00092 0.26972
 C1104 C 0.50575 -0.03096 0.28869
 C1105 C 0.50586 -0.03094 0.32574
 C1106 C 0.49891 0.00109 0.34469
 C1107 C 0.49172 0.03306 0.32580
 C1108 C 0.49138 0.03292 0.28870
 H1109 H 0.51231 0.05693 0.16017
 H1110 H 0.48555 -0.05645 0.16067
 H1111 H 0.51174 -0.05590 0.33954
 H1112 H 0.48606 0.05806 0.33968
 H1113 H 0.48462 -0.05571 0.22539
 H1114 H 0.51176 -0.05582 0.27490
 H1115 H 0.51218 0.05726 0.22488
 H1116 H 0.48528 0.05774 0.27490
 C1117 C 0.75199 0.24913 1.02017
 C1118 C 0.74446 0.28096 1.03901
 C1119 C 0.74437 0.28104 1.07607
 C1120 C 0.75156 0.24918 1.09511
 C1121 C 0.75906 0.21732 1.07635
 C1122 C 0.75939 0.21736 1.03927
 C1123 C 0.75190 0.24900 0.98077
 C1124 C 0.74451 0.21707 0.96199
 C1125 C 0.74421 0.21703 0.92493
 C1126 C 0.75106 0.24903 0.90583
 C1127 C 0.75845 0.28097 0.92454
 C1128 C 0.75898 0.28089 0.96161
 H1129 H 0.73828 0.30591 1.08980
 H1130 H 0.76494 0.19247 1.09032
 H1131 H 0.73823 0.19208 0.91125
 H1132 H 0.76408 0.30593 0.91053
 H1133 H 0.76570 0.19261 1.02557
 H1134 H 0.73853 0.19227 0.97594
 H1135 H 0.73824 0.30565 1.02512
 H1136 H 0.76519 0.30572 0.97525
 C1137 C 0.61567 0.11437 0.11469
 C1138 C 0.59090 0.11375 0.12686
 C1139 C 0.57225 0.09648 0.10698
 C1140 C 0.57790 0.07898 0.07458
 C1141 C 0.60264 0.07947 0.06234
 C1142 C 0.62128 0.09715 0.08207
 C1143 C 0.63547 0.13292 0.13601
 C1144 C 0.65974 0.11821 0.13745
 C1145 C 0.67834 0.13595 0.15720
 C1146 C 0.67305 0.16862 0.17628
 C1147 C 0.64872 0.18306 0.17523
 C1148 C 0.63022 0.16557 0.15520
 H1149 H 0.55345 0.09614 0.11746
 H1150 H 0.60756 0.06636 0.03741
 H1151 H 0.69686 0.12400 0.15755
 H1152 H 0.64406 0.20844 0.18924
 H1153 H 0.64006 0.09763 0.07156
 H1154 H 0.66436 0.09276 0.12356
 H1155 H 0.58593 0.12602 0.15214
 H1156 H 0.61190 0.17813 0.15423
 C1157 C -0.13467 0.36135 0.13210
 C1158 C -0.12954 0.32848 0.15107
 C1159 C -0.14814 0.31094 0.17095
 C1160 C -0.17239 0.32562 0.17202
 C1161 C -0.17761 0.35828 0.15287
 C1162 C -0.15894 0.37605 0.13331
 C1163 C -0.11474 0.38050 0.11157
 C1164 C -0.12011 0.39829 0.07914
 C1165 C -0.10148 0.41715 0.06043
 C1166 C -0.07698 0.41831 0.07352
 C1167 C -0.07152 0.40008 0.10563
 C1168 C -0.09019 0.38159 0.12451
 H1169 H -0.14360 0.28555 0.18506
 H1170 H -0.19608 0.37041 0.15331
 H1171 H -0.10623 0.43068 0.03561
 H1172 H -0.05289 0.40078 0.11664
 H1173 H -0.16347 0.40165 0.11959
 H1174 H -0.13870 0.39744 0.06805
 H1175 H -0.11119 0.31599 0.15023
 H1176 H -0.08545 0.36883 0.14967
 C1177 C 0.88522 0.11824 0.11096
 C1178 C 0.90965 0.13237 0.10985
 C1179 C 0.92829 0.11394 0.09076
 C1180 C 0.92291 0.08110 0.07200
 C1181 C 0.89843 0.06725 0.07264
 C1182 C 0.87986 0.08548 0.09201
 C1183 C 0.86546 0.13733 0.13197
 C1184 C 0.84074 0.13844 0.11965
 C1185 C 0.82210 0.15578 0.13958
 C1186 C 0.82773 0.17282 0.17221
 C1187 C 0.85245 0.17207 0.18445
 C1188 C 0.87107 0.15437 0.16467
 H1189 H 0.94693 0.12548 0.09065
 H1190 H 0.89369 0.04181 0.05881
 H1191 H 0.80330 0.15628 0.12914
 H1192 H 0.85738 0.18479 0.20956
 H1193 H 0.86140 0.07339 0.09273
 H1194 H 0.83580 0.12630 0.09431
 H1195 H 0.91437 0.15788 0.12356
 H1196 H 0.88979 0.15354 0.17530
 C1197 C 0.63526 0.36480 0.13498
 C1198 C 0.62972 0.34759 0.16766
 C1199 C 0.64841 0.32990 0.18735
 C1200 C 0.67313 0.32937 0.17503
 C1201 C 0.67872 0.34685 0.14257
 C1202 C 0.66002 0.36414 0.12272
 C1203 C 0.61539 0.38339 0.11373
 C1204 C 0.62059 0.41601 0.09439
 C1205 C 0.60200 0.43358 0.07453
 C1206 C 0.57764 0.41925 0.07378
 C1207 C 0.57241 0.38660 0.09298
 C1208 C 0.59109 0.36879 0.11256
 H1209 H 0.64351 0.31681 0.21233
 H1210 H 0.69750 0.34650 0.13204
 H1211 H 0.60663 0.45892 0.06041
 H1212 H 0.55387 0.37474 0.09286
 H1213 H 0.66494 0.37641 0.09740
 H1214 H 0.63893 0.42848 0.09514
 H1215 H 0.61097 0.34809 0.17826
 H1216 H 0.58649 0.34337 0.12656
 C1217 C -0.13568 0.13891 0.36735
 C1218 C -0.12965 0.16191 0.33834
 C1219 C -0.14830 0.17985 0.31883
 C1220 C -0.17374 0.17488 0.32731
 C1221 C -0.17965 0.15161 0.35641
 C1222 C -0.16093 0.13427 0.37621
 C1223 C -0.11580 0.11953 0.38805
 C1224 C -0.12006 0.08399 0.40258
 C1225 C -0.10147 0.06568 0.42182
 C1226 C -0.07797 0.08211 0.42654
 C1227 C -0.07357 0.11752 0.41202
 C1228 C -0.09232 0.13616 0.39328
 H1229 H -0.14260 0.19724 0.29674
 H1230 H -0.19878 0.14702 0.36449
 H1231 H -0.10533 0.03817 0.43226
 H1232 H -0.05568 0.13098 0.41541
 H1233 H -0.16636 0.11751 0.39883
 H1234 H -0.13762 0.06983 0.39852
 H1235 H -0.11046 0.16567 0.33022
 H1236 H -0.08844 0.16375 0.38316
 C1237 C 0.63494 0.36527 0.36446
 C1238 C 0.65917 0.38017 0.36309
 C1239 C 0.67788 0.36259 0.34339
 C1240 C 0.67275 0.32990 0.32427
 C1241 C 0.64848 0.31527 0.32526
 C1242 C 0.62987 0.33260 0.34525
 C1243 C 0.61502 0.38366 0.38573
 C1244 C 0.59026 0.38406 0.37355
 C1245 C 0.57151 0.40127 0.39335
 C1246 C 0.57706 0.41894 0.42568
 C1247 C 0.60178 0.41858 0.43798
 C1248 C 0.62051 0.40096 0.41834
 H1249 H 0.69637 0.37466 0.34309
 H1250 H 0.64394 0.28986 0.31123
 H1251 H 0.55273 0.40147 0.38285
 H1252 H 0.60664 0.43181 0.46287
 H1253 H 0.61160 0.31989 0.34616
 H1254 H 0.58537 0.37169 0.34829
 H1255 H 0.66366 0.40565 0.37700
 H1256 H 0.63927 0.40064 0.42888
 C1257 C 0.63526 0.13462 0.36548
 C1258 C 0.65997 0.13514 0.37786
 C1259 C 0.67874 0.15217 0.35801
 C1260 C 0.67325 0.16948 0.32546
 C1261 C 0.64859 0.16901 0.31300
 C1262 C 0.62982 0.15159 0.33270
 C1263 C 0.61534 0.11633 0.38670
 C1264 C 0.59116 0.13137 0.38803
 C1265 C 0.57241 0.11376 0.40760
 C1266 C 0.57748 0.08093 0.42656
 C1267 C 0.60173 0.06619 0.42563
 C1268 C 0.62038 0.08355 0.40580
 H1269 H 0.69750 0.15248 0.36861
 H1270 H 0.64379 0.18199 0.28793
 H1271 H 0.55394 0.12590 0.40789
 H1272 H 0.60620 0.04067 0.43957
 H1273 H 0.61109 0.15114 0.32206
 H1274 H 0.58675 0.15694 0.37417
 H1275 H 0.66477 0.12298 0.40327
 H1276 H 0.63864 0.07079 0.40488
 C1277 C -0.13461 0.36168 0.36780
 C1278 C -0.15883 0.37655 0.36643
 C1279 C -0.17751 0.35885 0.34689
 C1280 C -0.17235 0.32607 0.32793
 C1281 C -0.14814 0.31123 0.32916
 C1282 C -0.12953 0.32872 0.34900
 C1283 C -0.11467 0.38070 0.38838
 C1284 C -0.09006 0.38159 0.37557
 C1285 C -0.07139 0.39992 0.39452
 C1286 C -0.07689 0.41816 0.42659
 C1287 C -0.10144 0.41722 0.43954
 C1288 C -0.12009 0.39853 0.42075
 H1289 H -0.19594 0.37111 0.34634
 H1290 H -0.14365 0.28574 0.31521
 H1291 H -0.05272 0.40047 0.38360
 H1292 H -0.10623 0.43079 0.46431
 H1293 H -0.11123 0.31610 0.34996
 H1294 H -0.08529 0.36878 0.35046
 H1295 H -0.16330 0.40223 0.38003
 H1296 H -0.13872 0.39785 0.43174
 C1297 C 0.00159 0.50071 0.23027
 C1298 C -0.00555 0.53275 0.21134
 C1299 C -0.00572 0.53285 0.17421
 C1300 C 0.00100 0.50080 0.15512
 C1301 C 0.00815 0.46877 0.17398
 C1302 C 0.00856 0.46878 0.21109
 C1303 C 0.00158 0.50052 0.26980
 C1304 C -0.00568 0.46853 0.28871
 C1305 C -0.00580 0.46836 0.32583
 C1306 C 0.00110 0.50029 0.34495
 C1307 C 0.00833 0.53231 0.32612
 C1308 C 0.00869 0.53236 0.28900
 H1309 H -0.01148 0.55791 0.16048
 H1310 H 0.01369 0.44373 0.16005
 H1311 H -0.01166 0.44334 0.33954
 H1312 H 0.01399 0.55725 0.34009
 H1313 H 0.01461 0.44385 0.22475
 H1314 H -0.01170 0.44374 0.27484
 H1315 H -0.01144 0.55763 0.22519
 H1316 H 0.01482 0.55725 0.27535
 C1317 C 0.25166 0.75050 1.01947
 C1318 C 0.24431 0.78246 1.03825
 C1319 C 0.24416 0.78259 1.07531
 C1320 C 0.25112 0.75063 1.09440
 C1321 C 0.25846 0.71866 1.07568
 C1322 C 0.25884 0.71865 1.03861
 C1323 C 0.25163 0.75033 0.98008
 C1324 C 0.24406 0.71849 0.96132
 C1325 C 0.24381 0.71842 0.92425
 C1326 C 0.25087 0.75032 0.90517
 C1327 C 0.25845 0.78216 0.92388
 C1328 C 0.25894 0.78210 0.96093
 H1329 H 0.23823 0.80757 1.08899
 H1330 H 0.26417 0.69373 1.08968
 H1331 H 0.23770 0.69355 0.91056
 H1332 H 0.26426 0.80704 0.90987
 H1333 H 0.26502 0.69381 1.02495
 H1334 H 0.23792 0.69378 0.97527
 H1335 H 0.23826 0.80722 1.02432
 H1336 H 0.26530 0.80684 0.97458
 C1337 C 0.11502 0.61294 0.11686
 C1338 C 0.09037 0.61163 0.12956
 C1339 C 0.07166 0.59413 0.10990
 C1340 C 0.07714 0.57714 0.07719
 C1341 C 0.10178 0.57815 0.06455
 C1342 C 0.12046 0.59599 0.08406
 C1343 C 0.13486 0.63215 0.13761
 C1344 C 0.15936 0.61823 0.13831
 C1345 C 0.17804 0.63672 0.15725
 C1346 C 0.17265 0.66941 0.17625
 C1347 C 0.14810 0.68308 0.17594
 C1348 C 0.12949 0.66480 0.15674
 H1349 H 0.05294 0.59347 0.12063
 H1350 H 0.10659 0.56551 0.03935
 H1351 H 0.19672 0.62532 0.15707
 H1352 H 0.14333 0.70842 0.18995
 H1353 H 0.13910 0.59698 0.07313
 H1354 H 0.16410 0.59282 0.12444
 H1355 H 0.08555 0.62370 0.15498
 H1356 H 0.11098 0.67675 0.15633
 C1357 C 0.38603 0.88570 0.11456
 C1358 C 0.41123 0.87630 0.11962
 C1359 C 0.43014 0.89482 0.10105
 C1360 C 0.42450 0.92305 0.07615
 C1361 C 0.39914 0.93219 0.07101
 C1362 C 0.38032 0.91406 0.09010
 C1363 C 0.36584 0.86602 0.13464
 C1364 C 0.34227 0.86007 0.11920
 C1365 C 0.32335 0.84191 0.13806
 C1366 C 0.32760 0.82857 0.17262
 C1367 C 0.35113 0.83412 0.18804
 C1368 C 0.36992 0.85290 0.16945
 H1369 H 0.44920 0.88642 0.10607
 H1370 H 0.39361 0.95382 0.05254
 H1371 H 0.30548 0.83769 0.12531
 H1372 H 0.35490 0.82448 0.21477
 H1373 H 0.36124 0.92278 0.08593
 H1374 H 0.33846 0.86893 0.09227
 H1375 H 0.41646 0.85416 0.13762
 H1376 H 0.38754 0.85754 0.18266
 C1377 C 0.36512 0.63519 0.13532
 C1378 C 0.37029 0.65207 0.16820
 C1379 C 0.35166 0.67104 0.18677
 C1380 C 0.32736 0.67319 0.17306
 C1381 C 0.32214 0.65621 0.14029
 C1382 C 0.34083 0.63760 0.12156
 C1383 C 0.38499 0.61526 0.11539
 C1384 C 0.37952 0.58271 0.09619
 C1385 C 0.39815 0.56420 0.07722
 C1386 C 0.42274 0.57761 0.07727
 C1387 C 0.42826 0.61000 0.09662
 C1388 C 0.40958 0.62871 0.11529
 H1389 H 0.35620 0.68357 0.21210
 H1390 H 0.30366 0.65772 0.12884
 H1391 H 0.39334 0.53910 0.06287
 H1392 H 0.44698 0.62121 0.09701
 H1393 H 0.33630 0.62556 0.09601
 H1394 H 0.36089 0.57119 0.09620
 H1395 H 0.38867 0.65022 0.17989
 H1396 H 0.41438 0.65404 0.12924
 C1397 C 0.11525 0.88834 0.11692
 C1398 C 0.12077 0.90491 0.08397
 C1399 C 0.10214 0.92257 0.06426
 C1400 C 0.07751 0.92371 0.07689
 C1401 C 0.07197 0.90712 0.10977
 C1402 C 0.09063 0.88981 0.12962
 C1403 C 0.13499 0.86928 0.13780
 C1404 C 0.12961 0.83650 0.15673
 C1405 C 0.14819 0.81824 0.17597
 C1406 C 0.17266 0.83211 0.17646
 C1407 C 0.17805 0.86497 0.15770
 C1408 C 0.15940 0.88343 0.13873
 H1409 H 0.10697 0.93492 0.03892
 H1410 H 0.05323 0.90794 0.12046
 H1411 H 0.14346 0.79277 0.18981
 H1412 H 0.19670 0.87649 0.15771
 H1413 H 0.08580 0.87798 0.15517
 H1414 H 0.11113 0.82445 0.15611
 H1415 H 0.13943 0.90375 0.07310
 H1416 H 0.16409 0.90895 0.12497
 C1417 C 0.36529 0.63585 0.36464
 C1418 C 0.37049 0.65300 0.33184
 C1419 C 0.35182 0.67180 0.31318
 C1420 C 0.32743 0.67354 0.32668
 C1421 C 0.32218 0.65632 0.35938
 C1422 C 0.34091 0.63787 0.37820
 C1423 C 0.38518 0.61594 0.38461
 C1424 C 0.37975 0.58325 0.40368
 C1425 C 0.39837 0.56471 0.42266
 C1426 C 0.42295 0.57820 0.42276
 C1427 C 0.42844 0.61073 0.40354
 C1428 C 0.40977 0.62947 0.38485
 H1429 H 0.35641 0.68453 0.28792
 H1430 H 0.30364 0.65751 0.37069
 H1431 H 0.39355 0.53951 0.43689
 H1432 H 0.44715 0.62201 0.40326
 H1433 H 0.33632 0.62563 0.40367
 H1434 H 0.36115 0.57162 0.40356
 H1435 H 0.38894 0.65147 0.32029
 H1436 H 0.41455 0.65489 0.37099
 C1437 C 0.13460 -0.13027 0.36095
 C1438 C 0.15908 -0.11633 0.36021
 C1439 C 0.17777 -0.13488 0.34134
 C1440 C 0.17238 -0.16764 0.32247
 C1441 C 0.14785 -0.18130 0.32277
 C1442 C 0.12922 -0.16295 0.34190
 C1443 C 0.11479 -0.11107 0.38172
 C1444 C 0.09019 -0.10954 0.36896
 C1445 C 0.07149 -0.09211 0.38869
 C1446 C 0.07696 -0.07544 0.42154
 C1447 C 0.10156 -0.07663 0.43422
 C1448 C 0.12023 -0.09441 0.41463
 H1449 H 0.19645 -0.12349 0.34150
 H1450 H 0.14310 -0.20668 0.30885
 H1451 H 0.05279 -0.09126 0.37794
 H1452 H 0.10634 -0.06423 0.45953
 H1453 H 0.11071 -0.17486 0.34235
 H1454 H 0.08541 -0.12142 0.34344
 H1455 H 0.16380 -0.09089 0.37403
 H1456 H 0.13886 -0.09559 0.42557
 C1457 C 0.13492 0.63187 0.36195
 C1458 C 0.15945 0.61807 0.36128
 C1459 C 0.17810 0.63663 0.34228
 C1460 C 0.17265 0.66927 0.32319
 C1461 C 0.14807 0.68281 0.32345
 C1462 C 0.12949 0.66446 0.34271
 C1463 C 0.11513 0.61261 0.38280
 C1464 C 0.09051 0.61109 0.37010
 C1465 C 0.07183 0.59358 0.38985
 C1466 C 0.07731 0.57679 0.42267
 C1467 C 0.10193 0.57798 0.43531
 C1468 C 0.12058 0.59585 0.41570
 H1469 H 0.19681 0.62532 0.34249
 H1470 H 0.14326 0.70810 0.30937
 H1471 H 0.05312 0.59275 0.37912
 H1472 H 0.10674 0.56550 0.46059
 H1473 H 0.11095 0.67631 0.34309
 H1474 H 0.08568 0.62302 0.34460
 H1475 H 0.16424 0.59271 0.37524
 H1476 H 0.13922 0.59700 0.42662
 C1477 C 0.36486 -0.13335 0.36418
 C1478 C 0.34047 -0.13528 0.37771
 C1479 C 0.32178 -0.15377 0.35893
 C1480 C 0.32709 -0.17110 0.32635
 C1481 C 0.35147 -0.16936 0.31285
 C1482 C 0.37010 -0.15052 0.33144
 C1483 C 0.38476 -0.11369 0.38420
 C1484 C 0.40924 -0.12761 0.38462
 C1485 C 0.42796 -0.10915 0.40337
 C1486 C 0.42259 -0.07654 0.42247
 C1487 C 0.39812 -0.06266 0.42222
 C1488 C 0.37945 -0.08092 0.40315
 H1489 H 0.30322 -0.15493 0.37021
 H1490 H 0.35609 -0.18217 0.28766
 H1491 H 0.44659 -0.12071 0.40324
 H1492 H 0.39343 -0.03738 0.43638
 H1493 H 0.38856 -0.14903 0.31993
 H1494 H 0.41391 -0.15312 0.37086
 H1495 H 0.33588 -0.12298 0.40312
 H1496 H 0.36091 -0.06905 0.40289
 C1497 C 0.49833 0.49968 0.23035
 C1498 C 0.49112 0.53152 0.21122
 C1499 C 0.49144 0.53151 0.17415
 C1500 C 0.49873 0.49954 0.15537
 C1501 C 0.50571 0.46758 0.17444
 C1502 C 0.50564 0.46772 0.21152
 C1503 C 0.49837 0.49987 0.26978
 C1504 C 0.49115 0.46807 0.28896
 C1505 C 0.49152 0.46810 0.32604
 C1506 C 0.49888 0.50005 0.34476
 C1507 C 0.50591 0.53195 0.32564
 C1508 C 0.50578 0.53180 0.28856
 H1509 H 0.48573 0.55646 0.16019
 H1510 H 0.51162 0.44261 0.16073
 H1511 H 0.48577 0.44319 0.34004
 H1512 H 0.51188 0.55691 0.33931
 H1513 H 0.51170 0.44294 0.22543
 H1514 H 0.48492 0.44325 0.27534
 H1515 H 0.48497 0.55637 0.22489
 H1516 H 0.51187 0.55653 0.27461
 C1517 C 0.75169 0.75011 1.01953
 C1518 C 0.75882 0.78198 1.03860
 C1519 C 0.75837 0.78203 1.07566
 C1520 C 0.75100 0.75009 1.09447
 C1521 C 0.74413 0.71809 1.07546
 C1522 C 0.74435 0.71816 1.03839
 C1523 C 0.75169 0.75029 0.98012
 C1524 C 0.75899 0.71851 0.96100
 C1525 C 0.75858 0.71852 0.92393
 C1526 C 0.75111 0.75043 0.90518
 C1527 C 0.74403 0.78231 0.92423
 C1528 C 0.74419 0.78218 0.96129
 H1529 H 0.76403 0.80699 1.08959
 H1530 H 0.73820 0.69313 1.08922
 H1531 H 0.76437 0.69364 0.90996
 H1532 H 0.73797 0.80722 0.91051
 H1533 H 0.73835 0.69336 1.02451
 H1534 H 0.76528 0.69372 0.97468
 H1535 H 0.76501 0.80681 1.02489
 H1536 H 0.73804 0.80689 0.97520
 C1537 C 0.61507 0.61529 0.11478
 C1538 C 0.59034 0.61467 0.12711
 C1539 C 0.57162 0.59748 0.10732
 C1540 C 0.57718 0.58005 0.07487
 C1541 C 0.60188 0.58055 0.06246
 C1542 C 0.62059 0.59816 0.08209
 C1543 C 0.63493 0.63378 0.13597
 C1544 C 0.65920 0.61902 0.13727
 C1545 C 0.67786 0.63673 0.15691
 C1546 C 0.67261 0.66938 0.17602
 C1547 C 0.64830 0.68387 0.17510
 C1548 C 0.62975 0.66643 0.15517
 H1549 H 0.55285 0.59715 0.11791
 H1550 H 0.60673 0.56749 0.03747
 H1551 H 0.69638 0.62478 0.15716
 H1552 H 0.64368 0.70925 0.18914
 H1553 H 0.63933 0.59865 0.07147
 H1554 H 0.66376 0.59357 0.12334
 H1555 H 0.58546 0.62689 0.15245
 H1556 H 0.61144 0.67902 0.15428
 C1557 C 0.88479 0.88144 0.11025
 C1558 C 0.90928 0.86748 0.10979
 C1559 C 0.92805 0.88588 0.09089
 C1560 C 0.92273 0.91850 0.07170
 C1561 C 0.89819 0.93217 0.07172
 C1562 C 0.87949 0.91398 0.09088
 C1563 C 0.86490 0.86245 0.13112
 C1564 C 0.84030 0.86096 0.11836
 C1565 C 0.82155 0.84366 0.13818
 C1566 C 0.82698 0.82708 0.17111
 C1567 C 0.85159 0.82830 0.18381
 C1568 C 0.87029 0.84593 0.16415
 H1569 H 0.94673 0.87449 0.09128
 H1570 H 0.89348 0.95744 0.05754
 H1571 H 0.80285 0.84281 0.12743
 H1572 H 0.85636 0.81598 0.20919
 H1573 H 0.86098 0.92592 0.09110
 H1574 H 0.83553 0.87274 0.09278
 H1575 H 0.91396 0.84215 0.12386
 H1576 H 0.88891 0.84710 0.17512
 C1577 C 0.88472 0.61934 0.11105
 C1578 C 0.90920 0.63324 0.11018
 C1579 C 0.92783 0.61459 0.09130
 C1580 C 0.92236 0.58178 0.07256
 C1581 C 0.89782 0.56818 0.07297
 C1582 C 0.87926 0.58663 0.09212
 C1583 C 0.86498 0.63864 0.13182
 C1584 C 0.84038 0.64021 0.11910
 C1585 C 0.82173 0.65770 0.13885
 C1586 C 0.82726 0.67441 0.17165
 C1587 C 0.85187 0.67319 0.18429
 C1588 C 0.87049 0.65534 0.16469
 H1589 H 0.94652 0.62594 0.09136
 H1590 H 0.89301 0.54278 0.05912
 H1591 H 0.80301 0.65857 0.12815
 H1592 H 0.85669 0.68562 0.20957
 H1593 H 0.86073 0.57476 0.09268
 H1594 H 0.83555 0.62830 0.09361
 H1595 H 0.91397 0.65871 0.12391
 H1596 H 0.88913 0.65413 0.17559
 C1597 C 0.61438 0.88374 0.11339
 C1598 C 0.62041 0.90719 0.08471
 C1599 C 0.60176 0.92523 0.06528
 C1600 C 0.57631 0.91995 0.07353
 C1601 C 0.57038 0.89563 0.10183
 C1602 C 0.58909 0.87823 0.12159
 C1603 C 0.63430 0.86517 0.13472
 C1604 C 0.63040 0.82964 0.14951
 C1605 C 0.64895 0.81232 0.16967
 C1606 C 0.67207 0.82972 0.17502
 C1607 C 0.67613 0.86507 0.16020
 C1608 C 0.65739 0.88275 0.14059
 H1609 H 0.60747 0.94323 0.04365
 H1610 H 0.55123 0.89057 0.10958
 H1611 H 0.64540 0.78481 0.18029
 H1612 H 0.69373 0.87923 0.16403
 H1613 H 0.58362 0.86098 0.14384
 H1614 H 0.61317 0.81476 0.14502
 H1615 H 0.63962 0.91150 0.07698
 H1616 H 0.66099 0.91037 0.13034
 C1617 C -0.13480 0.63886 0.36786
 C1618 C -0.12933 0.65551 0.33490
 C1619 C -0.14795 0.67346 0.31534
 C1620 C -0.17254 0.67485 0.32810
 C1621 C -0.17802 0.65825 0.36102
 C1622 C -0.15937 0.64066 0.38072
 C1623 C -0.11506 0.61940 0.38859
 C1624 C -0.12060 0.58685 0.40783
 C1625 C -0.10206 0.56829 0.42696
 C1626 C -0.07743 0.58158 0.42707
 C1627 C -0.07187 0.61420 0.40800
 C1628 C -0.09048 0.63297 0.38913
 H1629 H -0.14315 0.68579 0.28998
 H1630 H -0.19672 0.65924 0.37184
 H1631 H -0.10695 0.54305 0.44107
 H1632 H -0.05313 0.62534 0.40769
 H1633 H -0.16419 0.62884 0.40628
 H1634 H -0.13919 0.57520 0.40756
 H1635 H -0.11072 0.65415 0.32388
 H1636 H -0.08561 0.65829 0.37517
 C1637 C 0.63463 -0.13341 0.36349
 C1638 C 0.65882 -0.11847 0.36190
 C1639 C 0.67747 -0.13620 0.34225
 C1640 C 0.67229 -0.16907 0.32345
 C1641 C 0.64804 -0.18373 0.32465
 C1642 C 0.62948 -0.16624 0.34457
 C1643 C 0.61481 -0.11491 0.38474
 C1644 C 0.59007 -0.11428 0.37250
 C1645 C 0.57139 -0.09704 0.39235
 C1646 C 0.57701 -0.07961 0.42478
 C1647 C 0.60171 -0.08014 0.43709
 C1648 C 0.62038 -0.09777 0.41738
 H1649 H 0.69595 -0.12411 0.34176
 H1650 H 0.64349 -0.20927 0.31086
 H1651 H 0.55261 -0.09667 0.38184
 H1652 H 0.60660 -0.06708 0.46205
 H1653 H 0.61120 -0.17891 0.34569
 H1654 H 0.58517 -0.12653 0.34719
 H1655 H 0.66333 -0.09288 0.37561
 H1656 H 0.63914 -0.09828 0.42791
 C1657 C 0.63531 0.63432 0.36524
 C1658 C 0.66007 0.63490 0.37738
 C1659 C 0.67872 0.65229 0.35752
 C1660 C 0.67305 0.66992 0.32517
 C1661 C 0.64833 0.66938 0.31293
 C1662 C 0.62970 0.65161 0.33264
 C1663 C 0.61548 0.61578 0.38655
 C1664 C 0.59125 0.63063 0.38802
 C1665 C 0.57258 0.61287 0.40763
 C1666 C 0.57775 0.58004 0.42657
 C1667 C 0.60205 0.56548 0.42556
 C1668 C 0.62063 0.58301 0.40565
 H1669 H 0.69751 0.65260 0.36796
 H1670 H 0.64338 0.68257 0.28803
 H1671 H 0.55408 0.62490 0.40799
 H1672 H 0.60661 0.53999 0.43948
 H1673 H 0.61093 0.65114 0.32215
 H1674 H 0.58671 0.65618 0.37421
 H1675 H 0.66502 0.62253 0.40264
 H1676 H 0.63893 0.57039 0.40467
 C1677 C -0.13525 -0.13683 0.36707
 C1678 C -0.15986 -0.13831 0.37985
 C1679 C -0.17853 -0.15574 0.36014
 C1680 C -0.17302 -0.17246 0.32733
 C1681 C -0.14841 -0.17126 0.31461
 C1682 C -0.12977 -0.15348 0.33417
 C1683 C -0.11547 -0.11772 0.38785
 C1684 C -0.09103 -0.13181 0.38868
 C1685 C -0.07236 -0.11334 0.40759
 C1686 C -0.07775 -0.08054 0.42639
 C1687 C -0.10225 -0.06673 0.42599
 C1688 C -0.12085 -0.08499 0.40681
 H1689 H -0.19725 -0.15660 0.37090
 H1690 H -0.14360 -0.18369 0.28932
 H1691 H -0.05371 -0.12482 0.40754
 H1692 H -0.10699 -0.04130 0.43987
 H1693 H -0.11113 -0.15231 0.32323
 H1694 H -0.08633 -0.15730 0.37491
 H1695 H -0.16466 -0.12641 0.40536
 H1696 H -0.13934 -0.07297 0.40627
 C1697 C 0.00106 0.00019 0.77018
 C1698 C -0.00117 0.03362 0.78930
 C1699 C -0.00101 0.03368 0.82643
 C1700 C 0.00090 0.00011 0.84582
 C1701 C 0.00304 -0.03340 0.82644
 C1702 C 0.00333 -0.03326 0.78931
 C1703 C 0.00088 0.00020 0.73052
 C1704 C -0.00982 -0.02951 0.71153
 C1705 C -0.00992 -0.02957 0.67439
 C1706 C 0.00023 0.00039 0.65529
 C1707 C 0.01076 0.03023 0.67408
 C1708 C 0.01129 0.02998 0.71122
 H1709 H -0.00282 0.06024 0.83978
 H1710 H 0.00481 -0.05998 0.83981
 H1711 H -0.01838 -0.05279 0.66060
 H1712 H 0.01897 0.05351 0.66004
 H1713 H 0.00564 -0.05951 0.77563
 H1714 H -0.01850 -0.05256 0.72530
 H1715 H -0.00345 0.05989 0.77562
 H1716 H 0.02018 0.05298 0.72475
 C1717 C 0.25107 0.24958 0.48034
 C1718 C 0.24391 0.28163 0.46142
 C1719 C 0.24381 0.28181 0.42429
 C1720 C 0.25059 0.24982 0.40514
 C1721 C 0.25772 0.21776 0.42397
 C1722 C 0.25808 0.21770 0.46110
 C1723 C 0.25109 0.24936 0.51992
 C1724 C 0.24403 0.21728 0.53887
 C1725 C 0.24397 0.21710 0.57600
 C1726 C 0.25071 0.24912 0.59513
 C1727 C 0.25773 0.28121 0.57626
 C1728 C 0.25804 0.28127 0.53912
 H1729 H 0.23804 0.30689 0.41058
 H1730 H 0.26330 0.19277 0.41001
 H1731 H 0.23827 0.19200 0.58973
 H1732 H 0.26326 0.30623 0.59020
 H1733 H 0.26415 0.19276 0.47472
 H1734 H 0.23814 0.19241 0.52502
 H1735 H 0.23798 0.30647 0.47530
 H1736 H 0.26403 0.30625 0.52548
 C1737 C 0.11468 0.11201 0.61803
 C1738 C 0.09002 0.11074 0.63062
 C1739 C 0.07132 0.09355 0.61074
 C1740 C 0.07685 0.07683 0.57793
 C1741 C 0.10151 0.07777 0.56540
 C1742 C 0.12018 0.09533 0.58513
 C1743 C 0.13448 0.13096 0.63896
 C1744 C 0.15891 0.11679 0.63982
 C1745 C 0.17759 0.13512 0.65885
 C1746 C 0.17225 0.16788 0.67776
 C1747 C 0.14776 0.18176 0.67734
 C1748 C 0.12915 0.16363 0.65805
 H1749 H 0.05257 0.09291 0.62136
 H1750 H 0.10635 0.06533 0.54013
 H1751 H 0.19623 0.12358 0.65877
 H1752 H 0.14305 0.20715 0.69128
 H1753 H 0.13886 0.09632 0.57431
 H1754 H 0.16359 0.09134 0.62596
 H1755 H 0.08517 0.12264 0.65611
 H1756 H 0.11069 0.17574 0.65750
 C1757 C 0.36458 0.36495 0.63525
 C1758 C 0.37011 0.33237 0.65447
 C1759 C 0.35154 0.31385 0.67364
 C1760 C 0.32694 0.32725 0.67377
 C1761 C 0.32137 0.35968 0.65442
 C1762 C 0.33998 0.37840 0.63556
 C1763 C 0.38439 0.38489 0.61510
 C1764 C 0.37910 0.40198 0.58230
 C1765 C 0.39771 0.42086 0.56351
 C1766 C 0.42210 0.42273 0.57690
 C1767 C 0.42742 0.40562 0.60962
 C1768 C 0.40877 0.38710 0.62856
 H1769 H 0.35641 0.28874 0.68797
 H1770 H 0.30265 0.37090 0.65414
 H1771 H 0.39306 0.43352 0.53825
 H1772 H 0.44597 0.40691 0.62087
 H1773 H 0.33512 0.40373 0.62162
 H1774 H 0.36065 0.40033 0.57083
 H1775 H 0.38873 0.32082 0.65433
 H1776 H 0.41342 0.37494 0.65403
 C1777 C 0.36485 0.13422 0.63572
 C1778 C 0.37017 0.16706 0.65453
 C1779 C 0.35150 0.18543 0.67356
 C1780 C 0.32703 0.17158 0.67393
 C1781 C 0.32166 0.13887 0.65501
 C1782 C 0.34037 0.12030 0.63629
 C1783 C 0.38473 0.11453 0.61562
 C1784 C 0.37947 0.09736 0.58291
 C1785 C 0.39813 0.07871 0.56414
 C1786 C 0.42256 0.07714 0.57745
 C1787 C 0.42787 0.09439 0.61006
 C1788 C 0.40915 0.11271 0.62900
 H1789 H 0.35619 0.21078 0.68758
 H1790 H 0.30302 0.12732 0.65497
 H1791 H 0.39349 0.06593 0.53895
 H1792 H 0.44645 0.09335 0.62122
 H1793 H 0.33570 0.09474 0.62264
 H1794 H 0.36098 0.09875 0.57152
 H1795 H 0.38870 0.17893 0.65416
 H1796 H 0.41377 0.12500 0.65440
 C1797 C 0.13459 0.36822 0.63924
 C1798 C 0.12920 0.33535 0.65805
 C1799 C 0.14778 0.31692 0.67719
 C1800 C 0.17228 0.33069 0.67774
 C1801 C 0.17768 0.36364 0.65912
 C1802 C 0.15904 0.38227 0.64024
 C1803 C 0.11484 0.38753 0.61847
 C1804 C 0.12040 0.40456 0.58573
 C1805 C 0.10179 0.42248 0.56615
 C1806 C 0.07713 0.42345 0.57867
 C1807 C 0.07155 0.40639 0.61133
 C1808 C 0.09019 0.38882 0.63106
 H1809 H 0.14303 0.29139 0.69093
 H1810 H 0.19634 0.37512 0.65917
 H1811 H 0.10667 0.43517 0.54098
 H1812 H 0.05279 0.40702 0.62194
 H1813 H 0.16377 0.40786 0.62663
 H1814 H 0.13908 0.40357 0.57491
 H1815 H 0.11071 0.32335 0.65739
 H1816 H 0.08531 0.37665 0.65645
 C1817 C 0.38527 0.11384 0.88512
 C1818 C 0.38009 0.09647 0.91782
 C1819 C 0.39880 0.07770 0.93646
 C1820 C 0.42322 0.07619 0.92307
 C1821 C 0.42846 0.09365 0.89048
 C1822 C 0.40970 0.11207 0.87166
 C1823 C 0.36530 0.13364 0.86515
 C1824 C 0.37059 0.16638 0.84604
 C1825 C 0.35185 0.18485 0.82718
 C1826 C 0.32730 0.17125 0.82723
 C1827 C 0.32195 0.13866 0.84646
 C1828 C 0.34073 0.11999 0.86501
 H1829 H 0.39418 0.06479 0.96163
 H1830 H 0.44703 0.09267 0.87923
 H1831 H 0.35656 0.21009 0.81294
 H1832 H 0.30327 0.12728 0.84687
 H1833 H 0.41429 0.12449 0.84627
 H1834 H 0.38916 0.17810 0.84605
 H1835 H 0.36163 0.09779 0.92934
 H1836 H 0.33604 0.09453 0.87886
 C1837 C 0.11484 0.38812 0.88202
 C1838 C 0.12026 0.40481 0.91490
 C1839 C 0.10161 0.42273 0.93435
 C1840 C 0.07705 0.42402 0.92152
 C1841 C 0.07160 0.40733 0.88869
 C1842 C 0.09029 0.38975 0.86910
 C1843 C 0.13461 0.36875 0.86145
 C1844 C 0.12920 0.33589 0.84272
 C1845 C 0.14780 0.31735 0.82379
 C1846 C 0.17233 0.33100 0.82339
 C1847 C 0.17775 0.36393 0.84195
 C1848 C 0.15908 0.38268 0.86062
 H1849 H 0.10636 0.43514 0.95966
 H1850 H 0.05291 0.40826 0.87786
 H1851 H 0.14304 0.29184 0.81008
 H1852 H 0.19644 0.37530 0.84200
 H1853 H 0.08554 0.37782 0.84359
 H1854 H 0.11067 0.32402 0.84328
 H1855 H 0.13887 0.40354 0.92593
 H1856 H 0.16380 0.40825 0.87423
 C1857 C 0.11451 0.11086 0.88262
 C1858 C 0.12046 0.08761 0.91145
 C1859 C 0.10176 0.06952 0.93072
 C1860 C 0.07635 0.07461 0.92215
 C1861 C 0.07052 0.09818 0.89326
 C1862 C 0.08929 0.11566 0.87369
 C1863 C 0.13444 0.13035 0.86218
 C1864 C 0.13026 0.16609 0.84807
 C1865 C 0.14889 0.18449 0.82900
 C1866 C 0.17234 0.16793 0.82407
 C1867 C 0.17667 0.13234 0.83820
 C1868 C 0.15787 0.11361 0.85676
 H1869 H 0.10739 0.05193 0.95269
 H1870 H 0.05141 0.10289 0.88516
 H1871 H 0.14512 0.21214 0.81885
 H1872 H 0.19452 0.11880 0.83461
 H1873 H 0.08395 0.13265 0.85120
 H1874 H 0.11274 0.18031 0.85231
 H1875 H 0.13962 0.08376 0.91960
 H1876 H 0.16166 0.08587 0.86657
 C1877 C 0.38478 0.38470 0.88534
 C1878 C 0.40919 0.38659 0.87186
 C1879 C 0.42789 0.40513 0.89064
 C1880 C 0.42259 0.42255 0.92319
 C1881 C 0.39817 0.42091 0.93661
 C1882 C 0.37953 0.40204 0.91800
 C1883 C 0.36489 0.36481 0.86537
 C1884 C 0.34033 0.37846 0.86502
 C1885 C 0.32164 0.35975 0.84641
 C1886 C 0.32707 0.32712 0.82736
 C1887 C 0.35162 0.31351 0.82752
 C1888 C 0.37027 0.33203 0.84644
 H1889 H 0.44645 0.40620 0.87939
 H1890 H 0.39353 0.43379 0.96176
 H1891 H 0.30295 0.37113 0.84663
 H1892 H 0.35638 0.28824 0.81341
 H1893 H 0.36106 0.40061 0.92949
 H1894 H 0.33558 0.40396 0.87874
 H1895 H 0.41382 0.37420 0.84650
 H1896 H 0.38886 0.32032 0.84663
 C1897 C 0.49845 -0.00215 0.76979
 C1898 C 0.49118 0.02958 0.78899
 C1899 C 0.49167 0.02954 0.82606
 C1900 C 0.49918 -0.00236 0.84479
 C1901 C 0.50616 -0.03426 0.82567
 C1902 C 0.50592 -0.03410 0.78857
 C1903 C 0.49842 -0.00180 0.73034
 C1904 C 0.49130 -0.03356 0.71107
 C1905 C 0.49155 -0.03328 0.67397
 C1906 C 0.49870 -0.00112 0.65533
 C1907 C 0.50566 0.03071 0.67454
 C1908 C 0.50564 0.03031 0.71162
 H1909 H 0.48591 0.05443 0.84005
 H1910 H 0.51221 -0.05919 0.83937
 H1911 H 0.48589 -0.05815 0.65990
 H1912 H 0.51149 0.05581 0.66094
 H1913 H 0.51201 -0.05881 0.77462
 H1914 H 0.48524 -0.05854 0.72465
 H1915 H 0.48487 0.05440 0.77538
 H1916 H 0.51167 0.05502 0.72561
 C1917 C 0.75154 0.24975 0.48072
 C1918 C 0.74421 0.28168 0.46180
 C1919 C 0.74424 0.28183 0.42471
 C1920 C 0.75137 0.24993 0.40570
 C1921 C 0.75871 0.21801 0.42456
 C1922 C 0.75891 0.21798 0.46165
 C1923 C 0.75134 0.24953 0.52018
 C1924 C 0.74404 0.21749 0.53897
 C1925 C 0.74374 0.21732 0.57606
 C1926 C 0.75048 0.24930 0.59520
 C1927 C 0.75777 0.28135 0.57648
 C1928 C 0.75830 0.28140 0.53939
 H1929 H 0.73830 0.30676 0.41093
 H1930 H 0.76455 0.19311 0.41065
 H1931 H 0.73788 0.19227 0.58973
 H1932 H 0.76333 0.30631 0.59048
 H1933 H 0.76511 0.19317 0.47537
 H1934 H 0.73816 0.19268 0.52502
 H1935 H 0.73801 0.30640 0.47564
 H1936 H 0.76446 0.30631 0.52579
 C1937 C 0.61475 0.11450 0.61558
 C1938 C 0.59004 0.11367 0.62795
 C1939 C 0.57136 0.09660 0.60802
 C1940 C 0.57696 0.07956 0.57539
 C1941 C 0.60164 0.08027 0.56296
 C1942 C 0.62031 0.09774 0.58275
 C1943 C 0.63455 0.13288 0.63688
 C1944 C 0.65878 0.11804 0.63823
 C1945 C 0.67741 0.13569 0.65792
 C1946 C 0.67217 0.16837 0.67699
 C1947 C 0.64787 0.18292 0.67603
 C1948 C 0.62934 0.16552 0.65607
 H1949 H 0.55259 0.09606 0.61861
 H1950 H 0.60651 0.06749 0.53785
 H1951 H 0.69593 0.12370 0.65822
 H1952 H 0.64328 0.20833 0.69003
 H1953 H 0.63905 0.09842 0.57214
 H1954 H 0.66333 0.09259 0.62430
 H1955 H 0.58516 0.12563 0.65340
 H1956 H 0.61103 0.17812 0.65513
 C1957 C -0.13551 0.36142 0.63211
 C1958 C -0.13015 0.34496 0.66516
 C1959 C -0.14885 0.32725 0.68476
 C1960 C -0.17343 0.32592 0.67197
 C1961 C -0.17883 0.34244 0.63901
 C1962 C -0.16009 0.35980 0.61924
 C1963 C -0.11563 0.38056 0.61134
 C1964 C -0.12098 0.41307 0.59196
 C1965 C -0.10229 0.43144 0.57297
 C1966 C -0.07769 0.41800 0.57313
 C1967 C -0.07232 0.38538 0.59229
 C1968 C -0.09109 0.36679 0.61102
 H1969 H -0.14410 0.31499 0.71017
 H1970 H -0.19752 0.34149 0.62819
 H1971 H -0.10705 0.45669 0.55878
 H1972 H -0.05360 0.37414 0.59280
 H1973 H -0.16483 0.37154 0.59363
 H1974 H -0.13954 0.42486 0.59206
 H1975 H -0.11156 0.34624 0.67621
 H1976 H -0.08637 0.34147 0.62509
 C1977 C 0.88437 0.11902 0.61145
 C1978 C 0.90877 0.13324 0.61048
 C1979 C 0.92746 0.11480 0.59155
 C1980 C 0.92213 0.08192 0.57288
 C1981 C 0.89767 0.06799 0.57340
 C1982 C 0.87905 0.08622 0.59259
 C1983 C 0.86459 0.13806 0.63228
 C1984 C 0.83997 0.13943 0.61959
 C1985 C 0.82128 0.15671 0.63941
 C1986 C 0.82678 0.17337 0.67223
 C1987 C 0.85140 0.17231 0.68485
 C1988 C 0.87007 0.15468 0.66518
 H1989 H 0.94609 0.12637 0.59150
 H1990 H 0.89299 0.04249 0.55963
 H1991 H 0.80255 0.15747 0.62874
 H1992 H 0.85620 0.18471 0.71015
 H1993 H 0.86059 0.07412 0.59325
 H1994 H 0.83518 0.12755 0.59408
 H1995 H 0.91342 0.15879 0.62416
 H1996 H 0.88872 0.15359 0.67604
 C1997 C 0.63401 0.36438 0.63636
 C1998 C 0.62894 0.33151 0.65534
 C1999 C 0.64753 0.31414 0.67531
 C2000 C 0.67174 0.32897 0.67651
 C2001 C 0.67684 0.36187 0.65765
 C2002 C 0.65816 0.37947 0.63797
 C2003 C 0.61417 0.38283 0.61507
 C2004 C 0.61979 0.40018 0.58251
 C2005 C 0.60118 0.41805 0.56289
 C2006 C 0.57646 0.41862 0.57520
 C2007 C 0.57077 0.40084 0.60747
 C2008 C 0.58940 0.38335 0.62724
 H2009 H 0.64305 0.28856 0.68916
 H2010 H 0.69528 0.37409 0.65815
 H2011 H 0.60613 0.43131 0.53802
 H2012 H 0.55196 0.40116 0.61794
 H2013 H 0.66262 0.40511 0.62424
 H2014 H 0.63857 0.39974 0.57199
 H2015 H 0.61070 0.31873 0.65424
 H2016 H 0.58445 0.37089 0.65246
 C2017 C 0.88510 0.11920 0.88820
 C2018 C 0.87981 0.08639 0.90710
 C2019 C 0.89851 0.06795 0.92591
 C2020 C 0.92303 0.08169 0.92603
 C2021 C 0.92834 0.11458 0.90728
 C2022 C 0.90956 0.13322 0.88871
 C2023 C 0.86521 0.13840 0.86776
 C2024 C 0.87045 0.15487 0.83468
 C2025 C 0.85165 0.17248 0.81528
 C2026 C 0.82714 0.17368 0.82837
 C2027 C 0.82188 0.15723 0.86140
 C2028 C 0.84072 0.13996 0.88095
 H2029 H 0.89382 0.04246 0.93975
 H2030 H 0.94701 0.12599 0.90700
 H2031 H 0.85625 0.18473 0.78981
 H2032 H 0.80325 0.15811 0.87243
 H2033 H 0.91418 0.15876 0.87494
 H2034 H 0.88901 0.15364 0.82346
 H2035 H 0.86130 0.07444 0.90677
 H2036 H 0.83613 0.12819 0.90661
 C2037 C 0.61477 0.38432 0.88541
 C2038 C 0.62032 0.40146 0.91804
 C2039 C 0.60166 0.41923 0.93762
 C2040 C 0.57700 0.41990 0.92516
 C2041 C 0.57141 0.40248 0.89273
 C2042 C 0.59008 0.38509 0.87301
 C2043 C 0.63456 0.36565 0.86433
 C2044 C 0.62937 0.33272 0.84561
 C2045 C 0.64791 0.31506 0.82582
 C2046 C 0.67217 0.32968 0.82456
 C2047 C 0.67739 0.36265 0.84316
 C2048 C 0.65876 0.38053 0.86269
 H2049 H 0.60652 0.43229 0.96259
 H2050 H 0.55265 0.40296 0.88213
 H2051 H 0.64333 0.28945 0.81215
 H2052 H 0.69588 0.37470 0.84259
 H2053 H 0.58521 0.37281 0.84770
 H2054 H 0.61107 0.32011 0.84679
 H2055 H 0.63906 0.40083 0.92865
 H2056 H 0.66328 0.40620 0.87626
 C2057 C 0.61468 0.11409 0.88734
 C2058 C 0.62054 0.08557 0.91155
 C2059 C 0.60190 0.06788 0.93131
 C2060 C 0.57655 0.07755 0.92701
 C2061 C 0.57080 0.10637 0.90279
 C2062 C 0.58955 0.12446 0.88355
 C2063 C 0.63466 0.13288 0.86618
 C2064 C 0.63001 0.14591 0.83147
 C2065 C 0.64867 0.16393 0.81193
 C2066 C 0.67259 0.16872 0.82631
 C2067 C 0.67739 0.15537 0.86073
 C2068 C 0.65864 0.13801 0.88050
 H2069 H 0.60752 0.04590 0.94934
 H2070 H 0.55174 0.11529 0.89856
 H2071 H 0.64446 0.17376 0.78539
 H2072 H 0.69554 0.15917 0.87277
 H2073 H 0.58427 0.14686 0.86586
 H2074 H 0.61201 0.14188 0.81914
 H2075 H 0.63957 0.07623 0.91485
 H2076 H 0.66290 0.12923 0.90733
 C2077 C 0.88452 0.38067 0.88879
 C2078 C 0.90906 0.36691 0.88926
 C2079 C 0.92775 0.38549 0.90806
 C2080 C 0.92231 0.41810 0.92715
 C2081 C 0.89771 0.43155 0.92715
 C2082 C 0.87910 0.41318 0.90809
 C2083 C 0.86471 0.36149 0.86804
 C2084 C 0.84012 0.35984 0.88089
 C2085 C 0.82141 0.34247 0.86116
 C2086 C 0.82686 0.32595 0.82823
 C2087 C 0.85145 0.32726 0.81545
 C2088 C 0.87012 0.34499 0.83503
 H2089 H 0.94647 0.37426 0.90766
 H2090 H 0.89290 0.45681 0.94127
 H2091 H 0.80272 0.34152 0.87199
 H2092 H 0.85622 0.31497 0.79007
 H2093 H 0.86054 0.42497 0.90786
 H2094 H 0.83535 0.37158 0.90648
 H2095 H 0.91383 0.34159 0.87525
 H2096 H 0.88873 0.34627 0.82399
 C2097 C 0.00067 0.49966 0.77115
 C2098 C 0.00284 0.53311 0.79025
 C2099 C 0.00244 0.53323 0.82739
 C2100 C 0.00031 0.49972 0.84682
 C2101 C -0.00147 0.46615 0.82746
 C2102 C -0.00152 0.46622 0.79031
 C2103 C 0.00057 0.49971 0.73146
 C2104 C 0.01104 0.46997 0.71219
 C2105 C 0.01062 0.46984 0.67504
 C2106 C 0.00015 0.49974 0.65620
 C2107 C -0.01007 0.52964 0.67527
 C2108 C -0.01008 0.52947 0.71241
 H2109 H 0.00413 0.55982 0.84072
 H2110 H -0.00324 0.43957 0.84085
 H2111 H 0.01888 0.44660 0.66102
 H2112 H -0.01849 0.55291 0.66145
 H2113 H -0.00370 0.43994 0.77666
 H2114 H 0.01988 0.44693 0.72575
 H2115 H 0.00514 0.55937 0.77656
 H2116 H -0.01881 0.55248 0.72614
 C2117 C 0.25143 0.75127 0.48009
 C2118 C 0.24415 0.78323 0.46119
 C2119 C 0.24403 0.78332 0.42411
 C2120 C 0.25095 0.75132 0.40508
 C2121 C 0.25824 0.71937 0.42392
 C2122 C 0.25859 0.71940 0.46100
 C2123 C 0.25135 0.75108 0.51954
 C2124 C 0.24393 0.71915 0.53838
 C2125 C 0.24373 0.71899 0.57546
 C2126 C 0.25069 0.75090 0.59455
 C2127 C 0.25808 0.78286 0.57579
 C2128 C 0.25852 0.78289 0.53870
 H2129 H 0.23815 0.80830 0.41035
 H2130 H 0.26394 0.69440 0.41000
 H2131 H 0.23776 0.69403 0.58917
 H2132 H 0.26380 0.80776 0.58977
 H2133 H 0.26474 0.69455 0.47471
 H2134 H 0.23787 0.69440 0.52447
 H2135 H 0.23812 0.80803 0.47505
 H2136 H 0.26476 0.80772 0.52504
 C2137 C 0.11459 0.61240 0.61849
 C2138 C 0.08998 0.61091 0.63127
 C2139 C 0.07132 0.59334 0.61163
 C2140 C 0.07686 0.57650 0.57888
 C2141 C 0.10146 0.57771 0.56617
 C2142 C 0.12008 0.59562 0.58566
 C2143 C 0.13436 0.63168 0.63915
 C2144 C 0.15882 0.61767 0.63998
 C2145 C 0.17750 0.63633 0.65870
 C2146 C 0.17211 0.66925 0.67731
 C2147 C 0.14759 0.68297 0.67693
 C2148 C 0.12898 0.66451 0.65795
 H2149 H 0.05261 0.59251 0.62237
 H2150 H 0.10630 0.56521 0.54091
 H2151 H 0.19617 0.62489 0.65863
 H2152 H 0.14285 0.70847 0.69068
 H2153 H 0.13872 0.59679 0.57470
 H2154 H 0.16353 0.59211 0.62635
 H2155 H 0.08517 0.62293 0.65673
 H2156 H 0.11046 0.67646 0.65741
 C2157 C 0.38458 0.88490 0.61439
 C2158 C 0.40905 0.87094 0.61389
 C2159 C 0.42777 0.88945 0.59512
 C2160 C 0.42241 0.92214 0.57609
 C2161 C 0.39793 0.93601 0.57638
 C2162 C 0.37926 0.91770 0.59544
 C2163 C 0.36471 0.86532 0.63457
 C2164 C 0.34031 0.86339 0.62112
 C2165 C 0.32160 0.84515 0.64013
 C2166 C 0.32690 0.82808 0.67286
 C2167 C 0.35129 0.82976 0.68625
 C2168 C 0.36996 0.84835 0.66741
 H2169 H 0.44640 0.87789 0.59524
 H2170 H 0.39325 0.96135 0.56228
 H2171 H 0.30304 0.84397 0.62892
 H2172 H 0.35591 0.81712 0.71154
 H2173 H 0.36073 0.92958 0.59576
 H2174 H 0.33572 0.87553 0.59562
 H2175 H 0.41371 0.84541 0.62766
 H2176 H 0.38843 0.84984 0.67883
 C2177 C 0.36473 0.63529 0.63480
 C2178 C 0.37012 0.66797 0.65386
 C2179 C 0.35147 0.68644 0.67287
 C2180 C 0.32691 0.67289 0.67299
 C2181 C 0.32147 0.64035 0.65382
 C2182 C 0.34017 0.62168 0.63511
 C2183 C 0.38463 0.61545 0.61475
 C2184 C 0.37940 0.59825 0.58202
 C2185 C 0.39806 0.57942 0.56334
 C2186 C 0.42246 0.57767 0.57675
 C2187 C 0.42774 0.59497 0.60936
 C2188 C 0.40903 0.61346 0.62821
 H2189 H 0.35624 0.71164 0.68708
 H2190 H 0.30278 0.62901 0.65357
 H2191 H 0.39343 0.56664 0.53815
 H2192 H 0.44629 0.59381 0.62061
 H2193 H 0.33541 0.59626 0.62129
 H2194 H 0.36095 0.59976 0.57054
 H2195 H 0.38871 0.67964 0.65371
 H2196 H 0.41364 0.62574 0.65361
 C2197 C 0.11468 0.88881 0.61757
 C2198 C 0.12015 0.90560 0.58469
 C2199 C 0.10147 0.92336 0.56512
 C2200 C 0.07685 0.92443 0.57780
 C2201 C 0.07137 0.90762 0.61060
 C2202 C 0.09007 0.89020 0.63032
 C2203 C 0.13449 0.86963 0.63833
 C2204 C 0.12913 0.83685 0.65729
 C2205 C 0.14774 0.81852 0.67644
 C2206 C 0.17224 0.83230 0.67683
 C2207 C 0.17762 0.86514 0.65802
 C2208 C 0.15894 0.88368 0.63914
 H2209 H 0.10627 0.93587 0.53983
 H2210 H 0.05264 0.90835 0.62134
 H2211 H 0.14301 0.79307 0.69031
 H2212 H 0.19628 0.87661 0.65795
 H2213 H 0.08527 0.87821 0.65582
 H2214 H 0.11064 0.82485 0.65677
 H2215 H 0.13879 0.90452 0.57376
 H2216 H 0.16363 0.90920 0.62538
 C2217 C 0.38463 0.61539 0.88525
 C2218 C 0.37935 0.59808 0.91795
 C2219 C 0.39800 0.57931 0.93672
 C2220 C 0.42245 0.57775 0.92343
 C2221 C 0.42778 0.59515 0.89084
 C2222 C 0.40909 0.61356 0.87191
 C2223 C 0.36474 0.63519 0.86510
 C2224 C 0.37013 0.66788 0.84598
 C2225 C 0.35149 0.68631 0.82690
 C2226 C 0.32694 0.67272 0.82674
 C2227 C 0.32151 0.64016 0.84597
 C2228 C 0.34019 0.62153 0.86475
 H2229 H 0.39334 0.56643 0.96188
 H2230 H 0.44637 0.59411 0.87967
 H2231 H 0.35626 0.71153 0.81266
 H2232 H 0.30283 0.62878 0.84621
 H2233 H 0.41375 0.62591 0.84652
 H2234 H 0.38870 0.67960 0.84615
 H2235 H 0.36086 0.59944 0.92936
 H2236 H 0.33543 0.59610 0.87861
 C2237 C 0.11451 0.88867 0.88258
 C2238 C 0.12050 0.91192 0.91136
 C2239 C 0.10181 0.92999 0.93071
 C2240 C 0.07639 0.92487 0.92229
 C2241 C 0.07052 0.90128 0.89347
 C2242 C 0.08926 0.88384 0.87382
 C2243 C 0.13442 0.86926 0.86198
 C2244 C 0.13022 0.83361 0.84771
 C2245 C 0.14880 0.81533 0.82844
 C2246 C 0.17225 0.83189 0.82347
 C2247 C 0.17660 0.86737 0.83777
 C2248 C 0.15784 0.88599 0.85652
 H2249 H 0.10747 0.94760 0.95262
 H2250 H 0.05140 0.89655 0.88546
 H2251 H 0.14500 0.78776 0.81818
 H2252 H 0.19445 0.88091 0.83417
 H2253 H 0.08387 0.86686 0.85137
 H2254 H 0.11270 0.81938 0.85196
 H2255 H 0.13967 0.91582 0.91941
 H2256 H 0.16168 0.91365 0.86643
 C2257 C 0.11462 0.61244 0.88153
 C2258 C 0.12004 0.59599 0.91455
 C2259 C 0.10138 0.57819 0.93410
 C2260 C 0.07684 0.57679 0.92123
 C2261 C 0.07138 0.59329 0.88829
 C2262 C 0.09008 0.61075 0.86859
 C2263 C 0.13440 0.63164 0.86085
 C2264 C 0.12903 0.66443 0.84195
 C2265 C 0.14766 0.68285 0.82295
 C2266 C 0.17218 0.66912 0.82267
 C2267 C 0.17756 0.63624 0.84138
 C2268 C 0.15886 0.61762 0.86012
 H2269 H 0.10613 0.56593 0.95951
 H2270 H 0.05271 0.59226 0.87744
 H2271 H 0.14293 0.70833 0.80912
 H2272 H 0.19624 0.62482 0.84151
 H2273 H 0.08535 0.62252 0.84299
 H2274 H 0.11051 0.67636 0.84243
 H2275 H 0.13863 0.59734 0.92559
 H2276 H 0.16354 0.59209 0.87387
 C2277 C 0.38511 0.88405 0.88544
 C2278 C 0.40959 0.87007 0.88575
 C2279 C 0.42838 0.88840 0.90453
 C2280 C 0.42312 0.92096 0.92377
 C2281 C 0.39864 0.93486 0.92366
 C2282 C 0.37990 0.91674 0.90459
 C2283 C 0.36512 0.86467 0.86523
 C2284 C 0.34066 0.86306 0.87858
 C2285 C 0.32186 0.84506 0.85956
 C2286 C 0.32710 0.82786 0.82688
 C2287 C 0.35155 0.82923 0.81358
 C2288 C 0.37030 0.84758 0.83243
 H2289 H 0.44701 0.87680 0.90425
 H2290 H 0.39400 0.96010 0.93792
 H2291 H 0.30326 0.84415 0.87073
 H2292 H 0.35615 0.81649 0.78834
 H2293 H 0.36139 0.92870 0.90444
 H2294 H 0.33607 0.87527 0.90404
 H2295 H 0.41420 0.84463 0.87184
 H2296 H 0.38880 0.84881 0.82102
 C2297 C 0.49774 0.50001 0.76978
 C2298 C 0.49059 0.53188 0.78888
 C2299 C 0.49110 0.53198 0.82596
 C2300 C 0.49855 0.50008 0.84476
 C2301 C 0.50550 0.46811 0.82572
 C2302 C 0.50522 0.46814 0.78865
 C2303 C 0.49764 0.50009 0.73035
 C2304 C 0.49041 0.46821 0.71134
 C2305 C 0.49076 0.46809 0.67425
 C2306 C 0.49813 0.49997 0.65536
 C2307 C 0.50514 0.53196 0.67431
 C2308 C 0.50501 0.53195 0.71139
 H2309 H 0.48540 0.55692 0.83991
 H2310 H 0.51152 0.44319 0.83945
 H2311 H 0.48503 0.44313 0.66038
 H2312 H 0.51111 0.55687 0.66051
 H2313 H 0.51126 0.44335 0.77477
 H2314 H 0.48421 0.44342 0.72512
 H2315 H 0.48432 0.55667 0.77518
 H2316 H 0.51111 0.55674 0.72519
 C2317 C 0.75152 0.75091 0.48011
 C2318 C 0.74421 0.78286 0.46121
 C2319 C 0.74412 0.78298 0.42412
 C2320 C 0.75111 0.75102 0.40509
 C2321 C 0.75844 0.71908 0.42392
 C2322 C 0.75877 0.71909 0.46101
 C2323 C 0.75141 0.75070 0.51956
 C2324 C 0.74405 0.71872 0.53838
 C2325 C 0.74381 0.71856 0.57546
 C2326 C 0.75067 0.75051 0.59458
 C2327 C 0.75801 0.78250 0.57582
 C2328 C 0.75849 0.78254 0.53874
 H2329 H 0.73820 0.80794 0.41036
 H2330 H 0.76418 0.69414 0.41001
 H2331 H 0.73790 0.69355 0.58915
 H2332 H 0.76365 0.80744 0.58980
 H2333 H 0.76495 0.69426 0.47471
 H2334 H 0.73808 0.69394 0.52445
 H2335 H 0.73812 0.80763 0.47507
 H2336 H 0.76468 0.80741 0.52510
 C2337 C 0.61456 0.61535 0.61532
 C2338 C 0.58981 0.61454 0.62756
 C2339 C 0.57121 0.59710 0.60774
 C2340 C 0.57690 0.57962 0.57534
 C2341 C 0.60162 0.58031 0.56303
 C2342 C 0.62021 0.59816 0.58270
 C2343 C 0.63433 0.63403 0.63656
 C2344 C 0.65861 0.61937 0.63798
 C2345 C 0.67721 0.63725 0.65756
 C2346 C 0.67192 0.67002 0.67649
 C2347 C 0.64758 0.68439 0.67550
 C2348 C 0.62906 0.66674 0.65564
 H2349 H 0.55242 0.59662 0.61824
 H2350 H 0.60657 0.56724 0.53809
 H2351 H 0.69575 0.62535 0.65789
 H2352 H 0.64292 0.70983 0.68942
 H2353 H 0.63897 0.59879 0.57215
 H2354 H 0.66323 0.59387 0.62419
 H2355 H 0.58484 0.62681 0.65284
 H2356 H 0.61071 0.67922 0.65469
 C2357 C 0.88444 0.88119 0.61069
 C2358 C 0.90893 0.86729 0.60992
 C2359 C 0.92759 0.88597 0.59111
 C2360 C 0.92214 0.91880 0.57234
 C2361 C 0.89759 0.93241 0.57266
 C2362 C 0.87900 0.91393 0.59173
 C2363 C 0.86469 0.86191 0.63145
 C2364 C 0.84011 0.86027 0.61864
 C2365 C 0.82144 0.84283 0.63842
 C2366 C 0.82693 0.82627 0.67133
 C2367 C 0.85152 0.82755 0.68404
 C2368 C 0.87016 0.84533 0.66441
 H2369 H 0.94628 0.87463 0.59124
 H2370 H 0.89281 0.95785 0.55881
 H2371 H 0.80274 0.84191 0.62766
 H2372 H 0.85631 0.81523 0.70941
 H2373 H 0.86047 0.92580 0.59222
 H2374 H 0.83532 0.87209 0.59308
 H2375 H 0.91368 0.84180 0.62369
 H2376 H 0.88878 0.84661 0.67536
 C2377 C 0.88423 0.61859 0.61131
 C2378 C 0.90867 0.63268 0.61048
 C2379 C 0.92740 0.61414 0.59170
 C2380 C 0.92209 0.58125 0.57301
 C2381 C 0.89759 0.56746 0.57337
 C2382 C 0.87893 0.58579 0.59242
 C2383 C 0.86442 0.63774 0.63206
 C2384 C 0.83980 0.63914 0.61936
 C2385 C 0.82111 0.65665 0.63906
 C2386 C 0.82662 0.67351 0.67179
 C2387 C 0.85123 0.67236 0.68444
 C2388 C 0.86988 0.65452 0.66490
 H2389 H 0.94605 0.62563 0.59180
 H2390 H 0.89290 0.54197 0.55957
 H2391 H 0.80239 0.65743 0.62836
 H2392 H 0.85605 0.68489 0.70968
 H2393 H 0.86044 0.57378 0.59294
 H2394 H 0.83500 0.62713 0.59391
 H2395 H 0.91333 0.65822 0.62418
 H2396 H 0.88852 0.65340 0.67581
 C2397 C 0.61487 0.88398 0.61367
 C2398 C 0.61996 0.91678 0.59464
 C2399 C 0.60139 0.93409 0.57467
 C2400 C 0.57717 0.91928 0.57354
 C2401 C 0.57204 0.88643 0.59245
 C2402 C 0.59072 0.86886 0.61215
 C2403 C 0.63471 0.86573 0.63497
 C2404 C 0.62918 0.84879 0.66775
 C2405 C 0.64789 0.83137 0.68751
 C2406 C 0.67258 0.83088 0.67511
 C2407 C 0.67816 0.84817 0.64258
 C2408 C 0.65944 0.86519 0.62266
 H2409 H 0.60590 0.95963 0.56078
 H2410 H 0.55359 0.87425 0.59200
 H2411 H 0.64303 0.81838 0.71255
 H2412 H 0.69694 0.84783 0.63202
 H2413 H 0.58629 0.84328 0.62597
 H2414 H 0.61042 0.84926 0.67831
 H2415 H 0.63820 0.92958 0.59572
 H2416 H 0.66430 0.87732 0.59726
 C2417 C 0.88438 0.61887 0.88836
 C2418 C 0.87899 0.58618 0.90745
 C2419 C 0.89762 0.56779 0.92650
 C2420 C 0.92216 0.58143 0.92667
 C2421 C 0.92755 0.61421 0.90778
 C2422 C 0.90886 0.63280 0.88899
 C2423 C 0.86459 0.63808 0.86764
 C2424 C 0.87003 0.65460 0.83463
 C2425 C 0.85138 0.67243 0.81508
 C2426 C 0.82681 0.67382 0.82791
 C2427 C 0.82135 0.65726 0.86085
 C2428 C 0.84003 0.63977 0.88054
 H2429 H 0.89288 0.54239 0.94046
 H2430 H 0.94623 0.62559 0.90755
 H2431 H 0.85616 0.68474 0.78969
 H2432 H 0.80266 0.65826 0.87169
 H2433 H 0.91357 0.65826 0.87513
 H2434 H 0.88864 0.65327 0.82359
 H2435 H 0.86046 0.57430 0.90708
 H2436 H 0.83526 0.62798 0.90613
 C2437 C 0.61468 0.88374 0.88739
 C2438 C 0.62046 0.91228 0.91154
 C2439 C 0.60181 0.92948 0.93159
 C2440 C 0.57653 0.91930 0.92764
 C2441 C 0.57086 0.89040 0.90353
 C2442 C 0.58965 0.87280 0.88398
 C2443 C 0.63469 0.86559 0.86589
 C2444 C 0.62996 0.85285 0.83114
 C2445 C 0.64868 0.83541 0.81129
 C2446 C 0.67270 0.83093 0.82541
 C2447 C 0.67758 0.84406 0.85984
 C2448 C 0.65879 0.86084 0.87993
 H2449 H 0.60736 0.95154 0.94953
 H2450 H 0.55186 0.88113 0.89956
 H2451 H 0.64441 0.82569 0.78475
 H2452 H 0.69581 0.84044 0.87169
 H2453 H 0.58447 0.85036 0.86631
 H2454 H 0.61185 0.85663 0.81906
 H2455 H 0.63941 0.92204 0.91454
 H2456 H 0.66310 0.86942 0.90678
 C2457 C 0.61480 0.61665 0.88609
 C2458 C 0.62000 0.58385 0.90507
 C2459 C 0.60147 0.56627 0.92495
 C2460 C 0.57717 0.58081 0.92602
 C2461 C 0.57192 0.61364 0.90715
 C2462 C 0.59056 0.63147 0.88755
 C2463 C 0.63461 0.63525 0.86494
 C2464 C 0.62909 0.65232 0.83222
 C2465 C 0.64777 0.67002 0.81259
 C2466 C 0.67243 0.67068 0.82506
 C2467 C 0.67800 0.65331 0.85756
 C2468 C 0.65930 0.63601 0.87734
 H2469 H 0.60607 0.54077 0.93882
 H2470 H 0.55341 0.62563 0.90756
 H2471 H 0.64293 0.68303 0.78755
 H2472 H 0.69675 0.65376 0.86816
 H2473 H 0.58602 0.65704 0.87377
 H2474 H 0.61036 0.65170 0.82158
 H2475 H 0.63831 0.57127 0.90405
 H2476 H 0.66416 0.62380 0.90270
 C2477 C 0.88517 0.88112 0.88735
 C2478 C 0.90964 0.86711 0.88792
 C2479 C 0.92840 0.88565 0.90662
 C2480 C 0.92306 0.91845 0.92547
 C2481 C 0.89854 0.93219 0.92528
 C2482 C 0.87987 0.91386 0.90633
 C2483 C 0.86528 0.86193 0.86683
 C2484 C 0.84074 0.86050 0.87986
 C2485 C 0.82194 0.84314 0.86033
 C2486 C 0.82726 0.82643 0.82745
 C2487 C 0.85181 0.82752 0.81451
 C2488 C 0.87058 0.84524 0.83389
 H2489 H 0.94706 0.87422 0.90638
 H2490 H 0.89384 0.95762 0.93919
 H2491 H 0.80327 0.84237 0.87126
 H2492 H 0.85648 0.81509 0.78916
 H2493 H 0.86136 0.92584 0.90597
 H2494 H 0.83607 0.87242 0.90541
 H2495 H 0.91430 0.84162 0.87412
 H2496 H 0.88917 0.84635 0.82276
   
