data_POSCAR
  _audit_creation_date              2014-09-24
  _audit_creation_method            'ToBaCCo'
  _symmetry_space_group_name_H-M    'P1'
  _symmetry_Int_Tables_number       1
  _symmetry_cell_setting            triclinic
  loop_
  _symmetry_equiv_pos_as_xyz
 x,y,z
_cell_length_a 52.5556
_cell_length_b 53.7639
_cell_length_c 51.7466
_cell_angle_alpha 89.968300
_cell_angle_beta 89.731800
_cell_angle_gamma 90.116400
loop_
  _atom_site_label
  _atom_site_type_symbol
  _atom_site_fract_x
  _atom_site_fract_y
  _atom_site_fract_z
C1 C 0.37566 0.30020 0.01972
 C2 C 0.38769 0.29608 -0.00396
 C3 C 0.37717 0.30417 -0.02734
 C4 C 0.35432 0.31829 -0.02672
 C5 C 0.34284 0.32415 -0.00253
 C6 C 0.35335 0.31471 0.02073
 C7 C 0.34099 0.31953 0.04430
 C8 C 0.31929 0.33421 0.04525
 C9 C 0.30907 0.34459 0.02266
 C10 C 0.32060 0.33918 -0.00158
 C11 C 0.34316 0.32752 -0.04940
 C12 C 0.32095 0.34152 -0.04852
 C13 C 0.30979 0.34848 -0.02483
 C14 C 0.28730 0.36321 -0.02365
 C15 C 0.27644 0.36817 0.00065
 C16 C 0.28718 0.35971 0.02364
 H17 H 0.34796 0.31201 0.06232
 H18 H 0.31040 0.33706 0.06391
 H19 H 0.35147 0.32411 -0.06821
 H20 H 0.31261 0.34657 -0.06681
 H21 H 0.40466 0.28459 -0.00423
 H22 H 0.26013 0.38047 0.00195
 C23 C 0.71030 0.63171 0.01973
 C24 C 0.71861 0.62374 -0.00458
 C25 C 0.70942 0.63425 -0.02738
 C26 C 0.69086 0.65321 -0.02608
 C27 C 0.68179 0.66131 -0.00160
 C28 C 0.69170 0.65067 0.02142
 C29 C 0.68357 0.65999 0.04543
 C30 C 0.66580 0.67906 0.04692
 C31 C 0.65558 0.68971 0.02447
 C32 C 0.66358 0.68083 -0.00010
 C33 C 0.68210 0.66510 -0.04847
 C34 C 0.66446 0.68430 -0.04702
 C35 C 0.65428 0.69211 -0.02314
 C36 C 0.63677 0.71224 -0.02136
 C37 C 0.62953 0.72072 0.00328
 C38 C 0.63839 0.70977 0.02596
 H39 H 0.69122 0.65302 0.06338
 H40 H 0.66058 0.68575 0.06593
 H41 H 0.68932 0.66009 -0.06738
 H42 H 0.65961 0.69347 -0.06491
 H43 H 0.73282 0.60915 -0.00578
 H44 H 0.61576 0.73565 0.00501
 C45 C 0.63880 0.29078 0.97697
 C46 C 0.63005 0.28090 1.00040
 C47 C 0.63682 0.29122 1.02420
 C48 C 0.65292 0.31237 1.02475
 C49 C 0.66220 0.32258 1.00118
 C50 C 0.65538 0.31157 0.97722
 C51 C 0.66578 0.32125 0.95425
 C52 C 0.68172 0.34195 0.95462
 C53 C 0.68778 0.35387 0.97796
 C54 C 0.67841 0.34381 1.00157
 C55 C 0.66020 0.32340 1.04818
 C56 C 0.67554 0.34450 1.04854
 C57 C 0.68525 0.35487 1.02554
 C58 C 0.70048 0.37675 1.02566
 C59 C 0.70858 0.38685 1.00201
 C60 C 0.70332 0.37534 0.97844
 H61 H 0.66186 0.31278 0.93573
 H62 H 0.68918 0.34855 0.93634
 H63 H 0.65400 0.31596 1.06658
 H64 H 0.67938 0.35275 1.06717
 H65 H 0.61714 0.26513 1.00009
 H66 H 0.72068 0.40324 1.00196
 C67 C 0.29162 0.63021 1.02465
 C68 C 0.27986 0.62472 1.00101
 C69 C 0.28931 0.63342 0.97744
 C70 C 0.31057 0.64947 0.97717
 C71 C 0.32294 0.65547 1.00073
 C72 C 0.31377 0.64554 1.02454
 C73 C 0.32615 0.65246 1.04750
 C74 C 0.34761 0.66764 1.04710
 C75 C 0.35660 0.67829 1.02396
 C76 C 0.34426 0.67185 1.00045
 C77 C 0.31925 0.66023 0.95401
 C78 C 0.34002 0.67621 0.95375
 C79 C 0.35296 0.68200 0.97664
 C80 C 0.37409 0.69815 0.97640
 C81 C 0.38671 0.70344 0.99937
 C82 C 0.37821 0.69434 1.02335
 H83 H 0.31938 0.64647 1.06622
 H84 H 0.35703 0.67085 1.06531
 H85 H 0.30977 0.65676 0.93585
 H86 H 0.34579 0.68403 0.93537
 H87 H 0.26370 0.61211 1.00072
 H88 H 0.40256 0.71640 0.99859
 C89 C 0.01941 0.37074 0.29863
 C90 C -0.00355 0.38264 0.29329
 C91 C -0.02707 0.37195 0.29983
 C92 C -0.02744 0.34907 0.31365
 C93 C -0.00410 0.33771 0.32087
 C94 C 0.01938 0.34838 0.31291
 C95 C 0.04219 0.33617 0.31891
 C96 C 0.04209 0.31439 0.33337
 C97 C 0.01920 0.30402 0.34253
 C98 C -0.00421 0.31546 0.33581
 C99 C -0.05037 0.33772 0.32133
 C100 C -0.05047 0.31561 0.33525
 C101 C -0.02770 0.30462 0.34375
 C102 C -0.02763 0.28235 0.35867
 C103 C -0.00416 0.27144 0.36484
 C104 C 0.01908 0.28212 0.35766
 H105 H 0.06041 0.34339 0.31254
 H106 H 0.06022 0.30560 0.33704
 H107 H -0.06861 0.34581 0.31677
 H108 H -0.06879 0.30719 0.33902
 H109 H -0.00306 0.39968 0.28202
 H110 H -0.00382 0.25517 0.37725
 C111 C 0.02756 0.71288 0.63696
 C112 C 0.00508 0.72409 0.62872
 C113 C -0.01902 0.71373 0.63375
 C114 C -0.02051 0.69134 0.64847
 C115 C 0.00224 0.67999 0.65749
 C116 C 0.02628 0.69091 0.65186
 C117 C 0.04841 0.68003 0.66188
 C118 C 0.04717 0.65843 0.67655
 C119 C 0.02373 0.64683 0.68175
 C120 C 0.00097 0.65784 0.67256
 C121 C -0.04398 0.68073 0.65581
 C122 C -0.04518 0.65862 0.66973
 C123 C -0.02301 0.64696 0.67874
 C124 C -0.02396 0.62426 0.69291
 C125 C -0.00104 0.61337 0.70084
 C126 C 0.02244 0.62476 0.69642
 H127 H 0.06696 0.68831 0.65878
 H128 H 0.06484 0.65089 0.68376
 H129 H -0.06187 0.68946 0.65119
 H130 H -0.06384 0.65082 0.67328
 H131 H 0.00662 0.74048 0.61656
 H132 H -0.00150 0.59659 0.71252
 C133 C 0.98080 0.63351 0.28964
 C134 C 1.00437 0.62396 0.28203
 C135 C 1.02703 0.63143 0.29375
 C136 C 1.02626 0.64869 0.31435
 C137 C 1.00262 0.65922 0.32187
 C138 C 0.97983 0.65183 0.30926
 C139 C 0.95682 0.66334 0.31617
 C140 C 0.95595 0.68104 0.33572
 C141 C 0.97806 0.68794 0.34910
 C142 C 1.00176 0.67730 0.34192
 C143 C 1.04841 0.65579 0.32751
 C144 C 1.04743 0.67273 0.34781
 C145 C 1.02453 0.68456 0.35480
 C146 C 1.02329 0.70231 0.37524
 C147 C 0.99942 0.71207 0.38210
 C148 C 0.97715 0.70554 0.36923
 H149 H 0.93926 0.65901 0.30632
 H150 H 0.93770 0.68930 0.34024
 H151 H 1.06676 0.64803 0.32253
 H152 H 1.06491 0.67609 0.35813
 H153 H 1.00512 0.61004 0.26686
 H154 H 0.99811 0.72611 0.39711
 C155 C 1.02537 0.29344 0.63056
 C156 C 1.00261 0.28504 0.61980
 C157 C 0.97901 0.29380 0.62826
 C158 C 0.97795 0.31215 0.64779
 C159 C 1.00093 0.32134 0.65862
 C160 C 1.02473 0.31179 0.65012
 C161 C 1.04706 0.31986 0.66226
 C162 C 1.04620 0.33724 0.68215
 C163 C 1.02300 0.34779 0.69037
 C164 C 1.00003 0.33925 0.67884
 C165 C 0.95458 0.32070 0.65756
 C166 C 0.95368 0.33813 0.67735
 C167 C 0.97610 0.34773 0.68819
 C168 C 0.97520 0.36475 0.70893
 C169 C 0.99785 0.37282 0.72014
 C170 C 1.02182 0.36502 0.71122
 H171 H 1.06543 0.31234 0.65693
 H172 H 1.06397 0.34162 0.69153
 H173 H 0.93668 0.31365 0.65037
 H174 H 0.93512 0.34356 0.68447
 H175 H 1.00325 0.27087 0.60487
 H176 H 0.99669 0.38648 0.73555
 C177 C 0.35853 -0.02395 0.27617
 C178 C 0.36768 -0.00079 0.26757
 C179 C 0.35918 0.02166 0.27799
 C180 C 0.34039 0.02141 0.29757
 C181 C 0.33050 -0.00165 0.30661
 C182 C 0.33939 -0.02440 0.29579
 C183 C 0.32715 -0.04663 0.30313
 C184 C 0.30797 -0.04684 0.32175
 C185 C 0.29998 -0.02483 0.33398
 C186 C 0.31082 -0.00186 0.32567
 C187 C 0.33038 0.04369 0.30744
 C188 C 0.31122 0.04349 0.32598
 C189 C 0.30126 0.02101 0.33548
 C190 C 0.28115 0.02082 0.35367
 C191 C 0.27078 -0.00184 0.36163
 C192 C 0.27979 -0.02479 0.35246
 H193 H 0.33146 -0.06411 0.29380
 H194 H 0.29878 -0.06446 0.32562
 H195 H 0.33681 0.06161 0.30046
 H196 H 0.30385 0.06126 0.33228
 H197 H 0.38267 -0.00008 0.25308
 H198 H 0.25595 -0.00150 0.37629
 C199 C 0.71973 0.02528 0.64404
 C200 C 0.73091 0.00332 0.63525
 C201 C 0.72218 -0.02027 0.64300
 C202 C 0.70174 -0.02168 0.66114
 C203 C 0.69027 0.00062 0.67036
 C204 C 0.69939 0.02412 0.66186
 C205 C 0.68866 0.04590 0.67216
 C206 C 0.66897 0.04477 0.69010
 C207 C 0.65917 0.02180 0.69844
 C208 C 0.67016 -0.00051 0.68881
 C209 C 0.69377 -0.04448 0.67195
 C210 C 0.67397 -0.04559 0.68987
 C211 C 0.66166 -0.02390 0.69827
 C212 C 0.64184 -0.02481 0.71681
 C213 C 0.63092 -0.00269 0.72560
 C214 C 0.63933 0.02051 0.71695
 H215 H 0.69572 0.06412 0.66685
 H216 H 0.66187 0.06216 0.69770
 H217 H 0.70324 -0.06175 0.66735
 H218 H 0.66880 -0.06365 0.69753
 H219 H 0.74593 0.00479 0.62087
 H220 H 0.61553 -0.00356 0.73964
 C221 C 0.36981 1.02517 0.71056
 C222 C 0.37780 1.00197 0.72000
 C223 C 0.36982 0.97952 0.70912
 C224 C 0.35268 0.97984 0.68818
 C225 C 0.34394 1.00297 0.67834
 C226 C 0.35241 1.02573 0.68952
 C227 C 0.34151 1.04813 0.68081
 C228 C 0.32385 1.04841 0.66086
 C229 C 0.31583 1.02627 0.64909
 C230 C 0.32574 1.00326 0.65804
 C231 C 0.34317 0.95762 0.67764
 C232 C 0.32549 0.95794 0.65774
 C233 C 0.31656 0.98050 0.64760
 C234 C 0.29781 0.98096 0.62807
 C235 C 0.28874 1.00379 0.61918
 C236 C 0.29714 1.02634 0.62950
 H237 H 0.34576 1.06574 0.68987
 H238 H 0.31604 1.06619 0.65521
 H239 H 0.34885 0.93967 0.68506
 H240 H 0.31852 0.94025 0.65077
 H241 H 0.39146 1.00124 0.73564
 H242 H 0.27429 1.00400 0.60426
 C243 C 0.61725 1.02251 0.30419
 C244 C 0.61142 0.99992 0.29191
 C245 C 0.62456 0.97800 0.29712
 C246 C 0.64453 0.97819 0.31520
 C247 C 0.65044 1.00051 0.32857
 C248 C 0.63660 1.02267 0.32336
 C249 C 0.64105 1.04361 0.33900
 C250 C 0.65992 1.04352 0.35777
 C251 C 0.67537 1.02254 0.36176
 C252 C 0.66983 1.00046 0.34767
 C253 C 0.65880 0.95666 0.32011
 C254 C 0.67777 0.95663 0.33869
 C255 C 0.68318 0.97812 0.35306
 C256 C 0.70172 0.97786 0.37264
 C257 C 0.70716 0.99967 0.38609
 C258 C 0.69474 1.02224 0.38092
 H259 H 0.62937 1.06007 0.33757
 H260 H 0.66160 1.05992 0.36972
 H261 H 0.65542 0.93957 0.30963
 H262 H 0.68814 0.93951 0.34171
 H263 H 0.59682 0.99935 0.27716
 H264 H 0.72217 0.99903 0.40041
 O265 O 0.85735 0.82345 0.47198
 O266 O 0.82661 0.85969 0.52304
 O267 O 0.86018 0.82473 0.52194
 O268 O 0.82370 0.85840 0.47309
 O269 O 0.79289 0.83056 0.47576
 O270 O 0.83003 0.79617 0.52464
 O271 O 0.79577 0.83189 0.52599
 O272 O 0.82722 0.79488 0.47467
 Cu273 Cu 0.84498 0.84436 0.49722
 Cu274 Cu 0.80834 0.81054 0.50053
 C275 C 0.84785 0.80290 0.46477
 C276 C 0.80594 0.85221 0.53320
 C277 C 0.85158 0.80463 0.53147
 C278 C 0.80201 0.85048 0.46620
 O279 O 0.17944 0.14408 0.52209
 O280 O 0.14286 0.17667 0.47240
 O281 O 0.17728 0.14263 0.47196
 O282 O 0.14502 0.17845 0.52255
 O283 O 0.17460 0.20759 0.52021
 O284 O 0.20764 0.17102 0.46962
 O285 O 0.17241 0.20586 0.47010
 O286 O 0.20973 0.17251 0.51974
 Cu287 Cu 0.15819 0.15761 0.49755
 Cu288 Cu 0.19413 0.19217 0.49470
 C289 C 0.20088 0.15244 0.52924
 C290 C 0.15123 0.19685 0.46284
 C291 C 0.19797 0.15054 0.46222
 C292 C 0.15402 0.19920 0.52987
 O293 O 0.17773 0.85388 0.47268
 O294 O 0.15040 0.82152 0.52854
 O295 O 0.18308 0.85665 0.52268
 O296 O 0.14539 0.81718 0.47964
 O297 O 0.17741 0.79078 0.47600
 O298 O 0.21437 0.82933 0.52176
 O299 O 0.18052 0.79301 0.52593
 O300 O 0.21006 0.82781 0.47162
 Cu301 Cu 0.16115 0.84016 0.50079
 Cu302 Cu 0.19885 0.80755 0.49865
 C303 C 0.19874 0.84691 0.46292
 C304 C 0.16027 0.80138 0.53633
 C305 C 0.20498 0.84966 0.52990
 C306 C 0.15469 0.79706 0.47098
 O307 O 0.85232 0.18244 0.52178
 O308 O 0.81097 0.14529 0.48024
 O309 O 0.84764 0.17775 0.47190
 O310 O 0.81800 0.14950 0.52874
 O311 O 0.78782 0.17807 0.52831
 O312 O 0.82031 0.20883 0.47322
 O313 O 0.78311 0.17599 0.47846
 O314 O 0.82346 0.21222 0.52315
 Cu315 Cu 0.83524 0.16087 0.50024
 Cu316 Cu 0.80079 0.19688 0.50071
 C317 C 0.84480 0.20341 0.53002
 C318 C 0.78977 0.15396 0.47289
 C319 C 0.83977 0.19845 0.46335
 C320 C 0.79759 0.15850 0.53790
 O321 O 0.47472 0.85458 0.82086
 O322 O 0.52313 0.82074 0.85700
 O323 O 0.52418 0.85491 0.82224
 O324 O 0.47402 0.81913 0.85470
 O325 O 0.47584 0.79061 0.82409
 O326 O 0.52606 0.82695 0.79105
 O327 O 0.52520 0.79204 0.82658
 O328 O 0.47657 0.82691 0.78940
 Cu329 Cu 0.49874 0.84017 0.84171
 Cu330 Cu 0.50100 0.80626 0.80461
 C331 C 0.46752 0.84686 0.79893
 C332 C 0.53243 0.80067 0.84825
 C333 C 0.53374 0.84711 0.80118
 C334 C 0.46666 0.79856 0.84528
 O335 O 0.52850 0.18009 0.14907
 O336 O 0.47360 0.14834 0.17782
 O337 O 0.47923 0.18312 0.14435
 O338 O 0.52149 0.14628 0.18530
 O339 O 0.52169 0.17614 0.21466
 O340 O 0.47624 0.21162 0.17491
 O341 O 0.47265 0.17581 0.20955
 O342 O 0.52541 0.21026 0.17781
 Cu343 Cu 0.50124 0.16171 0.16100
 Cu344 Cu 0.49892 0.19643 0.19727
 C345 C 0.53573 0.20098 0.15775
 C346 C 0.46418 0.15612 0.19892
 C347 C 0.47018 0.20348 0.15273
 C348 C 0.52814 0.15457 0.20721
 O349 O 0.52512 0.14743 0.82184
 O350 O 0.47905 0.18880 0.85330
 O351 O 0.47586 0.15068 0.82208
 O352 O 0.52782 0.18376 0.85394
 O353 O 0.52991 0.21057 0.82162
 O354 O 0.47849 0.17573 0.78840
 O355 O 0.48088 0.21445 0.81991
 O356 O 0.52784 0.17324 0.78873
 Cu357 Cu 0.50151 0.16505 0.84102
 Cu358 Cu 0.50443 0.19608 0.80127
 C359 C 0.53443 0.15327 0.79997
 C360 C 0.47268 0.20892 0.84228
 C361 C 0.46866 0.15694 0.79963
 C362 C 0.53754 0.20294 0.84355
 O363 O 0.47999 0.81157 0.14363
 O364 O 0.52314 0.85239 0.17945
 O365 O 0.52833 0.81610 0.14779
 O366 O 0.47399 0.84985 0.17456
 O367 O 0.47319 0.82521 0.20864
 O368 O 0.52594 0.78871 0.17956
 O369 O 0.52265 0.82613 0.21224
 O370 O 0.47674 0.78654 0.17740
 Cu371 Cu 0.50123 0.83517 0.15814
 Cu372 Cu 0.49941 0.80409 0.19788
 C373 C 0.47152 0.79189 0.15415
 C374 C 0.53061 0.84611 0.20182
 C375 C 0.53609 0.79640 0.15864
 C376 C 0.46470 0.84395 0.19641
 O377 O 0.85140 0.52457 0.80732
 O378 O 0.81669 0.48084 0.84913
 O379 O 0.85042 0.47684 0.81302
 O380 O 0.81805 0.52896 0.84444
 O381 O 0.78648 0.52639 0.81658
 O382 O 0.82039 0.47510 0.78334
 O383 O 0.78590 0.47819 0.82039
 O384 O 0.82030 0.52302 0.77872
 Cu385 Cu 0.83715 0.50314 0.83138
 Cu386 Cu 0.80010 0.50052 0.79688
 C387 C 0.84201 0.53084 0.78574
 C388 C 0.79544 0.47198 0.84198
 C389 C 0.84129 0.46735 0.79262
 C390 C 0.79657 0.53628 0.83638
 O391 O 0.14898 0.52107 0.18439
 O392 O 0.18144 0.47129 0.14914
 O393 O 0.14699 0.47295 0.18463
 O394 O 0.18312 0.51961 0.14864
 O395 O 0.21341 0.51915 0.17806
 O396 O 0.17654 0.47189 0.21481
 O397 O 0.21185 0.47064 0.17844
 O398 O 0.17840 0.52007 0.21474
 Cu399 Cu 0.16221 0.49630 0.16371
 Cu400 Cu 0.19816 0.49534 0.19950
 C401 C 0.15788 0.52889 0.20565
 C402 C 0.20220 0.46252 0.15759
 C403 C 0.15530 0.46456 0.20588
 C404 C 0.20430 0.52745 0.15703
 O405 O 0.84990 0.47391 0.18654
 O406 O 0.81893 0.52200 0.14737
 O407 O 0.85413 0.52187 0.18208
 O408 O 0.81414 0.47435 0.15139
 O409 O 0.78493 0.47926 0.18185
 O410 O 0.82518 0.52706 0.21266
 O411 O 0.78934 0.52672 0.17742
 O412 O 0.82127 0.47937 0.21745
 Cu413 Cu 0.83721 0.49735 0.16386
 Cu414 Cu 0.80226 0.50345 0.20049
 C415 C 0.84135 0.46906 0.20894
 C416 C 0.79867 0.53228 0.15545
 C417 C 0.84659 0.53252 0.20262
 C418 C 0.79241 0.46942 0.16086
 O419 O 0.17780 0.52568 0.85430
 O420 O 0.14318 0.47610 0.82141
 O421 O 0.17801 0.47738 0.85618
 O422 O 0.14345 0.52408 0.81888
 O423 O 0.17283 0.52284 0.78829
 O424 O 0.20811 0.47606 0.82631
 O425 O 0.17250 0.47460 0.79078
 O426 O 0.20800 0.52448 0.82453
 Cu427 Cu 0.15770 0.50097 0.84073
 Cu428 Cu 0.19344 0.49942 0.80442
 C429 C 0.19882 0.53350 0.84529
 C430 C 0.15162 0.46696 0.80048
 C431 C 0.19889 0.46869 0.84773
 C432 C 0.15193 0.53123 0.79711
 C433 C 0.25237 0.39502 0.08858
 C434 C 0.27888 0.39663 0.08543
 C435 C 0.29053 0.38368 0.06505
 C436 C 0.27584 0.36909 0.04811
 C437 C 0.24947 0.36679 0.05231
 C438 C 0.23756 0.37999 0.07229
 C439 C 0.23968 0.41058 0.10824
 C440 C 0.21302 0.41038 0.11000
 C441 C 0.20092 0.42679 0.12707
 C442 C 0.21529 0.44316 0.14242
 C443 C 0.24204 0.44235 0.14136
 C444 C 0.25436 0.42635 0.12390
 C445 C 0.21101 0.37946 0.07546
 C446 C 0.19893 0.39449 0.09394
 C447 C 0.29299 0.41210 0.10192
 C448 C 0.28095 0.42661 0.12093
 H449 H 0.19941 0.36789 0.06304
 H450 H 0.17835 0.39407 0.09526
 H451 H 0.31347 0.41341 0.09977
 H452 H 0.29250 0.43866 0.13290
 H453 H 0.31076 0.38593 0.06151
 H454 H 0.23811 0.35579 0.03910
 H455 H 0.18031 0.42728 0.12796
 H456 H 0.25314 0.45512 0.15298
 C457 C 0.74730 0.59449 0.08225
 C458 C 0.76175 0.60827 0.06438
 C459 C 0.74928 0.62132 0.04476
 C460 C 0.72262 0.62028 0.04260
 C461 C 0.70833 0.60647 0.06070
 C462 C 0.72061 0.59367 0.08075
 C463 C 0.76043 0.57990 0.10230
 C464 C 0.74605 0.56578 0.11996
 C465 C 0.75870 0.55118 0.13836
 C466 C 0.78548 0.55010 0.13852
 C467 C 0.79957 0.56458 0.12088
 C468 C 0.78715 0.57966 0.10283
 C469 C 0.70686 0.57955 0.09895
 C470 C 0.71936 0.56595 0.11830
 C471 C 0.78842 0.60816 0.06603
 C472 C 0.80091 0.59399 0.08486
 H473 H 0.68628 0.57881 0.09808
 H474 H 0.70804 0.55510 0.13177
 H475 H 0.79975 0.61874 0.05234
 H476 H 0.82153 0.59404 0.08516
 H477 H 0.76030 0.63174 0.03066
 H478 H 0.68784 0.60527 0.05875
 H479 H 0.74779 0.53976 0.15168
 H480 H 0.82019 0.56380 0.12098
 C481 C 0.74208 0.41064 0.91551
 C482 C 0.71533 0.41016 0.91558
 C483 C 0.70244 0.39764 0.93563
 C484 C 0.71625 0.38564 0.95524
 C485 C 0.74300 0.38575 0.95443
 C486 C 0.75603 0.39838 0.93475
 C487 C 0.75575 0.42509 0.89554
 C488 C 0.78241 0.42655 0.89634
 C489 C 0.79526 0.44143 0.87828
 C490 C 0.78169 0.45469 0.85937
 C491 C 0.75499 0.45242 0.85828
 C492 C 0.74187 0.43786 0.87659
 C493 C 0.78272 0.39969 0.93445
 C494 C 0.79569 0.41360 0.91560
 C495 C 0.70211 0.42284 0.89605
 C496 C 0.71515 0.43636 0.87684
 H497 H 0.79366 0.39027 0.94920
 H498 H 0.81627 0.41451 0.91633
 H499 H 0.68150 0.42257 0.89581
 H500 H 0.70420 0.44611 0.86234
 H501 H 0.68182 0.39786 0.93650
 H502 H 0.75359 0.37671 0.96971
 H503 H 0.81581 0.44296 0.87914
 H504 H 0.74441 0.46274 0.84390
 C505 C 0.25205 0.59909 0.91354
 C506 C 0.27859 0.59708 0.91571
 C507 C 0.29100 0.60956 0.93587
 C508 C 0.27699 0.62397 0.95363
 C509 C 0.25055 0.62652 0.95058
 C510 C 0.23792 0.61392 0.93072
 C511 C 0.23861 0.58421 0.89391
 C512 C 0.21193 0.58493 0.89300
 C513 C 0.19911 0.56912 0.87595
 C514 C 0.21274 0.55270 0.85989
 C515 C 0.23953 0.55304 0.86008
 C516 C 0.25259 0.56853 0.87742
 C517 C 0.21133 0.61495 0.92844
 C518 C 0.19854 0.60063 0.90993
 C519 C 0.29200 0.58178 0.89837
 C520 C 0.27923 0.56782 0.87948
 H521 H 0.20026 0.62638 0.94153
 H522 H 0.17796 0.60142 0.90927
 H523 H 0.31250 0.58017 0.89977
 H524 H 0.29024 0.55585 0.86687
 H525 H 0.31131 0.60720 0.93851
 H526 H 0.23975 0.63741 0.96443
 H527 H 0.17848 0.56900 0.87577
 H528 H 0.25008 0.54025 0.84792
 C529 C 0.08187 0.24707 0.39532
 C530 C 0.07887 0.27293 0.39750
 C531 C 0.05901 0.28460 0.38411
 C532 C 0.04254 0.27061 0.36833
 C533 C 0.04645 0.24483 0.36567
 C534 C 0.06585 0.23291 0.37939
 C535 C 0.10128 0.23440 0.41106
 C536 C 0.10302 0.20835 0.41023
 C537 C 0.12012 0.19624 0.42667
 C538 C 0.13562 0.21000 0.44358
 C539 C 0.13444 0.23615 0.44343
 C540 C 0.11692 0.24846 0.42750
 C541 C 0.06888 0.20697 0.37833
 C542 C 0.08707 0.19489 0.39360
 C543 C 0.09518 0.28643 0.41378
 C544 C 0.11398 0.27442 0.42840
 H545 H 0.05665 0.19586 0.36609
 H546 H 0.08835 0.17479 0.39269
 H547 H 0.09314 0.30641 0.41554
 H548 H 0.12590 0.28549 0.44099
 H549 H 0.05570 0.30433 0.38674
 H550 H 0.03362 0.23397 0.35379
 H551 H 0.12106 0.17609 0.42669
 H552 H 0.14614 0.24677 0.45666
 C553 C 0.09274 0.74816 0.60340
 C554 C 0.08884 0.72262 0.59925
 C555 C 0.06830 0.71070 0.61156
 C556 C 0.05186 0.72417 0.62791
 C557 C 0.05665 0.74952 0.63262
 C558 C 0.07691 0.76169 0.62021
 C559 C 0.11269 0.76134 0.58858
 C560 C 0.11522 0.78721 0.59129
 C561 C 0.13233 0.80004 0.57525
 C562 C 0.14683 0.78720 0.55664
 C563 C 0.14516 0.76110 0.55512
 C564 C 0.12773 0.74809 0.57079
 C565 C 0.08086 0.78736 0.62329
 C566 C 0.09965 0.79992 0.60900
 C567 C 0.10481 0.70984 0.58193
 C568 C 0.12397 0.72234 0.56801
 H569 H 0.06882 0.79796 0.63626
 H570 H 0.10154 0.81987 0.61134
 H571 H 0.10207 0.69012 0.57864
 H572 H 0.13544 0.71189 0.55438
 H573 H 0.06433 0.69130 0.60749
 H574 H 0.04381 0.75997 0.64496
 H575 H 0.13355 0.82014 0.57642
 H576 H 0.15598 0.75121 0.54051
 C577 C 0.91417 0.74550 0.40025
 C578 C 0.91493 0.71953 0.40327
 C579 C 0.93475 0.70606 0.39159
 C580 C 0.95361 0.71855 0.37718
 C581 C 0.95199 0.74438 0.37348
 C582 C 0.93243 0.75802 0.38515
 C583 C 0.89495 0.76005 0.41453
 C584 C 0.89543 0.78612 0.41290
 C585 C 0.87879 0.79998 0.42836
 C586 C 0.86183 0.78801 0.44545
 C587 C 0.86063 0.76184 0.44592
 C588 C 0.87748 0.74773 0.43073
 C589 C 0.93153 0.78404 0.38309
 C590 C 0.91335 0.79787 0.39678
 C591 C 0.89658 0.70778 0.41894
 C592 C 0.87813 0.72164 0.43238
 H593 H 0.94547 0.79385 0.37140
 H594 H 0.91377 0.81797 0.39527
 H595 H 0.89687 0.68777 0.42134
 H596 H 0.86474 0.71189 0.44475
 H597 H 0.93630 0.68618 0.39470
 H598 H 0.96676 0.75393 0.36260
 H599 H 0.87970 0.82013 0.42784
 H600 H 0.84776 0.75254 0.45923
 C601 C 0.91674 0.25675 0.59201
 C602 C 0.93370 0.24323 0.60748
 C603 C 0.95321 0.25584 0.62027
 C604 C 0.95615 0.28168 0.61732
 C605 C 0.93887 0.29512 0.60203
 C606 C 0.91895 0.28269 0.58939
 C607 C 0.89697 0.24334 0.57746
 C608 C 0.88028 0.25671 0.56152
 C609 C 0.86222 0.24367 0.54683
 C610 C 0.86148 0.21750 0.54753
 C611 C 0.87805 0.20448 0.56393
 C612 C 0.89576 0.21729 0.57903
 C613 C 0.90166 0.29549 0.57360
 C614 C 0.88258 0.28273 0.56000
 C615 C 0.93134 0.21727 0.60920
 C616 C 0.91273 0.20449 0.59512
 H617 H 0.90309 0.31549 0.57149
 H618 H 0.86984 0.29327 0.54778
 H619 H 0.94431 0.20668 0.62111
 H620 H 0.91185 0.18440 0.59656
 H621 H 0.96669 0.24552 0.63189
 H622 H 0.94141 0.31498 0.59949
 H623 H 0.84960 0.25373 0.53403
 H624 H 0.87739 0.18433 0.56464
 C625 C 0.39693 0.08525 0.24593
 C626 C 0.38205 0.06997 0.22997
 C627 C 0.36880 0.04991 0.24091
 C628 C 0.37062 0.04487 0.26751
 C629 C 0.38534 0.06052 0.28336
 C630 C 0.39851 0.08085 0.27264
 C631 C 0.41213 0.10548 0.23424
 C632 C 0.42777 0.12024 0.25001
 C633 C 0.44351 0.13835 0.23852
 C634 C 0.44414 0.14107 0.21146
 C635 C 0.42777 0.12663 0.19607
 C636 C 0.41171 0.10883 0.20734
 C637 C 0.41388 0.09638 0.28789
 C638 C 0.42820 0.11578 0.27678
 C639 C 0.38141 0.07452 0.20326
 C640 C 0.39606 0.09358 0.19212
 H641 H 0.41520 0.09325 0.30852
 H642 H 0.44017 0.12701 0.28918
 H643 H 0.36994 0.06289 0.19078
 H644 H 0.39551 0.09609 0.17135
 H645 H 0.35767 0.03769 0.22868
 H646 H 0.38708 0.05638 0.30378
 H647 H 0.45639 0.14914 0.25040
 H648 H 0.42824 0.12866 0.17522
 C649 C 0.59963 0.08133 0.75162
 C650 C 0.59973 0.07905 0.72457
 C651 C 0.61338 0.05953 0.71307
 C652 C 0.62710 0.04272 0.72850
 C653 C 0.62725 0.04563 0.75551
 C654 C 0.61337 0.06477 0.76721
 C655 C 0.58412 0.10086 0.76394
 C656 C 0.58302 0.10226 0.79102
 C657 C 0.56715 0.11991 0.80266
 C658 C 0.55265 0.13625 0.78744
 C659 C 0.55457 0.13518 0.76031
 C660 C 0.57004 0.11722 0.74843
 C661 C 0.61237 0.06722 0.79421
 C662 C 0.59736 0.08560 0.80593
 C663 C 0.58566 0.09596 0.70968
 C664 C 0.57116 0.11481 0.72140
 H665 H 0.62291 0.05454 0.80640
 H666 H 0.59674 0.08660 0.82683
 H667 H 0.58565 0.09447 0.68880
 H668 H 0.56039 0.12730 0.70922
 H669 H 0.61290 0.05699 0.69230
 H670 H 0.63763 0.03251 0.76738
 H671 H 0.56584 0.12078 0.82356
 H672 H 0.54326 0.14759 0.74852
 C673 C 0.40442 0.91654 0.74517
 C674 C 0.38828 0.93207 0.75960
 C675 C 0.37592 0.95179 0.74724
 C676 C 0.37991 0.95630 0.72075
 C677 C 0.39579 0.94032 0.70638
 C678 C 0.40807 0.92030 0.71853
 C679 C 0.41877 0.89677 0.75847
 C680 C 0.43563 0.88173 0.74427
 C681 C 0.45046 0.86402 0.75736
 C682 C 0.44898 0.86200 0.78446
 C683 C 0.43144 0.87674 0.79823
 C684 C 0.41627 0.89412 0.78535
 C685 C 0.42462 0.90450 0.70486
 C686 C 0.43809 0.88550 0.71748
 C687 C 0.38558 0.92819 0.78631
 C688 C 0.39940 0.90957 0.79899
 H689 H 0.42753 0.90712 0.68429
 H690 H 0.45100 0.87405 0.70628
 H691 H 0.37313 0.94003 0.79762
 H692 H 0.39724 0.90759 0.81972
 H693 H 0.36391 0.96426 0.75834
 H694 H 0.39921 0.94405 0.68607
 H695 H 0.46416 0.85292 0.74673
 H696 H 0.43018 0.87518 0.81909
 C697 C 0.59244 0.91658 0.25656
 C698 C 0.59275 0.91615 0.28371
 C699 C 0.60468 0.93564 0.29704
 C700 C 0.61615 0.95532 0.28332
 C701 C 0.61643 0.95502 0.25615
 C702 C 0.60443 0.93578 0.24264
 C703 C 0.57816 0.89729 0.24247
 C704 C 0.57671 0.89856 0.21542
 C705 C 0.56175 0.88120 0.20221
 C706 C 0.54825 0.86267 0.21584
 C707 C 0.55060 0.86111 0.24290
 C708 C 0.56534 0.87859 0.25636
 C709 C 0.60326 0.93592 0.21554
 C710 C 0.58959 0.91762 0.20215
 C711 C 0.58023 0.89680 0.29692
 C712 C 0.56682 0.87829 0.28347
 H713 H 0.61250 0.95061 0.20462
 H714 H 0.58869 0.91870 0.18126
 H715 H 0.58041 0.89621 0.31785
 H716 H 0.55707 0.86395 0.29442
 H717 H 0.60410 0.93615 0.31798
 H718 H 0.62504 0.97036 0.24565
 H719 H 0.56020 0.88243 0.18137
 H720 H 0.54019 0.84697 0.25353
 C721 C 0.41577 0.27192 0.90987
 C722 C 0.38921 0.26937 0.91159
 C723 C 0.37598 0.28182 0.93135
 C724 C 0.38929 0.29619 0.94973
 C725 C 0.41589 0.29891 0.94719
 C726 C 0.42917 0.28700 0.92728
 C727 C 0.43003 0.25733 0.89053
 C728 C 0.45669 0.25923 0.88959
 C729 C 0.47030 0.24411 0.87246
 C730 C 0.45749 0.22690 0.85682
 C731 C 0.43080 0.22542 0.85744
 C732 C 0.41688 0.24075 0.87434
 C733 C 0.45575 0.28897 0.92521
 C734 C 0.46928 0.27539 0.90658
 C735 C 0.37663 0.25334 0.89438
 C736 C 0.39024 0.23921 0.87613
 H737 H 0.46624 0.30068 0.93847
 H738 H 0.48983 0.27702 0.90596
 H739 H 0.35615 0.25118 0.89548
 H740 H 0.37985 0.22660 0.86369
 H741 H 0.35570 0.27872 0.93365
 H742 H 0.42632 0.30986 0.96123
 H743 H 0.49093 0.24487 0.87207
 H744 H 0.42109 0.21187 0.84548
 C745 C 0.59899 0.74947 0.91807
 C746 C 0.60060 0.72342 0.91739
 C747 C 0.61413 0.71095 0.93689
 C748 C 0.62594 0.72443 0.95702
 C749 C 0.62439 0.75066 0.95685
 C750 C 0.61099 0.76320 0.93758
 C751 C 0.58351 0.76261 0.89866
 C752 C 0.58110 0.78857 0.90017
 C753 C 0.56513 0.80084 0.88282
 C754 C 0.55148 0.78745 0.86405
 C755 C 0.55478 0.76150 0.86210
 C756 C 0.57063 0.74892 0.87963
 C757 C 0.60874 0.78922 0.93794
 C758 C 0.59402 0.80170 0.91955
 C759 C 0.58789 0.71037 0.89773
 C760 C 0.57321 0.72290 0.87916
 H761 H 0.61804 0.79999 0.95288
 H762 H 0.59236 0.82174 0.92081
 H763 H 0.58898 0.69026 0.89691
 H764 H 0.56342 0.71207 0.86460
 H765 H 0.61418 0.69079 0.93720
 H766 H 0.63354 0.76137 0.97197
 H767 H 0.56286 0.82083 0.88433
 H768 H 0.54420 0.75105 0.84781
 C769 C 0.41751 0.72834 0.08469
 C770 C 0.43117 0.71659 0.06482
 C771 C 0.41792 0.70393 0.04551
 C772 C 0.39105 0.70307 0.04557
 C773 C 0.37766 0.71445 0.06615
 C774 C 0.39084 0.72711 0.08575
 C775 C 0.43135 0.74332 0.10392
 C776 C 0.41770 0.75597 0.12329
 C777 C 0.43094 0.77129 0.14070
 C778 C 0.45742 0.77419 0.13820
 C779 C 0.47083 0.76114 0.11904
 C780 C 0.45792 0.74560 0.10186
 C781 C 0.37786 0.73955 0.10574
 C782 C 0.39106 0.75365 0.12424
 C783 C 0.45781 0.71858 0.06398
 C784 C 0.47097 0.73290 0.08219
 H785 H 0.35728 0.73872 0.10684
 H786 H 0.38028 0.76326 0.13907
 H787 H 0.46853 0.70950 0.04876
 H788 H 0.49148 0.73443 0.08055
 H789 H 0.42851 0.69520 0.02994
 H790 H 0.35705 0.71502 0.06598
 H791 H 0.42072 0.78158 0.15545
 H792 H 0.49128 0.76351 0.11728
 C793 C 0.60083 0.25456 0.08813
 C794 C 0.59695 0.28019 0.08463
 C795 C 0.60950 0.29245 0.06424
 C796 C 0.62608 0.27928 0.04777
 C797 C 0.63024 0.25375 0.05202
 C798 C 0.61748 0.24124 0.07200
 C799 C 0.58618 0.24117 0.10819
 C800 C 0.58875 0.21526 0.11043
 C801 C 0.57314 0.20230 0.12790
 C802 C 0.55521 0.21509 0.14317
 C803 C 0.55375 0.24121 0.14166
 C804 C 0.56891 0.25432 0.12382
 C805 C 0.62029 0.21548 0.07555
 C806 C 0.60608 0.20269 0.09436
 C807 C 0.57995 0.29281 0.10103
 C808 C 0.56626 0.28012 0.12037
 H809 H 0.63312 0.20502 0.06324
 H810 H 0.60832 0.18273 0.09600
 H811 H 0.57688 0.31260 0.09863
 H812 H 0.55301 0.29049 0.13228
 H813 H 0.60582 0.31198 0.06064
 H814 H 0.64274 0.24353 0.03913
 H815 H 0.57430 0.18220 0.12898
 H816 H 0.53970 0.25109 0.15308
 C817 C 0.25771 0.08706 0.59492
 C818 C 0.28431 0.08579 0.59227
 C819 C 0.29762 0.06673 0.60496
 C820 C 0.28437 0.04917 0.62010
 C821 C 0.25788 0.05133 0.62334
 C822 C 0.24441 0.07008 0.61061
 C823 C 0.24334 0.10558 0.57985
 C824 C 0.21665 0.10569 0.58128
 C825 C 0.20296 0.12191 0.56541
 C826 C 0.21572 0.13802 0.54823
 C827 C 0.24253 0.13848 0.54780
 C828 C 0.25646 0.12198 0.56334
 C829 C 0.21777 0.07144 0.61231
 C830 C 0.20412 0.08891 0.59783
 C831 C 0.29683 0.10295 0.57609
 C832 C 0.28316 0.12079 0.56195
 H833 H 0.20735 0.05846 0.62441
 H834 H 0.18354 0.08893 0.59919
 H835 H 0.31733 0.10227 0.57393
 H836 H 0.29354 0.13334 0.54933
 H837 H 0.31798 0.06480 0.60217
 H838 H 0.24770 0.03762 0.63479
 H839 H 0.18233 0.12156 0.56593
 H840 H 0.25245 0.15069 0.53443
 C841 C 0.72717 0.08241 0.42144
 C842 C 0.72068 0.06052 0.43468
 C843 C 0.70840 0.04138 0.42140
 C844 C 0.70296 0.04351 0.39477
 C845 C 0.70900 0.06603 0.38196
 C846 C 0.72109 0.08554 0.39525
 C847 C 0.74173 0.10188 0.43496
 C848 C 0.74899 0.12358 0.42161
 C849 C 0.76395 0.14149 0.43432
 C850 C 0.77209 0.13715 0.45977
 C851 C 0.76435 0.11558 0.47293
 C852 C 0.74904 0.09793 0.46071
 C853 C 0.72823 0.10769 0.38265
 C854 C 0.74182 0.12643 0.39564
 C855 C 0.72746 0.05772 0.46073
 C856 C 0.74151 0.07609 0.47351
 H857 H 0.72361 0.11041 0.36247
 H858 H 0.74724 0.14304 0.38509
 H859 H 0.72244 0.04090 0.47114
 H860 H 0.74691 0.07299 0.49344
 H861 H 0.70351 0.02446 0.43173
 H862 H 0.70592 0.06779 0.36134
 H863 H 0.77011 0.15814 0.42424
 H864 H 0.77059 0.11245 0.49263
 C865 C 0.75783 0.92074 0.60306
 C866 C 0.73127 0.92039 0.60608
 C867 C 0.71940 0.93941 0.62033
 C868 C 0.73396 0.95871 0.63155
 C869 C 0.76070 0.95825 0.62860
 C870 C 0.77266 0.93946 0.61441
 C871 C 0.77028 0.90180 0.58674
 C872 C 0.79670 0.90293 0.58285
 C873 C 0.80827 0.88594 0.56607
 C874 C 0.79366 0.86790 0.55309
 C875 C 0.76728 0.86639 0.55789
 C876 C 0.75543 0.88354 0.57453
 C877 C 0.79915 0.93949 0.61070
 C878 C 0.81097 0.92154 0.59515
 C879 C 0.71708 0.90153 0.59400
 C880 C 0.72895 0.88339 0.57856
 H881 H 0.81078 0.95382 0.61947
 H882 H 0.83140 0.92252 0.59236
 H883 H 0.69657 0.90099 0.59619
 H884 H 0.71724 0.86942 0.56929
 H885 H 0.69880 0.93996 0.62135
 H886 H 0.77225 0.97273 0.63727
 H887 H 0.82860 0.88714 0.56263
 H888 H 0.75590 0.85265 0.54785
 C889 C 0.24503 0.91467 0.39076
 C890 C 0.27157 0.91468 0.38744
 C891 C 0.28315 0.93403 0.37330
 C892 C 0.26833 0.95345 0.36278
 C893 C 0.24160 0.95245 0.36574
 C894 C 0.22992 0.93328 0.37971
 C895 C 0.23293 0.89561 0.40730
 C896 C 0.20655 0.89648 0.41161
 C897 C 0.19537 0.87959 0.42886
 C898 C 0.21034 0.86200 0.44200
 C899 C 0.23665 0.86067 0.43668
 C900 C 0.24810 0.87766 0.41950
 C901 C 0.20347 0.93296 0.38368
 C902 C 0.19197 0.91486 0.39938
 C903 C 0.28605 0.89597 0.39935
 C904 C 0.27452 0.87776 0.41507
 H905 H 0.19162 0.94719 0.37511
 H906 H 0.17158 0.91563 0.40246
 H907 H 0.30654 0.89569 0.39693
 H908 H 0.28646 0.86400 0.42429
 H909 H 0.30374 0.93488 0.37210
 H910 H 0.22986 0.96700 0.35752
 H911 H 0.17510 0.88068 0.43270
 H912 H 0.24835 0.84729 0.44681
 C913 C 0.08255 0.40104 0.74896
 C914 C 0.06325 0.38959 0.76354
 C915 C 0.04388 0.37672 0.75082
 C916 C 0.04346 0.37516 0.72358
 C917 C 0.06341 0.38633 0.70925
 C918 C 0.08296 0.39935 0.72188
 C919 C 0.10196 0.41611 0.76226
 C920 C 0.12066 0.42858 0.74769
 C921 C 0.13804 0.44425 0.76038
 C922 C 0.13627 0.44778 0.78732
 C923 C 0.11793 0.43444 0.80163
 C924 C 0.10069 0.41869 0.78923
 C925 C 0.10237 0.41155 0.70799
 C926 C 0.12091 0.42588 0.72067
 C927 C 0.06316 0.39190 0.79057
 C928 C 0.08158 0.40623 0.80321
 H929 H 0.10296 0.41037 0.68709
 H930 H 0.13524 0.43535 0.70917
 H931 H 0.04839 0.38302 0.80200
 H932 H 0.08052 0.40801 0.82404
 H933 H 0.02886 0.36807 0.76215
 H934 H 0.06290 0.38621 0.68831
 H935 H 0.15201 0.45459 0.74924
 H936 H 0.11656 0.43692 0.82238
 C937 C 0.09058 0.59496 0.25911
 C938 C 0.07637 0.61212 0.24471
 C939 C 0.05675 0.62527 0.25687
 C940 C 0.05088 0.62094 0.28302
 C941 C 0.06558 0.60408 0.29742
 C942 C 0.08562 0.59108 0.28553
 C943 C 0.10996 0.57971 0.24591
 C944 C 0.12361 0.56188 0.26005
 C945 C 0.14081 0.54628 0.24701
 C946 C 0.14353 0.54792 0.21999
 C947 C 0.13019 0.56627 0.20625
 C948 C 0.11347 0.58231 0.21912
 C949 C 0.10011 0.57353 0.29917
 C950 C 0.11888 0.55927 0.28668
 C951 C 0.08124 0.61496 0.21817
 C952 C 0.09942 0.60021 0.20555
 H953 H 0.09658 0.57044 0.31957
 H954 H 0.12927 0.54561 0.29781
 H955 H 0.07041 0.62819 0.20691
 H956 H 0.10210 0.60247 0.18491
 H957 H 0.04515 0.63801 0.24574
 H958 H 0.06070 0.60039 0.31744
 H959 H 0.15083 0.53191 0.25755
 H960 H 0.13234 0.56756 0.18543
 C961 C 0.91115 0.41064 0.26761
 C962 C 0.91412 0.38522 0.26217
 C963 C 0.93373 0.37191 0.27426
 C964 C 0.95085 0.38411 0.29099
 C965 C 0.94752 0.40968 0.29606
 C966 C 0.92748 0.42290 0.28482
 C967 C 0.89137 0.42500 0.25407
 C968 C 0.88867 0.45049 0.25936
 C969 C 0.87075 0.46434 0.24555
 C970 C 0.85637 0.45308 0.22597
 C971 C 0.85904 0.42753 0.22090
 C972 C 0.87638 0.41326 0.23521
 C973 C 0.92393 0.44832 0.28988
 C974 C 0.90470 0.46185 0.27752
 C975 C 0.89809 0.37390 0.24392
 C976 C 0.87969 0.38772 0.23053
 H977 H 0.93633 0.45793 0.30327
 H978 H 0.90282 0.48151 0.28171
 H979 H 0.90020 0.35432 0.23949
 H980 H 0.86818 0.37840 0.21615
 H981 H 0.93670 0.35251 0.26939
 H982 H 0.96066 0.41926 0.30876
 H983 H 0.86896 0.48417 0.24897
 H984 H 0.84810 0.41903 0.20554
 C985 C 0.91285 0.58669 0.72467
 C986 C 0.91504 0.61250 0.72821
 C987 C 0.93511 0.62540 0.71609
 C988 C 0.95328 0.61250 0.70102
 C989 C 0.95041 0.58661 0.69751
 C990 C 0.93020 0.57369 0.70906
 C991 C 0.89289 0.57276 0.73872
 C992 C 0.89131 0.54683 0.73575
 C993 C 0.87337 0.53347 0.75029
 C994 C 0.85755 0.54581 0.76803
 C995 C 0.85895 0.57179 0.77062
 C996 C 0.87662 0.58545 0.75583
 C997 C 0.92759 0.54784 0.70608
 C998 C 0.90839 0.53464 0.71911
 C999 C 0.89784 0.62467 0.74479
 C1000 C 0.87903 0.61137 0.75843
 H1001 H 0.94080 0.53765 0.69395
 H1002 H 0.90731 0.51465 0.71666
 H1003 H 0.89930 0.64458 0.74772
 H1004 H 0.86655 0.62141 0.77147
 H1005 H 0.93764 0.64508 0.71992
 H1006 H 0.96427 0.57646 0.68607
 H1007 H 0.87243 0.51337 0.74871
 H1008 H 0.84690 0.58115 0.78461
 C1009 C 0.74477 0.60127 0.90667
 C1010 C 0.71826 0.59914 0.90969
 C1011 C 0.70630 0.61127 0.93051
 C1012 C 0.72080 0.62528 0.94809
 C1013 C 0.74716 0.62798 0.94418
 C1014 C 0.75929 0.61586 0.92363
 C1015 C 0.75779 0.58675 0.88637
 C1016 C 0.78444 0.58762 0.88458
 C1017 C 0.79692 0.57206 0.86694
 C1018 C 0.78298 0.55564 0.85122
 C1019 C 0.75619 0.55588 0.85227
 C1020 C 0.74348 0.57118 0.87016
 C1021 C 0.78582 0.61708 0.92047
 C1022 C 0.79819 0.60315 0.90129
 C1023 C 0.70450 0.58401 0.89256
 C1024 C 0.71688 0.57033 0.87308
 H1025 H 0.79718 0.62835 0.93340
 H1026 H 0.81876 0.60406 0.89997
 H1027 H 0.68404 0.58228 0.89459
 H1028 H 0.70560 0.55844 0.86068
 H1029 H 0.68605 0.60891 0.93378
 H1030 H 0.75830 0.63859 0.95792
 H1031 H 0.81754 0.57201 0.86615
 H1032 H 0.74537 0.54310 0.84040
 C1033 C 0.25072 0.40198 0.91618
 C1034 C 0.27741 0.40222 0.91722
 C1035 C 0.28976 0.38846 0.93654
 C1036 C 0.27558 0.37430 0.95461
 C1037 C 0.24877 0.37395 0.95263
 C1038 C 0.23630 0.38780 0.93368
 C1039 C 0.23754 0.41779 0.89720
 C1040 C 0.21084 0.41852 0.89721
 C1041 C 0.19839 0.43474 0.88036
 C1042 C 0.21240 0.45007 0.86343
 C1043 C 0.23915 0.44852 0.86292
 C1044 C 0.25187 0.43261 0.88011
 C1045 C 0.20962 0.38838 0.93250
 C1046 C 0.19709 0.40355 0.91461
 C1047 C 0.29112 0.41697 0.89952
 C1048 C 0.27857 0.43181 0.88121
 H1049 H 0.19832 0.37743 0.94590
 H1050 H 0.17647 0.40387 0.91468
 H1051 H 0.31172 0.41730 0.90005
 H1052 H 0.28987 0.44314 0.86815
 H1053 H 0.31024 0.39003 0.93843
 H1054 H 0.23754 0.36310 0.96622
 H1055 H 0.17778 0.43574 0.88068
 H1056 H 0.25001 0.46044 0.85005
 C1057 C 0.25630 0.59322 0.08715
 C1058 C 0.28289 0.59196 0.08462
 C1059 C 0.29496 0.60524 0.06457
 C1060 C 0.28056 0.61971 0.04715
 C1061 C 0.25392 0.62102 0.05056
 C1062 C 0.24175 0.60785 0.07035
 C1063 C 0.24329 0.57793 0.10688
 C1064 C 0.21661 0.57827 0.10833
 C1065 C 0.20419 0.56241 0.12570
 C1066 C 0.21816 0.54621 0.14158
 C1067 C 0.24495 0.54676 0.14075
 C1068 C 0.25765 0.56242 0.12308
 C1069 C 0.21516 0.60836 0.07305
 C1070 C 0.20279 0.59378 0.09171
 C1071 C 0.29668 0.57668 0.10158
 C1072 C 0.28429 0.56222 0.12052
 H1073 H 0.20377 0.61969 0.06023
 H1074 H 0.18220 0.59425 0.09278
 H1075 H 0.31721 0.57555 0.09991
 H1076 H 0.29563 0.55038 0.13287
 H1077 H 0.31527 0.60304 0.06159
 H1078 H 0.24257 0.63209 0.03741
 H1079 H 0.18356 0.56218 0.12641
 H1080 H 0.25576 0.53417 0.15281
 C1081 C 0.73231 0.41402 0.08934
 C1082 C 0.71728 0.42724 0.07170
 C1083 C 0.70602 0.41451 0.05112
 C1084 C 0.70899 0.38857 0.04840
 C1085 C 0.72344 0.37544 0.06686
 C1086 C 0.73551 0.38818 0.08712
 C1087 C 0.74604 0.42773 0.10968
 C1088 C 0.76277 0.41487 0.12605
 C1089 C 0.77740 0.42838 0.14392
 C1090 C 0.77480 0.45434 0.14560
 C1091 C 0.75729 0.46679 0.12982
 C1092 C 0.74314 0.45364 0.11149
 C1093 C 0.75162 0.37581 0.10451
 C1094 C 0.76516 0.38895 0.12352
 C1095 C 0.71448 0.45308 0.07448
 C1096 C 0.72705 0.46604 0.09417
 H1097 H 0.75430 0.35589 0.10300
 H1098 H 0.77787 0.37878 0.13608
 H1099 H 0.70278 0.46342 0.06107
 H1100 H 0.72471 0.48603 0.09540
 H1101 H 0.69502 0.42479 0.03702
 H1102 H 0.72669 0.35567 0.06443
 H1103 H 0.79122 0.41894 0.15592
 H1104 H 0.75577 0.48689 0.13088
 C1105 C 0.92111 0.75151 0.59632
 C1106 C 0.92184 0.72543 0.59532
 C1107 C 0.94125 0.71273 0.60842
 C1108 C 0.95966 0.72593 0.62284
 C1109 C 0.95813 0.75216 0.62383
 C1110 C 0.93911 0.76498 0.61055
 C1111 C 0.90183 0.76506 0.58125
 C1112 C 0.90208 0.79118 0.58117
 C1113 C 0.88487 0.80399 0.56550
 C1114 C 0.86736 0.79090 0.55012
 C1115 C 0.86665 0.76473 0.55112
 C1116 C 0.88417 0.75167 0.56641
 C1117 C 0.93821 0.79109 0.61068
 C1118 C 0.92005 0.80398 0.59615
 C1119 C 0.90363 0.71265 0.58055
 C1120 C 0.88504 0.72554 0.56645
 H1121 H 0.95198 0.80167 0.62168
 H1122 H 0.92033 0.82413 0.59633
 H1123 H 0.90393 0.69252 0.57965
 H1124 H 0.87156 0.71497 0.55508
 H1125 H 0.94278 0.69274 0.60620
 H1126 H 0.97197 0.76266 0.63487
 H1127 H 0.88541 0.82414 0.56486
 H1128 H 0.85338 0.75458 0.53908
 C1129 C 0.90972 0.24749 0.39513
 C1130 C 0.92742 0.23310 0.38138
 C1131 C 0.94746 0.24495 0.36838
 C1132 C 0.95015 0.27110 0.36906
 C1133 C 0.93191 0.28524 0.38281
 C1134 C 0.91164 0.27352 0.39576
 C1135 C 0.88963 0.23495 0.41031
 C1136 C 0.87259 0.24925 0.42508
 C1137 C 0.85479 0.23714 0.44105
 C1138 C 0.85456 0.21099 0.44280
 C1139 C 0.87113 0.19698 0.42711
 C1140 C 0.88874 0.20885 0.41089
 C1141 C 0.89382 0.28724 0.41020
 C1142 C 0.87458 0.27532 0.42454
 C1143 C 0.92528 0.20706 0.38160
 C1144 C 0.90628 0.19512 0.39616
 H1145 H 0.89503 0.30735 0.41080
 H1146 H 0.86156 0.28658 0.43582
 H1147 H 0.93879 0.19578 0.37094
 H1148 H 0.90569 0.17498 0.39636
 H1149 H 0.96119 0.23377 0.35787
 H1150 H 0.93429 0.30518 0.38472
 H1151 H 0.84228 0.24804 0.45330
 H1152 H 0.87101 0.17684 0.42833
 C1153 C 0.08794 0.25503 0.59648
 C1154 C 0.07067 0.24209 0.61236
 C1155 C 0.05141 0.25528 0.62505
 C1156 C 0.04899 0.28110 0.62156
 C1157 C 0.06690 0.29402 0.60633
 C1158 C 0.08649 0.28100 0.59366
 C1159 C 0.10685 0.24093 0.58129
 C1160 C 0.12344 0.25367 0.56450
 C1161 C 0.14017 0.23998 0.54874
 C1162 C 0.13968 0.21378 0.54921
 C1163 C 0.12345 0.20139 0.56671
 C1164 C 0.10702 0.21485 0.58280
 C1165 C 0.10392 0.29317 0.57726
 C1166 C 0.12213 0.27975 0.56301
 C1167 C 0.07219 0.21608 0.61419
 C1168 C 0.09003 0.20267 0.59960
 H1169 H 0.10310 0.31319 0.57499
 H1170 H 0.13484 0.28983 0.55019
 H1171 H 0.05899 0.20594 0.62645
 H1172 H 0.09011 0.18256 0.60103
 H1173 H 0.03739 0.24535 0.63658
 H1174 H 0.06476 0.31387 0.60335
 H1175 H 0.15246 0.24959 0.53512
 H1176 H 0.12310 0.18122 0.56724
 C1177 C 0.08341 0.73624 0.41617
 C1178 C 0.08594 0.73294 0.38937
 C1179 C 0.06650 0.72066 0.37575
 C1180 C 0.04473 0.71149 0.38885
 C1181 C 0.04314 0.71450 0.41595
 C1182 C 0.06218 0.72697 0.42959
 C1183 C 0.10279 0.75064 0.43033
 C1184 C 0.09939 0.75501 0.45688
 C1185 C 0.11696 0.76991 0.46995
 C1186 C 0.13794 0.78011 0.45680
 C1187 C 0.14169 0.77505 0.43039
 C1188 C 0.12383 0.76052 0.41690
 C1189 C 0.05992 0.73103 0.45632
 C1190 C 0.07818 0.74491 0.46973
 C1191 C 0.10742 0.74279 0.37665
 C1192 C 0.12610 0.75622 0.39019
 H1193 H 0.04361 0.72387 0.46686
 H1194 H 0.07549 0.74805 0.49024
 H1195 H 0.10967 0.74036 0.35598
 H1196 H 0.14219 0.76371 0.37957
 H1197 H 0.06763 0.71966 0.35486
 H1198 H 0.02674 0.70741 0.42644
 H1199 H 0.11424 0.77385 0.49035
 H1200 H 0.15783 0.78313 0.42031
 C1201 C 0.60439 0.91338 0.75174
 C1202 C 0.60450 0.91539 0.72466
 C1203 C 0.61833 0.93474 0.71292
 C1204 C 0.63188 0.95184 0.72819
 C1205 C 0.63253 0.94883 0.75517
 C1206 C 0.61857 0.92983 0.76710
 C1207 C 0.58790 0.89473 0.76435
 C1208 C 0.58647 0.89399 0.79145
 C1209 C 0.56926 0.87767 0.80334
 C1210 C 0.55365 0.86208 0.78838
 C1211 C 0.55604 0.86224 0.76126
 C1212 C 0.57290 0.87888 0.74910
 C1213 C 0.61746 0.92778 0.79413
 C1214 C 0.60160 0.91019 0.80612
 C1215 C 0.58978 0.89875 0.71002
 C1216 C 0.57434 0.88073 0.72203
 H1217 H 0.62838 0.94035 0.80614
 H1218 H 0.60076 0.90965 0.82704
 H1219 H 0.58978 0.90001 0.68912
 H1220 H 0.56291 0.86859 0.71004
 H1221 H 0.61752 0.93735 0.69216
 H1222 H 0.64277 0.96221 0.76689
 H1223 H 0.56761 0.87746 0.82424
 H1224 H 0.54391 0.85037 0.74968
 C1225 C 0.39633 0.91500 0.24195
 C1226 C 0.38658 0.93402 0.22632
 C1227 C 0.37318 0.95359 0.23780
 C1228 C 0.36928 0.95446 0.26482
 C1229 C 0.37876 0.93479 0.28016
 C1230 C 0.39238 0.91509 0.26880
 C1231 C 0.41195 0.89525 0.23006
 C1232 C 0.42279 0.87681 0.24576
 C1233 C 0.43903 0.85903 0.23451
 C1234 C 0.44469 0.85997 0.20785
 C1235 C 0.43287 0.87811 0.19235
 C1236 C 0.41666 0.89585 0.20334
 C1237 C 0.40297 0.89594 0.28381
 C1238 C 0.41790 0.87714 0.27250
 C1239 C 0.39107 0.93353 0.19955
 C1240 C 0.40584 0.91475 0.18824
 H1241 H 0.40008 0.89573 0.30456
 H1242 H 0.42607 0.86302 0.28486
 H1243 H 0.38351 0.94807 0.18729
 H1244 H 0.40928 0.91534 0.16759
 H1245 H 0.36583 0.96835 0.22564
 H1246 H 0.37688 0.93555 0.30102
 H1247 H 0.44812 0.84525 0.24663
 H1248 H 0.43698 0.87898 0.17182
 C1249 C 0.57822 0.08298 0.27104
 C1250 C 0.60416 0.08568 0.27679
 C1251 C 0.61695 0.06614 0.28928
 C1252 C 0.60391 0.04397 0.29592
 C1253 C 0.57756 0.04231 0.29087
 C1254 C 0.56476 0.06151 0.27827
 C1255 C 0.56517 0.10244 0.25604
 C1256 C 0.53961 0.09892 0.24913
 C1257 C 0.52775 0.11656 0.23347
 C1258 C 0.54111 0.13768 0.22498
 C1259 C 0.56643 0.14157 0.23266
 C1260 C 0.57874 0.12368 0.24801
 C1261 C 0.53894 0.05915 0.27183
 C1262 C 0.52658 0.07753 0.25741
 C1263 C 0.61699 0.10740 0.26890
 C1264 C 0.60448 0.12612 0.25486
 H1265 H 0.52837 0.04267 0.27743
 H1266 H 0.50680 0.07477 0.25232
 H1267 H 0.63700 0.10978 0.27326
 H1268 H 0.61519 0.14238 0.24885
 H1269 H 0.63733 0.06752 0.29210
 H1270 H 0.56707 0.02569 0.29628
 H1271 H 0.50815 0.11378 0.22758
 H1272 H 0.57665 0.15789 0.22594
 C1273 C 0.40462 0.08617 0.74793
 C1274 C 0.39303 0.06733 0.76263
 C1275 C 0.38074 0.04773 0.75000
 C1276 C 0.37973 0.04671 0.72274
 C1277 C 0.39111 0.06614 0.70829
 C1278 C 0.40365 0.08585 0.72082
 C1279 C 0.41904 0.10595 0.76120
 C1280 C 0.43173 0.12419 0.74655
 C1281 C 0.44686 0.14197 0.75926
 C1282 C 0.44958 0.14121 0.78636
 C1283 C 0.43589 0.12331 0.80071
 C1284 C 0.42077 0.10558 0.78826
 C1285 C 0.41603 0.10480 0.70683
 C1286 C 0.42982 0.12363 0.71946
 C1287 C 0.39455 0.06804 0.78971
 C1288 C 0.40818 0.08686 0.80231
 H1289 H 0.41544 0.10484 0.68590
 H1290 H 0.43947 0.13759 0.70789
 H1291 H 0.38555 0.05365 0.80124
 H1292 H 0.40932 0.08644 0.82321
 H1293 H 0.37195 0.03312 0.76145
 H1294 H 0.39147 0.06520 0.68736
 H1295 H 0.45745 0.15555 0.74803
 H1296 H 0.43774 0.12259 0.82155
 C1297 C 0.60386 0.74363 0.09186
 C1298 C 0.62108 0.75733 0.07661
 C1299 C 0.63373 0.74551 0.05618
 C1300 C 0.62896 0.72034 0.05067
 C1301 C 0.61231 0.70657 0.06660
 C1302 C 0.59962 0.71820 0.08727
 C1303 C 0.58872 0.75656 0.11182
 C1304 C 0.57046 0.74322 0.12615
 C1305 C 0.55452 0.75608 0.14346
 C1306 C 0.55634 0.78212 0.14566
 C1307 C 0.57539 0.79501 0.13191
 C1308 C 0.59163 0.78235 0.11495
 C1309 C 0.58183 0.70529 0.10262
 C1310 C 0.56755 0.71756 0.12177
 C1311 C 0.62431 0.78287 0.08122
 C1312 C 0.60978 0.79519 0.10004
 H1313 H 0.57845 0.68565 0.09936
 H1314 H 0.55357 0.70703 0.13269
 H1315 H 0.63761 0.79359 0.06963
 H1316 H 0.61227 0.81507 0.10242
 H1317 H 0.64633 0.75613 0.04368
 H1318 H 0.60833 0.68728 0.06205
 H1319 H 0.53956 0.74619 0.15370
 H1320 H 0.57675 0.81508 0.13355
 C1321 C 0.40995 0.25950 0.08118
 C1322 C 0.41032 0.28563 0.08211
 C1323 C 0.39824 0.29919 0.06247
 C1324 C 0.38581 0.28662 0.04229
 C1325 C 0.38506 0.26049 0.04205
 C1326 C 0.39725 0.24681 0.06132
 C1327 C 0.42396 0.24513 0.10075
 C1328 C 0.42460 0.21908 0.09894
 C1329 C 0.43919 0.20557 0.11658
 C1330 C 0.45296 0.21787 0.13602
 C1331 C 0.45144 0.24395 0.13818
 C1332 C 0.43719 0.25773 0.12031
 C1333 C 0.39770 0.22071 0.06064
 C1334 C 0.41122 0.20706 0.07910
 C1335 C 0.42340 0.29758 0.10224
 C1336 C 0.43653 0.28387 0.12107
 H1337 H 0.38792 0.21076 0.04540
 H1338 H 0.41150 0.18696 0.07762
 H1339 H 0.42378 0.31771 0.10325
 H1340 H 0.44665 0.29382 0.13605
 H1341 H 0.39904 0.31934 0.06240
 H1342 H 0.37564 0.25090 0.02632
 H1343 H 0.44017 0.18548 0.11493
 H1344 H 0.46219 0.25352 0.15300
 C1345 C 0.60398 0.25496 0.91238
 C1346 C 0.61941 0.24113 0.92917
 C1347 C 0.63215 0.25335 0.94922
 C1348 C 0.62917 0.27911 0.95289
 C1349 C 0.61412 0.29285 0.93554
 C1350 C 0.60148 0.28084 0.91517
 C1351 C 0.58898 0.24190 0.89250
 C1352 C 0.57270 0.25555 0.87637
 C1353 C 0.55711 0.24280 0.85874
 C1354 C 0.55723 0.21662 0.85797
 C1355 C 0.57417 0.20332 0.87375
 C1356 C 0.59014 0.21585 0.89101
 C1357 C 0.58554 0.29395 0.89822
 C1358 C 0.57148 0.28154 0.87909
 C1359 C 0.62087 0.21520 0.92631
 C1360 C 0.60641 0.20276 0.90760
 H1361 H 0.58352 0.31392 0.90009
 H1362 H 0.55902 0.29230 0.86680
 H1363 H 0.63276 0.20435 0.93911
 H1364 H 0.60755 0.18266 0.90651
 H1365 H 0.64350 0.24273 0.96274
 H1366 H 0.61139 0.31261 0.93865
 H1367 H 0.54378 0.25306 0.84691
 H1368 H 0.57426 0.18316 0.87319
 C1369 C 0.40500 0.73983 0.91354
 C1370 C 0.40762 0.71381 0.91345
 C1371 C 0.39630 0.69983 0.93338
 C1372 C 0.38257 0.71187 0.95311
 C1373 C 0.37939 0.73780 0.95241
 C1374 C 0.39073 0.75192 0.93278
 C1375 C 0.41864 0.75481 0.89402
 C1376 C 0.41732 0.78088 0.89523
 C1377 C 0.43207 0.79510 0.87815
 C1378 C 0.44811 0.78347 0.85998
 C1379 C 0.44830 0.75733 0.85813
 C1380 C 0.43385 0.74286 0.87542
 C1381 C 0.38901 0.77798 0.93269
 C1382 C 0.40214 0.79223 0.91424
 C1383 C 0.42237 0.70247 0.89406
 C1384 C 0.43521 0.71675 0.87532
 H1385 H 0.37798 0.78747 0.94740
 H1386 H 0.40088 0.81232 0.91525
 H1387 H 0.42446 0.68243 0.89368
 H1388 H 0.44683 0.70730 0.86105
 H1389 H 0.39895 0.67985 0.93420
 H1390 H 0.36899 0.74698 0.96783
 H1391 H 0.43178 0.81521 0.87958
 H1392 H 0.46081 0.74828 0.84434
 C1393 C 0.74396 0.91707 0.40313
 C1394 C 0.75674 0.93614 0.38975
 C1395 C 0.74257 0.95511 0.37818
 C1396 C 0.71589 0.95526 0.38026
 C1397 C 0.70326 0.93563 0.39297
 C1398 C 0.71726 0.91644 0.40453
 C1399 C 0.75887 0.89829 0.41724
 C1400 C 0.74616 0.87989 0.43168
 C1401 C 0.76045 0.86318 0.44660
 C1402 C 0.78715 0.86530 0.44757
 C1403 C 0.79956 0.88333 0.43227
 C1404 C 0.78553 0.89991 0.41714
 C1405 C 0.70521 0.89728 0.41849
 C1406 C 0.71942 0.87928 0.43178
 C1407 C 0.78345 0.93654 0.38926
 C1408 C 0.79761 0.91872 0.40275
 H1409 H 0.68464 0.89653 0.41963
 H1410 H 0.70938 0.86515 0.44277
 H1411 H 0.79349 0.95112 0.37892
 H1412 H 0.81819 0.92006 0.40244
 H1413 H 0.75223 0.97043 0.36863
 H1414 H 0.68271 0.93603 0.39491
 H1415 H 0.75075 0.84945 0.45844
 H1416 H 0.82012 0.88498 0.43278
 C1417 C 0.25990 0.91966 0.59235
 C1418 C 0.24614 0.93621 0.60803
 C1419 C 0.25908 0.95534 0.62076
 C1420 C 0.28550 0.95830 0.61756
 C1421 C 0.29919 0.94134 0.60216
 C1422 C 0.28643 0.92185 0.58953
 C1423 C 0.24611 0.90036 0.57773
 C1424 C 0.25971 0.88414 0.56150
 C1425 C 0.24629 0.86658 0.54670
 C1426 C 0.21950 0.86582 0.54759
 C1427 C 0.20628 0.88192 0.56434
 C1428 C 0.21947 0.89916 0.57950
 C1429 C 0.29944 0.90499 0.57348
 C1430 C 0.28632 0.88640 0.55980
 C1431 C 0.21958 0.93387 0.60995
 C1432 C 0.20645 0.91570 0.59586
 H1433 H 0.31989 0.90639 0.57119
 H1434 H 0.29706 0.87401 0.54738
 H1435 H 0.20880 0.94653 0.62203
 H1436 H 0.18591 0.91484 0.59746
 H1437 H 0.24854 0.96856 0.63244
 H1438 H 0.31949 0.94387 0.59940
 H1439 H 0.25654 0.85435 0.53368
 H1440 H 0.18567 0.88130 0.56523
 C1441 C 0.24714 0.08229 0.39311
 C1442 C 0.23208 0.06680 0.37754
 C1443 C 0.24371 0.04772 0.36342
 C1444 C 0.27008 0.04368 0.36522
 C1445 C 0.28502 0.05959 0.38058
 C1446 C 0.27362 0.07908 0.39448
 C1447 C 0.23476 0.10141 0.40925
 C1448 C 0.24969 0.11652 0.42537
 C1449 C 0.23764 0.13378 0.44172
 C1450 C 0.21091 0.13523 0.44255
 C1451 C 0.19631 0.12029 0.42591
 C1452 C 0.20813 0.10344 0.40912
 C1453 C 0.28798 0.09487 0.41044
 C1454 C 0.27623 0.11336 0.42551
 C1455 C 0.20558 0.07005 0.37721
 C1456 C 0.19379 0.08800 0.39283
 H1457 H 0.30843 0.09268 0.41159
 H1458 H 0.28798 0.12488 0.43784
 H1459 H 0.19379 0.05822 0.36525
 H1460 H 0.17323 0.08951 0.39247
 H1461 H 0.23217 0.03530 0.35182
 H1462 H 0.30526 0.05619 0.38239
 H1463 H 0.24891 0.14507 0.45473
 H1464 H 0.17571 0.12146 0.42644
 C1465 C 0.75057 0.08991 0.60743
 C1466 C 0.76615 0.07528 0.62334
 C1467 C 0.75554 0.05492 0.63639
 C1468 C 0.72968 0.04897 0.63333
 C1469 C 0.71414 0.06407 0.61778
 C1470 C 0.72453 0.08465 0.60476
 C1471 C 0.76208 0.11015 0.59206
 C1472 C 0.74679 0.12402 0.57514
 C1473 C 0.75826 0.14175 0.55887
 C1474 C 0.78485 0.14488 0.55897
 C1475 C 0.79971 0.13160 0.57678
 C1476 C 0.78845 0.11417 0.59337
 C1477 C 0.70967 0.09945 0.58831
 C1478 C 0.72060 0.11884 0.57380
 C1479 C 0.79225 0.08065 0.62500
 C1480 C 0.80323 0.09974 0.61020
 H1481 H 0.68954 0.09565 0.58618
 H1482 H 0.70859 0.12940 0.56086
 H1483 H 0.80441 0.06955 0.63729
 H1484 H 0.82357 0.10280 0.61144
 H1485 H 0.76750 0.04310 0.64818
 H1486 H 0.69430 0.05919 0.61511
 H1487 H 0.74685 0.15167 0.54485
 H1488 H 0.82021 0.13399 0.57683
 C1489 C 0.91855 0.59692 0.25249
 C1490 C 0.93705 0.60916 0.23746
 C1491 C 0.95649 0.62241 0.24982
 C1492 C 0.95783 0.62302 0.27698
 C1493 C 0.93895 0.61093 0.29178
 C1494 C 0.91914 0.59796 0.27960
 C1495 C 0.89889 0.58181 0.23960
 C1496 C 0.88071 0.56910 0.25461
 C1497 C 0.86274 0.55387 0.24229
 C1498 C 0.86343 0.55080 0.21526
 C1499 C 0.88156 0.56396 0.20050
 C1500 C 0.89926 0.57960 0.21256
 C1501 C 0.90039 0.58531 0.29396
 C1502 C 0.88142 0.57123 0.28167
 C1503 C 0.93628 0.60716 0.21041
 C1504 C 0.91776 0.59255 0.19817
 H1505 H 0.90057 0.58603 0.31488
 H1506 H 0.86752 0.56151 0.29348
 H1507 H 0.95044 0.61654 0.19863
 H1508 H 0.91815 0.59108 0.17729
 H1509 H 0.97116 0.63149 0.23839
 H1510 H 0.94025 0.61090 0.31268
 H1511 H 0.84900 0.54356 0.25377
 H1512 H 0.88212 0.56173 0.17968
 C1513 C 0.91067 0.40076 0.74264
 C1514 C 0.92605 0.38536 0.75793
 C1515 C 0.94610 0.37233 0.74632
 C1516 C 0.95118 0.37501 0.71974
 C1517 C 0.93529 0.39009 0.70452
 C1518 C 0.91489 0.40298 0.71590
 C1519 C 0.89074 0.41593 0.75511
 C1520 C 0.87594 0.43208 0.74002
 C1521 C 0.85821 0.44773 0.75226
 C1522 C 0.85600 0.44780 0.77938
 C1523 C 0.87049 0.43105 0.79411
 C1524 C 0.88782 0.41500 0.78208
 C1525 C 0.89928 0.41885 0.70134
 C1526 C 0.88007 0.43306 0.71317
 C1527 C 0.92180 0.38416 0.78472
 C1528 C 0.90307 0.39881 0.79661
 H1529 H 0.90226 0.42066 0.68069
 H1530 H 0.86881 0.44543 0.70130
 H1531 H 0.93352 0.37230 0.79668
 H1532 H 0.90087 0.39785 0.81742
 H1533 H 0.95852 0.36094 0.75807
 H1534 H 0.93950 0.39253 0.68414
 H1535 H 0.84736 0.46090 0.74091
 H1536 H 0.86881 0.43112 0.81501
 C1537 C 0.08305 0.59106 0.73826
 C1538 C 0.08297 0.58920 0.71116
 C1539 C 0.06356 0.60099 0.69716
 C1540 C 0.04457 0.61445 0.71027
 C1541 C 0.04529 0.61661 0.73730
 C1542 C 0.06440 0.60484 0.75144
 C1543 C 0.10236 0.57746 0.75321
 C1544 C 0.10153 0.57835 0.78032
 C1545 C 0.11870 0.56401 0.79451
 C1546 C 0.13661 0.54882 0.78183
 C1547 C 0.13794 0.54890 0.75463
 C1548 C 0.12057 0.56299 0.74018
 C1549 C 0.06473 0.60593 0.77854
 C1550 C 0.08297 0.59286 0.79276
 C1551 C 0.10185 0.57501 0.69876
 C1552 C 0.12036 0.56217 0.71303
 H1553 H 0.05045 0.61657 0.78887
 H1554 H 0.08225 0.59374 0.81367
 H1555 H 0.10207 0.57349 0.67789
 H1556 H 0.13431 0.55111 0.70272
 H1557 H 0.06277 0.59921 0.67632
 H1558 H 0.03047 0.62688 0.74729
 H1559 H 0.11768 0.56413 0.81544
 H1560 H 0.15154 0.53706 0.74477
 C1561 C 0.08304 0.40414 0.26053
 C1562 C 0.06510 0.39056 0.24624
 C1563 C 0.04497 0.37888 0.25919
 C1564 C 0.04255 0.38090 0.28614
 C1565 C 0.06085 0.39412 0.30040
 C1566 C 0.08125 0.40585 0.28759
 C1567 C 0.10337 0.41775 0.24677
 C1568 C 0.12084 0.43211 0.26087
 C1569 C 0.13913 0.44632 0.24748
 C1570 C 0.13938 0.44663 0.22026
 C1571 C 0.12226 0.43150 0.20654
 C1572 C 0.10421 0.41705 0.21966
 C1573 C 0.09945 0.41988 0.30110
 C1574 C 0.11893 0.43274 0.28798
 C1575 C 0.06714 0.38962 0.21920
 C1576 C 0.08635 0.40269 0.20612
 H1577 H 0.09837 0.42128 0.32197
 H1578 H 0.13228 0.44371 0.29911
 H1579 H 0.05343 0.37912 0.20803
 H1580 H 0.08693 0.40195 0.18520
 H1581 H 0.03069 0.36879 0.24833
 H1582 H 0.05874 0.39578 0.32117
 H1583 H 0.15213 0.45814 0.25811
 H1584 H 0.12248 0.43159 0.18558
   
