data_POSCAR
  _audit_creation_date              2014-09-24
  _audit_creation_method            'ToBaCCo'
  _symmetry_space_group_name_H-M    'P1'
  _symmetry_Int_Tables_number       1
  _symmetry_cell_setting            triclinic
  loop_
  _symmetry_equiv_pos_as_xyz
 x,y,z
_cell_length_a 83.6704
_cell_length_b 83.7460
_cell_length_c 83.9329
_cell_angle_alpha 89.972300
_cell_angle_beta 89.972900
_cell_angle_gamma 89.928900
loop_
  _atom_site_label
  _atom_site_type_symbol
  _atom_site_fract_x
  _atom_site_fract_y
  _atom_site_fract_z
N1 N 0.35717 0.31286 0.32424
 N2 N 0.35679 0.32383 0.31302
 C3 C 0.36907 0.32139 0.30291
 C4 C 0.37747 0.30823 0.30815
 C5 C 0.36969 0.30308 0.32167
 H6 H 0.37175 0.32860 0.29256
 H7 H 0.37290 0.29299 0.32906
 Cu8 Cu 0.34032 0.34025 0.31300
 Cu9 Cu 0.34139 0.31199 0.34131
 Cu10 Cu 0.31200 0.34131 0.34128
 N11 N 0.32386 0.35667 0.31298
 N12 N 0.31287 0.35706 0.32419
 C13 C 0.30306 0.36955 0.32159
 C14 C 0.30823 0.37731 0.30806
 C15 C 0.32141 0.36893 0.30285
 H16 H 0.29296 0.37276 0.32897
 H17 H 0.32864 0.37161 0.29250
 N18 N 0.31317 0.32431 0.35751
 N19 N 0.32436 0.31315 0.35752
 C20 C 0.32181 0.30322 0.36990
 C21 C 0.30845 0.30842 0.37795
 C22 C 0.30323 0.32177 0.36989
 H23 H 0.32905 0.29292 0.37282
 H24 H 0.29291 0.32899 0.37280
 H25 H 0.32314 0.32308 0.32899
 H26 H 0.33616 0.33612 0.34146
 N27 N 0.35771 0.81318 -0.17593
 N28 N 0.35756 0.82436 -0.18696
 C29 C 0.36988 0.82191 -0.19704
 C30 C 0.37804 0.80853 -0.19196
 C31 C 0.37010 0.80325 -0.17858
 H32 H 0.37272 0.82925 -0.20726
 H33 H 0.37309 0.79298 -0.17135
 Cu34 Cu 0.34126 0.84098 -0.18697
 Cu35 Cu 0.34181 0.81224 -0.15900
 Cu36 Cu 0.31244 0.84147 -0.15904
 N37 N 0.32455 0.85720 -0.18702
 N38 N 0.31334 0.85734 -0.17601
 C39 C 0.30336 0.86968 -0.17871
 C40 C 0.30865 0.87760 -0.19210
 C41 C 0.32207 0.86948 -0.19713
 H42 H 0.29307 0.87266 -0.17150
 H43 H 0.32944 0.87232 -0.20734
 N44 N 0.31352 0.82441 -0.14287
 N45 N 0.32472 0.81326 -0.14287
 C46 C 0.32216 0.80330 -0.13051
 C47 C 0.30877 0.80846 -0.12247
 C48 C 0.30355 0.82181 -0.13052
 H49 H 0.32943 0.79302 -0.12759
 H50 H 0.29323 0.82903 -0.12760
 H51 H 0.32384 0.82353 -0.17155
 H52 H 0.33664 0.83638 -0.15863
 N53 N 0.85697 0.31349 -0.17585
 N54 N 0.85665 0.32454 -0.18700
 C55 C 0.86888 0.32205 -0.19717
 C56 C 0.87716 0.30877 -0.19205
 C57 C 0.86937 0.30360 -0.17854
 H58 H 0.87164 0.32934 -0.20744
 H59 H 0.87251 0.29343 -0.17123
 Cu60 Cu 0.84047 0.34126 -0.18676
 Cu61 Cu 0.84128 0.31263 -0.15868
 Cu62 Cu 0.81106 0.34096 -0.15978
 N63 N 0.82414 0.35786 -0.18653
 N64 N 0.81281 0.35786 -0.17564
 C65 C 0.80303 0.37040 -0.17812
 C66 C 0.80859 0.37860 -0.19123
 C67 C 0.82196 0.37042 -0.19634
 H68 H 0.79256 0.37319 -0.17108
 H69 H 0.82938 0.37333 -0.20649
 N70 N 0.81270 0.32471 -0.14286
 N71 N 0.82418 0.31386 -0.14251
 C72 C 0.82185 0.30421 -0.12986
 C73 C 0.80834 0.30930 -0.12197
 C74 C 0.80281 0.32229 -0.13041
 H75 H 0.82928 0.29413 -0.12670
 H76 H 0.79230 0.32932 -0.12774
 H77 H 0.82351 0.32302 -0.17165
 H78 H 0.83535 0.33661 -0.15861
 N79 N 0.85723 0.81360 0.32459
 N80 N 0.85692 0.82464 0.31342
 C81 C 0.86922 0.82218 0.30333
 C82 C 0.87754 0.80895 0.30851
 C83 C 0.86970 0.80376 0.32198
 H84 H 0.87192 0.82940 0.29299
 H85 H 0.87280 0.79358 0.32929
 Cu86 Cu 0.84037 0.84098 0.31316
 Cu87 Cu 0.84135 0.81266 0.34152
 Cu88 Cu 0.81200 0.84194 0.34150
 N89 N 0.82398 0.85749 0.31338
 N90 N 0.81292 0.85780 0.32454
 C91 C 0.80306 0.87024 0.32193
 C92 C 0.80827 0.87805 0.30845
 C93 C 0.82153 0.86976 0.30327
 H94 H 0.79286 0.87334 0.32924
 H95 H 0.82877 0.87246 0.29294
 N96 N 0.81306 0.82487 0.35764
 N97 N 0.82424 0.81371 0.35764
 C98 C 0.82167 0.80375 0.37000
 C99 C 0.80829 0.80893 0.37804
 C100 C 0.80309 0.82229 0.37000
 H101 H 0.82893 0.79347 0.37293
 H102 H 0.79280 0.82954 0.37293
 H103 H 0.82317 0.82378 0.32913
 H104 H 0.83620 0.83681 0.34162
 N105 N 0.64279 0.68709 0.32451
 N106 N 0.64295 0.67589 0.31352
 C107 C 0.63067 0.67835 0.30342
 C108 C 0.62252 0.69175 0.30842
 C109 C 0.63044 0.69704 0.32179
 H110 H 0.62784 0.67100 0.29321
 H111 H 0.62744 0.70733 0.32898
 Cu112 Cu 0.65921 0.65927 0.31353
 Cu113 Cu 0.65864 0.68802 0.34145
 Cu114 Cu 0.68800 0.65874 0.34144
 N115 N 0.67588 0.64307 0.31349
 N116 N 0.68710 0.64292 0.32447
 C117 C 0.69707 0.63059 0.32174
 C118 C 0.69177 0.62268 0.30837
 C119 C 0.67835 0.63081 0.30338
 H120 H 0.70737 0.62759 0.32893
 H121 H 0.67098 0.62797 0.29319
 N122 N 0.68688 0.67578 0.35759
 N123 N 0.67570 0.68694 0.35759
 C124 C 0.67821 0.69686 0.36998
 C125 C 0.69156 0.69164 0.37804
 C126 C 0.69680 0.67832 0.36998
 H127 H 0.67095 0.70713 0.37291
 H128 H 0.70710 0.67108 0.37291
 H129 H 0.67666 0.67672 0.32892
 H130 H 0.66385 0.66389 0.34185
 N131 N 0.64281 0.18661 -0.17560
 N132 N 0.64296 0.17540 -0.18658
 C133 C 0.63064 0.17781 -0.19665
 C134 C 0.62246 0.19120 -0.19163
 C135 C 0.63041 0.19652 -0.17829
 H136 H 0.62782 0.17046 -0.20686
 H137 H 0.62743 0.20683 -0.17113
 Cu138 Cu 0.65945 0.15899 -0.18667
 Cu139 Cu 0.65875 0.18764 -0.15872
 Cu140 Cu 0.68814 0.15833 -0.15872
 N141 N 0.67589 0.14251 -0.18658
 N142 N 0.68712 0.14238 -0.17560
 C143 C 0.69704 0.12998 -0.17828
 C144 C 0.69167 0.12202 -0.19161
 C145 C 0.67827 0.13018 -0.19663
 H146 H 0.70737 0.12702 -0.17112
 H147 H 0.67090 0.12738 -0.20684
 N148 N 0.68710 0.17550 -0.14265
 N149 N 0.67591 0.18665 -0.14265
 C150 C 0.67846 0.19663 -0.13032
 C151 C 0.69184 0.19147 -0.12228
 C152 C 0.69707 0.17811 -0.13030
 H153 H 0.67118 0.20689 -0.12740
 H154 H 0.70737 0.17087 -0.12736
 H155 H 0.67686 0.17640 -0.17116
 H156 H 0.66401 0.16353 -0.15833
 N157 N 0.14279 0.68695 -0.17555
 N158 N 0.14290 0.67572 -0.18651
 C159 C 0.13062 0.67818 -0.19661
 C160 C 0.12251 0.69161 -0.19163
 C161 C 0.13045 0.69692 -0.17828
 H162 H 0.12776 0.67081 -0.20679
 H163 H 0.12748 0.70723 -0.17111
 Cu164 Cu 0.15912 0.65906 -0.18648
 Cu165 Cu 0.15865 0.68788 -0.15862
 Cu166 Cu 0.18795 0.65855 -0.15860
 N167 N 0.17576 0.64283 -0.18650
 N168 N 0.18699 0.64269 -0.17553
 C169 C 0.19694 0.63034 -0.17825
 C170 C 0.19161 0.62241 -0.19160
 C171 C 0.17819 0.63054 -0.19658
 H172 H 0.20725 0.62735 -0.17108
 H173 H 0.17080 0.62769 -0.20676
 N174 N 0.18688 0.67562 -0.14249
 N175 N 0.17572 0.68679 -0.14249
 C176 C 0.17826 0.69672 -0.13012
 C177 C 0.19160 0.69149 -0.12205
 C178 C 0.19681 0.67814 -0.13011
 H179 H 0.17101 0.70701 -0.12719
 H180 H 0.20710 0.67089 -0.12717
 H181 H 0.17662 0.67651 -0.17116
 H182 H 0.16380 0.66374 -0.15817
 N183 N 0.14276 0.18698 0.32447
 N184 N 0.14290 0.17581 0.31345
 C185 C 0.13057 0.17825 0.30341
 C186 C 0.12241 0.19162 0.30847
 C187 C 0.13037 0.19690 0.32182
 H188 H 0.12772 0.17092 0.29320
 H189 H 0.12739 0.20719 0.32902
 Cu190 Cu 0.15929 0.15930 0.31326
 Cu191 Cu 0.15867 0.18793 0.34135
 Cu192 Cu 0.18798 0.15868 0.34132
 N193 N 0.17584 0.14296 0.31340
 N194 N 0.18703 0.14280 0.32441
 C195 C 0.19697 0.13044 0.32172
 C196 C 0.19168 0.12251 0.30836
 C197 C 0.17828 0.13065 0.30333
 H198 H 0.20728 0.12746 0.32891
 H199 H 0.17093 0.12782 0.29312
 N200 N 0.18695 0.17576 0.35742
 N201 N 0.17578 0.18691 0.35743
 C202 C 0.17834 0.19687 0.36977
 C203 C 0.19171 0.19167 0.37781
 C204 C 0.19692 0.17832 0.36977
 H205 H 0.17107 0.20714 0.37271
 H206 H 0.20721 0.17107 0.37269
 H207 H 0.17668 0.17667 0.32877
 H208 H 0.16379 0.16376 0.34159
 N209 N 0.64281 0.31299 0.67578
 N210 N 0.64318 0.32397 0.68699
 C211 C 0.63089 0.32154 0.69710
 C212 C 0.62250 0.30839 0.69187
 C213 C 0.63030 0.30322 0.67836
 H214 H 0.62820 0.32876 0.70744
 H215 H 0.62711 0.29313 0.67099
 Cu216 Cu 0.65964 0.34036 0.68699
 Cu217 Cu 0.65861 0.31209 0.65872
 Cu218 Cu 0.68797 0.34137 0.65872
 N219 N 0.67608 0.35678 0.68699
 N220 N 0.68708 0.35715 0.67578
 C221 C 0.69687 0.36963 0.67836
 C222 C 0.69169 0.37742 0.69187
 C223 C 0.67852 0.36905 0.69710
 H224 H 0.70698 0.37281 0.67098
 H225 H 0.67128 0.37174 0.70743
 N226 N 0.68684 0.32434 0.64251
 N227 N 0.67566 0.31320 0.64252
 C228 C 0.67823 0.30325 0.63015
 C229 C 0.69159 0.30842 0.62210
 C230 C 0.69679 0.32177 0.63014
 H231 H 0.67100 0.29297 0.62724
 H232 H 0.70710 0.32897 0.62722
 H233 H 0.67685 0.32315 0.67102
 H234 H 0.66383 0.33620 0.65854
 N235 N 0.64278 0.81310 1.17586
 N236 N 0.64317 0.82406 1.18708
 C237 C 0.63090 0.82164 1.19720
 C238 C 0.62251 0.80850 1.19197
 C239 C 0.63028 0.80334 1.17845
 H240 H 0.62822 0.82885 1.20755
 H241 H 0.62707 0.79325 1.17107
 Cu242 Cu 0.65962 0.84045 1.18708
 Cu243 Cu 0.65857 0.81220 1.15879
 Cu244 Cu 0.68793 0.84147 1.15880
 N245 N 0.67605 0.85685 1.18708
 N246 N 0.68704 0.85722 1.17586
 C247 C 0.69683 0.86969 1.17845
 C248 C 0.69166 0.87746 1.19196
 C249 C 0.67849 0.86910 1.19719
 H250 H 0.70694 0.87288 1.17107
 H251 H 0.67126 0.87179 1.20754
 N252 N 0.68678 0.82448 1.14259
 N253 N 0.67561 0.81334 1.14258
 C254 C 0.67817 0.80341 1.13021
 C255 C 0.69154 0.80859 1.12217
 C256 C 0.69674 0.82192 1.13023
 H257 H 0.67095 0.79312 1.12729
 H258 H 0.70705 0.82913 1.12732
 H259 H 0.67680 0.82324 1.17110
 H260 H 0.66377 0.83631 1.15863
 N261 N 0.14271 0.31331 1.17559
 N262 N 0.14283 0.32451 1.18659
 C263 C 0.13049 0.32210 1.19663
 C264 C 0.12235 0.30873 1.19160
 C265 C 0.13033 0.30341 1.17826
 H266 H 0.12762 0.32946 1.20682
 H267 H 0.12738 0.29310 1.17108
 Cu268 Cu 0.15914 0.34106 1.18680
 Cu269 Cu 0.15864 0.31233 1.15873
 Cu270 Cu 0.18787 0.34155 1.15867
 N271 N 0.17570 0.35737 1.18652
 N272 N 0.18690 0.35748 1.17550
 C273 C 0.19681 0.36986 1.17812
 C274 C 0.19149 0.37785 1.19145
 C275 C 0.17811 0.36972 1.19652
 H276 H 0.20712 0.37280 1.17092
 H277 H 0.17076 0.37259 1.20673
 N278 N 0.18691 0.32444 1.14263
 N279 N 0.17575 0.31329 1.14264
 C280 C 0.17833 0.30333 1.13030
 C281 C 0.19170 0.30851 1.12225
 C282 C 0.19688 0.32186 1.13028
 H283 H 0.17108 0.29306 1.12737
 H284 H 0.20715 0.32911 1.12732
 H285 H 0.17658 0.32362 1.17139
 H286 H 0.16364 0.33653 1.15851
 N287 N 0.14242 0.81354 0.67522
 N288 N 0.14251 0.82480 0.68615
 C289 C 0.13021 0.82239 0.69624
 C290 C 0.12212 0.80895 0.69131
 C291 C 0.13009 0.80360 0.67798
 H292 H 0.12736 0.82977 0.70643
 H293 H 0.12717 0.79323 0.67088
 Cu294 Cu 0.15887 0.84127 0.68620
 Cu295 Cu 0.15841 0.81247 0.65837
 Cu296 Cu 0.18772 0.84175 0.65838
 N297 N 0.17531 0.85767 0.68610
 N298 N 0.18661 0.85774 0.67519
 C299 C 0.19653 0.87008 0.67791
 C300 C 0.19111 0.87808 0.69120
 C301 C 0.17767 0.86999 0.69615
 H302 H 0.20694 0.87297 0.67084
 H303 H 0.17027 0.87284 0.70633
 N304 N 0.18679 0.82457 0.64237
 N305 N 0.17561 0.81343 0.64235
 C306 C 0.17821 0.80348 0.63000
 C307 C 0.19161 0.80864 0.62199
 C308 C 0.19679 0.82198 0.63004
 H309 H 0.17093 0.79325 0.62701
 H310 H 0.20706 0.82923 0.62709
 H311 H 0.17637 0.82378 0.67084
 H312 H 0.16356 0.83660 0.65788
 N313 N 0.35733 0.68693 0.67562
 N314 N 0.35719 0.67574 0.68663
 C315 C 0.36952 0.67816 0.69668
 C316 C 0.37767 0.69153 0.69164
 C317 C 0.36971 0.69684 0.67828
 H318 H 0.37236 0.67081 0.70690
 H319 H 0.37267 0.70714 0.67109
 Cu320 Cu 0.34083 0.65922 0.68677
 Cu321 Cu 0.34142 0.68792 0.65872
 Cu322 Cu 0.31217 0.65866 0.65867
 N323 N 0.32431 0.64286 0.68659
 N324 N 0.31314 0.64273 0.67556
 C325 C 0.30323 0.63035 0.67820
 C326 C 0.30853 0.62236 0.69155
 C327 C 0.32189 0.63051 0.69662
 H328 H 0.29295 0.62739 0.67099
 H329 H 0.32923 0.62765 0.70683
 N330 N 0.31318 0.67578 0.64259
 N331 N 0.32433 0.68693 0.64260
 C332 C 0.32177 0.69691 0.63025
 C333 C 0.30842 0.69173 0.62219
 C334 C 0.30323 0.67836 0.63022
 H335 H 0.32901 0.70718 0.62733
 H336 H 0.29296 0.67112 0.62728
 H337 H 0.32340 0.67663 0.67126
 H338 H 0.33634 0.66375 0.65844
 N339 N 0.35737 0.18678 1.17565
 N340 N 0.35722 0.17559 1.18667
 C341 C 0.36953 0.17801 1.19674
 C342 C 0.37770 0.19137 1.19169
 C343 C 0.36976 0.19668 1.17832
 H344 H 0.37239 0.17063 1.20692
 H345 H 0.37277 0.20694 1.17109
 Cu346 Cu 0.34105 0.15891 1.18664
 Cu347 Cu 0.34153 0.18770 1.15869
 Cu348 Cu 0.31226 0.15846 1.15869
 N349 N 0.32436 0.14276 1.18666
 N350 N 0.31318 0.14262 1.17564
 C351 C 0.30326 0.13026 1.17830
 C352 C 0.30854 0.12232 1.19167
 C353 C 0.32191 0.13046 1.19673
 H354 H 0.29299 0.12726 1.17107
 H355 H 0.32928 0.12758 1.20692
 N356 N 0.31332 0.17550 1.14254
 N357 N 0.32447 0.18665 1.14254
 C358 C 0.32190 0.19660 1.13017
 C359 C 0.30855 0.19140 1.12213
 C360 C 0.30336 0.17806 1.13019
 H361 H 0.32912 0.20690 1.12725
 H362 H 0.29306 0.17084 1.12728
 H363 H 0.32361 0.17634 1.17123
 H364 H 0.33647 0.16350 1.15829
 N365 N 0.85732 0.68675 1.17562
 N366 N 0.85693 0.67581 1.18688
 C367 C 0.86923 0.67823 1.19694
 C368 C 0.87764 0.69133 1.19165
 C369 C 0.86985 0.69649 1.17814
 H370 H 0.87187 0.67108 1.20735
 H371 H 0.87302 0.70660 1.17077
 Cu372 Cu 0.84030 0.65959 1.18734
 Cu373 Cu 0.84144 0.68771 1.15871
 Cu374 Cu 0.81202 0.65862 1.15887
 N375 N 0.82398 0.64307 1.18696
 N376 N 0.81294 0.64278 1.17580
 C377 C 0.80317 0.63027 1.17833
 C378 C 0.80842 0.62238 1.19175
 C379 C 0.82160 0.63071 1.19698
 H380 H 0.79302 0.62716 1.17100
 H381 H 0.82885 0.62796 1.20728
 N382 N 0.81309 0.67566 1.14272
 N383 N 0.82434 0.68672 1.14263
 C384 C 0.82180 0.69664 1.13024
 C385 C 0.80837 0.69153 1.12227
 C386 C 0.80311 0.67825 1.13039
 H387 H 0.82910 0.70686 1.12724
 H388 H 0.79276 0.67109 1.12753
 H389 H 0.82317 0.67680 1.17123
 H390 H 0.83620 0.66358 1.15887
 N391 N 0.85714 0.18686 0.67572
 N392 N 0.85677 0.17588 0.68694
 C393 C 0.86902 0.17832 0.69707
 C394 C 0.87738 0.19149 0.69186
 C395 C 0.86962 0.19666 0.67833
 H396 H 0.87170 0.17110 0.70741
 H397 H 0.87282 0.20675 0.67095
 Cu398 Cu 0.84037 0.15944 0.68691
 Cu399 Cu 0.84140 0.18772 0.65863
 Cu400 Cu 0.81212 0.15836 0.65860
 N401 N 0.82400 0.14299 0.68689
 N402 N 0.81302 0.14260 0.67567
 C403 C 0.80327 0.13009 0.67824
 C404 C 0.80845 0.12231 0.69174
 C405 C 0.82159 0.13071 0.69699
 H406 H 0.79318 0.12689 0.67085
 H407 H 0.82880 0.12803 0.70734
 N408 N 0.81327 0.17537 0.64239
 N409 N 0.82441 0.18654 0.64239
 C410 C 0.82187 0.19645 0.62999
 C411 C 0.80855 0.19122 0.62192
 C412 C 0.80335 0.17789 0.63000
 H413 H 0.82908 0.20675 0.62707
 H414 H 0.79306 0.17065 0.62708
 H415 H 0.82316 0.17660 0.67091
 H416 H 0.83625 0.16358 0.65846
 N417 N 0.31290 0.35722 0.67564
 N418 N 0.32390 0.35684 0.68685
 C419 C 0.32146 0.36911 0.69694
 C420 C 0.30829 0.37750 0.69171
 C421 C 0.30311 0.36973 0.67822
 H422 H 0.32869 0.37180 0.70728
 H423 H 0.29301 0.37293 0.67084
 Cu424 Cu 0.34033 0.34040 0.68686
 Cu425 Cu 0.31202 0.34145 0.65860
 Cu426 Cu 0.34138 0.31210 0.65863
 N427 N 0.35678 0.32397 0.68688
 N428 N 0.35716 0.31298 0.67568
 C429 C 0.36967 0.30319 0.67828
 C430 C 0.37744 0.30836 0.69178
 C431 C 0.36905 0.32153 0.69699
 H432 H 0.37287 0.29308 0.67092
 H433 H 0.37173 0.32876 0.70733
 N434 N 0.32435 0.31325 0.64243
 N435 N 0.31318 0.32442 0.64242
 C436 C 0.30324 0.32187 0.63005
 C437 C 0.30846 0.30852 0.62201
 C438 C 0.32181 0.30331 0.63007
 H439 H 0.29294 0.32911 0.62713
 H440 H 0.32904 0.29301 0.62716
 H441 H 0.32313 0.32323 0.67093
 H442 H 0.33616 0.33623 0.65842
 N443 N 0.31330 0.85761 0.17521
 N444 N 0.32444 0.85739 0.18627
 C445 C 0.32208 0.86976 0.19627
 C446 C 0.30881 0.87805 0.19113
 C447 C 0.30349 0.87010 0.17778
 H448 H 0.32938 0.87253 0.20653
 H449 H 0.29323 0.87315 0.17055
 Cu450 Cu 0.34076 0.84084 0.18656
 Cu451 Cu 0.31225 0.84164 0.15839
 Cu452 Cu 0.34153 0.81228 0.15846
 N453 N 0.35724 0.82444 0.18638
 N454 N 0.35745 0.81329 0.17534
 C455 C 0.36989 0.80343 0.17798
 C456 C 0.37780 0.80873 0.19135
 C457 C 0.36957 0.82204 0.19644
 H458 H 0.37293 0.79317 0.17076
 H459 H 0.37235 0.82934 0.20669
 N460 N 0.32439 0.81328 0.14239
 N461 N 0.31323 0.82446 0.14237
 C462 C 0.30327 0.82189 0.13002
 C463 C 0.30846 0.80851 0.12201
 C464 C 0.32182 0.80331 0.13006
 H465 H 0.29300 0.82916 0.12706
 H466 H 0.32909 0.79304 0.12713
 H467 H 0.32341 0.82353 0.17088
 H468 H 0.33640 0.83644 0.15818
 N469 N 0.81300 0.35745 0.17554
 N470 N 0.82400 0.35706 0.18674
 C471 C 0.82158 0.36934 0.19684
 C472 C 0.80841 0.37774 0.19161
 C473 C 0.80323 0.36996 0.17811
 H474 H 0.82881 0.37202 0.20717
 H475 H 0.79313 0.37318 0.17074
 Cu476 Cu 0.84041 0.34060 0.18677
 Cu477 Cu 0.81213 0.34168 0.15848
 Cu478 Cu 0.84147 0.31231 0.15852
 N479 N 0.85684 0.32417 0.18679
 N480 N 0.85722 0.31318 0.17560
 C481 C 0.86973 0.30339 0.17819
 C482 C 0.87751 0.30857 0.19169
 C483 C 0.86912 0.32174 0.19690
 H484 H 0.87294 0.29329 0.17082
 H485 H 0.87181 0.32897 0.20723
 N486 N 0.82447 0.31349 0.14229
 N487 N 0.81330 0.32466 0.14228
 C488 C 0.80339 0.32214 0.12988
 C489 C 0.80863 0.30881 0.12181
 C490 C 0.82195 0.30358 0.12990
 H491 H 0.79309 0.32938 0.12695
 H492 H 0.82919 0.29327 0.12699
 H493 H 0.82322 0.32345 0.17081
 H494 H 0.83627 0.33645 0.15832
 N495 N 0.81330 0.85787 0.67533
 N496 N 0.82469 0.85789 0.68613
 C497 C 0.82233 0.87025 0.69615
 C498 C 0.80879 0.87827 0.69129
 C499 C 0.80332 0.87019 0.67809
 H500 H 0.82980 0.87317 0.70625
 H501 H 0.79284 0.87300 0.67109
 Cu502 Cu 0.84116 0.84146 0.68611
 Cu503 Cu 0.81214 0.84178 0.65857
 Cu504 Cu 0.84151 0.81243 0.65858
 N505 N 0.85762 0.82502 0.68612
 N506 N 0.85759 0.81363 0.67533
 C507 C 0.86994 0.80368 0.67808
 C508 C 0.87804 0.80917 0.69126
 C509 C 0.87001 0.82269 0.69612
 H510 H 0.87275 0.79320 0.67109
 H511 H 0.87293 0.83015 0.70622
 N512 N 0.82422 0.81332 0.64264
 N513 N 0.81304 0.82450 0.64263
 C514 C 0.80305 0.82189 0.63031
 C515 C 0.80824 0.80850 0.62231
 C516 C 0.82162 0.80333 0.63034
 H517 H 0.79280 0.82917 0.62733
 H518 H 0.82891 0.79308 0.62738
 H519 H 0.82357 0.82382 0.67110
 H520 H 0.83627 0.83649 0.65793
 N521 N 0.68678 0.64244 0.67560
 N522 N 0.67540 0.64243 0.68643
 C523 C 0.67778 0.63010 0.69648
 C524 C 0.69132 0.62208 0.69162
 C525 C 0.69677 0.63014 0.67838
 H526 H 0.67032 0.62719 0.70660
 H527 H 0.70724 0.62730 0.67136
 Cu528 Cu 0.65894 0.65885 0.68638
 Cu529 Cu 0.68793 0.65847 0.65878
 Cu530 Cu 0.65857 0.68783 0.65881
 N531 N 0.64251 0.67532 0.68645
 N532 N 0.64252 0.68669 0.67563
 C533 C 0.63023 0.69669 0.67842
 C534 C 0.62217 0.69125 0.69167
 C535 C 0.63018 0.67771 0.69652
 H536 H 0.62740 0.70716 0.67141
 H537 H 0.62727 0.67026 0.70664
 N538 N 0.67581 0.68689 0.64281
 N539 N 0.68699 0.67572 0.64280
 C540 C 0.69696 0.67830 0.63045
 C541 C 0.69177 0.69168 0.62243
 C542 C 0.67840 0.69687 0.63047
 H543 H 0.70722 0.67103 0.62748
 H544 H 0.67111 0.70712 0.62751
 H545 H 0.67654 0.67642 0.67129
 H546 H 0.66383 0.66374 0.65817
 N547 N 0.68705 0.14225 0.17536
 N548 N 0.67586 0.14239 0.18638
 C549 C 0.67829 0.13007 0.19643
 C550 C 0.69165 0.12189 0.19135
 C551 C 0.69696 0.12984 0.17800
 H552 H 0.67096 0.12725 0.20667
 H553 H 0.70725 0.12686 0.17079
 Cu554 Cu 0.65934 0.15877 0.18657
 Cu555 Cu 0.68803 0.15818 0.15848
 Cu556 Cu 0.65874 0.18748 0.15854
 N557 N 0.64298 0.17530 0.18645
 N558 N 0.64283 0.18650 0.17544
 C559 C 0.63044 0.19642 0.17813
 C560 C 0.62250 0.19112 0.19150
 C561 C 0.63067 0.17774 0.19653
 H562 H 0.62745 0.20672 0.17094
 H563 H 0.62786 0.17041 0.20676
 N564 N 0.67583 0.18647 0.14243
 N565 N 0.68700 0.17530 0.14240
 C566 C 0.69694 0.17787 0.13003
 C567 C 0.69173 0.19123 0.12199
 C568 C 0.67837 0.19642 0.13007
 H569 H 0.70723 0.17061 0.12707
 H570 H 0.67111 0.20671 0.12715
 H571 H 0.67676 0.17616 0.17108
 H572 H 0.66386 0.16331 0.15823
 N573 N 0.18674 0.64261 0.17531
 N574 N 0.17555 0.64280 0.18633
 C575 C 0.17794 0.63049 0.19641
 C576 C 0.19129 0.62226 0.19135
 C577 C 0.19661 0.63018 0.17798
 H578 H 0.17060 0.62771 0.20665
 H579 H 0.20689 0.62713 0.17077
 Cu580 Cu 0.15908 0.65921 0.18639
 Cu581 Cu 0.18778 0.65853 0.15841
 Cu582 Cu 0.15845 0.68788 0.15841
 N583 N 0.14267 0.67569 0.18631
 N584 N 0.14250 0.68687 0.17529
 C585 C 0.13007 0.69675 0.17795
 C586 C 0.12213 0.69143 0.19132
 C587 C 0.13035 0.67809 0.19638
 H588 H 0.12705 0.70703 0.17075
 H589 H 0.12755 0.67076 0.20662
 N590 N 0.17562 0.68686 0.14233
 N591 N 0.18678 0.67568 0.14233
 C592 C 0.19675 0.67824 0.12998
 C593 C 0.19158 0.69161 0.12194
 C594 C 0.17820 0.69681 0.12998
 H595 H 0.20702 0.67096 0.12703
 H596 H 0.17095 0.70709 0.12703
 H597 H 0.17652 0.67659 0.17085
 H598 H 0.16366 0.66376 0.15802
 N599 N 0.18682 0.14227 0.67562
 N600 N 0.17562 0.14241 0.68663
 C601 C 0.17804 0.13008 0.69669
 C602 C 0.19142 0.12190 0.69164
 C603 C 0.19674 0.12987 0.67829
 H604 H 0.17067 0.12725 0.70689
 H605 H 0.20705 0.12690 0.67110
 Cu606 Cu 0.15900 0.15871 0.68663
 Cu607 Cu 0.18780 0.15819 0.65871
 Cu608 Cu 0.15848 0.18753 0.65875
 N609 N 0.14273 0.17535 0.68667
 N610 N 0.14258 0.18655 0.67567
 C611 C 0.13021 0.19649 0.67837
 C612 C 0.12226 0.19118 0.69172
 C613 C 0.13041 0.17778 0.69675
 H614 H 0.12724 0.20680 0.67119
 H615 H 0.12757 0.17043 0.70695
 N616 N 0.17560 0.18649 0.64263
 N617 N 0.18677 0.17532 0.64261
 C618 C 0.19673 0.17791 0.63026
 C619 C 0.19154 0.19129 0.62223
 C620 C 0.17817 0.19647 0.63029
 H621 H 0.20703 0.17067 0.62731
 H622 H 0.17092 0.20676 0.62737
 H623 H 0.17648 0.17621 0.67125
 H624 H 0.16366 0.16343 0.65831
 N625 N 0.31293 0.64270 0.32421
 N626 N 0.32393 0.64306 0.31300
 C627 C 0.32150 0.63080 0.30289
 C628 C 0.30832 0.62245 0.30811
 C629 C 0.30314 0.63022 0.32162
 H630 H 0.32874 0.62811 0.29255
 H631 H 0.29303 0.62704 0.32900
 Cu632 Cu 0.34038 0.65945 0.31296
 Cu633 Cu 0.31205 0.65845 0.34127
 Cu634 Cu 0.34140 0.68773 0.34125
 N635 N 0.35680 0.67587 0.31299
 N636 N 0.35717 0.68685 0.32419
 C637 C 0.36967 0.69662 0.32160
 C638 C 0.37746 0.69145 0.30809
 C639 C 0.36908 0.67829 0.30287
 H640 H 0.37286 0.70671 0.32898
 H641 H 0.37178 0.67107 0.29253
 N642 N 0.32438 0.68659 0.35747
 N643 N 0.31321 0.67545 0.35748
 C644 C 0.30328 0.67800 0.36987
 C645 C 0.30850 0.69132 0.37792
 C646 C 0.32185 0.69652 0.36985
 H647 H 0.29297 0.67080 0.37279
 H648 H 0.32907 0.70680 0.37275
 H649 H 0.32315 0.67664 0.32895
 H650 H 0.33618 0.66360 0.34143
 N651 N 0.31287 0.14250 0.82431
 N652 N 0.32386 0.14288 0.81309
 C653 C 0.32143 0.13061 0.80299
 C654 C 0.30827 0.12224 0.80822
 C655 C 0.30309 0.13001 0.82174
 H656 H 0.32867 0.12792 0.79265
 H657 H 0.29300 0.12681 0.82913
 Cu658 Cu 0.34029 0.15928 0.81308
 Cu659 Cu 0.31199 0.15824 0.84139
 Cu660 Cu 0.34132 0.18755 0.84135
 N661 N 0.35673 0.17569 0.81307
 N662 N 0.35710 0.18667 0.82427
 C663 C 0.36959 0.19645 0.82168
 C664 C 0.37738 0.19129 0.80816
 C665 C 0.36901 0.17812 0.80295
 H666 H 0.37278 0.20654 0.82905
 H667 H 0.37170 0.17090 0.79261
 N668 N 0.32431 0.18640 0.85758
 N669 N 0.31315 0.17524 0.85760
 C670 C 0.30323 0.17777 0.87000
 C671 C 0.30845 0.19110 0.87806
 C672 C 0.32177 0.19631 0.86997
 H673 H 0.29294 0.17055 0.87293
 H674 H 0.32899 0.20661 0.87288
 H675 H 0.32306 0.17645 0.82907
 H676 H 0.33612 0.16341 0.84154
 N677 N 0.81344 0.64237 0.82473
 N678 N 0.82483 0.64235 0.81391
 C679 C 0.82246 0.63001 0.80386
 C680 C 0.80892 0.62201 0.80873
 C681 C 0.80346 0.63008 0.82196
 H682 H 0.82992 0.62709 0.79375
 H683 H 0.79300 0.62726 0.82899
 Cu684 Cu 0.84127 0.65876 0.81395
 Cu685 Cu 0.81229 0.65841 0.84154
 Cu686 Cu 0.84160 0.68774 0.84149
 N687 N 0.85767 0.67522 0.81385
 N688 N 0.85763 0.68660 0.82466
 C689 C 0.86991 0.69659 0.82186
 C690 C 0.87798 0.69115 0.80862
 C691 C 0.87000 0.67760 0.80379
 H692 H 0.87272 0.70706 0.82886
 H693 H 0.87294 0.67015 0.79368
 N694 N 0.82437 0.68681 0.85750
 N695 N 0.81322 0.67565 0.85753
 C696 C 0.80326 0.67823 0.86989
 C697 C 0.80844 0.69159 0.87790
 C698 C 0.82179 0.69678 0.86984
 H699 H 0.79301 0.67096 0.87287
 H700 H 0.82906 0.70703 0.87279
 H701 H 0.82366 0.67636 0.82902
 H702 H 0.83639 0.66367 0.84216
 N703 N 0.81311 0.14246 0.32422
 N704 N 0.82410 0.14284 0.31300
 C705 C 0.82169 0.13057 0.30290
 C706 C 0.80854 0.12218 0.30815
 C707 C 0.80335 0.12996 0.32165
 H708 H 0.82892 0.12788 0.29256
 H709 H 0.79326 0.12675 0.32904
 Cu710 Cu 0.84052 0.15926 0.31293
 Cu711 Cu 0.81222 0.15821 0.34127
 Cu712 Cu 0.84150 0.18755 0.34121
 N713 N 0.85691 0.17571 0.31293
 N714 N 0.85726 0.18670 0.32413
 C715 C 0.86975 0.19649 0.32152
 C716 C 0.87754 0.19132 0.30801
 C717 C 0.86918 0.17815 0.30280
 H718 H 0.87293 0.20658 0.32889
 H719 H 0.87188 0.17093 0.29247
 N720 N 0.82451 0.18639 0.35745
 N721 N 0.81336 0.17522 0.35747
 C722 C 0.80344 0.17776 0.36988
 C723 C 0.80864 0.19109 0.37792
 C724 C 0.82196 0.19631 0.36983
 H725 H 0.79315 0.17053 0.37281
 H726 H 0.82917 0.20662 0.37273
 H727 H 0.82326 0.17642 0.32893
 H728 H 0.83633 0.16341 0.34140
 N729 N 0.68690 0.35740 0.32437
 N730 N 0.67568 0.35728 0.31338
 C731 C 0.67812 0.36957 0.30329
 C732 C 0.69152 0.37768 0.30829
 C733 C 0.69683 0.36974 0.32166
 H734 H 0.67075 0.37242 0.29309
 H735 H 0.70714 0.37271 0.32884
 Cu736 Cu 0.65907 0.34105 0.31340
 Cu737 Cu 0.68789 0.34153 0.34129
 Cu738 Cu 0.65861 0.31223 0.34128
 N739 N 0.64283 0.32443 0.31338
 N740 N 0.64272 0.31321 0.32435
 C741 C 0.63038 0.30327 0.32164
 C742 C 0.62242 0.30860 0.30829
 C743 C 0.63054 0.32201 0.30329
 H744 H 0.62742 0.29296 0.32881
 H745 H 0.62769 0.32938 0.29310
 N746 N 0.67571 0.31327 0.35739
 N747 N 0.68686 0.32444 0.35740
 C748 C 0.69682 0.32187 0.36976
 C749 C 0.69165 0.30851 0.37780
 C750 C 0.67830 0.30331 0.36975
 H751 H 0.70709 0.32912 0.37269
 H752 H 0.67107 0.29303 0.37268
 H753 H 0.67661 0.32358 0.32875
 H754 H 0.66376 0.33637 0.34171
 N755 N 0.68674 0.85770 0.82466
 N756 N 0.67536 0.85773 0.81384
 C757 C 0.67775 0.87003 0.80377
 C758 C 0.69131 0.87800 0.80861
 C759 C 0.69674 0.86996 0.82186
 H760 H 0.67031 0.87295 0.79365
 H761 H 0.70721 0.87277 0.82887
 Cu762 Cu 0.65889 0.84136 0.81392
 Cu763 Cu 0.68788 0.84169 0.84149
 Cu764 Cu 0.65853 0.81240 0.84150
 N765 N 0.64247 0.82493 0.81386
 N766 N 0.64249 0.81356 0.82468
 C767 C 0.63020 0.80358 0.82189
 C768 C 0.62214 0.80903 0.80864
 C769 C 0.63014 0.82257 0.80379
 H770 H 0.62737 0.79312 0.82891
 H771 H 0.62723 0.83002 0.79368
 N772 N 0.67577 0.81332 0.85749
 N773 N 0.68694 0.82447 0.85749
 C774 C 0.69691 0.82188 0.86983
 C775 C 0.69173 0.80852 0.87787
 C776 C 0.67836 0.80335 0.86984
 H777 H 0.70716 0.82915 0.87279
 H778 H 0.67109 0.79311 0.87281
 H779 H 0.67652 0.82378 0.82900
 H780 H 0.66380 0.83650 0.84213
 N781 N 0.18686 0.35717 0.82427
 N782 N 0.17587 0.35680 0.81306
 C783 C 0.17830 0.36908 0.80295
 C784 C 0.19147 0.37745 0.80818
 C785 C 0.19664 0.36966 0.82169
 H786 H 0.17108 0.37178 0.79261
 H787 H 0.20673 0.37284 0.82907
 Cu788 Cu 0.15944 0.34037 0.81307
 Cu789 Cu 0.18773 0.34139 0.84134
 Cu790 Cu 0.15840 0.31208 0.84135
 N791 N 0.14299 0.32396 0.81307
 N792 N 0.14262 0.31298 0.82429
 C793 C 0.13012 0.30321 0.82171
 C794 C 0.12234 0.30838 0.80820
 C795 C 0.13072 0.32154 0.80297
 H796 H 0.12693 0.29311 0.82910
 H797 H 0.12802 0.32876 0.79263
 N798 N 0.17542 0.31321 0.85756
 N799 N 0.18659 0.32437 0.85756
 C800 C 0.19652 0.32181 0.86993
 C801 C 0.19132 0.30847 0.87799
 C802 C 0.17797 0.30328 0.86994
 H803 H 0.20682 0.32902 0.87285
 H804 H 0.17075 0.29299 0.87286
 H805 H 0.17664 0.32317 0.82904
 H806 H 0.16359 0.33620 0.84152
 N807 N 0.18686 0.85739 0.32413
 N808 N 0.17587 0.85703 0.31292
 C809 C 0.17830 0.86930 0.30281
 C810 C 0.19147 0.87766 0.30803
 C811 C 0.19664 0.86988 0.32154
 H812 H 0.17108 0.87199 0.29247
 H813 H 0.20674 0.87306 0.32891
 Cu814 Cu 0.15944 0.84062 0.31293
 Cu815 Cu 0.18776 0.84163 0.34119
 Cu816 Cu 0.15841 0.81234 0.34121
 N817 N 0.14299 0.82423 0.31294
 N818 N 0.14262 0.81325 0.32416
 C819 C 0.13011 0.80348 0.32158
 C820 C 0.12233 0.80866 0.30807
 C821 C 0.13071 0.82181 0.30284
 H822 H 0.12692 0.79339 0.32896
 H823 H 0.12803 0.82904 0.29249
 N824 N 0.17545 0.81346 0.35741
 N825 N 0.18661 0.82462 0.35740
 C826 C 0.19656 0.82206 0.36977
 C827 C 0.19137 0.80872 0.37783
 C828 C 0.17802 0.80352 0.36978
 H829 H 0.20686 0.82928 0.37267
 H830 H 0.17080 0.79323 0.37271
 H831 H 0.17667 0.82343 0.32889
 H832 H 0.16362 0.83647 0.34138
 C833 C 0.25597 1.01457 0.24403
 C834 C 0.24403 1.01459 0.25585
 C835 C 0.23816 1.00007 0.26171
 C836 C 0.24405 0.98554 0.25589
 C837 C 0.25599 0.98551 0.24406
 C838 C 0.26186 1.00003 0.23822
 H839 H 0.27105 1.00002 0.22910
 H840 H 0.22896 1.00009 0.27082
 C841 C 0.25592 0.51453 0.74406
 C842 C 0.24398 0.51454 0.75589
 C843 C 0.23810 0.50002 0.76173
 C844 C 0.24397 0.48547 0.75592
 C845 C 0.25590 0.48546 0.74408
 C846 C 0.26178 0.49999 0.73823
 H847 H 0.27098 0.49997 0.72911
 H848 H 0.22891 0.50003 0.77086
 C849 C 0.75615 -0.01486 0.25613
 C850 C 0.74425 -0.01483 0.24429
 C851 C 0.73838 -0.00029 0.23844
 C852 C 0.74424 0.01423 0.24428
 C853 C 0.75616 0.01421 0.25612
 C854 C 0.76202 -0.00033 0.26197
 H855 H 0.77120 -0.00035 0.27110
 H856 H 0.72921 -0.00028 0.22931
 C857 C 0.75607 0.48531 0.75607
 C858 C 0.74415 0.48536 0.74422
 C859 C 0.73830 0.49992 0.73841
 C860 C 0.74417 0.51443 0.74428
 C861 C 0.75609 0.51439 0.75612
 C862 C 0.76194 0.49983 0.76193
 H863 H 0.77112 0.49979 0.77106
 H864 H 0.72913 0.49996 0.72928
 C865 C 0.25594 0.48549 0.25590
 C866 C 0.24402 0.48550 0.24407
 C867 C 0.23814 0.50003 0.23823
 C868 C 0.24399 0.51456 0.24406
 C869 C 0.25591 0.51455 0.25590
 C870 C 0.26179 0.50002 0.26173
 H871 H 0.27098 0.50001 0.27086
 H872 H 0.22895 0.50004 0.22911
 C873 C 0.75567 1.01478 0.74432
 C874 C 0.74375 1.01479 0.75618
 C875 C 0.73792 1.00024 0.76202
 C876 C 0.74383 0.98572 0.75617
 C877 C 0.75575 0.98572 0.74432
 C878 C 0.76157 1.00025 0.73848
 H879 H 0.77076 1.00027 0.72935
 H880 H 0.72874 1.00023 0.77115
 C881 C 0.75585 0.51460 0.24411
 C882 C 0.74393 0.51461 0.25596
 C883 C 0.73806 0.50009 0.26179
 C884 C 0.74394 0.48556 0.25596
 C885 C 0.75586 0.48555 0.24412
 C886 C 0.76173 0.50007 0.23828
 H887 H 0.77092 0.50006 0.22916
 H888 H 0.72887 0.50010 0.27092
 C889 C 0.25640 -0.01496 0.75611
 C890 C 0.24445 -0.01498 0.74430
 C891 C 0.23851 -0.00046 0.73847
 C892 C 0.24433 0.01410 0.74428
 C893 C 0.25627 0.01411 0.75610
 C894 C 0.26221 -0.00041 0.76192
 H895 H 0.27142 -0.00039 0.77103
 H896 H 0.22932 -0.00048 0.72935
 C897 C 0.24407 0.25590 1.01453
 C898 C 0.25591 0.24393 1.01454
 C899 C 0.26175 0.23804 1.00004
 C900 C 0.25590 0.24392 0.98554
 C901 C 0.24405 0.25587 0.98554
 C902 C 0.23822 0.26177 1.00003
 H903 H 0.22909 0.27098 1.00003
 H904 H 0.27087 0.22882 1.00004
 C905 C 0.24422 0.75619 0.51437
 C906 C 0.25609 0.74425 0.51437
 C907 C 0.26191 0.73837 0.49987
 C908 C 0.25604 0.74424 0.48537
 C909 C 0.24417 0.75617 0.48538
 C910 C 0.23835 0.76206 0.49988
 H911 H 0.22919 0.77125 0.49989
 H912 H 0.27105 0.72915 0.49986
 C913 C 0.25627 0.75595 -0.01468
 C914 C 0.24434 0.74410 -0.01468
 C915 C 0.23844 0.73827 -0.00018
 C916 C 0.24428 0.74411 0.01433
 C917 C 0.25621 0.75597 0.01433
 C918 C 0.26211 0.76179 -0.00017
 H919 H 0.27130 0.77092 -0.00017
 H920 H 0.22925 0.72914 -0.00018
 C921 C 0.25588 0.25588 0.48559
 C922 C 0.24400 0.24399 0.48559
 C923 C 0.23813 0.23812 0.50009
 C924 C 0.24398 0.24397 0.51459
 C925 C 0.25587 0.25586 0.51458
 C926 C 0.26173 0.26172 0.50008
 H927 H 0.27089 0.27089 0.50008
 H928 H 0.22898 0.22896 0.50008
 C929 C 0.74416 0.75605 1.01460
 C930 C 0.75600 0.74409 1.01459
 C931 C 0.76184 0.73822 1.00009
 C932 C 0.75601 0.74413 0.98560
 C933 C 0.74416 0.75609 0.98561
 C934 C 0.73833 0.76196 1.00011
 H935 H 0.72919 0.77117 1.00013
 H936 H 0.77096 0.72899 1.00008
 C937 C 0.74408 0.25578 0.51441
 C938 C 0.75594 0.24383 0.51440
 C939 C 0.76181 0.23797 0.49990
 C940 C 0.75599 0.24388 0.48540
 C941 C 0.74413 0.25582 0.48541
 C942 C 0.73826 0.26168 0.49991
 H943 H 0.72911 0.27088 0.49990
 H944 H 0.77093 0.22875 0.49991
 C945 C 0.75584 0.25616 -0.01460
 C946 C 0.74398 0.24424 -0.01459
 C947 C 0.73817 0.23834 -0.00008
 C948 C 0.74404 0.24419 0.01442
 C949 C 0.75590 0.25610 0.01441
 C950 C 0.76171 0.26200 -0.00010
 H951 H 0.77084 0.27119 -0.00011
 H952 H 0.72904 0.22915 -0.00007
 C953 C 0.75582 0.75613 0.48560
 C954 C 0.74394 0.74423 0.48561
 C955 C 0.73811 0.73836 0.50011
 C956 C 0.74397 0.74420 0.51460
 C957 C 0.75585 0.75610 0.51459
 C958 C 0.76168 0.76198 0.50009
 H959 H 0.77084 0.77114 0.50008
 H960 H 0.72896 0.72918 0.50012
 C961 C 1.01457 0.24418 0.25595
 C962 C 1.01455 0.25614 0.24416
 C963 C 1.00000 0.26199 0.23832
 C964 C 0.98547 0.25608 0.24412
 C965 C 0.98548 0.24412 0.25592
 C966 C 1.00003 0.23827 0.26176
 H967 H 1.00005 0.22905 0.27085
 H968 H 0.99999 0.27120 0.22922
 C969 C 0.51452 0.24392 0.75602
 C970 C 0.51450 0.25581 0.74415
 C971 C 0.49995 0.26165 0.73831
 C972 C 0.48542 0.25578 0.74416
 C973 C 0.48543 0.24389 0.75602
 C974 C 0.49999 0.23805 0.76187
 H975 H 0.50000 0.22889 0.77102
 H976 H 0.49993 0.27080 0.72915
 C977 C -0.01475 0.25596 0.75594
 C978 C -0.01472 0.24400 0.74415
 C979 C -0.00017 0.23810 0.73835
 C980 C 0.01437 0.24397 0.74418
 C981 C 0.01435 0.25592 0.75597
 C982 C -0.00021 0.26183 0.76176
 H983 H -0.00022 0.27104 0.77085
 H984 H -0.00016 0.22889 0.72927
 C985 C 0.48559 0.25573 0.25596
 C986 C 0.48560 0.24377 0.24417
 C987 C 0.50016 0.23791 0.23833
 C988 C 0.51470 0.24382 0.24412
 C989 C 0.51468 0.25578 0.25591
 C990 C 0.50013 0.26164 0.26174
 H991 H 0.50011 0.27085 0.27083
 H992 H 0.50018 0.22871 0.22924
 C993 C 1.01460 0.74416 0.75593
 C994 C 1.01460 0.75609 0.74410
 C995 C 1.00005 0.76197 0.73827
 C996 C 0.98551 0.75610 0.74411
 C997 C 0.98552 0.74418 0.75594
 C998 C 1.00007 0.73829 0.76176
 H999 H 1.00007 0.72910 0.77088
 H1000 H 1.00005 0.77116 0.72915
 C1001 C 0.51452 0.74416 0.25605
 C1002 C 0.51450 0.75610 0.24423
 C1003 C 0.49995 0.76197 0.23841
 C1004 C 0.48542 0.75607 0.24424
 C1005 C 0.48544 0.74413 0.25605
 C1006 C 0.49999 0.73827 0.26187
 H1007 H 0.50001 0.72906 0.27098
 H1008 H 0.49993 0.77116 0.22930
 C1009 C -0.01472 0.75605 0.25592
 C1010 C -0.01469 0.74410 0.24413
 C1011 C -0.00013 0.73823 0.23831
 C1012 C 0.01440 0.74413 0.24412
 C1013 C 0.01437 0.75609 0.25591
 C1014 C -0.00019 0.76196 0.26172
 H1015 H -0.00021 0.77116 0.27081
 H1016 H -0.00011 0.72901 0.22923
 C1017 C 0.48534 0.75615 0.75614
 C1018 C 0.48537 0.74424 0.74430
 C1019 C 0.49993 0.73839 0.73847
 C1020 C 0.51447 0.74426 0.74430
 C1021 C 0.51445 0.75618 0.75613
 C1022 C 0.49988 0.76203 0.76197
 H1023 H 0.49987 0.77120 0.77109
 H1024 H 0.49995 0.72921 0.72935
 C1025 C 0.39147 0.30132 0.30104
 C1026 C 0.40323 0.29548 0.29512
 C1027 C 0.41730 0.28850 0.28813
 C1028 C 0.41587 0.27614 0.27697
 C1029 C 0.42957 0.26930 0.27026
 C1030 C 0.44474 0.27480 0.27468
 C1031 C 0.44616 0.28716 0.28583
 C1032 C 0.43247 0.29400 0.29254
 C1033 C 0.45887 0.26781 0.26784
 C1034 C 0.47092 0.26217 0.26231
 H1035 H 0.40420 0.27179 0.27349
 H1036 H 0.42834 0.25974 0.26166
 H1037 H 0.45783 0.29150 0.28933
 H1038 H 0.43372 0.30354 0.30116
 C1039 C 0.39125 0.80190 0.80129
 C1040 C 0.40298 0.79599 0.79537
 C1041 C 0.41704 0.78894 0.78840
 C1042 C 0.41560 0.77778 0.77604
 C1043 C 0.42928 0.77092 0.76931
 C1044 C 0.44446 0.77518 0.77492
 C1045 C 0.44589 0.78633 0.78728
 C1046 C 0.43222 0.79319 0.79400
 C1047 C 0.45860 0.76820 0.76805
 C1048 C 0.47065 0.76258 0.76250
 H1049 H 0.40392 0.77441 0.77161
 H1050 H 0.42804 0.76232 0.75975
 H1051 H 0.45757 0.78972 0.79171
 H1052 H 0.43348 0.80180 0.80355
 C1053 C -0.10886 0.30182 0.80081
 C1054 C -0.09711 0.29593 0.79492
 C1055 C -0.08304 0.28887 0.78800
 C1056 C -0.08381 0.28164 0.77296
 C1057 C -0.07012 0.27472 0.76629
 C1058 C -0.05563 0.27502 0.77464
 C1059 C -0.05487 0.28225 0.78967
 C1060 C -0.06855 0.28915 0.79634
 C1061 C -0.04147 0.26806 0.76779
 C1062 C -0.02942 0.26243 0.76227
 H1063 H -0.09496 0.28136 0.76641
 H1064 H -0.07083 0.26919 0.75464
 H1065 H -0.04372 0.28256 0.79622
 H1066 H -0.06782 0.29470 0.80797
 C1067 C -0.10858 0.80191 0.30130
 C1068 C -0.09690 0.79595 0.29532
 C1069 C -0.08290 0.78885 0.28831
 C1070 C -0.06796 0.79091 0.29555
 C1071 C -0.05433 0.78401 0.28880
 C1072 C -0.05556 0.77502 0.27478
 C1073 C -0.07050 0.77294 0.26754
 C1074 C -0.08415 0.77985 0.27429
 C1075 C -0.04145 0.76807 0.26786
 C1076 C -0.02940 0.76247 0.26228
 H1077 H -0.06685 0.79784 0.30639
 H1078 H -0.04283 0.78570 0.29449
 H1079 H -0.07158 0.76603 0.25669
 H1080 H -0.09564 0.77818 0.26860
 C1081 C 0.60861 0.69874 0.30123
 C1082 C 0.59689 0.70461 0.29526
 C1083 C 0.58284 0.71157 0.28823
 C1084 C 0.56769 0.70588 0.29248
 C1085 C 0.55400 0.71267 0.28574
 C1086 C 0.55540 0.72517 0.27473
 C1087 C 0.57055 0.73086 0.27046
 C1088 C 0.58425 0.72406 0.27721
 C1089 C 0.54125 0.73212 0.26790
 C1090 C 0.52920 0.73773 0.26238
 H1091 H 0.56646 0.69623 0.30099
 H1092 H 0.54234 0.70819 0.28912
 H1093 H 0.57176 0.74052 0.26196
 H1094 H 0.59592 0.72855 0.27385
 C1095 C 0.60856 0.19822 0.80117
 C1096 C 0.59686 0.20415 0.79521
 C1097 C 0.58282 0.21120 0.78822
 C1098 C 0.56765 0.20559 0.79249
 C1099 C 0.55397 0.21243 0.78578
 C1100 C 0.55540 0.22492 0.77476
 C1101 C 0.57057 0.23055 0.77047
 C1102 C 0.58426 0.22370 0.77720
 C1103 C 0.54126 0.23189 0.76791
 C1104 C 0.52921 0.23750 0.76238
 H1105 H 0.56639 0.19595 0.80101
 H1106 H 0.54230 0.20800 0.78918
 H1107 H 0.57181 0.24020 0.76196
 H1108 H 0.59594 0.22814 0.77383
 C1109 C 1.10860 0.69862 0.80118
 C1110 C 1.09690 0.70450 0.79522
 C1111 C 1.08286 0.71149 0.78820
 C1112 C 1.06768 0.70676 0.79339
 C1113 C 1.05400 0.71358 0.78665
 C1114 C 1.05545 0.72516 0.77468
 C1115 C 1.07063 0.72989 0.76947
 C1116 C 1.08432 0.72307 0.77622
 C1117 C 1.04132 0.73211 0.76782
 C1118 C 1.02928 0.73773 0.76228
 H1119 H 1.06641 0.69782 0.80264
 H1120 H 1.04232 0.70983 0.79076
 H1121 H 1.07188 0.73883 0.76023
 H1122 H 1.09601 0.72681 0.77212
 C1123 C 1.10853 0.19866 0.30127
 C1124 C 1.09685 0.20456 0.29527
 C1125 C 1.08283 0.21154 0.28820
 C1126 C 1.08428 0.22402 0.27716
 C1127 C 1.07060 0.23083 0.27038
 C1128 C 1.05544 0.22516 0.27462
 C1129 C 1.05400 0.21266 0.28563
 C1130 C 1.06767 0.20586 0.29240
 C1131 C 1.04130 0.23213 0.26779
 C1132 C 1.02924 0.23775 0.26229
 H1133 H 1.09596 0.22849 0.27383
 H1134 H 1.07184 0.24048 0.26188
 H1135 H 1.04233 0.20819 0.28898
 H1136 H 1.06641 0.19621 0.30091
 C1137 C 0.60851 0.30148 0.69900
 C1138 C 0.59676 0.29561 0.70490
 C1139 C 0.58271 0.28857 0.71186
 C1140 C 0.56798 0.28974 0.70401
 C1141 C 0.55432 0.28286 0.71071
 C1142 C 0.55533 0.27478 0.72530
 C1143 C 0.57005 0.27359 0.73316
 C1144 C 0.58372 0.28048 0.72645
 C1145 C 0.54119 0.26785 0.73219
 C1146 C 0.52916 0.26224 0.73776
 H1147 H 0.56706 0.29597 0.69273
 H1148 H 0.54299 0.28386 0.70455
 H1149 H 0.57095 0.26739 0.74445
 H1150 H 0.59504 0.27951 0.73262
 C1151 C 0.60852 0.80162 0.19911
 C1152 C 0.59677 0.79580 0.20504
 C1153 C 0.58271 0.78881 0.21201
 C1154 C 0.56800 0.78995 0.20412
 C1155 C 0.55434 0.78310 0.21082
 C1156 C 0.55531 0.77509 0.22545
 C1157 C 0.57001 0.77396 0.23336
 C1158 C 0.58369 0.78082 0.22665
 C1159 C 0.54118 0.76817 0.23232
 C1160 C 0.52915 0.76255 0.23787
 H1161 H 0.56711 0.79611 0.19279
 H1162 H 0.54302 0.78406 0.20462
 H1163 H 0.57088 0.76782 0.24469
 H1164 H 0.59500 0.77988 0.23285
 C1165 C 1.10847 0.30173 0.19883
 C1166 C 1.09679 0.29586 0.20485
 C1167 C 1.08277 0.28887 0.21190
 C1168 C 1.08377 0.28095 0.22659
 C1169 C 1.07010 0.27410 0.23334
 C1170 C 1.05540 0.27515 0.22542
 C1171 C 1.05441 0.28308 0.21076
 C1172 C 1.06806 0.28992 0.20402
 C1173 C 1.04127 0.26822 0.23231
 C1174 C 1.02922 0.26260 0.23783
 H1175 H 1.09509 0.28008 0.23280
 H1176 H 1.07099 0.26801 0.24470
 H1177 H 1.04309 0.28397 0.20454
 H1178 H 1.06714 0.29602 0.19266
 C1179 C 1.10831 0.80191 0.69862
 C1180 C 1.09668 0.79599 0.70469
 C1181 C 1.08270 0.78897 0.71180
 C1182 C 1.06748 0.79422 0.70724
 C1183 C 1.05386 0.78735 0.71401
 C1184 C 1.05540 0.77521 0.72539
 C1185 C 1.07062 0.76996 0.72999
 C1186 C 1.08426 0.77684 0.72321
 C1187 C 1.04131 0.76818 0.73225
 C1188 C 1.02927 0.76254 0.73777
 H1189 H 1.06614 0.80359 0.69843
 H1190 H 1.04215 0.79149 0.71037
 H1191 H 1.07194 0.76057 0.73877
 H1192 H 1.09598 0.77269 0.72681
 C1193 C 0.39156 0.69855 0.69884
 C1194 C 0.40324 0.70446 0.70483
 C1195 C 0.41724 0.71147 0.71189
 C1196 C 0.41572 0.72287 0.72402
 C1197 C 0.42937 0.72971 0.73081
 C1198 C 0.44458 0.72517 0.72549
 C1199 C 0.44609 0.71376 0.71338
 C1200 C 0.43246 0.70693 0.70659
 C1201 C 0.45868 0.73215 0.73239
 C1202 C 0.47071 0.73779 0.73794
 H1203 H 0.40401 0.72647 0.72821
 H1204 H 0.42806 0.73851 0.74018
 H1205 H 0.45780 0.71016 0.70918
 H1206 H 0.43378 0.69813 0.69723
 C1207 C 0.39165 0.19830 0.19884
 C1208 C 0.40337 0.20411 0.20482
 C1209 C 0.41741 0.21104 0.21188
 C1210 C 0.41595 0.22201 0.22441
 C1211 C 0.42962 0.22881 0.23119
 C1212 C 0.44480 0.22466 0.22546
 C1213 C 0.44625 0.21367 0.21296
 C1214 C 0.43260 0.20687 0.20619
 C1215 C 0.45891 0.23164 0.23233
 C1216 C 0.47094 0.23729 0.23785
 H1217 H 0.40426 0.22531 0.22890
 H1218 H 0.42835 0.23729 0.24085
 H1219 H 0.45793 0.21037 0.20845
 H1220 H 0.43387 0.19840 0.19652
 C1221 C -0.10845 0.69832 0.19884
 C1222 C -0.09677 0.70420 0.20483
 C1223 C -0.08277 0.71120 0.21189
 C1224 C -0.08430 0.72366 0.22294
 C1225 C -0.07065 0.73051 0.22971
 C1226 C -0.05545 0.72492 0.22546
 C1227 C -0.05394 0.71245 0.21444
 C1228 C -0.06757 0.70560 0.20767
 C1229 C -0.04136 0.73194 0.23230
 C1230 C -0.02934 0.73761 0.23781
 H1231 H -0.09600 0.72808 0.22628
 H1232 H -0.07195 0.74015 0.23822
 H1233 H -0.04224 0.70803 0.21107
 H1234 H -0.06626 0.69598 0.19915
 C1235 C -0.10866 0.19840 0.69901
 C1236 C -0.09693 0.20422 0.70496
 C1237 C -0.08289 0.21118 0.71199
 C1238 C -0.08437 0.22350 0.72319
 C1239 C -0.07070 0.23034 0.72993
 C1240 C -0.05551 0.22487 0.72548
 C1241 C -0.05404 0.21253 0.71430
 C1242 C -0.06770 0.20570 0.70757
 C1243 C -0.04140 0.23187 0.73230
 C1244 C -0.02938 0.23753 0.73782
 H1245 H -0.09606 0.22783 0.72669
 H1246 H -0.07197 0.23987 0.73856
 H1247 H -0.04235 0.20822 0.71078
 H1248 H -0.06642 0.19619 0.69892
 C1249 C 0.30133 0.39131 0.30094
 C1250 C 0.29552 0.40308 0.29503
 C1251 C 0.28857 0.41717 0.28806
 C1252 C 0.27741 0.41580 0.27569
 C1253 C 0.27061 0.42952 0.26899
 C1254 C 0.27495 0.44464 0.27463
 C1255 C 0.28612 0.44600 0.28699
 C1256 C 0.29292 0.43230 0.29369
 C1257 C 0.26801 0.45879 0.26780
 C1258 C 0.26239 0.47083 0.26226
 H1259 H 0.27396 0.40416 0.27126
 H1260 H 0.26199 0.42834 0.25945
 H1261 H 0.28956 0.45765 0.29144
 H1262 H 0.30153 0.43350 0.30325
 C1263 C 0.30203 -0.10919 0.80112
 C1264 C 0.29616 -0.09745 0.79517
 C1265 C 0.28920 -0.08337 0.78816
 C1266 C 0.29500 -0.06824 0.79228
 C1267 C 0.28820 -0.05453 0.78557
 C1268 C 0.27557 -0.05587 0.77470
 C1269 C 0.26979 -0.07100 0.77054
 C1270 C 0.27659 -0.08472 0.77726
 C1271 C 0.26858 -0.04169 0.76792
 C1272 C 0.26292 -0.02963 0.76243
 H1273 H 0.30474 -0.06704 0.80069
 H1274 H 0.29278 -0.04290 0.78887
 H1275 H 0.26003 -0.07218 0.76214
 H1276 H 0.27201 -0.09636 0.77398
 C1277 C 0.80192 0.39173 0.80193
 C1278 C 0.79599 0.40337 0.79588
 C1279 C 0.78894 0.41732 0.78872
 C1280 C 0.79405 0.43255 0.79334
 C1281 C 0.78719 0.44614 0.78647
 C1282 C 0.77517 0.44456 0.77495
 C1283 C 0.77006 0.42934 0.77032
 C1284 C 0.77693 0.41574 0.77719
 C1285 C 0.76815 0.45862 0.76800
 C1286 C 0.76250 0.47064 0.76242
 H1287 H 0.80332 0.43392 0.80224
 H1288 H 0.79123 0.45786 0.79014
 H1289 H 0.76078 0.42799 0.76143
 H1290 H 0.77288 0.40401 0.77354
 C1291 C 0.80164 -0.10879 0.30163
 C1292 C 0.79576 -0.09710 0.29563
 C1293 C 0.78878 -0.08307 0.28855
 C1294 C 0.79464 -0.06793 0.29253
 C1295 C 0.78784 -0.05427 0.28574
 C1296 C 0.77516 -0.05568 0.27495
 C1297 C 0.76930 -0.07082 0.27095
 C1298 C 0.77610 -0.08450 0.27774
 C1299 C 0.76820 -0.04156 0.26807
 C1300 C 0.76258 -0.02952 0.26251
 H1301 H 0.80443 -0.06669 0.30088
 H1302 H 0.79246 -0.04262 0.28893
 H1303 H 0.75949 -0.07205 0.26262
 H1304 H 0.77148 -0.09615 0.27458
 C1305 C 0.30151 0.60846 0.69872
 C1306 C 0.29562 0.59676 0.70469
 C1307 C 0.28862 0.58273 0.71173
 C1308 C 0.27756 0.58418 0.72419
 C1309 C 0.27074 0.57051 0.73096
 C1310 C 0.27496 0.55535 0.72528
 C1311 C 0.28604 0.55391 0.71284
 C1312 C 0.29286 0.56757 0.70609
 C1313 C 0.26800 0.54123 0.73216
 C1314 C 0.26237 0.52919 0.73770
 H1315 H 0.27421 0.59585 0.72866
 H1316 H 0.26220 0.57176 0.74059
 H1317 H 0.28941 0.54225 0.70837
 H1318 H 0.30141 0.56630 0.69647
 C1319 C 0.30157 1.10840 0.19881
 C1320 C 0.29569 1.09669 0.20476
 C1321 C 0.28869 1.08268 0.21177
 C1322 C 0.27805 1.08411 0.22459
 C1323 C 0.27119 1.07046 0.23133
 C1324 C 0.27496 1.05533 0.22526
 C1325 C 0.28560 1.05391 0.21244
 C1326 C 0.29245 1.06755 0.20571
 C1327 C 0.26801 1.04123 0.23213
 C1328 C 0.26240 1.02921 0.23767
 H1329 H 0.27506 1.09576 0.22936
 H1330 H 0.26298 1.07168 0.24124
 H1331 H 0.28860 1.04227 0.20766
 H1332 H 0.30067 1.06631 0.19580
 C1333 C 0.80149 0.60841 0.19885
 C1334 C 0.79564 0.59668 0.20476
 C1335 C 0.78863 0.58266 0.21176
 C1336 C 0.79295 0.56749 0.20619
 C1337 C 0.78610 0.55385 0.21294
 C1338 C 0.77491 0.55532 0.22527
 C1339 C 0.77059 0.57048 0.23084
 C1340 C 0.77743 0.58413 0.22410
 C1341 C 0.76793 0.54123 0.23216
 C1342 C 0.76230 0.52923 0.23774
 H1343 H 0.80159 0.56621 0.19666
 H1344 H 0.78953 0.54217 0.20854
 H1345 H 0.76195 0.57175 0.24038
 H1346 H 0.77401 0.59581 0.22848
 C1347 C 0.80154 1.10836 0.69888
 C1348 C 0.79567 1.09665 0.70483
 C1349 C 0.78862 1.08267 0.71185
 C1350 C 0.77995 1.08391 0.72609
 C1351 C 0.77301 1.07031 0.73286
 C1352 C 0.77473 1.05544 0.72541
 C1353 C 0.78341 1.05421 0.71119
 C1354 C 0.79034 1.06780 0.70442
 C1355 C 0.76774 1.04140 0.73235
 C1356 C 0.76210 1.02941 0.73794
 H1357 H 0.77855 1.09536 0.73193
 H1358 H 0.76633 1.07138 0.74387
 H1359 H 0.78483 1.04276 0.70535
 H1360 H 0.79702 1.06670 0.69341
 C1361 C 0.69874 0.60875 0.30120
 C1362 C 0.70457 0.59703 0.29523
 C1363 C 0.71149 0.58295 0.28821
 C1364 C 0.70631 0.56781 0.29305
 C1365 C 0.71306 0.55411 0.28632
 C1366 C 0.72502 0.55548 0.27471
 C1367 C 0.73019 0.57062 0.26984
 C1368 C 0.72344 0.58434 0.27658
 C1369 C 0.73192 0.54133 0.26786
 C1370 C 0.73751 0.52928 0.26232
 H1371 H 0.69708 0.56660 0.30203
 H1372 H 0.70897 0.54246 0.29017
 H1373 H 0.73942 0.57182 0.26088
 H1374 H 0.72753 0.59600 0.27275
 C1375 C 0.69832 1.10888 0.80154
 C1376 C 0.70426 1.09723 0.79551
 C1377 C 0.71137 1.08328 0.78838
 C1378 C 0.70453 1.07644 0.77476
 C1379 C 0.71134 1.06277 0.76796
 C1380 C 0.72503 1.05590 0.77474
 C1381 C 0.73190 1.06279 0.78831
 C1382 C 0.72509 1.07645 0.79511
 C1383 C 0.73179 1.04159 0.76801
 C1384 C 0.73732 1.02948 0.76253
 H1385 H 0.69392 1.08161 0.76947
 H1386 H 0.70589 1.05752 0.75750
 H1387 H 0.74245 1.05755 0.79368
 H1388 H 0.73047 1.08163 0.80565
 C1389 C 0.19858 0.60849 0.80122
 C1390 C 0.20443 0.59678 0.79525
 C1391 C 0.21139 0.58274 0.78822
 C1392 C 0.22243 0.58417 0.77574
 C1393 C 0.22923 0.57049 0.76898
 C1394 C 0.22500 0.55535 0.77467
 C1395 C 0.21395 0.55393 0.78713
 C1396 C 0.20715 0.56759 0.79389
 C1397 C 0.23194 0.54123 0.76780
 C1398 C 0.23755 0.52920 0.76225
 H1399 H 0.22578 0.59583 0.77127
 H1400 H 0.23776 0.57171 0.75934
 H1401 H 0.21059 0.54227 0.79161
 H1402 H 0.19862 0.56635 0.80352
 C1403 C 0.19871 1.10863 0.30115
 C1404 C 0.20459 1.09694 0.29516
 C1405 C 0.21156 1.08290 0.28814
 C1406 C 0.22076 1.08411 0.27423
 C1407 C 0.22754 1.07041 0.26746
 C1408 C 0.22513 1.05547 0.27459
 C1409 C 0.21592 1.05428 0.28848
 C1410 C 0.20915 1.06796 0.29524
 C1411 C 0.23201 1.04132 0.26771
 C1412 C 0.23759 1.02926 0.26219
 H1413 H 0.22269 1.09561 0.26863
 H1414 H 0.23462 1.07145 0.25670
 H1415 H 0.21396 1.04278 0.29408
 H1416 H 0.20205 1.06689 0.30599
 C1417 C 0.69860 0.39140 0.69900
 C1418 C 0.70443 0.40314 0.70492
 C1419 C 0.71140 0.41719 0.71193
 C1420 C 0.72365 0.41575 0.72322
 C1421 C 0.73047 0.42942 0.72995
 C1422 C 0.72507 0.44459 0.72541
 C1423 C 0.71281 0.44604 0.71413
 C1424 C 0.70600 0.43237 0.70740
 C1425 C 0.73205 0.45871 0.73227
 C1426 C 0.73769 0.47072 0.73783
 H1427 H 0.72793 0.40407 0.72680
 H1428 H 0.73994 0.42817 0.73866
 H1429 H 0.70855 0.45771 0.71052
 H1430 H 0.69654 0.43364 0.69867
 C1431 C 0.69858 -0.10859 0.19909
 C1432 C 0.70443 -0.09687 0.20501
 C1433 C 0.71143 -0.08286 0.21201
 C1434 C 0.72203 -0.08430 0.22485
 C1435 C 0.72890 -0.07066 0.23158
 C1436 C 0.72519 -0.05553 0.22548
 C1437 C 0.71459 -0.05409 0.21264
 C1438 C 0.70772 -0.06772 0.20592
 C1439 C 0.73217 -0.04146 0.23236
 C1440 C 0.73781 -0.02946 0.23792
 H1441 H 0.72498 -0.09595 0.22964
 H1442 H 0.73707 -0.07190 0.24151
 H1443 H 0.71163 -0.04244 0.20784
 H1444 H 0.69955 -0.06647 0.19599
 C1445 C 0.19849 0.39173 0.19864
 C1446 C 0.20435 0.40340 0.20466
 C1447 C 0.21130 0.41739 0.21177
 C1448 C 0.20528 0.43254 0.20799
 C1449 C 0.21209 0.44617 0.21475
 C1450 C 0.22496 0.44473 0.22534
 C1451 C 0.23097 0.42958 0.22915
 C1452 C 0.22415 0.41593 0.22238
 C1453 C 0.23195 0.45883 0.23218
 C1454 C 0.23758 0.47085 0.23772
 H1455 H 0.19535 0.43380 0.19980
 H1456 H 0.20736 0.45783 0.21171
 H1457 H 0.24092 0.42834 0.23731
 H1458 H 0.22890 0.40427 0.22539
 C1459 C 0.19820 -0.10815 0.69851
 C1460 C 0.20424 -0.09661 0.70460
 C1461 C 0.21154 -0.08282 0.71174
 C1462 C 0.20835 -0.07895 0.72768
 C1463 C 0.21539 -0.06547 0.73456
 C1464 C 0.22564 -0.05582 0.72553
 C1465 C 0.22885 -0.05972 0.70961
 C1466 C 0.22182 -0.07319 0.70274
 C1467 C 0.23250 -0.04168 0.73240
 C1468 C 0.23806 -0.02964 0.73794
 H1469 H 0.20040 -0.08630 0.73474
 H1470 H 0.21278 -0.06252 0.74685
 H1471 H 0.23670 -0.05229 0.70251
 H1472 H 0.22435 -0.07606 0.69041
 C1473 C 0.30132 0.30130 0.39181
 C1474 C 0.29536 0.29536 0.40347
 C1475 C 0.28831 0.28837 0.41747
 C1476 C 0.29125 0.29508 0.43246
 C1477 C 0.28445 0.28832 0.44610
 C1478 C 0.27469 0.27480 0.44482
 C1479 C 0.27173 0.26808 0.42982
 C1480 C 0.27853 0.27485 0.41617
 C1481 C 0.26782 0.26787 0.45893
 C1482 C 0.26227 0.26229 0.47095
 H1483 H 0.29879 0.30553 0.43360
 H1484 H 0.28683 0.29361 0.45764
 H1485 H 0.26420 0.25762 0.42870
 H1486 H 0.27619 0.26955 0.40463
 C1487 C 0.30170 0.80134 -0.10856
 C1488 C 0.29581 0.79539 -0.09686
 C1489 C 0.28885 0.78834 -0.08283
 C1490 C 0.29369 0.79345 -0.06769
 C1491 C 0.28693 0.78666 -0.05404
 C1492 C 0.27528 0.77474 -0.05545
 C1493 C 0.27044 0.76961 -0.07058
 C1494 C 0.27721 0.77640 -0.08425
 C1495 C 0.26835 0.76786 -0.04133
 C1496 C 0.26273 0.76231 -0.02931
 H1497 H 0.30268 0.80266 -0.06645
 H1498 H 0.29077 0.79072 -0.04240
 H1499 H 0.26144 0.76039 -0.07180
 H1500 H 0.27338 0.77235 -0.09589
 C1501 C 0.80120 0.30220 -0.10811
 C1502 C 0.79523 0.29622 -0.09648
 C1503 C 0.78816 0.28913 -0.08254
 C1504 C 0.79100 0.29579 -0.06750
 C1505 C 0.78422 0.28891 -0.05392
 C1506 C 0.77455 0.27533 -0.05530
 C1507 C 0.77167 0.26867 -0.07033
 C1508 C 0.77847 0.27555 -0.08393
 C1509 C 0.76770 0.26829 -0.04123
 C1510 C 0.76218 0.26263 -0.02923
 H1511 H 0.79847 0.30627 -0.06628
 H1512 H 0.78653 0.29415 -0.04235
 H1513 H 0.76421 0.25816 -0.07152
 H1514 H 0.77619 0.27030 -0.09550
 C1515 C 0.80118 0.80180 0.39189
 C1516 C 0.79525 0.79582 0.40355
 C1517 C 0.78827 0.78873 0.41754
 C1518 C 0.77457 0.77919 0.41625
 C1519 C 0.76780 0.77234 0.42988
 C1520 C 0.77472 0.77501 0.44485
 C1521 C 0.78841 0.78453 0.44612
 C1522 C 0.79517 0.79137 0.43250
 C1523 C 0.76779 0.76811 0.45894
 C1524 C 0.76221 0.76254 0.47096
 H1525 H 0.76913 0.77707 0.40473
 H1526 H 0.75721 0.76500 0.42877
 H1527 H 0.79385 0.78668 0.45764
 H1528 H 0.80576 0.79872 0.43364
 C1529 C 0.69872 0.30128 0.60824
 C1530 C 0.70466 0.29531 0.59658
 C1531 C 0.71167 0.28827 0.58257
 C1532 C 0.70677 0.29335 0.56743
 C1533 C 0.71353 0.28655 0.55379
 C1534 C 0.72522 0.27465 0.55520
 C1535 C 0.73013 0.26955 0.57033
 C1536 C 0.72336 0.27635 0.58399
 C1537 C 0.73211 0.26774 0.54108
 C1538 C 0.73767 0.26218 0.52905
 H1539 H 0.69774 0.30255 0.56618
 H1540 H 0.70964 0.29058 0.54214
 H1541 H 0.73917 0.26035 0.57155
 H1542 H 0.72724 0.27234 0.59564
 C1543 C 0.69869 0.80148 1.10833
 C1544 C 0.70466 0.79554 1.09668
 C1545 C 0.71170 0.78853 1.08269
 C1546 C 0.70589 0.79262 1.06758
 C1547 C 0.71268 0.78584 1.05395
 C1548 C 0.72532 0.77494 1.05535
 C1549 C 0.73115 0.77085 1.07046
 C1550 C 0.72435 0.77764 1.08411
 C1551 C 0.73223 0.76804 1.04126
 C1552 C 0.73779 0.76246 1.02924
 H1553 H 0.69612 0.80103 1.06634
 H1554 H 0.70808 0.78909 1.04232
 H1555 H 0.74093 0.76244 1.07167
 H1556 H 0.72894 0.77440 1.09574
 C1557 C 0.19878 0.30144 1.10834
 C1558 C 0.20470 0.29554 1.09664
 C1559 C 0.21172 0.28855 1.08262
 C1560 C 0.22301 0.27625 1.08405
 C1561 C 0.22979 0.26945 1.07039
 C1562 C 0.22529 0.27494 1.05527
 C1563 C 0.21402 0.28724 1.05385
 C1564 C 0.20725 0.29403 1.06749
 C1565 C 0.23216 0.26798 1.04116
 C1566 C 0.23770 0.26235 1.02916
 H1567 H 0.22655 0.27192 1.09569
 H1568 H 0.23850 0.25994 1.07161
 H1569 H 0.21046 0.29157 1.04221
 H1570 H 0.19854 0.30353 1.06625
 C1571 C 0.19870 0.80158 0.60810
 C1572 C 0.20464 0.79567 0.59641
 C1573 C 0.21168 0.78868 0.58241
 C1574 C 0.22400 0.77741 0.58386
 C1575 C 0.23082 0.77063 0.57022
 C1576 C 0.22533 0.77509 0.55509
 C1577 C 0.21302 0.78636 0.55365
 C1578 C 0.20621 0.79313 0.56728
 C1579 C 0.23226 0.76819 0.54101
 C1580 C 0.23783 0.76260 0.52900
 H1581 H 0.22832 0.77388 0.59551
 H1582 H 0.24034 0.76193 0.57146
 H1583 H 0.20870 0.78990 0.54201
 H1584 H 0.19670 0.80183 0.56602
 C1585 C 0.30133 0.69882 0.60829
 C1586 C 0.29538 0.70473 0.59660
 C1587 C 0.28828 0.71171 0.58261
 C1588 C 0.28447 0.72801 0.58230
 C1589 C 0.27765 0.73478 0.56864
 C1590 C 0.27464 0.72526 0.55525
 C1591 C 0.27841 0.70896 0.55558
 C1592 C 0.28522 0.70220 0.56922
 C1593 C 0.26791 0.73220 0.54107
 C1594 C 0.26244 0.73781 0.52901
 H1595 H 0.28680 0.73547 0.59257
 H1596 H 0.27479 0.74740 0.56851
 H1597 H 0.27615 0.70151 0.54528
 H1598 H 0.28812 0.68959 0.56932
 C1599 C 0.30142 0.19849 1.10826
 C1600 C 0.29542 0.20442 1.09662
 C1601 C 0.28825 0.21147 1.08271
 C1602 C 0.27764 0.20256 1.07335
 C1603 C 0.27077 0.20937 1.05976
 C1604 C 0.27448 0.22510 1.05546
 C1605 C 0.28505 0.23402 1.06484
 C1606 C 0.29193 0.22722 1.07844
 C1607 C 0.26775 0.23193 1.04124
 C1608 C 0.26226 0.23750 1.02918
 H1609 H 0.27473 0.19037 1.07653
 H1610 H 0.26265 0.20235 1.05256
 H1611 H 0.28805 0.24618 1.06159
 H1612 H 0.30014 0.23420 1.08557
 C1613 C 0.80126 0.69862 1.10840
 C1614 C 0.79527 0.70453 1.09674
 C1615 C 0.78815 0.71149 1.08276
 C1616 C 0.78344 0.72756 1.08279
 C1617 C 0.77661 0.73432 1.06914
 C1618 C 0.77449 0.72503 1.05543
 C1619 C 0.77915 0.70896 1.05542
 C1620 C 0.78596 0.70220 1.06906
 C1621 C 0.76777 0.73198 1.04126
 C1622 C 0.76231 0.73761 1.02922
 H1623 H 0.78508 0.73485 1.09332
 H1624 H 0.77306 0.74676 1.06926
 H1625 H 0.77758 0.70168 1.04487
 H1626 H 0.78956 0.68977 1.06891
 C1627 C 0.80140 0.19832 0.60808
 C1628 C 0.79537 0.20424 0.59644
 C1629 C 0.78818 0.21122 0.58252
 C1630 C 0.78548 0.22773 0.58179
 C1631 C 0.77860 0.23450 0.56818
 C1632 C 0.77442 0.22479 0.55525
 C1633 C 0.77707 0.20829 0.55601
 C1634 C 0.78393 0.20152 0.56961
 C1635 C 0.76771 0.23174 0.54108
 C1636 C 0.76225 0.23736 0.52903
 H1637 H 0.78873 0.23534 0.59170
 H1638 H 0.77663 0.24728 0.56770
 H1639 H 0.77391 0.20068 0.54606
 H1640 H 0.78597 0.18874 0.57005
 C1641 C 0.69864 0.69873 0.39192
 C1642 C 0.70460 0.70466 0.40357
 C1643 C 0.71172 0.71169 0.41750
 C1644 C 0.71113 0.72826 0.41977
 C1645 C 0.71797 0.73507 0.43337
 C1646 C 0.72541 0.72533 0.44475
 C1647 C 0.72602 0.70877 0.44245
 C1648 C 0.71920 0.70197 0.42885
 C1649 C 0.73211 0.73223 0.45893
 C1650 C 0.73759 0.73781 0.47098
 H1651 H 0.70535 0.73589 0.41107
 H1652 H 0.71738 0.74788 0.43506
 H1653 H 0.73171 0.70112 0.45120
 H1654 H 0.71971 0.68914 0.42722
 C1655 C 0.69889 0.19858 -0.10838
 C1656 C 0.70478 0.20453 -0.09670
 C1657 C 0.71178 0.21157 -0.08270
 C1658 C 0.71848 0.22689 -0.08340
 C1659 C 0.72525 0.23370 -0.06976
 C1660 C 0.72531 0.22522 -0.05536
 C1661 C 0.71861 0.20992 -0.05467
 C1662 C 0.71186 0.20310 -0.06830
 C1663 C 0.73209 0.23221 -0.04124
 C1664 C 0.73761 0.23782 -0.02922
 H1665 H 0.71846 0.23355 -0.09447
 H1666 H 0.73038 0.24556 -0.07042
 H1667 H 0.71857 0.20327 -0.04359
 H1668 H 0.70670 0.19126 -0.06760
 C1669 C 0.19870 0.69858 -0.10819
 C1670 C 0.20469 0.70452 -0.09656
 C1671 C 0.21185 0.71158 -0.08267
 C1672 C 0.22132 0.70226 -0.07251
 C1673 C 0.22821 0.70909 -0.05895
 C1674 C 0.22567 0.72526 -0.05551
 C1675 C 0.21623 0.73459 -0.06568
 C1676 C 0.20933 0.72776 -0.07924
 C1677 C 0.23244 0.73213 -0.04134
 C1678 C 0.23796 0.73770 -0.02930
 H1679 H 0.22333 0.68973 -0.07503
 H1680 H 0.23544 0.70175 -0.05113
 H1681 H 0.21414 0.74709 -0.06309
 H1682 H 0.20201 0.73507 -0.08701
 C1683 C 0.19878 0.19873 0.39171
 C1684 C 0.20470 0.20462 0.40341
 C1685 C 0.21173 0.21158 0.41742
 C1686 C 0.21909 0.22659 0.41660
 C1687 C 0.22588 0.23333 0.43026
 C1688 C 0.22533 0.22508 0.44478
 C1689 C 0.21800 0.21008 0.44559
 C1690 C 0.21122 0.20334 0.43194
 C1691 C 0.23212 0.23201 0.45892
 C1692 C 0.23763 0.23759 0.47095
 H1693 H 0.21954 0.23307 0.40544
 H1694 H 0.23151 0.24495 0.42952
 H1695 H 0.21749 0.20361 0.45676
 H1696 H 0.20556 0.19173 0.43271
 C1697 C 0.30139 0.39149 0.69883
 C1698 C 0.29557 0.40323 0.70477
 C1699 C 0.28861 0.41728 0.71179
 C1700 C 0.29421 0.43243 0.70747
 C1701 C 0.28740 0.44610 0.71422
 C1702 C 0.27496 0.44467 0.72532
 C1703 C 0.26936 0.42952 0.72965
 C1704 C 0.27618 0.41585 0.72290
 C1705 C 0.26798 0.45879 0.73218
 C1706 C 0.26235 0.47081 0.73772
 H1707 H 0.30380 0.43368 0.69889
 H1708 H 0.29180 0.45777 0.71079
 H1709 H 0.25974 0.42829 0.73820
 H1710 H 0.27176 0.40418 0.72631
 C1711 C 0.30181 0.89194 0.19833
 C1712 C 0.29586 0.90358 0.20434
 C1713 C 0.28870 0.91749 0.21145
 C1714 C 0.29146 0.92103 0.22753
 C1715 C 0.28451 0.93459 0.23440
 C1716 C 0.27479 0.94463 0.22521
 C1717 C 0.27203 0.94108 0.20914
 C1718 C 0.27896 0.92753 0.20227
 C1719 C 0.26796 0.95880 0.23212
 C1720 C 0.26240 0.97085 0.23769
 H1721 H 0.29900 0.91336 0.23472
 H1722 H 0.28678 0.93727 0.24682
 H1723 H 0.26459 0.94881 0.20191
 H1724 H 0.27678 0.92491 0.18982
 C1725 C 0.80151 0.39172 0.19874
 C1726 C 0.79568 0.40345 0.20469
 C1727 C 0.78870 0.41748 0.21174
 C1728 C 0.79314 0.43266 0.20632
 C1729 C 0.78629 0.44629 0.21309
 C1730 C 0.77497 0.44481 0.22531
 C1731 C 0.77053 0.42963 0.23075
 C1732 C 0.77739 0.41599 0.22397
 C1733 C 0.76797 0.45889 0.23220
 C1734 C 0.76232 0.47090 0.23776
 H1735 H 0.80187 0.43395 0.19687
 H1736 H 0.78980 0.45798 0.20880
 H1737 H 0.76180 0.42836 0.24019
 H1738 H 0.77387 0.40430 0.22824
 C1739 C 0.80171 0.89210 0.69859
 C1740 C 0.79577 0.90372 0.70468
 C1741 C 0.78873 0.91766 0.71188
 C1742 C 0.79714 0.93211 0.71205
 C1743 C 0.79029 0.94570 0.71890
 C1744 C 0.77498 0.94492 0.72563
 C1745 C 0.76657 0.93047 0.72552
 C1746 C 0.77343 0.91686 0.71866
 C1747 C 0.76792 0.95904 0.73245
 C1748 C 0.76224 0.97106 0.73797
 H1749 H 0.80897 0.93287 0.70684
 H1750 H 0.79689 0.95683 0.71889
 H1751 H 0.75471 0.92974 0.73068
 H1752 H 0.76681 0.90575 0.71858
 C1753 C 0.69839 0.60825 0.69890
 C1754 C 0.70433 0.59660 0.70492
 C1755 C 0.71138 0.58261 0.71198
 C1756 C 0.72257 0.58409 0.72431
 C1757 C 0.72944 0.57044 0.73108
 C1758 C 0.72513 0.55526 0.72553
 C1759 C 0.71394 0.55379 0.71321
 C1760 C 0.70708 0.56743 0.70645
 C1761 C 0.73212 0.54115 0.73241
 C1762 C 0.73775 0.52911 0.73794
 H1763 H 0.72598 0.59577 0.72867
 H1764 H 0.73807 0.57170 0.74060
 H1765 H 0.71053 0.54211 0.70883
 H1766 H 0.69845 0.56614 0.69692
 C1767 C 0.69864 0.10797 0.19853
 C1768 C 0.70452 0.09627 0.20453
 C1769 C 0.71151 0.08227 0.21163
 C1770 C 0.72265 0.08379 0.22400
 C1771 C 0.72947 0.07016 0.23085
 C1772 C 0.72518 0.05497 0.22535
 C1773 C 0.71402 0.05346 0.21300
 C1774 C 0.70720 0.06708 0.20615
 C1775 C 0.73216 0.04089 0.23230
 C1776 C 0.73780 0.02889 0.23790
 H1777 H 0.72606 0.09549 0.22832
 H1778 H 0.73807 0.07146 0.24040
 H1779 H 0.71061 0.04176 0.20867
 H1780 H 0.69860 0.06576 0.19660
 C1781 C 0.19825 0.60834 0.19854
 C1782 C 0.20413 0.59664 0.20452
 C1783 C 0.21115 0.58263 0.21157
 C1784 C 0.22215 0.58412 0.22408
 C1785 C 0.22900 0.57048 0.23088
 C1786 C 0.22489 0.55531 0.22519
 C1787 C 0.21390 0.55382 0.21269
 C1788 C 0.20704 0.56745 0.20590
 C1789 C 0.23189 0.54122 0.23211
 C1790 C 0.23754 0.52921 0.23769
 H1791 H 0.22541 0.59580 0.22855
 H1792 H 0.23748 0.57175 0.24054
 H1793 H 0.21063 0.54214 0.20820
 H1794 H 0.19856 0.56616 0.19623
 C1795 C 0.19842 0.10797 0.69882
 C1796 C 0.20431 0.09625 0.70479
 C1797 C 0.21134 0.08222 0.71183
 C1798 C 0.20706 0.06703 0.70631
 C1799 C 0.21393 0.05339 0.71308
 C1800 C 0.22512 0.05486 0.72541
 C1801 C 0.22940 0.07005 0.73095
 C1802 C 0.22252 0.08370 0.72417
 C1803 C 0.23214 0.04076 0.73232
 C1804 C 0.23782 0.02875 0.73789
 H1805 H 0.19843 0.06574 0.69678
 H1806 H 0.21053 0.04171 0.70870
 H1807 H 0.23803 0.07133 0.74047
 H1808 H 0.22592 0.09538 0.72853
 C1809 C 0.30142 0.60848 0.30100
 C1810 C 0.29560 0.59674 0.29508
 C1811 C 0.28862 0.58269 0.28810
 C1812 C 0.27750 0.58413 0.27570
 C1813 C 0.27067 0.57047 0.26899
 C1814 C 0.27494 0.55531 0.27465
 C1815 C 0.28607 0.55388 0.28704
 C1816 C 0.29290 0.56754 0.29375
 C1817 C 0.26798 0.54121 0.26780
 C1818 C 0.26235 0.52920 0.26225
 H1819 H 0.27411 0.59580 0.27125
 H1820 H 0.26209 0.57170 0.25941
 H1821 H 0.28945 0.54221 0.29151
 H1822 H 0.30148 0.56628 0.30334
 C1823 C 0.30140 0.10825 0.80113
 C1824 C 0.29561 0.09649 0.79522
 C1825 C 0.28869 0.08241 0.78825
 C1826 C 0.27667 0.08381 0.77671
 C1827 C 0.26991 0.07010 0.77000
 C1828 C 0.27515 0.05496 0.77481
 C1829 C 0.28718 0.05357 0.78634
 C1830 C 0.29394 0.06726 0.79304
 C1831 C 0.26824 0.04082 0.76798
 C1832 C 0.26266 0.02878 0.76245
 H1833 H 0.27252 0.09547 0.77293
 H1834 H 0.26061 0.07131 0.76111
 H1835 H 0.29132 0.04191 0.79014
 H1836 H 0.30322 0.06604 0.80196
 C1837 C 0.80186 0.60817 0.80147
 C1838 C 0.79593 0.59653 0.79546
 C1839 C 0.78889 0.58252 0.78842
 C1840 C 0.77685 0.58403 0.77690
 C1841 C 0.77000 0.57037 0.77016
 C1842 C 0.77516 0.55517 0.77491
 C1843 C 0.78720 0.55369 0.78641
 C1844 C 0.79405 0.56732 0.79314
 C1845 C 0.76817 0.54106 0.76805
 C1846 C 0.76254 0.52904 0.76250
 H1847 H 0.77277 0.59572 0.77317
 H1848 H 0.76069 0.57166 0.76128
 H1849 H 0.79128 0.54199 0.79017
 H1850 H 0.80334 0.56602 0.80204
 C1851 C 0.80166 0.10820 0.30105
 C1852 C 0.79584 0.09644 0.29515
 C1853 C 0.78888 0.08239 0.28819
 C1854 C 0.79400 0.06722 0.29306
 C1855 C 0.78718 0.05355 0.28638
 C1856 C 0.77521 0.05498 0.27479
 C1857 C 0.77009 0.07014 0.26990
 C1858 C 0.77692 0.08383 0.27659
 C1859 C 0.76824 0.04086 0.26798
 C1860 C 0.76260 0.02884 0.26246
 H1861 H 0.80323 0.06597 0.30203
 H1862 H 0.79121 0.04188 0.29025
 H1863 H 0.76085 0.07138 0.26096
 H1864 H 0.77287 0.09550 0.27274
 C1865 C 0.69851 0.39158 0.30112
 C1866 C 0.70440 0.40329 0.29518
 C1867 C 0.71141 0.41733 0.28822
 C1868 C 0.70903 0.43225 0.29536
 C1869 C 0.71585 0.44592 0.28865
 C1870 C 0.72508 0.44473 0.27477
 C1871 C 0.72747 0.42980 0.26762
 C1872 C 0.72065 0.41612 0.27434
 C1873 C 0.73196 0.45886 0.26789
 C1874 C 0.73753 0.47090 0.26234
 H1875 H 0.70191 0.43332 0.30610
 H1876 H 0.71391 0.45741 0.29427
 H1877 H 0.73457 0.42876 0.25687
 H1878 H 0.72256 0.40463 0.26872
 C1879 C 0.69838 0.89179 0.80132
 C1880 C 0.70430 0.90343 0.79528
 C1881 C 0.71129 0.91743 0.78823
 C1882 C 0.72467 0.91609 0.77827
 C1883 C 0.73148 0.92978 0.77153
 C1884 C 0.72491 0.94483 0.77475
 C1885 C 0.71152 0.94615 0.78469
 C1886 C 0.70472 0.93248 0.79141
 C1887 C 0.73186 0.95898 0.76798
 C1888 C 0.73744 0.97104 0.76250
 H1889 H 0.72985 0.90450 0.77574
 H1890 H 0.74184 0.92863 0.76386
 H1891 H 0.70636 0.95774 0.78726
 H1892 H 0.69438 0.93366 0.79910
 C1893 C 0.19837 0.39145 0.80106
 C1894 C 0.20421 0.40320 0.79515
 C1895 C 0.21119 0.41726 0.78815
 C1896 C 0.22383 0.41584 0.77728
 C1897 C 0.23066 0.42953 0.77056
 C1898 C 0.22488 0.44468 0.77469
 C1899 C 0.21223 0.44609 0.78555
 C1900 C 0.20540 0.43241 0.79227
 C1901 C 0.23186 0.45880 0.76784
 C1902 C 0.23751 0.47082 0.76229
 H1903 H 0.22840 0.40419 0.77402
 H1904 H 0.24044 0.42830 0.76219
 H1905 H 0.20767 0.45774 0.78884
 H1906 H 0.19565 0.43366 0.80067
 C1907 C 0.19838 0.89162 0.30091
 C1908 C 0.20422 0.90335 0.29499
 C1909 C 0.21122 0.91739 0.28800
 C1910 C 0.22402 0.91596 0.27733
 C1911 C 0.23088 0.92964 0.27062
 C1912 C 0.22494 0.94477 0.27458
 C1913 C 0.21214 0.94619 0.28525
 C1914 C 0.20529 0.93253 0.29195
 C1915 C 0.23194 0.95888 0.26777
 C1916 C 0.23759 0.97090 0.26224
 H1917 H 0.22870 0.90431 0.27421
 H1918 H 0.24078 0.92841 0.26239
 H1919 H 0.20747 0.95784 0.28840
 H1920 H 0.19540 0.93377 0.30020
 C1921 C 0.39142 0.30143 0.69893
 C1922 C 0.40316 0.29557 0.70485
 C1923 C 0.41720 0.28853 0.71183
 C1924 C 0.41632 0.28105 0.72674
 C1925 C 0.42998 0.27415 0.73347
 C1926 C 0.44458 0.27472 0.72529
 C1927 C 0.44545 0.28221 0.71038
 C1928 C 0.43180 0.28909 0.70366
 C1929 C 0.45871 0.26780 0.73220
 C1930 C 0.47074 0.26220 0.73777
 H1931 H 0.40509 0.28056 0.73315
 H1932 H 0.42918 0.26841 0.74501
 H1933 H 0.45669 0.28273 0.70398
 H1934 H 0.43262 0.29484 0.69213
 C1935 C 0.39169 0.80172 0.19857
 C1936 C 0.40337 0.79582 0.20457
 C1937 C 0.41736 0.78878 0.21165
 C1938 C 0.43244 0.79168 0.20501
 C1939 C 0.44606 0.78482 0.21182
 C1940 C 0.44466 0.77505 0.22530
 C1941 C 0.42958 0.77216 0.23196
 C1942 C 0.41594 0.77902 0.22514
 C1943 C 0.45874 0.76810 0.23227
 C1944 C 0.47075 0.76249 0.23786
 H1945 H 0.43367 0.79921 0.19459
 H1946 H 0.45767 0.78715 0.20660
 H1947 H 0.42837 0.76464 0.24239
 H1948 H 0.40433 0.77671 0.23036
 C1949 C 0.89150 0.30167 0.19882
 C1950 C 0.90324 0.29584 0.20477
 C1951 C 0.91728 0.28887 0.21181
 C1952 C 0.93240 0.29515 0.20836
 C1953 C 0.94606 0.28832 0.21511
 C1954 C 0.94467 0.27517 0.22535
 C1955 C 0.92955 0.26889 0.22882
 C1956 C 0.91588 0.27573 0.22206
 C1957 C 0.95878 0.26816 0.23221
 C1958 C 0.97080 0.26252 0.23776
 H1959 H 0.93363 0.30530 0.20044
 H1960 H 0.95770 0.29326 0.21234
 H1961 H 0.92834 0.25872 0.23670
 H1962 H 0.90424 0.27077 0.22479
 C1963 C 0.89186 0.80208 0.69855
 C1964 C 0.90345 0.79607 0.70463
 C1965 C 0.91730 0.78886 0.71182
 C1966 C 0.92495 0.79638 0.72462
 C1967 C 0.93852 0.78945 0.73148
 C1968 C 0.94450 0.77499 0.72556
 C1969 C 0.93682 0.76744 0.71280
 C1970 C 0.92324 0.77437 0.70594
 C1971 C 0.95874 0.76812 0.73230
 C1972 C 0.97083 0.76254 0.73778
 H1973 H 0.92047 0.80760 0.72924
 H1974 H 0.94441 0.79542 0.74131
 H1975 H 0.94138 0.75629 0.70809
 H1976 H 0.91743 0.76847 0.69603
 C1977 C 0.60853 0.30159 0.30109
 C1978 C 0.59686 0.29565 0.29513
 C1979 C 0.58288 0.28851 0.28815
 C1980 C 0.57045 0.28311 0.29796
 C1981 C 0.55684 0.27620 0.29123
 C1982 C 0.55558 0.27463 0.27466
 C1983 C 0.56801 0.28001 0.26483
 C1984 C 0.58164 0.28694 0.27157
 C1985 C 0.54141 0.26779 0.26779
 C1986 C 0.52935 0.26222 0.26225
 H1987 H 0.57128 0.28428 0.31079
 H1988 H 0.54728 0.27213 0.29893
 H1989 H 0.56714 0.27890 0.25200
 H1990 H 0.59116 0.29110 0.26388
 C1991 C 0.60832 0.80197 0.80136
 C1992 C 0.59667 0.79602 0.79535
 C1993 C 0.58267 0.78894 0.78835
 C1994 C 0.56767 0.79142 0.79535
 C1995 C 0.55403 0.78455 0.78864
 C1996 C 0.55531 0.77515 0.77489
 C1997 C 0.57030 0.77265 0.76787
 C1998 C 0.58397 0.77953 0.77460
 C1999 C 0.54117 0.76821 0.76801
 C2000 C 0.52912 0.76261 0.76248
 H2001 H 0.56652 0.79867 0.80598
 H2002 H 0.54249 0.78657 0.79415
 H2003 H 0.57143 0.76542 0.75724
 H2004 H 0.59551 0.77753 0.76909
 C2005 C 0.10835 0.30147 0.80109
 C2006 C 0.09660 0.29562 0.79519
 C2007 C 0.08254 0.28862 0.78823
 C2008 C 0.06748 0.29167 0.79487
 C2009 C 0.05382 0.28482 0.78816
 C2010 C 0.05515 0.27490 0.77479
 C2011 C 0.07020 0.27185 0.76814
 C2012 C 0.08388 0.27870 0.77485
 C2013 C 0.04103 0.26796 0.76791
 C2014 C 0.02900 0.26235 0.76235
 H2015 H 0.06630 0.29931 0.80521
 H2016 H 0.04222 0.28726 0.79339
 H2017 H 0.07136 0.26421 0.75779
 H2018 H 0.09547 0.27626 0.76962
 C2019 C 0.10835 0.80175 0.30094
 C2020 C 0.09661 0.79589 0.29504
 C2021 C 0.08258 0.78883 0.28810
 C2022 C 0.06947 0.78499 0.29776
 C2023 C 0.05583 0.77809 0.29107
 C2024 C 0.05523 0.77499 0.27467
 C2025 C 0.06833 0.77881 0.26500
 C2026 C 0.08198 0.78572 0.27170
 C2027 C 0.04107 0.76812 0.26781
 C2028 C 0.02903 0.76253 0.26227
 H2029 H 0.06980 0.78735 0.31045
 H2030 H 0.04575 0.77522 0.29865
 H2031 H 0.06797 0.77649 0.25231
 H2032 H 0.09204 0.78866 0.26412
 C2033 C 0.60835 0.69834 0.69896
 C2034 C 0.59670 0.70430 0.70500
 C2035 C 0.58270 0.71136 0.71207
 C2036 C 0.58420 0.72375 0.72318
 C2037 C 0.57054 0.73064 0.72994
 C2038 C 0.55534 0.72515 0.72560
 C2039 C 0.55386 0.71276 0.71449
 C2040 C 0.56750 0.70588 0.70775
 C2041 C 0.54121 0.73218 0.73244
 C2042 C 0.52916 0.73782 0.73796
 H2043 H 0.59590 0.72809 0.72660
 H2044 H 0.57182 0.74022 0.73851
 H2045 H 0.54216 0.70843 0.71104
 H2046 H 0.56620 0.69631 0.69916
 C2047 C 0.60859 0.19813 0.19870
 C2048 C 0.59690 0.20402 0.20468
 C2049 C 0.58288 0.21103 0.21175
 C2050 C 0.56767 0.20583 0.20711
 C2051 C 0.55403 0.21268 0.21389
 C2052 C 0.55552 0.22475 0.22534
 C2053 C 0.57072 0.22994 0.23001
 C2054 C 0.58438 0.22309 0.22322
 C2055 C 0.54141 0.23174 0.23222
 C2056 C 0.52937 0.23738 0.23776
 H2057 H 0.56637 0.19652 0.19825
 H2058 H 0.54232 0.20857 0.21020
 H2059 H 0.57201 0.23927 0.23886
 H2060 H 0.59609 0.22720 0.22689
 C2061 C 0.10822 0.69842 0.19853
 C2062 C 0.09654 0.70432 0.20456
 C2063 C 0.08259 0.71136 0.21173
 C2064 C 0.08066 0.72799 0.21180
 C2065 C 0.06705 0.73483 0.21868
 C2066 C 0.05532 0.72506 0.22553
 C2067 C 0.05726 0.70844 0.22548
 C2068 C 0.07087 0.70161 0.21860
 C2069 C 0.04114 0.73203 0.23229
 C2070 C 0.02908 0.73767 0.23779
 H2071 H 0.08964 0.73564 0.20649
 H2072 H 0.06564 0.74769 0.21860
 H2073 H 0.04823 0.70078 0.23068
 H2074 H 0.07223 0.68874 0.21859
 C2075 C 0.10833 0.19818 0.69891
 C2076 C 0.09662 0.20408 0.70487
 C2077 C 0.08258 0.21110 0.71189
 C2078 C 0.08403 0.22371 0.72277
 C2079 C 0.07036 0.23056 0.72953
 C2080 C 0.05519 0.22482 0.72544
 C2081 C 0.05374 0.21221 0.71457
 C2082 C 0.06740 0.20537 0.70781
 C2083 C 0.04107 0.23183 0.73230
 C2084 C 0.02904 0.23750 0.73784
 H2085 H 0.09571 0.22824 0.72600
 H2086 H 0.07161 0.24031 0.73792
 H2087 H 0.04206 0.20769 0.71131
 H2088 H 0.06613 0.19563 0.69941
 C2089 C 0.39144 0.69835 0.30097
 C2090 C 0.40319 0.70420 0.29506
 C2091 C 0.41724 0.71121 0.28810
 C2092 C 0.41578 0.72362 0.27697
 C2093 C 0.42946 0.73049 0.27029
 C2094 C 0.44464 0.72497 0.27470
 C2095 C 0.44609 0.71257 0.28582
 C2096 C 0.43242 0.70570 0.29250
 C2097 C 0.45876 0.73199 0.26790
 C2098 C 0.47079 0.73766 0.26239
 H2099 H 0.40409 0.72797 0.27350
 H2100 H 0.42821 0.74008 0.26171
 H2101 H 0.45778 0.70822 0.28932
 H2102 H 0.43368 0.69612 0.30109
 C2103 C 0.39136 0.19821 0.80103
 C2104 C 0.40310 0.20409 0.79513
 C2105 C 0.41715 0.21116 0.78820
 C2106 C 0.41698 0.21637 0.77233
 C2107 C 0.43065 0.22328 0.76564
 C2108 C 0.44453 0.22500 0.77481
 C2109 C 0.44469 0.21980 0.79068
 C2110 C 0.43103 0.21290 0.79736
 C2111 C 0.45870 0.23188 0.76795
 C2112 C 0.47076 0.23747 0.76240
 H2113 H 0.40631 0.21507 0.76514
 H2114 H 0.43041 0.22724 0.75336
 H2115 H 0.45537 0.22105 0.79787
 H2116 H 0.43129 0.20892 0.80964
 C2117 C 0.89180 0.69823 0.80134
 C2118 C 0.90344 0.70420 0.79533
 C2119 C 0.91742 0.71130 0.78829
 C2120 C 0.93264 0.70681 0.79361
 C2121 C 0.94626 0.71370 0.78687
 C2122 C 0.94474 0.72513 0.77476
 C2123 C 0.92952 0.72964 0.76943
 C2124 C 0.91588 0.72274 0.77618
 C2125 C 0.95883 0.73212 0.76787
 C2126 C 0.97086 0.73775 0.76231
 H2127 H 0.93397 0.69799 0.80297
 H2128 H 0.95797 0.71013 0.79108
 H2129 H 0.92821 0.73847 0.76008
 H2130 H 0.90416 0.72631 0.77199
 C2131 C 0.89151 0.19824 0.30088
 C2132 C 0.90326 0.20410 0.29497
 C2133 C 0.91730 0.21113 0.28801
 C2134 C 0.93248 0.20686 0.29363
 C2135 C 0.94614 0.21376 0.28694
 C2136 C 0.94469 0.22494 0.27461
 C2137 C 0.92951 0.22921 0.26898
 C2138 C 0.91584 0.22232 0.27566
 C2139 C 0.95880 0.23196 0.26778
 C2140 C 0.97082 0.23764 0.26225
 H2141 H 0.93375 0.19824 0.30317
 H2142 H 0.95782 0.21037 0.29139
 H2143 H 0.92826 0.23785 0.25945
 H2144 H 0.90416 0.22571 0.27124
 C2145 C 0.30134 0.30141 0.60817
 C2146 C 0.29540 0.29546 0.59652
 C2147 C 0.28838 0.28842 0.58255
 C2148 C 0.27653 0.27670 0.58405
 C2149 C 0.26973 0.26988 0.57043
 C2150 C 0.27477 0.27477 0.55527
 C2151 C 0.28662 0.28649 0.55378
 C2152 C 0.29340 0.29329 0.56739
 C2153 C 0.26785 0.26784 0.54120
 C2154 C 0.26226 0.26225 0.52921
 H2155 H 0.27256 0.27284 0.59572
 H2156 H 0.26058 0.26084 0.57170
 H2157 H 0.29059 0.29035 0.54212
 H2158 H 0.30256 0.30234 0.56609
 C2159 C 0.30140 0.80143 0.10812
 C2160 C 0.29551 0.79550 0.09643
 C2161 C 0.28854 0.78849 0.08241
 C2162 C 0.29313 0.79385 0.06728
 C2163 C 0.28639 0.78706 0.05364
 C2164 C 0.27502 0.77488 0.05506
 C2165 C 0.27042 0.76950 0.07019
 C2166 C 0.27717 0.77629 0.08385
 C2167 C 0.26815 0.76795 0.04096
 C2168 C 0.26259 0.76237 0.02895
 H2169 H 0.30192 0.80327 0.06603
 H2170 H 0.29004 0.79131 0.04200
 H2171 H 0.26165 0.76008 0.07142
 H2172 H 0.27353 0.77205 0.09549
 C2173 C 0.80151 0.30169 0.10796
 C2174 C 0.79552 0.29573 0.09634
 C2175 C 0.78835 0.28864 0.08246
 C2176 C 0.77841 0.29780 0.07260
 C2177 C 0.77154 0.29097 0.05903
 C2178 C 0.77457 0.27495 0.05527
 C2179 C 0.78447 0.26577 0.06515
 C2180 C 0.79134 0.27261 0.07872
 C2181 C 0.76781 0.26808 0.04108
 C2182 C 0.76229 0.26251 0.02904
 H2183 H 0.77602 0.31021 0.07537
 H2184 H 0.76394 0.29819 0.05144
 H2185 H 0.78694 0.25339 0.06232
 H2186 H 0.79903 0.26542 0.08625
 C2187 C 0.80120 0.80144 0.60839
 C2188 C 0.79532 0.79552 0.59668
 C2189 C 0.78835 0.78851 0.58266
 C2190 C 0.77647 0.77682 0.58410
 C2191 C 0.76970 0.77003 0.57045
 C2192 C 0.77480 0.77493 0.55531
 C2193 C 0.78669 0.78661 0.55388
 C2194 C 0.79345 0.79338 0.56752
 C2195 C 0.76788 0.76804 0.54122
 C2196 C 0.76228 0.76248 0.52921
 H2197 H 0.77244 0.77296 0.59575
 H2198 H 0.76053 0.76100 0.57168
 H2199 H 0.79072 0.79047 0.54223
 H2200 H 0.80263 0.80241 0.56627
 C2201 C 0.30137 0.69847 0.39175
 C2202 C 0.29537 0.70444 0.40337
 C2203 C 0.28821 0.71150 0.41728
 C2204 C 0.28279 0.70174 0.42971
 C2205 C 0.27596 0.70857 0.44330
 C2206 C 0.27451 0.72519 0.44451
 C2207 C 0.27987 0.73496 0.43206
 C2208 C 0.28671 0.72813 0.41846
 C2209 C 0.26781 0.73216 0.45869
 C2210 C 0.26236 0.73778 0.47073
 H2211 H 0.28390 0.68887 0.42892
 H2212 H 0.27189 0.70091 0.45288
 H2213 H 0.27883 0.74783 0.43290
 H2214 H 0.29088 0.73579 0.40892
 C2215 C 0.30131 0.19822 0.89191
 C2216 C 0.29531 0.20418 0.90353
 C2217 C 0.28815 0.21124 0.91744
 C2218 C 0.28812 0.22787 0.91937
 C2219 C 0.28127 0.23470 0.93297
 C2220 C 0.27443 0.22493 0.94468
 C2221 C 0.27442 0.20831 0.94272
 C2222 C 0.28126 0.20149 0.92913
 C2223 C 0.26772 0.23186 0.95886
 C2224 C 0.26224 0.23747 0.97091
 H2225 H 0.29343 0.23552 0.91041
 H2226 H 0.28137 0.24756 0.93439
 H2227 H 0.26920 0.20065 0.95173
 H2228 H 0.28123 0.18862 0.92777
 C2229 C 0.80138 0.69866 0.89182
 C2230 C 0.79545 0.70457 0.90351
 C2231 C 0.78836 0.71158 0.91748
 C2232 C 0.78799 0.72821 0.91928
 C2233 C 0.78114 0.73501 0.93290
 C2234 C 0.77463 0.72519 0.94475
 C2235 C 0.77499 0.70857 0.94294
 C2236 C 0.78183 0.70178 0.92933
 C2237 C 0.76788 0.73211 0.95892
 C2238 C 0.76237 0.73771 0.97096
 H2239 H 0.79304 0.73591 0.91020
 H2240 H 0.78098 0.74788 0.93421
 H2241 H 0.77004 0.70087 0.95207
 H2242 H 0.78206 0.68890 0.92808
 C2243 C 0.80150 0.19821 0.39177
 C2244 C 0.79550 0.20416 0.40340
 C2245 C 0.78833 0.21120 0.41733
 C2246 C 0.78647 0.22780 0.41837
 C2247 C 0.77960 0.23462 0.43197
 C2248 C 0.77459 0.22486 0.44457
 C2249 C 0.77641 0.20826 0.44350
 C2250 C 0.78326 0.20145 0.42991
 C2251 C 0.76784 0.23182 0.45873
 C2252 C 0.76235 0.23743 0.47077
 H2253 H 0.79036 0.23546 0.40871
 H2254 H 0.77828 0.24747 0.43269
 H2255 H 0.77261 0.20060 0.45320
 H2256 H 0.78466 0.18860 0.42923
 C2257 C 0.69876 0.30141 0.39167
 C2258 C 0.70468 0.29545 0.40334
 C2259 C 0.71167 0.28836 0.41733
 C2260 C 0.72679 0.28118 0.41653
 C2261 C 0.73355 0.27432 0.43016
 C2262 C 0.72521 0.27464 0.44464
 C2263 C 0.71009 0.28181 0.44543
 C2264 C 0.70333 0.28865 0.43181
 C2265 C 0.73215 0.26779 0.45876
 C2266 C 0.73773 0.26223 0.47078
 H2267 H 0.73333 0.28090 0.40539
 H2268 H 0.74526 0.26882 0.42943
 H2269 H 0.70356 0.28213 0.45657
 H2270 H 0.69164 0.29417 0.43257
 C2271 C 0.69878 0.80148 0.89180
 C2272 C 0.70470 0.79560 0.90351
 C2273 C 0.71171 0.78863 0.91754
 C2274 C 0.70779 0.79462 0.93262
 C2275 C 0.71457 0.78785 0.94627
 C2276 C 0.72530 0.77507 0.94490
 C2277 C 0.72924 0.76908 0.92982
 C2278 C 0.72245 0.77585 0.91616
 C2279 C 0.73219 0.76814 0.95900
 C2280 C 0.73776 0.76253 0.97100
 H2281 H 0.69950 0.80450 0.93383
 H2282 H 0.71144 0.79257 0.95788
 H2283 H 0.73753 0.75920 0.92863
 H2284 H 0.72556 0.77113 0.90454
 C2285 C 0.19844 0.30134 0.89185
 C2286 C 0.20441 0.29540 0.90351
 C2287 C 0.21147 0.28839 0.91750
 C2288 C 0.22171 0.27520 0.91612
 C2289 C 0.22855 0.26841 0.92975
 C2290 C 0.22516 0.27480 0.94481
 C2291 C 0.21493 0.28799 0.94617
 C2292 C 0.20811 0.29477 0.93255
 C2293 C 0.23207 0.26787 0.95890
 C2294 C 0.23765 0.26228 0.97091
 H2295 H 0.22439 0.27016 0.90453
 H2296 H 0.23644 0.25821 0.92857
 H2297 H 0.21223 0.29302 0.95776
 H2298 H 0.20021 0.30496 0.93376
 C2299 C 0.19852 0.80160 0.39168
 C2300 C 0.20449 0.79567 0.40334
 C2301 C 0.21156 0.78866 0.41733
 C2302 C 0.22343 0.77692 0.41586
 C2303 C 0.23025 0.77013 0.42950
 C2304 C 0.22522 0.77506 0.44465
 C2305 C 0.21336 0.78680 0.44610
 C2306 C 0.20655 0.79358 0.43248
 C2307 C 0.23215 0.76815 0.45874
 C2308 C 0.23775 0.76257 0.47075
 H2309 H 0.22739 0.77303 0.40420
 H2310 H 0.23942 0.76107 0.42825
 H2311 H 0.20938 0.79070 0.45776
 H2312 H 0.19739 0.80265 0.43375
 C2313 C 0.69881 0.69873 0.60849
 C2314 C 0.70470 0.70463 0.59678
 C2315 C 0.71169 0.71161 0.58274
 C2316 C 0.70910 0.70462 0.56781
 C2317 C 0.71586 0.71140 0.55415
 C2318 C 0.72523 0.72520 0.55537
 C2319 C 0.72782 0.73220 0.57030
 C2320 C 0.72107 0.72542 0.58396
 C2321 C 0.73206 0.73215 0.54125
 C2322 C 0.73760 0.73777 0.52923
 H2323 H 0.70186 0.69396 0.56672
 H2324 H 0.71376 0.70591 0.54266
 H2325 H 0.73503 0.74289 0.57136
 H2326 H 0.72313 0.73093 0.59546
 C2327 C 0.69881 0.19835 0.10811
 C2328 C 0.70476 0.20433 0.09647
 C2329 C 0.71186 0.21144 0.08255
 C2330 C 0.70884 0.22748 0.07885
 C2331 C 0.71566 0.23435 0.06525
 C2332 C 0.72552 0.22520 0.05531
 C2333 C 0.72856 0.20917 0.05902
 C2334 C 0.72175 0.20230 0.07262
 C2335 C 0.73223 0.23211 0.04111
 C2336 C 0.73770 0.23773 0.02906
 H2337 H 0.70119 0.23465 0.08643
 H2338 H 0.71318 0.24674 0.06246
 H2339 H 0.73611 0.20197 0.05138
 H2340 H 0.72414 0.18988 0.07534
 C2341 C 0.19869 0.69870 0.10806
 C2342 C 0.20463 0.70463 0.09639
 C2343 C 0.21166 0.71164 0.08238
 C2344 C 0.22383 0.72303 0.08383
 C2345 C 0.23064 0.72982 0.07019
 C2346 C 0.22529 0.72525 0.05505
 C2347 C 0.21312 0.71386 0.05361
 C2348 C 0.20632 0.70708 0.06724
 C2349 C 0.23224 0.73215 0.04096
 C2350 C 0.23785 0.73773 0.02895
 H2351 H 0.22805 0.72665 0.09549
 H2352 H 0.24004 0.73861 0.07144
 H2353 H 0.20890 0.71023 0.04196
 H2354 H 0.19692 0.69828 0.06598
 C2355 C 0.19861 0.19839 0.60834
 C2356 C 0.20452 0.20434 0.59666
 C2357 C 0.21151 0.21139 0.58265
 C2358 C 0.22337 0.22310 0.58410
 C2359 C 0.23015 0.22992 0.57046
 C2360 C 0.22508 0.22504 0.55532
 C2361 C 0.21322 0.21334 0.55387
 C2362 C 0.20645 0.20653 0.56751
 C2363 C 0.23199 0.23197 0.54122
 C2364 C 0.23758 0.23756 0.52922
 H2365 H 0.22737 0.22695 0.59576
 H2366 H 0.23931 0.23895 0.57171
 H2367 H 0.20921 0.20948 0.54222
 H2368 H 0.19728 0.19749 0.56624
   
