data_POSCAR
  _audit_creation_date              2014-09-24
  _audit_creation_method            'ToBaCCo'
  _symmetry_space_group_name_H-M    'P1'
  _symmetry_Int_Tables_number       1
  _symmetry_cell_setting            triclinic
  loop_
  _symmetry_equiv_pos_as_xyz
 x,y,z
_cell_length_a 58.3265
_cell_length_b 60.4399
_cell_length_c 60.8413
_cell_angle_alpha 89.709300
_cell_angle_beta 89.900500
_cell_angle_gamma 90.383700
loop_
  _atom_site_label
  _atom_site_type_symbol
  _atom_site_fract_x
  _atom_site_fract_y
  _atom_site_fract_z
O1 O 0.33607 0.31083 -0.02471
 O2 O 0.30958 0.34318 0.01907
 O3 O 0.33749 0.31034 0.01786
 O4 O 0.30851 0.34417 -0.02343
 O5 O 0.27861 0.32170 -0.02283
 O6 O 0.30843 0.28677 0.01845
 O7 O 0.27995 0.32030 0.01987
 O8 O 0.30681 0.28750 -0.02434
 Cu9 Cu 0.32583 0.32939 -0.00291
 Cu10 Cu 0.29046 0.30170 -0.00223
 C11 C 0.32622 0.29354 -0.03187
 C12 C 0.29026 0.33743 0.02694
 C13 C 0.32812 0.29280 0.02522
 C14 C 0.28849 0.33917 -0.03000
 O15 O 0.65529 0.68194 -0.00940
 O16 O 0.69071 0.65079 0.02926
 O17 O 0.65897 0.67976 0.03259
 O18 O 0.68708 0.65202 -0.01338
 O19 O 0.71415 0.67760 -0.01419
 O20 O 0.68443 0.70691 0.03091
 O21 O 0.71687 0.67732 0.02865
 O22 O 0.68182 0.70804 -0.01173
 Cu23 Cu 0.67049 0.66342 0.00971
 Cu24 Cu 0.70203 0.69510 0.00815
 C25 C 0.66213 0.70052 -0.01680
 C26 C 0.70960 0.65881 0.03592
 C27 C 0.66661 0.69817 0.03947
 C28 C 0.70565 0.65962 -0.02144
 O29 O 0.65558 0.31465 1.02021
 O30 O 0.68415 0.34260 0.97392
 O31 O 0.65434 0.31136 0.97753
 O32 O 0.68588 0.34640 1.01596
 O33 O 0.71353 0.32183 1.01803
 O34 O 0.68204 0.28668 0.97833
 O35 O 0.71244 0.31858 0.97540
 O36 O 0.68289 0.28960 1.02121
 Cu37 Cu 0.66715 0.33111 0.99695
 Cu38 Cu 0.70049 0.30164 0.99849
 C39 C 0.66408 0.29720 1.02846
 C40 C 0.70322 0.33556 0.96681
 C41 C 0.66284 0.29328 0.97099
 C42 C 0.70531 0.34054 1.02326
 O43 O 0.32620 0.64173 0.98162
 O44 O 0.35881 0.67402 1.02193
 O45 O 0.32898 0.64232 1.02417
 O46 O 0.35697 0.67244 0.97937
 O47 O 0.32996 0.69782 0.97997
 O48 O 0.30098 0.66660 1.02486
 O49 O 0.33142 0.69900 1.02283
 O50 O 0.29868 0.66659 0.98199
 Cu51 Cu 0.34545 0.65517 1.00174
 Cu52 Cu 0.31247 0.68503 1.00253
 C53 C 0.30694 0.64861 0.97479
 C54 C 0.35080 0.69203 1.02926
 C55 C 0.31015 0.64897 1.03216
 C56 C 0.34845 0.69021 0.97196
 O57 O -0.01786 0.34385 0.32181
 O58 O 0.02547 0.31105 0.35025
 O59 O 0.02650 0.34210 0.32078
 O60 O -0.01905 0.31294 0.35103
 O61 O -0.02086 0.28759 0.32517
 O62 O 0.02479 0.31720 0.29445
 O63 O 0.02382 0.28570 0.32433
 O64 O -0.01984 0.31897 0.29545
 Cu65 Cu 0.00401 0.32995 0.33859
 Cu66 Cu 0.00184 0.29980 0.30721
 C67 C -0.02631 0.33713 0.30382
 C68 C 0.03205 0.29278 0.34232
 C69 C 0.03334 0.33483 0.30238
 C70 C -0.02791 0.29534 0.34336
 O71 O 0.02076 0.68363 0.65702
 O72 O -0.03177 0.65658 0.67660
 O73 O -0.02206 0.68659 0.64710
 O74 O 0.01098 0.65455 0.68739
 O75 O 0.00846 0.68195 0.71109
 O76 O -0.02856 0.71224 0.67190
 O77 O -0.03548 0.68179 0.70243
 O78 O 0.01515 0.71150 0.67966
 Cu79 Cu -0.00507 0.66770 0.66465
 Cu80 Cu -0.01059 0.69951 0.69379
 C81 C 0.02654 0.70248 0.66430
 C82 C -0.04228 0.66407 0.69321
 C83 C -0.03095 0.70495 0.65245
 C84 C 0.01549 0.66275 0.70608
 O85 O 1.01769 0.64415 0.32707
 O86 O 0.97071 0.67373 0.35337
 O87 O 0.97451 0.64558 0.32126
 O88 O 1.01510 0.67272 0.35851
 O89 O 1.01980 0.70001 0.33477
 O90 O 0.97783 0.67327 0.29764
 O91 O 0.97511 0.70161 0.33020
 O92 O 1.02176 0.67098 0.30263
 Cu93 Cu 0.99400 0.65648 0.34257
 Cu94 Cu 0.99905 0.68937 0.31404
 C95 C 1.02723 0.65198 0.30994
 C96 C 0.96487 0.69271 0.34650
 C97 C 0.96973 0.65437 0.30284
 C98 C 1.02465 0.69089 0.35306
 O99 O 0.97892 0.32721 0.64790
 O100 O 1.02541 0.35169 0.68025
 O101 O 1.02285 0.32277 0.64961
 O102 O 0.98176 0.35730 0.67874
 O103 O 0.97692 0.33144 0.70405
 O104 O 1.01809 0.29593 0.67387
 O105 O 1.02117 0.32555 0.70540
 O106 O 0.97393 0.30109 0.67292
 Cu107 Cu 1.00248 0.34234 0.66163
 Cu108 Cu 0.99698 0.31087 0.69161
 C109 C 0.96888 0.30967 0.65446
 C110 C 1.03124 0.34293 0.69838
 C111 C 1.02752 0.30344 0.65643
 C112 C 0.97283 0.35075 0.69667
 O113 O 0.34732 0.01826 0.31946
 O114 O 0.31397 -0.02592 0.34603
 O115 O 0.34553 -0.02449 0.31603
 O116 O 0.31571 0.01679 0.34921
 O117 O 0.28881 0.01984 0.32393
 O118 O 0.31916 -0.02166 0.29026
 O119 O 0.28702 -0.02295 0.32080
 O120 O 0.32102 0.02150 0.29366
 Cu121 Cu 0.33327 -0.00417 0.33519
 Cu122 Cu 0.30136 -0.00055 0.30451
 C123 C 0.34002 0.02750 0.30207
 C124 C 0.29472 -0.03184 0.33825
 C125 C 0.33762 -0.03011 0.29744
 C126 C 0.29716 0.02529 0.34243
 O127 O 0.67534 -0.01593 0.64619
 O128 O 0.64265 0.02173 0.68071
 O129 O 0.67358 0.02664 0.64945
 O130 O 0.64579 -0.02055 0.67693
 O131 O 0.67323 -0.02108 0.70187
 O132 O 0.70102 0.02674 0.67437
 O133 O 0.66999 0.02160 0.70571
 O134 O 0.70342 -0.01639 0.67044
 Cu135 Cu 0.65660 0.00330 0.66084
 Cu136 Cu 0.68976 0.00285 0.69056
 C137 C 0.69475 -0.02291 0.65240
 C138 C 0.65018 0.02751 0.69938
 C139 C 0.69228 0.03445 0.65685
 C140 C 0.65474 -0.02898 0.69402
 O141 O 0.35193 0.97745 0.68340
 O142 O 0.31517 1.01486 0.65206
 O143 O 0.34781 1.01955 0.67987
 O144 O 0.31954 0.97202 0.65426
 O145 O 0.29337 0.97137 0.68047
 O146 O 0.32291 1.01853 0.70721
 O147 O 0.28963 1.01443 0.67885
 O148 O 0.32623 0.97574 0.71000
 Cu149 Cu 0.33606 0.99586 0.66464
 Cu150 Cu 0.30539 0.99479 0.69681
 C151 C 0.34573 0.97064 0.70227
 C152 C 0.29637 1.02144 0.66019
 C153 C 0.34046 1.02709 0.69796
 C154 C 0.30148 0.96373 0.66265
 O155 O 0.66191 0.99218 0.30598
 O156 O 0.69686 1.03292 0.33491
 O157 O 0.66424 1.03431 0.30534
 O158 O 0.69470 0.99025 0.33472
 O159 O 0.72100 0.98957 0.30864
 O160 O 0.68989 1.03356 0.27864
 O161 O 0.72259 1.03274 0.30837
 O162 O 0.68743 0.99069 0.27924
 Cu163 Cu 0.67699 1.01258 0.32293
 Cu164 Cu 0.70790 1.01149 0.29109
 C165 C 0.66819 0.98490 0.28743
 C166 C 0.71583 1.03966 0.32700
 C167 C 0.67132 1.04092 0.28666
 C168 C 0.71322 0.98258 0.32696
 C169 C 0.87608 0.80042 0.49335
 C170 C 0.86451 0.80624 0.47407
 C171 C 0.84905 0.82386 0.47437
 C172 C 0.84563 0.83646 0.49359
 C173 C 0.85851 0.83088 0.51254
 C174 C 0.87325 0.81253 0.51274
 C175 C 0.82801 0.85456 0.49414
 C176 C 0.81813 0.86117 0.51430
 C177 C 0.80074 0.87703 0.51494
 C178 C 0.79245 0.88590 0.49525
 C179 C 0.80146 0.87943 0.47498
 C180 C 0.81981 0.86450 0.47453
 H181 H 0.88736 0.78627 0.49315
 H182 H 0.83933 0.82700 0.45961
 H183 H 0.85738 0.84075 0.52724
 H184 H 0.82307 0.85353 0.52965
 H185 H 0.77888 0.89806 0.49569
 H186 H 0.82703 0.86037 0.45873
 C187 C 0.12310 0.20464 0.50583
 C188 C 0.13275 0.19830 0.48582
 C189 C 0.14752 0.18015 0.48523
 C190 C 0.15222 0.16769 0.50440
 C191 C 0.14146 0.17398 0.52430
 C192 C 0.12769 0.19292 0.52520
 C193 C 0.16964 0.14950 0.50386
 C194 C 0.18203 0.14379 0.52300
 C195 C 0.19980 0.12836 0.52219
 C196 C 0.20579 0.11892 0.50210
 C197 C 0.19407 0.12437 0.48282
 C198 C 0.17545 0.13891 0.48390
 H199 H 0.11184 0.21883 0.50636
 H200 H 0.15596 0.17661 0.46984
 H201 H 0.14422 0.16479 0.53933
 H202 H 0.17881 0.15187 0.53849
 H203 H 0.21972 0.10714 0.50147
 H204 H 0.16617 0.14235 0.46893
 C205 C 0.12687 0.78687 0.50590
 C206 C 0.13381 0.79763 0.52507
 C207 C 0.15054 0.81434 0.52381
 C208 C 0.16198 0.81914 0.50378
 C209 C 0.15483 0.80765 0.48471
 C210 C 0.13701 0.79191 0.48560
 C211 C 0.18199 0.83503 0.50306
 C212 C 0.18946 0.84470 0.48300
 C213 C 0.20948 0.85769 0.48208
 C214 C 0.22122 0.86254 0.50150
 C215 C 0.21377 0.85405 0.52172
 C216 C 0.19457 0.83997 0.52235
 H217 H 0.11326 0.77460 0.50685
 H218 H 0.15484 0.82298 0.53875
 H219 H 0.16343 0.81014 0.46916
 H220 H 0.18023 0.84193 0.46788
 H221 H 0.23611 0.87337 0.50088
 H222 H 0.19017 0.83251 0.53796
 C223 C 0.86518 0.21745 0.50069
 C224 C 0.86293 0.20464 0.51985
 C225 C 0.85015 0.18486 0.51910
 C226 C 0.83932 0.17803 0.49946
 C227 C 0.84193 0.19139 0.48049
 C228 C 0.85526 0.21075 0.48089
 C229 C 0.82568 0.15694 0.49854
 C230 C 0.82337 0.14536 0.47852
 C231 C 0.80967 0.12628 0.47711
 C232 C 0.79894 0.11819 0.49613
 C233 C 0.80197 0.12847 0.51652
 C234 C 0.81479 0.14821 0.51751
 H235 H 0.87524 0.23258 0.50102
 H236 H 0.84938 0.17459 0.53368
 H237 H 0.83356 0.18704 0.46525
 H238 H 0.83239 0.15087 0.46393
 H239 H 0.78767 0.10393 0.49499
 H240 H 0.81622 0.15660 0.53309
 C241 C 0.50637 0.87700 0.79952
 C242 C 0.48604 0.87390 0.81151
 C243 C 0.48600 0.85925 0.82948
 C244 C 0.50579 0.84715 0.83506
 C245 C 0.52605 0.85077 0.82281
 C246 C 0.52645 0.86581 0.80523
 C247 C 0.50506 0.83018 0.85297
 C248 C 0.52492 0.82495 0.86511
 C249 C 0.52464 0.80789 0.88087
 C250 C 0.50404 0.79645 0.88492
 C251 C 0.48395 0.80184 0.87361
 C252 C 0.48458 0.81848 0.85754
 H253 H 0.50665 0.88820 0.78557
 H254 H 0.47052 0.85748 0.83916
 H255 H 0.54141 0.84148 0.82636
 H256 H 0.54063 0.83423 0.86252
 H257 H 0.50355 0.78315 0.89691
 H258 H 0.46917 0.82165 0.84819
 C259 C 0.49628 0.12609 0.20300
 C260 C 0.47605 0.13779 0.19923
 C261 C 0.47626 0.15558 0.18436
 C262 C 0.49643 0.16149 0.17269
 C263 C 0.51649 0.14897 0.17649
 C264 C 0.51659 0.13152 0.19185
 C265 C 0.49666 0.18099 0.15721
 C266 C 0.51728 0.19260 0.15253
 C267 C 0.51737 0.21136 0.13884
 C268 C 0.49665 0.21907 0.13031
 C269 C 0.47595 0.20812 0.13478
 C270 C 0.47611 0.18872 0.14755
 H271 H 0.49618 0.11265 0.21485
 H272 H 0.46073 0.16507 0.18261
 H273 H 0.53207 0.15238 0.16743
 H274 H 0.53331 0.18768 0.15991
 H275 H 0.49664 0.23354 0.11971
 H276 H 0.46005 0.18008 0.15013
 C277 C 0.49516 0.12155 0.79904
 C278 C 0.51535 0.12652 0.81052
 C279 C 0.51506 0.14348 0.82623
 C280 C 0.49518 0.15630 0.82973
 C281 C 0.47517 0.15084 0.81779
 C282 C 0.47499 0.13333 0.80282
 C283 C 0.49555 0.17587 0.84487
 C284 C 0.47500 0.18447 0.85370
 C285 C 0.47508 0.20420 0.86574
 C286 C 0.49599 0.21457 0.87048
 C287 C 0.51667 0.20591 0.86286
 C288 C 0.51638 0.18690 0.84977
 H289 H 0.49509 0.10855 0.78686
 H290 H 0.53045 0.14645 0.83565
 H291 H 0.45974 0.16051 0.81930
 H292 H 0.45873 0.17632 0.85094
 H293 H 0.49617 0.22933 0.88054
 H294 H 0.53248 0.18140 0.84298
 C295 C 0.50435 0.88460 0.20244
 C296 C 0.52395 0.88107 0.18958
 C297 C 0.52312 0.86491 0.17310
 C298 C 0.50349 0.85142 0.17018
 C299 C 0.48391 0.85563 0.18318
 C300 C 0.48424 0.87232 0.19910
 C301 C 0.50404 0.83230 0.15459
 C302 C 0.48374 0.82376 0.14509
 C303 C 0.48432 0.80473 0.13192
 C304 C 0.50546 0.79497 0.12717
 C305 C 0.52585 0.80341 0.13591
 C306 C 0.52501 0.82174 0.14985
 H307 H 0.50471 0.89684 0.21539
 H308 H 0.53794 0.86293 0.16262
 H309 H 0.46865 0.84549 0.18173
 H310 H 0.46739 0.83151 0.14812
 H311 H 0.50606 0.78088 0.11624
 H312 H 0.54081 0.82717 0.15745
 C313 C 0.77454 0.49971 0.86493
 C314 C 0.78266 0.48037 0.85523
 C315 C 0.80103 0.48164 0.84039
 C316 C 0.81191 0.50210 0.83562
 C317 C 0.80381 0.52130 0.84634
 C318 C 0.78470 0.52027 0.86039
 C319 C 0.83089 0.50349 0.81892
 C320 C 0.83527 0.52337 0.80730
 C321 C 0.85245 0.52463 0.79120
 C322 C 0.86481 0.50560 0.78592
 C323 C 0.86092 0.48554 0.79707
 C324 C 0.84434 0.48479 0.81388
 H325 H 0.76040 0.49868 0.87649
 H326 H 0.80616 0.46663 0.83220
 H327 H 0.81194 0.53720 0.84361
 H328 H 0.82503 0.53792 0.81014
 H329 H 0.87759 0.50650 0.77301
 H330 H 0.84226 0.46958 0.82310
 C331 C 0.20759 0.49817 0.12811
 C332 C 0.19674 0.47831 0.13409
 C333 C 0.17928 0.47857 0.14996
 C334 C 0.17360 0.49833 0.16097
 C335 C 0.18511 0.51806 0.15483
 C336 C 0.20182 0.51811 0.13824
 C337 C 0.15664 0.49824 0.17947
 C338 C 0.14437 0.51756 0.18480
 C339 C 0.12985 0.51815 0.20321
 C340 C 0.12690 0.49890 0.21589
 C341 C 0.13808 0.47927 0.21043
 C342 C 0.15315 0.47909 0.19248
 H343 H 0.22049 0.49812 0.11526
 H344 H 0.17062 0.46319 0.15396
 H345 H 0.18183 0.53339 0.16334
 H346 H 0.14583 0.53219 0.17458
 H347 H 0.11578 0.49909 0.23016
 H348 H 0.16254 0.46408 0.18926
 C349 C 0.80051 0.49577 0.12161
 C350 C 0.80631 0.51500 0.13310
 C351 C 0.82480 0.51472 0.14774
 C352 C 0.83784 0.49540 0.15071
 C353 C 0.83229 0.47648 0.13821
 C354 C 0.81342 0.47639 0.12389
 C355 C 0.85645 0.49464 0.16750
 C356 C 0.86109 0.47471 0.17874
 C357 C 0.87781 0.47386 0.19517
 C358 C 0.88988 0.49312 0.20066
 C359 C 0.88563 0.51321 0.18984
 C360 C 0.86904 0.51385 0.17315
 H361 H 0.78577 0.49600 0.11081
 H362 H 0.82837 0.52942 0.15725
 H363 H 0.84271 0.46179 0.13946
 H364 H 0.85119 0.45990 0.17539
 H365 H 0.90254 0.49248 0.21365
 H366 H 0.86621 0.52928 0.16451
 C367 C 0.19650 0.50209 0.87970
 C368 C 0.18990 0.52233 0.87045
 C369 C 0.17242 0.52270 0.85464
 C370 C 0.16139 0.50293 0.84812
 C371 C 0.16797 0.48281 0.85824
 C372 C 0.18598 0.48223 0.87346
 C373 C 0.14417 0.50299 0.82989
 C374 C 0.14205 0.48439 0.81607
 C375 C 0.12632 0.48414 0.79875
 C376 C 0.11275 0.50270 0.79487
 C377 C 0.11441 0.52146 0.80822
 C378 C 0.13015 0.52158 0.82572
 H379 H 0.20995 0.50181 0.89197
 H380 H 0.16823 0.53830 0.84686
 H381 H 0.15961 0.46742 0.85391
 H382 H 0.15300 0.47017 0.81821
 H383 H 0.10069 0.50248 0.78133
 H384 H 0.13100 0.53594 0.83624
 C385 C 0.29341 0.36649 0.05568
 C386 C 0.28351 0.38116 0.07045
 C387 C 0.25982 0.38114 0.07381
 C388 C 0.24603 0.36555 0.06286
 C389 C 0.25600 0.35060 0.04818
 C390 C 0.27974 0.35130 0.04410
 N391 N 0.25038 0.39810 0.08732
 N392 N 0.22899 0.40089 0.09025
 C393 C 0.22089 0.41918 0.10297
 C394 C 0.19727 0.42277 0.10507
 C395 C 0.18917 0.44169 0.11576
 C396 C 0.20469 0.45731 0.12430
 C397 C 0.22831 0.45323 0.12282
 C398 C 0.23634 0.43440 0.11230
 H399 H 0.31177 0.36733 0.05302
 H400 H 0.29427 0.39311 0.07882
 H401 H 0.22764 0.36527 0.06525
 H402 H 0.24506 0.33909 0.03943
 H403 H 0.18517 0.41121 0.09794
 H404 H 0.17087 0.44450 0.11668
 H405 H 0.24062 0.46481 0.12962
 H406 H 0.25467 0.43202 0.11106
 C407 C 0.74629 0.65120 0.05613
 C408 C 0.75919 0.63797 0.07040
 C409 C 0.74906 0.61976 0.08103
 C410 C 0.72566 0.61527 0.07772
 C411 C 0.71286 0.62829 0.06339
 C412 C 0.72310 0.64617 0.05216
 N413 N 0.76305 0.60498 0.09359
 N414 N 0.75430 0.58819 0.10322
 C415 C 0.76767 0.57177 0.11417
 C416 C 0.75647 0.55280 0.12204
 C417 C 0.76906 0.53469 0.12940
 C418 C 0.79311 0.53540 0.12916
 C419 C 0.80437 0.55501 0.12269
 C420 C 0.79172 0.57308 0.11509
 H421 H 0.75462 0.66490 0.04771
 H422 H 0.77724 0.64156 0.07273
 H423 H 0.71738 0.60129 0.08569
 H424 H 0.69497 0.62412 0.06086
 H425 H 0.73795 0.55163 0.12139
 H426 H 0.76004 0.51978 0.13448
 H427 H 0.82292 0.55584 0.12228
 H428 H 0.80073 0.58762 0.10907
 C429 C 0.73823 0.34469 0.94426
 C430 C 0.74943 0.35799 0.92860
 C431 C 0.73738 0.37429 0.91704
 C432 C 0.71374 0.37665 0.92082
 C433 C 0.70261 0.36355 0.93653
 C434 C 0.71479 0.34772 0.94873
 N435 N 0.74963 0.38946 0.90305
 N436 N 0.73915 0.40452 0.89246
 C437 C 0.75064 0.42136 0.87992
 C438 C 0.73741 0.43815 0.87057
 C439 C 0.74789 0.45683 0.86136
 C440 C 0.77188 0.45893 0.86121
 C441 C 0.78524 0.44141 0.86925
 C442 C 0.77469 0.42275 0.87869
 H443 H 0.74806 0.33264 0.95342
 H444 H 0.76767 0.35604 0.92593
 H445 H 0.70398 0.38911 0.91216
 H446 H 0.68451 0.36617 0.93945
 H447 H 0.71888 0.43726 0.87143
 H448 H 0.73726 0.47007 0.85512
 H449 H 0.80377 0.44275 0.86941
 H450 H 0.78525 0.40995 0.88584
 C451 C 0.30485 0.61738 0.94814
 C452 C 0.29277 0.60418 0.93335
 C453 C 0.26981 0.60853 0.92860
 C454 C 0.25905 0.62671 0.93845
 C455 C 0.27120 0.64010 0.95321
 C456 C 0.29416 0.63536 0.95842
 N457 N 0.25775 0.59341 0.91470
 N458 N 0.23653 0.59500 0.91016
 C459 C 0.22527 0.57840 0.89722
 C460 C 0.20140 0.57896 0.89466
 C461 C 0.18978 0.56127 0.88472
 C462 C 0.20199 0.54276 0.87734
 C463 C 0.22602 0.54290 0.87870
 C464 C 0.23756 0.56051 0.88853
 H465 H 0.32253 0.61334 0.95167
 H466 H 0.30121 0.59018 0.92589
 H467 H 0.24125 0.63033 0.93503
 H468 H 0.26251 0.65385 0.96086
 H469 H 0.19171 0.59265 0.90123
 H470 H 0.17124 0.56148 0.88388
 H471 H 0.23583 0.52896 0.87284
 H472 H 0.25602 0.55972 0.89005
 C473 C 0.05249 0.25712 0.35007
 C474 C 0.06698 0.24443 0.36338
 C475 C 0.07838 0.25411 0.38119
 C476 C 0.07582 0.27686 0.38506
 C477 C 0.06129 0.28946 0.37194
 C478 C 0.04911 0.27966 0.35459
 N479 N 0.09084 0.24039 0.39621
 N480 N 0.10075 0.24868 0.41289
 C481 C 0.11167 0.23563 0.42945
 C482 C 0.12031 0.24641 0.44797
 C483 C 0.12808 0.23425 0.46598
 C484 C 0.12744 0.21103 0.46566
 C485 C 0.11998 0.20017 0.44656
 C486 C 0.11200 0.21240 0.42857
 H487 H 0.04332 0.24914 0.33681
 H488 H 0.06875 0.22690 0.36025
 H489 H 0.08444 0.28479 0.39869
 H490 H 0.05922 0.30683 0.37571
 H491 H 0.12012 0.26430 0.44880
 H492 H 0.13402 0.24298 0.48042
 H493 H 0.11927 0.18227 0.44600
 H494 H 0.10535 0.20373 0.41439
 C495 C 0.06240 0.70211 0.64209
 C496 C 0.07828 0.71289 0.62857
 C497 C 0.07788 0.73590 0.62620
 C498 C 0.06235 0.74828 0.63876
 C499 C 0.04655 0.73748 0.65258
 C500 C 0.04593 0.71423 0.65371
 N501 N 0.09165 0.74566 0.60920
 N502 N 0.09150 0.76616 0.60432
 C503 C 0.10408 0.77430 0.58563
 C504 C 0.10442 0.79703 0.58087
 C505 C 0.11472 0.80495 0.56148
 C506 C 0.12446 0.79009 0.54649
 C507 C 0.12466 0.76743 0.55162
 C508 C 0.11467 0.75961 0.57100
 H509 H 0.06238 0.68419 0.64272
 H510 H 0.09017 0.70320 0.61896
 H511 H 0.06174 0.76611 0.63714
 H512 H 0.03394 0.74719 0.66127
 H513 H 0.09624 0.80855 0.59193
 H514 H 0.11438 0.82249 0.55782
 H515 H 0.13233 0.75570 0.54044
 H516 H 0.11467 0.74198 0.57418
 C517 C 0.93324 0.69342 0.37417
 C518 C 0.91756 0.70488 0.38706
 C519 C 0.91476 0.72766 0.38434
 C520 C 0.92713 0.73883 0.36776
 C521 C 0.94283 0.72733 0.35471
 C522 C 0.94645 0.70459 0.35819
 N523 N 0.90103 0.73915 0.40003
 N524 N 0.89798 0.75997 0.39947
 C525 C 0.88599 0.77099 0.41679
 C526 C 0.88383 0.79404 0.41604
 C527 C 0.87545 0.80552 0.43427
 C528 C 0.86930 0.79402 0.45355
 C529 C 0.87021 0.77082 0.45379
 C530 C 0.87842 0.75938 0.43557
 H531 H 0.93548 0.67589 0.37716
 H532 H 0.90817 0.69613 0.39982
 H533 H 0.92528 0.75650 0.36543
 H534 H 0.95274 0.73637 0.34253
 H535 H 0.88964 0.80320 0.40172
 H536 H 0.87502 0.82343 0.43375
 H537 H 0.86532 0.76158 0.46838
 H538 H 0.87980 0.74155 0.43657
 C539 C 0.94937 0.30647 0.61814
 C540 C 0.93654 0.29444 0.60299
 C541 C 0.92605 0.27448 0.60908
 C542 C 0.92782 0.26694 0.63088
 C543 C 0.94095 0.27889 0.64610
 C544 C 0.95226 0.29856 0.63972
 N545 N 0.91540 0.26162 0.59224
 N546 N 0.90264 0.24481 0.59582
 C547 C 0.89386 0.23248 0.57758
 C548 C 0.87295 0.22106 0.57937
 C549 C 0.86313 0.21110 0.56081
 C550 C 0.87437 0.21218 0.54033
 C551 C 0.89615 0.22223 0.53914
 C552 C 0.90567 0.23245 0.55746
 H553 H 0.95785 0.32151 0.61263
 H554 H 0.93529 0.30036 0.58621
 H555 H 0.91990 0.25145 0.63586
 H556 H 0.94288 0.27235 0.66259
 H557 H 0.86376 0.22079 0.59485
 H558 H 0.84635 0.20346 0.56225
 H559 H 0.90564 0.22270 0.52382
 H560 H 0.92215 0.24066 0.55584
 C561 C 0.37312 0.05388 0.30297
 C562 C 0.38756 0.06940 0.29293
 C563 C 0.38350 0.07647 0.27141
 C564 C 0.36425 0.06829 0.26009
 C565 C 0.34960 0.05277 0.27020
 C566 C 0.35415 0.04512 0.29164
 N567 N 0.40013 0.09074 0.26122
 N568 N 0.39872 0.09765 0.24148
 C569 C 0.41684 0.11066 0.23183
 C570 C 0.41564 0.11666 0.20959
 C571 C 0.43446 0.12676 0.19914
 C572 C 0.45479 0.13085 0.21085
 C573 C 0.45545 0.12596 0.23344
 C574 C 0.43669 0.11600 0.24384
 H575 H 0.37705 0.04848 0.31953
 H576 H 0.40237 0.07555 0.30179
 H577 H 0.36082 0.07350 0.24338
 H578 H 0.33513 0.04633 0.26107
 H579 H 0.40048 0.11266 0.20012
 H580 H 0.43358 0.13026 0.18169
 H581 H 0.47083 0.12920 0.24289
 H582 H 0.43807 0.11172 0.26109
 C583 C 0.61124 0.04000 0.71016
 C584 C 0.59625 0.05031 0.72462
 C585 C 0.60456 0.06145 0.74302
 C586 C 0.62830 0.06226 0.74692
 C587 C 0.64344 0.05147 0.73261
 C588 C 0.63498 0.04023 0.71407
 N589 N 0.58822 0.07127 0.75746
 N590 N 0.59316 0.08554 0.77203
 C591 C 0.57523 0.09443 0.78541
 C592 C 0.57683 0.11623 0.79295
 C593 C 0.55772 0.12644 0.80242
 C594 C 0.53687 0.11477 0.80479
 C595 C 0.53613 0.09226 0.79907
 C596 C 0.55502 0.08227 0.78928
 H597 H 0.60413 0.03130 0.69619
 H598 H 0.57798 0.04957 0.72151
 H599 H 0.63504 0.07075 0.76116
 H600 H 0.66164 0.05183 0.73606
 H601 H 0.59234 0.12578 0.79014
 H602 H 0.55886 0.14381 0.80658
 H603 H 0.52059 0.08260 0.80129
 H604 H 0.55358 0.06523 0.78401
 C605 C 0.38529 0.95737 0.70967
 C606 C 0.40133 0.94697 0.72306
 C607 C 0.39445 0.93625 0.74238
 C608 C 0.37112 0.93579 0.74819
 C609 C 0.35499 0.94658 0.73493
 C610 C 0.36200 0.95759 0.71560
 N611 N 0.41178 0.92674 0.75595
 N612 N 0.40769 0.91338 0.77172
 C613 C 0.42630 0.90490 0.78448
 C614 C 0.42435 0.88408 0.79451
 C615 C 0.44353 0.87427 0.80426
 C616 C 0.46482 0.88539 0.80442
 C617 C 0.46612 0.90702 0.79587
 C618 C 0.44714 0.91658 0.78581
 H619 H 0.39130 0.96583 0.69500
 H620 H 0.41928 0.94742 0.71848
 H621 H 0.36550 0.92763 0.76316
 H622 H 0.33716 0.94654 0.73992
 H623 H 0.40834 0.87495 0.79368
 H624 H 0.44196 0.85756 0.81063
 H625 H 0.48203 0.91633 0.79634
 H626 H 0.44888 0.93292 0.77860
 C627 C 0.62906 0.96927 0.28212
 C628 C 0.61276 0.95806 0.26968
 C629 C 0.61895 0.94768 0.25015
 C630 C 0.64194 0.94837 0.24315
 C631 C 0.65836 0.96002 0.25547
 C632 C 0.65199 0.97072 0.27504
 N633 N 0.60115 0.93736 0.23768
 N634 N 0.60454 0.92385 0.22206
 C635 C 0.58525 0.91455 0.21074
 C636 C 0.58665 0.89328 0.20189
 C637 C 0.56691 0.88264 0.19401
 C638 C 0.54553 0.89337 0.19450
 C639 C 0.54469 0.91541 0.20175
 C640 C 0.56427 0.92579 0.20999
 H641 H 0.62346 0.97743 0.29697
 H642 H 0.59509 0.95763 0.27519
 H643 H 0.64701 0.94047 0.22799
 H644 H 0.67587 0.96095 0.24956
 H645 H 0.60273 0.88444 0.20232
 H646 H 0.56820 0.86564 0.18866
 H647 H 0.52872 0.92442 0.20173
 H648 H 0.56289 0.94244 0.21633
 C649 C 0.33391 0.25735 0.94947
 C650 C 0.34770 0.24440 0.93577
 C651 C 0.36557 0.25415 0.92363
 C652 C 0.36893 0.27718 0.92469
 C653 C 0.35543 0.29001 0.93851
 C654 C 0.33812 0.28019 0.95140
 N655 N 0.38130 0.24043 0.91183
 N656 N 0.39733 0.24909 0.90039
 C657 C 0.41488 0.23670 0.88972
 C658 C 0.43151 0.24840 0.87779
 C659 C 0.45062 0.23761 0.86942
 C660 C 0.45348 0.21479 0.87283
 C661 C 0.43625 0.20276 0.88393
 C662 C 0.41705 0.21368 0.89245
 H663 H 0.32074 0.24936 0.95932
 H664 H 0.34494 0.22668 0.93517
 H665 H 0.38257 0.28520 0.91550
 H666 H 0.35895 0.30760 0.93955
 H667 H 0.43001 0.26613 0.87562
 H668 H 0.46348 0.24719 0.86062
 H669 H 0.43810 0.18517 0.88680
 H670 H 0.40440 0.20434 0.90172
 C671 C 0.62287 0.70836 0.96939
 C672 C 0.60729 0.72169 0.95828
 C673 C 0.61479 0.74041 0.94675
 C674 C 0.63828 0.74570 0.94622
 C675 C 0.65397 0.73252 0.95773
 C676 C 0.64635 0.71376 0.96952
 N677 N 0.59787 0.75395 0.93648
 N678 N 0.60236 0.76890 0.92229
 C679 C 0.58404 0.78163 0.91313
 C680 C 0.58600 0.79024 0.89180
 C681 C 0.56697 0.79977 0.88150
 C682 C 0.54583 0.80114 0.89262
 C683 C 0.54459 0.79408 0.91465
 C684 C 0.56341 0.78423 0.92471
 H685 H 0.61638 0.69417 0.97844
 H686 H 0.58921 0.71753 0.95881
 H687 H 0.64438 0.76021 0.93743
 H688 H 0.67195 0.73710 0.95761
 H689 H 0.60185 0.78841 0.88272
 H690 H 0.56849 0.80499 0.86451
 H691 H 0.52882 0.79553 0.92392
 H692 H 0.56167 0.77814 0.94141
 C693 C 0.38259 0.69469 0.05650
 C694 C 0.39650 0.70685 0.07068
 C695 C 0.39284 0.72946 0.07371
 C696 C 0.37451 0.73978 0.06286
 C697 C 0.36031 0.72751 0.04881
 C698 C 0.36448 0.70490 0.04523
 N699 N 0.40873 0.74141 0.08712
 N700 N 0.40865 0.76235 0.08935
 C701 C 0.42595 0.77314 0.10227
 C702 C 0.42784 0.79628 0.10193
 C703 C 0.44630 0.80688 0.11238
 C704 C 0.46309 0.79436 0.12325
 C705 C 0.46040 0.77128 0.12454
 C706 C 0.44209 0.76077 0.11417
 H707 H 0.38615 0.67728 0.05423
 H708 H 0.41057 0.69874 0.07897
 H709 H 0.37139 0.75728 0.06499
 H710 H 0.34650 0.73581 0.04030
 H711 H 0.41552 0.80604 0.09287
 H712 H 0.44800 0.82469 0.11113
 H713 H 0.47287 0.76127 0.13317
 H714 H 0.44095 0.74290 0.11496
 C715 C 0.65661 0.26340 0.05171
 C716 C 0.64312 0.25178 0.06703
 C717 C 0.62456 0.26208 0.07732
 C718 C 0.61999 0.28440 0.07251
 C719 C 0.63328 0.29592 0.05709
 C720 C 0.65151 0.28546 0.04625
 N721 N 0.60954 0.24926 0.09119
 N722 N 0.59306 0.25825 0.10149
 C723 C 0.57639 0.24596 0.11395
 C724 C 0.55854 0.25756 0.12389
 C725 C 0.53997 0.24624 0.13322
 C726 C 0.53896 0.22301 0.13279
 C727 C 0.55760 0.21129 0.12408
 C728 C 0.57619 0.22269 0.11461
 H729 H 0.67051 0.25488 0.04359
 H730 H 0.64678 0.23458 0.07048
 H731 H 0.60572 0.29276 0.08016
 H732 H 0.62897 0.31293 0.05334
 H733 H 0.55851 0.27547 0.12350
 H734 H 0.52592 0.25565 0.14002
 H735 H 0.55715 0.19339 0.12344
 H736 H 0.58982 0.21336 0.10699
 C737 C 0.25948 0.04156 0.65319
 C738 C 0.24640 0.05620 0.64052
 C739 C 0.25618 0.06710 0.62240
 C740 C 0.27934 0.06345 0.61724
 C741 C 0.29230 0.04874 0.62968
 C742 C 0.28249 0.03748 0.64766
 N743 N 0.24215 0.08066 0.60857
 N744 N 0.25091 0.09133 0.59251
 C745 C 0.23769 0.10361 0.57698
 C746 C 0.24911 0.11311 0.55903
 C747 C 0.23675 0.12223 0.54167
 C748 C 0.21269 0.12212 0.54212
 C749 C 0.20120 0.11388 0.56078
 C750 C 0.21364 0.10453 0.57811
 H751 H 0.25149 0.03312 0.66698
 H752 H 0.22854 0.05878 0.64461
 H753 H 0.28733 0.07157 0.60327
 H754 H 0.31002 0.04611 0.62511
 H755 H 0.26764 0.11248 0.55802
 H756 H 0.24594 0.12866 0.52750
 H757 H 0.18264 0.11358 0.56138
 H758 H 0.20448 0.09726 0.59188
 C759 C 0.75045 0.06275 0.33138
 C760 C 0.76478 0.07547 0.34494
 C761 C 0.75879 0.07906 0.36693
 C762 C 0.73773 0.07107 0.37486
 C763 C 0.72316 0.05900 0.36129
 C764 C 0.72956 0.05404 0.33952
 N765 N 0.77418 0.09017 0.38153
 N766 N 0.77645 0.08272 0.40100
 C767 C 0.78922 0.09358 0.41786
 C768 C 0.79522 0.08130 0.43645
 C769 C 0.80358 0.09182 0.45515
 C770 C 0.80552 0.11501 0.45580
 C771 C 0.80092 0.12725 0.43656
 C772 C 0.79287 0.11658 0.41765
 H773 H 0.75590 0.05947 0.31469
 H774 H 0.78094 0.08171 0.33860
 H775 H 0.73267 0.07404 0.39172
 H776 H 0.70724 0.05284 0.36827
 H777 H 0.79246 0.06356 0.43677
 H778 H 0.80752 0.08186 0.46948
 H779 H 0.80212 0.14513 0.43657
 H780 H 0.78807 0.12638 0.40346
 C781 C 0.69476 0.95041 0.62139
 C782 C 0.70594 0.93623 0.60702
 C783 C 0.72944 0.93258 0.60897
 C784 C 0.74175 0.94285 0.62602
 C785 C 0.73048 0.95701 0.64065
 C786 C 0.70692 0.96120 0.63820
 N787 N 0.74024 0.91943 0.59252
 N788 N 0.76166 0.91566 0.59175
 C789 C 0.77117 0.90343 0.57380
 C790 C 0.79497 0.90084 0.57222
 C791 C 0.80469 0.89125 0.55349
 C792 C 0.79065 0.88428 0.53605
 C793 C 0.76676 0.88591 0.53817
 C794 C 0.75710 0.89535 0.55684
 H795 H 0.67657 0.95309 0.61916
 H796 H 0.69632 0.92842 0.59394
 H797 H 0.76000 0.94025 0.62776
 H798 H 0.74025 0.96509 0.65347
 H799 H 0.80603 0.90698 0.58513
 H800 H 0.82317 0.89021 0.55217
 H801 H 0.75556 0.88035 0.52510
 H802 H 0.73865 0.89695 0.55766
 C803 C 0.25720 0.94978 0.34792
 C804 C 0.24435 0.93548 0.36145
 C805 C 0.25526 0.92223 0.37719
 C806 C 0.27931 0.92292 0.37873
 C807 C 0.29207 0.93730 0.36547
 C808 C 0.28116 0.95119 0.35022
 N809 N 0.24180 0.90950 0.39252
 N810 N 0.25150 0.89696 0.40651
 C811 C 0.23959 0.88512 0.42351
 C812 C 0.25257 0.87230 0.43797
 C813 C 0.24246 0.86273 0.45650
 C814 C 0.21906 0.86577 0.46092
 C815 C 0.20567 0.87771 0.44582
 C816 C 0.21591 0.88747 0.42723
 H817 H 0.24834 0.96037 0.33636
 H818 H 0.22584 0.93519 0.36010
 H819 H 0.28824 0.91289 0.39071
 H820 H 0.31051 0.93791 0.36752
 H821 H 0.27081 0.87040 0.43527
 H822 H 0.25308 0.85337 0.46775
 H823 H 0.18760 0.88030 0.44893
 H824 H 0.20558 0.89739 0.41625
 C825 C 0.05227 0.34858 0.73395
 C826 C 0.06705 0.36128 0.74700
 C827 C 0.07906 0.37928 0.73791
 C828 C 0.07714 0.38368 0.71529
 C829 C 0.06239 0.37109 0.70230
 C830 C 0.04928 0.35383 0.71160
 N831 N 0.09105 0.39421 0.75213
 N832 N 0.10015 0.41192 0.74465
 C833 C 0.11028 0.42842 0.75839
 C834 C 0.11674 0.44859 0.74879
 C835 C 0.12307 0.46648 0.76190
 C836 C 0.12330 0.46433 0.78488
 C837 C 0.11827 0.44368 0.79449
 C838 C 0.11162 0.42582 0.78133
 H839 H 0.04241 0.33536 0.74156
 H840 H 0.06833 0.35774 0.76442
 H841 H 0.08629 0.39741 0.70779
 H842 H 0.06066 0.37542 0.68508
 H843 H 0.11572 0.45077 0.73114
 H844 H 0.12702 0.48223 0.75416
 H845 H 0.11824 0.44172 0.81219
 H846 H 0.10668 0.41036 0.78910
 C847 C 0.04807 0.61644 0.30567
 C848 C 0.06040 0.60160 0.29295
 C849 C 0.06894 0.60793 0.27241
 C850 C 0.06579 0.62973 0.26492
 C851 C 0.05313 0.64466 0.27760
 C852 C 0.04368 0.63795 0.29790
 N853 N 0.07902 0.59122 0.25906
 N854 N 0.09060 0.59506 0.24170
 C855 C 0.09896 0.57676 0.22925
 C856 C 0.12012 0.57829 0.21844
 C857 C 0.12987 0.55944 0.20902
 C858 C 0.11830 0.53891 0.20996
 C859 C 0.09623 0.53801 0.21925
 C860 C 0.08679 0.55666 0.22900
 H861 H 0.04111 0.61068 0.32121
 H862 H 0.06275 0.58483 0.29883
 H863 H 0.07222 0.63488 0.24898
 H864 H 0.04999 0.66109 0.27116
 H865 H 0.12963 0.59374 0.21842
 H866 H 0.14692 0.56069 0.20204
 H867 H 0.08651 0.52269 0.21960
 H868 H 0.07014 0.55528 0.23682
 C869 C 0.94635 0.36864 0.30386
 C870 C 0.93158 0.38301 0.29300
 C871 C 0.92671 0.38011 0.27073
 C872 C 0.93604 0.36200 0.25950
 C873 C 0.95076 0.34742 0.27043
 C874 C 0.95646 0.35094 0.29260
 N875 N 0.91393 0.39692 0.25972
 N876 N 0.90960 0.39656 0.23925
 C877 C 0.89849 0.41485 0.22878
 C878 C 0.89520 0.41459 0.20599
 C879 C 0.88735 0.43349 0.19504
 C880 C 0.88289 0.45294 0.20682
 C881 C 0.88507 0.45278 0.22978
 C882 C 0.89275 0.43392 0.24069
 H883 H 0.95023 0.37168 0.32098
 H884 H 0.92451 0.39695 0.30176
 H885 H 0.93252 0.35950 0.24223
 H886 H 0.95829 0.33391 0.26136
 H887 H 0.89960 0.40003 0.19662
 H888 H 0.88585 0.43327 0.17730
 H889 H 0.88140 0.46748 0.23924
 H890 H 0.89502 0.43455 0.25833
 C891 C 0.92791 0.63454 0.68947
 C892 C 0.91189 0.62000 0.69875
 C893 C 0.90587 0.62170 0.72090
 C894 C 0.91509 0.63904 0.73351
 C895 C 0.93105 0.65379 0.72417
 C896 C 0.93814 0.65122 0.70223
 N897 N 0.89229 0.60432 0.73048
 N898 N 0.88696 0.60361 0.75076
 C899 C 0.87522 0.58482 0.76003
 C900 C 0.87026 0.58446 0.78256
 C901 C 0.86169 0.56520 0.79256
 C902 C 0.85813 0.54592 0.78015
 C903 C 0.86205 0.54667 0.75737
 C904 C 0.87047 0.56593 0.74738
 H905 H 0.93289 0.63221 0.67249
 H906 H 0.90492 0.60669 0.68888
 H907 H 0.91069 0.64065 0.75072
 H908 H 0.93870 0.66645 0.73441
 H909 H 0.87390 0.59886 0.79252
 H910 H 0.85895 0.56502 0.81018
 H911 H 0.85917 0.53214 0.74737
 H912 H 0.87407 0.56575 0.72992
 C913 C 0.73886 0.65388 0.95432
 C914 C 0.75049 0.64074 0.93903
 C915 C 0.74022 0.62152 0.93073
 C916 C 0.71801 0.61570 0.93773
 C917 C 0.70656 0.62851 0.95320
 C918 C 0.71686 0.64768 0.96195
 N919 N 0.75279 0.60745 0.91615
 N920 N 0.74268 0.59169 0.90620
 C921 C 0.75407 0.57585 0.89269
 C922 C 0.74056 0.56036 0.88162
 C923 C 0.75066 0.54291 0.87040
 C924 C 0.77461 0.54047 0.87016
 C925 C 0.78831 0.55663 0.88043
 C926 C 0.77810 0.57423 0.89171
 H927 H 0.74740 0.66850 0.96062
 H928 H 0.76762 0.64542 0.93383
 H929 H 0.70967 0.60089 0.93169
 H930 H 0.68965 0.62314 0.95844
 H931 H 0.72204 0.56147 0.88225
 H932 H 0.73968 0.53095 0.86230
 H933 H 0.80680 0.55510 0.88056
 H934 H 0.78886 0.58601 0.90027
 C935 C 0.28921 0.37195 0.94652
 C936 C 0.27807 0.38731 0.93324
 C937 C 0.25479 0.38494 0.92852
 C938 C 0.24275 0.36637 0.93656
 C939 C 0.25401 0.35063 0.94967
 C940 C 0.27733 0.35351 0.95525
 N941 N 0.24400 0.40230 0.91635
 N942 N 0.22253 0.40359 0.91291
 C943 C 0.21333 0.42231 0.90133
 C944 C 0.18952 0.42497 0.89967
 C945 C 0.18038 0.44416 0.89008
 C946 C 0.19502 0.46098 0.88212
 C947 C 0.21883 0.45781 0.88307
 C948 C 0.22789 0.43876 0.89256
 H949 H 0.30717 0.37480 0.95014
 H950 H 0.28751 0.40154 0.92706
 H951 H 0.22470 0.36421 0.93301
 H952 H 0.24426 0.33667 0.95600
 H953 H 0.17806 0.41245 0.90633
 H954 H 0.16196 0.44618 0.88955
 H955 H 0.23053 0.47025 0.87664
 H956 H 0.24634 0.43713 0.89338
 C957 C 0.31065 0.61758 0.05741
 C958 C 0.29979 0.60393 0.07277
 C959 C 0.27754 0.60843 0.07978
 C960 C 0.26640 0.62743 0.07192
 C961 C 0.27739 0.64141 0.05666
 C962 C 0.29950 0.63634 0.04880
 N963 N 0.26643 0.59245 0.09362
 N964 N 0.24558 0.59362 0.09965
 C965 C 0.23530 0.57600 0.11220
 C966 C 0.21174 0.57635 0.11664
 C967 C 0.20087 0.55791 0.12618
 C968 C 0.21351 0.53883 0.13128
 C969 C 0.23733 0.53903 0.12794
 C970 C 0.24813 0.55740 0.11851
 H971 H 0.32773 0.61312 0.05207
 H972 H 0.30851 0.58932 0.07873
 H973 H 0.24912 0.63119 0.07719
 H974 H 0.26827 0.65572 0.05053
 H975 H 0.20163 0.59054 0.11186
 H976 H 0.18247 0.55812 0.12856
 H977 H 0.24751 0.52467 0.13206
 H978 H 0.26640 0.55671 0.11547
 C979 C 0.70947 0.37677 0.04023
 C980 C 0.72260 0.39232 0.05151
 C981 C 0.74409 0.38678 0.05981
 C982 C 0.75238 0.36521 0.05701
 C983 C 0.73942 0.34960 0.04529
 C984 C 0.71785 0.35528 0.03650
 N985 N 0.75733 0.40383 0.07003
 N986 N 0.77474 0.40029 0.08210
 C987 C 0.78707 0.41865 0.09121
 C988 C 0.79806 0.41644 0.11153
 C989 C 0.80748 0.43504 0.12191
 C990 C 0.80642 0.45606 0.11184
 C991 C 0.79688 0.45775 0.09068
 C992 C 0.78708 0.43932 0.08060
 H993 H 0.69301 0.38192 0.03385
 H994 H 0.71607 0.40891 0.05360
 H995 H 0.76907 0.36066 0.06327
 H996 H 0.74646 0.33326 0.04284
 H997 H 0.79824 0.40056 0.11985
 H998 H 0.81459 0.43312 0.13823
 H999 H 0.79645 0.47347 0.08209
 H1000 H 0.77913 0.44129 0.06465
 C1001 C 0.95671 0.71034 0.61447
 C1002 C 0.94654 0.72333 0.59822
 C1003 C 0.93613 0.74335 0.60353
 C1004 C 0.93585 0.75032 0.62552
 C1005 C 0.94645 0.73753 0.64186
 C1006 C 0.95719 0.71739 0.63652
 N1007 N 0.92668 0.75637 0.58607
 N1008 N 0.91309 0.77248 0.58908
 C1009 C 0.90454 0.78484 0.57067
 C1010 C 0.88353 0.79578 0.57231
 C1011 C 0.87368 0.80567 0.55372
 C1012 C 0.88499 0.80512 0.53325
 C1013 C 0.90689 0.79552 0.53217
 C1014 C 0.91643 0.78527 0.55059
 H1015 H 0.96474 0.69503 0.60955
 H1016 H 0.94685 0.71780 0.58131
 H1017 H 0.92794 0.76582 0.62996
 H1018 H 0.94639 0.74355 0.65860
 H1019 H 0.87423 0.79567 0.58773
 H1020 H 0.85677 0.81278 0.55517
 H1021 H 0.91647 0.79541 0.51692
 H1022 H 0.93295 0.77737 0.54904
 C1023 C 0.94555 0.26399 0.34823
 C1024 C 0.92880 0.25295 0.36073
 C1025 C 0.92041 0.26234 0.38010
 C1026 C 0.92883 0.28305 0.38679
 C1027 C 0.94576 0.29393 0.37457
 C1028 C 0.95455 0.28451 0.35518
 N1029 N 0.90469 0.24999 0.39362
 N1030 N 0.89480 0.25889 0.40997
 C1031 C 0.88088 0.24670 0.42525
 C1032 C 0.87123 0.25802 0.44295
 C1033 C 0.86125 0.24638 0.46041
 C1034 C 0.86081 0.22313 0.46044
 C1035 C 0.86893 0.21183 0.44187
 C1036 C 0.87897 0.22353 0.42439
 H1037 H 0.95179 0.25618 0.33341
 H1038 H 0.92256 0.23692 0.35547
 H1039 H 0.92277 0.29059 0.40180
 H1040 H 0.95204 0.30972 0.38049
 H1041 H 0.87258 0.27588 0.44377
 H1042 H 0.85489 0.25549 0.47441
 H1043 H 0.86897 0.19391 0.44154
 H1044 H 0.88634 0.21442 0.41086
 C1045 C 0.05458 0.30008 0.62617
 C1046 C 0.06869 0.28737 0.61287
 C1047 C 0.07116 0.26476 0.61676
 C1048 C 0.06000 0.25493 0.63486
 C1049 C 0.04611 0.26780 0.64864
 C1050 C 0.04281 0.29050 0.64413
 N1051 N 0.08442 0.25249 0.60131
 N1052 N 0.08559 0.23148 0.60065
 C1053 C 0.09860 0.22114 0.58350
 C1054 C 0.09648 0.19831 0.57984
 C1055 C 0.10674 0.18864 0.56135
 C1056 C 0.11915 0.20181 0.54632
 C1057 C 0.12231 0.22438 0.55077
 C1058 C 0.11219 0.23394 0.56910
 H1059 H 0.05282 0.31747 0.62216
 H1060 H 0.07729 0.29510 0.59899
 H1061 H 0.06180 0.23742 0.63816
 H1062 H 0.03741 0.25982 0.66231
 H1063 H 0.08611 0.18820 0.59079
 H1064 H 0.10413 0.17117 0.55826
 H1065 H 0.13218 0.23480 0.53966
 H1066 H 0.11444 0.25154 0.57161
 C1067 C 0.04617 0.69033 0.38746
 C1068 C 0.06125 0.70032 0.40222
 C1069 C 0.07086 0.72105 0.39759
 C1070 C 0.06558 0.73165 0.37764
 C1071 C 0.05056 0.72160 0.36268
 C1072 C 0.04042 0.70086 0.36751
 N1073 N 0.08515 0.73109 0.41391
 N1074 N 0.09361 0.75049 0.41207
 C1075 C 0.10697 0.76000 0.42947
 C1076 C 0.11348 0.78233 0.42825
 C1077 C 0.12427 0.79257 0.44612
 C1078 C 0.12868 0.78056 0.46549
 C1079 C 0.12324 0.75787 0.46617
 C1080 C 0.11245 0.74770 0.44839
 H1081 H 0.03891 0.67436 0.39186
 H1082 H 0.06519 0.69202 0.41756
 H1083 H 0.07284 0.74773 0.37374
 H1084 H 0.04666 0.73024 0.34751
 H1085 H 0.10941 0.79201 0.41376
 H1086 H 0.12817 0.81009 0.44517
 H1087 H 0.12684 0.74808 0.48070
 H1088 H 0.10787 0.73036 0.44970
 C1089 C 0.62530 0.94089 0.69404
 C1090 C 0.61257 0.92457 0.70491
 C1091 C 0.61716 0.91932 0.72684
 C1092 C 0.63548 0.92988 0.73762
 C1093 C 0.64842 0.94614 0.72668
 C1094 C 0.64304 0.95220 0.70495
 N1095 N 0.60151 0.90496 0.73817
 N1096 N 0.60317 0.90038 0.75854
 C1097 C 0.58569 0.88779 0.76959
 C1098 C 0.58677 0.88518 0.79245
 C1099 C 0.56798 0.87656 0.80408
 C1100 C 0.54783 0.87057 0.79291
 C1101 C 0.54741 0.87172 0.76986
 C1102 C 0.56617 0.88023 0.75829
 H1103 H 0.62086 0.94504 0.67725
 H1104 H 0.59844 0.91658 0.69648
 H1105 H 0.63928 0.92610 0.75464
 H1106 H 0.66200 0.95457 0.73548
 H1107 H 0.60169 0.89096 0.80137
 H1108 H 0.56864 0.87589 0.82186
 H1109 H 0.53217 0.86691 0.76088
 H1110 H 0.56493 0.88189 0.74061
 C1111 C 0.34510 0.95008 0.26185
 C1112 C 0.35875 0.93621 0.24896
 C1113 C 0.37788 0.92569 0.25806
 C1114 C 0.38279 0.92868 0.28047
 C1115 C 0.36928 0.94256 0.29329
 C1116 C 0.35051 0.95373 0.28407
 N1117 N 0.39299 0.91342 0.24412
 N1118 N 0.41096 0.90439 0.25178
 C1119 C 0.42755 0.89339 0.23842
 C1120 C 0.44782 0.88627 0.24836
 C1121 C 0.46587 0.87833 0.23563
 C1122 C 0.46382 0.87714 0.21268
 C1123 C 0.44297 0.88301 0.20277
 C1124 C 0.42494 0.89124 0.21555
 H1125 H 0.33076 0.95845 0.25427
 H1126 H 0.35479 0.93411 0.23171
 H1127 H 0.39744 0.92077 0.28797
 H1128 H 0.37385 0.94487 0.31037
 H1129 H 0.45001 0.88784 0.26596
 H1130 H 0.48176 0.87380 0.24362
 H1131 H 0.44110 0.88234 0.18507
 H1132 H 0.40939 0.89663 0.20752
 C1133 C 0.66593 0.06881 0.25620
 C1134 C 0.65140 0.08148 0.24282
 C1135 C 0.62764 0.08099 0.24626
 C1136 C 0.61866 0.06867 0.26394
 C1137 C 0.63313 0.05656 0.27760
 C1138 C 0.65685 0.05612 0.27364
 N1139 N 0.61263 0.09272 0.23171
 N1140 N 0.59236 0.08549 0.22853
 C1141 C 0.57545 0.09677 0.21576
 C1142 C 0.55540 0.08527 0.21037
 C1143 C 0.53686 0.09631 0.20104
 C1144 C 0.53788 0.11927 0.19729
 C1145 C 0.55858 0.13060 0.20143
 C1146 C 0.57731 0.11941 0.21060
 H1147 H 0.68415 0.06875 0.25278
 H1148 H 0.65857 0.09102 0.22933
 H1149 H 0.60039 0.06831 0.26711
 H1150 H 0.62558 0.04684 0.29080
 H1151 H 0.55381 0.06781 0.21421
 H1152 H 0.52133 0.08703 0.19764
 H1153 H 0.55982 0.14831 0.19884
 H1154 H 0.59266 0.12863 0.21476
 C1155 C 0.37015 0.05696 0.69644
 C1156 C 0.38399 0.07273 0.70665
 C1157 C 0.38112 0.07743 0.72893
 C1158 C 0.36345 0.06685 0.74081
 C1159 C 0.34944 0.05107 0.73055
 C1160 C 0.35307 0.04558 0.70838
 N1161 N 0.39778 0.09134 0.73930
 N1162 N 0.39716 0.09629 0.75959
 C1163 C 0.41547 0.10858 0.76954
 C1164 C 0.41440 0.11347 0.79200
 C1165 C 0.43339 0.12272 0.80269
 C1166 C 0.45379 0.12697 0.79104
 C1167 C 0.45442 0.12309 0.76832
 C1168 C 0.43543 0.11404 0.75764
 H1169 H 0.37329 0.05325 0.67930
 H1170 H 0.39758 0.08074 0.69736
 H1171 H 0.36100 0.07020 0.75812
 H1172 H 0.33643 0.04256 0.74016
 H1173 H 0.39917 0.10930 0.80138
 H1174 H 0.43257 0.12548 0.82025
 H1175 H 0.46988 0.12645 0.75896
 H1176 H 0.43673 0.11051 0.74026
 C1177 C 0.63793 0.69762 0.06988
 C1178 C 0.62372 0.70852 0.08469
 C1179 C 0.62507 0.73147 0.08696
 C1180 C 0.64174 0.74344 0.07504
 C1181 C 0.65619 0.73249 0.06029
 C1182 C 0.65394 0.70954 0.05713
 N1183 N 0.60788 0.74215 0.09983
 N1184 N 0.60658 0.76304 0.10188
 C1185 C 0.58775 0.77291 0.11330
 C1186 C 0.58632 0.79600 0.11441
 C1187 C 0.56660 0.80603 0.12280
 C1188 C 0.54796 0.79303 0.13004
 C1189 C 0.54992 0.76989 0.12992
 C1190 C 0.56962 0.75990 0.12168
 H1191 H 0.63591 0.67991 0.06796
 H1192 H 0.61093 0.69915 0.09378
 H1193 H 0.64304 0.76124 0.07653
 H1194 H 0.66835 0.74208 0.05064
 H1195 H 0.60011 0.80622 0.10796
 H1196 H 0.56546 0.82391 0.12262
 H1197 H 0.53592 0.75950 0.13568
 H1198 H 0.57028 0.74202 0.12111
 C1199 C 0.33683 0.25658 0.04399
 C1200 C 0.35073 0.24393 0.05798
 C1201 C 0.36841 0.25401 0.06999
 C1202 C 0.37165 0.27703 0.06822
 C1203 C 0.35807 0.28954 0.05410
 C1204 C 0.34075 0.27945 0.04159
 N1205 N 0.38382 0.24073 0.08277
 N1206 N 0.39895 0.24989 0.09481
 C1207 C 0.41617 0.23816 0.10676
 C1208 C 0.43156 0.25054 0.11935
 C1209 C 0.45042 0.24050 0.12911
 C1210 C 0.45430 0.21776 0.12647
 C1211 C 0.43825 0.20502 0.11471
 C1212 C 0.41929 0.21520 0.10479
 H1213 H 0.32364 0.24838 0.03446
 H1214 H 0.34805 0.22622 0.05912
 H1215 H 0.38516 0.28531 0.07724
 H1216 H 0.36139 0.30715 0.05272
 H1217 H 0.42932 0.26824 0.12097
 H1218 H 0.46236 0.25063 0.13834
 H1219 H 0.44092 0.18747 0.11241
 H1220 H 0.40761 0.20533 0.09504
 C1221 C 0.65441 0.25749 0.95150
 C1222 C 0.64101 0.24511 0.93685
 C1223 C 0.62336 0.25522 0.92493
 C1224 C 0.61953 0.27799 0.92756
 C1225 C 0.63264 0.29024 0.94230
 C1226 C 0.65003 0.28011 0.95464
 N1227 N 0.60847 0.24205 0.91149
 N1228 N 0.59306 0.25111 0.89978
 C1229 C 0.57630 0.23897 0.88757
 C1230 C 0.55940 0.25088 0.87646
 C1231 C 0.54058 0.23999 0.86731
 C1232 C 0.53846 0.21689 0.86904
 C1233 C 0.55618 0.20476 0.87893
 C1234 C 0.57498 0.21574 0.88828
 H1235 H 0.66771 0.24928 0.96081
 H1236 H 0.64408 0.22756 0.93507
 H1237 H 0.60598 0.28625 0.91864
 H1238 H 0.62899 0.30767 0.94418
 H1239 H 0.56026 0.26878 0.87582
 H1240 H 0.52723 0.24966 0.85959
 H1241 H 0.55482 0.18694 0.88055
 H1242 H 0.58787 0.20621 0.89682
 C1243 C 0.37751 0.69087 0.94195
 C1244 C 0.39112 0.70224 0.92678
 C1245 C 0.38838 0.72495 0.92352
 C1246 C 0.37095 0.73612 0.93488
 C1247 C 0.35709 0.72467 0.95003
 C1248 C 0.36072 0.70205 0.95413
 N1249 N 0.40503 0.73633 0.91035
 N1250 N 0.40489 0.75713 0.90702
 C1251 C 0.42338 0.76779 0.89548
 C1252 C 0.42313 0.79078 0.89259
 C1253 C 0.44245 0.80188 0.88428
 C1254 C 0.46236 0.79004 0.87898
 C1255 C 0.46214 0.76690 0.88082
 C1256 C 0.44283 0.75584 0.88892
 H1257 H 0.38057 0.67340 0.94458
 H1258 H 0.40453 0.69350 0.91815
 H1259 H 0.36860 0.75374 0.93264
 H1260 H 0.34428 0.73367 0.95920
 H1261 H 0.40830 0.80020 0.89763
 H1262 H 0.44229 0.81976 0.88307
 H1263 H 0.47721 0.75742 0.87660
 H1264 H 0.44349 0.73805 0.89090
 C1265 C 0.74953 0.96226 0.33615
 C1266 C 0.76215 0.94872 0.35041
 C1267 C 0.75154 0.93862 0.36859
 C1268 C 0.72790 0.94167 0.37191
 C1269 C 0.71537 0.95529 0.35785
 C1270 C 0.72610 0.96607 0.34004
 N1271 N 0.76510 0.92657 0.38423
 N1272 N 0.75569 0.91702 0.40065
 C1273 C 0.76802 0.90590 0.41773
 C1274 C 0.75536 0.89620 0.43477
 C1275 C 0.76638 0.88708 0.45295
 C1276 C 0.79041 0.88748 0.45449
 C1277 C 0.80327 0.89641 0.43694
 C1278 C 0.79213 0.90569 0.41866
 H1279 H 0.75828 0.97042 0.32262
 H1280 H 0.78034 0.94657 0.34764
 H1281 H 0.71920 0.93408 0.38578
 H1282 H 0.69735 0.95780 0.36125
 H1283 H 0.73680 0.89624 0.43422
 H1284 H 0.75605 0.87998 0.46605
 H1285 H 0.82181 0.89693 0.43775
 H1286 H 0.80226 0.91317 0.40565
 C1287 C 0.26661 0.94012 0.65565
 C1288 C 0.25480 0.92472 0.64268
 C1289 C 0.26581 0.91436 0.62506
 C1290 C 0.28909 0.91899 0.62105
 C1291 C 0.30082 0.93446 0.63383
 C1292 C 0.28960 0.94554 0.65098
 N1293 N 0.25274 0.90072 0.61039
 N1294 N 0.26221 0.89108 0.59422
 C1295 C 0.24967 0.87892 0.57801
 C1296 C 0.26178 0.86995 0.56035
 C1297 C 0.25012 0.86082 0.54252
 C1298 C 0.22603 0.86045 0.54208
 C1299 C 0.21387 0.86828 0.56041
 C1300 C 0.22560 0.87756 0.57824
 H1301 H 0.25750 0.94843 0.66872
 H1302 H 0.23684 0.92137 0.64592
 H1303 H 0.29806 0.91125 0.60756
 H1304 H 0.31856 0.93814 0.62991
 H1305 H 0.28033 0.87090 0.55999
 H1306 H 0.25991 0.85466 0.52873
 H1307 H 0.19530 0.86830 0.56042
 H1308 H 0.21587 0.88443 0.59172
 C1309 C 0.29750 0.05234 0.37317
 C1310 C 0.28625 0.06618 0.38786
 C1311 C 0.26255 0.06910 0.38654
 C1312 C 0.25016 0.05864 0.36969
 C1313 C 0.26151 0.04495 0.35468
 C1314 C 0.28523 0.04135 0.35660
 N1315 N 0.25171 0.08185 0.40330
 N1316 N 0.23010 0.08382 0.40539
 C1317 C 0.22077 0.09602 0.42347
 C1318 C 0.19703 0.09590 0.42727
 C1319 C 0.18798 0.10579 0.44620
 C1320 C 0.20267 0.11580 0.46158
 C1321 C 0.22629 0.11676 0.45715
 C1322 C 0.23525 0.10699 0.43836
 H1323 H 0.31580 0.05001 0.37497
 H1324 H 0.29595 0.07419 0.40077
 H1325 H 0.23179 0.06071 0.36839
 H1326 H 0.25164 0.03661 0.34210
 H1327 H 0.18565 0.08754 0.41595
 H1328 H 0.16970 0.10488 0.44925
 H1329 H 0.23794 0.12476 0.46851
 H1330 H 0.25361 0.10758 0.43579
 C1331 C 0.72113 0.06549 0.65397
 C1332 C 0.73423 0.08018 0.64109
 C1333 C 0.73138 0.08077 0.61824
 C1334 C 0.71432 0.06759 0.60854
 C1335 C 0.70085 0.05343 0.62138
 C1336 C 0.70453 0.05176 0.64413
 N1337 N 0.74672 0.09353 0.60476
 N1338 N 0.75324 0.08560 0.58647
 C1339 C 0.76759 0.09707 0.57107
 C1340 C 0.77898 0.08456 0.55531
 C1341 C 0.79113 0.09488 0.53839
 C1342 C 0.79155 0.11809 0.53644
 C1343 C 0.78082 0.13075 0.55285
 C1344 C 0.76898 0.12028 0.57016
 H1345 H 0.72425 0.06455 0.67149
 H1346 H 0.74732 0.09029 0.64877
 H1347 H 0.71173 0.06799 0.59092
 H1348 H 0.68826 0.04302 0.61332
 H1349 H 0.77809 0.06666 0.55593
 H1350 H 0.79974 0.08461 0.52645
 H1351 H 0.78074 0.14864 0.55178
 H1352 H 0.76007 0.13023 0.58217
 C1353 C 0.94453 0.65200 0.26929
 C1354 C 0.93300 0.63925 0.25350
 C1355 C 0.93333 0.61610 0.25479
 C1356 C 0.94433 0.60584 0.27259
 C1357 C 0.95526 0.61847 0.28858
 C1358 C 0.95585 0.64165 0.28694
 N1359 N 0.92264 0.60297 0.23808
 N1360 N 0.93045 0.58384 0.23389
 C1361 C 0.91993 0.56853 0.21910
 C1362 C 0.93216 0.54959 0.21346
 C1363 C 0.92140 0.53226 0.20241
 C1364 C 0.89801 0.53343 0.19708
 C1365 C 0.88609 0.55312 0.20141
 C1366 C 0.89701 0.57061 0.21237
 H1367 H 0.94474 0.66984 0.26765
 H1368 H 0.92445 0.64738 0.23994
 H1369 H 0.94449 0.58798 0.27411
 H1370 H 0.96393 0.61000 0.30188
 H1371 H 0.94984 0.54783 0.21855
 H1372 H 0.93112 0.51747 0.19895
 H1373 H 0.86802 0.55441 0.19761
 H1374 H 0.88721 0.58511 0.21671
 C1375 C 0.95975 0.38913 0.70413
 C1376 C 0.94782 0.40453 0.71659
 C1377 C 0.93406 0.39771 0.73419
 C1378 C 0.93228 0.37504 0.73929
 C1379 C 0.94464 0.35949 0.72699
 C1380 C 0.95853 0.36644 0.70927
 N1381 N 0.92271 0.41442 0.74665
 N1382 N 0.90666 0.41060 0.76039
 C1383 C 0.89634 0.42858 0.77203
 C1384 C 0.87404 0.42631 0.78034
 C1385 C 0.86272 0.44458 0.78931
 C1386 C 0.87374 0.46536 0.79041
 C1387 C 0.89669 0.46708 0.78341
 C1388 C 0.90778 0.44899 0.77414
 H1389 H 0.97043 0.39512 0.69076
 H1390 H 0.94935 0.42195 0.71255
 H1391 H 0.92178 0.36944 0.75293
 H1392 H 0.94344 0.34214 0.73138
 H1393 H 0.86502 0.41066 0.77890
 H1394 H 0.84503 0.44265 0.79442
 H1395 H 0.90597 0.48260 0.78462
 H1396 H 0.92519 0.45105 0.76826
 C1397 C 0.04174 0.65936 0.73875
 C1398 C 0.05413 0.64628 0.75365
 C1399 C 0.05288 0.62314 0.75260
 C1400 C 0.03943 0.61322 0.73617
 C1401 C 0.02757 0.62621 0.72102
 C1402 C 0.02851 0.64939 0.72217
 N1403 N 0.06579 0.60980 0.76769
 N1404 N 0.06001 0.58975 0.77122
 C1405 C 0.07292 0.57460 0.78440
 C1406 C 0.06321 0.55387 0.78889
 C1407 C 0.07633 0.53710 0.79826
 C1408 C 0.09959 0.54069 0.80314
 C1409 C 0.10899 0.56198 0.80006
 C1410 C 0.09572 0.57889 0.79069
 H1411 H 0.04280 0.67721 0.73994
 H1412 H 0.06452 0.65416 0.76612
 H1413 H 0.03838 0.59539 0.73482
 H1414 H 0.01742 0.61807 0.70851
 H1415 H 0.04568 0.55037 0.78414
 H1416 H 0.06859 0.52093 0.80070
 H1417 H 0.12691 0.56512 0.80355
 H1418 H 0.10359 0.59480 0.78726
 C1419 C 0.05565 0.34284 0.26782
 C1420 C 0.07080 0.35629 0.25576
 C1421 C 0.08164 0.37440 0.26569
 C1422 C 0.07774 0.37849 0.28810
 C1423 C 0.06256 0.36518 0.30011
 C1424 C 0.05101 0.34746 0.29002
 N1425 N 0.09495 0.38942 0.25245
 N1426 N 0.10466 0.40631 0.26081
 C1427 C 0.11638 0.42275 0.24796
 C1428 C 0.12461 0.44166 0.25857
 C1429 C 0.13289 0.45966 0.24640
 C1430 C 0.13320 0.45893 0.22333
 C1431 C 0.12632 0.43939 0.21270
 C1432 C 0.11784 0.42142 0.22493
 H1433 H 0.04701 0.32931 0.25959
 H1434 H 0.07358 0.35299 0.23849
 H1435 H 0.08587 0.39237 0.29620
 H1436 H 0.05949 0.36910 0.31721
 H1437 H 0.12358 0.44286 0.27630
 H1438 H 0.13829 0.47447 0.25496
 H1439 H 0.12629 0.43851 0.19493
 H1440 H 0.11156 0.40695 0.21637
   
