data_POSCAR
  _audit_creation_date              2014-09-24
  _audit_creation_method            'ToBaCCo'
  _symmetry_space_group_name_H-M    'P1'
  _symmetry_Int_Tables_number       1
  _symmetry_cell_setting            triclinic
  loop_
  _symmetry_equiv_pos_as_xyz
 x,y,z
_cell_length_a 67.4574
_cell_length_b 65.4055
_cell_length_c 68.7910
_cell_angle_alpha 90.027600
_cell_angle_beta 90.099200
_cell_angle_gamma 90.109700
loop_
  _atom_site_label
  _atom_site_type_symbol
  _atom_site_fract_x
  _atom_site_fract_y
  _atom_site_fract_z
C1 C 0.31544 0.31188 -0.01153
 C2 C 0.31375 0.31137 0.00820
 C3 C 0.30095 0.32603 0.01887
 C4 C 0.32560 0.29691 0.02015
 C5 C 0.33067 0.29963 -0.02183
 C6 C 0.30287 0.32535 -0.02378
 C7 C 0.30333 0.34720 0.01642
 C8 C 0.29170 0.36089 0.02701
 C9 C 0.27760 0.35368 0.04040
 C10 C 0.27532 0.33246 0.04287
 C11 C 0.28696 0.31878 0.03227
 C12 C 0.33756 0.30442 0.03525
 C13 C 0.34964 0.29119 0.04589
 C14 C 0.34997 0.27015 0.04168
 C15 C 0.33747 0.26256 0.02695
 C16 C 0.32532 0.27581 0.01637
 C17 C 0.32496 0.28550 -0.03602
 C18 C 0.33915 0.27402 -0.04594
 C19 C 0.35974 0.27660 -0.04227
 C20 C 0.36513 0.29120 -0.02791
 C21 C 0.35083 0.30247 -0.01791
 C22 C 0.28210 0.32472 -0.02256
 C23 C 0.27052 0.33760 -0.03416
 C24 C 0.27952 0.35122 -0.04729
 C25 C 0.30032 0.35165 -0.04856
 C26 C 0.31185 0.33880 -0.03699
 H27 H 0.31433 0.35313 0.00644
 H28 H 0.29371 0.37713 0.02469
 H29 H 0.26482 0.32644 0.05330
 H30 H 0.28508 0.30250 0.03452
 H31 H 0.33788 0.32062 0.03852
 H32 H 0.35878 0.29746 0.05740
 H33 H 0.31592 0.26965 0.00500
 H34 H 0.30941 0.28336 -0.03944
 H35 H 0.33364 0.26407 -0.05726
 H36 H 0.38032 0.29352 -0.02343
 H37 H 0.35552 0.31342 -0.00701
 H38 H 0.27487 0.31419 -0.01269
 H39 H 0.25454 0.33670 -0.03305
 H40 H 0.30772 0.36218 -0.05830
 H41 H 0.32784 0.33956 -0.03813
 H42 H 0.33744 0.24647 0.02328
 C43 C 0.69067 0.69462 -0.00523
 C44 C 0.68907 0.69403 0.01452
 C45 C 0.70170 0.68046 0.02660
 C46 C 0.67415 0.70650 0.02501
 C47 C 0.67845 0.70873 -0.01721
 C48 C 0.70400 0.68057 -0.01600
 C49 C 0.69276 0.66658 0.03942
 C50 C 0.70432 0.65332 0.05055
 C51 C 0.72511 0.65378 0.04922
 C52 C 0.73407 0.66797 0.03661
 C53 C 0.72247 0.68125 0.02546
 C54 C 0.65385 0.70452 0.02086
 C55 C 0.63999 0.71661 0.03060
 C56 C 0.64617 0.73080 0.04474
 C57 C 0.66649 0.73248 0.04906
 C58 C 0.68033 0.72035 0.03936
 C59 C 0.67822 0.72987 -0.01359
 C60 C 0.66589 0.74272 -0.02444
 C61 C 0.65387 0.73471 -0.03933
 C62 C 0.65463 0.71365 -0.04332
 C63 C 0.66680 0.70081 -0.03238
 C64 C 0.71780 0.68858 -0.02919
 C65 C 0.72984 0.67555 -0.04007
 C66 C 0.72821 0.65422 -0.03806
 C67 C 0.71440 0.64623 -0.02478
 C68 C 0.70232 0.65928 -0.01394
 H69 H 0.67676 0.66573 0.04051
 H70 H 0.69694 0.64240 0.05990
 H71 H 0.75006 0.66891 0.03549
 H72 H 0.72967 0.69212 0.01591
 H73 H 0.64879 0.69369 0.01001
 H74 H 0.62446 0.71507 0.02688
 H75 H 0.69592 0.72193 0.04286
 H76 H 0.68743 0.73637 -0.00225
 H77 H 0.66583 0.75893 -0.02126
 H78 H 0.64540 0.70702 -0.05458
 H79 H 0.66680 0.68456 -0.03545
 H80 H 0.71923 0.70496 -0.03105
 H81 H 0.74047 0.68217 -0.05004
 H82 H 0.71256 0.62987 -0.02316
 H83 H 0.69142 0.65278 -0.00417
 H84 H 0.67165 0.74303 0.06011
 C85 C 0.69134 0.30761 1.00864
 C86 C 0.69136 0.30696 0.98886
 C87 C 0.70321 0.32178 0.97731
 C88 C 0.67896 0.29212 0.97782
 C89 C 0.67712 0.29559 1.02052
 C90 C 0.70544 0.32084 1.01937
 C91 C 0.70027 0.34288 0.97955
 C92 C 0.71093 0.35680 0.96826
 C93 C 0.72460 0.34989 0.95433
 C94 C 0.72745 0.32872 0.95206
 C95 C 0.71677 0.31479 0.96339
 C96 C 0.66676 0.29908 0.96266
 C97 C 0.65462 0.28545 0.95251
 C98 C 0.65442 0.26457 0.95731
 C99 C 0.66692 0.25753 0.97223
 C100 C 0.67923 0.27115 0.98226
 C101 C 0.68412 0.28314 1.03564
 C102 C 0.67089 0.27188 1.04702
 C103 C 0.65036 0.27297 1.04359
 C104 C 0.64337 0.28563 1.02855
 C105 C 0.65662 0.29691 1.01720
 C106 C 0.72581 0.31685 1.01887
 C107 C 0.73905 0.32930 1.02912
 C108 C 0.73224 0.34638 1.03979
 C109 C 0.71162 0.35021 1.04003
 C110 C 0.69841 0.33740 1.03019
 H111 H 0.68954 0.34858 0.98990
 H112 H 0.70851 0.37299 0.97048
 H113 H 0.73765 0.32292 0.94126
 H114 H 0.71905 0.29855 0.96129
 H115 H 0.66635 0.31516 0.95894
 H116 H 0.64502 0.29131 0.94119
 H117 H 0.68888 0.26536 0.99357
 H118 H 0.69987 0.28196 1.03849
 H119 H 0.67674 0.26212 1.05835
 H120 H 0.62764 0.28709 1.02578
 H121 H 0.65088 0.30679 1.00589
 H122 H 0.73143 0.30407 1.01053
 H123 H 0.75469 0.32593 1.02792
 H124 H 0.70543 0.36258 1.04851
 H125 H 0.68266 0.34054 1.03084
 H126 H 0.66727 0.24147 0.97602
 C127 C 0.31120 0.68922 1.00814
 C128 C 0.31012 0.69068 0.98840
 C129 C 0.29560 0.67845 0.97692
 C130 C 0.32399 0.70384 0.97723
 C131 C 0.32463 0.70243 1.01986
 C132 C 0.29946 0.67382 1.01903
 C133 C 0.30222 0.66644 0.96133
 C134 C 0.28892 0.65430 0.95084
 C135 C 0.26870 0.65394 0.95573
 C136 C 0.26200 0.66633 0.97106
 C137 C 0.27529 0.67862 0.98144
 C138 C 0.34459 0.70157 0.97921
 C139 C 0.35752 0.71376 0.96838
 C140 C 0.35010 0.72828 0.95519
 C141 C 0.32946 0.73038 0.95313
 C142 C 0.31654 0.71822 0.96400
 C143 C 0.32409 0.72377 1.01823
 C144 C 0.33696 0.73596 1.02923
 C145 C 0.35064 0.72714 1.04239
 C146 C 0.35072 0.70558 1.04405
 C147 C 0.33789 0.69348 1.03300
 C148 C 0.28662 0.68012 1.03379
 C149 C 0.27553 0.66579 1.04420
 C150 C 0.27721 0.64462 1.04031
 C151 C 0.29048 0.63852 1.02550
 C152 C 0.30143 0.65292 1.01505
 H153 H 0.31780 0.66611 0.95754
 H154 H 0.29453 0.64479 0.93921
 H155 H 0.24645 0.66659 0.97494
 H156 H 0.26977 0.68816 0.99310
 H157 H 0.35065 0.69021 0.98900
 H158 H 0.37333 0.71149 0.97001
 H159 H 0.30070 0.72010 0.96220
 H160 H 0.31358 0.73102 1.00853
 H161 H 0.33545 0.75234 1.02781
 H162 H 0.36126 0.69770 1.05321
 H163 H 0.33861 0.67701 1.03441
 H164 H 0.28514 0.69621 1.03725
 H165 H 0.26632 0.67149 1.05584
 H166 H 0.29201 0.62267 1.02131
 H167 H 0.31144 0.64777 1.00378
 H168 H 0.32330 0.74154 0.94321
 C169 C -0.00996 0.31492 0.31572
 C170 C 0.01024 0.31483 0.31581
 C171 C 0.02166 0.30069 0.32847
 C172 C 0.02194 0.32934 0.30381
 C173 C -0.02157 0.32802 0.30222
 C174 C -0.02152 0.30234 0.32964
 C175 C 0.03580 0.30859 0.34143
 C176 C 0.04628 0.29559 0.35381
 C177 C 0.04293 0.27436 0.35338
 C178 C 0.02900 0.26643 0.34013
 C179 C 0.01854 0.27946 0.32771
 C180 C 0.01906 0.35052 0.30539
 C181 C 0.03034 0.36403 0.29419
 C182 C 0.04482 0.35659 0.28133
 C183 C 0.04782 0.33537 0.27998
 C184 C 0.03655 0.32189 0.29119
 C185 C -0.01847 0.32737 0.28209
 C186 C -0.02953 0.33984 0.26963
 C187 C -0.04424 0.35318 0.27696
 C188 C -0.04728 0.35343 0.29730
 C189 C -0.03616 0.34101 0.30966
 C190 C -0.03538 0.28815 0.32272
 C191 C -0.04635 0.27623 0.33566
 C192 C -0.04398 0.27838 0.35599
 C193 C -0.03013 0.29304 0.36273
 C194 C -0.01910 0.30484 0.34972
 H195 H 0.03843 0.32491 0.34223
 H196 H 0.05673 0.30220 0.36400
 H197 H 0.02634 0.25012 0.33924
 H198 H 0.00798 0.27302 0.31754
 H199 H 0.00811 0.35659 0.31533
 H200 H 0.02760 0.38028 0.29546
 H201 H 0.03914 0.30560 0.28995
 H202 H -0.00760 0.31704 0.27599
 H203 H -0.02694 0.33824 0.25421
 H204 H -0.05764 0.36381 0.30405
 H205 H -0.03871 0.34184 0.32519
 H206 H -0.03765 0.28626 0.30723
 H207 H -0.05725 0.26595 0.32950
 H208 H -0.02705 0.29503 0.37804
 H209 H -0.00857 0.31590 0.35533
 H210 H 0.05908 0.32921 0.27045
 C211 C -0.01214 0.68729 0.68354
 C212 C 0.00803 0.68640 0.68455
 C213 C 0.02085 0.69946 0.67211
 C214 C 0.01835 0.67177 0.69758
 C215 C -0.02499 0.67501 0.69666
 C216 C -0.02240 0.70016 0.66885
 C217 C 0.03499 0.69028 0.66002
 C218 C 0.04667 0.70219 0.64768
 C219 C 0.04457 0.72357 0.64728
 C220 C 0.03065 0.73278 0.65970
 C221 C 0.01896 0.72084 0.67208
 C222 C 0.01461 0.65068 0.69639
 C223 C 0.02454 0.63708 0.70864
 C224 C 0.03856 0.64428 0.72218
 C225 C 0.04242 0.66539 0.72315
 C226 C 0.03247 0.67898 0.71091
 C227 C -0.02282 0.67594 0.71691
 C228 C -0.03465 0.66383 0.72899
 C229 C -0.04925 0.65059 0.72117
 C230 C -0.05155 0.65026 0.70073
 C231 C -0.03963 0.66230 0.68873
 C232 C -0.03665 0.71436 0.67481
 C233 C -0.04635 0.72665 0.66121
 C234 C -0.04209 0.72506 0.64113
 C235 C -0.02786 0.71043 0.63533
 C236 C -0.01832 0.69806 0.64899
 H237 H 0.03667 0.67381 0.65982
 H238 H 0.05704 0.69458 0.63812
 H239 H 0.02890 0.74923 0.65995
 H240 H 0.00836 0.72824 0.68155
 H241 H 0.00408 0.64477 0.68588
 H242 H 0.02150 0.62088 0.70730
 H243 H 0.03562 0.69519 0.71198
 H244 H -0.01197 0.68611 0.72337
 H245 H -0.03266 0.66556 0.74450
 H246 H -0.06186 0.64000 0.69365
 H247 H -0.04152 0.66131 0.67311
 H248 H -0.04001 0.71620 0.69010
 H249 H -0.05653 0.73797 0.66676
 H250 H -0.02453 0.70774 0.62018
 H251 H -0.00781 0.68672 0.64402
 H252 H 0.05297 0.67144 0.73356
 C253 C 1.01186 0.67834 0.31938
 C254 C 0.99170 0.67806 0.31858
 C255 C 0.97926 0.69086 0.33153
 C256 C 0.98109 0.66454 0.30470
 C257 C 1.02378 0.66585 0.30579
 C258 C 1.02293 0.69041 0.33407
 C259 C 0.96453 0.68156 0.34287
 C260 C 0.95259 0.69328 0.35509
 C261 C 0.95497 0.71462 0.35609
 C262 C 0.96966 0.72394 0.34460
 C263 C 0.98165 0.71217 0.33237
 C264 C 0.98320 0.64323 0.30573
 C265 C 0.97377 0.63065 0.29216
 C266 C 0.96187 0.63914 0.27744
 C267 C 0.95942 0.66048 0.27676
 C268 C 0.96891 0.67306 0.29032
 C269 C 1.02437 0.67053 0.28594
 C270 C 1.03449 0.65780 0.27300
 C271 C 1.04388 0.63976 0.27958
 C272 C 1.04346 0.63554 0.29974
 C273 C 1.03375 0.64857 0.31265
 C274 C 1.03730 0.70447 0.32803
 C275 C 1.04793 0.71594 0.34164
 C276 C 1.04467 0.71349 0.36181
 C277 C 1.03028 0.69898 0.36767
 C278 C 1.01961 0.68761 0.35398
 H279 H 0.96245 0.66514 0.34244
 H280 H 0.94165 0.68557 0.36397
 H281 H 0.97168 0.74037 0.34482
 H282 H 0.99270 0.71968 0.32346
 H283 H 0.99220 0.63637 0.31702
 H284 H 0.97562 0.61425 0.29329
 H285 H 0.96708 0.68948 0.28938
 H286 H 1.01665 0.68384 0.28044
 H287 H 1.03385 0.66160 0.25771
 H288 H 1.05108 0.62246 0.30577
 H289 H 1.03351 0.64486 0.32800
 H290 H 1.04027 0.70661 0.31269
 H291 H 1.05928 0.72606 0.33611
 H292 H 1.02655 0.69677 0.38281
 H293 H 1.00869 0.67663 0.35894
 H294 H 0.95047 0.66747 0.26551
 C295 C 1.00580 0.31027 0.69006
 C296 C 0.98578 0.31243 0.68849
 C297 C 0.97409 0.29992 0.67460
 C298 C 0.97477 0.32768 0.70021
 C299 C 1.01752 0.32173 0.70481
 C300 C 1.01707 0.29720 0.67637
 C301 C 0.96380 0.30947 0.65940
 C302 C 0.95368 0.29776 0.64557
 C303 C 0.95333 0.27634 0.64700
 C304 C 0.96315 0.26683 0.66258
 C305 C 0.97356 0.27854 0.67622
 C306 C 0.97994 0.34846 0.69961
 C307 C 0.97024 0.36255 0.71151
 C308 C 0.95505 0.35614 0.72410
 C309 C 0.94951 0.33539 0.72420
 C310 C 0.95923 0.32131 0.71229
 C311 C 1.01267 0.32089 0.72464
 C312 C 1.02325 0.33258 0.73817
 C313 C 1.03906 0.34509 0.73214
 C314 C 1.04421 0.34543 0.71235
 C315 C 1.03358 0.33383 0.69885
 C316 C 1.02913 0.28150 0.68346
 C317 C 1.04017 0.26942 0.67070
 C318 C 1.03967 0.27294 0.65041
 C319 C 1.02749 0.28897 0.64353
 C320 C 1.01643 0.30093 0.65634
 H321 H 0.96405 0.32596 0.65797
 H322 H 0.94607 0.30542 0.63378
 H323 H 0.96314 0.25033 0.66392
 H324 H 0.98134 0.27095 0.68795
 H325 H 0.99165 0.35372 0.69007
 H326 H 0.97458 0.37848 0.71080
 H327 H 0.95500 0.30534 0.71289
 H328 H 1.00058 0.31132 0.72960
 H329 H 1.01914 0.33176 0.75336
 H330 H 1.05615 0.35509 0.70722
 H331 H 1.03758 0.33470 0.68362
 H332 H 1.03004 0.27862 0.69894
 H333 H 1.04973 0.25797 0.67704
 H334 H 1.02579 0.29205 0.62818
 H335 H 1.00737 0.31318 0.65060
 H336 H 0.93800 0.32994 0.73386
 C337 C 0.31583 -0.00623 0.31955
 C338 C 0.31688 0.01457 0.32072
 C339 C 0.33008 0.02671 0.30784
 C340 C 0.30529 0.02627 0.33528
 C341 C 0.30111 -0.01815 0.33101
 C342 C 0.32972 -0.01797 0.30706
 C343 C 0.34388 0.04028 0.31603
 C344 C 0.35658 0.05160 0.30416
 C345 C 0.35561 0.04972 0.28382
 C346 C 0.34155 0.03632 0.27563
 C347 C 0.32884 0.02499 0.28753
 C348 C 0.30683 0.02185 0.35519
 C349 C 0.29609 0.03319 0.36877
 C350 C 0.28372 0.04925 0.36268
 C351 C 0.28237 0.05375 0.34274
 C352 C 0.29313 0.04242 0.32919
 C353 C 0.28087 -0.01311 0.33062
 C354 C 0.26737 -0.02363 0.34235
 C355 C 0.27378 -0.03965 0.35442
 C356 C 0.29391 -0.04518 0.35422
 C357 C 0.30743 -0.03454 0.34261
 C358 C 0.32237 -0.03181 0.29329
 C359 C 0.33528 -0.04224 0.28091
 C360 C 0.35602 -0.03909 0.28196
 C361 C 0.36321 -0.02552 0.29636
 C362 C 0.35026 -0.01530 0.30880
 H363 H 0.34506 0.04184 0.33167
 H364 H 0.36741 0.06156 0.31094
 H365 H 0.34022 0.03478 0.26001
 H366 H 0.31803 0.01488 0.28092
 H367 H 0.31641 0.00966 0.36020
 H368 H 0.29733 0.02930 0.38402
 H369 H 0.29191 0.04619 0.31390
 H370 H 0.27557 -0.00086 0.32141
 H371 H 0.25190 -0.01928 0.34194
 H372 H 0.29930 -0.05737 0.36346
 H373 H 0.32295 -0.03876 0.34307
 H374 H 0.30654 -0.03412 0.29176
 H375 H 0.32870 -0.05194 0.26992
 H376 H 0.37892 -0.02319 0.29865
 H377 H 0.35629 -0.00517 0.31980
 H378 H 0.27322 0.06624 0.33765
 C379 C 0.68396 -0.01172 0.68142
 C380 C 0.68179 0.00898 0.68079
 C381 C 0.66816 0.01962 0.69429
 C382 C 0.69237 0.02193 0.66647
 C383 C 0.69839 -0.02276 0.66893
 C384 C 0.67130 -0.02430 0.69435
 C385 C 0.65127 0.02945 0.68698
 C386 C 0.63778 0.03860 0.69966
 C387 C 0.64120 0.03842 0.71980
 C388 C 0.65840 0.02902 0.72706
 C389 C 0.67173 0.01958 0.71439
 C390 C 0.69094 0.01800 0.64645
 C391 C 0.70105 0.03032 0.63314
 C392 C 0.71259 0.04692 0.63962
 C393 C 0.71372 0.05097 0.65966
 C394 C 0.70364 0.03863 0.67294
 C395 C 0.71840 -0.01681 0.66807
 C396 C 0.73155 -0.02688 0.65564
 C397 C 0.72502 -0.04334 0.64412
 C398 C 0.70514 -0.04964 0.64545
 C399 C 0.69198 -0.03947 0.65774
 C400 C 0.67984 -0.03589 0.70923
 C401 C 0.66788 -0.04695 0.72206
 C402 C 0.64698 -0.04690 0.72017
 C403 C 0.63868 -0.03552 0.70468
 C404 C 0.65069 -0.02445 0.69198
 H405 H 0.64834 0.02962 0.67150
 H406 H 0.62470 0.04591 0.69374
 H407 H 0.66130 0.02864 0.74254
 H408 H 0.68477 0.01211 0.72022
 H409 H 0.68195 0.00544 0.64114
 H410 H 0.69961 0.02704 0.61778
 H411 H 0.70486 0.04195 0.68833
 H412 H 0.72380 -0.00429 0.67693
 H413 H 0.74686 -0.02191 0.65514
 H414 H 0.69965 -0.06215 0.63663
 H415 H 0.67664 -0.04437 0.65821
 H416 H 0.69579 -0.03615 0.71108
 H417 H 0.67526 -0.05601 0.73303
 H418 H 0.62284 -0.03418 0.70273
 H419 H 0.64387 -0.01566 0.68043
 H420 H 0.72266 0.06349 0.66511
 C421 C 0.31215 1.00929 0.68697
 C422 C 0.31284 0.98848 0.68736
 C423 C 0.32696 0.97721 0.69998
 C424 C 0.30008 0.97581 0.67450
 C425 C 0.29920 1.02041 0.67307
 C426 C 0.32478 1.02206 0.69987
 C427 C 0.34749 0.98051 0.69862
 C428 C 0.36061 0.96919 0.71010
 C429 C 0.35345 0.95421 0.72298
 C430 C 0.33288 0.95095 0.72425
 C431 C 0.31980 0.96228 0.71281
 C432 C 0.30891 0.96181 0.66175
 C433 C 0.29728 0.95024 0.64905
 C434 C 0.27655 0.95232 0.64894
 C435 C 0.26768 0.96609 0.66200
 C436 C 0.27935 0.97766 0.67475
 C437 C 0.28501 1.03417 0.68009
 C438 C 0.27257 1.04458 0.66722
 C439 C 0.27425 1.04156 0.64705
 C440 C 0.28873 1.02800 0.64004
 C441 C 0.30115 1.01757 0.65294
 C442 C 0.32445 1.01964 0.72015
 C443 C 0.33691 1.03145 0.73197
 C444 C 0.34974 1.04602 0.72371
 C445 C 0.34971 1.04863 0.70343
 C446 C 0.33731 1.03683 0.69166
 H447 H 0.35334 0.99164 0.68848
 H448 H 0.37638 0.97182 0.70854
 H449 H 0.32690 0.93970 0.73419
 H450 H 0.30402 0.95945 0.71398
 H451 H 0.32488 0.96017 0.66134
 H452 H 0.30458 0.93998 0.63900
 H453 H 0.27224 0.98813 0.68474
 H454 H 0.28344 1.03670 0.69558
 H455 H 0.26179 1.05518 0.67303
 H456 H 0.29030 1.02526 0.62460
 H457 H 0.31224 1.00724 0.64724
 H458 H 0.31461 1.00858 0.72680
 H459 H 0.33638 1.02931 0.74756
 H460 H 0.35961 1.05950 0.69659
 H461 H 0.33778 1.03892 0.67604
 H462 H 0.25173 0.96780 0.66245
 C463 C 0.68795 1.01180 0.31157
 C464 C 0.68889 0.99100 0.31077
 C465 C 0.67488 0.97890 0.29863
 C466 C 0.70337 0.97930 0.32266
 C467 C 0.69942 1.02378 0.32614
 C468 C 0.67523 1.02349 0.29797
 C469 C 0.65431 0.98125 0.30077
 C470 C 0.64119 0.96932 0.28985
 C471 C 0.64837 0.95462 0.27673
 C472 C 0.66898 0.95220 0.27471
 C473 C 0.68210 0.96419 0.28561
 C474 C 0.69669 0.96358 0.33487
 C475 C 0.71001 0.95304 0.34673
 C476 C 0.73032 0.95792 0.34653
 C477 C 0.73705 0.97336 0.33393
 C478 C 0.72372 0.98386 0.32202
 C479 C 0.71160 1.03992 0.32014
 C480 C 0.72295 1.05083 0.33365
 C481 C 0.72243 1.04590 0.35367
 C482 C 0.70960 1.02992 0.35954
 C483 C 0.69819 1.01917 0.34599
 C484 C 0.67828 1.02231 0.27782
 C485 C 0.66608 1.03320 0.26507
 C486 C 0.65050 1.04521 0.27230
 C487 C 0.64755 1.04643 0.29247
 C488 C 0.65997 1.03584 0.30522
 H489 H 0.64841 0.99210 0.31114
 H490 H 0.62542 0.97127 0.29203
 H491 H 0.67496 0.94112 0.26461
 H492 H 0.69791 0.96203 0.28387
 H493 H 0.68107 0.95981 0.33557
 H494 H 0.70433 0.94139 0.35643
 H495 H 0.72922 0.99567 0.31240
 H496 H 0.71274 1.04375 0.30486
 H497 H 0.73283 1.06242 0.32802
 H498 H 0.70768 1.02601 0.37468
 H499 H 0.68836 1.00718 0.35102
 H500 H 0.69011 1.01295 0.27201
 H501 H 0.66858 1.03200 0.24957
 H502 H 0.63573 1.05576 0.29835
 H503 H 0.65747 1.03696 0.32073
 H504 H 0.75265 0.97722 0.33322
 O505 O 0.83634 0.86558 0.51595
 O506 O 0.86575 0.83910 0.47857
 O507 O 0.83731 0.86613 0.47799
 O508 O 0.86436 0.83821 0.51633
 O509 O 0.84182 0.81376 0.51530
 O510 O 0.81515 0.84132 0.47684
 O511 O 0.84345 0.81441 0.47750
 O512 O 0.81388 0.84107 0.51461
 Cu513 Cu 0.85317 0.85475 0.49731
 Cu514 Cu 0.82635 0.82518 0.49594
 C515 C 0.82008 0.85785 0.52170
 C516 C 0.85968 0.82217 0.47169
 C517 C 0.82159 0.85843 0.47083
 C518 C 0.85766 0.82120 0.52239
 O519 O 0.13520 0.16681 0.48492
 O520 O 0.16333 0.13890 0.52253
 O521 O 0.13582 0.16698 0.52280
 O522 O 0.16222 0.13845 0.48478
 O523 O 0.18554 0.16214 0.48430
 O524 O 0.15886 0.19093 0.52207
 O525 O 0.18634 0.16289 0.52198
 O526 O 0.15854 0.19046 0.48427
 Cu527 Cu 0.14680 0.15042 0.50386
 Cu528 Cu 0.17462 0.17901 0.50313
 C529 C 0.14214 0.18341 0.47811
 C530 C 0.17976 0.14606 0.52856
 C531 C 0.14272 0.18391 0.52886
 C532 C 0.17845 0.14534 0.47809
 O533 O 0.15802 0.87053 0.47993
 O534 O 0.12838 0.84527 0.51812
 O535 O 0.15659 0.87254 0.51781
 O536 O 0.12951 0.84355 0.48032
 O537 O 0.15161 0.81882 0.48228
 O538 O 0.17874 0.84785 0.51968
 O539 O 0.15072 0.82076 0.51999
 O540 O 0.18017 0.84586 0.48190
 Cu541 Cu 0.14092 0.86046 0.49883
 Cu542 Cu 0.16755 0.83087 0.50108
 C543 C 0.17421 0.86250 0.47441
 C544 C 0.13455 0.82869 0.52562
 C545 C 0.17225 0.86510 0.52526
 C546 C 0.13585 0.82616 0.47496
 O547 O 0.86019 0.16553 0.51904
 O548 O 0.83329 0.14063 0.47876
 O549 O 0.86080 0.16853 0.48137
 O550 O 0.83282 0.13737 0.51639
 O551 O 0.80946 0.16090 0.51736
 O552 O 0.83811 0.19268 0.48328
 O553 O 0.81059 0.16483 0.47984
 O554 O 0.83669 0.18886 0.52100
 Cu555 Cu 0.84910 0.15064 0.49875
 Cu556 Cu 0.82143 0.17923 0.50051
 C557 C 0.85297 0.18140 0.52697
 C558 C 0.81732 0.14847 0.47241
 C559 C 0.85434 0.18599 0.47642
 C560 C 0.81624 0.14368 0.52271
 O561 O 0.48394 0.87047 0.84100
 O562 O 0.52293 0.84210 0.86687
 O563 O 0.52225 0.86793 0.83814
 O564 O 0.48438 0.84396 0.86941
 O565 O 0.48137 0.81878 0.84828
 O566 O 0.51928 0.84243 0.81732
 O567 O 0.51982 0.81661 0.84607
 O568 O 0.48108 0.84524 0.81990
 Cu569 Cu 0.50363 0.85863 0.85599
 Cu570 Cu 0.50006 0.82820 0.83083
 C571 C 0.47600 0.86285 0.82588
 C572 C 0.52810 0.82453 0.86089
 C573 C 0.52718 0.85927 0.82232
 C574 C 0.47641 0.82721 0.86416
 O575 O 0.51847 0.15341 0.12766
 O576 O 0.47969 0.12766 0.15626
 O577 O 0.47996 0.15562 0.12932
 O578 O 0.51808 0.12557 0.15500
 O579 O 0.52066 0.14996 0.17704
 O580 O 0.48219 0.17958 0.15180
 O581 O 0.48208 0.15161 0.17873
 O582 O 0.52051 0.17765 0.14987
 Cu583 Cu 0.49886 0.13815 0.13981
 Cu584 Cu 0.50160 0.16708 0.16662
 C585 C 0.52600 0.17004 0.13376
 C586 C 0.47428 0.13518 0.17243
 C587 C 0.47456 0.17278 0.13619
 C588 C 0.52584 0.13263 0.17046
 O589 O 0.52028 0.12680 0.84025
 O590 O 0.48320 0.15337 0.87034
 O591 O 0.48181 0.12623 0.84264
 O592 O 0.52185 0.15386 0.86807
 O593 O 0.51995 0.17871 0.84648
 O594 O 0.48024 0.15097 0.82092
 O595 O 0.48162 0.17811 0.84861
 O596 O 0.51891 0.15182 0.81878
 Cu597 Cu 0.50195 0.13759 0.85752
 Cu598 Cu 0.49998 0.16734 0.83149
 C599 C 0.52601 0.13485 0.82441
 C600 C 0.47609 0.17032 0.86462
 C601 C 0.47418 0.13388 0.82740
 C602 C 0.52773 0.17104 0.86163
 O603 O 0.47594 0.83825 0.13900
 O604 O 0.51504 0.86712 0.16427
 O605 O 0.51449 0.83845 0.13783
 O606 O 0.47651 0.86611 0.16606
 O607 O 0.47768 0.84210 0.18855
 O608 O 0.51572 0.81483 0.16066
 O609 O 0.51626 0.84350 0.18711
 O610 O 0.47724 0.81433 0.16155
 Cu611 Cu 0.49540 0.85487 0.14953
 Cu612 Cu 0.49690 0.82633 0.17675
 C613 C 0.46991 0.82134 0.14588
 C614 C 0.52227 0.86038 0.18007
 C615 C 0.52150 0.82179 0.14440
 C616 C 0.47055 0.85873 0.18213
 O617 O 0.87006 0.52346 0.84522
 O618 O 0.84416 0.48202 0.87104
 O619 O 0.86919 0.48376 0.84231
 O620 O 0.84456 0.52170 0.87371
 O621 O 0.81988 0.52358 0.85272
 O622 O 0.84443 0.48584 0.82142
 O623 O 0.81943 0.48392 0.85011
 O624 O 0.84534 0.52545 0.82428
 Cu625 Cu 0.85948 0.50257 0.86016
 Cu626 Cu 0.82980 0.50493 0.83504
 C627 C 0.86220 0.53149 0.83027
 C628 C 0.82736 0.47587 0.86502
 C629 C 0.86099 0.47831 0.82647
 C630 C 0.82791 0.52904 0.86861
 O631 O 0.12845 0.51953 0.15522
 O632 O 0.15404 0.47958 0.12702
 O633 O 0.12801 0.47985 0.15499
 O634 O 0.15436 0.51940 0.12706
 O635 O 0.17894 0.51859 0.14823
 O636 O 0.15192 0.48010 0.17690
 O637 O 0.17797 0.47897 0.14890
 O638 O 0.15322 0.51996 0.17623
 Cu639 Cu 0.13879 0.49961 0.13890
 Cu640 Cu 0.16792 0.49934 0.16475
 C641 C 0.13655 0.52664 0.17049
 C642 C 0.17040 0.47243 0.13315
 C643 C 0.13535 0.47335 0.17084
 C644 C 0.17124 0.52564 0.13277
 O645 O 0.87526 0.47874 0.15079
 O646 O 0.84836 0.51999 0.12563
 O647 O 0.87405 0.51842 0.15389
 O648 O 0.84906 0.48045 0.12264
 O649 O 0.82523 0.47747 0.14441
 O650 O 0.84961 0.51611 0.17503
 O651 O 0.82398 0.51726 0.14681
 O652 O 0.85117 0.47656 0.17233
 Cu653 Cu 0.86414 0.49960 0.13610
 Cu654 Cu 0.83505 0.49659 0.16176
 C655 C 0.86790 0.47071 0.16598
 C656 C 0.83153 0.52565 0.13189
 C657 C 0.86604 0.52382 0.16979
 C658 C 0.83286 0.47248 0.12823
 O659 O 0.15921 0.52049 0.86424
 O660 O 0.13209 0.47949 0.83855
 O661 O 0.15850 0.48066 0.86631
 O662 O 0.13265 0.51923 0.83665
 O663 O 0.15657 0.51776 0.81488
 O664 O 0.18217 0.47893 0.84428
 O665 O 0.15591 0.47811 0.81667
 O666 O 0.18309 0.51864 0.84245
 Cu667 Cu 0.14323 0.50013 0.85365
 Cu668 Cu 0.17182 0.49823 0.82740
 C669 C 0.17585 0.52653 0.85774
 C670 C 0.13936 0.47184 0.82314
 C671 C 0.17474 0.47314 0.86033
 C672 C 0.14016 0.52507 0.82066
 C673 C 0.27449 0.38584 0.06003
 C674 C 0.26340 0.39938 0.07133
 C675 C 0.24320 0.39577 0.07482
 C676 C 0.23435 0.37808 0.06697
 C677 C 0.24547 0.36450 0.05570
 C678 C 0.26566 0.36824 0.05209
 C679 C 0.23223 0.41039 0.08728
 C680 C 0.21244 0.41247 0.08704
 C681 C 0.20180 0.42751 0.09933
 C682 C 0.18328 0.43480 0.09314
 C683 C 0.17298 0.44926 0.10417
 C684 C 0.18091 0.45659 0.12175
 C685 C 0.19922 0.44889 0.12820
 C686 C 0.20952 0.43447 0.11717
 H687 H 0.29009 0.38896 0.05781
 H688 H 0.27065 0.41274 0.07737
 H689 H 0.21898 0.37440 0.06976
 H690 H 0.23824 0.35110 0.04972
 H691 H 0.24103 0.42053 0.09627
 H692 H 0.20369 0.40378 0.07674
 H693 H 0.17690 0.42952 0.07957
 H694 H 0.15886 0.45480 0.09883
 H695 H 0.20565 0.45405 0.14179
 H696 H 0.22339 0.42867 0.12281
 C697 C 0.73199 0.63430 0.07993
 C698 C 0.74289 0.61994 0.09049
 C699 C 0.75947 0.61038 0.08226
 C700 C 0.76490 0.61542 0.06309
 C701 C 0.75395 0.62975 0.05250
 C702 C 0.73730 0.63927 0.06076
 C703 C 0.76998 0.59457 0.09376
 C704 C 0.78899 0.58937 0.09083
 C705 C 0.79952 0.57318 0.10192
 C706 C 0.81742 0.56560 0.09445
 C707 C 0.82785 0.55024 0.10418
 C708 C 0.82063 0.54211 0.12169
 C709 C 0.80288 0.54985 0.12937
 C710 C 0.79248 0.56528 0.11968
 H711 H 0.71939 0.64153 0.08681
 H712 H 0.73833 0.61629 0.10519
 H713 H 0.77717 0.60791 0.05596
 H714 H 0.75817 0.63293 0.03762
 H715 H 0.76151 0.58719 0.10509
 H716 H 0.79733 0.59708 0.07957
 H717 H 0.82330 0.57147 0.08090
 H718 H 0.84151 0.54466 0.09789
 H719 H 0.79704 0.54408 0.14295
 H720 H 0.77915 0.57101 0.12641
 C721 C 0.72600 0.38208 0.93456
 C722 C 0.73634 0.39622 0.92321
 C723 C 0.75655 0.39348 0.91921
 C724 C 0.76613 0.37593 0.92643
 C725 C 0.75576 0.36177 0.93778
 C726 C 0.73561 0.36475 0.94208
 C727 C 0.76686 0.40902 0.90718
 C728 C 0.78655 0.41199 0.90749
 C729 C 0.79668 0.42820 0.89612
 C730 C 0.81530 0.43517 0.90243
 C731 C 0.82529 0.45058 0.89232
 C732 C 0.81693 0.45928 0.87553
 C733 C 0.79847 0.45204 0.86896
 C734 C 0.78848 0.43662 0.87908
 H735 H 0.71039 0.38462 0.93729
 H736 H 0.72853 0.40944 0.91764
 H737 H 0.78152 0.37289 0.92320
 H738 H 0.76358 0.34858 0.94338
 H739 H 0.75762 0.41917 0.89869
 H740 H 0.79563 0.40313 0.91735
 H741 H 0.82206 0.42883 0.91539
 H742 H 0.83953 0.45573 0.89773
 H743 H 0.79172 0.45826 0.85596
 H744 H 0.77450 0.43120 0.87331
 C745 C 0.24074 0.62860 0.95517
 C746 C 0.22835 0.61499 0.94520
 C747 C 0.22976 0.61279 0.92494
 C748 C 0.24338 0.62512 0.91476
 C749 C 0.25585 0.63861 0.92475
 C750 C 0.25480 0.64034 0.94507
 C751 C 0.21676 0.59761 0.91507
 C752 C 0.22085 0.58954 0.89757
 C753 C 0.20867 0.57358 0.88780
 C754 C 0.21692 0.56325 0.87186
 C755 C 0.20626 0.54806 0.86211
 C756 C 0.18699 0.54281 0.86804
 C757 C 0.17857 0.55326 0.88385
 C758 C 0.18922 0.56856 0.89357
 H759 H 0.23968 0.62954 0.97085
 H760 H 0.21789 0.60586 0.95340
 H761 H 0.24443 0.62460 0.89909
 H762 H 0.26625 0.64783 0.91656
 H763 H 0.20413 0.59212 0.92319
 H764 H 0.23438 0.59396 0.89028
 H765 H 0.23179 0.56684 0.86698
 H766 H 0.21319 0.54035 0.84996
 H767 H 0.16368 0.54970 0.88865
 H768 H 0.18198 0.57645 0.90538
 C769 C 0.04409 0.24435 0.37616
 C770 C 0.05422 0.23198 0.38945
 C771 C 0.07420 0.23577 0.39390
 C772 C 0.08411 0.25172 0.38419
 C773 C 0.07400 0.26406 0.37090
 C774 C 0.05383 0.26067 0.36690
 C775 C 0.08428 0.22265 0.40845
 C776 C 0.09965 0.22920 0.41923
 C777 C 0.11009 0.21671 0.43407
 C778 C 0.12846 0.22376 0.44099
 C779 C 0.13886 0.21292 0.45518
 C780 C 0.13109 0.19473 0.46292
 C781 C 0.11266 0.18763 0.45611
 C782 C 0.10222 0.19850 0.44188
 H783 H 0.02852 0.24142 0.37348
 H784 H 0.04630 0.21968 0.39658
 H785 H 0.09972 0.25460 0.38657
 H786 H 0.08204 0.27617 0.36362
 H787 H 0.07835 0.20745 0.41053
 H788 H 0.10504 0.24464 0.41719
 H789 H 0.13485 0.23776 0.43535
 H790 H 0.15299 0.21886 0.46011
 H791 H 0.10621 0.17373 0.46188
 H792 H 0.08793 0.19269 0.43742
 C793 C 0.07667 0.73113 0.63034
 C794 C 0.08784 0.74216 0.61685
 C795 C 0.07944 0.75852 0.60656
 C796 C 0.05950 0.76366 0.61007
 C797 C 0.04829 0.75256 0.62355
 C798 C 0.05671 0.73607 0.63373
 C799 C 0.09172 0.76899 0.59170
 C800 C 0.08833 0.78804 0.58523
 C801 C 0.10065 0.79826 0.57017
 C802 C 0.09281 0.81523 0.56031
 C803 C 0.10378 0.82522 0.54590
 C804 C 0.12290 0.81844 0.54105
 C805 C 0.13090 0.80170 0.55114
 C806 C 0.12000 0.79181 0.56561
 H807 H 0.08368 0.71870 0.63812
 H808 H 0.10313 0.73784 0.61441
 H809 H 0.05227 0.77574 0.60204
 H810 H 0.03285 0.75650 0.62556
 H811 H 0.10412 0.76039 0.58608
 H812 H 0.07589 0.79656 0.59090
 H813 H 0.07804 0.82068 0.56363
 H814 H 0.09723 0.83813 0.53845
 H815 H 0.14571 0.79629 0.54797
 H816 H 0.12704 0.77937 0.57327
 C817 C 0.92197 0.72210 0.37130
 C818 C 0.91003 0.73316 0.38410
 C819 C 0.91787 0.74952 0.39485
 C820 C 0.93804 0.75455 0.39262
 C821 C 0.95002 0.74341 0.37985
 C822 C 0.94214 0.72699 0.36912
 C823 C 0.90475 0.76018 0.40884
 C824 C 0.90771 0.77947 0.41489
 C825 C 0.89482 0.79013 0.42918
 C826 C 0.90201 0.80799 0.43809
 C827 C 0.89059 0.81848 0.45179
 C828 C 0.87165 0.81134 0.45689
 C829 C 0.86427 0.79366 0.44777
 C830 C 0.87564 0.78323 0.43400
 H831 H 0.91535 0.70974 0.36306
 H832 H 0.89458 0.72892 0.38558
 H833 H 0.94482 0.76661 0.40110
 H834 H 0.96559 0.74730 0.37879
 H835 H 0.89215 0.75160 0.41406
 H836 H 0.92030 0.78794 0.40939
 H837 H 0.91663 0.81378 0.43458
 H838 H 0.89670 0.83208 0.45850
 H839 H 0.84963 0.78790 0.45121
 H840 H 0.86910 0.76999 0.42712
 C841 C 0.94663 0.26752 0.61223
 C842 C 0.93702 0.25582 0.59805
 C843 C 0.92328 0.24072 0.60338
 C844 C 0.91973 0.23707 0.62323
 C845 C 0.92963 0.24853 0.63743
 C846 C 0.94303 0.26397 0.63204
 C847 C 0.91326 0.22876 0.58795
 C848 C 0.89453 0.22214 0.58957
 C849 C 0.88417 0.21131 0.57361
 C850 C 0.86379 0.21451 0.57094
 C851 C 0.85366 0.20485 0.55574
 C852 C 0.86364 0.19139 0.54321
 C853 C 0.88394 0.18774 0.54623
 C854 C 0.89414 0.19769 0.56122
 H855 H 0.95709 0.27918 0.60775
 H856 H 0.94012 0.25876 0.58286
 H857 H 0.90956 0.22519 0.62779
 H858 H 0.92666 0.24551 0.65263
 H859 H 0.92106 0.22671 0.57434
 H860 H 0.88599 0.22610 0.60235
 H861 H 0.85578 0.22481 0.58042
 H862 H 0.83799 0.20783 0.55387
 H863 H 0.89199 0.17739 0.53683
 H864 H 0.90976 0.19453 0.56322
 C865 C 0.37429 0.08190 0.27592
 C866 C 0.38769 0.09286 0.26447
 C867 C 0.39628 0.08391 0.24799
 C868 C 0.39135 0.06357 0.24328
 C869 C 0.37798 0.05257 0.25478
 C870 C 0.36934 0.06159 0.27126
 C871 C 0.41095 0.09593 0.23671
 C872 C 0.41499 0.09246 0.21789
 C873 C 0.43001 0.10405 0.20657
 C874 C 0.43687 0.09560 0.18907
 C875 C 0.45115 0.10573 0.17795
 C876 C 0.45888 0.12464 0.18404
 C877 C 0.45181 0.13332 0.20138
 C878 C 0.43747 0.12322 0.21248
 H879 H 0.36773 0.08937 0.28839
 H880 H 0.39131 0.10845 0.26848
 H881 H 0.39816 0.05584 0.23111
 H882 H 0.37481 0.03682 0.25105
 H883 H 0.41844 0.10812 0.24439
 H884 H 0.40723 0.08034 0.21033
 H885 H 0.43130 0.08097 0.18406
 H886 H 0.45623 0.09864 0.16463
 H887 H 0.45730 0.14798 0.20636
 H888 H 0.43221 0.13071 0.22548
 C889 C 0.60648 0.04314 0.73163
 C890 C 0.59276 0.05206 0.74423
 C891 C 0.59897 0.06624 0.75829
 C892 C 0.61927 0.07086 0.75998
 C893 C 0.63304 0.06164 0.74760
 C894 C 0.62673 0.04786 0.73320
 C895 C 0.58403 0.07563 0.77120
 C896 C 0.58549 0.09497 0.77747
 C897 C 0.57008 0.10476 0.78956
 C898 C 0.56642 0.12572 0.78729
 C899 C 0.55193 0.13544 0.79844
 C900 C 0.54115 0.12446 0.81245
 C901 C 0.54509 0.10354 0.81502
 C902 C 0.55934 0.09374 0.80360
 H903 H 0.60131 0.03236 0.72077
 H904 H 0.57721 0.04814 0.74280
 H905 H 0.62455 0.08136 0.77100
 H906 H 0.64860 0.06547 0.74909
 H907 H 0.57080 0.06685 0.77444
 H908 H 0.59767 0.10444 0.77250
 H909 H 0.57463 0.13454 0.77667
 H910 H 0.54934 0.15161 0.79627
 H911 H 0.53706 0.09472 0.82576
 H912 H 0.56218 0.07766 0.80602
 C913 C 0.36402 0.92068 0.73732
 C914 C 0.37710 0.90887 0.74834
 C915 C 0.39374 0.91781 0.75722
 C916 C 0.39723 0.93885 0.75452
 C917 C 0.38413 0.95067 0.74347
 C918 C 0.36735 0.94173 0.73479
 C919 C 0.40737 0.90452 0.76848
 C920 C 0.41984 0.91155 0.78217
 C921 C 0.43359 0.89829 0.79335
 C922 C 0.44133 0.90563 0.81098
 C923 C 0.45484 0.89401 0.82169
 C924 C 0.46102 0.87477 0.81496
 C925 C 0.45327 0.86736 0.79733
 C926 C 0.43979 0.87901 0.78658
 H927 H 0.35143 0.91325 0.73052
 H928 H 0.37419 0.89267 0.74996
 H929 H 0.41019 0.94624 0.76058
 H930 H 0.38708 0.96686 0.74183
 H931 H 0.40633 0.88824 0.76587
 H932 H 0.41955 0.92758 0.78602
 H933 H 0.43694 0.92048 0.81647
 H934 H 0.46058 0.90021 0.83518
 H935 H 0.45790 0.85270 0.79162
 H936 H 0.43473 0.87302 0.77279
 C937 C 0.63807 0.92067 0.26289
 C938 C 0.62466 0.90837 0.25265
 C939 C 0.60738 0.91677 0.24457
 C940 C 0.60362 0.93776 0.24722
 C941 C 0.61701 0.95004 0.25748
 C942 C 0.63438 0.94164 0.26544
 C943 C 0.59334 0.90307 0.23419
 C944 C 0.58041 0.90973 0.22078
 C945 C 0.56615 0.89627 0.21043
 C946 C 0.55809 0.90306 0.19277
 C947 C 0.54407 0.89129 0.18282
 C948 C 0.53763 0.87246 0.19039
 C949 C 0.54565 0.86562 0.20809
 C950 C 0.55972 0.87740 0.21805
 H951 H 0.65114 0.91367 0.26913
 H952 H 0.62780 0.89223 0.25103
 H953 H 0.59019 0.94473 0.24177
 H954 H 0.61378 0.96615 0.25915
 H955 H 0.59439 0.88688 0.23720
 H956 H 0.58072 0.92565 0.21648
 H957 H 0.56264 0.91758 0.18665
 H958 H 0.53815 0.89706 0.16925
 H959 H 0.54088 0.85127 0.21439
 H960 H 0.56508 0.87188 0.23191
 C961 C 0.39366 0.27254 0.94619
 C962 C 0.40775 0.26165 0.93554
 C963 C 0.40276 0.24328 0.92635
 C964 C 0.38324 0.23605 0.92776
 C965 C 0.36900 0.24699 0.93819
 C966 C 0.37376 0.26563 0.94772
 C967 C 0.41797 0.23265 0.91461
 C968 C 0.41798 0.21238 0.91166
 C969 C 0.43311 0.20199 0.89962
 C970 C 0.43822 0.18169 0.90385
 C971 C 0.45230 0.17141 0.89260
 C972 C 0.46127 0.18115 0.87666
 C973 C 0.45589 0.20137 0.87224
 C974 C 0.44198 0.21170 0.88359
 H975 H 0.39847 0.28703 0.95210
 H976 H 0.42265 0.26774 0.93437
 H977 H 0.37876 0.22207 0.92055
 H978 H 0.35452 0.24003 0.93928
 H979 H 0.43002 0.24181 0.90892
 H980 H 0.40715 0.20289 0.91898
 H981 H 0.43143 0.17383 0.91599
 H982 H 0.45604 0.15580 0.89630
 H983 H 0.46245 0.20926 0.85999
 H984 H 0.43794 0.22713 0.87955
 C985 C 0.62867 0.76280 0.95920
 C986 C 0.61504 0.77466 0.94888
 C987 C 0.61258 0.77207 0.92875
 C988 C 0.62461 0.75779 0.91902
 C989 C 0.63817 0.74585 0.92937
 C990 C 0.64020 0.74809 0.94958
 C991 C 0.59753 0.78467 0.91853
 C992 C 0.58955 0.77955 0.90129
 C993 C 0.57393 0.79161 0.89129
 C994 C 0.56306 0.78222 0.87631
 C995 C 0.54821 0.79287 0.86641
 C996 C 0.54388 0.81324 0.87128
 C997 C 0.55488 0.82276 0.88611
 C998 C 0.56982 0.81215 0.89593
 H999 H 0.62983 0.76476 0.97479
 H1000 H 0.60612 0.78567 0.95672
 H1001 H 0.62383 0.75585 0.90343
 H1002 H 0.64718 0.73493 0.92153
 H1003 H 0.59211 0.79795 0.92620
 H1004 H 0.59381 0.76532 0.89449
 H1005 H 0.56599 0.76649 0.87229
 H1006 H 0.54005 0.78510 0.85502
 H1007 H 0.55207 0.83853 0.89004
 H1008 H 0.57820 0.82029 0.90688
 C1009 C 0.36978 0.75908 0.04703
 C1010 C 0.38322 0.77090 0.05772
 C1011 C 0.39110 0.76373 0.07529
 C1012 C 0.38541 0.74427 0.08189
 C1013 C 0.37202 0.73238 0.07123
 C1014 C 0.36393 0.73945 0.05348
 C1015 C 0.40580 0.77662 0.08575
 C1016 C 0.40998 0.77467 0.10476
 C1017 C 0.42513 0.78715 0.11502
 C1018 C 0.43332 0.77957 0.13235
 C1019 C 0.44780 0.79066 0.14243
 C1020 C 0.45432 0.80970 0.13545
 C1021 C 0.44585 0.81750 0.11831
 C1022 C 0.43137 0.80642 0.10824
 H1023 H 0.36483 0.76517 0.03326
 H1024 H 0.38758 0.78572 0.05213
 H1025 H 0.39145 0.73787 0.09512
 H1026 H 0.36770 0.71787 0.07743
 H1027 H 0.41337 0.78812 0.07724
 H1028 H 0.40241 0.76318 0.11327
 H1029 H 0.42866 0.76487 0.13800
 H1030 H 0.45395 0.78425 0.15563
 H1031 H 0.45037 0.83224 0.11266
 H1032 H 0.42497 0.81322 0.09537
 C1033 C 0.63926 0.25949 0.07596
 C1034 C 0.62597 0.24846 0.08747
 C1035 C 0.60952 0.23864 0.07913
 C1036 C 0.60643 0.24039 0.05894
 C1037 C 0.61972 0.25144 0.04742
 C1038 C 0.63630 0.26110 0.05579
 C1039 C 0.59559 0.22752 0.09206
 C1040 C 0.58313 0.21287 0.08586
 C1041 C 0.56903 0.20198 0.09879
 C1042 C 0.56141 0.18300 0.09279
 C1043 C 0.54765 0.17249 0.10423
 C1044 C 0.54108 0.18081 0.12192
 C1045 C 0.54865 0.19983 0.12792
 C1046 C 0.56238 0.21035 0.11647
 H1047 H 0.65169 0.26705 0.08290
 H1048 H 0.62858 0.24759 0.10300
 H1049 H 0.59363 0.23361 0.05198
 H1050 H 0.61708 0.25234 0.03191
 H1051 H 0.59636 0.23107 0.10740
 H1052 H 0.58367 0.20796 0.07085
 H1053 H 0.56613 0.17628 0.07917
 H1054 H 0.54205 0.15791 0.09913
 H1055 H 0.54373 0.20677 0.14137
 H1056 H 0.56731 0.22523 0.12136
 C1057 C 0.24077 0.05502 0.63757
 C1058 C 0.22837 0.06567 0.62481
 C1059 C 0.23597 0.07439 0.60774
 C1060 C 0.25619 0.07172 0.60338
 C1061 C 0.26857 0.06102 0.61610
 C1062 C 0.26103 0.05266 0.63339
 C1063 C 0.22235 0.08567 0.59465
 C1064 C 0.22850 0.10052 0.58263
 C1065 C 0.21515 0.11212 0.56951
 C1066 C 0.22159 0.13113 0.56248
 C1067 C 0.20993 0.14229 0.54949
 C1068 C 0.19158 0.13461 0.54308
 C1069 C 0.18507 0.11559 0.55013
 C1070 C 0.19673 0.10441 0.56317
 H1071 H 0.23446 0.04844 0.65061
 H1072 H 0.21282 0.06726 0.62838
 H1073 H 0.26248 0.07762 0.59006
 H1074 H 0.28411 0.05949 0.61250
 H1075 H 0.20669 0.08229 0.59582
 H1076 H 0.24392 0.10515 0.58293
 H1077 H 0.23575 0.13737 0.56701
 H1078 H 0.21545 0.15686 0.54430
 H1079 H 0.17108 0.10916 0.54534
 H1080 H 0.19147 0.08956 0.56777
 C1081 C 0.74030 0.04716 0.38504
 C1082 C 0.75223 0.05749 0.39846
 C1083 C 0.75852 0.07756 0.39495
 C1084 C 0.75299 0.08701 0.37744
 C1085 C 0.74116 0.07668 0.36390
 C1086 C 0.73445 0.05652 0.36742
 C1087 C 0.77124 0.08784 0.40963
 C1088 C 0.77229 0.10821 0.41169
 C1089 C 0.78436 0.11831 0.42696
 C1090 C 0.77859 0.13765 0.43371
 C1091 C 0.78935 0.14751 0.44837
 C1092 C 0.80631 0.13834 0.45642
 C1093 C 0.81241 0.11922 0.44929
 C1094 C 0.80159 0.10931 0.43471
 H1095 H 0.73649 0.03148 0.38832
 H1096 H 0.75657 0.04972 0.41171
 H1097 H 0.75794 0.10232 0.37397
 H1098 H 0.73680 0.08500 0.35102
 H1099 H 0.77902 0.07813 0.41983
 H1100 H 0.76300 0.11791 0.40278
 H1101 H 0.76551 0.14501 0.42785
 H1102 H 0.78431 0.16228 0.45345
 H1103 H 0.82550 0.11182 0.45508
 H1104 H 0.80689 0.09474 0.42942
 C1105 C 0.75173 0.95765 0.61880
 C1106 C 0.76400 0.94787 0.60534
 C1107 C 0.76353 0.92651 0.60322
 C1108 C 0.75093 0.91506 0.61540
 C1109 C 0.73859 0.92486 0.62877
 C1110 C 0.73873 0.94626 0.63049
 C1111 C 0.77653 0.91686 0.58843
 C1112 C 0.77322 0.89818 0.58095
 C1113 C 0.78569 0.88846 0.56574
 C1114 C 0.77819 0.87117 0.55607
 C1115 C 0.78931 0.86127 0.54178
 C1116 C 0.80828 0.86843 0.53680
 C1117 C 0.81590 0.88565 0.54651
 C1118 C 0.80482 0.89550 0.56090
 H1119 H 0.75208 0.97418 0.61973
 H1120 H 0.77368 0.95706 0.59631
 H1121 H 0.75064 0.89854 0.61488
 H1122 H 0.72903 0.91566 0.63790
 H1123 H 0.78855 0.92609 0.58288
 H1124 H 0.76021 0.88975 0.58546
 H1125 H 0.76359 0.86529 0.55955
 H1126 H 0.78300 0.84802 0.53461
 H1127 H 0.83056 0.89141 0.54314
 H1128 H 0.81152 0.90835 0.56829
 C1129 C 0.24572 0.96098 0.37828
 C1130 C 0.23290 0.95111 0.39119
 C1131 C 0.23371 0.92982 0.39372
 C1132 C 0.24733 0.91851 0.38254
 C1133 C 0.26023 0.92841 0.36972
 C1134 C 0.25965 0.94975 0.36754
 C1135 C 0.22001 0.92016 0.40795
 C1136 C 0.22289 0.90152 0.41565
 C1137 C 0.20981 0.89199 0.43052
 C1138 C 0.21682 0.87471 0.44048
 C1139 C 0.20526 0.86513 0.45464
 C1140 C 0.18632 0.87259 0.45922
 C1141 C 0.17913 0.88974 0.44914
 C1142 C 0.19067 0.89928 0.43487
 H1143 H 0.24502 0.97746 0.37702
 H1144 H 0.22249 0.96021 0.39947
 H1145 H 0.24800 0.90203 0.38339
 H1146 H 0.27055 0.91934 0.36132
 H1147 H 0.20777 0.92940 0.41292
 H1148 H 0.23600 0.89301 0.41170
 H1149 H 0.23141 0.86863 0.43738
 H1150 H 0.21124 0.85193 0.46209
 H1151 H 0.16451 0.89574 0.45219
 H1152 H 0.18432 0.91214 0.42724
 C1153 C 0.03970 0.36896 0.76077
 C1154 C 0.04987 0.38215 0.77332
 C1155 C 0.07043 0.38494 0.77155
 C1156 C 0.08077 0.37350 0.75752
 C1157 C 0.07061 0.36033 0.74499
 C1158 C 0.04994 0.35812 0.74628
 C1159 C 0.08056 0.39977 0.78455
 C1160 C 0.09716 0.40971 0.77936
 C1161 C 0.10758 0.42521 0.79147
 C1162 C 0.12635 0.43187 0.78534
 C1163 C 0.13669 0.44684 0.79571
 C1164 C 0.12848 0.45561 0.81250
 C1165 C 0.10973 0.44895 0.81875
 C1166 C 0.09934 0.43395 0.80835
 H1167 H 0.02375 0.36767 0.76205
 H1168 H 0.04159 0.39061 0.78413
 H1169 H 0.09672 0.37453 0.75625
 H1170 H 0.07896 0.35178 0.73430
 H1171 H 0.07354 0.40297 0.79831
 H1172 H 0.10353 0.40664 0.76523
 H1173 H 0.13307 0.42551 0.77239
 H1174 H 0.15111 0.45161 0.79047
 H1175 H 0.10296 0.45549 0.83159
 H1176 H 0.08481 0.42968 0.81351
 C1177 C 0.05398 0.60492 0.27031
 C1178 C 0.06269 0.59138 0.25716
 C1179 C 0.07136 0.59860 0.24003
 C1180 C 0.07072 0.61960 0.23592
 C1181 C 0.06156 0.63315 0.24881
 C1182 C 0.05314 0.62611 0.26638
 C1183 C 0.08051 0.58383 0.22651
 C1184 C 0.09724 0.58794 0.21681
 C1185 C 0.10705 0.57250 0.20446
 C1186 C 0.12778 0.57110 0.20463
 C1187 C 0.13739 0.55614 0.19362
 C1188 C 0.12643 0.54271 0.18180
 C1189 C 0.10569 0.54456 0.18114
 C1190 C 0.09606 0.55921 0.19251
 H1191 H 0.04711 0.59847 0.28312
 H1192 H 0.06278 0.57519 0.26047
 H1193 H 0.07708 0.62553 0.22263
 H1194 H 0.06183 0.64925 0.24520
 H1195 H 0.07417 0.56862 0.22573
 H1196 H 0.10483 0.60234 0.21924
 H1197 H 0.13652 0.58130 0.21364
 H1198 H 0.15340 0.55513 0.19426
 H1199 H 0.09690 0.53442 0.17212
 H1200 H 0.08006 0.56026 0.19183
 C1201 C 0.92552 0.37313 0.26992
 C1202 C 0.91465 0.38613 0.25789
 C1203 C 0.92210 0.39236 0.23985
 C1204 C 0.94083 0.38525 0.23405
 C1205 C 0.95177 0.37220 0.24607
 C1206 C 0.94444 0.36596 0.26439
 C1207 C 0.91011 0.40686 0.22812
 C1208 C 0.91272 0.41033 0.20906
 C1209 C 0.90066 0.42527 0.19794
 C1210 C 0.90875 0.43422 0.18118
 C1211 C 0.89807 0.44881 0.17064
 C1212 C 0.87896 0.45464 0.17657
 C1213 C 0.87063 0.44523 0.19300
 C1214 C 0.88128 0.43065 0.20351
 H1215 H 0.91854 0.36829 0.28329
 H1216 H 0.90020 0.39126 0.26270
 H1217 H 0.94748 0.39017 0.22056
 H1218 H 0.96644 0.36797 0.24122
 H1219 H 0.89860 0.41504 0.23580
 H1220 H 0.92436 0.40252 0.20126
 H1221 H 0.92353 0.43017 0.17643
 H1222 H 0.90487 0.45568 0.15798
 H1223 H 0.85584 0.44916 0.19780
 H1224 H 0.87415 0.42352 0.21585
 C1225 C 0.92020 0.63063 0.72723
 C1226 C 0.90896 0.61756 0.73890
 C1227 C 0.91590 0.61129 0.75714
 C1228 C 0.93448 0.61844 0.76351
 C1229 C 0.94576 0.63157 0.75188
 C1230 C 0.93897 0.63785 0.73336
 C1231 C 0.90368 0.59662 0.76847
 C1232 C 0.90584 0.59321 0.78760
 C1233 C 0.89401 0.57783 0.79845
 C1234 C 0.90196 0.56951 0.81556
 C1235 C 0.89159 0.55460 0.82599
 C1236 C 0.87289 0.54781 0.81961
 C1237 C 0.86467 0.55654 0.80277
 C1238 C 0.87506 0.57143 0.79233
 H1239 H 0.91365 0.63547 0.71364
 H1240 H 0.89467 0.61237 0.73363
 H1241 H 0.94079 0.61347 0.77716
 H1242 H 0.96029 0.63579 0.75719
 H1243 H 0.89252 0.58821 0.76045
 H1244 H 0.91706 0.60140 0.79572
 H1245 H 0.91642 0.57431 0.82072
 H1246 H 0.89830 0.54829 0.83897
 H1247 H 0.85020 0.55181 0.79759
 H1248 H 0.86805 0.57798 0.77964
 C1249 C 0.74344 0.64471 0.92999
 C1250 C 0.75448 0.63147 0.91835
 C1251 C 0.76293 0.61370 0.92621
 C1252 C 0.75992 0.60933 0.94603
 C1253 C 0.74881 0.62257 0.95767
 C1254 C 0.74043 0.64039 0.94977
 C1255 C 0.77380 0.59973 0.91303
 C1256 C 0.78716 0.58596 0.91911
 C1257 C 0.79753 0.57180 0.90571
 C1258 C 0.81590 0.56362 0.91130
 C1259 C 0.82591 0.54989 0.89920
 C1260 C 0.81763 0.54392 0.88131
 C1261 C 0.79916 0.55197 0.87579
 C1262 C 0.78918 0.56568 0.88786
 H1263 H 0.73689 0.65812 0.92339
 H1264 H 0.75636 0.63508 0.90309
 H1265 H 0.76568 0.59551 0.95254
 H1266 H 0.74679 0.61887 0.97288
 H1267 H 0.77113 0.60151 0.89761
 H1268 H 0.79134 0.58546 0.93429
 H1269 H 0.82256 0.56791 0.92505
 H1270 H 0.84006 0.54388 0.90393
 H1271 H 0.79227 0.54752 0.86220
 H1272 H 0.77474 0.57104 0.88331
 C1273 C 0.27281 0.36886 0.92100
 C1274 C 0.26193 0.38248 0.90960
 C1275 C 0.24523 0.39243 0.91717
 C1276 C 0.23966 0.38852 0.93654
 C1277 C 0.25060 0.37491 0.94798
 C1278 C 0.26737 0.36502 0.94037
 C1279 C 0.23476 0.40739 0.90467
 C1280 C 0.21581 0.41301 0.90724
 C1281 C 0.20553 0.42820 0.89475
 C1282 C 0.18845 0.43781 0.90193
 C1283 C 0.17838 0.45235 0.89077
 C1284 C 0.18516 0.45755 0.87211
 C1285 C 0.20204 0.44768 0.86476
 C1286 C 0.21205 0.43309 0.87587
 H1287 H 0.28549 0.36128 0.91462
 H1288 H 0.26658 0.38524 0.89477
 H1289 H 0.22728 0.39634 0.94314
 H1290 H 0.24626 0.37257 0.96296
 H1291 H 0.24322 0.41382 0.89281
 H1292 H 0.20741 0.40656 0.91914
 H1293 H 0.18297 0.43421 0.91633
 H1294 H 0.16537 0.45961 0.89683
 H1295 H 0.20749 0.45112 0.85033
 H1296 H 0.22465 0.42555 0.86938
 C1297 C 0.27297 0.60977 0.05350
 C1298 C 0.26219 0.59555 0.06437
 C1299 C 0.24407 0.60089 0.07283
 C1300 C 0.23702 0.62093 0.07051
 C1301 C 0.24784 0.63525 0.05980
 C1302 C 0.26608 0.63000 0.05103
 C1303 C 0.23340 0.58550 0.08464
 C1304 C 0.21369 0.58566 0.08716
 C1305 C 0.20316 0.57020 0.09901
 C1306 C 0.18340 0.56541 0.09451
 C1307 C 0.17301 0.55091 0.10542
 C1308 C 0.18212 0.54113 0.12128
 C1309 C 0.20179 0.54624 0.12603
 C1310 C 0.21221 0.56062 0.11503
 H1311 H 0.28716 0.60492 0.04787
 H1312 H 0.26810 0.58028 0.06622
 H1313 H 0.22330 0.62575 0.07720
 H1314 H 0.24136 0.65023 0.05798
 H1315 H 0.24205 0.57309 0.09067
 H1316 H 0.20475 0.59681 0.07952
 H1317 H 0.17605 0.57276 0.08238
 H1318 H 0.15784 0.54740 0.10147
 H1319 H 0.20918 0.53908 0.13823
 H1320 H 0.22721 0.56442 0.11931
 C1321 C 0.76346 0.35142 0.05791
 C1322 C 0.77620 0.36394 0.06870
 C1323 C 0.77189 0.38467 0.07136
 C1324 C 0.75443 0.39269 0.06336
 C1325 C 0.74139 0.38012 0.05302
 C1326 C 0.74562 0.35920 0.05006
 C1327 C 0.78513 0.39741 0.08346
 C1328 C 0.78912 0.41694 0.07913
 C1329 C 0.80125 0.43014 0.09189
 C1330 C 0.81380 0.44485 0.08362
 C1331 C 0.82463 0.45822 0.09546
 C1332 C 0.82256 0.45749 0.11576
 C1333 C 0.80992 0.44280 0.12403
 C1334 C 0.79949 0.42912 0.11222
 H1335 H 0.76721 0.33540 0.05667
 H1336 H 0.78948 0.35740 0.07502
 H1337 H 0.75061 0.40862 0.06545
 H1338 H 0.72830 0.38713 0.04684
 H1339 H 0.79217 0.39036 0.09594
 H1340 H 0.78374 0.42336 0.06559
 H1341 H 0.81520 0.44600 0.06797
 H1342 H 0.83415 0.46953 0.08873
 H1343 H 0.80806 0.44196 0.13965
 H1344 H 0.78957 0.41821 0.11897
 C1345 C 0.95708 0.74240 0.60921
 C1346 C 0.94740 0.75465 0.59555
 C1347 C 0.92841 0.76229 0.59924
 C1348 C 0.91947 0.75799 0.61720
 C1349 C 0.92916 0.74588 0.63097
 C1350 C 0.94814 0.73765 0.62724
 C1351 C 0.91853 0.77497 0.58425
 C1352 C 0.89876 0.77592 0.58234
 C1353 C 0.88872 0.78784 0.56691
 C1354 C 0.86982 0.78162 0.56074
 C1355 C 0.85979 0.79241 0.54625
 C1356 C 0.86834 0.80987 0.53779
 C1357 C 0.88713 0.81635 0.54421
 C1358 C 0.89724 0.80544 0.55862
 H1359 H 0.97193 0.73739 0.60574
 H1360 H 0.95476 0.75806 0.58194
 H1361 H 0.90502 0.76407 0.62078
 H1362 H 0.92119 0.74243 0.64419
 H1363 H 0.92789 0.78261 0.57375
 H1364 H 0.88948 0.76659 0.59162
 H1365 H 0.86287 0.76822 0.56703
 H1366 H 0.84529 0.78709 0.54173
 H1367 H 0.89405 0.82982 0.53807
 H1368 H 0.91152 0.81105 0.56343
 C1369 C 0.93751 0.24680 0.36374
 C1370 C 0.92656 0.23488 0.37672
 C1371 C 0.92227 0.24205 0.39541
 C1372 C 0.92959 0.26126 0.40111
 C1373 C 0.94069 0.27315 0.38823
 C1374 C 0.94483 0.26625 0.36919
 C1375 C 0.91080 0.22881 0.40877
 C1376 C 0.89961 0.23615 0.42326
 C1377 C 0.88810 0.22286 0.43654
 C1378 C 0.87111 0.23077 0.44554
 C1379 C 0.86002 0.21877 0.45836
 C1380 C 0.86587 0.19866 0.46264
 C1381 C 0.88303 0.19082 0.45382
 C1382 C 0.89405 0.20278 0.44093
 H1383 H 0.94083 0.24017 0.34972
 H1384 H 0.92139 0.21995 0.37210
 H1385 H 0.92699 0.26709 0.41560
 H1386 H 0.94531 0.28811 0.39320
 H1387 H 0.91084 0.21254 0.40584
 H1388 H 0.89795 0.25252 0.42495
 H1389 H 0.86633 0.24626 0.44254
 H1390 H 0.84694 0.22531 0.46501
 H1391 H 0.88803 0.17544 0.45693
 H1392 H 0.90741 0.19637 0.43477
 C1393 C 0.05688 0.24073 0.64218
 C1394 C 0.06814 0.22896 0.62935
 C1395 C 0.07434 0.23698 0.61149
 C1396 C 0.06862 0.25691 0.60646
 C1397 C 0.05725 0.26868 0.61918
 C1398 C 0.05116 0.26090 0.63739
 C1399 C 0.08603 0.22390 0.59818
 C1400 C 0.09861 0.23149 0.58492
 C1401 C 0.11003 0.21857 0.57126
 C1402 C 0.12749 0.22646 0.56311
 C1403 C 0.13830 0.21510 0.54959
 C1404 C 0.13172 0.19564 0.54374
 C1405 C 0.11421 0.18773 0.55187
 C1406 C 0.10344 0.19907 0.56545
 H1407 H 0.05205 0.23348 0.65548
 H1408 H 0.07204 0.21347 0.63341
 H1409 H 0.07268 0.26346 0.59258
 H1410 H 0.05398 0.28418 0.61479
 H1411 H 0.08478 0.20752 0.60003
 H1412 H 0.10131 0.24780 0.58445
 H1413 H 0.13279 0.24151 0.56721
 H1414 H 0.15168 0.22168 0.54354
 H1415 H 0.10865 0.17285 0.54756
 H1416 H 0.08974 0.19270 0.57091
 C1417 C 0.05881 0.71780 0.39475
 C1418 C 0.06978 0.72915 0.40823
 C1419 C 0.07760 0.74830 0.40328
 C1420 C 0.07455 0.75576 0.38438
 C1421 C 0.06371 0.74441 0.37082
 C1422 C 0.05556 0.72514 0.37568
 C1423 C 0.08941 0.75967 0.41790
 C1424 C 0.09122 0.78010 0.41787
 C1425 C 0.10289 0.79148 0.43259
 C1426 C 0.09770 0.81176 0.43680
 C1427 C 0.10838 0.82303 0.45056
 C1428 C 0.12469 0.81432 0.46021
 C1429 C 0.13014 0.79413 0.45572
 C1430 C 0.11937 0.78282 0.44205
 H1431 H 0.05371 0.70286 0.39925
 H1432 H 0.07220 0.72290 0.42262
 H1433 H 0.08074 0.77027 0.37985
 H1434 H 0.06127 0.75129 0.35674
 H1435 H 0.09598 0.75092 0.42961
 H1436 H 0.08300 0.78903 0.40735
 H1437 H 0.08521 0.81885 0.42956
 H1438 H 0.10387 0.83859 0.45360
 H1439 H 0.14271 0.78703 0.46280
 H1440 H 0.12420 0.76745 0.43872
 C1441 C 0.64106 0.93821 0.75269
 C1442 C 0.62873 0.92809 0.76588
 C1443 C 0.60983 0.92143 0.76029
 C1444 C 0.60330 0.92539 0.74127
 C1445 C 0.61553 0.93559 0.72808
 C1446 C 0.63470 0.94230 0.73348
 C1447 C 0.59700 0.91119 0.77481
 C1448 C 0.58268 0.89791 0.76986
 C1449 C 0.56933 0.88795 0.78408
 C1450 C 0.55994 0.86963 0.77877
 C1451 C 0.54653 0.86017 0.79132
 C1452 C 0.54203 0.86895 0.80943
 C1453 C 0.55144 0.88730 0.81480
 C1454 C 0.56493 0.89674 0.80225
 H1455 H 0.65521 0.94359 0.75805
 H1456 H 0.63398 0.92552 0.78057
 H1457 H 0.58862 0.92094 0.73653
 H1458 H 0.60993 0.93754 0.71347
 H1459 H 0.60006 0.91413 0.79001
 H1460 H 0.58101 0.89348 0.75478
 H1461 H 0.56294 0.86264 0.76481
 H1462 H 0.53948 0.84608 0.78670
 H1463 H 0.54818 0.89453 0.82859
 H1464 H 0.57141 0.91116 0.80664
 C1465 C 0.38783 0.95952 0.26427
 C1466 C 0.40081 0.94967 0.25155
 C1467 C 0.39584 0.93077 0.24333
 C1468 C 0.37727 0.92213 0.24760
 C1469 C 0.36416 0.93201 0.26019
 C1470 C 0.36921 0.95088 0.26897
 C1471 C 0.41020 0.92070 0.23018
 C1472 C 0.41125 0.90035 0.22807
 C1473 C 0.42637 0.89013 0.21590
 C1474 C 0.43226 0.87024 0.22079
 C1475 C 0.44662 0.86010 0.20985
 C1476 C 0.45521 0.86953 0.19355
 C1477 C 0.44902 0.88930 0.18837
 C1478 C 0.43475 0.89953 0.19943
 H1479 H 0.39228 0.97435 0.26972
 H1480 H 0.41489 0.95684 0.24821
 H1481 H 0.37271 0.90778 0.24115
 H1482 H 0.35041 0.92426 0.26350
 H1483 H 0.42112 0.93034 0.22316
 H1484 H 0.40163 0.89064 0.23664
 H1485 H 0.42590 0.86261 0.23330
 H1486 H 0.45095 0.84482 0.21416
 H1487 H 0.45526 0.89691 0.17580
 H1488 H 0.43013 0.91462 0.19488
 C1489 C 0.64528 0.06903 0.24429
 C1490 C 0.63277 0.08014 0.23200
 C1491 C 0.61211 0.07842 0.23370
 C1492 C 0.60414 0.06567 0.24819
 C1493 C 0.61664 0.05487 0.26071
 C1494 C 0.63731 0.05644 0.25885
 C1495 C 0.59923 0.09087 0.22096
 C1496 C 0.58149 0.08434 0.21473
 C1497 C 0.56818 0.09711 0.20272
 C1498 C 0.55551 0.08765 0.18923
 C1499 C 0.54212 0.09926 0.17833
 C1500 C 0.54080 0.12050 0.18110
 C1501 C 0.55345 0.12996 0.19466
 C1502 C 0.56708 0.11840 0.20529
 H1503 H 0.66118 0.07061 0.24272
 H1504 H 0.63922 0.09003 0.22107
 H1505 H 0.58827 0.06442 0.25017
 H1506 H 0.61019 0.04523 0.27183
 H1507 H 0.60488 0.10550 0.21605
 H1508 H 0.57676 0.06887 0.21797
 H1509 H 0.55598 0.07124 0.18715
 H1510 H 0.53244 0.09154 0.16810
 H1511 H 0.55272 0.14629 0.19713
 H1512 H 0.57630 0.12608 0.21593
 C1513 C 0.36694 0.07898 0.73189
 C1514 C 0.38060 0.09023 0.74281
 C1515 C 0.39091 0.08115 0.75828
 C1516 C 0.38725 0.06044 0.76261
 C1517 C 0.37359 0.04916 0.75165
 C1518 C 0.36340 0.05827 0.73607
 C1519 C 0.40603 0.09348 0.76870
 C1520 C 0.41230 0.08941 0.78682
 C1521 C 0.42791 0.10140 0.79701
 C1522 C 0.43751 0.09252 0.81303
 C1523 C 0.45247 0.10306 0.82295
 C1524 C 0.45814 0.12279 0.81710
 C1525 C 0.44832 0.13186 0.80128
 C1526 C 0.43330 0.12137 0.79141
 H1527 H 0.35915 0.08651 0.72014
 H1528 H 0.38317 0.10612 0.73912
 H1529 H 0.39533 0.05265 0.77399
 H1530 H 0.37148 0.03312 0.75497
 H1531 H 0.41207 0.10640 0.76090
 H1532 H 0.40613 0.07649 0.79455
 H1533 H 0.43356 0.07726 0.81778
 H1534 H 0.45969 0.09566 0.83513
 H1535 H 0.45216 0.14716 0.79657
 H1536 H 0.42588 0.12918 0.77964
 C1537 C 0.63543 0.76453 0.05854
 C1538 C 0.62174 0.77663 0.06850
 C1539 C 0.60397 0.76817 0.07540
 C1540 C 0.59985 0.74745 0.07157
 C1541 C 0.61350 0.73537 0.06154
 C1542 C 0.63151 0.74373 0.05505
 C1543 C 0.58996 0.78143 0.08617
 C1544 C 0.57737 0.77415 0.09956
 C1545 C 0.56361 0.78715 0.11090
 C1546 C 0.55655 0.77976 0.12873
 C1547 C 0.54313 0.79116 0.13971
 C1548 C 0.53628 0.81017 0.13299
 C1549 C 0.54328 0.81759 0.11509
 C1550 C 0.55678 0.80620 0.10412
 H1551 H 0.64904 0.77148 0.05342
 H1552 H 0.62515 0.79261 0.07103
 H1553 H 0.58603 0.74053 0.07610
 H1554 H 0.61007 0.71939 0.05908
 H1555 H 0.59101 0.79775 0.08379
 H1556 H 0.57779 0.75806 0.10323
 H1557 H 0.56144 0.76508 0.13421
 H1558 H 0.53798 0.78493 0.15338
 H1559 H 0.53816 0.83211 0.10945
 H1560 H 0.56142 0.81216 0.09019
 C1561 C 0.35769 0.23654 0.05778
 C1562 C 0.37071 0.22363 0.06776
 C1563 C 0.38986 0.23029 0.07269
 C1564 C 0.39595 0.24996 0.06694
 C1565 C 0.38298 0.26282 0.05692
 C1566 C 0.36366 0.25633 0.05233
 C1567 C 0.40330 0.21624 0.08326
 C1568 C 0.41777 0.22296 0.09505
 C1569 C 0.43154 0.20930 0.10567
 C1570 C 0.44103 0.21683 0.12236
 C1571 C 0.45475 0.20485 0.13242
 C1572 C 0.45947 0.18510 0.12586
 C1573 C 0.45000 0.17753 0.10911
 C1574 C 0.43618 0.18950 0.09909
 H1575 H 0.34287 0.23112 0.05456
 H1576 H 0.36573 0.20848 0.07187
 H1577 H 0.41085 0.25534 0.06980
 H1578 H 0.38823 0.27775 0.05246
 H1579 H 0.40049 0.20000 0.08197
 H1580 H 0.41919 0.23920 0.09777
 H1581 H 0.43785 0.23208 0.12764
 H1582 H 0.46183 0.21119 0.14522
 H1583 H 0.45342 0.16243 0.10361
 H1584 H 0.42961 0.18338 0.08597
 C1585 C 0.62971 0.23589 0.95730
 C1586 C 0.61618 0.22326 0.94761
 C1587 C 0.61354 0.22483 0.92741
 C1588 C 0.62537 0.23878 0.91697
 C1589 C 0.63879 0.25148 0.92668
 C1590 C 0.64094 0.25034 0.94696
 C1591 C 0.59843 0.21169 0.91784
 C1592 C 0.59004 0.21634 0.90069
 C1593 C 0.57420 0.20409 0.89116
 C1594 C 0.56382 0.21296 0.87561
 C1595 C 0.54879 0.20223 0.86605
 C1596 C 0.54374 0.18229 0.87181
 C1597 C 0.55418 0.17327 0.88726
 C1598 C 0.56933 0.18397 0.89678
 H1599 H 0.63101 0.23474 0.97295
 H1600 H 0.60742 0.21252 0.95598
 H1601 H 0.62450 0.23989 0.90132
 H1602 H 0.64761 0.26217 0.91831
 H1603 H 0.59332 0.19853 0.92592
 H1604 H 0.59415 0.23044 0.89354
 H1605 H 0.56729 0.22834 0.87086
 H1606 H 0.54106 0.20963 0.85418
 H1607 H 0.55077 0.15784 0.89190
 H1608 H 0.57723 0.17624 0.90829
 C1609 C 0.35986 0.74437 0.92353
 C1610 C 0.37309 0.75561 0.91214
 C1611 C 0.39053 0.76370 0.92024
 C1612 C 0.39453 0.76021 0.94006
 C1613 C 0.38130 0.74893 0.95145
 C1614 C 0.36385 0.74083 0.94329
 C1615 C 0.40457 0.77461 0.90730
 C1616 C 0.41851 0.78769 0.91364
 C1617 C 0.43291 0.79781 0.90050
 C1618 C 0.44178 0.81625 0.90634
 C1619 C 0.45578 0.82595 0.89450
 C1620 C 0.46133 0.81727 0.87664
 C1621 C 0.45258 0.79871 0.87088
 C1622 C 0.43861 0.78904 0.88268
 H1623 H 0.34671 0.73805 0.91674
 H1624 H 0.36975 0.75786 0.89688
 H1625 H 0.40805 0.76567 0.94677
 H1626 H 0.38473 0.74653 0.96666
 H1627 H 0.40283 0.77213 0.89184
 H1628 H 0.41909 0.79178 0.92888
 H1629 H 0.43782 0.82321 0.92009
 H1630 H 0.46232 0.84018 0.89941
 H1631 H 0.45668 0.79149 0.85730
 H1632 H 0.43269 0.77448 0.87796
 C1633 C 0.75924 0.95797 0.36957
 C1634 C 0.77174 0.94794 0.38270
 C1635 C 0.76942 0.92697 0.38637
 C1636 C 0.75488 0.91600 0.37598
 C1637 C 0.74241 0.92601 0.36286
 C1638 C 0.74428 0.94715 0.35970
 C1639 C 0.78246 0.91702 0.40093
 C1640 C 0.77676 0.90060 0.41121
 C1641 C 0.78904 0.89027 0.42620
 C1642 C 0.78280 0.87103 0.43287
 C1643 C 0.79342 0.86071 0.44724
 C1644 C 0.81057 0.86941 0.45541
 C1645 C 0.81689 0.88868 0.44881
 C1646 C 0.80623 0.89905 0.43440
 H1647 H 0.76097 0.97429 0.36753
 H1648 H 0.78295 0.95669 0.39036
 H1649 H 0.75318 0.89966 0.37776
 H1650 H 0.73136 0.91717 0.35509
 H1651 H 0.79675 0.92401 0.40352
 H1652 H 0.76216 0.89423 0.40867
 H1653 H 0.76960 0.86392 0.42693
 H1654 H 0.78811 0.84590 0.45199
 H1655 H 0.82998 0.89584 0.45490
 H1656 H 0.81141 0.91401 0.43011
 C1657 C 0.26904 0.91994 0.63081
 C1658 C 0.25824 0.90901 0.61692
 C1659 C 0.24239 0.91816 0.60699
 C1660 C 0.23756 0.93862 0.61125
 C1661 C 0.24840 0.94957 0.62514
 C1662 C 0.26435 0.94039 0.63497
 C1663 C 0.23204 0.90614 0.59176
 C1664 C 0.21356 0.91011 0.58556
 C1665 C 0.20337 0.89815 0.57013
 C1666 C 0.18708 0.90696 0.56059
 C1667 C 0.17699 0.89630 0.54598
 C1668 C 0.18295 0.87651 0.54063
 C1669 C 0.19910 0.86757 0.55032
 C1670 C 0.20913 0.87818 0.56497
 H1671 H 0.28109 0.91236 0.63829
 H1672 H 0.26232 0.89331 0.61389
 H1673 H 0.22588 0.94648 0.60351
 H1674 H 0.24469 0.96544 0.62775
 H1675 H 0.24017 0.89348 0.58562
 H1676 H 0.20548 0.92280 0.59176
 H1677 H 0.18220 0.92223 0.56437
 H1678 H 0.16455 0.90359 0.53885
 H1679 H 0.20389 0.85224 0.54672
 H1680 H 0.22109 0.87043 0.57236
 C1681 C 0.28130 0.06765 0.39458
 C1682 C 0.27074 0.07943 0.40796
 C1683 C 0.25103 0.08504 0.40425
 C1684 C 0.24216 0.07892 0.38664
 C1685 C 0.25274 0.06720 0.37323
 C1686 C 0.27241 0.06143 0.37706
 C1687 C 0.24049 0.09779 0.41871
 C1688 C 0.22069 0.09813 0.42041
 C1689 C 0.21021 0.11061 0.43512
 C1690 C 0.19140 0.10430 0.44138
 C1691 C 0.18106 0.11559 0.45530
 C1692 C 0.18924 0.13360 0.46308
 C1693 C 0.20791 0.14017 0.45650
 C1694 C 0.21828 0.12883 0.44264
 H1695 H 0.29654 0.06371 0.39779
 H1696 H 0.27798 0.08413 0.42131
 H1697 H 0.22720 0.08344 0.38296
 H1698 H 0.24548 0.06257 0.35988
 H1699 H 0.24950 0.10631 0.42893
 H1700 H 0.21174 0.08805 0.41149
 H1701 H 0.18477 0.09044 0.43566
 H1702 H 0.16666 0.11016 0.45998
 H1703 H 0.21454 0.15407 0.46209
 H1704 H 0.23245 0.13456 0.43768
 C1705 C 0.72422 0.08128 0.62810
 C1706 C 0.73476 0.09355 0.61510
 C1707 C 0.74491 0.08483 0.59937
 C1708 C 0.74384 0.06352 0.59659
 C1709 C 0.73329 0.05124 0.60961
 C1710 C 0.72347 0.05998 0.62557
 C1711 C 0.75595 0.09850 0.58602
 C1712 C 0.77097 0.09217 0.57477
 C1713 C 0.78228 0.10591 0.56169
 C1714 C 0.80123 0.09987 0.55561
 C1715 C 0.81233 0.11218 0.54308
 C1716 C 0.80465 0.13080 0.53626
 C1717 C 0.78562 0.13681 0.54221
 C1718 C 0.77449 0.12447 0.55470
 H1719 H 0.71650 0.08850 0.64006
 H1720 H 0.73511 0.10993 0.61743
 H1721 H 0.75089 0.05624 0.58431
 H1722 H 0.73302 0.03487 0.60730
 H1723 H 0.75215 0.11456 0.58639
 H1724 H 0.77597 0.07650 0.57579
 H1725 H 0.80752 0.08558 0.56062
 H1726 H 0.82692 0.10706 0.53871
 H1727 H 0.77918 0.15095 0.53703
 H1728 H 0.75970 0.12940 0.55845
 C1729 C 0.96227 0.60908 0.25479
 C1730 C 0.95300 0.59632 0.24124
 C1731 C 0.93329 0.59981 0.23561
 C1732 C 0.92320 0.61676 0.24339
 C1733 C 0.93250 0.62954 0.25691
 C1734 C 0.95208 0.62575 0.26287
 C1735 C 0.92394 0.58567 0.22144
 C1736 C 0.90430 0.58263 0.22040
 C1737 C 0.89491 0.56772 0.20699
 C1738 C 0.87619 0.55985 0.21178
 C1739 C 0.86682 0.54564 0.19969
 C1740 C 0.87591 0.53911 0.18240
 C1741 C 0.89449 0.54729 0.17738
 C1742 C 0.90389 0.56148 0.18951
 H1743 H 0.97750 0.60600 0.25883
 H1744 H 0.96118 0.58354 0.23529
 H1745 H 0.90822 0.62036 0.23896
 H1746 H 0.92426 0.64226 0.26290
 H1747 H 0.93374 0.57654 0.21255
 H1748 H 0.89466 0.59030 0.23062
 H1749 H 0.86886 0.56454 0.22505
 H1750 H 0.85246 0.53973 0.20394
 H1751 H 0.90179 0.54271 0.16407
 H1752 H 0.91801 0.56770 0.18498
 C1753 C 0.95641 0.38612 0.74685
 C1754 C 0.94725 0.39997 0.75941
 C1755 C 0.92673 0.39911 0.76262
 C1756 C 0.91557 0.38377 0.75325
 C1757 C 0.92473 0.36994 0.74067
 C1758 C 0.94525 0.37098 0.73729
 C1759 C 0.91771 0.41406 0.77620
 C1760 C 0.89841 0.41902 0.77595
 C1761 C 0.88939 0.43425 0.78923
 C1762 C 0.87131 0.44321 0.78386
 C1763 C 0.86213 0.45751 0.79592
 C1764 C 0.87077 0.46311 0.81375
 C1765 C 0.88875 0.45397 0.81929
 C1766 C 0.89794 0.43963 0.80722
 H1767 H 0.97231 0.38707 0.74485
 H1768 H 0.95624 0.41145 0.76661
 H1769 H 0.89983 0.38211 0.75577
 H1770 H 0.91572 0.35848 0.73349
 H1771 H 0.92765 0.42195 0.78603
 H1772 H 0.88884 0.41252 0.76492
 H1773 H 0.86430 0.43923 0.77018
 H1774 H 0.84825 0.46420 0.79123
 H1775 H 0.89569 0.45780 0.83303
 H1776 H 0.91150 0.43260 0.81225
 C1777 C 0.03921 0.61331 0.74373
 C1778 C 0.04928 0.59973 0.75591
 C1779 C 0.06961 0.60222 0.75963
 C1780 C 0.07960 0.61894 0.75123
 C1781 C 0.06952 0.63252 0.73906
 C1782 C 0.04923 0.62983 0.73512
 C1783 C 0.07967 0.58748 0.77271
 C1784 C 0.09927 0.58402 0.77236
 C1785 C 0.10933 0.56897 0.78511
 C1786 C 0.12772 0.56111 0.77928
 C1787 C 0.13775 0.54691 0.79082
 C1788 C 0.12967 0.54036 0.80858
 C1789 C 0.11141 0.54849 0.81461
 C1790 C 0.10136 0.56269 0.80305
 H1791 H 0.02350 0.61103 0.74125
 H1792 H 0.04117 0.58714 0.76237
 H1793 H 0.09510 0.62182 0.75419
 H1794 H 0.07768 0.64505 0.73259
 H1795 H 0.07033 0.57843 0.78217
 H1796 H 0.10834 0.59165 0.76161
 H1797 H 0.13429 0.56583 0.76564
 H1798 H 0.15183 0.54102 0.78578
 H1799 H 0.10487 0.54391 0.82830
 H1800 H 0.08756 0.56890 0.80841
 C1801 C 0.06422 0.38912 0.27752
 C1802 C 0.07561 0.40253 0.26632
 C1803 C 0.07970 0.39815 0.24677
 C1804 C 0.07249 0.37979 0.23871
 C1805 C 0.06113 0.36637 0.24992
 C1806 C 0.05682 0.37090 0.26943
 C1807 C 0.09193 0.41277 0.23547
 C1808 C 0.09111 0.41428 0.21604
 C1809 C 0.10289 0.42931 0.20478
 C1810 C 0.09587 0.43553 0.18652
 C1811 C 0.10643 0.44977 0.17547
 C1812 C 0.12439 0.45794 0.18238
 C1813 C 0.13165 0.45139 0.20050
 C1814 C 0.12105 0.43720 0.21158
 H1815 H 0.06143 0.39287 0.29260
 H1816 H 0.08118 0.41643 0.27295
 H1817 H 0.07582 0.37554 0.22388
 H1818 H 0.05559 0.35247 0.24326
 H1819 H 0.10103 0.42338 0.24364
 H1820 H 0.08057 0.40506 0.20801
 H1821 H 0.08203 0.42953 0.18086
 H1822 H 0.10047 0.45440 0.16153
 H1823 H 0.14553 0.45727 0.20615
 H1824 H 0.12729 0.43227 0.22528
   
