data_POSCAR
  _audit_creation_date              2014-09-24
  _audit_creation_method            'ToBaCCo'
  _symmetry_space_group_name_H-M    'P1'
  _symmetry_Int_Tables_number       1
  _symmetry_cell_setting            triclinic
  loop_
  _symmetry_equiv_pos_as_xyz
 x,y,z
_cell_length_a 79.7605
_cell_length_b 79.5336
_cell_length_c 79.6358
_cell_angle_alpha 90.020700
_cell_angle_beta 90.079300
_cell_angle_gamma 90.028100
loop_
  _atom_site_label
  _atom_site_type_symbol
  _atom_site_fract_x
  _atom_site_fract_y
  _atom_site_fract_z
C1 C 0.30703 0.44285 0.92200
 N2 N 0.32095 0.44985 0.92889
 C3 C 0.32779 0.44314 0.94299
 N4 N 0.32080 0.42930 0.95008
 C5 C 0.30688 0.42229 0.94320
 N6 N 0.30005 0.42901 0.92910
 C7 C 0.44271 0.82926 0.44180
 N8 N 0.42897 0.82217 0.44891
 C9 C 0.42208 0.80814 0.44206
 N10 N 0.42883 0.80132 0.42799
 C11 C 0.44257 0.80840 0.42088
 N12 N 0.44946 0.82242 0.42773
 C13 C 0.94103 0.92101 0.81010
 N14 N 0.94799 0.92789 0.82406
 C15 C 0.94111 0.94183 0.83106
 N16 N 0.92717 0.94879 0.82418
 C17 C 0.92021 0.94191 0.81021
 N18 N 0.92710 0.92797 0.80322
 C19 C 0.43984 -0.08124 0.30915
 N20 N 0.42594 -0.07416 0.30232
 C21 C 0.41913 -0.06023 0.30939
 N22 N 0.42613 -0.05347 0.32340
 C23 C 0.44002 -0.06055 0.33023
 N24 N 0.44683 -0.07448 0.32316
 C25 C 0.80849 0.30823 0.32826
 N26 N 0.82252 0.30129 0.32159
 C27 C 0.82977 0.30830 0.30786
 N28 N 0.82307 0.32235 0.30090
 C29 C 0.80903 0.32929 0.30756
 N30 N 0.80179 0.32228 0.32130
 C31 C -0.19132 0.83044 0.80844
 N32 N -0.17728 0.82354 0.80174
 C33 C -0.17052 0.80950 0.80868
 N34 N -0.17771 0.80246 0.82242
 C35 C -0.19175 0.80935 0.82912
 N36 N -0.19850 0.82339 0.82218
 C37 C 0.94299 0.32779 0.44275
 N38 N 0.94971 0.32116 0.42858
 C39 C 0.94276 0.30728 0.42150
 N40 N 0.92897 0.30015 0.42849
 C41 C 0.92225 0.30678 0.44266
 N42 N 0.92920 0.32066 0.44973
 C43 C 0.44107 0.44101 0.82904
 N44 N 0.42699 0.44786 0.82236
 C45 C 0.41974 0.44078 0.80865
 N46 N 0.42648 0.42674 0.80172
 C47 C 0.44056 0.41988 0.80840
 N48 N 0.44780 0.42697 0.82211
 C49 C 0.80974 0.92109 0.94154
 N50 N 0.82383 0.92791 0.94827
 C51 C 0.83098 0.94159 0.94103
 N52 N 0.82413 0.94833 0.92695
 C53 C 0.81005 0.94151 0.92021
 N54 N 0.80291 0.92784 0.92746
 C55 C 0.30866 0.83010 0.30818
 N56 N 0.30151 0.82303 0.32193
 C57 C 0.30833 0.80904 0.32888
 N58 N 0.32240 0.80221 0.32218
 C59 C 0.32956 0.80926 0.30843
 N60 N 0.32273 0.82326 0.30148
 C61 C 0.80660 0.42302 0.44243
 N62 N 0.82041 0.43013 0.44942
 C63 C 0.82736 0.44401 0.44237
 N64 N 0.82061 0.45065 0.42819
 C65 C 0.80680 0.44354 0.42119
 N66 N 0.79986 0.42966 0.42825
 C67 C 0.94173 0.83055 -0.05871
 N68 N 0.92805 0.82329 -0.05164
 C69 C 0.92128 0.80924 -0.05857
 N70 N 0.92808 0.80256 -0.07268
 C71 C 0.94175 0.80982 -0.07977
 N72 N 0.94852 0.82386 -0.07283
 C73 C 0.30839 0.32902 0.80841
 N74 N 0.30116 0.32195 0.82211
 C75 C 0.30790 0.30791 0.82906
 N76 N 0.32198 0.30106 0.82241
 C77 C 0.32922 0.30812 0.80871
 N78 N 0.32247 0.32216 0.80176
 C79 C 0.17061 0.55891 0.55773
 N80 N 0.17760 0.57296 0.55109
 C81 C 0.19162 0.57963 0.55810
 N82 N 0.19855 0.57235 0.57186
 C83 C 0.19156 0.55829 0.57851
 N84 N 0.17754 0.55163 0.57150
 C85 C 0.58008 0.69082 0.05815
 N86 N 0.57294 0.69805 0.07181
 C87 C 0.55890 0.69127 0.07863
 N88 N 0.55211 0.67715 0.07189
 C89 C 0.55924 0.66991 0.05823
 N90 N 0.57328 0.67670 0.05140
 C91 C 0.69258 0.19367 0.67157
 N92 N 0.69973 0.17982 0.67849
 C93 C 0.69315 0.17297 0.69263
 N94 N 0.67931 0.17985 0.69973
 C95 C 0.67215 0.19370 0.69281
 N96 N 0.67873 0.20054 0.67867
 C97 C 1.07728 0.05520 0.19416
 N98 N 1.07031 0.06915 0.20105
 C99 C 1.05636 0.07601 0.19410
 N100 N 1.04950 0.06904 0.18013
 C101 C 1.05646 0.05509 0.17323
 N102 N 1.07041 0.04824 0.18019
 C103 C 0.05730 0.17200 1.05771
 N104 N 0.05034 0.17909 1.07155
 C105 C 0.05737 0.19301 1.07849
 N106 N 0.07147 0.19971 1.07170
 C107 C 0.07843 0.19262 1.05787
 N108 N 0.07140 0.17871 1.05093
 C109 C 0.17187 0.69352 0.69303
 N110 N 0.17889 0.67964 0.70001
 C111 C 0.19267 0.67259 0.69295
 N112 N 0.19932 0.67931 0.67878
 C113 C 0.19230 0.69318 0.67178
 N114 N 0.17852 0.70023 0.67885
 C115 C 1.19305 0.17148 0.19223
 N116 N 1.19964 0.17824 0.17806
 C117 C 1.19260 0.19213 0.17112
 N118 N 1.17884 0.19915 0.17826
 C119 C 1.17224 0.19240 0.19244
 N120 N 1.17929 0.17851 0.19937
 C121 C 0.67297 1.05776 0.55637
 N122 N 0.68000 1.05070 0.57020
 C123 C 0.69383 1.05772 0.57726
 N124 N 0.70051 1.07192 0.57060
 C125 C 0.69348 1.07900 0.55678
 N126 N 0.67965 1.07197 0.54972
 C127 C 0.55689 0.55649 0.17140
 N128 N 0.57079 0.54957 0.17840
 C129 C 0.57752 0.55638 0.19252
 N130 N 0.57046 0.57023 0.19950
 C131 C 0.55657 0.57716 0.19251
 N132 N 0.54984 0.57034 0.17840
 C133 C 0.67196 0.69354 0.19223
 N134 N 0.67855 0.70039 0.17810
 C135 C 0.69238 0.69348 0.17097
 N136 N 0.69950 0.67961 0.17787
 C137 C 0.69290 0.67276 0.19200
 N138 N 0.67908 0.67967 0.19912
 C139 C 0.17207 0.05655 1.05688
 N140 N 0.17901 0.04939 1.07070
 C141 C 0.19288 0.05626 1.07781
 N142 N 0.19969 0.07043 1.07122
 C143 C 0.19276 0.07761 1.05741
 N144 N 0.17889 0.07073 1.05029
 C145 C 0.57850 0.19303 0.55715
 N146 N 0.57149 0.20008 0.57098
 C147 C 0.55733 0.19340 0.57765
 N148 N 0.55030 0.17954 0.57061
 C149 C 0.55730 0.17250 0.55678
 N150 N 0.57146 0.17918 0.55011
 C151 C 0.07706 0.55700 0.69302
 N152 N 0.07003 0.57087 0.70001
 C153 C 0.05625 0.57792 0.69291
 N154 N 0.04963 0.57123 0.67869
 C155 C 0.05666 0.55737 0.67169
 N156 N 0.07043 0.55031 0.67881
 C157 C 0.67035 0.55873 0.05689
 N158 N 0.67717 0.57280 0.05010
 C159 C 0.69122 0.57961 0.05692
 N160 N 0.69834 0.57244 0.07065
 C161 C 0.69153 0.55836 0.07744
 N162 N 0.67748 0.55157 0.07061
 C163 C 0.05871 0.69269 0.57916
 N164 N 0.07273 0.69952 0.57234
 C165 C 0.07986 0.69235 0.55863
 N166 N 0.07306 0.67825 0.55184
 C167 C 0.05905 0.67142 0.55866
 N168 N 0.05192 0.67858 0.57237
 C169 C 0.55623 1.05513 0.67245
 N170 N 0.57022 1.04833 0.67941
 C171 C 0.57703 1.05529 0.69340
 N172 N 0.56999 1.06918 0.70032
 C173 C 0.55601 1.07599 0.69338
 N174 N 0.54919 1.06902 0.67938
 C175 C 0.44304 0.32711 0.94314
 N176 N 0.42919 0.32009 0.95012
 C177 C 0.42222 0.30618 0.94313
 N178 N 0.42897 0.29941 0.92903
 C179 C 0.44282 0.30642 0.92205
 N180 N 0.44979 0.32033 0.92905
 C181 C 0.94165 0.44147 0.32909
 N182 N 0.94849 0.42745 0.32223
 C183 C 0.94137 0.42030 0.30848
 N184 N 0.92730 0.42710 0.30169
 C185 C 0.92045 0.44112 0.30855
 N186 N 0.92758 0.44825 0.32230
 C187 C 0.30991 0.94223 0.42018
 N188 N 0.30275 0.92860 0.42750
 C189 C 0.30958 0.92192 0.44161
 N190 N 0.32368 0.92875 0.44830
 C191 C 0.33084 0.94238 0.44099
 N192 N 0.32401 0.94907 0.42688
 O193 O 0.24802 0.54466 0.72856
 O194 O 0.27732 0.53885 0.73106
 O195 O 0.22790 0.50068 0.70549
 O196 O 0.22745 0.47286 0.71042
 O197 O 0.20445 0.52142 0.74949
 O198 O 0.21070 0.52018 0.77876
 O199 O 0.27124 0.45600 0.75111
 O200 O 0.26782 0.46081 0.72243
 O201 O 0.29294 0.49863 0.77219
 O202 O 0.28856 0.52751 0.76964
 O203 O 0.25054 0.47828 0.79419
 O204 O 0.22043 0.47906 0.78836
 O205 O 0.25114 0.45595 0.77144
 O206 O 0.22005 0.46194 0.76973
 O207 O 0.27057 0.49869 0.79437
 O208 O 0.26835 0.52971 0.78776
 O209 O 0.29289 0.47813 0.75221
 O210 O 0.28773 0.48356 0.72188
 O211 O 0.22813 0.54480 0.74912
 O212 O 0.22975 0.53846 0.77895
 O213 O 0.20430 0.50115 0.72927
 O214 O 0.21116 0.47078 0.73189
 O215 O 0.24749 0.52158 0.70557
 O216 O 0.27766 0.51607 0.71195
 Zr217 Zr 0.25824 0.52027 0.72972
 O218 O 0.27426 0.50567 0.74487
 Zr219 Zr 0.22860 0.49076 0.73001
 O220 O 0.24374 0.47470 0.74458
 Zr221 Zr 0.22888 0.52040 0.75947
 O222 O 0.24356 0.50543 0.77558
 Zr223 Zr 0.26921 0.48013 0.74068
 O224 O 0.25409 0.49464 0.72430
 Zr225 Zr 0.26903 0.50957 0.77034
 O226 O 0.25436 0.52590 0.75533
 Zr227 Zr 0.23971 0.47984 0.77013
 O228 O 0.22321 0.49482 0.75557
 O229 O 0.23287 0.51613 0.73411
 O230 O 0.26512 0.48404 0.76620
 C231 C 0.23648 0.55181 0.73723
 C232 C 0.23602 0.51273 0.69847
 C233 C 0.19730 0.51290 0.73781
 C234 C 0.26315 0.44907 0.76319
 C235 C 0.29978 0.48641 0.76421
 C236 C 0.26245 0.48657 0.80121
 H237 H 0.28607 0.50847 0.74231
 H238 H 0.24076 0.50811 0.78736
 H239 H 0.22564 0.52329 0.72697
 H240 H 0.24126 0.46286 0.74173
 H241 H 0.26437 0.46624 0.71178
 H242 H 0.23593 0.46417 0.71299
 H243 H 0.25916 0.52751 0.79580
 H244 H 0.24061 0.54440 0.77784
 H245 H 0.29550 0.47383 0.72236
 H246 H 0.27668 0.52439 0.70274
 H247 H 0.22106 0.48959 0.79495
 H248 H 0.20549 0.50889 0.77852
 H249 H 0.27661 0.54613 0.72097
 H250 H 0.28510 0.53613 0.76139
 H251 H 0.20461 0.47271 0.74226
 H252 H 0.22216 0.45411 0.76031
 O253 O 0.20498 0.02150 0.24849
 O254 O 0.21097 0.01916 0.27781
 O255 O 0.24872 0.04457 0.22808
 O256 O 0.27644 0.03964 0.22745
 O257 O 0.22790 0.00035 0.20481
 O258 O 0.22920 -0.02891 0.21117
 O259 O 0.29354 -0.00092 0.27144
 O260 O 0.28875 0.02782 0.26787
 O261 O 0.25124 -0.02188 0.29341
 O262 O 0.22240 -0.01940 0.28914
 O263 O 0.27129 -0.04409 0.25091
 O264 O 0.27026 -0.03841 0.22073
 O265 O 0.29348 -0.02136 0.25136
 O266 O 0.28734 -0.01973 0.22021
 O267 O 0.25112 -0.04419 0.27111
 O268 O 0.22012 -0.03768 0.26897
 O269 O 0.27164 -0.00183 0.29319
 O270 O 0.26619 0.02850 0.28793
 O271 O 0.20473 0.00080 0.22865
 O272 O 0.21110 -0.02903 0.23032
 O273 O 0.24808 0.02062 0.20450
 O274 O 0.27843 0.01806 0.21124
 O275 O 0.22800 0.04457 0.24778
 O276 O 0.23366 0.03832 0.27799
 Zr277 Zr 0.22938 0.02043 0.25860
 O278 O 0.24406 0.00536 0.27463
 Zr279 Zr 0.25861 0.02002 0.22878
 O280 O 0.27475 0.00553 0.24392
 Zr281 Zr 0.22908 -0.00951 0.22931
 O282 O 0.24413 -0.02555 0.24399
 Zr283 Zr 0.26949 0.00956 0.26944
 O284 O 0.25490 0.02586 0.25431
 Zr285 Zr 0.24016 -0.02018 0.26950
 O286 O 0.22377 -0.00524 0.25484
 Zr287 Zr 0.26961 -0.02008 0.23998
 O288 O 0.25454 -0.00560 0.22349
 O289 O 0.23334 0.01592 0.23319
 O290 O 0.26558 -0.01601 0.26544
 C291 C 0.19778 0.01274 0.23700
 C292 C 0.23676 0.05163 0.23625
 C293 C 0.23634 0.01202 0.19757
 C294 C 0.30040 -0.01307 0.26337
 C295 C 0.26346 -0.01383 0.30018
 C296 C 0.26316 -0.05105 0.26294
 H297 H 0.24134 0.00799 0.28647
 H298 H 0.24145 -0.03736 0.24125
 H299 H 0.22615 0.02302 0.22597
 H300 H 0.28654 0.00838 0.24137
 H301 H 0.28331 0.03847 0.26442
 H302 H 0.28515 0.03715 0.23593
 H303 H 0.22231 -0.04580 0.25982
 H304 H 0.20529 -0.02791 0.24124
 H305 H 0.27595 0.02808 0.29565
 H306 H 0.22535 0.04753 0.27702
 H307 H 0.25980 -0.04505 0.22147
 H308 H 0.24043 -0.02869 0.20589
 H309 H 0.20369 0.02924 0.27709
 H310 H 0.21376 -0.01119 0.28567
 H311 H 0.27646 0.00764 0.20471
 H312 H 0.29519 -0.01033 0.22231
 O313 O 0.50088 0.70502 0.22793
 O314 O 0.47157 0.71080 0.23041
 O315 O 0.52091 0.74899 0.20485
 O316 O 0.52128 0.77682 0.20974
 O317 O 0.54448 0.72835 0.24884
 O318 O 0.53831 0.72961 0.27811
 O319 O 0.47757 0.79365 0.25049
 O320 O 0.48095 0.78885 0.22177
 O321 O 0.45603 0.75107 0.27156
 O322 O 0.46043 0.72217 0.26900
 O323 O 0.49847 0.77148 0.29352
 O324 O 0.52858 0.77071 0.28767
 O325 O 0.49774 0.79375 0.27081
 O326 O 0.52885 0.78785 0.26904
 O327 O 0.47845 0.75106 0.29371
 O328 O 0.48071 0.72002 0.28713
 O329 O 0.45599 0.77153 0.25156
 O330 O 0.46106 0.76607 0.22123
 O331 O 0.52083 0.70493 0.24849
 O332 O 0.51929 0.71130 0.27830
 O333 O 0.54454 0.74861 0.22863
 O334 O 0.53763 0.77898 0.23122
 O335 O 0.50135 0.72806 0.20493
 O336 O 0.47118 0.73356 0.21129
 Zr337 Zr 0.49064 0.72940 0.22907
 O338 O 0.47464 0.74399 0.24422
 Zr339 Zr 0.52023 0.75895 0.22935
 O340 O 0.50511 0.77502 0.24392
 Zr341 Zr 0.52008 0.72934 0.25882
 O342 O 0.50543 0.74432 0.27493
 Zr343 Zr 0.47964 0.76954 0.24002
 O344 O 0.49473 0.75503 0.22364
 Zr345 Zr 0.47995 0.74013 0.26970
 O346 O 0.49459 0.72380 0.25469
 Zr347 Zr 0.50923 0.76990 0.26946
 O348 O 0.52570 0.75492 0.25491
 O349 O 0.51601 0.73359 0.23346
 O350 O 0.48382 0.76565 0.26554
 C351 C 0.51246 0.69790 0.23660
 C352 C 0.51281 0.73690 0.19784
 C353 C 0.55159 0.73688 0.23716
 C354 C 0.48566 0.80059 0.26259
 C355 C 0.44915 0.76327 0.26358
 C356 C 0.48658 0.76320 0.30053
 H357 H 0.46282 0.74118 0.24166
 H358 H 0.50826 0.74165 0.28671
 H359 H 0.52323 0.72643 0.22634
 H360 H 0.50756 0.78686 0.24107
 H361 H 0.48436 0.78341 0.21112
 H362 H 0.51281 0.78552 0.21232
 H363 H 0.48990 0.72226 0.29517
 H364 H 0.50844 0.70536 0.27721
 H365 H 0.45329 0.77579 0.22170
 H366 H 0.47215 0.72523 0.20208
 H367 H 0.52795 0.76022 0.29429
 H368 H 0.54351 0.74091 0.27787
 H369 H 0.47228 0.70351 0.22032
 H370 H 0.46389 0.71354 0.26076
 H371 H 0.54421 0.77708 0.24160
 H372 H 0.52666 0.79569 0.25965
 O373 O 0.04458 0.72876 0.74951
 O374 O 0.03876 0.73130 0.77886
 O375 O 0.00067 0.70573 0.72934
 O376 O -0.02704 0.71075 0.72872
 O377 O 0.02155 0.74976 0.70584
 O378 O 0.02030 0.77907 0.71205
 O379 O -0.04383 0.75151 0.77255
 O380 O -0.03907 0.72276 0.76918
 O381 O -0.00130 0.77252 0.79438
 O382 O 0.02750 0.76994 0.79005
 O383 O -0.02156 0.79455 0.75189
 O384 O -0.02067 0.78878 0.72171
 O385 O -0.04382 0.77183 0.75236
 O386 O -0.03775 0.77011 0.72124
 O387 O -0.00125 0.79470 0.77200
 O388 O 0.02972 0.78809 0.76978
 O389 O -0.02180 0.75259 0.79429
 O390 O -0.01643 0.72219 0.78919
 O391 O 0.04478 0.74938 0.72960
 O392 O 0.03850 0.77925 0.73119
 O393 O 0.00132 0.72952 0.70566
 O394 O -0.02901 0.73226 0.71243
 O395 O 0.02150 0.70577 0.74899
 O396 O 0.01602 0.71219 0.77918
 Zr397 Zr 0.02025 0.72996 0.75971
 O398 O 0.00569 0.74516 0.77571
 Zr399 Zr -0.00913 0.73031 0.72995
 O400 O -0.02515 0.74492 0.74507
 Zr401 Zr 0.02047 0.75977 0.73029
 O402 O 0.00554 0.77592 0.74493
 Zr403 Zr -0.01978 0.74101 0.77060
 O404 O -0.00531 0.72459 0.75550
 Zr405 Zr 0.00963 0.77066 0.77045
 O406 O 0.02592 0.75560 0.75582
 Zr407 Zr -0.01997 0.77049 0.74101
 O408 O -0.00503 0.75590 0.72454
 O409 O 0.01616 0.73437 0.73429
 O410 O -0.01582 0.76655 0.76647
 C411 C 0.05174 0.73744 0.73796
 C412 C 0.01266 0.69867 0.73750
 C413 C 0.01308 0.73805 0.69868
 C414 C -0.05071 0.76360 0.76440
 C415 C -0.01352 0.76458 0.80120
 C416 C -0.01334 0.80154 0.76386
 H417 H 0.00846 0.74259 0.78755
 H418 H 0.00824 0.78772 0.74214
 H419 H 0.02330 0.72721 0.72709
 H420 H -0.03695 0.74208 0.74255
 H421 H -0.03367 0.71210 0.76575
 H422 H -0.03566 0.71328 0.73725
 H423 H 0.02749 0.79620 0.76063
 H424 H 0.04439 0.77814 0.74208
 H425 H -0.02613 0.72269 0.79694
 H426 H 0.02432 0.70296 0.77824
 H427 H -0.01018 0.79538 0.72240
 H428 H 0.00904 0.77884 0.70680
 H429 H 0.04602 0.72119 0.77816
 H430 H 0.03610 0.76168 0.78659
 H431 H -0.02701 0.74260 0.70581
 H432 H -0.04558 0.76070 0.72334
 O433 O 0.00148 0.04491 0.02270
 O434 O -0.02784 0.03912 0.02011
 O435 O 0.02151 0.00076 0.04546
 O436 O 0.02205 -0.02700 0.04031
 O437 O 0.04500 0.02181 0.00154
 O438 O 0.03872 0.02077 -0.02771
 O439 O -0.02180 -0.04364 -0.00048
 O440 O -0.01840 -0.03898 0.02826
 O441 O -0.04350 -0.00090 -0.02127
 O442 O -0.03911 0.02798 -0.01852
 O443 O -0.00116 -0.02115 -0.04335
 O444 O 0.02900 -0.02029 -0.03757
 O445 O -0.00167 -0.04356 -0.02078
 O446 O 0.02941 -0.03753 -0.01904
 O447 O -0.02118 -0.00075 -0.04340
 O448 O -0.01887 0.03027 -0.03665
 O449 O -0.04344 -0.02154 -0.00146
 O450 O -0.03832 -0.01626 0.02893
 O451 O 0.02134 0.04518 0.00211
 O452 O 0.01967 0.03902 -0.02776
 O453 O 0.04515 0.00146 0.02166
 O454 O 0.03827 -0.02893 0.01883
 O455 O 0.00193 0.02165 0.04553
 O456 O -0.02823 0.01623 0.03907
 Zr457 Zr -0.00878 0.02053 0.02136
 O458 O -0.02481 0.00600 0.00611
 Zr459 Zr 0.02085 -0.00896 0.02086
 O460 O 0.00570 -0.02495 0.00619
 Zr461 Zr 0.02056 0.02085 -0.00840
 O462 O 0.00588 0.00595 -0.02461
 Zr463 Zr -0.01977 -0.01957 0.01013
 O464 O -0.00464 -0.00513 0.02659
 Zr465 Zr -0.01958 0.01005 -0.01934
 O466 O -0.00491 0.02631 -0.00422
 Zr467 Zr 0.00974 -0.01966 -0.01932
 O468 O 0.02623 -0.00474 -0.00467
 O469 O 0.01659 0.01643 0.01694
 O470 O -0.01567 -0.01549 -0.01536
 C471 C 0.01302 0.05212 0.01406
 C472 C 0.01337 0.01274 0.05258
 C473 C 0.05216 0.01324 0.01317
 C474 C -0.01370 -0.05049 -0.01259
 C475 C -0.05033 -0.01320 -0.01340
 C476 C -0.01310 -0.01287 -0.05029
 H477 H -0.03663 0.00877 0.00869
 H478 H 0.00867 0.00870 -0.03638
 H479 H 0.02382 0.02354 0.02413
 H480 H 0.00818 -0.03681 0.00897
 H481 H -0.01496 -0.03360 0.03894
 H482 H 0.01349 -0.03561 0.03776
 H483 H -0.00974 0.02807 -0.04474
 H484 H 0.00882 0.04494 -0.02661
 H485 H -0.04608 -0.02599 0.02838
 H486 H -0.02726 0.02451 0.04833
 H487 H 0.02828 -0.00978 -0.04416
 H488 H 0.04390 0.00946 -0.02759
 H489 H -0.02712 0.04635 0.03024
 H490 H -0.03562 0.03657 -0.01024
 H491 H 0.04485 -0.02691 0.00850
 H492 H 0.02730 -0.04541 -0.00967
 O493 O -0.04494 0.49968 0.47771
 O494 O -0.03902 0.52905 0.48013
 O495 O -0.00123 0.47932 0.45467
 O496 O 0.02654 0.47890 0.45955
 O497 O -0.02185 0.45591 0.49870
 O498 O -0.02057 0.46220 0.52795
 O499 O 0.04361 0.52272 0.50020
 O500 O 0.03872 0.51933 0.47152
 O501 O 0.00123 0.54460 0.52130
 O502 O -0.02759 0.54031 0.51873
 O503 O 0.02138 0.50202 0.54332
 O504 O 0.02049 0.47183 0.53751
 O505 O 0.04362 0.50257 0.52056
 O506 O 0.03754 0.47142 0.51889
 O507 O 0.00109 0.52214 0.54349
 O508 O -0.02986 0.52003 0.53686
 O509 O 0.02163 0.54450 0.50132
 O510 O 0.01612 0.53938 0.47100
 O511 O -0.04510 0.47973 0.49829
 O512 O -0.03872 0.48135 0.52810
 O513 O -0.00166 0.45571 0.47849
 O514 O 0.02864 0.46254 0.48104
 O515 O -0.02199 0.49903 0.45471
 O516 O -0.01633 0.52929 0.46103
 Zr517 Zr -0.02057 0.50985 0.47883
 O518 O -0.00593 0.52588 0.49397
 Zr519 Zr 0.00875 0.48006 0.47916
 O520 O 0.02485 0.49521 0.49372
 Zr521 Zr -0.02075 0.48042 0.50863
 O522 O -0.00574 0.49510 0.52472
 Zr523 Zr 0.01951 0.52076 0.48979
 O524 O 0.00496 0.50563 0.47343
 Zr525 Zr -0.00979 0.52065 0.51946
 O526 O -0.02615 0.50599 0.50446
 Zr527 Zr 0.01976 0.49117 0.51927
 O528 O 0.00473 0.47467 0.50473
 O529 O -0.01652 0.48440 0.48326
 O530 O 0.01564 0.51667 0.51532
 C531 C -0.05209 0.48812 0.48639
 C532 C -0.01325 0.48747 0.44764
 C533 C -0.01338 0.44871 0.48704
 C534 C 0.05052 0.51458 0.51228
 C535 C 0.01343 0.55142 0.51333
 C536 C 0.01315 0.51396 0.55034
 H537 H -0.00868 0.53774 0.49140
 H538 H -0.00841 0.49230 0.53650
 H539 H -0.02370 0.47716 0.47615
 H540 H 0.03664 0.49269 0.49086
 H541 H 0.03327 0.51590 0.46088
 H542 H 0.03525 0.48737 0.46212
 H543 H -0.02769 0.51080 0.54489
 H544 H -0.04462 0.49224 0.52698
 H545 H 0.02585 0.54713 0.47146
 H546 H -0.02463 0.52832 0.45181
 H547 H 0.01002 0.47250 0.54411
 H548 H -0.00932 0.45694 0.52772
 H549 H -0.04629 0.52834 0.47004
 H550 H -0.03619 0.53688 0.51046
 H551 H 0.02673 0.45599 0.49143
 H552 H 0.04533 0.47351 0.50947
 O553 O 0.54544 0.02148 0.50092
 O554 O 0.53962 0.01887 0.47158
 O555 O 0.50158 0.04449 0.52099
 O556 O 0.47387 0.03947 0.52155
 O557 O 0.52237 0.00044 0.54461
 O558 O 0.52123 -0.02884 0.53836
 O559 O 0.45700 -0.00129 0.47776
 O560 O 0.46182 0.02744 0.48108
 O561 O 0.49944 -0.02243 0.45604
 O562 O 0.52827 -0.01976 0.46037
 O563 O 0.47928 -0.04437 0.49850
 O564 O 0.48017 -0.03854 0.52867
 O565 O 0.45701 -0.02164 0.49793
 O566 O 0.46309 -0.01990 0.52906
 O567 O 0.49961 -0.04455 0.47847
 O568 O 0.53055 -0.03789 0.48068
 O569 O 0.47897 -0.00247 0.45608
 O570 O 0.48444 0.02793 0.46110
 O571 O 0.54566 0.00091 0.52088
 O572 O 0.53939 -0.02898 0.51927
 O573 O 0.50216 0.02067 0.54472
 O574 O 0.47186 0.01800 0.53785
 O575 O 0.52237 0.04444 0.50135
 O576 O 0.51687 0.03796 0.47116
 Zr577 Zr 0.52111 0.02023 0.49068
 O578 O 0.50653 0.00501 0.47467
 Zr579 Zr 0.49176 0.01990 0.52038
 O580 O 0.47571 0.00528 0.50525
 Zr581 Zr 0.52135 -0.00953 0.52014
 O582 O 0.50638 -0.02570 0.50548
 Zr583 Zr 0.48107 0.00917 0.47973
 O584 O 0.49556 0.02560 0.49484
 Zr585 Zr 0.51045 -0.02048 0.47996
 O586 O 0.52676 -0.00541 0.49460
 Zr587 Zr 0.48087 -0.02029 0.50935
 O588 O 0.49585 -0.00567 0.52582
 O589 O 0.51704 0.01586 0.51610
 O590 O 0.48501 -0.01637 0.48389
 C591 C 0.55261 0.01284 0.51251
 C592 C 0.51355 0.05154 0.51281
 C593 C 0.51387 0.01211 0.55176
 C594 C 0.45011 -0.01338 0.48589
 C595 C 0.48720 -0.01450 0.44921
 C596 C 0.48752 -0.05139 0.48659
 H597 H 0.50928 0.00756 0.46282
 H598 H 0.50908 -0.03750 0.50830
 H599 H 0.52417 0.02303 0.52333
 H600 H 0.46391 0.00812 0.50774
 H601 H 0.46726 0.03811 0.48448
 H602 H 0.46526 0.03695 0.51298
 H603 H 0.52838 -0.04593 0.48989
 H604 H 0.54529 -0.02785 0.50840
 H605 H 0.47472 0.02742 0.45333
 H606 H 0.52517 0.04720 0.47210
 H607 H 0.49063 -0.04517 0.52799
 H608 H 0.50995 -0.02869 0.54354
 H609 H 0.54686 0.02899 0.47226
 H610 H 0.53689 -0.01150 0.46383
 H611 H 0.47381 0.00764 0.54444
 H612 H 0.45526 -0.01049 0.52693
 O613 O 0.45488 0.49808 -0.02213
 O614 O 0.46073 0.52746 -0.01964
 O615 O 0.49862 0.47787 -0.04525
 O616 O 0.52638 0.47741 -0.04037
 O617 O 0.47805 0.45434 -0.00123
 O618 O 0.47937 0.46058 0.02803
 O619 O 0.54340 0.52126 0.00028
 O620 O 0.53850 0.51787 -0.02839
 O621 O 0.50103 0.54303 0.02146
 O622 O 0.47221 0.53870 0.01892
 O623 O 0.52128 0.50047 0.04341
 O624 O 0.52046 0.47031 0.03758
 O625 O 0.54348 0.50110 0.02063
 O626 O 0.53744 0.46991 0.01890
 O627 O 0.50095 0.52056 0.04362
 O628 O 0.47001 0.51840 0.03704
 O629 O 0.52140 0.54298 0.00144
 O630 O 0.51586 0.53787 -0.02889
 O631 O 0.45477 0.47811 -0.00158
 O632 O 0.46119 0.47971 0.02824
 O633 O 0.49820 0.45419 -0.02147
 O634 O 0.52851 0.46106 -0.01890
 O635 O 0.47782 0.49754 -0.04515
 O636 O 0.48340 0.52779 -0.03878
 Zr637 Zr 0.47923 0.50830 -0.02101
 O638 O 0.49386 0.52434 -0.00588
 Zr639 Zr 0.50860 0.47855 -0.02075
 O640 O 0.52469 0.49371 -0.00621
 Zr641 Zr 0.47913 0.47883 0.00875
 O642 O 0.49415 0.49352 0.02483
 Zr643 Zr 0.51931 0.51926 -0.01010
 O644 O 0.50475 0.50412 -0.02646
 Zr645 Zr 0.49004 0.51907 0.01960
 O646 O 0.47368 0.50440 0.00462
 Zr647 Zr 0.51964 0.48964 0.01935
 O648 O 0.50462 0.47313 0.00481
 O649 O 0.48332 0.48285 -0.01662
 O650 O 0.51548 0.51514 0.01543
 C651 C 0.44776 0.48649 -0.01346
 C652 C 0.48659 0.48602 -0.05225
 C653 C 0.48650 0.44717 -0.01292
 C654 C 0.55034 0.51315 0.01236
 C655 C 0.51321 0.54989 0.01346
 C656 C 0.51304 0.51239 0.05045
 H657 H 0.49108 0.53620 -0.00843
 H658 H 0.49150 0.49070 0.03661
 H659 H 0.47615 0.47561 -0.02374
 H660 H 0.53649 0.49122 -0.00908
 H661 H 0.53303 0.51444 -0.03903
 H662 H 0.53507 0.48591 -0.03782
 H663 H 0.47219 0.50915 0.04505
 H664 H 0.45527 0.49059 0.02714
 H665 H 0.52558 0.54564 -0.02843
 H666 H 0.47507 0.52682 -0.04798
 H667 H 0.50996 0.47090 0.04415
 H668 H 0.49062 0.45533 0.02778
 H669 H 0.45345 0.52676 -0.02972
 H670 H 0.46358 0.53524 0.01068
 H671 H 0.52661 0.45448 -0.00853
 H672 H 0.54525 0.47206 0.00951
 O673 O 0.75120 0.27198 0.45498
 O674 O 0.72187 0.26940 0.46069
 O675 O 0.77120 0.29516 0.49887
 O676 O 0.77173 0.29028 0.52664
 O677 O 0.79471 0.25096 0.47831
 O678 O 0.78843 0.22169 0.47959
 O679 O 0.72792 0.24967 0.54357
 O680 O 0.73130 0.27834 0.53866
 O681 O 0.70619 0.22845 0.50099
 O682 O 0.71060 0.23081 0.47218
 O683 O 0.74860 0.20643 0.52149
 O684 O 0.77869 0.21221 0.52073
 O685 O 0.74805 0.22932 0.54372
 O686 O 0.77913 0.23096 0.53771
 O687 O 0.72859 0.20619 0.50108
 O688 O 0.73083 0.21269 0.47007
 O689 O 0.70624 0.24851 0.52140
 O690 O 0.71141 0.27884 0.51591
 O691 O 0.77108 0.25136 0.45492
 O692 O 0.76936 0.22149 0.46131
 O693 O 0.79484 0.27131 0.49845
 O694 O 0.78797 0.26879 0.52880
 O695 O 0.75161 0.29503 0.47798
 O696 O 0.72145 0.28862 0.48338
 Zr697 Zr 0.74092 0.27084 0.47931
 O698 O 0.72490 0.25573 0.49392
 Zr699 Zr 0.77055 0.27062 0.50881
 O700 O 0.75540 0.25610 0.52489
 Zr701 Zr 0.77026 0.24103 0.47930
 O702 O 0.75560 0.22496 0.49431
 Zr703 Zr 0.72993 0.26001 0.51942
 O704 O 0.74505 0.27634 0.50489
 Zr705 Zr 0.73013 0.23020 0.49012
 O706 O 0.74479 0.24517 0.47377
 Zr707 Zr 0.75944 0.23050 0.51985
 O708 O 0.77593 0.24502 0.50485
 O709 O 0.76628 0.26645 0.48349
 O710 O 0.73402 0.23443 0.51561
 C711 C 0.76277 0.26329 0.44789
 C712 C 0.76306 0.30217 0.48682
 C713 C 0.80185 0.26269 0.48677
 C714 C 0.73604 0.23763 0.55056
 C715 C 0.69933 0.23651 0.51314
 C716 C 0.73671 0.19938 0.51322
 H717 H 0.71308 0.25830 0.49109
 H718 H 0.75840 0.21315 0.49167
 H719 H 0.77352 0.27358 0.47635
 H720 H 0.75789 0.25901 0.53670
 H721 H 0.73475 0.28898 0.53321
 H722 H 0.76319 0.28780 0.53527
 H723 H 0.74001 0.20465 0.47232
 H724 H 0.75853 0.22263 0.45534
 H725 H 0.70364 0.27841 0.52561
 H726 H 0.72242 0.29781 0.47503
 H727 H 0.77808 0.20560 0.51022
 H728 H 0.79363 0.22193 0.49088
 H729 H 0.72259 0.27948 0.45339
 H730 H 0.71403 0.23909 0.46357
 H731 H 0.79455 0.25841 0.52689
 H732 H 0.77702 0.24041 0.54550
 O733 O 0.75131 0.77284 -0.04514
 O734 O 0.72198 0.77036 -0.03939
 O735 O 0.77146 0.79568 -0.00114
 O736 O 0.77185 0.79066 0.02665
 O737 O 0.79480 0.75165 -0.02198
 O738 O 0.78850 0.72236 -0.02084
 O739 O 0.72806 0.75002 0.04332
 O740 O 0.73144 0.77874 0.03856
 O741 O 0.70629 0.72904 0.00063
 O742 O 0.71066 0.73173 -0.02820
 O743 O 0.74858 0.70689 0.02095
 O744 O 0.77871 0.71258 0.02019
 O745 O 0.74813 0.72961 0.04333
 O746 O 0.77921 0.73122 0.03731
 O747 O 0.72860 0.70682 0.00051
 O748 O 0.73087 0.71354 -0.03046
 O749 O 0.70638 0.74893 0.02121
 O750 O 0.71151 0.77933 0.01585
 O751 O 0.77116 0.75220 -0.04533
 O752 O 0.76943 0.72229 -0.03912
 O753 O 0.79498 0.77184 -0.00167
 O754 O 0.78812 0.76911 0.02866
 O755 O 0.75187 0.79574 -0.02203
 O756 O 0.72167 0.78943 -0.01657
 Zr757 Zr 0.74106 0.77160 -0.02080
 O758 O 0.72501 0.75641 -0.00630
 Zr759 Zr 0.77069 0.77111 0.00870
 O760 O 0.75551 0.75651 0.02467
 Zr761 Zr 0.77036 0.74172 -0.02101
 O762 O 0.75565 0.72558 -0.00612
 Zr763 Zr 0.73005 0.76049 0.01924
 O764 O 0.74521 0.77691 0.00481
 Zr765 Zr 0.73020 0.73090 -0.01028
 O766 O 0.74489 0.74596 -0.02653
 Zr767 Zr 0.75951 0.73093 0.01945
 O768 O 0.77603 0.74552 0.00455
 O769 O 0.76641 0.76711 -0.01665
 O770 O 0.73411 0.73495 0.01524
 C771 C 0.76287 0.76418 -0.05228
 C772 C 0.76339 0.80277 -0.01318
 C773 C 0.80196 0.76333 -0.01345
 C774 C 0.73615 0.73791 0.05023
 C775 C 0.69948 0.73696 0.01289
 C776 C 0.73666 0.69993 0.01263
 H777 H 0.71319 0.75901 -0.00909
 H778 H 0.75842 0.71378 -0.00884
 H779 H 0.77365 0.77425 -0.02376
 H780 H 0.75801 0.75932 0.03651
 H781 H 0.73490 0.78940 0.03315
 H782 H 0.76336 0.78808 0.03530
 H783 H 0.74002 0.70545 -0.02826
 H784 H 0.75860 0.72349 -0.04509
 H785 H 0.70375 0.77882 0.02555
 H786 H 0.72267 0.79867 -0.02485
 H787 H 0.77807 0.70604 0.00965
 H788 H 0.79371 0.72254 -0.00955
 H789 H 0.72272 0.78048 -0.04663
 H790 H 0.71415 0.73999 -0.03680
 H791 H 0.79469 0.75874 0.02668
 H792 H 0.77714 0.74064 0.04515
 O793 O 1.04501 0.22770 0.24894
 O794 O 1.03922 0.23027 0.27828
 O795 O 1.00114 0.20455 0.22884
 O796 O 0.97343 0.20952 0.22819
 O797 O 1.02188 0.24866 0.20527
 O798 O 1.02061 0.27796 0.21150
 O799 O 0.95657 0.25028 0.27204
 O800 O 0.96136 0.22155 0.26866
 O801 O 0.99909 0.27134 0.29385
 O802 O 1.02788 0.26890 0.28947
 O803 O 0.97873 0.29336 0.25131
 O804 O 0.97961 0.28755 0.22115
 O805 O 0.95652 0.27058 0.25183
 O806 O 0.96256 0.26885 0.22071
 O807 O 0.99903 0.29356 0.27143
 O808 O 1.03002 0.28703 0.26920
 O809 O 0.97865 0.25134 0.29378
 O810 O 0.98404 0.22098 0.28863
 O811 O 1.04516 0.24831 0.22902
 O812 O 1.03882 0.27816 0.23061
 O813 O 1.00171 0.22837 0.20511
 O814 O 0.97139 0.23101 0.21191
 O815 O 1.02197 0.20466 0.24849
 O816 O 1.01653 0.21111 0.27866
 Zr817 Zr 1.02069 0.22887 0.25916
 O818 O 1.00610 0.24403 0.27515
 Zr819 Zr 0.99130 0.22912 0.22942
 O820 O 0.97525 0.24370 0.24454
 Zr821 Zr 1.02083 0.25865 0.22972
 O822 O 1.00586 0.27477 0.24437
 Zr823 Zr 0.98063 0.23982 0.27006
 O824 O 0.99514 0.22343 0.25497
 Zr825 Zr 1.00998 0.26954 0.26989
 O826 O 1.02629 0.25452 0.25526
 Zr827 Zr 0.98036 0.26929 0.24046
 O828 O 0.99533 0.25471 0.22399
 O829 O 1.01658 0.23324 0.23374
 O830 O 0.98453 0.26537 0.26593
 C831 C 1.05214 0.23639 0.23738
 C832 C 1.01313 0.19752 0.23702
 C833 C 1.01342 0.23694 0.19811
 C834 C 0.94965 0.26234 0.26388
 C835 C 0.98692 0.26333 0.30070
 C836 C 0.98693 0.30038 0.26328
 H837 H 1.00889 0.24147 0.28700
 H838 H 1.00853 0.28657 0.24157
 H839 H 1.02372 0.22608 0.22653
 H840 H 0.96345 0.24084 0.24203
 H841 H 0.96678 0.21089 0.26522
 H842 H 0.96481 0.21203 0.23673
 H843 H 1.02776 0.29512 0.26004
 H844 H 1.04471 0.27707 0.24151
 H845 H 0.97434 0.22145 0.29639
 H846 H 1.02485 0.20190 0.27773
 H847 H 0.99008 0.29419 0.22183
 H848 H 1.00935 0.27772 0.20626
 H849 H 1.04650 0.22018 0.27759
 H850 H 1.03648 0.26064 0.28602
 H851 H 0.97335 0.24136 0.20530
 H852 H 0.95476 0.25942 0.22282
 O853 O 0.70556 1.02194 0.74855
 O854 O 0.71131 1.01948 0.77791
 O855 O 0.74941 1.04529 0.72865
 O856 O 0.77715 1.04047 0.72824
 O857 O 0.72894 1.00114 0.70495
 O858 O 0.73032 0.97184 0.71115
 O859 O 0.79403 0.99979 0.77211
 O860 O 0.78911 1.02851 0.76872
 O861 O 0.75161 0.97847 0.79362
 O862 O 0.72279 0.98091 0.78913
 O863 O 0.77211 0.95659 0.75122
 O864 O 0.77132 0.96241 0.72105
 O865 O 0.79422 0.97944 0.75193
 O866 O 0.78831 0.98117 0.72076
 O867 O 0.75172 0.95630 0.77120
 O868 O 0.72074 0.96273 0.76884
 O869 O 0.77196 0.99857 0.79368
 O870 O 0.76639 1.02892 0.78859
 O871 O 0.70557 1.00134 0.72860
 O872 O 0.71205 0.97154 0.73014
 O873 O 0.74905 1.02149 0.70494
 O874 O 0.77934 1.01899 0.71192
 O875 O 0.72850 1.04510 0.74817
 O876 O 0.73393 1.03871 0.77839
 Zr877 Zr 0.72988 1.02092 0.75887
 O878 O 0.74447 1.00581 0.77494
 Zr879 Zr 0.75937 1.02078 0.72931
 O880 O 0.77543 1.00626 0.74451
 Zr881 Zr 0.72995 0.99114 0.72940
 O882 O 0.74493 0.97507 0.74413
 Zr883 Zr 0.76994 1.01013 0.77000
 O884 O 0.75541 1.02646 0.75483
 Zr885 Zr 0.74072 0.98029 0.76964
 O886 O 0.72440 0.99524 0.75491
 Zr887 Zr 0.77043 0.98066 0.74038
 O888 O 0.75545 0.99517 0.72384
 O889 O 0.73408 1.01656 0.73347
 O890 O 0.76616 0.98457 0.76582
 C891 C 0.69849 1.01320 0.73696
 C892 C 0.73734 1.05227 0.73675
 C893 C 0.73739 1.01289 0.69785
 C894 C 0.80101 0.98772 0.76403
 C895 C 0.76376 0.98650 0.80053
 C896 C 0.76387 0.94953 0.76312
 H897 H 0.74165 1.00836 0.78678
 H898 H 0.74232 0.96326 0.74130
 H899 H 0.72692 1.02367 0.72622
 H900 H 0.78723 1.00918 0.74207
 H901 H 0.78364 1.03915 0.76529
 H902 H 0.78577 1.03797 0.73680
 H903 H 0.72302 0.95468 0.75965
 H904 H 0.70613 0.97257 0.74101
 H905 H 0.77608 1.02849 0.79640
 H906 H 0.72560 1.04790 0.77739
 H907 H 0.76087 0.95574 0.72166
 H908 H 0.74160 0.97214 0.70598
 H909 H 0.70401 1.02955 0.77718
 H910 H 0.71414 0.98910 0.78561
 H911 H 0.77747 1.00861 0.70531
 H912 H 0.79608 0.99062 0.72295
 O913 O 0.74912 0.54493 0.22714
 O914 O 0.77843 0.53915 0.22971
 O915 O 0.72907 0.50095 0.20406
 O916 O 0.72871 0.47312 0.20895
 O917 O 0.70553 0.52161 0.24802
 O918 O 0.71175 0.52044 0.27728
 O919 O 0.77238 0.45629 0.24977
 O920 O 0.76904 0.46110 0.22107
 O921 O 0.79399 0.49892 0.27092
 O922 O 0.78963 0.52780 0.26832
 O923 O 0.75155 0.47858 0.29280
 O924 O 0.72145 0.47932 0.28687
 O925 O 0.75225 0.45623 0.27007
 O926 O 0.72117 0.46217 0.26827
 O927 O 0.77154 0.49902 0.29303
 O928 O 0.76935 0.53003 0.28637
 O929 O 0.79401 0.47842 0.25094
 O930 O 0.78895 0.48386 0.22059
 O931 O 0.72918 0.54504 0.24765
 O932 O 0.73077 0.53873 0.27748
 O933 O 0.70544 0.50134 0.22781
 O934 O 0.71236 0.47099 0.23039
 O935 O 0.74865 0.52186 0.20416
 O936 O 0.77882 0.51636 0.21060
 Zr937 Zr 0.75936 0.52055 0.22833
 O938 O 0.77537 0.50597 0.24352
 Zr939 Zr 0.72976 0.49101 0.22856
 O940 O 0.74489 0.47496 0.24317
 Zr941 Zr 0.72995 0.52066 0.25802
 O942 O 0.74461 0.50570 0.27416
 Zr943 Zr 0.77036 0.48042 0.23933
 O944 O 0.75526 0.49492 0.22291
 Zr945 Zr 0.77008 0.50987 0.26898
 O946 O 0.75544 0.52619 0.25393
 Zr947 Zr 0.74079 0.48011 0.26871
 O948 O 0.72432 0.49507 0.25411
 O949 O 0.73399 0.51638 0.23267
 O950 O 0.76621 0.48434 0.26484
 C951 C 0.73753 0.55207 0.23577
 C952 C 0.73718 0.51302 0.19705
 C953 C 0.69840 0.51307 0.23634
 C954 C 0.76428 0.44936 0.26184
 C955 C 0.80086 0.48670 0.26297
 C956 C 0.76341 0.48691 0.29985
 H957 H 0.78719 0.50878 0.24099
 H958 H 0.74178 0.50839 0.28594
 H959 H 0.72676 0.52353 0.22553
 H960 H 0.74242 0.46312 0.24032
 H961 H 0.76562 0.46654 0.21042
 H962 H 0.73717 0.46443 0.21156
 H963 H 0.76013 0.52784 0.29437
 H964 H 0.74161 0.54470 0.27638
 H965 H 0.79671 0.47414 0.22109
 H966 H 0.77785 0.52468 0.20138
 H967 H 0.72208 0.48983 0.29349
 H968 H 0.70655 0.50914 0.27705
 H969 H 0.77772 0.54643 0.21961
 H970 H 0.78619 0.53641 0.26004
 H971 H 0.70580 0.47289 0.24077
 H972 H 0.72330 0.45435 0.25886
 O973 O 0.50080 0.20427 0.72835
 O974 O 0.47151 0.20998 0.73089
 O975 O 0.52070 0.24843 0.70543
 O976 O 0.52117 0.27620 0.71049
 O977 O 0.54439 0.22757 0.74935
 O978 O 0.53823 0.22869 0.77861
 O979 O 0.47745 0.29281 0.75122
 O980 O 0.48075 0.28806 0.72252
 O981 O 0.45591 0.25008 0.77220
 O982 O 0.46035 0.22121 0.76954
 O983 O 0.49834 0.27047 0.79422
 O984 O 0.52839 0.26980 0.78841
 O985 O 0.49762 0.29286 0.77154
 O986 O 0.52874 0.28690 0.76977
 O987 O 0.47837 0.25001 0.79435
 O988 O 0.48064 0.21900 0.78763
 O989 O 0.45585 0.27063 0.75230
 O990 O 0.46088 0.26528 0.72194
 O991 O 0.52075 0.20411 0.74891
 O992 O 0.51923 0.21037 0.77875
 O993 O 0.54440 0.24791 0.72920
 O994 O 0.53746 0.27826 0.73195
 O995 O 0.50119 0.22745 0.70543
 O996 O 0.47102 0.23283 0.71188
 Zr997 Zr 0.49053 0.22863 0.72960
 O998 O 0.47452 0.24314 0.74482
 Zr999 Zr 0.52009 0.25822 0.73000
 O1000 O 0.50495 0.27420 0.74463
 Zr1001 Zr 0.51998 0.22848 0.75934
 O1002 O 0.50533 0.24338 0.77551
 Zr1003 Zr 0.47948 0.26871 0.74072
 O1004 O 0.49459 0.25428 0.72429
 Zr1005 Zr 0.47985 0.23919 0.77029
 O1006 O 0.49450 0.22294 0.75520
 Zr1007 Zr 0.50909 0.26900 0.77015
 O1008 O 0.52558 0.25409 0.75553
 O1009 O 0.51590 0.23283 0.73399
 O1010 O 0.48368 0.26474 0.76623
 C1011 C 0.51238 0.19711 0.73700
 C1012 C 0.51259 0.23638 0.69836
 C1013 C 0.55148 0.23616 0.73770
 C1014 C 0.48557 0.29974 0.76330
 C1015 C 0.44902 0.26231 0.76427
 C1016 C 0.48648 0.26213 0.80122
 H1017 H 0.46270 0.24032 0.74226
 H1018 H 0.50817 0.24067 0.78728
 H1019 H 0.52312 0.22571 0.72682
 H1020 H 0.50740 0.28605 0.74181
 H1021 H 0.48416 0.28266 0.71185
 H1022 H 0.51260 0.28480 0.71303
 H1023 H 0.48985 0.22121 0.79567
 H1024 H 0.50838 0.20442 0.77764
 H1025 H 0.45310 0.27499 0.72246
 H1026 H 0.47200 0.22455 0.70263
 H1027 H 0.52787 0.25921 0.79489
 H1028 H 0.54341 0.24000 0.77842
 H1029 H 0.47220 0.20275 0.72076
 H1030 H 0.46380 0.21263 0.76123
 H1031 H 0.54409 0.27629 0.74228
 H1032 H 0.52654 0.29480 0.76043
 O1033 O 0.27247 0.79547 0.49938
 O1034 O 0.26992 0.78966 0.52874
 O1035 O 0.29528 0.75145 0.47926
 O1036 O 0.29025 0.72365 0.47874
 O1037 O 0.25140 0.77238 0.45573
 O1038 O 0.22218 0.77120 0.46193
 O1039 O 0.24960 0.70685 0.52251
 O1040 O 0.27825 0.71158 0.51918
 O1041 O 0.22877 0.74956 0.54429
 O1042 O 0.23136 0.77842 0.53991
 O1043 O 0.20669 0.72924 0.50178
 O1044 O 0.21243 0.73010 0.47163
 O1045 O 0.22932 0.70688 0.50230
 O1046 O 0.23101 0.71297 0.47118
 O1047 O 0.20660 0.74962 0.52187
 O1048 O 0.21327 0.78066 0.51962
 O1049 O 0.24861 0.72897 0.54425
 O1050 O 0.27891 0.73430 0.53914
 O1051 O 0.25190 0.79569 0.47944
 O1052 O 0.22209 0.78946 0.48105
 O1053 O 0.27154 0.75207 0.45559
 O1054 O 0.26878 0.72166 0.46240
 O1055 O 0.29531 0.77233 0.49891
 O1056 O 0.28893 0.76682 0.52911
 Zr1057 Zr 0.27120 0.77108 0.50962
 O1058 O 0.25603 0.75651 0.52562
 Zr1059 Zr 0.27077 0.74162 0.47990
 O1060 O 0.25617 0.72557 0.49502
 Zr1061 Zr 0.24146 0.77134 0.48017
 O1062 O 0.22533 0.75639 0.49482
 Zr1063 Zr 0.26011 0.73095 0.52055
 O1064 O 0.27650 0.74544 0.50545
 Zr1065 Zr 0.23060 0.76049 0.52034
 O1066 O 0.24564 0.77680 0.50570
 Zr1067 Zr 0.23068 0.73080 0.49093
 O1068 O 0.24526 0.74576 0.47446
 O1069 O 0.26677 0.76698 0.48421
 O1070 O 0.23464 0.73495 0.51640
 C1071 C 0.26385 0.80264 0.48779
 C1072 C 0.30235 0.76348 0.48741
 C1073 C 0.26305 0.76386 0.44858
 C1074 C 0.23754 0.69995 0.51435
 C1075 C 0.23669 0.73731 0.55115
 C1076 C 0.19974 0.73751 0.51372
 H1077 H 0.25861 0.75929 0.53746
 H1078 H 0.21357 0.75911 0.49201
 H1079 H 0.27392 0.77412 0.47699
 H1080 H 0.25898 0.71373 0.49252
 H1081 H 0.28890 0.71698 0.51574
 H1082 H 0.28768 0.71498 0.48725
 H1083 H 0.20519 0.77844 0.51045
 H1084 H 0.22324 0.79539 0.49192
 H1085 H 0.27840 0.72457 0.54691
 H1086 H 0.29815 0.77513 0.52816
 H1087 H 0.20589 0.74064 0.47227
 H1088 H 0.22238 0.75991 0.45669
 H1089 H 0.28002 0.79692 0.52804
 H1090 H 0.23963 0.78702 0.53647
 H1091 H 0.25846 0.72367 0.45578
 H1092 H 0.24038 0.70511 0.47329
 O1093 O 0.27177 0.29449 0.99951
 O1094 O 0.26928 0.28865 1.02885
 O1095 O 0.29468 0.25047 0.97939
 O1096 O 0.28967 0.22267 0.97882
 O1097 O 0.25076 0.27135 0.95584
 O1098 O 0.22154 0.27011 0.96205
 O1099 O 0.24912 0.20579 1.02260
 O1100 O 0.27774 0.21060 1.01928
 O1101 O 0.22818 0.24847 1.04441
 O1102 O 0.23072 0.27733 1.04004
 O1103 O 0.20611 0.22816 1.00188
 O1104 O 0.21184 0.22897 0.97177
 O1105 O 0.22882 0.20579 1.00241
 O1106 O 0.23046 0.21190 0.97130
 O1107 O 0.20599 0.24854 1.02196
 O1108 O 0.21264 0.27957 1.01977
 O1109 O 0.24806 0.22792 1.04436
 O1110 O 0.27834 0.23331 1.03925
 O1111 O 0.25119 0.29468 0.97958
 O1112 O 0.22140 0.28836 0.98116
 O1113 O 0.27092 0.25108 0.95570
 O1114 O 0.26821 0.22067 0.96251
 O1115 O 0.29468 0.27135 0.99902
 O1116 O 0.28831 0.26585 1.02921
 Zr1117 Zr 0.27057 0.27008 1.00973
 O1118 O 0.25543 0.25548 1.02573
 Zr1119 Zr 0.27017 0.24062 0.98001
 O1120 O 0.25561 0.22455 0.99513
 Zr1121 Zr 0.24082 0.27029 0.98029
 O1122 O 0.22473 0.25531 0.99494
 Zr1123 Zr 0.25955 0.22993 1.02065
 O1124 O 0.27591 0.24445 1.00555
 Zr1125 Zr 0.22999 0.25941 1.02046
 O1126 O 0.24500 0.27575 1.00582
 Zr1127 Zr 0.23011 0.22972 0.99105
 O1128 O 0.24465 0.24472 0.97458
 O1129 O 0.26614 0.26598 0.98431
 O1130 O 0.23406 0.23388 1.01653
 C1131 C 0.26310 0.30166 0.98794
 C1132 C 0.30174 0.26250 0.98754
 C1133 C 0.26242 0.26285 0.94869
 C1134 C 0.23707 0.19886 1.01443
 C1135 C 0.23614 0.23624 1.05127
 C1136 C 0.19913 0.23644 1.01380
 H1137 H 0.25801 0.25826 1.03757
 H1138 H 0.21296 0.25801 0.99213
 H1139 H 0.27328 0.27314 0.97710
 H1140 H 0.25844 0.21271 0.99262
 H1141 H 0.28837 0.21603 1.01584
 H1142 H 0.28715 0.21402 0.98735
 H1143 H 0.20459 0.27737 1.01057
 H1144 H 0.22254 0.29429 0.99204
 H1145 H 0.27786 0.22358 1.04701
 H1146 H 0.29752 0.27416 1.02826
 H1147 H 0.20534 0.23954 0.97235
 H1148 H 0.22177 0.25883 0.95680
 H1149 H 0.27936 0.29592 1.02816
 H1150 H 0.23901 0.28592 1.03662
 H1151 H 0.25789 0.22266 0.95589
 H1152 H 0.23985 0.20406 0.97340
 C1153 C 0.27875 0.38608 0.76822
 C1154 C 0.29690 0.38258 0.77423
 C1155 C 0.28984 0.37330 0.78959
 C1156 C 0.27178 0.37653 0.78368
 C1157 C 0.27873 0.40240 0.77854
 C1158 C 0.27167 0.39312 0.79390
 C1159 C 0.29679 0.39915 0.78446
 C1160 C 0.28981 0.38963 0.79990
 C1161 C 0.29622 0.35726 0.79600
 C1162 C 0.30167 0.34427 0.80153
 C1163 C 0.27280 0.41880 0.77267
 C1164 C 0.26822 0.43251 0.76816
 H1165 H 0.27412 0.38481 0.75512
 H1166 H 0.30735 0.37807 0.76622
 H1167 H 0.26157 0.36704 0.78344
 H1168 H 0.26123 0.39764 0.80192
 H1169 H 0.30701 0.40863 0.78471
 H1170 H 0.29443 0.39093 0.81299
 C1171 C 0.27211 -0.10673 0.29403
 C1172 C 0.27202 -0.12343 0.28399
 C1173 C 0.29018 -0.12661 0.28960
 C1174 C 0.29035 -0.11017 0.29973
 C1175 C 0.27889 -0.09762 0.27844
 C1176 C 0.29705 -0.10082 0.28406
 C1177 C 0.27871 -0.11405 0.26830
 C1178 C 0.29697 -0.11750 0.27402
 C1179 C 0.29667 -0.14258 0.29607
 C1180 C 0.30222 -0.15552 0.30164
 C1181 C 0.27288 -0.08127 0.27251
 C1182 C 0.26824 -0.06759 0.26795
 H1183 H 0.26181 -0.10212 0.30219
 H1184 H 0.26180 -0.13291 0.28404
 H1185 H 0.29521 -0.10873 0.31272
 H1186 H 0.30728 -0.09135 0.28403
 H1187 H 0.27385 -0.11546 0.25530
 H1188 H 0.30727 -0.12211 0.26587
 C1189 C 0.79803 0.89795 0.77959
 C1190 C 0.79504 0.89099 0.79749
 C1191 C 0.79050 0.87384 0.78984
 C1192 C 0.79358 0.88056 0.77202
 C1193 C 0.77944 0.90290 0.77861
 C1194 C 0.77488 0.88577 0.77095
 C1195 C 0.77637 0.89618 0.79643
 C1196 C 0.77190 0.87879 0.78888
 C1197 C 0.79687 0.85784 0.79633
 C1198 C 0.80232 0.84486 0.80191
 C1199 C 0.77353 0.91928 0.77266
 C1200 C 0.76895 0.93298 0.76810
 H1201 H 0.80871 0.90600 0.77570
 H1202 H 0.80340 0.89298 0.80847
 H1203 H 0.80073 0.87395 0.76205
 H1204 H 0.76651 0.88381 0.75996
 H1205 H 0.76923 0.90278 0.80641
 H1206 H 0.76123 0.87073 0.79277
 C1207 C 0.47795 0.86410 0.27511
 C1208 C 0.46038 0.87154 0.27130
 C1209 C 0.45837 0.87575 0.29002
 C1210 C 0.47582 0.86857 0.29394
 C1211 C 0.46973 0.84695 0.27847
 C1212 C 0.46771 0.85118 0.29718
 C1213 C 0.45228 0.85413 0.27456
 C1214 C 0.45018 0.85859 0.29336
 C1215 C 0.45185 0.89161 0.29670
 C1216 C 0.44629 0.90446 0.30245
 C1217 C 0.47581 0.83070 0.27234
 C1218 C 0.48049 0.81708 0.26767
 H1219 H 0.48943 0.86617 0.26753
 H1220 H 0.45729 0.88010 0.26073
 H1221 H 0.48543 0.87469 0.30198
 H1222 H 0.47080 0.84263 0.30776
 H1223 H 0.44267 0.84801 0.26652
 H1224 H 0.43870 0.85649 0.30094
 C1225 C -0.02241 0.85684 0.79545
 C1226 C -0.02186 0.87371 0.78572
 C1227 C -0.04011 0.87703 0.79090
 C1228 C -0.04074 0.86042 0.80071
 C1229 C -0.02892 0.84809 0.77952
 C1230 C -0.04717 0.85144 0.78470
 C1231 C -0.02828 0.86469 0.76968
 C1232 C -0.04663 0.86829 0.77497
 C1233 C -0.04657 0.89296 0.79748
 C1234 C -0.05211 0.90587 0.80312
 C1235 C -0.02297 0.83176 0.77349
 C1236 C -0.01838 0.81809 0.76888
 H1237 H -0.01238 0.85195 0.80380
 H1238 H -0.01153 0.88305 0.78622
 H1239 H -0.04593 0.85882 0.81354
 H1240 H -0.05751 0.84210 0.78422
 H1241 H -0.02309 0.86626 0.75685
 H1242 H -0.05667 0.87317 0.76663
 C1243 C -0.04778 -0.10197 -0.02972
 C1244 C -0.04455 -0.10891 -0.04759
 C1245 C -0.04015 -0.12607 -0.03992
 C1246 C -0.04347 -0.11938 -0.02213
 C1247 C -0.02919 -0.09705 -0.02847
 C1248 C -0.02477 -0.11420 -0.02078
 C1249 C -0.02588 -0.10375 -0.04626
 C1250 C -0.02156 -0.12116 -0.03868
 C1251 C -0.04648 -0.14206 -0.04652
 C1252 C -0.05192 -0.15503 -0.05215
 C1253 C -0.02332 -0.08069 -0.02238
 C1254 C -0.01876 -0.06702 -0.01771
 H1255 H -0.05849 -0.09390 -0.02597
 H1256 H -0.05275 -0.10689 -0.05869
 H1257 H -0.05078 -0.12599 -0.01228
 H1258 H -0.01658 -0.11618 -0.00968
 H1259 H -0.01858 -0.09714 -0.05612
 H1260 H -0.01085 -0.12923 -0.04244
 C1261 C -0.01894 0.38454 0.47606
 C1262 C -0.03615 0.37654 0.48036
 C1263 C -0.03849 0.37203 0.46175
 C1264 C -0.02140 0.37975 0.45733
 C1265 C -0.02780 0.40135 0.47269
 C1266 C -0.03016 0.39682 0.45408
 C1267 C -0.04490 0.39362 0.47709
 C1268 C -0.04733 0.38886 0.45840
 C1269 C -0.04475 0.35595 0.45532
 C1270 C -0.05020 0.34296 0.44973
 C1271 C -0.02219 0.41794 0.47838
 C1272 C -0.01795 0.43185 0.48261
 H1273 H -0.00720 0.38295 0.48339
 H1274 H -0.03868 0.36801 0.49110
 H1275 H -0.01181 0.37387 0.44913
 H1276 H -0.02764 0.40533 0.44333
 H1277 H -0.05450 0.39951 0.48529
 H1278 H -0.05907 0.39048 0.45107
 C1279 C 0.46755 -0.10183 0.45285
 C1280 C 0.47720 -0.11868 0.45405
 C1281 C 0.46107 -0.12728 0.46015
 C1282 C 0.45134 -0.11066 0.45886
 C1283 C 0.47212 -0.09815 0.47124
 C1284 C 0.45598 -0.10674 0.47734
 C1285 C 0.48187 -0.11475 0.47254
 C1286 C 0.46563 -0.12361 0.47854
 C1287 C 0.45467 -0.14331 0.45374
 C1288 C 0.44916 -0.15631 0.44823
 C1289 C 0.47800 -0.08172 0.47713
 C1290 C 0.48253 -0.06799 0.48165
 H1291 H 0.46840 -0.09269 0.44235
 H1292 H 0.48585 -0.12377 0.44439
 H1293 H 0.43871 -0.10914 0.45317
 H1294 H 0.44733 -0.10165 0.48699
 H1295 H 0.49449 -0.11624 0.47823
 H1296 H 0.46476 -0.13276 0.48904
 C1297 C 0.46594 0.39646 -0.04536
 C1298 C 0.47640 0.38007 -0.04563
 C1299 C 0.46131 0.37054 -0.03834
 C1300 C 0.45078 0.38671 -0.03816
 C1301 C 0.47205 0.39983 -0.02736
 C1302 C 0.45696 0.39031 -0.02007
 C1303 C 0.48261 0.38368 -0.02752
 C1304 C 0.46741 0.37388 -0.02033
 C1305 C 0.45501 0.35447 -0.04476
 C1306 C 0.44953 0.34149 -0.05033
 C1307 C 0.47768 0.41641 -0.02164
 C1308 C 0.48193 0.43031 -0.01739
 H1309 H 0.46540 0.40592 -0.05559
 H1310 H 0.48432 0.37568 -0.05621
 H1311 H 0.43763 0.38780 -0.04261
 H1312 H 0.44903 0.39470 -0.00950
 H1313 H 0.49576 0.38263 -0.02308
 H1314 H 0.46794 0.36440 -0.01012
 C1315 C 0.76609 0.36455 0.46862
 C1316 C 0.77866 0.37615 0.47796
 C1317 C 0.78816 0.37877 0.46139
 C1318 C 0.77569 0.36744 0.45197
 C1319 C 0.77753 0.34946 0.47236
 C1320 C 0.78702 0.35212 0.45580
 C1321 C 0.79000 0.36078 0.48179
 C1322 C 0.79957 0.36367 0.46513
 C1323 C 0.79438 0.39486 0.45496
 C1324 C 0.79980 0.40785 0.44938
 C1325 C 0.77193 0.33289 0.47808
 C1326 C 0.76768 0.31899 0.48233
 H1327 H 0.75226 0.36471 0.47014
 H1328 H 0.77530 0.38623 0.48699
 H1329 H 0.76988 0.37035 0.43963
 H1330 H 0.79040 0.34206 0.44675
 H1331 H 0.79581 0.35786 0.49412
 H1332 H 0.81340 0.36348 0.46362
 C1333 C 0.78343 0.85310 -0.04636
 C1334 C 0.77414 0.87015 -0.04523
 C1335 C 0.79049 0.87844 -0.03923
 C1336 C 0.79986 0.86162 -0.04046
 C1337 C 0.77891 0.84962 -0.02793
 C1338 C 0.79526 0.85792 -0.02194
 C1339 C 0.76951 0.86643 -0.02669
 C1340 C 0.78597 0.87500 -0.02080
 C1341 C 0.79722 0.89424 -0.04587
 C1342 C 0.80300 0.90698 -0.05165
 C1343 C 0.77283 0.83327 -0.02207
 C1344 C 0.76826 0.81951 -0.01772
 H1345 H 0.78232 0.84392 -0.05681
 H1346 H 0.76554 0.87535 -0.05488
 H1347 H 0.81241 0.85979 -0.04618
 H1348 H 0.80387 0.85271 -0.01230
 H1349 H 0.75695 0.86822 -0.02096
 H1350 H 0.78710 0.88419 -0.01037
 C1351 C 0.79375 0.27174 0.39233
 C1352 C 0.78411 0.27082 0.37544
 C1353 C 0.78897 0.28919 0.37195
 C1354 C 0.79870 0.29018 0.38858
 C1355 C 0.77771 0.27806 0.40092
 C1356 C 0.78258 0.29641 0.39739
 C1357 C 0.76795 0.27705 0.38430
 C1358 C 0.77293 0.29551 0.38053
 C1359 C 0.79557 0.29568 0.35606
 C1360 C 0.80131 0.30128 0.34324
 C1361 C 0.77183 0.27224 0.41733
 C1362 C 0.76744 0.26789 0.43113
 H1363 H 0.80225 0.26189 0.39735
 H1364 H 0.78482 0.26037 0.36622
 H1365 H 0.81141 0.29565 0.39018
 H1366 H 0.78189 0.30688 0.40660
 H1367 H 0.75524 0.27157 0.38273
 H1368 H 0.76444 0.30537 0.37551
 C1369 C 0.79624 0.77821 -0.10481
 C1370 C 0.79029 0.77210 -0.12231
 C1371 C 0.78915 0.79051 -0.12806
 C1372 C 0.79518 0.79669 -0.11080
 C1373 C 0.77785 0.77923 -0.09916
 C1374 C 0.77672 0.79763 -0.10492
 C1375 C 0.77179 0.77302 -0.11640
 C1376 C 0.77076 0.79154 -0.12242
 C1377 C 0.79576 0.79707 -0.14391
 C1378 C 0.80149 0.80274 -0.15670
 C1379 C 0.77196 0.77332 -0.08278
 C1380 C 0.76755 0.76888 -0.06901
 H1381 H 0.80665 0.77267 -0.09739
 H1382 H 0.79595 0.76168 -0.12964
 H1383 H 0.80487 0.80649 -0.10865
 H1384 H 0.77107 0.80806 -0.09759
 H1385 H 0.76211 0.76321 -0.11851
 H1386 H 0.76036 0.79709 -0.12984
 C1387 C 0.28379 0.45361 0.85160
 C1388 C 0.29898 0.46099 0.86122
 C1389 C 0.28853 0.46093 0.87741
 C1390 C 0.27342 0.45345 0.86803
 C1391 C 0.27761 0.47156 0.84810
 C1392 C 0.26713 0.47151 0.86428
 C1393 C 0.29272 0.47903 0.85748
 C1394 C 0.28235 0.47889 0.87393
 C1395 C 0.29485 0.45477 0.89356
 C1396 C 0.30028 0.44947 0.90665
 C1397 C 0.27180 0.47724 0.83159
 C1398 C 0.26734 0.48165 0.81782
 H1399 H 0.28431 0.44327 0.84224
 H1400 H 0.31214 0.45660 0.86012
 H1401 H 0.26555 0.44287 0.87254
 H1402 H 0.25397 0.47590 0.86534
 H1403 H 0.30059 0.48961 0.85296
 H1404 H 0.28184 0.48921 0.88329
 C1405 C 0.29753 -0.03520 0.34976
 C1406 C 0.29809 -0.02464 0.36610
 C1407 C 0.29096 -0.03973 0.37578
 C1408 C 0.29049 -0.05037 0.35968
 C1409 C 0.27951 -0.02909 0.34668
 C1410 C 0.27237 -0.04418 0.35636
 C1411 C 0.27997 -0.01844 0.36277
 C1412 C 0.27293 -0.03363 0.37272
 C1413 C 0.29751 -0.04587 0.39184
 C1414 C 0.30308 -0.05116 0.40487
 C1415 C 0.27339 -0.02338 0.33030
 C1416 C 0.26866 -0.01889 0.31665
 H1417 H 0.30757 -0.03578 0.34014
 H1418 H 0.30874 -0.01667 0.37028
 H1419 H 0.29488 -0.06356 0.35858
 H1420 H 0.26173 -0.05215 0.35217
 H1421 H 0.27558 -0.00524 0.36384
 H1422 H 0.26290 -0.03305 0.38234
 C1423 C -0.04614 -0.02423 -0.10412
 C1424 C -0.03789 -0.02095 -0.12142
 C1425 C -0.04013 -0.03964 -0.12577
 C1426 C -0.04847 -0.04301 -0.10872
 C1427 C -0.02878 -0.02841 -0.09684
 C1428 C -0.03103 -0.04709 -0.10121
 C1429 C -0.02043 -0.02502 -0.11387
 C1430 C -0.02278 -0.04382 -0.11849
 C1431 C -0.04669 -0.04612 -0.14169
 C1432 C -0.05232 -0.05168 -0.15460
 C1433 C -0.02276 -0.02244 -0.08051
 C1434 C -0.01814 -0.01787 -0.06684
 H1435 H -0.05567 -0.01612 -0.09802
 H1436 H -0.04079 -0.01027 -0.12991
 H1437 H -0.06007 -0.05047 -0.10676
 H1438 H -0.02815 -0.05778 -0.09272
 H1439 H -0.00882 -0.01756 -0.11580
 H1440 H -0.01325 -0.05195 -0.12458
 C1441 C -0.04301 0.47962 0.39111
 C1442 C -0.03265 0.47851 0.37468
 C1443 C -0.03937 0.46061 0.37190
 C1444 C -0.04981 0.46163 0.38807
 C1445 C -0.02812 0.47209 0.40079
 C1446 C -0.03485 0.45420 0.39797
 C1447 C -0.01765 0.47108 0.38464
 C1448 C -0.02449 0.45308 0.38158
 C1449 C -0.04595 0.45394 0.35606
 C1450 C -0.05165 0.44819 0.34327
 C1451 C -0.02225 0.47811 0.41716
 C1452 C -0.01788 0.48264 0.43092
 H1453 H -0.05055 0.49060 0.39520
 H1454 H -0.03182 0.48843 0.36492
 H1455 H -0.06310 0.45768 0.38932
 H1456 H -0.03569 0.44426 0.40772
 H1457 H -0.00436 0.47504 0.38342
 H1458 H -0.01695 0.44209 0.37750
 C1459 C 0.45277 -0.03595 0.39992
 C1460 C 0.45292 -0.02605 0.38318
 C1461 C 0.45942 -0.04184 0.37419
 C1462 C 0.45917 -0.05183 0.39070
 C1463 C 0.47103 -0.03059 0.40301
 C1464 C 0.47753 -0.04639 0.39403
 C1465 C 0.47128 -0.02059 0.38652
 C1466 C 0.47768 -0.03649 0.37726
 C1467 C 0.45274 -0.04829 0.35830
 C1468 C 0.44704 -0.05378 0.34539
 C1469 C 0.47721 -0.02454 0.41925
 C1470 C 0.48197 -0.01981 0.43281
 H1471 H 0.44259 -0.03566 0.40941
 H1472 H 0.44272 -0.01776 0.37854
 H1473 H 0.45412 -0.06474 0.39225
 H1474 H 0.48772 -0.05469 0.39867
 H1475 H 0.47633 -0.00767 0.38498
 H1476 H 0.48785 -0.03679 0.36776
 C1477 C 0.45379 0.47384 -0.10573
 C1478 C 0.46108 0.47846 -0.12315
 C1479 C 0.46032 0.45981 -0.12813
 C1480 C 0.45293 0.45512 -0.11095
 C1481 C 0.47169 0.47098 -0.09919
 C1482 C 0.47091 0.45233 -0.10418
 C1483 C 0.47910 0.47569 -0.11635
 C1484 C 0.47822 0.45693 -0.12160
 C1485 C 0.45366 0.45329 -0.14399
 C1486 C 0.44787 0.44764 -0.15679
 C1487 C 0.47760 0.47684 -0.08278
 C1488 C 0.48198 0.48127 -0.06899
 H1489 H 0.44380 0.48086 -0.09903
 H1490 H 0.45696 0.48912 -0.13114
 H1491 H 0.44211 0.44659 -0.10889
 H1492 H 0.47502 0.44166 -0.09620
 H1493 H 0.48993 0.48422 -0.11837
 H1494 H 0.48820 0.44990 -0.12831
 C1495 C 0.47653 0.79563 0.35505
 C1496 C 0.45792 0.79871 0.35964
 C1497 C 0.46083 0.78973 0.37648
 C1498 C 0.47935 0.78674 0.37214
 C1499 C 0.47157 0.77865 0.34729
 C1500 C 0.47449 0.76965 0.36411
 C1501 C 0.45305 0.78165 0.35165
 C1502 C 0.45586 0.77275 0.36872
 C1503 C 0.45461 0.79613 0.39255
 C1504 C 0.44925 0.80161 0.40559
 C1505 C 0.47730 0.77275 0.33085
 C1506 C 0.48171 0.76820 0.31712
 H1507 H 0.48509 0.80497 0.34925
 H1508 H 0.45105 0.81073 0.35797
 H1509 H 0.49009 0.78891 0.38075
 H1510 H 0.48136 0.75763 0.36575
 H1511 H 0.44230 0.77949 0.34304
 H1512 H 0.44729 0.76342 0.37452
 C1513 C -0.04732 0.78551 0.85118
 C1514 C -0.04653 0.77570 0.86795
 C1515 C -0.04006 0.79166 0.87670
 C1516 C -0.04095 0.80155 0.86016
 C1517 C -0.02907 0.78048 0.84765
 C1518 C -0.02260 0.79644 0.85639
 C1519 C -0.02817 0.77057 0.86418
 C1520 C -0.02180 0.78663 0.87319
 C1521 C -0.04640 0.79806 0.89273
 C1522 C -0.05186 0.80350 0.90575
 C1523 C -0.02319 0.77448 0.83129
 C1524 C -0.01861 0.76980 0.81766
 H1525 H -0.05776 0.78498 0.84195
 H1526 H -0.05644 0.76724 0.87288
 H1527 H -0.04627 0.81436 0.85867
 H1528 H -0.01270 0.80490 0.85145
 H1529 H -0.02285 0.75775 0.86564
 H1530 H -0.01138 0.78717 0.88243
 C1531 C 0.38575 0.77460 0.27143
 C1532 C 0.37862 0.77171 0.28930
 C1533 C 0.37380 0.79040 0.29015
 C1534 C 0.38067 0.79339 0.27238
 C1535 C 0.40280 0.77909 0.27925
 C1536 C 0.39797 0.79777 0.28010
 C1537 C 0.39593 0.77610 0.29701
 C1538 C 0.39086 0.79486 0.29795
 C1539 C 0.35780 0.79689 0.29641
 C1540 C 0.34481 0.80244 0.30178
 C1541 C 0.41912 0.77305 0.27338
 C1542 C 0.43273 0.76839 0.26877
 H1543 H 0.38384 0.76620 0.26046
 H1544 H 0.37048 0.76107 0.29316
 H1545 H 0.37422 0.80058 0.26233
 H1546 H 0.40611 0.80841 0.27626
 H1547 H 0.40238 0.76892 0.30707
 H1548 H 0.39280 0.80327 0.30892
 C1549 C -0.11436 0.77296 0.77339
 C1550 C -0.12053 0.77215 0.79183
 C1551 C -0.12629 0.79054 0.79047
 C1552 C -0.12038 0.79146 0.77214
 C1553 C -0.09725 0.77924 0.77968
 C1554 C -0.10301 0.79762 0.77833
 C1555 C -0.10316 0.77833 0.79801
 C1556 C -0.10916 0.79680 0.79674
 C1557 C -0.14229 0.79705 0.79669
 C1558 C -0.15528 0.80263 0.80204
 C1559 C -0.08089 0.77323 0.77390
 C1560 C -0.06722 0.76863 0.76940
 H1561 H -0.11631 0.76309 0.76372
 H1562 H -0.12792 0.76176 0.79745
 H1563 H -0.12764 0.79693 0.76157
 H1564 H -0.09562 0.80803 0.77272
 H1565 H -0.09590 0.77287 0.80858
 H1566 H -0.10718 0.80667 0.80640
 C1567 C 0.85248 0.29497 0.46620
 C1568 C 0.86889 0.29514 0.47660
 C1569 C 0.87825 0.28782 0.46141
 C1570 C 0.86206 0.28774 0.45095
 C1571 C 0.84906 0.27696 0.47228
 C1572 C 0.85842 0.26964 0.45710
 C1573 C 0.86524 0.27703 0.48278
 C1574 C 0.87487 0.26980 0.46748
 C1575 C 0.89426 0.29420 0.45506
 C1576 C 0.90717 0.29978 0.44954
 C1577 C 0.83254 0.27132 0.47797
 C1578 C 0.81867 0.26712 0.48223
 H1579 H 0.84309 0.30527 0.46574
 H1580 H 0.87338 0.30570 0.48454
 H1581 H 0.86091 0.29221 0.43779
 H1582 H 0.85393 0.25909 0.44915
 H1583 H 0.86635 0.27255 0.49593
 H1584 H 0.88427 0.25952 0.46793
 C1585 C 0.85237 0.78301 -0.04661
 C1586 C 0.86112 0.79924 -0.04044
 C1587 C 0.87776 0.78957 -0.03940
 C1588 C 0.86924 0.77342 -0.04567
 C1589 C 0.84888 0.77818 -0.02826
 C1590 C 0.86550 0.76848 -0.02721
 C1591 C 0.85741 0.79434 -0.02200
 C1592 C 0.87431 0.78476 -0.02105
 C1593 C 0.89359 0.79625 -0.04591
 C1594 C 0.90636 0.80204 -0.05155
 C1595 C 0.83250 0.77227 -0.02244
 C1596 C 0.81872 0.76789 -0.01807
 H1597 H 0.84318 0.78222 -0.05706
 H1598 H 0.85948 0.81196 -0.04594
 H1599 H 0.87428 0.76489 -0.05548
 H1600 H 0.86711 0.75577 -0.02170
 H1601 H 0.85237 0.80288 -0.01220
 H1602 H 0.88351 0.78556 -0.01061
 C1603 C -0.11358 -0.02023 -0.02629
 C1604 C -0.11812 -0.02280 -0.04505
 C1605 C -0.12562 -0.04004 -0.04067
 C1606 C -0.12135 -0.03758 -0.02201
 C1607 C -0.09666 -0.02889 -0.02943
 C1608 C -0.10417 -0.04613 -0.02506
 C1609 C -0.10094 -0.03136 -0.04808
 C1610 C -0.10868 -0.04868 -0.04380
 C1611 C -0.14160 -0.04647 -0.04712
 C1612 C -0.15458 -0.05198 -0.05260
 C1613 C -0.08035 -0.02292 -0.02338
 C1614 C -0.06675 -0.01831 -0.01867
 H1615 H -0.11541 -0.00847 -0.01902
 H1616 H -0.12403 -0.01329 -0.05335
 H1617 H -0.12993 -0.04022 -0.01137
 H1618 H -0.09825 -0.05565 -0.01677
 H1619 H -0.09237 -0.02873 -0.05874
 H1620 H -0.10683 -0.06045 -0.05107
 C1621 C -0.11562 0.48398 0.47263
 C1622 C -0.11952 0.47855 0.45434
 C1623 C -0.12855 0.46290 0.46111
 C1624 C -0.12493 0.46822 0.47931
 C1625 C -0.09932 0.47372 0.47195
 C1626 C -0.10835 0.45807 0.47872
 C1627 C -0.10297 0.46840 0.45376
 C1628 C -0.11223 0.45267 0.46044
 C1629 C -0.14459 0.45653 0.45476
 C1630 C -0.15753 0.45098 0.44925
 C1631 C -0.08277 0.47937 0.47762
 C1632 C -0.06890 0.48361 0.48187
 H1633 H -0.11681 0.49692 0.47771
 H1634 H -0.12429 0.48690 0.44424
 H1635 H -0.13415 0.46807 0.48973
 H1636 H -0.10357 0.44972 0.48881
 H1637 H -0.09377 0.46853 0.44332
 H1638 H -0.11100 0.43973 0.45537
 C1639 C 0.38644 -0.02154 0.47580
 C1640 C 0.38077 -0.02137 0.45717
 C1641 C 0.37438 -0.03948 0.45916
 C1642 C 0.37979 -0.03976 0.47769
 C1643 C 0.40349 -0.02862 0.47031
 C1644 C 0.39710 -0.04674 0.47229
 C1645 C 0.39808 -0.02835 0.45179
 C1646 C 0.39145 -0.04655 0.45368
 C1647 C 0.35834 -0.04578 0.45276
 C1648 C 0.34532 -0.05122 0.44731
 C1649 C 0.41989 -0.02283 0.47626
 C1650 C 0.43358 -0.01835 0.48085
 H1651 H 0.38458 -0.01120 0.48497
 H1652 H 0.37388 -0.01101 0.45088
 H1653 H 0.37208 -0.04453 0.48826
 H1654 H 0.40399 -0.05710 0.47857
 H1655 H 0.40579 -0.02360 0.44120
 H1656 H 0.39334 -0.05689 0.44452
 C1657 C 0.38422 0.48241 -0.02714
 C1658 C 0.38027 0.47711 -0.04546
 C1659 C 0.37123 0.46142 -0.03878
 C1660 C 0.37491 0.46661 -0.02055
 C1661 C 0.40051 0.47214 -0.02792
 C1662 C 0.39147 0.45645 -0.02124
 C1663 C 0.39681 0.46694 -0.04614
 C1664 C 0.38754 0.45118 -0.03954
 C1665 C 0.35516 0.45513 -0.04511
 C1666 C 0.34217 0.44964 -0.05059
 C1667 C 0.41707 0.47775 -0.02224
 C1668 C 0.43095 0.48197 -0.01798
 H1669 H 0.38305 0.49532 -0.02196
 H1670 H 0.37549 0.48554 -0.05549
 H1671 H 0.36571 0.46641 -0.01010
 H1672 H 0.39625 0.44802 -0.01122
 H1673 H 0.40599 0.46713 -0.05660
 H1674 H 0.38874 0.43827 -0.04471
 C1675 C 0.35552 0.45553 0.77231
 C1676 C 0.37204 0.46581 0.77256
 C1677 C 0.37537 0.45957 0.79051
 C1678 C 0.35911 0.44921 0.79034
 C1679 C 0.34627 0.47076 0.77972
 C1680 C 0.34962 0.46451 0.79767
 C1681 C 0.36251 0.48113 0.77988
 C1682 C 0.36612 0.47479 0.79793
 C1683 C 0.39142 0.45312 0.79672
 C1684 C 0.40445 0.44760 0.80204
 C1685 C 0.32989 0.47672 0.77391
 C1686 C 0.31624 0.48133 0.76935
 H1687 H 0.35097 0.44769 0.76170
 H1688 H 0.38144 0.46626 0.76231
 H1689 H 0.35787 0.43601 0.79471
 H1690 H 0.34022 0.46405 0.80793
 H1691 H 0.36372 0.49433 0.77552
 H1692 H 0.37065 0.48263 0.80854
 C1693 C 0.35176 -0.02939 0.29782
 C1694 C 0.35814 -0.04762 0.29548
 C1695 C 0.37540 -0.04066 0.29051
 C1696 C 0.36927 -0.02251 0.29295
 C1697 C 0.34666 -0.02902 0.27921
 C1698 C 0.36392 -0.02205 0.27422
 C1699 C 0.35281 -0.04717 0.27678
 C1700 C 0.37032 -0.04030 0.27190
 C1701 C 0.39123 -0.04738 0.29700
 C1702 C 0.40407 -0.05313 0.30255
 C1703 C 0.33044 -0.02286 0.27317
 C1704 C 0.31686 -0.01816 0.26851
 H1705 H 0.34395 -0.02484 0.30841
 H1706 H 0.35592 -0.05820 0.30428
 H1707 H 0.37621 -0.01245 0.29967
 H1708 H 0.36610 -0.01146 0.26541
 H1709 H 0.34587 -0.05724 0.27007
 H1710 H 0.37813 -0.04487 0.26131
 C1711 C 0.14232 0.52233 0.70636
 C1712 C 0.12528 0.51964 0.71530
 C1713 C 0.12100 0.53822 0.71218
 C1714 C 0.13779 0.54098 0.70315
 C1715 C 0.15015 0.52740 0.72326
 C1716 C 0.14584 0.54596 0.72012
 C1717 C 0.13338 0.52462 0.73232
 C1718 C 0.12883 0.54329 0.72907
 C1719 C 0.10502 0.54455 0.70568
 C1720 C 0.09212 0.55008 0.70004
 C1721 C 0.16665 0.52173 0.72903
 C1722 C 0.18050 0.51747 0.73331
 H1723 H 0.14804 0.51364 0.69708
 H1724 H 0.11664 0.50889 0.71324
 H1725 H 0.13945 0.54777 0.69108
 H1726 H 0.15448 0.55673 0.72216
 H1727 H 0.13176 0.51782 0.74438
 H1728 H 0.12310 0.55199 0.73834
 C1729 C 0.14112 0.04224 0.22988
 C1730 C 0.13710 0.04783 0.21170
 C1731 C 0.12094 0.03733 0.21226
 C1732 C 0.12470 0.03182 0.23037
 C1733 C 0.15037 0.02683 0.22286
 C1734 C 0.13422 0.01630 0.22344
 C1735 C 0.14658 0.03235 0.20476
 C1736 C 0.13019 0.02192 0.20523
 C1737 C 0.10478 0.04349 0.20603
 C1738 C 0.09173 0.04886 0.20059
 C1739 C 0.16700 0.02133 0.22840
 C1740 C 0.18093 0.01718 0.23256
 H1741 H 0.14580 0.05053 0.24008
 H1742 H 0.13812 0.06086 0.20681
 H1743 H 0.11551 0.03168 0.24082
 H1744 H 0.13323 0.00327 0.22833
 H1745 H 0.15575 0.03251 0.19429
 H1746 H 0.12551 0.01364 0.19503
 C1747 C 0.61180 0.71329 0.23333
 C1748 C 0.61429 0.70051 0.21886
 C1749 C 0.62792 0.71195 0.21144
 C1750 C 0.62570 0.72465 0.22581
 C1751 C 0.59876 0.72257 0.22258
 C1752 C 0.61237 0.73402 0.21515
 C1753 C 0.60101 0.70987 0.20821
 C1754 C 0.61486 0.72123 0.20070
 C1755 C 0.64393 0.70573 0.20492
 C1756 C 0.65685 0.70032 0.19927
 C1757 C 0.58225 0.72814 0.22837
 C1758 C 0.56839 0.73235 0.23266
 H1759 H 0.61035 0.71009 0.24682
 H1760 H 0.61524 0.68666 0.22032
 H1761 H 0.63605 0.73065 0.23297
 H1762 H 0.61140 0.74787 0.21370
 H1763 H 0.59069 0.70385 0.20103
 H1764 H 0.61629 0.72442 0.18720
 C1765 C 0.10275 0.71934 0.70474
 C1766 C 0.11962 0.72880 0.70672
 C1767 C 0.12794 0.71225 0.71214
 C1768 C 0.11131 0.70272 0.71007
 C1769 C 0.09882 0.72300 0.72327
 C1770 C 0.10715 0.70644 0.72868
 C1771 C 0.11544 0.73255 0.72536
 C1772 C 0.12404 0.71589 0.73068
 C1773 C 0.14392 0.70594 0.70564
 C1774 C 0.15681 0.70044 0.70002
 C1775 C 0.08234 0.72863 0.72908
 C1776 C 0.06851 0.73288 0.73340
 H1777 H 0.09383 0.72082 0.69414
 H1778 H 0.12492 0.73792 0.69761
 H1779 H 0.10977 0.69039 0.70371
 H1780 H 0.10184 0.69732 0.73778
 H1781 H 0.11694 0.74488 0.73172
 H1782 H 0.13298 0.71440 0.74127
 C1783 C 0.63570 0.22898 0.52296
 C1784 C 0.62866 0.21097 0.52058
 C1785 C 0.62323 0.21090 0.53908
 C1786 C 0.63001 0.22881 0.54157
 C1787 C 0.65259 0.22139 0.52833
 C1788 C 0.64716 0.22132 0.54683
 C1789 C 0.64580 0.20348 0.52585
 C1790 C 0.64013 0.20333 0.54444
 C1791 C 0.60704 0.20483 0.54528
 C1792 C 0.59391 0.19959 0.55058
 C1793 C 0.66908 0.22704 0.52258
 C1794 C 0.68281 0.23148 0.51811
 H1795 H 0.63408 0.23960 0.51406
 H1796 H 0.62086 0.20664 0.50985
 H1797 H 0.62334 0.23916 0.54810
 H1798 H 0.65495 0.22563 0.55756
 H1799 H 0.65248 0.19313 0.51933
 H1800 H 0.64178 0.19271 0.55333
 C1801 C 0.63601 0.72712 0.02229
 C1802 C 0.63000 0.70861 0.02116
 C1803 C 0.62423 0.70961 0.03953
 C1804 C 0.62997 0.72801 0.04077
 C1805 C 0.65317 0.72092 0.02848
 C1806 C 0.64739 0.72191 0.04685
 C1807 C 0.64743 0.70252 0.02725
 C1808 C 0.64141 0.70342 0.04570
 C1809 C 0.60827 0.70312 0.04590
 C1810 C 0.59530 0.69760 0.05136
 C1811 C 0.66947 0.72699 0.02257
 C1812 C 0.68306 0.73171 0.01798
 H1813 H 0.63398 0.73694 0.01260
 H1814 H 0.62268 0.70307 0.01067
 H1815 H 0.62260 0.73842 0.04640
 H1816 H 0.65472 0.72744 0.05735
 H1817 H 0.65479 0.69210 0.02163
 H1818 H 0.64347 0.69360 0.05539
 C1819 C 0.10816 0.04368 0.02124
 C1820 C 0.11226 0.04838 0.03966
 C1821 C 0.12870 0.03841 0.03833
 C1822 C 0.12485 0.03380 0.01998
 C1823 C 0.09943 0.02764 0.02749
 C1824 C 0.11585 0.01764 0.02614
 C1825 C 0.10330 0.03226 0.04582
 C1826 C 0.11997 0.02236 0.04458
 C1827 C 0.14475 0.04470 0.04470
 C1828 C 0.15772 0.05015 0.05028
 C1829 C 0.08287 0.02201 0.02185
 C1830 C 0.06898 0.01777 0.01764
 H1831 H 0.10312 0.05239 0.01158
 H1832 H 0.11094 0.06108 0.04529
 H1833 H 0.13390 0.03450 0.00943
 H1834 H 0.11713 0.00494 0.02050
 H1835 H 0.09427 0.03157 0.05639
 H1836 H 0.12500 0.01367 0.05425
 C1837 C 0.10382 0.52700 0.54553
 C1838 C 0.12109 0.52213 0.53811
 C1839 C 0.12632 0.54072 0.53876
 C1840 C 0.10928 0.54566 0.54627
 C1841 C 0.09719 0.52988 0.52764
 C1842 C 0.10242 0.54846 0.52830
 C1843 C 0.11420 0.52492 0.52011
 C1844 C 0.11970 0.54361 0.52087
 C1845 C 0.14236 0.54696 0.54522
 C1846 C 0.15536 0.55230 0.55079
 C1847 C 0.08077 0.52408 0.52175
 C1848 C 0.06707 0.51958 0.51723
 H1849 H 0.09710 0.52010 0.55561
 H1850 H 0.12895 0.51138 0.54222
 H1851 H 0.10743 0.55426 0.55710
 H1852 H 0.09456 0.55923 0.52420
 H1853 H 0.11603 0.51633 0.50928
 H1854 H 0.12641 0.55052 0.51080
 C1855 C 0.60823 0.02196 0.54328
 C1856 C 0.62504 0.02024 0.53369
 C1857 C 0.62891 0.03875 0.53764
 C1858 C 0.61235 0.04055 0.54731
 C1859 C 0.59974 0.02764 0.52691
 C1860 C 0.60363 0.04614 0.53087
 C1861 C 0.61627 0.02582 0.51721
 C1862 C 0.62042 0.04443 0.52127
 C1863 C 0.64493 0.04523 0.54394
 C1864 C 0.65786 0.05082 0.54945
 C1865 C 0.58323 0.02182 0.52129
 C1866 C 0.56938 0.01746 0.51706
 H1867 H 0.60304 0.01265 0.55226
 H1868 H 0.63403 0.00966 0.53492
 H1869 H 0.61090 0.04667 0.55975
 H1870 H 0.59465 0.05673 0.52965
 H1871 H 0.61769 0.01969 0.50477
 H1872 H 0.62561 0.05375 0.51230
 C1873 C 0.60521 0.54525 0.02168
 C1874 C 0.60938 0.54952 0.04019
 C1875 C 0.62605 0.54002 0.03841
 C1876 C 0.62213 0.53583 0.01998
 C1877 C 0.59696 0.52881 0.02755
 C1878 C 0.61361 0.51929 0.02575
 C1879 C 0.60089 0.53300 0.04597
 C1880 C 0.61780 0.52358 0.04428
 C1881 C 0.64208 0.54646 0.04470
 C1882 C 0.65509 0.55196 0.05013
 C1883 C 0.58057 0.52283 0.02176
 C1884 C 0.56688 0.51822 0.01730
 H1885 H 0.59985 0.55409 0.01232
 H1886 H 0.60780 0.56202 0.04619
 H1887 H 0.63105 0.53707 0.00936
 H1888 H 0.61516 0.50679 0.01975
 H1889 H 0.59198 0.53177 0.05660
 H1890 H 0.62315 0.51475 0.05365
 C1891 C 0.01762 0.02550 0.11634
 C1892 C 0.03340 0.01884 0.12559
 C1893 C 0.03850 0.03706 0.12952
 C1894 C 0.02283 0.04381 0.12054
 C1895 C 0.02785 0.02657 0.10004
 C1896 C 0.03296 0.04477 0.10400
 C1897 C 0.04353 0.01982 0.10902
 C1898 C 0.04871 0.03811 0.11321
 C1899 C 0.04472 0.04324 0.14570
 C1900 C 0.05011 0.04866 0.15877
 C1901 C 0.02225 0.02112 0.08339
 C1902 C 0.01799 0.01705 0.06945
 H1903 H 0.00477 0.02025 0.11743
 H1904 H 0.03365 0.00825 0.13466
 H1905 H 0.01439 0.05375 0.12546
 H1906 H 0.03272 0.05538 0.09495
 H1907 H 0.05197 0.00989 0.10410
 H1908 H 0.06156 0.04336 0.11208
 C1909 C 0.02209 0.52178 0.61428
 C1910 C 0.04054 0.52123 0.62042
 C1911 C 0.03875 0.53936 0.62682
 C1912 C 0.02040 0.54002 0.62094
 C1913 C 0.02814 0.52879 0.59736
 C1914 C 0.02636 0.54692 0.60376
 C1915 C 0.04648 0.52814 0.60325
 C1916 C 0.04478 0.54635 0.60989
 C1917 C 0.04487 0.54549 0.64306
 C1918 C 0.05013 0.55078 0.65624
 C1919 C 0.02247 0.52315 0.58079
 C1920 C 0.01806 0.51879 0.56698
 H1921 H 0.01270 0.51161 0.61589
 H1922 H 0.04644 0.51073 0.62746
 H1923 H 0.00975 0.54498 0.62840
 H1924 H 0.02047 0.55743 0.59673
 H1925 H 0.05715 0.52319 0.59579
 H1926 H 0.05418 0.55652 0.60825
 C1927 C 0.54586 0.03254 0.60290
 C1928 C 0.53839 0.04761 0.61263
 C1929 C 0.53846 0.03694 0.62871
 C1930 C 0.54603 0.02195 0.61920
 C1931 C 0.52800 0.02626 0.59924
 C1932 C 0.52807 0.01557 0.61530
 C1933 C 0.52044 0.04126 0.60875
 C1934 C 0.52060 0.03067 0.62509
 C1935 C 0.54459 0.04321 0.64490
 C1936 C 0.54993 0.04868 0.65797
 C1937 C 0.52251 0.02069 0.58258
 C1938 C 0.51836 0.01653 0.56863
 H1939 H 0.55619 0.03326 0.59359
 H1940 H 0.54269 0.06085 0.61170
 H1941 H 0.55662 0.01408 0.62368
 H1942 H 0.52376 0.00232 0.61620
 H1943 H 0.50986 0.04913 0.60426
 H1944 H 0.51028 0.02997 0.63440
 C1945 C 0.51804 0.52612 0.11378
 C1946 C 0.53404 0.51982 0.12290
 C1947 C 0.53878 0.53815 0.12675
 C1948 C 0.52289 0.54455 0.11790
 C1949 C 0.52811 0.52737 0.09739
 C1950 C 0.53285 0.54570 0.10126
 C1951 C 0.54400 0.52098 0.10624
 C1952 C 0.54882 0.53939 0.11035
 C1953 C 0.54495 0.54440 0.14292
 C1954 C 0.55027 0.54979 0.15603
 C1955 C 0.52241 0.52165 0.08086
 C1956 C 0.51798 0.51724 0.06707
 H1957 H 0.50532 0.52060 0.11499
 H1958 H 0.53460 0.50926 0.13198
 H1959 H 0.51428 0.55431 0.12287
 H1960 H 0.53231 0.55627 0.09218
 H1961 H 0.55262 0.51123 0.10126
 H1962 H 0.56155 0.54492 0.10910
 C1963 C 0.23121 0.52669 0.63497
 C1964 C 0.21525 0.52037 0.62576
 C1965 C 0.21026 0.53871 0.62235
 C1966 C 0.22610 0.54513 0.63129
 C1967 C 0.22118 0.52744 0.65141
 C1968 C 0.21618 0.54577 0.64797
 C1969 C 0.20534 0.52102 0.64248
 C1970 C 0.20026 0.53944 0.63881
 C1971 C 0.20390 0.54533 0.60641
 C1972 C 0.19840 0.55109 0.59354
 C1973 C 0.22693 0.52159 0.66788
 C1974 C 0.23130 0.51726 0.68170
 H1975 H 0.24400 0.52138 0.63359
 H1976 H 0.21480 0.51000 0.61643
 H1977 H 0.23456 0.55512 0.62651
 H1978 H 0.21662 0.55616 0.65728
 H1979 H 0.19687 0.51103 0.64726
 H1980 H 0.18747 0.54475 0.64022
 C1981 C 0.23192 0.02551 0.13394
 C1982 C 0.21604 0.01910 0.12465
 C1983 C 0.21104 0.03740 0.12108
 C1984 C 0.22680 0.04392 0.13008
 C1985 C 0.22177 0.02636 0.15030
 C1986 C 0.21676 0.04466 0.14669
 C1987 C 0.20601 0.01985 0.14130
 C1988 C 0.20093 0.03823 0.13746
 C1989 C 0.20476 0.04390 0.10505
 C1990 C 0.19931 0.04957 0.09212
 C1991 C 0.22742 0.02064 0.16685
 C1992 C 0.23170 0.01642 0.18074
 H1993 H 0.24472 0.02021 0.13268
 H1994 H 0.21567 0.00866 0.11540
 H1995 H 0.23528 0.05389 0.12529
 H1996 H 0.21712 0.05511 0.15593
 H1997 H 0.19752 0.00988 0.14609
 H1998 H 0.18812 0.04354 0.13875
 C1999 C 0.72122 0.20427 0.60313
 C2000 C 0.72838 0.20986 0.62034
 C2001 C 0.71039 0.21203 0.62686
 C2002 C 0.70315 0.20635 0.60989
 C2003 C 0.72098 0.22274 0.59749
 C2004 C 0.70299 0.22490 0.60401
 C2005 C 0.72823 0.22844 0.61444
 C2006 C 0.71014 0.23050 0.62123
 C2007 C 0.70429 0.20580 0.64305
 C2008 C 0.69906 0.20041 0.65618
 C2009 C 0.72666 0.22843 0.58095
 C2010 C 0.73109 0.23281 0.56717
 H2011 H 0.72583 0.19355 0.59550
 H2012 H 0.73875 0.20361 0.62723
 H2013 H 0.69277 0.19720 0.60819
 H2014 H 0.69261 0.23114 0.59712
 H2015 H 0.73861 0.23759 0.61612
 H2016 H 0.70552 0.24122 0.62886
 C2017 C 0.72125 0.73322 0.11328
 C2018 C 0.70313 0.72729 0.11707
 C2019 C 0.71030 0.71195 0.12635
 C2020 C 0.72832 0.71778 0.12282
 C2021 C 0.72099 0.72277 0.09705
 C2022 C 0.72815 0.70743 0.10632
 C2023 C 0.70297 0.71694 0.10059
 C2024 C 0.71005 0.70152 0.11010
 C2025 C 0.70415 0.70567 0.14250
 C2026 C 0.69889 0.70025 0.15560
 C2027 C 0.72672 0.72854 0.08056
 C2028 C 0.73118 0.73299 0.06681
 H2029 H 0.72592 0.74632 0.11439
 H2030 H 0.69277 0.73538 0.12167
 H2031 H 0.73868 0.71805 0.13214
 H2032 H 0.73851 0.69934 0.10172
 H2033 H 0.69261 0.71666 0.09128
 H2034 H 0.70538 0.68842 0.10897
 C2035 C 0.54572 0.71491 0.14829
 C2036 C 0.53801 0.70020 0.13818
 C2037 C 0.53944 0.71081 0.12212
 C2038 C 0.54726 0.72544 0.13202
 C2039 C 0.52804 0.72208 0.15098
 C2040 C 0.52947 0.73271 0.13495
 C2041 C 0.52023 0.70745 0.14109
 C2042 C 0.52176 0.71797 0.12477
 C2043 C 0.54608 0.70420 0.10630
 C2044 C 0.55181 0.69845 0.09354
 C2045 C 0.52207 0.72794 0.16735
 C2046 C 0.51759 0.73230 0.18111
 H2047 H 0.55552 0.71371 0.15814
 H2048 H 0.54159 0.68677 0.13934
 H2049 H 0.55845 0.73276 0.12812
 H2050 H 0.52588 0.74615 0.13381
 H2051 H 0.50905 0.70012 0.14500
 H2052 H 0.51198 0.71915 0.11491
 C2053 C 0.04562 0.71579 0.64902
 C2054 C 0.03766 0.70134 0.63873
 C2055 C 0.03936 0.71207 0.62278
 C2056 C 0.04742 0.72644 0.63285
 C2057 C 0.02807 0.72328 0.65171
 C2058 C 0.02977 0.73404 0.63579
 C2059 C 0.02002 0.70891 0.64165
 C2060 C 0.02181 0.71955 0.62544
 C2061 C 0.04595 0.70550 0.60692
 C2062 C 0.05164 0.69980 0.59412
 C2063 C 0.02217 0.72912 0.66812
 C2064 C 0.01776 0.73347 0.68191
 H2065 H 0.05536 0.71431 0.65889
 H2066 H 0.04097 0.68782 0.63978
 H2067 H 0.05877 0.73358 0.62907
 H2068 H 0.02645 0.74756 0.63477
 H2069 H 0.00868 0.70176 0.64544
 H2070 H 0.01209 0.72102 0.61556
 C2071 C 0.54439 0.64756 0.21458
 C2072 C 0.54606 0.63150 0.22543
 C2073 C 0.53776 0.62133 0.21127
 C2074 C 0.53618 0.63717 0.20034
 C2075 C 0.52693 0.65061 0.22213
 C2076 C 0.51864 0.64044 0.20797
 C2077 C 0.52850 0.63479 0.23309
 C2078 C 0.52030 0.62434 0.21881
 C2079 C 0.54411 0.60527 0.20491
 C2080 C 0.54964 0.59230 0.19939
 C2081 C 0.52127 0.66717 0.22781
 C2082 C 0.51701 0.68106 0.23207
 H2083 H 0.55423 0.65729 0.21290
 H2084 H 0.55740 0.62765 0.23254
 H2085 H 0.53941 0.63799 0.18681
 H2086 H 0.50730 0.64430 0.20085
 H2087 H 0.52527 0.63400 0.24662
 H2088 H 0.51047 0.61460 0.22048
 C2089 C 0.04204 0.64195 0.72992
 C2090 C 0.03164 0.62548 0.72980
 C2091 C 0.03755 0.62211 0.71175
 C2092 C 0.04803 0.63833 0.71179
 C2093 C 0.02684 0.65139 0.72273
 C2094 C 0.03276 0.64799 0.70469
 C2095 C 0.01633 0.63519 0.72270
 C2096 C 0.02235 0.63155 0.70456
 C2097 C 0.04385 0.60605 0.70535
 C2098 C 0.04935 0.59308 0.69981
 C2099 C 0.02125 0.66795 0.72849
 C2100 C 0.01709 0.68184 0.73284
 H2101 H 0.05007 0.64641 0.74041
 H2102 H 0.03126 0.61603 0.74005
 H2103 H 0.06113 0.63946 0.70724
 H2104 H 0.03316 0.65742 0.69443
 H2105 H 0.00323 0.63410 0.72726
 H2106 H 0.01433 0.62709 0.69406
 C2107 C 0.01920 0.11627 0.02491
 C2108 C 0.02136 0.12126 0.04361
 C2109 C 0.03869 0.12859 0.03947
 C2110 C 0.03665 0.12388 0.02087
 C2111 C 0.02767 0.09934 0.02868
 C2112 C 0.04500 0.10668 0.02455
 C2113 C 0.02972 0.10407 0.04728
 C2114 C 0.04713 0.11164 0.04323
 C2115 C 0.04514 0.14465 0.04578
 C2116 C 0.05073 0.15762 0.05126
 C2117 C 0.02191 0.08279 0.02300
 C2118 C 0.01760 0.06892 0.01870
 H2119 H 0.00765 0.11798 0.01731
 H2120 H 0.01171 0.12743 0.05153
 H2121 H 0.03958 0.13221 0.01008
 H2122 H 0.05466 0.10051 0.01664
 H2123 H 0.02681 0.09575 0.05807
 H2124 H 0.05868 0.10990 0.05082
 C2125 C 0.02230 0.61509 0.52356
 C2126 C 0.02226 0.62080 0.54218
 C2127 C 0.04037 0.62703 0.54012
 C2128 C 0.04053 0.62159 0.52161
 C2129 C 0.02921 0.59793 0.52907
 C2130 C 0.04733 0.60417 0.52702
 C2131 C 0.02907 0.60338 0.54758
 C2132 C 0.04727 0.60986 0.54561
 C2133 C 0.04679 0.64308 0.54648
 C2134 C 0.05228 0.65611 0.55192
 C2135 C 0.02323 0.58156 0.52314
 C2136 C 0.01859 0.56790 0.51851
 H2137 H 0.01196 0.61706 0.51442
 H2138 H 0.01202 0.62783 0.54848
 H2139 H 0.04531 0.62926 0.51100
 H2140 H 0.05757 0.59714 0.52072
 H2141 H 0.02429 0.59572 0.55819
 H2142 H 0.05761 0.60787 0.55475
 C2143 C 0.54464 0.10177 0.53617
 C2144 C 0.54761 0.11740 0.52498
 C2145 C 0.53853 0.12826 0.53809
 C2146 C 0.53565 0.11285 0.54936
 C2147 C 0.52775 0.09891 0.52732
 C2148 C 0.51867 0.10976 0.54043
 C2149 C 0.53062 0.11430 0.51603
 C2150 C 0.52163 0.12543 0.52924
 C2151 C 0.54486 0.14435 0.54439
 C2152 C 0.55038 0.15734 0.54989
 C2153 C 0.52214 0.08231 0.52168
 C2154 C 0.51796 0.06839 0.51741
 H2155 H 0.55404 0.09187 0.53897
 H2156 H 0.55958 0.12072 0.51870
 H2157 H 0.53779 0.11242 0.56313
 H2158 H 0.50670 0.10643 0.54671
 H2159 H 0.52848 0.11469 0.50226
 H2160 H 0.51225 0.13535 0.52646
 C2161 C 0.52732 0.61307 0.01948
 C2162 C 0.52191 0.62177 0.03603
 C2163 C 0.54041 0.62551 0.03991
 C2164 C 0.54593 0.61708 0.02346
 C2165 C 0.52909 0.59640 0.02905
 C2166 C 0.54759 0.60016 0.03293
 C2167 C 0.52358 0.60483 0.04550
 C2168 C 0.54217 0.60882 0.04947
 C2169 C 0.54692 0.64156 0.04617
 C2170 C 0.55245 0.65460 0.05154
 C2171 C 0.52303 0.58002 0.02321
 C2172 C 0.51836 0.56637 0.01863
 H2173 H 0.52113 0.61463 0.00708
 H2174 H 0.51142 0.63084 0.03738
 H2175 H 0.55519 0.62230 0.01446
 H2176 H 0.55808 0.59109 0.03159
 H2177 H 0.51433 0.59961 0.05450
 H2178 H 0.54836 0.60724 0.06186
 C2179 C 0.72432 0.14575 0.54630
 C2180 C 0.70579 0.13997 0.54650
 C2181 C 0.71118 0.12298 0.53907
 C2182 C 0.72964 0.12852 0.53896
 C2183 C 0.72181 0.15239 0.52835
 C2184 C 0.72722 0.13542 0.52091
 C2185 C 0.70336 0.14685 0.52848
 C2186 C 0.70866 0.12962 0.52113
 C2187 C 0.70502 0.10677 0.54526
 C2188 C 0.69971 0.09362 0.55057
 C2189 C 0.72748 0.16895 0.52262
 C2190 C 0.73186 0.18274 0.51817
 H2191 H 0.73082 0.15257 0.55659
 H2192 H 0.69691 0.14168 0.55709
 H2193 H 0.74037 0.12080 0.54334
 H2194 H 0.73610 0.13374 0.51032
 H2195 H 0.69261 0.15456 0.52411
 H2196 H 0.70215 0.12280 0.51085
 C2197 C 0.72783 0.64400 0.04336
 C2198 C 0.70955 0.64037 0.04879
 C2199 C 0.70996 0.62399 0.03855
 C2200 C 0.72816 0.62737 0.03321
 C2201 C 0.72114 0.65316 0.02775
 C2202 C 0.72156 0.63680 0.01749
 C2203 C 0.70295 0.64976 0.03310
 C2204 C 0.70327 0.63315 0.02294
 C2205 C 0.70352 0.60792 0.04481
 C2206 C 0.69801 0.59489 0.05020
 C2207 C 0.72710 0.66960 0.02200
 C2208 C 0.73166 0.68333 0.01755
 H2209 H 0.73800 0.64864 0.05169
 H2210 H 0.70454 0.64167 0.06172
 H2211 H 0.73845 0.61798 0.03333
 H2212 H 0.72658 0.63553 0.00456
 H2213 H 0.69265 0.65914 0.03299
 H2214 H 0.69309 0.62852 0.01461
 C2215 C 0.23000 0.60889 0.70809
 C2216 C 0.21223 0.61235 0.70105
 C2217 C 0.21135 0.62839 0.71177
 C2218 C 0.22904 0.62519 0.71873
 C2219 C 0.22210 0.59910 0.72270
 C2220 C 0.22123 0.61512 0.73345
 C2221 C 0.20441 0.60234 0.71574
 C2222 C 0.20345 0.61860 0.72639
 C2223 C 0.20506 0.64446 0.70539
 C2224 C 0.19956 0.65744 0.69985
 C2225 C 0.22771 0.58254 0.72841
 C2226 C 0.23194 0.56864 0.73269
 H2227 H 0.24099 0.60472 0.70063
 H2228 H 0.20846 0.61138 0.68766
 H2229 H 0.23910 0.63478 0.71988
 H2230 H 0.22500 0.61606 0.74684
 H2231 H 0.19434 0.59277 0.71457
 H2232 H 0.19245 0.62277 0.73384
 C2233 C 0.22990 0.10841 0.20649
 C2234 C 0.21194 0.11195 0.19999
 C2235 C 0.21153 0.12811 0.21056
 C2236 C 0.22941 0.12483 0.21698
 C2237 C 0.22239 0.09885 0.22146
 C2238 C 0.22200 0.11499 0.23206
 C2239 C 0.20452 0.10216 0.21504
 C2240 C 0.20402 0.11854 0.22553
 C2241 C 0.20516 0.14416 0.20420
 C2242 C 0.19961 0.15712 0.19870
 C2243 C 0.22805 0.08231 0.22720
 C2244 C 0.23227 0.06843 0.23154
 H2245 H 0.24060 0.10407 0.19873
 H2246 H 0.20773 0.11086 0.18674
 H2247 H 0.23957 0.13435 0.21770
 H2248 H 0.22620 0.11605 0.24531
 H2249 H 0.19434 0.09266 0.21430
 H2250 H 0.19331 0.12288 0.23328
 C2251 C 0.73015 1.10887 0.70682
 C2252 C 0.71206 1.11255 0.70080
 C2253 C 0.71213 1.12880 0.71123
 C2254 C 0.73014 1.12539 0.71717
 C2255 C 0.72297 1.09952 0.72208
 C2256 C 0.72305 1.11576 0.73254
 C2257 C 0.70496 1.10297 0.71613
 C2258 C 0.70494 1.11945 0.72649
 C2259 C 0.70575 1.14486 0.70491
 C2260 C 0.70017 1.15783 0.69943
 C2261 C 0.72862 1.08296 0.72779
 C2262 C 0.73284 1.06908 0.73210
 H2263 H 0.74059 1.10434 0.69880
 H2264 H 0.70747 1.11139 0.68768
 H2265 H 0.74042 1.13479 0.71752
 H2266 H 0.72763 1.11688 0.74566
 H2267 H 0.69467 1.09358 0.71577
 H2268 H 0.69449 1.12397 0.73451
 C2269 C 0.70474 0.60544 0.22300
 C2270 C 0.71133 0.62278 0.22894
 C2271 C 0.71195 0.62858 0.21054
 C2272 C 0.70527 0.61148 0.20454
 C2273 C 0.72292 0.59932 0.22131
 C2274 C 0.72353 0.60513 0.20292
 C2275 C 0.72963 0.61640 0.22734
 C2276 C 0.73014 0.62247 0.20884
 C2277 C 0.70551 0.64464 0.20425
 C2278 C 0.69991 0.65761 0.19880
 C2279 C 0.72866 0.58277 0.22696
 C2280 C 0.73296 0.56889 0.23122
 H2281 H 0.69435 0.59826 0.22889
 H2282 H 0.70624 0.63023 0.23956
 H2283 H 0.69518 0.60961 0.19510
 H2284 H 0.72861 0.59769 0.19229
 H2285 H 0.73972 0.61823 0.23678
 H2286 H 0.74051 0.62966 0.20294
 C2287 C 0.54160 0.14014 0.73015
 C2288 C 0.53103 0.12378 0.72976
 C2289 C 0.53736 0.12035 0.71187
 C2290 C 0.54800 0.13645 0.71218
 C2291 C 0.52669 0.14974 0.72259
 C2292 C 0.53302 0.14628 0.70470
 C2293 C 0.51601 0.13366 0.72229
 C2294 C 0.52244 0.12996 0.70430
 C2295 C 0.54363 0.10422 0.70560
 C2296 C 0.54911 0.09120 0.70017
 C2297 C 0.52110 0.16636 0.72821
 C2298 C 0.51690 0.18027 0.73245
 H2299 H 0.54941 0.14451 0.74084
 H2300 H 0.53029 0.11433 0.73999
 H2301 H 0.56123 0.13744 0.70795
 H2302 H 0.53377 0.15571 0.69446
 H2303 H 0.50279 0.13271 0.72652
 H2304 H 0.51463 0.12559 0.69360
 C2305 C 1.03331 0.14637 0.20485
 C2306 C 1.04844 0.13669 0.21224
 C2307 C 1.03785 0.12055 0.21230
 C2308 C 1.02280 0.12999 0.20481
 C2309 C 1.02721 0.15004 0.22277
 C2310 C 1.01660 0.13392 0.22284
 C2311 C 1.04227 0.14060 0.23025
 C2312 C 1.03176 0.12420 0.23023
 C2313 C 1.04410 0.10436 0.20617
 C2314 C 1.04954 0.09128 0.20082
 C2315 C 1.02167 0.16671 0.22828
 C2316 C 1.01753 0.18065 0.23246
 H2317 H 1.03389 0.15566 0.19446
 H2318 H 1.06160 0.13767 0.20782
 H2319 H 1.01486 0.12545 0.19428
 H2320 H 1.00344 0.13297 0.22726
 H2321 H 1.05021 0.14514 0.24077
 H2322 H 1.03120 0.11489 0.24060
 C2323 C 0.20632 0.64435 0.52250
 C2324 C 0.21624 0.62760 0.52200
 C2325 C 0.21070 0.62403 0.54012
 C2326 C 0.20070 0.64052 0.54071
 C2327 C 0.22198 0.65321 0.52947
 C2328 C 0.21644 0.64961 0.54759
 C2329 C 0.23200 0.63673 0.52888
 C2330 C 0.22636 0.63288 0.54710
 C2331 C 0.20418 0.60795 0.54626
 C2332 C 0.19857 0.59492 0.55154
 C2333 C 0.22796 0.66965 0.52377
 C2334 C 0.23253 0.68338 0.51932
 H2335 H 0.19815 0.64925 0.51233
 H2336 H 0.21607 0.61837 0.51155
 H2337 H 0.18776 0.64191 0.54563
 H2338 H 0.21659 0.65884 0.55805
 H2339 H 0.24494 0.63537 0.52395
 H2340 H 0.23452 0.62799 0.55728
 C2341 C 0.20710 0.14233 1.02156
 C2342 C 0.21762 0.12596 1.02191
 C2343 C 0.21116 0.12242 1.03973
 C2344 C 0.20055 0.13855 1.03946
 C2345 C 0.22199 0.15186 1.02930
 C2346 C 0.21552 0.14831 1.04711
 C2347 C 0.23261 0.13576 1.02956
 C2348 C 0.22604 0.13195 1.04747
 C2349 C 0.20488 0.10620 1.04575
 C2350 C 0.19948 0.09304 1.05094
 C2351 C 0.22775 0.16843 1.02370
 C2352 C 0.23218 0.18223 1.01933
 H2353 H 0.19938 0.14679 1.01085
 H2354 H 0.21841 0.11658 1.01161
 H2355 H 0.18730 0.13953 1.04360
 H2356 H 0.21472 0.15768 1.05742
 H2357 H 0.24586 0.13480 1.02542
 H2358 H 0.23376 0.12750 1.05819
 C2359 C 0.22273 0.70383 0.60403
 C2360 C 0.22873 0.71048 0.62131
 C2361 C 0.21039 0.71132 0.62710
 C2362 C 0.20430 0.70458 0.61006
 C2363 C 0.22120 0.72205 0.59782
 C2364 C 0.20286 0.72289 0.60361
 C2365 C 0.22730 0.72881 0.61484
 C2366 C 0.20885 0.72955 0.62089
 C2367 C 0.20417 0.70513 0.64326
 C2368 C 0.19886 0.69981 0.65638
 C2369 C 0.22702 0.72781 0.58136
 C2370 C 0.23158 0.73229 0.56765
 H2371 H 0.22850 0.69332 0.59691
 H2372 H 0.23930 0.70531 0.62877
 H2373 H 0.19478 0.69456 0.60827
 H2374 H 0.19228 0.72804 0.59615
 H2375 H 0.23682 0.73884 0.61661
 H2376 H 0.20307 0.74005 0.62801
 C2377 C 0.20247 0.21656 1.10194
 C2378 C 0.20846 0.20027 1.11072
 C2379 C 0.21014 0.21008 1.12726
 C2380 C 0.20406 0.22629 1.11872
 C2381 C 0.22081 0.22092 1.09796
 C2382 C 0.22250 0.23075 1.11449
 C2383 C 0.22689 0.20470 1.10650
 C2384 C 0.22848 0.21443 1.12329
 C2385 C 0.20401 0.20382 1.14342
 C2386 C 0.19875 0.19844 1.15654
 C2387 C 0.22655 0.22671 1.08149
 C2388 C 0.23106 0.23122 1.06778
 H2389 H 0.19184 0.21750 1.09297
 H2390 H 0.20263 0.18767 1.10934
 H2391 H 0.19460 0.23509 1.12392
 H2392 H 0.22833 0.24335 1.11584
 H2393 H 0.23633 0.19589 1.10129
 H2394 H 0.23911 0.21348 1.13226
 C2395 C 0.70606 0.52144 0.14140
 C2396 C 0.70108 0.53988 0.13772
 C2397 C 0.71083 0.53899 0.12112
 C2398 C 0.71573 0.52063 0.12455
 C2399 C 0.72208 0.52777 0.15009
 C2400 C 0.73186 0.52687 0.13351
 C2401 C 0.71717 0.54613 0.14662
 C2402 C 0.72685 0.54533 0.12980
 C2403 C 0.70427 0.54556 0.10523
 C2404 C 0.69859 0.55126 0.09242
 C2405 C 0.72798 0.52193 0.16650
 C2406 C 0.73242 0.51759 0.18030
 H2407 H 0.69758 0.51155 0.14635
 H2408 H 0.68835 0.54531 0.13929
 H2409 H 0.71506 0.51022 0.11528
 H2410 H 0.74458 0.52144 0.13197
 H2411 H 0.71783 0.55656 0.15587
 H2412 H 0.73532 0.55523 0.12485
 C2413 C 0.73129 1.02320 0.63365
 C2414 C 0.71363 1.01991 0.62614
 C2415 C 0.71245 1.03859 0.62134
 C2416 C 0.73000 1.04198 0.62857
 C2417 C 0.72309 1.02746 0.65057
 C2418 C 0.72190 1.04613 0.64575
 C2419 C 0.70555 1.02408 0.64333
 C2420 C 0.70428 1.04282 0.63828
 C2421 C 0.70619 1.04510 0.60531
 C2422 C 0.70072 1.05073 0.59237
 C2423 C 0.72867 1.02168 0.66712
 C2424 C 0.73287 1.01738 0.68101
 H2425 H 0.74246 1.01506 0.63194
 H2426 H 0.71016 1.00921 0.61789
 H2427 H 0.73998 1.04942 0.62233
 H2428 H 0.72536 1.05685 0.65399
 H2429 H 0.69556 1.01665 0.64958
 H2430 H 0.69312 1.05096 0.64003
 C2431 C 0.54470 0.21454 0.64817
 C2432 C 0.53634 0.20071 0.63735
 C2433 C 0.53842 0.21194 0.62180
 C2434 C 0.54687 0.22570 0.63240
 C2435 C 0.52737 0.22245 0.65108
 C2436 C 0.52945 0.23371 0.63555
 C2437 C 0.51893 0.20869 0.64049
 C2438 C 0.52109 0.21985 0.62468
 C2439 C 0.54486 0.20573 0.60574
 C2440 C 0.55042 0.20028 0.59278
 C2441 C 0.52159 0.22792 0.66765
 C2442 C 0.51724 0.23202 0.68154
 H2443 H 0.55435 0.21241 0.65800
 H2444 H 0.53925 0.18707 0.63793
 H2445 H 0.55844 0.23262 0.62889
 H2446 H 0.52654 0.24735 0.63501
 H2447 H 0.50737 0.20176 0.64401
 H2448 H 0.51146 0.22196 0.61483
 C2449 C 1.02022 0.22720 0.13389
 C2450 C 1.03807 0.23023 0.12679
 C2451 C 1.03896 0.21161 0.12173
 C2452 C 1.02123 0.20847 0.12856
 C2453 C 1.02803 0.22253 0.15091
 C2454 C 1.02894 0.20391 0.14583
 C2455 C 1.04576 0.22566 0.14407
 C2456 C 1.04675 0.20697 0.13876
 C2457 C 1.04535 0.20520 0.10572
 C2458 C 1.05087 0.19961 0.09280
 C2459 C 1.02231 0.22821 0.16743
 C2460 C 1.01801 0.23245 0.18130
 H2461 H 1.00925 0.23558 0.13209
 H2462 H 1.04189 0.24098 0.11877
 H2463 H 1.01121 0.20132 0.12200
 H2464 H 1.02513 0.19315 0.15383
 H2465 H 1.05579 0.23280 0.15063
 H2466 H 1.05772 0.19858 0.14060
 C2467 C 0.60266 0.21839 0.70461
 C2468 C 0.61936 0.22816 0.70641
 C2469 C 0.62800 0.21183 0.71198
 C2470 C 0.61152 0.20198 0.71009
 C2471 C 0.59873 0.22218 0.72312
 C2472 C 0.60737 0.20584 0.72868
 C2473 C 0.61519 0.23205 0.72502
 C2474 C 0.62410 0.21561 0.73049
 C2475 C 0.64405 0.20574 0.70547
 C2476 C 0.65701 0.20041 0.69983
 C2477 C 0.58218 0.22761 0.72891
 C2478 C 0.56830 0.23172 0.73320
 H2479 H 0.59366 0.21959 0.69403
 H2480 H 0.62446 0.23727 0.69718
 H2481 H 0.61018 0.18955 0.70388
 H2482 H 0.60227 0.19672 0.73791
 H2483 H 0.61650 0.24448 0.73124
 H2484 H 0.63311 0.21439 0.74106
 C2485 C 1.10278 0.21695 0.20443
 C2486 C 1.11941 0.22698 0.20518
 C2487 C 1.12835 0.21114 0.21163
 C2488 C 1.11195 0.20103 0.21078
 C2489 C 1.09923 0.22194 0.22272
 C2490 C 1.10818 0.20610 0.22916
 C2491 C 1.11561 0.23208 0.22358
 C2492 C 1.12483 0.21612 0.22993
 C2493 C 1.14432 0.20481 0.20513
 C2494 C 1.15720 0.19930 0.19949
 C2495 C 1.08275 0.22759 0.22850
 C2496 C 1.06892 0.23184 0.23281
 H2497 H 1.09354 0.21735 0.19400
 H2498 H 1.12420 0.23550 0.19524
 H2499 H 1.11060 0.18820 0.20545
 H2500 H 1.10338 0.19757 0.23909
 H2501 H 1.11693 0.24491 0.22892
 H2502 H 1.13409 0.21571 0.24034
 C2503 C 0.13672 0.73220 0.52840
 C2504 C 0.12751 0.71633 0.52181
 C2505 C 0.12406 0.71104 0.54004
 C2506 C 0.13300 0.72680 0.54673
 C2507 C 0.15312 0.72210 0.52903
 C2508 C 0.14965 0.71680 0.54725
 C2509 C 0.14418 0.70634 0.52234
 C2510 C 0.14048 0.70096 0.54065
 C2511 C 0.10806 0.70465 0.54640
 C2512 C 0.09508 0.69916 0.55186
 C2513 C 0.16950 0.72799 0.52317
 C2514 C 0.18319 0.73252 0.51867
 H2515 H 0.13536 0.74511 0.52329
 H2516 H 0.11821 0.71607 0.51143
 H2517 H 0.12823 0.73514 0.55683
 H2518 H 0.15894 0.71706 0.55764
 H2519 H 0.14896 0.69800 0.51225
 H2520 H 0.14187 0.68805 0.54576
 C2521 C 0.14020 0.21045 1.01848
 C2522 C 0.13744 0.19918 1.03410
 C2523 C 0.12300 0.21072 1.03957
 C2524 C 0.12549 0.22190 1.02404
 C2525 C 0.15229 0.22141 1.02880
 C2526 C 0.13786 0.23296 1.03427
 C2527 C 0.14977 0.21022 1.04432
 C2528 C 0.13509 0.22167 1.04988
 C2529 C 0.10686 0.20454 1.04581
 C2530 C 0.09377 0.19923 1.05118
 C2531 C 0.16878 0.22711 1.02307
 C2532 C 0.18254 0.23153 1.01866
 H2533 H 0.14248 0.20590 1.00551
 H2534 H 0.13710 0.18523 1.03410
 H2535 H 0.11532 0.22664 1.01578
 H2536 H 0.13822 0.24691 1.03427
 H2537 H 0.15992 0.20548 1.05260
 H2538 H 0.13282 0.22622 1.06286
 C2539 C 0.64234 0.52087 0.20610
 C2540 C 0.62568 0.51964 0.21601
 C2541 C 0.62178 0.53795 0.21125
 C2542 C 0.63819 0.53925 0.20126
 C2543 C 0.65110 0.52731 0.22205
 C2544 C 0.64717 0.54561 0.21728
 C2545 C 0.63471 0.52599 0.23207
 C2546 C 0.63053 0.54439 0.22720
 C2547 C 0.60569 0.54417 0.20492
 C2548 C 0.59270 0.54959 0.19941
 C2549 C 0.66767 0.52175 0.22768
 C2550 C 0.68157 0.51756 0.23189
 H2551 H 0.64738 0.51113 0.19749
 H2552 H 0.61665 0.50903 0.21541
 H2553 H 0.63947 0.54477 0.18852
 H2554 H 0.65619 0.55624 0.21787
 H2555 H 0.63347 0.52047 0.24481
 H2556 H 0.62550 0.55414 0.23581
 C2557 C 0.64356 1.02266 0.70537
 C2558 C 0.62658 1.01878 0.71399
 C2559 C 0.62159 1.03732 0.71191
 C2560 C 0.63832 1.04127 0.70320
 C2561 C 0.65107 1.02703 0.72260
 C2562 C 0.64606 1.04556 0.72051
 C2563 C 0.63437 1.02307 0.73133
 C2564 C 0.62910 1.04171 0.72914
 C2565 C 0.60540 1.04337 0.70565
 C2566 C 0.59232 1.04865 0.70021
 C2567 C 0.66772 1.02164 0.72820
 C2568 C 0.68165 1.01757 0.73243
 H2569 H 0.64968 1.01476 0.69565
 H2570 H 0.61838 1.00784 0.71123
 H2571 H 0.63978 1.04881 0.69157
 H2572 H 0.65425 1.05652 0.72325
 H2573 H 0.63294 1.01552 0.74296
 H2574 H 0.62298 1.04961 0.73885
 C2575 C 0.86369 0.47177 0.26891
 C2576 C 0.87278 0.47814 0.28492
 C2577 C 0.87621 0.45981 0.28996
 C2578 C 0.86739 0.45335 0.27406
 C2579 C 0.84722 0.47099 0.27885
 C2580 C 0.85067 0.45267 0.28390
 C2581 C 0.85604 0.47745 0.29476
 C2582 C 0.85973 0.45904 0.29989
 C2583 C 0.89221 0.45338 0.29634
 C2584 C 0.90520 0.44789 0.30180
 C2585 C 0.83090 0.47697 0.27288
 C2586 C 0.81728 0.48159 0.26821
 H2587 H 0.86513 0.47708 0.25610
 H2588 H 0.88206 0.48854 0.28541
 H2589 H 0.87223 0.44336 0.26561
 H2590 H 0.84140 0.44227 0.28342
 H2591 H 0.85119 0.48743 0.30320
 H2592 H 0.85826 0.45374 0.31270
 C2593 C 0.85186 0.97037 0.79864
 C2594 C 0.85922 0.95276 0.79491
 C2595 C 0.87628 0.96096 0.79128
 C2596 C 0.86916 0.97849 0.79510
 C2597 C 0.84741 0.97222 0.77995
 C2598 C 0.86445 0.98044 0.77631
 C2599 C 0.85454 0.95469 0.77614
 C2600 C 0.87184 0.96280 0.77259
 C2601 C 0.89219 0.95445 0.79779
 C2602 C 0.90508 0.94885 0.80336
 C2603 C 0.83112 0.97819 0.77390
 C2604 C 0.81750 0.98275 0.76921
 H2605 H 0.84346 0.97355 0.80928
 H2606 H 0.85724 0.94132 0.80263
 H2607 H 0.87535 0.98820 0.80298
 H2608 H 0.86641 0.99189 0.76859
 H2609 H 0.84835 0.94497 0.76828
 H2610 H 0.88024 0.95961 0.76196
 C2611 C 0.38551 0.27080 0.77453
 C2612 C 0.37986 0.27118 0.79315
 C2613 C 0.37354 0.28925 0.79063
 C2614 C 0.37893 0.28898 0.77212
 C2615 C 0.40260 0.27798 0.77986
 C2616 C 0.39627 0.29605 0.77735
 C2617 C 0.39720 0.27826 0.79837
 C2618 C 0.39064 0.29641 0.79594
 C2619 C 0.35751 0.29574 0.79682
 C2620 C 0.34450 0.30128 0.80213
 C2621 C 0.41895 0.27198 0.77404
 C2622 C 0.43258 0.26737 0.76946
 H2623 H 0.38360 0.26020 0.76566
 H2624 H 0.37293 0.26102 0.79972
 H2625 H 0.37123 0.29347 0.76139
 H2626 H 0.40320 0.30622 0.77079
 H2627 H 0.40489 0.27378 0.80910
 H2628 H 0.39258 0.30701 0.80481
 C2629 C 0.88598 0.27153 0.27289
 C2630 C 0.87983 0.27090 0.29134
 C2631 C 0.87402 0.28925 0.28980
 C2632 C 0.87990 0.28999 0.27145
 C2633 C 0.90308 0.27793 0.27909
 C2634 C 0.89726 0.29628 0.27756
 C2635 C 0.89719 0.27719 0.29744
 C2636 C 0.89113 0.29562 0.29598
 C2637 C 0.85800 0.29578 0.29597
 C2638 C 0.84501 0.30138 0.30127
 C2639 C 0.91946 0.27192 0.27335
 C2640 C 0.93313 0.26734 0.26888
 H2641 H 0.88406 0.26155 0.26333
 H2642 H 0.87248 0.26053 0.29708
 H2643 H 0.87261 0.29533 0.26083
 H2644 H 0.90460 0.30665 0.27183
 H2645 H 0.90448 0.27186 0.30806
 H2646 H 0.89308 0.30560 0.30554
 C2647 C 0.35286 0.79631 0.46738
 C2648 C 0.36962 0.79554 0.47719
 C2649 C 0.37833 0.78905 0.46126
 C2650 C 0.36180 0.78991 0.45137
 C2651 C 0.34932 0.77800 0.47242
 C2652 C 0.35803 0.77151 0.45649
 C2653 C 0.36583 0.77713 0.48234
 C2654 C 0.37482 0.77074 0.46629
 C2655 C 0.39424 0.79552 0.45474
 C2656 C 0.40708 0.80114 0.44910
 C2657 C 0.33290 0.77225 0.47828
 C2658 C 0.31910 0.76798 0.48269
 H2659 H 0.34366 0.80676 0.46789
 H2660 H 0.37456 0.80550 0.48562
 H2661 H 0.36029 0.79523 0.43857
 H2662 H 0.35308 0.76156 0.44805
 H2663 H 0.36730 0.77181 0.49514
 H2664 H 0.38403 0.76030 0.46577
 C2665 C 0.36502 0.26616 0.97275
 C2666 C 0.36864 0.27229 0.95464
 C2667 C 0.37811 0.28748 0.96190
 C2668 C 0.37476 0.28146 0.97992
 C2669 C 0.34890 0.27673 0.97282
 C2670 C 0.35836 0.29192 0.98007
 C2671 C 0.35228 0.28276 0.95481
 C2672 C 0.36197 0.29802 0.96198
 C2673 C 0.39414 0.29379 0.95553
 C2674 C 0.40709 0.29929 0.95001
 C2675 C 0.33237 0.27112 0.97855
 C2676 C 0.31852 0.26694 0.98288
 H2677 H 0.36607 0.25300 0.97726
 H2678 H 0.37305 0.26429 0.94411
 H2679 H 0.38419 0.28100 0.99017
 H2680 H 0.35395 0.29992 0.99060
 H2681 H 0.34286 0.28323 0.94454
 H2682 H 0.36088 0.31118 0.95748
 C2683 C 0.79617 0.46623 0.35062
 C2684 C 0.79594 0.47671 0.36701
 C2685 C 0.78874 0.46144 0.37636
 C2686 C 0.78906 0.45088 0.36021
 C2687 C 0.77817 0.47201 0.34691
 C2688 C 0.77097 0.45674 0.35625
 C2689 C 0.77784 0.48259 0.36305
 C2690 C 0.77073 0.46722 0.37267
 C2691 C 0.79487 0.45533 0.39260
 C2692 C 0.80018 0.45007 0.40576
 C2693 C 0.77254 0.47766 0.33033
 C2694 C 0.76821 0.48204 0.31651
 H2695 H 0.80657 0.46588 0.34138
 H2696 H 0.80628 0.48485 0.37162
 H2697 H 0.79373 0.43777 0.35921
 H2698 H 0.76063 0.44859 0.35164
 H2699 H 0.77316 0.49570 0.36402
 H2700 H 0.76034 0.46755 0.38192
 C2701 C 0.79724 0.97460 0.85389
 C2702 C 0.78935 0.97853 0.87122
 C2703 C 0.79107 0.95989 0.87595
 C2704 C 0.79905 0.95588 0.85887
 C2705 C 0.77966 0.97081 0.84694
 C2706 C 0.78139 0.95217 0.85168
 C2707 C 0.77166 0.97483 0.86401
 C2708 C 0.77349 0.95608 0.86901
 C2709 C 0.79762 0.95360 0.89196
 C2710 C 0.80320 0.94821 0.90495
 C2711 C 0.77358 0.97669 0.83061
 C2712 C 0.76890 0.98130 0.81698
 H2713 H 0.80694 0.98228 0.84749
 H2714 H 0.79271 0.98930 0.87944
 H2715 H 0.81038 0.94802 0.85692
 H2716 H 0.77804 0.94139 0.84347
 H2717 H 0.76033 0.98269 0.86594
 H2718 H 0.76380 0.94839 0.87541
 C2719 C 0.29495 0.77429 0.39411
 C2720 C 0.28645 0.77123 0.37687
 C2721 C 0.28897 0.78990 0.37259
 C2722 C 0.29757 0.79303 0.38959
 C2723 C 0.27777 0.77874 0.40157
 C2724 C 0.28031 0.79740 0.39728
 C2725 C 0.26914 0.77559 0.38460
 C2726 C 0.27178 0.79436 0.38005
 C2727 C 0.29554 0.79641 0.35670
 C2728 C 0.30123 0.80204 0.34387
 C2729 C 0.27193 0.77290 0.41800
 C2730 C 0.26760 0.76852 0.43181
 H2731 H 0.30441 0.76597 0.40007
 H2732 H 0.28905 0.76055 0.36829
 H2733 H 0.30932 0.80027 0.39148
 H2734 H 0.27772 0.80810 0.40584
 H2735 H 0.25738 0.76834 0.38275
 H2736 H 0.26233 0.80269 0.37409
 C2737 C 0.29273 0.27082 0.89271
 C2738 C 0.28278 0.27061 0.87598
 C2739 C 0.28837 0.28880 0.87270
 C2740 C 0.29841 0.28909 0.88918
 C2741 C 0.27712 0.27769 0.90167
 C2742 C 0.28272 0.29587 0.89837
 C2743 C 0.26705 0.27738 0.88522
 C2744 C 0.27276 0.29567 0.88166
 C2745 C 0.29498 0.29529 0.85682
 C2746 C 0.30073 0.30091 0.84401
 C2747 C 0.27127 0.27187 0.91810
 C2748 C 0.26695 0.26750 0.93192
 H2749 H 0.30086 0.26053 0.89743
 H2750 H 0.28288 0.26030 0.86658
 H2751 H 0.31137 0.29398 0.89065
 H2752 H 0.28263 0.30620 0.90775
 H2753 H 0.25409 0.27249 0.88378
 H2754 H 0.26463 0.30597 0.87694
 C2755 C 0.45466 0.27253 0.85598
 C2756 C 0.46360 0.26947 0.87300
 C2757 C 0.46097 0.28808 0.87746
 C2758 C 0.45194 0.29121 0.86070
 C2759 C 0.47161 0.27724 0.84815
 C2760 C 0.46897 0.29584 0.85263
 C2761 C 0.48066 0.27409 0.86489
 C2762 C 0.47793 0.29280 0.86963
 C2763 C 0.45480 0.29435 0.89361
 C2764 C 0.44947 0.29974 0.90670
 C2765 C 0.47728 0.27147 0.83163
 C2766 C 0.48165 0.26703 0.81785
 H2767 H 0.44515 0.26413 0.85019
 H2768 H 0.46132 0.25870 0.88155
 H2769 H 0.44007 0.29832 0.85914
 H2770 H 0.47124 0.30662 0.84408
 H2771 H 0.49254 0.26698 0.86642
 H2772 H 0.48743 0.30120 0.87543
 C2773 C 0.95348 0.28369 0.35118
 C2774 C 0.95434 0.27356 0.36776
 C2775 C 0.96093 0.28933 0.37677
 C2776 C 0.95997 0.29954 0.36042
 C2777 C 0.97169 0.27866 0.34743
 C2778 C 0.97828 0.29443 0.35644
 C2779 C 0.97265 0.26844 0.36377
 C2780 C 0.97915 0.28431 0.37304
 C2781 C 0.95472 0.29547 0.39295
 C2782 C 0.94939 0.30074 0.40608
 C2783 C 0.97745 0.27292 0.33095
 C2784 C 0.98193 0.26842 0.31722
 H2785 H 0.94298 0.28338 0.34201
 H2786 H 0.94442 0.26505 0.37260
 H2787 H 0.95470 0.31240 0.35921
 H2788 H 0.98818 0.30295 0.35159
 H2789 H 0.97793 0.25558 0.36495
 H2790 H 0.98963 0.28463 0.38222
 C2791 C 0.47233 0.36318 0.76937
 C2792 C 0.45371 0.36745 0.77297
 C2793 C 0.45903 0.37555 0.78967
 C2794 C 0.47754 0.37155 0.78617
 C2795 C 0.47006 0.34641 0.77866
 C2796 C 0.47537 0.35451 0.79536
 C2797 C 0.45155 0.35043 0.78216
 C2798 C 0.45677 0.35877 0.79894
 C2799 C 0.45268 0.39160 0.79605
 C2800 C 0.44726 0.40462 0.80155
 C2801 C 0.47595 0.33000 0.77281
 C2802 C 0.48052 0.31629 0.76829
 H2803 H 0.47879 0.36480 0.75714
 H2804 H 0.44473 0.37296 0.76384
 H2805 H 0.48815 0.38042 0.78790
 H2806 H 0.48433 0.34901 0.80450
 H2807 H 0.44093 0.34157 0.78044
 H2808 H 0.45031 0.35712 0.81116
 C2809 C 0.95311 0.35042 0.28388
 C2810 C 0.95960 0.35960 0.29975
 C2811 C 0.96016 0.37609 0.28974
 C2812 C 0.95358 0.36715 0.27395
 C2813 C 0.97134 0.34703 0.27865
 C2814 C 0.97191 0.36352 0.26862
 C2815 C 0.97791 0.35598 0.29445
 C2816 C 0.97839 0.37273 0.28452
 C2817 C 0.95371 0.39210 0.29615
 C2818 C 0.94819 0.40508 0.30166
 C2819 C 0.97729 0.33064 0.27276
 C2820 C 0.98188 0.31694 0.26824
 H2821 H 0.94278 0.34106 0.28355
 H2822 H 0.95447 0.35815 0.31263
 H2823 H 0.94350 0.37192 0.26559
 H2824 H 0.97704 0.36494 0.25575
 H2825 H 0.98799 0.35121 0.30281
 H2826 H 0.98871 0.38209 0.28486
 C2827 C 0.29399 0.85905 0.48012
 C2828 C 0.30048 0.86215 0.46207
 C2829 C 0.29018 0.87845 0.46136
 C2830 C 0.28377 0.87560 0.47932
 C2831 C 0.27888 0.84957 0.47277
 C2832 C 0.26854 0.86584 0.47207
 C2833 C 0.28529 0.85244 0.45482
 C2834 C 0.27507 0.86896 0.45401
 C2835 C 0.29677 0.89427 0.45467
 C2836 C 0.30248 0.90703 0.44886
 C2837 C 0.27297 0.83318 0.47871
 C2838 C 0.26854 0.81940 0.48313
 H2839 H 0.30170 0.85479 0.49092
 H2840 H 0.31368 0.86079 0.45788
 H2841 H 0.28322 0.88532 0.48931
 H2842 H 0.25534 0.86717 0.47626
 H2843 H 0.28586 0.84275 0.44480
 H2844 H 0.26736 0.87321 0.44320
 C2845 C 0.27057 0.35794 0.95774
 C2846 C 0.27016 0.37461 0.96783
 C2847 C 0.28826 0.37817 0.96228
 C2848 C 0.28875 0.36176 0.95211
 C2849 C 0.27753 0.34892 0.97332
 C2850 C 0.29562 0.35251 0.96776
 C2851 C 0.27703 0.36531 0.98352
 C2852 C 0.29522 0.36915 0.97785
 C2853 C 0.29455 0.39421 0.95581
 C2854 C 0.30002 0.40717 0.95020
 C2855 C 0.27190 0.33237 0.97908
 C2856 C 0.26766 0.31849 0.98338
 H2857 H 0.26037 0.35315 0.94954
 H2858 H 0.25977 0.38388 0.96778
 H2859 H 0.29363 0.36045 0.93912
 H2860 H 0.30603 0.34325 0.96780
 H2861 H 0.27214 0.36658 0.99650
 H2862 H 0.30543 0.37394 0.98605
 C2863 C 0.78490 0.39927 0.29565
 C2864 C 0.77493 0.38257 0.29509
 C2865 C 0.79069 0.37359 0.28858
 C2866 C 0.80074 0.39007 0.28923
 C2867 C 0.77975 0.40270 0.27737
 C2868 C 0.79551 0.39373 0.27086
 C2869 C 0.76968 0.38624 0.27671
 C2870 C 0.78555 0.37700 0.27029
 C2871 C 0.79699 0.35756 0.29507
 C2872 C 0.80237 0.34455 0.30065
 C2873 C 0.77389 0.41910 0.27141
 C2874 C 0.76934 0.43280 0.26684
 H2875 H 0.78457 0.40861 0.30601
 H2876 H 0.76654 0.37780 0.30513
 H2877 H 0.81358 0.39148 0.29445
 H2878 H 0.80391 0.39850 0.26083
 H2879 H 0.75684 0.38486 0.27148
 H2880 H 0.78589 0.36766 0.25994
   
