data_POSCAR
  _audit_creation_date              2014-09-24
  _audit_creation_method            'ToBaCCo'
  _symmetry_space_group_name_H-M    'P1'
  _symmetry_Int_Tables_number       1
  _symmetry_cell_setting            triclinic
  loop_
  _symmetry_equiv_pos_as_xyz
 x,y,z
_cell_length_a 57.1641
_cell_length_b 57.1517
_cell_length_c 61.4607
_cell_angle_alpha 89.366300
_cell_angle_beta 90.547600
_cell_angle_gamma 91.431300
loop_
  _atom_site_label
  _atom_site_type_symbol
  _atom_site_fract_x
  _atom_site_fract_y
  _atom_site_fract_z
C1 C 0.42095 0.01376 0.27417
 C2 C 0.40366 0.03385 0.27189
 C3 C 0.38916 0.03190 0.25413
 C4 C 0.39317 0.00998 0.24039
 C5 C 0.40570 -0.00857 0.27430
 C6 C 0.39112 -0.01064 0.25679
 C7 C 0.43395 0.01363 0.25249
 C8 C 0.41944 0.01180 0.23478
 H9 H 0.40353 0.04868 0.28279
 H10 H 0.38136 0.00821 0.22601
 H11 H 0.40590 -0.02138 0.28751
 H12 H 0.45273 0.01665 0.25116
 C13 C 0.08241 -0.00134 0.77435
 C14 C 0.09663 -0.02381 0.77320
 C15 C 0.11074 -0.02447 0.75533
 C16 C 0.10929 -0.00259 0.74042
 C17 C 0.10073 0.01863 0.77347
 C18 C 0.11488 0.01806 0.75582
 C19 C 0.06963 -0.00004 0.75389
 C20 C 0.08436 -0.00082 0.73524
 H21 H 0.09539 -0.03794 0.78513
 H22 H 0.12079 -0.00300 0.72594
 H23 H 0.10266 0.03186 0.78599
 H24 H 0.05064 0.00007 0.75273
 C25 C 0.58489 0.49808 0.27529
 C26 C 0.59920 0.47572 0.27421
 C27 C 0.61327 0.47496 0.25636
 C28 C 0.61182 0.49666 0.24130
 C29 C 0.60296 0.51819 0.27408
 C30 C 0.61709 0.51754 0.25646
 C31 C 0.57142 0.49909 0.25367
 C32 C 0.58546 0.49823 0.23588
 H33 H 0.59793 0.46161 0.28616
 H34 H 0.62326 0.49617 0.22681
 H35 H 0.60480 0.53158 0.28645
 H36 H 0.55245 0.49942 0.25253
 C37 C 0.92072 0.51399 0.77372
 C38 C 0.90353 0.53415 0.77141
 C39 C 0.88898 0.53221 0.75368
 C40 C 0.89285 0.51022 0.74000
 C41 C 0.90536 0.49173 0.77394
 C42 C 0.89074 0.48968 0.75646
 C43 C 0.93367 0.51372 0.75201
 C44 C 0.91911 0.51190 0.73433
 H45 H 0.90346 0.54900 0.78229
 H46 H 0.88100 0.50847 0.72564
 H47 H 0.90550 0.47898 0.78720
 H48 H 0.95246 0.51662 0.75064
 C49 C 0.27367 0.36518 0.99844
 C50 C 0.27044 0.34804 1.01753
 C51 C 0.25065 0.33438 1.01611
 C52 C 0.23564 0.33904 0.99563
 C53 C 0.27252 0.34990 0.97803
 C54 C 0.25260 0.33624 0.97656
 C55 C 0.25107 0.37921 0.99762
 C56 C 0.23117 0.36551 0.99609
 H57 H 0.28250 0.34719 1.03129
 H58 H 0.21951 0.32784 0.99451
 H59 H 0.28576 0.35057 0.96545
 H60 H 0.25085 0.39821 0.99789
 C61 C 0.77300 0.13688 1.00243
 C62 C 0.77332 0.15429 0.98336
 C63 C 0.75409 0.16785 0.98218
 C64 C 0.73607 0.16265 1.00030
 C65 C 0.76979 0.15196 1.02271
 C66 C 0.75034 0.16546 1.02159
 C67 C 0.75122 0.12339 1.00011
 C68 C 0.73089 0.13754 0.99906
 H69 H 0.78734 0.15549 0.97154
 H70 H 0.72040 0.17378 0.99924
 H71 H 0.78080 0.15078 1.03716
 H72 H 0.75018 0.10440 1.00132
 C73 C 0.27375 0.63769 0.50219
 C74 C 0.27363 0.65456 0.48278
 C75 C 0.25443 0.66809 0.48160
 C76 C 0.23674 0.66350 0.50005
 C77 C 0.27073 0.65314 0.52221
 C78 C 0.25128 0.66659 0.52109
 C79 C 0.25070 0.62345 0.50036
 C80 C 0.23130 0.63695 0.49938
 H81 H 0.28750 0.65556 0.47079
 H82 H 0.22106 0.67457 0.49900
 H83 H 0.28183 0.65213 0.53662
 H84 H 0.24970 0.60446 0.50146
 C85 C 0.77448 0.86521 0.49854
 C86 C 0.77103 0.84808 0.51761
 C87 C 0.75115 0.83454 0.51608
 C88 C 0.73631 0.83931 0.49552
 C89 C 0.77336 0.84994 0.47813
 C90 C 0.75337 0.83641 0.47654
 C91 C 0.75198 0.87939 0.49761
 C92 C 0.73200 0.86582 0.49598
 H93 H 0.78299 0.84715 0.53143
 H94 H 0.72011 0.82822 0.49430
 H95 H 0.78670 0.85050 0.46564
 H96 H 0.75188 0.89839 0.49796
 C97 C -0.01755 0.27913 0.39309
 C98 C 0.00757 0.28353 0.38512
 C99 C 0.01425 0.26755 0.37030
 C100 C -0.00454 0.24887 0.36476
 C101 C -0.03213 0.27867 0.37368
 C102 C -0.02484 0.26205 0.35813
 C103 C -0.01785 0.25395 0.40198
 C104 C -0.01091 0.23813 0.38700
 H105 H 0.01920 0.29736 0.39120
 H106 H 0.00106 0.23593 0.35258
 H107 H -0.04810 0.28847 0.37184
 H108 H -0.02116 0.24937 0.41890
 C109 C 0.00028 0.75816 0.09792
 C110 C -0.01368 0.76802 0.11673
 C111 C -0.01427 0.75366 0.13450
 C112 C -0.00128 0.73082 0.13191
 C113 C 0.02443 0.75312 0.10762
 C114 C 0.02344 0.73878 0.12543
 C115 C -0.01096 0.73416 0.09326
 C116 C -0.01172 0.71989 0.11120
 H117 H -0.02306 0.78431 0.11576
 H118 H -0.00200 0.71908 0.14646
 H119 H 0.04053 0.76172 0.10214
 H120 H -0.01512 0.72804 0.07696
 C121 C 0.50007 0.25896 0.59947
 C122 C 0.48587 0.26877 0.61815
 C123 C 0.48503 0.25435 0.63587
 C124 C 0.49804 0.23149 0.63336
 C125 C 0.52409 0.25387 0.60942
 C126 C 0.52286 0.23945 0.62718
 C127 C 0.48887 0.23499 0.59462
 C128 C 0.48787 0.22065 0.61251
 H129 H 0.47649 0.28506 0.61711
 H130 H 0.49713 0.21971 0.64787
 H131 H 0.54028 0.26241 0.60411
 H132 H 0.48495 0.22893 0.57826
 C133 C 0.48323 0.77868 0.89538
 C134 C 0.50854 0.78218 0.88764
 C135 C 0.51472 0.76604 0.87276
 C136 C 0.49531 0.74809 0.86701
 C137 C 0.46825 0.77920 0.87459
 C138 C 0.47474 0.76313 0.85972
 C139 C 0.48156 0.75479 0.90352
 C140 C 0.48828 0.73800 0.88782
 H141 H 0.52051 0.79575 0.89364
 H142 H 0.50043 0.73504 0.85473
 H143 H 0.45312 0.79015 0.87239
 H144 H 0.47839 0.75026 0.92049
 C145 C -0.23623 0.67085 0.97611
 C146 C -0.21630 0.65338 0.97834
 C147 C -0.21832 0.63889 0.99613
 C148 C -0.24016 0.64308 1.00994
 C149 C -0.25868 0.65577 0.97608
 C150 C -0.26082 0.64121 0.99362
 C151 C -0.23620 0.68385 0.99778
 C152 C -0.23810 0.66935 1.01551
 H153 H -0.20150 0.65314 0.96740
 H154 H -0.24199 0.63128 1.02434
 H155 H -0.27153 0.65608 0.96292
 H156 H -0.23304 0.70262 0.99907
 C157 C -0.25149 0.33239 0.47576
 C158 C -0.27395 0.34666 0.47679
 C159 C -0.27463 0.36091 0.49454
 C160 C -0.25279 0.35956 0.50947
 C161 C -0.23151 0.35072 0.47650
 C162 C -0.23211 0.36501 0.49402
 C163 C -0.25025 0.31978 0.49633
 C164 C -0.25105 0.33466 0.51485
 H165 H -0.28806 0.34534 0.46486
 H166 H -0.25321 0.37117 0.52385
 H167 H -0.21829 0.35257 0.46395
 H168 H -0.25020 0.30079 0.49764
 C169 C 0.24916 -0.16634 -0.02474
 C170 C 0.22669 -0.15212 -0.02362
 C171 C 0.22594 -0.13808 -0.00573
 C172 C 0.24775 -0.13957 0.00923
 C173 C 0.26912 -0.14801 -0.02379
 C174 C 0.26847 -0.13392 -0.00612
 C175 C 0.25037 -0.17919 -0.00429
 C176 C 0.24951 -0.16451 0.01437
 H177 H 0.21260 -0.15336 -0.03557
 H178 H 0.24728 -0.12811 0.02372
 H179 H 0.28241 -0.14605 -0.03627
 H180 H 0.25048 -0.19818 -0.00316
 C181 C 0.26430 1.17103 0.47605
 C182 C 0.28434 1.15371 0.47837
 C183 C 0.28229 1.13916 0.49612
 C184 C 0.26033 1.14316 0.50980
 C185 C 0.24195 1.15580 0.47586
 C186 C 0.23979 1.14118 0.49336
 C187 C 0.26409 1.18398 0.49775
 C188 C 0.26216 1.16942 0.51544
 H189 H 0.29921 1.15357 0.46749
 H190 H 0.25848 1.13131 0.52418
 H191 H 0.22920 1.15605 0.46262
 H192 H 0.26709 1.20276 0.49910
 C193 C 0.11509 0.52422 0.25073
 C194 C 0.09799 0.52076 0.23167
 C195 C 0.08444 0.50089 0.23325
 C196 C 0.08917 0.48606 0.25384
 C197 C 0.09979 0.52313 0.27115
 C198 C 0.08625 0.50314 0.27278
 C199 C 0.12925 0.50170 0.25172
 C200 C 0.11567 0.48174 0.25340
 H201 H 0.09704 0.53274 0.21785
 H202 H 0.07807 0.46986 0.25509
 H203 H 0.10033 0.53648 0.28361
 H204 H 0.14824 0.50159 0.25140
 C205 C -0.11214 1.02202 0.24798
 C206 C -0.09466 1.02238 0.26697
 C207 C -0.08108 1.00317 0.26814
 C208 C -0.08632 0.98512 0.25009
 C209 C -0.09712 1.01881 0.22764
 C210 C -0.08360 0.99937 0.22876
 C211 C -0.12559 1.00023 0.25041
 C212 C -0.11141 0.97991 0.25145
 H213 H -0.09344 1.03643 0.27876
 H214 H -0.07517 0.96946 0.25114
 H215 H -0.09835 1.02981 0.21317
 H216 H -0.14457 0.99916 0.24922
 C217 C 0.38801 0.52409 -0.25238
 C218 C 0.40488 0.52392 -0.23299
 C219 C 0.41832 0.50466 -0.23179
 C220 C 0.41364 0.48695 -0.25017
 C221 C 0.40343 0.52096 -0.27241
 C222 C 0.41679 0.50144 -0.27125
 C223 C 0.37367 0.50109 -0.25046
 C224 C 0.38708 0.48163 -0.24945
 H225 H 0.40599 0.53783 -0.22107
 H226 H 0.42463 0.47121 -0.24910
 H227 H 0.40247 0.53204 -0.28685
 H228 H 0.35469 0.50018 -0.25156
 C229 C 0.61548 0.02449 -0.24853
 C230 C 0.59835 0.02120 -0.26759
 C231 C 0.58471 0.00138 -0.26608
 C232 C 0.58940 -0.01357 -0.24556
 C233 C 0.60021 0.02337 -0.22810
 C234 C 0.58659 0.00343 -0.22654
 C235 C 0.62954 0.00191 -0.24766
 C236 C 0.61588 -0.01801 -0.24605
 H237 H 0.59747 0.03322 -0.28138
 H238 H 0.57823 -0.02973 -0.24436
 H239 H 0.60086 0.03664 -0.21557
 H240 H 0.64854 0.00172 -0.24799
 C241 C 0.02702 0.23268 0.85425
 C242 C 0.03091 0.25784 0.86226
 C243 C 0.01481 0.26412 0.87715
 C244 C -0.00351 0.24494 0.88264
 C245 C 0.02715 0.21742 0.87490
 C246 C 0.01112 0.22400 0.88977
 C247 C 0.00317 0.23155 0.84601
 C248 C -0.01358 0.23836 0.86172
 H249 H 0.04468 0.26969 0.85638
 H250 H -0.01653 0.25011 0.89493
 H251 H 0.03790 0.20213 0.87703
 H252 H -0.00131 0.22868 0.82900
 C253 C 0.50930 0.25049 0.15147
 C254 C 0.51909 0.23648 0.13266
 C255 C 0.50475 0.23597 0.11490
 C256 C 0.48198 0.24909 0.11750
 C257 C 0.50441 0.27468 0.14175
 C258 C 0.49007 0.27378 0.12396
 C259 C 0.48525 0.23937 0.15616
 C260 C 0.47099 0.23870 0.13823
 H261 H 0.53529 0.22693 0.13366
 H262 H 0.47026 0.24845 0.10296
 H263 H 0.51299 0.29075 0.14728
 H264 H 0.47911 0.23522 0.17246
 C265 C 0.00893 0.74955 0.65149
 C266 C 0.01850 0.73527 0.63277
 C267 C 0.00415 0.73484 0.61501
 C268 C -0.01842 0.74832 0.61753
 C269 C 0.00438 0.77375 0.64163
 C270 C -0.00997 0.77294 0.62385
 C271 C -0.01527 0.73882 0.65625
 C272 C -0.02954 0.73824 0.63832
 H273 H 0.03459 0.72556 0.63379
 H274 H -0.03015 0.74775 0.60299
 H275 H 0.01317 0.78976 0.64708
 H276 H -0.02145 0.73483 0.67257
 C277 C 0.52965 0.73369 0.35508
 C278 C 0.53444 0.75835 0.36390
 C279 C 0.51839 0.76484 0.37871
 C280 C 0.49918 0.74641 0.38346
 C281 C 0.52849 0.71768 0.37514
 C282 C 0.51254 0.72448 0.38996
 C283 C 0.50463 0.73410 0.34602
 C284 C 0.48877 0.74083 0.36099
 H285 H 0.54859 0.76991 0.35832
 H286 H 0.48617 0.75178 0.39565
 H287 H 0.53856 0.70189 0.37703
 H288 H 0.50016 0.73110 0.32903
 Zr289 Zr 0.01848 -0.02463 1.02975
 O290 O 0.04157 -0.01773 1.05619
 O291 O 0.01438 -0.06119 1.03163
 O292 O 0.00279 -0.03147 1.06037
 O293 O 0.06222 -0.02328 0.99115
 O294 O -0.03282 -0.01457 1.05714
 O295 O 0.05229 -0.03777 1.02461
 O296 O -0.01110 -0.07007 1.00399
 O297 O -0.01699 -0.03010 1.02187
 O298 O 0.01705 -0.03384 0.99693
 O299 O 0.00246 0.00732 1.03609
 O300 O 0.03557 0.00319 1.01282
 Zr301 Zr -0.01901 0.02079 0.97669
 Zr302 Zr -0.03257 0.00219 1.02664
 Zr303 Zr 0.03232 -0.00584 0.97995
 Zr304 Zr -0.01817 -0.03793 0.98878
 O305 O 0.06217 0.01629 0.97560
 O306 O -0.05074 -0.05309 0.99840
 O307 O -0.00269 -0.01101 0.97002
 O308 O -0.03570 -0.00683 0.99382
 O309 O -0.01769 0.03049 1.00942
 O310 O 0.01641 0.02613 0.98464
 C311 C 0.00219 -0.07576 1.02007
 C312 C 0.06661 -0.03517 1.00858
 C313 C -0.01737 -0.02606 1.06785
 O314 O -0.06403 -0.01792 1.02917
 O315 O -0.06074 0.02300 1.01710
 O316 O -0.05177 0.03583 0.98288
 C317 C -0.06521 0.03478 0.99966
 O318 O 0.04231 0.03456 1.04362
 Zr319 Zr 0.01767 0.03446 1.01749
 O320 O -0.01513 0.05721 0.97447
 O321 O -0.03850 0.02696 1.05120
 O322 O 0.00406 0.05526 1.04254
 O323 O 0.04909 0.05168 1.00739
 O324 O 0.00815 0.06678 1.00354
 C325 C -0.00452 0.07211 0.98687
 O326 O -0.04363 0.01429 0.95136
 O327 O 0.04026 -0.03216 0.95740
 O328 O -0.00467 0.02476 0.94511
 O329 O 0.03066 0.00715 0.94801
 O330 O -0.00488 -0.06057 0.96500
 O331 O -0.03982 -0.03790 0.96047
 C332 C 0.01483 0.01794 0.93717
 H333 H 0.02545 -0.04833 0.99375
 H334 H -0.05229 -0.00872 0.98927
 H335 H 0.02402 0.03856 0.97565
 H336 H 0.00389 0.01137 1.05167
 H337 H -0.05166 -0.06919 0.99257
 H338 H -0.07316 -0.01103 1.04102
 H339 H -0.05412 0.02315 1.05736
 H340 H 0.01288 0.07041 1.04242
 H341 H -0.01470 -0.07511 0.96517
 H342 H 0.05581 -0.02798 0.95126
 H343 H 0.07150 0.00931 0.96392
 H344 H 0.04922 0.06766 1.01350
 H345 H -0.04742 -0.05354 0.95876
 H346 H -0.04682 0.02955 0.94419
 H347 H 0.04515 -0.03299 1.06317
 H348 H 0.04654 0.05092 1.04746
 Zr349 Zr 0.51881 0.47584 0.52995
 O350 O 0.54189 0.48298 0.55635
 O351 O 0.51475 0.43931 0.53205
 O352 O 0.50312 0.46920 0.56060
 O353 O 0.56259 0.47696 0.49139
 O354 O 0.46746 0.48600 0.55723
 O355 O 0.55262 0.46265 0.52490
 O356 O 0.48936 0.43019 0.50441
 O357 O 0.48336 0.47026 0.52205
 O358 O 0.51745 0.46644 0.49718
 O359 O 0.50272 0.50781 0.53610
 O360 O 0.53588 0.50360 0.51291
 Zr361 Zr 0.48133 0.52087 0.47660
 Zr362 Zr 0.46771 0.50254 0.52662
 Zr363 Zr 0.53270 0.49436 0.48009
 Zr364 Zr 0.48225 0.46222 0.48900
 O365 O 0.56256 0.51648 0.47574
 O366 O 0.44968 0.44706 0.49864
 O367 O 0.49772 0.48906 0.47012
 O368 O 0.46466 0.49333 0.49385
 O369 O 0.48257 0.53076 0.50927
 O370 O 0.51672 0.52632 0.48459
 C371 C 0.50262 0.42464 0.52056
 C372 C 0.56694 0.46514 0.50888
 C373 C 0.48293 0.47463 0.56802
 O374 O 0.43629 0.48238 0.52920
 O375 O 0.43953 0.52326 0.51693
 O376 O 0.44855 0.53592 0.48267
 C377 C 0.43509 0.53495 0.49943
 O378 O 0.54253 0.53516 0.54353
 Zr379 Zr 0.51791 0.53485 0.51739
 O380 O 0.48510 0.55727 0.47420
 O381 O 0.46167 0.52745 0.55104
 O382 O 0.50425 0.55576 0.54234
 O383 O 0.54927 0.55212 0.50722
 O384 O 0.50826 0.56707 0.50328
 C385 C 0.49561 0.57227 0.48656
 O386 O 0.45678 0.51411 0.45127
 O387 O 0.54069 0.46796 0.45764
 O388 O 0.49576 0.52476 0.44505
 O389 O 0.53113 0.50726 0.44813
 O390 O 0.49562 0.43945 0.46537
 O391 O 0.46066 0.46205 0.46065
 C392 C 0.51532 0.51800 0.43721
 H393 H 0.52586 0.45194 0.49409
 H394 H 0.44807 0.49138 0.48928
 H395 H 0.52433 0.53873 0.47556
 H396 H 0.50411 0.51196 0.55166
 H397 H 0.44881 0.43093 0.49289
 H398 H 0.42713 0.48932 0.54101
 H399 H 0.44604 0.52365 0.55718
 H400 H 0.51303 0.57093 0.54214
 H401 H 0.48582 0.42489 0.46562
 H402 H 0.55625 0.47212 0.45151
 H403 H 0.57192 0.50947 0.46411
 H404 H 0.54934 0.56814 0.51323
 H405 H 0.45309 0.44638 0.45901
 H406 H 0.45355 0.52931 0.44401
 H407 H 0.54548 0.46778 0.56344
 H408 H 0.54675 0.55155 0.54727
 Zr409 Zr 0.47478 1.00002 0.53587
 O410 O 0.44718 0.98342 0.55334
 O411 O 0.47943 1.03129 0.55275
 O412 O 0.48577 0.99269 0.56821
 O413 O 0.44001 1.02172 0.49437
 O414 O 0.51896 0.97190 0.56396
 O415 O 0.44309 1.01820 0.53129
 O416 O 0.51159 1.04814 0.53676
 O417 O 0.51132 1.00388 0.53620
 O418 O 0.48342 1.02355 0.51074
 O419 O 0.48760 0.96619 0.53163
 O420 O 0.46040 0.98513 0.50729
 Zr421 Zr 0.52018 0.97881 0.47656
 Zr422 Zr 0.52404 0.97058 0.53021
 Zr423 Zr 0.47100 1.00814 0.48224
 Zr424 Zr 0.51971 1.02642 0.51047
 O425 O 0.44183 0.99452 0.46460
 O426 O 0.55070 1.03136 0.52927
 O427 O 0.50747 1.01286 0.48067
 O428 O 0.53416 0.99370 0.50517
 O429 O 0.51172 0.95498 0.50159
 O430 O 0.48369 0.97496 0.47651
 C431 C 0.49520 1.04757 0.55103
 C432 C 0.43230 1.02468 0.51372
 C433 C 0.50354 0.98158 0.57578
 O434 O 0.55527 0.98325 0.54520
 O435 O 0.55281 0.95304 0.51766
 O436 O 0.55092 0.95921 0.48099
 C437 C 0.56072 0.95071 0.49828
 O438 O 0.44574 0.94346 0.52157
 Zr439 Zr 0.47527 0.95240 0.50214
 O440 O 0.51555 0.94721 0.46006
 O441 O 0.52334 0.93603 0.54296
 O442 O 0.48246 0.92030 0.51820
 O443 O 0.44572 0.94537 0.48191
 O444 O 0.48577 0.92871 0.47832
 C445 C 0.50155 0.92965 0.46350
 O446 O 0.54890 0.99446 0.45990
 O447 O 0.46935 1.04352 0.47190
 O448 O 0.51092 0.98891 0.44434
 O449 O 0.47878 1.01113 0.44903
 O450 O 0.51216 1.05976 0.49705
 O451 O 0.54659 1.03740 0.48870
 C452 C 0.49443 1.00203 0.43709
 H453 H 0.47651 1.03911 0.51254
 H454 H 0.55140 0.99551 0.50435
 H455 H 0.47731 0.96873 0.46265
 H456 H 0.48286 0.95570 0.54383
 H457 H 0.55337 1.04845 0.53096
 H458 H 0.56135 0.97029 0.55431
 H459 H 0.53748 0.93454 0.55227
 H460 H 0.47328 0.90780 0.51070
 H461 H 0.52187 1.07151 0.50501
 H462 H 0.45532 1.04475 0.46240
 H463 H 0.43560 1.00760 0.45575
 H464 H 0.44358 0.92813 0.48113
 H465 H 0.55433 1.05190 0.49417
 H466 H 0.55313 0.98363 0.44814
 H467 H 0.44278 0.99429 0.56500
 H468 H 0.44032 0.92728 0.51831
 Zr469 Zr -0.02627 0.49901 1.03564
 O470 O -0.05395 0.48261 1.05316
 O471 O -0.02136 0.53025 1.05251
 O472 O -0.01525 0.49163 1.06796
 O473 O -0.06093 0.52099 0.99418
 O474 O 0.01773 0.47054 1.06366
 O475 O -0.05784 0.51742 1.03110
 O476 O 0.01093 0.54683 1.03652
 O477 O 0.01029 0.50257 1.03592
 O478 O -0.01748 0.52249 1.01051
 O479 O -0.01373 0.46507 1.03136
 O480 O -0.04080 0.48426 1.00707
 Zr481 Zr 0.01886 0.47745 0.97625
 Zr482 Zr 0.02273 0.46916 1.02990
 Zr483 Zr -0.03005 0.50720 0.98201
 Zr484 Zr 0.01883 0.52506 1.01019
 O485 O -0.05933 0.49384 0.96436
 O486 O 0.04988 0.52973 1.02897
 O487 O 0.00645 0.51161 0.98040
 O488 O 0.03299 0.49222 1.00486
 O489 O 0.01025 0.45366 1.00127
 O490 O -0.01765 0.47392 0.97624
 C491 C -0.00546 0.54640 1.05079
 C492 C -0.06860 0.52397 1.01354
 C493 C 0.00245 0.48038 1.07550
 O494 O 0.05407 0.48157 1.04487
 O495 O 0.05136 0.45145 1.01732
 O496 O 0.04949 0.45766 0.98065
 C497 C 0.05927 0.44911 0.99793
 O498 O -0.05573 0.44264 1.02139
 Zr499 Zr -0.02622 0.45140 1.00188
 O500 O 0.01388 0.44591 0.95969
 O501 O 0.02176 0.43460 1.04261
 O502 O -0.01918 0.41921 1.01784
 O503 O -0.05592 0.44468 0.98175
 O504 O -0.01608 0.42770 0.97793
 C505 C -0.00036 0.42852 0.96307
 O506 O 0.04769 0.49284 0.95955
 O507 O -0.03144 0.54262 0.97173
 O508 O 0.00968 0.48772 0.94406
 O509 O -0.02226 0.51020 0.94881
 O510 O 0.01152 0.55847 0.99679
 O511 O 0.04577 0.53585 0.98841
 C512 C -0.00669 0.50101 0.93684
 H513 H -0.02427 0.53811 1.01233
 H514 H 0.05024 0.49391 1.00402
 H515 H -0.02411 0.46777 0.96238
 H516 H -0.01854 0.45462 1.04356
 H517 H 0.05269 0.54680 1.03067
 H518 H 0.06005 0.46855 1.05396
 H519 H 0.03590 0.43299 1.05190
 H520 H -0.02848 0.40679 1.01035
 H521 H 0.02132 0.57015 1.00476
 H522 H -0.04547 0.54397 0.96224
 H523 H -0.06545 0.50699 0.95553
 H524 H -0.05823 0.42747 0.98095
 H525 H 0.05362 0.55029 0.99388
 H526 H 0.05180 0.48198 0.94777
 H527 H -0.05823 0.49353 1.06482
 H528 H -0.06126 0.42648 1.01813
 Zr529 Zr -0.02928 0.49342 0.46998
 O530 O -0.05060 0.50434 0.44360
 O531 O -0.02960 0.45715 0.46602
 O532 O -0.01316 0.48767 0.43951
 O533 O -0.07374 0.49399 0.50788
 O534 O 0.02416 0.50176 0.44467
 O535 O -0.06447 0.48164 0.47394
 O536 O -0.00639 0.44399 0.49370
 O537 O 0.00515 0.48491 0.47837
 O538 O -0.02994 0.48145 0.50226
 O539 O -0.00937 0.52456 0.46571
 O540 O -0.04372 0.52072 0.48804
 Zr541 Zr 0.01145 0.53163 0.52631
 Zr542 Zr 0.02457 0.51634 0.47580
 Zr543 Zr -0.04248 0.50884 0.52043
 Zr544 Zr 0.00432 0.47419 0.51091
 O545 O -0.06996 0.53236 0.52503
 O546 O 0.03522 0.45778 0.50089
 O547 O -0.00857 0.50048 0.53085
 O548 O 0.02551 0.50446 0.50811
 O549 O 0.01232 0.54396 0.49413
 O550 O -0.02290 0.53996 0.51776
 C551 C -0.01979 0.44076 0.47699
 C552 C -0.07879 0.48351 0.48995
 C553 C 0.00797 0.49199 0.43301
 O554 O 0.05396 0.49478 0.47322
 O555 O 0.05444 0.53486 0.48701
 O556 O 0.04589 0.54532 0.52166
 C557 C 0.05959 0.54503 0.50507
 O558 O -0.04608 0.55460 0.45898
 Zr559 Zr -0.02213 0.55094 0.48538
 O560 O 0.01191 0.56792 0.53016
 O561 O 0.03400 0.54241 0.45255
 O562 O -0.00566 0.57268 0.46157
 O563 O -0.05147 0.56966 0.49586
 O564 O -0.00885 0.58126 0.50088
 C565 C 0.00384 0.58440 0.51806
 O566 O 0.03425 0.52117 0.55177
 O567 O -0.05398 0.48144 0.54152
 O568 O -0.00371 0.53462 0.55758
 O569 O -0.04060 0.51921 0.55298
 O570 O -0.01221 0.45067 0.53320
 O571 O 0.02522 0.47007 0.53942
 C572 C -0.02419 0.52848 0.56472
 H573 H -0.04000 0.46732 0.50454
 H574 H 0.04168 0.50116 0.51294
 H575 H -0.02934 0.55215 0.52716
 H576 H -0.00977 0.52988 0.45033
 H577 H 0.03396 0.44114 0.50555
 H578 H 0.06420 0.50200 0.46195
 H579 H 0.04937 0.53814 0.44664
 H580 H -0.01280 0.58828 0.46225
 H581 H -0.00432 0.43547 0.53222
 H582 H -0.06922 0.48605 0.54749
 H583 H -0.08043 0.52513 0.53612
 H584 H -0.04947 0.58600 0.49050
 H585 H 0.03084 0.45383 0.54026
 H586 H 0.03901 0.53549 0.55984
 H587 H -0.05571 0.49003 0.43568
 H588 H -0.04843 0.57143 0.45591
 Zr589 Zr 0.47188 -0.00608 -0.02905
 O590 O 0.45052 0.00460 -0.05549
 O591 O 0.47172 -0.04238 -0.03285
 O592 O 0.48800 -0.01192 -0.05948
 O593 O 0.42738 -0.00546 0.00882
 O594 O 0.52527 0.00234 -0.05440
 O595 O 0.43671 -0.01795 -0.02506
 O596 O 0.49499 -0.05528 -0.00511
 O597 O 0.50633 -0.01442 -0.02061
 O598 O 0.47124 -0.01788 0.00328
 O599 O 0.49167 0.02511 -0.03345
 O600 O 0.45732 0.02127 -0.01113
 Zr601 Zr 0.51245 0.03258 0.02711
 Zr602 Zr 0.52564 0.01706 -0.02331
 Zr603 Zr 0.45858 0.00957 0.02131
 Zr604 Zr 0.50553 -0.02496 0.01199
 O605 O 0.43101 0.03301 0.02578
 O606 O 0.53651 -0.04131 0.00210
 O607 O 0.49253 0.00138 0.03179
 O608 O 0.52661 0.00536 0.00905
 O609 O 0.51328 0.04473 -0.00512
 O610 O 0.47806 0.04074 0.01851
 C611 C 0.48163 -0.05866 -0.02182
 C612 C 0.42237 -0.01603 -0.00908
 C613 C 0.50911 -0.00754 -0.06601
 O614 O 0.55509 -0.00443 -0.02580
 O615 O 0.55546 0.03572 -0.01217
 O616 O 0.54685 0.04635 0.02242
 C617 C 0.56057 0.04601 0.00584
 O618 O 0.45483 0.05497 -0.04033
 Zr619 Zr 0.47882 0.05155 -0.01391
 O620 O 0.51279 0.06889 0.03079
 O621 O 0.53501 0.04305 -0.04667
 O622 O 0.49520 0.07321 -0.03784
 O623 O 0.44942 0.07024 -0.00352
 O624 O 0.49201 0.08200 0.00142
 C625 C 0.50470 0.08528 0.01858
 O626 O 0.53527 0.02235 0.05264
 O627 O 0.44718 -0.01776 0.04252
 O628 O 0.49725 0.03566 0.05837
 O629 O 0.46040 0.02012 0.05380
 O630 O 0.48905 -0.04845 0.03435
 O631 O 0.52639 -0.02884 0.04055
 C632 C 0.47678 0.02948 0.06551
 H633 H 0.46123 -0.03204 0.00561
 H634 H 0.54279 0.00215 0.01390
 H635 H 0.47157 0.05296 0.02785
 H636 H 0.49126 0.03035 -0.04886
 H637 H 0.53532 -0.05792 0.00685
 H638 H 0.56531 0.00276 -0.03710
 H639 H 0.55039 0.03880 -0.05256
 H640 H 0.48801 0.08879 -0.03724
 H641 H 0.49701 -0.06361 0.03344
 H642 H 0.43191 -0.01318 0.04845
 H643 H 0.42057 0.02581 0.03689
 H644 H 0.45136 0.08655 -0.00897
 H645 H 0.53207 -0.04505 0.04149
 H646 H 0.53996 0.03674 0.06064
 H647 H 0.44546 -0.00976 -0.06335
 H648 H 0.45243 0.07177 -0.04349
 Zr649 Zr 0.52863 0.51891 -0.03092
 O650 O 0.55273 0.50564 -0.05332
 O651 O 0.52561 0.55360 -0.04193
 O652 O 0.51459 0.51789 -0.06304
 O653 O 0.57016 0.52730 0.00982
 O654 O 0.47808 0.50173 -0.05826
 O655 O 0.56286 0.53360 -0.02629
 O656 O 0.49919 0.56869 -0.01867
 O657 O 0.49309 0.52562 -0.02654
 O658 O 0.52600 0.53628 -0.00129
 O659 O 0.51130 0.48594 -0.03118
 O660 O 0.54328 0.49631 -0.00729
 Zr661 Zr 0.48621 0.48736 0.02803
 Zr662 Zr 0.47615 0.49282 -0.02520
 Zr663 Zr 0.53872 0.51340 0.02234
 Zr664 Zr 0.49065 0.54172 0.00360
 O665 O 0.56712 0.49349 0.03382
 O666 O 0.45893 0.55360 -0.01030
 O667 O 0.50361 0.52038 0.02873
 O668 O 0.47189 0.50985 0.00440
 O669 O 0.48866 0.46972 -0.00151
 O670 O 0.52169 0.48075 0.02356
 C671 C 0.51287 0.57022 -0.03515
 C672 C 0.57620 0.53473 -0.00919
 C673 C 0.49433 0.51081 -0.07020
 O674 O 0.44588 0.51141 -0.03405
 O675 O 0.44641 0.47486 -0.01330
 O676 O 0.45280 0.47090 0.02320
 C677 C 0.44027 0.46777 0.00578
 O678 O 0.55021 0.45802 -0.02982
 Zr679 Zr 0.52416 0.46437 -0.00631
 O680 O 0.48770 0.45243 0.03798
 O681 O 0.47020 0.46238 -0.04396
 O682 O 0.51089 0.43770 -0.02709
 O683 O 0.55405 0.45039 0.00930
 O684 O 0.51201 0.43625 0.01345
 C685 C 0.49809 0.43497 0.02980
 O686 O 0.46142 0.50052 0.04983
 O687 O 0.54682 0.54511 0.03856
 O688 O 0.49983 0.48932 0.06029
 O689 O 0.53467 0.50912 0.05596
 O690 O 0.50460 0.57012 0.02195
 O691 O 0.46802 0.54906 0.02977
 C692 C 0.51882 0.49916 0.06780
 H693 H 0.53489 0.55137 -0.00105
 H694 H 0.45520 0.51266 0.00735
 H695 H 0.52832 0.47089 0.03532
 H696 H 0.51323 0.47812 -0.04532
 H697 H 0.45866 0.57079 -0.00841
 H698 H 0.43695 0.50159 -0.04459
 H699 H 0.45514 0.46438 -0.05179
 H700 H 0.51881 0.42302 -0.02306
 H701 H 0.49594 0.58426 0.01758
 H702 H 0.56174 0.54286 0.04658
 H703 H 0.57607 0.50346 0.04422
 H704 H 0.55354 0.43326 0.00694
 H705 H 0.46205 0.56509 0.02799
 H706 H 0.45684 0.48744 0.05977
 H707 H 0.55737 0.51875 -0.06322
 H708 H 0.55374 0.44114 -0.02977
 Zr709 Zr 0.02983 1.01791 0.46870
 O710 O 0.05386 1.00452 0.44629
 O711 O 0.02678 1.05255 0.45758
 O712 O 0.01569 1.01678 0.43663
 O713 O 0.07150 1.02636 0.50931
 O714 O -0.02083 1.00070 0.44154
 O715 O 0.06407 1.03260 0.47321
 O716 O 0.00046 1.06775 0.48087
 O717 O -0.00568 1.02468 0.47317
 O718 O 0.02733 1.03537 0.49830
 O719 O 0.01245 0.98496 0.46858
 O720 O 0.04452 0.99534 0.49236
 Zr721 Zr -0.01245 0.98660 0.52786
 Zr722 Zr -0.02267 0.99192 0.47464
 Zr723 Zr 0.04009 1.01253 0.52196
 Zr724 Zr -0.00799 1.04089 0.50328
 O725 O 0.06851 0.99261 0.53338
 O726 O -0.03976 1.05278 0.48949
 O727 O 0.00501 1.01959 0.52843
 O728 O -0.02680 1.00904 0.50420
 O729 O -0.01012 0.96887 0.49835
 O730 O 0.02300 0.97991 0.52331
 C731 C 0.01406 1.06920 0.46432
 C732 C 0.07747 1.03376 0.49027
 C733 C -0.00460 1.00971 0.42953
 O734 O -0.05292 1.01055 0.46582
 O735 O -0.05239 0.97405 0.48666
 O736 O -0.04592 0.97020 0.52316
 C737 C -0.05849 0.96704 0.50577
 O738 O 0.05132 0.95698 0.46991
 Zr739 Zr 0.02535 0.96344 0.49347
 O740 O -0.01098 0.95170 0.53789
 O741 O -0.02874 0.96143 0.45597
 O742 O 0.01197 0.93673 0.47278
 O743 O 0.05525 0.94944 0.50905
 O744 O 0.01320 0.93539 0.51332
 C745 C -0.00067 0.93418 0.52971
 O746 O -0.03715 0.99984 0.54969
 O747 O 0.04828 1.04427 0.53810
 O748 O 0.00126 0.98869 0.56008
 O749 O 0.03616 1.00830 0.55561
 O750 O 0.00609 1.06933 0.52147
 O751 O -0.03050 1.04833 0.52951
 C752 C 0.02031 0.99847 0.56753
 H753 H 0.03623 1.05045 0.49847
 H754 H -0.04348 1.01190 0.50719
 H755 H 0.02965 0.97008 0.53508
 H756 H 0.01432 0.97709 0.45446
 H757 H -0.03999 1.06998 0.49135
 H758 H -0.06190 1.00071 0.45534
 H759 H -0.04383 0.96342 0.44818
 H760 H 0.01988 0.92205 0.47683
 H761 H -0.00255 1.08347 0.51708
 H762 H 0.06323 1.04202 0.54607
 H763 H 0.07751 1.00260 0.54373
 H764 H 0.05471 0.93230 0.50672
 H765 H -0.03640 1.06439 0.52775
 H766 H -0.04172 0.98679 0.55968
 H767 H 0.05847 1.01760 0.43634
 H768 H 0.05482 0.94009 0.46999
 Zr769 Zr 0.72616 0.26719 0.22080
 O770 O 0.73341 0.29030 0.19440
 O771 O 0.68963 0.26327 0.21869
 O772 O 0.71953 0.25156 0.19014
 O773 O 0.72739 0.31089 0.25938
 O774 O 0.73623 0.21585 0.19350
 O775 O 0.71313 0.30107 0.22585
 O776 O 0.68037 0.23780 0.24629
 O777 O 0.72045 0.23173 0.22867
 O778 O 0.71667 0.26578 0.25356
 O779 O 0.75809 0.25101 0.21468
 O780 O 0.75392 0.28412 0.23789
 Zr781 Zr 0.77092 0.22942 0.27418
 Zr782 Zr 0.75269 0.21599 0.22412
 Zr783 Zr 0.74459 0.28089 0.27070
 Zr784 Zr 0.71233 0.23055 0.26172
 O785 O 0.76679 0.31066 0.27515
 O786 O 0.69710 0.19805 0.25203
 O787 O 0.73915 0.24589 0.28064
 O788 O 0.74338 0.21287 0.25688
 O789 O 0.78090 0.23072 0.24151
 O790 O 0.77650 0.26483 0.26622
 C791 C 0.67489 0.25114 0.23016
 C792 C 0.71566 0.31535 0.24189
 C793 C 0.72492 0.23137 0.18271
 O794 O 0.73246 0.18462 0.22150
 O795 O 0.77331 0.18773 0.23380
 O796 O 0.78592 0.19662 0.26807
 C797 C 0.78496 0.18322 0.25129
 O798 O 0.78559 0.29076 0.20731
 Zr799 Zr 0.78512 0.26607 0.23343
 O800 O 0.80732 0.23313 0.27667
 O801 O 0.77764 0.20995 0.19971
 O802 O 0.80606 0.25239 0.20850
 O803 O 0.80245 0.29736 0.24364
 O804 O 0.81725 0.25627 0.24756
 C805 C 0.82238 0.24360 0.26431
 O806 O 0.76404 0.20478 0.29946
 O807 O 0.71812 0.28892 0.29310
 O808 O 0.77472 0.24374 0.30577
 O809 O 0.75734 0.27918 0.30270
 O810 O 0.68955 0.24394 0.28534
 O811 O 0.71200 0.20887 0.29004
 C812 C 0.76798 0.26330 0.31363
 H813 H 0.70220 0.27424 0.25665
 H814 H 0.74138 0.19628 0.26143
 H815 H 0.78890 0.27237 0.27528
 H816 H 0.76228 0.25243 0.19912
 H817 H 0.68095 0.19721 0.25775
 H818 H 0.73940 0.17546 0.20970
 H819 H 0.77381 0.19434 0.19355
 H820 H 0.82125 0.26113 0.20872
 H821 H 0.67496 0.23420 0.28507
 H822 H 0.72231 0.30444 0.29925
 H823 H 0.75977 0.32001 0.28678
 H824 H 0.81849 0.29738 0.23765
 H825 H 0.69630 0.20136 0.29166
 H826 H 0.77920 0.20150 0.30673
 H827 H 0.71824 0.29395 0.18732
 H828 H 0.80200 0.29493 0.20358
 Zr829 Zr 0.74963 0.72470 0.71424
 O830 O 0.73324 0.69702 0.69676
 O831 O 0.78084 0.72966 0.69730
 O832 O 0.74219 0.73573 0.68193
 O833 O 0.77161 0.68999 0.75567
 O834 O 0.72113 0.76873 0.68625
 O835 O 0.76802 0.69312 0.71876
 O836 O 0.79743 0.76192 0.71328
 O837 O 0.75317 0.76127 0.71394
 O838 O 0.77310 0.73347 0.73932
 O839 O 0.71569 0.73722 0.71856
 O840 O 0.73488 0.71012 0.74284
 Zr841 Zr 0.72806 0.76975 0.77365
 Zr842 Zr 0.71977 0.77369 0.72001
 Zr843 Zr 0.75783 0.72085 0.76786
 Zr844 Zr 0.77565 0.76978 0.73963
 O845 O 0.74449 0.69153 0.78553
 O846 O 0.78032 0.80087 0.72085
 O847 O 0.76222 0.75736 0.76945
 O848 O 0.74282 0.78393 0.74502
 O849 O 0.70428 0.76116 0.74867
 O850 O 0.72454 0.73323 0.77367
 C851 C 0.79699 0.74557 0.69900
 C852 C 0.77458 0.68233 0.73630
 C853 C 0.73094 0.75343 0.67439
 O854 O 0.73217 0.80507 0.70502
 O855 O 0.70205 0.80231 0.73261
 O856 O 0.70826 0.80038 0.76927
 C857 C 0.69971 0.81018 0.75200
 O858 O 0.69326 0.69521 0.72857
 Zr859 Zr 0.70203 0.72469 0.74807
 O860 O 0.69654 0.76473 0.79027
 O861 O 0.68522 0.77273 0.70735
 O862 O 0.66984 0.73176 0.73218
 O863 O 0.69533 0.69493 0.76819
 O864 O 0.67834 0.73476 0.77207
 C865 C 0.67917 0.75047 0.78694
 O866 O 0.74345 0.79856 0.79033
 O867 O 0.79324 0.71949 0.77808
 O868 O 0.73831 0.76051 0.80583
 O869 O 0.76079 0.72857 0.80106
 O870 O 0.80907 0.76247 0.75298
 O871 O 0.78643 0.79670 0.76140
 C872 C 0.75158 0.74412 0.81304
 H873 H 0.78871 0.72668 0.73748
 H874 H 0.74450 0.80118 0.74584
 H875 H 0.71840 0.72674 0.78753
 H876 H 0.70523 0.73243 0.70638
 H877 H 0.79739 0.80368 0.71913
 H878 H 0.71915 0.81105 0.69594
 H879 H 0.68360 0.78689 0.69805
 H880 H 0.65742 0.72245 0.73969
 H881 H 0.82073 0.77229 0.74500
 H882 H 0.79460 0.70544 0.78756
 H883 H 0.75765 0.68539 0.79433
 H884 H 0.67812 0.69262 0.76903
 H885 H 0.80087 0.80456 0.75591
 H886 H 0.73259 0.80266 0.80212
 H887 H 0.74414 0.69275 0.68507
 H888 H 0.67711 0.68968 0.73184
 Zr889 Zr 0.24252 0.22139 0.77933
 O890 O 0.25311 0.20000 0.80579
 O891 O 0.20620 0.22119 0.78305
 O892 O 0.23659 0.23748 0.80975
 O893 O 0.24337 0.17693 0.74149
 O894 O 0.25077 0.27479 0.80465
 O895 O 0.23072 0.18621 0.77533
 O896 O 0.19338 0.24444 0.75524
 O897 O 0.23416 0.25585 0.77084
 O898 O 0.23086 0.22077 0.74697
 O899 O 0.27366 0.24123 0.78377
 O900 O 0.26996 0.20689 0.76147
 Zr901 Zr 0.28133 0.26208 0.72321
 Zr902 Zr 0.26560 0.27520 0.77360
 Zr903 Zr 0.25839 0.20817 0.72900
 Zr904 Zr 0.22376 0.25506 0.73822
 O905 O 0.28189 0.18063 0.72459
 O906 O 0.20732 0.28601 0.74806
 O907 O 0.25019 0.24212 0.71848
 O908 O 0.25403 0.27618 0.74121
 O909 O 0.29335 0.26290 0.75547
 O910 O 0.28952 0.22769 0.73186
 C911 C 0.18995 0.23107 0.77196
 C912 C 0.23273 0.17189 0.75936
 C913 C 0.24091 0.25859 0.81628
 O914 O 0.24406 0.30462 0.77601
 O915 O 0.28427 0.30506 0.76248
 O916 O 0.29505 0.29649 0.72792
 C917 C 0.29463 0.31018 0.74448
 O918 O 0.30354 0.20442 0.79074
 Zr919 Zr 0.30019 0.22843 0.76430
 O920 O 0.31765 0.26247 0.71961
 O921 O 0.29148 0.28458 0.79700
 O922 O 0.32173 0.24481 0.78826
 O923 O 0.31896 0.19906 0.75396
 O924 O 0.33067 0.24169 0.74902
 C925 C 0.33400 0.25440 0.73186
 O926 O 0.27118 0.28491 0.69765
 O927 O 0.23117 0.19674 0.70775
 O928 O 0.28457 0.24692 0.69198
 O929 O 0.26907 0.21003 0.69653
 O930 O 0.20041 0.23856 0.71581
 O931 O 0.21997 0.27596 0.70964
 C932 C 0.27846 0.22644 0.68483
 H933 H 0.21672 0.21074 0.74461
 H934 H 0.25082 0.29237 0.73634
 H935 H 0.30179 0.22123 0.72255
 H936 H 0.27884 0.24081 0.79919
 H937 H 0.19073 0.28480 0.74327
 H938 H 0.25119 0.31485 0.78732
 H939 H 0.28718 0.29996 0.80287
 H940 H 0.33731 0.23763 0.78770
 H941 H 0.18523 0.24651 0.71667
 H942 H 0.23579 0.18148 0.70183
 H943 H 0.27474 0.17018 0.71348
 H944 H 0.33525 0.20103 0.75943
 H945 H 0.20376 0.28162 0.70867
 H946 H 0.28558 0.28964 0.68968
 H947 H 0.23872 0.19492 0.81362
 H948 H 0.32033 0.20202 0.79392
 Zr949 Zr 0.26768 0.77937 0.28078
 O950 O 0.25414 0.80315 0.30333
 O951 O 0.30236 0.77650 0.29179
 O952 O 0.26669 0.76497 0.31279
 O953 O 0.27596 0.82139 0.24037
 O954 O 0.25074 0.72843 0.30773
 O955 O 0.28223 0.81371 0.27642
 O956 O 0.31770 0.75046 0.26833
 O957 O 0.27466 0.74393 0.27613
 O958 O 0.28514 0.77718 0.25113
 O959 O 0.23484 0.76181 0.28087
 O960 O 0.24504 0.79412 0.25724
 Zr961 Zr 0.23662 0.73737 0.22146
 Zr962 Zr 0.24199 0.72678 0.27463
 Zr963 Zr 0.26223 0.79001 0.22759
 Zr964 Zr 0.29086 0.74193 0.24598
 O965 O 0.24215 0.81841 0.21638
 O966 O 0.30293 0.71016 0.25965
 O967 O 0.26950 0.75502 0.22093
 O968 O 0.25913 0.72295 0.24501
 O969 O 0.21888 0.73937 0.25101
 O970 O 0.22972 0.77274 0.22619
 C971 C 0.31909 0.76398 0.28491
 C972 C 0.28336 0.82724 0.25942
 C973 C 0.25969 0.74460 0.31981
 O974 O 0.26079 0.69656 0.28327
 O975 O 0.22428 0.69705 0.26249
 O976 O 0.22035 0.70380 0.22603
 C977 C 0.21726 0.69107 0.24336
 O978 O 0.20664 0.80056 0.27975
 Zr979 Zr 0.21324 0.77477 0.25607
 O980 O 0.20172 0.73869 0.21150
 O981 O 0.21154 0.72039 0.29330
 O982 O 0.18662 0.76111 0.27677
 O983 O 0.19905 0.80468 0.24064
 O984 O 0.18525 0.76255 0.23625
 C985 C 0.18414 0.74878 0.21979
 O986 O 0.24999 0.71288 0.19950
 O987 O 0.29391 0.79850 0.21140
 O988 O 0.23866 0.75132 0.18928
 O989 O 0.25802 0.78633 0.19393
 O990 O 0.31922 0.75627 0.22776
 O991 O 0.29842 0.71963 0.21964
 C992 C 0.24832 0.77050 0.18193
 H993 H 0.30017 0.78617 0.25096
 H994 H 0.26207 0.70632 0.24193
 H995 H 0.21985 0.77942 0.21447
 H996 H 0.22696 0.76353 0.29501
 H997 H 0.32013 0.71004 0.25777
 H998 H 0.25100 0.68745 0.29372
 H999 H 0.21362 0.70526 0.30103
 H1000 H 0.17190 0.76897 0.27278
 H1001 H 0.33340 0.74766 0.23208
 H1002 H 0.29158 0.81351 0.20353
 H1003 H 0.25207 0.82755 0.20606
 H1004 H 0.18192 0.80401 0.24299
 H1005 H 0.31449 0.71375 0.22138
 H1006 H 0.23697 0.70832 0.18950
 H1007 H 0.26719 0.80777 0.31328
 H1008 H 0.18974 0.80397 0.27971
 Zr1009 Zr 0.22593 0.76903 0.71985
 O1010 O 0.23267 0.79220 0.69339
 O1011 O 0.18943 0.76453 0.71792
 O1012 O 0.21938 0.75328 0.68923
 O1013 O 0.22675 0.81278 0.75838
 O1014 O 0.23662 0.71783 0.69256
 O1015 O 0.21244 0.80271 0.72493
 O1016 O 0.18071 0.73897 0.74559
 O1017 O 0.22078 0.73351 0.72779
 O1018 O 0.21663 0.76752 0.75266
 O1019 O 0.25806 0.75332 0.71359
 O1020 O 0.25354 0.78638 0.73679
 Zr1021 Zr 0.27156 0.73199 0.77304
 Zr1022 Zr 0.25324 0.71825 0.72310
 Zr1023 Zr 0.24444 0.78305 0.76965
 Zr1024 Zr 0.21286 0.73226 0.76088
 O1025 O 0.26624 0.81313 0.77398
 O1026 O 0.19806 0.69952 0.75134
 O1027 O 0.23958 0.74799 0.77965
 O1028 O 0.24415 0.71504 0.75591
 O1029 O 0.28135 0.73340 0.74033
 O1030 O 0.27657 0.76746 0.76503
 C1031 C 0.17494 0.75219 0.72947
 C1032 C 0.21487 0.81705 0.74093
 C1033 C 0.22503 0.73316 0.68180
 O1034 O 0.23341 0.68662 0.72058
 O1035 O 0.27424 0.69027 0.73272
 O1036 O 0.28689 0.69934 0.76694
 C1037 C 0.28598 0.68589 0.75019
 O1038 O 0.28494 0.79343 0.70602
 Zr1039 Zr 0.28499 0.76880 0.73219
 O1040 O 0.30794 0.73621 0.77528
 O1041 O 0.27817 0.71253 0.69860
 O1042 O 0.30600 0.75537 0.70719
 O1043 O 0.30186 0.80038 0.74225
 O1044 O 0.31737 0.75960 0.74620
 C1045 C 0.32277 0.74697 0.76288
 O1046 O 0.26522 0.70734 0.79843
 O1047 O 0.21796 0.79073 0.79215
 O1048 O 0.27535 0.74641 0.80459
 O1049 O 0.25736 0.78155 0.80160
 O1050 O 0.19001 0.74537 0.78459
 O1051 O 0.21301 0.71063 0.78924
 C1052 C 0.26832 0.76585 0.81248
 H1053 H 0.20205 0.77577 0.75581
 H1054 H 0.24240 0.69843 0.76049
 H1055 H 0.28891 0.77520 0.77402
 H1056 H 0.26216 0.75478 0.69801
 H1057 H 0.18195 0.69845 0.75716
 H1058 H 0.24043 0.67754 0.70876
 H1059 H 0.27453 0.69687 0.69247
 H1060 H 0.32107 0.76434 0.70731
 H1061 H 0.17556 0.73541 0.78441
 H1062 H 0.22196 0.80631 0.79827
 H1063 H 0.25914 0.82239 0.78563
 H1064 H 0.31786 0.80067 0.73617
 H1065 H 0.19742 0.70293 0.79097
 H1066 H 0.28049 0.70430 0.80562
 H1067 H 0.21740 0.79561 0.68638
 H1068 H 0.30127 0.79781 0.70219
 Zr1069 Zr 0.25027 0.22469 0.21441
 O1070 O 0.23383 0.19696 0.19705
 O1071 O 0.28147 0.22954 0.19742
 O1072 O 0.24279 0.23559 0.18208
 O1073 O 0.27229 0.19013 0.25594
 O1074 O 0.22175 0.26862 0.18631
 O1075 O 0.26863 0.19310 0.21903
 O1076 O 0.29811 0.26187 0.21324
 O1077 O 0.25386 0.26126 0.21397
 O1078 O 0.27380 0.23355 0.23943
 O1079 O 0.21636 0.23727 0.21875
 O1080 O 0.23557 0.21026 0.24309
 Zr1081 Zr 0.22888 0.27004 0.27368
 Zr1082 Zr 0.22049 0.27375 0.22005
 Zr1083 Zr 0.25857 0.22107 0.26803
 Zr1084 Zr 0.27640 0.26986 0.23960
 O1085 O 0.24522 0.19185 0.28584
 O1086 O 0.28107 0.30086 0.22069
 O1087 O 0.26301 0.25758 0.26948
 O1088 O 0.24360 0.28408 0.24498
 O1089 O 0.20504 0.26136 0.24877
 O1090 O 0.22531 0.23352 0.27385
 C1091 C 0.29763 0.24544 0.19903
 C1092 C 0.27520 0.18238 0.23661
 C1093 C 0.23152 0.25327 0.17449
 O1094 O 0.23289 0.30504 0.20491
 O1095 O 0.20280 0.30243 0.23257
 O1096 O 0.20908 0.30067 0.26923
 C1097 C 0.20048 0.31038 0.25193
 O1098 O 0.19394 0.19530 0.22898
 Zr1099 Zr 0.20274 0.22489 0.24832
 O1100 O 0.19736 0.26518 0.29033
 O1101 O 0.18591 0.27277 0.20745
 O1102 O 0.17054 0.23187 0.23242
 O1103 O 0.19603 0.19527 0.26861
 O1104 O 0.17909 0.23517 0.27227
 C1105 C 0.17994 0.25097 0.28704
 O1106 O 0.24435 0.29890 0.29022
 O1107 O 0.29399 0.21970 0.27821
 O1108 O 0.23913 0.26091 0.30589
 O1109 O 0.26160 0.22894 0.30120
 O1110 O 0.30982 0.26256 0.25293
 O1111 O 0.28725 0.29687 0.26125
 C1112 C 0.25240 0.24453 0.31314
 H1113 H 0.28940 0.22673 0.23759
 H1114 H 0.24529 0.30133 0.24573
 H1115 H 0.21917 0.22710 0.28775
 H1116 H 0.20588 0.23243 0.20660
 H1117 H 0.29813 0.30365 0.21894
 H1118 H 0.21986 0.31101 0.19584
 H1119 H 0.18429 0.28689 0.19810
 H1120 H 0.15813 0.22261 0.23999
 H1121 H 0.32149 0.27233 0.24489
 H1122 H 0.29535 0.20570 0.28776
 H1123 H 0.25838 0.18573 0.29465
 H1124 H 0.17881 0.19299 0.26948
 H1125 H 0.30169 0.30468 0.25570
 H1126 H 0.23353 0.30307 0.30201
 H1127 H 0.24472 0.19263 0.18537
 H1128 H 0.17780 0.18978 0.23231
 Zr1129 Zr 0.74450 0.72118 0.27937
 O1130 O 0.75514 0.69982 0.30584
 O1131 O 0.70819 0.72097 0.28314
 O1132 O 0.73859 0.73731 0.30978
 O1133 O 0.74526 0.67669 0.24155
 O1134 O 0.75281 0.77460 0.30464
 O1135 O 0.73269 0.68599 0.27541
 O1136 O 0.69533 0.74425 0.25537
 O1137 O 0.73615 0.75564 0.27089
 O1138 O 0.73276 0.72055 0.24703
 O1139 O 0.77566 0.74100 0.28375
 O1140 O 0.77188 0.70666 0.26146
 Zr1141 Zr 0.78320 0.76182 0.22316
 Zr1142 Zr 0.76760 0.77497 0.27358
 Zr1143 Zr 0.76024 0.70793 0.22902
 Zr1144 Zr 0.72567 0.75485 0.23829
 O1145 O 0.78373 0.68039 0.22455
 O1146 O 0.70928 0.78581 0.24817
 O1147 O 0.75204 0.74187 0.21850
 O1148 O 0.75596 0.77595 0.24121
 O1149 O 0.79530 0.76264 0.25540
 O1150 O 0.79139 0.72743 0.23179
 C1151 C 0.69193 0.73086 0.27208
 C1152 C 0.73466 0.67166 0.25945
 C1153 C 0.74292 0.75843 0.31628
 O1154 O 0.74611 0.80442 0.27601
 O1155 O 0.78628 0.80480 0.26241
 O1156 O 0.79697 0.79622 0.22783
 C1157 C 0.79661 0.80991 0.24440
 O1158 O 0.80554 0.70417 0.29066
 Zr1159 Zr 0.80214 0.72817 0.26422
 O1160 O 0.81951 0.76219 0.21949
 O1161 O 0.79353 0.78434 0.29694
 O1162 O 0.82374 0.74455 0.28813
 O1163 O 0.82086 0.69878 0.25385
 O1164 O 0.83259 0.74141 0.24888
 C1165 C 0.83589 0.75411 0.23170
 O1166 O 0.77301 0.78467 0.19763
 O1167 O 0.73295 0.69647 0.20784
 O1168 O 0.78631 0.74667 0.19191
 O1169 O 0.77081 0.70979 0.19651
 O1170 O 0.70224 0.73837 0.21594
 O1171 O 0.72183 0.77573 0.20971
 C1172 C 0.78015 0.72620 0.18478
 H1173 H 0.71862 0.71052 0.24470
 H1174 H 0.75274 0.79214 0.23635
 H1175 H 0.80363 0.72096 0.22245
 H1176 H 0.78087 0.74059 0.29915
 H1177 H 0.69268 0.78461 0.24342
 H1178 H 0.75327 0.81465 0.28730
 H1179 H 0.78926 0.79973 0.30280
 H1180 H 0.83932 0.73736 0.28754
 H1181 H 0.68707 0.74633 0.21682
 H1182 H 0.73757 0.68122 0.20191
 H1183 H 0.77656 0.66994 0.21344
 H1184 H 0.83716 0.70074 0.25928
 H1185 H 0.70563 0.78143 0.20879
 H1186 H 0.78740 0.78938 0.18962
 H1187 H 0.74076 0.69475 0.31369
 H1188 H 0.82233 0.70176 0.29380
 Zr1189 Zr 0.76734 0.28001 0.78175
 O1190 O 0.75378 0.30361 0.80445
 O1191 O 0.80211 0.27736 0.79255
 O1192 O 0.76663 0.26551 0.81373
 O1193 O 0.77490 0.32226 0.74144
 O1194 O 0.75105 0.22882 0.80864
 O1195 O 0.78162 0.31445 0.77740
 O1196 O 0.81758 0.25171 0.76878
 O1197 O 0.77462 0.24467 0.77693
 O1198 O 0.78458 0.27811 0.75197
 O1199 O 0.73465 0.26214 0.78199
 O1200 O 0.74436 0.29464 0.75843
 Zr1201 Zr 0.73620 0.23798 0.72248
 Zr1202 Zr 0.74209 0.22721 0.77558
 Zr1203 Zr 0.76136 0.29082 0.72864
 Zr1204 Zr 0.79060 0.24295 0.74664
 O1205 O 0.74091 0.31907 0.71769
 O1206 O 0.80308 0.21128 0.76017
 O1207 O 0.76891 0.25594 0.72180
 O1208 O 0.75903 0.22368 0.74582
 O1209 O 0.71868 0.23969 0.75216
 O1210 O 0.72900 0.27326 0.72739
 C1211 C 0.81894 0.26511 0.78545
 C1212 C 0.78247 0.32806 0.76044
 C1213 C 0.75988 0.24505 0.82072
 O1214 O 0.76125 0.19716 0.78398
 O1215 O 0.72456 0.19737 0.76344
 O1216 O 0.72023 0.20428 0.72704
 C1217 C 0.71741 0.19145 0.74433
 O1218 O 0.70610 0.30063 0.78122
 Zr1219 Zr 0.71274 0.27500 0.75740
 O1220 O 0.70121 0.23904 0.71275
 O1221 O 0.71183 0.22045 0.79443
 O1222 O 0.68640 0.26104 0.77824
 O1223 O 0.69815 0.30482 0.74216
 O1224 O 0.68471 0.26257 0.73775
 C1225 C 0.68359 0.24890 0.72123
 O1226 O 0.74961 0.21368 0.70036
 O1227 O 0.79282 0.29969 0.71225
 O1228 O 0.73795 0.25204 0.69033
 O1229 O 0.75693 0.28725 0.69499
 O1230 O 0.81865 0.25760 0.72822
 O1231 O 0.79815 0.22080 0.72020
 C1232 C 0.74736 0.27134 0.68299
 H1233 H 0.79953 0.28723 0.75172
 H1234 H 0.76210 0.20709 0.74266
 H1235 H 0.71897 0.27988 0.71576
 H1236 H 0.72686 0.26373 0.79620
 H1237 H 0.82027 0.21133 0.75817
 H1238 H 0.75163 0.18791 0.79448
 H1239 H 0.71411 0.20531 0.80208
 H1240 H 0.67158 0.26878 0.77439
 H1241 H 0.83295 0.24911 0.73239
 H1242 H 0.79029 0.31470 0.70445
 H1243 H 0.75066 0.32834 0.70732
 H1244 H 0.68104 0.30397 0.74462
 H1245 H 0.81428 0.21504 0.72183
 H1246 H 0.73656 0.20905 0.69043
 H1247 H 0.76686 0.30830 0.81433
 H1248 H 0.68917 0.30391 0.78129
 C1249 C 0.47416 1.02898 0.38404
 C1250 C 0.48012 1.01194 0.36907
 C1251 C 0.49320 0.99275 0.37603
 C1252 C 0.49935 0.99013 0.39809
 C1253 C 0.43632 1.01511 0.29350
 C1254 C 0.48010 1.02632 0.40598
 C1255 C 0.47045 1.01313 0.34732
 C1256 C 0.46083 1.01418 0.32976
 C1257 C 0.44813 1.01507 0.30990
 C1258 C 0.49218 1.00655 0.41338
 H1259 H 0.46399 1.04385 0.37892
 H1260 H 0.49778 0.97935 0.36461
 H1261 H 0.50850 0.97465 0.40333
 H1262 H 0.47445 1.03936 0.41733
 C1263 C -0.00760 0.49216 0.87571
 C1264 C -0.02057 0.51144 0.86880
 C1265 C -0.02662 0.52836 0.88385
 C1266 C -0.02084 0.52551 0.90581
 C1267 C -0.06390 0.51528 0.79303
 C1268 C -0.00161 0.48934 0.89778
 C1269 C -0.03006 0.51285 0.84698
 C1270 C -0.03955 0.51407 0.82938
 C1271 C -0.05213 0.51514 0.80947
 C1272 C -0.00885 0.50566 0.91315
 H1273 H -0.00295 0.47884 0.86423
 H1274 H -0.03671 0.54330 0.87877
 H1275 H -0.02654 0.53848 0.91720
 H1276 H 0.00748 0.47381 0.90298
 C1277 C 0.00773 0.01632 0.87598
 C1278 C 0.03124 0.01781 0.86964
 C1279 C 0.04870 0.02257 0.88516
 C1280 C 0.04298 0.02440 0.90706
 C1281 C 0.06771 0.00049 0.79373
 C1282 C 0.00192 0.01838 0.89802
 C1283 C 0.03820 0.01276 0.84775
 C1284 C 0.04593 0.00834 0.83010
 C1285 C 0.05691 0.00357 0.81019
 C1286 C 0.01964 0.02161 0.91381
 H1287 H -0.00593 0.01262 0.86410
 H1288 H 0.06692 0.02383 0.88047
 H1289 H 0.05697 0.02691 0.91888
 H1290 H -0.01615 0.01588 0.90285
 C1291 C 0.50895 0.51584 0.37601
 C1292 C 0.53251 0.51777 0.36991
 C1293 C 0.54968 0.52307 0.38555
 C1294 C 0.54366 0.52496 0.40736
 C1295 C 0.57016 0.49999 0.29461
 C1296 C 0.50282 0.51796 0.39796
 C1297 C 0.53986 0.51257 0.34816
 C1298 C 0.54790 0.50804 0.33067
 C1299 C 0.55919 0.50316 0.31094
 C1300 C 0.52030 0.52170 0.41389
 H1301 H 0.49551 0.51172 0.36402
 H1302 H 0.56794 0.52467 0.38104
 H1303 H 0.55745 0.52786 0.41932
 H1304 H 0.48475 0.51509 0.40264
 C1305 C 0.52193 0.48044 0.12740
 C1306 C 0.53830 0.49699 0.13546
 C1307 C 0.54667 0.51494 0.12181
 C1308 C 0.53947 0.51599 0.10011
 C1309 C 0.57571 0.49699 0.21414
 C1310 C 0.51454 0.48154 0.10553
 C1311 C 0.54749 0.49555 0.15738
 C1312 C 0.55617 0.49539 0.17537
 C1313 C 0.56683 0.49605 0.19625
 C1314 C 0.52368 0.49908 0.09155
 H1315 H 0.51529 0.46646 0.13785
 H1316 H 0.55922 0.52790 0.12783
 H1317 H 0.54670 0.52987 0.08988
 H1318 H 0.50247 0.46823 0.09937
 C1319 C 0.04854 1.01400 0.62149
 C1320 C 0.03922 0.99677 0.63540
 C1321 C 0.02228 0.98072 0.62747
 C1322 C 0.01520 0.98162 0.60550
 C1323 C 0.07521 0.99770 0.71465
 C1324 C 0.04164 1.01486 0.59970
 C1325 C 0.04793 0.99558 0.65750
 C1326 C 0.05624 0.99563 0.67565
 C1327 C 0.06654 0.99653 0.69667
 C1328 C 0.02520 0.99848 0.59129
 H1329 H 0.06154 1.02658 0.62740
 H1330 H 0.01490 0.96730 0.63811
 H1331 H 0.00260 0.96873 0.59949
 H1332 H 0.04954 1.02824 0.58931
 C1333 C -0.01849 0.52987 0.62640
 C1334 C -0.04214 0.52955 0.63238
 C1335 C -0.05945 0.53123 0.61627
 C1336 C -0.05336 0.53217 0.59435
 C1337 C -0.07229 0.51539 0.71244
 C1338 C -0.01230 0.53094 0.60432
 C1339 C -0.04913 0.52615 0.65475
 C1340 C -0.05602 0.52283 0.67309
 C1341 C -0.06477 0.51874 0.69433
 C1342 C -0.02976 0.53147 0.58804
 H1343 H -0.00490 0.52858 0.63872
 H1344 H -0.07778 0.53108 0.62063
 H1345 H -0.06725 0.53272 0.58226
 H1346 H 0.00598 0.53021 0.59997
 C1347 C 0.44136 0.03235 0.11694
 C1348 C 0.45859 0.03041 0.13309
 C1349 C 0.48227 0.03060 0.12719
 C1350 C 0.48855 0.03178 0.10514
 C1351 C 0.42808 0.01548 0.21293
 C1352 C 0.44754 0.03339 0.09504
 C1353 C 0.45149 0.02681 0.15541
 C1354 C 0.44450 0.02331 0.17369
 C1355 C 0.43566 0.01901 0.19486
 C1356 C 0.47115 0.03253 0.08881
 H1357 H 0.42301 0.03230 0.12123
 H1358 H 0.49579 0.02910 0.13955
 H1359 H 0.50683 0.03091 0.10085
 H1360 H 0.43371 0.03411 0.08290
 C1361 C 0.38926 0.42897 0.02578
 C1362 C 0.37424 0.42941 0.00756
 C1363 C 0.38054 0.44297 -0.01061
 C1364 C 0.40172 0.45566 -0.01084
 C1365 C 0.29534 0.37965 0.00053
 C1366 C 0.41060 0.44180 0.02562
 C1367 C 0.35260 0.41569 0.00687
 C1368 C 0.33448 0.40438 0.00524
 C1369 C 0.31329 0.39113 0.00271
 C1370 C 0.41720 0.45513 0.00716
 H1371 H 0.38462 0.41852 0.03997
 H1372 H 0.36915 0.44354 -0.02480
 H1373 H 0.40603 0.46578 -0.02532
 H1374 H 0.42210 0.44091 0.03969
 C1375 C -0.11828 0.94229 0.48951
 C1376 C -0.12465 0.92891 0.50777
 C1377 C -0.10964 0.92855 0.52600
 C1378 C -0.08825 0.94130 0.52577
 C1379 C -0.20378 0.87955 0.50074
 C1380 C -0.09706 0.95490 0.48921
 C1381 C -0.14634 0.91527 0.50714
 C1382 C -0.16452 0.90405 0.50553
 C1383 C -0.18577 0.89092 0.50297
 C1384 C -0.08160 0.95446 0.50723
 H1385 H -0.12966 0.94279 0.47531
 H1386 H -0.11433 0.91823 0.54026
 H1387 H -0.07677 0.94048 0.53986
 H1388 H -0.09272 0.96489 0.47467
 C1389 C -0.11333 0.07622 0.98224
 C1390 C -0.12881 0.07381 0.99974
 C1391 C -0.12364 0.05843 1.01686
 C1392 C -0.10312 0.04567 1.01665
 C1393 C -0.20591 0.12256 1.00293
 C1394 C -0.09271 0.06341 0.98197
 C1395 C -0.14993 0.08715 1.00042
 C1396 C -0.16764 0.09820 1.00136
 C1397 C -0.18836 0.11122 1.00245
 C1398 C -0.08730 0.04802 0.99925
 H1399 H -0.11713 0.08809 0.96888
 H1400 H -0.13544 0.05637 1.03048
 H1401 H -0.09964 0.03400 1.03024
 H1402 H -0.08094 0.06572 0.96837
 C1403 C 0.37670 0.55878 0.51651
 C1404 C 0.37165 0.57424 0.49943
 C1405 C 0.38718 0.57662 0.48196
 C1406 C 0.40773 0.56369 0.48170
 C1407 C 0.29483 0.62337 0.50270
 C1408 C 0.39715 0.54591 0.51631
 C1409 C 0.35063 0.58772 0.50012
 C1410 C 0.33300 0.59887 0.50109
 C1411 C 0.31235 0.61198 0.50221
 C1412 C 0.41303 0.54823 0.49896
 H1413 H 0.36486 0.55674 0.53011
 H1414 H 0.38349 0.58855 0.46863
 H1415 H 0.41955 0.56599 0.46814
 H1416 H 0.40054 0.53419 0.52988
 C1417 C 0.11012 0.58507 0.52379
 C1418 C 0.12588 0.58280 0.50662
 C1419 C 0.12021 0.56770 0.48952
 C1420 C 0.09890 0.55520 0.48933
 C1421 C 0.20794 0.62680 0.50121
 C1422 C 0.08869 0.57249 0.52366
 C1423 C 0.14789 0.59582 0.50616
 C1424 C 0.16656 0.60617 0.50495
 C1425 C 0.18874 0.61763 0.50298
 C1426 C 0.08274 0.55750 0.50631
 H1427 H 0.11430 0.59668 0.53716
 H1428 H 0.13222 0.56570 0.47618
 H1429 H 0.09506 0.54383 0.47571
 H1430 H 0.07666 0.57476 0.53693
 C1431 C 0.61101 0.08629 0.02436
 C1432 C 0.62682 0.08389 0.00725
 C1433 C 0.62119 0.06864 -0.00975
 C1434 C 0.59991 0.05611 -0.00989
 C1435 C 0.70883 0.12790 0.00121
 C1436 C 0.58959 0.07367 0.02429
 C1437 C 0.64881 0.09695 0.00672
 C1438 C 0.66748 0.10730 0.00540
 C1439 C 0.68964 0.11876 0.00323
 C1440 C 0.58370 0.05853 0.00704
 H1441 H 0.61515 0.09802 0.03765
 H1442 H 0.63324 0.06653 -0.02305
 H1443 H 0.59611 0.04461 -0.02343
 H1444 H 0.57753 0.07604 0.03752
 C1445 C 0.61559 0.92437 0.47459
 C1446 C 0.62602 0.91472 0.49328
 C1447 C 0.61471 0.91625 0.51327
 C1448 C 0.59339 0.92757 0.51472
 C1449 C 0.70894 0.87576 0.49446
 C1450 C 0.59415 0.93574 0.47598
 C1451 C 0.64855 0.90374 0.49238
 C1452 C 0.66750 0.89472 0.49251
 C1453 C 0.68982 0.88435 0.49337
 C1454 C 0.58286 0.93768 0.49614
 H1455 H 0.62415 0.92335 0.45899
 H1456 H 0.62251 0.90888 0.52787
 H1457 H 0.58530 0.92859 0.53053
 H1458 H 0.58660 0.94329 0.46136
 C1459 C 0.11312 0.41446 1.01292
 C1460 C 0.12471 0.41340 0.99304
 C1461 C 0.11447 0.42333 0.97439
 C1462 C 0.09294 0.43456 0.97573
 C1463 C 0.20804 0.37527 0.99452
 C1464 C 0.09172 0.42565 1.01432
 C1465 C 0.14737 0.40266 0.99223
 C1466 C 0.16641 0.39383 0.99243
 C1467 C 0.18883 0.38369 0.99337
 C1468 C 0.08139 0.43607 0.99580
 H1469 H 0.12078 0.40688 1.02749
 H1470 H 0.12325 0.42266 0.95887
 H1471 H 0.08557 0.44237 0.96115
 H1472 H 0.08342 0.42634 1.03005
 C1473 C -0.01596 0.37515 0.47194
 C1474 C -0.03237 0.37078 0.45539
 C1475 C -0.04552 0.38897 0.44670
 C1476 C -0.04173 0.41173 0.45404
 C1477 C -0.02442 0.29643 0.40884
 C1478 C -0.01215 0.39791 0.47937
 C1479 C -0.03297 0.34864 0.44487
 C1480 C -0.03188 0.33101 0.43462
 C1481 C -0.02869 0.31175 0.42122
 C1482 C -0.02462 0.41650 0.47011
 H1483 H -0.00545 0.36116 0.47847
 H1484 H -0.05802 0.38573 0.43364
 H1485 H -0.05184 0.42561 0.44678
 H1486 H 0.00103 0.40101 0.49185
 C1487 C 0.48568 -0.12430 -0.02640
 C1488 C 0.46943 -0.12885 -0.04304
 C1489 C 0.45636 -0.11074 -0.05201
 C1490 C 0.46004 -0.08792 -0.04481
 C1491 C 0.47682 -0.20384 -0.08885
 C1492 C 0.48937 -0.10148 -0.01911
 C1493 C 0.46885 -0.15112 -0.05331
 C1494 C 0.46985 -0.16890 -0.06336
 C1495 C 0.47283 -0.18835 -0.07656
 C1496 C 0.47695 -0.08298 -0.02861
 H1497 H 0.49613 -0.13823 -0.01964
 H1498 H 0.44398 -0.11412 -0.06513
 H1499 H 0.44997 -0.07411 -0.05227
 H1500 H 0.50241 -0.09826 -0.00653
 C1501 C 0.02229 -0.13254 1.04493
 C1502 C 0.00656 -0.14856 1.03536
 C1503 C -0.01015 -0.14099 1.02033
 C1504 C -0.01142 -0.11726 1.01515
 C1505 C 0.00140 -0.22578 1.07945
 C1506 C 0.02102 -0.10880 1.03987
 C1507 C 0.00550 -0.17200 1.04355
 C1508 C 0.00426 -0.19061 1.05265
 C1509 C 0.00266 -0.21055 1.06596
 C1510 C 0.00390 -0.10088 1.02518
 H1511 H 0.03505 -0.13831 1.05686
 H1512 H -0.02264 -0.15330 1.01316
 H1513 H -0.02474 -0.11171 1.00370
 H1514 H 0.03322 -0.09666 1.04766
 C1515 C 0.52271 0.36810 0.54592
 C1516 C 0.50700 0.35198 0.53645
 C1517 C 0.49035 0.35939 0.52130
 C1518 C 0.48909 0.38307 0.51590
 C1519 C 0.50143 0.27506 0.58104
 C1520 C 0.52144 0.39179 0.54064
 C1521 C 0.50590 0.32863 0.54487
 C1522 C 0.50458 0.31011 0.55412
 C1523 C 0.50285 0.29026 0.56753
 C1524 C 0.50436 0.39956 0.52584
 H1525 H 0.53543 0.36246 0.55794
 H1526 H 0.47789 0.34701 0.51420
 H1527 H 0.47580 0.38851 0.50437
 H1528 H 0.53360 0.40401 0.54836
 C1529 C 0.47084 1.09185 0.58929
 C1530 C 0.48916 1.10847 0.58974
 C1531 C 0.51019 1.10420 0.57924
 C1532 C 0.51256 1.08382 0.56736
 C1533 C 0.48450 1.19591 0.61045
 C1534 C 0.47321 1.07132 0.57751
 C1535 C 0.48567 1.13124 0.59826
 C1536 C 0.48384 1.15119 0.60361
 C1537 C 0.48334 1.17515 0.60796
 C1538 C 0.49385 1.06749 0.56588
 H1539 H 0.45443 1.09519 0.59721
 H1540 H 0.52439 1.11712 0.57943
 H1541 H 0.52872 1.08126 0.55875
 H1542 H 0.45850 1.05905 0.57666
 C1543 C 0.01000 0.60295 1.07894
 C1544 C -0.01103 0.60746 1.08933
 C1545 C -0.02949 0.59100 1.08889
 C1546 C -0.02726 0.57040 1.07720
 C1547 C -0.01520 0.69515 1.10931
 C1548 C 0.01222 0.58250 1.06713
 C1549 C -0.01438 0.63033 1.09767
 C1550 C -0.01610 0.65036 1.10284
 C1551 C -0.01647 0.67437 1.10698
 C1552 C -0.00663 0.56634 1.06563
 H1553 H 0.02431 0.61575 1.07911
 H1554 H -0.04590 0.59453 1.09674
 H1555 H -0.04209 0.55826 1.07634
 H1556 H 0.02838 0.57975 1.05857
 C1557 C 0.52059 0.61532 -0.08025
 C1558 C 0.51067 0.63478 -0.07065
 C1559 C 0.50283 0.63348 -0.04923
 C1560 C 0.50421 0.61261 -0.03752
 C1561 C 0.49346 0.71582 -0.10613
 C1562 C 0.52210 0.59432 -0.06848
 C1563 C 0.50739 0.65603 -0.08266
 C1564 C 0.50355 0.67445 -0.09135
 C1565 C 0.49824 0.69652 -0.09995
 C1566 C 0.51352 0.59270 -0.04711
 H1567 H 0.52668 0.61625 -0.09688
 H1568 H 0.49518 0.64851 -0.04169
 H1569 H 0.49763 0.61199 -0.02105
 H1570 H 0.52927 0.57923 -0.07628
 C1571 C 0.00374 1.13232 0.44989
 C1572 C 0.01155 1.13351 0.42845
 C1573 C 0.02152 1.11403 0.41895
 C1574 C 0.02314 1.09311 0.43085
 C1575 C -0.00558 1.21459 0.39306
 C1576 C 0.00523 1.11154 0.46172
 C1577 C 0.00823 1.15471 0.41636
 C1578 C 0.00439 1.17312 0.40765
 C1579 C -0.00088 1.19524 0.39912
 C1580 C 0.01461 1.09160 0.45224
 H1581 H -0.00395 1.14737 0.45736
 H1582 H 0.02760 1.11487 0.40231
 H1583 H 0.03036 1.07800 0.42312
 H1584 H -0.00132 1.11101 0.47820
 C1585 C 0.74245 0.74283 0.87414
 C1586 C 0.76172 0.72985 0.88105
 C1587 C 0.77874 0.72396 0.86603
 C1588 C 0.77600 0.72988 0.84408
 C1589 C 0.76515 0.68619 0.95675
 C1590 C 0.73974 0.74896 0.85208
 C1591 C 0.76302 0.72022 0.90283
 C1592 C 0.76415 0.71064 0.92041
 C1593 C 0.76510 0.69798 0.94031
 C1594 C 0.75615 0.74186 0.83673
 H1595 H 0.72906 0.74736 0.88559
 H1596 H 0.79368 0.71387 0.87111
 H1597 H 0.78903 0.72428 0.83270
 H1598 H 0.72421 0.75803 0.84688
 C1599 C 0.27955 0.22447 0.36615
 C1600 C 0.26249 0.23032 0.38115
 C1601 C 0.24321 0.24328 0.37421
 C1602 C 0.24052 0.24941 0.35216
 C1603 C 0.26572 0.18644 0.45674
 C1604 C 0.27683 0.23040 0.34421
 C1605 C 0.26374 0.22064 0.40291
 C1606 C 0.26482 0.21101 0.42047
 C1607 C 0.26571 0.19828 0.44034
 C1608 C 0.25697 0.24234 0.33684
 H1609 H 0.29449 0.21441 0.37126
 H1610 H 0.22978 0.24777 0.38565
 H1611 H 0.22498 0.25845 0.34694
 H1612 H 0.28989 0.22483 0.33284
 C1613 C 0.76591 0.25660 0.37484
 C1614 C 0.76772 0.28014 0.38103
 C1615 C 0.77285 0.29743 0.36541
 C1616 C 0.77471 0.29154 0.34357
 C1617 C 0.75035 0.31752 0.45652
 C1618 C 0.76800 0.25061 0.35286
 C1619 C 0.76264 0.28735 0.40284
 C1620 C 0.75820 0.29530 0.42040
 C1621 C 0.75344 0.30653 0.44018
 C1622 C 0.77160 0.26819 0.33697
 H1623 H 0.76193 0.24307 0.38681
 H1624 H 0.77436 0.31567 0.36998
 H1625 H 0.77751 0.30542 0.33165
 H1626 H 0.76525 0.23254 0.34814
 C1627 C 0.26702 0.75896 0.87372
 C1628 C 0.26827 0.78250 0.87995
 C1629 C 0.27274 0.79995 0.86433
 C1630 C 0.27453 0.79418 0.84245
 C1631 C 0.25106 0.81901 0.95586
 C1632 C 0.26903 0.75308 0.85170
 C1633 C 0.26330 0.78949 0.90186
 C1634 C 0.25892 0.79724 0.91950
 C1635 C 0.25417 0.80823 0.93941
 C1636 C 0.27198 0.77079 0.83582
 H1637 H 0.26356 0.74529 0.88570
 H1638 H 0.27383 0.81820 0.86893
 H1639 H 0.27683 0.80815 0.83055
 H1640 H 0.26673 0.73497 0.84696
 C1641 C 0.26373 0.79933 0.12813
 C1642 C 0.24671 0.78986 0.11412
 C1643 C 0.23085 0.77266 0.12193
 C1644 C 0.23171 0.76546 0.14388
 C1645 C 0.24793 0.82625 0.03495
 C1646 C 0.26456 0.79230 0.14989
 C1647 C 0.24559 0.79867 0.09203
 C1648 C 0.24569 0.80709 0.07390
 C1649 C 0.24668 0.81750 0.05291
 C1650 C 0.24835 0.77558 0.15819
 H1651 H 0.27617 0.81253 0.12232
 H1652 H 0.21759 0.76516 0.11120
 H1653 H 0.21896 0.75263 0.14979
 H1654 H 0.27778 0.80031 0.16035
 C1655 C 0.76219 0.30052 0.62918
 C1656 C 0.74571 0.29033 0.61505
 C1657 C 0.73033 0.27267 0.62283
 C1658 C 0.73117 0.26568 0.64484
 C1659 C 0.74729 0.32565 0.53550
 C1660 C 0.76300 0.29369 0.65099
 C1661 C 0.74467 0.29881 0.59285
 C1662 C 0.74486 0.30697 0.57464
 C1663 C 0.74595 0.31711 0.55353
 C1664 C 0.74730 0.27645 0.65924
 H1665 H 0.77425 0.31409 0.62339
 H1666 H 0.71749 0.26461 0.61202
 H1667 H 0.71883 0.25243 0.65070
 H1668 H 0.77583 0.30223 0.66150
 C1669 C 0.27998 0.23203 0.62316
 C1670 C 0.27984 0.20836 0.61725
 C1671 C 0.28166 0.19110 0.63341
 C1672 C 0.28253 0.19724 0.65531
 C1673 C 0.26565 0.17801 0.53732
 C1674 C 0.28100 0.23828 0.64521
 C1675 C 0.27644 0.20130 0.59491
 C1676 C 0.27312 0.19435 0.57661
 C1677 C 0.26901 0.18556 0.55540
 C1678 C 0.28163 0.22085 0.66154
 H1679 H 0.27858 0.24559 0.61079
 H1680 H 0.28165 0.17276 0.62912
 H1681 H 0.28317 0.18338 0.66745
 H1682 H 0.28010 0.25656 0.64950
 C1683 C 0.78110 0.73187 0.12310
 C1684 C 0.78091 0.70821 0.11717
 C1685 C 0.78292 0.69092 0.13329
 C1686 C 0.78402 0.69704 0.15519
 C1687 C 0.76567 0.67795 0.03735
 C1688 C 0.78234 0.73808 0.14516
 C1689 C 0.77723 0.70117 0.09486
 C1690 C 0.77367 0.69425 0.07658
 C1691 C 0.76927 0.68549 0.05541
 C1692 C 0.78315 0.72064 0.16146
 H1693 H 0.77955 0.74543 0.11076
 H1694 H 0.78286 0.67259 0.12897
 H1695 H 0.78478 0.68317 0.16731
 H1696 H 0.78146 0.75636 0.14948
 C1697 C 0.19286 0.63102 0.25935
 C1698 C 0.17907 0.62496 0.24129
 C1699 C 0.17839 0.64022 0.22323
 C1700 C 0.19119 0.66158 0.22346
 C1701 C 0.12945 0.54595 0.24849
 C1702 C 0.20552 0.65222 0.25965
 C1703 C 0.16534 0.60331 0.24197
 C1704 C 0.15405 0.58517 0.24361
 C1705 C 0.14086 0.56395 0.24622
 C1706 C 0.20473 0.66795 0.24183
 H1707 H 0.19362 0.61944 0.27341
 H1708 H 0.16776 0.63577 0.20912
 H1709 H 0.19010 0.67328 0.20952
 H1710 H 0.21581 0.65635 0.27405
 C1711 C 0.67838 0.14068 0.72437
 C1712 C 0.67951 0.12520 0.74224
 C1713 C 0.69369 0.13108 0.76010
 C1714 C 0.70628 0.15232 0.76039
 C1715 C 0.62991 0.04619 0.74930
 C1716 C 0.69112 0.16207 0.72459
 C1717 C 0.66582 0.10353 0.74293
 C1718 C 0.65455 0.08539 0.74456
 C1719 C 0.64135 0.06416 0.74710
 C1720 C 0.70502 0.16827 0.74277
 H1721 H 0.66745 0.13637 0.71042
 H1722 H 0.69480 0.11933 0.77401
 H1723 H 0.71687 0.15632 0.77464
 H1724 H 0.68965 0.17395 0.71082
 C1725 C 0.82669 0.13529 0.26856
 C1726 C 0.82424 0.11979 0.25111
 C1727 C 0.80869 0.12484 0.23411
 C1728 C 0.79581 0.14528 0.23439
 C1729 C 0.87350 0.04307 0.24753
 C1730 C 0.81375 0.15583 0.26890
 C1731 C 0.83775 0.09880 0.25032
 C1732 C 0.84893 0.08118 0.24928
 C1733 C 0.86208 0.06057 0.24808
 C1734 C 0.79821 0.16113 0.25172
 H1735 H 0.83869 0.13159 0.28183
 H1736 H 0.80660 0.11301 0.22053
 H1737 H 0.78402 0.14867 0.22088
 H1738 H 0.81611 0.16765 0.28244
 C1739 C 0.32758 0.63793 0.76771
 C1740 C 0.32524 0.62243 0.75024
 C1741 C 0.30991 0.62756 0.73310
 C1742 C 0.29709 0.64804 0.73327
 C1743 C 0.37383 0.54525 0.74710
 C1744 C 0.31470 0.65852 0.76794
 C1745 C 0.33860 0.60133 0.74961
 C1746 C 0.34962 0.58361 0.74868
 C1747 C 0.36257 0.56285 0.74757
 C1748 C 0.29934 0.66387 0.75065
 H1749 H 0.33942 0.63417 0.78109
 H1750 H 0.30791 0.61575 0.71950
 H1751 H 0.28544 0.65147 0.71967
 H1752 H 0.31694 0.67030 0.78152
 C1753 C 0.31730 0.37075 0.76012
 C1754 C 0.33260 0.37638 0.74314
 C1755 C 0.33501 0.36061 0.72601
 C1756 C 0.32236 0.33921 0.72607
 C1757 C 0.37683 0.45831 0.74871
 C1758 C 0.30473 0.34948 0.76024
 C1759 C 0.34568 0.39836 0.74366
 C1760 C 0.35608 0.41700 0.74492
 C1761 C 0.36761 0.43914 0.74692
 C1762 C 0.30717 0.33331 0.74331
 H1763 H 0.31519 0.38278 0.77343
 H1764 H 0.34677 0.36476 0.71273
 H1765 H 0.32474 0.32718 0.71284
 H1766 H 0.29321 0.34567 0.77378
 C1767 C 0.81940 0.87043 0.26003
 C1768 C 0.83469 0.87604 0.24304
 C1769 C 0.83704 0.86028 0.22590
 C1770 C 0.82434 0.83891 0.22595
 C1771 C 0.87896 0.95786 0.24925
 C1772 C 0.80679 0.84919 0.26015
 C1773 C 0.84784 0.89797 0.24360
 C1774 C 0.85827 0.91659 0.24496
 C1775 C 0.86979 0.93871 0.24719
 C1776 C 0.80917 0.83303 0.24320
 H1777 H 0.81734 0.88245 0.27335
 H1778 H 0.84880 0.86442 0.21260
 H1779 H 0.82668 0.82688 0.21270
 H1780 H 0.79528 0.84539 0.27370
 C1781 C 0.67387 0.86532 0.77559
 C1782 C 0.66394 0.87560 0.75695
 C1783 C 0.66505 0.86405 0.73706
 C1784 C 0.67625 0.84267 0.73565
 C1785 C 0.62568 0.95887 0.75552
 C1786 C 0.68511 0.84380 0.77424
 C1787 C 0.65317 0.89824 0.75778
 C1788 C 0.64431 0.91727 0.75759
 C1789 C 0.63413 0.93968 0.75666
 C1790 C 0.68666 0.83230 0.75416
 H1791 H 0.67317 0.87406 0.79112
 H1792 H 0.65748 0.87174 0.72250
 H1793 H 0.67697 0.83441 0.71990
 H1794 H 0.69291 0.83640 0.78880
 C1795 C 0.17431 0.36544 0.27540
 C1796 C 0.16441 0.37566 0.25671
 C1797 C 0.16568 0.36412 0.23683
 C1798 C 0.17701 0.34280 0.23547
 C1799 C 0.12558 0.45867 0.25505
 C1800 C 0.18567 0.34398 0.27409
 C1801 C 0.15348 0.39823 0.25749
 C1802 C 0.14448 0.41719 0.25726
 C1803 C 0.13415 0.43953 0.25626
 C1804 C 0.18737 0.33247 0.25402
 H1805 H 0.17348 0.37416 0.29092
 H1806 H 0.15813 0.37177 0.22224
 H1807 H 0.17784 0.33454 0.21973
 H1808 H 0.19343 0.33661 0.28869
 C1809 C 0.12427 0.23489 0.77621
 C1810 C 0.11967 0.21870 0.79292
 C1811 C 0.13776 0.20573 0.80204
 C1812 C 0.16062 0.20947 0.79494
 C1813 C 0.04448 0.22619 0.83849
 C1814 C 0.14713 0.23864 0.76902
 C1815 C 0.09733 0.21810 0.80310
 C1816 C 0.07950 0.21912 0.81308
 C1817 C 0.06000 0.22213 0.82623
 C1818 C 0.16561 0.22633 0.77867
 H1819 H 0.11035 0.24526 0.76934
 H1820 H 0.13434 0.19340 0.81522
 H1821 H 0.17441 0.19949 0.80251
 H1822 H 0.15039 0.25164 0.75639
 C1823 C 0.62630 0.73491 0.27662
 C1824 C 0.62173 0.71867 0.29330
 C1825 C 0.63980 0.70556 0.30227
 C1826 C 0.66263 0.70922 0.29506
 C1827 C 0.54701 0.72696 0.33935
 C1828 C 0.64913 0.73858 0.26933
 C1829 C 0.59949 0.71823 0.30365
 C1830 C 0.58177 0.71943 0.31377
 C1831 C 0.56241 0.72269 0.32704
 C1832 C 0.66760 0.72615 0.27885
 H1833 H 0.61240 0.74539 0.26987
 H1834 H 0.63639 0.69320 0.31542
 H1835 H 0.67642 0.69914 0.30252
 H1836 H 0.65238 0.75163 0.25674
 C1837 C 0.61848 0.27167 0.20497
 C1838 C 0.60228 0.25597 0.21439
 C1839 C 0.60962 0.23914 0.22942
 C1840 C 0.63329 0.23772 0.23476
 C1841 C 0.52534 0.25149 0.16993
 C1842 C 0.64216 0.27024 0.21019
 C1843 C 0.57892 0.25510 0.20605
 C1844 C 0.56038 0.25403 0.19685
 C1845 C 0.54052 0.25261 0.18346
 C1846 C 0.64984 0.25300 0.22489
 H1847 H 0.61289 0.28453 0.19305
 H1848 H 0.59718 0.22668 0.23647
 H1849 H 0.63866 0.22431 0.24621
 H1850 H 0.65443 0.28242 0.20252
 C1851 C 0.11805 0.77168 0.70447
 C1852 C 0.10215 0.75575 0.71399
 C1853 C 0.10985 0.73908 0.72902
 C1854 C 0.13358 0.73807 0.73426
 C1855 C 0.02500 0.75050 0.66993
 C1856 C 0.14178 0.77066 0.70958
 C1857 C 0.07874 0.75452 0.70580
 C1858 C 0.06015 0.75323 0.69670
 C1859 C 0.04023 0.75166 0.68341
 C1860 C 0.14983 0.75361 0.72429
 H1861 H 0.11219 0.78442 0.69255
 H1862 H 0.09765 0.72644 0.73616
 H1863 H 0.13923 0.72478 0.74571
 H1864 H 0.15381 0.78302 0.70184
 C1865 C 0.85364 0.76097 0.67090
 C1866 C 0.85804 0.74001 0.66037
 C1867 C 0.84147 0.72163 0.66069
 C1868 C 0.82089 0.72387 0.67242
 C1869 C 0.94568 0.73514 0.64025
 C1870 C 0.83320 0.76320 0.68274
 C1871 C 0.88089 0.73659 0.65199
 C1872 C 0.90090 0.73475 0.64678
 C1873 C 0.92490 0.73414 0.64260
 C1874 C 0.81694 0.74442 0.68413
 H1875 H 0.86652 0.77521 0.67082
 H1876 H 0.84492 0.70527 0.65273
 H1877 H 0.80866 0.70910 0.67319
 H1878 H 0.83054 0.77930 0.69141
 C1879 C 0.34211 0.22129 0.16085
 C1880 C 0.35861 0.23973 0.16032
 C1881 C 0.35415 0.26078 0.17069
 C1882 C 0.33373 0.26304 0.18255
 C1883 C 0.44624 0.23533 0.14015
 C1884 C 0.32154 0.22356 0.17260
 C1885 C 0.38145 0.23634 0.15192
 C1886 C 0.40146 0.23457 0.14670
 C1887 C 0.42546 0.23413 0.14251
 C1888 C 0.31754 0.24422 0.18413
 H1889 H 0.34560 0.20486 0.15302
 H1890 H 0.36697 0.27507 0.17046
 H1891 H 0.33103 0.27922 0.19108
 H1892 H 0.30938 0.20875 0.17352
 C1893 C 0.38244 0.75446 0.29883
 C1894 C 0.38373 0.76238 0.32022
 C1895 C 0.36420 0.77210 0.32987
 C1896 C 0.34316 0.77338 0.31817
 C1897 C 0.46523 0.74613 0.35498
 C1898 C 0.36153 0.75561 0.28720
 C1899 C 0.40508 0.75939 0.33211
 C1900 C 0.42361 0.75579 0.34066
 C1901 C 0.44583 0.75073 0.34902
 C1902 C 0.34157 0.76476 0.29683
 H1903 H 0.39753 0.74696 0.29125
 H1904 H 0.36513 0.77825 0.34647
 H1905 H 0.32802 0.78044 0.32601
 H1906 H 0.36095 0.74900 0.27075
 C1907 C 0.88258 0.25652 0.79868
 C1908 C 0.88367 0.26305 0.82049
 C1909 C 0.86395 0.27181 0.83062
 C1910 C 0.84289 0.27339 0.81900
 C1911 C 0.96438 0.24403 0.85565
 C1912 C 0.86164 0.25795 0.78711
 C1913 C 0.90490 0.25931 0.83237
 C1914 C 0.92325 0.25506 0.84097
 C1915 C 0.94521 0.24924 0.84949
 C1916 C 0.84147 0.26600 0.79725
 H1917 H 0.89781 0.24975 0.79073
 H1918 H 0.86471 0.27686 0.84756
 H1919 H 0.82758 0.27958 0.82721
 H1920 H 0.86116 0.25232 0.77034
 C1921 C 0.50601 0.99838 0.63536
 C1922 C 0.52163 0.98190 0.64369
 C1923 C 0.52923 0.96405 0.63030
 C1924 C 0.52224 0.96327 0.60849
 C1925 C 0.56855 0.99498 0.71665
 C1926 C 0.49883 0.99753 0.61347
 C1927 C 0.53211 0.98466 0.66499
 C1928 C 0.54240 0.98723 0.68209
 C1929 C 0.55594 0.99090 0.70120
 C1930 C 0.50746 0.98035 0.59965
 H1931 H 0.50015 1.01241 0.64551
 H1932 H 0.54140 0.95128 0.63647
 H1933 H 0.52910 0.94973 0.59833
 H1934 H 0.48760 1.01103 0.60711
 C1935 C 0.02834 0.46298 1.12998
 C1936 C 0.02092 0.48096 1.14332
 C1937 C 0.00534 0.49747 1.13500
 C1938 C -0.00199 0.49654 1.11315
 C1939 C 0.06824 0.49438 1.21603
 C1940 C 0.02120 0.46211 1.10821
 C1941 C 0.03156 0.48379 1.16456
 C1942 C 0.04195 0.48645 1.18159
 C1943 C 0.05558 0.49022 1.20064
 C1944 C 0.00647 0.47923 1.09936
 H1945 H 0.04047 0.45018 1.13615
 H1946 H -0.00038 0.51160 1.14511
 H1947 H -0.01317 0.51006 1.10679
 H1948 H 0.02793 0.44847 1.09808
 C1949 C -0.01260 -0.03065 1.12913
 C1950 C -0.03633 -0.03178 1.13472
 C1951 C -0.05336 -0.03455 1.11840
 C1952 C -0.04690 -0.03458 1.09656
 C1953 C -0.07112 -0.00885 1.21011
 C1954 C -0.00605 -0.03091 1.10717
 C1955 C -0.04377 -0.02724 1.15660
 C1956 C -0.05134 -0.02224 1.17418
 C1957 C -0.06152 -0.01534 1.19393
 C1958 C -0.02326 -0.03193 1.09067
 H1959 H 0.00074 -0.02837 1.14161
 H1960 H -0.07176 -0.03539 1.12247
 H1961 H -0.06053 -0.03545 1.08420
 H1962 H 0.01225 -0.02858 1.10308
 C1963 C 0.44701 0.46667 0.61866
 C1964 C 0.46405 0.46960 0.63493
 C1965 C 0.48779 0.47065 0.62931
 C1966 C 0.49430 0.47016 0.60736
 C1967 C 0.42931 0.49320 0.71014
 C1968 C 0.45343 0.46639 0.59682
 C1969 C 0.45665 0.47438 0.65678
 C1970 C 0.44910 0.47955 0.67431
 C1971 C 0.43893 0.48662 0.69400
 C1972 C 0.47707 0.46897 0.59089
 H1973 H 0.42861 0.46588 0.62276
 H1974 H 0.50114 0.47306 0.64176
 H1975 H 0.51260 0.47244 0.60323
 H1976 H 0.43979 0.46541 0.58448
 C1977 C 0.45889 0.51121 -0.12222
 C1978 C 0.47604 0.50874 -0.13801
 C1979 C 0.49975 0.50901 -0.13183
 C1980 C 0.50612 0.51094 -0.10974
 C1981 C 0.43470 0.50188 -0.21397
 C1982 C 0.46515 0.51301 -0.10035
 C1983 C 0.46845 0.50558 -0.16026
 C1984 C 0.45970 0.50331 -0.17810
 C1985 C 0.44709 0.50170 -0.19796
 C1986 C 0.48876 0.51241 -0.09375
 H1987 H 0.44053 0.51125 -0.12677
 H1988 H 0.51320 0.50723 -0.14394
 H1989 H 0.52441 0.51030 -0.10510
 H1990 H 0.45135 0.51433 -0.08849
 C1991 C -0.04017 1.01000 0.37758
 C1992 C -0.02306 1.00753 0.36175
 C1993 C 0.00066 1.00782 0.36789
 C1994 C 0.00708 1.00978 0.38996
 C1995 C -0.06459 1.00051 0.28588
 C1996 C -0.03387 1.01182 0.39943
 C1997 C -0.03069 1.00436 0.33951
 C1998 C -0.03948 1.00205 0.32169
 C1999 C -0.05213 1.00039 0.30185
 C2000 C -0.01023 1.01125 0.40599
 H2001 H -0.05855 1.01002 0.37306
 H2002 H 0.01409 1.00605 0.35574
 H2003 H 0.02539 1.00916 0.39456
 H2004 H -0.04763 1.01314 0.41132
 C2005 C 0.00659 0.48762 0.37138
 C2006 C 0.03042 0.48461 0.36712
 C2007 C 0.04601 0.48127 0.38447
 C2008 C 0.03823 0.48217 0.40589
 C2009 C 0.07215 0.49784 0.29175
 C2010 C -0.00132 0.48834 0.39296
 C2011 C 0.03968 0.48702 0.34536
 C2012 C 0.04890 0.48983 0.32786
 C2013 C 0.06101 0.49387 0.30807
 C2014 C 0.01463 0.48638 0.41042
 H2015 H -0.00567 0.49032 0.35810
 H2016 H 0.06446 0.47894 0.38147
 H2017 H 0.05093 0.48050 0.41898
 H2018 H -0.01953 0.49182 0.39596
 C2019 C 0.50750 -0.01237 -0.12761
 C2020 C 0.53134 -0.01513 -0.13195
 C2021 C 0.54707 -0.01814 -0.11464
 C2022 C 0.53939 -0.01716 -0.09320
 C2023 C 0.57259 -0.00193 -0.20753
 C2024 C 0.49969 -0.01157 -0.10600
 C2025 C 0.54046 -0.01277 -0.15375
 C2026 C 0.54957 -0.00998 -0.17131
 C2027 C 0.56155 -0.00593 -0.19116
 C2028 C 0.51575 -0.01320 -0.08859
 H2029 H 0.49514 -0.00992 -0.14085
 H2030 H 0.56553 -0.02028 -0.11771
 H2031 H 0.55217 -0.01859 -0.08016
 H2032 H 0.48144 -0.00829 -0.10295
 C2033 C 0.62745 0.57377 -0.02768
 C2034 C 0.64309 0.57121 -0.01010
 C2035 C 0.63745 0.55553 0.00677
 C2036 C 0.61612 0.54307 0.00649
 C2037 C 0.71955 0.62477 -0.00491
 C2038 C 0.60600 0.56119 -0.02803
 C2039 C 0.66442 0.58529 -0.00867
 C2040 C 0.68209 0.59728 -0.00704
 C2041 C 0.70252 0.61179 -0.00537
 C2042 C 0.59989 0.54602 -0.01070
 H2043 H 0.63159 0.58587 -0.04085
 H2044 H 0.64934 0.55331 0.02043
 H2045 H 0.61214 0.53145 0.02007
 H2046 H 0.59391 0.56397 -0.04143
 C2047 C 0.13875 1.05462 0.50603
 C2048 C 0.14422 1.07047 0.48926
 C2049 C 0.12848 1.07309 0.47177
 C2050 C 0.10709 1.06041 0.47142
 C2051 C 0.22027 1.12461 0.49469
 C2052 C 0.11747 1.04206 0.50577
 C2053 C 0.16545 1.08471 0.49073
 C2054 C 0.18302 1.09683 0.49241
 C2055 C 0.20333 1.11150 0.49415
 C2056 C 0.10114 1.04508 0.48868
 H2057 H 0.15072 1.05235 0.51963
 H2058 H 0.13249 1.08533 0.45866
 H2059 H 0.09491 1.06325 0.45811
 H2060 H 0.11361 1.03031 0.51928
 C2061 C 0.11461 -0.07704 1.02542
 C2062 C 0.13109 -0.07289 1.00897
 C2063 C 0.12693 -0.05563 0.99318
 C2064 C 0.10632 -0.04298 0.99348
 C2065 C 0.20600 -0.12382 0.99885
 C2066 C 0.09392 -0.06432 1.02579
 C2067 C 0.15179 -0.08685 1.00753
 C2068 C 0.16903 -0.09846 1.00545
 C2069 C 0.18909 -0.11210 1.00220
 C2070 C 0.08936 -0.04732 1.00963
 H2071 H 0.11755 -0.09039 1.03773
 H2072 H 0.13948 -0.05223 0.98035
 H2073 H 0.10352 -0.03003 0.98078
 H2074 H 0.08124 -0.06823 1.03839
 C2075 C 0.62717 0.44439 0.49353
 C2076 C 0.63114 0.42699 0.50922
 C2077 C 0.61460 0.42288 0.52563
 C2078 C 0.59402 0.43577 0.52604
 C2079 C 0.70552 0.37532 0.49902
 C2080 C 0.60666 0.45722 0.49386
 C2081 C 0.65169 0.41283 0.50771
 C2082 C 0.66880 0.40104 0.50560
 C2083 C 0.68872 0.38720 0.50233
 C2084 C 0.58964 0.45290 0.50995
 H2085 H 0.63976 0.44778 0.48073
 H2086 H 0.61740 0.40942 0.53786
 H2087 H 0.58129 0.43187 0.53859
 H2088 H 0.60398 0.47026 0.48123
 C2089 C -0.12768 0.44057 0.47405
 C2090 C -0.14396 0.44422 0.49052
 C2091 C -0.13979 0.46212 0.50550
 C2092 C -0.11912 0.47570 0.50456
 C2093 C -0.21492 0.38385 0.49633
 C2094 C -0.10696 0.45419 0.47303
 C2095 C -0.16423 0.42878 0.49283
 C2096 C -0.18076 0.41532 0.49474
 C2097 C -0.19956 0.39877 0.49629
 C2098 C -0.10218 0.47160 0.48860
 H2099 H -0.13067 0.42674 0.46236
 H2100 H -0.15221 0.46516 0.51831
 H2101 H -0.11610 0.48895 0.51679
 H2102 H -0.09426 0.45041 0.46066
 C2103 C 0.36131 -0.03741 0.00638
 C2104 C 0.35713 -0.05525 -0.00865
 C2105 C 0.37345 -0.05892 -0.02508
 C2106 C 0.39421 -0.04535 -0.02602
 C2107 C 0.28574 -0.11520 -0.00354
 C2108 C 0.38202 -0.02388 0.00551
 C2109 C 0.33676 -0.07058 -0.00648
 C2110 C 0.32013 -0.08395 -0.00472
 C2111 C 0.30121 -0.10038 -0.00337
 C2112 C 0.39899 -0.02798 -0.01043
 H2113 H 0.34886 -0.03435 0.01916
 H2114 H 0.37045 -0.07271 -0.03681
 H2115 H 0.40692 -0.04913 -0.03838
 H2116 H 0.38504 -0.01065 0.01777
 C2117 C 0.37499 1.05166 0.49688
 C2118 C 0.36959 1.06485 0.51510
 C2119 C 0.38389 1.06355 0.53376
 C2120 C 0.40384 1.04962 0.53390
 C2121 C 0.30025 1.12279 0.50217
 C2122 C 0.39484 1.03794 0.49693
 C2123 C 0.35015 1.08058 0.51369
 C2124 C 0.33412 1.09378 0.51105
 C2125 C 0.31565 1.10936 0.50667
 C2126 C 0.40980 1.03704 0.51526
 H2127 H 0.36414 1.05245 0.48235
 H2128 H 0.37996 1.07372 0.54798
 H2129 H 0.41506 1.04943 0.54819
 H2130 H 0.39876 1.02838 0.48234
 C2131 C -0.12582 0.55121 0.99676
 C2132 C -0.13116 0.56439 1.01500
 C2133 C -0.11685 0.56302 1.03365
 C2134 C -0.09694 0.54902 1.03376
 C2135 C -0.20039 0.62248 1.00216
 C2136 C -0.10601 0.53742 0.99678
 C2137 C -0.15056 0.58017 1.01363
 C2138 C -0.16657 0.59341 1.01101
 C2139 C -0.18501 0.60902 1.00665
 C2140 C -0.09104 0.53645 1.01510
 H2141 H -0.13667 0.55206 0.98224
 H2142 H -0.12073 0.57319 1.04788
 H2143 H -0.08571 0.54877 1.04805
 H2144 H -0.10214 0.52787 0.98218
 C2145 C -0.00090 0.64960 0.52510
 C2146 C 0.01614 0.65368 0.54117
 C2147 C 0.03063 0.63567 0.54809
 C2148 C 0.02723 0.61323 0.53987
 C2149 C 0.00853 0.72060 0.59661
 C2150 C -0.00425 0.62717 0.51673
 C2151 C 0.01583 0.67462 0.55358
 C2152 C 0.01444 0.69069 0.56582
 C2153 C 0.01166 0.70757 0.58184
 C2154 C 0.00923 0.60862 0.52465
 H2155 H -0.01242 0.66342 0.51994
 H2156 H 0.04367 0.63865 0.56074
 H2157 H 0.03812 0.59936 0.54602
 H2158 H -0.01817 0.62411 0.50494
 C2159 C 0.53151 0.13679 0.04825
 C2160 C 0.51700 0.15474 0.04123
 C2161 C 0.49993 0.15054 0.02522
 C2162 C 0.49657 0.12803 0.01699
 C2163 C 0.50924 0.22178 0.09648
 C2164 C 0.52809 0.11429 0.04018
 C2165 C 0.51667 0.17575 0.05354
 C2166 C 0.51526 0.19186 0.06572
 C2167 C 0.51244 0.20877 0.08172
 C2168 C 0.51007 0.10954 0.02502
 H2169 H 0.54457 0.13987 0.06086
 H2170 H 0.48839 0.16431 0.01998
 H2171 H 0.48263 0.12488 0.00524
 H2172 H 0.53900 0.10046 0.04641
 C2173 C 0.01003 0.13656 0.98015
 C2174 C -0.00720 0.14308 0.96511
 C2175 C -0.02490 0.12709 0.95904
 C2176 C -0.02464 0.10418 0.96698
 C2177 C 0.00632 0.21026 0.90891
 C2178 C 0.01024 0.11364 0.98826
 C2179 C -0.00438 0.16428 0.95274
 C2180 C -0.00144 0.18048 0.94040
 C2181 C 0.00255 0.19740 0.92409
 C2182 C -0.00660 0.09704 0.98107
 H2183 H 0.02400 0.14877 0.98465
 H2184 H -0.03814 0.13194 0.94721
 H2185 H -0.03803 0.09185 0.96141
 H2186 H 0.02430 0.10861 0.99913
 C2187 C 0.50971 0.63683 0.47994
 C2188 C 0.49266 0.64318 0.46466
 C2189 C 0.47520 0.62704 0.45836
 C2190 C 0.47553 0.60414 0.46633
 C2191 C 0.50713 0.71056 0.40883
 C2192 C 0.50999 0.61392 0.48808
 C2193 C 0.49553 0.66438 0.45230
 C2194 C 0.49862 0.68060 0.44003
 C2195 C 0.50294 0.69759 0.42385
 C2196 C 0.49341 0.59717 0.48068
 H2197 H 0.52350 0.64916 0.48463
 H2198 H 0.46211 0.63176 0.44633
 H2199 H 0.46233 0.59169 0.46060
 H2200 H 0.52392 0.60903 0.49916
 C2201 C 0.52535 0.88740 0.42282
 C2202 C 0.50958 0.86850 0.42523
 C2203 C 0.49075 0.86986 0.43943
 C2204 C 0.48786 0.88997 0.45159
 C2205 C 0.51819 0.78778 0.38771
 C2206 C 0.52249 0.90760 0.43496
 C2207 C 0.51304 0.84721 0.41389
 C2208 C 0.51537 0.82883 0.40508
 C2209 C 0.51728 0.80686 0.39549
 C2210 C 0.50385 0.90897 0.44966
 H2211 H 0.54001 0.88638 0.41186
 H2212 H 0.47849 0.85523 0.44136
 H2213 H 0.47329 0.89048 0.46269
 H2214 H 0.53513 0.92191 0.43313
 C2215 C -0.01236 0.36915 0.93849
 C2216 C 0.00625 0.36766 0.92406
 C2217 C 0.02230 0.38635 0.92171
 C2218 C 0.01993 0.40644 0.93411
 C2219 C 0.01422 0.28708 0.88608
 C2220 C -0.01475 0.38915 0.95092
 C2221 C 0.00928 0.34643 0.91250
 C2222 C 0.01136 0.32808 0.90355
 C2223 C 0.01319 0.30615 0.89388
 C2224 C 0.00151 0.40792 0.94903
 H2225 H -0.02482 0.35468 0.94040
 H2226 H 0.03680 0.38523 0.91057
 H2227 H 0.03276 0.42058 0.93229
 H2228 H -0.02917 0.38974 0.96219
 C2229 C 0.50331 0.37100 0.04471
 C2230 C 0.48672 0.36872 0.06121
 C2231 C 0.47323 0.38771 0.06685
 C2232 C 0.47667 0.40920 0.05634
 C2233 C 0.48686 0.29367 0.11010
 C2234 C 0.50679 0.39249 0.03412
 C2235 C 0.48503 0.34757 0.07371
 C2236 C 0.48454 0.33024 0.08484
 C2237 C 0.48520 0.31042 0.09836
 C2238 C 0.49376 0.41191 0.04009
 H2239 H 0.51394 0.35634 0.04042
 H2240 H 0.46045 0.38606 0.07973
 H2241 H 0.46618 0.42374 0.06118
 H2242 H 0.52001 0.39400 0.02164
 C2243 C 0.00432 0.87018 0.54463
 C2244 C -0.01231 0.86796 0.56110
 C2245 C -0.02572 0.88701 0.56675
 C2246 C -0.02216 0.90850 0.55627
 C2247 C -0.01293 0.79283 0.60990
 C2248 C 0.00790 0.89167 0.53406
 C2249 C -0.01417 0.84678 0.57354
 C2250 C -0.01483 0.82943 0.58464
 C2251 C -0.01439 0.80958 0.59815
 C2252 C -0.00506 0.91114 0.54003
 H2253 H 0.01488 0.85548 0.54032
 H2254 H -0.03852 0.88540 0.57961
 H2255 H -0.03260 0.92308 0.56110
 H2256 H 0.02113 0.89314 0.52159
 C2257 C 0.21372 0.27879 0.11997
 C2258 C 0.23159 0.27129 0.10654
 C2259 C 0.24818 0.25578 0.11485
 C2260 C 0.24743 0.24862 0.13676
 C2261 C 0.24431 0.31821 0.03344
 C2262 C 0.21302 0.27181 0.14180
 C2263 C 0.23424 0.28177 0.08521
 C2264 C 0.23673 0.29206 0.06808
 C2265 C 0.24031 0.30560 0.04892
 C2266 C 0.23022 0.25715 0.15062
 H2267 H 0.20086 0.29087 0.11381
 H2268 H 0.26223 0.25001 0.10467
 H2269 H 0.26101 0.23748 0.14310
 H2270 H 0.19946 0.27860 0.15199
 C2271 C 0.71348 0.77929 0.61989
 C2272 C 0.73129 0.77163 0.60647
 C2273 C 0.74771 0.75595 0.61477
 C2274 C 0.74686 0.74875 0.63667
 C2275 C 0.74460 0.81843 0.53338
 C2276 C 0.71269 0.77228 0.64171
 C2277 C 0.73405 0.78210 0.58514
 C2278 C 0.73667 0.79236 0.56801
 C2279 C 0.74043 0.80586 0.54886
 C2280 C 0.72973 0.75742 0.65053
 H2281 H 0.70075 0.79150 0.61374
 H2282 H 0.76171 0.75004 0.60460
 H2283 H 0.76032 0.73746 0.64300
 H2284 H 0.69919 0.77918 0.65190
 C2285 C 0.21711 0.69705 0.63133
 C2286 C 0.21988 0.71406 0.61497
 C2287 C 0.22083 0.73782 0.62049
 C2288 C 0.22038 0.74440 0.64242
 C2289 C 0.24313 0.67915 0.53971
 C2290 C 0.21688 0.70354 0.65314
 C2291 C 0.22458 0.70661 0.59312
 C2292 C 0.22967 0.69902 0.57557
 C2293 C 0.23663 0.68881 0.55587
 C2294 C 0.21934 0.72721 0.65897
 H2295 H 0.21641 0.67863 0.62730
 H2296 H 0.22311 0.75115 0.60798
 H2297 H 0.22256 0.76272 0.64647
 H2298 H 0.21602 0.68992 0.66553
 C2299 C 0.71673 0.19550 0.13208
 C2300 C 0.71946 0.21257 0.11578
 C2301 C 0.72056 0.23630 0.12140
 C2302 C 0.72025 0.24278 0.14336
 C2303 C 0.74214 0.17795 0.04024
 C2304 C 0.71664 0.20189 0.15393
 C2305 C 0.72395 0.20520 0.09386
 C2306 C 0.72888 0.19768 0.07624
 C2307 C 0.73570 0.18754 0.05645
 C2308 C 0.71921 0.22552 0.15985
 H2309 H 0.71592 0.17710 0.12799
 H2310 H 0.72282 0.24969 0.10893
 H2311 H 0.72252 0.26108 0.14747
 H2312 H 0.71577 0.18822 0.16627
 C2313 C 0.75822 0.24983 0.88242
 C2314 C 0.75806 0.22606 0.88845
 C2315 C 0.76054 0.20908 0.87252
 C2316 C 0.76225 0.21556 0.85067
 C2317 C 0.75138 0.18429 0.96437
 C2318 C 0.76006 0.25642 0.86037
 C2319 C 0.75500 0.21827 0.91068
 C2320 C 0.75279 0.20940 0.92850
 C2321 C 0.75122 0.19672 0.94836
 C2322 C 0.76155 0.23924 0.84424
 H2323 H 0.75644 0.26316 0.89464
 H2324 H 0.76065 0.19067 0.87694
 H2325 H 0.76357 0.20188 0.83871
 H2326 H 0.75934 0.27477 0.85587
 C2327 C 0.25846 0.74956 0.38152
 C2328 C 0.25785 0.72580 0.38759
 C2329 C 0.25980 0.70873 0.37167
 C2330 C 0.26147 0.71511 0.34981
 C2331 C 0.25163 0.68440 0.46370
 C2332 C 0.26026 0.75607 0.35944
 C2333 C 0.25493 0.71812 0.40987
 C2334 C 0.25283 0.70934 0.42773
 C2335 C 0.25137 0.69675 0.44764
 C2336 C 0.26126 0.73880 0.34333
 H2337 H 0.25710 0.76297 0.39373
 H2338 H 0.25956 0.69032 0.37613
 H2339 H 0.26242 0.70137 0.33788
 H2340 H 0.25994 0.77442 0.35491
 C2341 C 0.73206 0.79648 0.36477
 C2342 C 0.73515 0.78082 0.38214
 C2343 C 0.73804 0.75698 0.37789
 C2344 C 0.73890 0.74910 0.35632
 C2345 C 0.74806 0.82236 0.45757
 C2346 C 0.73310 0.78873 0.34335
 C2347 C 0.73744 0.79003 0.40391
 C2348 C 0.74016 0.79920 0.42143
 C2349 C 0.74413 0.81126 0.44123
 C2350 C 0.73719 0.76509 0.33884
 H2351 H 0.72982 0.81494 0.36776
 H2352 H 0.74055 0.74467 0.39119
 H2353 H 0.74228 0.73086 0.35333
 H2354 H 0.73161 0.80147 0.33026
 C2355 C 0.23650 0.25701 0.87789
 C2356 C 0.23355 0.28084 0.88219
 C2357 C 0.23021 0.29650 0.86487
 C2358 C 0.23108 0.28879 0.84344
 C2359 C 0.24720 0.32223 0.95759
 C2360 C 0.23719 0.24917 0.85630
 C2361 C 0.23605 0.29002 0.90395
 C2362 C 0.23896 0.29916 0.92146
 C2363 C 0.24312 0.31117 0.94126
 C2364 C 0.23525 0.26518 0.83886
 H2365 H 0.23920 0.24470 0.89115
 H2366 H 0.22792 0.31494 0.86791
 H2367 H 0.22943 0.30153 0.83037
 H2368 H 0.24065 0.23096 0.85326
 C2369 C 0.82234 0.37874 0.77852
 C2370 C 0.81926 0.39473 0.76127
 C2371 C 0.80284 0.38958 0.74492
 C2372 C 0.79019 0.36835 0.74530
 C2373 C 0.87398 0.47032 0.75521
 C2374 C 0.80958 0.35740 0.77898
 C2375 C 0.83363 0.41586 0.75959
 C2376 C 0.84588 0.43333 0.75776
 C2377 C 0.86072 0.45350 0.75586
 C2378 C 0.79371 0.35175 0.76209
 H2379 H 0.83502 0.38250 0.79129
 H2380 H 0.80021 0.40175 0.73152
 H2381 H 0.77803 0.36470 0.73208
 H2382 H 0.81281 0.34500 0.79205
 C2383 C 0.30430 0.88859 0.24387
 C2384 C 0.32017 0.89393 0.26064
 C2385 C 0.32275 0.87808 0.27807
 C2386 C 0.31003 0.85672 0.27836
 C2387 C 0.37451 0.96988 0.25541
 C2388 C 0.29169 0.86734 0.24408
 C2389 C 0.33446 0.91513 0.25921
 C2390 C 0.34664 0.93269 0.25759
 C2391 C 0.36136 0.95297 0.25590
 C2392 C 0.29468 0.85089 0.26110
 H2393 H 0.30205 0.90065 0.23033
 H2394 H 0.33500 0.88198 0.29116
 H2395 H 0.31285 0.84444 0.29161
 H2396 H 0.27994 0.86358 0.23057
 C2397 C 0.19396 0.87723 0.75620
 C2398 C 0.17658 0.88118 0.74050
 C2399 C 0.17250 0.86462 0.72413
 C2400 C 0.18541 0.84404 0.72376
 C2401 C 0.12508 0.95566 0.75074
 C2402 C 0.20680 0.85674 0.75591
 C2403 C 0.16244 0.90175 0.74197
 C2404 C 0.15068 0.91888 0.74408
 C2405 C 0.13691 0.93883 0.74737
 C2406 C 0.20253 0.83969 0.73985
 H2407 H 0.19732 0.88984 0.76896
 H2408 H 0.15906 0.86740 0.71190
 H2409 H 0.18155 0.83129 0.71124
 H2410 H 0.21984 0.85409 0.76854
 C2411 C 0.67389 0.36345 0.22510
 C2412 C 0.67817 0.37995 0.24148
 C2413 C 0.69551 0.37580 0.25717
 C2414 C 0.70811 0.35515 0.25686
 C2415 C 0.62745 0.45497 0.25178
 C2416 C 0.68656 0.34272 0.22471
 C2417 C 0.66426 0.40068 0.24297
 C2418 C 0.65269 0.41794 0.24510
 C2419 C 0.63911 0.43803 0.24841
 C2420 C 0.70363 0.33816 0.24080
 H2421 H 0.66047 0.36639 0.21288
 H2422 H 0.69902 0.38837 0.26993
 H2423 H 0.72112 0.35235 0.26948
 H2424 H 0.68254 0.33001 0.21220
 C2425 C 0.69187 0.62262 0.27548
 C2426 C 0.69558 0.60633 0.25904
 C2427 C 0.71343 0.61058 0.24401
 C2428 C 0.72692 0.63131 0.24487
 C2429 C 0.63576 0.53486 0.25387
 C2430 C 0.70539 0.64341 0.27641
 C2431 C 0.68028 0.58595 0.25686
 C2432 C 0.66695 0.56930 0.25508
 C2433 C 0.65055 0.55035 0.25372
 C2434 C 0.72277 0.64824 0.26081
 H2435 H 0.67807 0.61957 0.28721
 H2436 H 0.71653 0.59815 0.23123
 H2437 H 0.74016 0.63437 0.23261
 H2438 H 0.70157 0.65609 0.28877
 C2439 C 0.21156 0.11082 0.74387
 C2440 C 0.19358 0.10662 0.75878
 C2441 C 0.18977 0.12293 0.77518
 C2442 C 0.20332 0.14370 0.77619
 C2443 C 0.13362 0.03532 0.75332
 C2444 C 0.22507 0.13153 0.74480
 C2445 C 0.17825 0.08627 0.75652
 C2446 C 0.16489 0.06966 0.75468
 C2447 C 0.14845 0.05076 0.75323
 C2448 C 0.22082 0.14848 0.76069
 H2449 H 0.21472 0.09837 0.73112
 H2450 H 0.17587 0.11992 0.78682
 H2451 H 0.19943 0.15640 0.78850
 H2452 H 0.23840 0.13455 0.73261
 C2453 C 0.31389 0.13383 0.21652
 C2454 C 0.31529 0.11959 0.23523
 C2455 C 0.30226 0.12510 0.25353
 C2456 C 0.28860 0.14499 0.25350
 C2457 C 0.37288 0.04994 0.24808
 C2458 C 0.30001 0.15382 0.21640
 C2459 C 0.33092 0.10007 0.23659
 C2460 C 0.34405 0.08396 0.23921
 C2461 C 0.35953 0.06541 0.24358
 C2462 C 0.28759 0.15988 0.23511
 H2463 H 0.32393 0.12981 0.20224
 H2464 H 0.30313 0.11430 0.26811
 H2465 H 0.27915 0.14899 0.26814
 H2466 H 0.29973 0.16498 0.20205
 C2467 C 0.81352 0.63403 0.71616
 C2468 C 0.81487 0.61970 0.73482
 C2469 C 0.80172 0.62506 0.75308
 C2470 C 0.78798 0.64490 0.75308
 C2471 C 0.87269 0.55025 0.74765
 C2472 C 0.79957 0.65397 0.71607
 C2473 C 0.83059 0.60026 0.73618
 C2474 C 0.84378 0.58420 0.73879
 C2475 C 0.85931 0.56569 0.74316
 C2476 C 0.78702 0.65988 0.73475
 H2477 H 0.82367 0.63013 0.70191
 H2478 H 0.80255 0.61419 0.76762
 H2479 H 0.77844 0.64878 0.76769
 H2480 H 0.79932 0.66521 0.70177
 C2481 C 0.90110 0.74930 0.22487
 C2482 C 0.90529 0.76645 0.20888
 C2483 C 0.88736 0.78104 0.20200
 C2484 C 0.86489 0.77763 0.21014
 C2485 C 0.97173 0.75831 0.15302
 C2486 C 0.87862 0.74594 0.23317
 C2487 C 0.92620 0.76605 0.19641
 C2488 C 0.94218 0.76456 0.18407
 C2489 C 0.95889 0.76162 0.16791
 C2490 C 0.86015 0.75952 0.22525
 H2491 H 0.91485 0.73769 0.23000
 H2492 H 0.89043 0.79416 0.18941
 H2493 H 0.85107 0.78860 0.20400
 H2494 H 0.87547 0.73194 0.24488
 C2495 C 0.38557 0.28128 0.70225
 C2496 C 0.40351 0.26680 0.70931
 C2497 C 0.39927 0.24972 0.72535
 C2498 C 0.37675 0.24633 0.73354
 C2499 C 0.47073 0.25891 0.65421
 C2500 C 0.36305 0.27785 0.71028
 C2501 C 0.42455 0.26647 0.69703
 C2502 C 0.44070 0.26503 0.68487
 C2503 C 0.45765 0.26217 0.66892
 C2504 C 0.35828 0.25982 0.72546
 H2505 H 0.38868 0.29434 0.68962
 H2506 H 0.41304 0.23819 0.73062
 H2507 H 0.37358 0.23239 0.74531
 H2508 H 0.34923 0.28874 0.70402
 C2509 C 0.37790 0.72707 0.79071
 C2510 C 0.39376 0.74490 0.78459
 C2511 C 0.38710 0.76208 0.76954
 C2512 C 0.36417 0.76210 0.76147
 C2513 C 0.46101 0.75848 0.84058
 C2514 C 0.35499 0.72715 0.78281
 C2515 C 0.41497 0.74784 0.79687
 C2516 C 0.43118 0.75082 0.80915
 C2517 C 0.44813 0.75478 0.82541
 C2518 C 0.34771 0.74512 0.76870
 H2519 H 0.38286 0.71387 0.80255
 H2520 H 0.39920 0.77614 0.76499
 H2521 H 0.35903 0.77612 0.75057
 H2522 H 0.34276 0.71366 0.78841
 C2523 C 0.87705 0.22355 0.29292
 C2524 C 0.89332 0.24069 0.28611
 C2525 C 0.88704 0.25737 0.27043
 C2526 C 0.86412 0.25763 0.26238
 C2527 C 0.96153 0.25636 0.34069
 C2528 C 0.85414 0.22386 0.28502
 C2529 C 0.91464 0.24368 0.29821
 C2530 C 0.93103 0.24701 0.31021
 C2531 C 0.94829 0.25173 0.32601
 C2532 C 0.84726 0.24139 0.27024
 H2533 H 0.88171 0.21075 0.30525
 H2534 H 0.89947 0.27092 0.26532
 H2535 H 0.85933 0.27130 0.25095
 H2536 H 0.84161 0.21091 0.29113
 C2537 C 0.12053 0.23930 0.31166
 C2538 C 0.11883 0.25833 0.32557
 C2539 C 0.13744 0.27450 0.32766
 C2540 C 0.15765 0.27185 0.31548
 C2541 C 0.03744 0.26706 0.36186
 C2542 C 0.14065 0.23663 0.29945
 C2543 C 0.09741 0.26171 0.33673
 C2544 C 0.07887 0.26401 0.34530
 C2545 C 0.05671 0.26600 0.35449
 C2546 C 0.15932 0.25303 0.30103
 H2547 H 0.10611 0.22675 0.30996
 H2548 H 0.13615 0.28933 0.33837
 H2549 H 0.17171 0.28480 0.31703
 H2550 H 0.14140 0.22191 0.28856
 C2551 C 0.61988 0.73833 0.81170
 C2552 C 0.61839 0.75693 0.82612
 C2553 C 0.63705 0.77301 0.82841
 C2554 C 0.65712 0.77069 0.81596
 C2555 C 0.53773 0.76522 0.86394
 C2556 C 0.63986 0.73598 0.79921
 C2557 C 0.59714 0.75998 0.83768
 C2558 C 0.57878 0.76211 0.84660
 C2559 C 0.55682 0.76405 0.85622
 C2560 C 0.65860 0.75228 0.80104
 H2561 H 0.60542 0.72586 0.80983
 H2562 H 0.63592 0.78751 0.83953
 H2563 H 0.67124 0.78354 0.81772
 H2564 H 0.64046 0.72157 0.78795
 C2565 C 0.61939 0.25294 0.70691
 C2566 C 0.61730 0.23642 0.69036
 C2567 C 0.63650 0.22334 0.68450
 C2568 C 0.65801 0.22715 0.69484
 C2569 C 0.54253 0.23616 0.64127
 C2570 C 0.64090 0.25677 0.71733
 C2571 C 0.59615 0.23450 0.67793
 C2572 C 0.57886 0.23389 0.66677
 C2573 C 0.55914 0.23449 0.65315
 C2574 C 0.66052 0.24419 0.71112
 H2575 H 0.60456 0.26326 0.71136
 H2576 H 0.63500 0.21063 0.67157
 H2577 H 0.67272 0.21698 0.68983
 H2578 H 0.64226 0.26994 0.72985
 C2579 C 0.12014 0.75338 0.20487
 C2580 C 0.11802 0.73661 0.18853
 C2581 C 0.13712 0.72323 0.18300
 C2582 C 0.15857 0.72696 0.19346
 C2583 C 0.04324 0.73573 0.13942
 C2584 C 0.14159 0.75713 0.21541
 C2585 C 0.09691 0.73462 0.17605
 C2586 C 0.07964 0.73388 0.16487
 C2587 C 0.05991 0.73427 0.15126
 C2588 C 0.16113 0.74422 0.20953
 H2589 H 0.10539 0.76392 0.20907
 H2590 H 0.13559 0.71031 0.17026
 H2591 H 0.17321 0.71654 0.18872
 H2592 H 0.14300 0.77048 0.22776
   
