data_POSCAR
  _audit_creation_date              2014-09-24
  _audit_creation_method            'ToBaCCo'
  _symmetry_space_group_name_H-M    'P1'
  _symmetry_Int_Tables_number       1
  _symmetry_cell_setting            triclinic
  loop_
  _symmetry_equiv_pos_as_xyz
 x,y,z
_cell_length_a 93.4754
_cell_length_b 93.5698
_cell_length_c 93.6836
_cell_angle_alpha 89.982300
_cell_angle_beta 89.983600
_cell_angle_gamma 89.949200
loop_
  _atom_site_label
  _atom_site_type_symbol
  _atom_site_fract_x
  _atom_site_fract_y
  _atom_site_fract_z
N1 N 0.36125 0.32153 0.33176
 N2 N 0.36104 0.33150 0.32185
 C3 C 0.37219 0.32947 0.31294
 C4 C 0.37965 0.31763 0.31756
 C5 C 0.37248 0.31281 0.32948
 H6 H 0.37475 0.33609 0.30382
 H7 H 0.37526 0.30369 0.33601
 Cu8 Cu 0.34637 0.34627 0.32184
 Cu9 Cu 0.34700 0.32064 0.34692
 Cu10 Cu 0.32070 0.34691 0.34690
 N11 N 0.33158 0.36092 0.32182
 N12 N 0.32159 0.36113 0.33172
 C13 C 0.31286 0.37235 0.32942
 C14 C 0.31769 0.37950 0.31750
 C15 C 0.32956 0.37205 0.31290
 H16 H 0.30373 0.37513 0.33594
 H17 H 0.33619 0.37460 0.30379
 N18 N 0.32164 0.33157 0.36133
 N19 N 0.33165 0.32158 0.36134
 C20 C 0.32945 0.31277 0.37251
 C21 C 0.31755 0.31749 0.37979
 C22 C 0.31282 0.32937 0.37250
 H23 H 0.33600 0.30364 0.37521
 H24 H 0.30367 0.33591 0.37519
 H25 H 0.33078 0.33069 0.33583
 H26 H 0.34230 0.34222 0.34726
 N27 N 0.36162 0.82169 -0.16852
 N28 N 0.36147 0.83171 -0.17839
 C29 C 0.37262 0.82968 -0.18730
 C30 C 0.38003 0.81779 -0.18269
 C31 C 0.37284 0.81295 -0.17080
 H32 H 0.37521 0.83633 -0.19639
 H33 H 0.37558 0.80380 -0.16428
 Cu34 Cu 0.34673 0.84646 -0.17845
 Cu35 Cu 0.34735 0.82080 -0.15338
 Cu36 Cu 0.32104 0.84704 -0.15341
 N37 N 0.33195 0.86116 -0.17843
 N38 N 0.32191 0.86131 -0.16858
 C39 C 0.31313 0.87251 -0.17090
 C40 C 0.31798 0.87969 -0.18280
 C41 C 0.32990 0.87229 -0.18737
 H42 H 0.30396 0.87524 -0.16439
 H43 H 0.33658 0.87487 -0.19645
 N44 N 0.32197 0.83169 -0.13896
 N45 N 0.33199 0.82171 -0.13896
 C46 C 0.32981 0.81291 -0.12777
 C47 C 0.31792 0.81761 -0.12048
 C48 C 0.31317 0.82948 -0.12777
 H49 H 0.33639 0.80378 -0.12507
 H50 H 0.30402 0.83602 -0.12507
 H51 H 0.33115 0.83082 -0.16451
 H52 H 0.34264 0.84233 -0.15304
 N53 N 0.86103 0.32208 -0.16839
 N54 N 0.86089 0.33209 -0.17825
 C55 C 0.87203 0.33004 -0.18716
 C56 C 0.87942 0.31813 -0.18259
 C57 C 0.87222 0.31330 -0.17069
 H58 H 0.87462 0.33668 -0.19625
 H59 H 0.87495 0.30414 -0.16420
 Cu60 Cu 0.84621 0.34686 -0.17826
 Cu61 Cu 0.84678 0.32120 -0.15324
 Cu62 Cu 0.82052 0.34749 -0.15324
 N63 N 0.83147 0.36155 -0.17828
 N64 N 0.82143 0.36172 -0.16842
 C65 C 0.81265 0.37289 -0.17076
 C66 C 0.81749 0.38002 -0.18268
 C67 C 0.82942 0.37265 -0.18724
 H68 H 0.80347 0.37563 -0.16427
 H69 H 0.83608 0.37519 -0.19633
 N70 N 0.82143 0.33214 -0.13881
 N71 N 0.83142 0.32214 -0.13882
 C72 C 0.82923 0.31333 -0.12764
 C73 C 0.81735 0.31807 -0.12035
 C74 C 0.81262 0.32995 -0.12763
 H75 H 0.83578 0.30419 -0.12495
 H76 H 0.80349 0.33651 -0.12492
 H77 H 0.83057 0.33128 -0.16437
 H78 H 0.84210 0.34277 -0.15288
 N79 N 0.86103 0.82194 0.33166
 N80 N 0.86088 0.83195 0.32179
 C81 C 0.87200 0.82989 0.31286
 C82 C 0.87941 0.81800 0.31745
 C83 C 0.87223 0.81318 0.32935
 H84 H 0.87457 0.83651 0.30375
 H85 H 0.87498 0.80403 0.33586
 Cu86 Cu 0.84618 0.84670 0.32171
 Cu87 Cu 0.84678 0.82107 0.34680
 Cu88 Cu 0.82050 0.84731 0.34678
 N89 N 0.83141 0.86138 0.32176
 N90 N 0.82138 0.86154 0.33162
 C91 C 0.81261 0.87273 0.32930
 C92 C 0.81746 0.87988 0.31739
 C93 C 0.82936 0.87248 0.31281
 H94 H 0.80344 0.87548 0.33581
 H95 H 0.83600 0.87503 0.30370
 N96 N 0.82143 0.83198 0.36122
 N97 N 0.83143 0.82199 0.36123
 C98 C 0.82924 0.81320 0.37241
 C99 C 0.81736 0.81792 0.37970
 C100 C 0.81262 0.82979 0.37241
 H101 H 0.83581 0.80406 0.37511
 H102 H 0.80347 0.83634 0.37510
 H103 H 0.83058 0.83112 0.33564
 H104 H 0.84209 0.84263 0.34711
 N105 N 0.63874 0.67841 0.33185
 N106 N 0.63888 0.66837 0.32202
 C107 C 0.62775 0.67042 0.31309
 C108 C 0.62036 0.68232 0.31766
 C109 C 0.62755 0.68717 0.32953
 H110 H 0.62519 0.66378 0.30400
 H111 H 0.62482 0.69635 0.33601
 Cu112 Cu 0.65362 0.65368 0.32196
 Cu113 Cu 0.65300 0.67932 0.34700
 Cu114 Cu 0.67929 0.65307 0.34698
 N115 N 0.66834 0.63897 0.32200
 N116 N 0.67839 0.63883 0.33182
 C117 C 0.68717 0.62765 0.32949
 C118 C 0.68232 0.62047 0.31761
 C119 C 0.67039 0.62785 0.31306
 H120 H 0.69636 0.62493 0.33596
 H121 H 0.66374 0.62529 0.30398
 N122 N 0.67836 0.66840 0.36140
 N123 N 0.66836 0.67839 0.36140
 C124 C 0.67055 0.68719 0.37257
 C125 C 0.68243 0.68246 0.37986
 C126 C 0.68717 0.67059 0.37257
 H127 H 0.66399 0.69632 0.37527
 H128 H 0.69632 0.66404 0.37526
 H129 H 0.66922 0.66929 0.33584
 H130 H 0.65771 0.65778 0.34733
 N131 N 0.63885 0.17811 -0.16831
 N132 N 0.63899 0.16809 -0.17816
 C133 C 0.62784 0.17013 -0.18706
 C134 C 0.62043 0.18202 -0.18248
 C135 C 0.62764 0.18687 -0.17061
 H136 H 0.62525 0.16348 -0.19614
 H137 H 0.62491 0.19603 -0.16411
 Cu138 Cu 0.65370 0.15333 -0.17817
 Cu139 Cu 0.65311 0.17902 -0.15318
 Cu140 Cu 0.67942 0.15279 -0.15320
 N141 N 0.66851 0.13865 -0.17820
 N142 N 0.67856 0.13852 -0.16836
 C143 C 0.68735 0.12733 -0.17068
 C144 C 0.68249 0.12015 -0.18257
 C145 C 0.67055 0.12753 -0.18712
 H146 H 0.69653 0.12462 -0.16419
 H147 H 0.66388 0.12495 -0.19620
 N148 N 0.67849 0.16814 -0.13876
 N149 N 0.66847 0.17812 -0.13876
 C150 C 0.67064 0.18693 -0.12759
 C151 C 0.68254 0.18223 -0.12030
 C152 C 0.68729 0.17036 -0.12759
 H153 H 0.66407 0.19605 -0.12491
 H154 H 0.69645 0.16383 -0.12489
 H155 H 0.66930 0.16898 -0.16434
 H156 H 0.65782 0.15748 -0.15281
 N157 N 0.13882 0.67841 -0.16820
 N158 N 0.13895 0.66838 -0.17805
 C159 C 0.12785 0.67048 -0.18699
 C160 C 0.12048 0.68239 -0.18242
 C161 C 0.12766 0.68720 -0.17053
 H162 H 0.12527 0.66384 -0.19608
 H163 H 0.12492 0.69636 -0.16403
 Cu164 Cu 0.15350 0.65349 -0.17803
 Cu165 Cu 0.15305 0.67925 -0.15304
 Cu166 Cu 0.17927 0.65298 -0.15305
 N167 N 0.16836 0.63892 -0.17805
 N168 N 0.17839 0.63876 -0.16820
 C169 C 0.18716 0.62758 -0.17052
 C170 C 0.18233 0.62042 -0.18242
 C171 C 0.17043 0.62782 -0.18699
 H172 H 0.19632 0.62483 -0.16402
 H173 H 0.16378 0.62525 -0.19608
 N174 N 0.17837 0.66828 -0.13862
 N175 N 0.16838 0.67829 -0.13862
 C176 C 0.17062 0.68711 -0.12747
 C177 C 0.18253 0.68239 -0.12022
 C178 C 0.18721 0.67048 -0.12748
 H179 H 0.16409 0.69627 -0.12479
 H180 H 0.19636 0.66393 -0.12480
 H181 H 0.16915 0.66913 -0.16427
 H182 H 0.15767 0.65768 -0.15266
 N183 N 0.13874 0.17837 0.33178
 N184 N 0.13889 0.16835 0.32193
 C185 C 0.12777 0.17040 0.31300
 C186 C 0.12036 0.18229 0.31757
 C187 C 0.12753 0.18713 0.32946
 H188 H 0.12520 0.16377 0.30390
 H189 H 0.12479 0.19628 0.33595
 Cu190 Cu 0.15360 0.15363 0.32187
 Cu191 Cu 0.15298 0.17926 0.34693
 Cu192 Cu 0.17927 0.15300 0.34690
 N193 N 0.16834 0.13894 0.32189
 N194 N 0.17838 0.13878 0.33173
 C195 C 0.18715 0.12760 0.32940
 C196 C 0.18230 0.12044 0.31750
 C197 C 0.17039 0.12784 0.31294
 H198 H 0.19632 0.12486 0.33587
 H199 H 0.16374 0.12528 0.30385
 N200 N 0.17835 0.16831 0.36132
 N201 N 0.16834 0.17831 0.36134
 C202 C 0.17056 0.18712 0.37250
 C203 C 0.18247 0.18240 0.37975
 C204 C 0.18718 0.17051 0.37248
 H205 H 0.16401 0.19626 0.37520
 H206 H 0.19633 0.16396 0.37516
 H207 H 0.16919 0.16923 0.33578
 H208 H 0.15768 0.15772 0.34726
 N209 N 0.63864 0.32173 0.66823
 N210 N 0.63861 0.33193 0.67791
 C211 C 0.62747 0.32990 0.68683
 C212 C 0.62024 0.31785 0.68243
 C213 C 0.62754 0.31289 0.67065
 H214 H 0.62480 0.33664 0.69583
 H215 H 0.62496 0.30358 0.66431
 Cu216 Cu 0.65328 0.34667 0.67776
 Cu217 Cu 0.65298 0.32071 0.65314
 Cu218 Cu 0.67928 0.34695 0.65314
 N219 N 0.66805 0.36132 0.67791
 N220 N 0.67827 0.36129 0.66823
 C221 C 0.68713 0.37236 0.67066
 C222 C 0.68216 0.37966 0.68244
 C223 C 0.67009 0.37244 0.68683
 H224 H 0.69645 0.37494 0.66432
 H225 H 0.66334 0.37511 0.69582
 N226 N 0.67842 0.33154 0.63879
 N227 N 0.66842 0.32156 0.63879
 C228 C 0.67062 0.31274 0.62762
 C229 C 0.68251 0.31745 0.62034
 C230 C 0.68724 0.32932 0.62762
 H231 H 0.66405 0.30364 0.62492
 H232 H 0.69637 0.33587 0.62490
 H233 H 0.66907 0.33087 0.66433
 H234 H 0.65773 0.34222 0.65251
 N235 N 0.63880 0.82176 1.16837
 N236 N 0.63899 0.83174 1.17826
 C237 C 0.62786 0.82971 1.18719
 C238 C 0.62041 0.81788 1.18257
 C239 C 0.62757 0.81305 1.17065
 H240 H 0.62532 0.83633 1.19630
 H241 H 0.62478 0.80395 1.16411
 Cu242 Cu 0.65366 0.84646 1.17826
 Cu243 Cu 0.65304 0.82086 1.15319
 Cu244 Cu 0.67932 0.84707 1.15320
 N245 N 0.66843 0.86108 1.17826
 N246 N 0.67842 0.86126 1.16837
 C247 C 0.68716 0.87246 1.17065
 C248 C 0.68233 0.87960 1.18256
 C249 C 0.67048 0.87219 1.18719
 H250 H 0.69628 0.87523 1.16411
 H251 H 0.66385 0.87474 1.19630
 N252 N 0.67838 0.83177 1.13878
 N253 N 0.66838 0.82179 1.13878
 C254 C 0.67059 0.81299 1.12761
 C255 C 0.68249 0.81770 1.12034
 C256 C 0.68721 0.82957 1.12762
 H257 H 0.66405 0.80385 1.12491
 H258 H 0.69636 0.83610 1.12494
 H259 H 0.66924 0.83092 1.16431
 H260 H 0.65771 0.84247 1.15284
 N261 N 0.13898 0.32166 1.16848
 N262 N 0.13938 0.33137 1.17862
 C263 C 0.12843 0.32911 1.18771
 C264 C 0.12088 0.31741 1.18293
 C265 C 0.12780 0.31289 1.17075
 H266 H 0.12595 0.33561 1.19693
 H267 H 0.12474 0.30411 1.16390
 Cu268 Cu 0.15377 0.34642 1.17846
 Cu269 Cu 0.15235 0.32187 1.15254
 Cu270 Cu 0.17937 0.34716 1.15319
 N271 N 0.16848 0.36112 1.17833
 N272 N 0.17840 0.36137 1.16835
 C273 C 0.18706 0.37263 1.17056
 C274 C 0.18229 0.37973 1.18252
 C275 C 0.17054 0.37222 1.18725
 H276 H 0.19611 0.37548 1.16394
 H277 H 0.16399 0.37472 1.19643
 N278 N 0.17835 0.33182 1.13878
 N279 N 0.16815 0.32206 1.13862
 C280 C 0.17041 0.31313 1.12757
 C281 C 0.18253 0.31758 1.12049
 C282 C 0.18734 0.32940 1.12779
 H283 H 0.16372 0.30414 1.12478
 H284 H 0.19661 0.33579 1.12521
 H285 H 0.16886 0.33107 1.16395
 H286 H 0.15783 0.34348 1.15287
 N287 N 0.13880 0.82186 0.66821
 N288 N 0.13899 0.83184 0.67809
 C289 C 0.12789 0.82980 0.68705
 C290 C 0.12045 0.81796 0.68244
 C291 C 0.12759 0.81314 0.67051
 H292 H 0.12537 0.83640 0.69618
 H293 H 0.12481 0.80402 0.66399
 Cu294 Cu 0.15367 0.84656 0.67816
 Cu295 Cu 0.15305 0.82097 0.65304
 Cu296 Cu 0.17930 0.84719 0.65305
 N297 N 0.16842 0.86120 0.67809
 N298 N 0.17841 0.86139 0.66820
 C299 C 0.18714 0.87258 0.67048
 C300 C 0.18232 0.87972 0.68240
 C301 C 0.17046 0.87230 0.68703
 H302 H 0.19628 0.87536 0.66395
 H303 H 0.16386 0.87483 0.69616
 N304 N 0.17839 0.83190 0.63863
 N305 N 0.16840 0.82191 0.63862
 C306 C 0.17066 0.81308 0.62749
 C307 C 0.18259 0.81778 0.62025
 C308 C 0.18726 0.82968 0.62751
 H309 H 0.16414 0.80393 0.62480
 H310 H 0.19642 0.83621 0.62485
 H311 H 0.16923 0.83102 0.66418
 H312 H 0.15768 0.84258 0.65273
 N313 N 0.36122 0.67836 0.66825
 N314 N 0.36106 0.66837 0.67813
 C315 C 0.37221 0.67040 0.68703
 C316 C 0.37964 0.68226 0.68241
 C317 C 0.37245 0.68708 0.67051
 H318 H 0.37477 0.66379 0.69615
 H319 H 0.37520 0.69622 0.66399
 Cu320 Cu 0.34629 0.65370 0.67831
 Cu321 Cu 0.34695 0.67927 0.65312
 Cu322 Cu 0.32073 0.65302 0.65311
 N323 N 0.33164 0.63892 0.67812
 N324 N 0.32165 0.63875 0.66823
 C325 C 0.31294 0.62752 0.67048
 C326 C 0.31777 0.62032 0.68237
 C327 C 0.32962 0.62777 0.68701
 H328 H 0.30381 0.62476 0.66395
 H329 H 0.33623 0.62521 0.69613
 N330 N 0.32161 0.66838 0.63871
 N331 N 0.33159 0.67837 0.63872
 C332 C 0.32936 0.68720 0.62756
 C333 C 0.31747 0.68248 0.62028
 C334 C 0.31277 0.67059 0.62756
 H335 H 0.33590 0.69634 0.62487
 H336 H 0.30364 0.66404 0.62486
 H337 H 0.33075 0.66923 0.66425
 H338 H 0.34236 0.65767 0.65287
 N339 N 0.36133 0.17815 1.16829
 N340 N 0.36121 0.16810 1.17811
 C341 C 0.37233 0.17012 1.18704
 C342 C 0.37971 0.18202 1.18249
 C343 C 0.37252 0.18690 1.17062
 H344 H 0.37491 0.16346 1.19612
 H345 H 0.37524 0.19609 1.16416
 Cu346 Cu 0.34652 0.15339 1.17816
 Cu347 Cu 0.34706 0.17908 1.15316
 Cu348 Cu 0.32080 0.15285 1.15316
 N349 N 0.33179 0.13874 1.17811
 N350 N 0.32173 0.13862 1.16828
 C351 C 0.31296 0.12745 1.17060
 C352 C 0.31784 0.12026 1.18247
 C353 C 0.32975 0.12762 1.18703
 H354 H 0.30378 0.12474 1.16414
 H355 H 0.33641 0.12502 1.19610
 N356 N 0.32171 0.16819 1.13876
 N357 N 0.33170 0.17818 1.13876
 C358 C 0.32949 0.18698 1.12758
 C359 C 0.31760 0.18225 1.12031
 C360 C 0.31289 0.17038 1.12760
 H361 H 0.33603 0.19611 1.12487
 H362 H 0.30375 0.16383 1.12491
 H363 H 0.33084 0.16901 1.16433
 H364 H 0.34235 0.15752 1.15279
 N365 N 0.86119 0.67822 1.16833
 N366 N 0.86108 0.66817 1.17816
 C367 C 0.87219 0.67021 1.18709
 C368 C 0.87955 0.68213 1.18255
 C369 C 0.87236 0.68699 1.17066
 H370 H 0.87476 0.66356 1.19618
 H371 H 0.87507 0.69618 1.16420
 Cu372 Cu 0.84637 0.65348 1.17817
 Cu373 Cu 0.84692 0.67914 1.15318
 Cu374 Cu 0.82068 0.65289 1.15319
 N375 N 0.83168 0.63878 1.17816
 N376 N 0.82163 0.63866 1.16832
 C377 C 0.81286 0.62749 1.17065
 C378 C 0.81772 0.62032 1.18252
 C379 C 0.82964 0.62767 1.18708
 H380 H 0.80367 0.62478 1.16418
 H381 H 0.83628 0.62510 1.19617
 N382 N 0.82158 0.66822 1.13879
 N383 N 0.83157 0.67821 1.13878
 C384 C 0.82935 0.68701 1.12760
 C385 C 0.81747 0.68227 1.12033
 C386 C 0.81277 0.67039 1.12762
 H387 H 0.83589 0.69614 1.12489
 H388 H 0.80364 0.66384 1.12493
 H389 H 0.83070 0.66908 1.16436
 H390 H 0.84223 0.65759 1.15284
 N391 N 0.86122 0.17813 0.66819
 N392 N 0.86104 0.16816 0.67811
 C393 C 0.87218 0.17019 0.68700
 C394 C 0.87963 0.18200 0.68235
 C395 C 0.87247 0.18683 0.67044
 H396 H 0.87471 0.16360 0.69614
 H397 H 0.87523 0.19594 0.66390
 Cu398 Cu 0.84623 0.15356 0.67836
 Cu399 Cu 0.84695 0.17904 0.65308
 Cu400 Cu 0.82074 0.15281 0.65307
 N401 N 0.83164 0.13876 0.67809
 N402 N 0.82168 0.13857 0.66817
 C403 C 0.81299 0.12732 0.67039
 C404 C 0.81782 0.12016 0.68230
 C405 C 0.82963 0.12761 0.68697
 H406 H 0.80387 0.12455 0.66385
 H407 H 0.83621 0.12508 0.69611
 N408 N 0.82161 0.16815 0.63870
 N409 N 0.83159 0.17814 0.63870
 C410 C 0.82937 0.18696 0.62753
 C411 C 0.81749 0.18223 0.62026
 C412 C 0.81278 0.17035 0.62754
 H413 H 0.83591 0.19609 0.62483
 H414 H 0.80365 0.16379 0.62485
 H415 H 0.83070 0.16901 0.66422
 H416 H 0.84235 0.15740 0.65291
 N417 N 0.32158 0.36124 0.66822
 N418 N 0.33157 0.36107 0.67811
 C419 C 0.32950 0.37219 0.68702
 C420 C 0.31764 0.37962 0.68240
 C421 C 0.31283 0.37245 0.67049
 H422 H 0.33611 0.37474 0.69615
 H423 H 0.30369 0.37522 0.66396
 Cu424 Cu 0.34636 0.34641 0.67823
 Cu425 Cu 0.32070 0.34701 0.65309
 Cu426 Cu 0.34693 0.32078 0.65309
 N427 N 0.36102 0.33162 0.67811
 N428 N 0.36117 0.32164 0.66822
 C429 C 0.37237 0.31287 0.67050
 C430 C 0.37955 0.31765 0.68241
 C431 C 0.37213 0.32952 0.68703
 H432 H 0.37512 0.30374 0.66397
 H433 H 0.37469 0.33611 0.69616
 N434 N 0.33161 0.32170 0.63868
 N435 N 0.32161 0.33169 0.63867
 C436 C 0.31279 0.32949 0.62751
 C437 C 0.31751 0.31760 0.62025
 C438 C 0.32940 0.31288 0.62752
 H439 H 0.30364 0.33603 0.62483
 H440 H 0.33595 0.30373 0.62485
 H441 H 0.33079 0.33087 0.66430
 H442 H 0.34233 0.34239 0.65282
 N443 N 0.32173 0.86139 0.16816
 N444 N 0.33156 0.86104 0.17821
 C445 C 0.32953 0.87216 0.18713
 C446 C 0.31785 0.87978 0.18234
 C447 C 0.31311 0.87272 0.17034
 H448 H 0.33606 0.87461 0.19633
 H449 H 0.30413 0.87565 0.16367
 Cu450 Cu 0.34616 0.84624 0.17825
 Cu451 Cu 0.32089 0.84724 0.15291
 Cu452 Cu 0.34717 0.82095 0.15296
 N453 N 0.36096 0.83162 0.17827
 N454 N 0.36131 0.82178 0.16824
 C455 C 0.37262 0.81315 0.17046
 C456 C 0.37966 0.81788 0.18248
 C457 C 0.37206 0.82958 0.18722
 H458 H 0.37555 0.80416 0.16381
 H459 H 0.37450 0.83611 0.19642
 N460 N 0.33190 0.82195 0.13846
 N461 N 0.32190 0.83195 0.13844
 C462 C 0.31309 0.82975 0.12727
 C463 C 0.31782 0.81786 0.12001
 C464 C 0.32971 0.81313 0.12730
 H465 H 0.30393 0.83628 0.12458
 H466 H 0.33623 0.80397 0.12464
 H467 H 0.33079 0.83088 0.16391
 H468 H 0.34249 0.84253 0.15276
 N469 N 0.82177 0.36152 0.16805
 N470 N 0.83182 0.36138 0.17789
 C471 C 0.82980 0.37251 0.18679
 C472 C 0.81789 0.37991 0.18223
 C473 C 0.81301 0.37272 0.17036
 H474 H 0.83645 0.37508 0.19588
 H475 H 0.80383 0.37545 0.16390
 Cu476 Cu 0.84652 0.34665 0.17794
 Cu477 Cu 0.82083 0.34726 0.15293
 Cu478 Cu 0.84710 0.32098 0.15295
 N479 N 0.86123 0.33195 0.17791
 N480 N 0.86135 0.32190 0.16809
 C481 C 0.87254 0.31312 0.17041
 C482 C 0.87973 0.31799 0.18229
 C483 C 0.87235 0.32990 0.18683
 H484 H 0.87526 0.30394 0.16396
 H485 H 0.87494 0.33655 0.19591
 N486 N 0.83174 0.32191 0.13854
 N487 N 0.82175 0.33191 0.13853
 C488 C 0.81294 0.32972 0.12736
 C489 C 0.81766 0.31783 0.12009
 C490 C 0.82954 0.31309 0.12738
 H491 H 0.80380 0.33627 0.12466
 H492 H 0.83609 0.30395 0.12469
 H493 H 0.83088 0.33105 0.16409
 H494 H 0.84240 0.34253 0.15257
 N495 N 0.82171 0.86146 0.66818
 N496 N 0.83146 0.86104 0.67830
 C497 C 0.82942 0.87217 0.68721
 C498 C 0.81780 0.87984 0.68238
 C499 C 0.81312 0.87282 0.67033
 H500 H 0.83590 0.87457 0.69646
 H501 H 0.80418 0.87578 0.66362
 Cu502 Cu 0.84610 0.84622 0.67874
 Cu503 Cu 0.82092 0.84737 0.65292
 Cu504 Cu 0.84628 0.82043 0.65385
 N505 N 0.86117 0.83183 0.67800
 N506 N 0.86134 0.82190 0.66807
 C507 C 0.87275 0.81333 0.67010
 C508 C 0.88005 0.81822 0.68190
 C509 C 0.87250 0.82993 0.68670
 H510 H 0.87542 0.80414 0.66362
 H511 H 0.87501 0.83646 0.69588
 N512 N 0.83172 0.82184 0.63874
 N513 N 0.82195 0.83205 0.63848
 C514 C 0.81335 0.83001 0.62712
 C515 C 0.81800 0.81801 0.61997
 C516 C 0.82962 0.81306 0.62753
 H517 H 0.80433 0.83667 0.62428
 H518 H 0.83599 0.80373 0.62507
 H519 H 0.83001 0.83128 0.66453
 H520 H 0.84240 0.84220 0.65333
 N521 N 0.67837 0.63868 0.66837
 N522 N 0.66838 0.63884 0.67826
 C523 C 0.67046 0.62772 0.68718
 C524 C 0.68232 0.62029 0.68256
 C525 C 0.68713 0.62747 0.67064
 H526 H 0.66385 0.62517 0.69632
 H527 H 0.69626 0.62471 0.66411
 Cu528 Cu 0.65359 0.65352 0.67838
 Cu529 Cu 0.67925 0.65292 0.65324
 Cu530 Cu 0.65302 0.67916 0.65324
 N531 N 0.63892 0.66831 0.67827
 N532 N 0.63876 0.67829 0.66838
 C533 C 0.62755 0.68705 0.67066
 C534 C 0.62037 0.68226 0.68257
 C535 C 0.62779 0.67039 0.68719
 H536 H 0.62481 0.69618 0.66413
 H537 H 0.62523 0.66380 0.69632
 N538 N 0.66836 0.67824 0.63881
 N539 N 0.67835 0.66824 0.63881
 C540 C 0.68721 0.67046 0.62767
 C541 C 0.68252 0.68237 0.62041
 C542 C 0.67060 0.68708 0.62767
 H543 H 0.69636 0.66392 0.62499
 H544 H 0.66407 0.69624 0.62499
 H545 H 0.66915 0.66908 0.66443
 H546 H 0.65761 0.65756 0.65296
 N547 N 0.67845 0.13839 0.16812
 N548 N 0.66840 0.13852 0.17796
 C549 C 0.67042 0.12738 0.18685
 C550 C 0.68233 0.11998 0.18229
 C551 C 0.68721 0.12719 0.17042
 H552 H 0.66376 0.12480 0.19594
 H553 H 0.69639 0.12447 0.16395
 Cu554 Cu 0.65369 0.15325 0.17803
 Cu555 Cu 0.67938 0.15267 0.15300
 Cu556 Cu 0.65310 0.17894 0.15303
 N557 N 0.63896 0.16795 0.17800
 N558 N 0.63883 0.17800 0.16817
 C559 C 0.62764 0.18677 0.17050
 C560 C 0.62044 0.18190 0.18237
 C561 C 0.62783 0.16998 0.18691
 H562 H 0.62492 0.19596 0.16404
 H563 H 0.62525 0.16333 0.19600
 N564 N 0.66847 0.17804 0.13863
 N565 N 0.67847 0.16805 0.13861
 C566 C 0.68729 0.17026 0.12744
 C567 C 0.68256 0.18215 0.12017
 C568 C 0.67067 0.18687 0.12746
 H569 H 0.69643 0.16371 0.12473
 H570 H 0.66411 0.19600 0.12478
 H571 H 0.66933 0.16887 0.16417
 H572 H 0.65782 0.15739 0.15266
 N573 N 0.17824 0.63869 0.16811
 N574 N 0.16824 0.63886 0.17800
 C575 C 0.17028 0.62773 0.18691
 C576 C 0.18213 0.62029 0.18228
 C577 C 0.18697 0.62746 0.17038
 H578 H 0.16365 0.62517 0.19601
 H579 H 0.19610 0.62469 0.16384
 Cu580 Cu 0.15343 0.65349 0.17801
 Cu581 Cu 0.17913 0.65293 0.15296
 Cu582 Cu 0.15288 0.67920 0.15299
 N583 N 0.13882 0.66831 0.17804
 N584 N 0.13865 0.67832 0.16817
 C585 C 0.12744 0.68707 0.17048
 C586 C 0.12029 0.68225 0.18241
 C587 C 0.12771 0.67037 0.18699
 H588 H 0.12467 0.69621 0.16397
 H589 H 0.12516 0.66374 0.19610
 N590 N 0.16822 0.67827 0.13855
 N591 N 0.17821 0.66827 0.13854
 C592 C 0.18705 0.67048 0.12739
 C593 C 0.18235 0.68238 0.12013
 C594 C 0.17044 0.68710 0.12740
 H595 H 0.19621 0.66394 0.12471
 H596 H 0.16392 0.69626 0.12473
 H597 H 0.16902 0.66907 0.16412
 H598 H 0.15751 0.65760 0.15260
 N599 N 0.17824 0.13850 0.66834
 N600 N 0.16828 0.13870 0.67828
 C601 C 0.17017 0.12740 0.68701
 C602 C 0.18189 0.11982 0.68222
 C603 C 0.18680 0.12710 0.67040
 H604 H 0.16360 0.12488 0.69617
 H605 H 0.19596 0.12440 0.66388
 Cu606 Cu 0.15385 0.15374 0.67847
 Cu607 Cu 0.17970 0.15353 0.65397
 Cu608 Cu 0.15272 0.17900 0.65307
 N609 N 0.13910 0.16844 0.67860
 N610 N 0.13869 0.17822 0.66850
 C611 C 0.12735 0.18683 0.67069
 C612 C 0.12035 0.18215 0.68275
 C613 C 0.12800 0.17050 0.68756
 H614 H 0.12438 0.19575 0.66398
 H615 H 0.12555 0.16399 0.69678
 N616 N 0.16802 0.17787 0.63856
 N617 N 0.17823 0.16808 0.63880
 C618 C 0.18700 0.17017 0.62756
 C619 C 0.18205 0.18181 0.62002
 C620 C 0.17007 0.18647 0.62720
 H621 H 0.19634 0.16381 0.62509
 H622 H 0.16343 0.19551 0.62439
 H623 H 0.16884 0.16983 0.66446
 H624 H 0.15797 0.15758 0.65315
 N625 N 0.32157 0.63866 0.33165
 N626 N 0.33158 0.63880 0.32177
 C627 C 0.32951 0.62768 0.31286
 C628 C 0.31764 0.62028 0.31748
 C629 C 0.31281 0.62747 0.32938
 H630 H 0.33613 0.62511 0.30375
 H631 H 0.30366 0.62474 0.33590
 Cu632 Cu 0.34637 0.65345 0.32164
 Cu633 Cu 0.32068 0.65290 0.34679
 Cu634 Cu 0.34690 0.67909 0.34677
 N635 N 0.36103 0.66823 0.32177
 N636 N 0.36115 0.67822 0.33164
 C637 C 0.37235 0.68698 0.32937
 C638 C 0.37955 0.68218 0.31747
 C639 C 0.37216 0.67031 0.31285
 H640 H 0.37507 0.69612 0.33589
 H641 H 0.37474 0.66371 0.30374
 N642 N 0.33157 0.67819 0.36120
 N643 N 0.32158 0.66821 0.36120
 C644 C 0.31275 0.67043 0.37237
 C645 C 0.31746 0.68231 0.37964
 C646 C 0.32935 0.68702 0.37235
 H647 H 0.30360 0.66389 0.37506
 H648 H 0.33589 0.69616 0.37503
 H649 H 0.33075 0.66901 0.33555
 H650 H 0.34230 0.65748 0.34705
 N651 N 0.32156 0.13842 0.83183
 N652 N 0.33161 0.13855 0.82199
 C653 C 0.32957 0.12744 0.81306
 C654 C 0.31766 0.12006 0.81761
 C655 C 0.31280 0.12724 0.82950
 H656 H 0.33622 0.12488 0.80397
 H657 H 0.30361 0.12452 0.83598
 Cu658 Cu 0.34630 0.15329 0.82194
 Cu659 Cu 0.32063 0.15266 0.84698
 Cu660 Cu 0.34687 0.17892 0.84698
 N661 N 0.36103 0.16799 0.82200
 N662 N 0.36114 0.17802 0.83184
 C663 C 0.37232 0.18679 0.82952
 C664 C 0.37953 0.18195 0.81763
 C665 C 0.37216 0.17004 0.81308
 H666 H 0.37502 0.19597 0.83600
 H667 H 0.37474 0.16341 0.80398
 N668 N 0.33150 0.17799 0.86140
 N669 N 0.32151 0.16800 0.86140
 C670 C 0.31268 0.17019 0.87256
 C671 C 0.31738 0.18207 0.87984
 C672 C 0.32927 0.18680 0.87256
 H673 H 0.30355 0.16364 0.87526
 H674 H 0.33581 0.19594 0.87526
 H675 H 0.33067 0.16888 0.83584
 H676 H 0.34219 0.15738 0.84732
 N677 N 0.82180 0.63866 0.83187
 N678 N 0.83181 0.63879 0.82200
 C679 C 0.82975 0.62765 0.81311
 C680 C 0.81788 0.62025 0.81773
 C681 C 0.81305 0.62745 0.82961
 H682 H 0.83638 0.62507 0.80400
 H683 H 0.80390 0.62473 0.83614
 Cu684 Cu 0.84658 0.65347 0.82185
 Cu685 Cu 0.82090 0.65291 0.84699
 Cu686 Cu 0.84707 0.67914 0.84697
 N687 N 0.86122 0.66827 0.82197
 N688 N 0.86133 0.67828 0.83184
 C689 C 0.87251 0.68705 0.82955
 C690 C 0.87973 0.68225 0.81766
 C691 C 0.87235 0.67036 0.81306
 H692 H 0.87521 0.69621 0.83606
 H693 H 0.87496 0.66374 0.80396
 N694 N 0.83174 0.67823 0.86139
 N695 N 0.82176 0.66823 0.86140
 C696 C 0.81293 0.67043 0.87256
 C697 C 0.81762 0.68233 0.87983
 C698 C 0.82951 0.68705 0.87255
 H699 H 0.80379 0.66388 0.87526
 H700 H 0.83603 0.69620 0.87523
 H701 H 0.83096 0.66906 0.83574
 H702 H 0.84253 0.65755 0.84724
 N703 N 0.82177 0.13841 0.33169
 N704 N 0.83177 0.13856 0.32181
 C705 C 0.82972 0.12744 0.31290
 C706 C 0.81785 0.12003 0.31751
 C707 C 0.81302 0.12721 0.32941
 H708 H 0.83633 0.12488 0.30377
 H709 H 0.80387 0.12447 0.33592
 Cu710 Cu 0.84653 0.15324 0.32168
 Cu711 Cu 0.82085 0.15264 0.34682
 Cu712 Cu 0.84702 0.17888 0.34681
 N713 N 0.86116 0.16805 0.32178
 N714 N 0.86128 0.17804 0.33166
 C715 C 0.87241 0.18686 0.32934
 C716 C 0.87959 0.18210 0.31740
 C717 C 0.87225 0.17018 0.31283
 H718 H 0.87511 0.19602 0.33584
 H719 H 0.87482 0.16360 0.30370
 N720 N 0.83169 0.17795 0.36123
 N721 N 0.82172 0.16795 0.36124
 C722 C 0.81287 0.17015 0.37238
 C723 C 0.81755 0.18205 0.37965
 C724 C 0.82944 0.18677 0.37238
 H725 H 0.80373 0.16360 0.37506
 H726 H 0.83595 0.19593 0.37506
 H727 H 0.83090 0.16879 0.33560
 H728 H 0.84247 0.15727 0.34708
 N729 N 0.67838 0.36135 0.33167
 N730 N 0.66838 0.36120 0.32179
 C731 C 0.67043 0.37233 0.31288
 C732 C 0.68230 0.37974 0.31750
 C733 C 0.68712 0.37256 0.32940
 H734 H 0.66383 0.37488 0.30374
 H735 H 0.69626 0.37530 0.33593
 Cu736 Cu 0.65371 0.34645 0.32165
 Cu737 Cu 0.67930 0.34709 0.34680
 Cu738 Cu 0.65306 0.32086 0.34677
 N739 N 0.63896 0.33178 0.32175
 N740 N 0.63880 0.32177 0.33163
 C741 C 0.62761 0.31302 0.32932
 C742 C 0.62044 0.31784 0.31740
 C743 C 0.62785 0.32972 0.31281
 H744 H 0.62486 0.30388 0.33583
 H745 H 0.62531 0.33632 0.30367
 N746 N 0.66841 0.32175 0.36119
 N747 N 0.67840 0.33173 0.36120
 C748 C 0.68722 0.32953 0.37237
 C749 C 0.68250 0.31764 0.37965
 C750 C 0.67062 0.31293 0.37236
 H751 H 0.69635 0.33607 0.37507
 H752 H 0.66407 0.30379 0.37505
 H753 H 0.66928 0.33091 0.33565
 H754 H 0.65771 0.34244 0.34707
 N755 N 0.67838 0.86148 0.83178
 N756 N 0.66837 0.86134 0.82191
 C757 C 0.67047 0.87241 0.81295
 C758 C 0.68240 0.87976 0.81750
 C759 C 0.68719 0.87262 0.82944
 H760 H 0.66386 0.87498 0.80383
 H761 H 0.69635 0.87534 0.83594
 Cu762 Cu 0.65357 0.84670 0.82183
 Cu763 Cu 0.67926 0.84725 0.84694
 Cu764 Cu 0.65303 0.82106 0.84697
 N765 N 0.63889 0.83194 0.82197
 N766 N 0.63876 0.82194 0.83185
 C767 C 0.62756 0.81319 0.82958
 C768 C 0.62035 0.81801 0.81769
 C769 C 0.62775 0.82988 0.81307
 H770 H 0.62483 0.80406 0.83611
 H771 H 0.62517 0.83649 0.80396
 N772 N 0.66836 0.82196 0.86138
 N773 N 0.67836 0.83194 0.86137
 C774 C 0.68718 0.82973 0.87254
 C775 C 0.68246 0.81786 0.87983
 C776 C 0.67057 0.81315 0.87255
 H777 H 0.69633 0.83627 0.87522
 H778 H 0.66402 0.80402 0.87525
 H779 H 0.66918 0.83112 0.83573
 H780 H 0.65764 0.84267 0.84722
 N781 N 0.17816 0.36126 0.83187
 N782 N 0.16813 0.36113 0.82203
 C783 C 0.17017 0.37226 0.81310
 C784 C 0.18208 0.37964 0.81767
 C785 C 0.18693 0.37244 0.82956
 H786 H 0.16354 0.37483 0.80400
 H787 H 0.19610 0.37516 0.83605
 Cu788 Cu 0.15342 0.34641 0.82196
 Cu789 Cu 0.17907 0.34700 0.84701
 Cu790 Cu 0.15280 0.32076 0.84700
 N791 N 0.13869 0.33172 0.82200
 N792 N 0.13855 0.32169 0.83184
 C793 C 0.12737 0.31292 0.82949
 C794 C 0.12020 0.31776 0.81759
 C795 C 0.12758 0.32968 0.81305
 H796 H 0.12464 0.30375 0.83597
 H797 H 0.12503 0.33631 0.80395
 N798 N 0.16816 0.32166 0.86142
 N799 N 0.17815 0.33164 0.86142
 C800 C 0.18695 0.32945 0.87261
 C801 C 0.18223 0.31757 0.87989
 C802 C 0.17035 0.31286 0.87260
 H803 H 0.19609 0.33599 0.87531
 H804 H 0.16379 0.30373 0.87530
 H805 H 0.16902 0.33079 0.83587
 H806 H 0.15750 0.34230 0.84735
 N807 N 0.17833 0.86139 0.33152
 N808 N 0.16858 0.86099 0.32139
 C809 C 0.17066 0.87210 0.31247
 C810 C 0.18228 0.87974 0.31731
 C811 C 0.18694 0.87272 0.32937
 H812 H 0.16419 0.87452 0.30321
 H813 H 0.19587 0.87567 0.33608
 Cu814 Cu 0.15394 0.84620 0.32097
 Cu815 Cu 0.17910 0.84733 0.34681
 Cu816 Cu 0.15373 0.82046 0.34591
 N817 N 0.13885 0.83184 0.32171
 N818 N 0.13867 0.82192 0.33167
 C819 C 0.12727 0.81336 0.32964
 C820 C 0.11997 0.81824 0.31782
 C821 C 0.12753 0.82993 0.31301
 H822 H 0.12460 0.80419 0.33614
 H823 H 0.12502 0.83645 0.30380
 N824 N 0.16829 0.82184 0.36102
 N825 N 0.17806 0.83204 0.36127
 C826 C 0.18666 0.83000 0.37264
 C827 C 0.18201 0.81802 0.37981
 C828 C 0.17039 0.81308 0.37226
 H829 H 0.19568 0.83665 0.37547
 H830 H 0.16402 0.80377 0.37473
 H831 H 0.17003 0.83127 0.33521
 H832 H 0.15764 0.84223 0.34638
 C833 C 0.24485 0.95515 0.25500
 C834 C 0.25524 0.95515 0.24469
 C835 C 0.25830 0.96935 0.24168
 N836 N 0.25007 0.97794 0.24988
 C837 C 0.24181 0.96935 0.25805
 C838 C 0.26857 0.97394 0.23151
 C839 C 0.27186 0.98837 0.22824
 C840 C 0.28194 0.99271 0.21825
 C841 C 0.28193 1.00744 0.21826
 C842 C 0.27185 1.01176 0.22824
 N843 N 0.26583 1.00007 0.23420
 C844 C 0.26854 1.02619 0.23153
 C845 C 0.25828 1.03079 0.24172
 C846 C 0.25524 1.04499 0.24474
 C847 C 0.24486 1.04500 0.25506
 C848 C 0.24181 1.03081 0.25809
 N849 N 0.25004 1.02221 0.24990
 C850 C 0.23155 1.02623 0.26827
 C851 C 0.22825 1.01178 0.27155
 C852 C 0.21819 1.00745 0.28155
 C853 C 0.21819 0.99272 0.28154
 C854 C 0.22826 0.98839 0.27153
 N855 N 0.23427 1.00008 0.26557
 C856 C 0.23155 0.97394 0.26824
 H857 H 0.24009 0.94572 0.25970
 H858 H 0.25998 0.94572 0.23996
 H859 H 0.24203 1.00008 0.25785
 H860 H 0.28863 0.98597 0.21163
 H861 H 0.28861 1.01418 0.21164
 H862 H 0.25998 1.05442 0.24003
 H863 H 0.24011 1.05444 0.25977
 H864 H 0.21152 0.98598 0.28816
 H865 H 0.25803 1.00007 0.24190
 H866 H 0.21152 1.01419 0.28818
 C867 C 0.24476 0.45505 0.75519
 C868 C 0.25514 0.45506 0.74486
 C869 C 0.25818 0.46926 0.74184
 N870 N 0.24994 0.47784 0.75004
 C871 C 0.24171 0.46925 0.75823
 C872 C 0.26844 0.47386 0.73165
 C873 C 0.27173 0.48830 0.72837
 C874 C 0.28181 0.49263 0.71838
 C875 C 0.28180 0.50737 0.71839
 C876 C 0.27173 0.51171 0.72838
 N877 N 0.26571 0.50000 0.73434
 C878 C 0.26843 0.52615 0.73166
 C879 C 0.25817 0.53072 0.74186
 C880 C 0.25511 0.54492 0.74490
 C881 C 0.24473 0.54491 0.75522
 C882 C 0.24169 0.53070 0.75824
 N883 N 0.24993 0.52213 0.75004
 C884 C 0.23143 0.52611 0.76843
 C885 C 0.22814 0.51167 0.77171
 C886 C 0.21807 0.50734 0.78170
 C887 C 0.21807 0.49260 0.78170
 C888 C 0.22815 0.48826 0.77171
 N889 N 0.23416 0.49997 0.76575
 C890 C 0.23145 0.47382 0.76843
 H891 H 0.24003 0.44561 0.75990
 H892 H 0.25989 0.44563 0.74014
 H893 H 0.24195 0.49997 0.75805
 H894 H 0.28848 0.48589 0.71176
 H895 H 0.28848 0.51411 0.71177
 H896 H 0.25984 0.55436 0.74019
 H897 H 0.23998 0.55434 0.75995
 H898 H 0.21140 0.48586 0.78832
 H899 H 0.25791 0.49999 0.74204
 H900 H 0.21139 0.51408 0.78833
 C901 C 0.74493 -0.04522 0.24493
 C902 C 0.75531 -0.04524 0.25525
 C903 C 0.75836 -0.03105 0.25828
 N904 N 0.75014 -0.02245 0.25009
 C905 C 0.74190 -0.03102 0.24190
 C906 C 0.76862 -0.02648 0.26847
 C907 C 0.77192 -0.01204 0.27174
 C908 C 0.78199 -0.00771 0.28173
 C909 C 0.78199 0.00702 0.28172
 C910 C 0.77192 0.01137 0.27172
 N911 N 0.76590 -0.00033 0.26577
 C912 C 0.76863 0.02581 0.26843
 C913 C 0.75837 0.03041 0.25824
 C914 C 0.75533 0.04461 0.25520
 C915 C 0.74496 0.04463 0.24488
 C916 C 0.74191 0.03043 0.24185
 N917 N 0.75014 0.02183 0.25005
 C918 C 0.73165 0.02586 0.23167
 C919 C 0.72835 0.01142 0.22840
 C920 C 0.71828 0.00709 0.21841
 C921 C 0.71828 -0.00764 0.21842
 C922 C 0.72836 -0.01197 0.22842
 N923 N 0.73437 -0.00028 0.23437
 C924 C 0.73165 -0.02641 0.23171
 H925 H 0.74018 -0.05465 0.24021
 H926 H 0.76004 -0.05469 0.25997
 H927 H 0.74216 -0.00029 0.24207
 H928 H 0.78866 -0.01446 0.28835
 H929 H 0.78867 0.01376 0.28833
 H930 H 0.76008 0.05404 0.25991
 H931 H 0.74022 0.05406 0.24015
 H932 H 0.71161 -0.01438 0.21180
 H933 H 0.75811 -0.00032 0.25807
 H934 H 0.71161 0.01384 0.21178
 C935 C 0.74492 0.54479 0.74500
 C936 C 0.75530 0.54479 0.75531
 C937 C 0.75836 0.53059 0.75834
 N938 N 0.75013 0.52200 0.75015
 C939 C 0.74188 0.53059 0.74196
 C940 C 0.76862 0.52600 0.76853
 C941 C 0.77193 0.51155 0.77180
 C942 C 0.78200 0.50720 0.78178
 C943 C 0.78202 0.49246 0.78177
 C944 C 0.77195 0.48814 0.77177
 N945 N 0.76591 0.49985 0.76583
 C946 C 0.76866 0.47369 0.76848
 C947 C 0.75839 0.46911 0.75831
 C948 C 0.75532 0.45492 0.75531
 C949 C 0.74493 0.45492 0.74500
 C950 C 0.74190 0.46912 0.74195
 N951 N 0.75016 0.47771 0.75011
 C952 C 0.73165 0.47371 0.73175
 C953 C 0.72835 0.48817 0.72847
 C954 C 0.71829 0.49251 0.71847
 C955 C 0.71828 0.50725 0.71848
 C956 C 0.72834 0.51157 0.72848
 N957 N 0.73435 0.49986 0.73445
 C958 C 0.73162 0.52602 0.73177
 H959 H 0.74017 0.55423 0.74028
 H960 H 0.76004 0.55422 0.76003
 H961 H 0.74211 0.49986 0.74218
 H962 H 0.78867 0.51393 0.78841
 H963 H 0.78869 0.48571 0.78838
 H964 H 0.76005 0.44548 0.76005
 H965 H 0.74017 0.44549 0.74031
 H966 H 0.71161 0.51400 0.71186
 H967 H 0.75812 0.49985 0.75813
 H968 H 0.71162 0.48578 0.71184
 C969 C 0.24477 0.45505 0.24476
 C970 C 0.25515 0.45503 0.25508
 C971 C 0.25820 0.46923 0.25811
 N972 N 0.24996 0.47783 0.24993
 C973 C 0.24173 0.46925 0.24173
 C974 C 0.26845 0.47380 0.26830
 C975 C 0.27174 0.48824 0.27158
 C976 C 0.28181 0.49257 0.28158
 C977 C 0.28180 0.50731 0.28157
 C978 C 0.27173 0.51165 0.27158
 N979 N 0.26572 0.49995 0.26561
 C980 C 0.26843 0.52610 0.26829
 C981 C 0.25817 0.53069 0.25810
 C982 C 0.25512 0.54489 0.25507
 C983 C 0.24474 0.54490 0.24476
 C984 C 0.24169 0.53070 0.24173
 N985 N 0.24994 0.52211 0.24992
 C986 C 0.23144 0.52612 0.23155
 C987 C 0.22815 0.51169 0.22827
 C988 C 0.21809 0.50736 0.21827
 C989 C 0.21810 0.49263 0.21827
 C990 C 0.22817 0.48829 0.22826
 N991 N 0.23418 0.49999 0.23423
 C992 C 0.23148 0.47385 0.23155
 H993 H 0.24003 0.44562 0.24004
 H994 H 0.25989 0.44559 0.25980
 H995 H 0.24195 0.49998 0.24194
 H996 H 0.28848 0.48582 0.28820
 H997 H 0.28847 0.51404 0.28819
 H998 H 0.25986 0.55432 0.25978
 H999 H 0.23999 0.55433 0.24004
 H1000 H 0.21143 0.48589 0.21165
 H1001 H 0.25795 0.49996 0.25790
 H1002 H 0.21141 0.51410 0.21165
 C1003 C 0.75514 1.04513 0.74487
 C1004 C 0.74477 1.04517 0.75520
 C1005 C 0.74171 1.03098 0.75825
 N1006 N 0.74993 1.02236 0.75007
 C1007 C 0.75817 1.03092 0.74186
 C1008 C 0.73145 1.02642 0.76845
 C1009 C 0.72817 1.01197 0.77173
 C1010 C 0.71811 1.00763 0.78173
 C1011 C 0.71811 0.99289 0.78172
 C1012 C 0.72818 0.98855 0.77171
 N1013 N 0.73419 1.00026 0.76576
 C1014 C 0.73148 0.97410 0.76842
 C1015 C 0.74174 0.96950 0.75823
 C1016 C 0.74477 0.95529 0.75519
 C1017 C 0.75516 0.95527 0.74488
 C1018 C 0.75823 0.96947 0.74186
 N1019 N 0.75000 0.97807 0.75005
 C1020 C 0.76849 0.97404 0.73168
 C1021 C 0.77177 0.98848 0.72839
 C1022 C 0.78185 0.99281 0.71840
 C1023 C 0.78182 1.00755 0.71840
 C1024 C 0.77173 1.01187 0.72839
 N1025 N 0.76572 1.00017 0.73434
 C1026 C 0.76842 1.02631 0.73167
 H1027 H 0.75989 1.05455 0.74014
 H1028 H 0.74004 1.05462 0.75990
 H1029 H 0.75791 1.00019 0.74202
 H1030 H 0.71143 1.01437 0.78835
 H1031 H 0.71144 0.98615 0.78833
 H1032 H 0.74001 0.94586 0.75990
 H1033 H 0.75990 0.94583 0.74016
 H1034 H 0.78849 1.01429 0.71178
 H1035 H 0.74198 1.00024 0.75806
 H1036 H 0.78854 0.98608 0.71179
 C1037 C 0.74487 0.45516 0.25510
 C1038 C 0.75525 0.45517 0.24478
 C1039 C 0.75829 0.46937 0.24176
 N1040 N 0.75004 0.47795 0.24996
 C1041 C 0.74181 0.46936 0.25814
 C1042 C 0.76854 0.47396 0.23158
 C1043 C 0.77183 0.48840 0.22831
 C1044 C 0.78189 0.49274 0.21831
 C1045 C 0.78188 0.50748 0.21832
 C1046 C 0.77180 0.51179 0.22833
 N1047 N 0.76580 0.50009 0.23429
 C1048 C 0.76849 0.52622 0.23162
 C1049 C 0.75824 0.53081 0.24181
 C1050 C 0.75519 0.54501 0.24485
 C1051 C 0.74481 0.54501 0.25517
 C1052 C 0.74176 0.53081 0.25819
 N1053 N 0.75000 0.52222 0.25000
 C1054 C 0.73151 0.52622 0.26838
 C1055 C 0.72822 0.51178 0.27165
 C1056 C 0.71816 0.50743 0.28164
 C1057 C 0.71817 0.49270 0.28163
 C1058 C 0.72824 0.48837 0.27163
 N1059 N 0.73425 0.50008 0.26567
 C1060 C 0.73155 0.47393 0.26834
 H1061 H 0.74013 0.44572 0.25981
 H1062 H 0.76000 0.44574 0.24006
 H1063 H 0.74203 0.50008 0.25796
 H1064 H 0.78857 0.48601 0.21168
 H1065 H 0.78854 0.51423 0.21170
 H1066 H 0.75993 0.55445 0.24013
 H1067 H 0.74007 0.55445 0.25989
 H1068 H 0.71150 0.48595 0.28825
 H1069 H 0.75803 0.50009 0.24200
 H1070 H 0.71148 0.51417 0.28827
 C1071 C 0.24497 0.04461 0.74495
 C1072 C 0.25535 0.04457 0.75527
 C1073 C 0.25841 0.03035 0.75827
 N1074 N 0.25017 0.02180 0.75006
 C1075 C 0.24193 0.03042 0.74189
 C1076 C 0.26867 0.02574 0.76845
 C1077 C 0.27199 0.01128 0.77171
 C1078 C 0.28207 0.00694 0.78169
 C1079 C 0.28210 -0.00780 0.78167
 C1080 C 0.27204 -0.01213 0.77168
 N1081 N 0.26600 -0.00042 0.76573
 C1082 C 0.26876 -0.02658 0.76839
 C1083 C 0.25849 -0.03112 0.75820
 C1084 C 0.25543 -0.04530 0.75514
 C1085 C 0.24503 -0.04525 0.74483
 C1086 C 0.24199 -0.03104 0.74185
 N1087 N 0.25024 -0.02249 0.75005
 C1088 C 0.23172 -0.02641 0.73168
 C1089 C 0.22841 -0.01197 0.72841
 C1090 C 0.21833 -0.00763 0.71842
 C1091 C 0.21831 0.00711 0.71843
 C1092 C 0.22839 0.01143 0.72842
 N1093 N 0.23441 -0.00028 0.73438
 C1094 C 0.23167 0.02587 0.73170
 H1095 H 0.24023 0.05405 0.74026
 H1096 H 0.26009 0.05399 0.76000
 H1097 H 0.24219 -0.00030 0.74209
 H1098 H 0.28874 0.01367 0.78832
 H1099 H 0.28879 -0.01455 0.78828
 H1100 H 0.26017 -0.05476 0.75982
 H1101 H 0.24028 -0.05467 0.74010
 H1102 H 0.21163 0.01385 0.71181
 H1103 H 0.25822 -0.00039 0.75802
 H1104 H 0.21166 -0.01436 0.71180
 C1105 C 0.24479 0.25515 1.04501
 C1106 C 0.25512 0.24475 1.04501
 C1107 C 0.25814 0.24169 1.03083
 N1108 N 0.24993 0.24993 1.02225
 C1109 C 0.24175 0.25819 1.03083
 C1110 C 0.26833 0.23143 1.02624
 C1111 C 0.27161 0.22812 1.01182
 C1112 C 0.28162 0.21804 1.00749
 C1113 C 0.28161 0.21803 0.99277
 C1114 C 0.27160 0.22810 0.98844
 N1115 N 0.26564 0.23414 1.00013
 C1116 C 0.26832 0.23140 0.97401
 C1117 C 0.25811 0.24166 0.96944
 C1118 C 0.25510 0.24473 0.95525
 C1119 C 0.24476 0.25511 0.95526
 C1120 C 0.24171 0.25814 0.96944
 N1121 N 0.24990 0.24988 0.97801
 C1122 C 0.23149 0.26838 0.97402
 C1123 C 0.22821 0.27169 0.98845
 C1124 C 0.21818 0.28175 0.99278
 C1125 C 0.21820 0.28177 1.00750
 C1126 C 0.22824 0.27172 1.01182
 N1127 N 0.23422 0.26570 1.00014
 C1128 C 0.23155 0.26845 1.02625
 H1129 H 0.24008 0.25990 1.05444
 H1130 H 0.25985 0.24001 1.05444
 H1131 H 0.24197 0.25795 1.00014
 H1132 H 0.28825 0.21137 1.01423
 H1133 H 0.28824 0.21135 0.98604
 H1134 H 0.25983 0.24000 0.94583
 H1135 H 0.24005 0.25987 0.94583
 H1136 H 0.21157 0.28844 1.01423
 H1137 H 0.25793 0.24194 1.00013
 H1138 H 0.21153 0.28841 0.98605
 C1139 C 0.24484 0.75540 0.54478
 C1140 C 0.25517 0.74501 0.54479
 C1141 C 0.25820 0.74195 0.53061
 N1142 N 0.25001 0.75019 0.52202
 C1143 C 0.24181 0.75845 0.53060
 C1144 C 0.26840 0.73169 0.52603
 C1145 C 0.27169 0.72839 0.51160
 C1146 C 0.28170 0.71832 0.50727
 C1147 C 0.28170 0.71832 0.49255
 C1148 C 0.27169 0.72839 0.48823
 N1149 N 0.26572 0.73442 0.49991
 C1150 C 0.26840 0.73169 0.47380
 C1151 C 0.25817 0.74192 0.46921
 C1152 C 0.25513 0.74495 0.45502
 C1153 C 0.24477 0.75532 0.45501
 C1154 C 0.24174 0.75838 0.46919
 N1155 N 0.24996 0.75016 0.47778
 C1156 C 0.23152 0.76862 0.47377
 C1157 C 0.22825 0.77194 0.48820
 C1158 C 0.21824 0.78201 0.49253
 C1159 C 0.21827 0.78204 0.50725
 C1160 C 0.22830 0.77198 0.51158
 N1161 N 0.23425 0.76593 0.49989
 C1162 C 0.23161 0.76870 0.52601
 H1163 H 0.24012 0.76016 0.55420
 H1164 H 0.25988 0.74026 0.55422
 H1165 H 0.24196 0.75814 0.49989
 H1166 H 0.28833 0.71164 0.51401
 H1167 H 0.28833 0.71165 0.48582
 H1168 H 0.25985 0.74020 0.44560
 H1169 H 0.24003 0.76004 0.44559
 H1170 H 0.21165 0.78872 0.51398
 H1171 H 0.25801 0.74222 0.49991
 H1172 H 0.21159 0.78867 0.48580
 C1173 C 0.24498 0.74493 0.04480
 C1174 C 0.25535 0.75527 0.04479
 C1175 C 0.25841 0.75827 0.03060
 N1176 N 0.25019 0.75005 0.02204
 C1177 C 0.24195 0.74186 0.03063
 C1178 C 0.26865 0.76848 0.02600
 C1179 C 0.27196 0.77174 0.01157
 C1180 C 0.28202 0.78174 0.00723
 C1181 C 0.28204 0.78172 -0.00749
 C1182 C 0.27199 0.77171 -0.01181
 N1183 N 0.26597 0.76574 -0.00012
 C1184 C 0.26871 0.76841 -0.02624
 C1185 C 0.25846 0.75821 -0.03080
 C1186 C 0.25538 0.75518 -0.04498
 C1187 C 0.24501 0.74485 -0.04496
 C1188 C 0.24200 0.74180 -0.03077
 N1189 N 0.25025 0.75000 -0.02221
 C1190 C 0.23177 0.73159 -0.02617
 C1191 C 0.22847 0.72832 -0.01174
 C1192 C 0.21844 0.71828 -0.00740
 C1193 C 0.21842 0.71830 0.00732
 C1194 C 0.22845 0.72834 0.01164
 N1195 N 0.23444 0.73433 -0.00006
 C1196 C 0.23172 0.73164 0.02606
 H1197 H 0.24024 0.74022 0.05424
 H1198 H 0.26007 0.76001 0.05420
 H1199 H 0.24215 0.74212 -0.00007
 H1200 H 0.28868 0.78839 0.01396
 H1201 H 0.28871 0.78835 -0.01422
 H1202 H 0.26010 0.75992 -0.05441
 H1203 H 0.24025 0.74014 -0.05438
 H1204 H 0.21177 0.71166 0.01405
 H1205 H 0.25820 0.75802 -0.00010
 H1206 H 0.21180 0.71162 -0.01413
 C1207 C 0.24472 0.24475 0.45519
 C1208 C 0.25507 0.25511 0.45519
 C1209 C 0.25814 0.25812 0.46937
 N1210 N 0.24995 0.24988 0.47795
 C1211 C 0.24172 0.24168 0.46938
 C1212 C 0.26837 0.26833 0.47395
 C1213 C 0.27167 0.27161 0.48837
 C1214 C 0.28172 0.28163 0.49269
 C1215 C 0.28172 0.28163 0.50741
 C1216 C 0.27167 0.27161 0.51174
 N1217 N 0.26567 0.26563 0.50006
 C1218 C 0.26838 0.26833 0.52617
 C1219 C 0.25815 0.25811 0.53076
 C1220 C 0.25511 0.25508 0.54495
 C1221 C 0.24475 0.24474 0.54496
 C1222 C 0.24172 0.24169 0.53078
 N1223 N 0.24994 0.24989 0.52219
 C1224 C 0.23149 0.23147 0.52620
 C1225 C 0.22821 0.22817 0.51178
 C1226 C 0.21820 0.21812 0.50745
 C1227 C 0.21821 0.21811 0.49274
 C1228 C 0.22823 0.22815 0.48840
 N1229 N 0.23420 0.23417 0.50008
 C1230 C 0.23151 0.23144 0.47397
 H1231 H 0.23997 0.24005 0.44577
 H1232 H 0.25977 0.25987 0.44576
 H1233 H 0.24191 0.24195 0.50008
 H1234 H 0.28837 0.28827 0.48596
 H1235 H 0.28837 0.28827 0.51414
 H1236 H 0.25983 0.25982 0.55437
 H1237 H 0.24002 0.24001 0.55438
 H1238 H 0.21157 0.21145 0.48601
 H1239 H 0.25790 0.25791 0.50007
 H1240 H 0.21155 0.21147 0.51419
 C1241 C 0.74487 0.75526 1.04497
 C1242 C 0.75519 0.74486 1.04497
 C1243 C 0.75820 0.74179 1.03079
 N1244 N 0.75000 0.75003 1.02221
 C1245 C 0.74182 0.75830 1.03078
 C1246 C 0.76838 0.73152 1.02620
 C1247 C 0.77168 0.72823 1.01178
 C1248 C 0.78168 0.71814 1.00746
 C1249 C 0.78169 0.71815 0.99274
 C1250 C 0.77170 0.72825 0.98841
 N1251 N 0.76573 0.73427 1.00009
 C1252 C 0.76844 0.73156 0.97398
 C1253 C 0.75824 0.74183 0.96940
 C1254 C 0.75525 0.74491 0.95521
 C1255 C 0.74491 0.75530 0.95521
 C1256 C 0.74184 0.75831 0.96939
 N1257 N 0.75001 0.75004 0.97797
 C1258 C 0.73161 0.76855 0.97397
 C1259 C 0.72832 0.77184 0.98840
 C1260 C 0.71828 0.78188 0.99273
 C1261 C 0.71828 0.78188 1.00745
 C1262 C 0.72833 0.77184 1.01177
 N1263 N 0.73432 0.76584 1.00009
 C1264 C 0.73163 0.76856 1.02620
 H1265 H 0.74017 0.76003 1.05439
 H1266 H 0.75992 0.74013 1.05440
 H1267 H 0.74210 0.75811 1.00009
 H1268 H 0.78829 0.71145 1.01419
 H1269 H 0.78832 0.71147 0.98601
 H1270 H 0.76000 0.74019 0.94579
 H1271 H 0.74022 0.76007 0.94579
 H1272 H 0.71164 0.78854 1.01418
 H1273 H 0.75806 0.74210 1.00009
 H1274 H 0.71163 0.78854 0.98600
 C1275 C 0.74487 0.25504 0.45506
 C1276 C 0.75521 0.24466 0.45506
 C1277 C 0.75821 0.24158 0.46924
 N1278 N 0.74998 0.24979 0.47782
 C1279 C 0.74180 0.25806 0.46924
 C1280 C 0.76841 0.23131 0.47382
 C1281 C 0.77168 0.22801 0.48825
 C1282 C 0.78168 0.21793 0.49258
 C1283 C 0.78167 0.21793 0.50730
 C1284 C 0.77167 0.22801 0.51162
 N1285 N 0.76571 0.23404 0.49994
 C1286 C 0.76837 0.23130 0.52605
 C1287 C 0.75816 0.24155 0.53063
 C1288 C 0.75512 0.24459 0.54482
 C1289 C 0.74478 0.25497 0.54482
 C1290 C 0.74174 0.25802 0.53064
 N1291 N 0.74995 0.24979 0.52206
 C1292 C 0.73153 0.26827 0.52606
 C1293 C 0.72825 0.27157 0.51163
 C1294 C 0.71823 0.28163 0.50729
 C1295 C 0.71824 0.28164 0.49258
 C1296 C 0.72827 0.27158 0.48825
 N1297 N 0.73425 0.26557 0.49994
 C1298 C 0.73157 0.26830 0.47382
 H1299 H 0.74018 0.25981 0.44563
 H1300 H 0.75997 0.23994 0.44563
 H1301 H 0.74198 0.25779 0.49994
 H1302 H 0.78831 0.21125 0.48586
 H1303 H 0.78830 0.21125 0.51404
 H1304 H 0.75984 0.23985 0.55424
 H1305 H 0.74005 0.25970 0.55424
 H1306 H 0.71161 0.28831 0.48584
 H1307 H 0.75802 0.24186 0.49994
 H1308 H 0.71158 0.28829 0.51402
 C1309 C 0.74489 0.24491 0.04482
 C1310 C 0.75522 0.25527 0.04482
 C1311 C 0.75824 0.25833 0.03063
 N1312 N 0.75002 0.25011 0.02206
 C1313 C 0.74183 0.24187 0.03064
 C1314 C 0.76843 0.26858 0.02604
 C1315 C 0.77170 0.27189 0.01161
 C1316 C 0.78170 0.28195 0.00727
 C1317 C 0.78168 0.28197 -0.00745
 C1318 C 0.77167 0.27191 -0.01177
 N1319 N 0.76571 0.26588 -0.00007
 C1320 C 0.76837 0.26862 -0.02619
 C1321 C 0.75816 0.25838 -0.03077
 C1322 C 0.75511 0.25535 -0.04495
 C1323 C 0.74478 0.24498 -0.04494
 C1324 C 0.74175 0.24192 -0.03075
 N1325 N 0.74997 0.25014 -0.02218
 C1326 C 0.73155 0.23168 -0.02617
 C1327 C 0.72829 0.22837 -0.01173
 C1328 C 0.71830 0.21830 -0.00739
 C1329 C 0.71832 0.21829 0.00733
 C1330 C 0.72832 0.22835 0.01165
 N1331 N 0.73428 0.23437 -0.00005
 C1332 C 0.73162 0.23163 0.02607
 H1333 H 0.74018 0.24016 0.05425
 H1334 H 0.75995 0.26000 0.05424
 H1335 H 0.74199 0.24216 -0.00006
 H1336 H 0.78833 0.28862 0.01400
 H1337 H 0.78830 0.28864 -0.01419
 H1338 H 0.75982 0.26010 -0.05437
 H1339 H 0.74004 0.24025 -0.05436
 H1340 H 0.71170 0.21161 0.01407
 H1341 H 0.75800 0.25810 -0.00007
 H1342 H 0.71166 0.21164 -0.01412
 C1343 C 0.74474 0.74500 0.45519
 C1344 C 0.75508 0.75536 0.45518
 C1345 C 0.75815 0.75838 0.46936
 N1346 N 0.74996 0.75015 0.47795
 C1347 C 0.74174 0.74193 0.46938
 C1348 C 0.76837 0.76861 0.47392
 C1349 C 0.77168 0.77189 0.48835
 C1350 C 0.78172 0.78192 0.49267
 C1351 C 0.78174 0.78191 0.50739
 C1352 C 0.77170 0.77188 0.51173
 N1353 N 0.76569 0.76590 0.50004
 C1354 C 0.76842 0.76859 0.52616
 C1355 C 0.75820 0.75836 0.53076
 C1356 C 0.75515 0.75535 0.54494
 C1357 C 0.74481 0.74498 0.54496
 C1358 C 0.74180 0.74191 0.53078
 N1359 N 0.75001 0.75012 0.52219
 C1360 C 0.73159 0.73166 0.52621
 C1361 C 0.72830 0.72837 0.51179
 C1362 C 0.71829 0.71831 0.50747
 C1363 C 0.71827 0.71832 0.49275
 C1364 C 0.72827 0.72839 0.48841
 N1365 N 0.73425 0.73440 0.50009
 C1366 C 0.73153 0.73169 0.47398
 H1367 H 0.74000 0.74027 0.44578
 H1368 H 0.75978 0.76011 0.44575
 H1369 H 0.74193 0.74221 0.50008
 H1370 H 0.78836 0.78856 0.48593
 H1371 H 0.78839 0.78855 0.51411
 H1372 H 0.75985 0.76011 0.55436
 H1373 H 0.74007 0.74027 0.55439
 H1374 H 0.71163 0.71166 0.48602
 H1375 H 0.75793 0.75817 0.50006
 H1376 H 0.71167 0.71164 0.51420
 C1377 C 1.04495 0.24491 0.25515
 C1378 C 1.04496 0.25531 0.24485
 C1379 C 1.03075 0.25836 0.24181
 N1380 N 1.02215 0.25011 0.24997
 C1381 C 1.03073 0.24186 0.25815
 C1382 C 1.02617 0.26863 0.23163
 C1383 C 1.01172 0.27192 0.22835
 C1384 C 1.00738 0.28202 0.21838
 C1385 C 0.99263 0.28201 0.21837
 C1386 C 0.98830 0.27192 0.22833
 N1387 N 1.00001 0.26589 0.23429
 C1388 C 0.97385 0.26860 0.23159
 C1389 C 0.96924 0.25834 0.24175
 C1390 C 0.95502 0.25527 0.24472
 C1391 C 0.95500 0.24488 0.25503
 C1392 C 0.96921 0.24185 0.25810
 N1393 N 0.97782 0.25011 0.24995
 C1394 C 0.97378 0.23159 0.26828
 C1395 C 0.98824 0.22830 0.27157
 C1396 C 0.99258 0.21822 0.28155
 C1397 C 1.00733 0.21822 0.28156
 C1398 C 1.01167 0.22830 0.27158
 N1399 N 0.99996 0.23432 0.26562
 C1400 C 1.02613 0.23160 0.26832
 H1401 H 1.05439 0.24017 0.25987
 H1402 H 1.05441 0.26005 0.24016
 H1403 H 0.99997 0.24211 0.25792
 H1404 H 1.01413 0.28870 0.21178
 H1405 H 0.98589 0.28870 0.21176
 H1406 H 0.94558 0.26000 0.23997
 H1407 H 0.94555 0.24012 0.25970
 H1408 H 1.01407 0.21153 0.28817
 H1409 H 1.00000 0.25808 0.24196
 H1410 H 0.98583 0.21154 0.28815
 C1411 C 0.54490 0.25504 0.74492
 C1412 C 0.54489 0.24468 0.75524
 C1413 C 0.53068 0.24164 0.75826
 N1414 N 0.52208 0.24986 0.75006
 C1415 C 0.53068 0.25809 0.74187
 C1416 C 0.52609 0.23139 0.76845
 C1417 C 0.51163 0.22809 0.77172
 C1418 C 0.50729 0.21801 0.78170
 C1419 C 0.49254 0.21801 0.78169
 C1420 C 0.48820 0.22809 0.77171
 N1421 N 0.49991 0.23411 0.76576
 C1422 C 0.47374 0.23139 0.76843
 C1423 C 0.46915 0.24165 0.75824
 C1424 C 0.45494 0.24472 0.75523
 C1425 C 0.45495 0.25509 0.74491
 C1426 C 0.46916 0.25811 0.74186
 N1427 N 0.47776 0.24986 0.75005
 C1428 C 0.47376 0.26835 0.73167
 C1429 C 0.48822 0.27164 0.72839
 C1430 C 0.49255 0.28170 0.71839
 C1431 C 0.50730 0.28170 0.71839
 C1432 C 0.51164 0.27164 0.72840
 N1433 N 0.49993 0.26564 0.73437
 C1434 C 0.52610 0.26834 0.73168
 H1435 H 0.55434 0.25978 0.74020
 H1436 H 0.55434 0.23994 0.75996
 H1437 H 0.49993 0.25788 0.74210
 H1438 H 0.51404 0.21134 0.78832
 H1439 H 0.48579 0.21134 0.78831
 H1440 H 0.44550 0.24000 0.75995
 H1441 H 0.44551 0.25985 0.74020
 H1442 H 0.51405 0.28836 0.71177
 H1443 H 0.49992 0.24190 0.75806
 H1444 H 0.48580 0.28836 0.71176
 C1445 C -0.04518 0.25521 0.75520
 C1446 C -0.04518 0.24480 0.74491
 C1447 C -0.03097 0.24173 0.74190
 N1448 N -0.02237 0.24998 0.75006
 C1449 C -0.03097 0.25824 0.75822
 C1450 C -0.02638 0.23145 0.73175
 C1451 C -0.01192 0.22815 0.72846
 C1452 C -0.00758 0.21807 0.71849
 C1453 C 0.00717 0.21807 0.71847
 C1454 C 0.01150 0.22816 0.72843
 N1455 N -0.00021 0.23418 0.73440
 C1456 C 0.02596 0.23145 0.73170
 C1457 C 0.03055 0.24170 0.74187
 C1458 C 0.04476 0.24470 0.74493
 C1459 C 0.04477 0.25509 0.75522
 C1460 C 0.03056 0.25820 0.75821
 N1461 N 0.02196 0.24998 0.75002
 C1462 C 0.02597 0.26848 0.76836
 C1463 C 0.01151 0.27180 0.77163
 C1464 C 0.00716 0.28190 0.78158
 C1465 C -0.00759 0.28191 0.78159
 C1466 C -0.01192 0.27181 0.77164
 N1467 N -0.00021 0.26576 0.76570
 C1468 C -0.02638 0.26851 0.76837
 H1469 H -0.05463 0.25997 0.75989
 H1470 H -0.05463 0.24007 0.74021
 H1471 H -0.00021 0.25793 0.75806
 H1472 H -0.01433 0.21138 0.71189
 H1473 H 0.01391 0.21139 0.71186
 H1474 H 0.05421 0.23991 0.74025
 H1475 H 0.05421 0.25981 0.75995
 H1476 H -0.01434 0.28860 0.78819
 H1477 H -0.00021 0.24197 0.74209
 H1478 H 0.01390 0.28859 0.78817
 C1479 C 0.45511 0.24458 0.24490
 C1480 C 0.45511 0.25496 0.25520
 C1481 C 0.46933 0.25801 0.25820
 N1482 N 0.47792 0.24977 0.25002
 C1483 C 0.46932 0.24152 0.24186
 C1484 C 0.47392 0.26828 0.26836
 C1485 C 0.48837 0.27159 0.27162
 C1486 C 0.49271 0.28169 0.28157
 C1487 C 0.50746 0.28171 0.28154
 C1488 C 0.51180 0.27162 0.27157
 N1489 N 0.50009 0.26557 0.26565
 C1490 C 0.52627 0.26833 0.26828
 C1491 C 0.53085 0.25804 0.25813
 C1492 C 0.54506 0.25496 0.25512
 C1493 C 0.54506 0.24455 0.24484
 C1494 C 0.53084 0.24153 0.24181
 N1495 N 0.52225 0.24981 0.24996
 C1496 C 0.52625 0.23127 0.23165
 C1497 C 0.51179 0.22797 0.22838
 C1498 C 0.50746 0.21790 0.21840
 C1499 C 0.49271 0.21790 0.21841
 C1500 C 0.48837 0.22796 0.22840
 N1501 N 0.50008 0.23398 0.23435
 C1502 C 0.47391 0.23126 0.23170
 H1503 H 0.44567 0.23983 0.24020
 H1504 H 0.44567 0.25971 0.25991
 H1505 H 0.50008 0.24175 0.24206
 H1506 H 0.48596 0.28836 0.28818
 H1507 H 0.51420 0.28840 0.28813
 H1508 H 0.55451 0.25968 0.25984
 H1509 H 0.55450 0.23978 0.24015
 H1510 H 0.48596 0.21122 0.21181
 H1511 H 0.50009 0.25776 0.25799
 H1512 H 0.51421 0.21123 0.21178
 C1513 C 1.04504 0.75535 0.74489
 C1514 C 1.04504 0.74496 0.75518
 C1515 C 1.03082 0.74192 0.75821
 N1516 N 1.02223 0.75018 0.75004
 C1517 C 1.03083 0.75842 0.74187
 C1518 C 1.02622 0.73166 0.76837
 C1519 C 1.01176 0.72837 0.77165
 C1520 C 1.00743 0.71830 0.78164
 C1521 C 0.99268 0.71831 0.78164
 C1522 C 0.98834 0.72838 0.77165
 N1523 N 1.00005 0.73439 0.76569
 C1524 C 0.97388 0.73167 0.76836
 C1525 C 0.96930 0.74192 0.75817
 C1526 C 0.95509 0.74497 0.75512
 C1527 C 0.95510 0.75534 0.74481
 C1528 C 0.96931 0.75839 0.74180
 N1529 N 0.97790 0.75016 0.75000
 C1530 C 0.97391 0.76865 0.73163
 C1531 C 0.98837 0.77196 0.72837
 C1532 C 0.99271 0.78205 0.71840
 C1533 C 1.00746 0.78206 0.71843
 C1534 C 1.01179 0.77198 0.72840
 N1535 N 1.00008 0.76594 0.73433
 C1536 C 1.02625 0.76869 0.73170
 H1537 H 1.05449 0.76009 0.74018
 H1538 H 1.05448 0.74019 0.75989
 H1539 H 1.00007 0.75813 0.74201
 H1540 H 1.01417 0.71163 0.78827
 H1541 H 0.98593 0.71164 0.78826
 H1542 H 0.94564 0.74022 0.75982
 H1543 H 0.94566 0.76009 0.74008
 H1544 H 1.01420 0.78875 0.71183
 H1545 H 1.00006 0.74215 0.75797
 H1546 H 0.98596 0.78873 0.71178
 C1547 C 0.54498 0.75528 0.24496
 C1548 C 0.54496 0.74489 0.25526
 C1549 C 0.53074 0.74186 0.25827
 N1550 N 0.52216 0.75011 0.25008
 C1551 C 0.53078 0.75834 0.24191
 C1552 C 0.52613 0.73160 0.26843
 C1553 C 0.51167 0.72831 0.27169
 C1554 C 0.50732 0.71823 0.28167
 C1555 C 0.49257 0.71824 0.28165
 C1556 C 0.48824 0.72831 0.27166
 N1557 N 0.49996 0.73433 0.26572
 C1558 C 0.47379 0.73161 0.26836
 C1559 C 0.46922 0.74186 0.25816
 C1560 C 0.45502 0.74489 0.25506
 C1561 C 0.45504 0.75527 0.24475
 C1562 C 0.46926 0.75834 0.24179
 N1563 N 0.47784 0.75012 0.25002
 C1564 C 0.47388 0.76861 0.23164
 C1565 C 0.48834 0.77191 0.22840
 C1566 C 0.49269 0.78202 0.21846
 C1567 C 0.50744 0.78202 0.21848
 C1568 C 0.51176 0.77191 0.22844
 N1569 N 0.50004 0.76586 0.23435
 C1570 C 0.52621 0.76861 0.23174
 H1571 H 0.55444 0.76002 0.24026
 H1572 H 0.55440 0.74014 0.25999
 H1573 H 0.50002 0.75801 0.24198
 H1574 H 0.51406 0.71155 0.28829
 H1575 H 0.48582 0.71156 0.28825
 H1576 H 0.44556 0.74012 0.25973
 H1577 H 0.44561 0.76000 0.24000
 H1578 H 0.51419 0.78871 0.21190
 H1579 H 0.49998 0.74211 0.25802
 H1580 H 0.48595 0.78872 0.21185
 C1581 C -0.04510 0.75527 0.25518
 C1582 C -0.04510 0.74487 0.24489
 C1583 C -0.03089 0.74180 0.24187
 N1584 N -0.02229 0.75003 0.25004
 C1585 C -0.03088 0.75830 0.25820
 C1586 C -0.02630 0.73151 0.23172
 C1587 C -0.01184 0.72821 0.22844
 C1588 C -0.00750 0.71810 0.21849
 C1589 C 0.00725 0.71810 0.21848
 C1590 C 0.01158 0.72820 0.22842
 N1591 N -0.00013 0.73425 0.23436
 C1592 C 0.02604 0.73151 0.23168
 C1593 C 0.03063 0.74179 0.24182
 C1594 C 0.04485 0.74487 0.24478
 C1595 C 0.04485 0.75527 0.25506
 C1596 C 0.03064 0.75830 0.25814
 N1597 N 0.02204 0.75002 0.25001
 C1598 C 0.02606 0.76856 0.26831
 C1599 C 0.01160 0.77186 0.27161
 C1600 C 0.00726 0.78192 0.28160
 C1601 C -0.00749 0.78192 0.28161
 C1602 C -0.01183 0.77186 0.27163
 N1603 N -0.00012 0.76585 0.26565
 C1604 C -0.02629 0.76857 0.26836
 H1605 H -0.05454 0.76003 0.25988
 H1606 H -0.05454 0.74013 0.24019
 H1607 H -0.00012 0.75809 0.25793
 H1608 H -0.01425 0.71141 0.21190
 H1609 H 0.01399 0.71140 0.21188
 H1610 H 0.05429 0.74014 0.24004
 H1611 H 0.05430 0.76005 0.25973
 H1612 H -0.01424 0.78860 0.28823
 H1613 H -0.00013 0.74208 0.24201
 H1614 H 0.01400 0.78859 0.28820
 C1615 C 0.54489 0.74496 0.74502
 C1616 C 0.54488 0.75535 0.75533
 C1617 C 0.53067 0.75840 0.75836
 N1618 N 0.52208 0.75016 0.75018
 C1619 C 0.53068 0.74192 0.74200
 C1620 C 0.52608 0.76866 0.76854
 C1621 C 0.51161 0.77195 0.77182
 C1622 C 0.50726 0.78201 0.78181
 C1623 C 0.49251 0.78201 0.78182
 C1624 C 0.48818 0.77194 0.77183
 N1625 N 0.49990 0.76594 0.76586
 C1626 C 0.47372 0.76864 0.76856
 C1627 C 0.46914 0.75840 0.75837
 C1628 C 0.45493 0.75536 0.75534
 C1629 C 0.45493 0.74499 0.74502
 C1630 C 0.46915 0.74194 0.74200
 N1631 N 0.47774 0.75016 0.75019
 C1632 C 0.47374 0.73168 0.73182
 C1633 C 0.48821 0.72838 0.72854
 C1634 C 0.49256 0.71831 0.71856
 C1635 C 0.50731 0.71830 0.71856
 C1636 C 0.51164 0.72837 0.72855
 N1637 N 0.49992 0.73439 0.73450
 C1638 C 0.52610 0.73166 0.73183
 H1639 H 0.55434 0.74022 0.74031
 H1640 H 0.55433 0.76009 0.76003
 H1641 H 0.49991 0.74216 0.74221
 H1642 H 0.51400 0.78868 0.78843
 H1643 H 0.48575 0.78867 0.78845
 H1644 H 0.44548 0.76011 0.76005
 H1645 H 0.44549 0.74026 0.74030
 H1646 H 0.51406 0.71163 0.71195
 H1647 H 0.49990 0.75818 0.75814
 H1648 H 0.48582 0.71164 0.71194
 C1649 C 0.39235 0.31161 0.31136
 C1650 C 0.40300 0.30650 0.30618
 C1651 C 0.41567 0.30032 0.29997
 C1652 C 0.42921 0.30370 0.30544
 C1653 C 0.44150 0.29763 0.29941
 C1654 C 0.44027 0.28816 0.28790
 C1655 C 0.42673 0.28478 0.28245
 C1656 C 0.41446 0.29085 0.28847
 C1657 C 0.45277 0.28175 0.28164
 C1658 C 0.46274 0.27592 0.27591
 H1659 H 0.43026 0.31099 0.31435
 H1660 H 0.45192 0.30028 0.30372
 H1661 H 0.42566 0.27745 0.27357
 H1662 H 0.40405 0.28813 0.28417
 C1663 C 0.39204 0.81205 0.81144
 C1664 C 0.40269 0.80691 0.80627
 C1665 C 0.41538 0.80069 0.80011
 C1666 C 0.41421 0.79131 0.78852
 C1667 C 0.42649 0.78523 0.78254
 C1668 C 0.44002 0.78849 0.78811
 C1669 C 0.44120 0.79784 0.79971
 C1670 C 0.42890 0.80393 0.80571
 C1671 C 0.45254 0.78209 0.78185
 C1672 C 0.46252 0.77627 0.77612
 H1673 H 0.40382 0.78869 0.78411
 H1674 H 0.42545 0.77798 0.77358
 H1675 H 0.45160 0.80040 0.80412
 H1676 H 0.42993 0.81114 0.81469
 C1677 C -0.10792 0.31207 0.81118
 C1678 C -0.09729 0.30693 0.80599
 C1679 C -0.08463 0.30072 0.79980
 C1680 C -0.08583 0.29126 0.78828
 C1681 C -0.07356 0.28517 0.78230
 C1682 C -0.06003 0.28850 0.78780
 C1683 C -0.05881 0.29795 0.79932
 C1684 C -0.07110 0.30405 0.80532
 C1685 C -0.04753 0.28205 0.78158
 C1686 C -0.03756 0.27619 0.77588
 H1687 H -0.09624 0.28859 0.78394
 H1688 H -0.07462 0.27784 0.77341
 H1689 H -0.04840 0.30056 0.80367
 H1690 H -0.07005 0.31133 0.81424
 C1691 C -0.10790 0.81196 0.31123
 C1692 C -0.09725 0.80685 0.30604
 C1693 C -0.08458 0.80068 0.29985
 C1694 C -0.08576 0.79123 0.28832
 C1695 C -0.07348 0.78516 0.28233
 C1696 C -0.05995 0.78851 0.28783
 C1697 C -0.05875 0.79795 0.29936
 C1698 C -0.07105 0.80403 0.30536
 C1699 C -0.04744 0.78208 0.28159
 C1700 C -0.03747 0.77623 0.27588
 H1701 H -0.09616 0.78854 0.28398
 H1702 H -0.07454 0.77785 0.27342
 H1703 H -0.04834 0.80058 0.30370
 H1704 H -0.07001 0.81130 0.31429
 C1705 C 0.60770 0.68837 0.31141
 C1706 C 0.59706 0.69348 0.30622
 C1707 C 0.58440 0.69965 0.30002
 C1708 C 0.57082 0.69515 0.30450
 C1709 C 0.55852 0.70122 0.29850
 C1710 C 0.55978 0.71180 0.28800
 C1711 C 0.57336 0.71629 0.28353
 C1712 C 0.58564 0.71024 0.28952
 C1713 C 0.54727 0.71815 0.28173
 C1714 C 0.53729 0.72396 0.27599
 H1715 H 0.56975 0.68698 0.31263
 H1716 H 0.54807 0.69768 0.30203
 H1717 H 0.57445 0.72448 0.27542
 H1718 H 0.59608 0.71381 0.28598
 C1719 C 0.60774 0.18807 0.81132
 C1720 C 0.59709 0.19321 0.80616
 C1721 C 0.58442 0.19943 0.80001
 C1722 C 0.58564 0.21001 0.78950
 C1723 C 0.57335 0.21609 0.78354
 C1724 C 0.55977 0.21162 0.78805
 C1725 C 0.55853 0.20105 0.79856
 C1726 C 0.57083 0.19496 0.80453
 C1727 C 0.54725 0.21798 0.78177
 C1728 C 0.53727 0.22377 0.77602
 H1729 H 0.59607 0.21357 0.78593
 H1730 H 0.57443 0.22427 0.77542
 H1731 H 0.54808 0.19753 0.80212
 H1732 H 0.56977 0.18680 0.81266
 C1733 C 1.10778 0.68841 0.81137
 C1734 C 1.09713 0.69351 0.80620
 C1735 C 1.08446 0.69968 0.80001
 C1736 C 1.08571 0.71025 0.78949
 C1737 C 1.07343 0.71630 0.78348
 C1738 C 1.05985 0.71183 0.78796
 C1739 C 1.05858 0.70126 0.79847
 C1740 C 1.07087 0.69520 0.80449
 C1741 C 1.04735 0.71819 0.78167
 C1742 C 1.03738 0.72401 0.77592
 H1743 H 1.09615 0.71382 0.78595
 H1744 H 1.07453 0.72448 0.77536
 H1745 H 1.04812 0.69774 0.80200
 H1746 H 1.06979 0.68705 0.81263
 C1747 C 1.10769 0.18833 0.31133
 C1748 C 1.09706 0.19345 0.30613
 C1749 C 1.08440 0.19963 0.29993
 C1750 C 1.08564 0.21023 0.28945
 C1751 C 1.07336 0.21629 0.28345
 C1752 C 1.05978 0.21179 0.28790
 C1753 C 1.05852 0.20119 0.29838
 C1754 C 1.07081 0.19512 0.30439
 C1755 C 1.04727 0.21815 0.28162
 C1756 C 1.03730 0.22396 0.27588
 H1757 H 1.09608 0.21382 0.28592
 H1758 H 1.07446 0.22449 0.27535
 H1759 H 1.04806 0.19764 0.30189
 H1760 H 1.06974 0.18694 0.31250
 C1761 C 0.60760 0.31176 0.68870
 C1762 C 0.59699 0.30660 0.69390
 C1763 C 0.58435 0.30036 0.70007
 C1764 C 0.57075 0.30515 0.69594
 C1765 C 0.55847 0.29904 0.70192
 C1766 C 0.55976 0.28811 0.71206
 C1767 C 0.57335 0.28332 0.71618
 C1768 C 0.58561 0.28942 0.71021
 C1769 C 0.54725 0.28175 0.71836
 C1770 C 0.53728 0.27595 0.72411
 H1771 H 0.56965 0.31360 0.68810
 H1772 H 0.54801 0.30282 0.69867
 H1773 H 0.57447 0.27487 0.72402
 H1774 H 0.59606 0.28562 0.71348
 C1775 C 0.60771 0.81191 0.18877
 C1776 C 0.59706 0.80684 0.19396
 C1777 C 0.58441 0.80067 0.20017
 C1778 C 0.57081 0.80520 0.19576
 C1779 C 0.55853 0.79912 0.20177
 C1780 C 0.55983 0.78849 0.21222
 C1781 C 0.57343 0.78398 0.21664
 C1782 C 0.58568 0.79005 0.21063
 C1783 C 0.54734 0.78210 0.21850
 C1784 C 0.53738 0.77626 0.22422
 H1785 H 0.56970 0.81341 0.18767
 H1786 H 0.54807 0.80268 0.19829
 H1787 H 0.57455 0.77576 0.22471
 H1788 H 0.59613 0.78646 0.21412
 C1789 C 1.10802 0.31157 0.18896
 C1790 C 1.09725 0.30662 0.19403
 C1791 C 1.08451 0.30057 0.20017
 C1792 C 1.07095 0.30468 0.19522
 C1793 C 1.05862 0.29866 0.20120
 C1794 C 1.05982 0.28852 0.21214
 C1795 C 1.07336 0.28444 0.21709
 C1796 C 1.08567 0.29045 0.21112
 C1797 C 1.04729 0.28214 0.21837
 C1798 C 1.03734 0.27629 0.22410
 H1799 H 1.06993 0.31249 0.18675
 H1800 H 1.04819 0.30187 0.19730
 H1801 H 1.07441 0.27661 0.22554
 H1802 H 1.09608 0.28719 0.21503
 C1803 C 1.10775 0.81198 0.68868
 C1804 C 1.09710 0.80690 0.69387
 C1805 C 1.08445 0.80071 0.70007
 C1806 C 1.07113 0.80743 0.69843
 C1807 C 1.05885 0.80132 0.70442
 C1808 C 1.05985 0.78848 0.71204
 C1809 C 1.07317 0.78179 0.71368
 C1810 C 1.08543 0.78789 0.70771
 C1811 C 1.04737 0.78215 0.71840
 C1812 C 1.03742 0.77634 0.72416
 H1813 H 1.07026 0.81736 0.69256
 H1814 H 1.04861 0.80661 0.70314
 H1815 H 1.07407 0.77188 0.71961
 H1816 H 1.09567 0.78260 0.70905
 C1817 C 0.39231 0.68831 0.68864
 C1818 C 0.40293 0.69344 0.69385
 C1819 C 0.41557 0.69965 0.70007
 C1820 C 0.41427 0.70994 0.71085
 C1821 C 0.42651 0.71601 0.71690
 C1822 C 0.44012 0.71185 0.71219
 C1823 C 0.44145 0.70157 0.70141
 C1824 C 0.42919 0.69548 0.69535
 C1825 C 0.45261 0.71824 0.71851
 C1826 C 0.46257 0.72405 0.72426
 H1827 H 0.40381 0.71327 0.71458
 H1828 H 0.42536 0.72397 0.72523
 H1829 H 0.45192 0.69828 0.69769
 H1830 H 0.43032 0.68755 0.68701
 C1831 C 0.39238 0.18804 0.18875
 C1832 C 0.40300 0.19313 0.19396
 C1833 C 0.41566 0.19927 0.20017
 C1834 C 0.41441 0.20989 0.21063
 C1835 C 0.42668 0.21594 0.21662
 C1836 C 0.44027 0.21141 0.21219
 C1837 C 0.44154 0.20078 0.20175
 C1838 C 0.42925 0.19472 0.19575
 C1839 C 0.45277 0.21778 0.21845
 C1840 C 0.46274 0.22361 0.22417
 H1841 H 0.40397 0.21350 0.21414
 H1842 H 0.42558 0.22416 0.22470
 H1843 H 0.45200 0.19721 0.19825
 H1844 H 0.43033 0.18652 0.18766
 C1845 C -0.10779 0.68816 0.18881
 C1846 C -0.09717 0.69326 0.19402
 C1847 C -0.08452 0.69943 0.20024
 C1848 C -0.08579 0.71007 0.21067
 C1849 C -0.07352 0.71614 0.21666
 C1850 C -0.05993 0.71161 0.21224
 C1851 C -0.05864 0.70096 0.20182
 C1852 C -0.07093 0.69488 0.19583
 C1853 C -0.04743 0.71801 0.21850
 C1854 C -0.03747 0.72385 0.22421
 H1855 H -0.09624 0.71368 0.21416
 H1856 H -0.07464 0.72438 0.22471
 H1857 H -0.04818 0.69738 0.19834
 H1858 H -0.06983 0.68666 0.18776
 C1859 C -0.10771 0.18804 0.68859
 C1860 C -0.09710 0.19315 0.69381
 C1861 C -0.08448 0.19934 0.70006
 C1862 C -0.08581 0.20997 0.71050
 C1863 C -0.07358 0.21606 0.71655
 C1864 C -0.05996 0.21155 0.71219
 C1865 C -0.05861 0.20091 0.70176
 C1866 C -0.07086 0.19482 0.69570
 C1867 C -0.04749 0.21796 0.71849
 C1868 C -0.03755 0.22379 0.72423
 H1869 H -0.09628 0.21356 0.71395
 H1870 H -0.07474 0.22428 0.72461
 H1871 H -0.04813 0.19736 0.69832
 H1872 H -0.06972 0.18661 0.68763
 C1873 C 0.31168 0.39219 0.31128
 C1874 C 0.30657 0.40284 0.30610
 C1875 C 0.30040 0.41551 0.29990
 C1876 C 0.30482 0.42908 0.30446
 C1877 C 0.29875 0.44137 0.29846
 C1878 C 0.28824 0.44013 0.28788
 C1879 C 0.28383 0.42656 0.28333
 C1880 C 0.28988 0.41429 0.28933
 C1881 C 0.28188 0.45264 0.28160
 C1882 C 0.27608 0.46262 0.27586
 H1883 H 0.31292 0.43014 0.31265
 H1884 H 0.30223 0.45181 0.30205
 H1885 H 0.27570 0.42548 0.27516
 H1886 H 0.28636 0.40386 0.28573
 C1887 C 0.31223 -0.10831 0.81128
 C1888 C 0.30709 -0.09768 0.80607
 C1889 C 0.30086 -0.08499 0.79988
 C1890 C 0.29034 -0.08621 0.78931
 C1891 C 0.28425 -0.07392 0.78333
 C1892 C 0.28864 -0.06034 0.78788
 C1893 C 0.29916 -0.05911 0.79845
 C1894 C 0.30526 -0.07141 0.80444
 C1895 C 0.28224 -0.04780 0.78162
 C1896 C 0.27642 -0.03780 0.77591
 H1897 H 0.28683 -0.09663 0.78570
 H1898 H 0.27611 -0.07501 0.77516
 H1899 H 0.30263 -0.04868 0.80205
 H1900 H 0.31337 -0.07034 0.81262
 C1901 C 0.81178 0.39201 0.81139
 C1902 C 0.80667 0.40266 0.80623
 C1903 C 0.80052 0.41541 0.80017
 C1904 C 0.80906 0.42489 0.79232
 C1905 C 0.80305 0.43728 0.78646
 C1906 C 0.78850 0.44026 0.78847
 C1907 C 0.77996 0.43076 0.79629
 C1908 C 0.78596 0.41838 0.80214
 C1909 C 0.78210 0.45261 0.78192
 C1910 C 0.77628 0.46252 0.77607
 H1911 H 0.82031 0.42266 0.79067
 H1912 H 0.80971 0.44446 0.78029
 H1913 H 0.76866 0.43287 0.79775
 H1914 H 0.77924 0.41110 0.80813
 C1915 C 0.81175 -0.10812 0.31149
 C1916 C 0.80665 -0.09748 0.30628
 C1917 C 0.80050 -0.08481 0.30008
 C1918 C 0.78999 -0.08602 0.28949
 C1919 C 0.78396 -0.07374 0.28349
 C1920 C 0.78839 -0.06018 0.28804
 C1921 C 0.79890 -0.05894 0.29862
 C1922 C 0.80494 -0.07125 0.30463
 C1923 C 0.78204 -0.04765 0.28176
 C1924 C 0.77624 -0.03767 0.27603
 H1925 H 0.78646 -0.09644 0.28589
 H1926 H 0.77583 -0.07481 0.27531
 H1927 H 0.80239 -0.04851 0.30221
 H1928 H 0.81305 -0.07019 0.31282
 C1929 C 0.31173 0.60765 0.68859
 C1930 C 0.30660 0.59702 0.69377
 C1931 C 0.30040 0.58437 0.69998
 C1932 C 0.28982 0.58563 0.71050
 C1933 C 0.28376 0.57338 0.71652
 C1934 C 0.28823 0.55979 0.71206
 C1935 C 0.29880 0.55851 0.70154
 C1936 C 0.30487 0.57078 0.69550
 C1937 C 0.28186 0.54730 0.71836
 C1938 C 0.27606 0.53733 0.72411
 H1939 H 0.28626 0.59607 0.71403
 H1940 H 0.27559 0.57450 0.72465
 H1941 H 0.30232 0.54806 0.69801
 H1942 H 0.31303 0.56968 0.68736
 C1943 C 0.31181 1.10761 0.18869
 C1944 C 0.30670 1.09699 0.19386
 C1945 C 0.30052 1.08435 0.20002
 C1946 C 0.30498 1.07079 0.19548
 C1947 C 0.29890 1.05850 0.20145
 C1948 C 0.28835 1.05977 0.21199
 C1949 C 0.28389 1.07333 0.21652
 C1950 C 0.28996 1.08560 0.21056
 C1951 C 0.28198 1.04729 0.21825
 C1952 C 0.27617 1.03734 0.22398
 H1953 H 0.31313 1.06972 0.18733
 H1954 H 0.30241 1.04806 0.19788
 H1955 H 0.27572 1.07442 0.22466
 H1956 H 0.28642 1.09602 0.21414
 C1957 C 0.81170 0.60767 0.18875
 C1958 C 0.80659 0.59704 0.19392
 C1959 C 0.80042 0.58440 0.20009
 C1960 C 0.78988 0.58564 0.21064
 C1961 C 0.78382 0.57337 0.21661
 C1962 C 0.78827 0.55982 0.21206
 C1963 C 0.79881 0.55855 0.20151
 C1964 C 0.80488 0.57084 0.19553
 C1965 C 0.78192 0.54733 0.21832
 C1966 C 0.77611 0.53738 0.22407
 H1967 H 0.78634 0.59607 0.21423
 H1968 H 0.77566 0.57446 0.22476
 H1969 H 0.80232 0.54812 0.19793
 H1970 H 0.81302 0.56978 0.18737
 C1971 C 0.81179 1.10750 0.68850
 C1972 C 0.80668 1.09689 0.69369
 C1973 C 0.80047 1.08429 0.69991
 C1974 C 0.80490 1.07070 0.69542
 C1975 C 0.79880 1.05846 0.70147
 C1976 C 0.78827 1.05981 0.71201
 C1977 C 0.78385 1.07340 0.71649
 C1978 C 0.78994 1.08562 0.71045
 C1979 C 0.78188 1.04736 0.71833
 C1980 C 0.77605 1.03744 0.72410
 H1981 H 0.81303 1.06957 0.68725
 H1982 H 0.80227 1.04800 0.69793
 H1983 H 0.77570 1.07455 0.72464
 H1984 H 0.78643 1.09607 0.71399
 C1985 C 0.68837 0.60782 0.31136
 C1986 C 0.69348 0.59719 0.30616
 C1987 C 0.69964 0.58453 0.29996
 C1988 C 0.69510 0.57097 0.30444
 C1989 C 0.70115 0.55866 0.29844
 C1990 C 0.71175 0.55989 0.28795
 C1991 C 0.71627 0.57345 0.28347
 C1992 C 0.71024 0.58574 0.28946
 C1993 C 0.71809 0.54737 0.28168
 C1994 C 0.72388 0.53739 0.27594
 H1995 H 0.68692 0.56991 0.31256
 H1996 H 0.69758 0.54823 0.30197
 H1997 H 0.72447 0.57452 0.27536
 H1998 H 0.71384 0.59615 0.28592
 C1999 C 0.68822 1.10815 0.81151
 C2000 C 0.69335 1.09751 0.80629
 C2001 C 0.69953 1.08484 0.80007
 C2002 C 0.69503 1.07126 0.80454
 C2003 C 0.70108 1.05896 0.79853
 C2004 C 0.71167 1.06018 0.78802
 C2005 C 0.71616 1.07376 0.78355
 C2006 C 0.71011 1.08604 0.78955
 C2007 C 0.71803 1.04764 0.78174
 C2008 C 0.72382 1.03763 0.77601
 H2009 H 0.68686 1.07019 0.81267
 H2010 H 0.69753 1.04852 0.80207
 H2011 H 0.72435 1.07484 0.77542
 H2012 H 0.71370 1.09646 0.78600
 C2013 C 0.18832 0.60771 0.81139
 C2014 C 0.19340 0.59705 0.80623
 C2015 C 0.19954 0.58437 0.80005
 C2016 C 0.19506 0.57081 0.80458
 C2017 C 0.20109 0.55851 0.79857
 C2018 C 0.21163 0.55974 0.78801
 C2019 C 0.21611 0.57330 0.78349
 C2020 C 0.21008 0.58558 0.78949
 C2021 C 0.21798 0.54723 0.78173
 C2022 C 0.22379 0.53727 0.77599
 H2023 H 0.18692 0.56976 0.81275
 H2024 H 0.19757 0.54808 0.80214
 H2025 H 0.22426 0.57437 0.77533
 H2026 H 0.21365 0.59600 0.78592
 C2027 C 0.18835 1.10779 0.31124
 C2028 C 0.19347 1.09716 0.30604
 C2029 C 0.19964 1.08451 0.29985
 C2030 C 0.19516 1.07094 0.30437
 C2031 C 0.20121 1.05865 0.29837
 C2032 C 0.21177 1.05989 0.28783
 C2033 C 0.21624 1.07345 0.28332
 C2034 C 0.21020 1.08572 0.28931
 C2035 C 0.21811 1.04737 0.28156
 C2036 C 0.22392 1.03740 0.27583
 H2037 H 0.18701 1.06989 0.31252
 H2038 H 0.19768 1.04821 0.30193
 H2039 H 0.22441 1.07452 0.27517
 H2040 H 0.21376 1.09615 0.28574
 C2041 C 0.68826 0.39227 0.68872
 C2042 C 0.69342 0.40287 0.69393
 C2043 C 0.69964 0.41550 0.70013
 C2044 C 0.71029 0.41423 0.71058
 C2045 C 0.71638 0.42648 0.71657
 C2046 C 0.71186 0.44007 0.71215
 C2047 C 0.70123 0.44136 0.70171
 C2048 C 0.69513 0.42909 0.69571
 C2049 C 0.71823 0.45257 0.71845
 C2050 C 0.72402 0.46254 0.72419
 H2051 H 0.71388 0.40379 0.71408
 H2052 H 0.72460 0.42536 0.72465
 H2053 H 0.69766 0.45181 0.69822
 H2054 H 0.68691 0.43020 0.68763
 C2055 C 0.68833 -0.10772 0.18875
 C2056 C 0.69342 -0.09709 0.19392
 C2057 C 0.69961 -0.08447 0.20010
 C2058 C 0.71010 -0.08576 0.21069
 C2059 C 0.71618 -0.07352 0.21669
 C2060 C 0.71181 -0.05994 0.21212
 C2061 C 0.70133 -0.05863 0.20153
 C2062 C 0.69523 -0.07089 0.19553
 C2063 C 0.71820 -0.04748 0.21841
 C2064 C 0.72402 -0.03755 0.22416
 H2065 H 0.71358 -0.09620 0.21430
 H2066 H 0.72430 -0.07465 0.22487
 H2067 H 0.69789 -0.04817 0.19794
 H2068 H 0.68713 -0.06978 0.18733
 C2069 C 0.18826 0.39244 0.18867
 C2070 C 0.19334 0.40309 0.19381
 C2071 C 0.19951 0.41573 0.19998
 C2072 C 0.19496 0.42930 0.19554
 C2073 C 0.20104 0.44158 0.20152
 C2074 C 0.21169 0.44029 0.21196
 C2075 C 0.21622 0.42672 0.21639
 C2076 C 0.21015 0.41447 0.21042
 C2077 C 0.21805 0.45277 0.21824
 C2078 C 0.22386 0.46271 0.22398
 H2079 H 0.18673 0.43038 0.18746
 H2080 H 0.19746 0.45202 0.19803
 H2081 H 0.22446 0.42562 0.22446
 H2082 H 0.21376 0.40404 0.21393
 C2083 C 0.18831 -0.10761 0.68859
 C2084 C 0.19340 -0.09698 0.69377
 C2085 C 0.19960 -0.08437 0.69997
 C2086 C 0.19507 -0.07077 0.69559
 C2087 C 0.20119 -0.05854 0.70162
 C2088 C 0.21185 -0.05989 0.71203
 C2089 C 0.21636 -0.07349 0.71640
 C2090 C 0.21026 -0.08570 0.71038
 C2091 C 0.21824 -0.04745 0.71835
 C2092 C 0.22408 -0.03753 0.72412
 H2093 H 0.18684 -0.06964 0.68753
 H2094 H 0.19763 -0.04807 0.69818
 H2095 H 0.22460 -0.07464 0.72445
 H2096 H 0.21385 -0.09616 0.71384
 C2097 C 0.31144 0.31138 0.39246
 C2098 C 0.30630 0.30624 0.40309
 C2099 C 0.30013 0.30007 0.41574
 C2100 C 0.30480 0.30441 0.42928
 C2101 C 0.29877 0.29839 0.44157
 C2102 C 0.28806 0.28800 0.44033
 C2103 C 0.28341 0.28367 0.42679
 C2104 C 0.28943 0.28968 0.41453
 C2105 C 0.28175 0.28169 0.45283
 C2106 C 0.27597 0.27592 0.46279
 H2107 H 0.31307 0.31244 0.43033
 H2108 H 0.30244 0.30181 0.45198
 H2109 H 0.27513 0.27563 0.42572
 H2110 H 0.28574 0.28623 0.40412
 C2111 C 0.31183 0.81149 -0.10778
 C2112 C 0.30672 0.80632 -0.09714
 C2113 C 0.30057 0.80011 -0.08448
 C2114 C 0.30509 0.80457 -0.07093
 C2115 C 0.29906 0.79853 -0.05865
 C2116 C 0.28849 0.78801 -0.05989
 C2117 C 0.28399 0.78354 -0.07344
 C2118 C 0.29001 0.78957 -0.08570
 C2119 C 0.28214 0.78171 -0.04738
 C2120 C 0.27634 0.77597 -0.03741
 H2121 H 0.31325 0.81271 -0.06986
 H2122 H 0.30262 0.80206 -0.04822
 H2123 H 0.27582 0.77540 -0.07453
 H2124 H 0.28643 0.78602 -0.09611
 C2125 C 0.81125 0.31195 -0.10767
 C2126 C 0.80614 0.30679 -0.09703
 C2127 C 0.79999 0.30057 -0.08438
 C2128 C 0.78944 0.29003 -0.08561
 C2129 C 0.78345 0.28397 -0.07335
 C2130 C 0.78798 0.28841 -0.05980
 C2131 C 0.79853 0.29895 -0.05855
 C2132 C 0.80453 0.30502 -0.07083
 C2133 C 0.78169 0.28205 -0.04731
 C2134 C 0.77594 0.27625 -0.03735
 H2135 H 0.78585 0.28650 -0.09602
 H2136 H 0.77529 0.27582 -0.07444
 H2137 H 0.80210 0.30245 -0.04813
 H2138 H 0.81269 0.31316 -0.06976
 C2139 C 0.81126 0.81181 0.39238
 C2140 C 0.80614 0.80667 0.40302
 C2141 C 0.79999 0.80047 0.41568
 C2142 C 0.80451 0.80497 0.42922
 C2143 C 0.79851 0.79892 0.44151
 C2144 C 0.78797 0.78835 0.44028
 C2145 C 0.78347 0.78387 0.42674
 C2146 C 0.78945 0.78991 0.41447
 C2147 C 0.78169 0.78202 0.45279
 C2148 C 0.77594 0.77623 0.46276
 H2149 H 0.81265 0.81313 0.43027
 H2150 H 0.80206 0.80245 0.45193
 H2151 H 0.77532 0.77570 0.42567
 H2152 H 0.78588 0.78635 0.40406
 C2153 C 0.68859 0.31136 0.60763
 C2154 C 0.69368 0.30624 0.59697
 C2155 C 0.69982 0.30007 0.58429
 C2156 C 0.71028 0.28940 0.58549
 C2157 C 0.71627 0.28338 0.57322
 C2158 C 0.71185 0.28798 0.55968
 C2159 C 0.70140 0.29864 0.55846
 C2160 C 0.69539 0.30468 0.57075
 C2161 C 0.71816 0.28166 0.54717
 C2162 C 0.72393 0.27588 0.53721
 H2163 H 0.71379 0.28575 0.59589
 H2164 H 0.72435 0.27513 0.57428
 H2165 H 0.69791 0.30227 0.54804
 H2166 H 0.68732 0.31292 0.56971
 C2167 C 0.68862 0.81160 1.10768
 C2168 C 0.69377 0.80649 1.09705
 C2169 C 0.69996 0.80035 1.08440
 C2170 C 0.71058 0.78985 1.08561
 C2171 C 0.71659 0.78385 1.07334
 C2172 C 0.71202 0.78831 1.05980
 C2173 C 0.70141 0.79881 1.05857
 C2174 C 0.69539 0.80482 1.07086
 C2175 C 0.71831 0.78198 1.04730
 C2176 C 0.72406 0.77619 1.03734
 H2177 H 0.71420 0.78631 1.09601
 H2178 H 0.72480 0.77573 1.07440
 H2179 H 0.69781 0.80232 1.04816
 H2180 H 0.68718 0.81294 1.06982
 C2181 C 0.18864 0.31145 1.10783
 C2182 C 0.19377 0.30634 1.09718
 C2183 C 0.19993 0.30021 1.08451
 C2184 C 0.19552 0.30488 1.07098
 C2185 C 0.20153 0.29888 1.05867
 C2186 C 0.21196 0.28820 1.05987
 C2187 C 0.21637 0.28355 1.07340
 C2188 C 0.21037 0.28954 1.08568
 C2189 C 0.21824 0.28189 1.04736
 C2190 C 0.22399 0.27609 1.03740
 H2191 H 0.18745 0.31314 1.06996
 H2192 H 0.19806 0.30255 1.04827
 H2193 H 0.22444 0.27530 1.07444
 H2194 H 0.21387 0.28585 1.09608
 C2195 C 0.18875 0.81167 0.60761
 C2196 C 0.19387 0.80655 0.59696
 C2197 C 0.19991 0.80043 0.58422
 C2198 C 0.20679 0.80917 0.57421
 C2199 C 0.21265 0.80319 0.56182
 C2200 C 0.21160 0.78846 0.55941
 C2201 C 0.20475 0.77972 0.56944
 C2202 C 0.19890 0.78569 0.58181
 C2203 C 0.21816 0.78212 0.54704
 C2204 C 0.22402 0.77633 0.53715
 H2205 H 0.20769 0.82057 0.57600
 H2206 H 0.21808 0.81002 0.55421
 H2207 H 0.20404 0.76829 0.56776
 H2208 H 0.19366 0.77882 0.58952
 C2209 C 0.31136 0.68859 0.60760
 C2210 C 0.30625 0.69373 0.59695
 C2211 C 0.30015 0.69993 0.58428
 C2212 C 0.29316 0.71316 0.58503
 C2213 C 0.28721 0.71921 0.57275
 C2214 C 0.28822 0.71208 0.55963
 C2215 C 0.29519 0.69884 0.55886
 C2216 C 0.30115 0.69278 0.57116
 C2217 C 0.28181 0.71833 0.54715
 C2218 C 0.27601 0.72408 0.53719
 H2219 H 0.29230 0.71878 0.59511
 H2220 H 0.28178 0.72942 0.57348
 H2221 H 0.29597 0.69321 0.54879
 H2222 H 0.30650 0.68254 0.57047
 C2223 C 0.31147 0.18834 1.10765
 C2224 C 0.30631 0.19345 1.09702
 C2225 C 0.30009 0.19959 1.08438
 C2226 C 0.28948 0.21009 1.08562
 C2227 C 0.28343 0.21611 1.07337
 C2228 C 0.28796 0.21165 1.05982
 C2229 C 0.29856 0.20114 1.05856
 C2230 C 0.30461 0.19512 1.07083
 C2231 C 0.28165 0.21799 1.04734
 C2232 C 0.27590 0.22379 1.03739
 H2233 H 0.28589 0.21363 1.09604
 H2234 H 0.27524 0.22423 1.07447
 H2235 H 0.30213 0.19763 1.04814
 H2236 H 0.31281 0.18700 1.06976
 C2237 C 0.81134 0.68836 1.10766
 C2238 C 0.80620 0.69348 1.09703
 C2239 C 0.80005 0.69968 1.08438
 C2240 C 0.79305 0.71289 1.08517
 C2241 C 0.78708 0.71894 1.07290
 C2242 C 0.78811 0.71182 1.05978
 C2243 C 0.79509 0.69860 1.05898
 C2244 C 0.80106 0.69253 1.07127
 C2245 C 0.78173 0.71810 1.04730
 C2246 C 0.77595 0.72388 1.03735
 H2247 H 0.79218 0.71849 1.09526
 H2248 H 0.78164 0.72914 1.07364
 H2249 H 0.79587 0.69298 1.04890
 H2250 H 0.80643 0.68230 1.07056
 C2251 C 0.81137 0.18830 0.60758
 C2252 C 0.80623 0.19339 0.59693
 C2253 C 0.80004 0.19952 0.58427
 C2254 C 0.78944 0.21003 0.58546
 C2255 C 0.78342 0.21602 0.57319
 C2256 C 0.78797 0.21154 0.55966
 C2257 C 0.79856 0.20101 0.55844
 C2258 C 0.80459 0.19501 0.57074
 C2259 C 0.78169 0.21786 0.54715
 C2260 C 0.77594 0.22366 0.53720
 H2261 H 0.78584 0.21360 0.59587
 H2262 H 0.77523 0.22416 0.57425
 H2263 H 0.80215 0.19747 0.54803
 H2264 H 0.81278 0.18688 0.56970
 C2265 C 0.68853 0.68856 0.39253
 C2266 C 0.69365 0.69370 0.40317
 C2267 C 0.69979 0.69990 0.41582
 C2268 C 0.70876 0.71182 0.41468
 C2269 C 0.71475 0.71787 0.42694
 C2270 C 0.71180 0.71203 0.44040
 C2271 C 0.70283 0.70011 0.44156
 C2272 C 0.69683 0.69405 0.42928
 C2273 C 0.71815 0.71833 0.45288
 C2274 C 0.72394 0.72409 0.46283
 H2275 H 0.71114 0.71643 0.40433
 H2276 H 0.72171 0.72707 0.42592
 H2277 H 0.70051 0.69550 0.45191
 H2278 H 0.68991 0.68482 0.43027
 C2279 C 0.68862 0.18837 -0.10762
 C2280 C 0.69372 0.19354 -0.09699
 C2281 C 0.69984 0.19978 -0.08434
 C2282 C 0.71034 0.21039 -0.08558
 C2283 C 0.71633 0.21645 -0.07333
 C2284 C 0.71186 0.21196 -0.05977
 C2285 C 0.70136 0.20137 -0.05851
 C2286 C 0.69536 0.19529 -0.07078
 C2287 C 0.71818 0.21830 -0.04728
 C2288 C 0.72395 0.22408 -0.03732
 H2289 H 0.71389 0.21395 -0.09600
 H2290 H 0.72445 0.22464 -0.07443
 H2291 H 0.69783 0.19783 -0.04808
 H2292 H 0.68724 0.18711 -0.06970
 C2293 C 0.18868 0.68852 -0.10759
 C2294 C 0.19381 0.69368 -0.09696
 C2295 C 0.19988 0.69986 -0.08428
 C2296 C 0.20097 0.71473 -0.08299
 C2297 C 0.20687 0.72076 -0.07067
 C2298 C 0.21169 0.71194 -0.05957
 C2299 C 0.21064 0.69707 -0.06086
 C2300 C 0.20473 0.69104 -0.07319
 C2301 C 0.21826 0.71824 -0.04720
 C2302 C 0.22414 0.72401 -0.03731
 H2303 H 0.19731 0.72166 -0.09151
 H2304 H 0.20778 0.73227 -0.06985
 H2305 H 0.21448 0.69015 -0.05241
 H2306 H 0.20400 0.67952 -0.07411
 C2307 C 0.18859 0.18850 0.39242
 C2308 C 0.19369 0.19362 0.40307
 C2309 C 0.19972 0.19978 0.41578
 C2310 C 0.20088 0.21465 0.41706
 C2311 C 0.20676 0.22066 0.42940
 C2312 C 0.21148 0.21183 0.44053
 C2313 C 0.21036 0.19696 0.43925
 C2314 C 0.20448 0.19095 0.42690
 C2315 C 0.21803 0.21811 0.45292
 C2316 C 0.22389 0.22387 0.46283
 H2317 H 0.19730 0.22159 0.40851
 H2318 H 0.20773 0.23217 0.43021
 H2319 H 0.21413 0.19004 0.44773
 H2320 H 0.20370 0.17943 0.42599
 C2321 C 0.31163 0.39232 0.68859
 C2322 C 0.30655 0.40298 0.69376
 C2323 C 0.30040 0.41564 0.69998
 C2324 C 0.30495 0.42921 0.69556
 C2325 C 0.29889 0.44150 0.70159
 C2326 C 0.28826 0.44023 0.71205
 C2327 C 0.28374 0.42666 0.71647
 C2328 C 0.28979 0.41440 0.71046
 C2329 C 0.28190 0.45273 0.71835
 C2330 C 0.27608 0.46269 0.72409
 H2331 H 0.31315 0.43029 0.68746
 H2332 H 0.30246 0.45194 0.69810
 H2333 H 0.27552 0.42556 0.72457
 H2334 H 0.28619 0.40397 0.71396
 C2335 C 0.31190 0.89252 0.18849
 C2336 C 0.30683 0.90320 0.19362
 C2337 C 0.30062 0.91585 0.19976
 C2338 C 0.30699 0.92924 0.19759
 C2339 C 0.30087 0.94151 0.20358
 C2340 C 0.28836 0.94042 0.21174
 C2341 C 0.28201 0.92703 0.21390
 C2342 C 0.28811 0.91478 0.20793
 C2343 C 0.28202 0.95287 0.21812
 C2344 C 0.27620 0.96279 0.22393
 H2345 H 0.31666 0.93018 0.19130
 H2346 H 0.30588 0.95181 0.20188
 H2347 H 0.27235 0.92607 0.22024
 H2348 H 0.28310 0.90450 0.20969
 C2349 C 0.81187 0.39258 0.18846
 C2350 C 0.80676 0.40321 0.19365
 C2351 C 0.80058 0.41585 0.19987
 C2352 C 0.80503 0.42943 0.19537
 C2353 C 0.79894 0.44170 0.20140
 C2354 C 0.78839 0.44040 0.21194
 C2355 C 0.78395 0.42683 0.21643
 C2356 C 0.79003 0.41458 0.21041
 C2357 C 0.78201 0.45288 0.21824
 C2358 C 0.77619 0.46282 0.22401
 H2359 H 0.81317 0.43052 0.18722
 H2360 H 0.80244 0.45215 0.19786
 H2361 H 0.77579 0.42571 0.22457
 H2362 H 0.78649 0.40414 0.21396
 C2363 C 0.81184 0.89259 0.68854
 C2364 C 0.80674 0.90326 0.69368
 C2365 C 0.80050 0.91592 0.69982
 C2366 C 0.78723 0.91510 0.70671
 C2367 C 0.78113 0.92736 0.71270
 C2368 C 0.78825 0.94050 0.71182
 C2369 C 0.80153 0.94134 0.70494
 C2370 C 0.80764 0.92906 0.69894
 C2371 C 0.78193 0.95295 0.71827
 C2372 C 0.77613 0.96287 0.72409
 H2373 H 0.78161 0.90501 0.70746
 H2374 H 0.77088 0.92658 0.71805
 H2375 H 0.80715 0.95143 0.70427
 H2376 H 0.81792 0.92981 0.69365
 C2377 C 0.68834 0.60758 0.68874
 C2378 C 0.69344 0.59693 0.69392
 C2379 C 0.69960 0.58426 0.70012
 C2380 C 0.71014 0.58551 0.71068
 C2381 C 0.71620 0.57324 0.71669
 C2382 C 0.71177 0.55967 0.71219
 C2383 C 0.70123 0.55840 0.70165
 C2384 C 0.69515 0.57068 0.69563
 C2385 C 0.71816 0.54716 0.71848
 C2386 C 0.72398 0.53720 0.72422
 H2387 H 0.71367 0.59594 0.71424
 H2388 H 0.72436 0.57435 0.72484
 H2389 H 0.69773 0.54796 0.69810
 H2390 H 0.68701 0.56960 0.68747
 C2391 C 0.68836 0.10730 0.18852
 C2392 C 0.69346 0.09667 0.19371
 C2393 C 0.69965 0.08403 0.19993
 C2394 C 0.71020 0.08529 0.21047
 C2395 C 0.71627 0.07303 0.21649
 C2396 C 0.71182 0.05945 0.21202
 C2397 C 0.70127 0.05817 0.20149
 C2398 C 0.69519 0.07044 0.19545
 C2399 C 0.71820 0.04697 0.21833
 C2400 C 0.72402 0.03702 0.22410
 H2401 H 0.71375 0.09572 0.21401
 H2402 H 0.72443 0.07414 0.22463
 H2403 H 0.69776 0.04772 0.19796
 H2404 H 0.68705 0.06935 0.18731
 C2405 C 0.18811 0.60756 0.18844
 C2406 C 0.19318 0.59689 0.19361
 C2407 C 0.19936 0.58424 0.19982
 C2408 C 0.20990 0.58552 0.21035
 C2409 C 0.21598 0.57328 0.21638
 C2410 C 0.21156 0.55969 0.21190
 C2411 C 0.20102 0.55839 0.20137
 C2412 C 0.19492 0.57066 0.19533
 C2413 C 0.21796 0.54722 0.21822
 C2414 C 0.22380 0.53728 0.22398
 H2415 H 0.21342 0.59596 0.21390
 H2416 H 0.22414 0.57440 0.22452
 H2417 H 0.19753 0.54794 0.19784
 H2418 H 0.18678 0.56955 0.18718
 C2419 C 0.18795 0.10713 0.68842
 C2420 C 0.19311 0.09652 0.69362
 C2421 C 0.19938 0.08392 0.69987
 C2422 C 0.20993 0.08527 0.71041
 C2423 C 0.21608 0.07306 0.71646
 C2424 C 0.21173 0.05944 0.71202
 C2425 C 0.20118 0.05807 0.70149
 C2426 C 0.19502 0.07029 0.69543
 C2427 C 0.21818 0.04699 0.71837
 C2428 C 0.22403 0.03705 0.72414
 H2429 H 0.21340 0.09573 0.71393
 H2430 H 0.22423 0.07425 0.72460
 H2431 H 0.19775 0.04759 0.69799
 H2432 H 0.18688 0.06913 0.68729
 C2433 C 0.31161 0.60760 0.31129
 C2434 C 0.30652 0.59696 0.30610
 C2435 C 0.30037 0.58431 0.29990
 C2436 C 0.30482 0.57073 0.30442
 C2437 C 0.29875 0.55845 0.29841
 C2438 C 0.28822 0.55972 0.28787
 C2439 C 0.28378 0.57330 0.28334
 C2440 C 0.28984 0.58556 0.28934
 C2441 C 0.28185 0.54722 0.28159
 C2442 C 0.27605 0.53726 0.27585
 H2443 H 0.31296 0.56964 0.31258
 H2444 H 0.30225 0.54800 0.30198
 H2445 H 0.27563 0.57441 0.27519
 H2446 H 0.28631 0.59599 0.28576
 C2447 C 0.31162 0.10741 0.81137
 C2448 C 0.30652 0.09678 0.80618
 C2449 C 0.30038 0.08410 0.80000
 C2450 C 0.30491 0.07054 0.80453
 C2451 C 0.29890 0.05823 0.79855
 C2452 C 0.28834 0.05944 0.78801
 C2453 C 0.28382 0.07299 0.78349
 C2454 C 0.28982 0.08528 0.78946
 C2455 C 0.28204 0.04690 0.78175
 C2456 C 0.27628 0.03691 0.77602
 H2457 H 0.31306 0.06951 0.81268
 H2458 H 0.30246 0.04781 0.80212
 H2459 H 0.27565 0.07404 0.77534
 H2460 H 0.28622 0.09570 0.78588
 C2461 C 0.81185 0.60756 0.81153
 C2462 C 0.80675 0.59692 0.80635
 C2463 C 0.80059 0.58426 0.80014
 C2464 C 0.80507 0.57068 0.80463
 C2465 C 0.79901 0.55839 0.79862
 C2466 C 0.78844 0.55965 0.78810
 C2467 C 0.78399 0.57323 0.78359
 C2468 C 0.79004 0.58550 0.78959
 C2469 C 0.78207 0.54714 0.78182
 C2470 C 0.77626 0.53717 0.77609
 H2471 H 0.81322 0.56959 0.81278
 H2472 H 0.80253 0.54795 0.80218
 H2473 H 0.77583 0.57434 0.77545
 H2474 H 0.78649 0.59593 0.78602
 C2475 C 0.81184 0.10734 0.31132
 C2476 C 0.80675 0.09669 0.30617
 C2477 C 0.80058 0.08403 0.29998
 C2478 C 0.79003 0.08528 0.28944
 C2479 C 0.78398 0.07301 0.28345
 C2480 C 0.78843 0.05944 0.28797
 C2481 C 0.79898 0.05818 0.29851
 C2482 C 0.80505 0.07046 0.30451
 C2483 C 0.78207 0.04694 0.28170
 C2484 C 0.77626 0.03697 0.27597
 H2485 H 0.78649 0.09571 0.28586
 H2486 H 0.77582 0.07411 0.27530
 H2487 H 0.80250 0.04773 0.30207
 H2488 H 0.81319 0.06938 0.31266
 C2489 C 0.68832 0.39242 0.31130
 C2490 C 0.69343 0.40306 0.30612
 C2491 C 0.69960 0.41571 0.29993
 C2492 C 0.71016 0.41446 0.28940
 C2493 C 0.71622 0.42672 0.28341
 C2494 C 0.71176 0.44030 0.28791
 C2495 C 0.70120 0.44157 0.29843
 C2496 C 0.69512 0.42929 0.30444
 C2497 C 0.71812 0.45280 0.28163
 C2498 C 0.72393 0.46276 0.27589
 H2499 H 0.71371 0.40403 0.28584
 H2500 H 0.72439 0.42562 0.27527
 H2501 H 0.69768 0.45201 0.30199
 H2502 H 0.68697 0.43037 0.31258
 C2503 C 0.68847 0.89240 0.81125
 C2504 C 0.69358 0.90305 0.80608
 C2505 C 0.69968 0.91579 0.80000
 C2506 C 0.71306 0.92065 0.80467
 C2507 C 0.71899 0.93306 0.79882
 C2508 C 0.71155 0.94069 0.78830
 C2509 C 0.69820 0.93580 0.78359
 C2510 C 0.69227 0.92339 0.78944
 C2511 C 0.71801 0.95303 0.78180
 C2512 C 0.72384 0.96294 0.77598
 H2513 H 0.71893 0.91482 0.81277
 H2514 H 0.72942 0.93662 0.80238
 H2515 H 0.69245 0.94150 0.77531
 H2516 H 0.68195 0.91969 0.78569
 C2517 C 0.18813 0.39230 0.81143
 C2518 C 0.19325 0.40293 0.80624
 C2519 C 0.19945 0.41559 0.80004
 C2520 C 0.19501 0.42917 0.80457
 C2521 C 0.20108 0.44145 0.79857
 C2522 C 0.21163 0.44018 0.78802
 C2523 C 0.21606 0.42660 0.78350
 C2524 C 0.20999 0.41434 0.78949
 C2525 C 0.21800 0.45268 0.78173
 C2526 C 0.22381 0.46264 0.77598
 H2527 H 0.18687 0.43025 0.81274
 H2528 H 0.19759 0.45189 0.80214
 H2529 H 0.22422 0.42550 0.77535
 H2530 H 0.21353 0.40391 0.78591
 C2531 C 0.18827 0.89246 0.31115
 C2532 C 0.19337 0.90312 0.30602
 C2533 C 0.19956 0.91577 0.29985
 C2534 C 0.21011 0.91452 0.28931
 C2535 C 0.21618 0.92677 0.28331
 C2536 C 0.21174 0.94035 0.28783
 C2537 C 0.20121 0.94163 0.29839
 C2538 C 0.19513 0.92935 0.30439
 C2539 C 0.21811 0.95284 0.28154
 C2540 C 0.22392 0.96279 0.27579
 H2541 H 0.21365 0.90409 0.28573
 H2542 H 0.22434 0.92567 0.27516
 H2543 H 0.19772 0.95207 0.30196
 H2544 H 0.18699 0.93044 0.31256
 C2545 C 0.39224 0.31162 0.68860
 C2546 C 0.40290 0.30654 0.69378
 C2547 C 0.41557 0.30043 0.70002
 C2548 C 0.42884 0.30190 0.69320
 C2549 C 0.44113 0.29586 0.69925
 C2550 C 0.44017 0.28835 0.71215
 C2551 C 0.42690 0.28688 0.71896
 C2552 C 0.41464 0.29291 0.71291
 C2553 C 0.45264 0.28187 0.71840
 C2554 C 0.46259 0.27600 0.72413
 H2555 H 0.42968 0.30767 0.68321
 H2556 H 0.45133 0.29700 0.69388
 H2557 H 0.42604 0.28103 0.72891
 H2558 H 0.40443 0.29168 0.71827
 C2559 C 0.39239 0.81193 0.18866
 C2560 C 0.40306 0.80684 0.19380
 C2561 C 0.41574 0.80062 0.19992
 C2562 C 0.42880 0.80794 0.19937
 C2563 C 0.44110 0.80183 0.20532
 C2564 C 0.44036 0.78837 0.21181
 C2565 C 0.42729 0.78106 0.21237
 C2566 C 0.41501 0.78717 0.20643
 C2567 C 0.45281 0.78205 0.21824
 C2568 C 0.46274 0.77624 0.22405
 H2569 H 0.42947 0.81836 0.19437
 H2570 H 0.45114 0.80758 0.20490
 H2571 H 0.42659 0.77068 0.21744
 H2572 H 0.40497 0.78142 0.20694
 C2573 C 0.89239 0.31194 0.18853
 C2574 C 0.90301 0.30682 0.19374
 C2575 C 0.91566 0.30063 0.19995
 C2576 C 0.92925 0.30514 0.19552
 C2577 C 0.94153 0.29906 0.20153
 C2578 C 0.94024 0.28844 0.21199
 C2579 C 0.92665 0.28393 0.21641
 C2580 C 0.91439 0.29001 0.21041
 C2581 C 0.95273 0.28206 0.21828
 C2582 C 0.96269 0.27624 0.22403
 H2583 H 0.93035 0.31334 0.18743
 H2584 H 0.95199 0.30260 0.19804
 H2585 H 0.92554 0.27572 0.22450
 H2586 H 0.90394 0.28642 0.21391
 C2587 C 0.89268 0.81210 0.68816
 C2588 C 0.90325 0.80692 0.69342
 C2589 C 0.91584 0.80069 0.69971
 C2590 C 0.91449 0.79010 0.71020
 C2591 C 0.92671 0.78402 0.71629
 C2592 C 0.94033 0.78848 0.71193
 C2593 C 0.94170 0.79906 0.70145
 C2594 C 0.92947 0.80515 0.69534
 C2595 C 0.95279 0.78209 0.71829
 C2596 C 0.96274 0.77628 0.72406
 H2597 H 0.90401 0.78655 0.71365
 H2598 H 0.92553 0.77583 0.72440
 H2599 H 0.95219 0.80257 0.69801
 H2600 H 0.93063 0.81332 0.68723
 C2601 C 0.60777 0.31179 0.31116
 C2602 C 0.59714 0.30664 0.30600
 C2603 C 0.58446 0.30039 0.29991
 C2604 C 0.58420 0.28580 0.29661
 C2605 C 0.57191 0.27968 0.29072
 C2606 C 0.55979 0.28812 0.28812
 C2607 C 0.56004 0.30273 0.29139
 C2608 C 0.57235 0.30885 0.29729
 C2609 C 0.54737 0.28177 0.28164
 C2610 C 0.53744 0.27596 0.27583
 H2611 H 0.59351 0.27916 0.29855
 H2612 H 0.57187 0.26840 0.28811
 H2613 H 0.55077 0.30937 0.28931
 H2614 H 0.57245 0.32016 0.29976
 C2615 C 0.60765 0.81197 0.81149
 C2616 C 0.59701 0.80686 0.80631
 C2617 C 0.58435 0.80068 0.80012
 C2618 C 0.57075 0.80521 0.80455
 C2619 C 0.55846 0.79912 0.79855
 C2620 C 0.55974 0.78849 0.78810
 C2621 C 0.57334 0.78399 0.78367
 C2622 C 0.58560 0.79006 0.78966
 C2623 C 0.54723 0.78212 0.78182
 C2624 C 0.53726 0.77630 0.77608
 H2625 H 0.56965 0.81341 0.81263
 H2626 H 0.54800 0.80269 0.80204
 H2627 H 0.57445 0.77577 0.77559
 H2628 H 0.59605 0.78647 0.78615
 C2629 C 0.10754 0.31171 0.81133
 C2630 C 0.09690 0.30658 0.80616
 C2631 C 0.08421 0.30036 0.80007
 C2632 C 0.08390 0.28576 0.79677
 C2633 C 0.07158 0.27969 0.79088
 C2634 C 0.05950 0.28818 0.78826
 C2635 C 0.05980 0.30278 0.79153
 C2636 C 0.07213 0.30886 0.79743
 C2637 C 0.04707 0.28188 0.78177
 C2638 C 0.03714 0.27610 0.77594
 H2639 H 0.09317 0.27909 0.79873
 H2640 H 0.07150 0.26841 0.78827
 H2641 H 0.05056 0.30946 0.78944
 H2642 H 0.07227 0.32017 0.79991
 C2643 C 0.10734 0.81211 0.31158
 C2644 C 0.09677 0.80692 0.30634
 C2645 C 0.08417 0.80066 0.30008
 C2646 C 0.07057 0.80414 0.30537
 C2647 C 0.05834 0.79804 0.29929
 C2648 C 0.05967 0.78843 0.28790
 C2649 C 0.07327 0.78494 0.28264
 C2650 C 0.08549 0.79104 0.28871
 C2651 C 0.04720 0.78202 0.28159
 C2652 C 0.03724 0.77619 0.27585
 H2653 H 0.06944 0.81155 0.31418
 H2654 H 0.04788 0.80078 0.30345
 H2655 H 0.07442 0.77749 0.27385
 H2656 H 0.09594 0.78823 0.28454
 C2657 C 0.60766 0.68829 0.68877
 C2658 C 0.59701 0.69339 0.69395
 C2659 C 0.58435 0.69958 0.70017
 C2660 C 0.58561 0.71017 0.71065
 C2661 C 0.57335 0.71625 0.71667
 C2662 C 0.55975 0.71179 0.71223
 C2663 C 0.55846 0.70119 0.70176
 C2664 C 0.57074 0.69509 0.69574
 C2665 C 0.54725 0.71818 0.71853
 C2666 C 0.53728 0.72401 0.72428
 H2667 H 0.59606 0.71372 0.71416
 H2668 H 0.57447 0.72445 0.72476
 H2669 H 0.54800 0.69766 0.69826
 H2670 H 0.56964 0.68691 0.68763
 C2671 C 0.60777 0.18794 0.18862
 C2672 C 0.59714 0.19306 0.19382
 C2673 C 0.58448 0.19925 0.20002
 C2674 C 0.58574 0.20986 0.21049
 C2675 C 0.57347 0.21593 0.21649
 C2676 C 0.55988 0.21144 0.21205
 C2677 C 0.55860 0.20084 0.20158
 C2678 C 0.57089 0.19476 0.19557
 C2679 C 0.54738 0.21781 0.21834
 C2680 C 0.53742 0.22363 0.22409
 H2681 H 0.59618 0.21343 0.21400
 H2682 H 0.57457 0.22413 0.22458
 H2683 H 0.54815 0.19730 0.19808
 H2684 H 0.56981 0.18657 0.18747
 C2685 C 0.10758 0.68824 0.18862
 C2686 C 0.09692 0.69334 0.19378
 C2687 C 0.08424 0.69956 0.19991
 C2688 C 0.08451 0.71367 0.20487
 C2689 C 0.07223 0.71976 0.21082
 C2690 C 0.05959 0.71178 0.21181
 C2691 C 0.05929 0.69765 0.20687
 C2692 C 0.07160 0.69156 0.20092
 C2693 C 0.04714 0.71808 0.21828
 C2694 C 0.03720 0.72388 0.22410
 H2695 H 0.09422 0.71995 0.20418
 H2696 H 0.07259 0.73066 0.21471
 H2697 H 0.04960 0.69137 0.20769
 H2698 H 0.07128 0.68062 0.19714
 C2699 C 0.10756 0.18807 0.68887
 C2700 C 0.09686 0.19314 0.69398
 C2701 C 0.08417 0.19933 0.70012
 C2702 C 0.07058 0.19498 0.69552
 C2703 C 0.05829 0.20109 0.70151
 C2704 C 0.05957 0.21157 0.71210
 C2705 C 0.07315 0.21592 0.71668
 C2706 C 0.08542 0.20981 0.71071
 C2707 C 0.04707 0.21797 0.71838
 C2708 C 0.03712 0.22380 0.72414
 H2709 H 0.06950 0.18688 0.68733
 H2710 H 0.04783 0.19767 0.69789
 H2711 H 0.07426 0.22402 0.72486
 H2712 H 0.09586 0.21328 0.71434
 C2713 C 0.39224 0.68822 0.31127
 C2714 C 0.40289 0.69333 0.30609
 C2715 C 0.41555 0.69950 0.29989
 C2716 C 0.41437 0.70865 0.28811
 C2717 C 0.42663 0.71473 0.28211
 C2718 C 0.44014 0.71169 0.28784
 C2719 C 0.44135 0.70254 0.29962
 C2720 C 0.42907 0.69645 0.30563
 C2721 C 0.45263 0.71813 0.28160
 C2722 C 0.46260 0.72397 0.27588
 H2723 H 0.40398 0.71110 0.28359
 H2724 H 0.42557 0.72183 0.27303
 H2725 H 0.45174 0.70015 0.30414
 H2726 H 0.43010 0.68940 0.31474
 C2727 C 0.39219 0.18801 0.81139
 C2728 C 0.40282 0.19315 0.80620
 C2729 C 0.41547 0.19937 0.80001
 C2730 C 0.42907 0.19487 0.80446
 C2731 C 0.44136 0.20096 0.79847
 C2732 C 0.44007 0.21158 0.78800
 C2733 C 0.42648 0.21607 0.78356
 C2734 C 0.41421 0.20999 0.78955
 C2735 C 0.45258 0.21795 0.78172
 C2736 C 0.46256 0.22376 0.77598
 H2737 H 0.43017 0.18667 0.81256
 H2738 H 0.45182 0.19741 0.80197
 H2739 H 0.42537 0.22429 0.77548
 H2740 H 0.40376 0.21357 0.78603
 C2741 C 0.89240 0.68831 0.81144
 C2742 C 0.90302 0.69344 0.80624
 C2743 C 0.91567 0.69963 0.80002
 C2744 C 0.92928 0.69515 0.80446
 C2745 C 0.94155 0.70124 0.79844
 C2746 C 0.94024 0.71183 0.78795
 C2747 C 0.92664 0.71629 0.78350
 C2748 C 0.91438 0.71020 0.78951
 C2749 C 0.95273 0.71822 0.78165
 C2750 C 0.96270 0.72404 0.77591
 H2751 H 0.93039 0.68697 0.81257
 H2752 H 0.95202 0.69772 0.80195
 H2753 H 0.92551 0.72448 0.77539
 H2754 H 0.90393 0.71375 0.78599
 C2755 C 0.89224 0.18819 0.31118
 C2756 C 0.90289 0.19330 0.30601
 C2757 C 0.91563 0.19939 0.29987
 C2758 C 0.91845 0.19773 0.28527
 C2759 C 0.93079 0.20370 0.27930
 C2760 C 0.94039 0.21132 0.28789
 C2761 C 0.93756 0.21301 0.30248
 C2762 C 0.92521 0.20704 0.30846
 C2763 C 0.95271 0.21798 0.28154
 C2764 C 0.96261 0.22392 0.27580
 H2765 H 0.91108 0.19190 0.27851
 H2766 H 0.93277 0.20248 0.26797
 H2767 H 0.94482 0.21904 0.30918
 H2768 H 0.92310 0.20845 0.31974
 C2769 C 0.31139 0.31147 0.60759
 C2770 C 0.30626 0.30632 0.59697
 C2771 C 0.30009 0.30013 0.58433
 C2772 C 0.28946 0.28966 0.58556
 C2773 C 0.28346 0.28364 0.57330
 C2774 C 0.28804 0.28804 0.55975
 C2775 C 0.29868 0.29850 0.55850
 C2776 C 0.30469 0.30454 0.57078
 C2777 C 0.28174 0.28171 0.54726
 C2778 C 0.27597 0.27593 0.53732
 H2779 H 0.28583 0.28617 0.59597
 H2780 H 0.27524 0.27555 0.57439
 H2781 H 0.30229 0.30197 0.54808
 H2782 H 0.31291 0.31262 0.56971
 C2783 C 0.31168 0.81170 0.10738
 C2784 C 0.30653 0.80653 0.09678
 C2785 C 0.30035 0.80032 0.08415
 C2786 C 0.30496 0.80470 0.07059
 C2787 C 0.29894 0.79865 0.05832
 C2788 C 0.28830 0.78820 0.05959
 C2789 C 0.28370 0.78383 0.07314
 C2790 C 0.28971 0.78987 0.08539
 C2791 C 0.28200 0.78186 0.04710
 C2792 C 0.27624 0.77608 0.03715
 H2793 H 0.31319 0.81277 0.06951
 H2794 H 0.30257 0.80210 0.04789
 H2795 H 0.27547 0.77575 0.07424
 H2796 H 0.28606 0.78640 0.09581
 C2797 C 0.81155 0.31172 0.10742
 C2798 C 0.80642 0.30659 0.09679
 C2799 C 0.80023 0.30040 0.08416
 C2800 C 0.78963 0.28991 0.08541
 C2801 C 0.78360 0.28388 0.07317
 C2802 C 0.78813 0.28830 0.05961
 C2803 C 0.79874 0.29879 0.05833
 C2804 C 0.80478 0.30483 0.07060
 C2805 C 0.78181 0.28197 0.04713
 C2806 C 0.77603 0.27618 0.03718
 H2807 H 0.78603 0.28640 0.09583
 H2808 H 0.77540 0.27577 0.07428
 H2809 H 0.80232 0.30227 0.04790
 H2810 H 0.81297 0.31293 0.06951
 C2811 C 0.81186 0.81183 0.60735
 C2812 C 0.80667 0.80664 0.59677
 C2813 C 0.80042 0.80042 0.58418
 C2814 C 0.78987 0.78988 0.58550
 C2815 C 0.78377 0.78384 0.57329
 C2816 C 0.78819 0.78829 0.55970
 C2817 C 0.79874 0.79883 0.55837
 C2818 C 0.80484 0.80488 0.57060
 C2819 C 0.78182 0.78196 0.54725
 C2820 C 0.77602 0.77618 0.53731
 H2821 H 0.78636 0.78634 0.59594
 H2822 H 0.77562 0.77569 0.57444
 H2823 H 0.80223 0.80235 0.54792
 H2824 H 0.81299 0.81303 0.56946
 C2825 C 0.31135 0.68844 0.39231
 C2826 C 0.30622 0.69359 0.40294
 C2827 C 0.30007 0.69979 0.41560
 C2828 C 0.30465 0.69536 0.42915
 C2829 C 0.29865 0.70142 0.44143
 C2830 C 0.28804 0.71192 0.44019
 C2831 C 0.28346 0.71635 0.42664
 C2832 C 0.28946 0.71030 0.41438
 C2833 C 0.28174 0.71826 0.45269
 C2834 C 0.27599 0.72406 0.46264
 H2835 H 0.31285 0.68724 0.43020
 H2836 H 0.30226 0.69793 0.45185
 H2837 H 0.27526 0.72447 0.42557
 H2838 H 0.28583 0.71382 0.40397
 C2839 C 0.31127 0.18818 0.89252
 C2840 C 0.30616 0.19333 0.90316
 C2841 C 0.30008 0.19956 0.91584
 C2842 C 0.29984 0.19183 0.92866
 C2843 C 0.29390 0.19791 0.94096
 C2844 C 0.28820 0.21175 0.94048
 C2845 C 0.28843 0.21946 0.92765
 C2846 C 0.29436 0.21339 0.91537
 C2847 C 0.28175 0.21803 0.95293
 C2848 C 0.27592 0.22379 0.96286
 H2849 H 0.30420 0.18111 0.92913
 H2850 H 0.29368 0.19182 0.95080
 H2851 H 0.28396 0.23014 0.92714
 H2852 H 0.29446 0.21946 0.90552
 C2853 C 0.81149 0.68844 0.89250
 C2854 C 0.80637 0.69359 0.90314
 C2855 C 0.80027 0.69980 0.91582
 C2856 C 0.79448 0.71360 0.91534
 C2857 C 0.78853 0.71965 0.92762
 C2858 C 0.78836 0.71195 0.94045
 C2859 C 0.79413 0.69814 0.94095
 C2860 C 0.80009 0.69208 0.92864
 C2861 C 0.78189 0.71821 0.95290
 C2862 C 0.77606 0.72396 0.96284
 H2863 H 0.79453 0.71966 0.90548
 H2864 H 0.78401 0.73031 0.92710
 H2865 H 0.79396 0.69206 0.95079
 H2866 H 0.80451 0.68138 0.92912
 C2867 C 0.81141 0.18816 0.39232
 C2868 C 0.80630 0.19331 0.40296
 C2869 C 0.80021 0.19952 0.41564
 C2870 C 0.80009 0.19183 0.42849
 C2871 C 0.79414 0.19790 0.44079
 C2872 C 0.78831 0.21168 0.44028
 C2873 C 0.78843 0.21936 0.42744
 C2874 C 0.79437 0.21330 0.41515
 C2875 C 0.78186 0.21795 0.45274
 C2876 C 0.77602 0.22371 0.46267
 H2877 H 0.80455 0.18115 0.42897
 H2878 H 0.79402 0.19184 0.45065
 H2879 H 0.78387 0.23000 0.42691
 H2880 H 0.79437 0.21934 0.40528
 C2881 C 0.68862 0.31152 0.39232
 C2882 C 0.69375 0.30637 0.40296
 C2883 C 0.69991 0.30018 0.41561
 C2884 C 0.71055 0.28970 0.41440
 C2885 C 0.71655 0.28366 0.42666
 C2886 C 0.71194 0.28806 0.44021
 C2887 C 0.70130 0.29853 0.44144
 C2888 C 0.69529 0.30458 0.42916
 C2889 C 0.71823 0.28172 0.45271
 C2890 C 0.72399 0.27592 0.46267
 H2891 H 0.71421 0.28621 0.40399
 H2892 H 0.72477 0.27556 0.42559
 H2893 H 0.69766 0.30199 0.45186
 H2894 H 0.68706 0.31267 0.43021
 C2895 C 0.68857 0.81174 0.89251
 C2896 C 0.69370 0.80659 0.90314
 C2897 C 0.69987 0.80040 0.91580
 C2898 C 0.71052 0.78993 0.91457
 C2899 C 0.71653 0.78390 0.92683
 C2900 C 0.71194 0.78829 0.94038
 C2901 C 0.70129 0.79875 0.94163
 C2902 C 0.69526 0.80480 0.92935
 C2903 C 0.71825 0.78196 0.95287
 C2904 C 0.72402 0.77617 0.96282
 H2905 H 0.71417 0.78644 0.90416
 H2906 H 0.72476 0.77580 0.92575
 H2907 H 0.69766 0.80222 0.95205
 H2908 H 0.68703 0.81288 0.93041
 C2909 C 0.18834 0.31147 0.89257
 C2910 C 0.19348 0.30634 0.90321
 C2911 C 0.19967 0.30017 0.91586
 C2912 C 0.19510 0.30460 0.92941
 C2913 C 0.20114 0.29857 0.94169
 C2914 C 0.21177 0.28809 0.94043
 C2915 C 0.21633 0.28366 0.92688
 C2916 C 0.21030 0.28968 0.91463
 C2917 C 0.21810 0.28177 0.95292
 C2918 C 0.22389 0.27599 0.96287
 H2919 H 0.18688 0.31270 0.93048
 H2920 H 0.19755 0.30206 0.95211
 H2921 H 0.22455 0.27556 0.92580
 H2922 H 0.21392 0.28617 0.90422
 C2923 C 0.18815 0.81186 0.39246
 C2924 C 0.19334 0.80668 0.40305
 C2925 C 0.19958 0.80048 0.41566
 C2926 C 0.21014 0.78993 0.41437
 C2927 C 0.21623 0.78389 0.42660
 C2928 C 0.21179 0.78836 0.44018
 C2929 C 0.20123 0.79891 0.44148
 C2930 C 0.19514 0.80496 0.42923
 C2931 C 0.21814 0.78202 0.45265
 C2932 C 0.22392 0.77623 0.46261
 H2933 H 0.21367 0.78638 0.40394
 H2934 H 0.22439 0.77573 0.42547
 H2935 H 0.19773 0.80245 0.45192
 H2936 H 0.18699 0.81312 0.43034
 C2937 C 0.68866 0.68852 0.60776
 C2938 C 0.69377 0.69368 0.59712
 C2939 C 0.69983 0.69989 0.58442
 C2940 C 0.70294 0.69127 0.57258
 C2941 C 0.70883 0.69733 0.56024
 C2942 C 0.71162 0.71202 0.55971
 C2943 C 0.70854 0.72062 0.57157
 C2944 C 0.70264 0.71458 0.58388
 C2945 C 0.71814 0.71831 0.54730
 C2946 C 0.72399 0.72407 0.53737
 H2947 H 0.70085 0.67989 0.57290
 H2948 H 0.71130 0.69056 0.55119
 H2949 H 0.71078 0.73198 0.57131
 H2950 H 0.70034 0.72134 0.59298
 C2951 C 0.68867 0.18828 0.10750
 C2952 C 0.69379 0.19345 0.09688
 C2953 C 0.69996 0.19968 0.08424
 C2954 C 0.69554 0.19513 0.07068
 C2955 C 0.70156 0.20121 0.05842
 C2956 C 0.71200 0.21186 0.05968
 C2957 C 0.71640 0.21640 0.07324
 C2958 C 0.71040 0.21032 0.08549
 C2959 C 0.71830 0.21821 0.04720
 C2960 C 0.72406 0.22401 0.03724
 H2961 H 0.68747 0.18690 0.06960
 H2962 H 0.69808 0.19763 0.04798
 H2963 H 0.72448 0.22463 0.07435
 H2964 H 0.71389 0.21393 0.09591
 C2965 C 0.18850 0.68852 0.10748
 C2966 C 0.19366 0.69368 0.09687
 C2967 C 0.19986 0.69987 0.08423
 C2968 C 0.20975 0.71103 0.08546
 C2969 C 0.21578 0.71707 0.07321
 C2970 C 0.21196 0.71198 0.05967
 C2971 C 0.20208 0.70081 0.05842
 C2972 C 0.19603 0.69477 0.07069
 C2973 C 0.21832 0.71829 0.04718
 C2974 C 0.22412 0.72406 0.03723
 H2975 H 0.21280 0.71506 0.09586
 H2976 H 0.22343 0.72570 0.07429
 H2977 H 0.19906 0.69679 0.04801
 H2978 H 0.18840 0.68613 0.06963
 C2979 C 0.18825 0.18798 0.60742
 C2980 C 0.19345 0.19320 0.59686
 C2981 C 0.19967 0.19948 0.58427
 C2982 C 0.19546 0.19481 0.57069
 C2983 C 0.20151 0.20092 0.55846
 C2984 C 0.21178 0.21172 0.55978
 C2985 C 0.21598 0.21638 0.57336
 C2986 C 0.20994 0.21028 0.58557
 C2987 C 0.21813 0.21808 0.54732
 C2988 C 0.22390 0.22387 0.53737
 H2989 H 0.18751 0.18646 0.56956
 H2990 H 0.19819 0.19724 0.54801
 H2991 H 0.22393 0.22473 0.57450
 H2992 H 0.21328 0.21398 0.59601
   
