data_POSCAR
  _audit_creation_date              2014-09-24
  _audit_creation_method            'ToBaCCo'
  _symmetry_space_group_name_H-M    'P1'
  _symmetry_Int_Tables_number       1
  _symmetry_cell_setting            triclinic
  loop_
  _symmetry_equiv_pos_as_xyz
 x,y,z
_cell_length_a 70.0860
_cell_length_b 70.6598
_cell_length_c 69.9706
_cell_angle_alpha 90.494300
_cell_angle_beta 90.176700
_cell_angle_gamma 90.301700
loop_
  _atom_site_label
  _atom_site_type_symbol
  _atom_site_fract_x
  _atom_site_fract_y
  _atom_site_fract_z
C1 C 0.72461 0.66623 0.97886
 H2 H 0.73932 0.67016 0.97645
 C3 C 0.71013 0.67440 0.96786
 H4 H 0.71382 0.68463 0.95703
 C5 C 0.70196 0.64711 0.99486
 H6 H 0.69877 0.63589 1.00472
 C7 C 0.68715 0.65491 0.98431
 H8 H 0.67270 0.65002 0.98677
 N9 N 0.72032 0.65269 0.99192
 C10 C 0.76099 0.65608 1.03402
 H11 H 0.75044 0.64992 1.04325
 C12 C 0.77692 0.66476 1.04226
 H13 H 0.77799 0.66551 1.05769
 C14 C 0.77277 0.66211 1.00299
 H15 H 0.77138 0.66042 0.98767
 C16 C 0.78918 0.67070 1.01068
 H17 H 0.80024 0.67561 1.00114
 Zn18 Zn 0.73987 0.63864 1.00412
 N19 N 0.75931 0.65455 1.01470
 C20 C 0.76914 0.61617 0.98804
 N21 N 0.75108 0.62264 0.98552
 C22 C 0.74098 0.61848 0.96939
 C23 C 0.74920 0.60779 0.95476
 C24 C 0.77798 0.60553 0.97367
 C25 C 0.71821 0.63253 1.03730
 C26 C 0.70993 0.62229 1.05208
 C27 C 0.72354 0.59385 1.03869
 C28 C 0.73156 0.60473 1.02416
 N29 N 0.72890 0.62373 1.02378
 H30 H 0.77685 0.61965 1.00103
 H31 H 0.72656 0.62358 0.96779
 H32 H 0.74085 0.60460 0.94209
 H33 H 0.79259 0.60105 0.97568
 H34 H 0.71626 0.64770 1.03668
 H35 H 0.70256 0.63046 1.06283
 H36 H 0.72555 0.57874 1.03764
 H37 H 0.73985 0.59793 1.01308
 C38 C 0.79165 0.67157 1.03061
 C39 C 0.69115 0.66837 0.97024
 C40 C 0.71240 0.60243 1.05328
 C41 C 0.76806 0.60141 0.95662
 C42 C 0.74219 0.34662 0.52176
 H43 H 0.75630 0.34454 0.52766
 C44 C 0.72631 0.33828 0.53052
 H45 H 0.72832 0.32977 0.54315
 C46 C 0.72222 0.36142 0.49904
 H47 H 0.72043 0.37099 0.48727
 C48 C 0.70609 0.35334 0.50722
 H49 H 0.69221 0.35639 0.50118
 N50 N 0.73985 0.35815 0.50646
 C51 C 0.79521 0.36700 0.47939
 H52 H 0.79467 0.38229 0.47896
 C53 C 0.81098 0.35755 0.47209
 H54 H 0.82253 0.36568 0.46590
 C55 C 0.78059 0.33793 0.48785
 H56 H 0.76866 0.33042 0.49402
 C57 C 0.79612 0.32783 0.48047
 H58 H 0.79617 0.31252 0.48114
 Zn59 Zn 0.76082 0.37248 0.49720
 N60 N 0.78061 0.35718 0.48742
 C61 C 0.78851 0.38543 0.52400
 N62 N 0.77018 0.38737 0.51792
 C63 C 0.75792 0.39921 0.52708
 C64 C 0.76408 0.40998 0.54280
 C65 C 0.79528 0.39597 0.53957
 C66 C 0.74601 0.37882 0.46094
 C67 C 0.73821 0.38899 0.44586
 C68 C 0.74561 0.41798 0.46297
 C69 C 0.75299 0.40721 0.47792
 N70 N 0.75259 0.38797 0.47684
 H71 H 0.79790 0.37551 0.51701
 H72 H 0.74331 0.40025 0.52216
 H73 H 0.75420 0.41949 0.54978
 H74 H 0.80986 0.39405 0.54431
 H75 H 0.74620 0.36351 0.46032
 H76 H 0.73245 0.38148 0.43356
 H77 H 0.74548 0.43327 0.46419
 H78 H 0.75872 0.41423 0.49048
 C79 C 0.81169 0.33774 0.47275
 C80 C 0.70792 0.34202 0.52350
 C81 C 0.73769 0.40880 0.44693
 C82 C 0.78303 0.40846 0.54918
 C83 C 0.23639 -0.15534 0.01993
 H84 H 0.25105 -0.15483 0.02482
 C85 C 0.22293 -0.16620 0.02976
 H86 H 0.22735 -0.17425 0.04209
 C87 C 0.21261 -0.14484 -0.00160
 H88 H 0.20842 -0.13604 -0.01340
 C89 C 0.19879 -0.15564 0.00763
 H90 H 0.18413 -0.15503 0.00274
 N91 N 0.23100 -0.14482 0.00466
 C92 C 0.28048 -0.13047 -0.02988
 H93 H 0.27857 -0.11530 -0.03018
 C94 C 0.29510 -0.13877 -0.04041
 H95 H 0.30456 -0.12983 -0.04861
 C96 C 0.27046 -0.16045 -0.01859
 H97 H 0.26066 -0.16880 -0.01021
 C98 C 0.28503 -0.16937 -0.02886
 H99 H 0.28634 -0.18462 -0.02835
 Zn100 Zn 0.24900 -0.12809 -0.00635
 N101 N 0.26857 -0.14131 -0.01922
 C102 C 0.27874 -0.11331 0.01688
 N103 N 0.25959 -0.11319 0.01368
 C104 C 0.24762 -0.10344 0.02539
 C105 C 0.25486 -0.09309 0.04093
 C106 C 0.28657 -0.10316 0.03222
 C107 C 0.23068 -0.12170 -0.04092
 C108 C 0.22155 -0.11164 -0.05531
 C109 C 0.22590 -0.08309 -0.03660
 C110 C 0.23491 -0.09381 -0.02253
 N111 N 0.23687 -0.11279 -0.02480
 H112 H 0.28799 -0.12155 0.00778
 H113 H 0.23241 -0.10384 0.02271
 H114 H 0.24513 -0.08528 0.05000
 H115 H 0.30181 -0.10373 0.03469
 H116 H 0.23292 -0.13676 -0.04260
 H117 H 0.21777 -0.11955 -0.06805
 H118 H 0.22393 -0.06825 -0.03343
 H119 H 0.24016 -0.08691 -0.00970
 C120 C 0.29750 -0.15847 -0.04003
 C121 C 0.20382 -0.16630 0.02368
 C122 C 0.21871 -0.09184 -0.05351
 C123 C 0.27459 -0.09289 0.04451
 C124 C 0.23206 0.15635 0.47329
 H125 H 0.24652 0.15710 0.46797
 C126 C 0.21716 0.16451 0.46288
 H127 H 0.22028 0.17157 0.44957
 C128 C 0.21020 0.14489 0.49628
 H129 H 0.20735 0.13678 0.50894
 C130 C 0.19498 0.15287 0.48642
 H131 H 0.18067 0.15112 0.49195
 N132 N 0.22829 0.14645 0.48946
 C133 C 0.27952 0.13732 0.52347
 H134 H 0.27801 0.12216 0.52497
 C135 C 0.29420 0.14685 0.53299
 H136 H 0.30410 0.13887 0.54164
 C137 C 0.26849 0.16598 0.51007
 H138 H 0.25831 0.17331 0.50122
 C139 C 0.28316 0.17611 0.51927
 H140 H 0.28418 0.19129 0.51747
 Zn141 Zn 0.24780 0.13181 0.50080
 N142 N 0.26708 0.14690 0.51226
 C143 C 0.27760 0.11751 0.47774
 N144 N 0.25855 0.11651 0.48130
 C145 C 0.24678 0.10558 0.47028
 C146 C 0.25412 0.09495 0.45508
 C147 C 0.28553 0.10710 0.46275
 C148 C 0.23179 0.12620 0.53658
 C149 C 0.22352 0.11645 0.55171
 C150 C 0.22704 0.08735 0.53371
 C151 C 0.23531 0.09769 0.51890
 N152 N 0.23723 0.11681 0.52048
 H153 H 0.28667 0.12663 0.48629
 H154 H 0.23163 0.10529 0.47321
 H155 H 0.24456 0.08623 0.44654
 H156 H 0.30067 0.10838 0.45997
 H157 H 0.23375 0.14138 0.53757
 H158 H 0.21937 0.12424 0.56441
 H159 H 0.22518 0.07221 0.53201
 H160 H 0.24000 0.09044 0.50611
 C161 C 0.29617 0.16650 0.53098
 C162 C 0.19827 0.16233 0.46918
 C163 C 0.22085 0.09678 0.55033
 C164 C 0.27376 0.09565 0.45114
 C165 C 0.15745 0.47870 0.23361
 H166 H 0.15840 0.47311 0.24793
 C167 C 0.16618 0.46912 0.21841
 H168 H 0.17384 0.45616 0.22115
 C169 C 0.14495 0.50151 0.21242
 H170 H 0.13613 0.51369 0.20990
 C171 C 0.15352 0.49252 0.19691
 H172 H 0.15160 0.49832 0.18277
 N173 N 0.14681 0.49440 0.23033
 C174 C 0.13641 0.52366 0.28435
 H175 H 0.12111 0.52493 0.28276
 C176 C 0.14534 0.53063 0.30074
 H177 H 0.13684 0.53745 0.31169
 C178 C 0.16596 0.51304 0.27195
 H179 H 0.17383 0.50603 0.26069
 C180 C 0.17557 0.52000 0.28817
 H181 H 0.19086 0.51821 0.28942
 Zn182 Zn 0.13178 0.50455 0.25039
 N183 N 0.14666 0.51466 0.27060
 C184 C 0.11820 0.47923 0.27838
 N185 N 0.11644 0.48452 0.25981
 C186 C 0.10469 0.47495 0.24755
 C187 C 0.09389 0.45956 0.25394
 C188 C 0.10765 0.46402 0.28536
 C189 C 0.12594 0.54016 0.23480
 C190 C 0.11586 0.55535 0.22727
 C191 C 0.08646 0.53875 0.23406
 C192 C 0.09715 0.52373 0.24122
 N193 N 0.11654 0.52457 0.24115
 H194 H 0.12806 0.48652 0.28779
 H195 H 0.10382 0.47922 0.23276
 H196 H 0.08449 0.45220 0.24404
 H197 H 0.10951 0.45989 0.30011
 H198 H 0.14137 0.54056 0.23519
 H199 H 0.12377 0.56721 0.22158
 H200 H 0.07105 0.53785 0.23438
 H201 H 0.08993 0.51146 0.24687
 C202 C 0.16510 0.52853 0.30298
 C203 C 0.16383 0.47578 0.19968
 C204 C 0.09581 0.55478 0.22672
 C205 C 0.09528 0.45396 0.27311
 C206 C -0.15964 0.01855 0.23395
 H207 H -0.15876 0.02479 0.24811
 C208 C -0.17031 0.02742 0.21972
 H209 H -0.17809 0.04006 0.22357
 C210 C -0.15037 -0.00551 0.21225
 H211 H -0.14197 -0.01790 0.20911
 C212 C -0.16107 0.00266 0.19769
 H213 H -0.16027 -0.00377 0.18364
 N214 N -0.14965 0.00261 0.22990
 C215 C -0.13350 -0.02520 0.28280
 H216 H -0.11823 -0.02550 0.28058
 C217 C -0.14126 -0.03308 0.29922
 H218 H -0.13186 -0.03960 0.30954
 C219 C -0.16423 -0.01654 0.27177
 H220 H -0.17305 -0.01004 0.26099
 C221 C -0.17265 -0.02439 0.28803
 H222 H -0.18798 -0.02373 0.28976
 Zn223 Zn -0.13226 -0.00629 0.24847
 N224 N -0.14494 -0.01688 0.26965
 C225 C -0.11771 0.02036 0.27527
 N226 N -0.11739 0.01479 0.25661
 C227 C -0.10770 0.02495 0.24332
 C228 C -0.09760 0.04128 0.24867
 C229 C -0.10791 0.03661 0.28121
 C230 C -0.12561 -0.04228 0.23357
 C231 C -0.11542 -0.05711 0.22527
 C232 C -0.08707 -0.03753 0.22631
 C233 C -0.09783 -0.02306 0.23464
 N234 N -0.11682 -0.02556 0.23776
 H235 H -0.12586 0.01246 0.28557
 H236 H -0.10807 0.02050 0.22849
 H237 H -0.09018 0.04933 0.23787
 H238 H -0.10828 0.04074 0.29614
 H239 H -0.14066 -0.04401 0.23653
 H240 H -0.12273 -0.07031 0.22207
 H241 H -0.07209 -0.03511 0.22346
 H242 H -0.09099 -0.00981 0.23842
 C243 C -0.16106 -0.03257 0.30211
 C244 C -0.17090 0.01978 0.20100
 C245 C -0.09592 -0.05479 0.22133
 C246 C -0.09775 0.04736 0.26783
 C247 C 0.34011 0.51744 0.74231
 H248 H 0.34048 0.52303 0.75675
 C249 C 0.32935 0.52653 0.72831
 H250 H 0.32117 0.53895 0.73214
 C251 C 0.35120 0.49509 0.71953
 H252 H 0.36031 0.48333 0.71594
 C253 C 0.34055 0.50364 0.70514
 H254 H 0.34158 0.49824 0.69065
 N255 N 0.35101 0.50223 0.73764
 C256 C 0.36807 0.47444 0.79031
 H257 H 0.38332 0.47454 0.78799
 C258 C 0.36060 0.46622 0.80670
 H259 H 0.37023 0.45984 0.81688
 C260 C 0.33705 0.48235 0.77950
 H261 H 0.32799 0.48864 0.76879
 C262 C 0.32893 0.47417 0.79574
 H263 H 0.31359 0.47442 0.79754
 Zn264 Zn 0.36862 0.49343 0.75601
 N265 N 0.35633 0.48253 0.77726
 C266 C 0.38302 0.52039 0.78267
 N267 N 0.38322 0.51471 0.76404
 C268 C 0.39251 0.52498 0.75056
 C269 C 0.40227 0.54157 0.75565
 C270 C 0.39250 0.53691 0.78836
 C271 C 0.37563 0.45776 0.74054
 C272 C 0.38605 0.44307 0.73227
 C273 C 0.41422 0.46290 0.73379
 C274 C 0.40326 0.47720 0.74215
 N275 N 0.38426 0.47449 0.74507
 H276 H 0.37516 0.51236 0.79311
 H277 H 0.39204 0.52042 0.73576
 H278 H 0.40933 0.54972 0.74468
 H279 H 0.39221 0.54116 0.80326
 H280 H 0.36054 0.45593 0.74320
 H281 H 0.37882 0.43001 0.72839
 H282 H 0.42932 0.46527 0.73153
 H283 H 0.40996 0.49042 0.74625
 C284 C 0.34081 0.46616 0.80969
 C285 C 0.32981 0.51985 0.70935
 C286 C 0.40558 0.44559 0.72867
 C287 C 0.40220 0.54780 0.77476
 C288 C 0.65562 0.97669 0.72918
 H289 H 0.65426 0.97203 0.74381
 C290 C 0.66609 0.96593 0.71608
 H291 H 0.67302 0.95311 0.72077
 C292 C 0.64758 0.99865 0.70509
 H293 H 0.63987 1.01105 0.70065
 C294 C 0.65801 0.98844 0.69160
 H295 H 0.65821 0.99318 0.67692
 N296 N 0.64648 0.99262 0.72346
 C297 C 0.63331 1.02906 0.77192
 H298 H 0.61828 1.03097 0.76896
 C299 C 0.64186 1.03888 0.78703
 H300 H 0.63282 1.04776 0.79576
 C301 C 0.66246 1.01410 0.76432
 H302 H 0.67045 1.00460 0.75522
 C303 C 0.67162 1.02347 0.77951
 H304 H 0.68675 1.02118 0.78143
 Zn305 Zn 0.62997 1.00496 0.74086
 N306 N 0.64360 1.01693 0.76097
 C307 C 0.61268 0.98375 0.77023
 N308 N 0.61338 0.98639 0.75101
 C309 C 0.60342 0.97498 0.73877
 C310 C 0.59221 0.96018 0.74576
 C311 C 0.60164 0.96917 0.77782
 C312 C 0.62630 1.03970 0.72293
 C313 C 0.61720 1.05489 0.71426
 C314 C 0.58731 1.03786 0.71657
 C315 C 0.59700 1.02300 0.72533
 N316 N 0.61618 1.02415 0.72821
 H317 H 0.62103 0.99265 0.77973
 H318 H 0.60446 0.97722 0.72353
 H319 H 0.58437 0.95124 0.73580
 H320 H 0.60167 0.96705 0.79313
 H321 H 0.64151 1.04031 0.72558
 H322 H 0.62555 1.06709 0.71003
 H323 H 0.57202 1.03685 0.71455
 H324 H 0.58916 1.01068 0.72997
 C325 C 0.66138 1.03626 0.79122
 C326 C 0.66720 0.97170 0.69695
 C327 C 0.59744 1.05412 0.71102
 C328 C 0.59132 0.95706 0.76554
 C329 C 0.02175 0.23925 -0.15743
 H330 H 0.02836 0.25296 -0.15545
 C331 C 0.03096 0.22548 -0.16839
 H332 H 0.04455 0.22881 -0.17489
 C333 C -0.00373 0.21810 -0.15106
 H334 H -0.01717 0.21520 -0.14414
 C335 C 0.00497 0.20392 -0.16192
 H336 H -0.00177 0.19012 -0.16294
 N337 N 0.00504 0.23516 -0.14849
 C338 C -0.02022 0.28870 -0.13102
 H339 H -0.01710 0.28818 -0.11588
 C340 C -0.02967 0.30426 -0.13853
 H341 H -0.03361 0.31583 -0.12912
 C342 C -0.01903 0.27404 -0.16160
 H343 H -0.01507 0.26204 -0.17041
 C344 C -0.02837 0.28947 -0.16978
 H345 H -0.03161 0.28926 -0.18492
 Zn346 Zn -0.00468 0.25265 -0.13028
 N347 N -0.01549 0.27383 -0.14248
 C348 C 0.02707 0.27534 -0.12231
 N349 N 0.01584 0.26154 -0.11478
 C350 C 0.01947 0.25446 -0.09712
 C351 C 0.03526 0.26085 -0.08660
 C352 C 0.04290 0.28220 -0.11226
 C353 C -0.01987 0.22428 -0.10590
 C354 C -0.03405 0.21489 -0.09558
 C355 C -0.05619 0.23923 -0.10468
 C356 C -0.04161 0.24801 -0.11485
 N357 N -0.02381 0.24056 -0.11528
 H358 H 0.02372 0.28103 -0.13621
 H359 H 0.01034 0.24369 -0.09121
 H360 H 0.03818 0.25465 -0.07281
 H361 H 0.05152 0.29328 -0.11852
 H362 H -0.00576 0.21821 -0.10692
 H363 H -0.03012 0.20155 -0.08935
 H364 H -0.06962 0.24661 -0.10422
 H365 H -0.04469 0.26085 -0.12247
 C366 C -0.03414 0.30464 -0.15809
 C367 C 0.02284 0.20734 -0.17027
 C368 C -0.05290 0.22211 -0.09479
 C369 C 0.04733 0.27480 -0.09423
 C370 C 0.48280 0.23104 0.16214
 H371 H 0.47627 0.24487 0.16273
 C372 C 0.47373 0.21558 0.17068
 H373 H 0.46021 0.21766 0.17781
 C374 C 0.50748 0.21124 0.15063
 H375 H 0.52028 0.20937 0.14233
 C376 C 0.49904 0.19551 0.15906
 H377 H 0.50579 0.18184 0.15748
 N378 N 0.49912 0.22852 0.15196
 C379 C 0.52937 0.28117 0.14067
 H380 H 0.52966 0.27995 0.12525
 C381 C 0.53910 0.29593 0.14976
 H382 H 0.54670 0.30619 0.14120
 C383 C 0.51897 0.26919 0.17045
 H384 H 0.51124 0.25856 0.17837
 C385 C 0.52843 0.28392 0.18018
 H386 H 0.52797 0.28457 0.19563
 Zn387 Zn 0.50828 0.24846 0.13650
 N388 N 0.51961 0.26817 0.15103
 C389 C 0.48245 0.27652 0.12414
 N390 N 0.48723 0.25794 0.12257
 C391 C 0.47642 0.24562 0.11207
 C392 C 0.46023 0.25193 0.10236
 C393 C 0.46635 0.28340 0.11476
 C394 C 0.54452 0.23501 0.12799
 C395 C 0.55935 0.22779 0.11694
 C396 C 0.53895 0.22959 0.08913
 C397 C 0.52450 0.23691 0.10073
 N398 N 0.52742 0.23916 0.11985
 H399 H 0.49096 0.28603 0.13285
 H400 H 0.48028 0.23082 0.11142
 H401 H 0.45168 0.24189 0.09423
 H402 H 0.46288 0.29827 0.11606
 H403 H 0.54651 0.23711 0.14321
 H404 H 0.57269 0.22416 0.12381
 H405 H 0.53640 0.22780 0.07395
 H406 H 0.51097 0.24066 0.09443
 C407 C 0.53882 0.29740 0.16976
 C408 C 0.48158 0.19741 0.16866
 C409 C 0.55662 0.22485 0.09726
 C410 C 0.45498 0.27104 0.10373
 C411 C 0.97465 0.73443 0.66392
 H412 H 0.96964 0.74886 0.66307
 C413 C 0.96451 0.72115 0.67461
 H414 H 0.95180 0.72548 0.68220
 C415 C 0.99689 0.71105 0.65440
 H416 H 1.00914 0.70698 0.64605
 C417 C 0.98731 0.69739 0.66503
 H418 H 0.99237 0.68293 0.66471
 N419 N 0.99041 0.72915 0.65394
 C420 C 1.02482 0.77853 0.64015
 H421 H 1.02590 0.77614 0.62490
 C422 C 1.03471 0.79353 0.64867
 H423 H 1.04320 0.80281 0.63982
 C424 C 1.01218 0.76934 0.67008
 H425 H 1.00353 0.75973 0.67834
 C426 C 1.02178 0.78433 0.67922
 H427 H 1.02046 0.78615 0.69454
 Zn428 Zn 1.00182 0.74684 0.63729
 N429 N 1.01379 0.76686 0.65085
 C430 C 0.97909 0.77550 0.62103
 N431 N 0.98236 0.75655 0.62138
 C432 C 0.97123 0.74423 0.61123
 C433 C 0.95629 0.75088 0.59990
 C434 C 0.96435 0.78275 0.60990
 C435 C 1.03717 0.72995 0.63214
 C436 C 1.05242 0.72186 0.62234
 C437 C 1.03431 0.72427 0.59302
 C438 C 1.01943 0.73246 0.60339
 N439 N 1.02106 0.73499 0.62262
 H440 H 0.98771 0.78505 0.62958
 H441 H 0.97395 0.72919 0.61202
 H442 H 0.94772 0.74089 0.59175
 H443 H 0.96182 0.79786 0.61005
 H444 H 1.03816 0.73233 0.64741
 H445 H 1.06506 0.71780 0.63021
 H446 H 1.03289 0.72250 0.57770
 H447 H 1.00670 0.73695 0.59601
 C448 C 1.03329 0.79658 0.66846
 C449 C 0.97073 0.70229 0.67507
 C450 C 1.05111 0.71894 0.60252
 C451 C 0.95271 0.77041 0.59913
 C452 C 0.51739 0.73391 0.34492
 H453 H 0.52340 0.74796 0.34351
 C454 C 0.52627 0.71845 0.33605
 H455 H 0.53910 0.72074 0.32780
 C456 C 0.49440 0.71362 0.35884
 H457 H 0.48252 0.71148 0.36833
 C458 C 0.50265 0.69790 0.35012
 H459 H 0.49652 0.68404 0.35260
 N460 N 0.50200 0.73118 0.35642
 C461 C 0.47526 0.78534 0.36944
 H462 H 0.47529 0.78375 0.38480
 C463 C 0.46780 0.80161 0.36137
 H464 H 0.46155 0.81195 0.37093
 C465 C 0.48259 0.77280 0.33889
 H466 H 0.48856 0.76153 0.33028
 C467 C 0.47500 0.78887 0.33008
 H468 H 0.47573 0.78973 0.31468
 Zn469 Zn 0.49340 0.75137 0.37220
 N470 N 0.48286 0.77156 0.35826
 C471 C 0.52105 0.77844 0.38386
 N472 N 0.51485 0.76033 0.38624
 C473 C 0.52450 0.74813 0.39763
 C474 C 0.54087 0.75413 0.40748
 C475 C 0.53734 0.78498 0.39335
 C476 C 0.45758 0.73631 0.38025
 C477 C 0.44305 0.72837 0.39116
 C478 C 0.46165 0.73503 0.41960
 C479 C 0.47604 0.74253 0.40807
 N480 N 0.47395 0.74258 0.38872
 H481 H 0.51358 0.78781 0.37435
 H482 H 0.51954 0.73367 0.39893
 H483 H 0.54848 0.74418 0.41635
 H484 H 0.54189 0.79950 0.39138
 H485 H 0.45613 0.73693 0.36486
 H486 H 0.43034 0.72290 0.38416
 H487 H 0.46362 0.73463 0.43495
 H488 H 0.48891 0.74808 0.41459
 C489 C 0.46783 0.80394 0.34136
 C490 C 0.51920 0.70007 0.33912
 C491 C 0.44513 0.72746 0.41106
 C492 C 0.54752 0.77277 0.40532
 C493 C 0.35923 -0.00504 0.22378
 C494 C 0.36747 0.00518 0.23901
 C495 C 0.37634 0.02267 0.23558
 C496 C 0.37730 0.02989 0.21697
 C497 C 0.36862 0.01970 0.20194
 C498 C 0.35962 0.00220 0.20515
 C499 C 0.36751 -0.00274 0.25844
 C500 C 0.37663 -0.02000 0.26199
 C501 C 0.37780 -0.02704 0.28065
 C502 C 0.36908 -0.01696 0.29562
 C503 C 0.35976 0.00025 0.29227
 C504 C 0.35918 0.00735 0.27359
 H505 H 0.35267 -0.01868 0.22646
 H506 H 0.38320 0.03021 0.24730
 H507 H 0.38352 -0.02747 0.25034
 H508 H 0.35240 0.02081 0.27082
 H509 H 0.36873 0.02551 0.18766
 H510 H 0.36939 -0.02266 0.30994
 C511 C 0.13317 1.00929 0.72506
 C512 C 0.12550 0.99978 0.74081
 C513 C 0.11872 0.98117 0.73850
 C514 C 0.11953 0.97203 0.72063
 C515 C 0.12749 0.98167 0.70506
 C516 C 0.13441 1.00026 0.70715
 C517 C 0.12499 1.00909 0.75982
 C518 C 0.11748 1.02735 0.76195
 C519 C 0.11703 1.03624 0.77998
 C520 C 0.12445 1.02671 0.79590
 C521 C 0.13206 1.00844 0.79398
 C522 C 0.13218 0.99972 0.77587
 H523 H 0.13879 1.02351 0.72694
 H524 H 0.11284 0.97380 0.75068
 H525 H 0.11193 1.03461 0.74955
 H526 H 0.13837 0.98579 0.77412
 H527 H 0.12786 0.97485 0.69114
 H528 H 0.12378 1.03331 0.80991
 C529 C 0.63743 0.50940 0.22940
 C530 C 0.63124 0.49924 0.24537
 C531 C 0.62490 0.48049 0.24308
 C532 C 0.62465 0.47182 0.22495
 C533 C 0.63117 0.48208 0.20912
 C534 C 0.63769 0.50082 0.21121
 C535 C 0.63172 0.50807 0.26456
 C536 C 0.62197 0.52503 0.26815
 C537 C 0.62155 0.53289 0.28667
 C538 C 0.63145 0.52379 0.30146
 C539 C 0.64154 0.50704 0.29794
 C540 C 0.64156 0.49921 0.27947
 H541 H 0.64265 0.52376 0.23128
 H542 H 0.62018 0.47265 0.25546
 H543 H 0.61411 0.53167 0.25668
 H544 H 0.64910 0.48612 0.27672
 H545 H 0.63075 0.47561 0.19503
 H546 H 0.63158 0.52990 0.31572
 C547 C 0.85602 0.49867 0.73157
 C548 C 0.86320 0.50841 0.74764
 C549 C 0.87101 0.52658 0.74546
 C550 C 0.87175 0.53506 0.72741
 C551 C 0.86437 0.52520 0.71149
 C552 C 0.85647 0.50700 0.71342
 C553 C 0.86259 0.49961 0.76674
 C554 C 0.86978 0.48133 0.76945
 C555 C 0.86960 0.47305 0.78763
 C556 C 0.86170 0.48317 0.80307
 C557 C 0.85429 0.50143 0.80057
 C558 C 0.85499 0.50960 0.78234
 H559 H 0.85009 0.48458 0.73323
 H560 H 0.87659 0.53410 0.75785
 H561 H 0.87567 0.47364 0.75739
 H562 H 0.84961 0.52377 0.78023
 H563 H 0.86486 0.53169 0.69752
 H564 H 0.86139 0.47683 0.81710
 C565 C 0.22740 0.34985 0.00009
 C566 C 0.24219 0.35876 0.01035
 C567 C 0.23821 0.36820 0.02758
 C568 C 0.21943 0.36913 0.03444
 C569 C 0.20480 0.35986 0.02419
 C570 C 0.20862 0.35012 0.00705
 C571 C 0.26176 0.35873 0.00273
 C572 C 0.26575 0.36771 -0.01461
 C573 C 0.28448 0.36844 -0.02162
 C574 C 0.29908 0.35940 -0.01140
 C575 C 0.29523 0.35013 0.00586
 C576 C 0.27652 0.35011 0.01299
 H577 H 0.23064 0.34242 -0.01311
 H578 H 0.24962 0.37547 0.03517
 H579 H 0.25436 0.37476 -0.02221
 H580 H 0.27331 0.34305 0.02629
 H581 H 0.19030 0.36048 0.02946
 H582 H 0.31354 0.35976 -0.01681
 C583 C 0.72624 0.13220 1.00463
 C584 C 0.74149 0.12419 0.99451
 C585 C 0.73859 0.11768 0.97572
 C586 C 0.72057 0.11903 0.96702
 C587 C 0.70548 0.12727 0.97730
 C588 C 0.70821 0.13402 0.99606
 C589 C 0.76060 0.12329 1.00342
 C590 C 0.76299 0.11501 1.02139
 C591 C 0.78101 0.11472 1.03021
 C592 C 0.79664 0.12315 1.02097
 C593 C 0.79445 0.13155 1.00295
 C594 C 0.77637 0.13131 0.99419
 H595 H 0.72854 0.13723 1.01913
 H596 H 0.75043 0.11166 0.96787
 H597 H 0.75078 0.10884 1.02854
 H598 H 0.77445 0.13760 0.98025
 H599 H 0.69160 0.12853 0.97061
 H600 H 0.81050 0.12321 1.02785
 C601 C 0.22699 0.63450 0.51331
 C602 C 0.24249 0.62646 0.50363
 C603 C 0.23963 0.61775 0.48575
 C604 C 0.22128 0.61668 0.47771
 C605 C 0.20595 0.62514 0.48738
 C606 C 0.20864 0.63412 0.50519
 C607 C 0.26155 0.62653 0.51258
 C608 C 0.26431 0.61777 0.53027
 C609 C 0.28244 0.61753 0.53887
 C610 C 0.29781 0.62637 0.52960
 C611 C 0.29513 0.63542 0.51201
 C612 C 0.27698 0.63534 0.50351
 H613 H 0.22928 0.64094 0.52725
 H614 H 0.25155 0.61110 0.47855
 H615 H 0.25229 0.61115 0.53732
 H616 H 0.27483 0.64215 0.48986
 H617 H 0.19191 0.62490 0.48087
 H618 H 0.31188 0.62627 0.53608
 C619 C 0.72761 0.85174 0.49497
 C620 C 0.74308 0.85981 0.50488
 C621 C 0.74028 0.86773 0.52308
 C622 C 0.72208 0.86783 0.53142
 C623 C 0.70675 0.85939 0.52148
 C624 C 0.70938 0.85125 0.50327
 C625 C 0.76227 0.86001 0.49629
 C626 C 0.76546 0.86933 0.47895
 C627 C 0.78397 0.87068 0.47142
 C628 C 0.79912 0.86193 0.48106
 C629 C 0.79610 0.85237 0.49832
 C630 C 0.77760 0.85163 0.50592
 H631 H 0.72994 0.84540 0.48102
 H632 H 0.75229 0.87396 0.53068
 H633 H 0.75369 0.87624 0.47182
 H634 H 0.77509 0.84472 0.51945
 H635 H 0.69260 0.85972 0.52766
 H636 H 0.81331 0.86243 0.47499
 C637 C -0.00260 0.22461 0.34604
 C638 C 0.00805 0.23865 0.35559
 C639 C 0.02587 0.23420 0.36349
 C640 C 0.03303 0.21571 0.36215
 C641 C 0.02242 0.20190 0.35210
 C642 C 0.00460 0.20619 0.34402
 C643 C 0.00028 0.25787 0.35790
 C644 C -0.01651 0.26072 0.36840
 C645 C -0.02338 0.27909 0.37163
 C646 C -0.01367 0.29452 0.36359
 C647 C 0.00299 0.29186 0.35281
 C648 C 0.00999 0.27343 0.35020
 H649 H -0.01633 0.22816 0.33993
 H650 H 0.03371 0.24498 0.37140
 H651 H -0.02373 0.24870 0.37470
 H652 H 0.02306 0.27115 0.34228
 H653 H 0.02788 0.18763 0.35088
 H654 H -0.01931 0.30866 0.36553
 C655 C 1.00728 0.72444 0.13352
 C656 C 0.99776 0.73973 0.12520
 C657 C 0.97968 0.73690 0.11696
 C658 C 0.97122 0.71884 0.11668
 C659 C 0.98108 0.70362 0.12485
 C660 C 0.99900 0.70628 0.13357
 C661 C 1.00670 0.75871 0.12539
 C662 C 1.02521 0.76119 0.11825
 C663 C 1.03396 0.77911 0.11856
 C664 C 1.02410 0.79453 0.12652
 C665 C 1.00556 0.79224 0.13380
 C666 C 0.99689 0.77428 0.13299
 H667 H 1.02090 0.72693 0.14047
 H668 H 0.97222 0.74880 0.11082
 H669 H 1.03276 0.74913 0.11239
 H670 H 0.98273 0.77224 0.13883
 H671 H 0.97486 0.68957 0.12414
 H672 H 1.03062 0.80846 0.12653
 C673 C 0.51029 0.22975 0.62637
 C674 C 0.49971 0.24524 0.61992
 C675 C 0.48102 0.24239 0.61320
 C676 C 0.47282 0.22422 0.61297
 C677 C 0.48349 0.20889 0.61975
 C678 C 0.50222 0.21150 0.62657
 C679 C 0.50793 0.26454 0.62092
 C680 C 0.52579 0.26845 0.61277
 C681 C 0.53351 0.28683 0.61359
 C682 C 0.52340 0.30113 0.62323
 C683 C 0.50556 0.29743 0.63153
 C684 C 0.49786 0.27908 0.63015
 H685 H 0.52473 0.23201 0.63152
 H686 H 0.47281 0.25438 0.60831
 H687 H 0.53333 0.25731 0.60526
 H688 H 0.48403 0.27604 0.63631
 H689 H 0.47712 0.19490 0.61987
 H690 H 0.52963 0.31514 0.62457
 C691 C 0.49156 0.73101 0.84567
 C692 C 0.50168 0.74563 0.85493
 C693 C 0.51933 0.74181 0.86358
 C694 C 0.52681 0.72339 0.86324
 C695 C 0.51673 0.70903 0.85342
 C696 C 0.49909 0.71267 0.84468
 C697 C 0.49354 0.76485 0.85584
 C698 C 0.47532 0.76768 0.86357
 C699 C 0.46734 0.78585 0.86427
 C700 C 0.47772 0.80117 0.85686
 C701 C 0.49594 0.79854 0.84895
 C702 C 0.50384 0.78030 0.84870
 H703 H 0.47798 0.73402 0.83892
 H704 H 0.52678 0.75302 0.87124
 H705 H 0.46737 0.75569 0.86899
 H706 H 0.51792 0.77805 0.84278
 H707 H 0.52245 0.69483 0.85289
 H708 H 0.47157 0.81520 0.85718
 C709 C 0.44570 -0.14506 0.31801
 C710 C 0.45406 -0.14528 0.33624
 C711 C 0.46150 -0.16191 0.34368
 C712 C 0.46095 -0.17905 0.33315
 C713 C 0.45320 -0.17859 0.31448
 C714 C 0.44551 -0.16186 0.30711
 C715 C 0.43688 -0.12740 0.31092
 N716 N 0.42631 -0.12719 0.29460
 N717 N 0.41772 -0.11137 0.28896
 C718 C 0.41937 -0.09512 0.29942
 N719 N 0.43009 -0.09535 0.31559
 N720 N 0.43863 -0.11111 0.32121
 C721 C 0.40924 -0.07759 0.29387
 C722 C 0.41094 -0.06122 0.30534
 C723 C 0.40085 -0.04489 0.30088
 C724 C 0.38880 -0.04443 0.28483
 C725 C 0.38736 -0.06061 0.27307
 C726 C 0.39745 -0.07707 0.27757
 H727 H 0.45474 -0.13258 0.34499
 H728 H 0.46820 -0.16097 0.35760
 H729 H 0.45208 -0.19128 0.30579
 H730 H 0.43921 -0.16216 0.29296
 H731 H 0.41996 -0.06101 0.31792
 H732 H 0.40255 -0.03252 0.30999
 H733 H 0.37813 -0.06066 0.26063
 H734 H 0.39583 -0.08941 0.26843
 C735 C 0.93383 0.35180 0.82037
 C736 C 0.92833 0.34263 0.83725
 C737 C 0.93866 0.32725 0.84405
 C738 C 0.95465 0.32055 0.83409
 C739 C 0.95992 0.32933 0.81695
 C740 C 0.94967 0.34489 0.81021
 C741 C 0.92336 0.36876 0.81385
 N742 N 0.93028 0.37972 0.79956
 N743 N 0.92125 0.39543 0.79440
 C744 C 0.90490 0.40083 0.80327
 N745 N 0.89791 0.38975 0.81740
 N746 N 0.90695 0.37409 0.82259
 C747 C 0.89529 0.41878 0.79825
 C748 C 0.87777 0.42361 0.80669
 C749 C 0.86924 0.44101 0.80292
 C750 C 0.87805 0.45405 0.79067
 C751 C 0.89533 0.44905 0.78187
 C752 C 0.90384 0.43160 0.78559
 H753 H 0.91620 0.34752 0.84543
 H754 H 0.93410 0.32056 0.85715
 H755 H 0.97223 0.32446 0.80904
 H756 H 0.95426 0.35158 0.79713
 H757 H 0.87069 0.41402 0.81638
 H758 H 0.85575 0.44429 0.80965
 H759 H 0.90258 0.45886 0.77253
 H760 H 0.91735 0.42837 0.77887
 C761 C 0.05363 1.15976 0.80667
 C762 C 0.06309 1.17385 0.81744
 C763 C 0.05321 1.18960 0.82431
 C764 C 0.03361 1.19165 0.82060
 C765 C 0.02426 1.17790 0.80930
 C766 C 0.03417 1.16215 0.80237
 C767 C 0.06378 1.14227 0.80087
 N768 N 0.05492 1.12871 0.79013
 N769 N 0.06374 1.11258 0.78582
 C770 C 0.08178 1.10928 0.79211
 N771 N 0.09068 1.12291 0.80271
 N772 N 0.08188 1.13905 0.80698
 C773 C 0.09126 1.09094 0.78819
 C774 C 0.10885 1.08668 0.79683
 C775 C 0.11731 1.06903 0.79398
 C776 C 0.10845 1.05526 0.78233
 C777 C 0.09109 1.05963 0.77335
 C778 C 0.08255 1.07726 0.77628
 H779 H 0.07807 1.17252 0.82099
 H780 H 0.06078 1.19980 0.83318
 H781 H 0.00922 1.17921 0.80604
 H782 H 0.02645 1.15163 0.79404
 H783 H 0.11598 1.09688 0.80606
 H784 H 0.13082 1.06612 0.80089
 H785 H 0.08385 1.04923 0.76443
 H786 H 0.06902 1.08006 0.76939
 C787 C 0.54981 0.65035 0.32069
 C788 C 0.54122 0.65129 0.33879
 C789 C 0.53142 0.66742 0.34461
 C790 C 0.52978 0.68308 0.33248
 C791 C 0.53850 0.68231 0.31442
 C792 C 0.54841 0.66608 0.30856
 C793 C 0.56013 0.63297 0.31482
 N794 N 0.56958 0.63185 0.29791
 N795 N 0.57891 0.61615 0.29297
 C796 C 0.57915 0.60092 0.30472
 N797 N 0.56965 0.60207 0.32155
 N798 N 0.56036 0.61772 0.32648
 C799 C 0.58967 0.58344 0.29960
 C800 C 0.58932 0.56785 0.31196
 C801 C 0.59952 0.55148 0.30762
 C802 C 0.61038 0.55024 0.29083
 C803 C 0.61055 0.56568 0.27828
 C804 C 0.60032 0.58213 0.28264
 H805 H 0.54213 0.63957 0.34861
 H806 H 0.52532 0.66770 0.35880
 H807 H 0.53745 0.69415 0.30476
 H808 H 0.55488 0.66582 0.29453
 H809 H 0.58120 0.56825 0.32509
 H810 H 0.59880 0.53970 0.31739
 H811 H 0.61889 0.56517 0.26529
 H812 H 0.60090 0.59387 0.27281
 C813 C 0.56844 0.34504 0.19484
 C814 C 0.57723 0.33368 0.18086
 C815 C 0.56781 0.31789 0.17322
 C816 C 0.54940 0.31301 0.17941
 C817 C 0.54090 0.32381 0.19398
 C818 C 0.55030 0.33973 0.20159
 C819 C 0.57779 0.36282 0.20146
 N820 N 0.56889 0.37480 0.21380
 N821 N 0.57685 0.39132 0.21870
 C822 C 0.59405 0.39658 0.21147
 N823 N 0.60302 0.38449 0.19933
 N824 N 0.59507 0.36800 0.19444
 C825 C 0.60245 0.41543 0.21592
 C826 C 0.61949 0.42123 0.20712
 C827 C 0.62684 0.43940 0.21030
 C828 C 0.61737 0.45219 0.22242
 C829 C 0.60060 0.44627 0.23162
 C830 C 0.59319 0.42810 0.22838
 H831 H 0.59123 0.33722 0.17542
 H832 H 0.57483 0.30963 0.16222
 H833 H 0.52669 0.32038 0.19895
 H834 H 0.54315 0.34812 0.21239
 H835 H 0.62706 0.41185 0.19750
 H836 H 0.63994 0.44348 0.20323
 H837 H 0.59291 0.45588 0.24091
 H838 H 0.58005 0.42411 0.23540
 C839 C 0.06246 0.84523 0.69208
 C840 C 0.07172 0.83302 0.67918
 C841 C 0.06242 0.81695 0.67199
 C842 C 0.04366 0.81266 0.67755
 C843 C 0.03464 0.82439 0.69102
 C844 C 0.04393 0.84055 0.69819
 C845 C 0.07177 0.86316 0.69829
 N846 N 0.06253 0.87571 0.70976
 N847 N 0.07051 0.89229 0.71437
 C848 C 0.08807 0.89704 0.70770
 N849 N 0.09738 0.88441 0.69641
 N850 N 0.08940 0.86784 0.69180
 C851 C 0.09657 0.91589 0.71191
 C852 C 0.11424 0.92106 0.70398
 C853 C 0.12180 0.93917 0.70703
 C854 C 0.11190 0.95253 0.71812
 C855 C 0.09444 0.94727 0.72641
 C856 C 0.08685 0.92916 0.72332
 H857 H 0.08603 0.83607 0.67427
 H858 H 0.06984 0.80797 0.66186
 H859 H 0.02015 0.82147 0.69548
 H860 H 0.03640 0.84960 0.70816
 H861 H 0.12218 0.91120 0.69518
 H862 H 0.13542 0.94274 0.70069
 H863 H 0.08641 0.95732 0.73488
 H864 H 0.07321 0.92567 0.72965
 C865 C 0.93826 0.65683 0.69975
 C866 C 0.95807 0.65814 0.70276
 C867 C 0.96853 0.67325 0.69531
 C868 C 0.95941 0.68745 0.68481
 C869 C 0.93951 0.68660 0.68249
 C870 C 0.92905 0.67142 0.68983
 C871 C 0.92749 0.63984 0.70592
 N872 N 0.90913 0.63701 0.70023
 N873 N 0.89984 0.62117 0.70471
 C874 C 0.90849 0.60748 0.71509
 N875 N 0.92676 0.61042 0.72098
 N876 N 0.93607 0.62624 0.71646
 C877 C 0.89854 0.58939 0.71914
 C878 C 0.90697 0.57585 0.73107
 C879 C 0.89808 0.55837 0.73404
 C880 C 0.88064 0.55399 0.72506
 C881 C 0.87203 0.56762 0.71341
 C882 C 0.88085 0.58515 0.71052
 H883 H 0.96563 0.64721 0.71040
 H884 H 0.98384 0.67367 0.69749
 H885 H 0.93212 0.69725 0.67431
 H886 H 0.91380 0.67091 0.68732
 H887 H 0.92056 0.57864 0.73794
 H888 H 0.90512 0.54807 0.74296
 H889 H 0.85847 0.56471 0.70649
 H890 H 0.87394 0.59524 0.70127
 C891 C 0.45037 0.14757 0.18579
 C892 C 0.46069 0.14789 0.16861
 C893 C 0.47079 0.16401 0.16325
 C894 C 0.47099 0.18028 0.17494
 C895 C 0.46065 0.18007 0.19213
 C896 C 0.45045 0.16385 0.19753
 C897 C 0.43957 0.13028 0.19111
 N898 N 0.42878 0.12966 0.20721
 N899 N 0.41904 0.11404 0.21166
 C900 C 0.41970 0.09841 0.20020
 N901 N 0.43052 0.09908 0.18417
 N902 N 0.44022 0.11465 0.17973
 C903 C 0.40886 0.08096 0.20484
 C904 C 0.41000 0.06503 0.19272
 C905 C 0.39977 0.04857 0.19673
 C906 C 0.38808 0.04756 0.21296
 C907 C 0.38701 0.06339 0.22522
 C908 C 0.39728 0.07994 0.22119
 H909 H 0.46088 0.13571 0.15913
 H910 H 0.47819 0.16382 0.14969
 H911 H 0.46058 0.19236 0.20147
 H912 H 0.44266 0.16407 0.21086
 H913 H 0.41884 0.06521 0.18006
 H914 H 0.40122 0.03650 0.18721
 H915 H 0.37803 0.06306 0.23778
 H916 H 0.39607 0.09194 0.23082
 C917 C 0.31948 0.44019 -0.13906
 C918 C 0.30991 0.43744 -0.15658
 C919 C 0.31651 0.44621 -0.17319
 C920 C 0.33285 0.45783 -0.17262
 C921 C 0.34207 0.46096 -0.15502
 C922 C 0.33548 0.45226 -0.13846
 C923 C 0.31334 0.43015 -0.12156
 N924 N 0.32337 0.43225 -0.10504
 N925 N 0.31840 0.42284 -0.08942
 C926 C 0.30316 0.41091 -0.08960
 N927 N 0.29301 0.40887 -0.10608
 N928 N 0.29801 0.41828 -0.12175
 C929 C 0.29806 0.40014 -0.07222
 C930 C 0.28177 0.38843 -0.07180
 C931 C 0.27727 0.37815 -0.05538
 C932 C 0.28904 0.37929 -0.03910
 C933 C 0.30524 0.39105 -0.03951
 C934 C 0.30968 0.40136 -0.05583
 H935 H 0.29753 0.42826 -0.15755
 H936 H 0.30918 0.44347 -0.18658
 H937 H 0.35448 0.47012 -0.15405
 H938 H 0.34313 0.45486 -0.12522
 H939 H 0.27250 0.38716 -0.08416
 H940 H 0.26474 0.36911 -0.05549
 H941 H 0.31439 0.39247 -0.02707
 H942 H 0.32230 0.41026 -0.05558
 C943 C 0.81694 0.94274 0.35371
 C944 C 0.80746 0.93974 0.33617
 C945 C 0.81425 0.94814 0.31943
 C946 C 0.83071 0.95958 0.31990
 C947 C 0.83982 0.96300 0.33750
 C948 C 0.83303 0.95471 0.35418
 C949 C 0.81070 0.93300 0.37134
 N950 N 0.82053 0.93556 0.38792
 N951 N 0.81563 0.92629 0.40363
 C952 C 0.80066 0.91402 0.40351
 N953 N 0.79068 0.91154 0.38698
 N954 N 0.79561 0.92083 0.37121
 C955 C 0.79584 0.90323 0.42096
 C956 C 0.77984 0.89113 0.42150
 C957 C 0.77581 0.88065 0.43792
 C958 C 0.78778 0.88194 0.45403
 C959 C 0.80362 0.89418 0.45353
 C960 C 0.80758 0.90470 0.43724
 H961 H 0.79501 0.93064 0.33530
 H962 H 0.80700 0.94521 0.30603
 H963 H 0.85233 0.97203 0.33836
 H964 H 0.84063 0.95748 0.36741
 H965 H 0.77049 0.88968 0.40923
 H966 H 0.76354 0.87126 0.43791
 H967 H 0.81291 0.89573 0.46585
 H968 H 0.81999 0.91390 0.43740
 C969 C 0.80584 0.04913 1.15346
 C970 C 0.81147 0.05903 1.17002
 C971 C 0.81831 0.04937 1.18598
 C972 C 0.82005 0.02944 1.18573
 C973 C 0.81351 0.01960 1.16929
 C974 C 0.80646 0.02929 1.15347
 C975 C 0.80030 0.05941 1.13593
 N976 N 0.79237 0.05005 1.12082
 N977 N 0.78844 0.05906 1.10466
 C978 C 0.79236 0.07781 1.10286
 N979 N 0.80015 0.08721 1.11803
 N980 N 0.80401 0.07821 1.13423
 C981 C 0.78886 0.08759 1.08454
 C982 C 0.79666 0.10564 1.08123
 C983 C 0.79409 0.11448 1.06361
 C984 C 0.78349 0.10555 1.04902
 C985 C 0.77542 0.08767 1.05242
 C986 C 0.77814 0.07874 1.06995
 H987 H 0.81107 0.07435 1.17052
 H988 H 0.82340 0.05784 1.19790
 H989 H 0.81354 0.00431 1.16855
 H990 H 0.80198 0.02118 1.14103
 H991 H 0.80502 0.11285 1.09214
 H992 H 0.80029 0.12836 1.06143
 H993 H 0.76730 0.08041 1.04135
 H994 H 0.77191 0.06486 1.07203
 C995 C 0.30743 0.55087 0.66166
 C996 C 0.30482 0.53115 0.66271
 C997 C 0.31143 0.52113 0.67852
 C998 C 0.32069 0.53061 0.69369
 C999 C 0.32256 0.55040 0.69302
 C1000 C 0.31605 0.56041 0.67718
 C1001 C 0.30219 0.56126 0.64410
 N1002 N 0.30745 0.57964 0.64188
 N1003 N 0.30370 0.58870 0.62569
 C1004 C 0.29452 0.57979 0.61103
 N1005 N 0.28908 0.56146 0.61332
 N1006 N 0.29287 0.55238 0.62949
 C1007 C 0.29102 0.58966 0.59274
 C1008 C 0.27991 0.58109 0.57827
 C1009 C 0.27703 0.59019 0.56085
 C1010 C 0.28529 0.60800 0.55746
 C1011 C 0.29632 0.61662 0.57193
 C1012 C 0.29910 0.60758 0.58940
 H1013 H 0.29816 0.52336 0.65107
 H1014 H 0.30962 0.50590 0.67874
 H1015 H 0.32982 0.55808 0.70439
 H1016 H 0.31822 0.57559 0.67690
 H1017 H 0.27348 0.56730 0.58035
 H1018 H 0.26861 0.58314 0.54989
 H1019 H 0.30266 0.63045 0.56978
 H1020 H 0.30774 0.61460 0.60021
 C1021 C 0.18920 0.54911 0.35586
 C1022 C 0.17309 0.53718 0.35570
 C1023 C 0.16571 0.53013 0.33854
 C1024 C 0.17428 0.53472 0.32108
 C1025 C 0.19090 0.54593 0.32116
 C1026 C 0.19826 0.55314 0.33841
 C1027 C 0.19571 0.55790 0.37409
 N1028 N 0.21043 0.57050 0.37464
 N1029 N 0.21536 0.57913 0.39098
 C1030 C 0.20573 0.57553 0.40740
 N1031 N 0.19119 0.56278 0.40684
 N1032 N 0.18630 0.55417 0.39057
 C1033 C 0.21033 0.58572 0.42547
 C1034 C 0.19847 0.58355 0.44148
 C1035 C 0.20214 0.59358 0.45835
 C1036 C 0.21780 0.60597 0.45971
 C1037 C 0.22993 0.60794 0.44388
 C1038 C 0.22617 0.59798 0.42687
 H1039 H 0.16581 0.53361 0.36882
 H1040 H 0.15307 0.52125 0.33889
 H1041 H 0.19775 0.54966 0.30785
 H1042 H 0.21075 0.56221 0.33803
 H1043 H 0.18617 0.57423 0.44097
 H1044 H 0.19274 0.59153 0.47043
 H1045 H 0.24209 0.61745 0.44456
 H1046 H 0.23561 0.59995 0.41482
 C1047 C 0.68594 0.06438 0.83962
 C1048 C 0.69375 0.04738 0.83273
 C1049 C 0.68609 0.03837 0.81652
 C1050 C 0.67016 0.04596 0.80686
 C1051 C 0.66288 0.06339 0.81359
 C1052 C 0.67066 0.07242 0.82963
 C1053 C 0.69309 0.07338 0.85750
 N1054 N 0.68621 0.09040 0.86333
 N1055 N 0.69174 0.09810 0.87988
 C1056 C 0.70438 0.08911 0.89136
 N1057 N 0.71142 0.07216 0.88545
 N1058 N 0.70590 0.06446 0.86886
 C1059 C 0.70960 0.09726 0.91028
 C1060 C 0.72123 0.08721 0.92304
 C1061 C 0.72509 0.09443 0.94133
 C1062 C 0.71740 0.11184 0.94726
 C1063 C 0.70620 0.12211 0.93434
 C1064 C 0.70234 0.11491 0.91608
 H1065 H 0.70557 0.04081 0.84007
 H1066 H 0.69212 0.02490 0.81237
 H1067 H 0.65138 0.07051 0.80629
 H1068 H 0.66444 0.08565 0.83435
 H1069 H 0.72704 0.07357 0.91906
 H1070 H 0.73364 0.08613 0.95103
 H1071 H 0.70038 0.13573 0.93836
 H1072 H 0.69345 0.12311 0.90660
 C1073 C 0.69157 0.93772 0.65197
 C1074 C 0.69532 0.95727 0.65306
 C1075 C 0.68794 0.96820 0.66802
 C1076 C 0.67676 0.95982 0.68229
 C1077 C 0.67365 0.94016 0.68166
 C1078 C 0.68093 0.92924 0.66664
 C1079 C 0.69785 0.92649 0.63514
 N1080 N 0.69188 0.90832 0.63258
 N1081 N 0.69659 0.89861 0.61689
 C1082 C 0.70749 0.90666 0.60311
 N1083 N 0.71363 0.92475 0.60578
 N1084 N 0.70889 0.93447 0.62144
 C1085 C 0.71195 0.89623 0.58519
 C1086 C 0.72399 0.90433 0.57142
 C1087 C 0.72748 0.89496 0.55413
 C1088 C 0.71898 0.87731 0.55016
 C1089 C 0.70716 0.86906 0.56400
 C1090 C 0.70372 0.87839 0.58135
 H1091 H 0.70352 0.96428 0.64208
 H1092 H 0.69073 0.98329 0.66827
 H1093 H 0.66494 0.93335 0.69237
 H1094 H 0.67783 0.91421 0.66629
 H1095 H 0.73057 0.91804 0.57388
 H1096 H 0.73647 0.90178 0.54365
 H1097 H 0.70058 0.85537 0.56142
 H1098 H 0.69439 0.87173 0.59163
 C1099 C 0.18294 0.44365 0.15070
 C1100 C 0.19449 0.44507 0.16715
 C1101 C 0.18840 0.45549 0.18312
 C1102 C 0.17067 0.46472 0.18292
 C1103 C 0.15912 0.46310 0.16654
 C1104 C 0.16518 0.45278 0.15065
 C1105 C 0.18910 0.43277 0.13359
 N1106 N 0.17812 0.43257 0.11758
 N1107 N 0.18335 0.42281 0.10216
 C1108 C 0.19980 0.41278 0.10201
 N1109 N 0.21086 0.41297 0.11801
 N1110 N 0.20563 0.42278 0.13349
 C1111 C 0.20528 0.40180 0.08473
 C1112 C 0.22177 0.39054 0.08447
 C1113 C 0.22650 0.37998 0.06813
 C1114 C 0.21481 0.38045 0.05178
 C1115 C 0.19851 0.39191 0.05200
 C1116 C 0.19379 0.40241 0.06825
 H1117 H 0.20826 0.43820 0.16766
 H1118 H 0.19764 0.45652 0.19552
 H1119 H 0.14518 0.46963 0.16606
 H1120 H 0.15581 0.45189 0.13835
 H1121 H 0.23094 0.38975 0.09691
 H1122 H 0.23912 0.37120 0.06840
 H1123 H 0.18943 0.39290 0.03950
 H1124 H 0.18106 0.41102 0.06783
 C1125 C -0.13827 0.31189 0.44873
 C1126 C -0.15648 0.30439 0.44458
 C1127 C -0.17281 0.31225 0.45296
 C1128 C -0.17119 0.32782 0.46549
 C1129 C -0.15296 0.33476 0.47022
 C1130 C -0.13672 0.32688 0.46200
 C1131 C -0.12101 0.30503 0.43863
 N1132 N -0.10375 0.31309 0.44232
 N1133 N -0.08836 0.30798 0.43252
 C1134 C -0.08951 0.29457 0.41855
 N1135 N -0.10672 0.28628 0.41498
 N1136 N -0.12216 0.29142 0.42481
 C1137 C -0.07244 0.28984 0.40700
 C1138 C -0.07285 0.27507 0.39337
 C1139 C -0.05685 0.27133 0.38203
 C1140 C -0.04023 0.28240 0.38397
 C1141 C -0.03975 0.29694 0.39776
 C1142 C -0.05561 0.30058 0.40916
 H1143 H -0.15819 0.29280 0.43449
 H1144 H -0.18672 0.30668 0.44905
 H1145 H -0.15130 0.34655 0.48009
 H1146 H -0.12296 0.33293 0.46570
 H1147 H -0.08557 0.26651 0.39137
 H1148 H -0.05759 0.26006 0.37146
 H1149 H -0.02702 0.30549 0.39977
 H1150 H -0.05472 0.31203 0.41951
 C1151 C 0.34442 0.81795 0.92819
 C1152 C 0.34005 0.81120 0.94654
 C1153 C 0.32448 0.81843 0.95669
 C1154 C 0.31304 0.83263 0.94873
 C1155 C 0.31705 0.83892 0.93018
 C1156 C 0.33252 0.83167 0.92003
 C1157 C 0.36169 0.81143 0.91789
 N1158 N 0.36601 0.81842 0.90041
 N1159 N 0.38199 0.81339 0.89151
 C1160 C 0.39436 0.80113 0.89969
 N1161 N 0.38996 0.79398 0.91711
 N1162 N 0.37397 0.79902 0.92603
 C1163 C 0.41260 0.79633 0.89014
 C1164 C 0.42560 0.78384 0.89865
 C1165 C 0.44321 0.78015 0.89008
 C1166 C 0.44824 0.78893 0.87285
 C1167 C 0.43510 0.80110 0.86414
 C1168 C 0.41749 0.80474 0.87266
 H1169 H 0.34888 0.80060 0.95324
 H1170 H 0.32179 0.81339 0.97100
 H1171 H 0.30827 0.84961 0.92355
 H1172 H 0.33533 0.83711 0.90589
 H1173 H 0.42231 0.77710 0.91209
 H1174 H 0.45311 0.77083 0.89720
 H1175 H 0.43845 0.80783 0.85071
 H1176 H 0.40781 0.81437 0.86564
 C1177 C 1.15773 0.80831 0.05501
 C1178 C 1.15904 0.80585 0.03509
 C1179 C 1.17437 0.81351 0.02500
 C1180 C 1.18883 0.82365 0.03460
 C1181 C 1.18803 0.82537 0.05460
 C1182 C 1.17260 0.81784 0.06469
 C1183 C 1.14045 0.80197 0.06538
 N1184 N 1.13747 0.80731 0.08383
 N1185 N 1.12134 0.80269 0.09273
 C1186 C 1.10752 0.79251 0.08357
 N1187 N 1.11062 0.78698 0.06521
 N1188 N 1.12672 0.79164 0.05630
 C1189 C 1.08912 0.78827 0.09307
 C1190 C 1.07544 0.77662 0.08400
 C1191 C 1.05769 0.77341 0.09245
 C1192 C 1.05316 0.78184 0.11010
 C1193 C 1.06692 0.79324 0.11933
 C1194 C 1.08472 0.79637 0.11094
 H1195 H 1.14790 0.79853 0.02716
 H1196 H 1.17476 0.81181 0.00961
 H1197 H 1.19890 0.83325 0.06235
 H1198 H 1.17210 0.81991 0.08003
 H1199 H 1.07833 0.77014 0.07024
 H1200 H 1.04731 0.76472 0.08491
 H1201 H 1.06389 0.79973 0.13306
 H1202 H 1.09492 0.80539 0.11834
 C1203 C 0.65675 0.32343 0.55204
 C1204 C 0.67243 0.31117 0.55034
 C1205 C 0.68920 0.31715 0.54125
 C1206 C 0.69055 0.33547 0.53366
 C1207 C 0.67501 0.34777 0.53575
 C1208 C 0.65835 0.34184 0.54475
 C1209 C 0.63866 0.31731 0.56113
 N1210 N 0.62341 0.32906 0.56134
 N1211 N 0.60704 0.32381 0.56931
 C1212 C 0.60515 0.30655 0.57746
 N1213 N 0.62041 0.29473 0.57730
 N1214 N 0.63683 0.29999 0.56927
 C1215 C 0.58680 0.30101 0.58640
 C1216 C 0.58480 0.28380 0.59618
 C1217 C 0.56747 0.27904 0.60490
 C1218 C 0.55184 0.29140 0.60403
 C1219 C 0.55380 0.30842 0.59400
 C1220 C 0.57103 0.31318 0.58533
 H1221 H 0.67168 0.29691 0.55583
 H1222 H 0.70095 0.30736 0.53983
 H1223 H 0.67575 0.36212 0.53049
 H1224 H 0.64669 0.35177 0.54595
 H1225 H 0.59665 0.27411 0.59727
 H1226 H 0.56642 0.26587 0.61263
 H1227 H 0.54191 0.31807 0.59273
 H1228 H 0.57195 0.32647 0.57780
 C1229 C 0.34454 0.19252 0.55895
 C1230 C 0.33943 0.19781 0.54028
 C1231 C 0.32326 0.18995 0.53140
 C1232 C 0.31197 0.17659 0.54097
 C1233 C 0.31662 0.17194 0.55989
 C1234 C 0.33268 0.17982 0.56878
 C1235 C 0.36262 0.19928 0.56782
 N1236 N 0.36789 0.19317 0.58541
 N1237 N 0.38464 0.19819 0.59297
 C1238 C 0.39688 0.20953 0.58329
 N1239 N 0.39154 0.21584 0.56578
 N1240 N 0.37477 0.21080 0.55820
 C1241 C 0.41597 0.21417 0.59134
 C1242 C 0.42856 0.22630 0.58166
 C1243 C 0.44690 0.22982 0.58884
 C1244 C 0.45308 0.22122 0.60579
 C1245 C 0.44038 0.20939 0.61565
 C1246 C 0.42204 0.20594 0.60854
 H1247 H 0.34820 0.20762 0.53232
 H1248 H 0.32005 0.19373 0.51678
 H1249 H 0.30797 0.16192 0.56773
 H1250 H 0.33603 0.17554 0.58322
 H1251 H 0.42436 0.23289 0.56840
 H1252 H 0.45644 0.23891 0.58088
 H1253 H 0.44465 0.20281 0.62890
 H1254 H 0.41272 0.19658 0.61643
 C1255 C 0.84501 0.68918 0.05632
 C1256 C 0.83784 0.69876 0.04030
 C1257 C 0.82048 0.69320 0.03190
 C1258 C 0.80998 0.67795 0.03936
 C1259 C 0.81732 0.66833 0.05524
 C1260 C 0.83451 0.67391 0.06365
 C1261 C 0.86336 0.69475 0.06544
 N1262 N 0.86896 0.68647 0.08196
 N1263 N 0.88553 0.69103 0.09014
 C1264 C 0.89729 0.70406 0.08219
 N1265 N 0.89169 0.71244 0.06568
 N1266 N 0.87505 0.70790 0.05748
 C1267 C 0.91595 0.70860 0.09123
 C1268 C 0.92909 0.72081 0.08240
 C1269 C 0.94696 0.72436 0.09074
 C1270 C 0.95205 0.71576 0.10806
 C1271 C 0.93877 0.70387 0.11703
 C1272 C 0.92097 0.70031 0.10873
 H1273 H 0.84558 0.71060 0.03431
 H1274 H 0.81518 0.70094 0.01971
 H1275 H 0.80992 0.65620 0.06106
 H1276 H 0.83965 0.66605 0.07582
 H1277 H 0.92570 0.72742 0.06891
 H1278 H 0.95695 0.73348 0.08341
 H1279 H 0.94212 0.69732 0.13056
 H1280 H 0.91119 0.69096 0.11603
 C1281 C 0.64463 0.68690 0.93468
 C1282 C 0.65855 0.69997 0.94100
 C1283 C 0.67394 0.69403 0.95228
 C1284 C 0.67563 0.67493 0.95747
 C1285 C 0.66204 0.66185 0.95060
 C1286 C 0.64675 0.66774 0.93942
 C1287 C 0.62761 0.69294 0.92370
 N1288 N 0.61316 0.68049 0.92033
 N1289 N 0.59760 0.68570 0.91088
 C1290 C 0.59575 0.70361 0.90433
 N1291 N 0.61023 0.71612 0.90758
 N1292 N 0.62584 0.71091 0.91712
 C1293 C 0.57816 0.70915 0.89401
 C1294 C 0.57696 0.72640 0.88422
 C1295 C 0.56031 0.73115 0.87423
 C1296 C 0.54453 0.71876 0.87391
 C1297 C 0.54569 0.70170 0.88400
 C1298 C 0.56227 0.69693 0.89383
 H1299 H 0.65735 0.71483 0.93756
 H1300 H 0.68422 0.70441 0.95737
 H1301 H 0.66321 0.64695 0.95390
 H1302 H 0.63650 0.65720 0.93461
 H1303 H 0.58896 0.73612 0.88406
 H1304 H 0.55990 0.74436 0.86651
 H1305 H 0.53365 0.69205 0.88449
 H1306 H 0.56256 0.68363 0.90139
 C1307 C 0.15022 0.17949 0.43486
 C1308 C 0.15022 0.16204 0.44435
 C1309 C 0.16582 0.15661 0.45537
 C1310 C 0.18187 0.16846 0.45728
 C1311 C 0.18208 0.18583 0.44763
 C1312 C 0.16637 0.19133 0.43657
 C1313 C 0.13332 0.18511 0.42345
 N1314 N 0.13269 0.20197 0.41426
 N1315 N 0.11728 0.20688 0.40425
 C1316 C 0.10188 0.19514 0.40303
 N1317 N 0.10259 0.17830 0.41218
 N1318 N 0.11794 0.17340 0.42215
 C1319 C 0.08451 0.20049 0.39220
 C1320 C 0.06858 0.18832 0.39184
 C1321 C 0.05203 0.19327 0.38200
 C1322 C 0.05095 0.21048 0.37217
 C1323 C 0.06687 0.22267 0.37244
 C1324 C 0.08350 0.21773 0.38234
 H1325 H 0.13813 0.15248 0.44330
 H1326 H 0.16538 0.14294 0.46225
 H1327 H 0.19425 0.19527 0.44888
 H1328 H 0.16685 0.20486 0.42944
 H1329 H 0.06876 0.17498 0.39933
 H1330 H 0.03990 0.18372 0.38242
 H1331 H 0.06652 0.23598 0.36488
 H1332 H 0.09552 0.22742 0.38229
 C1333 C 0.56907 0.10137 0.68493
 C1334 C 0.58300 0.10430 0.69917
 C1335 C 0.59212 0.08896 0.70764
 C1336 C 0.58749 0.07032 0.70214
 C1337 C 0.57345 0.06734 0.68804
 C1338 C 0.56439 0.08270 0.67947
 C1339 C 0.55954 0.11771 0.67587
 N1340 N 0.54750 0.11518 0.66080
 N1341 N 0.53896 0.12991 0.65271
 C1342 C 0.54207 0.14778 0.65937
 N1343 N 0.55411 0.15030 0.67443
 N1344 N 0.56268 0.13559 0.68248
 C1345 C 0.53235 0.16417 0.65059
 C1346 C 0.53378 0.18227 0.65900
 C1347 C 0.52420 0.19763 0.65107
 C1348 C 0.51303 0.19529 0.63449
 C1349 C 0.51184 0.17726 0.62591
 C1350 C 0.52135 0.16187 0.63389
 H1351 H 0.58694 0.11846 0.70376
 H1352 H 0.60270 0.09169 0.71865
 H1353 H 0.56972 0.05313 0.68342
 H1354 H 0.55371 0.07992 0.66857
 H1355 H 0.54207 0.18456 0.67190
 H1356 H 0.52519 0.21125 0.65821
 H1357 H 0.50358 0.17504 0.61297
 H1358 H 0.52004 0.14816 0.62697
 C1359 C 1.06512 0.60060 0.20041
 C1360 C 1.08188 0.60418 0.21090
 C1361 C 1.09154 0.58942 0.21982
 C1362 C 1.08486 0.57065 0.21820
 C1363 C 1.06794 0.56715 0.20785
 C1364 C 1.05811 0.58197 0.19918
 C1365 C 1.05523 0.61619 0.19053
 N1366 N 1.03663 0.61445 0.18526
 N1367 N 1.02780 0.62845 0.17624
 C1368 C 1.03727 0.64469 0.17196
 N1369 N 1.05588 0.64640 0.17717
 N1370 N 1.06466 0.63246 0.18632
 C1371 C 1.02750 0.66024 0.16189
 C1372 C 1.03808 0.67407 0.15218
 C1373 C 1.02886 0.68880 0.14275
 C1374 C 1.00885 0.69024 0.14307
 C1375 C 0.99830 0.67637 0.15285
 C1376 C 1.00751 0.66147 0.16201
 H1377 H 1.08751 0.61843 0.21232
 H1378 H 1.10425 0.59276 0.22804
 H1379 H 1.06250 0.55288 0.20600
 H1380 H 1.04528 0.57876 0.19109
 H1381 H 1.05350 0.67339 0.15168
 H1382 H 1.03744 0.69898 0.13507
 H1383 H 0.98291 0.67720 0.15376
 H1384 H 0.99898 0.65112 0.16951
 C1385 C 0.93548 0.90012 0.19409
 C1386 C 0.91668 0.90418 0.18847
 C1387 C 0.90658 0.91884 0.19725
 C1388 C 0.91500 0.92978 0.21191
 C1389 C 0.93384 0.92581 0.21747
 C1390 C 0.94397 0.91115 0.20866
 C1391 C 0.94606 0.88439 0.18488
 N1392 N 0.96460 0.88103 0.18940
 N1393 N 0.97401 0.86680 0.18120
 C1394 C 0.96529 0.85529 0.16815
 N1395 N 0.94677 0.85866 0.16363
 N1396 N 0.93736 0.87290 0.17181
 C1397 C 0.97568 0.83931 0.15916
 C1398 C 0.96617 0.82660 0.14677
 C1399 C 0.97587 0.81139 0.13851
 C1400 C 0.99532 0.80856 0.14236
 C1401 C 1.00489 0.82133 0.15461
 C1402 C 0.99517 0.83651 0.16295
 H1403 H 0.90972 0.89607 0.17723
 H1404 H 0.89222 0.92174 0.19239
 H1405 H 0.94065 0.93383 0.22887
 H1406 H 0.95840 0.90839 0.21339
 H1407 H 0.95117 0.82834 0.14350
 H1408 H 0.96818 0.80190 0.12895
 H1409 H 1.01983 0.81938 0.15801
 H1410 H 1.00295 0.84600 0.17241
 C1411 C 0.43706 0.40109 0.70070
 C1412 C 0.42416 0.39691 0.71545
 C1413 C 0.41409 0.41136 0.72464
 C1414 C 0.41676 0.43033 0.71937
 C1415 C 0.42986 0.43456 0.70485
 C1416 C 0.43985 0.42011 0.69557
 C1417 C 0.44732 0.38571 0.69057
 N1418 N 0.45821 0.38949 0.67503
 N1419 N 0.46722 0.37564 0.66576
 C1420 C 0.46574 0.35742 0.67165
 N1421 N 0.45489 0.35366 0.68723
 N1422 N 0.44585 0.36750 0.69647
 C1423 C 0.47574 0.34202 0.66130
 C1424 C 0.47576 0.32348 0.66847
 C1425 C 0.48534 0.30901 0.65878
 C1426 C 0.49508 0.31272 0.64167
 C1427 C 0.49493 0.33121 0.63443
 C1428 C 0.48542 0.34569 0.64415
 H1429 H 0.42168 0.38244 0.71980
 H1430 H 0.40425 0.40769 0.73594
 H1431 H 0.43206 0.44904 0.70035
 H1432 H 0.44969 0.42385 0.68430
 H1433 H 0.46851 0.32015 0.68167
 H1434 H 0.48540 0.29498 0.66487
 H1435 H 0.50204 0.33447 0.62113
 H1436 H 0.48560 0.35976 0.63814
 C1437 C 0.43011 0.59978 0.79191
 C1438 C 0.41194 0.59510 0.79897
 C1439 C 0.40291 0.57828 0.79335
 C1440 C 0.41177 0.56577 0.78047
 C1441 C 0.42981 0.57054 0.77320
 C1442 C 0.43891 0.58733 0.77889
 C1443 C 0.43990 0.61737 0.79839
 N1444 N 0.45819 0.62108 0.79317
 N1445 N 0.46715 0.63660 0.79947
 C1446 C 0.45820 0.64911 0.81122
 N1447 N 0.43987 0.64546 0.81631
 N1448 N 0.43093 0.62993 0.81004
 C1449 C 0.46841 0.66600 0.81885
 C1450 C 0.45884 0.67939 0.83026
 C1451 C 0.46870 0.69479 0.83827
 C1452 C 0.48835 0.69709 0.83512
 C1453 C 0.49784 0.68396 0.82338
 C1454 C 0.48798 0.66862 0.81530
 H1455 H 0.40471 0.60435 0.80898
 H1456 H 0.38888 0.57512 0.79897
 H1457 H 0.43704 0.56110 0.76336
 H1458 H 0.45289 0.59050 0.77316
 H1459 H 0.44377 0.67785 0.83326
 H1460 H 0.46106 0.70460 0.84739
 H1461 H 0.51294 0.68553 0.82052
 H1462 H 0.49579 0.65864 0.80654
 C1463 C -0.06828 0.09800 0.28643
 C1464 C -0.08677 0.09389 0.29301
 C1465 C -0.09634 0.07756 0.28683
 C1466 C -0.08771 0.06497 0.27388
 C1467 C -0.06938 0.06922 0.26700
 C1468 C -0.05974 0.08553 0.27326
 C1469 C -0.05786 0.11494 0.29366
 N1470 N -0.03939 0.11813 0.28876
 N1471 N -0.02987 0.13302 0.29580
 C1472 C -0.03842 0.14537 0.30800
 N1473 N -0.05693 0.14226 0.31278
 N1474 N -0.06644 0.12736 0.30577
 C1475 C -0.02762 0.16153 0.31643
 C1476 C -0.03667 0.17458 0.32865
 C1477 C -0.02630 0.18928 0.33731
 C1478 C -0.00663 0.19124 0.33401
 C1479 C 0.00235 0.17844 0.32152
 C1480 C -0.00802 0.16377 0.31281
 H1481 H -0.09382 0.10318 0.30310
 H1482 H -0.11058 0.07482 0.29214
 H1483 H -0.06233 0.05970 0.25711
 H1484 H -0.04553 0.08826 0.26788
 H1485 H -0.05175 0.17330 0.33175
 H1486 H -0.03357 0.19883 0.34701
 H1487 H 0.01745 0.17975 0.31852
 H1488 H -0.00059 0.15404 0.30343
 C1489 C 0.06530 0.40552 0.29536
 C1490 C 0.07314 0.40496 0.27688
 C1491 C 0.08252 0.42080 0.26946
 C1492 C 0.08429 0.43752 0.28037
 C1493 C 0.07609 0.43820 0.29866
 C1494 C 0.06671 0.42241 0.30606
 C1495 C 0.05605 0.38856 0.30367
 N1496 N 0.04898 0.38910 0.32171
 N1497 N 0.04097 0.37383 0.32938
 C1498 C 0.03970 0.35732 0.31936
 N1499 N 0.04674 0.35677 0.30129
 N1500 N 0.05476 0.37206 0.29361
 C1501 C 0.03076 0.34037 0.32799
 C1502 C 0.02902 0.32332 0.31759
 C1503 C 0.02025 0.30749 0.32571
 C1504 C 0.01299 0.30837 0.34439
 C1505 C 0.01497 0.32532 0.35488
 C1506 C 0.02373 0.34112 0.34679
 H1507 H 0.07231 0.39220 0.26824
 H1508 H 0.08885 0.41980 0.25539
 H1509 H 0.07695 0.45097 0.30729
 H1510 H 0.06073 0.42343 0.32028
 H1511 H 0.03428 0.32223 0.30309
 H1512 H 0.01877 0.29469 0.31721
 H1513 H 0.00980 0.32635 0.36942
 H1514 H 0.02492 0.35395 0.35529
 C1515 C 0.56105 0.90960 0.78951
 C1516 C 0.57113 0.90761 0.77227
 C1517 C 0.58064 0.92308 0.76430
 C1518 C 0.58030 0.94089 0.77339
 C1519 C 0.56994 0.94296 0.79044
 C1520 C 0.56042 0.92751 0.79840
 C1521 C 0.55152 0.89306 0.79836
 N1522 N 0.54223 0.89488 0.81528
 N1523 N 0.53389 0.88000 0.82336
 C1524 C 0.53449 0.86264 0.81490
 N1525 N 0.54376 0.86082 0.79797
 N1526 N 0.55211 0.87571 0.78988
 C1527 C 0.52511 0.84609 0.82388
 C1528 C 0.52537 0.82822 0.81490
 C1529 C 0.51615 0.81274 0.82317
 C1530 C 0.50645 0.81478 0.84061
 C1531 C 0.50641 0.83257 0.84973
 C1532 C 0.51563 0.84805 0.84147
 H1533 H 0.57192 0.89404 0.76503
 H1534 H 0.58870 0.92097 0.75128
 H1535 H 0.56918 0.95656 0.79764
 H1536 H 0.55270 0.92960 0.81162
 H1537 H 0.53252 0.82619 0.80135
 H1538 H 0.51624 0.79926 0.81569
 H1539 H 0.49929 0.83452 0.86331
 H1540 H 0.51523 0.86156 0.84886
 C1541 C 0.68880 0.57122 0.09895
 C1542 C 0.68183 0.58917 0.09444
 C1543 C 0.68944 0.59940 0.07925
 C1544 C 0.70453 0.59212 0.06790
 C1545 C 0.71116 0.57376 0.07253
 C1546 C 0.70344 0.56358 0.08774
 C1547 C 0.68095 0.56064 0.11539
 N1548 N 0.68664 0.54268 0.11904
 N1549 N 0.67974 0.53329 0.13394
 C1550 C 0.66687 0.54147 0.14587
 N1551 N 0.66116 0.55942 0.14222
 N1552 N 0.66804 0.56879 0.12730
 C1553 C 0.65930 0.53107 0.16256
 C1554 C 0.64723 0.54009 0.17580
 C1555 C 0.64023 0.53030 0.19159
 C1556 C 0.64504 0.51126 0.19445
 C1557 C 0.65705 0.50223 0.18121
 C1558 C 0.66413 0.51202 0.16547
 H1559 H 0.67029 0.59538 0.10258
 H1560 H 0.68259 0.61268 0.07620
 H1561 H 0.72308 0.56729 0.06531
 H1562 H 0.70927 0.54980 0.09091
 H1563 H 0.64322 0.55474 0.17400
 H1564 H 0.63085 0.53756 0.20147
 H1565 H 0.66121 0.48763 0.18318
 H1566 H 0.67340 0.50464 0.15560
 C1567 C 0.19405 1.06685 0.59666
 C1568 C 0.18748 1.08474 0.59111
 C1569 C 0.19607 1.09432 0.57601
 C1570 C 0.21151 1.08629 0.56611
 C1571 C 0.21800 1.06833 0.57153
 C1572 C 0.20936 1.05870 0.58662
 C1573 C 0.18508 1.05686 0.61291
 N1574 N 0.19027 1.03895 0.61743
 N1575 N 0.18227 1.03007 0.63211
 C1576 C 0.16876 1.03872 0.64293
 N1577 N 0.16357 1.05663 0.63841
 N1578 N 0.17155 1.06550 0.62371
 C1579 C 0.15991 1.02888 0.65934
 C1580 C 0.14724 1.03846 0.67156
 C1581 C 0.13898 1.02920 0.68708
 C1582 C 0.14313 1.01013 0.69067
 C1583 C 0.15575 1.00053 0.67845
 C1584 C 0.16408 1.00980 0.66299
 H1585 H 0.17564 1.09139 0.59841
 H1586 H 0.19049 1.10798 0.57197
 H1587 H 0.22999 1.06185 0.56434
 H1588 H 0.21482 1.04496 0.59054
 H1589 H 0.14370 1.05315 0.66918
 H1590 H 0.12916 1.03690 0.69615
 H1591 H 0.15939 0.98589 0.68101
 H1592 H 0.17379 1.00199 0.65391
 C1593 C 0.19085 0.93901 0.90306
 C1594 C 0.18855 0.91936 0.90436
 C1595 C 0.19765 0.90919 0.91872
 C1596 C 0.20954 0.91826 0.93252
 C1597 C 0.21146 0.93821 0.93113
 C1598 C 0.20234 0.94832 0.91666
 C1599 C 0.18146 0.94962 0.88746
 N1600 N 0.18409 0.96858 0.88565
 N1601 N 0.17590 0.97798 0.87140
 C1602 C 0.16473 0.96881 0.85835
 N1603 N 0.16205 0.94987 0.86021
 N1604 N 0.17024 0.94048 0.87444
 C1605 C 0.15592 0.97913 0.84222
 C1606 C 0.14443 0.96947 0.82878
 C1607 C 0.13655 0.97902 0.81327
 C1608 C 0.13996 0.99845 0.81081
 C1609 C 0.15123 1.00819 0.82437
 C1610 C 0.15914 0.99863 0.83989
 H1611 H 0.17957 0.91171 0.89427
 H1612 H 0.19437 0.89426 0.91922
 H1613 H 0.22078 0.94631 0.94043
 H1614 H 0.20453 0.96348 0.91601
 H1615 H 0.14157 0.95447 0.83015
 H1616 H 0.12768 0.97119 0.80323
 H1617 H 0.15428 1.02313 0.82275
 H1618 H 0.16793 1.00652 0.84995
 C1619 C 0.70944 0.44008 0.40277
 C1620 C 0.70029 0.42479 0.41166
 C1621 C 0.70959 0.41458 0.42588
 C1622 C 0.72810 0.41967 0.43175
 C1623 C 0.73721 0.43511 0.42309
 C1624 C 0.72803 0.44511 0.40857
 C1625 C 0.69956 0.45061 0.38752
 N1626 N 0.70959 0.46044 0.37427
 N1627 N 0.70062 0.46956 0.36031
 C1628 C 0.68127 0.46933 0.35913
 N1629 N 0.67126 0.45962 0.37245
 N1630 N 0.68022 0.45038 0.38631
 C1631 C 0.67124 0.47927 0.34356
 C1632 C 0.65206 0.48456 0.34568
 C1633 C 0.64249 0.49379 0.33093
 C1634 C 0.65181 0.49758 0.31365
 C1635 C 0.67095 0.49223 0.31145
 C1636 C 0.68064 0.48332 0.32634
 H1637 H 0.68600 0.42053 0.40746
 H1638 H 0.70224 0.40282 0.43248
 H1639 H 0.75151 0.43923 0.42739
 H1640 H 0.73539 0.45689 0.40201
 H1641 H 0.64446 0.48169 0.35880
 H1642 H 0.62770 0.49771 0.33289
 H1643 H 0.67843 0.49512 0.29826
 H1644 H 0.69539 0.47933 0.32427
 C1645 C 0.80405 0.43963 0.59823
 C1646 C 0.78567 0.43153 0.59834
 C1647 C 0.77872 0.42166 0.58234
 C1648 C 0.79002 0.41959 0.56591
 C1649 C 0.80829 0.42786 0.56572
 C1650 C 0.81521 0.43779 0.58167
 C1651 C 0.81167 0.44973 0.61533
 N1652 N 0.82903 0.45834 0.61485
 N1653 N 0.83601 0.46722 0.63023
 C1654 C 0.82596 0.46786 0.64679
 N1655 N 0.80858 0.45926 0.64727
 N1656 N 0.80158 0.45040 0.63187
 C1657 C 0.83381 0.47772 0.66392
 C1658 C 0.82395 0.47744 0.68139
 C1659 C 0.83137 0.48681 0.69748
 C1660 C 0.84875 0.49673 0.69645
 C1661 C 0.85865 0.49695 0.67902
 C1662 C 0.85129 0.48754 0.66295
 H1663 H 0.77667 0.43269 0.61085
 H1664 H 0.76465 0.41528 0.58298
 H1665 H 0.81724 0.42671 0.55318
 H1666 H 0.82940 0.44388 0.58103
 H1667 H 0.81047 0.47002 0.68266
 H1668 H 0.82333 0.48656 0.71068
 H1669 H 0.87220 0.50427 0.67785
 H1670 H 0.85931 0.48801 0.64977
 C1671 C 0.29908 -0.06360 0.09314
 C1672 C 0.30814 -0.06322 0.07524
 C1673 C 0.30005 -0.07248 0.05945
 C1674 C 0.28271 -0.08238 0.06115
 C1675 C 0.27349 -0.08255 0.07896
 C1676 C 0.28158 -0.07328 0.09478
 C1677 C 0.30800 -0.05415 0.10997
 N1678 N 0.29929 -0.05418 0.12730
 N1679 N 0.30744 -0.04578 0.14239
 C1680 C 0.32467 -0.03702 0.14081
 N1681 N 0.33335 -0.03701 0.12349
 N1682 N 0.32521 -0.04539 0.10841
 C1683 C 0.33377 -0.02751 0.15751
 C1684 C 0.35171 -0.01874 0.15568
 C1685 C 0.36016 -0.00936 0.17119
 C1686 C 0.35088 -0.00847 0.18894
 C1687 C 0.33309 -0.01749 0.19092
 C1688 C 0.32461 -0.02689 0.17537
 H1689 H 0.32157 -0.05582 0.07340
 H1690 H 0.30737 -0.07184 0.04586
 H1691 H 0.26022 -0.09023 0.08078
 H1692 H 0.27421 -0.07388 0.10834
 H1693 H 0.35926 -0.01903 0.14220
 H1694 H 0.37404 -0.00283 0.16931
 H1695 H 0.32552 -0.01691 0.20438
 H1696 H 0.31078 -0.03350 0.17730
 C1697 C 0.29850 0.06586 0.40327
 C1698 C 0.28056 0.07452 0.40155
 C1699 C 0.27238 0.08393 0.41715
 C1700 C 0.28196 0.08491 0.43481
 C1701 C 0.29975 0.07602 0.43660
 C1702 C 0.30792 0.06661 0.42104
 C1703 C 0.30750 0.05633 0.38664
 N1704 N 0.32498 0.04830 0.38831
 N1705 N 0.33320 0.03989 0.37338
 C1706 C 0.32433 0.03915 0.35611
 N1707 N 0.30683 0.04716 0.35442
 N1708 N 0.29860 0.05559 0.36936
 C1709 C 0.33353 0.02966 0.33956
 C1710 C 0.32430 0.02857 0.32169
 C1711 C 0.33290 0.01925 0.30626
 C1712 C 0.35088 0.01079 0.30837
 C1713 C 0.36020 0.01212 0.32614
 C1714 C 0.35164 0.02143 0.34154
 H1715 H 0.27290 0.07423 0.38809
 H1716 H 0.25875 0.09082 0.41525
 H1717 H 0.30736 0.07629 0.45009
 H1718 H 0.32170 0.06002 0.42294
 H1719 H 0.31035 0.03475 0.31965
 H1720 H 0.32530 0.01831 0.29279
 H1721 H 0.37421 0.00602 0.32812
 H1722 H 0.35924 0.02209 0.35503
 C1723 C 0.79494 0.57128 0.91007
 C1724 C 0.79876 0.56632 0.92912
 C1725 C 0.79005 0.57603 0.94424
 C1726 C 0.77740 0.59098 0.94066
 C1727 C 0.77375 0.59602 0.92160
 C1728 C 0.78234 0.58626 0.90651
 C1729 C 0.80393 0.56093 0.89395
 N1730 N 0.79810 0.56389 0.87569
 N1731 N 0.80607 0.55461 0.86116
 C1732 C 0.82028 0.54200 0.86423
 N1733 N 0.82616 0.53904 0.88248
 N1734 N 0.81813 0.54829 0.89704
 C1735 C 0.82909 0.53167 0.84799
 C1736 C 0.84558 0.52075 0.85066
 C1737 C 0.85383 0.51105 0.83529
 C1738 C 0.84571 0.51192 0.81692
 C1739 C 0.82920 0.52282 0.81427
 C1740 C 0.82104 0.53262 0.82960
 H1741 H 0.80833 0.55480 0.93236
 H1742 H 0.79301 0.57164 0.95873
 H1743 H 0.76442 0.60772 0.91831
 H1744 H 0.77919 0.59058 0.89204
 H1745 H 0.85223 0.51981 0.86461
 H1746 H 0.86671 0.50303 0.83777
 H1747 H 0.82240 0.52356 0.80039
 H1748 H 0.80827 0.54080 0.82703
 C1749 C 0.09828 0.69415 0.57215
 C1750 C 0.07944 0.68841 0.56810
 C1751 C 0.06410 0.69659 0.57779
 C1752 C 0.06728 0.71057 0.59185
 C1753 C 0.08609 0.71638 0.59584
 C1754 C 0.10141 0.70831 0.58606
 C1755 C 0.11460 0.68533 0.56209
 N1756 N 0.13256 0.69234 0.56434
 N1757 N 0.14727 0.68434 0.55544
 C1758 C 0.14466 0.66895 0.54395
 N1759 N 0.12670 0.66194 0.54169
 N1760 N 0.11198 0.66997 0.55055
 C1761 C 0.16105 0.65999 0.53413
 C1762 C 0.15876 0.64269 0.52431
 C1763 C 0.17421 0.63424 0.51506
 C1764 C 0.19229 0.64296 0.51529
 C1765 C 0.19458 0.66025 0.52514
 C1766 C 0.17916 0.66864 0.53448
 H1767 H 0.07652 0.67756 0.55744
 H1768 H 0.04976 0.69175 0.57454
 H1769 H 0.08894 0.72730 0.60644
 H1770 H 0.11571 0.71309 0.58954
 H1771 H 0.14505 0.63556 0.52386
 H1772 H 0.17202 0.62076 0.50788
 H1773 H 0.20825 0.66746 0.52537
 H1774 H 0.18141 0.68202 0.54183
 C1775 C 0.60176 0.19930 1.06445
 C1776 C 0.58265 0.19385 1.06142
 C1777 C 0.56796 0.20241 1.07178
 C1778 C 0.57206 0.21654 1.08546
 C1779 C 0.59111 0.22222 1.08825
 C1780 C 0.60579 0.21373 1.07785
 C1781 C 0.61745 0.18976 1.05402
 N1782 N 0.63580 0.19566 1.05625
 N1783 N 0.64996 0.18690 1.04720
 C1784 C 0.64639 0.17180 1.03555
 N1785 N 0.62803 0.16591 1.03329
 N1786 N 0.61387 0.17470 1.04233
 C1787 C 0.66220 0.16198 1.02559
 C1788 C 0.65870 0.14557 1.01460
 C1789 C 0.67363 0.13639 1.00516
 C1790 C 0.69238 0.14343 1.00647
 C1791 C 0.69589 0.15980 1.01751
 C1792 C 0.68099 0.16895 1.02698
 H1793 H 0.57903 0.18281 1.05119
 H1794 H 0.55343 0.19762 1.06945
 H1795 H 0.59467 0.23325 1.09852
 H1796 H 0.62031 0.21836 1.08050
 H1797 H 0.64443 0.13975 1.01330
 H1798 H 0.67050 0.12367 0.99697
 H1799 H 0.71012 0.16575 1.01856
 H1800 H 0.68421 0.18158 1.03526
 C1801 C 0.90262 0.19439 0.93500
 C1802 C 0.92173 0.18988 0.93861
 C1803 C 0.93650 0.19897 0.92880
 C1804 C 0.93270 0.21299 0.91487
 C1805 C 0.91320 0.21711 0.91133
 C1806 C 0.89857 0.20806 0.92123
 C1807 C 0.88688 0.18500 0.94548
 N1808 N 0.86868 0.19126 0.94364
 N1809 N 0.85444 0.18293 0.95294
 C1810 C 0.85774 0.16794 0.96447
 N1811 N 0.87594 0.16165 0.96634
 N1812 N 0.89022 0.17003 0.95706
 C1813 C 0.84174 0.15868 0.97466
 C1814 C 0.84445 0.14171 0.98462
 C1815 C 0.82916 0.13290 0.99387
 C1816 C 0.81084 0.14091 0.99340
 C1817 C 0.80822 0.15800 0.98363
 C1818 C 0.82345 0.16674 0.97434
 H1819 H 0.92537 0.17949 0.94930
 H1820 H 0.95081 0.19537 0.93311
 H1821 H 0.90869 0.22664 0.90026
 H1822 H 0.88396 0.21167 0.91782
 H1823 H 0.85834 0.13509 0.98511
 H1824 H 0.83161 0.11964 1.00110
 H1825 H 0.79439 0.16475 0.98332
 H1826 H 0.82085 0.17988 0.96695
 C1827 C 0.40180 0.69988 0.44422
 C1828 C 0.41018 0.69062 0.42853
 C1829 C 0.42419 0.69968 0.41775
 C1830 C 0.43037 0.71801 0.42267
 C1831 C 0.42230 0.72718 0.43855
 C1832 C 0.40796 0.71826 0.44912
 C1833 C 0.38652 0.69043 0.45516
 N1834 N 0.37343 0.70072 0.46499
 N1835 N 0.35930 0.69217 0.47431
 C1836 C 0.35778 0.67299 0.47431
 N1837 N 0.37098 0.66271 0.46463
 N1838 N 0.38500 0.67126 0.45518
 C1839 C 0.34189 0.66348 0.48430
 C1840 C 0.34360 0.64458 0.49016
 C1841 C 0.32848 0.63552 0.49939
 C1842 C 0.31126 0.64507 0.50257
 C1843 C 0.30949 0.66391 0.49666
 C1844 C 0.32474 0.67310 0.48778
 H1845 H 0.40567 0.67649 0.42437
 H1846 H 0.43033 0.69231 0.40562
 H1847 H 0.42685 0.74134 0.44254
 H1848 H 0.40180 0.72569 0.46119
 H1849 H 0.35667 0.63684 0.48772
 H1850 H 0.33011 0.62096 0.50379
 H1851 H 0.29636 0.67156 0.49909
 H1852 H 0.32298 0.68763 0.48334
 C1853 C 0.59788 0.79357 0.43435
 C1854 C 0.59444 0.79803 0.41511
 C1855 C 0.57823 0.79110 0.40568
 C1856 C 0.56507 0.77951 0.41523
 C1857 C 0.56865 0.77474 0.43436
 C1858 C 0.58486 0.78172 0.44383
 C1859 C 0.61478 0.80152 0.44448
 N1860 N 0.61773 0.79811 0.46334
 N1861 N 0.63270 0.80561 0.47248
 C1862 C 0.64537 0.81683 0.46317
 N1863 N 0.64244 0.82018 0.44430
 N1864 N 0.62747 0.81270 0.43517
 C1865 C 0.66188 0.82545 0.47339
 C1866 C 0.67513 0.83677 0.46358
 C1867 C 0.69055 0.84509 0.47325
 C1868 C 0.69308 0.84231 0.49295
 C1869 C 0.67989 0.83095 0.50275
 C1870 C 0.66448 0.82260 0.49309
 H1871 H 0.60419 0.80703 0.40731
 H1872 H 0.57603 0.79477 0.39085
 H1873 H 0.55868 0.76595 0.44213
 H1874 H 0.58707 0.77798 0.45864
 H1875 H 0.67357 0.83930 0.44842
 H1876 H 0.70036 0.85394 0.46535
 H1877 H 0.68160 0.82835 0.51789
 H1878 H 0.65460 0.81393 0.50109
 C1879 C 0.09718 0.29474 -0.06361
 C1880 C 0.08028 0.29038 -0.05376
 C1881 C 0.06413 0.28388 -0.06365
 C1882 C 0.06452 0.28151 -0.08361
 C1883 C 0.08150 0.28567 -0.09342
 C1884 C 0.09760 0.29226 -0.08355
 C1885 C 0.11419 0.30203 -0.05321
 N1886 N 0.12961 0.30861 -0.06288
 N1887 N 0.14476 0.31548 -0.05355
 C1888 C 0.14518 0.31600 -0.03414
 N1889 N 0.12980 0.30933 -0.02447
 N1890 N 0.11463 0.30251 -0.03380
 C1891 C 0.16184 0.32404 -0.02373
 C1892 C 0.16306 0.32275 -0.00373
 C1893 C 0.17841 0.33090 0.00617
 C1894 C 0.19286 0.34063 -0.00365
 C1895 C 0.19182 0.34165 -0.02368
 C1896 C 0.17651 0.33342 -0.03361
 H1897 H 0.07942 0.29220 -0.03840
 H1898 H 0.05122 0.28104 -0.05568
 H1899 H 0.08242 0.28367 -0.10874
 H1900 H 0.11041 0.29534 -0.09158
 H1901 H 0.15212 0.31549 0.00432
 H1902 H 0.17897 0.32956 0.02157
 H1903 H 0.20261 0.34923 -0.03165
 H1904 H 0.17600 0.33472 -0.04901
 C1905 C 0.40496 0.29214 0.07510
 C1906 C 0.41713 0.27925 0.06584
 C1907 C 0.43325 0.27225 0.07517
 C1908 C 0.43763 0.27807 0.09393
 C1909 C 0.42539 0.29082 0.10326
 C1910 C 0.40923 0.29774 0.09397
 C1911 C 0.38810 0.29993 0.06508
 N1912 N 0.37562 0.31137 0.07440
 N1913 N 0.36069 0.31869 0.06531
 C1914 C 0.35761 0.31490 0.04649
 N1915 N 0.37005 0.30341 0.03718
 N1916 N 0.38496 0.29606 0.04628
 C1917 C 0.34127 0.32344 0.03622
 C1918 C 0.33929 0.32108 0.01634
 C1919 C 0.32427 0.32962 0.00655
 C1920 C 0.31083 0.34065 0.01641
 C1921 C 0.31259 0.34278 0.03631
 C1922 C 0.32768 0.33432 0.04611
 H1923 H 0.41427 0.27461 0.05131
 H1924 H 0.44251 0.26255 0.06758
 H1925 H 0.42825 0.29535 0.11782
 H1926 H 0.40016 0.30760 0.10157
 H1927 H 0.34945 0.31277 0.00826
 H1928 H 0.32312 0.32752 -0.00876
 H1929 H 0.30253 0.35134 0.04425
 H1930 H 0.32875 0.33642 0.06142
 C1931 C 0.90596 0.79328 0.56662
 C1932 C 0.90375 0.77623 0.57663
 C1933 C 0.91898 0.76865 0.58694
 C1934 C 0.93676 0.77794 0.58748
 C1935 C 0.93905 0.79480 0.57723
 C1936 C 0.92385 0.80238 0.56692
 C1937 C 0.88968 0.80174 0.55621
 N1938 N 0.89169 0.81858 0.54722
 N1939 N 0.87702 0.82639 0.53814
 C1940 C 0.85970 0.81771 0.53765
 N1941 N 0.85769 0.80082 0.54659
 N1942 N 0.87236 0.79301 0.55569
 C1943 C 0.84336 0.82654 0.52765
 C1944 C 0.82555 0.81733 0.52660
 C1945 C 0.81020 0.82572 0.51714
 C1946 C 0.81232 0.84349 0.50852
 C1947 C 0.83009 0.85273 0.50964
 C1948 C 0.84543 0.84435 0.51907
 H1949 H 0.89017 0.76885 0.57672
 H1950 H 0.91671 0.75574 0.59487
 H1951 H 0.95266 0.80213 0.57713
 H1952 H 0.92612 0.81546 0.55930
 H1953 H 0.82345 0.80359 0.53301
 H1954 H 0.79673 0.81816 0.51634
 H1955 H 0.83210 0.86657 0.50341
 H1956 H 0.85890 0.85191 0.51968
   
