data_POSCAR
  _audit_creation_date              2014-09-24
  _audit_creation_method            'ToBaCCo'
  _symmetry_space_group_name_H-M    'P1'
  _symmetry_Int_Tables_number       1
  _symmetry_cell_setting            triclinic
  loop_
  _symmetry_equiv_pos_as_xyz
 x,y,z
_cell_length_a 62.1923
_cell_length_b 62.2173
_cell_length_c 62.0375
_cell_angle_alpha 90.057300
_cell_angle_beta 90.041400
_cell_angle_gamma 89.985300
loop_
  _atom_site_label
  _atom_site_type_symbol
  _atom_site_fract_x
  _atom_site_fract_y
  _atom_site_fract_z
C1 C 0.36851 1.35148 0.33627
 C2 C 0.36881 1.33670 0.35336
 C3 C 0.35258 1.33703 0.36860
 C4 C 0.33592 1.35215 0.36705
 C5 C 0.33541 1.36630 0.34997
 C6 C 0.35179 1.36596 0.33448
 C7 C 0.38176 1.35461 0.31878
 N8 N 0.37341 1.37057 0.30621
 C9 C 0.35495 1.37746 0.31587
 C10 C 0.31689 1.37821 0.35185
 N11 N 0.30608 1.37188 0.36989
 C12 C 0.31781 1.35585 0.37923
 C13 C 0.35590 1.31991 0.38217
 N14 N 0.37367 1.30906 0.37550
 C15 C 0.38179 1.31937 0.35799
 H16 H 0.39597 1.34524 0.31524
 H17 H 0.34465 1.39029 0.31025
 H18 H 0.31209 1.39090 0.34096
 H19 H 0.31326 1.34678 0.39338
 H20 H 0.34567 1.31527 0.39549
 H21 H 0.39536 1.31392 0.34853
 C22 C 0.36587 0.85087 0.83492
 C23 C 0.36469 0.83366 0.84945
 C24 C 0.34793 0.83262 0.86401
 C25 C 0.33227 0.84879 0.86438
 C26 C 0.33359 0.86596 0.85039
 C27 C 0.35050 0.86697 0.83542
 C28 C 0.37942 0.85518 0.81797
 N29 N 0.37267 0.87347 0.80810
 C30 C 0.35506 0.88086 0.81877
 C31 C 0.31586 0.87873 0.85408
 N32 N 0.30357 0.86957 0.86983
 C33 C 0.31374 0.85119 0.87612
 C34 C 0.35027 0.81389 0.87548
 N35 N 0.36812 0.80352 0.86832
 C36 C 0.37704 0.81551 0.85235
 H37 H 0.39296 0.84546 0.81294
 H38 H 0.34566 0.89477 0.81415
 H39 H 0.31187 0.89309 0.84511
 H40 H 0.30844 0.84029 0.88860
 H41 H 0.33978 0.80829 0.88821
 H42 H 0.39122 0.81116 0.84322
 C43 C 0.86747 1.35116 0.83534
 C44 C 0.86637 1.33466 0.85073
 C45 C 0.84943 1.33405 0.86515
 C46 C 0.83352 1.35000 0.86457
 C47 C 0.83474 1.36633 0.84962
 C48 C 0.85164 1.36670 0.83467
 C49 C 0.88131 1.35516 0.81851
 N50 N 0.87403 1.37254 0.80724
 C51 C 0.85587 1.37967 0.81727
 C52 C 0.81717 1.37939 0.85270
 N53 N 0.80503 1.37133 0.86912
 C54 C 0.81504 1.35317 0.87631
 C55 C 0.85185 1.31585 0.87744
 N56 N 0.86984 1.30533 0.87087
 C57 C 0.87886 1.31678 0.85455
 H58 H 0.89491 1.34521 0.81419
 H59 H 0.84629 1.39338 0.81251
 H60 H 0.81331 1.39332 0.84303
 H61 H 0.80981 1.34318 0.88957
 H62 H 0.84119 1.31061 0.89018
 H63 H 0.89308 1.31210 0.84564
 C64 C 0.86760 0.85099 0.33622
 C65 C 0.86709 0.83479 0.35195
 C66 C 0.85021 0.83393 0.36641
 C67 C 0.83374 0.84926 0.36548
 C68 C 0.83422 0.86520 0.35000
 C69 C 0.85117 0.86591 0.33512
 C70 C 0.88132 0.85511 0.31933
 N71 N 0.87351 0.87198 0.30767
 C72 C 0.85500 0.87862 0.31743
 C73 C 0.81583 0.87730 0.35249
 N74 N 0.80422 0.86899 0.36906
 C75 C 0.81506 0.85179 0.37704
 C76 C 0.85300 0.81588 0.37882
 N77 N 0.87115 0.80563 0.37226
 C78 C 0.87995 0.81717 0.35588
 H79 H 0.89531 0.84558 0.31532
 H80 H 0.84495 0.89187 0.31234
 H81 H 0.81103 0.89084 0.34265
 H82 H 0.80979 0.84185 0.39034
 H83 H 0.84235 0.81042 0.39147
 H84 H 0.89412 0.81259 0.34685
 C85 C 0.63342 0.64950 0.33612
 C86 C 0.63376 0.66516 0.35236
 C87 C 0.64891 0.66410 0.36866
 C88 C 0.66410 0.64740 0.36878
 C89 C 0.66368 0.63194 0.35273
 C90 C 0.64808 0.63288 0.33642
 C91 C 0.62119 0.64715 0.31781
 N92 N 0.62784 0.62928 0.30693
 C93 C 0.64434 0.62047 0.31844
 C94 C 0.68111 0.61873 0.35588
 N95 N 0.69217 0.62577 0.37341
 C96 C 0.68177 0.64322 0.38151
 C97 C 0.64580 0.68175 0.38171
 N98 N 0.62916 0.69347 0.37368
 C99 C 0.62176 0.68341 0.35570
 H100 H 0.60814 0.65767 0.31316
 H101 H 0.65377 0.60663 0.31372
 H102 H 0.68570 0.60528 0.34579
 H103 H 0.68727 0.65283 0.39499
 H104 H 0.65525 0.68600 0.39574
 H105 H 0.60853 0.68891 0.34578
 C106 C 0.63221 0.14820 0.83685
 C107 C 0.63216 0.16436 0.85263
 C108 C 0.64858 0.16531 0.86763
 C109 C 0.66531 0.15024 0.86697
 C110 C 0.66531 0.13426 0.85153
 C111 C 0.64876 0.13341 0.83615
 C112 C 0.61875 0.14383 0.81982
 N113 N 0.62682 0.12691 0.80840
 C114 C 0.64526 0.12050 0.81847
 C115 C 0.68354 0.12210 0.85475
 N116 N 0.69486 0.13049 0.87164
 C117 C 0.68365 0.14783 0.87906
 C118 C 0.64477 0.18286 0.88056
 N119 N 0.62652 0.19270 0.87368
 C120 C 0.61872 0.18151 0.85656
 H121 H 0.60471 0.15319 0.81559
 H122 H 0.65543 0.10725 0.81362
 H123 H 0.68846 0.10865 0.84485
 H124 H 0.68802 0.15780 0.89266
 H125 H 0.65489 0.18842 0.89364
 H126 H 0.60435 0.18558 0.84758
 C127 C 1.13380 0.64915 0.83641
 C128 C 1.13272 0.66412 0.85326
 C129 C 1.14791 0.66374 0.86955
 C130 C 1.16428 0.64822 0.86927
 C131 C 1.16545 0.63358 0.85256
 C132 C 1.15000 0.63392 0.83607
 C133 C 1.12171 0.64635 0.81807
 N134 N 1.13006 0.62970 0.80664
 C135 C 1.14736 0.62196 0.81755
 C136 C 1.18354 0.62130 0.85589
 N137 N 1.19340 0.62789 0.87442
 C138 C 1.18149 0.64437 0.88266
 C139 C 1.14361 0.68084 0.88298
 N140 N 1.12614 0.69148 0.87527
 C141 C 1.11934 0.68129 0.85713
 H142 H 1.10782 0.65576 0.81340
 H143 H 1.15759 0.60895 0.81215
 H144 H 1.18872 0.60824 0.84561
 H145 H 1.18538 0.65372 0.89685
 H146 H 1.15270 0.68537 0.89717
 H147 H 1.10613 0.68648 0.84702
 C148 C 1.13358 0.14892 0.33631
 C149 C 1.13244 0.16369 0.35333
 C150 C 1.14792 0.16353 0.36932
 C151 C 1.16486 0.14866 0.36837
 C152 C 1.16630 0.13449 0.35129
 C153 C 1.15048 0.13460 0.33511
 C154 C 1.12065 0.14539 0.31871
 N155 N 1.12924 0.12925 0.30655
 C156 C 1.14769 0.12273 0.31656
 C157 C 1.18471 0.12258 0.35424
 N158 N 1.19448 0.12893 0.37291
 C159 C 1.18223 0.14496 0.38156
 C160 C 1.14334 0.18023 0.38315
 N161 N 1.12558 0.19065 0.37578
 C162 C 1.11875 0.18052 0.35761
 H163 H 1.10636 0.15453 0.31490
 H164 H 1.15809 0.10982 0.31132
 H165 H 1.19008 0.10980 0.34371
 H166 H 1.18587 0.15399 0.39601
 H167 H 1.15283 0.18507 0.39696
 H168 H 1.10510 0.18532 0.34791
 C169 C 0.63344 1.35150 0.66444
 C170 C 0.63406 1.33512 0.64889
 C171 C 0.64947 1.33559 0.63284
 C172 C 0.66437 1.35247 0.63202
 C173 C 0.66369 1.36865 0.64730
 C174 C 0.64797 1.36824 0.66351
 C175 C 0.62090 1.35470 0.68242
 N176 N 0.62724 1.37318 0.69243
 C177 C 0.64382 1.38152 0.68073
 C178 C 0.68074 1.38217 0.64328
 N179 N 0.69165 1.37461 0.62587
 C180 C 0.68168 1.35649 0.61885
 C181 C 0.64686 1.31737 0.62057
 N182 N 0.63014 1.30589 0.62867
 C183 C 0.62219 1.31666 0.64600
 H184 H 0.60784 1.34437 0.68741
 H185 H 0.65302 1.39571 0.68480
 H186 H 0.68504 1.39631 0.65250
 H187 H 0.68709 1.34651 0.60562
 H188 H 0.65641 1.31282 0.60671
 H189 H 0.60907 1.31121 0.65606
 C190 C 0.63261 0.85181 1.16418
 C191 C 0.63371 0.83528 1.14881
 C192 C 0.64976 0.83546 1.13337
 C193 C 0.66485 0.85221 1.13300
 C194 C 0.66363 0.86853 1.14808
 C195 C 0.64729 0.86842 1.16363
 C196 C 0.61959 0.85519 1.18180
 N197 N 0.62582 0.87366 1.19192
 C198 C 0.64278 0.88181 1.18066
 C199 C 0.68105 0.88175 1.14490
 N200 N 0.69282 0.87389 1.12822
 C201 C 0.68295 0.85587 1.12075
 C202 C 0.64749 0.81707 1.12124
 N203 N 0.63036 0.80582 1.12883
 C204 C 0.62185 0.81686 1.14571
 H205 H 0.60637 0.84495 1.18655
 H206 H 0.65206 0.89587 1.18499
 H207 H 0.68509 0.89584 1.15433
 H208 H 0.68900 0.84565 1.10799
 H209 H 0.65754 0.81228 1.10783
 H210 H 0.60833 0.81163 1.15535
 C211 C 1.13468 1.34973 1.16421
 C212 C 1.13379 1.33493 1.14720
 C213 C 1.14907 1.33557 1.13103
 C214 C 1.16535 1.35117 1.13159
 C215 C 1.16633 1.36564 1.14846
 C216 C 1.15077 1.36505 1.16482
 C217 C 1.12238 1.35237 1.18243
 N218 N 1.13052 1.36902 1.19403
 C219 C 1.14788 1.37690 1.18336
 C220 C 1.18431 1.37812 1.14536
 N221 N 1.19429 1.37182 1.12681
 C222 C 1.18256 1.35531 1.11833
 C223 C 1.14487 1.31866 1.11730
 N224 N 1.12736 1.30789 1.12473
 C225 C 1.12046 1.31780 1.14298
 H226 H 1.10847 1.34290 1.18688
 H227 H 1.15795 1.38997 1.18892
 H228 H 1.18932 1.39113 1.15579
 H229 H 1.18657 1.34618 1.10405
 H230 H 1.15401 1.31439 1.10309
 H231 H 1.10716 1.31249 1.15288
 C232 C 1.13131 0.85226 0.66234
 C233 C 1.13233 0.83589 0.64681
 C234 C 1.14877 0.83577 0.63179
 C235 C 1.16435 0.85208 0.63201
 C236 C 1.16332 0.86819 0.64734
 C237 C 1.14665 0.86834 0.66253
 C238 C 1.11785 0.85585 0.67960
 N239 N 1.12461 0.87379 0.69013
 C240 C 1.14221 0.88152 0.67976
 C241 C 1.18109 0.88104 0.64460
 N242 N 1.19287 0.87319 0.62792
 C243 C 1.18270 0.85550 0.62007
 C244 C 1.14640 0.81750 0.61952
 N245 N 1.12888 0.80655 0.62666
 C246 C 1.12016 0.81773 0.64333
 H247 H 1.10424 0.84605 0.68422
 H248 H 1.15154 0.89534 0.68479
 H249 H 1.18525 0.89497 0.65420
 H250 H 1.18861 0.84541 0.60714
 H251 H 1.15676 0.81249 0.60643
 H252 H 1.10640 0.81268 0.65272
 C253 C 0.36668 0.64830 0.66488
 C254 C 0.36635 0.66520 0.64998
 C255 C 0.35076 0.66577 0.63411
 C256 C 0.33518 0.64952 0.63306
 C257 C 0.33565 0.63269 0.64754
 C258 C 0.35152 0.63208 0.66364
 C259 C 0.37921 0.64434 0.68269
 N260 N 0.37205 0.62611 0.69237
 C261 C 0.35515 0.61846 0.68075
 C262 C 0.31815 0.61985 0.64314
 N263 N 0.30676 0.62864 0.62652
 C264 C 0.31731 0.64683 0.62032
 C265 C 0.35393 0.68425 0.62237
 N266 N 0.37104 0.69494 0.63079
 C267 C 0.37868 0.68342 0.64775
 H268 H 0.39243 0.65417 0.68832
 H269 H 0.34567 0.60447 0.68490
 H270 H 0.31357 0.60581 0.65232
 H271 H 0.31264 0.65748 0.60738
 H272 H 0.34421 0.68975 0.60899
 H273 H 0.39227 0.68790 0.65769
 C274 C 0.36721 0.14677 1.16300
 C275 C 0.36672 0.16386 1.14824
 C276 C 0.35041 0.16495 1.13311
 C277 C 0.33454 0.14899 1.13236
 C278 C 0.33519 0.13203 1.14662
 C279 C 0.35150 0.13102 1.16221
 C280 C 0.37989 0.14254 1.18071
 N281 N 0.37211 0.12477 1.19077
 C282 C 0.35482 0.11758 1.17947
 C283 C 0.31734 0.11954 1.14270
 N284 N 0.30562 0.12862 1.12648
 C285 C 0.31622 0.14675 1.12019
 C286 C 0.35307 0.18372 1.12180
 N287 N 0.37065 0.19410 1.12961
 C288 C 0.37913 0.18205 1.14579
 H289 H 0.39305 0.15235 1.18652
 H290 H 0.34495 0.10394 1.18383
 H291 H 0.31285 0.10546 1.15186
 H292 H 0.31134 0.15758 1.10747
 H293 H 0.34287 0.18946 1.10888
 H294 H 0.39291 0.18649 1.15549
 C295 C 0.86792 0.64741 1.16399
 C296 C 0.86755 0.66396 1.14868
 C297 C 0.85188 0.66424 1.13285
 C298 C 0.83624 0.64799 1.13223
 C299 C 0.83661 0.63167 1.14736
 C300 C 0.85250 0.63143 1.16341
 C301 C 0.88085 0.64349 1.18155
 N302 N 0.87358 0.62558 1.19172
 C303 C 0.85620 0.61811 1.18072
 C304 C 0.81930 0.61854 1.14326
 N305 N 0.80835 0.62652 1.12608
 C306 C 0.81860 0.64457 1.11925
 C307 C 0.85508 0.68250 1.12073
 N308 N 0.87221 0.69334 1.12894
 C309 C 0.87992 0.68207 1.14603
 H310 H 0.89421 0.65331 1.18689
 H311 H 0.84689 0.60406 1.18504
 H312 H 0.81468 0.60452 1.15249
 H313 H 0.81360 0.65450 1.10584
 H314 H 0.84527 0.68783 1.10734
 H315 H 0.89350 0.68674 1.15591
 C316 C 0.86890 0.14586 0.66234
 C317 C 0.86961 0.16192 0.64645
 C318 C 0.85350 0.16309 0.63110
 C319 C 0.83662 0.14817 0.63124
 C320 C 0.83599 0.13236 0.64684
 C321 C 0.85210 0.13137 0.66260
 C322 C 0.88151 0.14158 0.68009
 N323 N 0.87257 0.12503 0.69141
 C324 C 0.85455 0.11875 0.68057
 C325 C 0.81751 0.12066 0.64358
 N326 N 0.80687 0.12904 0.62640
 C327 C 0.81843 0.14594 0.61880
 C328 C 0.85745 0.18092 0.61866
 N329 N 0.87556 0.19067 0.62605
 C330 C 0.88316 0.17909 0.64301
 H331 H 0.89545 0.15080 0.68490
 H332 H 0.84385 0.10584 0.68512
 H333 H 0.81193 0.10736 0.65334
 H334 H 0.81396 0.15589 0.60521
 H335 H 0.84767 0.18654 0.60537
 H336 H 0.89704 0.18331 0.65267
 C337 C 1.35500 0.36953 0.66220
 C338 C 1.33827 0.36906 0.64705
 C339 C 1.33681 0.35221 0.63260
 C340 C 1.35213 0.33570 0.63297
 C341 C 1.36881 0.33628 0.64765
 C342 C 1.37013 0.35322 0.66257
 C343 C 1.35954 0.38312 0.67909
 N344 N 1.37692 0.37537 0.68986
 C345 C 1.38355 0.35711 0.67980
 C346 C 1.38096 0.31805 0.64444
 N347 N 1.37193 0.30618 0.62828
 C348 C 1.35418 0.31703 0.62132
 C349 C 1.31862 0.35546 0.62042
 N350 N 1.30900 0.37393 0.62707
 C351 C 1.32095 0.38234 0.64339
 H352 H 1.35024 0.39706 0.68380
 H353 H 1.39687 0.34713 0.68489
 H354 H 1.39485 0.31352 0.65391
 H355 H 1.34363 0.31218 0.60834
 H356 H 1.31285 0.34514 0.60760
 H357 H 1.31707 0.39679 0.65230
 C358 C 1.35071 0.86713 1.16405
 C359 C 1.33420 0.86624 1.14870
 C360 C 1.33405 0.85003 1.13353
 C361 C 1.35046 0.83463 1.13337
 C362 C 1.36705 0.83574 1.14814
 C363 C 1.36715 0.85219 1.16373
 C364 C 1.35371 0.87994 1.18180
 N365 N 1.37167 0.87333 1.19253
 C366 C 1.38010 0.85643 1.18128
 C367 C 1.38000 0.81806 1.14461
 N368 N 1.37142 0.80604 1.12828
 C369 C 1.35334 0.81635 1.12139
 C370 C 1.31564 0.85235 1.12148
 N371 N 1.30465 0.86972 1.12890
 C372 C 1.31590 0.87830 1.14561
 H373 H 1.34333 0.89313 1.18634
 H374 H 1.39383 0.84690 1.18611
 H375 H 1.39392 0.81379 1.15416
 H376 H 1.34290 0.81124 1.10842
 H377 H 1.31063 0.84215 1.10825
 H378 H 1.31088 0.89198 1.15515
 C379 C 0.85363 0.36752 1.16376
 C380 C 0.83711 0.36766 1.14831
 C381 C 0.83572 0.35122 1.13334
 C382 C 0.85092 0.33458 1.13342
 C383 C 0.86732 0.33462 1.14838
 C384 C 0.86847 0.35101 1.16386
 C385 C 0.85813 0.38046 1.18122
 N386 N 0.87511 0.37197 1.19228
 C387 C 0.88151 0.35396 1.18147
 C388 C 0.87942 0.31644 1.14492
 N389 N 0.87066 0.30508 1.12827
 C390 C 0.85307 0.31620 1.12129
 C391 C 0.81766 0.35486 1.12110
 N392 N 0.80800 0.37312 1.12821
 C393 C 0.81982 0.38108 1.14486
 H394 H 0.84870 0.39423 1.18611
 H395 H 0.89470 0.34353 1.18589
 H396 H 0.89307 0.31157 1.15456
 H397 H 0.84272 0.31170 1.10802
 H398 H 0.81196 0.34488 1.10798
 H399 H 0.81583 0.39525 1.15418
 C400 C 0.85313 0.86897 0.66112
 C401 C 0.83746 0.86861 0.64485
 C402 C 0.83736 0.85217 0.62981
 C403 C 0.85299 0.83594 0.63074
 C404 C 0.86834 0.83624 0.64686
 C405 C 0.86840 0.85283 0.66215
 C406 C 0.85644 0.88223 0.67859
 N407 N 0.87326 0.87446 0.69021
 C408 C 0.88066 0.85648 0.68023
 C409 C 0.88058 0.81798 0.64463
 N410 N 0.87311 0.80661 0.62747
 C411 C 0.85622 0.81751 0.61887
 C412 C 0.81954 0.85503 0.61700
 N413 N 0.80880 0.87279 0.62387
 C414 C 0.81973 0.88125 0.64085
 H415 H 0.84682 0.89608 0.68292
 H416 H 0.89389 0.84663 0.68580
 H417 H 0.89389 0.81326 0.65483
 H418 H 0.84657 0.81210 0.60538
 H419 H 0.81454 0.84466 0.60390
 H420 H 0.81463 0.89500 0.65025
 C421 C 0.64808 0.63273 0.66375
 C422 C 0.66447 0.63305 0.64826
 C423 C 0.66470 0.64877 0.63249
 C424 C 0.64855 0.66456 0.63215
 C425 C 0.63246 0.66426 0.64755
 C426 C 0.63213 0.64817 0.66334
 C427 C 0.64440 0.61993 0.68144
 N428 N 0.62651 0.62718 0.69171
 C429 C 0.61891 0.64447 0.68072
 C430 C 0.61994 0.68218 0.64439
 N431 N 0.62799 0.69342 0.62746
 C432 C 0.64543 0.68269 0.61977
 C433 C 0.68300 0.64561 0.62037
 N434 N 0.69386 0.62848 0.62853
 C435 C 0.68259 0.62072 0.64557
 H436 H 0.65408 0.60638 0.68650
 H437 H 0.60514 0.65405 0.68537
 H438 H 0.60620 0.68690 0.65399
 H439 H 0.65565 0.68817 0.60677
 H440 H 0.68839 0.65550 0.60707
 H441 H 0.68733 0.60718 0.65545
 C442 C 0.64964 1.13421 1.16489
 C443 C 0.66454 1.13271 1.14796
 C444 C 0.66494 1.14833 1.13210
 C445 C 0.65039 1.16553 1.13284
 C446 C 0.63608 1.16721 1.14972
 C447 C 0.63573 1.15146 1.16586
 C448 C 0.64577 1.12168 1.18275
 N449 N 0.62992 1.13100 1.19477
 C450 C 0.62383 1.14933 1.18438
 C451 C 0.62457 1.18585 1.14676
 N452 N 0.63128 1.19554 1.12822
 C453 C 0.64718 1.18303 1.11970
 C454 C 0.68186 1.14367 1.11864
 N455 N 0.69184 1.12567 1.12596
 C456 C 0.68122 1.11874 1.14379
 H457 H 0.65457 1.10728 1.18692
 H458 H 0.61127 1.16025 1.18941
 H459 H 0.61177 1.19139 1.15717
 H460 H 0.65639 1.18655 1.10535
 H461 H 0.68688 1.15305 1.10484
 H462 H 0.68595 1.10520 1.15366
 C463 C 0.14881 0.63430 1.16520
 C464 C 0.16554 0.63464 1.15004
 C465 C 0.16612 0.65049 1.13438
 C466 C 0.14998 0.66628 1.13375
 C467 C 0.13348 0.66578 1.14860
 C468 C 0.13307 0.64990 1.16459
 C469 C 0.14463 0.62148 1.18280
 N470 N 0.12691 0.62918 1.19323
 C471 C 0.11980 0.64660 1.18196
 C472 C 0.12031 0.68299 1.14445
 N473 N 0.12841 0.69431 1.12749
 C474 C 0.14674 0.68411 1.12098
 C475 C 0.18448 0.64723 1.12241
 N476 N 0.19509 0.62993 1.13052
 C477 C 0.18360 0.62216 1.14742
 H478 H 0.15462 0.60828 1.18815
 H479 H 0.10586 0.65626 1.18580
 H480 H 0.10633 0.68728 1.15387
 H481 H 0.15686 0.68884 1.10764
 H482 H 0.19002 0.65710 1.10917
 H483 H 0.18807 0.60845 1.15718
 C484 C 0.14902 1.13394 0.66490
 C485 C 0.16427 1.13249 0.64832
 C486 C 0.16471 1.14780 0.63216
 C487 C 0.14995 1.16487 0.63248
 C488 C 0.13534 1.16656 0.64913
 C489 C 0.13486 1.15098 0.66543
 C490 C 0.14512 1.12161 0.68287
 N491 N 0.12895 1.13082 0.69454
 C492 C 0.12275 1.14894 0.68383
 C493 C 0.12385 1.18515 0.64597
 N494 N 0.13086 1.19488 0.62758
 C495 C 0.14689 1.18238 0.61927
 C496 C 0.18210 1.14320 0.61921
 N497 N 0.19233 1.12564 0.62728
 C498 C 0.18139 1.11892 0.64499
 H499 H 0.15412 1.10742 0.68737
 H500 H 0.10999 1.15975 0.68859
 H501 H 0.11092 1.19069 0.65622
 H502 H 0.15636 1.18598 0.60512
 H503 H 0.18762 1.15267 0.60567
 H504 H 0.18595 1.10554 0.65516
 C505 C 1.35109 0.63418 0.33465
 C506 C 1.33378 0.63520 0.34908
 C507 C 1.33303 0.65134 0.36434
 C508 C 1.34958 0.66653 0.36552
 C509 C 1.36689 0.66529 0.35168
 C510 C 1.36765 0.64893 0.33605
 C511 C 1.35513 0.62130 0.31713
 N512 N 1.37385 0.62770 0.30767
 C513 C 1.38166 0.64453 0.31945
 C514 C 1.37992 0.68268 0.35608
 N515 N 1.37073 0.69468 0.37208
 C516 C 1.35215 0.68461 0.37788
 C517 C 1.31414 0.64902 0.37557
 N518 N 1.30343 0.63173 0.36761
 C519 C 1.31532 0.62318 0.35135
 H520 H 1.34501 0.60817 0.31191
 H521 H 1.39581 0.65390 0.31563
 H522 H 1.39439 0.68675 0.34733
 H523 H 1.34113 0.68975 0.39034
 H524 H 1.30871 0.65909 0.38873
 H525 H 1.31072 0.60945 0.34165
 C526 C 1.35212 1.13222 0.83664
 C527 C 1.33514 1.13272 0.85148
 C528 C 1.33387 1.14916 0.86641
 C529 C 1.34968 1.16522 0.86684
 C530 C 1.36667 1.16451 0.85254
 C531 C 1.36785 1.14794 0.83721
 C532 C 1.35653 1.11904 0.81942
 N533 N 1.37454 1.12635 0.80944
 C534 C 1.38165 1.14396 0.82032
 C535 C 1.37921 1.18233 0.85644
 N536 N 1.37014 1.19411 0.87263
 C537 C 1.35199 1.18355 0.87898
 C538 C 1.31546 1.14592 0.87827
 N539 N 1.30560 1.12782 0.87097
 C540 C 1.31753 1.11969 0.85452
 H541 H 1.34708 1.10534 0.81429
 H542 H 1.39530 1.15371 0.81571
 H543 H 1.39336 1.18671 0.84732
 H544 H 1.34125 1.18843 0.89178
 H545 H 1.30981 1.15588 0.89141
 H546 H 1.31355 1.10552 0.84521
 C547 C 0.85261 0.63132 0.83681
 C548 C 0.83617 0.63148 0.85226
 C549 C 0.83485 0.64813 0.86697
 C550 C 0.85003 0.66476 0.86654
 C551 C 0.86632 0.66458 0.85138
 C552 C 0.86754 0.64781 0.83631
 C553 C 0.85715 0.61780 0.81985
 N554 N 0.87437 0.62574 0.80898
 C555 C 0.88084 0.64409 0.81898
 C556 C 0.87830 0.68295 0.85444
 N557 N 0.86960 0.69428 0.87103
 C558 C 0.85228 0.68325 0.87849
 C559 C 0.81684 0.64464 0.87934
 N560 N 0.80720 0.62624 0.87253
 C561 C 0.81897 0.61807 0.85598
 H562 H 0.84807 0.60367 0.81529
 H563 H 0.89410 0.65414 0.81390
 H564 H 0.89202 0.68793 0.84496
 H565 H 0.84208 0.68827 0.89170
 H566 H 0.81116 0.65481 0.89230
 H567 H 0.81497 0.60377 0.84687
 C568 C 0.85318 1.13075 0.33798
 C569 C 0.83625 1.13190 0.35288
 C570 C 0.83594 1.14810 0.36816
 C571 C 0.85262 1.16325 0.36889
 C572 C 0.86941 1.16197 0.35437
 C573 C 0.86968 1.14563 0.33879
 C574 C 0.85697 1.11765 0.32051
 N575 N 0.87539 1.12421 0.31071
 C576 C 0.88329 1.14128 0.32187
 C577 C 0.88278 1.17916 0.35828
 N578 N 0.87447 1.19089 0.37478
 C579 C 0.85600 1.18124 0.38136
 C580 C 0.81727 1.14587 0.37980
 N581 N 0.80626 1.12864 0.37203
 C582 C 0.81778 1.12000 0.35555
 H583 H 0.84690 1.10451 0.31515
 H584 H 0.89743 1.15042 0.31750
 H585 H 0.89714 1.18319 0.34930
 H586 H 0.84569 1.18693 0.39421
 H587 H 0.81210 1.15603 0.39298
 H588 H 0.81285 1.10639 0.34587
 C589 C 0.64694 0.36771 0.33663
 C590 C 0.66301 0.36790 0.35252
 C591 C 0.66317 0.35238 0.36849
 C592 C 0.64726 0.33638 0.36873
 C593 C 0.63148 0.33621 0.35301
 C594 C 0.63148 0.35183 0.33676
 C595 C 0.64336 0.38015 0.31864
 N596 N 0.62626 0.37199 0.30753
 C597 C 0.61898 0.35460 0.31873
 C598 C 0.61863 0.31864 0.35671
 N599 N 0.62622 0.30804 0.37427
 C600 C 0.64381 0.31873 0.38168
 C601 C 0.68120 0.35585 0.38092
 N602 N 0.69205 0.37297 0.37275
 C603 C 0.68098 0.38045 0.35541
 H604 H 0.65335 0.39345 0.31355
 H605 H 0.60540 0.34463 0.31439
 H606 H 0.60506 0.31363 0.34700
 H607 H 0.65338 0.31403 0.39548
 H608 H 0.68649 0.34609 0.39435
 H609 H 0.68581 0.39383 0.34540
 C610 C 0.64710 0.86870 0.83801
 C611 C 0.66292 0.86879 0.85412
 C612 C 0.66328 0.85271 0.86947
 C613 C 0.64795 0.83621 0.86881
 C614 C 0.63233 0.83609 0.85292
 C615 C 0.63194 0.85243 0.83736
 C616 C 0.64335 0.88187 0.82062
 N617 N 0.62636 0.87396 0.80934
 C618 C 0.61931 0.85592 0.81947
 C619 C 0.62022 0.81777 0.85578
 N620 N 0.62824 0.80675 0.87290
 C621 C 0.64520 0.81795 0.88095
 C622 C 0.68076 0.85641 0.88256
 N623 N 0.69110 0.87427 0.87544
 C624 C 0.68029 0.88194 0.85802
 H625 H 0.65273 0.89583 0.81615
 H626 H 0.60600 0.84601 0.81419
 H627 H 0.60700 0.81251 0.84571
 H628 H 0.65494 0.81311 0.89458
 H629 H 0.68596 0.84643 0.89587
 H630 H 0.68481 0.89597 0.84877
 C631 C 0.14739 0.36785 0.83677
 C632 C 0.16353 0.36781 0.85255
 C633 C 0.16446 0.35142 0.86756
 C634 C 0.14927 0.33477 0.86689
 C635 C 0.13340 0.33475 0.85123
 C636 C 0.13260 0.35134 0.83593
 C637 C 0.14325 0.38127 0.81969
 N638 N 0.12642 0.37323 0.80811
 C639 C 0.11989 0.35481 0.81809
 C640 C 0.12144 0.31635 0.85403
 N641 N 0.12972 0.30518 0.87092
 C642 C 0.14679 0.31632 0.87883
 C643 C 0.18246 0.35489 0.88004
 N644 N 0.19256 0.37285 0.87278
 C645 C 0.18102 0.38087 0.85601
 H646 H 0.15272 0.39524 0.81554
 H647 H 0.10671 0.34464 0.81307
 H648 H 0.10802 0.31121 0.84416
 H649 H 0.15669 0.31139 0.89231
 H650 H 0.18832 0.34456 0.89279
 H651 H 0.18527 0.39494 0.84670
 C652 C 0.14867 0.86606 0.33575
 C653 C 0.16455 0.86656 0.35185
 C654 C 0.16555 0.85028 0.36701
 C655 C 0.15060 0.83343 0.36644
 C656 C 0.13495 0.83300 0.35063
 C657 C 0.13416 0.84928 0.33507
 C658 C 0.14449 0.87897 0.31820
 N659 N 0.12800 0.87024 0.30659
 C660 C 0.12164 0.85205 0.31706
 C661 C 0.12305 0.81460 0.35361
 N662 N 0.13115 0.80381 0.37083
 C663 C 0.14807 0.81519 0.37873
 C664 C 0.18315 0.85419 0.37984
 N665 N 0.19292 0.87245 0.37289
 C666 C 0.18158 0.88016 0.35581
 H667 H 0.15373 0.89300 0.31375
 H668 H 0.10871 0.84146 0.31224
 H669 H 0.10978 0.80922 0.34369
 H670 H 0.15779 0.81060 0.39245
 H671 H 0.18855 0.84433 0.39316
 H672 H 0.18584 0.89420 0.34645
 O673 O 1.07778 1.02068 1.10795
 O674 O 1.10308 1.02064 1.13288
 C675 C 1.08551 1.02798 1.12544
 C676 C 1.07427 1.04570 1.13676
 C677 C 1.08129 1.05282 1.15708
 H678 H 1.09421 1.04434 1.16510
 O679 O 0.92355 0.97907 1.10860
 O680 O 0.89874 0.97914 1.13397
 C681 C 0.91616 0.97179 1.12622
 C682 C 0.92765 0.95418 1.13741
 C683 C 0.92105 0.94722 1.15790
 H684 H 0.90829 0.95577 1.16608
 O685 O 1.02140 1.10708 1.07786
 O686 O 1.02161 1.13245 1.10270
 C687 C 1.02873 1.12470 1.08513
 C688 C 1.04600 1.13597 1.07319
 C689 C 1.05310 1.15639 1.07973
 H690 H 1.04570 1.16405 1.09354
 O691 O 0.97956 0.89278 1.07792
 O692 O 0.97975 0.86757 1.10288
 C693 C 0.97231 0.87522 1.08541
 C694 C 0.95460 0.86399 1.07408
 C695 C 0.94699 0.84414 1.08162
 H696 H 0.95501 0.83643 1.09506
 O697 O 1.10632 1.07686 1.02031
 O698 O 1.13148 1.10182 1.02017
 C699 C 1.12385 1.08439 1.02762
 C700 C 1.13515 1.07318 1.04539
 C701 C 1.15513 1.08068 1.05276
 H702 H 1.16286 1.09382 1.04438
 O703 O 0.89320 0.92242 1.02209
 O704 O 0.86795 0.89755 1.02228
 C705 C 0.87576 0.91494 1.02965
 C706 C 0.86479 0.92636 1.04751
 C707 C 0.84488 0.91909 1.05536
 H708 H 0.83740 0.90512 1.04812
 O709 O 0.98019 1.07763 1.10816
 O710 O 0.98036 1.10272 1.13330
 C711 C 0.97305 1.08516 1.12580
 C712 C 0.95574 1.07356 1.13733
 C713 C 0.94887 1.08031 1.15781
 H714 H 0.95653 1.09400 1.16540
 O715 O 1.02136 0.92237 1.10760
 O716 O 1.02157 0.89722 1.13262
 C717 C 1.02876 0.91480 1.12511
 C718 C 1.04640 0.92617 1.13643
 C719 C 1.05396 0.91871 1.15638
 H720 H 1.04574 0.90548 1.16415
 O721 O 1.10681 0.97898 1.07774
 O722 O 1.13231 0.97889 1.10245
 C723 C 1.12441 0.97159 1.08502
 C724 C 1.13541 0.95392 1.07338
 C725 C 1.15509 0.94575 1.08092
 H726 H 1.16246 0.95270 1.09513
 O727 O 0.89400 1.02097 1.07922
 O728 O 0.86899 1.02105 1.10440
 C729 C 0.87649 1.02828 1.08680
 C730 C 0.86497 1.04556 1.07513
 C731 C 0.84455 1.05243 1.08192
 H732 H 0.83711 1.04491 1.09576
 O733 O 0.92273 1.10641 1.02164
 O734 O 0.89759 1.13141 1.02194
 C735 C 0.91518 1.12386 1.02911
 C736 C 0.92656 1.13514 1.04680
 C737 C 0.91898 1.15500 1.05438
 H738 H 0.90571 1.16269 1.04614
 O739 O 1.07711 0.89305 1.02022
 O740 O 1.10217 0.86796 1.01995
 C741 C 1.08472 0.87552 1.02743
 C742 C 1.07348 0.86415 1.04510
 C743 C 1.08036 0.84374 1.05190
 H744 H 1.09317 0.83576 1.04320
 O745 O 0.92375 1.02096 1.10849
 O746 O 0.89890 1.02105 1.13384
 C747 C 0.91639 1.02828 1.12612
 C748 C 0.92805 1.04570 1.13746
 C749 C 0.92151 1.05254 1.15801
 H750 H 0.90845 1.04430 1.16604
 O751 O 1.07802 0.97875 1.10780
 O752 O 1.10338 0.97861 1.13265
 C753 C 1.08584 0.97126 1.12516
 C754 C 1.07458 0.95351 1.13637
 C755 C 1.08230 0.94544 1.15608
 H756 H 1.09660 0.95240 1.16317
 O757 O 1.02154 0.89298 1.07799
 O758 O 1.02176 0.86771 1.10289
 C759 C 1.02900 0.87548 1.08540
 C760 C 1.04648 0.86428 1.07368
 C761 C 1.05392 0.84411 1.08058
 H762 H 1.04679 0.83679 1.09469
 O763 O 0.97944 1.10689 1.07863
 O764 O 0.97952 1.13215 1.10360
 C765 C 0.97196 1.12432 1.08625
 C766 C 0.95400 1.13526 1.07500
 C767 C 0.94576 1.15484 1.08276
 H768 H 0.95268 1.16195 1.09711
 O769 O 0.89319 1.07699 1.02179
 O770 O 0.86796 1.10191 1.02204
 C771 C 0.87568 1.08443 1.02926
 C772 C 0.86452 1.07290 1.04688
 C773 C 0.84402 1.07941 1.05374
 H774 H 0.83588 1.09232 1.04534
 O775 O 1.10625 0.92283 1.02009
 O776 O 1.13137 0.89782 1.01989
 C777 C 1.12378 0.91527 1.02736
 C778 C 1.13510 0.92649 1.04512
 C779 C 1.15487 0.91872 1.05277
 H780 H 1.16242 0.90519 1.04479
 O781 O 0.97945 0.92195 1.10772
 O782 O 0.97964 0.89685 1.13280
 C783 C 0.97222 0.91433 1.12527
 C784 C 0.95481 0.92583 1.13678
 C785 C 0.94765 0.91874 1.15703
 H786 H 0.95494 0.90465 1.16418
 O787 O 1.02207 1.07798 1.10767
 O788 O 1.02234 1.10317 1.13270
 C789 C 1.02961 1.08564 1.12509
 C790 C 1.04719 1.07415 1.13638
 C791 C 1.05472 1.08134 1.15648
 H792 H 1.04758 1.09550 1.16369
 O793 O 0.89410 0.97909 1.07905
 O794 O 0.86914 0.97913 1.10429
 C795 C 0.87662 0.97180 1.08669
 C796 C 0.86519 0.95426 1.07528
 C797 C 0.84516 0.94696 1.08268
 H798 H 0.83754 0.95506 1.09612
 O799 O 1.10676 1.02092 1.07807
 O800 O 1.13222 1.02098 1.10281
 C801 C 1.12430 1.02836 1.08544
 C802 C 1.13528 1.04607 1.07388
 C803 C 1.15502 1.05419 1.08136
 H804 H 1.16223 1.04735 1.09569
 O805 O 0.92242 0.89279 1.02163
 O806 O 0.89728 0.86780 1.02181
 C807 C 0.91486 0.87533 1.02904
 C808 C 0.92639 0.86405 1.04663
 C809 C 0.91884 0.84429 1.05457
 H810 H 0.90466 0.83704 1.04751
 O811 O 1.07714 1.10668 1.02018
 O812 O 1.10221 1.13174 1.01996
 C813 C 1.08471 1.12425 1.02736
 C814 C 1.07329 1.13578 1.04486
 C815 C 1.08001 1.15630 1.05147
 H816 H 1.09297 1.16420 1.04294
 Cu817 Cu 1.08979 0.99984 1.09042
 Cu818 Cu 1.12032 0.99978 1.12018
 Cu819 Cu 0.91135 1.00003 1.09132
 Cu820 Cu 0.88144 1.00011 1.12167
 Cu821 Cu 1.00077 1.08989 1.09058
 Cu822 Cu 1.00101 1.12018 1.12057
 Cu823 Cu 1.00046 0.91003 1.09030
 Cu824 Cu 1.00071 0.87979 1.12030
 C825 C 1.05702 1.05627 1.12672
 H826 H 1.05160 1.05092 1.11101
 C827 C 1.07166 1.07070 1.16711
 C828 C 0.94475 0.94359 1.12716
 H829 H 0.94987 0.94884 1.11133
 C830 C 0.93085 0.92940 1.16786
 C831 C 1.05611 1.12588 1.05565
 H832 H 1.05098 1.10997 1.05075
 C833 C 1.07005 1.16676 1.06892
 C834 C 0.94436 0.87368 1.05641
 H835 H 0.94999 0.88911 1.05067
 C836 C 0.92903 0.83420 1.07210
 C837 C 1.12551 1.05567 1.05586
 H838 H 1.11004 1.04987 1.05031
 C839 C 1.16515 1.07150 1.07089
 C840 C 0.87474 0.94402 1.05751
 H841 H 0.89028 0.94946 1.05183
 C842 C 0.83490 0.92930 1.07295
 C843 C 0.94533 1.05614 1.12738
 H844 H 0.95030 1.05107 1.11143
 C845 C 0.93179 1.06986 1.16832
 C846 C 1.05659 0.94379 1.12673
 H847 H 1.05089 0.94954 1.11128
 C848 C 1.07207 0.92802 1.16628
 C849 C 1.12562 0.94426 1.05538
 H850 H 1.11024 0.95018 1.04973
 C851 C 1.16493 0.92811 1.07075
 C852 C 0.87475 1.05580 1.05751
 H853 H 0.89064 1.05083 1.05241
 C854 C 0.83388 1.06931 1.07128
 C855 C 0.94428 1.12556 1.05699
 H856 H 0.95015 1.11020 1.05125
 C857 C 0.92824 1.16492 1.07254
 C858 C 1.05633 0.87413 1.05589
 H859 H 1.05100 0.88989 1.05077
 C860 C 1.07076 0.83355 1.06971
 O861 O 1.07596 0.97910 0.89126
 O862 O 1.10074 0.97910 0.86585
 C863 C 1.08329 0.97181 0.87361
 C864 C 1.07164 0.95432 0.86234
 C865 C 1.07824 0.94729 0.84187
 H866 H 1.09183 0.95495 0.83414
 O867 O 0.92173 1.02062 0.89268
 O868 O 0.89644 1.02054 0.86773
 C869 C 0.91406 1.02783 0.87514
 C870 C 0.92538 1.04536 0.86367
 C871 C 0.91814 1.05245 0.84346
 H872 H 0.90511 1.04397 0.83562
 O873 O 0.97808 1.10696 0.92202
 O874 O 0.97779 1.13216 0.89706
 C875 C 0.97063 1.12447 0.91462
 C876 C 0.95307 1.13560 0.92628
 C877 C 0.94501 1.15536 0.91883
 H878 H 0.95201 1.16273 0.90467
 O879 O 1.01986 0.89292 0.92143
 O880 O 1.01970 0.86766 0.89647
 C881 C 1.02714 0.87537 0.91392
 C882 C 1.04471 0.86414 0.92547
 C883 C 1.05179 0.84376 0.91872
 H884 H 1.04419 0.83613 0.90499
 O885 O 1.10609 0.92270 0.97795
 O886 O 1.13123 0.89770 0.97777
 C887 C 1.12353 0.91515 0.97045
 C888 C 1.13459 0.92635 0.95254
 C889 C 1.15437 0.91875 0.94477
 H890 H 1.16219 0.90551 0.95295
 O891 O 0.89282 1.07707 0.97970
 O892 O 0.86769 1.10209 0.98002
 C893 C 0.87525 1.08466 0.97251
 C894 C 0.86392 1.07352 0.95470
 C895 C 0.84408 1.08122 0.94714
 H896 H 0.83638 1.09441 0.95551
 O897 O 1.01957 1.07742 0.89197
 O898 O 1.01934 1.10250 0.86688
 C899 C 1.02674 1.08499 0.87439
 C900 C 1.04441 1.07374 0.86301
 C901 C 1.05206 1.08147 0.84320
 H902 H 1.04390 1.09481 0.83555
 O903 O 0.97770 0.92220 0.89218
 O904 O 0.97750 0.89718 0.86696
 C905 C 0.97026 0.91468 0.87466
 C906 C 0.95266 0.92620 0.86348
 C907 C 0.94559 0.91957 0.84302
 H908 H 0.95377 0.90649 0.83491
 O909 O 1.10583 1.02060 0.92093
 O910 O 1.13090 1.02053 0.89581
 C911 C 1.12338 1.02782 0.91341
 C912 C 1.13483 1.04520 0.92504
 C913 C 1.15499 1.05244 0.91792
 H914 H 1.16238 1.04499 0.90398
 O915 O 0.89235 0.97927 0.92298
 O916 O 0.86686 0.97922 0.89825
 C917 C 0.87466 0.97203 0.91577
 C918 C 0.86338 0.95471 0.92762
 C919 C 0.84285 0.94789 0.92114
 H920 H 0.83477 0.95613 0.90807
 O921 O 1.07690 1.10629 0.97810
 O922 O 1.10209 1.13122 0.97793
 C923 C 1.08454 1.12369 0.97064
 C924 C 1.07326 1.13495 0.95289
 C925 C 1.08106 1.15462 0.94507
 H926 H 1.09471 1.16212 0.95289
 O927 O 0.92213 0.89309 0.97955
 O928 O 0.89696 0.86813 0.97967
 C929 C 0.91440 0.87569 0.97215
 C930 C 0.92546 0.86449 0.95421
 C931 C 0.91769 0.84474 0.94649
 H932 H 0.90425 0.83712 0.95451
 O933 O 0.92114 0.97874 0.89280
 O934 O 0.89581 0.97864 0.86790
 C935 C 0.91337 0.97134 0.87536
 C936 C 0.92476 0.95384 0.86390
 C937 C 0.91779 0.94690 0.84351
 H938 H 0.90403 0.95454 0.83605
 O939 O 1.07643 1.02108 0.89139
 O940 O 1.10136 1.02116 0.86614
 C941 C 1.08399 1.02859 0.87393
 C942 C 1.07267 1.04644 0.86292
 C943 C 1.08044 1.05477 0.84337
 H944 H 1.09482 1.04796 0.83630
 O945 O 0.97789 0.89295 0.92178
 O946 O 0.97760 0.86778 0.89673
 C947 C 0.97039 0.87549 0.91428
 C948 C 0.95274 0.86439 0.92584
 C949 C 0.94460 0.84472 0.91824
 H950 H 0.95154 0.83742 0.90399
 O951 O 1.02007 1.10689 0.92140
 O952 O 1.01989 1.13211 0.89645
 C953 C 1.02747 1.12434 0.91381
 C954 C 1.04544 1.13530 0.92502
 C955 C 1.05366 1.15487 0.91727
 H956 H 1.04653 1.16221 0.90314
 O957 O 0.89276 0.92261 0.98000
 O958 O 0.86746 0.89779 0.98016
 C959 C 0.87511 0.91524 0.97280
 C960 C 0.86365 0.92688 0.95540
 C961 C 0.84322 0.92011 0.94852
 H962 H 0.83572 0.90639 0.95617
 O963 O 1.10641 1.07686 0.97820
 O964 O 1.13168 1.10173 0.97811
 C965 C 1.12395 1.08427 0.97081
 C966 C 1.13513 1.07276 0.95315
 C967 C 1.15537 1.07967 0.94589
 H968 H 1.16334 1.09288 0.95400
 O969 O 1.01954 0.92231 0.89187
 O970 O 1.01942 0.89724 0.86671
 C971 C 1.02670 0.91481 0.87423
 C972 C 1.04396 0.92644 0.86266
 C973 C 1.05065 0.91976 0.84209
 H974 H 1.04241 0.90657 0.83423
 O975 O 0.97767 1.07774 0.89229
 O976 O 0.97735 1.10280 0.86718
 C977 C 0.97011 1.08530 0.87485
 C978 C 0.95249 1.07377 0.86367
 C979 C 0.94466 1.08101 0.84370
 H980 H 0.95162 1.09521 0.83647
 O981 O 0.89238 1.02120 0.92220
 O982 O 0.86698 1.02121 0.89737
 C983 C 0.87488 1.02867 0.91472
 C984 C 0.86391 1.04648 0.92615
 C985 C 0.84437 1.05482 0.91840
 H986 H 0.83736 1.04811 0.90391
 O987 O 1.10569 0.97870 0.92045
 O988 O 1.13062 0.97854 0.89520
 C989 C 1.12305 0.97120 0.91273
 C990 C 1.13425 0.95347 0.92407
 C991 C 1.15382 0.94530 0.91622
 H992 H 1.16078 0.95212 0.90178
 O993 O 1.07660 0.89324 0.97818
 O994 O 1.10165 0.86815 0.97800
 C995 C 1.08406 0.87571 0.97082
 C996 C 1.07243 0.86428 0.95340
 C997 C 1.07910 0.84380 0.94662
 H998 H 1.09218 0.83589 0.95498
 O999 O 0.92224 1.10657 0.97956
 O1000 O 0.89716 1.13164 0.97990
 C1001 C 0.91458 1.12407 0.97234
 C1002 C 0.92571 1.13539 0.95455
 C1003 C 0.91800 1.15520 0.94697
 H1004 H 0.90451 1.16279 0.95498
 Cu1005 Cu 1.08847 0.99987 0.90852
 Cu1006 Cu 1.11841 0.99983 0.87820
 Cu1007 Cu 0.90943 0.99995 0.91016
 Cu1008 Cu 0.87896 0.99986 0.88033
 Cu1009 Cu 1.08918 1.08917 0.99922
 Cu1010 Cu 1.11940 1.11912 0.99905
 Cu1011 Cu 1.08900 0.91047 0.99913
 Cu1012 Cu 1.11916 0.88043 0.99887
 Cu1013 Cu 0.91025 1.08925 1.00065
 Cu1014 Cu 0.88009 1.11928 1.00103
 Cu1015 Cu 0.91015 0.91022 1.00081
 Cu1016 Cu 0.87989 0.88031 1.00097
 Cu1017 Cu 0.99885 1.08976 0.90944
 Cu1018 Cu 0.99856 1.11993 0.87939
 Cu1019 Cu 0.99878 0.91009 0.90934
 Cu1020 Cu 0.99856 0.87991 0.87922
 C1021 C 1.05439 0.94389 0.87251
 H1022 H 1.04945 0.94899 0.88846
 C1023 C 1.06779 0.93007 0.83155
 C1024 C 0.94278 1.05590 0.87347
 H1025 H 0.94838 1.05056 0.88911
 C1026 C 0.92751 1.07041 0.83336
 C1027 C 0.94340 1.12585 0.94425
 H1028 H 0.94926 1.11043 0.94983
 C1029 C 0.92745 1.16528 0.92906
 C1030 C 1.05507 0.87419 0.94290
 H1031 H 1.04996 0.89006 0.94795
 C1032 C 1.06894 0.83339 0.92925
 C1033 C 1.12481 0.94392 0.94227
 H1034 H 1.10948 0.94978 0.94811
 C1035 C 1.16405 0.92791 0.92646
 C1036 C 0.87352 1.05593 0.94432
 H1037 H 0.88886 1.04997 0.95003
 C1038 C 0.83422 1.07220 0.92881
 C1039 C 1.05461 1.05602 0.87256
 H1040 H 1.04886 1.05005 0.88791
 C1041 C 1.07023 1.07230 0.83330
 C1042 C 0.94229 0.94349 0.87366
 H1043 H 0.94753 0.94856 0.88953
 C1044 C 0.92816 0.92983 0.83288
 C1045 C 1.12512 1.05536 0.94277
 H1046 H 1.10940 1.05011 0.94812
 C1047 C 1.16543 1.06963 0.92826
 C1048 C 0.87352 0.94428 0.94494
 H1049 H 0.88945 0.94933 0.94989
 C1050 C 0.83262 0.93055 0.93144
 C1051 C 1.05530 1.12555 0.94292
 H1052 H 1.04934 1.11026 0.94874
 C1053 C 1.07150 1.16466 0.92717
 C1054 C 0.94314 0.87406 0.94392
 H1055 H 0.94905 0.88942 0.94963
 C1056 C 0.92705 0.83477 0.92845
 O1057 O 0.97958 0.42207 0.39312
 O1058 O 0.97958 0.39694 0.36801
 C1059 C 0.97226 0.41447 0.37558
 C1060 C 0.95456 0.42576 0.36430
 C1061 C 0.94737 0.41857 0.34410
 H1062 H 0.95590 0.40562 0.33617
 O1063 O 1.02024 0.57657 0.39226
 O1064 O 1.01996 0.60157 0.36708
 C1065 C 1.02734 0.58406 0.37460
 C1066 C 1.04486 0.57270 0.36310
 C1067 C 1.05208 0.58009 0.34300
 H1068 H 1.04357 0.59314 0.33524
 O1069 O 0.89277 0.47786 0.42304
 O1070 O 0.86755 0.47778 0.39803
 C1071 C 0.87524 0.47050 0.41555
 C1072 C 0.86405 0.45286 0.42698
 C1073 C 0.84413 0.44528 0.41955
 H1074 H 0.83636 0.45326 0.40613
 O1075 O 1.10702 0.52097 0.42114
 O1076 O 1.13200 0.52116 0.39592
 C1077 C 1.12439 0.52846 0.41347
 C1078 C 1.13549 0.54622 0.42482
 C1079 C 1.15489 0.55458 0.41685
 H1080 H 1.16199 0.54772 0.40246
 O1081 O 0.92287 0.39218 0.47939
 O1082 O 0.89808 0.36684 0.47950
 C1083 C 0.91548 0.37460 0.47209
 C1084 C 0.92702 0.36339 0.45450
 C1085 C 0.92036 0.34298 0.44750
 H1086 H 0.90724 0.33497 0.45568
 O1087 O 1.07732 0.60592 0.47885
 O1088 O 1.10224 0.63112 0.47878
 C1089 C 1.08479 0.62341 0.47144
 C1090 C 1.07349 0.63454 0.45362
 C1091 C 1.08130 0.65416 0.44571
 H1092 H 1.09485 0.66177 0.45360
 O1093 O 0.92203 0.51966 0.39317
 O1094 O 0.89698 0.51950 0.36800
 C1095 C 0.91448 0.52686 0.37557
 C1096 C 0.92592 0.54434 0.36413
 C1097 C 0.91920 0.55108 0.34359
 H1098 H 0.90618 0.54269 0.33561
 O1099 O 1.07787 0.47864 0.39198
 O1100 O 1.10275 0.47866 0.36667
 C1101 C 1.08543 0.47116 0.37450
 C1102 C 1.07424 0.45318 0.36357
 C1103 C 1.08197 0.44492 0.34395
 H1104 H 1.09607 0.45202 0.33661
 O1105 O 1.02143 0.39262 0.42275
 O1106 O 1.02139 0.36729 0.39785
 C1107 C 1.02869 0.37500 0.41537
 C1108 C 1.04612 0.36370 0.42705
 C1109 C 1.05274 0.34306 0.42068
 H1110 H 1.04431 0.33494 0.40775
 O1111 O 0.97874 0.60626 0.42224
 O1112 O 0.97848 0.63136 0.39717
 C1113 C 0.97131 0.62376 0.41475
 C1114 C 0.95378 0.63501 0.42635
 C1115 C 0.94592 0.65485 0.41890
 H1116 H 0.95303 0.66221 0.40479
 O1117 O 0.89293 0.57688 0.47945
 O1118 O 0.86779 0.60188 0.47948
 C1119 C 0.87542 0.58441 0.47209
 C1120 C 0.86417 0.57295 0.45441
 C1121 C 0.84425 0.58033 0.44664
 H1122 H 0.83690 0.59438 0.45385
 O1123 O 1.10816 0.42260 0.47821
 O1124 O 1.13329 0.39759 0.47800
 C1125 C 1.12551 0.41497 0.47059
 C1126 C 1.13646 0.42623 0.45264
 C1127 C 1.15608 0.41857 0.44443
 H1128 H 1.16323 0.40430 0.45138
 O1129 O 0.97836 0.57664 0.39289
 O1130 O 0.97806 0.60159 0.36766
 C1131 C 0.97086 0.58410 0.37538
 C1132 C 0.95337 0.57244 0.36414
 C1133 C 0.94629 0.57910 0.34371
 H1134 H 0.95379 0.59284 0.33611
 O1135 O 1.02153 0.42177 0.39290
 O1136 O 1.02154 0.39656 0.36789
 C1137 C 1.02888 0.41409 0.37540
 C1138 C 1.04652 0.42534 0.36402
 C1139 C 1.05429 0.41751 0.34427
 H1140 H 1.04649 0.40385 0.33678
 O1141 O 1.10736 0.47912 0.42140
 O1142 O 1.13238 0.47923 0.39622
 C1143 C 1.12490 0.47191 0.41381
 C1144 C 1.13629 0.45434 0.42516
 C1145 C 1.15617 0.44681 0.41756
 H1146 H 1.16382 0.45498 0.40422
 O1147 O 0.89285 0.51981 0.42296
 O1148 O 0.86766 0.51976 0.39793
 C1149 C 0.87534 0.52715 0.41543
 C1150 C 0.86414 0.54485 0.42681
 C1151 C 0.84414 0.55231 0.41945
 H1152 H 0.83637 0.54425 0.40607
 O1153 O 0.92250 0.60620 0.47951
 O1154 O 0.89749 0.63134 0.47958
 C1155 C 0.91496 0.62372 0.47220
 C1156 C 0.92629 0.63497 0.45449
 C1157 C 0.91878 0.65485 0.44693
 H1158 H 0.90531 0.66253 0.45489
 O1159 O 1.07874 0.39319 0.47897
 O1160 O 1.10373 0.36803 0.47889
 C1161 C 1.08612 0.37556 0.47174
 C1162 C 1.07427 0.36400 0.45456
 C1163 C 1.08080 0.34345 0.44784
 H1164 H 1.09452 0.33590 0.45548
 O1165 O 1.07752 0.52065 0.39174
 O1166 O 1.10237 0.52077 0.36641
 C1167 C 1.08492 0.52805 0.37417
 C1168 C 1.07331 0.54563 0.36301
 C1169 C 1.08076 0.55372 0.34321
 H1170 H 1.09512 0.54693 0.33611
 O1171 O 0.92203 0.47772 0.39335
 O1172 O 0.89692 0.47753 0.36823
 C1173 C 0.91444 0.47026 0.37585
 C1174 C 0.92599 0.45272 0.36455
 C1175 C 0.91863 0.44490 0.34458
 H1176 H 0.90433 0.45180 0.33744
 O1177 O 1.02073 0.60602 0.42183
 O1178 O 1.02057 0.63111 0.39676
 C1179 C 1.02811 0.62345 0.41418
 C1180 C 1.04597 0.63454 0.42546
 C1181 C 1.05422 0.65406 0.41759
 H1182 H 1.04724 0.66124 0.40332
 O1183 O 0.97948 0.39248 0.42248
 O1184 O 0.97948 0.36725 0.39749
 C1185 C 0.97216 0.37493 0.41499
 C1186 C 0.95470 0.36358 0.42656
 C1187 C 0.94773 0.34321 0.41969
 H1188 H 0.95536 0.33565 0.40594
 O1189 O 1.10712 0.57686 0.47861
 O1190 O 1.13207 0.60204 0.47854
 C1191 C 1.12449 0.58458 0.47112
 C1192 C 1.13557 0.57354 0.45313
 C1193 C 1.15506 0.58156 0.44505
 H1194 H 1.16263 0.59517 0.45286
 O1195 O 0.89299 0.42112 0.47955
 O1196 O 0.86803 0.39595 0.47959
 C1197 C 0.87551 0.41346 0.47221
 C1198 C 0.86417 0.42483 0.45456
 C1199 C 0.84432 0.41731 0.44674
 H1200 H 0.83703 0.40323 0.45392
 Cu1201 Cu 1.00052 0.40975 0.41032
 Cu1202 Cu 1.00050 0.37950 0.38028
 Cu1203 Cu 0.99954 0.58890 0.40984
 Cu1204 Cu 0.99923 0.61894 0.37966
 Cu1205 Cu 0.90994 0.49877 0.41063
 Cu1206 Cu 0.87973 0.49864 0.38055
 Cu1207 Cu 1.08992 0.49985 0.40906
 Cu1208 Cu 1.11987 0.49996 0.37875
 C1209 C 0.94399 0.44306 0.37422
 H1210 H 0.94942 0.44863 0.38985
 C1211 C 0.92925 0.42782 0.33415
 C1212 C 1.05534 0.55523 0.37278
 H1213 H 1.04989 0.54950 0.38833
 C1214 C 1.07022 0.57096 0.33297
 C1215 C 0.87381 0.44270 0.44465
 H1216 H 0.88930 0.44832 0.45030
 C1217 C 0.83417 0.42743 0.42919
 C1218 C 1.12605 0.55571 0.44306
 H1219 H 1.11087 0.54962 0.44905
 C1220 C 1.16479 0.57229 0.42683
 C1221 C 0.94434 0.37345 0.44407
 H1222 H 0.94943 0.38928 0.44924
 C1223 C 0.93061 0.33274 0.43009
 C1224 C 1.05567 0.62499 0.44355
 H1225 H 1.04971 0.60972 0.44944
 C1226 C 1.07194 0.66398 0.42760
 C1227 C 0.94317 0.55497 0.37414
 H1228 H 0.94832 0.54997 0.39005
 C1229 C 0.92930 0.56846 0.33322
 C1230 C 1.05643 0.44334 0.37339
 H1231 H 1.05065 0.44933 0.38873
 C1232 C 1.07211 0.42707 0.33415
 C1233 C 1.05682 0.37391 0.44417
 H1234 H 1.05193 0.38991 0.44902
 C1235 C 1.07009 0.33278 0.43097
 C1236 C 0.94396 0.62530 0.44426
 H1237 H 0.94966 0.60982 0.44984
 C1238 C 0.92838 0.66488 0.42906
 C1239 C 0.87389 0.55512 0.44446
 H1240 H 0.88943 0.54959 0.45008
 C1241 C 0.83410 0.57012 0.42914
 C1242 C 1.12674 0.44415 0.44292
 H1243 H 1.11135 0.44982 0.44880
 C1244 C 1.16615 0.42878 0.42690
 O1245 O 1.02186 0.42210 0.60719
 O1246 O 1.02205 0.39710 0.63237
 C1247 C 1.02919 0.41467 0.62479
 C1248 C 1.04660 0.42629 0.63622
 C1249 C 1.05330 0.41974 0.65681
 H1250 H 1.04468 0.40695 0.66486
 O1251 O 0.97983 0.57684 0.60771
 O1252 O 0.97981 0.60185 0.63293
 C1253 C 0.97254 0.58433 0.62530
 C1254 C 0.95508 0.57279 0.63665
 C1255 C 0.94821 0.57947 0.65715
 H1256 H 0.95645 0.59259 0.66514
 O1257 O 0.89345 0.52024 0.57813
 O1258 O 0.86851 0.52020 0.60339
 C1259 C 0.87598 0.52754 0.58581
 C1260 C 0.86462 0.54516 0.57447
 C1261 C 0.84476 0.55277 0.58205
 H1262 H 0.83714 0.54487 0.59559
 O1263 O 1.10819 0.47899 0.57781
 O1264 O 1.13343 0.47898 0.60280
 C1265 C 1.12583 0.47178 0.58520
 C1266 C 1.13732 0.45457 0.57338
 C1267 C 1.15768 0.44758 0.58020
 H1268 H 1.16516 0.45506 0.59408
 O1269 O 1.07932 0.39365 0.52098
 O1270 O 1.10442 0.36862 0.52093
 C1271 C 1.08699 0.37624 0.52840
 C1272 C 1.07567 0.36493 0.54607
 C1273 C 1.08302 0.34490 0.55342
 H1274 H 1.09714 0.33781 0.54610
 O1275 O 0.92248 0.60619 0.52156
 O1276 O 0.89749 0.63134 0.52170
 C1277 C 0.91497 0.62366 0.52902
 C1278 C 0.92645 0.63483 0.54672
 C1279 C 0.91902 0.65467 0.55461
 H1280 H 0.90492 0.66201 0.54746
 O1281 O 0.92335 0.47850 0.60747
 O1282 O 0.89850 0.47835 0.63282
 C1283 C 0.91602 0.47117 0.62510
 C1284 C 0.92770 0.45371 0.63637
 C1285 C 0.92123 0.44689 0.65694
 H1286 H 0.90846 0.45546 0.66509
 O1287 O 1.07866 0.52054 0.60774
 O1288 O 1.10375 0.52061 0.63287
 C1289 C 1.08625 0.52793 0.62526
 C1290 C 1.07489 0.54564 0.63647
 C1291 C 1.08264 0.55379 0.65614
 H1292 H 1.09686 0.54678 0.66336
 O1293 O 0.98022 0.39221 0.57759
 O1294 O 0.98051 0.36704 0.60260
 C1295 C 0.97307 0.37462 0.58510
 C1296 C 0.95560 0.36318 0.57362
 C1297 C 0.94874 0.34281 0.58051
 H1298 H 0.95654 0.33529 0.59418
 O1299 O 1.02166 0.60635 0.57823
 O1300 O 1.02170 0.63153 0.60327
 C1301 C 1.02904 0.62386 0.58577
 C1302 C 1.04668 0.63502 0.57429
 C1303 C 1.05464 0.65482 0.58178
 H1304 H 1.04756 0.66219 0.59592
 O1305 O 0.89354 0.42138 0.52161
 O1306 O 0.86850 0.39629 0.52176
 C1307 C 0.87610 0.41383 0.52905
 C1308 C 0.86481 0.42543 0.54657
 C1309 C 0.84438 0.41879 0.55353
 H1310 H 0.83678 0.40509 0.54592
 O1311 O 1.10729 0.57661 0.52071
 O1312 O 1.13227 0.60176 0.52056
 C1313 C 1.12482 0.58424 0.52795
 C1314 C 1.13625 0.57302 0.54562
 C1315 C 1.15628 0.58048 0.55290
 H1316 H 1.16399 0.59359 0.54445
 O1317 O 1.02176 0.57682 0.60762
 O1318 O 1.02175 0.60190 0.63276
 C1319 C 1.02911 0.58442 0.62514
 C1320 C 1.04685 0.57317 0.63641
 C1321 C 1.05465 0.58091 0.65619
 H1322 H 1.04677 0.59444 0.66382
 O1323 O 0.97992 0.42172 0.60700
 O1324 O 0.98010 0.39670 0.63215
 C1325 C 0.97263 0.41412 0.62452
 C1326 C 0.95510 0.42557 0.63592
 C1327 C 0.94800 0.41857 0.65623
 H1328 H 0.95538 0.40456 0.66345
 O1329 O 1.10787 0.52083 0.57814
 O1330 O 1.13311 0.52094 0.60313
 C1331 C 1.12534 0.52829 0.58567
 C1332 C 1.13640 0.54597 0.57414
 C1333 C 1.15618 0.55403 0.58156
 H1334 H 1.16340 0.54719 0.59588
 O1335 O 0.89360 0.47832 0.57817
 O1336 O 0.86859 0.47823 0.60334
 C1337 C 0.87613 0.47096 0.58575
 C1338 C 0.86477 0.45347 0.57420
 C1339 C 0.84424 0.44677 0.58078
 H1340 H 0.83623 0.45519 0.59378
 O1341 O 1.07776 0.60609 0.52097
 O1342 O 1.10270 0.63128 0.52083
 C1343 C 1.08531 0.62361 0.52829
 C1344 C 1.07409 0.63487 0.54608
 C1345 C 1.08168 0.65473 0.55366
 H1346 H 1.09510 0.66238 0.54562
 O1347 O 0.92299 0.39193 0.52134
 O1348 O 0.89815 0.36664 0.52154
 C1349 C 0.91569 0.37433 0.52869
 C1350 C 0.92752 0.36303 0.54604
 C1351 C 0.92100 0.34258 0.55303
 H1352 H 0.90778 0.33459 0.54497
 O1353 O 1.07876 0.47859 0.60733
 O1354 O 1.10380 0.47854 0.63251
 C1355 C 1.08633 0.47118 0.62483
 C1356 C 1.07479 0.45365 0.63610
 C1357 C 1.08162 0.44650 0.65646
 H1358 H 1.09555 0.45388 0.66387
 O1359 O 0.92301 0.52040 0.60756
 O1360 O 0.89820 0.52027 0.63294
 C1361 C 0.91560 0.52766 0.62520
 C1362 C 0.92718 0.54513 0.63656
 C1363 C 0.92043 0.55214 0.65699
 H1364 H 0.90673 0.54454 0.66460
 O1365 O 0.97968 0.60612 0.57804
 O1366 O 0.97967 0.63125 0.60313
 C1367 C 0.97231 0.62360 0.58561
 C1368 C 0.95458 0.63481 0.57428
 C1369 C 0.94706 0.65474 0.58177
 H1370 H 0.95508 0.66246 0.59520
 O1371 O 1.02219 0.39276 0.57748
 O1372 O 1.02250 0.36761 0.60251
 C1373 C 1.02973 0.37533 0.58499
 C1374 C 1.04749 0.36430 0.57350
 C1375 C 1.05478 0.34403 0.58031
 H1376 H 1.04646 0.33591 0.59327
 O1377 O 1.10872 0.42307 0.52031
 O1378 O 1.13397 0.39818 0.52018
 C1379 C 1.12634 0.41566 0.52753
 C1380 C 1.13765 0.42720 0.54509
 C1381 C 1.15806 0.42049 0.55207
 H1382 H 1.16609 0.40741 0.54382
 O1383 O 0.89301 0.57685 0.52154
 O1384 O 0.86789 0.60186 0.52165
 C1385 C 0.87555 0.58441 0.52899
 C1386 C 0.86443 0.57304 0.54675
 C1387 C 0.84467 0.58059 0.55471
 H1388 H 0.83733 0.59466 0.54754
 Cu1389 Cu 1.00103 0.40969 0.58980
 Cu1390 Cu 1.00133 0.37959 0.61992
 Cu1391 Cu 1.00074 0.58903 0.59037
 Cu1392 Cu 1.00071 0.61917 0.62054
 Cu1393 Cu 0.91056 0.40919 0.50048
 Cu1394 Cu 0.88067 0.37890 0.50063
 Cu1395 Cu 1.09125 0.41065 0.49962
 Cu1396 Cu 1.12140 0.38061 0.49949
 Cu1397 Cu 0.91022 0.58901 0.50050
 Cu1398 Cu 0.88015 0.61913 0.50059
 Cu1399 Cu 1.08987 0.58884 0.49982
 Cu1400 Cu 1.11982 0.61908 0.49969
 Cu1401 Cu 0.91084 0.49937 0.59030
 Cu1402 Cu 0.88094 0.49923 0.62066
 Cu1403 Cu 1.09085 0.49972 0.59027
 Cu1404 Cu 1.12104 0.49972 0.62037
 C1405 C 1.05723 0.44346 0.62615
 H1406 H 1.05218 0.44856 0.61024
 C1407 C 1.07089 0.42964 0.66709
 C1408 C 0.94461 0.55546 0.62661
 H1409 H 0.94969 0.55036 0.61071
 C1410 C 0.93088 0.56926 0.66747
 C1411 C 0.87418 0.55523 0.55665
 H1412 H 0.88961 0.54959 0.55086
 C1413 C 0.83468 0.57056 0.57237
 C1414 C 1.12753 0.44441 0.55569
 H1415 H 1.11168 0.44949 0.55056
 C1416 C 1.16822 0.43059 0.56963
 C1417 C 1.05785 0.37447 0.55617
 H1418 H 1.05237 0.39012 0.55088
 C1419 C 1.07263 0.33418 0.57043
 C1420 C 0.94433 0.62511 0.55659
 H1421 H 0.94991 0.60963 0.55088
 C1422 C 0.92921 0.66476 0.57214
 C1423 C 0.94486 0.44317 0.62616
 H1424 H 0.94991 0.44833 0.61028
 C1425 C 0.93115 0.42920 0.66702
 C1426 C 1.05690 0.55536 0.62683
 H1427 H 1.05111 0.54946 0.61145
 C1428 C 1.07265 0.57146 0.66613
 C1429 C 0.94499 0.37307 0.55628
 H1430 H 0.94997 0.38894 0.55112
 C1431 C 0.93150 0.33232 0.57029
 C1432 C 1.05644 0.62527 0.55634
 H1433 H 1.05067 0.60982 0.55072
 C1434 C 1.07218 0.66479 0.57157
 C1435 C 0.87479 0.44286 0.55693
 H1436 H 0.89070 0.44784 0.55188
 C1437 C 0.83388 0.42943 0.57056
 C1438 C 1.12661 0.55555 0.55613
 H1439 H 1.11111 0.54979 0.55065
 C1440 C 1.16633 0.57130 0.57102
 O1441 O 0.47813 0.92187 0.39271
 O1442 O 0.47798 0.89673 0.36763
 C1443 C 0.47063 0.91420 0.37528
 C1444 C 0.45292 0.92558 0.36410
 C1445 C 0.44500 0.91814 0.34422
 H1446 H 0.45198 0.90389 0.33705
 O1447 O 0.52000 1.07741 0.39175
 O1448 O 0.51988 1.10242 0.36659
 C1449 C 0.52725 1.08493 0.37417
 C1450 C 0.54495 1.07363 0.36288
 C1451 C 0.55270 1.08133 0.34309
 H1452 H 0.54462 1.09470 0.33541
 O1453 O 0.39296 0.97871 0.42286
 O1454 O 0.36751 0.97865 0.39809
 C1455 C 0.37535 0.97135 0.41553
 C1456 C 0.36413 0.95388 0.42719
 C1457 C 0.34381 0.94675 0.42035
 H1458 H 0.33623 0.95428 0.40657
 O1459 O 0.60641 1.02102 0.42104
 O1460 O 0.63145 1.02094 0.39589
 C1461 C 0.62387 1.02835 0.41341
 C1462 C 0.63505 1.04608 0.42478
 C1463 C 0.65476 1.05409 0.41712
 H1464 H 0.66205 1.04697 0.40296
 O1465 O 0.42266 0.89293 0.48012
 O1466 O 0.39763 0.86783 0.48026
 C1467 C 0.41512 0.87540 0.47285
 C1468 C 0.42642 0.86408 0.45513
 C1469 C 0.41900 0.84410 0.44771
 H1470 H 0.40582 0.83633 0.45602
 O1471 O 0.57686 1.10692 0.47824
 O1472 O 0.60184 1.13207 0.47810
 C1473 C 0.58431 1.12443 0.47086
 C1474 C 0.57277 1.13573 0.45333
 C1475 C 0.57951 1.15613 0.44642
 H1476 H 0.59260 1.16409 0.45475
 O1477 O 0.42191 1.02074 0.39298
 O1478 O 0.39656 1.02064 0.36811
 C1479 C 0.41413 1.02800 0.37550
 C1480 C 0.42535 1.04557 0.36399
 C1481 C 0.41792 1.05273 0.34388
 H1482 H 0.40457 1.04453 0.33624
 O1483 O 0.57667 0.97908 0.39185
 O1484 O 0.60146 0.97896 0.36645
 C1485 C 0.58404 0.97165 0.37427
 C1486 C 0.57240 0.95408 0.36309
 C1487 C 0.57908 0.94691 0.34270
 H1488 H 0.59290 0.95435 0.33518
 O1489 O 0.52045 0.89293 0.42210
 O1490 O 0.52045 0.86763 0.39719
 C1491 C 0.52782 0.87539 0.41466
 C1492 C 0.54545 0.86426 0.42623
 C1493 C 0.55266 0.84393 0.41947
 H1494 H 0.54464 0.83590 0.40623
 O1495 O 0.47846 1.10717 0.42151
 O1496 O 0.47822 1.13228 0.39645
 C1497 C 0.47109 1.12471 0.41407
 C1498 C 0.45375 1.13607 0.42584
 C1499 C 0.44614 1.15614 0.41873
 H1500 H 0.45323 1.16355 0.40464
 O1501 O 0.39360 1.07786 0.47940
 O1502 O 0.36845 1.10286 0.47947
 C1503 C 0.37606 1.08538 0.47208
 C1504 C 0.36464 1.07386 0.45456
 C1505 C 0.34451 1.08105 0.44724
 H1506 H 0.33735 1.09514 0.45455
 O1507 O 0.60683 0.92302 0.47842
 O1508 O 0.63193 0.89798 0.47827
 C1509 C 0.62422 0.91540 0.47088
 C1510 C 0.63523 0.92652 0.45289
 C1511 C 0.65481 0.91866 0.44487
 H1512 H 0.66247 0.90512 0.45270
 O1513 O 0.47807 1.07766 0.39207
 O1514 O 0.47782 1.10260 0.36684
 C1515 C 0.47054 1.08516 0.37460
 C1516 C 0.45283 1.07364 0.36355
 C1517 C 0.44499 1.08076 0.34353
 H1518 H 0.45215 1.09471 0.33597
 O1519 O 0.52001 0.92235 0.39250
 O1520 O 0.51995 0.89724 0.36738
 C1521 C 0.52717 0.91485 0.37486
 C1522 C 0.54443 0.92649 0.36327
 C1523 C 0.55099 0.91990 0.34263
 H1524 H 0.54242 0.90699 0.33468
 O1525 O 0.60646 0.97909 0.42098
 O1526 O 0.63140 0.97889 0.39574
 C1527 C 0.62386 0.97161 0.41331
 C1528 C 0.63505 0.95390 0.42466
 C1529 C 0.65456 0.94566 0.41673
 H1530 H 0.66167 0.95258 0.40240
 O1531 O 0.39286 1.02068 0.42292
 O1532 O 0.36740 1.02061 0.39816
 C1533 C 0.37523 1.02797 0.41559
 C1534 C 0.36409 1.04561 0.42716
 C1535 C 0.34374 1.05273 0.42039
 H1536 H 0.33563 1.04434 0.40743
 O1537 O 0.42295 1.10739 0.47937
 O1538 O 0.39791 1.13249 0.47947
 C1539 C 0.41537 1.12489 0.47206
 C1540 C 0.42664 1.13615 0.45434
 C1541 C 0.41941 1.15627 0.44716
 H1542 H 0.40626 1.16410 0.45548
 O1543 O 0.57734 0.89363 0.47886
 O1544 O 0.60237 0.86851 0.47881
 C1545 C 0.58483 0.87608 0.47155
 C1546 C 0.57327 0.86463 0.45408
 C1547 C 0.58033 0.84438 0.44702
 H1548 H 0.59414 0.83699 0.45465
 O1549 O 0.57698 1.02108 0.39156
 O1550 O 0.60188 1.02104 0.36628
 C1551 C 0.58449 1.02847 0.37404
 C1552 C 0.57315 1.04626 0.36291
 C1553 C 0.58100 1.05454 0.34337
 H1554 H 0.59539 1.04770 0.33634
 O1555 O 0.42209 0.97883 0.39299
 O1556 O 0.39675 0.97873 0.36811
 C1557 C 0.41437 0.97148 0.37551
 C1558 C 0.42568 0.95387 0.36410
 C1559 C 0.41837 0.94659 0.34396
 H1560 H 0.40526 0.95498 0.33615
 O1561 O 0.52034 1.10689 0.42122
 O1562 O 0.52020 1.13207 0.39622
 C1563 C 0.52763 1.12441 0.41369
 C1564 C 0.54518 1.13569 0.42525
 C1565 C 0.55230 1.15599 0.41842
 H1566 H 0.54476 1.16355 0.40463
 O1567 O 0.47850 0.89284 0.42247
 O1568 O 0.47839 0.86756 0.39753
 C1569 C 0.47112 0.87530 0.41504
 C1570 C 0.45358 0.86412 0.42667
 C1571 C 0.44559 0.84435 0.41917
 H1572 H 0.45248 0.83720 0.40483
 O1573 O 0.60636 1.07745 0.47811
 O1574 O 0.63141 1.10253 0.47789
 C1575 C 0.62380 1.08502 0.47061
 C1576 C 0.63498 1.07370 0.45283
 C1577 C 0.65476 1.08133 0.44509
 H1578 H 0.66240 1.09485 0.45299
 O1579 O 0.39306 0.92229 0.48004
 O1580 O 0.36788 0.89734 0.48018
 C1581 C 0.37549 0.91479 0.47277
 C1582 C 0.36414 0.92626 0.45519
 C1583 C 0.34374 0.91945 0.44821
 H1584 H 0.33583 0.90629 0.45641
 Cu1585 Cu 0.49931 0.91000 0.40995
 Cu1586 Cu 0.49924 0.87974 0.37993
 Cu1587 Cu 0.49922 1.08978 0.40914
 Cu1588 Cu 0.49903 1.11984 0.37898
 Cu1589 Cu 0.40999 0.99974 0.41043
 Cu1590 Cu 0.37950 0.99965 0.38063
 Cu1591 Cu 0.58914 1.00008 0.40888
 Cu1592 Cu 0.61905 0.99993 0.37854
 C1593 C 0.44317 0.94348 0.37385
 H1594 H 0.44883 0.94897 0.38943
 C1595 C 0.42774 0.92857 0.33392
 C1596 C 0.55508 1.05588 0.37249
 H1597 H 0.54927 1.04995 0.38782
 C1598 C 0.57089 1.07210 0.33327
 C1599 C 0.37408 0.94363 0.44472
 H1600 H 0.38989 0.94883 0.44987
 C1601 C 0.33343 0.92961 0.43078
 C1602 C 0.62539 1.05592 0.44273
 H1603 H 0.61001 1.05012 0.44848
 C1604 C 0.66473 1.07175 0.42716
 C1605 C 0.44393 0.87380 0.44471
 H1606 H 0.44964 0.88930 0.45026
 C1607 C 0.42830 0.83415 0.42959
 C1608 C 0.55544 1.12576 0.44280
 H1609 H 0.55028 1.10995 0.44794
 C1610 C 0.56942 1.16641 0.42896
 C1611 C 0.44297 1.05596 0.37356
 H1612 H 0.44866 1.05063 0.38917
 C1613 C 0.42753 1.07039 0.33354
 C1614 C 0.55502 0.94381 0.37320
 H1615 H 0.55010 0.94893 0.38914
 C1616 C 0.56838 0.92993 0.33217
 C1617 C 0.55572 0.87435 0.44370
 H1618 H 0.55041 0.89012 0.44886
 C1619 C 0.57010 0.83384 0.42979
 C1620 C 0.44397 1.12630 0.44374
 H1621 H 0.44946 1.11066 0.44906
 C1622 C 0.42894 1.16637 0.42930
 C1623 C 0.37425 1.05608 0.44445
 H1624 H 0.38999 1.05074 0.44969
 C1625 C 0.33380 1.07053 0.43024
 C1626 C 0.62560 0.94430 0.44283
 H1627 H 0.61036 0.95028 0.44879
 C1628 C 0.66454 0.92799 0.42670
 O1629 O 0.52189 0.92293 0.60776
 O1630 O 0.52206 0.89801 0.63302
 C1631 C 0.52932 0.91546 0.62531
 C1632 C 0.54691 0.92696 0.63655
 C1633 C 0.55396 0.92023 0.65697
 H1634 H 0.54575 0.90714 0.66499
 O1635 O 0.48004 1.07790 0.60791
 O1636 O 0.48015 1.10290 0.63314
 C1637 C 0.47282 1.08540 0.62553
 C1638 C 0.45543 1.07383 0.63694
 C1639 C 0.44849 1.08062 0.65738
 H1640 H 0.45614 1.09432 0.66497
 O1641 O 0.39392 1.02142 0.57829
 O1642 O 0.36892 1.02159 0.60347
 C1643 C 0.37646 1.02881 0.58587
 C1644 C 0.36512 1.04634 0.57440
 C1645 C 0.34505 1.05364 0.58168
 H1646 H 0.33735 1.04559 0.59508
 O1647 O 0.60780 0.97962 0.57777
 O1648 O 0.63321 0.97969 0.60258
 C1649 C 0.62542 0.97234 0.58512
 C1650 C 0.63658 0.95479 0.57345
 C1651 C 0.65657 0.94700 0.58064
 H1652 H 0.66410 0.95414 0.59467
 O1653 O 0.57799 0.89366 0.52098
 O1654 O 0.60309 0.86861 0.52089
 C1655 C 0.58568 0.87623 0.52838
 C1656 C 0.57448 0.86504 0.54622
 C1657 C 0.58212 0.84525 0.55405
 H1658 H 0.59617 0.83798 0.54676
 O1659 O 0.42323 1.10732 0.52142
 O1660 O 0.39816 1.13239 0.52152
 C1661 C 0.41569 1.12480 0.52882
 C1662 C 0.42703 1.13603 0.54658
 C1663 C 0.41951 1.15590 0.55422
 H1664 H 0.40626 1.16366 0.54600
 O1665 O 0.42325 0.97946 0.60784
 O1666 O 0.39836 0.97959 0.63314
 C1667 C 0.41580 0.97222 0.62545
 C1668 C 0.42738 0.95479 0.63684
 C1669 C 0.42054 0.94776 0.65721
 H1670 H 0.40677 0.95533 0.66475
 O1671 O 0.57828 1.02120 0.60766
 O1672 O 0.60347 1.02133 0.63270
 C1673 C 0.58584 1.02850 0.62523
 C1674 C 0.57428 1.04591 0.63669
 C1675 C 0.58083 1.05258 0.65731
 H1676 H 0.59364 1.04396 0.66537
 O1677 O 0.47969 0.89351 0.57851
 O1678 O 0.47989 0.86848 0.60366
 C1679 C 0.47240 0.87605 0.58618
 C1680 C 0.45460 0.86479 0.57501
 C1681 C 0.44691 0.84506 0.58279
 H1682 H 0.45489 0.83748 0.59632
 O1683 O 0.52157 1.10738 0.57807
 O1684 O 0.52182 1.13255 0.60312
 C1685 C 0.52901 1.12487 0.58556
 C1686 C 0.54658 1.13600 0.57394
 C1687 C 0.55474 1.15567 0.58151
 H1688 H 0.54787 1.16294 0.59580
 O1689 O 0.39317 0.92249 0.52210
 O1690 O 0.36803 0.89750 0.52229
 C1691 C 0.37571 0.91499 0.52957
 C1692 C 0.36457 0.92651 0.54725
 C1693 C 0.34469 0.91917 0.55512
 H1694 H 0.33732 0.90510 0.54798
 O1695 O 0.60655 1.07753 0.52023
 O1696 O 0.63165 1.10256 0.51996
 C1697 C 0.62408 1.08514 0.52746
 C1698 C 0.63544 1.07399 0.54523
 C1699 C 0.65533 1.08165 0.55266
 H1700 H 0.66294 1.09502 0.54450
 O1701 O 0.52195 1.07813 0.60770
 O1702 O 0.52211 1.10314 0.63292
 C1703 C 0.52940 1.08566 0.62522
 C1704 C 0.54691 1.07409 0.63653
 C1705 C 0.55403 1.08088 0.65692
 H1706 H 0.54664 1.09480 0.66432
 O1707 O 0.47997 0.92306 0.60795
 O1708 O 0.48014 0.89815 0.63322
 C1709 C 0.47278 0.91562 0.62559
 C1710 C 0.45531 0.92717 0.63697
 C1711 C 0.44838 0.92047 0.65743
 H1712 H 0.45658 0.90734 0.66541
 O1713 O 0.60733 1.02154 0.57780
 O1714 O 0.63270 1.02177 0.60264
 C1715 C 0.62482 1.02906 0.58520
 C1716 C 0.63577 1.04676 0.57360
 C1717 C 0.65556 1.05483 0.58097
 H1718 H 0.66300 1.04788 0.59513
 O1719 O 0.39362 0.97950 0.57848
 O1720 O 0.36861 0.97965 0.60367
 C1721 C 0.37612 0.97225 0.58611
 C1722 C 0.36475 0.95463 0.57479
 C1723 C 0.34476 0.94725 0.58224
 H1724 H 0.33708 0.95537 0.59563
 O1725 O 0.57719 1.10709 0.52034
 O1726 O 0.60225 1.13216 0.52011
 C1727 C 0.58483 1.12458 0.52763
 C1728 C 0.57375 1.13587 0.54549
 C1729 C 0.58150 1.15566 0.55312
 H1730 H 0.59490 1.16327 0.54502
 O1731 O 0.42256 0.89307 0.52219
 O1732 O 0.39754 0.86796 0.52240
 C1733 C 0.41501 0.87566 0.52971
 C1734 C 0.42643 0.86462 0.54751
 C1735 C 0.41881 0.84499 0.55570
 H1736 H 0.40461 0.83771 0.54869
 O1737 O 0.57859 0.97936 0.60745
 O1738 O 0.60382 0.97941 0.63245
 C1739 C 0.58629 0.97204 0.62493
 C1740 C 0.57487 0.95454 0.63633
 C1741 C 0.58183 0.94748 0.65667
 H1742 H 0.59561 0.95505 0.66419
 O1743 O 0.42334 1.02135 0.60795
 O1744 O 0.39846 1.02148 0.63325
 C1745 C 0.41597 1.02867 0.62559
 C1746 C 0.42766 1.04605 0.63698
 C1747 C 0.42108 1.05291 0.65752
 H1748 H 0.40796 1.04471 0.66552
 O1749 O 0.47961 1.10738 0.57856
 O1750 O 0.47971 1.13254 0.60362
 C1751 C 0.47220 1.12483 0.58619
 C1752 C 0.45438 1.13593 0.57488
 C1753 C 0.44625 1.15555 0.58265
 H1754 H 0.45318 1.16259 0.59703
 O1755 O 0.52164 0.89365 0.57806
 O1756 O 0.52190 0.86860 0.60318
 C1757 C 0.52908 0.87619 0.58558
 C1758 C 0.54670 0.86499 0.57407
 C1759 C 0.55439 0.84511 0.58148
 H1760 H 0.54654 0.83740 0.59499
 O1761 O 0.60717 0.92340 0.52051
 O1762 O 0.63234 0.89842 0.52032
 C1763 C 0.62478 0.91592 0.52770
 C1764 C 0.63624 0.92733 0.54525
 C1765 C 0.65628 0.91992 0.55251
 H1766 H 0.66391 0.90654 0.54437
 O1767 O 0.39354 1.07810 0.52152
 O1768 O 0.36838 1.10307 0.52160
 C1769 C 0.37605 1.08563 0.52895
 C1770 C 0.36489 1.07420 0.54666
 C1771 C 0.34488 1.08145 0.55434
 H1772 H 0.33739 1.09536 0.54703
 Cu1773 Cu 0.50078 0.91079 0.59055
 Cu1774 Cu 0.50102 0.88077 0.62078
 Cu1775 Cu 0.50079 1.09021 0.59054
 Cu1776 Cu 0.50097 1.12033 0.62071
 Cu1777 Cu 0.41037 0.91020 0.50109
 Cu1778 Cu 0.38026 0.88013 0.50126
 Cu1779 Cu 0.58981 0.91093 0.49972
 Cu1780 Cu 0.61996 0.88088 0.49956
 Cu1781 Cu 0.41083 1.09015 0.50043
 Cu1782 Cu 0.38071 1.12022 0.50052
 Cu1783 Cu 0.58922 1.08973 0.49923
 Cu1784 Cu 0.61931 1.11983 0.49898
 Cu1785 Cu 0.41103 1.00043 0.59061
 Cu1786 Cu 0.38106 1.00061 0.62090
 Cu1787 Cu 0.59049 1.00041 0.59017
 Cu1788 Cu 0.62087 1.00057 0.62008
 C1789 C 0.55732 0.94426 0.62648
 H1790 H 0.55208 0.94940 0.61065
 C1791 C 0.57142 0.93037 0.66718
 C1792 C 0.44501 1.05644 0.62696
 H1793 H 0.45003 1.05136 0.61103
 C1794 C 0.43137 1.07022 0.66787
 C1795 C 0.37478 1.05656 0.55672
 H1796 H 0.39038 1.05114 0.55117
 C1797 C 0.33483 1.07127 0.57188
 C1798 C 0.62665 0.94493 0.55565
 H1799 H 0.61106 0.95055 0.55027
 C1800 C 0.66652 0.92951 0.57029
 C1801 C 0.55668 0.87469 0.55627
 H1802 H 0.55097 0.89013 0.55060
 C1803 C 0.57219 0.83515 0.57170
 C1804 C 0.44468 1.12635 0.55681
 H1805 H 0.45049 1.11096 0.55106
 C1806 C 0.42881 1.16574 0.57241
 C1807 C 0.44487 0.94449 0.62693
 H1808 H 0.44999 0.94960 0.61107
 C1809 C 0.43097 0.93066 0.66770
 C1810 C 0.55710 1.05655 0.62660
 H1811 H 0.55201 1.05153 0.61067
 C1812 C 0.57088 1.07014 0.66760
 C1813 C 0.44441 0.87431 0.55721
 H1814 H 0.45013 0.88964 0.55127
 C1815 C 0.42894 0.83508 0.57336
 C1816 C 0.55611 1.12631 0.55584
 H1817 H 0.55021 1.11093 0.55017
 C1818 C 0.57222 1.16564 0.57121
 C1819 C 0.37437 0.94433 0.55712
 H1820 H 0.38989 0.94981 0.55142
 C1821 C 0.33463 0.92945 0.57262
 C1822 C 0.62591 1.05638 0.55564
 H1823 H 0.61045 1.05053 0.55012
 C1824 C 0.66548 1.07230 0.57060
 O1825 O 0.57858 0.52110 1.10763
 O1826 O 0.60373 0.52122 1.13269
 C1827 C 0.58623 0.52856 1.12509
 C1828 C 0.57488 0.54628 1.13631
 C1829 C 0.58258 0.55437 1.15604
 H1830 H 0.59691 0.54745 1.16312
 O1831 O 0.42340 0.47900 1.10777
 O1832 O 0.39853 0.47890 1.13309
 C1833 C 0.41597 0.47160 1.12534
 C1834 C 0.42749 0.45397 1.13649
 C1835 C 0.42072 0.44676 1.15684
 H1836 H 0.40771 0.45505 1.16493
 O1837 O 0.52181 0.60712 1.07823
 O1838 O 0.52206 0.63223 1.10334
 C1839 C 0.52934 0.62453 1.08581
 C1840 C 0.54708 0.63558 1.07435
 C1841 C 0.55527 0.65523 1.08198
 H1842 H 0.54831 0.66254 1.09621
 O1843 O 0.47989 0.39240 1.07793
 O1844 O 0.48016 0.36737 1.10308
 C1845 C 0.47262 0.37493 1.08563
 C1846 C 0.45479 0.36372 1.07448
 C1847 C 0.44675 0.34414 1.08239
 H1848 H 0.45400 0.33691 1.09651
 O1849 O 0.60727 0.57727 1.02056
 O1850 O 0.63251 0.60217 1.02032
 C1851 C 0.62489 0.58473 1.02774
 C1852 C 0.63632 0.57329 1.04527
 C1853 C 0.65678 0.58005 1.05207
 H1854 H 0.66470 0.59312 1.04372
 O1855 O 0.39368 0.42219 1.02196
 O1856 O 0.36844 0.39729 1.02213
 C1857 C 0.37618 0.41476 1.02941
 C1858 C 0.36492 0.42642 1.04694
 C1859 C 0.34465 0.41958 1.05411
 H1860 H 0.33730 0.40562 1.04672
 O1861 O 0.47975 0.57791 1.10768
 O1862 O 0.47991 0.60285 1.13296
 C1863 C 0.47251 0.58540 1.12529
 C1864 C 0.45513 0.57382 1.13673
 C1865 C 0.44805 0.58076 1.15708
 H1866 H 0.45540 0.59478 1.16435
 O1867 O 0.52177 0.42242 1.10709
 O1868 O 0.52206 0.39743 1.13227
 C1869 C 0.52919 0.41498 1.12465
 C1870 C 0.54676 0.42647 1.13597
 C1871 C 0.55415 0.41918 1.15605
 H1872 H 0.54581 0.40606 1.16386
 O1873 O 0.60792 0.47924 1.07789
 O1874 O 0.63321 0.47931 1.10283
 C1875 C 0.62553 0.47200 1.08531
 C1876 C 0.63690 0.45460 1.07364
 C1877 C 0.65718 0.44749 1.08057
 H1878 H 0.66468 0.45500 1.09443
 O1879 O 0.39403 0.52130 1.07866
 O1880 O 0.36911 0.52134 1.10393
 C1881 C 0.37666 0.52875 1.08641
 C1882 C 0.36548 0.54661 1.07525
 C1883 C 0.34574 0.55439 1.08299
 H1884 H 0.33812 0.54646 1.09650
 O1885 O 0.42339 0.60759 1.02151
 O1886 O 0.39841 0.63275 1.02160
 C1887 C 0.41598 0.62517 1.02881
 C1888 C 0.42749 0.63647 1.04640
 C1889 C 0.42009 0.65639 1.05402
 H1890 H 0.40683 0.66418 1.04585
 O1891 O 0.57877 0.39363 1.02095
 O1892 O 0.60379 0.36851 1.02075
 C1893 C 0.58637 0.37614 1.02826
 C1894 C 0.57504 0.36481 1.04590
 C1895 C 0.58242 0.34480 1.05331
 H1896 H 0.59652 0.33769 1.04598
 O1897 O 0.42357 0.52089 1.10811
 O1898 O 0.39878 0.52082 1.13352
 C1899 C 0.41625 0.52810 1.12581
 C1900 C 0.42787 0.54556 1.13715
 C1901 C 0.42136 0.55239 1.15773
 H1902 H 0.40858 0.54383 1.16586
 O1903 O 0.57856 0.47908 1.10741
 O1904 O 0.60369 0.47906 1.13249
 C1905 C 0.58624 0.47164 1.12485
 C1906 C 0.57492 0.45386 1.13599
 C1907 C 0.58251 0.44588 1.15578
 H1908 H 0.59678 0.45286 1.16291
 O1909 O 0.52186 0.39290 1.07750
 O1910 O 0.52216 0.36779 1.10256
 C1911 C 0.52934 0.37543 1.08500
 C1912 C 0.54698 0.36431 1.07345
 C1913 C 0.55430 0.34408 1.08033
 H1914 H 0.54605 0.33603 1.09339
 O1915 O 0.47982 0.60748 1.07836
 O1916 O 0.47997 0.63255 1.10351
 C1917 C 0.47253 0.62497 1.08601
 C1918 C 0.45489 0.63627 1.07464
 C1919 C 0.44690 0.65595 1.08240
 H1920 H 0.45387 0.66297 1.09677
 O1921 O 0.39380 0.57827 1.02217
 O1922 O 0.36873 0.60333 1.02234
 C1923 C 0.37643 0.58591 1.02974
 C1924 C 0.36540 0.57466 1.04766
 C1925 C 0.34576 0.58236 1.05582
 H1926 H 0.33850 0.59653 1.04875
 O1927 O 0.60816 0.42307 1.02072
 O1928 O 0.63332 0.39808 1.02053
 C1929 C 0.62573 0.41556 1.02795
 C1930 C 0.63706 0.42703 1.04555
 C1931 C 0.65741 0.42020 1.05264
 H1932 H 0.66536 0.40701 1.04448
 O1933 O 0.47983 0.42211 1.10708
 O1934 O 0.48011 0.39718 1.13232
 C1935 C 0.47260 0.41457 1.12465
 C1936 C 0.45502 0.42595 1.13602
 C1937 C 0.44772 0.41868 1.15614
 H1938 H 0.45508 0.40462 1.16331
 O1939 O 0.52164 0.57756 1.10761
 O1940 O 0.52182 0.60256 1.13284
 C1941 C 0.52902 0.58503 1.12518
 C1942 C 0.54666 0.57361 1.13643
 C1943 C 0.55419 0.58105 1.15641
 H1944 H 0.54595 0.59426 1.16422
 O1945 O 0.39369 0.47934 1.07842
 O1946 O 0.36866 0.47933 1.10358
 C1947 C 0.37615 0.47208 1.08596
 C1948 C 0.36474 0.45463 1.07438
 C1949 C 0.34423 0.44786 1.08102
 H1950 H 0.33621 0.45639 1.09393
 O1951 O 0.60761 0.52108 1.07779
 O1952 O 0.63294 0.52120 1.10269
 C1953 C 0.62518 0.52844 1.08517
 C1954 C 0.63641 0.54585 1.07343
 C1955 C 0.65679 0.55294 1.08012
 H1956 H 0.66443 0.54545 1.09389
 O1957 O 0.42285 0.39246 1.02176
 O1958 O 0.39773 0.36745 1.02203
 C1959 C 0.41531 0.37502 1.02921
 C1960 C 0.42677 0.36381 1.04685
 C1961 C 0.41908 0.34417 1.05485
 H1962 H 0.40534 0.33661 1.04725
 O1963 O 0.57780 0.60671 1.02081
 O1964 O 0.60294 0.63170 1.02062
 C1965 C 0.58551 0.62416 1.02815
 C1966 C 0.57443 0.63541 1.04605
 C1967 C 0.58222 0.65514 1.05377
 H1968 H 0.59569 0.66273 1.04575
 Cu1969 Cu 0.59062 0.50012 1.09022
 Cu1970 Cu 0.62090 0.50021 1.12022
 Cu1971 Cu 0.41115 0.50012 1.09071
 Cu1972 Cu 0.38125 0.50008 1.12105
 Cu1973 Cu 0.50072 0.59004 1.09042
 Cu1974 Cu 0.50097 0.62008 1.12068
 Cu1975 Cu 0.50083 0.40994 1.08986
 Cu1976 Cu 0.50120 0.37993 1.12009
 C1977 C 0.55688 0.55600 1.12668
 H1978 H 0.55120 0.55025 1.11121
 C1979 C 0.57233 0.57178 1.16628
 C1980 C 0.44485 0.44364 1.12637
 H1981 H 0.45011 0.44905 1.11064
 C1982 C 0.43066 0.42903 1.16682
 C1983 C 0.55671 0.62589 1.05629
 H1984 H 0.55077 0.61054 1.05057
 C1985 C 0.57286 0.66515 1.07180
 C1986 C 0.44479 0.37331 1.05661
 H1987 H 0.45063 0.38860 1.05068
 C1988 C 0.42885 0.33426 1.07271
 C1989 C 0.62639 0.55602 1.05590
 H1990 H 0.61053 0.55086 1.05087
 C1991 C 0.66717 0.56998 1.06949
 C1992 C 0.37479 0.44401 1.05712
 H1993 H 0.39063 0.44907 1.05197
 C1994 C 0.33401 0.43028 1.07103
 C1995 C 0.44498 0.55618 1.12695
 H1996 H 0.45003 0.55105 1.11105
 C1997 C 0.43125 0.57009 1.16784
 C1998 C 0.55703 0.44405 1.12624
 H1999 H 0.55144 0.44970 1.11071
 C2000 C 0.57220 0.42853 1.16603
 C2001 C 0.62707 0.44439 1.05602
 H2002 H 0.61128 0.44959 1.05081
 C2003 C 0.66762 0.43035 1.07015
 C2004 C 0.37505 0.55671 1.05743
 H2005 H 0.39037 0.55092 1.05150
 C2006 C 0.33578 0.57234 1.07349
 C2007 C 0.44511 0.62672 1.05660
 H2008 H 0.45081 0.61128 1.05088
 C2009 C 0.42947 0.66620 1.07220
 C2010 C 0.55727 0.37438 1.05603
 H2011 H 0.55178 0.39003 1.05070
 C2012 C 0.57210 0.33418 1.07043
 O2013 O 0.57699 0.47845 0.89215
 O2014 O 0.60179 0.47846 0.86677
 C2015 C 0.58442 0.47108 0.87458
 C2016 C 0.57288 0.45350 0.86337
 C2017 C 0.57970 0.44629 0.84304
 H2018 H 0.59358 0.45371 0.83561
 O2019 O 0.42169 0.52086 0.89388
 O2020 O 0.39645 0.52088 0.86890
 C2021 C 0.41403 0.52817 0.87637
 C2022 C 0.42550 0.54555 0.86482
 C2023 C 0.41843 0.55250 0.84449
 H2024 H 0.40456 0.54494 0.83712
 O2025 O 0.47884 0.60696 0.92205
 O2026 O 0.47861 0.63191 0.89684
 C2027 C 0.47136 0.62436 0.91442
 C2028 C 0.45365 0.63553 0.92580
 C2029 C 0.44535 0.65499 0.91786
 H2030 H 0.45227 0.66212 0.90353
 O2031 O 0.52049 0.39318 0.92269
 O2032 O 0.52041 0.36793 0.89772
 C2033 C 0.52782 0.37565 0.91521
 C2034 C 0.54549 0.36448 0.92669
 C2035 C 0.55235 0.34402 0.92004
 H2036 H 0.54390 0.33592 0.90710
 O2037 O 0.60793 0.42298 0.97870
 O2038 O 0.63305 0.39795 0.97846
 C2039 C 0.62539 0.41544 0.97121
 C2040 C 0.63646 0.42683 0.95346
 C2041 C 0.65671 0.41995 0.94616
 H2042 H 0.66483 0.40705 0.95457
 O2043 O 0.39332 0.57786 0.98004
 O2044 O 0.36817 0.60285 0.98019
 C2045 C 0.37572 0.58534 0.97283
 C2046 C 0.36419 0.57374 0.95543
 C2047 C 0.34395 0.58081 0.94828
 H2048 H 0.33678 0.59486 0.95565
 O2049 O 0.52058 0.57737 0.89240
 O2050 O 0.52041 0.60223 0.86709
 C2051 C 0.52776 0.58477 0.87475
 C2052 C 0.54513 0.57317 0.86328
 C2053 C 0.55219 0.58010 0.84295
 H2054 H 0.54467 0.59393 0.83549
 O2055 O 0.47846 0.42248 0.89326
 O2056 O 0.47835 0.39751 0.86800
 C2057 C 0.47110 0.41503 0.87569
 C2058 C 0.45363 0.42665 0.86440
 C2059 C 0.44690 0.42022 0.84378
 H2060 H 0.45525 0.40725 0.83568
 O2061 O 0.60638 0.52057 0.92140
 O2062 O 0.63137 0.52064 0.89619
 C2063 C 0.62384 0.52793 0.91378
 C2064 C 0.63521 0.54541 0.92533
 C2065 C 0.65549 0.55246 0.91836
 H2066 H 0.66297 0.54488 0.90455
 O2067 O 0.39262 0.47882 0.92358
 O2068 O 0.36733 0.47879 0.89865
 C2069 C 0.37509 0.47145 0.91610
 C2070 C 0.36396 0.45373 0.92747
 C2071 C 0.34404 0.44615 0.92005
 H2072 H 0.33623 0.45420 0.90669
 O2073 O 0.57745 0.60670 0.97870
 O2074 O 0.60258 0.63170 0.97850
 C2075 C 0.58501 0.62414 0.97126
 C2076 C 0.57362 0.63538 0.95356
 C2077 C 0.58117 0.65520 0.94588
 H2078 H 0.59466 0.66286 0.95381
 O2079 O 0.42275 0.39259 0.97975
 O2080 O 0.39770 0.36751 0.97998
 C2081 C 0.41514 0.37508 0.97248
 C2082 C 0.42630 0.36383 0.95465
 C2083 C 0.41872 0.34396 0.94709
 H2084 H 0.40555 0.33621 0.95542
 O2085 O 0.42169 0.47894 0.89372
 O2086 O 0.39653 0.47895 0.86865
 C2087 C 0.41410 0.47166 0.87615
 C2088 C 0.42568 0.45428 0.86463
 C2089 C 0.41903 0.44750 0.84407
 H2090 H 0.40537 0.45519 0.83646
 O2091 O 0.57692 0.52037 0.89187
 O2092 O 0.60175 0.52043 0.86651
 C2093 C 0.58428 0.52768 0.87424
 C2094 C 0.57269 0.54518 0.86298
 C2095 C 0.57941 0.55221 0.84256
 H2096 H 0.59252 0.54402 0.83453
 O2097 O 0.47848 0.39258 0.92222
 O2098 O 0.47831 0.36746 0.89713
 C2099 C 0.47101 0.37512 0.91465
 C2100 C 0.45336 0.36395 0.92613
 C2101 C 0.44520 0.34430 0.91845
 H2102 H 0.45200 0.33724 0.90403
 O2103 O 0.52082 0.60686 0.92187
 O2104 O 0.52072 0.63187 0.89671
 C2105 C 0.52818 0.62429 0.91420
 C2106 C 0.54596 0.63545 0.92554
 C2107 C 0.55391 0.65518 0.91792
 H2108 H 0.54675 0.66248 0.90379
 O2109 O 0.39305 0.42177 0.97987
 O2110 O 0.36789 0.39679 0.98002
 C2111 C 0.37549 0.41422 0.97259
 C2112 C 0.36417 0.42561 0.95495
 C2113 C 0.34434 0.41806 0.94708
 H2114 H 0.33712 0.40390 0.95419
 O2115 O 0.60684 0.57715 0.97849
 O2116 O 0.63207 0.60205 0.97829
 C2117 C 0.62434 0.58459 0.97102
 C2118 C 0.63549 0.57305 0.95336
 C2119 C 0.65584 0.57979 0.94625
 H2120 H 0.66386 0.59293 0.95441
 O2121 O 0.52030 0.42199 0.89253
 O2122 O 0.52023 0.39691 0.86738
 C2123 C 0.52751 0.41446 0.87490
 C2124 C 0.54488 0.42598 0.86340
 C2125 C 0.55160 0.41930 0.84283
 H2126 H 0.54310 0.40636 0.83485
 O2127 O 0.47868 0.57726 0.89284
 O2128 O 0.47846 0.60207 0.86747
 C2129 C 0.47120 0.58464 0.87528
 C2130 C 0.45353 0.57308 0.86422
 C2131 C 0.44632 0.57971 0.84382
 H2132 H 0.45444 0.59278 0.83567
 O2133 O 0.39246 0.52073 0.92366
 O2134 O 0.36708 0.52074 0.89882
 C2135 C 0.37483 0.52802 0.91633
 C2136 C 0.36364 0.54554 0.92800
 C2137 C 0.34318 0.55251 0.92141
 H2138 H 0.33503 0.54404 0.90852
 O2139 O 0.60678 0.47867 0.92124
 O2140 O 0.63172 0.47869 0.89599
 C2141 C 0.62426 0.47138 0.91358
 C2142 C 0.63575 0.45397 0.92506
 C2143 C 0.65576 0.44655 0.91766
 H2144 H 0.66276 0.45371 0.90340
 O2145 O 0.57823 0.39377 0.97886
 O2146 O 0.60319 0.36860 0.97862
 C2147 C 0.58563 0.37623 0.97144
 C2148 C 0.57384 0.36485 0.95405
 C2149 C 0.58061 0.34449 0.94698
 H2150 H 0.59450 0.33704 0.95442
 O2151 O 0.42282 0.60721 0.97947
 O2152 O 0.39777 0.63230 0.97953
 C2153 C 0.41515 0.62461 0.97202
 C2154 C 0.42621 0.63563 0.95400
 C2155 C 0.41825 0.65514 0.94592
 H2156 H 0.40463 0.66273 0.95369
 Cu2157 Cu 0.58927 0.49952 0.90919
 Cu2158 Cu 0.61916 0.49958 0.87881
 Cu2159 Cu 0.40964 0.49985 0.91121
 Cu2160 Cu 0.37929 0.49986 0.88126
 Cu2161 Cu 0.58982 0.58947 0.99966
 Cu2162 Cu 0.62003 0.61943 0.99940
 Cu2163 Cu 0.59077 0.41087 0.99982
 Cu2164 Cu 0.62084 0.38075 0.99955
 Cu2165 Cu 0.41083 0.59021 1.00079
 Cu2166 Cu 0.38076 0.62033 1.00093
 Cu2167 Cu 0.41058 0.40976 1.00082
 Cu2168 Cu 0.38042 0.37975 1.00108
 Cu2169 Cu 0.49976 0.58964 0.90983
 Cu2170 Cu 0.49954 0.61955 0.87951
 Cu2171 Cu 0.49946 0.41004 0.91020
 Cu2172 Cu 0.49933 0.37990 0.88006
 C2173 C 0.55542 0.44329 0.87336
 H2174 H 0.55037 0.44847 0.88925
 C2175 C 0.56908 0.42931 0.83248
 C2176 C 0.44316 0.55584 0.87447
 H2177 H 0.44849 0.55077 0.89030
 C2178 C 0.42876 0.56953 0.83381
 C2179 C 0.44406 0.62607 0.94398
 H2180 H 0.45011 0.61088 0.94995
 C2181 C 0.42761 0.66489 0.92778
 C2182 C 0.55618 0.37464 0.94388
 H2183 H 0.55110 0.39050 0.94899
 C2184 C 0.56992 0.33387 0.93006
 C2185 C 0.62629 0.44406 0.94301
 H2186 H 0.61064 0.44937 0.94850
 C2187 C 0.66650 0.42962 0.92816
 C2188 C 0.37384 0.55605 0.94523
 H2189 H 0.38966 0.55082 0.95033
 C2190 C 0.33318 0.57024 0.93135
 C2191 C 0.55538 0.55560 0.87308
 H2192 H 0.55026 0.55040 0.88893
 C2193 C 0.56928 0.56969 0.83240
 C2194 C 0.44308 0.44384 0.87458
 H2195 H 0.44808 0.44876 0.89057
 C2196 C 0.42959 0.43051 0.83346
 C2197 C 0.62542 0.55570 0.94294
 H2198 H 0.60963 0.55056 0.94819
 C2199 C 0.66598 0.56960 0.92876
 C2200 C 0.37376 0.44353 0.94510
 H2201 H 0.38924 0.44918 0.95077
 C2202 C 0.33415 0.42822 0.92959
 C2203 C 0.55585 0.62577 0.94345
 H2204 H 0.55010 0.61036 0.94915
 C2205 C 0.57155 0.66519 0.92798
 C2206 C 0.44383 0.37353 0.94427
 H2207 H 0.44967 0.38893 0.94995
 C2208 C 0.42786 0.33411 0.92884
 C2209 C 1.10290 1.10419 1.24908
 C2210 C 1.12491 1.10120 1.25390
 C2211 C 1.13352 1.10916 1.27329
 C2212 C 1.12075 1.12108 1.28781
 C2213 C 1.09901 1.12454 1.28241
 C2214 C 1.09020 1.11615 1.26351
 C2215 C 1.09422 1.09506 1.22845
 C2216 C 1.07220 1.09544 1.22314
 C2217 C 1.06497 1.08722 1.20349
 C2218 C 1.07946 1.07857 1.18844
 C2219 C 1.10140 1.07764 1.19389
 C2220 C 1.10877 1.08543 1.21384
 C2221 C 1.13836 1.09079 1.23906
 C2222 C 1.13055 1.08346 1.21930
 H2223 H 1.15529 1.08865 1.24261
 H2224 H 1.14169 1.07589 1.20822
 H2225 H 1.15047 1.10681 1.27645
 H2226 H 1.08834 1.13322 1.29305
 H2227 H 1.04789 1.08752 1.20017
 H2228 H 1.11289 1.07111 1.18251
 H2229 H 1.07346 1.11944 1.26041
 H2230 H 1.06025 1.10178 1.23401
 C2231 C 1.10614 0.60715 0.74617
 C2232 C 1.11462 0.59251 0.76143
 C2233 C 1.12279 0.60005 0.78116
 C2234 C 1.12218 0.62203 0.78621
 C2235 C 1.11350 0.63645 0.77121
 C2236 C 1.10565 0.62919 0.75144
 C2237 C 1.09771 0.59849 0.72524
 C2238 C 1.08992 0.61180 0.70863
 C2239 C 1.08197 0.60297 0.68955
 C2240 C 1.08142 0.58063 0.68647
 C2241 C 1.08947 0.56722 0.70281
 C2242 C 1.09774 0.57596 0.72200
 C2243 C 1.11457 0.57041 0.75706
 C2244 C 1.10611 0.56230 0.73787
 H2245 H 1.12096 0.55917 0.76876
 H2246 H 1.10625 0.54506 0.73537
 H2247 H 1.12916 0.58878 0.79284
 H2248 H 1.11300 0.65350 0.77471
 H2249 H 1.07646 0.61377 0.67703
 H2250 H 1.08910 0.54993 0.70070
 H2251 H 1.09912 0.64109 0.74065
 H2252 H 1.08997 0.62908 0.70990
 C2253 C 0.60079 1.10189 0.75079
 C2254 C 0.62270 1.09861 0.75593
 C2255 C 0.63110 1.10634 0.77548
 C2256 C 0.61831 1.11846 0.78981
 C2257 C 0.59666 1.12212 0.78418
 C2258 C 0.58800 1.11386 0.76514
 C2259 C 0.59240 1.09316 0.72987
 C2260 C 0.57049 1.09384 0.72413
 C2261 C 0.56357 1.08604 0.70419
 C2262 C 0.57828 1.07757 0.68925
 C2263 C 0.60010 1.07636 0.69511
 C2264 C 0.60714 1.08366 0.71535
 C2265 C 0.63629 1.08825 0.74120
 C2266 C 0.62878 1.08134 0.72118
 H2267 H 0.65313 1.08588 0.74501
 H2268 H 0.64005 1.07384 0.71018
 H2269 H 0.64799 1.10383 0.77882
 H2270 H 0.58601 1.13096 0.79473
 H2271 H 0.54655 1.08654 0.70057
 H2272 H 0.61178 1.07000 0.68383
 H2273 H 0.57134 1.11733 0.76182
 H2274 H 0.55840 1.10009 0.73491
 C2275 C 0.60387 0.60692 1.24740
 C2276 C 0.61499 0.59283 1.26135
 C2277 C 0.62327 0.60045 1.28101
 C2278 C 0.61981 0.62186 1.28770
 C2279 C 0.60778 0.63541 1.27407
 C2280 C 0.60010 0.62815 1.25423
 C2281 C 0.59606 0.59843 1.22619
 C2282 C 0.58710 0.61173 1.21019
 C2283 C 0.57977 0.60306 1.19081
 C2284 C 0.58085 0.58084 1.18685
 C2285 C 0.59029 0.56753 1.20254
 C2286 C 0.59827 0.57621 1.22188
 C2287 C 0.61734 0.57110 1.25583
 C2288 C 0.60873 0.56288 1.23675
 H2289 H 0.62562 0.56019 1.26662
 H2290 H 0.61065 0.54588 1.23341
 H2291 H 0.63162 0.58929 1.29144
 H2292 H 0.60480 0.65202 1.27821
 H2293 H 0.57345 0.61394 1.17876
 H2294 H 0.59134 0.55036 1.19981
 H2295 H 0.59106 0.63939 1.24459
 H2296 H 0.58594 0.62892 1.21216
 C2297 C 0.90012 0.89666 1.25025
 C2298 C 0.87820 0.90008 1.25521
 C2299 C 0.86961 0.89237 1.27464
 C2300 C 0.88221 0.88021 1.28909
 C2301 C 0.90386 0.87632 1.28362
 C2302 C 0.91271 0.88455 1.26466
 C2303 C 0.90873 0.90550 1.22949
 C2304 C 0.93067 0.90471 1.22393
 C2305 C 0.93780 0.91276 1.20418
 C2306 C 0.92326 0.92159 1.18927
 C2307 C 0.90140 0.92280 1.19493
 C2308 C 0.89417 0.91527 1.21497
 C2309 C 0.86478 0.91062 1.24046
 C2310 C 0.87249 0.91765 1.22060
 H2311 H 0.84792 0.91308 1.24414
 H2312 H 0.86136 0.92533 1.20959
 H2313 H 0.85271 0.89499 1.27781
 H2314 H 0.91435 0.86738 1.29423
 H2315 H 0.95484 0.91219 1.20069
 H2316 H 0.88986 0.92939 1.18364
 H2317 H 0.92937 0.88096 1.26146
 H2318 H 0.94263 0.89821 1.23471
 C2319 C 0.90064 0.39690 0.74970
 C2320 C 0.87885 0.40076 0.75490
 C2321 C 0.87031 0.39321 0.77441
 C2322 C 0.88277 0.38069 0.78865
 C2323 C 0.90426 0.37631 0.78294
 C2324 C 0.91311 0.38443 0.76393
 C2325 C 0.90921 0.40562 0.72888
 C2326 C 0.93110 0.40459 0.72317
 C2327 C 0.93818 0.41255 0.70337
 C2328 C 0.92363 0.42149 0.68852
 C2329 C 0.90183 0.42294 0.69433
 C2330 C 0.89466 0.41557 0.71446
 C2331 C 0.86547 0.41153 0.74027
 C2332 C 0.87309 0.41834 0.72030
 H2333 H 0.84870 0.41430 0.74412
 H2334 H 0.86198 0.42618 0.70937
 H2335 H 0.85350 0.39619 0.77776
 H2336 H 0.91461 0.36703 0.79340
 H2337 H 0.95520 0.41182 0.69979
 H2338 H 0.89025 0.42960 0.68312
 H2339 H 0.92964 0.38047 0.76050
 H2340 H 0.94305 0.39798 0.73390
 C2341 C 0.39842 0.90020 0.75018
 C2342 C 0.39850 0.87769 0.75355
 C2343 C 0.39033 0.86909 0.77278
 C2344 C 0.38164 0.88252 0.78873
 C2345 C 0.38137 0.90478 0.78531
 C2346 C 0.38970 0.91356 0.76635
 C2347 C 0.40724 0.90869 0.72934
 C2348 C 0.40849 0.93081 0.72460
 C2349 C 0.41641 0.93785 0.70477
 C2350 C 0.42326 0.92309 0.68908
 C2351 C 0.42238 0.90105 0.69380
 C2352 C 0.41459 0.89379 0.71374
 C2353 C 0.40639 0.86385 0.73760
 C2354 C 0.41410 0.87171 0.71806
 H2355 H 0.40638 0.84662 0.74016
 H2356 H 0.41982 0.86030 0.70616
 H2357 H 0.39020 0.85184 0.77508
 H2358 H 0.37482 0.91545 0.79743
 H2359 H 0.41730 0.95497 0.70175
 H2360 H 0.42738 0.88944 0.68176
 H2361 H 0.38899 0.93079 0.76463
 H2362 H 0.40352 0.94294 0.73597
 C2363 C 0.39968 0.39480 1.24846
 C2364 C 0.37764 0.39766 1.25318
 C2365 C 0.36908 0.38985 1.27258
 C2366 C 0.38190 0.37825 1.28730
 C2367 C 0.40363 0.37470 1.28195
 C2368 C 0.41241 0.38296 1.26297
 C2369 C 0.40831 0.40401 1.22787
 C2370 C 0.43034 0.40392 1.22266
 C2371 C 0.43753 0.41236 1.20310
 C2372 C 0.42297 0.42093 1.18806
 C2373 C 0.40101 0.42149 1.19339
 C2374 C 0.39369 0.41352 1.21323
 C2375 C 0.36411 0.40787 1.23829
 C2376 C 0.37188 0.41524 1.21857
 H2377 H 0.34715 0.40988 1.24178
 H2378 H 0.36068 0.42269 1.20746
 H2379 H 0.35210 0.39211 1.27561
 H2380 H 0.41426 0.36611 1.29270
 H2381 H 0.45463 0.41230 1.19986
 H2382 H 0.38947 0.42790 1.18199
 H2383 H 0.42917 0.37972 1.25990
 H2384 H 0.44232 0.39766 1.23355
 C2385 C 0.89403 1.10088 0.75117
 C2386 C 0.90839 1.11190 0.73743
 C2387 C 0.90112 1.12017 0.71764
 C2388 C 0.87977 1.11684 0.71066
 C2389 C 0.86597 1.10489 0.72410
 C2390 C 0.87290 1.09718 0.74402
 C2391 C 0.90210 1.09316 0.77257
 C2392 C 0.88849 1.08429 0.78834
 C2393 C 0.89676 1.07719 0.80798
 C2394 C 0.91888 1.07842 0.81242
 C2395 C 0.93252 1.08763 0.79689
 C2396 C 0.92424 1.09539 0.77729
 C2397 C 0.93003 1.11419 0.74333
 C2398 C 0.93788 1.10570 0.76260
 H2399 H 0.94116 1.12239 0.73271
 H2400 H 0.95481 1.10762 0.76626
 H2401 H 0.91245 1.12848 0.70738
 H2402 H 0.84939 1.10201 0.71978
 H2403 H 0.88563 1.07099 0.81986
 H2404 H 0.94963 1.08875 0.79995
 H2405 H 0.86145 1.08823 0.75348
 H2406 H 0.87134 1.08308 0.78604
 C2407 C 0.89956 0.60001 0.25005
 C2408 C 0.87713 0.59942 0.24616
 C2409 C 0.86875 0.60745 0.22674
 C2410 C 0.88233 0.61661 0.21122
 C2411 C 0.90450 0.61739 0.21519
 C2412 C 0.91306 0.60914 0.23427
 C2413 C 0.90785 0.59134 0.27104
 C2414 C 0.92991 0.59041 0.27615
 C2415 C 0.93677 0.58274 0.29614
 C2416 C 0.92188 0.57583 0.31165
 C2417 C 0.89988 0.57629 0.30652
 C2418 C 0.89281 0.58379 0.28638
 C2419 C 0.86315 0.59124 0.26182
 C2420 C 0.87080 0.58380 0.28158
 H2421 H 0.84597 0.59086 0.25888
 H2422 H 0.85928 0.57790 0.29326
 H2423 H 0.85155 0.60716 0.22396
 H2424 H 0.91528 0.62429 0.20338
 H2425 H 0.95386 0.58209 0.29942
 H2426 H 0.88815 0.57117 0.31838
 H2427 H 0.93022 0.61031 0.23641
 H2428 H 0.94215 0.59545 0.26495
 C2429 C 0.39364 1.10078 0.25154
 C2430 C 0.40860 1.10894 0.23643
 C2431 C 0.40143 1.11683 0.21645
 C2432 C 0.37952 1.11631 0.21105
 C2433 C 0.36483 1.10774 0.22585
 C2434 C 0.37172 1.10010 0.24582
 C2435 C 0.40185 1.09303 0.27290
 C2436 C 0.38816 1.08583 0.28946
 C2437 C 0.39655 1.07867 0.30903
 C2438 C 0.41883 1.07833 0.31266
 C2439 C 0.43261 1.08575 0.29635
 C2440 C 0.42430 1.09325 0.27666
 C2441 C 0.43061 1.10901 0.24127
 C2442 C 0.43831 1.10112 0.26085
 H2443 H 0.44209 1.11513 0.22966
 H2444 H 0.45549 1.10139 0.26374
 H2445 H 0.41291 1.12313 0.20494
 H2446 H 0.34783 1.10732 0.22214
 H2447 H 0.38547 1.07362 0.32149
 H2448 H 0.44985 1.08552 0.29888
 H2449 H 0.35961 1.09373 0.25646
 H2450 H 0.37091 1.08579 0.28779
 C2451 C 0.39623 0.59967 0.75115
 C2452 C 0.39629 0.62216 0.74771
 C2453 C 0.38848 0.63068 0.72829
 C2454 C 0.38025 0.61718 0.71215
 C2455 C 0.37993 0.59493 0.71566
 C2456 C 0.38786 0.58623 0.73485
 C2457 C 0.40484 0.59126 0.77213
 C2458 C 0.40608 0.56916 0.77696
 C2459 C 0.41398 0.56219 0.79685
 C2460 C 0.42083 0.57701 0.81247
 C2461 C 0.41984 0.59904 0.80772
 C2462 C 0.41207 0.60623 0.78774
 C2463 C 0.40392 0.63608 0.76374
 C2464 C 0.41150 0.62829 0.78337
 H2465 H 0.40389 0.65330 0.76112
 H2466 H 0.41709 0.63975 0.79529
 H2467 H 0.38839 0.64793 0.72592
 H2468 H 0.37376 0.58418 0.70340
 H2469 H 0.41491 0.54508 0.79992
 H2470 H 0.42483 0.61069 0.81973
 H2471 H 0.38719 0.56901 0.73660
 H2472 H 0.40114 0.55698 0.76562
 C2473 C 1.09889 0.90000 0.74832
 C2474 C 1.09884 0.87751 0.74476
 C2475 C 1.10685 0.86904 0.72537
 C2476 C 1.11544 0.88260 0.70952
 C2477 C 1.11559 0.90485 0.71311
 C2478 C 1.10737 0.91348 0.73218
 C2479 C 1.09039 0.90837 0.76935
 C2480 C 1.08915 0.93046 0.77424
 C2481 C 1.08162 0.93740 0.79427
 C2482 C 1.07515 0.92257 0.81000
 C2483 C 1.07598 0.90053 0.80513
 C2484 C 1.08337 0.89337 0.78498
 C2485 C 1.09121 0.86357 0.76073
 C2486 C 1.08381 0.87132 0.78046
 H2487 H 1.09121 0.84635 0.75804
 H2488 H 1.07833 0.85984 0.79238
 H2489 H 1.10703 0.85180 0.72288
 H2490 H 1.12202 0.91562 0.70104
 H2491 H 1.08072 0.95451 0.79739
 H2492 H 1.07124 0.88886 0.81718
 H2493 H 1.10804 0.93070 0.73401
 H2494 H 1.09385 0.94266 0.76286
 C2495 C 1.10585 0.39145 0.25420
 C2496 C 1.11431 0.40614 0.23900
 C2497 C 1.12271 0.39863 0.21936
 C2498 C 1.12234 0.37664 0.21434
 C2499 C 1.11362 0.36217 0.22926
 C2500 C 1.10555 0.36941 0.24895
 C2501 C 1.09726 0.40009 0.27508
 C2502 C 1.08955 0.38675 0.29169
 C2503 C 1.08153 0.39555 0.31074
 C2504 C 1.08083 0.41790 0.31379
 C2505 C 1.08874 0.43133 0.29742
 C2506 C 1.09710 0.42262 0.27827
 C2507 C 1.11405 0.42824 0.24332
 C2508 C 1.10542 0.43632 0.26243
 H2509 H 1.12042 0.43951 0.23164
 H2510 H 1.10541 0.45356 0.26490
 H2511 H 1.12908 0.40993 0.20773
 H2512 H 1.11328 0.34513 0.22577
 H2513 H 1.07613 0.38474 0.32329
 H2514 H 1.08822 0.44863 0.29948
 H2515 H 1.09901 0.35748 0.25970
 H2516 H 1.08974 0.36947 0.29044
 C2517 C 0.60025 0.89979 0.24919
 C2518 C 0.59718 0.87784 0.24416
 C2519 C 0.60507 0.86939 0.22469
 C2520 C 0.61717 0.88219 0.21040
 C2521 C 0.62062 0.90389 0.21592
 C2522 C 0.61217 0.91259 0.23485
 C2523 C 0.59138 0.90823 0.27001
 C2524 C 0.59182 0.93018 0.27559
 C2525 C 0.58398 0.93715 0.29548
 C2526 C 0.57572 0.92246 0.31053
 C2527 C 0.57469 0.90060 0.30480
 C2528 C 0.58203 0.89350 0.28460
 C2529 C 0.58690 0.86425 0.25892
 C2530 C 0.57991 0.87182 0.27889
 H2531 H 0.58470 0.84737 0.25520
 H2532 H 0.57251 0.86055 0.28994
 H2533 H 0.60272 0.85247 0.22141
 H2534 H 0.62942 0.91455 0.20538
 H2535 H 0.58431 0.95419 0.29899
 H2536 H 0.56848 0.88894 0.31616
 H2537 H 0.61550 0.92929 0.23810
 H2538 H 0.59790 0.94226 0.26473
 C2539 C 0.60183 0.39914 0.74986
 C2540 C 0.59893 0.37716 0.74488
 C2541 C 0.60690 0.36874 0.72544
 C2542 C 0.61882 0.38162 0.71106
 C2543 C 0.62220 0.40333 0.71659
 C2544 C 0.61372 0.41199 0.73553
 C2545 C 0.59275 0.40758 0.77060
 C2546 C 0.59297 0.42954 0.77610
 C2547 C 0.58490 0.43652 0.79589
 C2548 C 0.57660 0.42181 0.81092
 C2549 C 0.57578 0.39994 0.80526
 C2550 C 0.58337 0.39283 0.78516
 C2551 C 0.58869 0.36353 0.75962
 C2552 C 0.58149 0.37111 0.77951
 H2553 H 0.58662 0.34663 0.75594
 H2554 H 0.57409 0.35982 0.79054
 H2555 H 0.60466 0.35180 0.72220
 H2556 H 0.63092 0.41404 0.70604
 H2557 H 0.58508 0.45357 0.79936
 H2558 H 0.56952 0.38828 0.81660
 H2559 H 0.61695 0.42871 0.73878
 H2560 H 0.59907 0.44163 0.76526
 C2561 C 1.24621 1.10644 1.10233
 C2562 C 1.26022 1.09224 1.11323
 C2563 C 1.27985 1.09978 1.12155
 C2564 C 1.28641 1.12126 1.11842
 C2565 C 1.27268 1.13496 1.10667
 C2566 C 1.25290 1.12775 1.09891
 C2567 C 1.22506 1.09799 1.09443
 C2568 C 1.20908 1.11133 1.08551
 C2569 C 1.18972 1.10271 1.07817
 C2570 C 1.18577 1.08051 1.07921
 C2571 C 1.20148 1.06714 1.08850
 C2572 C 1.22081 1.07575 1.09646
 C2573 C 1.25478 1.07048 1.11534
 C2574 C 1.23571 1.06233 1.10674
 H2575 H 1.26560 1.05949 1.12347
 H2576 H 1.23241 1.04532 1.10851
 H2577 H 1.29033 1.08853 1.12971
 H2578 H 1.27669 1.15163 1.10396
 H2579 H 1.17769 1.11362 1.07191
 H2580 H 1.19876 1.04996 1.08947
 H2581 H 1.24320 1.13911 1.09010
 H2582 H 1.21104 1.12852 1.08440
 C2583 C 1.24760 0.60618 0.60203
 C2584 C 1.26153 0.59207 0.61314
 C2585 C 1.28113 0.59967 0.62150
 C2586 C 1.28772 0.62112 0.61820
 C2587 C 1.27411 0.63468 0.60614
 C2588 C 1.25438 0.62741 0.59833
 C2589 C 1.22641 0.59774 0.59422
 C2590 C 1.21046 0.61107 0.58525
 C2591 C 1.19105 0.60246 0.57804
 C2592 C 1.18701 0.58028 0.57924
 C2593 C 1.20270 0.56692 0.58861
 C2594 C 1.22208 0.57554 0.59646
 C2595 C 1.25602 0.57034 0.61545
 C2596 C 1.23694 0.56217 0.60688
 H2597 H 1.26678 0.55941 0.62372
 H2598 H 1.23358 0.54518 0.60881
 H2599 H 1.29153 0.58851 0.62987
 H2600 H 1.27815 0.65132 0.60325
 H2601 H 1.17903 0.61338 0.57175
 H2602 H 1.19992 0.54977 0.58973
 H2603 H 1.24476 0.63868 0.58931
 H2604 H 1.21246 0.62824 0.58403
 C2605 C 0.74642 1.10716 0.60220
 C2606 C 0.76162 1.09234 0.61041
 C2607 C 0.78142 1.09966 0.61844
 C2608 C 0.78659 1.12161 0.61807
 C2609 C 0.77171 1.13621 0.60952
 C2610 C 0.75187 1.12916 0.60173
 C2611 C 0.72530 1.09872 0.59415
 C2612 C 0.70869 1.11222 0.58671
 C2613 C 0.68938 1.10359 0.57924
 C2614 C 0.68606 1.08128 0.57885
 C2615 C 0.70241 1.06770 0.58648
 C2616 C 0.72184 1.07623 0.59426
 C2617 C 0.75708 1.07029 0.61035
 C2618 C 0.73771 1.06239 0.60226
 H2619 H 0.76877 1.05892 0.61653
 H2620 H 0.73505 1.04518 0.60244
 H2621 H 0.79302 1.08824 0.62466
 H2622 H 0.77529 1.15323 0.60917
 H2623 H 0.67686 1.11450 0.57400
 H2624 H 0.70011 1.05043 0.58618
 H2625 H 0.74112 1.14118 0.59537
 H2626 H 0.71016 1.12948 0.58670
 C2627 C 0.75009 0.60023 1.10079
 C2628 C 0.75356 0.62272 1.10075
 C2629 C 0.77292 0.63123 1.10872
 C2630 C 0.78887 0.61769 1.11717
 C2631 C 0.78536 0.59543 1.11729
 C2632 C 0.76630 0.58677 1.10916
 C2633 C 0.72912 0.59181 1.09229
 C2634 C 0.72426 0.56971 1.09113
 C2635 C 0.70431 0.56273 1.08355
 C2636 C 0.68861 0.57753 1.07694
 C2637 C 0.69343 0.59957 1.07772
 C2638 C 0.71349 0.60677 1.08519
 C2639 C 0.73757 0.63663 1.09312
 C2640 C 0.71792 0.62884 1.08565
 H2641 H 0.74020 0.65385 1.09314
 H2642 H 0.70600 0.64029 1.08013
 H2643 H 0.77534 0.64847 1.10890
 H2644 H 0.79751 0.58466 1.12356
 H2645 H 0.70121 0.54562 1.08272
 H2646 H 0.68138 0.61120 1.07287
 H2647 H 0.76456 0.56954 1.10978
 H2648 H 0.73562 0.55753 1.09594
 C2649 C 1.24421 0.89222 0.89366
 C2650 C 1.25844 0.90637 0.88300
 C2651 C 1.27803 0.89868 0.87469
 C2652 C 1.28430 0.87707 0.87761
 C2653 C 1.27025 0.86338 0.88896
 C2654 C 1.25056 0.87075 0.89671
 C2655 C 1.22323 0.90087 0.90178
 C2656 C 1.20717 0.88766 0.91071
 C2657 C 1.18805 0.89647 0.91841
 C2658 C 1.18439 0.91873 0.91768
 C2659 C 1.20013 0.93199 0.90831
 C2660 C 1.21927 0.92319 0.90006
 C2661 C 1.25326 0.92823 0.88117
 C2662 C 1.23430 0.93652 0.88988
 H2663 H 1.26422 0.93918 0.87320
 H2664 H 1.23123 0.95360 0.88834
 H2665 H 1.28870 0.90989 0.86676
 H2666 H 1.27396 0.84660 0.89140
 H2667 H 1.17595 0.88567 0.92473
 H2668 H 1.19762 0.94920 0.90755
 H2669 H 1.24065 0.85937 0.90524
 H2670 H 1.20888 0.87044 0.91162
 C2671 C 1.24679 0.39641 0.39188
 C2672 C 1.26074 0.38556 0.40621
 C2673 C 1.28029 0.37706 0.39870
 C2674 C 1.28686 0.37996 0.37714
 C2675 C 1.27319 0.39161 0.36329
 C2676 C 1.25347 0.39954 0.37046
 C2677 C 1.22575 0.40458 0.40033
 C2678 C 1.20982 0.41351 0.38692
 C2679 C 1.19056 0.42109 0.39556
 C2680 C 1.18667 0.42028 0.41785
 C2681 C 1.20235 0.41102 0.43129
 C2682 C 1.22156 0.40281 0.42267
 C2683 C 1.25535 0.38372 0.42806
 C2684 C 1.23640 0.39255 0.43619
 H2685 H 1.26613 0.37563 0.43914
 H2686 H 1.23313 0.39099 0.45328
 H2687 H 1.29073 0.36898 0.41007
 H2688 H 1.27723 0.39412 0.34654
 H2689 H 1.17854 0.42735 0.38460
 H2690 H 1.19970 0.41024 0.44854
 H2691 H 1.24380 0.40827 0.35898
 H2692 H 1.21173 0.41445 0.36967
 C2693 C 0.74389 0.89185 0.39264
 C2694 C 0.75941 0.90646 0.38466
 C2695 C 0.77908 0.89881 0.37658
 C2696 C 0.78379 0.87676 0.37670
 C2697 C 0.76845 0.86235 0.38475
 C2698 C 0.74876 0.86972 0.39256
 C2699 C 0.72310 0.90064 0.40116
 C2700 C 0.70639 0.88741 0.40881
 C2701 C 0.68749 0.89635 0.41692
 C2702 C 0.68468 0.91871 0.41774
 C2703 C 0.70110 0.93205 0.40984
 C2704 C 0.72016 0.92320 0.40149
 C2705 C 0.75534 0.92860 0.38510
 C2706 C 0.73622 0.93680 0.39348
 H2707 H 0.76724 0.93980 0.37905
 H2708 H 0.73395 0.95407 0.39363
 H2709 H 0.79099 0.91008 0.37068
 H2710 H 0.77163 0.84525 0.38482
 H2711 H 0.67489 0.88565 0.42236
 H2712 H 0.69918 0.94935 0.41046
 H2713 H 0.73771 0.85782 0.39858
 H2714 H 0.70747 0.87012 0.40859
 C2715 C 0.74769 0.39798 0.89371
 C2716 C 0.75254 0.37604 0.89705
 C2717 C 0.77185 0.36735 0.88918
 C2718 C 0.78627 0.37992 0.87699
 C2719 C 0.78078 0.40153 0.87300
 C2720 C 0.76194 0.41045 0.88134
 C2721 C 0.72723 0.40678 0.90296
 C2722 C 0.72197 0.42879 0.90244
 C2723 C 0.70252 0.43613 0.91093
 C2724 C 0.68763 0.42176 0.91995
 C2725 C 0.69300 0.39982 0.92094
 C2726 C 0.71276 0.39236 0.91295
 C2727 C 0.73786 0.36274 0.90777
 C2728 C 0.71820 0.37062 0.91514
 H2729 H 0.74143 0.34585 0.91015
 H2730 H 0.70723 0.35959 0.92298
 H2731 H 0.77503 0.35046 0.89183
 H2732 H 0.79132 0.41200 0.86399
 H2733 H 0.69925 0.45322 0.91055
 H2734 H 0.68173 0.38841 0.92770
 H2735 H 0.75875 0.42710 0.87772
 H2736 H 0.73276 0.44064 0.89584
 C2737 C 0.75339 0.89807 1.10681
 C2738 C 0.73849 0.88951 1.09181
 C2739 C 0.71863 0.88145 1.09897
 C2740 C 0.71309 0.88226 1.12087
 C2741 C 0.72765 0.89124 1.13560
 C2742 C 0.74754 0.89899 1.12874
 C2743 C 0.77463 0.90602 1.09862
 C2744 C 0.79104 0.91351 1.11237
 C2745 C 0.81048 0.92087 1.10398
 C2746 C 0.81414 0.92116 1.08166
 C2747 C 0.79797 0.91345 1.06783
 C2748 C 0.77844 0.90570 1.07613
 C2749 C 0.74340 0.88929 1.06978
 C2750 C 0.76282 0.89745 1.06209
 H2751 H 0.73196 0.88288 1.05827
 H2752 H 0.76576 0.89708 1.04487
 H2753 H 0.70729 0.87486 1.08746
 H2754 H 0.72378 0.89192 1.15259
 H2755 H 0.82284 0.92610 1.11512
 H2756 H 0.80050 0.91363 1.05055
 H2757 H 0.75800 0.90570 1.14086
 H2758 H 0.78934 0.91359 1.12966
 C2759 C 0.75028 0.39922 0.59997
 C2760 C 0.74628 0.40009 0.62242
 C2761 C 0.72673 0.39247 0.63076
 C2762 C 0.71117 0.38343 0.61712
 C2763 C 0.71522 0.38240 0.59492
 C2764 C 0.73444 0.39026 0.58639
 C2765 C 0.77144 0.40740 0.59175
 C2766 C 0.77671 0.40800 0.56966
 C2767 C 0.79682 0.41532 0.56288
 C2768 C 0.81228 0.42217 0.57787
 C2769 C 0.80704 0.42193 0.59989
 C2770 C 0.78679 0.41482 0.60688
 C2771 C 0.76198 0.40811 0.63648
 C2772 C 0.78187 0.41511 0.62891
 H2773 H 0.75896 0.40870 0.65368
 H2774 H 0.79356 0.42092 0.64049
 H2775 H 0.72389 0.39294 0.64798
 H2776 H 0.70338 0.37556 0.58411
 H2777 H 0.80019 0.41577 0.54576
 H2778 H 0.81886 0.42697 0.61170
 H2779 H 0.73664 0.38892 0.56921
 H2780 H 0.76554 0.40301 0.55734
 C2781 C 0.25341 0.89756 0.60658
 C2782 C 0.23852 0.88900 0.59157
 C2783 C 0.21870 0.88084 0.59871
 C2784 C 0.21319 0.88151 0.62062
 C2785 C 0.22776 0.89041 0.63539
 C2786 C 0.24761 0.89828 0.62853
 C2787 C 0.27456 0.90572 0.59837
 C2788 C 0.29091 0.91340 0.61210
 C2789 C 0.31028 0.92094 0.60369
 C2790 C 0.31392 0.92121 0.58137
 C2791 C 0.29781 0.91336 0.56756
 C2792 C 0.27835 0.90545 0.57588
 C2793 C 0.24340 0.88887 0.56953
 C2794 C 0.26277 0.89714 0.56183
 H2795 H 0.23197 0.88244 0.55801
 H2796 H 0.26569 0.89682 0.54461
 H2797 H 0.20735 0.87431 0.58717
 H2798 H 0.22391 0.89098 0.65239
 H2799 H 0.32259 0.92631 0.61481
 H2800 H 0.30033 0.91354 0.55027
 H2801 H 0.25808 0.90493 0.64068
 H2802 H 0.28920 0.91350 0.62939
 C2803 C 0.25162 0.39729 1.10099
 C2804 C 0.24661 0.40018 1.12302
 C2805 C 0.22722 0.39217 1.13140
 C2806 C 0.21290 0.38023 1.11842
 C2807 C 0.21846 0.37687 1.09665
 C2808 C 0.23736 0.38537 1.08804
 C2809 C 0.27231 0.40642 1.09260
 C2810 C 0.27785 0.40617 1.07060
 C2811 C 0.29758 0.41430 1.06367
 C2812 C 0.31250 0.42270 1.07846
 C2813 C 0.30680 0.42356 1.10038
 C2814 C 0.28676 0.41589 1.10744
 C2815 C 0.26126 0.41049 1.13673
 C2816 C 0.28109 0.41778 1.12920
 H2817 H 0.25756 0.41255 1.15368
 H2818 H 0.29204 0.42523 1.14057
 H2819 H 0.22396 0.39441 1.14838
 H2820 H 0.20796 0.36814 1.08586
 H2821 H 0.30109 0.41407 1.04658
 H2822 H 0.31806 0.42990 1.11210
 H2823 H 0.24062 0.38216 1.07128
 H2824 H 0.26710 0.39998 1.05844
 C2825 C 0.75398 1.10793 0.89608
 C2826 C 0.74036 1.09405 0.88428
 C2827 C 0.72091 1.10179 0.87570
 C2828 C 0.71406 1.12306 0.87961
 C2829 C 0.72739 1.13641 0.89220
 C2830 C 0.74705 1.12907 0.90013
 C2831 C 0.77493 1.09931 0.90431
 C2832 C 0.79065 1.11242 0.91399
 C2833 C 0.80981 1.10362 0.92164
 C2834 C 0.81380 1.08143 0.92020
 C2835 C 0.79833 1.06830 0.91014
 C2836 C 0.77926 1.07713 0.90180
 C2837 C 0.74594 1.07238 0.88163
 C2838 C 0.76472 1.06400 0.89063
 H2839 H 0.73541 1.06162 0.87283
 H2840 H 0.76810 1.04704 0.88847
 H2841 H 0.71072 1.09079 0.86684
 H2842 H 0.72312 1.15293 0.89548
 H2843 H 0.82168 1.11440 0.92844
 H2844 H 0.80102 1.05115 0.90883
 H2845 H 0.75644 1.14015 0.90964
 H2846 H 0.78866 1.12958 0.91544
 C2847 C 0.75277 0.60165 0.39507
 C2848 C 0.73761 0.60969 0.41007
 C2849 C 0.71771 0.61767 0.40286
 C2850 C 0.71244 0.61738 0.38086
 C2851 C 0.72733 0.60901 0.36611
 C2852 C 0.74721 0.60129 0.37305
 C2853 C 0.77398 0.59368 0.40333
 C2854 C 0.79051 0.58641 0.38962
 C2855 C 0.80991 0.57896 0.39807
 C2856 C 0.81342 0.57842 0.42041
 C2857 C 0.79717 0.58593 0.43422
 C2858 C 0.77762 0.59368 0.42586
 C2859 C 0.74233 0.60954 0.43216
 C2860 C 0.76181 0.60152 0.43989
 H2861 H 0.73070 0.61559 0.44368
 H2862 H 0.76460 0.60162 0.45714
 H2863 H 0.70616 0.62382 0.41439
 H2864 H 0.72375 0.60880 0.34904
 H2865 H 0.82234 0.57384 0.38698
 H2866 H 0.79962 0.58555 0.45151
 H2867 H 0.75791 0.59508 0.36088
 H2868 H 0.78892 0.58650 0.37232
 C2869 C 0.25191 1.10405 0.39926
 C2870 C 0.24715 1.10120 0.37715
 C2871 C 0.22778 1.10909 0.36856
 C2872 C 0.21318 1.12080 0.38143
 C2873 C 0.21850 1.12413 0.40327
 C2874 C 0.23741 1.11580 0.41206
 C2875 C 0.27255 1.09499 0.40789
 C2876 C 0.27790 1.09530 0.42995
 C2877 C 0.29753 1.08707 0.43713
 C2878 C 0.31251 1.07849 0.42253
 C2879 C 0.30706 1.07771 0.40054
 C2880 C 0.28715 1.08549 0.39322
 C2881 C 0.26199 1.09096 0.36360
 C2882 C 0.28172 1.08365 0.37138
 H2883 H 0.25847 1.08892 0.34661
 H2884 H 0.29280 1.07620 0.36015
 H2885 H 0.22470 1.10686 0.35154
 H2886 H 0.20781 1.13267 0.41401
 H2887 H 0.30087 1.08731 0.45425
 H2888 H 0.31841 1.07128 0.38896
 H2889 H 0.24044 1.11896 0.42889
 H2890 H 0.26707 1.10158 0.44198
 C2891 C 0.25093 0.60323 0.90073
 C2892 C 0.24598 0.60005 0.87871
 C2893 C 0.22654 0.60781 0.87018
 C2894 C 0.21209 0.61976 0.88297
 C2895 C 0.21758 0.62342 0.90471
 C2896 C 0.23654 0.61518 0.91348
 C2897 C 0.27166 0.59431 0.90929
 C2898 C 0.27719 0.59486 0.93131
 C2899 C 0.29690 0.58676 0.93840
 C2900 C 0.31180 0.57808 0.92376
 C2901 C 0.30616 0.57707 0.90183
 C2902 C 0.28616 0.58469 0.89461
 C2903 C 0.26072 0.58967 0.86516
 C2904 C 0.28055 0.58255 0.87285
 H2905 H 0.25705 0.58739 0.84823
 H2906 H 0.29154 0.57499 0.86161
 H2907 H 0.22334 0.60534 0.85321
 H2908 H 0.20698 0.63218 0.91536
 H2909 H 0.30038 0.58716 0.95550
 H2910 H 0.31744 0.57059 0.89021
 H2911 H 0.23973 0.61859 0.93023
 H2912 H 0.26643 0.60124 0.94335
 C2913 C 1.10061 1.24987 1.09948
 C2914 C 1.12306 1.25358 1.09859
 C2915 C 1.13168 1.27295 1.10639
 C2916 C 1.11833 1.28860 1.11565
 C2917 C 1.09613 1.28486 1.11665
 C2918 C 1.08733 1.26583 1.10861
 C2919 C 1.09209 1.22887 1.09116
 C2920 C 1.07000 1.22386 1.09065
 C2921 C 1.06293 1.20387 1.08324
 C2922 C 1.07764 1.18827 1.07620
 C2923 C 1.09968 1.19326 1.07634
 C2924 C 1.10695 1.21338 1.08355
 C2925 C 1.13684 1.23776 1.09037
 C2926 C 1.12898 1.21803 1.08321
 H2927 H 1.15403 1.24057 1.08974
 H2928 H 1.14035 1.20623 1.07726
 H2929 H 1.14890 1.27556 1.10592
 H2930 H 1.08553 1.29678 1.12364
 H2931 H 1.04582 1.20069 1.08287
 H2932 H 1.11128 1.18132 1.07117
 H2933 H 1.07017 1.26386 1.10996
 H2934 H 1.05788 1.23514 1.09579
 C2935 C 1.10697 0.74579 0.60314
 C2936 C 1.09209 0.76123 0.61083
 C2937 C 1.09941 0.78114 0.61862
 C2938 C 1.12141 0.78616 0.61858
 C2939 C 1.13607 0.77098 0.61063
 C2940 C 1.12901 0.75107 0.60305
 C2941 C 1.09853 0.72462 0.59522
 C2942 C 1.11205 0.70790 0.58808
 C2943 C 1.10344 0.68858 0.58063
 C2944 C 1.08111 0.68534 0.57996
 C2945 C 1.06750 0.70179 0.58734
 C2946 C 1.07601 0.72126 0.59505
 C2947 C 1.07001 0.75679 0.61051
 C2948 C 1.06214 0.73732 0.60263
 H2949 H 1.05861 0.76863 0.61630
 H2950 H 1.04491 0.73474 0.60259
 H2951 H 1.08794 0.79292 0.62441
 H2952 H 1.15313 0.77438 0.61059
 H2953 H 1.11436 0.67600 0.57556
 H2954 H 1.05022 0.69954 0.58684
 H2955 H 1.14110 0.74012 0.59716
 H2956 H 1.12933 0.70929 0.58825
 C2957 C 0.60775 1.24571 0.60430
 C2958 C 0.59306 1.26086 0.61287
 C2959 C 0.60056 1.28052 0.62112
 C2960 C 0.62252 1.28560 0.62055
 C2961 C 0.63699 1.27072 0.61175
 C2962 C 0.62978 1.25102 0.60379
 C2963 C 0.59913 1.22481 0.59587
 C2964 C 0.61249 1.20830 0.58797
 C2965 C 0.60370 1.18921 0.58012
 C2966 C 0.58136 1.18603 0.57978
 C2967 C 0.56792 1.20229 0.58786
 C2968 C 0.57661 1.22149 0.59603
 C2969 C 0.57098 1.25643 0.61289
 C2970 C 0.56292 1.23727 0.60446
 H2971 H 0.55971 1.26806 0.61934
 H2972 H 0.54568 1.23471 0.60469
 H2973 H 0.58924 1.29211 0.62756
 H2974 H 0.65403 1.27423 0.61127
 H2975 H 0.61452 1.17675 0.57455
 H2976 H 0.55063 1.20011 0.58761
 H2977 H 0.64171 1.24030 0.59720
 H2978 H 0.62977 1.20966 0.58789
 C2979 C 0.60818 0.74545 1.10459
 C2980 C 0.59341 0.76075 1.11273
 C2981 C 0.60083 0.78049 1.12086
 C2982 C 0.62283 0.78549 1.12067
 C2983 C 0.63739 0.77045 1.11230
 C2984 C 0.63024 0.75069 1.10441
 C2985 C 0.59962 0.72448 1.09626
 C2986 C 0.61303 0.70787 1.08868
 C2987 C 0.60429 0.68872 1.08090
 C2988 C 0.58196 0.68556 1.08035
 C2989 C 0.56846 0.70192 1.08813
 C2990 C 0.57710 0.72120 1.09619
 C2991 C 0.57132 0.75638 1.11248
 C2992 C 0.56333 0.73712 1.10422
 H2993 H 0.55999 0.76812 1.11862
 H2994 H 0.54608 0.73460 1.10425
 H2995 H 0.58943 0.79218 1.12696
 H2996 H 0.65445 0.77387 1.11212
 H2997 H 0.61515 0.67619 1.07554
 H2998 H 0.55117 0.69977 1.08771
 H2999 H 0.64224 0.73984 1.09818
 H3000 H 0.63031 0.70921 1.08874
 C3001 C 0.89217 1.24528 0.89571
 C3002 C 0.90698 1.26082 0.88814
 C3003 C 0.89954 1.28048 0.87985
 C3004 C 0.87746 1.28511 0.87921
 C3005 C 0.86286 1.26976 0.88689
 C3006 C 0.87004 1.25013 0.89499
 C3007 C 0.90073 1.22444 0.90430
 C3008 C 0.88731 1.20774 0.91164
 C3009 C 0.89604 1.18868 0.91959
 C3010 C 0.91838 1.18569 0.92054
 C3011 C 0.93191 1.20217 0.91312
 C3012 C 0.92329 1.22139 0.90495
 C3013 C 0.92911 1.25672 0.88905
 C3014 C 0.93709 1.23749 0.89739
 H3015 H 0.94047 1.26862 0.88333
 H3016 H 0.95435 1.23515 0.89782
 H3017 H 0.91097 1.29236 0.87423
 H3018 H 0.84574 1.27283 0.88636
 H3019 H 0.88520 1.17608 0.92474
 H3020 H 0.94921 1.20012 0.91389
 H3021 H 0.85797 1.23905 0.90063
 H3022 H 0.87003 1.20895 0.91126
 C3023 C 0.89342 0.74523 0.39624
 C3024 C 0.90827 0.76084 0.38892
 C3025 C 0.90087 0.78064 0.38089
 C3026 C 0.87879 0.78531 0.38033
 C3027 C 0.86417 0.76985 0.38775
 C3028 C 0.87131 0.75010 0.39557
 C3029 C 0.90193 0.72426 0.40458
 C3030 C 0.88845 0.70751 0.41167
 C3031 C 0.89711 0.68836 0.41948
 C3032 C 0.91944 0.68534 0.42054
 C3033 C 0.93304 0.70183 0.41328
 C3034 C 0.92447 0.72116 0.40527
 C3035 C 0.93039 0.75668 0.38982
 C3036 C 0.93832 0.73733 0.39793
 H3037 H 0.94179 0.76864 0.38427
 H3038 H 0.95558 0.73496 0.39838
 H3039 H 0.91230 0.79259 0.37544
 H3040 H 0.84704 0.77291 0.38722
 H3041 H 0.88621 0.67574 0.42447
 H3042 H 0.95032 0.69974 0.41411
 H3043 H 0.85921 0.73897 0.40102
 H3044 H 0.87117 0.70873 0.41123
 C3045 C 0.39522 1.24832 0.39924
 C3046 C 0.41021 1.26351 0.39132
 C3047 C 0.40305 1.28351 0.38360
 C3048 C 0.38111 1.28883 0.38397
 C3049 C 0.36640 1.27392 0.39228
 C3050 C 0.37329 1.25396 0.39979
 C3051 C 0.40341 1.22695 0.40683
 C3052 C 0.38969 1.21040 0.41393
 C3053 C 0.39805 1.19084 0.42099
 C3054 C 0.42032 1.18719 0.42131
 C3055 C 0.43413 1.20346 0.41395
 C3056 C 0.42586 1.22318 0.40660
 C3057 C 0.43221 1.25868 0.39127
 C3058 C 0.43988 1.23904 0.39893
 H3059 H 0.44372 1.27033 0.38532
 H3060 H 0.45707 1.23616 0.39867
 H3061 H 0.41456 1.29507 0.37749
 H3062 H 0.34937 1.27750 0.39254
 H3063 H 0.38696 1.17841 0.42602
 H3064 H 0.45137 1.20089 0.41416
 H3065 H 0.36114 1.24324 0.40594
 H3066 H 0.37244 1.21209 0.41400
 C3067 C 0.39121 0.74363 0.89276
 C3068 C 0.40582 0.75936 0.88518
 C3069 C 0.39812 0.77889 0.87685
 C3070 C 0.37598 0.78322 0.87622
 C3071 C 0.36157 0.76764 0.88377
 C3072 C 0.36901 0.74810 0.89188
 C3073 C 0.40007 0.72304 0.90164
 C3074 C 0.38688 0.70624 0.90918
 C3075 C 0.39588 0.68749 0.91755
 C3076 C 0.41826 0.68492 0.91872
 C3077 C 0.43156 0.70146 0.91104
 C3078 C 0.42267 0.72038 0.90248
 C3079 C 0.42800 0.75562 0.88622
 C3080 C 0.43625 0.73660 0.89477
 H3081 H 0.43920 0.76766 0.88046
 H3082 H 0.45355 0.73456 0.89534
 H3083 H 0.40938 0.79097 0.87133
 H3084 H 0.34441 0.77049 0.88322
 H3085 H 0.38523 0.67481 0.92289
 H3086 H 0.44888 0.69972 0.91197
 H3087 H 0.35709 0.73684 0.89746
 H3088 H 0.36958 0.70715 0.90869
 C3089 C 1.09943 0.75004 0.89927
 C3090 C 1.12188 0.74632 0.90025
 C3091 C 1.13048 0.72679 0.89285
 C3092 C 1.11711 0.71097 0.88391
 C3093 C 1.09492 0.71473 0.88278
 C3094 C 1.08614 0.73393 0.89043
 C3095 C 1.09093 0.77118 0.90724
 C3096 C 1.06883 0.77621 0.90772
 C3097 C 1.06178 0.79627 0.91496
 C3098 C 1.07651 0.81192 0.92185
 C3099 C 1.09855 0.80696 0.92162
 C3100 C 1.10580 0.78676 0.91461
 C3101 C 1.13568 0.76227 0.90817
 C3102 C 1.12784 0.78212 0.91500
 H3103 H 1.15287 0.75946 0.90885
 H3104 H 1.13922 0.79400 0.92076
 H3105 H 1.14770 0.72416 0.89340
 H3106 H 1.08431 0.70269 0.87601
 H3107 H 1.04466 0.79944 0.91538
 H3108 H 1.11017 0.81894 0.92664
 H3109 H 1.06897 0.73590 0.88901
 H3110 H 1.05671 0.76486 0.90272
 C3111 C 1.10074 0.24924 0.40175
 C3112 C 1.10031 0.24538 0.37926
 C3113 C 1.10808 0.22590 0.37092
 C3114 C 1.11674 0.21017 0.38459
 C3115 C 1.11729 0.21404 0.40685
 C3116 C 1.10933 0.23326 0.41537
 C3117 C 1.09244 0.27039 0.40995
 C3118 C 1.09160 0.27565 0.43203
 C3119 C 1.08416 0.29575 0.43878
 C3120 C 1.07740 0.31118 0.42374
 C3121 C 1.07790 0.30595 0.40172
 C3122 C 1.08518 0.28575 0.39477
 C3123 C 1.09252 0.26112 0.36515
 C3124 C 1.08528 0.28092 0.37272
 H3125 H 1.09226 0.25819 0.34793
 H3126 H 1.07963 0.29265 0.36110
 H3127 H 1.10800 0.22324 0.35366
 H3128 H 1.12382 0.20209 0.41770
 H3129 H 1.08356 0.29916 0.45589
 H3130 H 1.07297 0.31778 0.38989
 H3131 H 1.11027 0.23532 0.43260
 H3132 H 1.09653 0.26450 0.44437
 C3133 C 0.60406 0.75190 0.39979
 C3134 C 0.60431 0.74842 0.37724
 C3135 C 0.61254 0.72916 0.36881
 C3136 C 0.62090 0.71326 0.38247
 C3137 C 0.62102 0.71688 0.40477
 C3138 C 0.61268 0.73589 0.41337
 C3139 C 0.59489 0.77262 0.40813
 C3140 C 0.59317 0.77736 0.43028
 C3141 C 0.58487 0.79704 0.43720
 C3142 C 0.57809 0.81258 0.42229
 C3143 C 0.57940 0.80786 0.40019
 C3144 C 0.58759 0.78806 0.39305
 C3145 C 0.59653 0.76424 0.36320
 C3146 C 0.58852 0.78369 0.37092
 H3147 H 0.59680 0.76161 0.34593
 H3148 H 0.58287 0.79547 0.35937
 H3149 H 0.61277 0.72669 0.35152
 H3150 H 0.62728 0.70480 0.41564
 H3151 H 0.58364 0.80006 0.45435
 H3152 H 0.57442 0.81978 0.38848
 H3153 H 0.61320 0.73772 0.43064
 H3154 H 0.59805 0.76610 0.44254
 C3155 C 0.60129 0.25091 0.90000
 C3156 C 0.60024 0.24693 0.87754
 C3157 C 0.60811 0.22752 0.86906
 C3158 C 0.61758 0.21212 0.88255
 C3159 C 0.61881 0.21618 0.90474
 C3160 C 0.61071 0.23524 0.91341
 C3161 C 0.59279 0.27188 0.90838
 C3162 C 0.59228 0.27708 0.93049
 C3163 C 0.58466 0.29702 0.93744
 C3164 C 0.57742 0.31240 0.92258
 C3165 C 0.57753 0.30722 0.90053
 C3166 C 0.58494 0.28712 0.89338
 C3167 C 0.59179 0.26249 0.86362
 C3168 C 0.58451 0.28224 0.87134
 H3169 H 0.59106 0.25949 0.84642
 H3170 H 0.57838 0.29385 0.85987
 H3171 H 0.60747 0.22466 0.85184
 H3172 H 0.62598 0.20446 0.91545
 H3173 H 0.58430 0.30034 0.95457
 H3174 H 0.57218 0.31899 0.88882
 H3175 H 0.61223 0.23745 0.93058
 H3176 H 0.59756 0.26596 0.94272
 C3177 C 0.89631 0.75375 1.10696
 C3178 C 0.88805 0.73858 1.09207
 C3179 C 0.87994 0.71881 1.09942
 C3180 C 0.88031 0.71368 1.12144
 C3181 C 0.88879 0.72860 1.13609
 C3182 C 0.89663 0.74838 1.12902
 C3183 C 0.90460 0.77475 1.09850
 C3184 C 0.91223 0.79126 1.11205
 C3185 C 0.91999 0.81043 1.10342
 C3186 C 0.92050 0.81373 1.08105
 C3187 C 0.91265 0.79749 1.06741
 C3188 C 0.90460 0.77818 1.07595
 C3189 C 0.88819 0.74310 1.06996
 C3190 C 0.89646 0.76238 1.06206
 H3191 H 0.88197 0.73146 1.05854
 H3192 H 0.89636 0.76501 1.04479
 H3193 H 0.87373 0.70721 1.08796
 H3194 H 0.88908 0.72508 1.15317
 H3195 H 0.92538 0.82287 1.11439
 H3196 H 0.91301 0.79976 1.05009
 H3197 H 0.90296 0.75911 1.14110
 H3198 H 0.91220 0.78982 1.12937
 C3199 C 0.90174 0.24956 0.60229
 C3200 C 0.87924 0.24606 0.60230
 C3201 C 0.87082 0.22660 0.60997
 C3202 C 0.88441 0.21049 0.61803
 C3203 C 0.90666 0.21409 0.61834
 C3204 C 0.91526 0.23331 0.61052
 C3205 C 0.91005 0.27055 0.59379
 C3206 C 0.93214 0.27541 0.59236
 C3207 C 0.93902 0.29531 0.58457
 C3208 C 0.92411 0.31095 0.57804
 C3209 C 0.90208 0.30616 0.57920
 C3210 C 0.89499 0.28615 0.58683
 C3211 C 0.86524 0.26206 0.59490
 C3212 C 0.87293 0.28173 0.58749
 H3213 H 0.84801 0.25940 0.59500
 H3214 H 0.86140 0.29364 0.58210
 H3215 H 0.85357 0.22415 0.61010
 H3216 H 0.91746 0.20186 0.62441
 H3217 H 0.95612 0.29839 0.58349
 H3218 H 0.89037 0.31817 0.57446
 H3219 H 0.93249 0.23513 0.61117
 H3220 H 0.94438 0.26406 0.59705
 C3221 C 0.39584 0.75499 0.60866
 C3222 C 0.38749 0.73982 0.59383
 C3223 C 0.37917 0.72019 0.60124
 C3224 C 0.37941 0.71516 0.62328
 C3225 C 0.38804 0.73003 0.63789
 C3226 C 0.39609 0.74971 0.63075
 C3227 C 0.40430 0.77589 0.60011
 C3228 C 0.41199 0.79243 0.61358
 C3229 C 0.41984 0.81153 0.60485
 C3230 C 0.42037 0.81469 0.58245
 C3231 C 0.41251 0.79839 0.56890
 C3232 C 0.40435 0.77919 0.57753
 C3233 C 0.38771 0.74421 0.57169
 C3234 C 0.39615 0.76337 0.56370
 H3235 H 0.38142 0.73256 0.56032
 H3236 H 0.39609 0.76592 0.54642
 H3237 H 0.37288 0.70860 0.58981
 H3238 H 0.38828 0.72655 0.65498
 H3239 H 0.42526 0.82401 0.61574
 H3240 H 0.41292 0.80055 0.55157
 H3241 H 0.40251 0.76044 0.64279
 H3242 H 0.41192 0.79108 0.63090
 C3243 C 0.39326 0.25476 1.10679
 C3244 C 0.40800 0.23901 1.11409
 C3245 C 0.40046 0.21922 1.12198
 C3246 C 0.37837 0.21466 1.12233
 C3247 C 0.36384 0.23028 1.11505
 C3248 C 0.37111 0.25006 1.10744
 C3249 C 0.40193 0.27560 1.09833
 C3250 C 0.38858 0.29247 1.09122
 C3251 C 0.39739 0.31139 1.08309
 C3252 C 0.41974 0.31409 1.08173
 C3253 C 0.43321 0.29753 1.08910
 C3254 C 0.42450 0.27842 1.09745
 C3255 C 0.43016 0.24296 1.11314
 C3256 C 0.43823 0.26217 1.10486
 H3257 H 0.44146 0.23090 1.11867
 H3258 H 0.45551 0.26434 1.10429
 H3259 H 0.41180 0.20712 1.12733
 H3260 H 0.34671 0.22724 1.11539
 H3261 H 0.38659 0.32410 1.07805
 H3262 H 0.45051 0.29938 1.08807
 H3263 H 0.35909 0.26130 1.10200
 H3264 H 0.37129 0.29147 1.09186
 C3265 C 1.10359 1.10817 0.75332
 C3266 C 1.11467 1.09406 0.73934
 C3267 C 1.12345 1.10178 0.71997
 C3268 C 1.12061 1.12336 0.71360
 C3269 C 1.10875 1.13701 0.72730
 C3270 C 1.10053 1.12962 0.74685
 C3271 C 1.09512 1.09949 0.77419
 C3272 C 1.08590 1.11266 0.79016
 C3273 C 1.07808 1.10382 0.80926
 C3274 C 1.07893 1.08155 0.81293
 C3275 C 1.08845 1.06834 0.79720
 C3276 C 1.09689 1.07717 0.77816
 C3277 C 1.11648 1.07221 0.74451
 C3278 C 1.10740 1.06387 0.76328
 H3279 H 1.12475 1.06129 0.73370
 H3280 H 1.10896 1.04680 0.76637
 H3281 H 1.13169 1.09057 0.70950
 H3282 H 1.10627 1.15375 0.72342
 H3283 H 1.07163 1.11459 0.82134
 H3284 H 1.08926 1.05112 0.79967
 H3285 H 1.09165 1.14094 0.75655
 H3286 H 1.08493 1.12988 0.78843
 C3287 C 1.10176 0.60622 0.25193
 C3288 C 1.11396 0.59250 0.23851
 C3289 C 1.12261 0.60031 0.21910
 C3290 C 1.11838 0.62147 0.21210
 C3291 C 1.10513 0.63452 0.22508
 C3292 C 1.09713 0.62712 0.24471
 C3293 C 1.09377 0.59768 0.27303
 C3294 C 1.08407 0.61083 0.28871
 C3295 C 1.07677 0.60216 0.30808
 C3296 C 1.07854 0.58003 0.31231
 C3297 C 1.08864 0.56687 0.29687
 C3298 C 1.09671 0.57561 0.27761
 C3299 C 1.11701 0.57094 0.24431
 C3300 C 1.10810 0.56255 0.26317
 H3301 H 1.12609 0.56027 0.23392
 H3302 H 1.11060 0.54568 0.26673
 H3303 H 1.13192 0.58950 0.20910
 H3304 H 1.10149 0.65092 0.22066
 H3305 H 1.07000 0.61301 0.31991
 H3306 H 1.09025 0.54978 0.29975
 H3307 H 1.08718 0.63799 0.25388
 H3308 H 1.08241 0.62795 0.28655
 C3309 C 0.60473 1.10818 0.25359
 C3310 C 0.61559 1.09406 0.23945
 C3311 C 0.62435 1.10182 0.22007
 C3312 C 0.62170 1.12348 0.21388
 C3313 C 0.61014 1.13717 0.22780
 C3314 C 0.60194 1.12972 0.24733
 C3315 C 0.59618 1.09944 0.27440
 C3316 C 0.58704 1.11258 0.29044
 C3317 C 0.57908 1.10368 0.30945
 C3318 C 0.57973 1.08138 0.31298
 C3319 C 0.58920 1.06819 0.29719
 C3320 C 0.59774 1.07708 0.27821
 C3321 C 0.61720 1.07215 0.24447
 C3322 C 0.60811 1.06378 0.26323
 H3323 H 0.62532 1.06123 0.23356
 H3324 H 0.60951 1.04668 0.26620
 H3325 H 0.63240 1.09060 0.20947
 H3326 H 0.60786 1.15398 0.22410
 H3327 H 0.57267 1.11443 0.32158
 H3328 H 0.58987 1.05096 0.29958
 H3329 H 0.59327 1.14109 0.25716
 H3330 H 0.58620 1.12981 0.28883
 C3331 C 0.59989 0.60211 0.74996
 C3332 C 0.62240 0.60185 0.74650
 C3333 C 0.63100 0.60984 0.72719
 C3334 C 0.61756 0.61853 0.71126
 C3335 C 0.59530 0.61900 0.71479
 C3336 C 0.58653 0.61085 0.73381
 C3337 C 0.59138 0.59341 0.77082
 C3338 C 0.56925 0.59228 0.77558
 C3339 C 0.56217 0.58441 0.79541
 C3340 C 0.57690 0.57748 0.81108
 C3341 C 0.59897 0.57827 0.80636
 C3342 C 0.60626 0.58600 0.78641
 C3343 C 0.63623 0.59393 0.76245
 C3344 C 0.62835 0.58634 0.78204
 H3345 H 0.65346 0.59380 0.75984
 H3346 H 0.63974 0.58058 0.79393
 H3347 H 0.64825 0.60979 0.72476
 H3348 H 0.58461 0.62551 0.70267
 H3349 H 0.54504 0.58359 0.79843
 H3350 H 0.61056 0.57320 0.81838
 H3351 H 0.56931 0.61171 0.73558
 H3352 H 0.55712 0.59730 0.76423
 C3353 C 0.89673 0.90033 0.74955
 C3354 C 0.89688 0.87787 0.74586
 C3355 C 0.88933 0.86953 0.72624
 C3356 C 0.88125 0.88319 0.71018
 C3357 C 0.88084 0.90540 0.71395
 C3358 C 0.88852 0.91391 0.73332
 C3359 C 0.90505 0.90856 0.77072
 C3360 C 0.90625 0.93062 0.77577
 C3361 C 0.91388 0.93744 0.79581
 C3362 C 0.92049 0.92249 0.81140
 C3363 C 0.91956 0.90050 0.80643
 C3364 C 0.91207 0.89347 0.78627
 C3365 C 0.90431 0.86382 0.76183
 C3366 C 0.91159 0.87144 0.78166
 H3367 H 0.90435 0.84662 0.75903
 H3368 H 0.91703 0.85988 0.79354
 H3369 H 0.88931 0.85231 0.72364
 H3370 H 0.87478 0.91625 0.70175
 H3371 H 0.91479 0.95452 0.79905
 H3372 H 0.92438 0.88876 0.81840
 H3373 H 0.88778 0.93112 0.73526
 H3374 H 0.90149 0.94290 0.76448
 C3375 C 0.89918 0.39397 0.25191
 C3376 C 0.88785 0.40811 0.23818
 C3377 C 0.87968 0.40068 0.21839
 C3378 C 0.88341 0.37940 0.21141
 C3379 C 0.89578 0.36588 0.22478
 C3380 C 0.90338 0.37296 0.24469
 C3381 C 0.90668 0.40214 0.27335
 C3382 C 0.91567 0.38864 0.28916
 C3383 C 0.92262 0.39700 0.30882
 C3384 C 0.92115 0.41910 0.31325
 C3385 C 0.91170 0.43261 0.29773
 C3386 C 0.90407 0.42422 0.27810
 C3387 C 0.88514 0.42969 0.24411
 C3388 C 0.89351 0.43768 0.26341
 H3389 H 0.87671 0.44068 0.23350
 H3390 H 0.89128 0.45457 0.26708
 H3391 H 0.87107 0.41183 0.20816
 H3392 H 0.89903 0.34938 0.22044
 H3393 H 0.92895 0.38594 0.32070
 H3394 H 0.91033 0.44970 0.30081
 H3395 H 0.91265 0.36173 0.25413
 H3396 H 0.91709 0.37152 0.28685
 C3397 C 0.39367 0.89747 0.25214
 C3398 C 0.40784 0.88615 0.23840
 C3399 C 0.40038 0.87783 0.21867
 C3400 C 0.37907 0.88147 0.21174
 C3401 C 0.36549 0.89371 0.22518
 C3402 C 0.37259 0.90143 0.24503
 C3403 C 0.40191 0.90526 0.27346
 C3404 C 0.38842 0.91433 0.28925
 C3405 C 0.39683 0.92157 0.30878
 C3406 C 0.41897 0.92032 0.31309
 C3407 C 0.43248 0.91083 0.29757
 C3408 C 0.42405 0.90290 0.27808
 C3409 C 0.42948 0.88367 0.24424
 C3410 C 0.43751 0.89230 0.26341
 H3411 H 0.44048 0.87525 0.23364
 H3412 H 0.45445 0.89026 0.26700
 H3413 H 0.41154 0.86925 0.20841
 H3414 H 0.34894 0.89682 0.22093
 H3415 H 0.38579 0.92792 0.32067
 H3416 H 0.44960 0.90965 0.30054
 H3417 H 0.36131 0.91063 0.25448
 H3418 H 0.37127 0.91559 0.28704
 C3419 C 0.40059 0.40124 0.74912
 C3420 C 0.40092 0.37879 0.74535
 C3421 C 0.39363 0.37045 0.72561
 C3422 C 0.38557 0.38411 0.70954
 C3423 C 0.38525 0.40633 0.71329
 C3424 C 0.39273 0.41484 0.73274
 C3425 C 0.40825 0.40944 0.77056
 C3426 C 0.40897 0.43147 0.77583
 C3427 C 0.41593 0.43824 0.79615
 C3428 C 0.42234 0.42326 0.81179
 C3429 C 0.42181 0.40129 0.80662
 C3430 C 0.41499 0.39431 0.78621
 C3431 C 0.40812 0.36473 0.76142
 C3432 C 0.41487 0.37231 0.78144
 H3433 H 0.40832 0.34754 0.75855
 H3434 H 0.42012 0.36074 0.79340
 H3435 H 0.39357 0.35323 0.72302
 H3436 H 0.37924 0.41719 0.70106
 H3437 H 0.41654 0.45530 0.79954
 H3438 H 0.42644 0.38951 0.81862
 H3439 H 0.39197 0.43204 0.73468
 H3440 H 0.40432 0.44377 0.76452
 C3441 C 1.10382 0.89285 1.24726
 C3442 C 1.11486 0.90694 1.26131
 C3443 C 1.12319 0.89927 1.28094
 C3444 C 1.11987 0.87780 1.28745
 C3445 C 1.10793 0.86426 1.27370
 C3446 C 1.10019 0.87158 1.25394
 C3447 C 1.09596 0.90137 1.22609
 C3448 C 1.08705 0.88807 1.21004
 C3449 C 1.07966 0.89675 1.19070
 C3450 C 1.08063 0.91898 1.18683
 C3451 C 1.09003 0.93229 1.20257
 C3452 C 1.09806 0.92361 1.22189
 C3453 C 1.11709 0.92870 1.25590
 C3454 C 1.10845 0.93694 1.23684
 H3455 H 1.12531 0.93962 1.26674
 H3456 H 1.11028 0.95395 1.23359
 H3457 H 1.13150 0.91040 1.29144
 H3458 H 1.10507 0.84760 1.27765
 H3459 H 1.07338 0.88587 1.17862
 H3460 H 1.09102 0.94947 1.19991
 H3461 H 1.09122 0.86032 1.24422
 H3462 H 1.08597 0.87088 1.21192
 C3463 C 1.10209 0.39942 0.75032
 C3464 C 1.09869 0.37752 0.75535
 C3465 C 1.10619 0.36906 0.77496
 C3466 C 1.11817 0.38178 0.78946
 C3467 C 1.12194 0.40343 0.78396
 C3468 C 1.11391 0.41214 0.76486
 C3469 C 1.09360 0.40788 0.72935
 C3470 C 1.09441 0.42979 0.72370
 C3471 C 1.08677 0.43678 0.70374
 C3472 C 1.07832 0.42215 0.68869
 C3473 C 1.07705 0.40032 0.69444
 C3474 C 1.08418 0.39321 0.71470
 C3475 C 1.08845 0.36400 0.74047
 C3476 C 1.08176 0.37157 0.72041
 H3477 H 1.08599 0.34716 0.74419
 H3478 H 1.07433 0.36035 0.70930
 H3479 H 1.10359 0.35218 0.77823
 H3480 H 1.13067 0.41404 0.79464
 H3481 H 1.08734 0.45380 0.70019
 H3482 H 1.07075 0.38869 0.68307
 H3483 H 1.11745 0.42880 0.76165
 H3484 H 1.10063 0.44183 0.73456
 C3485 C 0.60230 0.90022 0.75046
 C3486 C 0.60210 0.87773 0.75398
 C3487 C 0.60969 0.86924 0.77352
 C3488 C 0.61790 0.88279 0.78963
 C3489 C 0.61820 0.90503 0.78608
 C3490 C 0.61046 0.91368 0.76682
 C3491 C 0.59413 0.90861 0.72931
 C3492 C 0.59314 0.93071 0.72438
 C3493 C 0.58568 0.93768 0.70434
 C3494 C 0.57904 0.92286 0.68862
 C3495 C 0.57979 0.90083 0.69345
 C3496 C 0.58712 0.89364 0.71361
 C3497 C 0.59465 0.86381 0.73787
 C3498 C 0.58745 0.87159 0.71808
 H3499 H 0.59455 0.84660 0.74053
 H3500 H 0.58201 0.86012 0.70609
 H3501 H 0.60974 0.85200 0.77598
 H3502 H 0.62431 0.91581 0.79834
 H3503 H 0.58490 0.95478 0.70121
 H3504 H 0.57496 0.88918 0.68138
 H3505 H 0.61118 0.93090 0.76505
 H3506 H 0.59793 0.94290 0.73577
 C3507 C 0.60284 0.39407 1.24774
 C3508 C 0.61437 0.40807 1.26147
 C3509 C 0.62249 0.40054 1.28123
 C3510 C 0.61836 0.37937 1.28825
 C3511 C 0.60582 0.36599 1.27489
 C3512 C 0.59836 0.37312 1.25494
 C3513 C 0.59531 0.40237 1.22638
 C3514 C 0.58622 0.38899 1.21052
 C3515 C 0.57914 0.39748 1.19098
 C3516 C 0.58055 0.41963 1.18675
 C3517 C 0.59016 0.43301 1.20231
 C3518 C 0.59797 0.42447 1.22178
 C3519 C 0.61724 0.42964 1.25563
 C3520 C 0.60875 0.43779 1.23647
 H3521 H 0.62582 0.44052 1.26625
 H3522 H 0.61104 0.45468 1.23290
 H3523 H 0.63125 0.41158 1.29147
 H3524 H 0.60232 0.34957 1.27931
 H3525 H 0.57276 0.38650 1.17904
 H3526 H 0.59151 0.45012 1.19940
 H3527 H 0.58892 0.36202 1.24550
 H3528 H 0.58482 0.37185 1.21270
 C3529 C 0.90174 1.10009 1.25189
 C3530 C 0.87923 1.10005 1.25533
 C3531 C 0.87073 1.10758 1.27488
 C3532 C 0.88427 1.11558 1.29110
 C3533 C 0.90655 1.11566 1.28766
 C3534 C 0.91522 1.10797 1.26838
 C3535 C 0.91014 1.09208 1.23067
 C3536 C 0.93224 1.09106 1.22573
 C3537 C 0.93919 1.08378 1.20560
 C3538 C 0.92435 1.07734 1.18983
 C3539 C 0.90231 1.07815 1.19467
 C3540 C 0.89514 1.08531 1.21488
 C3541 C 0.86530 1.09282 1.23913
 C3542 C 0.87307 1.08574 1.21931
 H3543 H 0.84807 1.09284 1.24175
 H3544 H 0.86159 1.08048 1.20725
 H3545 H 0.85347 1.10782 1.27723
 H3546 H 0.91732 1.12161 1.30001
 H3547 H 0.95630 1.08298 1.20246
 H3548 H 0.89064 1.07350 1.18254
 H3549 H 0.93246 1.10852 1.26669
 H3550 H 0.94444 1.09572 1.23716
 C3551 C 0.89964 0.59940 0.75062
 C3552 C 0.89955 0.62190 0.75407
 C3553 C 0.89162 0.63041 0.77347
 C3554 C 0.88334 0.61686 0.78951
 C3555 C 0.88336 0.59460 0.78605
 C3556 C 0.89146 0.58593 0.76693
 C3557 C 0.90807 0.59100 0.72957
 C3558 C 0.90929 0.56890 0.72469
 C3559 C 0.91685 0.56193 0.70468
 C3560 C 0.92337 0.57676 0.68895
 C3561 C 0.92247 0.59879 0.69377
 C3562 C 0.91502 0.60598 0.71389
 C3563 C 0.90702 0.63583 0.73801
 C3564 C 0.91446 0.62805 0.71831
 H3565 H 0.90691 0.65305 0.74063
 H3566 H 0.91986 0.63951 0.70635
 H3567 H 0.89131 0.64766 0.77583
 H3568 H 0.87720 0.58382 0.79826
 H3569 H 0.91775 0.54483 0.70156
 H3570 H 0.92722 0.61045 0.68170
 H3571 H 0.89096 0.56869 0.76522
 H3572 H 0.90457 0.55671 0.73607
 C3573 C 0.40114 1.10190 0.75086
 C3574 C 0.37865 1.10152 0.75440
 C3575 C 0.37010 1.10928 0.77383
 C3576 C 0.38355 1.11788 0.78982
 C3577 C 0.40578 1.11851 0.78621
 C3578 C 0.41452 1.11057 0.76705
 C3579 C 0.40958 1.09341 0.72984
 C3580 C 0.43169 1.09235 0.72496
 C3581 C 0.43868 1.08465 0.70500
 C3582 C 0.42388 1.07785 0.68933
 C3583 C 0.40184 1.07861 0.69416
 C3584 C 0.39463 1.08613 0.71423
 C3585 C 0.36477 1.09373 0.73842
 C3586 C 0.37257 1.08638 0.71871
 H3587 H 0.34755 1.09353 0.74111
 H3588 H 0.36114 1.08071 0.70680
 H3589 H 0.35286 1.10915 0.77629
 H3590 H 0.41646 1.12502 0.79836
 H3591 H 0.45580 1.08385 0.70190
 H3592 H 0.39018 1.07366 0.68214
 H3593 H 0.43173 1.11153 0.76519
 H3594 H 0.44385 1.09727 0.73633
 C3595 C 0.40059 0.60282 1.25033
 C3596 C 0.37862 0.59960 1.25517
 C3597 C 0.37000 0.60739 1.27457
 C3598 C 0.38263 0.61940 1.28913
 C3599 C 0.40434 0.62308 1.28381
 C3600 C 0.41322 0.61479 1.26486
 C3601 C 0.40920 0.59394 1.22956
 C3602 C 0.43116 0.59457 1.22406
 C3603 C 0.43827 0.58651 1.20429
 C3604 C 0.42370 0.57782 1.18931
 C3605 C 0.40183 0.57675 1.19491
 C3606 C 0.39460 0.58431 1.21496
 C3607 C 0.36517 0.58920 1.24034
 C3608 C 0.37290 0.58210 1.22050
 H3609 H 0.34828 0.58689 1.24394
 H3610 H 0.36174 0.57453 1.20942
 H3611 H 0.35306 0.60493 1.27760
 H3612 H 0.41483 0.63193 1.29451
 H3613 H 0.45532 0.58698 1.20082
 H3614 H 0.39027 0.57029 1.18356
 H3615 H 0.42993 0.61821 1.26176
 H3616 H 0.44313 0.60098 1.23489
 C3617 C 1.10721 1.24473 0.89446
 C3618 C 1.09251 1.26019 0.88647
 C3619 C 1.10004 1.27993 0.87852
 C3620 C 1.12207 1.28481 0.87880
 C3621 C 1.13655 1.26962 0.88702
 C3622 C 1.12929 1.24983 0.89469
 C3623 C 1.09854 1.22377 0.90262
 C3624 C 1.11187 1.20699 0.90996
 C3625 C 1.10304 1.18790 0.91770
 C3626 C 1.08068 1.18496 0.91848
 C3627 C 1.06725 1.20145 0.91086
 C3628 C 1.07599 1.22067 0.90282
 C3629 C 1.07039 1.25597 0.88675
 C3630 C 1.06229 1.23673 0.89494
 H3631 H 1.05911 1.26782 0.88074
 H3632 H 1.04503 1.23435 0.89498
 H3633 H 1.08872 1.29175 0.87253
 H3634 H 1.15363 1.27296 0.88726
 H3635 H 1.11384 1.17527 0.92290
 H3636 H 1.04994 1.19945 0.91142
 H3637 H 1.14124 1.23888 0.90084
 H3638 H 1.12916 1.20817 0.90973
 C3639 C 1.10821 0.74375 0.39485
 C3640 C 1.09366 0.75913 0.38650
 C3641 C 1.10134 0.77878 0.37846
 C3642 C 1.12337 0.78363 0.37901
 C3643 C 1.13770 0.76855 0.38769
 C3644 C 1.13029 0.74886 0.39545
 C3645 C 1.09939 0.72284 0.40298
 C3646 C 1.11260 0.70607 0.41055
 C3647 C 1.10363 0.68704 0.41826
 C3648 C 1.08125 0.68416 0.41880
 C3649 C 1.06795 0.70062 0.41089
 C3650 C 1.07683 0.71977 0.40287
 C3651 C 1.07153 0.75495 0.38646
 C3652 C 1.06328 0.73580 0.39468
 H3653 H 1.06037 0.76677 0.38017
 H3654 H 1.04602 0.73344 0.39448
 H3655 H 1.09012 0.79053 0.37215
 H3656 H 1.15477 0.77190 0.38819
 H3657 H 1.11433 0.67441 0.42366
 H3658 H 1.05064 0.69864 0.41124
 H3659 H 1.14212 0.73797 0.40195
 H3660 H 1.12990 0.70721 0.41051
 C3661 C 0.59983 1.24954 0.39861
 C3662 C 0.62231 1.25316 0.39917
 C3663 C 0.63085 1.27264 0.39161
 C3664 C 0.61736 1.28853 0.38298
 C3665 C 0.59513 1.28488 0.38235
 C3666 C 0.58642 1.26573 0.39011
 C3667 C 0.59137 1.22845 0.40669
 C3668 C 0.56926 1.22350 0.40742
 C3669 C 0.56224 1.20348 0.41474
 C3670 C 0.57700 1.18782 0.42149
 C3671 C 0.59905 1.19270 0.42104
 C3672 C 0.60629 1.21284 0.41389
 C3673 C 0.63616 1.23717 0.40689
 C3674 C 0.62835 1.21739 0.41392
 H3675 H 0.65337 1.23990 0.40726
 H3676 H 0.63977 1.20548 0.41952
 H3677 H 0.64808 1.27521 0.39183
 H3678 H 0.58441 1.29699 0.37590
 H3679 H 0.54512 1.20035 0.41532
 H3680 H 0.61067 1.18069 0.42597
 H3681 H 0.56922 1.26387 0.38908
 H3682 H 0.55710 1.23484 0.40253
 C3683 C 0.60631 0.74592 0.89592
 C3684 C 0.59146 0.76121 0.88791
 C3685 C 0.59880 0.78111 0.88011
 C3686 C 0.62075 0.78627 0.88062
 C3687 C 0.63536 0.77123 0.88888
 C3688 C 0.62831 0.75131 0.89638
 C3689 C 0.59788 0.72479 0.90390
 C3690 C 0.61140 0.70816 0.91122
 C3691 C 0.60279 0.68891 0.91880
 C3692 C 0.58047 0.68566 0.91943
 C3693 C 0.56685 0.70200 0.91181
 C3694 C 0.57537 0.72138 0.90393
 C3695 C 0.56940 0.75669 0.88799
 C3696 C 0.56152 0.73730 0.89603
 H3697 H 0.55801 0.76842 0.88195
 H3698 H 0.54429 0.73467 0.89594
 H3699 H 0.58738 0.79280 0.87407
 H3700 H 0.65240 0.77477 0.88928
 H3701 H 0.61373 0.67640 0.92399
 H3702 H 0.54958 0.69975 0.91225
 H3703 H 0.64036 0.74050 0.90258
 H3704 H 0.62867 0.70956 0.91109
 C3705 C 0.89295 1.24572 1.10424
 C3706 C 0.90701 1.25956 1.11554
 C3707 C 0.89939 1.27913 1.12387
 C3708 C 0.87802 1.28587 1.12026
 C3709 C 0.86450 1.27238 1.10804
 C3710 C 0.87175 1.25259 1.10033
 C3711 C 0.90146 1.22459 1.09637
 C3712 C 0.88819 1.20866 1.08727
 C3713 C 0.89689 1.18934 1.07991
 C3714 C 0.91911 1.18541 1.08107
 C3715 C 0.93239 1.20105 1.09062
 C3716 C 0.92368 1.22030 1.09866
 C3717 C 0.92873 1.25404 1.11798
 C3718 C 0.93698 1.23507 1.10929
 H3719 H 0.93962 1.26475 1.12640
 H3720 H 0.95398 1.23173 1.11128
 H3721 H 0.91054 1.28948 1.13235
 H3722 H 0.84793 1.27661 1.10494
 H3723 H 0.88602 1.17734 1.07352
 H3724 H 0.94957 1.19837 1.09173
 H3725 H 0.86054 1.24303 1.09114
 H3726 H 0.87100 1.21063 1.08605
 C3727 C 0.89704 0.74584 0.60618
 C3728 C 0.88909 0.76096 0.59111
 C3729 C 0.88106 0.78085 0.59824
 C3730 C 0.88119 0.78616 0.62022
 C3731 C 0.88937 0.77129 0.63507
 C3732 C 0.89715 0.75139 0.62822
 C3733 C 0.90523 0.72469 0.59796
 C3734 C 0.91260 0.70823 0.61168
 C3735 C 0.92023 0.68889 0.60325
 C3736 C 0.92086 0.68539 0.58091
 C3737 C 0.91332 0.70160 0.56709
 C3738 C 0.90540 0.72107 0.57542
 C3739 C 0.88942 0.75626 0.56903
 C3740 C 0.89757 0.73683 0.56134
 H3741 H 0.88343 0.76787 0.55747
 H3742 H 0.89761 0.73405 0.54409
 H3743 H 0.87509 0.79241 0.58663
 H3744 H 0.88948 0.77494 0.65213
 H3745 H 0.92541 0.67650 0.61434
 H3746 H 0.91381 0.69917 0.54979
 H3747 H 0.90323 0.74069 0.64044
 H3748 H 0.91245 0.70983 0.62899
 C3749 C 0.39386 1.24648 0.60466
 C3750 C 0.40807 1.26040 0.61569
 C3751 C 0.40057 1.28006 0.62398
 C3752 C 0.37917 1.28678 0.62058
 C3753 C 0.36544 1.27310 0.60880
 C3754 C 0.37258 1.25327 0.60113
 C3755 C 0.40229 1.22536 0.59666
 C3756 C 0.38894 1.20948 0.58759
 C3757 C 0.39756 1.19020 0.58005
 C3758 C 0.41978 1.18624 0.58103
 C3759 C 0.43316 1.20183 0.59053
 C3760 C 0.42453 1.22107 0.59870
 C3761 C 0.42982 1.25488 0.61789
 C3762 C 0.43796 1.23586 0.60917
 H3763 H 0.44082 1.26562 0.62612
 H3764 H 0.45497 1.23252 0.61096
 H3765 H 0.41183 1.29049 0.63221
 H3766 H 0.34880 1.27723 0.60595
 H3767 H 0.38664 1.17824 0.57365
 H3768 H 0.45034 1.19912 0.59148
 H3769 H 0.36121 1.24362 0.59225
 H3770 H 0.37175 1.21145 0.58649
 C3771 C 0.39408 0.74656 1.10481
 C3772 C 0.40816 0.76065 1.11581
 C3773 C 0.40045 0.78027 1.12407
 C3774 C 0.37897 0.78674 1.12064
 C3775 C 0.36540 0.77284 1.10891
 C3776 C 0.37274 0.75311 1.10128
 C3777 C 0.40266 0.72553 1.09680
 C3778 C 0.38940 0.70954 1.08779
 C3779 C 0.39814 0.69037 1.08014
 C3780 C 0.42039 0.68661 1.08097
 C3781 C 0.43369 0.70227 1.09049
 C3782 C 0.42494 0.72143 1.09875
 C3783 C 0.42996 0.75531 1.11795
 C3784 C 0.43825 0.73635 1.10920
 H3785 H 0.44088 0.76615 1.12616
 H3786 H 0.45530 0.73317 1.11094
 H3787 H 0.41156 0.79084 1.13233
 H3788 H 0.34869 0.77668 1.10609
 H3789 H 0.38728 0.67833 1.07379
 H3790 H 0.45090 0.69967 1.09138
 H3791 H 0.36145 0.74335 1.09242
 H3792 H 0.37218 0.71132 1.08682
 C3793 C 0.89178 0.75463 0.89527
 C3794 C 0.90658 0.73926 0.88731
 C3795 C 0.89917 0.71954 0.87914
 C3796 C 0.87714 0.71464 0.87910
 C3797 C 0.86255 0.72979 0.88720
 C3798 C 0.86970 0.74953 0.89513
 C3799 C 0.90033 0.77555 0.90373
 C3800 C 0.88691 0.79217 0.91129
 C3801 C 0.89564 0.81127 0.91918
 C3802 C 0.91798 0.81437 0.91986
 C3803 C 0.93149 0.79800 0.91215
 C3804 C 0.92287 0.77876 0.90400
 C3805 C 0.92869 0.74355 0.88778
 C3806 C 0.93666 0.76280 0.89609
 H3807 H 0.94003 0.73176 0.88177
 H3808 H 0.95391 0.76526 0.89622
 H3809 H 0.91058 0.70777 0.87323
 H3810 H 0.84547 0.72647 0.88716
 H3811 H 0.88479 0.82380 0.92452
 H3812 H 0.94879 0.80013 0.91269
 H3813 H 0.85766 0.76046 0.90115
 H3814 H 0.86963 0.79087 0.91112
 C3815 C 0.90064 0.24969 0.39895
 C3816 C 0.87812 0.24631 0.39867
 C3817 C 0.86966 0.22684 0.39097
 C3818 C 0.88327 0.21060 0.38320
 C3819 C 0.90555 0.21401 0.38339
 C3820 C 0.91417 0.23322 0.39119
 C3821 C 0.90899 0.27077 0.40722
 C3822 C 0.93109 0.27562 0.40856
 C3823 C 0.93802 0.29561 0.41609
 C3824 C 0.92315 0.31134 0.42247
 C3825 C 0.90111 0.30659 0.42138
 C3826 C 0.89396 0.28651 0.41393
 C3827 C 0.86414 0.26247 0.40580
 C3828 C 0.87188 0.28216 0.41316
 H3829 H 0.84690 0.25990 0.40554
 H3830 H 0.86038 0.29418 0.41836
 H3831 H 0.85240 0.22452 0.39054
 H3832 H 0.91639 0.20165 0.37765
 H3833 H 0.95512 0.29870 0.41711
 H3834 H 0.88943 0.31869 0.42600
 H3835 H 0.93142 0.23486 0.39089
 H3836 H 0.94331 0.26422 0.40396
 C3837 C 0.39324 0.75367 0.39693
 C3838 C 0.40749 0.73956 0.38621
 C3839 C 0.39988 0.72005 0.37763
 C3840 C 0.37824 0.71376 0.38031
 C3841 C 0.36447 0.72767 0.39179
 C3842 C 0.37177 0.74726 0.39983
 C3843 C 0.40175 0.77464 0.40520
 C3844 C 0.38840 0.79063 0.41411
 C3845 C 0.39706 0.80982 0.42179
 C3846 C 0.41931 0.81362 0.42108
 C3847 C 0.43271 0.79790 0.41183
 C3848 C 0.42406 0.77871 0.40357
 C3849 C 0.42935 0.74480 0.38453
 C3850 C 0.43752 0.76375 0.39339
 H3851 H 0.44038 0.73393 0.37654
 H3852 H 0.45460 0.76690 0.39194
 H3853 H 0.41114 0.70948 0.36961
 H3854 H 0.34767 0.72396 0.39408
 H3855 H 0.38616 0.82188 0.42803
 H3856 H 0.44992 0.80052 0.41110
 H3857 H 0.36032 0.75705 0.40842
 H3858 H 0.37118 0.78883 0.41496
 C3859 C 0.39255 0.25340 0.89687
 C3860 C 0.40669 0.23939 0.88588
 C3861 C 0.39908 0.21981 0.87752
 C3862 C 0.37757 0.21329 0.88070
 C3863 C 0.36393 0.22704 0.89250
 C3864 C 0.37122 0.24676 0.90031
 C3865 C 0.40109 0.27449 0.90486
 C3866 C 0.38782 0.29045 0.91392
 C3867 C 0.39653 0.30972 0.92138
 C3868 C 0.41876 0.31361 0.92031
 C3869 C 0.43205 0.29794 0.91085
 C3870 C 0.42335 0.27869 0.90278
 C3871 C 0.42847 0.24479 0.88373
 C3872 C 0.43670 0.26380 0.89238
 H3873 H 0.43942 0.23397 0.87553
 H3874 H 0.45372 0.26705 0.89058
 H3875 H 0.41029 0.20933 0.86931
 H3876 H 0.34725 0.22307 0.89524
 H3877 H 0.38568 0.32174 0.92777
 H3878 H 0.44924 0.30060 0.90984
 H3879 H 0.35989 0.25648 0.90916
 H3880 H 0.37063 0.28854 0.91507
 C3881 C 1.10183 0.75129 1.10203
 C3882 C 1.12376 0.74633 1.09867
 C3883 C 1.13239 0.72698 1.10657
 C3884 C 1.11978 0.71274 1.11892
 C3885 C 1.09810 0.71821 1.12264
 C3886 C 1.08924 0.73702 1.11423
 C3887 C 1.09317 0.77195 1.09312
 C3888 C 1.07120 0.77742 1.09387
 C3889 C 1.06401 0.79714 1.08594
 C3890 C 1.07849 0.81212 1.07724
 C3891 C 1.10037 0.80651 1.07591
 C3892 C 1.10768 0.78648 1.08337
 C3893 C 1.13713 0.76104 1.08806
 C3894 C 1.12937 0.78086 1.08098
 H3895 H 1.15400 0.75739 1.08562
 H3896 H 1.14048 0.79185 1.07329
 H3897 H 1.14928 0.72372 1.10398
 H3898 H 1.08755 0.70772 1.13161
 H3899 H 1.04696 0.80057 1.08652
 H3900 H 1.11187 0.81782 1.06935
 H3901 H 1.07257 0.74021 1.11777
 H3902 H 1.05926 0.76662 1.10028
 C3903 C 1.10680 0.25264 0.60137
 C3904 C 1.10377 0.24781 0.62341
 C3905 C 1.11153 0.22841 0.63196
 C3906 C 1.12323 0.21379 0.61912
 C3907 C 1.12695 0.21924 0.59739
 C3908 C 1.11874 0.23821 0.58862
 C3909 C 1.09764 0.27321 0.59275
 C3910 C 1.09789 0.27853 0.57069
 C3911 C 1.08947 0.29805 0.56352
 C3912 C 1.08077 0.31298 0.57812
 C3913 C 1.08006 0.30757 0.60010
 C3914 C 1.08801 0.28774 0.60741
 C3915 C 1.09346 0.26260 0.63697
 C3916 C 1.08614 0.28231 0.62922
 H3917 H 1.09133 0.25904 0.65393
 H3918 H 1.07859 0.29334 0.64044
 H3919 H 1.10913 0.22530 0.64893
 H3920 H 1.13562 0.20857 0.58674
 H3921 H 1.08964 0.30137 0.54639
 H3922 H 1.07355 0.31887 0.61168
 H3923 H 1.12211 0.24136 0.57187
 H3924 H 1.10425 0.26772 0.55868
 C3925 C 0.60468 0.75429 0.60586
 C3926 C 0.61280 0.73914 0.59087
 C3927 C 0.62073 0.71923 0.59808
 C3928 C 0.62021 0.71391 0.62005
 C3929 C 0.61187 0.72882 0.63479
 C3930 C 0.60426 0.74874 0.62787
 C3931 C 0.59657 0.77543 0.59758
 C3932 C 0.58918 0.79192 0.61127
 C3933 C 0.58148 0.81120 0.60281
 C3934 C 0.58078 0.81461 0.58046
 C3935 C 0.58845 0.79840 0.56667
 C3936 C 0.59647 0.77899 0.57505
 C3937 C 0.61265 0.74383 0.56879
 C3938 C 0.60446 0.76322 0.56104
 H3939 H 0.61875 0.73222 0.55728
 H3940 H 0.60451 0.76597 0.54379
 H3941 H 0.62686 0.70765 0.58657
 H3942 H 0.61148 0.72516 0.65184
 H3943 H 0.57628 0.82361 0.61389
 H3944 H 0.58797 0.80077 0.54937
 H3945 H 0.59800 0.75943 0.64003
 H3946 H 0.58937 0.79040 0.62858
 C3947 C 0.60663 0.25295 1.10178
 C3948 C 0.60383 0.24830 1.12390
 C3949 C 0.61176 0.22900 1.13253
 C3950 C 0.62343 0.21434 1.11970
 C3951 C 0.62687 0.21963 1.09789
 C3952 C 0.61850 0.23848 1.08904
 C3953 C 0.59734 0.27343 1.09306
 C3954 C 0.59742 0.27856 1.07096
 C3955 C 0.58892 0.29802 1.06370
 C3956 C 0.58030 0.31304 1.07824
 C3957 C 0.57974 0.30780 1.10027
 C3958 C 0.58778 0.28805 1.10768
 C3959 C 0.59356 0.26315 1.13741
 C3960 C 0.58610 0.28278 1.12955
 H3961 H 0.59158 0.25973 1.15442
 H3962 H 0.57860 0.29387 1.14075
 H3963 H 0.60953 0.22599 1.14955
 H3964 H 0.63547 0.20891 1.08721
 H3965 H 0.58897 0.30121 1.04654
 H3966 H 0.57329 0.31918 1.11180
 H3967 H 0.62169 0.24149 1.07223
 H3968 H 0.60371 0.26768 1.05898
 C3969 C 1.24731 1.10088 0.89542
 C3970 C 1.25047 1.12343 0.89536
 C3971 C 1.26972 1.13215 0.88745
 C3972 C 1.28594 1.11879 0.87922
 C3973 C 1.28269 1.09649 0.87906
 C3974 C 1.26370 1.08761 0.88708
 C3975 C 1.22654 1.09222 0.90412
 C3976 C 1.22204 1.07005 0.90545
 C3977 C 1.20234 1.06282 0.91342
 C3978 C 1.18657 1.07743 0.92027
 C3979 C 1.19100 1.09954 0.91922
 C3980 C 1.21080 1.10699 0.91135
 C3981 C 1.23432 1.13715 0.90300
 C3982 C 1.21487 1.12912 0.91069
 H3983 H 1.23670 1.15441 0.90290
 H3984 H 1.20284 1.14043 0.91628
 H3985 H 1.27194 1.14943 0.88730
 H3986 H 1.29503 1.08583 0.87297
 H3987 H 1.19952 1.04568 0.91440
 H3988 H 1.17887 1.11102 0.92422
 H3989 H 1.26219 1.07036 0.88651
 H3990 H 1.23349 1.05801 0.90051
 C3991 C 1.24342 0.60872 0.39169
 C3992 C 1.25901 0.59414 0.38376
 C3993 C 1.27855 0.60183 0.37544
 C3994 C 1.28303 0.62393 0.37524
 C3995 C 1.26758 0.63832 0.38312
 C3996 C 1.24803 0.63090 0.39118
 C3997 C 1.22284 0.59987 0.40059
 C3998 C 1.20613 0.61304 0.40839
 C3999 C 1.18741 0.60404 0.41680
 C4000 C 1.18480 0.58166 0.41777
 C4001 C 1.20125 0.56838 0.40982
 C4002 C 1.22012 0.57728 0.40119
 C4003 C 1.25518 0.57197 0.38451
 C4004 C 1.23622 0.56372 0.39315
 H4005 H 1.26713 0.56079 0.37850
 H4006 H 1.23411 0.54643 0.39352
 H4007 H 1.29055 0.59059 0.36967
 H4008 H 1.27060 0.65545 0.38293
 H4009 H 1.17478 0.61468 0.42232
 H4010 H 1.19948 0.55107 0.41059
 H4011 H 1.23688 0.64280 0.39707
 H4012 H 1.20708 0.63034 0.40805
 C4013 C 0.74534 1.10669 0.39494
 C4014 C 0.76081 1.09184 0.38726
 C4015 C 0.78072 1.09919 0.37952
 C4016 C 0.78572 1.12118 0.37967
 C4017 C 0.77048 1.13582 0.38752
 C4018 C 0.75056 1.12874 0.39501
 C4019 C 0.72423 1.09822 0.40296
 C4020 C 0.70751 1.11170 0.41014
 C4021 C 0.68828 1.10305 0.41777
 C4022 C 0.68516 1.08073 0.41857
 C4023 C 0.70159 1.06714 0.41110
 C4024 C 0.72097 1.07570 0.40322
 C4025 C 0.75643 1.06976 0.38762
 C4026 C 0.73702 1.06186 0.39559
 H4027 H 0.76829 1.05837 0.38182
 H4028 H 0.73451 1.04462 0.39569
 H4029 H 0.79255 1.08774 0.37381
 H4030 H 0.77389 1.15287 0.38763
 H4031 H 0.67570 1.11395 0.42288
 H4032 H 0.69944 1.04987 0.41170
 H4033 H 0.73958 1.14081 0.40087
 H4034 H 0.70883 1.12897 0.40990
 C4035 C 0.74860 0.59986 0.89686
 C4036 C 0.75191 0.62237 0.89664
 C4037 C 0.77129 0.63090 0.88883
 C4038 C 0.78751 0.61736 0.88088
 C4039 C 0.78414 0.59508 0.88094
 C4040 C 0.76501 0.58640 0.88886
 C4041 C 0.72764 0.59144 0.90534
 C4042 C 0.72290 0.56932 0.90671
 C4043 C 0.70302 0.56233 0.91444
 C4044 C 0.68730 0.57713 0.92100
 C4045 C 0.69195 0.59918 0.91990
 C4046 C 0.71193 0.60640 0.91226
 C4047 C 0.73579 0.63629 0.90397
 C4048 C 0.71619 0.62848 0.91149
 H4049 H 0.73831 0.65353 0.90375
 H4050 H 0.70419 0.63994 0.91684
 H4051 H 0.77357 0.64816 0.88848
 H4052 H 0.79648 0.58430 0.87505
 H4053 H 0.70000 0.54522 0.91547
 H4054 H 0.67987 0.61081 0.92466
 H4055 H 0.76340 0.56915 0.88846
 H4056 H 0.73430 0.55715 0.90199
 C4057 C 1.24463 0.89231 1.10430
 C4058 C 1.26009 0.90700 1.11229
 C4059 C 1.27970 0.89945 1.12060
 C4060 C 1.28440 0.87739 1.12073
 C4061 C 1.26917 0.86290 1.11257
 C4062 C 1.24954 0.87019 1.10452
 C4063 C 1.22383 0.90101 1.09572
 C4064 C 1.20712 0.88770 1.08817
 C4065 C 1.18812 0.89656 1.08018
 C4066 C 1.18524 0.91891 1.07937
 C4067 C 1.20171 0.93232 1.08707
 C4068 C 1.22084 0.92356 1.09533
 C4069 C 1.25602 0.92914 1.11171
 C4070 C 1.23689 0.93724 1.10326
 H4071 H 1.26788 0.94040 1.11775
 H4072 H 1.23458 0.95451 1.10305
 H4073 H 1.29154 0.91077 1.12654
 H4074 H 1.27236 0.84580 1.11267
 H4075 H 1.17550 0.88580 1.07487
 H4076 H 1.19974 0.94962 1.08644
 H4077 H 1.23855 0.85823 1.09846
 H4078 H 1.20825 0.87041 1.08843
 C4079 C 1.25061 0.40030 0.60214
 C4080 C 1.25386 0.37778 0.60254
 C4081 C 1.27315 0.36925 0.61062
 C4082 C 1.28934 0.38280 0.61861
 C4083 C 1.28603 0.40509 0.61835
 C4084 C 1.26698 0.41377 0.61020
 C4085 C 1.22975 0.40873 0.59339
 C4086 C 1.22505 0.43084 0.59188
 C4087 C 1.20523 0.43785 0.58398
 C4088 C 1.18954 0.42305 0.57736
 C4089 C 1.19416 0.40100 0.57853
 C4090 C 1.21407 0.39377 0.58638
 C4091 C 1.23778 0.36386 0.59511
 C4092 C 1.21828 0.37168 0.58731
 H4093 H 1.24025 0.34662 0.59546
 H4094 H 1.20630 0.36022 0.58189
 H4095 H 1.27538 0.35199 0.61109
 H4096 H 1.29835 0.41589 0.62425
 H4097 H 1.20223 0.45496 0.58291
 H4098 H 1.18209 0.38938 0.57371
 H4099 H 1.26542 0.43102 0.61045
 H4100 H 1.23643 0.44302 0.59667
 C4101 C 0.74800 0.89484 0.60063
 C4102 C 0.76352 0.90969 0.60821
 C4103 C 0.78349 0.90235 0.61583
 C4104 C 0.78848 0.88034 0.61570
 C4105 C 0.77324 0.86573 0.60778
 C4106 C 0.75329 0.87281 0.60037
 C4107 C 0.72672 0.90327 0.59304
 C4108 C 0.70989 0.88974 0.58618
 C4109 C 0.69045 0.89833 0.57904
 C4110 C 0.68720 0.92064 0.57841
 C4111 C 0.70373 0.93428 0.58555
 C4112 C 0.72334 0.92578 0.59296
 C4113 C 0.75906 0.93177 0.60799
 C4114 C 0.73949 0.93964 0.60035
 H4115 H 0.77096 0.94316 0.61369
 H4116 H 0.73690 0.95687 0.60038
 H4117 H 0.79532 0.91378 0.62161
 H4118 H 0.77660 0.84866 0.60768
 H4119 H 0.67780 0.88739 0.57418
 H4120 H 0.70145 0.95155 0.58510
 H4121 H 0.74230 0.86075 0.59451
 H4122 H 0.71128 0.87247 0.58634
 C4123 C 0.74969 0.39975 1.10333
 C4124 C 0.75294 0.37723 1.10355
 C4125 C 0.77218 0.36864 1.11165
 C4126 C 0.78832 0.38210 1.11989
 C4127 C 0.78496 0.40438 1.11995
 C4128 C 0.76596 0.41314 1.11174
 C4129 C 0.72893 0.40826 1.09440
 C4130 C 0.72432 0.43039 1.09285
 C4131 C 0.70459 0.43746 1.08476
 C4132 C 0.68889 0.42272 1.07801
 C4133 C 0.69345 0.40065 1.07919
 C4134 C 0.71328 0.39336 1.08718
 C4135 C 0.73691 0.36338 1.09589
 C4136 C 0.71746 0.37126 1.08802
 H4137 H 0.73938 0.34613 1.09612
 H4138 H 0.70552 0.35985 1.08244
 H4139 H 0.77443 0.35137 1.11193
 H4140 H 0.79723 0.41510 1.12610
 H4141 H 0.70167 0.45458 1.08367
 H4142 H 0.68139 0.38907 1.07424
 H4143 H 0.76435 0.43039 1.11222
 H4144 H 0.73571 0.44251 1.09773
 C4145 C 0.75058 1.09920 1.10202
 C4146 C 0.74683 1.12163 1.10129
 C4147 C 0.72732 1.13012 1.10881
 C4148 C 0.71144 1.11668 1.11750
 C4149 C 0.71523 1.09449 1.11842
 C4150 C 0.73448 1.08580 1.11071
 C4151 C 0.77172 1.09083 1.09386
 C4152 C 0.77687 1.06877 1.09324
 C4153 C 0.79691 1.06186 1.08579
 C4154 C 0.81240 1.07670 1.07881
 C4155 C 0.80732 1.09869 1.07919
 C4156 C 0.78717 1.10580 1.08646
 C4157 C 0.76268 1.13554 1.09342
 C4158 C 0.78247 1.12781 1.08633
 H4159 H 0.75982 1.15272 1.09294
 H4160 H 0.79427 1.13927 1.08057
 H4161 H 0.72473 1.14734 1.10846
 H4162 H 0.70318 1.08381 1.12500
 H4163 H 0.80020 1.04477 1.08531
 H4164 H 0.81920 1.11037 1.07411
 H4165 H 0.73648 1.06863 1.11190
 H4166 H 0.76565 1.05658 1.09832
 C4167 C 0.75430 0.60406 0.60684
 C4168 C 0.73917 0.61221 0.59186
 C4169 C 0.71943 0.62053 0.59911
 C4170 C 0.71427 0.62043 0.62112
 C4171 C 0.72918 0.61212 0.63587
 C4172 C 0.74894 0.60411 0.62891
 C4173 C 0.77525 0.59548 0.59850
 C4174 C 0.79169 0.58787 0.61213
 C4175 C 0.81084 0.57989 0.60360
 C4176 C 0.81416 0.57913 0.58124
 C4177 C 0.79794 0.58687 0.56751
 C4178 C 0.77868 0.59516 0.57594
 C4179 C 0.74369 0.61174 0.56975
 C4180 C 0.76293 0.60322 0.56195
 H4181 H 0.73209 0.61787 0.55826
 H4182 H 0.76557 0.60308 0.54469
 H4183 H 0.70784 0.62663 0.58759
 H4184 H 0.72565 0.61206 0.65296
 H4185 H 0.82325 0.57457 0.61463
 H4186 H 0.80022 0.58628 0.55020
 H4187 H 0.75965 0.59791 0.64107
 H4188 H 0.79024 0.58811 0.62944
 C4189 C 0.25302 1.10175 0.60569
 C4190 C 0.23778 1.10958 0.59066
 C4191 C 0.21780 1.11739 0.59783
 C4192 C 0.21255 1.11714 0.61983
 C4193 C 0.22748 1.10888 0.63460
 C4194 C 0.24743 1.10131 0.62770
 C4195 C 0.27436 1.09408 0.59749
 C4196 C 0.29100 1.08716 0.61125
 C4197 C 0.31052 1.08000 0.60286
 C4198 C 0.31405 1.07938 0.58053
 C4199 C 0.29769 1.08659 0.56667
 C4200 C 0.27802 1.09406 0.57497
 C4201 C 0.24252 1.10943 0.56858
 C4202 C 0.26211 1.10163 0.56089
 H4203 H 0.23083 1.11531 0.55704
 H4204 H 0.26491 1.10172 0.54365
 H4205 H 0.20621 1.12345 0.58629
 H4206 H 0.22392 1.10869 0.65167
 H4207 H 0.32302 1.07513 0.61399
 H4208 H 0.30016 1.08617 0.54938
 H4209 H 0.25817 1.09520 0.63988
 H4210 H 0.28940 1.08732 0.62855
 C4211 C 0.25540 0.60540 1.10851
 C4212 C 0.24031 0.61383 1.09365
 C4213 C 0.22059 0.62209 1.10101
 C4214 C 0.21539 0.62167 1.12302
 C4215 C 0.23022 0.61297 1.13764
 C4216 C 0.24996 0.60500 1.13056
 C4217 C 0.27638 0.59700 1.10003
 C4218 C 0.29286 0.58926 1.11355
 C4219 C 0.31203 0.58143 1.10489
 C4220 C 0.31533 0.58095 1.08251
 C4221 C 0.29910 0.58889 1.06891
 C4222 C 0.27983 0.59704 1.07747
 C4223 C 0.24485 0.61372 1.07154
 C4224 C 0.26408 0.60531 1.06361
 H4225 H 0.23327 0.62007 1.06014
 H4226 H 0.26673 0.60545 1.04635
 H4227 H 0.20906 0.62845 1.08957
 H4228 H 0.22663 0.61261 1.15471
 H4229 H 0.32444 0.57598 1.11584
 H4230 H 0.30135 0.58853 1.05159
 H4231 H 0.26063 0.59852 1.14261
 H4232 H 0.29141 0.58928 1.13086
 C4233 C 0.74960 0.89904 0.90161
 C4234 C 0.74573 0.89973 0.87912
 C4235 C 0.72627 0.89194 0.87069
 C4236 C 0.71067 0.88294 0.88427
 C4237 C 0.71462 0.88202 0.90649
 C4238 C 0.73376 0.89004 0.91511
 C4239 C 0.77061 0.90753 0.90994
 C4240 C 0.77573 0.90839 0.93207
 C4241 C 0.79569 0.91604 0.93896
 C4242 C 0.81115 0.92298 0.92404
 C4243 C 0.80606 0.92246 0.90198
 C4244 C 0.78596 0.91502 0.89488
 C4245 C 0.76142 0.90779 0.86513
 C4246 C 0.78118 0.91507 0.87282
 H4247 H 0.75850 0.90824 0.84791
 H4248 H 0.79289 0.92092 0.86129
 H4249 H 0.72350 0.89232 0.85345
 H4250 H 0.70276 0.87522 0.91726
 H4251 H 0.79896 0.91669 0.95610
 H4252 H 0.81790 0.92755 0.89023
 H4253 H 0.73589 0.88880 0.93231
 H4254 H 0.76454 0.90336 0.94433
 C4255 C 0.75296 0.39608 0.39464
 C4256 C 0.73766 0.38820 0.40957
 C4257 C 0.71769 0.38050 0.40226
 C4258 C 0.71248 0.38092 0.38025
 C4259 C 0.72752 0.38909 0.36557
 C4260 C 0.74748 0.39653 0.37260
 C4261 C 0.77421 0.40386 0.40303
 C4262 C 0.79084 0.41101 0.38942
 C4263 C 0.81021 0.41840 0.39798
 C4264 C 0.81359 0.41900 0.42034
 C4265 C 0.79726 0.41152 0.43405
 C4266 C 0.77773 0.40385 0.42558
 C4267 C 0.74229 0.38828 0.43167
 C4268 C 0.76180 0.39613 0.43952
 H4269 H 0.73056 0.38235 0.44312
 H4270 H 0.76451 0.39601 0.45678
 H4271 H 0.70602 0.37452 0.41374
 H4272 H 0.72396 0.38941 0.34850
 H4273 H 0.82272 0.42348 0.38696
 H4274 H 0.79962 0.41193 0.45136
 H4275 H 0.75829 0.40263 0.36049
 H4276 H 0.78935 0.41091 0.37211
 C4277 C 0.25110 0.89909 0.39810
 C4278 C 0.24777 0.87658 0.39801
 C4279 C 0.22852 0.86799 0.38991
 C4280 C 0.21247 0.88144 0.38149
 C4281 C 0.21589 0.90371 0.38134
 C4282 C 0.23488 0.91247 0.38958
 C4283 C 0.27191 0.90758 0.40694
 C4284 C 0.27660 0.92970 0.40836
 C4285 C 0.29639 0.93675 0.41632
 C4286 C 0.31209 0.92200 0.42306
 C4287 C 0.30743 0.89994 0.42202
 C4288 C 0.28754 0.89267 0.41417
 C4289 C 0.26376 0.86272 0.40574
 C4290 C 0.28327 0.87058 0.41349
 H4291 H 0.26123 0.84549 0.40561
 H4292 H 0.29519 0.85917 0.41910
 H4293 H 0.22622 0.85073 0.38970
 H4294 H 0.20369 0.91442 0.37503
 H4295 H 0.29936 0.95387 0.41733
 H4296 H 0.31948 0.88835 0.42695
 H4297 H 0.23656 0.92970 0.38899
 H4298 H 0.26522 0.94183 0.40348
 C4299 C 0.25313 0.39653 0.89488
 C4300 C 0.23812 0.38792 0.90969
 C4301 C 0.21826 0.37999 0.90231
 C4302 C 0.21285 0.38101 0.88037
 C4303 C 0.22755 0.39000 0.86584
 C4304 C 0.24743 0.39761 0.87292
 C4305 C 0.27431 0.40443 0.90331
 C4306 C 0.29079 0.41202 0.88975
 C4307 C 0.31011 0.41948 0.89834
 C4308 C 0.31359 0.41974 0.92070
 C4309 C 0.29742 0.41179 0.93435
 C4310 C 0.27797 0.40398 0.92583
 C4311 C 0.24290 0.38753 0.93175
 C4312 C 0.26228 0.39563 0.93967
 H4313 H 0.23137 0.38106 0.94313
 H4314 H 0.26510 0.39516 0.95691
 H4315 H 0.20681 0.37338 0.91367
 H4316 H 0.22380 0.39082 0.84882
 H4317 H 0.32250 0.42487 0.88735
 H4318 H 0.29985 0.41190 0.95165
 H4319 H 0.25798 0.40436 0.86093
 H4320 H 0.28921 0.41217 0.87244
   
