data_POSCAR
  _audit_creation_date              2014-09-24
  _audit_creation_method            'ToBaCCo'
  _symmetry_space_group_name_H-M    'P1'
  _symmetry_Int_Tables_number       1
  _symmetry_cell_setting            triclinic
  loop_
  _symmetry_equiv_pos_as_xyz
 x,y,z
_cell_length_a 38.9555
_cell_length_b 39.0142
_cell_length_c 49.9817
_cell_angle_alpha 89.829400
_cell_angle_beta 89.952400
_cell_angle_gamma 90.000400
loop_
  _atom_site_label
  _atom_site_type_symbol
  _atom_site_fract_x
  _atom_site_fract_y
  _atom_site_fract_z
Zr1 Zr 0.24623 0.24873 0.29741
 O2 O 0.27157 0.27427 0.32909
 O3 O 0.21056 0.21891 0.31839
 O4 O 0.21263 0.28164 0.31807
 O5 O 0.30804 0.18593 0.28971
 O6 O 0.18798 0.31399 0.28526
 O7 O 0.27642 0.21509 0.32058
 O8 O 0.17945 0.19341 0.28540
 O9 O 0.20269 0.25253 0.27311
 O10 O 0.24528 0.20418 0.27433
 O11 O 0.25264 0.29427 0.27543
 O12 O 0.29368 0.24768 0.27709
 Zr13 Zr 0.25507 0.25227 0.20454
 Zr14 Zr 0.21041 0.29634 0.24957
 Zr15 Zr 0.29079 0.20436 0.25236
 Zr16 Zr 0.20314 0.20891 0.24918
 O17 O 0.34510 0.20471 0.25347
 O18 O 0.15021 0.22100 0.24613
 O19 O 0.24852 0.20624 0.22635
 O20 O 0.20802 0.25284 0.22523
 O21 O 0.25607 0.29700 0.22751
 O22 O 0.29816 0.24833 0.22925
 C23 C 0.18603 0.19957 0.31022
 C24 C 0.29943 0.19292 0.31400
 C25 C 0.19205 0.30531 0.30992
 O26 O 0.15643 0.29579 0.24489
 O27 O 0.19743 0.31890 0.21260
 O28 O 0.22737 0.28840 0.18156
 C29 C 0.20621 0.31229 0.18830
 O30 O 0.31933 0.30794 0.29014
 Zr31 Zr 0.29800 0.29180 0.25314
 O32 O 0.29055 0.28311 0.18389
 O33 O 0.21811 0.34988 0.25261
 O34 O 0.29328 0.34592 0.25440
 O35 O 0.35155 0.28198 0.25350
 O36 O 0.31842 0.31142 0.21725
 C37 C 0.31268 0.30501 0.19242
 O38 O 0.22828 0.22873 0.17264
 O39 O 0.28281 0.15072 0.25276
 O40 O 0.28593 0.21698 0.18361
 O41 O 0.30873 0.18301 0.21627
 O42 O 0.20574 0.15465 0.25075
 O43 O 0.18539 0.18781 0.21255
 C44 C 0.30453 0.19160 0.19157
 H45 H 0.24352 0.18301 0.28522
 H46 H 0.18844 0.25406 0.21264
 H47 H 0.31996 0.24677 0.21913
 H48 H 0.25342 0.31445 0.28738
 H49 H 0.13714 0.19987 0.25035
 H50 H 0.14865 0.31996 0.24567
 H51 H 0.19524 0.36076 0.25080
 H52 H 0.31632 0.35573 0.25089
 H53 H 0.18221 0.14607 0.25426
 H54 H 0.30575 0.13994 0.25439
 H55 H 0.35261 0.18044 0.25314
 H56 H 0.36341 0.30405 0.25009
 H57 H 0.16470 0.17371 0.21597
 H58 H 0.23882 0.23695 0.15571
 H59 H 0.26124 0.26598 0.34608
 H60 H 0.33630 0.32637 0.28685
 Zr61 Zr 0.75287 0.75024 0.29612
 O62 O 0.72602 0.72239 0.32595
 O63 O 0.78656 0.77953 0.31923
 O64 O 0.78603 0.71725 0.31715
 O65 O 0.69014 0.81205 0.28799
 O66 O 0.81409 0.68771 0.28449
 O67 O 0.72082 0.78219 0.31912
 O68 O 0.81910 0.80731 0.28810
 O69 O 0.79799 0.74907 0.27341
 O70 O 0.75399 0.79601 0.27434
 O71 O 0.74933 0.70576 0.27269
 O72 O 0.70671 0.75095 0.27411
 Zr73 Zr 0.75028 0.75173 0.20313
 Zr74 Zr 0.79326 0.70636 0.24849
 Zr75 Zr 0.70984 0.79569 0.25080
 Zr76 Zr 0.79778 0.79389 0.25069
 O77 O 0.65558 0.79341 0.25015
 O78 O 0.85121 0.78374 0.24888
 O79 O 0.75378 0.79667 0.22639
 O80 O 0.79597 0.75118 0.22545
 O81 O 0.74917 0.70578 0.22475
 O82 O 0.70544 0.75286 0.22612
 C83 C 0.81129 0.79954 0.31244
 C84 C 0.69778 0.80428 0.31237
 C85 C 0.80806 0.69488 0.30917
 O86 O 0.84740 0.70872 0.24563
 O87 O 0.80863 0.68581 0.21145
 O88 O 0.78010 0.71745 0.18019
 C89 C 0.80102 0.69338 0.18706
 O90 O 0.68163 0.68993 0.28430
 Zr91 Zr 0.70542 0.70811 0.24870
 O92 O 0.71800 0.72073 0.18011
 O93 O 0.78713 0.65250 0.25005
 O94 O 0.71150 0.65409 0.24946
 O95 O 0.65165 0.71607 0.24624
 O96 O 0.68949 0.68892 0.21132
 C97 C 0.69704 0.69681 0.18698
 O98 O 0.77845 0.77812 0.17324
 O99 O 0.71595 0.84952 0.25270
 O100 O 0.71930 0.78685 0.18200
 O101 O 0.69324 0.81815 0.21470
 O102 O 0.79376 0.84790 0.25420
 O103 O 0.81655 0.81779 0.21532
 C104 C 0.69916 0.81098 0.18998
 H105 H 0.75456 0.81660 0.28586
 H106 H 0.81631 0.75115 0.21356
 H107 H 0.68435 0.75412 0.21513
 H108 H 0.74840 0.68496 0.28406
 H109 H 0.86332 0.80503 0.25411
 H110 H 0.85584 0.68476 0.24601
 H111 H 0.81042 0.64241 0.24878
 H112 H 0.68910 0.64381 0.24461
 H113 H 0.81691 0.85675 0.25866
 H114 H 0.69258 0.85947 0.25372
 H115 H 0.64724 0.81741 0.25015
 H116 H 0.64103 0.69379 0.24157
 H117 H 0.83660 0.83228 0.21977
 H118 H 0.76947 0.77054 0.15565
 H119 H 0.73502 0.72990 0.34355
 H120 H 0.66510 0.67155 0.27981
 Zr121 Zr 0.75318 0.25046 -0.29579
 O122 O 0.72647 0.27832 -0.32566
 O123 O 0.78673 0.22085 -0.31888
 O124 O 0.78647 0.28325 -0.31691
 O125 O 0.69016 0.18899 -0.28743
 O126 O 0.81461 0.31282 -0.28436
 O127 O 0.72098 0.21856 -0.31868
 O128 O 0.81908 0.19300 -0.28769
 O129 O 0.79831 0.25157 -0.27314
 O130 O 0.75412 0.20480 -0.27390
 O131 O 0.74980 0.29505 -0.27242
 O132 O 0.70702 0.25010 -0.27370
 Zr133 Zr 0.75060 0.24938 -0.20275
 Zr134 Zr 0.79373 0.29439 -0.24829
 Zr135 Zr 0.70998 0.20543 -0.25032
 Zr136 Zr 0.79792 0.20684 -0.25030
 O137 O 0.65573 0.20796 -0.24956
 O138 O 0.85138 0.21685 -0.24870
 O139 O 0.75390 0.20436 -0.22595
 O140 O 0.79628 0.24965 -0.22514
 O141 O 0.74966 0.29527 -0.22446
 O142 O 0.70575 0.24834 -0.22569
 C143 C 0.81130 0.20064 -0.31205
 C144 C 0.69784 0.19660 -0.31185
 C145 C 0.80856 0.30558 -0.30901
 O146 O 0.84787 0.29182 -0.24550
 O147 O 0.80921 0.31504 -0.21133
 O148 O 0.78053 0.28370 -0.17994
 C149 C 0.80156 0.30764 -0.18691
 O150 O 0.68221 0.31135 -0.28390
 Zr151 Zr 0.70590 0.29302 -0.24833
 O152 O 0.71832 0.28046 -0.17972
 O153 O 0.78783 0.34827 -0.24999
 O154 O 0.71230 0.34700 -0.24911
 O155 O 0.65210 0.28524 -0.24589
 O156 O 0.68991 0.31228 -0.21093
 C157 C 0.69736 0.30436 -0.18658
 O158 O 0.77872 0.22305 -0.17283
 O159 O 0.71582 0.15156 -0.25213
 O160 O 0.71956 0.21436 -0.18154
 O161 O 0.69339 0.18310 -0.21418
 O162 O 0.79364 0.15282 -0.25354
 O163 O 0.81668 0.18307 -0.21490
 C164 C 0.69937 0.19027 -0.18948
 H165 H 0.75458 0.18414 -0.28535
 H166 H 0.81663 0.24966 -0.21328
 H167 H 0.68465 0.24717 -0.21467
 H168 H 0.74896 0.31581 -0.28384
 H169 H 0.86341 0.19549 -0.25388
 H170 H 0.85640 0.31574 -0.24596
 H171 H 0.81116 0.35827 -0.24876
 H172 H 0.68997 0.35741 -0.24421
 H173 H 0.81673 0.14382 -0.25801
 H174 H 0.69240 0.14171 -0.25309
 H175 H 0.64727 0.18400 -0.24948
 H176 H 0.64154 0.30754 -0.24120
 H177 H 0.83673 0.16856 -0.21934
 H178 H 0.76974 0.23072 -0.15526
 H179 H 0.73544 0.27069 -0.34325
 H180 H 0.66579 0.32982 -0.27938
 Zr181 Zr 0.24604 0.75229 -0.29778
 O182 O 0.27121 0.72637 -0.32938
 O183 O 0.21106 0.78273 -0.31891
 O184 O 0.21210 0.71987 -0.31858
 O185 O 0.30886 0.81393 -0.28981
 O186 O 0.18659 0.68801 -0.28584
 O187 O 0.27708 0.78546 -0.32079
 O188 O 0.18015 0.80869 -0.28613
 O189 O 0.20221 0.74924 -0.27367
 O190 O 0.24566 0.79685 -0.27472
 O191 O 0.25143 0.70666 -0.27573
 O192 O 0.29331 0.75246 -0.27724
 Zr193 Zr 0.25392 0.74856 -0.20483
 Zr194 Zr 0.20893 0.70533 -0.25005
 Zr195 Zr 0.29093 0.79582 -0.25253
 Zr196 Zr 0.20320 0.79284 -0.24976
 O197 O 0.34523 0.79452 -0.25339
 O198 O 0.15005 0.78167 -0.24696
 O199 O 0.24839 0.79468 -0.22671
 O200 O 0.20708 0.74887 -0.22574
 O201 O 0.25435 0.70381 -0.22777
 O202 O 0.29730 0.75175 -0.22935
 C203 C 0.18669 0.80256 -0.31101
 C204 C 0.30049 0.80731 -0.31425
 C205 C 0.19106 0.69654 -0.31050
 O206 O 0.15492 0.70684 -0.24566
 O207 O 0.19512 0.68307 -0.21311
 O208 O 0.22530 0.71290 -0.18199
 C209 C 0.20364 0.68936 -0.18867
 O210 O 0.31797 0.69167 -0.29012
 Zr211 Zr 0.29660 0.70829 -0.25323
 O212 O 0.28871 0.71712 -0.18401
 O213 O 0.21570 0.65166 -0.25300
 O214 O 0.29092 0.65426 -0.25448
 O215 O 0.35031 0.71721 -0.25339
 O216 O 0.31639 0.68836 -0.21725
 C217 C 0.31058 0.69487 -0.19244
 O218 O 0.22728 0.77255 -0.17302
 O219 O 0.28392 0.84960 -0.25296
 O220 O 0.28520 0.78337 -0.18377
 O221 O 0.30889 0.81689 -0.21636
 O222 O 0.20679 0.84705 -0.25134
 O223 O 0.18544 0.81434 -0.21326
 C224 C 0.30431 0.80842 -0.19167
 H225 H 0.24438 0.81803 -0.28562
 H226 H 0.18736 0.74800 -0.21325
 H227 H 0.31903 0.75295 -0.21914
 H228 H 0.25197 0.68646 -0.28767
 H229 H 0.13739 0.80301 -0.25128
 H230 H 0.14673 0.68281 -0.24646
 H231 H 0.19262 0.64119 -0.25128
 H232 H 0.31374 0.64403 -0.25085
 H233 H 0.18346 0.85604 -0.25503
 H234 H 0.30707 0.85996 -0.25453
 H235 H 0.35317 0.81864 -0.25303
 H236 H 0.36177 0.69496 -0.24991
 H237 H 0.16503 0.82877 -0.21680
 H238 H 0.23752 0.76411 -0.15606
 H239 H 0.26118 0.73487 -0.34640
 H240 H 0.33462 0.67299 -0.28673
 Zr241 Zr 1.25041 1.24744 0.79585
 O242 O 1.22288 1.21983 0.82543
 O243 O 1.28454 1.27599 0.81926
 O244 O 1.28291 1.21352 0.81664
 O245 O 1.18967 1.31124 0.78811
 O246 O 1.30983 1.18334 0.78378
 O247 O 1.21920 1.27990 0.81904
 O248 O 1.31768 1.30356 0.78838
 O249 O 1.29548 1.24511 0.77317
 O250 O 1.25290 1.29338 0.77437
 O251 O 1.24537 1.20336 0.77208
 O252 O 1.20432 1.24976 0.77376
 Zr253 Zr 1.24780 1.25001 0.70280
 Zr254 Zr 1.28930 1.20285 0.74792
 Zr255 Zr 1.20883 1.29470 0.75081
 Zr256 Zr 1.29666 1.29019 0.75077
 O257 O 1.15452 1.29420 0.75027
 O258 O 1.34969 1.27803 0.74958
 O259 O 1.25278 1.29455 0.72642
 O260 O 1.29342 1.24783 0.72520
 O261 O 1.24523 1.20379 0.72402
 O262 O 1.20308 1.25235 0.72587
 C263 C 1.30942 1.29599 0.81270
 C264 C 1.19698 1.30287 0.81243
 C265 C 1.30432 1.19064 0.80852
 O266 O 1.34348 1.20346 0.74485
 O267 O 1.30397 1.18218 0.71080
 O268 O 1.27641 1.21490 0.67968
 C269 C 1.29662 1.19018 0.68645
 O270 O 1.17771 1.18831 0.78330
 Zr271 Zr 1.20159 1.20728 0.74799
 O272 O 1.21376 1.22120 0.67945
 O273 O 1.28153 1.14919 0.74936
 O274 O 1.20655 1.15317 0.74724
 O275 O 1.14806 1.21709 0.74670
 O276 O 1.18357 1.19047 0.71035
 C277 C 1.19099 1.19884 0.68605
 O278 O 1.27704 1.27562 0.67312
 O279 O 1.21668 1.34829 0.75297
 O280 O 1.21818 1.28650 0.68196
 O281 O 1.19280 1.31801 0.71486
 O282 O 1.29414 1.34432 0.75394
 O283 O 1.31689 1.31342 0.71562
 C284 C 1.19859 1.31098 0.69009
 H285 H 1.25399 1.31389 0.78595
 H286 H 1.31377 1.24726 0.71333
 H287 H 1.18195 1.25460 0.71502
 H288 H 1.24386 1.18247 0.78332
 H289 H 1.36248 1.29883 0.75502
 H290 H 1.35116 1.17924 0.74520
 H291 H 1.30448 1.13839 0.74788
 H292 H 1.18392 1.14360 0.74216
 H293 H 1.31745 1.35257 0.75856
 H294 H 1.19365 1.35896 0.75416
 H295 H 1.14695 1.31845 0.75037
 H296 H 1.13652 1.19537 0.74176
 H297 H 1.33752 1.32696 0.72028
 H298 H 1.26775 1.26864 0.65548
 H299 H 1.23204 1.22690 0.84310
 H300 H 1.16121 1.17002 0.77852
 Zr301 Zr 0.74351 0.74614 0.79713
 O302 O 0.77028 0.77269 0.82757
 O303 O 0.70831 0.71727 0.81968
 O304 O 0.71090 0.78001 0.81784
 O305 O 0.80470 0.68277 0.78931
 O306 O 0.68496 0.81113 0.78491
 O307 O 0.77448 0.71316 0.82029
 O308 O 0.67580 0.69095 0.78793
 O309 O 0.69907 0.74928 0.77380
 O310 O 0.74147 0.70078 0.77509
 O311 O 0.74937 0.79080 0.77389
 O312 O 0.79010 0.74430 0.77556
 Zr313 Zr 0.74858 0.74610 0.70402
 Zr314 Zr 0.70606 0.79217 0.74912
 Zr315 Zr 0.78611 0.69999 0.75202
 Zr316 Zr 0.69835 0.70479 0.75087
 O317 O 0.84043 0.70017 0.75205
 O318 O 0.64538 0.71700 0.74866
 O319 O 0.74279 0.70095 0.72704
 O320 O 0.70241 0.74781 0.72583
 O321 O 0.75071 0.79172 0.72582
 O322 O 0.79270 0.74299 0.72765
 C323 C 0.68323 0.69792 0.81247
 C324 C 0.79710 0.69063 0.81363
 C325 C 0.68998 0.80336 0.80965
 O326 O 0.65195 0.79173 0.74547
 O327 O 0.69227 0.81377 0.71201
 O328 O 0.72061 0.78181 0.68094
 C329 C 0.70025 0.80637 0.68768
 O330 O 0.81690 0.80518 0.78621
 Zr331 Zr 0.79373 0.78745 0.75034
 O332 O 0.78314 0.77570 0.68149
 O333 O 0.71397 0.84577 0.75110
 O334 O 0.78901 0.84159 0.75040
 O335 O 0.84723 0.77739 0.74953
 O336 O 0.81254 0.80557 0.71317
 C337 C 0.80563 0.79802 0.68865
 O338 O 0.72008 0.72134 0.67363
 O339 O 0.77791 0.64641 0.75363
 O340 O 0.77868 0.71013 0.68315
 O341 O 0.80292 0.67750 0.71601
 O342 O 0.70071 0.65060 0.75380
 O343 O 0.67922 0.68235 0.71517
 C344 C 0.79788 0.68527 0.69124
 H345 H 0.74002 0.68004 0.78650
 H346 H 0.68237 0.74875 0.71369
 H347 H 0.81407 0.74101 0.71704
 H348 H 0.75071 0.81141 0.78536
 H349 H 0.63237 0.69609 0.75360
 H350 H 0.64432 0.81595 0.74591
 H351 H 0.69110 0.85668 0.74941
 H352 H 0.81180 0.85124 0.74579
 H353 H 0.67725 0.64232 0.75797
 H354 H 0.80086 0.63560 0.75499
 H355 H 0.84787 0.67588 0.75198
 H356 H 0.85897 0.79918 0.74497
 H357 H 0.65865 0.66842 0.71938
 H358 H 0.72983 0.72878 0.65620
 H359 H 0.76059 0.76511 0.84498
 H360 H 0.83371 0.82342 0.78189
 Zr361 Zr 1.25277 0.75149 0.20434
 O362 O 1.22552 0.77907 0.17461
 O363 O 1.28712 0.72289 0.18105
 O364 O 1.28539 0.78537 0.18363
 O365 O 1.19170 0.68795 0.21194
 O366 O 1.31217 0.81555 0.21653
 O367 O 1.22157 0.71912 0.18108
 O368 O 1.31999 0.69534 0.21206
 O369 O 1.29768 0.75376 0.22715
 O370 O 1.25499 0.70557 0.22584
 O371 O 1.24767 0.79562 0.22806
 O372 O 1.20652 0.74935 0.22629
 Zr373 Zr 1.24949 0.74914 0.29739
 Zr374 Zr 1.29143 0.79608 0.25235
 Zr375 Zr 1.21075 0.70444 0.24929
 Zr376 Zr 1.29858 0.70871 0.24958
 O377 O 1.15643 0.70504 0.24971
 O378 O 1.35164 0.72068 0.25103
 O379 O 1.25452 0.70454 0.27382
 O380 O 1.29527 0.75112 0.27511
 O381 O 1.24720 0.79532 0.27612
 O382 O 1.20493 0.74685 0.27418
 C383 C 1.31200 0.70294 0.18770
 C384 C 1.19916 0.69630 0.18764
 C385 C 1.30673 0.80825 0.19179
 O386 O 1.34559 0.79530 0.25551
 O387 O 1.30598 0.81675 0.28950
 O388 O 1.27805 0.78420 0.32056
 C389 C 1.29841 0.80882 0.31383
 O390 O 1.18013 0.81085 0.21662
 Zr391 Zr 1.20371 0.79189 0.25203
 O392 O 1.21537 0.77813 0.32062
 O393 O 1.28382 0.84976 0.25088
 O394 O 1.20881 0.84599 0.25269
 O395 O 1.15015 0.78219 0.25317
 O396 O 1.18548 0.80887 0.28959
 C397 C 1.19271 0.80056 0.31393
 O398 O 1.27843 0.72349 0.32719
 O399 O 1.21850 0.65083 0.24718
 O400 O 1.21961 0.71278 0.31816
 O401 O 1.19442 0.68124 0.28522
 O402 O 1.29591 0.65458 0.24637
 O403 O 1.31841 0.68541 0.28482
 C404 C 1.20003 0.68834 0.31000
 H405 H 1.25611 0.68506 0.21426
 H406 H 1.31553 0.75165 0.28705
 H407 H 1.18372 0.74469 0.28498
 H408 H 1.24628 0.81650 0.21680
 H409 H 1.36442 0.69983 0.24567
 H410 H 1.35335 0.81949 0.25517
 H411 H 1.30679 0.86049 0.25242
 H412 H 1.18616 0.85563 0.25769
 H413 H 1.31923 0.64627 0.24182
 H414 H 1.19545 0.64021 0.24593
 H415 H 1.14882 0.68080 0.24961
 H416 H 1.13862 0.80394 0.25807
 H417 H 1.33900 0.67173 0.28024
 H418 H 1.26903 0.73053 0.34479
 H419 H 1.23481 0.77196 0.15699
 H420 H 1.16359 0.82915 0.22133
 Zr421 Zr 0.74531 1.25258 0.20250
 O422 O 0.77202 1.22553 0.17228
 O423 O 0.71081 1.28194 0.17971
 O424 O 0.71233 1.21915 0.18172
 O425 O 0.80729 1.31517 0.21051
 O426 O 0.68564 1.18855 0.21462
 O427 O 0.77692 1.28516 0.17942
 O428 O 0.67843 1.30890 0.21125
 O429 O 0.70059 1.25017 0.22564
 O430 O 0.74373 1.29802 0.22447
 O431 O 0.75025 1.20792 0.22589
 O432 O 0.79171 1.25379 0.22429
 Zr433 Zr 0.74949 1.25282 0.29569
 Zr434 Zr 0.70669 1.20727 0.25047
 Zr435 Zr 0.78814 1.29821 0.24775
 Zr436 Zr 0.70031 1.29473 0.24848
 O437 O 0.84246 1.29715 0.24793
 O438 O 0.64716 1.28324 0.25037
 O439 O 0.74458 1.29796 0.27253
 O440 O 0.70351 1.25176 0.27365
 O441 O 0.75113 1.20710 0.27397
 O442 O 0.79386 1.25521 0.27224
 C443 C 0.68601 1.30177 0.18676
 C444 C 0.79974 1.30745 0.18615
 C445 C 0.69097 1.19616 0.18987
 O446 O 0.65256 1.20853 0.25387
 O447 O 0.69214 1.18600 0.28758
 O448 O 0.72073 1.21757 0.31871
 C449 C 0.70001 1.19333 0.31193
 O450 O 0.81765 1.19242 0.21391
 Zr451 Zr 0.79444 1.21067 0.24964
 O452 O 0.78343 1.22277 0.31843
 O453 O 0.71383 1.15356 0.24863
 O454 O 0.78889 1.15660 0.24967
 O455 O 0.84807 1.21995 0.25064
 O456 O 0.81267 1.19239 0.28692
 C457 C 0.80568 1.20011 0.31140
 O458 O 0.72108 1.27807 0.32592
 O459 O 0.78080 1.35191 0.24604
 O460 O 0.77989 1.28848 0.31663
 O461 O 0.80491 1.32061 0.28378
 O462 O 0.70353 1.34888 0.24556
 O463 O 0.68107 1.31755 0.28402
 C464 C 0.79949 1.31305 0.30855
 H465 H 0.74270 1.31876 0.21304
 H466 H 0.68333 1.25116 0.28571
 H467 H 0.81516 1.25692 0.28294
 H468 H 0.75139 1.18726 0.21447
 H469 H 0.63450 1.30431 0.24530
 H470 H 0.64457 1.18443 0.25341
 H471 H 0.69079 1.14299 0.25022
 H472 H 0.81148 1.14662 0.25440
 H473 H 0.68026 1.35752 0.24121
 H474 H 0.80393 1.36237 0.24475
 H475 H 0.85028 1.32132 0.24802
 H476 H 0.85945 1.19802 0.25530
 H477 H 0.66070 1.33169 0.27967
 H478 H 0.73056 1.27053 0.34340
 H479 H 0.76262 1.23319 0.15481
 H480 H 0.83418 1.17397 0.21835
 O481 O 0.45919 1.06522 0.01846
 O482 O 0.53912 0.93475 0.01829
 O483 O 0.43401 0.96010 0.01825
 O484 O 0.56440 1.03982 0.01838
 O485 O 0.48146 0.94120 0.03305
 O486 O 0.51694 1.05870 0.03318
 O487 O 0.55784 0.98215 0.03310
 O488 O 0.44018 1.01771 0.03314
 C489 C 0.44378 1.04881 0.03621
 C490 C 0.55454 0.95100 0.03602
 C491 C 0.45038 0.94509 0.03616
 C492 C 0.54809 1.05513 0.03615
 O493 O 0.53865 1.06567 -0.01853
 O494 O 0.45971 0.93459 -0.01868
 O495 O 0.43368 1.03953 -0.01848
 O496 O 0.56469 0.96076 -0.01861
 O497 O 0.51736 0.94169 -0.03343
 O498 O 0.48099 1.05893 -0.03328
 O499 O 0.55784 1.01839 -0.03329
 O500 O 0.44044 0.98195 -0.03340
 Co501 Co 0.49896 1.05604 -0.00005
 Co502 Co 0.49938 0.94415 -0.00018
 Co503 Co 0.44312 0.99984 -0.00013
 Co504 Co 0.55510 1.00025 -0.00010
 O505 O 0.49913 1.00008 -0.00012
 C506 C 0.55431 1.04951 -0.03620
 C507 C 0.44417 0.95086 -0.03642
 C508 C 0.44992 1.05481 -0.03635
 C509 C 0.54848 0.94544 -0.03641
 O510 O 0.95958 0.56477 0.51939
 O511 O 1.03878 0.43487 0.51851
 O512 O 0.93375 0.45963 0.51737
 O513 O 1.06472 0.53998 0.51813
 O514 O 0.98102 0.44092 0.53247
 O515 O 1.01737 0.55822 0.53343
 O516 O 1.05785 0.48230 0.53321
 O517 O 0.94011 0.51694 0.53326
 C518 C 0.94378 0.54795 0.53674
 C519 C 1.05425 0.45119 0.53622
 C520 C 0.94989 0.44444 0.53528
 C521 C 1.04857 0.55503 0.53609
 O522 O 1.03846 0.56552 0.48133
 O523 O 0.96013 0.43510 0.48028
 O524 O 0.93355 0.54007 0.48220
 O525 O 1.06504 0.46058 0.48181
 O526 O 1.01790 0.44215 0.46637
 O527 O 0.98078 0.55919 0.46724
 O528 O 1.05800 0.51819 0.46676
 O529 O 0.94049 0.48278 0.46630
 Co530 Co 0.99907 0.55592 0.50031
 Co531 Co 0.99943 0.44427 0.49945
 Co532 Co 0.94310 0.49987 0.49979
 Co533 Co 1.05524 0.50024 0.49997
 O534 O 0.99920 0.50008 0.49988
 C535 C 1.05418 0.54927 0.46370
 C536 C 0.94431 0.45176 0.46288
 C537 C 0.94968 0.55548 0.46437
 C538 C 1.04907 0.44561 0.46375
 O539 O 1.04589 0.48501 0.04578
 O540 O 1.04576 0.51779 -0.04642
 O541 O 1.04480 0.44252 -0.01522
 O542 O 1.04480 0.56002 0.01474
 O543 O 1.02384 0.46039 -0.05164
 O544 O 1.02378 0.54223 0.05117
 O545 O 1.02867 0.56572 -0.03072
 O546 O 1.02888 0.43699 0.03025
 C547 C 1.05055 0.45391 0.04311
 C548 C 1.05025 0.54895 -0.04384
 C549 C 1.04702 0.44485 -0.03970
 C550 C 1.04705 0.55765 0.03922
 O551 O 0.95938 0.51817 0.04561
 O552 O 0.95938 0.48416 -0.04606
 O553 O 0.96057 0.44271 0.01558
 O554 O 0.96046 0.55981 -0.01578
 O555 O 0.98124 0.54154 -0.05205
 O556 O 0.98149 0.46093 0.05178
 O557 O 0.97653 0.56596 0.02945
 O558 O 0.97660 0.43648 -0.02975
 Co559 Co 1.00263 0.50155 0.04358
 Co560 Co 1.00257 0.50101 -0.04405
 Co561 Co 1.00271 0.44560 0.00019
 Co562 Co 1.00264 0.55696 -0.00055
 O563 O 1.00265 0.50128 -0.00022
 C564 C 0.95483 0.54927 0.04256
 C565 C 0.95492 0.45305 -0.04295
 C566 C 0.95823 0.44536 0.04002
 C567 C 0.95789 0.55687 -0.04017
 O568 O 0.54396 0.98328 0.54643
 O569 O 0.54381 1.01665 0.45448
 O570 O 0.54253 0.94134 0.48473
 O571 O 0.54267 1.05829 0.51636
 O572 O 0.52119 0.95947 0.44859
 O573 O 0.52128 1.04034 0.55256
 O574 O 0.52715 1.06441 0.47093
 O575 O 0.52722 0.93546 0.53018
 C576 C 0.54882 0.95227 0.54321
 C577 C 0.54857 1.04770 0.45760
 C578 C 0.54448 0.94378 0.46024
 C579 C 0.54458 1.05602 0.54086
 O580 O 0.45726 1.01582 0.54660
 O581 O 0.45716 0.98383 0.45456
 O582 O 0.45858 0.94122 0.51613
 O583 O 0.45862 1.05862 0.48529
 O584 O 0.47976 1.04111 0.44897
 O585 O 0.47997 0.95863 0.55235
 O586 O 0.47407 1.06387 0.53060
 O587 O 0.47395 0.93583 0.47069
 Co588 Co 0.50062 0.99955 0.54443
 Co589 Co 0.50050 1.00023 0.45668
 Co590 Co 0.50058 0.94430 0.50046
 Co591 Co 0.50065 1.05546 0.50077
 O592 O 0.50060 0.99988 0.50058
 C593 C 0.45237 1.04686 0.54348
 C594 C 0.45235 0.95276 0.45767
 C595 C 0.45650 0.94341 0.54060
 C596 C 0.45632 1.05624 0.46085
 O597 O 1.06137 1.02569 0.46985
 O598 O 0.93353 1.02712 0.52922
 O599 O 0.95617 1.01754 0.44788
 O600 O 1.03867 1.02120 0.55150
 O601 O 0.93890 1.04045 0.48351
 O602 O 1.05617 1.04172 0.51493
 O603 O 0.98161 1.04406 0.54515
 O604 O 1.01308 1.04116 0.45326
 C605 C 1.04408 1.04646 0.45624
 C606 C 0.95063 1.04898 0.54175
 C607 C 0.94103 1.04152 0.45899
 C608 C 1.05384 1.04438 0.53934
 O609 O 1.06176 0.97333 0.53020
 O610 O 0.93364 0.97111 0.47138
 O611 O 1.03859 0.97774 0.44861
 O612 O 0.95655 0.98076 0.55261
 O613 O 0.93915 0.95788 0.51702
 O614 O 1.05627 0.95719 0.48508
 O615 O 1.01371 0.95759 0.54716
 O616 O 0.98182 0.95445 0.45540
 Co617 Co 1.05315 0.99945 0.50003
 Co618 Co 0.94202 0.99916 0.50027
 Co619 Co 0.99741 0.99787 0.45635
 Co620 Co 0.99761 1.00075 0.54406
 O621 O 0.99754 0.99931 0.50018
 C622 C 1.04476 0.95258 0.54408
 C623 C 0.95089 0.94930 0.45891
 C624 C 1.05401 0.95464 0.46066
 C625 C 0.94150 0.95674 0.54152
 O626 O 0.54921 0.54501 -0.01433
 O627 O 0.43369 0.53132 0.02666
 O628 O 0.46788 0.51095 -0.05496
 O629 O 0.54180 0.54226 0.03425
 O630 O 0.43564 0.53464 -0.02386
 O631 O 0.58674 0.51531 0.01981
 O632 O 0.48210 0.55433 0.03596
 O633 O 0.52977 0.52159 -0.05083
 C634 C 0.54396 0.54652 -0.03905
 C635 C 0.45044 0.55539 0.03651
 C636 C 0.44572 0.53280 -0.04761
 C637 C 0.57341 0.53586 0.03716
 O638 O 0.55361 0.45952 0.01503
 O639 O 0.43124 0.46896 -0.02632
 O640 O 0.53670 0.45391 -0.03373
 O641 O 0.46838 0.48984 0.05448
 O642 O 0.43706 0.46481 0.02373
 O643 O 0.57634 0.48840 -0.02669
 O644 O 0.52954 0.47685 0.05101
 O645 O 0.47857 0.44535 -0.03717
 Co646 Co 0.54926 0.50247 0.00118
 Co647 Co 0.44051 0.49982 0.00006
 Co648 Co 0.50301 0.48432 -0.04087
 Co649 Co 0.50484 0.51429 0.04015
 O650 O 0.49721 0.49908 -0.00092
 C651 C 0.54725 0.45502 0.03910
 C652 C 0.44701 0.44496 -0.03698
 C653 C 0.56686 0.46199 -0.03793
 C654 C 0.44712 0.46711 0.04738
 C655 C 0.33847 1.16134 0.12440
 C656 C 0.35924 1.13374 0.13205
 C657 C 0.36177 1.12473 0.15909
 C658 C 0.34377 1.14334 0.17843
 C659 C 0.32294 1.17130 0.17098
 C660 C 0.32043 1.18000 0.14368
 C661 C 0.37806 1.11484 0.11215
 C662 C 0.39371 1.09923 0.09529
 C663 C 0.41172 1.08127 0.07520
 C664 C 0.42668 1.06624 0.05766
 H665 H 0.33631 1.16854 0.10351
 H666 H 0.37776 1.10340 0.16524
 H667 H 0.34635 1.13589 0.19922
 H668 H 0.30471 1.20135 0.13720
 C669 C 0.85702 0.61986 0.65909
 C670 C 0.85436 0.62871 0.63203
 C671 C 0.83243 0.65532 0.62421
 C672 C 0.81355 0.67332 0.64339
 C673 C 0.81637 0.66495 0.67073
 C674 C 0.83819 0.63781 0.67832
 C675 C 0.87442 0.61085 0.61229
 C676 C 0.89112 0.59616 0.59554
 C677 C 0.91028 0.57921 0.57558
 C678 C 0.92605 0.56488 0.55812
 H679 H 0.87390 0.59928 0.66536
 H680 H 0.83015 0.66237 0.60331
 H681 H 0.79711 0.69406 0.63679
 H682 H 0.84105 0.63066 0.69915
 C683 C 0.66570 0.84179 0.12278
 C684 C 0.64317 0.86785 0.13058
 C685 C 0.63962 0.87595 0.15768
 C686 C 0.65823 0.85782 0.17696
 C687 C 0.68069 0.83126 0.16939
 C688 C 0.68437 0.82360 0.14203
 C689 C 0.62341 0.88602 0.11081
 C690 C 0.60691 0.90110 0.09415
 C691 C 0.58791 0.91862 0.07438
 C692 C 0.57224 0.93347 0.05712
 H693 H 0.66865 0.83534 0.10183
 H694 H 0.62227 0.89611 0.16392
 H695 H 0.65472 0.86443 0.19781
 H696 H 0.70135 0.80331 0.13547
 C697 C 1.13987 0.37690 0.65806
 C698 C 1.14296 0.36859 0.63097
 C699 C 1.16512 0.34227 0.62307
 C700 C 1.18379 0.32395 0.64223
 C701 C 1.18049 0.33173 0.66960
 C702 C 1.15848 0.35863 0.67727
 C703 C 1.12305 0.38672 0.61128
 C704 C 1.10645 0.40167 0.59461
 C705 C 1.08740 0.41899 0.57477
 C706 C 1.07177 0.43371 0.55743
 H707 H 1.12281 0.39727 0.66437
 H708 H 1.16771 0.33567 0.60213
 H709 H 1.20039 0.30339 0.63560
 H710 H 1.15527 0.36532 0.69813
 C711 C 0.64003 1.12509 -0.15725
 C712 C 0.64333 1.13330 -0.13017
 C713 C 0.66563 1.15953 -0.12233
 C714 C 0.68433 1.17777 -0.14155
 C715 C 0.68089 1.16999 -0.16890
 C716 C 0.65866 1.14326 -0.17650
 C717 C 0.62352 1.11506 -0.11048
 C718 C 0.60694 1.09986 -0.09393
 C719 C 0.58784 1.08218 -0.07432
 C720 C 0.57207 1.06718 -0.05719
 H721 H 0.62286 1.10479 -0.16351
 H722 H 0.66836 1.16606 -0.10138
 H723 H 0.70113 1.19819 -0.13498
 H724 H 0.65536 1.13655 -0.19735
 C725 C 1.16588 0.65749 0.37695
 C726 C 1.14362 0.63129 0.36903
 C727 C 1.14069 0.62288 0.34195
 C728 C 1.15958 0.64095 0.32277
 C729 C 1.18168 0.66774 0.33045
 C730 C 1.18482 0.67561 0.35782
 C731 C 1.12345 0.61338 0.38869
 C732 C 1.10667 0.59860 0.40535
 C733 C 1.08747 0.58144 0.42518
 C734 C 1.07174 0.56678 0.44252
 H735 H 1.16835 0.66416 0.39789
 H736 H 1.12355 0.60259 0.33563
 H737 H 1.15649 0.63419 0.30191
 H738 H 1.20149 0.69610 0.36446
 C739 C 0.33816 0.83841 -0.12440
 C740 C 0.35936 0.86572 -0.13202
 C741 C 0.36224 0.87458 -0.15908
 C742 C 0.34415 0.85614 -0.17845
 C743 C 0.32286 0.82850 -0.17103
 C744 C 0.32003 0.81992 -0.14372
 C745 C 0.37825 0.88452 -0.11209
 C746 C 0.39395 0.90011 -0.09526
 C747 C 0.41204 0.91814 -0.07524
 C748 C 0.42704 0.93326 -0.05778
 H749 H 0.33572 0.83133 -0.10351
 H750 H 0.37856 0.89567 -0.16522
 H751 H 0.34701 0.86349 -0.19924
 H752 H 0.30396 0.79881 -0.13726
 C753 C 0.83359 0.34335 0.37562
 C754 C 0.85567 0.36984 0.36778
 C755 C 0.85866 0.37842 0.34068
 C756 C 0.83998 0.36036 0.32146
 C757 C 0.81797 0.33336 0.32907
 C758 C 0.81485 0.32523 0.35644
 C759 C 0.87553 0.38792 0.38753
 C760 C 0.89206 0.40284 0.40423
 C761 C 0.91106 0.42009 0.42413
 C762 C 0.92670 0.43465 0.44154
 H763 H 0.83105 0.33649 0.39655
 H764 H 0.87565 0.39891 0.33439
 H765 H 0.84307 0.36734 0.30061
 H766 H 0.79826 0.30460 0.36305
 C767 C 1.15109 0.37899 0.15333
 C768 C 1.15643 0.37109 0.12636
 C769 C 1.17918 0.34472 0.11950
 C770 C 1.19604 0.32599 0.13956
 C771 C 1.19022 0.33330 0.16678
 C772 C 1.16780 0.36034 0.17336
 C773 C 1.13706 0.38910 0.10611
 C774 C 1.11944 0.40424 0.09008
 C775 C 1.09716 0.42190 0.07242
 C776 C 1.07671 0.43673 0.05840
 H777 H 1.13349 0.39926 0.15892
 H778 H 1.18346 0.33827 0.09870
 H779 H 1.21311 0.30540 0.13374
 H780 H 1.16270 0.36683 0.19403
 C781 C 0.67456 0.83958 0.61887
 C782 C 0.65259 0.86659 0.62571
 C783 C 0.64703 0.87441 0.65265
 C784 C 0.66287 0.85510 0.67271
 C785 C 0.68460 0.82752 0.66616
 C786 C 0.69055 0.82019 0.63896
 C787 C 0.63414 0.88539 0.60544
 C788 C 0.61712 0.90120 0.58948
 C789 C 0.59531 0.91958 0.57199
 C790 C 0.57503 0.93487 0.55818
 H791 H 0.67894 0.83319 0.59807
 H792 H 0.62998 0.89516 0.65820
 H793 H 0.65773 0.86163 0.69337
 H794 H 0.70716 0.79921 0.63318
 C795 C 1.17886 0.65748 -0.12156
 C796 C 1.15450 0.63258 -0.12831
 C797 C 1.14757 0.62609 -0.15525
 C798 C 1.16431 0.64463 -0.17537
 C799 C 1.18854 0.67041 -0.16903
 C800 C 1.19581 0.67616 -0.14165
 C801 C 1.13539 0.61445 -0.10789
 C802 C 1.11805 0.59918 -0.09169
 C803 C 1.09614 0.58133 -0.07377
 C804 C 1.07604 0.56633 -0.05948
 H805 H 1.18446 0.66280 -0.10076
 H806 H 1.12875 0.60691 -0.16077
 H807 H 1.15772 0.63885 -0.19592
 H808 H 1.21423 0.69542 -0.13555
 C809 C 0.67391 1.16012 0.38075
 C810 C 0.65119 1.13373 0.37392
 C811 C 0.64511 1.12644 0.34695
 C812 C 0.66125 1.14557 0.32689
 C813 C 0.68382 1.17247 0.33345
 C814 C 0.69019 1.17934 0.36066
 C815 C 0.63274 1.11492 0.39426
 C816 C 0.61587 1.09907 0.41036
 C817 C 0.59436 1.08063 0.42812
 C818 C 0.57441 1.06525 0.44223
 H819 H 0.67874 1.16610 0.40156
 H820 H 0.62749 1.10618 0.34139
 H821 H 0.65573 1.13942 0.30623
 H822 H 0.70744 1.19977 0.36646
 C823 C 0.82784 0.66066 0.11841
 C824 C 0.85119 0.63483 0.12539
 C825 C 0.85753 0.62781 0.15239
 C826 C 0.84100 0.64664 0.17234
 C827 C 0.81777 0.67296 0.16563
 C828 C 0.81117 0.67958 0.13838
 C829 C 0.86991 0.61622 0.10517
 C830 C 0.88702 0.60050 0.08922
 C831 C 0.90877 0.58214 0.07168
 C832 C 0.92889 0.56681 0.05775
 H833 H 0.82279 0.66641 0.09756
 H834 H 0.87561 0.60798 0.15807
 H835 H 0.84672 0.64070 0.19303
 H836 H 0.79339 0.69955 0.13248
 C837 C 0.32481 1.15878 0.61780
 C838 C 0.34622 1.13133 0.62478
 C839 C 0.35056 1.12266 0.65173
 C840 C 0.33408 1.14152 0.67165
 C841 C 0.31289 1.16953 0.66498
 C842 C 0.30815 1.17773 0.63776
 C843 C 0.36535 1.11291 0.60474
 C844 C 0.38290 1.09732 0.58902
 C845 C 0.40523 1.07916 0.57185
 C846 C 0.42587 1.06404 0.55827
 H847 H 0.32137 1.16582 0.59699
 H848 H 0.36716 1.10157 0.65740
 H849 H 0.33829 1.13432 0.69233
 H850 H 0.29201 1.19905 0.63188
 C851 C 0.82837 0.34083 -0.11840
 C852 C 0.85176 0.36658 -0.12551
 C853 C 0.85819 0.37333 -0.15255
 C854 C 0.84167 0.35437 -0.17240
 C855 C 0.81836 0.32815 -0.16557
 C856 C 0.81171 0.32176 -0.13829
 C857 C 0.87042 0.38538 -0.10538
 C858 C 0.88745 0.40129 -0.08950
 C859 C 0.90908 0.41986 -0.07202
 C860 C 0.92909 0.43535 -0.05812
 H861 H 0.82325 0.33527 -0.09753
 H862 H 0.87630 0.39310 -0.15833
 H863 H 0.84744 0.36014 -0.19313
 H864 H 0.79387 0.30188 -0.13228
 C865 C 0.32582 0.84054 0.38258
 C866 C 0.34759 0.86775 0.37565
 C867 C 0.35247 0.87612 0.34870
 C868 C 0.33616 0.85722 0.32872
 C869 C 0.31460 0.82947 0.33535
 C870 C 0.30935 0.82154 0.36257
 C871 C 0.36642 0.88629 0.39580
 C872 C 0.38370 0.90197 0.41164
 C873 C 0.40572 0.92025 0.42898
 C874 C 0.42609 0.93546 0.44271
 H875 H 0.32194 0.83372 0.40339
 H876 H 0.36934 0.89703 0.34307
 H877 H 0.34079 0.86421 0.30805
 H878 H 0.29291 0.80043 0.36841
 C879 C 1.15059 1.17286 0.37784
 C880 C 1.12529 1.14934 0.37044
 C881 C 1.11907 1.14292 0.34334
 C882 C 1.13842 1.15961 0.32366
 C883 C 1.16438 1.18289 0.33089
 C884 C 1.16998 1.18958 0.35824
 C885 C 1.10695 1.13038 0.39061
 C886 C 1.09207 1.11338 0.40708
 C887 C 1.07507 1.09193 0.42556
 C888 C 1.06080 1.07207 0.44032
 H889 H 1.15570 1.17791 0.39877
 H890 H 1.09961 1.12462 0.33742
 H891 H 1.13338 1.15388 0.30285
 H892 H 1.18964 1.20743 0.36456
 C893 C 0.61463 0.64484 -0.15254
 C894 C 0.62205 0.65095 -0.12557
 C895 C 0.64897 0.67305 -0.11883
 C896 C 0.66862 0.68866 -0.13894
 C897 C 0.66170 0.68226 -0.16615
 C898 C 0.63423 0.66037 -0.17268
 C899 C 0.60333 0.63282 -0.10499
 C900 C 0.58822 0.61615 -0.08833
 C901 C 0.57138 0.59453 -0.06970
 C902 C 0.55806 0.57394 -0.05488
 H903 H 0.59400 0.62762 -0.15803
 H904 H 0.65512 0.67784 -0.09804
 H905 H 0.68947 0.70541 -0.13313
 H906 H 0.62807 0.65487 -0.19335
 C907 C 0.87770 1.14682 0.65199
 C908 C 0.86942 1.15320 0.62521
 C909 C 0.84271 1.17570 0.61884
 C910 C 0.82400 1.19151 0.63924
 C911 C 0.83176 1.18482 0.66629
 C912 C 0.85905 1.16252 0.67241
 C913 C 0.88718 1.13491 0.60453
 C914 C 0.90198 1.11794 0.58810
 C915 C 0.91915 1.09605 0.57021
 C916 C 0.93366 1.07552 0.55632
 H917 H 0.89824 1.12927 0.65710
 H918 H 0.83600 1.18063 0.59815
 H919 H 0.80323 1.20860 0.63380
 H920 H 0.86579 1.15686 0.69297
 C921 C 0.34302 0.67852 0.11819
 C922 C 0.36944 0.65547 0.12420
 C923 C 0.37769 0.64862 0.15095
 C924 C 0.35936 0.66437 0.17161
 C925 C 0.33239 0.68722 0.16582
 C926 C 0.32464 0.69434 0.13882
 C927 C 0.38711 0.63753 0.10311
 C928 C 0.40177 0.62124 0.08610
 C929 C 0.41885 0.60042 0.06720
 C930 C 0.43334 0.58092 0.05230
 H931 H 0.33631 0.68394 0.09758
 H932 H 0.39801 0.63071 0.15585
 H933 H 0.36608 0.65829 0.19210
 H934 H 0.30412 0.71182 0.13357
 C935 C 1.15394 0.82905 0.62291
 C936 C 1.12782 0.85163 0.63031
 C937 C 1.12089 0.85722 0.65741
 C938 C 1.14025 0.84062 0.67711
 C939 C 1.16717 0.81806 0.67003
 C940 C 1.17340 0.81237 0.64247
 C941 C 1.10916 0.87031 0.61016
 C942 C 1.09395 0.88697 0.59365
 C943 C 1.07653 0.90796 0.57507
 C944 C 1.06189 0.92740 0.56019
 H945 H 1.15958 0.82463 0.60197
 H946 H 1.10075 0.87479 0.66334
 H947 H 1.13420 0.84589 0.69785
 H948 H 1.19355 0.79526 0.63579
 C949 C 0.65314 0.32722 0.11778
 C950 C 0.62645 0.34974 0.12431
 C951 C 0.61878 0.35597 0.15123
 C952 C 0.63784 0.34013 0.17152
 C953 C 0.66505 0.31779 0.16521
 C954 C 0.67226 0.31131 0.13804
 C955 C 0.60812 0.36801 0.10359
 C956 C 0.59312 0.38479 0.08692
 C957 C 0.57612 0.40655 0.06848
 C958 C 0.56235 0.42731 0.05406
 H959 H 0.65949 0.32231 0.09703
 H960 H 0.59832 0.37348 0.15657
 H961 H 0.63147 0.34572 0.19214
 H962 H 0.69292 0.29424 0.13238
 C963 C 0.84321 0.82309 0.38161
 C964 C 0.87004 0.84550 0.37534
 C965 C 0.87823 0.85229 0.34860
 C966 C 0.85937 0.83708 0.32810
 C967 C 0.83195 0.81489 0.33413
 C968 C 0.82429 0.80778 0.36114
 C969 C 0.88787 0.86344 0.39612
 C970 C 0.90265 0.88022 0.41262
 C971 C 0.91973 0.90204 0.43056
 C972 C 0.93412 0.92262 0.44443
 H973 H 0.83656 0.81787 0.40228
 H974 H 0.89886 0.86981 0.34358
 H975 H 0.86604 0.84304 0.30757
 H976 H 0.80344 0.79074 0.36651
 C977 C 0.33899 0.32127 -0.11771
 C978 C 0.36539 0.34438 -0.12364
 C979 C 0.37420 0.35090 -0.15033
 C980 C 0.35640 0.33479 -0.17105
 C981 C 0.32941 0.31191 -0.16535
 C982 C 0.32114 0.30509 -0.13839
 C983 C 0.38255 0.36268 -0.10255
 C984 C 0.39697 0.37925 -0.08563
 C985 C 0.41405 0.40028 -0.06696
 C986 C 0.42892 0.41979 -0.05234
 H987 H 0.33189 0.31612 -0.09712
 H988 H 0.39454 0.36884 -0.15514
 H989 H 0.36350 0.34064 -0.19151
 H990 H 0.30057 0.28760 -0.13323
 C991 C 1.13809 0.36473 -0.15124
 C992 C 1.14584 0.35766 -0.12445
 C993 C 1.17018 0.33251 -0.11821
 C994 C 1.18675 0.31453 -0.13869
 C995 C 1.17913 0.32147 -0.16574
 C996 C 1.15458 0.34683 -0.17173
 C997 C 1.12807 0.37590 -0.10360
 C998 C 1.11197 0.39152 -0.08701
 C999 C 1.09142 0.41007 -0.06882
 C1000 C 1.07218 0.42601 -0.05462
 H1001 H 1.11920 0.38407 -0.15631
 H1002 H 1.17630 0.32675 -0.09754
 H1003 H 1.20556 0.29526 -0.13333
 H1004 H 1.14806 0.35292 -0.19226
 C1005 C 0.66976 0.83370 0.38155
 C1006 C 0.64455 0.85793 0.37515
 C1007 C 0.63666 0.86446 0.34830
 C1008 C 0.65383 0.84695 0.32793
 C1009 C 0.67926 0.82252 0.33409
 C1010 C 0.68702 0.81611 0.36119
 C1011 C 0.62618 0.87586 0.39590
 C1012 C 0.60971 0.89119 0.41247
 C1013 C 0.58890 0.90943 0.43072
 C1014 C 0.56958 0.92513 0.44506
 H1015 H 0.67604 0.82836 0.40226
 H1016 H 0.61713 0.88309 0.34309
 H1017 H 0.64717 0.85262 0.30736
 H1018 H 0.70646 0.79756 0.36670
 C1019 C 0.82711 0.66267 -0.11724
 C1020 C 0.85162 0.63780 -0.12373
 C1021 C 0.85793 0.62995 -0.15058
 C1022 C 0.84007 0.64696 -0.17088
 C1023 C 0.81554 0.67223 -0.16466
 C1024 C 0.80913 0.67976 -0.13755
 C1025 C 0.87126 0.62087 -0.10316
 C1026 C 0.88897 0.60640 -0.08688
 C1027 C 0.91127 0.58920 -0.06905
 C1028 C 0.93173 0.57443 -0.05507
 H1029 H 0.82208 0.66903 -0.09652
 H1030 H 0.87690 0.61081 -0.15586
 H1031 H 0.84569 0.64041 -0.19146
 H1032 H 0.79043 0.69901 -0.13200
 C1033 C 0.32697 1.16312 0.38326
 C1034 C 0.35192 1.13864 0.37689
 C1035 C 0.35928 1.13158 0.35007
 C1036 C 0.34206 1.14904 0.32967
 C1037 C 0.31712 1.17394 0.33578
 C1038 C 0.30963 1.18065 0.36286
 C1039 C 0.37098 1.12136 0.39760
 C1040 C 0.38827 1.10663 0.41401
 C1041 C 0.41017 1.08915 0.43195
 C1042 C 0.43038 1.07413 0.44598
 H1043 H 0.32114 1.16886 0.40397
 H1044 H 0.37862 1.11275 0.34490
 H1045 H 0.34850 1.14313 0.30911
 H1046 H 0.29058 1.19960 0.36831
 C1047 C 1.17183 0.66763 0.11817
 C1048 C 1.14727 0.64263 0.12432
 C1049 C 1.13966 0.63525 0.15109
 C1050 C 1.15644 0.65272 0.17165
 C1051 C 1.18116 0.67796 0.16575
 C1052 C 1.18870 0.68517 0.13872
 C1053 C 1.12913 0.62492 0.10339
 C1054 C 1.11274 0.60977 0.08671
 C1055 C 1.09190 0.59172 0.06841
 C1056 C 1.07243 0.57617 0.05415
 H1057 H 1.17786 0.67364 0.09752
 H1058 H 1.12061 0.61603 0.15610
 H1059 H 1.14999 0.64643 0.19216
 H1060 H 1.20761 0.70437 0.13341
 C1061 C 0.63646 1.13642 0.65252
 C1062 C 0.64443 1.14266 0.62563
 C1063 C 0.66977 1.16673 0.61911
 C1064 C 0.68707 1.18443 0.63938
 C1065 C 0.67923 1.17830 0.66652
 C1066 C 0.65368 1.15403 0.67279
 C1067 C 0.62607 1.12456 0.60497
 C1068 C 0.60963 1.10908 0.58847
 C1069 C 0.58887 1.09066 0.57029
 C1070 C 0.56961 1.07483 0.55600
 H1071 H 0.61685 1.11791 0.65783
 H1072 H 0.67612 1.17185 0.59837
 H1073 H 0.70662 1.20284 0.63377
 H1074 H 0.64694 1.14857 0.69340
 C1075 C 0.86110 0.36806 0.15065
 C1076 C 0.85425 0.36108 0.12374
 C1077 C 0.82940 0.33660 0.11712
 C1078 C 0.81156 0.31913 0.13734
 C1079 C 0.81840 0.32590 0.16451
 C1080 C 0.84336 0.35068 0.17086
 C1081 C 0.87350 0.37869 0.10322
 C1082 C 0.89080 0.39378 0.08695
 C1083 C 0.91257 0.41173 0.06910
 C1084 C 0.93256 0.42713 0.05505
 H1085 H 0.88032 0.38688 0.15605
 H1086 H 0.82393 0.33090 0.09635
 H1087 H 0.79250 0.30029 0.13169
 H1088 H 0.84934 0.35665 0.19149
 C1089 C 0.36044 0.86610 0.65159
 C1090 C 0.35264 0.85983 0.62476
 C1091 C 0.32703 0.83613 0.61832
 C1092 C 0.30939 0.81862 0.63863
 C1093 C 0.31714 0.82445 0.66592
 C1094 C 0.34298 0.84873 0.67195
 C1095 C 0.37176 0.87730 0.60410
 C1096 C 0.38901 0.89222 0.58771
 C1097 C 0.41077 0.90997 0.56973
 C1098 C 0.43079 0.92524 0.55563
 H1099 H 0.38028 0.88436 0.65683
 H1100 H 0.32082 0.83100 0.59759
 H1101 H 0.28982 0.80040 0.63276
 H1102 H 0.35006 0.85440 0.69242
 C1103 C 0.33992 1.16183 -0.12454
 C1104 C 0.36235 1.13571 -0.13234
 C1105 C 0.36572 1.12736 -0.15940
 C1106 C 0.34674 1.14514 -0.17865
 C1107 C 0.32411 1.17153 -0.17105
 C1108 C 0.32089 1.17965 -0.14374
 C1109 C 0.38194 1.11755 -0.11255
 C1110 C 0.39817 1.10256 -0.09571
 C1111 C 0.41678 1.08540 -0.07560
 C1112 C 0.43224 1.07116 -0.05796
 H1113 H 0.33718 1.16848 -0.10361
 H1114 H 0.38303 1.10716 -0.16562
 H1115 H 0.34987 1.13820 -0.19948
 H1116 H 0.30382 1.19986 -0.13718
 C1117 C 0.84213 0.66555 0.37642
 C1118 C 0.86472 0.63950 0.36875
 C1119 C 0.86902 0.63167 0.34169
 C1120 C 0.85068 0.64978 0.32228
 C1121 C 0.82774 0.67596 0.32974
 C1122 C 0.82373 0.68370 0.35705
 C1123 C 0.88340 0.62073 0.38868
 C1124 C 0.89893 0.60514 0.40555
 C1125 C 0.91689 0.58724 0.42558
 C1126 C 0.93202 0.57240 0.44307
 H1127 H 0.83870 0.67179 0.39736
 H1128 H 0.88649 0.61153 0.33559
 H1129 H 0.85440 0.64313 0.30145
 H1130 H 0.80638 0.70375 0.36350
 C1131 C 0.65597 1.16661 0.12294
 C1132 C 0.63379 1.14024 0.13087
 C1133 C 0.63015 1.13226 0.15801
 C1134 C 0.64867 1.15050 0.17720
 C1135 C 0.67118 1.17702 0.16947
 C1136 C 0.67456 1.18490 0.14209
 C1137 C 0.61485 1.12130 0.11114
 C1138 C 0.59911 1.10552 0.09450
 C1139 C 0.58093 1.08735 0.07471
 C1140 C 0.56570 1.07229 0.05739
 H1141 H 0.65894 1.17300 0.10195
 H1142 H 0.61304 1.11190 0.16435
 H1143 H 0.64541 1.14371 0.19807
 H1144 H 0.69155 1.20518 0.13543
 C1145 C 1.15513 0.66813 0.62262
 C1146 C 1.13345 0.64131 0.63046
 C1147 C 1.13018 0.63290 0.65754
 C1148 C 1.14869 0.65105 0.67676
 C1149 C 1.17082 0.67791 0.66911
 C1150 C 1.17371 0.68635 0.64180
 C1151 C 1.11481 0.62220 0.61071
 C1152 C 1.09932 0.60618 0.59409
 C1153 C 1.08138 0.58769 0.57438
 C1154 C 1.06626 0.57238 0.55716
 H1155 H 1.15779 0.67485 0.60167
 H1156 H 1.11345 0.61218 0.66380
 H1157 H 1.14582 0.64384 0.69758
 H1158 H 1.19041 0.70690 0.63521
 C1159 C 0.65516 0.83328 -0.12345
 C1160 C 0.63355 0.86009 -0.13136
 C1161 C 0.63019 0.86825 -0.15849
 C1162 C 0.64846 0.84974 -0.17768
 C1163 C 0.67040 0.82277 -0.16997
 C1164 C 0.67349 0.81471 -0.14260
 C1165 C 0.61487 0.87927 -0.11162
 C1166 C 0.59932 0.89517 -0.09493
 C1167 C 0.58131 0.91340 -0.07507
 C1168 C 0.56616 0.92843 -0.05769
 H1169 H 0.65789 0.82675 -0.10247
 H1170 H 0.61350 0.88896 -0.16481
 H1171 H 0.64544 0.85667 -0.19855
 H1172 H 0.69005 0.79409 -0.13595
 C1173 C 1.13182 0.36963 0.34185
 C1174 C 1.13446 0.36072 0.36888
 C1175 C 1.15554 0.33344 0.37669
 C1176 C 1.17414 0.31521 0.35752
 C1177 C 1.17187 0.32409 0.33026
 C1178 C 1.15037 0.35145 0.32265
 C1179 C 1.11572 0.37973 0.38864
 C1180 C 1.10016 0.39555 0.40535
 C1181 C 1.08215 0.41370 0.42520
 C1182 C 1.06693 0.42867 0.44255
 H1183 H 1.11555 0.39071 0.33563
 H1184 H 1.15769 0.32635 0.39760
 H1185 H 1.19035 0.29426 0.36409
 H1186 H 1.14799 0.35900 0.30186
 C1187 C 0.34205 0.83737 0.12484
 C1188 C 0.36427 0.86366 0.13263
 C1189 C 0.36769 0.87195 0.15969
 C1190 C 0.34894 0.85397 0.17897
 C1191 C 0.32647 0.82745 0.17137
 C1192 C 0.32324 0.81935 0.14406
 C1193 C 0.38353 0.88207 0.11279
 C1194 C 0.39945 0.89721 0.09586
 C1195 C 0.41771 0.91448 0.07563
 C1196 C 0.43290 0.92877 0.05787
 H1197 H 0.33928 0.83078 0.10391
 H1198 H 0.38486 0.89228 0.16587
 H1199 H 0.35205 0.86088 0.19979
 H1200 H 0.30629 0.79904 0.13751
 C1201 C 0.86961 0.36854 0.65825
 C1202 C 0.86519 0.36068 0.63121
 C1203 C 0.84252 0.33468 0.62363
 C1204 C 0.82414 0.31660 0.64307
 C1205 C 0.82826 0.32438 0.67036
 C1206 C 0.85129 0.35051 0.67773
 C1207 C 0.88382 0.37939 0.61121
 C1208 C 0.89929 0.39494 0.59427
 C1209 C 0.91717 0.41278 0.57417
 C1210 C 0.93225 0.42756 0.55662
 H1211 H 0.88715 0.38864 0.66427
 H1212 H 0.83901 0.32843 0.60271
 H1213 H 0.80672 0.29659 0.63669
 H1214 H 0.85509 0.35718 0.69854
 C1215 C 1.12793 1.14148 0.64971
 C1216 C 1.13637 1.14791 0.62295
 C1217 C 1.16235 1.17137 0.61672
 C1218 C 1.17999 1.18820 0.63721
 C1219 C 1.17189 1.18165 0.66423
 C1220 C 1.14551 1.15819 0.67021
 C1221 C 1.11907 1.12925 0.60218
 C1222 C 1.10434 1.11223 0.58571
 C1223 C 1.08686 1.09055 0.56778
 C1224 C 1.07180 1.07038 0.55388
 H1225 H 1.10794 1.12325 0.65475
 H1226 H 1.16919 1.17641 0.59606
 H1227 H 1.20016 1.20606 0.63187
 H1228 H 1.13854 1.15255 0.69073
 C1229 C 0.67753 0.66017 0.11861
 C1230 C 0.65350 0.63489 0.12515
 C1231 C 0.64287 0.63055 0.15165
 C1232 C 0.65654 0.65116 0.17173
 C1233 C 0.68105 0.67644 0.16548
 C1234 C 0.69127 0.68088 0.13866
 C1235 C 0.63933 0.61340 0.10479
 C1236 C 0.62641 0.59518 0.08831
 C1237 C 0.60979 0.57395 0.06977
 C1238 C 0.59406 0.55617 0.05453
 H1239 H 0.68579 0.66373 0.09808
 H1240 H 0.62413 0.61110 0.15683
 H1241 H 0.64812 0.64705 0.19214
 H1242 H 0.71021 0.69998 0.13319
 C1243 C 1.16354 0.82826 0.38316
 C1244 C 1.13776 0.85189 0.37681
 C1245 C 1.12967 0.85838 0.35001
 C1246 C 1.14736 0.84156 0.32958
 C1247 C 1.17352 0.81791 0.33567
 C1248 C 1.18129 0.81132 0.36274
 C1249 C 1.12023 0.87054 0.39754
 C1250 C 1.10530 0.88747 0.41400
 C1251 C 1.08756 0.90896 0.43199
 C1252 C 1.07227 0.92890 0.44598
 H1253 H 1.17011 0.82314 0.40385
 H1254 H 1.10983 0.87673 0.34487
 H1255 H 1.14063 0.84725 0.30903
 H1256 H 1.20128 0.79332 0.36818
 C1257 C 0.64255 0.37013 -0.15107
 C1258 C 0.65222 0.36496 -0.12443
 C1259 C 0.67605 0.33948 -0.11793
 C1260 C 0.69043 0.31934 -0.13810
 C1261 C 0.68107 0.32452 -0.16503
 C1262 C 0.65686 0.35009 -0.17126
 C1263 C 0.63712 0.38569 -0.10393
 C1264 C 0.62333 0.40335 -0.08745
 C1265 C 0.60559 0.42409 -0.06913
 C1266 C 0.58882 0.44164 -0.05435
 H1267 H 0.62398 0.38974 -0.15624
 H1268 H 0.68358 0.33526 -0.09732
 H1269 H 0.70911 0.30000 -0.13262
 H1270 H 0.64908 0.35479 -0.19174
 C1271 C 0.83427 1.16951 0.38021
 C1272 C 0.85944 1.14540 0.37352
 C1273 C 0.86736 1.13956 0.34660
 C1274 C 0.85010 1.15751 0.32643
 C1275 C 0.82455 1.18166 0.33288
 C1276 C 0.81696 1.18755 0.36006
 C1277 C 0.87661 1.12581 0.39406
 C1278 C 0.89116 1.10840 0.41053
 C1279 C 0.90839 1.08668 0.42882
 C1280 C 0.92324 1.06685 0.44334
 H1281 H 0.82783 1.17418 0.40097
 H1282 H 0.88672 1.12090 0.34116
 H1283 H 0.85667 1.15228 0.30579
 H1284 H 0.79744 1.20588 0.36579
 C1285 C 0.34231 0.65897 -0.12630
 C1286 C 0.36767 0.63616 -0.13502
 C1287 C 0.37482 0.63310 -0.16230
 C1288 C 0.35647 0.65248 -0.18090
 C1289 C 0.33062 0.67526 -0.17245
 C1290 C 0.32388 0.67849 -0.14490
 C1291 C 0.38566 0.61494 -0.11620
 C1292 C 0.40048 0.59652 -0.10071
 C1293 C 0.41722 0.57445 -0.08263
 C1294 C 0.43077 0.55540 -0.06691
 H1295 H 0.33654 0.66140 -0.10519
 H1296 H 0.39435 0.61544 -0.16922
 H1297 H 0.36244 0.64938 -0.20192
 H1298 H 0.30414 0.69572 -0.13773
 C1299 C 0.83485 0.82858 0.62000
 C1300 C 0.86023 0.85239 0.62679
 C1301 C 0.86817 0.85797 0.65373
 C1302 C 0.85067 0.84009 0.67382
 C1303 C 0.82486 0.81629 0.66727
 C1304 C 0.81729 0.81061 0.64007
 C1305 C 0.87750 0.87202 0.60634
 C1306 C 0.89206 0.88950 0.58992
 C1307 C 0.90921 0.91133 0.57168
 C1308 C 0.92393 0.93127 0.55718
 H1309 H 0.82839 0.82412 0.59921
 H1310 H 0.88770 0.87641 0.65924
 H1311 H 0.85723 0.84513 0.69449
 H1312 H 0.79757 0.79254 0.63426
 C1313 C 0.34483 0.34091 0.12642
 C1314 C 0.37036 0.36345 0.13521
 C1315 C 0.37764 0.36620 0.16247
 C1316 C 0.35917 0.34682 0.18101
 C1317 C 0.33306 0.32439 0.17250
 C1318 C 0.32628 0.32141 0.14496
 C1319 C 0.38828 0.38482 0.11645
 C1320 C 0.40290 0.40336 0.10094
 C1321 C 0.41932 0.42552 0.08277
 C1322 C 0.43255 0.44460 0.06690
 H1323 H 0.33898 0.33873 0.10531
 H1324 H 0.39732 0.38365 0.16944
 H1325 H 0.36517 0.34971 0.20204
 H1326 H 0.30635 0.30444 0.13775
   
