data_POSCAR
  _audit_creation_date              2014-09-24
  _audit_creation_method            'ToBaCCo'
  _symmetry_space_group_name_H-M    'P1'
  _symmetry_Int_Tables_number       1
  _symmetry_cell_setting            triclinic
  loop_
  _symmetry_equiv_pos_as_xyz
 x,y,z
_cell_length_a 58.0749
_cell_length_b 57.8825
_cell_length_c 58.0403
_cell_angle_alpha 90.040100
_cell_angle_beta 89.990100
_cell_angle_gamma 89.966100
loop_
  _atom_site_label
  _atom_site_type_symbol
  _atom_site_fract_x
  _atom_site_fract_y
  _atom_site_fract_z
C1 C 0.37024 0.26896 -0.01142
 C2 C 0.37022 0.26909 0.01220
 C3 C 0.35804 0.28856 0.01893
 N4 N 0.35077 0.30038 0.00021
 C5 C 0.35807 0.28838 -0.01840
 C6 C 0.35533 0.29595 0.04197
 C7 C 0.34125 0.31468 0.04871
 C8 C 0.34138 0.32476 0.07041
 C9 C 0.32454 0.34149 0.07036
 C10 C 0.31458 0.34118 0.04864
 N11 N 0.32473 0.32465 0.03565
 C12 C 0.29581 0.35511 0.04179
 C13 C 0.28854 0.35770 0.01872
 C14 C 0.26907 0.36975 0.01188
 C15 C 0.26907 0.36971 -0.01174
 C16 C 0.28856 0.35764 -0.01861
 N17 N 0.30048 0.35044 0.00007
 C18 C 0.29590 0.35498 -0.04170
 C19 C 0.31475 0.34100 -0.04844
 C20 C 0.32489 0.34126 -0.07010
 C21 C 0.34168 0.32450 -0.07005
 C22 C 0.34140 0.31441 -0.04836
 N23 N 0.32480 0.32445 -0.03539
 C24 C 0.35542 0.29561 -0.04153
 H25 H 0.37856 0.25619 -0.02224
 H26 H 0.37851 0.25644 0.02315
 H27 H 0.31898 0.31864 -0.01952
 H28 H 0.35236 0.32041 0.08484
 H29 H 0.32005 0.35252 0.08474
 H30 H 0.25635 0.37799 0.02277
 H31 H 0.25634 0.37793 -0.02262
 H32 H 0.35275 0.32013 -0.08443
 H33 H 0.31902 0.31881 0.01973
 H34 H 0.32053 0.35228 -0.08452
 C35 C 0.73167 0.63004 -0.01122
 C36 C 0.73160 0.63009 0.01240
 C37 C 0.71218 0.64228 0.01917
 N38 N 0.70034 0.64954 0.00047
 C39 C 0.71227 0.64221 -0.01817
 C40 C 0.70488 0.64502 0.04222
 C41 C 0.68617 0.65906 0.04901
 C42 C 0.67618 0.65889 0.07073
 C43 C 0.65939 0.67568 0.07071
 C44 C 0.65958 0.68566 0.04898
 N45 N 0.67610 0.67557 0.03596
 C46 C 0.64551 0.70436 0.04214
 C47 C 0.64283 0.71162 0.01908
 C48 C 0.63056 0.73099 0.01222
 C49 C 0.63061 0.73098 -0.01141
 C50 C 0.64291 0.71160 -0.01823
 N51 N 0.65023 0.69974 0.00043
 C52 C 0.64566 0.70430 -0.04129
 C53 C 0.65970 0.68555 -0.04808
 C54 C 0.65947 0.67551 -0.06979
 C55 C 0.67622 0.65870 -0.06981
 C56 C 0.68627 0.65891 -0.04809
 N57 N 0.67622 0.67548 -0.03507
 C58 C 0.70503 0.64486 -0.04128
 H59 H 0.74439 0.62172 -0.02205
 H60 H 0.74425 0.62182 0.02333
 H61 H 0.68197 0.68128 -0.01916
 H62 H 0.68060 0.64791 0.08515
 H63 H 0.64840 0.68012 0.08511
 H64 H 0.62216 0.74364 0.02309
 H65 H 0.62226 0.74362 -0.02231
 H66 H 0.68061 0.64767 -0.08423
 H67 H 0.68184 0.68131 0.02003
 H68 H 0.64847 0.67991 -0.08418
 C69 C 0.62128 0.27542 1.01202
 C70 C 0.62203 0.27478 0.98844
 C71 C 0.63849 0.29075 0.98166
 N72 N 0.64781 0.30102 1.00039
 C73 C 0.63735 0.29173 1.01902
 C74 C 0.64383 0.29601 0.95846
 C75 C 0.65997 0.31287 0.95129
 C76 C 0.66260 0.32019 0.92868
 C77 C 0.67935 0.33694 0.92873
 C78 C 0.68659 0.33949 0.95137
 N79 N 0.67498 0.32443 0.96493
 C80 C 0.70343 0.35561 0.95865
 C81 C 0.70860 0.36091 0.98188
 C82 C 0.72455 0.37734 0.98881
 C83 C 0.72380 0.37803 1.01239
 C84 C 0.70746 0.36195 1.01921
 N85 N 0.69824 0.35155 1.00052
 C86 C 0.70195 0.35688 1.04241
 C87 C 0.68592 0.33992 1.04960
 C88 C 0.68311 0.33287 1.07227
 C89 C 0.66639 0.31610 1.07226
 C90 C 0.65932 0.31325 1.04957
 N91 N 0.67109 0.32813 1.03595
 C92 C 0.64236 0.29718 1.04231
 H93 H 0.61019 0.26495 1.02277
 H94 H 0.61149 0.26388 0.97756
 H95 H 0.66795 0.33130 1.01869
 H96 H 0.65318 0.31434 0.91368
 H97 H 0.68525 0.34641 0.91378
 H98 H 0.73550 0.38790 0.97801
 H99 H 0.73422 0.38907 1.02324
 H100 H 0.66032 0.30685 1.08729
 H101 H 0.67824 0.32110 0.98214
 H102 H 0.69234 0.33896 1.08729
 C103 C 0.26902 0.63007 1.01323
 C104 C 0.26910 0.63009 0.98961
 C105 C 0.28858 0.64214 0.98285
 N106 N 0.30046 0.64934 1.00156
 C107 C 0.28849 0.64211 1.02019
 C108 C 0.29592 0.64478 0.95981
 C109 C 0.31468 0.65875 0.95304
 C110 C 0.32468 0.65852 0.93133
 C111 C 0.34149 0.67527 0.93136
 C112 C 0.34131 0.68527 0.95309
 N113 N 0.32477 0.67524 0.96610
 C114 C 0.35535 0.70397 0.95993
 C115 C 0.35803 0.71125 0.98300
 C116 C 0.37019 0.73069 0.98984
 C117 C 0.37019 0.73070 1.01346
 C118 C 0.35802 0.71125 1.02034
 N119 N 0.35074 0.69935 1.00166
 C120 C 0.35535 0.70391 1.04343
 C121 C 0.34130 0.68512 1.05017
 C122 C 0.34154 0.67495 1.07183
 C123 C 0.32472 0.65823 1.07180
 C124 C 0.31461 0.65860 1.05012
 N125 N 0.32471 0.67517 1.03715
 C126 C 0.29577 0.64469 1.04330
 H127 H 0.25626 0.62183 1.02405
 H128 H 0.25641 0.62188 0.97867
 H129 H 0.31892 0.68106 1.02128
 H130 H 0.32024 0.64754 0.91690
 H131 H 0.35249 0.67967 0.91697
 H132 H 0.37848 0.74338 0.97895
 H133 H 0.37848 0.74341 1.02434
 H134 H 0.32032 0.64717 1.08616
 H135 H 0.31903 0.68102 0.98203
 H136 H 0.35258 0.67923 1.08623
 C137 C -0.01192 0.26855 0.36975
 C138 C 0.01168 0.26868 0.36966
 C139 C 0.01835 0.28820 0.35755
 N140 N -0.00040 0.30005 0.35039
 C141 C -0.01896 0.28802 0.35770
 C142 C 0.04135 0.29561 0.35483
 C143 C 0.04804 0.31440 0.34082
 C144 C 0.06970 0.32449 0.34097
 C145 C 0.06959 0.34129 0.32421
 C146 C 0.04786 0.34101 0.31428
 N147 N 0.03493 0.32443 0.32436
 C148 C 0.04096 0.35501 0.29559
 C149 C 0.01789 0.35762 0.28839
 C150 C 0.01098 0.36974 0.26898
 C151 C -0.01263 0.36968 0.26904
 C152 C -0.01943 0.35754 0.28851
 N153 N -0.00072 0.35031 0.30034
 C154 C -0.04248 0.35485 0.29591
 C155 C -0.04914 0.34081 0.31472
 C156 C -0.07076 0.34105 0.32494
 C157 C -0.07066 0.32423 0.34166
 C158 C -0.04897 0.31412 0.34126
 N159 N -0.03607 0.32421 0.32465
 C160 C -0.04208 0.29527 0.35517
 H161 H -0.02269 0.25576 0.37805
 H162 H 0.02267 0.25601 0.37786
 H163 H -0.02022 0.31841 0.31875
 H164 H 0.08415 0.32012 0.35191
 H165 H 0.08393 0.35235 0.31975
 H166 H 0.02181 0.37803 0.25627
 H167 H -0.02355 0.37795 0.25638
 H168 H -0.08498 0.31983 0.35275
 H169 H 0.01903 0.31860 0.31866
 H170 H -0.08519 0.35210 0.32068
 C171 C 0.01154 0.72428 0.62292
 C172 C -0.01202 0.72355 0.62217
 C173 C -0.01892 0.70728 0.63830
 N174 N -0.00028 0.69808 0.64879
 C175 C 0.01839 0.70838 0.63944
 C176 C -0.04212 0.70183 0.64333
 C177 C -0.04938 0.68586 0.66033
 C178 C -0.07205 0.68312 0.66733
 C179 C -0.07211 0.66644 0.68414
 C180 C -0.04945 0.65933 0.68708
 N181 N -0.03578 0.67103 0.67220
 C182 C -0.04226 0.64239 0.70322
 C183 C -0.01901 0.63737 0.70875
 C184 C -0.01207 0.62133 0.72513
 C185 C 0.01148 0.62208 0.72585
 C186 C 0.01833 0.63849 0.70986
 N187 N -0.00035 0.64780 0.69950
 C188 C 0.04154 0.64381 0.70467
 C189 C 0.04877 0.65990 0.68777
 C190 C 0.07140 0.66249 0.68054
 C191 C 0.07142 0.67918 0.66373
 C192 C 0.04880 0.68643 0.66105
 N193 N 0.03518 0.67488 0.67609
 C194 C 0.04159 0.70322 0.64484
 H195 H 0.02237 0.73518 0.61235
 H196 H -0.02283 0.73394 0.61106
 H197 H 0.01796 0.67817 0.67933
 H198 H -0.08704 0.69237 0.66116
 H199 H -0.08716 0.66043 0.69337
 H200 H -0.02286 0.61028 0.73559
 H201 H 0.02232 0.61156 0.73682
 H202 H 0.08640 0.68504 0.65431
 H203 H -0.01853 0.66783 0.66910
 H204 H 0.08637 0.65308 0.68650
 C205 C 0.98910 0.73138 0.37024
 C206 C 1.01271 0.73132 0.37026
 C207 C 1.01956 0.71182 0.35810
 N208 N 1.00089 0.69997 0.35080
 C209 C 0.98225 0.71194 0.35807
 C210 C 1.04262 0.70441 0.35547
 C211 C 1.04935 0.68558 0.34141
 C212 C 1.07098 0.67534 0.34167
 C213 C 1.07094 0.65862 0.32483
 C214 C 1.04928 0.65904 0.31470
 N215 N 1.03634 0.67566 0.32479
 C216 C 1.04247 0.64513 0.29583
 C217 C 1.01937 0.64259 0.28854
 C218 C 1.01240 0.63053 0.26906
 C219 C 0.98880 0.63060 0.26915
 C220 C 0.98205 0.64269 0.28865
 N221 N 1.00076 0.64988 0.30052
 C222 C 0.95903 0.64538 0.29600
 C223 C 0.95228 0.65940 0.31475
 C224 C 0.93059 0.65923 0.32477
 C225 C 0.93063 0.67602 0.34156
 C226 C 0.95234 0.68600 0.34135
 N227 N 0.96534 0.67591 0.32482
 C228 C 0.95919 0.70472 0.35538
 H229 H 0.97824 0.74411 0.37852
 H230 H 1.02360 0.74400 0.37858
 H231 H 0.98125 0.68165 0.31906
 H232 H 1.08536 0.67959 0.35274
 H233 H 1.08528 0.64751 0.32044
 H234 H 1.02321 0.62225 0.25630
 H235 H 0.97786 0.62239 0.25646
 H236 H 0.91624 0.68047 0.35257
 H237 H 1.02050 0.68159 0.31899
 H238 H 0.91616 0.64826 0.32035
 C239 C 0.98806 0.37784 0.72448
 C240 C 1.01163 0.37853 0.72378
 C241 C 1.01851 0.36247 0.70741
 N242 N 0.99986 0.35207 0.69813
 C243 C 0.98120 0.36142 0.70847
 C244 C 1.04171 0.35740 0.70194
 C245 C 1.04895 0.34047 0.68585
 C246 C 1.07162 0.33342 0.68306
 C247 C 1.07167 0.31670 0.66626
 C248 C 1.04901 0.31388 0.65913
 N249 N 1.03535 0.32873 0.67093
 C250 C 1.04181 0.29785 0.64207
 C251 C 1.01856 0.29239 0.63703
 C252 C 1.01161 0.27610 0.62088
 C253 C 0.98805 0.27541 0.62164
 C254 C 0.98122 0.29134 0.63815
 N255 N 0.99990 0.30162 0.64751
 C256 C 0.95801 0.29653 0.64351
 C257 C 0.95078 0.31338 0.65969
 C258 C 0.92816 0.32065 0.66234
 C259 C 0.92816 0.33739 0.67912
 C260 C 0.95078 0.33998 0.68637
 N261 N 0.96438 0.32496 0.67473
 C262 C 0.95800 0.35611 0.70326
 H263 H 0.97724 0.38839 0.73544
 H264 H 1.02244 0.38956 0.73425
 H265 H 0.98159 0.32166 0.67798
 H266 H 1.08660 0.33948 0.69236
 H267 H 1.08671 0.30747 0.66019
 H268 H 1.02239 0.26567 0.60976
 H269 H 0.97721 0.26451 0.61105
 H270 H 0.91319 0.34682 0.68504
 H271 H 1.01811 0.33192 0.66777
 H272 H 0.91319 0.31477 0.65290
 C273 C 0.28463 0.01134 0.38533
 C274 C 0.28465 -0.01236 0.38529
 C275 C 0.29673 -0.01920 0.36583
 N276 N 0.30391 -0.00048 0.35393
 C277 C 0.29670 0.01822 0.36589
 C278 C 0.29959 -0.04234 0.35864
 C279 C 0.31351 -0.04915 0.33985
 C280 C 0.31344 -0.07100 0.33002
 C281 C 0.33020 -0.07104 0.31326
 C282 C 0.34008 -0.04919 0.31330
 N283 N 0.32989 -0.03606 0.32968
 C284 C 0.35891 -0.04239 0.29939
 C285 C 0.36606 -0.01920 0.29661
 C286 C 0.38557 -0.01224 0.28465
 C287 C 0.38551 0.01144 0.28470
 C288 C 0.36599 0.01825 0.29669
 N289 N 0.35406 -0.00050 0.30378
 C290 C 0.35880 0.04139 0.29956
 C291 C 0.34004 0.04820 0.31349
 C292 C 0.33027 0.07008 0.31354
 C293 C 0.31351 0.07008 0.33031
 C294 C 0.31350 0.04820 0.34005
 N295 N 0.32983 0.03506 0.32982
 C296 C 0.29956 0.04137 0.35879
 H297 H 0.27645 0.02224 0.39810
 H298 H 0.27648 -0.02328 0.39802
 H299 H 0.33549 0.01903 0.33544
 H300 H 0.30259 -0.08549 0.33458
 H301 H 0.33474 -0.08557 0.30242
 H302 H 0.39839 -0.02311 0.27652
 H303 H 0.39827 0.02239 0.27663
 H304 H 0.30271 0.08461 0.33493
 H305 H 0.33558 -0.02006 0.33539
 H306 H 0.33487 0.08461 0.30275
 C307 C 0.61350 -0.01201 0.71427
 C308 C 0.61343 0.01168 0.71422
 C309 C 0.63283 0.01855 0.70209
 N310 N 0.64480 -0.00015 0.69491
 C311 C 0.63294 -0.01887 0.70218
 C312 C 0.63989 0.04171 0.69916
 C313 C 0.65860 0.04854 0.68517
 C314 C 0.66829 0.07045 0.68508
 C315 C 0.68505 0.07043 0.66832
 C316 C 0.68515 0.04851 0.65862
 N317 N 0.66885 0.03538 0.66886
 C318 C 0.69913 0.04166 0.63989
 C319 C 0.70204 0.01849 0.63278
 C320 C 0.71409 0.01164 0.61331
 C321 C 0.71417 -0.01205 0.61333
 C322 C 0.70218 -0.01896 0.63284
 N323 N 0.69494 -0.00023 0.64476
 C324 C 0.69943 -0.04214 0.64006
 C325 C 0.68549 -0.04892 0.65889
 C326 C 0.68555 -0.07073 0.66883
 C327 C 0.66878 -0.07068 0.68558
 C328 C 0.65892 -0.04884 0.68546
 N329 N 0.66909 -0.03578 0.66903
 C330 C 0.64015 -0.04201 0.69938
 H331 H 0.60081 -0.02293 0.72251
 H332 H 0.60068 0.02259 0.72240
 H333 H 0.66338 -0.01980 0.66330
 H334 H 0.66364 0.08500 0.69584
 H335 H 0.69581 0.08497 0.66367
 H336 H 0.72218 0.02255 0.60053
 H337 H 0.72236 -0.02294 0.60056
 H338 H 0.66424 -0.08514 0.69648
 H339 H 0.66328 0.01930 0.66327
 H340 H 0.69641 -0.08526 0.66434
 C341 C 0.28462 1.01195 0.61511
 C342 C 0.28462 0.98826 0.61507
 C343 C 0.29660 0.98137 0.63456
 N344 N 0.30375 1.00007 0.64655
 C345 C 0.29660 1.01879 0.63462
 C346 C 0.29945 0.95822 0.64167
 C347 C 0.31329 0.95138 0.66048
 C348 C 0.31327 0.92950 0.67023
 C349 C 0.32993 0.92949 0.68708
 C350 C 0.33968 0.95137 0.68718
 N351 N 0.32956 0.96451 0.67080
 C352 C 0.35836 0.95817 0.70122
 C353 C 0.36552 0.98131 0.70413
 C354 C 0.38496 0.98810 0.71623
 C355 C 0.38502 1.01179 0.71626
 C356 C 0.36558 1.01875 0.70419
 N357 N 0.35363 1.00007 0.69696
 C358 C 0.35845 1.04196 0.70135
 C359 C 0.33969 1.04877 0.68735
 C360 C 0.32980 1.07062 0.68732
 C361 C 0.31313 1.07059 0.67048
 C362 C 0.31325 1.04874 0.66066
 N363 N 0.32959 1.03563 0.67092
 C364 C 0.29943 1.04193 0.64182
 H365 H 0.27650 1.02288 0.60235
 H366 H 0.27650 0.97736 0.60227
 H367 H 0.33531 1.01963 0.66525
 H368 H 0.30251 0.91498 0.66554
 H369 H 0.33448 0.91496 0.69789
 H370 H 0.39768 0.97715 0.72438
 H371 H 0.39778 1.02265 0.72446
 H372 H 0.30230 1.08509 0.66587
 H373 H 0.33523 0.98055 0.66522
 H374 H 0.33429 1.08515 0.69817
 C375 C 0.73110 0.98873 0.36936
 C376 C 0.73115 1.01242 0.36932
 C377 C 0.71165 1.01933 0.35731
 N378 N 0.69970 1.00062 0.35015
 C379 C 0.71161 0.98190 0.35736
 C380 C 0.70433 1.04250 0.35469
 C381 C 0.68547 1.04927 0.34081
 C382 C 0.67533 1.07100 0.34114
 C383 C 0.65850 1.07097 0.32447
 C384 C 0.65876 1.04922 0.31437
 N385 N 0.67538 1.03620 0.32431
 C386 C 0.64471 1.04239 0.29564
 C387 C 0.64206 1.01921 0.28839
 C388 C 0.62989 1.01223 0.26901
 C389 C 0.62991 0.98854 0.26909
 C390 C 0.64210 0.98177 0.28849
 N391 N 0.64938 1.00053 0.30031
 C392 C 0.64480 0.95866 0.29581
 C393 C 0.65888 0.95188 0.31447
 C394 C 0.65872 0.93014 0.32450
 C395 C 0.67555 0.93017 0.34119
 C396 C 0.68554 0.95194 0.34089
 N397 N 0.67541 0.96497 0.32442
 C398 C 0.70430 0.95878 0.35479
 H399 H 0.74381 0.97780 0.37756
 H400 H 0.74390 1.02331 0.37751
 H401 H 0.68113 0.98091 0.31861
 H402 H 0.67972 1.08545 0.35214
 H403 H 0.64744 1.08539 0.32017
 H404 H 0.62156 1.02308 0.25632
 H405 H 0.62162 0.97757 0.25647
 H406 H 0.68002 0.91574 0.35217
 H407 H 0.68118 1.02028 0.31847
 H408 H 0.64772 0.91568 0.32016
 O409 O 0.85182 0.82056 0.47818
 O410 O 0.81940 0.85195 0.52271
 O411 O 0.85130 0.82031 0.52289
 O412 O 0.81996 0.85220 0.47801
 O413 O 0.79318 0.82520 0.47746
 O414 O 0.82468 0.79315 0.52246
 O415 O 0.79263 0.82494 0.52228
 O416 O 0.82519 0.79341 0.47763
 Cu417 Cu 0.83828 0.83895 0.50050
 Cu418 Cu 0.80624 0.80645 0.49991
 C419 C 0.84416 0.80155 0.47036
 C420 C 0.80038 0.84395 0.53001
 C421 C 0.84349 0.80120 0.53026
 C422 C 0.80114 0.84429 0.47014
 O423 O 0.14836 0.18019 0.47779
 O424 O 0.18024 0.14882 0.52263
 O425 O 0.14835 0.18045 0.52250
 O426 O 0.18028 0.14861 0.47794
 O427 O 0.20701 0.17565 0.47776
 O428 O 0.17496 0.20762 0.52245
 O429 O 0.20700 0.17585 0.52257
 O430 O 0.17495 0.20738 0.47761
 Cu431 Cu 0.16164 0.16182 0.50023
 Cu432 Cu 0.19366 0.19436 0.50009
 C433 C 0.15607 0.19921 0.47010
 C434 C 0.19915 0.15683 0.53017
 C435 C 0.15607 0.19955 0.53001
 C436 C 0.19918 0.15656 0.47032
 O437 O 0.18036 0.85088 0.47781
 O438 O 0.14851 0.81942 0.52260
 O439 O 0.18038 0.85100 0.52249
 O440 O 0.14845 0.81934 0.47788
 O441 O 0.17504 0.79213 0.47782
 O442 O 0.20714 0.82395 0.52256
 O443 O 0.17511 0.79221 0.52267
 O444 O 0.20710 0.82382 0.47776
 Cu445 Cu 0.16175 0.83786 0.50019
 Cu446 Cu 0.19377 0.80529 0.50020
 C447 C 0.19926 0.84287 0.47022
 C448 C 0.15624 0.80037 0.53022
 C449 C 0.19930 0.84303 0.53006
 C450 C 0.15616 0.80027 0.47028
 O451 O 0.81980 0.14815 0.47659
 O452 O 0.85126 0.17974 0.52159
 O453 O 0.81932 0.14820 0.52129
 O454 O 0.85168 0.17973 0.47688
 O455 O 0.82508 0.20693 0.47654
 O456 O 0.79260 0.17528 0.52109
 O457 O 0.82469 0.20698 0.52138
 O458 O 0.79304 0.17520 0.47627
 Cu459 Cu 0.83818 0.16125 0.49911
 Cu460 Cu 0.80617 0.19383 0.49880
 C461 C 0.80096 0.15614 0.46882
 C462 C 0.84350 0.19884 0.52909
 C463 C 0.80035 0.15622 0.52869
 C464 C 0.84403 0.19879 0.46918
 O465 O 0.47749 0.85127 0.82043
 O466 O 0.52247 0.81993 0.85214
 O467 O 0.52215 0.85135 0.82008
 O468 O 0.47778 0.81983 0.85248
 O469 O 0.47757 0.79252 0.82597
 O470 O 0.52207 0.82417 0.79343
 O471 O 0.52239 0.79260 0.82565
 O472 O 0.47730 0.82411 0.79377
 Cu473 Cu 0.49998 0.83831 0.83894
 Cu474 Cu 0.49982 0.80560 0.80704
 C475 C 0.46981 0.84320 0.80159
 C476 C 0.53005 0.80084 0.84444
 C477 C 0.52960 0.84329 0.80113
 C478 C 0.47015 0.80072 0.84489
 O479 O 0.52272 0.17990 0.14856
 O480 O 0.47807 0.14826 0.18044
 O481 O 0.47804 0.17990 0.14861
 O482 O 0.52275 0.14816 0.18030
 O483 O 0.52288 0.17509 0.20720
 O484 O 0.47804 0.20702 0.17532
 O485 O 0.47808 0.17522 0.20731
 O486 O 0.52285 0.20699 0.17531
 Cu487 Cu 0.50039 0.16136 0.16180
 Cu488 Cu 0.50047 0.19380 0.19398
 C489 C 0.53034 0.19893 0.15636
 C490 C 0.47052 0.15620 0.19940
 C491 C 0.47047 0.19895 0.15641
 C492 C 0.53038 0.15606 0.19923
 O493 O 0.52128 0.14840 0.81946
 O494 O 0.47683 0.17995 0.85182
 O495 O 0.47662 0.14841 0.81981
 O496 O 0.52152 0.17989 0.85149
 O497 O 0.52139 0.20716 0.82496
 O498 O 0.47638 0.17551 0.79311
 O499 O 0.47657 0.20720 0.82527
 O500 O 0.52115 0.17551 0.79278
 Cu501 Cu 0.49908 0.16146 0.83830
 Cu502 Cu 0.49885 0.19408 0.80636
 C503 C 0.52872 0.15642 0.80051
 C504 C 0.46918 0.19904 0.84420
 C505 C 0.46893 0.15643 0.80095
 C506 C 0.52907 0.19896 0.84377
 O507 O 0.47719 0.81978 0.14874
 O508 O 0.52186 0.85172 0.18028
 O509 O 0.52187 0.81997 0.14852
 O510 O 0.47719 0.85150 0.18055
 O511 O 0.47742 0.82457 0.20742
 O512 O 0.52223 0.79292 0.17525
 O513 O 0.52221 0.82482 0.20716
 O514 O 0.47741 0.79270 0.17545
 Cu515 Cu 0.49950 0.83843 0.16185
 Cu516 Cu 0.49984 0.80603 0.19402
 C517 C 0.46973 0.80072 0.15657
 C518 C 0.52960 0.84387 0.19918
 C519 C 0.52963 0.80100 0.15629
 C520 C 0.46976 0.84356 0.19954
 O521 O 0.85165 0.52280 0.82058
 O522 O 0.82001 0.47797 0.85228
 O523 O 0.85160 0.47798 0.82050
 O524 O 0.82012 0.52280 0.85245
 O525 O 0.79308 0.52298 0.82578
 O526 O 0.82474 0.47803 0.79364
 O527 O 0.79299 0.47802 0.82559
 O528 O 0.82476 0.52298 0.79375
 Cu529 Cu 0.83853 0.50038 0.83913
 Cu530 Cu 0.80618 0.50052 0.80700
 C531 C 0.84375 0.53046 0.80167
 C532 C 0.80103 0.47040 0.84448
 C533 C 0.84369 0.47042 0.80154
 C534 C 0.80115 0.53047 0.84471
 O535 O 0.17932 0.47808 0.14806
 O536 O 0.14768 0.52295 0.17983
 O537 O 0.17946 0.52291 0.14821
 O538 O 0.14752 0.47812 0.17967
 O539 O 0.17421 0.47787 0.20670
 O540 O 0.20631 0.52279 0.17507
 O541 O 0.17437 0.52283 0.20685
 O542 O 0.20616 0.47784 0.17493
 Cu543 Cu 0.16082 0.50053 0.16126
 Cu544 Cu 0.19296 0.50032 0.19360
 C545 C 0.19822 0.47036 0.15593
 C546 C 0.15549 0.53049 0.19884
 C547 C 0.19841 0.53043 0.15613
 C548 C 0.15527 0.47041 0.19863
 O549 O 0.82069 0.52203 0.14885
 O550 O 0.85219 0.47715 0.18061
 O551 O 0.82043 0.47722 0.14900
 O552 O 0.85243 0.52198 0.18049
 O553 O 0.82570 0.52232 0.20749
 O554 O 0.79356 0.47742 0.17586
 O555 O 0.82549 0.47735 0.20763
 O556 O 0.79381 0.52237 0.17569
 Cu557 Cu 0.83911 0.49956 0.16205
 Cu558 Cu 0.80695 0.49989 0.19438
 C559 C 0.80180 0.52980 0.15670
 C560 C 0.84436 0.46964 0.19962
 C561 C 0.80145 0.46975 0.15692
 C562 C 0.84466 0.52974 0.19943
 O563 O 0.18008 0.52174 0.85311
 O564 O 0.14853 0.47703 0.82109
 O565 O 0.18016 0.47691 0.85288
 O566 O 0.14843 0.52184 0.82136
 O567 O 0.17525 0.52208 0.79446
 O568 O 0.20715 0.47702 0.82614
 O569 O 0.17537 0.47714 0.79420
 O570 O 0.20705 0.52199 0.82636
 Cu571 Cu 0.16162 0.49936 0.83979
 Cu572 Cu 0.19391 0.49957 0.80759
 C573 C 0.19902 0.52944 0.84533
 C574 C 0.15642 0.46953 0.80208
 C575 C 0.19914 0.46936 0.84503
 C576 C 0.15628 0.52956 0.80245
 C577 C 0.21506 0.42871 0.10844
 C578 C 0.23673 0.42127 0.11592
 C579 C 0.24555 0.42931 0.13688
 C580 C 0.23287 0.44499 0.15017
 C581 C 0.28382 0.36838 0.05927
 C582 C 0.20238 0.44438 0.12165
 C583 C 0.25013 0.40609 0.10153
 C584 C 0.26107 0.39379 0.08883
 C585 C 0.27351 0.37986 0.07323
 C586 C 0.21122 0.45286 0.14258
 H587 H 0.20809 0.42264 0.09221
 H588 H 0.26234 0.42371 0.14280
 H589 H 0.24016 0.45121 0.16619
 H590 H 0.18578 0.45006 0.11531
 C591 C 0.75458 0.57089 0.13754
 C592 C 0.76350 0.57892 0.11662
 C593 C 0.78519 0.57146 0.10921
 C594 C 0.79780 0.55578 0.12245
 C595 C 0.71677 0.63176 0.05976
 C596 C 0.76719 0.55520 0.15086
 C597 C 0.75018 0.59409 0.10220
 C598 C 0.73932 0.60639 0.08944
 C599 C 0.72698 0.62030 0.07377
 C600 C 0.78886 0.54731 0.14334
 H601 H 0.73778 0.57651 0.14341
 H602 H 0.79223 0.57752 0.09302
 H603 H 0.81441 0.55008 0.11617
 H604 H 0.75983 0.54900 0.16684
 C605 C 0.78438 0.42849 0.89172
 C606 C 0.76264 0.42121 0.88433
 C607 C 0.75370 0.42944 0.86349
 C608 C 0.76634 0.44515 0.85025
 C609 C 0.71551 0.36866 0.94107
 C610 C 0.79702 0.44419 0.87855
 C611 C 0.74926 0.40606 0.89870
 C612 C 0.73832 0.39380 0.91142
 C613 C 0.72586 0.37999 0.92706
 C614 C 0.78807 0.45287 0.85776
 H615 H 0.79144 0.42228 0.90785
 H616 H 0.73685 0.42396 0.85765
 H617 H 0.75896 0.45152 0.83434
 H618 H 0.81369 0.44975 0.88483
 C619 C 0.21562 0.57107 0.89291
 C620 C 0.23729 0.57854 0.88550
 C621 C 0.24621 0.57051 0.86456
 C622 C 0.23361 0.55482 0.85123
 C623 C 0.28403 0.63151 0.94228
 C624 C 0.20302 0.55540 0.87965
 C625 C 0.25059 0.59375 0.89991
 C626 C 0.26145 0.60608 0.91264
 C627 C 0.27380 0.62003 0.92829
 C628 C 0.21195 0.54693 0.85874
 H629 H 0.20857 0.57714 0.90911
 H630 H 0.26300 0.57613 0.85869
 H631 H 0.24097 0.54862 0.83523
 H632 H 0.18641 0.54970 0.88593
 C633 C 0.13672 0.24638 0.42903
 C634 C 0.11593 0.23727 0.42091
 C635 C 0.10867 0.21546 0.42831
 C636 C 0.12193 0.20293 0.44401
 C637 C 0.05894 0.28377 0.36805
 C638 C 0.15006 0.23385 0.44475
 C639 C 0.10147 0.25052 0.40572
 C640 C 0.08869 0.26132 0.39341
 C641 C 0.07298 0.27360 0.37950
 C642 C 0.14269 0.21206 0.45257
 H643 H 0.14247 0.26329 0.42346
 H644 H 0.09257 0.20827 0.42218
 H645 H 0.11577 0.18621 0.44965
 H646 H 0.16594 0.24137 0.45102
 C647 C 0.13700 0.75309 0.57120
 C648 C 0.11619 0.76216 0.57935
 C649 C 0.10888 0.78398 0.57201
 C650 C 0.12211 0.79656 0.55633
 C651 C 0.05921 0.71524 0.63180
 C652 C 0.15031 0.76567 0.55551
 C653 C 0.10175 0.74883 0.59447
 C654 C 0.08897 0.73795 0.60670
 C655 C 0.07327 0.72554 0.62049
 C656 C 0.14289 0.78747 0.54773
 H657 H 0.14279 0.73618 0.57672
 H658 H 0.09276 0.79114 0.57816
 H659 H 0.11591 0.81329 0.55072
 H660 H 0.16621 0.75819 0.54921
 C661 C 0.86379 0.75442 0.42929
 C662 C 0.88475 0.76342 0.42150
 C663 C 0.89206 0.78514 0.42913
 C664 C 0.87867 0.79769 0.44474
 C665 C 0.94171 0.71669 0.36867
 C666 C 0.85032 0.76697 0.44491
 C667 C 0.89927 0.75016 0.40635
 C668 C 0.91206 0.73931 0.39406
 C669 C 0.92773 0.72695 0.38014
 C670 C 0.85773 0.78867 0.45296
 H671 H 0.85799 0.73759 0.42354
 H672 H 0.90828 0.79225 0.42325
 H673 H 0.88487 0.81434 0.45056
 H674 H 0.83431 0.75953 0.45093
 C675 C 0.89065 0.21538 0.57107
 C676 C 0.88340 0.23730 0.57819
 C677 C 0.86267 0.24639 0.56986
 C678 C 0.84939 0.23371 0.55420
 C679 C 0.94039 0.28447 0.63049
 C680 C 0.87744 0.20271 0.55542
 C681 C 0.89784 0.25072 0.59327
 C682 C 0.91062 0.26167 0.60546
 C683 C 0.92633 0.27413 0.61921
 C684 C 0.85676 0.21181 0.54663
 H685 H 0.90670 0.20821 0.57736
 H686 H 0.85694 0.26338 0.57521
 H687 H 0.83357 0.24122 0.54775
 H688 H 0.88361 0.18591 0.54998
 C689 C 0.42911 0.10871 0.21662
 C690 C 0.42199 0.11621 0.23840
 C691 C 0.43008 0.13724 0.24714
 C692 C 0.44555 0.15054 0.23427
 C693 C 0.37120 0.05906 0.28696
 C694 C 0.44457 0.12194 0.20375
 C695 C 0.40722 0.10172 0.25208
 C696 C 0.39535 0.08891 0.26332
 C697 C 0.38204 0.07315 0.27621
 C698 C 0.45315 0.14291 0.21253
 H699 H 0.42300 0.09243 0.20972
 H700 H 0.42473 0.14317 0.26402
 H701 H 0.45184 0.16659 0.24152
 H702 H 0.45004 0.11557 0.18708
 C703 C 0.56878 0.13753 0.75236
 C704 C 0.57690 0.11644 0.76091
 C705 C 0.56990 0.10886 0.78269
 C706 C 0.55458 0.12209 0.79575
 C707 C 0.62748 0.05937 0.71183
 C708 C 0.55345 0.15084 0.76542
 C709 C 0.59157 0.10197 0.74705
 C710 C 0.60339 0.08918 0.73568
 C711 C 0.61665 0.07345 0.72267
 C712 C 0.54599 0.14313 0.78717
 H713 H 0.57403 0.14353 0.73548
 H714 H 0.57602 0.09253 0.78945
 H715 H 0.54921 0.11566 0.81242
 H716 H 0.54714 0.16694 0.75831
 C717 C 0.42927 0.86209 0.75390
 C718 C 0.42123 0.88317 0.76258
 C719 C 0.42840 0.89072 0.78432
 C720 C 0.44384 0.87747 0.79721
 C721 C 0.37070 0.94049 0.71387
 C722 C 0.44472 0.84877 0.76678
 C723 C 0.40653 0.89770 0.74886
 C724 C 0.39472 0.91055 0.73758
 C725 C 0.38148 0.92636 0.72466
 C726 C 0.45237 0.85645 0.78849
 H727 H 0.42389 0.85612 0.73704
 H728 H 0.42234 0.90705 0.79117
 H729 H 0.44935 0.88389 0.81384
 H730 H 0.45098 0.83268 0.75958
 C731 C 0.57112 0.89152 0.21577
 C732 C 0.57859 0.88410 0.23744
 C733 C 0.57060 0.86312 0.24637
 C734 C 0.55494 0.84976 0.23378
 C735 C 0.63151 0.94108 0.28400
 C736 C 0.55548 0.87823 0.20317
 C737 C 0.59377 0.89855 0.25073
 C738 C 0.60608 0.91133 0.26155
 C739 C 0.62002 0.92704 0.27384
 C740 C 0.54705 0.85729 0.21211
 H741 H 0.57715 0.90775 0.20871
 H742 H 0.57622 0.85724 0.26317
 H743 H 0.54877 0.83373 0.24115
 H744 H 0.54978 0.88453 0.18656
 C745 C 0.42843 0.24641 0.86389
 C746 C 0.42049 0.23737 0.88480
 C747 C 0.42792 0.21556 0.89204
 C748 C 0.44346 0.20294 0.87864
 C749 C 0.36795 0.28426 0.94192
 C750 C 0.44399 0.23379 0.85042
 C751 C 0.40543 0.25070 0.89935
 C752 C 0.39320 0.26159 0.91217
 C753 C 0.37936 0.27398 0.92789
 C754 C 0.45183 0.21199 0.85776
 H755 H 0.42284 0.26331 0.85816
 H756 H 0.42193 0.20843 0.90822
 H757 H 0.44913 0.18622 0.88480
 H758 H 0.45011 0.24125 0.83445
 C759 C 0.57208 0.78463 0.89166
 C760 C 0.57937 0.76276 0.88441
 C761 C 0.57110 0.75359 0.86368
 C762 C 0.55535 0.76613 0.85040
 C763 C 0.63238 0.71618 0.94120
 C764 C 0.55634 0.79717 0.87845
 C765 C 0.59460 0.74950 0.89882
 C766 C 0.60694 0.73869 0.91156
 C767 C 0.62090 0.72638 0.92721
 C768 C 0.54763 0.78798 0.85776
 H769 H 0.57832 0.79186 0.90771
 H770 H 0.57659 0.73664 0.85795
 H771 H 0.54896 0.75857 0.83457
 H772 H 0.55077 0.81393 0.88461
 C773 C 0.42785 0.78391 0.10943
 C774 C 0.42070 0.76205 0.11679
 C775 C 0.42903 0.75307 0.13757
 C776 C 0.44470 0.76579 0.15079
 C777 C 0.36790 0.71516 0.06002
 C778 C 0.44350 0.79663 0.12257
 C779 C 0.40554 0.74863 0.10244
 C780 C 0.39325 0.73773 0.08973
 C781 C 0.37934 0.72536 0.07406
 C782 C 0.45227 0.78764 0.14332
 H783 H 0.42155 0.79100 0.09334
 H784 H 0.42366 0.73613 0.14339
 H785 H 0.45114 0.75838 0.16666
 H786 H 0.44894 0.81338 0.11632
 C787 C 0.57096 0.24649 0.13712
 C788 C 0.57899 0.23758 0.11618
 C789 C 0.57174 0.21575 0.10881
 C790 C 0.55624 0.20301 0.12210
 C791 C 0.63033 0.28546 0.05897
 C792 C 0.55544 0.23375 0.15048
 C793 C 0.59386 0.25112 0.10166
 C794 C 0.60584 0.26222 0.08884
 C795 C 0.61931 0.27490 0.07308
 C796 C 0.54773 0.21195 0.14299
 H797 H 0.57641 0.26341 0.14295
 H798 H 0.57780 0.20872 0.09260
 H799 H 0.55068 0.18629 0.11584
 H800 H 0.54921 0.24112 0.16646
 C801 C 0.24697 0.13786 0.57052
 C802 C 0.23824 0.11687 0.57870
 C803 C 0.21644 0.10942 0.57168
 C804 C 0.20354 0.12265 0.55625
 C805 C 0.28683 0.05960 0.62940
 C806 C 0.23407 0.15117 0.55508
 C807 C 0.25195 0.10236 0.59343
 C808 C 0.26320 0.08951 0.60527
 C809 C 0.27608 0.07372 0.61856
 C810 C 0.21230 0.14358 0.54758
 H811 H 0.26387 0.14375 0.57579
 H812 H 0.20955 0.09317 0.57785
 H813 H 0.18685 0.11631 0.55085
 H814 H 0.24131 0.16718 0.54871
 C815 C 0.75374 0.13716 0.42774
 C816 C 0.76260 0.11616 0.41969
 C817 C 0.78426 0.10865 0.42711
 C818 C 0.79690 0.12187 0.44277
 C819 C 0.71565 0.05914 0.36715
 C820 C 0.76639 0.15046 0.44342
 C821 C 0.74922 0.10173 0.40457
 C822 C 0.73831 0.08895 0.39233
 C823 C 0.72591 0.07322 0.37851
 C824 C 0.78803 0.14283 0.45128
 H825 H 0.73696 0.14311 0.42216
 H826 H 0.79125 0.09239 0.42103
 H827 H 0.81349 0.11549 0.44844
 H828 H 0.75907 0.16650 0.44966
 C829 C 0.78255 0.89137 0.57136
 C830 C 0.76068 0.88388 0.57814
 C831 C 0.75208 0.86288 0.56985
 C832 C 0.76517 0.84958 0.55454
 C833 C 0.71147 0.94114 0.62839
 C834 C 0.79564 0.87815 0.55606
 C835 C 0.74678 0.89838 0.59275
 C836 C 0.73538 0.91121 0.60449
 C837 C 0.72233 0.92700 0.61766
 C838 C 0.78702 0.85720 0.54728
 H839 H 0.78934 0.90764 0.57762
 H840 H 0.73513 0.85696 0.57493
 H841 H 0.75803 0.83355 0.54808
 H842 H 0.81238 0.88451 0.55085
 C843 C 0.21654 0.89033 0.42879
 C844 C 0.23831 0.88281 0.42167
 C845 C 0.24700 0.86176 0.42976
 C846 C 0.23412 0.84846 0.44522
 C847 C 0.28696 0.94000 0.37101
 C848 C 0.20366 0.87711 0.44423
 C849 C 0.25201 0.89730 0.40694
 C850 C 0.26328 0.91013 0.39510
 C851 C 0.27619 0.92590 0.38183
 C852 C 0.21239 0.85613 0.45281
 H853 H 0.20968 0.90663 0.42268
 H854 H 0.26387 0.85582 0.42442
 H855 H 0.24133 0.83241 0.45151
 H856 H 0.18700 0.88350 0.44970
 C857 C 0.10899 0.42811 0.78473
 C858 C 0.11640 0.42106 0.76289
 C859 C 0.13733 0.42922 0.75415
 C860 C 0.15065 0.44466 0.76707
 C861 C 0.05933 0.37001 0.71444
 C862 C 0.12224 0.44353 0.79765
 C863 C 0.10191 0.40629 0.74919
 C864 C 0.08911 0.39437 0.73795
 C865 C 0.07339 0.38097 0.72512
 C866 C 0.14312 0.45217 0.78888
 H867 H 0.09279 0.42195 0.79164
 H868 H 0.14319 0.42394 0.73722
 H869 H 0.16662 0.45100 0.75982
 H870 H 0.11594 0.44893 0.81437
 C871 C 0.10823 0.57240 0.21565
 C872 C 0.11562 0.57965 0.23742
 C873 C 0.13645 0.57139 0.24633
 C874 C 0.14970 0.55568 0.23364
 C875 C 0.05899 0.63255 0.28448
 C876 C 0.12140 0.55671 0.20295
 C877 C 0.10127 0.59484 0.25083
 C878 C 0.08858 0.60716 0.26177
 C879 C 0.07297 0.62109 0.27420
 C880 C 0.14220 0.54801 0.21187
 H881 H 0.09211 0.57864 0.20860
 H882 H 0.14230 0.57684 0.26321
 H883 H 0.16561 0.54930 0.24100
 H884 H 0.11514 0.55118 0.18626
 C885 C 0.89145 0.42754 0.21628
 C886 C 0.88409 0.42036 0.23808
 C887 C 0.86333 0.42874 0.24706
 C888 C 0.85012 0.44448 0.23441
 C889 C 0.94089 0.36741 0.28474
 C890 C 0.87832 0.44327 0.20362
 C891 C 0.89843 0.40514 0.25143
 C892 C 0.91115 0.39281 0.26229
 C893 C 0.92683 0.37887 0.27459
 C894 C 0.85759 0.45209 0.21262
 H895 H 0.90752 0.42121 0.20918
 H896 H 0.85751 0.42334 0.26396
 H897 H 0.83426 0.45096 0.24182
 H898 H 0.88456 0.44874 0.18691
 C899 C 0.86284 0.57112 0.75409
 C900 C 0.88379 0.57917 0.76288
 C901 C 0.89121 0.57194 0.78464
 C902 C 0.87796 0.55643 0.79743
 C903 C 0.94104 0.63041 0.71492
 C904 C 0.84951 0.55560 0.76688
 C905 C 0.89829 0.59402 0.74930
 C906 C 0.91112 0.60599 0.73817
 C907 C 0.92691 0.61942 0.72548
 C908 C 0.85706 0.54790 0.78861
 H909 H 0.85697 0.57655 0.73722
 H910 H 0.90744 0.57802 0.79158
 H911 H 0.88427 0.55088 0.81409
 H912 H 0.83352 0.54934 0.75960
 C913 C 0.75391 0.57144 0.86416
 C914 C 0.76294 0.57954 0.88502
 C915 C 0.78470 0.57218 0.89228
 C916 C 0.79728 0.55652 0.87897
 C917 C 0.71631 0.63230 0.94215
 C918 C 0.76649 0.55576 0.85077
 C919 C 0.74965 0.59469 0.89952
 C920 C 0.73882 0.60697 0.91234
 C921 C 0.72651 0.62086 0.92809
 C922 C 0.78824 0.54797 0.85815
 H923 H 0.73704 0.57698 0.85841
 H924 H 0.79182 0.57830 0.90842
 H925 H 0.81396 0.55090 0.88514
 H926 H 0.75905 0.54949 0.83485
 C927 C 0.21590 0.42743 0.89225
 C928 C 0.23769 0.42022 0.88488
 C929 C 0.24663 0.42850 0.86406
 C930 C 0.23394 0.44419 0.85082
 C931 C 0.28462 0.36749 0.94170
 C932 C 0.20321 0.44311 0.87908
 C933 C 0.25109 0.40507 0.89926
 C934 C 0.26200 0.39279 0.91199
 C935 C 0.27439 0.37891 0.92766
 C936 C 0.21216 0.45183 0.85830
 H937 H 0.20884 0.42118 0.90836
 H938 H 0.26351 0.42309 0.85823
 H939 H 0.24132 0.45060 0.83492
 H940 H 0.18652 0.44861 0.88533
 C941 C 0.24600 0.57121 0.13730
 C942 C 0.23719 0.57946 0.11641
 C943 C 0.21546 0.57225 0.10893
 C944 C 0.20269 0.55661 0.12205
 C945 C 0.28442 0.63217 0.05984
 C946 C 0.23323 0.55555 0.15050
 C947 C 0.25067 0.59460 0.10210
 C948 C 0.26165 0.60687 0.08943
 C949 C 0.27412 0.62074 0.07382
 C950 C 0.21151 0.54792 0.14290
 H951 H 0.26284 0.57663 0.14322
 H952 H 0.20849 0.57848 0.09277
 H953 H 0.18604 0.55112 0.11571
 H954 H 0.24052 0.54917 0.16645
 C955 C 0.75366 0.42928 0.13797
 C956 C 0.76244 0.42099 0.11708
 C957 C 0.78425 0.42803 0.10964
 C958 C 0.79710 0.44356 0.12282
 C959 C 0.71433 0.36955 0.06007
 C960 C 0.76651 0.44482 0.15123
 C961 C 0.74881 0.40610 0.10265
 C962 C 0.73765 0.39409 0.08988
 C963 C 0.72491 0.38059 0.07415
 C964 C 0.78829 0.45232 0.14367
 H965 H 0.73675 0.42399 0.14385
 H966 H 0.79118 0.42178 0.09347
 H967 H 0.81380 0.44895 0.11651
 H968 H 0.75924 0.45125 0.16717
 C969 C 0.86256 0.75331 0.57064
 C970 C 0.88332 0.76225 0.57902
 C971 C 0.89061 0.78420 0.57209
 C972 C 0.87742 0.79704 0.55657
 C973 C 0.94027 0.71421 0.63058
 C974 C 0.84930 0.76614 0.55509
 C975 C 0.89776 0.74864 0.59393
 C976 C 0.91052 0.73750 0.60596
 C977 C 0.92622 0.72478 0.61950
 C978 C 0.85672 0.78807 0.54771
 H979 H 0.85679 0.73629 0.57583
 H980 H 0.90668 0.79126 0.57843
 H981 H 0.88363 0.81385 0.55126
 H982 H 0.83346 0.75874 0.54858
 C983 C 0.89186 0.21529 0.42794
 C984 C 0.88454 0.23705 0.42044
 C985 C 0.86360 0.24606 0.42833
 C986 C 0.85016 0.23347 0.44391
 C987 C 0.94143 0.28390 0.36774
 C988 C 0.87849 0.20269 0.44350
 C989 C 0.89904 0.25035 0.40533
 C990 C 0.91181 0.26123 0.39307
 C991 C 0.92746 0.27362 0.37918
 C992 C 0.85757 0.21171 0.45183
 H993 H 0.90806 0.20817 0.42198
 H994 H 0.85780 0.26292 0.42268
 H995 H 0.83416 0.24090 0.45000
 H996 H 0.88470 0.18601 0.44923
 C997 C 0.13668 0.24728 0.57048
 C998 C 0.11582 0.23834 0.57862
 C999 C 0.10855 0.21644 0.57147
 C1000 C 0.12186 0.20366 0.55598
 C1001 C 0.05850 0.28617 0.63002
 C1002 C 0.15006 0.23450 0.55498
 C1003 C 0.10128 0.25189 0.59349
 C1004 C 0.08843 0.26298 0.60549
 C1005 C 0.07264 0.27564 0.61898
 C1006 C 0.14267 0.21263 0.54738
 H1007 H 0.14243 0.26426 0.57585
 H1008 H 0.09240 0.20938 0.57761
 H1009 H 0.11567 0.18688 0.55051
 H1010 H 0.16598 0.24190 0.54867
 C1011 C 0.10878 0.78386 0.42850
 C1012 C 0.11608 0.76203 0.42114
 C1013 C 0.13687 0.75293 0.42930
 C1014 C 0.15018 0.76551 0.44502
 C1015 C 0.05921 0.71558 0.36808
 C1016 C 0.12202 0.79643 0.44420
 C1017 C 0.10167 0.74876 0.40591
 C1018 C 0.08893 0.73797 0.39355
 C1019 C 0.07325 0.72571 0.37958
 C1020 C 0.14278 0.78733 0.45280
 H1021 H 0.09269 0.79104 0.42234
 H1022 H 0.14265 0.73602 0.42376
 H1023 H 0.16606 0.75802 0.45132
 H1024 H 0.11582 0.81317 0.44981
 C1025 C 0.56953 0.86216 0.75290
 C1026 C 0.57759 0.88329 0.76142
 C1027 C 0.57062 0.89089 0.78322
 C1028 C 0.55536 0.87765 0.79631
 C1029 C 0.62784 0.94036 0.71214
 C1030 C 0.55426 0.84884 0.76600
 C1031 C 0.59218 0.89777 0.74752
 C1032 C 0.60392 0.91056 0.73611
 C1033 C 0.61709 0.92629 0.72304
 C1034 C 0.54681 0.85658 0.78776
 H1035 H 0.57476 0.85614 0.73601
 H1036 H 0.57670 0.90725 0.78996
 H1037 H 0.55000 0.88410 0.81299
 H1038 H 0.54799 0.83272 0.75891
 C1039 C 0.42825 0.89100 0.21691
 C1040 C 0.42130 0.88356 0.23875
 C1041 C 0.42954 0.86260 0.24749
 C1042 C 0.44496 0.84927 0.23456
 C1043 C 0.37067 0.94089 0.28744
 C1044 C 0.44367 0.87775 0.20397
 C1045 C 0.40659 0.89809 0.25249
 C1046 C 0.39475 0.91093 0.26377
 C1047 C 0.38148 0.92674 0.27668
 C1048 C 0.45239 0.85684 0.21274
 H1049 H 0.42204 0.90723 0.21001
 H1050 H 0.42432 0.85672 0.26442
 H1051 H 0.45137 0.83328 0.24180
 H1052 H 0.44901 0.88407 0.18725
 C1053 C 0.57204 0.10854 0.21593
 C1054 C 0.57936 0.11597 0.23767
 C1055 C 0.57123 0.13691 0.24659
 C1056 C 0.55558 0.15024 0.23394
 C1057 C 0.63214 0.05899 0.28440
 C1058 C 0.55641 0.12179 0.20328
 C1059 C 0.59451 0.10153 0.25101
 C1060 C 0.60679 0.08876 0.26188
 C1061 C 0.62069 0.07305 0.27421
 C1062 C 0.54784 0.14270 0.21222
 H1063 H 0.57818 0.09233 0.20888
 H1064 H 0.57674 0.14279 0.26344
 H1065 H 0.54930 0.16624 0.24131
 H1066 H 0.55083 0.11548 0.18663
 C1067 C 0.42766 0.10879 0.78372
 C1068 C 0.42051 0.11624 0.76194
 C1069 C 0.42851 0.13731 0.75324
 C1070 C 0.44390 0.15071 0.76612
 C1071 C 0.37016 0.05868 0.71332
 C1072 C 0.44304 0.12211 0.79660
 C1073 C 0.40587 0.10164 0.74823
 C1074 C 0.39410 0.08873 0.73698
 C1075 C 0.38091 0.07286 0.72408
 C1076 C 0.45153 0.14311 0.78785
 H1077 H 0.42164 0.09248 0.79060
 H1078 H 0.42314 0.14321 0.73636
 H1079 H 0.45013 0.16677 0.75889
 H1080 H 0.44855 0.11576 0.81326
 C1081 C 0.57088 0.75386 0.13713
 C1082 C 0.57887 0.76284 0.11622
 C1083 C 0.57129 0.78453 0.10879
 C1084 C 0.55555 0.79709 0.12202
 C1085 C 0.63215 0.71624 0.05962
 C1086 C 0.55513 0.76641 0.15043
 C1087 C 0.59416 0.74958 0.10185
 C1088 C 0.60656 0.73876 0.08916
 C1089 C 0.62060 0.72644 0.07357
 C1090 C 0.54714 0.78810 0.14290
 H1091 H 0.57660 0.73705 0.14301
 H1092 H 0.57732 0.79163 0.09261
 H1093 H 0.54977 0.81372 0.11573
 H1094 H 0.54898 0.75900 0.16641
 C1095 C 0.42967 0.24646 0.13720
 C1096 C 0.42147 0.23742 0.11638
 C1097 C 0.42874 0.21557 0.10906
 C1098 C 0.44437 0.20291 0.12229
 C1099 C 0.36861 0.28412 0.05953
 C1100 C 0.44533 0.23380 0.15050
 C1101 C 0.40631 0.25077 0.10197
 C1102 C 0.39402 0.26163 0.08922
 C1103 C 0.38009 0.27395 0.07354
 C1104 C 0.45301 0.21196 0.14307
 H1105 H 0.42421 0.26339 0.14300
 H1106 H 0.42254 0.20843 0.09295
 H1107 H 0.44991 0.18616 0.11607
 H1108 H 0.45166 0.24125 0.16640
 C1109 C 0.56999 0.24631 0.86301
 C1110 C 0.57829 0.23717 0.88374
 C1111 C 0.57107 0.21530 0.89097
 C1112 C 0.55537 0.20271 0.87776
 C1113 C 0.63079 0.28402 0.94080
 C1114 C 0.55428 0.23372 0.84972
 C1115 C 0.59343 0.25049 0.89819
 C1116 C 0.60568 0.26137 0.91097
 C1117 C 0.61948 0.27375 0.92671
 C1118 C 0.54662 0.21186 0.85707
 H1119 H 0.57541 0.26326 0.85729
 H1120 H 0.57734 0.20809 0.90702
 H1121 H 0.54987 0.18594 0.88391
 H1122 H 0.54786 0.24125 0.83390
 C1123 C 0.42886 0.78434 0.89271
 C1124 C 0.42142 0.76253 0.88546
 C1125 C 0.42939 0.75343 0.86457
 C1126 C 0.44497 0.76600 0.85111
 C1127 C 0.36864 0.71588 0.94243
 C1128 C 0.44442 0.79691 0.87932
 C1129 C 0.40630 0.74926 0.89999
 C1130 C 0.39403 0.73844 0.91277
 C1131 C 0.38011 0.72610 0.92845
 C1132 C 0.45281 0.78781 0.85845
 H1133 H 0.42284 0.79152 0.90887
 H1134 H 0.42379 0.73653 0.85883
 H1135 H 0.45111 0.75850 0.83516
 H1136 H 0.45008 0.81363 0.88547
 C1137 C 0.75414 0.86338 0.42887
 C1138 C 0.76299 0.88443 0.42099
 C1139 C 0.78457 0.89195 0.42861
 C1140 C 0.79714 0.87869 0.44429
 C1141 C 0.71623 0.94125 0.36805
 C1142 C 0.76671 0.85005 0.44457
 C1143 C 0.74969 0.89886 0.40579
 C1144 C 0.73884 0.91160 0.39347
 C1145 C 0.72648 0.92726 0.37953
 C1146 C 0.78827 0.85768 0.45262
 H1147 H 0.73741 0.85743 0.42313
 H1148 H 0.79156 0.90825 0.42266
 H1149 H 0.81367 0.88507 0.45011
 H1150 H 0.75939 0.83397 0.45066
 C1151 C 0.21661 0.89070 0.57132
 C1152 C 0.23839 0.88324 0.57842
 C1153 C 0.24711 0.86217 0.57036
 C1154 C 0.23422 0.84879 0.55496
 C1155 C 0.28688 0.94056 0.62919
 C1156 C 0.20372 0.87740 0.55593
 C1157 C 0.25208 0.89779 0.59314
 C1158 C 0.26331 0.91065 0.60499
 C1159 C 0.27616 0.92645 0.61831
 C1160 C 0.21246 0.85639 0.54739
 H1161 H 0.20973 0.90701 0.57740
 H1162 H 0.26399 0.85627 0.57569
 H1163 H 0.24144 0.83272 0.54869
 H1164 H 0.18705 0.88374 0.55048
 C1165 C 0.21653 0.10881 0.42914
 C1166 C 0.23826 0.11631 0.42194
 C1167 C 0.24692 0.13741 0.42992
 C1168 C 0.23403 0.15080 0.44533
 C1169 C 0.28691 0.05902 0.37122
 C1170 C 0.20363 0.12212 0.44454
 C1171 C 0.25196 0.10175 0.40722
 C1172 C 0.26322 0.08890 0.39537
 C1173 C 0.27613 0.07312 0.38207
 C1174 C 0.21233 0.14317 0.45299
 H1175 H 0.20968 0.09247 0.42313
 H1176 H 0.26377 0.14334 0.42451
 H1177 H 0.24122 0.16690 0.45152
 H1178 H 0.18700 0.11575 0.45006
 C1179 C 0.78258 0.10872 0.56990
 C1180 C 0.76078 0.11629 0.57687
 C1181 C 0.75221 0.13737 0.56872
 C1182 C 0.76525 0.15065 0.55338
 C1183 C 0.71178 0.05930 0.62748
 C1184 C 0.79562 0.12193 0.55457
 C1185 C 0.74694 0.10184 0.59155
 C1186 C 0.73559 0.08907 0.60337
 C1187 C 0.72260 0.07336 0.61665
 C1188 C 0.78702 0.14294 0.54595
 H1189 H 0.78936 0.09240 0.57605
 H1190 H 0.73532 0.14336 0.57395
 H1191 H 0.75813 0.16673 0.54705
 H1192 H 0.81230 0.11550 0.54923
 C1193 C 0.86388 0.57094 0.24655
 C1194 C 0.88477 0.57896 0.23758
 C1195 C 0.89216 0.57142 0.21590
 C1196 C 0.87892 0.55570 0.20334
 C1197 C 0.94151 0.63209 0.28414
 C1198 C 0.85056 0.55520 0.23400
 C1199 C 0.89917 0.59421 0.25084
 C1200 C 0.91189 0.60658 0.26165
 C1201 C 0.92753 0.62057 0.27396
 C1202 C 0.85805 0.54725 0.21232
 H1203 H 0.85803 0.57662 0.26335
 H1204 H 0.90833 0.57748 0.20882
 H1205 H 0.88518 0.54996 0.18672
 H1206 H 0.83460 0.54902 0.24139
 C1207 C 0.89092 0.42859 0.78455
 C1208 C 0.88350 0.42140 0.76277
 C1209 C 0.86264 0.42965 0.75391
 C1210 C 0.84940 0.44530 0.76668
 C1211 C 0.94038 0.36912 0.71537
 C1212 C 0.87776 0.44422 0.79731
 C1213 C 0.89789 0.40633 0.74927
 C1214 C 0.91063 0.39414 0.73826
 C1215 C 0.92633 0.38039 0.72574
 C1216 C 0.85694 0.45293 0.78845
 H1217 H 0.90707 0.42236 0.79154
 H1218 H 0.85678 0.42425 0.73703
 H1219 H 0.83347 0.45169 0.75937
 H1220 H 0.88406 0.44971 0.81400
 C1221 C 0.13710 0.57051 0.75513
 C1222 C 0.11617 0.57857 0.76402
 C1223 C 0.10879 0.57120 0.78574
 C1224 C 0.12205 0.55558 0.79841
 C1225 C 0.05915 0.63082 0.71679
 C1226 C 0.15043 0.55488 0.76779
 C1227 C 0.10171 0.59364 0.75061
 C1228 C 0.08892 0.60582 0.73965
 C1229 C 0.07320 0.61955 0.72716
 C1230 C 0.14293 0.54707 0.78949
 H1231 H 0.14295 0.57606 0.73829
 H1232 H 0.09259 0.57728 0.79277
 H1233 H 0.11577 0.54994 0.81505
 H1234 H 0.16641 0.54864 0.76043
 C1235 C 0.13598 0.42938 0.24583
 C1236 C 0.11508 0.42135 0.23687
 C1237 C 0.10771 0.42881 0.21517
 C1238 C 0.12099 0.44447 0.20258
 C1239 C 0.05839 0.36835 0.28363
 C1240 C 0.14932 0.44505 0.23324
 C1241 C 0.10065 0.40616 0.25017
 C1242 C 0.08793 0.39383 0.26102
 C1243 C 0.07232 0.37986 0.27338
 C1244 C 0.14186 0.45293 0.21155
 H1245 H 0.14181 0.42375 0.26265
 H1246 H 0.09154 0.42276 0.20809
 H1247 H 0.11474 0.45017 0.18595
 H1248 H 0.16529 0.45125 0.24064
   
