data_POSCAR
  _audit_creation_date              2014-09-24
  _audit_creation_method            'ToBaCCo'
  _symmetry_space_group_name_H-M    'P1'
  _symmetry_Int_Tables_number       1
  _symmetry_cell_setting            triclinic
  loop_
  _symmetry_equiv_pos_as_xyz
 x,y,z
_cell_length_a 51.9053
_cell_length_b 51.7411
_cell_length_c 51.8737
_cell_angle_alpha 91.063500
_cell_angle_beta 90.859100
_cell_angle_gamma 92.960100
loop_
  _atom_site_label
  _atom_site_type_symbol
  _atom_site_fract_x
  _atom_site_fract_y
  _atom_site_fract_z
C1 C 0.12369 -0.00127 0.24948
 C2 C 0.37717 0.00898 0.74775
 C3 C 0.87655 0.50879 0.25020
 C4 C 0.62182 0.49340 0.74506
 C5 C 0.25658 0.12513 1.00301
 C6 C 0.74371 0.37263 1.00124
 C7 C 0.24677 0.87431 0.50152
 C8 C 0.74883 0.62370 0.49921
 C9 C 0.00489 0.25503 0.12683
 C10 C -0.00068 0.74854 0.37551
 C11 C 0.50162 0.24284 0.87268
 C12 C 0.50196 0.74712 0.62535
 C13 C 0.87352 1.00577 0.74558
 C14 C 0.37475 0.51047 0.24162
 C15 C 0.62555 0.99557 0.25169
 C16 C 0.12319 0.49605 0.75403
 C17 C 0.74412 0.87402 0.00259
 C18 C 0.23698 0.37450 0.50687
 C19 C 0.25639 0.62437 -0.00350
 C20 C 0.75842 0.12356 0.49684
 C21 C 1.00631 0.75044 0.87345
 C22 C 0.50765 0.24289 0.37474
 C23 C 0.99828 0.25316 0.62549
 C24 C 0.49465 0.74698 0.12536
 O25 O 0.05723 1.05275 0.99488
 O26 O 0.03484 1.06043 0.95600
 O27 O -0.00589 1.05939 1.04920
 O28 O -0.04328 1.03879 1.05678
 O29 O 0.04676 0.99647 1.05577
 O30 O 0.05192 0.95776 1.03213
 O31 O -0.07536 0.98843 0.98029
 O32 O -0.07462 1.03124 0.99650
 O33 O -0.01647 0.98822 0.92475
 O34 O 0.02865 1.00077 0.92442
 O35 O -0.02023 0.92988 0.98126
 O36 O -0.00881 0.92884 1.02699
 O37 O -0.06060 0.95212 0.99800
 O38 O -0.03953 0.94580 1.04039
 O39 O 0.00106 0.94680 0.94702
 O40 O 0.04300 0.97131 0.94227
 O41 O -0.05144 1.00725 0.94077
 O42 O -0.05584 1.04783 0.96283
 O43 O 0.07153 1.01746 1.01504
 O44 O 0.07015 0.97325 1.00039
 O45 O 0.01220 1.01594 1.07212
 O46 O -0.03314 1.00147 1.06992
 O47 O 0.01628 1.07598 1.01533
 O48 O 0.00305 1.07735 0.97117
 Zr49 Zr 0.01744 1.04459 0.98917
 O50 O -0.00651 1.02240 0.96327
 Zr51 Zr -0.01243 1.01979 1.03985
 O52 O -0.03808 0.99677 1.01598
 Zr53 Zr 0.03860 0.99203 1.01619
 O54 O 0.01533 0.96751 0.99170
 Zr55 Zr -0.04251 1.01399 0.98000
 O56 O -0.01950 1.03879 1.00502
 Zr57 Zr 0.00867 0.98608 0.95675
 O58 O 0.03445 1.00959 0.98020
 Zr59 Zr -0.02159 0.96143 1.00733
 O60 O 0.00289 0.98338 1.03353
 O61 O 0.02392 1.02777 1.02467
 O62 O -0.02801 0.97791 0.97154
 C63 C 0.07520 1.03978 1.00486
 C64 C 0.00544 1.07828 1.03728
 C65 C 0.03402 1.00548 1.07465
 C66 C -0.07864 0.96512 0.98818
 C67 C -0.03880 0.99756 0.92215
 C68 C -0.00966 0.92780 0.95916
 H69 H -0.00809 1.03197 0.94707
 H70 H 0.02414 0.95119 0.98926
 H71 H 0.03538 1.03870 1.03633
 H72 H -0.05487 0.99433 1.02458
 H73 H -0.06774 1.04592 1.00752
 H74 H -0.05923 1.03280 1.04733
 H75 H 0.04765 0.95680 0.95327
 H76 H 0.07367 0.98124 0.98352
 H77 H -0.04258 1.05448 0.95080
 H78 H -0.01429 1.07969 0.97828
 H79 H 0.00778 0.92428 1.01945
 H80 H 0.03784 0.95050 1.04292
 H81 H 0.04538 1.04682 0.94856
 H82 H 0.02234 1.01807 0.92085
 H83 H -0.02547 0.98459 1.07265
 H84 H -0.05367 0.95696 1.04519
 O85 O 0.47888 0.48077 0.42119
 O86 O 0.52330 0.49268 0.42126
 O87 O 0.47728 0.42203 0.48083
 O88 O 0.48416 0.42003 0.52239
 O89 O 0.41958 0.48182 0.47881
 O90 O 0.42095 0.52579 0.49126
 O91 O 0.54343 0.49223 0.55153
 O92 O 0.54643 0.45193 0.53073
 O93 O 0.55196 0.54634 0.49092
 O94 O 0.52953 0.55351 0.45109
 O95 O 0.49177 0.55283 0.54538
 O96 O 0.45051 0.53025 0.55177
 O97 O 0.50898 0.51200 0.56775
 O98 O 0.46244 0.49819 0.56739
 O99 O 0.51234 0.56913 0.51047
 O100 O 0.49829 0.56917 0.46437
 O101 O 0.56664 0.51153 0.51159
 O102 O 0.56644 0.46709 0.49731
 O103 O 0.44406 0.50028 0.43698
 O104 O 0.44033 0.54093 0.45973
 O105 O 0.43424 0.44588 0.49739
 O106 O 0.45638 0.44304 0.53986
 O107 O 0.49572 0.43830 0.44474
 O108 O 0.53687 0.46088 0.43976
 Zr109 Zr 0.50340 0.47787 0.45350
 O110 O 0.52889 0.50196 0.47617
 Zr111 Zr 0.47374 0.45469 0.50495
 O112 O 0.49858 0.47719 0.52995
 Zr113 Zr 0.45270 0.50663 0.47644
 O114 O 0.47596 0.53149 0.50070
 Zr115 Zr 0.53417 0.48548 0.51243
 O116 O 0.51065 0.45986 0.48875
 Zr117 Zr 0.51248 0.53741 0.48437
 O118 O 0.48829 0.51459 0.45866
 Zr119 Zr 0.48332 0.51362 0.53595
 O120 O 0.45703 0.49008 0.51292
 O121 O 0.46715 0.47051 0.46906
 O122 O 0.51968 0.52165 0.52042
 C123 C 0.45685 0.49066 0.41840
 C124 C 0.48648 0.41941 0.45813
 C125 C 0.41610 0.45906 0.48799
 C126 C 0.53119 0.50232 0.57021
 C127 C 0.56998 0.53387 0.50142
 C128 C 0.50276 0.57156 0.53304
 H129 H 0.54524 0.50446 0.46683
 H130 H 0.46727 0.54788 0.50318
 H131 H 0.45578 0.45916 0.45770
 H132 H 0.50082 0.46780 0.54619
 H133 H 0.53889 0.43685 0.52067
 H134 H 0.49941 0.42441 0.53356
 H135 H 0.48285 0.57483 0.47343
 H136 H 0.45393 0.54678 0.44767
 H137 H 0.57058 0.47471 0.48044
 H138 H 0.54237 0.44891 0.45321
 H139 H 0.44449 0.54305 0.53942
 H140 H 0.41857 0.51971 0.50909
 H141 H 0.51775 0.51052 0.41897
 H142 H 0.54144 0.54088 0.44414
 H143 H 0.44280 0.45526 0.54362
 H144 H 0.47068 0.48229 0.57276
 O145 O 0.51934 0.00434 0.42836
 O146 O 0.47439 -0.00578 0.42780
 O147 O 0.52455 0.06762 0.48534
 O148 O 0.51784 0.07304 0.52684
 O149 O 0.57916 0.00493 0.48774
 O150 O 0.57537 -0.03825 0.50178
 O151 O 0.45601 0.00669 0.55725
 O152 O 0.45498 0.04541 0.53475
 O153 O 0.44402 -0.05222 0.50005
 O154 O 0.46557 -0.06190 0.45862
 O155 O 0.50332 -0.05784 0.55455
 O156 O 0.54648 -0.03689 0.56080
 O157 O 0.48949 -0.01356 0.57512
 O158 O 0.53611 -0.00354 0.57573
 O159 O 0.48286 -0.07557 0.51898
 O160 O 0.49442 -0.08006 0.47435
 O161 O 0.43125 -0.01458 0.51767
 O162 O 0.43380 0.02884 0.50155
 O163 O 0.55336 -0.01552 0.44578
 O164 O 0.55535 -0.05456 0.47001
 O165 O 0.56629 0.04342 0.50338
 O166 O 0.54569 0.05013 0.54546
 O167 O 0.50425 0.04948 0.44982
 O168 O 0.46279 0.02834 0.44401
 Zr169 Zr 0.49529 0.01091 0.45978
 O170 O 0.46874 -0.00985 0.48272
 Zr171 Zr 0.52676 0.03670 0.51094
 O172 O 0.50122 0.01728 0.53617
 Zr173 Zr 0.54477 -0.01847 0.48519
 O174 O 0.52034 -0.04036 0.50951
 Zr175 Zr 0.46504 0.00974 0.51816
 O176 O 0.48953 0.03214 0.49403
 Zr177 Zr 0.48343 -0.04543 0.49249
 O178 O 0.50870 -0.02605 0.46677
 Zr179 Zr 0.51434 -0.01964 0.54397
 O180 O 0.54156 0.00102 0.52086
 O181 O 0.53199 0.01771 0.47591
 O182 O 0.47754 -0.02666 0.52778
 C183 C 0.54090 -0.00664 0.42653
 C184 C 0.51473 0.06893 0.46254
 C185 C 0.58365 0.02857 0.49521
 C186 C 0.46798 -0.00239 0.57665
 C187 C 0.42678 -0.03800 0.50950
 C188 C 0.49189 -0.07698 0.54203
 H189 H 0.45212 -0.01221 0.47324
 H190 H 0.52811 -0.05707 0.51270
 H191 H 0.54367 0.02764 0.46435
 H192 H 0.49979 0.02801 0.55199
 H193 H 0.46336 0.05926 0.52438
 H194 H 0.50341 0.06996 0.53882
 H195 H 0.51114 -0.08450 0.48202
 H196 H 0.54141 -0.06065 0.45778
 H197 H 0.42854 0.01976 0.48522
 H198 H 0.45741 0.04110 0.45706
 H199 H 0.55087 -0.05161 0.54953
 H200 H 0.57814 -0.03092 0.51943
 H201 H 0.47893 -0.02411 0.42664
 H202 H 0.45168 -0.05068 0.45325
 H203 H 0.55846 0.03732 0.54997
 H204 H 0.53017 0.01403 0.57915
 O205 O -0.06117 0.45267 0.99926
 O206 O -0.04141 0.44579 0.95841
 O207 O 0.00148 0.44810 1.05234
 O208 O 0.03990 0.46792 1.05970
 O209 O -0.04955 0.51190 1.05870
 O210 O -0.05568 0.54947 1.03532
 O211 O 0.07131 0.51635 0.98662
 O212 O 0.07013 0.47376 0.99951
 O213 O 0.01148 0.51792 0.92893
 O214 O -0.03168 0.50554 0.92599
 O215 O 0.01685 0.57580 0.98625
 O216 O 0.00570 0.57816 1.03197
 O217 O 0.05720 0.55340 1.00432
 O218 O 0.03616 0.56128 1.04583
 O219 O -0.00633 0.55905 0.95183
 O220 O -0.04916 0.53264 0.94708
 O221 O 0.04705 0.50002 0.94543
 O222 O 0.04976 0.45732 0.96571
 O223 O -0.07531 0.48927 1.01797
 O224 O -0.07408 0.53324 1.00293
 O225 O -0.01497 0.49231 1.07518
 O226 O 0.03040 0.50569 1.07399
 O227 O -0.01897 0.43027 1.01673
 O228 O -0.00843 0.42890 0.97206
 Zr229 Zr -0.02199 0.46157 0.99167
 O230 O 0.00155 0.48336 0.96643
 Zr231 Zr 0.00890 0.48723 1.04321
 O232 O 0.03423 0.50959 1.02021
 Zr233 Zr -0.04237 0.51487 1.01922
 O234 O -0.01927 0.53898 0.99573
 Zr235 Zr 0.03788 0.49175 0.98386
 O236 O 0.01524 0.46751 1.00812
 Zr237 Zr -0.01341 0.51975 0.96050
 O238 O -0.03896 0.49651 0.98297
 Zr239 Zr 0.01794 0.54497 1.01209
 O240 O -0.00634 0.52362 1.03736
 O241 O -0.02765 0.47925 1.02735
 O242 O 0.02356 0.52784 0.97608
 C243 C -0.07894 0.46595 1.00921
 C244 C -0.00896 0.42870 1.03944
 C245 C -0.03650 0.50323 1.07758
 C246 C 0.07506 0.53969 0.99523
 C247 C 0.03434 0.50976 0.92685
 C248 C 0.00560 0.57790 0.96422
 H249 H 0.00285 0.47376 0.94990
 H250 H -0.02802 0.55533 0.99351
 H251 H -0.03870 0.46865 1.03894
 H252 H 0.05108 0.51195 1.02929
 H253 H 0.06331 0.45967 1.01057
 H254 H 0.05570 0.47373 1.05059
 H255 H -0.05254 0.54875 0.95675
 H256 H -0.07869 0.52393 0.98653
 H257 H 0.03845 0.45323 0.95052
 H258 H 0.00956 0.42718 0.97814
 H259 H -0.01065 0.58306 1.02382
 H260 H -0.04116 0.55752 1.04572
 H261 H -0.05332 0.45891 0.95255
 H262 H -0.03036 0.48655 0.92561
 H263 H 0.02307 0.52276 1.07698
 H264 H 0.05000 0.54992 1.05101
 O265 O -0.05972 0.55199 0.50972
 O266 O -0.03789 0.55730 0.55048
 O267 O 0.00435 0.56118 0.45768
 O268 O 0.04032 0.54164 0.44951
 O269 O -0.05396 0.49833 0.44595
 O270 O -0.06211 0.45788 0.46602
 O271 O 0.06663 0.48807 0.52171
 O272 O 0.06985 0.53205 0.50873
 O273 O 0.00747 0.48444 0.57651
 O274 O -0.03621 0.49670 0.57786
 O275 O 0.00741 0.42962 0.51599
 O276 O -0.00516 0.42983 0.46993
 O277 O 0.04895 0.45292 0.49988
 O278 O 0.02717 0.44752 0.45772
 O279 O -0.01335 0.44428 0.55117
 O280 O -0.05388 0.46833 0.55675
 O281 O 0.04410 0.50510 0.56237
 O282 O 0.05281 0.54610 0.54433
 O283 O -0.07725 0.51620 0.48870
 O284 O -0.07992 0.47154 0.49847
 O285 O -0.01715 0.51859 0.43167
 O286 O 0.02691 0.50481 0.43293
 O287 O -0.01681 0.57606 0.49256
 O288 O -0.00397 0.57578 0.53721
 Zr289 Zr -0.02098 0.54361 0.51636
 O290 O 0.00073 0.52062 0.54071
 Zr291 Zr 0.00747 0.52142 0.46428
 O292 O 0.03067 0.49767 0.48638
 Zr293 Zr -0.04642 0.49172 0.48509
 O294 O -0.02570 0.46651 0.50787
 Zr295 Zr 0.03622 0.51342 0.52372
 O296 O 0.01574 0.53908 0.50062
 Zr297 Zr -0.01772 0.48379 0.54425
 O298 O -0.04114 0.50792 0.52242
 Zr299 Zr 0.01075 0.46182 0.49192
 O300 O -0.01129 0.48456 0.46731
 O301 O -0.02843 0.52801 0.47963
 O302 O 0.01835 0.47686 0.52901
 C303 C -0.07884 0.53868 0.49927
 C304 C -0.00575 0.57933 0.47076
 C305 C -0.04003 0.50835 0.42808
 C306 C 0.06797 0.46547 0.51125
 C307 C 0.03063 0.49402 0.57998
 C308 C -0.00316 0.42631 0.53798
 H309 H 0.00306 0.52949 0.55768
 H310 H -0.03589 0.44992 0.50905
 H311 H -0.03880 0.53922 0.46873
 H312 H 0.04731 0.49583 0.47769
 H313 H 0.06432 0.54746 0.49949
 H314 H 0.05562 0.53529 0.45851
 H315 H -0.05894 0.45319 0.54553
 H316 H -0.08263 0.47796 0.51627
 H317 H 0.03937 0.55319 0.55530
 H318 H 0.01353 0.57899 0.53021
 H319 H -0.02171 0.42415 0.47778
 H320 H -0.04849 0.45170 0.45463
 H321 H -0.05024 0.54336 0.55604
 H322 H -0.02911 0.51439 0.58211
 H323 H 0.01759 0.48811 0.42850
 H324 H 0.04193 0.45940 0.45335
 O325 O 0.50744 0.92309 0.01646
 O326 O 0.49613 0.92117 -0.02785
 O327 O 0.57037 0.98222 0.01713
 O328 O 0.57569 1.02330 0.00700
 O329 O 0.51037 0.98437 0.07507
 O330 O 0.46708 0.99673 0.07408
 O331 O 0.50616 1.05081 -0.04976
 O332 O 0.54567 1.02989 -0.05261
 O333 O 0.44819 0.99147 -0.05631
 O334 O 0.43915 0.95048 -0.03365
 O335 O 0.44521 1.04738 0.00292
 O336 O 0.46773 1.05482 0.04460
 O337 O 0.48742 1.06852 -0.01482
 O338 O 0.50023 1.07093 0.03096
 O339 O 0.42642 1.01075 -0.01534
 O340 O 0.42286 0.96548 -0.00297
 O341 O 0.48544 1.00941 -0.07205
 O342 O 0.52824 0.99572 -0.07266
 O343 O 0.48921 0.94089 0.05169
 O344 O 0.45053 0.96360 0.05611
 O345 O 0.54741 1.00257 0.05915
 O346 O 0.55436 1.04293 0.03629
 O347 O 0.55198 0.94573 -0.00187
 O348 O 0.52958 0.93837 -0.04211
 Zr349 Zr 0.51326 0.95427 -0.00864
 O350 O 0.49144 0.97597 -0.03407
 Zr351 Zr 0.53986 1.00728 0.01970
 O352 O 0.51948 1.03134 -0.00478
 Zr353 Zr 0.48579 0.97997 0.04244
 O354 O 0.46295 1.00298 0.01922
 Zr355 Zr 0.51061 1.01207 -0.03997
 O356 O 0.53397 0.98914 -0.01680
 Zr357 Zr 0.45647 0.98498 -0.01710
 O358 O 0.47692 0.96044 0.00722
 Zr359 Zr 0.48335 1.03797 0.01117
 O360 O 0.50501 1.01623 0.03715
 O361 O 0.52134 0.97168 0.02723
 O362 O 0.47491 1.02075 -0.02488
 C363 C 0.49739 0.92152 0.03891
 C364 C 0.57150 0.95919 0.00766
 C365 C 0.53353 0.99417 0.07782
 C366 C 0.49707 1.07000 -0.03743
 C367 C 0.46196 1.00061 -0.07477
 C368 C 0.42566 1.03411 -0.00667
 H369 H 0.48853 0.96598 -0.05035
 H370 H 0.44667 1.00581 0.02823
 H371 H 0.53162 0.96088 0.03864
 H372 H 0.52992 1.04757 -0.00740
 H373 H 0.55977 1.01963 -0.04579
 H374 H 0.57199 1.03549 -0.00687
 H375 H 0.41875 0.97377 0.01370
 H376 H 0.44383 0.95104 0.04270
 H377 H 0.52041 0.97809 -0.07575
 H378 H 0.54251 0.95150 -0.04824
 H379 H 0.45286 1.04354 0.04990
 H380 H 0.47456 1.01465 0.07615
 H381 H 0.47797 0.91968 -0.02227
 H382 H 0.45037 0.94463 -0.04761
 H383 H 0.54170 1.04829 0.04918
 H384 H 0.51689 1.07555 0.02276
 O385 O 0.42732 0.51277 0.00658
 O386 O 0.42404 0.46786 -0.00357
 O387 O 0.48728 0.51582 0.06616
 O388 O 0.52806 0.50526 0.06948
 O389 O 0.48922 0.57177 0.00516
 O390 O 0.50197 0.56971 -0.03883
 O391 O 0.55253 0.44669 0.00047
 O392 O 0.53205 0.44493 0.04104
 O393 O 0.49163 0.43816 -0.05430
 O394 O 0.45101 0.46140 -0.06124
 O395 O 0.54918 0.49647 -0.06220
 O396 O 0.55837 0.53950 -0.04189
 O397 O 0.57078 0.48096 -0.02052
 O398 O 0.57451 0.52750 -0.00941
 O399 O 0.51189 0.47722 -0.07821
 O400 O 0.46788 0.49051 -0.08037
 O401 O 0.51040 0.42356 -0.01790
 O402 O 0.49743 0.42406 0.02568
 O403 O 0.44546 0.54728 -0.01418
 O404 O 0.46817 0.55134 -0.05374
 O405 O 0.50797 0.55684 0.04141
 O406 O 0.54793 0.53460 0.04635
 O407 O 0.45006 0.49629 0.05012
 O408 O 0.44132 0.45498 0.02968
 Zr409 Zr 0.45773 0.48789 0.01128
 O410 O 0.47812 0.46167 -0.01094
 Zr411 Zr 0.51181 0.51719 0.03427
 O412 O 0.53462 0.49205 0.01318
 Zr413 Zr 0.48428 0.53843 -0.01890
 O414 O 0.50595 0.51430 -0.04246
 Zr415 Zr 0.51425 0.45644 0.00644
 O416 O 0.49255 0.48041 0.03041
 Zr417 Zr 0.48676 0.47770 -0.04684
 O418 O 0.46359 0.50282 -0.02578
 Zr419 Zr 0.54094 0.50681 -0.02384
 O420 O 0.52058 0.53360 -0.00157
 O421 O 0.47627 0.52410 0.01743
 O422 O 0.52248 0.47044 -0.03017
 C423 C 0.42604 0.53476 -0.00435
 C424 C 0.46398 0.50666 0.06864
 C425 C 0.49922 0.57511 0.02791
 C426 C 0.57183 0.45873 -0.01003
 C427 C 0.50086 0.42015 -0.04076
 C428 C 0.53547 0.48545 -0.08053
 H429 H 0.46763 0.44525 -0.01286
 H430 H 0.50875 0.52263 -0.05925
 H431 H 0.46592 0.53580 0.02791
 H432 H 0.55091 0.48985 0.02281
 H433 H 0.52224 0.45224 0.05545
 H434 H 0.54015 0.49167 0.06533
 H435 H 0.47654 0.50712 -0.08529
 H436 H 0.45565 0.53745 -0.05994
 H437 H 0.47958 0.42087 0.01905
 H438 H 0.45451 0.44932 0.04205
 H439 H 0.54678 0.54438 -0.05609
 H440 H 0.51988 0.57194 -0.03202
 H441 H 0.42203 0.47329 -0.02166
 H442 H 0.44568 0.44680 -0.05013
 H443 H 0.55322 0.54723 0.03307
 H444 H 0.57915 0.52000 0.00733
 O445 O -0.07020 0.01221 0.51192
 O446 O -0.07120 -0.03246 0.50177
 O447 O -0.01023 0.01675 0.57247
 O448 O 0.03099 0.00959 0.57605
 O449 O -0.01025 0.07419 0.51162
 O450 O 0.00163 0.07304 0.46759
 O451 O 0.05821 -0.04777 0.50551
 O452 O 0.03820 -0.05047 0.54654
 O453 O -0.00033 -0.05794 0.45057
 O454 O -0.04264 -0.03761 0.44370
 O455 O 0.05315 0.00456 0.44425
 O456 O 0.06075 0.04622 0.46594
 O457 O 0.07534 -0.01215 0.48585
 O458 O 0.07671 0.03439 0.49837
 O459 O 0.01690 -0.01607 0.42741
 O460 O -0.02804 -0.00681 0.42561
 O461 O 0.01698 -0.07239 0.48779
 O462 O 0.00426 -0.07273 0.53106
 O463 O -0.05314 0.04870 0.49360
 O464 O -0.03151 0.05282 0.45296
 O465 O 0.00868 0.05985 0.54805
 O466 O 0.04967 0.03907 0.55316
 O467 O -0.04699 -0.00315 0.55575
 O468 O -0.05319 -0.04497 0.53482
 Zr469 Zr -0.03846 -0.01104 0.51693
 O470 O -0.01657 -0.03581 0.49446
 Zr471 Zr 0.01422 0.02046 0.54071
 O472 O 0.03842 -0.00325 0.51959
 Zr473 Zr -0.01421 0.04091 0.48764
 O474 O 0.00901 0.01842 0.46410
 Zr475 Zr 0.01967 -0.03954 0.51211
 O476 O -0.00333 -0.01706 0.53621
 Zr477 Zr -0.00821 -0.01901 0.45881
 O478 O -0.03302 0.00448 0.48005
 Zr479 Zr 0.04433 0.01246 0.48293
 O480 O 0.02232 0.03780 0.50518
 O481 O -0.02162 0.02583 0.52377
 O482 O 0.02774 -0.02465 0.47577
 C483 C -0.07214 0.03486 0.50255
 C484 C -0.03338 0.00704 0.57460
 C485 C -0.00038 0.07782 0.53434
 C486 C 0.07711 -0.03474 0.49542
 C487 C 0.00873 -0.07581 0.46449
 C488 C 0.03988 -0.00594 0.42537
 H489 H -0.02622 -0.05268 0.49223
 H490 H 0.01144 0.02738 0.44759
 H491 H -0.03244 0.03692 0.53443
 H492 H 0.05475 -0.00495 0.52930
 H493 H 0.02795 -0.04402 0.56104
 H494 H 0.04305 -0.00407 0.57209
 H495 H -0.02123 0.01089 0.42180
 H496 H -0.04439 0.03889 0.44762
 H497 H -0.01364 -0.07631 0.52474
 H498 H -0.04013 -0.04956 0.54783
 H499 H 0.04859 0.05157 0.45243
 H500 H 0.01941 0.07642 0.47445
 H501 H -0.07271 -0.02778 0.48342
 H502 H -0.04716 -0.05261 0.45459
 H503 H 0.05437 0.05229 0.54024
 H504 H 0.08208 0.02621 0.51454
 O505 O 0.74220 0.17592 0.26212
 O506 O 0.78634 0.17773 0.25071
 O507 O 0.74307 0.23553 0.32268
 O508 O 0.75175 0.27750 0.32638
 O509 O 0.68295 0.23176 0.26229
 O510 O 0.68270 0.24464 0.21852
 O511 O 0.80646 0.30914 0.25677
 O512 O 0.81075 0.28819 0.29688
 O513 O 0.81260 0.25047 0.20051
 O514 O 0.79040 0.20687 0.19332
 O515 O 0.75319 0.30072 0.19487
 O516 O 0.71158 0.30474 0.21631
 O517 O 0.77070 0.32373 0.23725
 O518 O 0.72507 0.32196 0.24861
 O519 O 0.77157 0.26556 0.17777
 O520 O 0.75935 0.21953 0.17568
 O521 O 0.82903 0.27029 0.23701
 O522 O 0.83125 0.25621 0.28019
 O523 O 0.70656 0.19073 0.24253
 O524 O 0.70055 0.21283 0.20317
 O525 O 0.69956 0.25164 0.29870
 O526 O 0.72191 0.29410 0.30416
 O527 O 0.76156 0.20029 0.30578
 O528 O 0.80124 0.19621 0.28389
 Zr529 Zr 0.76716 0.20917 0.26672
 O530 O 0.79183 0.23291 0.24428
 Zr531 Zr 0.73873 0.25989 0.29109
 O532 O 0.76229 0.28581 0.26991
 Zr533 Zr 0.71502 0.23045 0.23791
 O534 O 0.73740 0.25513 0.21426
 Zr535 Zr 0.79763 0.26957 0.26211
 O536 O 0.77534 0.24483 0.28614
 Zr537 Zr 0.77385 0.24022 0.20885
 O538 O 0.75030 0.21384 0.23003
 Zr539 Zr 0.74538 0.29086 0.23334
 O540 O 0.72026 0.26717 0.25578
 O541 O 0.73125 0.22362 0.27391
 O542 O 0.78150 0.27670 0.22596
 C543 C 0.71958 0.17248 0.25177
 C544 C 0.75271 0.21326 0.32480
 C545 C 0.68067 0.24143 0.28510
 C546 C 0.79341 0.32722 0.24725
 C547 C 0.83119 0.26174 0.21380
 C548 C 0.76284 0.28824 0.17596
 H549 H 0.80823 0.22439 0.24180
 H550 H 0.72806 0.25709 0.19773
 H551 H 0.72031 0.21194 0.28458
 H552 H 0.76479 0.30225 0.27986
 H553 H 0.80465 0.27713 0.31118
 H554 H 0.76586 0.29030 0.32237
 H555 H 0.74247 0.22637 0.17109
 H556 H 0.71410 0.20167 0.19677
 H557 H 0.83448 0.23892 0.27288
 H558 H 0.80777 0.21013 0.29600
 H559 H 0.70612 0.29280 0.20192
 H560 H 0.68056 0.26231 0.22554
 H561 H 0.78017 0.17569 0.23260
 H562 H 0.80542 0.20302 0.20429
 H563 H 0.70835 0.29804 0.29141
 H564 H 0.73314 0.32711 0.26545
 O565 O 0.69525 0.75194 0.70354
 O566 O 0.71808 0.79247 0.69809
 O567 O 0.75705 0.69952 0.69387
 O568 O 0.79391 0.69172 0.71341
 O569 O 0.70252 0.68917 0.75618
 O570 O 0.69753 0.71050 0.79652
 O571 O 0.82656 0.76561 0.76634
 O572 O 0.82621 0.75232 0.72274
 O573 O 0.76798 0.82151 0.76862
 O574 O 0.72258 0.82033 0.75869
 O575 O 0.77098 0.76209 0.82541
 O576 O 0.75821 0.71707 0.82587
 O577 O 0.81110 0.74455 0.80133
 O578 O 0.78653 0.70221 0.80609
 O579 O 0.75251 0.79767 0.81012
 O580 O 0.70951 0.80172 0.78907
 O581 O 0.80394 0.80678 0.75010
 O582 O 0.80905 0.78692 0.70894
 O583 O 0.67923 0.73118 0.73852
 O584 O 0.68033 0.74327 0.78332
 O585 O 0.73710 0.67463 0.73502
 O586 O 0.78216 0.67636 0.75003
 O587 O 0.73682 0.73432 0.67904
 O588 O 0.74998 0.77902 0.67982
 Zr589 Zr 0.73479 0.75878 0.71170
 O590 O 0.75879 0.78402 0.73465
 Zr591 Zr 0.76290 0.70729 0.73347
 O592 O 0.78857 0.73041 0.75707
 Zr593 Zr 0.71172 0.72875 0.76308
 O594 O 0.73515 0.75246 0.78832
 Zr595 Zr 0.79429 0.76747 0.74164
 O596 O 0.77125 0.74323 0.71610
 Zr597 Zr 0.74304 0.78847 0.77139
 O598 O 0.71719 0.76576 0.74728
 Zr599 Zr 0.77156 0.73700 0.79298
 O600 O 0.74685 0.71145 0.77027
 O601 O 0.72709 0.72236 0.72687
 O602 O 0.77928 0.77385 0.77821
 C603 C 0.67655 0.74160 0.71639
 C604 C 0.74680 0.71232 0.67572
 C605 C 0.71488 0.67113 0.74534
 C606 C 0.82957 0.75525 0.78843
 C607 C 0.79069 0.82496 0.75945
 C608 C 0.76264 0.78490 0.82833
 H609 H 0.76079 0.80069 0.72575
 H610 H 0.72636 0.75422 0.80497
 H611 H 0.71566 0.71114 0.71546
 H612 H 0.80498 0.72166 0.75867
 H613 H 0.81924 0.74187 0.70778
 H614 H 0.80994 0.70111 0.71967
 H615 H 0.70533 0.79040 0.80375
 H616 H 0.67815 0.76100 0.77706
 H617 H 0.79593 0.79862 0.70273
 H618 H 0.76739 0.77267 0.67693
 H619 H 0.74078 0.72286 0.82965
 H620 H 0.71127 0.69945 0.80272
 H621 H 0.70638 0.79824 0.71170
 H622 H 0.72890 0.82484 0.74136
 H623 H 0.77302 0.67175 0.76605
 H624 H 0.80101 0.69799 0.79483
 O625 O 0.29757 0.19730 0.74687
 O626 O 0.30190 0.21964 0.70778
 O627 O 0.30682 0.26056 0.80265
 O628 O 0.28714 0.29638 0.81224
 O629 O 0.24619 0.20103 0.81117
 O630 O 0.20533 0.19241 0.79067
 O631 O 0.23198 0.32266 0.73992
 O632 O 0.27519 0.32709 0.75360
 O633 O 0.22789 0.26377 0.68314
 O634 O 0.24122 0.21906 0.68103
 O635 O 0.17426 0.26247 0.74313
 O636 O 0.17505 0.25036 0.78783
 O637 O 0.19767 0.30475 0.76104
 O638 O 0.19415 0.28162 0.80295
 O639 O 0.18888 0.24308 0.70698
 O640 O 0.21157 0.20278 0.69957
 O641 O 0.24815 0.30078 0.69900
 O642 O 0.29049 0.30918 0.71894
 O643 O 0.26317 0.17854 0.76720
 O644 O 0.21802 0.17547 0.75695
 O645 O 0.26586 0.23825 0.82725
 O646 O 0.25069 0.28209 0.82775
 O647 O 0.32139 0.24131 0.76633
 O648 O 0.31957 0.25373 0.72228
 Zr649 Zr 0.28846 0.23600 0.74240
 O650 O 0.26467 0.25747 0.71875
 Zr651 Zr 0.26707 0.26333 0.79575
 O652 O 0.24270 0.28657 0.77434
 Zr653 Zr 0.23812 0.20901 0.77231
 O654 O 0.21206 0.22979 0.75028
 Zr655 Zr 0.25752 0.29266 0.73739
 O656 O 0.28377 0.27240 0.76000
 Zr657 Zr 0.22818 0.23835 0.71436
 O658 O 0.25312 0.21508 0.73532
 Zr659 Zr 0.20705 0.26624 0.76759
 O660 O 0.23056 0.24397 0.79144
 O661 O 0.27409 0.22772 0.77871
 O662 O 0.22117 0.27429 0.73102
 C663 C 0.28519 0.17759 0.75626
 C664 C 0.32489 0.25167 0.78889
 C665 C 0.25650 0.21497 0.82975
 C666 C 0.20973 0.32387 0.75019
 C667 C 0.23698 0.28715 0.68071
 C668 C 0.17090 0.25259 0.72035
 H669 H 0.27309 0.26001 0.70197
 H670 H 0.19557 0.21944 0.74847
 H671 H 0.28584 0.21741 0.78910
 H672 H 0.24085 0.30318 0.78369
 H673 H 0.29026 0.32199 0.76390
 H674 H 0.28012 0.31175 0.80418
 H675 H 0.19766 0.19695 0.71129
 H676 H 0.22402 0.17322 0.73906
 H677 H 0.29521 0.29737 0.70477
 H678 H 0.32236 0.27147 0.72961
 H679 H 0.17108 0.23266 0.78085
 H680 H 0.19915 0.20592 0.80248
 H681 H 0.28784 0.20761 0.70105
 H682 H 0.25737 0.22822 0.67559
 H683 H 0.23455 0.27208 0.83184
 H684 H 0.20501 0.29743 0.80725
 O685 O 0.18679 0.74460 0.29482
 O686 O 0.20878 0.70584 0.30107
 O687 O 0.24899 0.80275 0.30445
 O688 O 0.28621 0.81296 0.28598
 O689 O 0.19477 0.80637 0.23990
 O690 O 0.18890 0.78294 0.20041
 O691 O 0.31762 0.74060 0.23510
 O692 O 0.31797 0.75569 0.27816
 O693 O 0.25965 0.68021 0.23088
 O694 O 0.21406 0.67654 0.24252
 O695 O 0.26085 0.73811 0.17466
 O696 O 0.24865 0.78321 0.17406
 O697 O 0.30165 0.75792 0.19866
 O698 O 0.27977 0.79873 0.19236
 O699 O 0.24168 0.70128 0.19015
 O700 O 0.19983 0.69307 0.21137
 O701 O 0.29501 0.69872 0.25155
 O702 O 0.29987 0.72025 0.29328
 O703 O 0.17103 0.76299 0.25884
 O704 O 0.17129 0.74942 0.21457
 O705 O 0.22984 0.82481 0.26110
 O706 O 0.27462 0.82668 0.24854
 O707 O 0.22954 0.76587 0.31972
 O708 O 0.24106 0.72222 0.32007
 Zr709 Zr 0.22621 0.74071 0.28745
 O710 O 0.24998 0.71712 0.26576
 Zr711 Zr 0.25490 0.79439 0.26518
 O712 O 0.28016 0.77308 0.24268
 Zr713 Zr 0.20326 0.76735 0.23483
 O714 O 0.22617 0.74509 0.21077
 Zr715 Zr 0.28553 0.73703 0.25927
 O716 O 0.26284 0.75963 0.28361
 Zr717 Zr 0.23385 0.71022 0.22879
 O718 O 0.20834 0.73122 0.25162
 Zr719 Zr 0.26271 0.76389 0.20659
 O720 O 0.23857 0.78773 0.22812
 O721 O 0.21892 0.77615 0.27127
 O722 O 0.27007 0.72827 0.22256
 C723 C 0.16822 0.75315 0.28126
 C724 C 0.23948 0.78899 0.32277
 C725 C 0.20769 0.82600 0.24992
 C726 C 0.32015 0.74915 0.21213
 C727 C 0.28247 0.67932 0.24068
 C728 C 0.25180 0.71462 0.17193
 H729 H 0.25210 0.70080 0.27495
 H730 H 0.21708 0.74216 0.19401
 H731 H 0.20777 0.78677 0.28206
 H732 H 0.29678 0.78310 0.24110
 H733 H 0.31136 0.76598 0.29269
 H734 H 0.30217 0.80543 0.27979
 H735 H 0.19474 0.70418 0.19704
 H736 H 0.16870 0.73182 0.22156
 H737 H 0.28776 0.70584 0.29814
 H738 H 0.25892 0.72950 0.32285
 H739 H 0.23219 0.77419 0.16848
 H740 H 0.20264 0.79510 0.19410
 H741 H 0.19747 0.69856 0.28691
 H742 H 0.22186 0.67241 0.25936
 H743 H 0.26657 0.82905 0.23138
 H744 H 0.29408 0.80454 0.20424
 O745 O 0.24184 0.67688 0.76541
 O746 O 0.28498 0.67856 0.74995
 O747 O 0.24504 0.73709 0.82372
 O748 O 0.25348 0.77897 0.82678
 O749 O 0.18233 0.73242 0.76569
 O750 O 0.18004 0.74319 0.72161
 O751 O 0.30463 0.81035 0.75365
 O752 O 0.31099 0.79043 0.79391
 O753 O 0.30898 0.75031 0.69833
 O754 O 0.28705 0.70807 0.69142
 O755 O 0.24674 0.80023 0.69478
 O756 O 0.20754 0.80477 0.71911
 O757 O 0.26784 0.82438 0.73568
 O758 O 0.22291 0.82240 0.75011
 O759 O 0.26650 0.76603 0.67732
 O760 O 0.25402 0.71928 0.67647
 O761 O 0.32666 0.77106 0.73380
 O762 O 0.33081 0.75811 0.77712
 O763 O 0.20504 0.69095 0.74747
 O764 O 0.19827 0.71131 0.70656
 O765 O 0.20010 0.75329 0.80111
 O766 O 0.22292 0.79547 0.80565
 O767 O 0.26404 0.70241 0.80626
 O768 O 0.30220 0.69782 0.78187
 Zr769 Zr 0.26695 0.71030 0.76684
 O770 O 0.29013 0.73399 0.74300
 Zr771 Zr 0.23909 0.76108 0.79211
 O772 O 0.26134 0.78692 0.76961
 Zr773 Zr 0.21337 0.73036 0.74034
 O774 O 0.23413 0.75520 0.71551
 Zr775 Zr 0.29638 0.77091 0.76016
 O776 O 0.27560 0.74630 0.78550
 Zr777 Zr 0.27047 0.74073 0.70832
 O778 O 0.24842 0.71414 0.73087
 Zr779 Zr 0.24252 0.79126 0.73389
 O780 O 0.21886 0.76744 0.75756
 O781 O 0.23132 0.72454 0.77571
 O782 O 0.27845 0.77751 0.72470
 C783 C 0.21845 0.67316 0.75709
 C784 C 0.25561 0.71525 0.82553
 C785 C 0.18080 0.74294 0.78818
 C786 C 0.29102 0.82818 0.74446
 C787 C 0.32809 0.76165 0.71084
 C788 C 0.25606 0.78793 0.67563
 H789 H 0.30646 0.72554 0.73990
 H790 H 0.22383 0.75682 0.69951
 H791 H 0.22098 0.71323 0.78728
 H792 H 0.26423 0.80352 0.77922
 H793 H 0.30563 0.77971 0.80872
 H794 H 0.26735 0.79177 0.82210
 H795 H 0.23713 0.72636 0.67240
 H796 H 0.21148 0.69951 0.70063
 H797 H 0.33412 0.74091 0.76964
 H798 H 0.30922 0.71180 0.79367
 H799 H 0.20093 0.79231 0.70559
 H800 H 0.17764 0.76094 0.72829
 H801 H 0.27688 0.67555 0.73268
 H802 H 0.30027 0.70222 0.70360
 H803 H 0.20899 0.79944 0.79332
 H804 H 0.23234 0.82837 0.76601
 O805 O 0.25896 0.20227 0.19858
 O806 O 0.29846 0.19759 0.22080
 O807 O 0.20470 0.19459 0.26087
 O808 O 0.19508 0.21513 0.29629
 O809 O 0.19870 0.25639 0.20470
 O810 O 0.22166 0.29603 0.19858
 O811 O 0.27090 0.26803 0.32880
 O812 O 0.25663 0.22490 0.32947
 O813 O 0.32826 0.27103 0.27060
 O814 O 0.32988 0.25989 0.22663
 O815 O 0.27021 0.32657 0.27215
 O816 O 0.22595 0.32650 0.26002
 O817 O 0.25234 0.30320 0.31263
 O818 O 0.20999 0.30684 0.28885
 O819 O 0.30582 0.31166 0.25324
 O820 O 0.31057 0.28784 0.21042
 O821 O 0.31186 0.25202 0.30631
 O822 O 0.28987 0.20945 0.31093
 O823 O 0.24102 0.23756 0.18190
 O824 O 0.25458 0.28276 0.18241
 O825 O 0.18183 0.23609 0.23952
 O826 O 0.18300 0.25183 0.28490
 O827 O 0.23968 0.17892 0.24134
 O828 O 0.28430 0.18054 0.25376
 Zr829 Zr 0.26512 0.21175 0.23787
 O830 O 0.29033 0.23543 0.26135
 Zr831 Zr 0.21343 0.23441 0.26544
 O832 O 0.23649 0.25818 0.29096
 Zr833 Zr 0.23803 0.26292 0.21390
 O834 O 0.26133 0.28879 0.23711
 Zr835 Zr 0.27280 0.24288 0.29674
 O836 O 0.24836 0.21704 0.27417
 Zr837 Zr 0.29648 0.27214 0.24520
 O838 O 0.27414 0.24714 0.21979
 Zr839 Zr 0.24471 0.29387 0.27346
 O840 O 0.21955 0.27090 0.24879
 O841 O 0.22959 0.22690 0.22981
 O842 O 0.28074 0.27937 0.28129
 C843 C 0.25016 0.21501 0.17961
 C844 C 0.21732 0.17596 0.25155
 C845 C 0.17967 0.24633 0.21724
 C846 C 0.26192 0.29059 0.33131
 C847 C 0.33065 0.26216 0.29341
 C848 C 0.29300 0.32987 0.26318
 H849 H 0.30671 0.22673 0.26350
 H850 H 0.26378 0.30532 0.22801
 H851 H 0.21832 0.21524 0.21864
 H852 H 0.22738 0.26003 0.30743
 H853 H 0.24505 0.21032 0.32301
 H854 H 0.20513 0.22005 0.31213
 H855 H 0.30089 0.30334 0.20663
 H856 H 0.27169 0.27564 0.17966
 H857 H 0.30409 0.20504 0.29944
 H858 H 0.27734 0.17799 0.27125
 H859 H 0.23214 0.32999 0.24243
 H860 H 0.21072 0.30305 0.21223
 H861 H 0.30539 0.21136 0.20943
 H862 H 0.33205 0.24171 0.23138
 H863 H 0.17894 0.26749 0.27526
 H864 H 0.20585 0.29654 0.30426
 O865 O 0.79557 0.69496 0.24241
 O866 O 0.80123 0.71847 0.20394
 O867 O 0.80557 0.75712 0.29965
 O868 O 0.78635 0.79358 0.30901
 O869 O 0.74355 0.69875 0.30644
 O870 O 0.70279 0.69118 0.28496
 O871 O 0.73258 0.82189 0.23828
 O872 O 0.77631 0.82467 0.25188
 O873 O 0.72863 0.76400 0.17915
 O874 O 0.74135 0.71898 0.17659
 O875 O 0.67355 0.76134 0.23846
 O876 O 0.67443 0.74856 0.28360
 O877 O 0.69718 0.80353 0.25725
 O878 O 0.69227 0.78052 0.29814
 O879 O 0.68870 0.74314 0.20195
 O880 O 0.71095 0.70299 0.19395
 O881 O 0.74897 0.80051 0.19604
 O882 O 0.78991 0.80868 0.21570
 O883 O 0.76082 0.67661 0.26252
 O884 O 0.71620 0.67417 0.25155
 O885 O 0.76369 0.73540 0.32328
 O886 O 0.74974 0.77930 0.32449
 O887 O 0.82010 0.73747 0.26354
 O888 O 0.81954 0.75168 0.21996
 Zr889 Zr 0.78756 0.73404 0.23882
 O890 O 0.76452 0.75644 0.21531
 Zr891 Zr 0.76595 0.76087 0.29220
 O892 O 0.74200 0.78468 0.27098
 Zr893 Zr 0.73631 0.70740 0.26756
 O894 O 0.71099 0.72880 0.24536
 Zr895 Zr 0.75749 0.79142 0.23443
 O896 O 0.78324 0.77029 0.25685
 Zr897 Zr 0.72784 0.73795 0.20989
 O898 O 0.75198 0.71386 0.23089
 Zr899 Zr 0.70616 0.76493 0.26329
 O900 O 0.72915 0.74218 0.28715
 O901 O 0.77249 0.72537 0.27474
 O902 O 0.72095 0.77370 0.22710
 C903 C 0.78280 0.67540 0.25161
 C904 C 0.82358 0.74758 0.28623
 C905 C 0.75378 0.71229 0.32534
 C906 C 0.71001 0.82299 0.24790
 C907 C 0.73814 0.78730 0.17727
 C908 C 0.67045 0.75201 0.21542
 H909 H 0.77326 0.75923 0.19874
 H910 H 0.69445 0.71861 0.24312
 H911 H 0.78381 0.71462 0.28515
 H912 H 0.74022 0.80108 0.28070
 H913 H 0.79164 0.81881 0.26129
 H914 H 0.77927 0.80914 0.30137
 H915 H 0.69714 0.69678 0.20559
 H916 H 0.72210 0.67237 0.23358
 H917 H 0.79684 0.79558 0.20396
 H918 H 0.82273 0.76905 0.22807
 H919 H 0.66945 0.73160 0.27538
 H920 H 0.69700 0.70438 0.29734
 H921 H 0.78720 0.70660 0.19684
 H922 H 0.75753 0.72825 0.17138
 H923 H 0.73297 0.77003 0.32772
 H924 H 0.70413 0.79526 0.30360
 O925 O 0.75296 0.29772 0.80733
 O926 O 0.79267 0.30780 0.78647
 O927 O 0.69830 0.30378 0.74451
 O928 O 0.69116 0.28549 0.70580
 O929 O 0.69197 0.23855 0.79524
 O930 O 0.71501 0.20053 0.80011
 O931 O 0.76606 0.23974 0.67453
 O932 O 0.75025 0.28177 0.67533
 O933 O 0.82186 0.23954 0.73396
 O934 O 0.82296 0.25038 0.77958
 O935 O 0.76400 0.17876 0.72894
 O936 O 0.71846 0.17486 0.73906
 O937 O 0.74709 0.20209 0.68835
 O938 O 0.70494 0.19269 0.70869
 O939 O 0.79975 0.19667 0.74942
 O940 O 0.80490 0.21847 0.79261
 O941 O 0.80626 0.26058 0.69947
 O942 O 0.78441 0.29957 0.69495
 O943 O 0.73321 0.26032 0.82094
 O944 O 0.74747 0.21705 0.81918
 O945 O 0.67561 0.25878 0.76062
 O946 O 0.67679 0.24648 0.71520
 O947 O 0.73348 0.32172 0.76601
 O948 O 0.77790 0.32578 0.75449
 Zr949 Zr 0.75906 0.29144 0.76774
 O950 O 0.78429 0.27162 0.74397
 Zr951 Zr 0.70757 0.26538 0.73663
 O952 O 0.73065 0.24482 0.71111
 Zr953 Zr 0.73139 0.23634 0.78766
 O954 O 0.75505 0.21412 0.76445
 Zr955 Zr 0.76698 0.26412 0.70754
 O956 O 0.74268 0.28659 0.73045
 Zr957 Zr 0.79028 0.23480 0.75860
 O958 O 0.76765 0.25600 0.78433
 Zr959 Zr 0.73867 0.20911 0.72729
 O960 O 0.71326 0.22855 0.75161
 O961 O 0.72343 0.27234 0.77328
 O962 O 0.77474 0.22771 0.72163
 C963 C 0.74296 0.28340 0.82497
 C964 C 0.71087 0.32297 0.75579
 C965 C 0.67316 0.24742 0.78234
 C966 C 0.75725 0.21627 0.67073
 C967 C 0.82460 0.25057 0.71213
 C968 C 0.78682 0.17749 0.73858
 H969 H 0.80065 0.28213 0.74284
 H970 H 0.75737 0.19744 0.77293
 H971 H 0.71207 0.28212 0.78464
 H972 H 0.72178 0.24271 0.69415
 H973 H 0.73951 0.29554 0.68216
 H974 H 0.69951 0.27983 0.68980
 H975 H 0.79393 0.20283 0.79635
 H976 H 0.76468 0.22562 0.82276
 H977 H 0.79634 0.30653 0.70871
 H978 H 0.77060 0.32886 0.73714
 H979 H 0.72586 0.17004 0.75588
 H980 H 0.70351 0.19362 0.78592
 H981 H 0.79954 0.29404 0.79722
 H982 H 0.82687 0.26811 0.77344
 H983 H 0.67371 0.22915 0.72268
 H984 H 0.70017 0.20426 0.69462
 C985 C 0.08076 0.99767 1.17604
 C986 C 0.10718 1.00446 1.17771
 C987 C 0.12027 1.00425 1.20121
 C988 C 0.10735 0.99806 1.22424
 C989 C 0.08102 0.98981 1.22230
 C990 C 0.06775 0.99017 1.19850
 C991 C 0.06747 0.99818 1.15057
 C992 C 0.07956 0.98850 1.12865
 C993 C 0.06871 0.99106 1.10418
 C994 C 0.04535 1.00330 1.10090
 C995 C 0.03283 1.01244 1.12291
 C996 C 0.04379 1.00986 1.14755
 H997 H 0.14075 1.00947 1.20151
 H998 H 0.07068 0.98270 1.23886
 H999 H 0.07877 0.98343 1.08780
 H1000 H 0.01470 1.02174 1.12110
 H1001 H 0.04748 0.98405 1.19753
 H1002 H 0.09763 0.97906 1.13043
 H1003 H 0.11780 1.01027 1.16078
 H1004 H 0.03418 1.01764 1.16414
 C1005 C 0.57934 0.49765 0.67156
 C1006 C 0.56571 0.49836 0.69480
 C1007 C 0.57867 0.49675 0.71864
 C1008 C 0.60557 0.49384 0.71976
 C1009 C 0.61899 0.49400 0.69627
 C1010 C 0.60618 0.49584 0.67273
 C1011 C 0.56608 0.49864 0.64597
 C1012 C 0.57474 0.48378 0.62518
 C1013 C 0.56364 0.48543 0.60070
 C1014 C 0.54324 0.50170 0.59628
 C1015 C 0.53410 0.51622 0.61712
 C1016 C 0.54548 0.51477 0.64173
 H1017 H 0.56753 0.49830 0.73596
 H1018 H 0.63976 0.49275 0.69625
 H1019 H 0.57088 0.47357 0.58527
 H1020 H 0.51833 0.52885 0.61437
 H1021 H 0.61748 0.49614 0.65535
 H1022 H 0.59010 0.47065 0.62784
 H1023 H 0.54500 0.50000 0.69456
 H1024 H 0.53850 0.52663 0.65728
 C1025 C 0.42064 0.01169 0.67604
 C1026 C 0.43403 0.01605 0.69964
 C1027 C 0.42062 0.01665 0.72296
 C1028 C 0.39360 0.01184 0.72317
 C1029 C 0.38042 0.00933 0.69917
 C1030 C 0.39367 0.00891 0.67613
 C1031 C 0.43426 0.00951 0.65118
 C1032 C 0.45611 -0.00529 0.64886
 C1033 C 0.46712 -0.00937 0.62469
 C1034 C 0.45645 0.00126 0.60240
 C1035 C 0.43496 0.01653 0.60497
 C1036 C 0.42411 0.02067 0.62901
 H1037 H 0.43155 0.02075 0.74056
 H1038 H 0.35961 0.00639 0.69837
 H1039 H 0.48380 -0.02105 0.62342
 H1040 H 0.42644 0.02543 0.58838
 H1041 H 0.38271 0.00549 0.65835
 H1042 H 0.46419 -0.01433 0.66559
 H1043 H 0.45483 0.01909 0.70001
 H1044 H 0.40756 0.03252 0.63021
 C1045 C -0.08116 0.51332 1.17812
 C1046 C -0.10772 0.50729 1.17855
 C1047 C -0.12063 0.50660 1.20172
 C1048 C -0.10741 0.51130 1.22545
 C1049 C -0.08093 0.51894 1.22485
 C1050 C -0.06782 0.51940 1.20139
 C1051 C -0.06793 0.51284 1.15312
 C1052 C -0.04533 0.49940 1.14999
 C1053 C -0.03495 0.49621 1.12545
 C1054 C -0.04703 0.50645 1.10371
 C1055 C -0.06914 0.52063 1.10716
 C1056 C -0.07941 0.52382 1.13155
 H1057 H -0.14115 0.50155 1.20123
 H1058 H -0.07026 0.52472 1.24223
 H1059 H -0.01775 0.48541 1.12347
 H1060 H -0.07872 0.52919 1.09097
 H1061 H -0.04738 0.52480 1.20136
 H1062 H -0.03628 0.49058 1.16635
 H1063 H -0.11850 0.50250 1.16092
 H1064 H -0.09666 0.53455 1.13353
 C1065 C -0.08421 0.50757 0.32535
 C1066 C -0.07388 0.49485 0.30404
 C1067 C -0.08612 0.49543 0.27981
 C1068 C -0.10819 0.50987 0.27605
 C1069 C -0.11873 0.52168 0.29807
 C1070 C -0.10672 0.52090 0.32209
 C1071 C -0.07238 0.50646 0.35133
 C1072 C -0.04595 0.51246 0.35533
 C1073 C -0.03540 0.51336 0.38032
 C1074 C -0.05110 0.50798 0.40166
 C1075 C -0.07745 0.50146 0.39746
 C1076 C -0.08797 0.50079 0.37258
 H1077 H -0.07851 0.48428 0.26408
 H1078 H -0.13678 0.53117 0.29710
 H1079 H -0.01497 0.51819 0.38290
 H1080 H -0.09006 0.49707 0.41342
 H1081 H -0.11526 0.53059 0.33831
 H1082 H -0.03363 0.51707 0.33921
 H1083 H -0.05687 0.48380 0.30633
 H1084 H -0.10839 0.49589 0.36992
 C1085 C 0.41580 1.00318 -0.17687
 C1086 C 0.42505 0.99007 -0.19851
 C1087 C 0.41299 0.99211 -0.22273
 C1088 C 0.39224 1.00839 -0.22623
 C1089 C 0.38265 1.02054 -0.20389
 C1090 C 0.39443 1.01827 -0.17984
 C1091 C 0.42786 1.00103 -0.15097
 C1092 C 0.45466 1.00463 -0.14751
 C1093 C 0.46572 1.00464 -0.12275
 C1094 C 0.45020 1.00072 -0.10098
 C1095 C 0.42342 0.99651 -0.10459
 C1096 C 0.41238 0.99679 -0.12930
 H1097 H 0.41973 0.98066 -0.23870
 H1098 H 0.36546 1.03146 -0.20456
 H1099 H 0.48645 1.00770 -0.12068
 H1100 H 0.41094 0.99332 -0.08829
 H1101 H 0.38667 1.02834 -0.16343
 H1102 H 0.46697 1.00812 -0.16389
 H1103 H 0.44112 0.97768 -0.19654
 H1104 H 0.39165 0.99375 -0.13149
 C1105 C 0.58178 0.48575 -0.18123
 C1106 C 0.60059 0.50569 -0.18476
 C1107 C 0.61271 0.50867 -0.20831
 C1108 C 0.60589 0.49236 -0.22983
 C1109 C 0.58699 0.47218 -0.22607
 C1110 C 0.57485 0.46913 -0.20223
 C1111 C 0.57005 0.48254 -0.15543
 C1112 C 0.54340 0.47727 -0.15288
 C1113 C 0.53222 0.47729 -0.12846
 C1114 C 0.54747 0.48268 -0.10613
 C1115 C 0.57426 0.48671 -0.10867
 C1116 C 0.58541 0.48649 -0.13298
 H1117 H 0.62818 0.52341 -0.20892
 H1118 H 0.58204 0.45838 -0.24153
 H1119 H 0.51151 0.47405 -0.12717
 H1120 H 0.58663 0.49047 -0.09187
 H1121 H 0.56066 0.45329 -0.19998
 H1122 H 0.53106 0.47422 -0.16980
 H1123 H 0.60629 0.51898 -0.16908
 H1124 H 0.60611 0.48992 -0.13423
 C1125 C 0.08550 -0.00096 0.32432
 C1126 C 0.07402 0.01088 0.30317
 C1127 C 0.08603 0.01116 0.27909
 C1128 C 0.10907 -0.00166 0.27528
 C1129 C 0.12100 -0.01204 0.29721
 C1130 C 0.10924 -0.01210 0.32108
 C1131 C 0.07339 -0.00146 0.35001
 C1132 C 0.04720 -0.00896 0.35262
 C1133 C 0.03639 -0.01101 0.37711
 C1134 C 0.05153 -0.00534 0.39945
 C1135 C 0.07768 0.00240 0.39671
 C1136 C 0.08847 0.00425 0.37231
 H1137 H 0.07735 0.02158 0.26361
 H1138 H 0.13970 -0.02027 0.29601
 H1139 H 0.01611 -0.01677 0.37852
 H1140 H 0.08987 0.00709 0.41345
 H1141 H 0.11875 -0.02107 0.33708
 H1142 H 0.03523 -0.01371 0.33573
 H1143 H 0.05610 0.02044 0.30545
 H1144 H 0.10868 0.01029 0.37084
 C1145 C 0.17965 1.08453 0.99996
 C1146 C 0.18338 1.11019 0.99210
 C1147 C 0.20794 1.12237 0.99204
 C1148 C 0.23012 1.10947 0.99961
 C1149 C 0.22595 1.08374 1.00819
 C1150 C 0.20131 1.07137 1.00785
 C1151 C 0.15308 1.07225 1.00099
 C1152 C 0.14603 1.05494 1.02062
 C1153 C 0.12074 1.04431 1.02197
 C1154 C 0.10186 1.05115 1.00403
 C1155 C 0.10886 1.06836 0.98443
 C1156 C 0.13418 1.07855 0.98276
 H1157 H 0.20892 1.14245 0.98704
 H1158 H 0.24133 1.07340 1.01680
 H1159 H 0.11584 1.03107 1.03728
 H1160 H 0.09484 1.07358 0.97001
 H1161 H 0.19923 1.05163 1.01435
 H1162 H 0.15988 1.04997 1.03528
 H1163 H 0.16713 1.12142 0.98691
 H1164 H 0.13894 1.09127 0.96700
 C1165 C 0.67347 0.58048 0.49574
 C1166 C 0.67648 0.60591 0.48704
 C1167 C 0.70066 0.61883 0.48694
 C1168 C 0.72312 0.60695 0.49539
 C1169 C 0.71972 0.58136 0.50456
 C1170 C 0.69545 0.56824 0.50426
 C1171 C 0.64723 0.56755 0.49699
 C1172 C 0.64043 0.55094 0.51729
 C1173 C 0.61532 0.53988 0.51887
 C1174 C 0.59644 0.54566 0.50051
 C1175 C 0.60323 0.56210 0.48022
 C1176 C 0.62835 0.57266 0.47831
 H1177 H 0.70112 0.63874 0.48132
 H1178 H 0.73531 0.57180 0.51375
 H1179 H 0.61056 0.52719 0.53466
 H1180 H 0.58921 0.56642 0.46545
 H1181 H 0.69388 0.54870 0.51137
 H1182 H 0.65431 0.54688 0.53226
 H1183 H 0.65992 0.61644 0.48127
 H1184 H 0.63297 0.58477 0.46205
 C1185 C 0.67091 0.41200 -0.00375
 C1186 C 0.67149 0.38508 -0.00147
 C1187 C 0.69485 0.37320 0.00056
 C1188 C 0.71866 0.38771 0.00055
 C1189 C 0.71805 0.41472 -0.00264
 C1190 C 0.69446 0.42669 -0.00448
 C1191 C 0.64567 0.42434 -0.00543
 C1192 C 0.64204 0.44523 -0.02184
 C1193 C 0.61801 0.45626 -0.02362
 C1194 C 0.59706 0.44654 -0.00916
 C1195 C 0.60073 0.42565 0.00718
 C1196 C 0.62473 0.41481 0.00913
 H1197 H 0.69443 0.35233 0.00209
 H1198 H 0.73555 0.42674 -0.00428
 H1199 H 0.61582 0.47235 -0.03641
 H1200 H 0.58517 0.41790 0.01888
 H1201 H 0.69468 0.44750 -0.00639
 H1202 H 0.65764 0.45281 -0.03358
 H1203 H 0.65381 0.37301 -0.00166
 H1204 H 0.62694 0.39910 0.02235
 C1205 C 0.17590 -0.08201 0.49617
 C1206 C 0.19804 -0.07075 0.50851
 C1207 C 0.22081 -0.08419 0.50984
 C1208 C 0.22250 -0.10910 0.49819
 C1209 C 0.19972 -0.11985 0.48595
 C1210 C 0.17716 -0.10652 0.48469
 C1211 C 0.15091 -0.06933 0.49642
 C1212 C 0.12821 -0.08389 0.50220
 C1213 C 0.10437 -0.07266 0.50168
 C1214 C 0.10255 -0.04654 0.49529
 C1215 C 0.12530 -0.03186 0.48960
 C1216 C 0.14929 -0.04312 0.49031
 H1217 H 0.23665 -0.07538 0.52119
 H1218 H 0.19834 -0.13895 0.47758
 H1219 H 0.08733 -0.08455 0.50626
 H1220 H 0.12459 -0.01163 0.48478
 H1221 H 0.16037 -0.11572 0.47499
 H1222 H 0.12892 -0.10405 0.50731
 H1223 H 0.19741 -0.05204 0.51812
 H1224 H 0.16649 -0.03152 0.48567
 C1225 C 0.32238 -0.08322 0.50995
 C1226 C 0.30186 -0.07160 0.49759
 C1227 C 0.27748 -0.08454 0.49545
 C1228 C 0.27264 -0.10927 0.50625
 C1229 C 0.29377 -0.12045 0.51860
 C1230 C 0.31789 -0.10755 0.52075
 C1231 C 0.34896 -0.07122 0.51005
 C1232 C 0.36981 -0.08656 0.50447
 C1233 C 0.39498 -0.07580 0.50468
 C1234 C 0.40002 -0.04937 0.51049
 C1235 C 0.37917 -0.03395 0.51614
 C1236 C 0.35384 -0.04477 0.51579
 H1237 H 0.26292 -0.07575 0.48390
 H1238 H 0.29233 -0.13967 0.52622
 H1239 H 0.41049 -0.08825 0.50014
 H1240 H 0.38237 -0.01349 0.52053
 H1241 H 0.33334 -0.11701 0.53045
 H1242 H 0.36662 -0.10692 0.49957
 H1243 H 0.30499 -0.05309 0.48842
 H1244 H 0.33812 -0.03256 0.52028
 C1245 C -0.18168 0.41670 1.00723
 C1246 C -0.18655 0.39832 0.98739
 C1247 C -0.21039 0.38493 0.98491
 C1248 C -0.23091 0.39000 1.00166
 C1249 C -0.22586 0.40866 1.02161
 C1250 C -0.20169 0.42205 1.02417
 C1251 C -0.15539 0.42929 1.01029
 C1252 C -0.15169 0.45597 1.01559
 C1253 C -0.12680 0.46789 1.01589
 C1254 C -0.10517 0.45334 1.01083
 C1255 C -0.10890 0.42652 1.00656
 C1256 C -0.13363 0.41466 1.00643
 H1257 H -0.21193 0.36984 0.97023
 H1258 H -0.24051 0.41239 1.03564
 H1259 H -0.12457 0.48859 1.01932
 H1260 H -0.09268 0.41464 1.00305
 H1261 H -0.19838 0.43590 1.03992
 H1262 H -0.16807 0.46774 1.01857
 H1263 H -0.17164 0.39385 0.97388
 H1264 H -0.13577 0.39395 1.00297
 C1265 C -0.17903 0.58254 0.50375
 C1266 C -0.20034 0.57175 0.48966
 C1267 C -0.22379 0.58387 0.48947
 C1268 C -0.22684 0.60746 0.50313
 C1269 C -0.20528 0.61750 0.51788
 C1270 C -0.18210 0.60510 0.51847
 C1271 C -0.15334 0.57115 0.50223
 C1272 C -0.13064 0.58729 0.50271
 C1273 C -0.10645 0.57676 0.50164
 C1274 C -0.10440 0.54989 0.49955
 C1275 C -0.12701 0.53372 0.49850
 C1276 C -0.15122 0.54422 0.50001
 H1277 H -0.23901 0.57558 0.47692
 H1278 H -0.20554 0.63542 0.52870
 H1279 H -0.08934 0.58968 0.50222
 H1280 H -0.12596 0.51289 0.49713
 H1281 H -0.16631 0.61364 0.53017
 H1282 H -0.13149 0.60814 0.50365
 H1283 H -0.19864 0.55458 0.47769
 H1284 H -0.16822 0.53120 0.49991
 C1285 C 0.32735 1.08155 0.00213
 C1286 C 0.30479 1.07141 -0.01036
 C1287 C 0.28179 1.08424 -0.00875
 C1288 C 0.28036 1.10785 0.00535
 C1289 C 0.30318 1.11734 0.01837
 C1290 C 0.32600 1.10427 0.01711
 C1291 C 0.35247 1.06927 -0.00134
 C1292 C 0.37561 1.08462 -0.00240
 C1293 C 0.39930 1.07324 -0.00478
 C1294 C 0.40045 1.04622 -0.00662
 C1295 C 0.37732 1.03084 -0.00647
 C1296 C 0.35362 1.04222 -0.00370
 H1297 H 0.26568 1.07665 -0.02055
 H1298 H 0.30408 1.13542 0.02907
 H1299 H 0.41678 1.08561 -0.00505
 H1300 H 0.37761 1.00993 -0.00757
 H1301 H 0.34283 1.11241 0.02752
 H1302 H 0.37549 1.10553 -0.00144
 H1303 H 0.30514 1.05425 -0.02257
 H1304 H 0.33628 1.02975 -0.00272
 C1305 C 0.00628 1.18037 1.08545
 C1306 C 0.00806 1.20340 1.07140
 C1307 C 0.00781 1.22761 1.08405
 C1308 C 0.00521 1.22930 1.11107
 C1309 C 0.00456 1.20601 1.12490
 C1310 C 0.00500 1.18208 1.11237
 C1311 C 0.00576 1.15446 1.07247
 C1312 C -0.01005 1.13395 1.08188
 C1313 C -0.00987 1.10923 1.07068
 C1314 C 0.00591 1.10441 1.04955
 C1315 C 0.02147 1.12498 1.03985
 C1316 C 0.02144 1.14973 1.05122
 H1317 H 0.00991 1.24474 1.07254
 H1318 H 0.00340 1.20643 1.14574
 H1319 H -0.02237 1.09397 1.07842
 H1320 H 0.03385 1.12194 1.02357
 H1321 H 0.00451 1.16484 1.12390
 H1322 H -0.02276 1.13703 1.09788
 H1323 H 0.00936 1.20271 1.05059
 H1324 H 0.03405 1.16501 1.04370
 C1325 C 0.50363 0.67322 0.58247
 C1326 C 0.50218 0.67444 0.60942
 C1327 C 0.50137 0.69812 0.62241
 C1328 C 0.50194 0.72168 0.60906
 C1329 C 0.50458 0.72051 0.58200
 C1330 C 0.50515 0.69654 0.56888
 C1331 C 0.50328 0.64750 0.56903
 C1332 C 0.51874 0.64310 0.54749
 C1333 C 0.51881 0.61844 0.53578
 C1334 C 0.50355 0.59766 0.54548
 C1335 C 0.48798 0.60220 0.56686
 C1336 C 0.48772 0.62676 0.57832
 H1337 H 0.50017 0.69813 0.64324
 H1338 H 0.50654 0.73788 0.57083
 H1339 H 0.53095 0.61561 0.51927
 H1340 H 0.47562 0.58682 0.57459
 H1341 H 0.50651 0.69627 0.54808
 H1342 H 0.53112 0.65858 0.53998
 H1343 H 0.50188 0.65701 0.62066
 H1344 H 0.47509 0.62952 0.59445
 C1345 C -0.00350 0.68094 0.42552
 C1346 C 0.01940 0.69621 0.42288
 C1347 C 0.01970 0.71865 0.40822
 C1348 C -0.00250 0.72553 0.39438
 C1349 C -0.02598 0.71162 0.39962
 C1350 C -0.02638 0.68948 0.41468
 C1351 C -0.00337 0.65552 0.43830
 C1352 C -0.02217 0.64837 0.45641
 C1353 C -0.02272 0.62377 0.46728
 C1354 C -0.00481 0.60565 0.45986
 C1355 C 0.01402 0.61289 0.44179
 C1356 C 0.01486 0.63762 0.43130
 H1357 H 0.03774 0.72988 0.40637
 H1358 H -0.04421 0.71744 0.39194
 H1359 H -0.03749 0.61876 0.48112
 H1360 H 0.02817 0.59943 0.43579
 H1361 H -0.04448 0.67848 0.41705
 H1362 H -0.03642 0.66183 0.46214
 H1363 H 0.03717 0.69054 0.43184
 H1364 H 0.02936 0.64254 0.41716
 C1365 C 0.50245 1.16974 -0.08626
 C1366 C 0.50939 1.19302 -0.07290
 C1367 C 0.50951 1.21672 -0.08557
 C1368 C 0.50181 1.21770 -0.11173
 C1369 C 0.49604 1.19403 -0.12508
 C1370 C 0.49600 1.17055 -0.11252
 C1371 C 0.50191 1.14450 -0.07318
 C1372 C 0.51129 1.12266 -0.08569
 C1373 C 0.50951 1.09850 -0.07419
 C1374 C 0.49835 1.09559 -0.04983
 C1375 C 0.48920 1.11752 -0.03717
 C1376 C 0.49101 1.14174 -0.04872
 H1377 H 0.51605 1.23401 -0.07490
 H1378 H 0.49109 1.19381 -0.14545
 H1379 H 0.51698 1.08212 -0.08441
 H1380 H 0.48058 1.11600 -0.01834
 H1381 H 0.49054 1.15298 -0.12337
 H1382 H 0.52012 1.12428 -0.10442
 H1383 H 0.51521 1.19282 -0.05277
 H1384 H 0.48338 1.15820 -0.03877
 C1385 C 0.50049 0.31755 -0.08652
 C1386 C 0.48673 0.29586 -0.07685
 C1387 C 0.48742 0.27172 -0.08949
 C1388 C 0.50291 0.26844 -0.11135
 C1389 C 0.51602 0.29076 -0.12110
 C1390 C 0.51511 0.31471 -0.10870
 C1391 C 0.49916 0.34348 -0.07433
 C1392 C 0.50350 0.34721 -0.04774
 C1393 C 0.50418 0.37214 -0.03678
 C1394 C 0.50021 0.39373 -0.05221
 C1395 C 0.49527 0.38980 -0.07873
 C1396 C 0.49485 0.36497 -0.08967
 H1397 H 0.47548 0.25571 -0.08241
 H1398 H 0.52658 0.29010 -0.13889
 H1399 H 0.50781 0.37451 -0.01624
 H1400 H 0.49205 0.40597 -0.09114
 H1401 H 0.52570 0.33120 -0.11670
 H1402 H 0.50701 0.33092 -0.03559
 H1403 H 0.47476 0.29779 -0.06008
 H1404 H 0.49124 0.36253 -0.11021
 C1405 C 0.00844 -0.17942 0.42113
 C1406 C -0.01332 -0.19625 0.42396
 C1407 C -0.01535 -0.21994 0.41044
 C1408 C 0.00408 -0.22710 0.39329
 C1409 C 0.02732 -0.21152 0.39356
 C1410 C 0.02909 -0.18762 0.40659
 C1411 C 0.00920 -0.15295 0.43239
 C1412 C 0.01264 -0.13146 0.41641
 C1413 C 0.01234 -0.10630 0.42673
 C1414 C 0.00928 -0.10226 0.45332
 C1415 C 0.00629 -0.12383 0.46933
 C1416 C 0.00592 -0.14896 0.45890
 H1417 H -0.03290 -0.23201 0.41207
 H1418 H 0.04416 -0.21723 0.38338
 H1419 H 0.01474 -0.09002 0.41400
 H1420 H 0.00370 -0.12125 0.48989
 H1421 H 0.04655 -0.17537 0.40515
 H1422 H 0.01504 -0.13419 0.39584
 H1423 H -0.02926 -0.19054 0.43565
 H1424 H 0.00323 -0.16529 0.47152
 C1425 C 0.49558 -0.17858 0.58676
 C1426 C 0.47851 -0.19982 0.58043
 C1427 C 0.48154 -0.22395 0.59167
 C1428 C 0.50191 -0.22775 0.60936
 C1429 C 0.51897 -0.20614 0.61533
 C1430 C 0.51608 -0.18228 0.60394
 C1431 C 0.49213 -0.15247 0.57593
 C1432 C 0.49780 -0.12994 0.59107
 C1433 C 0.49691 -0.10539 0.58038
 C1434 C 0.49002 -0.10269 0.55432
 C1435 C 0.48315 -0.12516 0.53950
 C1436 C 0.48426 -0.14973 0.55015
 H1437 H 0.46732 -0.23952 0.58729
 H1438 H 0.53412 -0.20687 0.62974
 H1439 H 0.50208 -0.08854 0.59242
 H1440 H 0.47781 -0.12385 0.51932
 H1441 H 0.52984 -0.16650 0.60902
 H1442 H 0.50326 -0.13128 0.61121
 H1443 H 0.46224 -0.19758 0.56751
 H1444 H 0.47991 -0.16659 0.53788
 C1445 C -0.00216 0.32793 1.08569
 C1446 C -0.01890 0.30631 1.07987
 C1447 C -0.01585 0.28271 1.09218
 C1448 C 0.00433 0.27980 1.11034
 C1449 C 0.02094 0.30181 1.11594
 C1450 C 0.01800 0.32516 1.10354
 C1451 C -0.00587 0.35362 1.07402
 C1452 C -0.00137 0.37647 1.08890
 C1453 C -0.00290 0.40074 1.07780
 C1454 C -0.00923 0.40288 1.05153
 C1455 C -0.01473 0.38006 1.03680
 C1456 C -0.01302 0.35570 1.04792
 H1457 H -0.02979 0.26682 1.08808
 H1458 H 0.03582 0.30176 1.13070
 H1459 H 0.00112 0.41785 1.08982
 H1460 H -0.01965 0.38100 1.01649
 H1461 H 0.03143 0.34130 1.10835
 H1462 H 0.00349 0.37563 1.10923
 H1463 H -0.03493 0.30788 1.06650
 H1464 H -0.01650 0.33852 1.03588
 C1465 C 0.75399 0.33348 0.07494
 C1466 C 0.73372 0.34999 0.07138
 C1467 C 0.72973 0.36168 0.04778
 C1468 C 0.74534 0.35668 0.02629
 C1469 C 0.76566 0.33988 0.03002
 C1470 C 0.76976 0.32826 0.05387
 C1471 C 0.75865 0.32238 0.10081
 C1472 C 0.76557 0.29663 0.10335
 C1473 C 0.76782 0.28579 0.12779
 C1474 C 0.76311 0.30042 0.15024
 C1475 C 0.75718 0.32644 0.14769
 C1476 C 0.75511 0.33730 0.12333
 H1477 H 0.71484 0.37548 0.04716
 H1478 H 0.77891 0.33635 0.01458
 H1479 H 0.77241 0.26566 0.12902
 H1480 H 0.75374 0.33838 0.16454
 H1481 H 0.78584 0.31593 0.05605
 H1482 H 0.76834 0.28458 0.08644
 H1483 H 0.72101 0.35428 0.08708
 H1484 H 0.75045 0.35740 0.12214
 C1485 C 0.24422 0.83218 0.57448
 C1486 C 0.23556 0.85733 0.57275
 C1487 C 0.23479 0.86978 0.54917
 C1488 C 0.24256 0.85771 0.52609
 C1489 C 0.25116 0.83223 0.52810
 C1490 C 0.25153 0.81960 0.55173
 C1491 C 0.24698 0.82001 0.60016
 C1492 C 0.26744 0.80393 0.60548
 C1493 C 0.27052 0.79348 0.62998
 C1494 C 0.25354 0.79930 0.64983
 C1495 C 0.23314 0.81530 0.64458
 C1496 C 0.22973 0.82528 0.62002
 H1497 H 0.22938 0.88958 0.54968
 H1498 H 0.25966 0.82253 0.51197
 H1499 H 0.28641 0.78117 0.63351
 H1500 H 0.21941 0.81969 0.65936
 H1501 H 0.25839 0.80021 0.55222
 H1502 H 0.28143 0.79981 0.59090
 H1503 H 0.23054 0.86810 0.58988
 H1504 H 0.21340 0.83702 0.61661
 C1505 C 0.74498 0.66629 0.57319
 C1506 C 0.75683 0.67828 0.55210
 C1507 C 0.75756 0.66529 0.52818
 C1508 C 0.74565 0.64019 0.52438
 C1509 C 0.73395 0.62859 0.54609
 C1510 C 0.73332 0.64149 0.56980
 C1511 C 0.74602 0.67860 0.59921
 C1512 C 0.75253 0.66402 0.62071
 C1513 C 0.75278 0.67499 0.64546
 C1514 C 0.74639 0.70082 0.64935
 C1515 C 0.74005 0.71551 0.62779
 C1516 C 0.74001 0.70453 0.60292
 H1517 H 0.76890 0.67437 0.51323
 H1518 H 0.72575 0.60904 0.54538
 H1519 H 0.75783 0.66313 0.66157
 H1520 H 0.73521 0.73552 0.63012
 H1521 H 0.72409 0.63173 0.58578
 H1522 H 0.75759 0.64408 0.61834
 H1523 H 0.76665 0.69718 0.55444
 H1524 H 0.73483 0.71612 0.58665
 C1525 C 0.25378 0.16672 0.07795
 C1526 C 0.24306 0.14151 0.07453
 C1527 C 0.24397 0.12874 0.05074
 C1528 C 0.25490 0.14086 0.02891
 C1529 C 0.26667 0.16597 0.03293
 C1530 C 0.26563 0.17888 0.05691
 C1531 C 0.25336 0.17956 0.10380
 C1532 C 0.24679 0.20545 0.10665
 C1533 C 0.24538 0.21694 0.13125
 C1534 C 0.25074 0.20281 0.15348
 C1535 C 0.25758 0.17700 0.15048
 C1536 C 0.25883 0.16554 0.12600
 H1537 H 0.23625 0.10901 0.04989
 H1538 H 0.27768 0.17538 0.01793
 H1539 H 0.24024 0.23691 0.13283
 H1540 H 0.26199 0.16555 0.16709
 H1541 H 0.27492 0.19802 0.05925
 H1542 H 0.24232 0.21665 0.08989
 H1543 H 0.23398 0.13148 0.09042
 H1544 H 0.26428 0.14566 0.12441
 C1545 C 0.26090 0.16897 0.93068
 C1546 C 0.25054 0.18017 0.95278
 C1547 C 0.25006 0.16692 0.97616
 C1548 C 0.26038 0.14214 0.97843
 C1549 C 0.27125 0.13176 0.95581
 C1550 C 0.27170 0.14493 0.93268
 C1551 C 0.25930 0.18123 0.90510
 C1552 C 0.25176 0.16610 0.88321
 C1553 C 0.25094 0.17704 0.85885
 C1554 C 0.25773 0.20341 0.85569
 C1555 C 0.26510 0.21864 0.87763
 C1556 C 0.26575 0.20768 0.90212
 H1557 H 0.24015 0.17567 0.99199
 H1558 H 0.27905 0.11300 0.95497
 H1559 H 0.24504 0.16474 0.84246
 H1560 H 0.27029 0.23907 0.87593
 H1561 H 0.28014 0.13590 0.91602
 H1562 H 0.24631 0.14573 0.88497
 H1563 H 0.24168 0.19862 0.95170
 H1564 H 0.27173 0.21974 0.91864
 C1565 C 0.75439 0.66612 0.42617
 C1566 C 0.74309 0.67744 0.44769
 C1567 C 0.74201 0.66454 0.47121
 C1568 C 0.75277 0.64007 0.47428
 C1569 C 0.76434 0.62941 0.45218
 C1570 C 0.76532 0.64222 0.42885
 C1571 C 0.75385 0.67829 0.40053
 C1572 C 0.74724 0.66315 0.37839
 C1573 C 0.74732 0.67414 0.35403
 C1574 C 0.75415 0.70055 0.35118
 C1575 C 0.76068 0.71574 0.37337
 C1576 C 0.76040 0.70474 0.39782
 H1577 H 0.73143 0.67334 0.48655
 H1578 H 0.77235 0.61076 0.45191
 H1579 H 0.74208 0.66190 0.33742
 H1580 H 0.76586 0.73619 0.37189
 H1581 H 0.77437 0.63308 0.41260
 H1582 H 0.74178 0.64276 0.37996
 H1583 H 0.73404 0.69574 0.44601
 H1584 H 0.76570 0.71678 0.41455
 C1585 C 0.24776 0.83304 0.42635
 C1586 C 0.23401 0.82224 0.44697
 C1587 C 0.23503 0.83433 0.47134
 C1588 C 0.24960 0.85792 0.47609
 C1589 C 0.26405 0.86790 0.45521
 C1590 C 0.26340 0.85555 0.43107
 C1591 C 0.24503 0.82165 0.39979
 C1592 C 0.24547 0.83775 0.37818
 C1593 C 0.24342 0.82720 0.35320
 C1594 C 0.24040 0.80032 0.34919
 C1595 C 0.23934 0.78420 0.37072
 C1596 C 0.24179 0.79473 0.39572
 H1597 H 0.22268 0.82604 0.48598
 H1598 H 0.27559 0.88574 0.45674
 H1599 H 0.24409 0.84013 0.33700
 H1600 H 0.23730 0.76336 0.36825
 H1601 H 0.27489 0.86409 0.41587
 H1602 H 0.24720 0.85860 0.38051
 H1603 H 0.22140 0.80509 0.44406
 H1604 H 0.24167 0.78170 0.41181
 C1605 C 0.74009 0.32976 0.92738
 C1606 C 0.73942 0.31587 0.95045
 C1607 C 0.73989 0.32894 0.97447
 C1608 C 0.74162 0.35626 0.97587
 C1609 C 0.74059 0.36976 0.95247
 C1610 C 0.73989 0.35680 0.92878
 C1611 C 0.74156 0.31668 0.90172
 C1612 C 0.75727 0.32789 0.88265
 C1613 C 0.75767 0.31703 0.85789
 C1614 C 0.74258 0.29444 0.85153
 C1615 C 0.72742 0.28268 0.87078
 C1616 C 0.72689 0.29373 0.89565
 H1617 H 0.73901 0.31749 0.99165
 H1618 H 0.74109 0.39071 0.95260
 H1619 H 0.76991 0.32637 0.84372
 H1620 H 0.71562 0.26520 0.86652
 H1621 H 0.73942 0.36811 0.91143
 H1622 H 0.76932 0.34521 0.88686
 H1623 H 0.73911 0.29493 0.94996
 H1624 H 0.71450 0.28471 0.90988
 C1625 C 0.83889 0.43127 0.25260
 C1626 C 0.82830 0.45189 0.26603
 C1627 C 0.84023 0.47680 0.26543
 C1628 C 0.86215 0.48188 0.25018
 C1629 C 0.87320 0.46049 0.23800
 C1630 C 0.86156 0.43579 0.23887
 C1631 C 0.82678 0.40483 0.25276
 C1632 C 0.84201 0.38363 0.25705
 C1633 C 0.83121 0.35843 0.25512
 C1634 C 0.80497 0.35391 0.24868
 C1635 C 0.78966 0.37519 0.24466
 C1636 C 0.80046 0.40045 0.24682
 H1637 H 0.83233 0.49207 0.27691
 H1638 H 0.89123 0.46256 0.22788
 H1639 H 0.84349 0.34249 0.25849
 H1640 H 0.76930 0.37235 0.23994
 H1641 H 0.87032 0.42014 0.22864
 H1642 H 0.86236 0.38659 0.26180
 H1643 H 0.81116 0.44861 0.27742
 H1644 H 0.78844 0.41654 0.24320
 C1645 C 0.33701 0.93229 0.74744
 C1646 C 0.32767 0.95262 0.76234
 C1647 C 0.34028 0.97727 0.76238
 C1648 C 0.36171 0.98252 0.74648
 C1649 C 0.37132 0.96141 0.73248
 C1650 C 0.35897 0.93698 0.73264
 C1651 C 0.32480 0.90584 0.74770
 C1652 C 0.34021 0.88453 0.75065
 C1653 C 0.32926 0.85937 0.74932
 C1654 C 0.30264 0.85491 0.74484
 C1655 C 0.28716 0.87627 0.74200
 C1656 C 0.29814 0.90154 0.74358
 H1657 H 0.33341 0.99219 0.77504
 H1658 H 0.38892 0.96333 0.72164
 H1659 H 0.34171 0.84339 0.75173
 H1660 H 0.26653 0.87347 0.73881
 H1661 H 0.36679 0.92156 0.72125
 H1662 H 0.36082 0.88739 0.75403
 H1663 H 0.31112 0.94921 0.77452
 H1664 H 0.28594 0.91769 0.74105
 C1665 C 0.16243 0.92566 0.24372
 C1666 C 0.17615 0.94883 0.23761
 C1667 C 0.16410 0.97249 0.23857
 C1668 C 0.13839 0.97357 0.24683
 C1669 C 0.12449 0.94989 0.25118
 C1670 C 0.13636 0.92647 0.25005
 C1671 C 0.17491 0.90053 0.24392
 C1672 C 0.16170 0.87810 0.23385
 C1673 C 0.17227 0.85398 0.23598
 C1674 C 0.19637 0.85166 0.24820
 C1675 C 0.20983 0.87419 0.25787
 C1676 C 0.19922 0.89839 0.25570
 H1677 H 0.17494 0.98968 0.23262
 H1678 H 0.10431 0.94962 0.25621
 H1679 H 0.16147 0.83714 0.22803
 H1680 H 0.22853 0.87314 0.26722
 H1681 H 0.12520 0.90898 0.25474
 H1682 H 0.14307 0.87922 0.22438
 H1683 H 0.19608 0.94857 0.23177
 H1684 H 0.20969 0.91533 0.26386
 C1685 C 0.66264 0.42142 0.75200
 C1686 C 0.64425 0.42410 0.73230
 C1687 C 0.63172 0.44707 0.72959
 C1688 C 0.63775 0.46882 0.74592
 C1689 C 0.65617 0.46588 0.76586
 C1690 C 0.66864 0.44266 0.76868
 C1691 C 0.67485 0.39623 0.75516
 C1692 C 0.70123 0.39520 0.76139
 C1693 C 0.71286 0.37138 0.76233
 C1694 C 0.69837 0.34811 0.75694
 C1695 C 0.67184 0.34914 0.75161
 C1696 C 0.66022 0.37285 0.75088
 H1697 H 0.61666 0.44708 0.71500
 H1698 H 0.66055 0.48152 0.77964
 H1699 H 0.73336 0.37125 0.76650
 H1700 H 0.66001 0.33159 0.74776
 H1701 H 0.68238 0.44109 0.78440
 H1702 H 0.71306 0.41284 0.76468
 H1703 H 0.63922 0.40821 0.71898
 H1704 H 0.63971 0.37286 0.74674
 C1705 C 0.66512 0.56834 0.74291
 C1706 C 0.67857 0.54547 0.74111
 C1707 C 0.66527 0.52117 0.74141
 C1708 C 0.63822 0.51924 0.74415
 C1709 C 0.62498 0.54242 0.74453
 C1710 C 0.63815 0.56645 0.74401
 C1711 C 0.67878 0.59429 0.74395
 C1712 C 0.66982 0.61381 0.76022
 C1713 C 0.68147 0.63868 0.76049
 C1714 C 0.70261 0.64466 0.74471
 C1715 C 0.71201 0.62503 0.72882
 C1716 C 0.70016 0.60009 0.72840
 H1717 H 0.67634 0.50417 0.73935
 H1718 H 0.60414 0.54184 0.74571
 H1719 H 0.67398 0.65319 0.77326
 H1720 H 0.72830 0.62903 0.71645
 H1721 H 0.62710 0.58363 0.74447
 H1722 H 0.65376 0.60983 0.77289
 H1723 H 0.69939 0.54635 0.73986
 H1724 H 0.70737 0.58553 0.71551
 C1725 C 0.16723 0.07361 0.25497
 C1726 C 0.17800 0.05157 0.26523
 C1727 C 0.16421 0.02748 0.26403
 C1728 C 0.14002 0.02464 0.25117
 C1729 C 0.12894 0.04739 0.24253
 C1730 C 0.14245 0.07125 0.24396
 C1731 C 0.18112 0.09936 0.25593
 C1732 C 0.16798 0.12123 0.26346
 C1733 C 0.17979 0.14594 0.26200
 C1734 C 0.20509 0.14947 0.25293
 C1735 C 0.21852 0.12751 0.24592
 C1736 C 0.20664 0.10264 0.24751
 H1737 H 0.17249 0.01120 0.27325
 H1738 H 0.10959 0.04684 0.23441
 H1739 H 0.16889 0.16231 0.26779
 H1740 H 0.23812 0.12953 0.23909
 H1741 H 0.13348 0.08795 0.23622
 H1742 H 0.14836 0.11921 0.27027
 H1743 H 0.19679 0.05314 0.27467
 H1744 H 0.21709 0.08606 0.24142
 C1745 C 0.33428 0.07979 0.74765
 C1746 C 0.36100 0.08032 0.75207
 C1747 C 0.37412 0.05758 0.75143
 C1748 C 0.36098 0.03328 0.74708
 C1749 C 0.33430 0.03294 0.74124
 C1750 C 0.32105 0.05591 0.74198
 C1751 C 0.32070 0.10433 0.74884
 C1752 C 0.29711 0.10588 0.76160
 C1753 C 0.28550 0.12964 0.76419
 C1754 C 0.29726 0.15227 0.75402
 C1755 C 0.32061 0.15047 0.74086
 C1756 C 0.33212 0.12685 0.73827
 H1757 H 0.39476 0.05882 0.75507
 H1758 H 0.32357 0.01521 0.73576
 H1759 H 0.26743 0.13030 0.77430
 H1760 H 0.33011 0.16736 0.73246
 H1761 H 0.30054 0.05508 0.73768
 H1762 H 0.28799 0.08886 0.77011
 H1763 H 0.37179 0.09836 0.75652
 H1764 H 0.35007 0.12620 0.72795
 C1765 C 0.83176 0.57791 0.24597
 C1766 C 0.85828 0.57941 0.25145
 C1767 C 0.87198 0.55714 0.25237
 C1768 C 0.85959 0.53240 0.24854
 C1769 C 0.83312 0.53104 0.24170
 C1770 C 0.81925 0.55358 0.24094
 C1771 C 0.81769 0.60201 0.24556
 C1772 C 0.79434 0.60395 0.25860
 C1773 C 0.78278 0.62774 0.26052
 C1774 C 0.79439 0.64994 0.24935
 C1775 C 0.81730 0.64763 0.23559
 C1776 C 0.82876 0.62397 0.23369
 H1777 H 0.89249 0.55913 0.25664
 H1778 H 0.82308 0.51285 0.23650
 H1779 H 0.76502 0.62883 0.27108
 H1780 H 0.82660 0.66418 0.22640
 H1781 H 0.79889 0.55207 0.23594
 H1782 H 0.78554 0.58730 0.26806
 H1783 H 0.86845 0.59790 0.25543
 H1784 H 0.84656 0.62289 0.22317
 C1785 C 0.93174 0.26162 0.16729
 C1786 C 0.93471 0.24172 0.14909
 C1787 C 0.95809 0.23904 0.13686
 C1788 C 0.97997 0.25563 0.14298
 C1789 C 0.97679 0.27570 0.16134
 C1790 C 0.95311 0.27846 0.17357
 C1791 C 0.90607 0.26465 0.17901
 C1792 C 0.90374 0.27002 0.20549
 C1793 C 0.87935 0.26999 0.21673
 C1794 C 0.85685 0.26449 0.20169
 C1795 C 0.85922 0.26033 0.17503
 C1796 C 0.88349 0.26055 0.16383
 H1797 H 0.95830 0.22433 0.12183
 H1798 H 0.99256 0.28967 0.16575
 H1799 H 0.87819 0.27332 0.23734
 H1800 H 0.84230 0.25647 0.16281
 H1801 H 0.95130 0.29427 0.18728
 H1802 H 0.92076 0.27318 0.21769
 H1803 H 0.91871 0.22827 0.14392
 H1804 H 0.88460 0.25705 0.14324
 C1805 C 0.42863 0.75564 0.66495
 C1806 C 0.45027 0.77219 0.67105
 C1807 C 0.47402 0.76855 0.65936
 C1808 C 0.47703 0.74800 0.64149
 C1809 C 0.45501 0.73150 0.63570
 C1810 C 0.43150 0.73503 0.64750
 C1811 C 0.40292 0.75978 0.67621
 C1812 C 0.38028 0.75516 0.66118
 C1813 C 0.35598 0.75660 0.67218
 C1814 C 0.35369 0.76299 0.69845
 C1815 C 0.37630 0.76888 0.71320
 C1816 C 0.40064 0.76723 0.70222
 H1817 H 0.48997 0.78236 0.66362
 H1818 H 0.45518 0.71630 0.62117
 H1819 H 0.33900 0.75225 0.66019
 H1820 H 0.37525 0.77382 0.73352
 H1821 H 0.41534 0.72170 0.64255
 H1822 H 0.38133 0.75007 0.64090
 H1823 H 0.44863 0.78852 0.68418
 H1824 H 0.41764 0.77081 0.71436
 C1825 C 0.42712 0.25025 0.83369
 C1826 C 0.44941 0.26281 0.82394
 C1827 C 0.47341 0.26022 0.83608
 C1828 C 0.47590 0.24389 0.85740
 C1829 C 0.45301 0.23220 0.86740
 C1830 C 0.42918 0.23505 0.85554
 C1831 C 0.40147 0.25302 0.82164
 C1832 C 0.39755 0.24851 0.79510
 C1833 C 0.37267 0.24834 0.78435
 C1834 C 0.35136 0.25297 0.79994
 C1835 C 0.35555 0.25845 0.82634
 C1836 C 0.38033 0.25835 0.83708
 H1837 H 0.49000 0.27127 0.82896
 H1838 H 0.45319 0.22119 0.88491
 H1839 H 0.37011 0.24428 0.76389
 H1840 H 0.33960 0.26219 0.83887
 H1841 H 0.41221 0.22538 0.86360
 H1842 H 0.41357 0.24422 0.78288
 H1843 H 0.44812 0.27521 0.80743
 H1844 H 0.38297 0.26210 0.85759
 C1845 C 0.92684 0.75019 0.33099
 C1846 C 0.94141 0.72807 0.33082
 C1847 C 0.96507 0.72817 0.34411
 C1848 C 0.97442 0.75006 0.35875
 C1849 C 0.96097 0.77299 0.35635
 C1850 C 0.93734 0.77288 0.34312
 C1851 C 0.90050 0.74955 0.31927
 C1852 C 0.88050 0.76158 0.33205
 C1853 C 0.85557 0.76081 0.32143
 C1854 C 0.85001 0.74806 0.29768
 C1855 C 0.87003 0.73599 0.28489
 C1856 C 0.89497 0.73666 0.29561
 H1857 H 0.97555 0.71060 0.34410
 H1858 H 0.96836 0.79120 0.36473
 H1859 H 0.84067 0.77029 0.33185
 H1860 H 0.86648 0.72599 0.26656
 H1861 H 0.92717 0.79062 0.34246
 H1862 H 0.88406 0.77131 0.35052
 H1863 H 0.93409 0.71036 0.32124
 H1864 H 0.91001 0.72737 0.28521
 C1865 C 0.06570 0.74551 0.32459
 C1866 C 0.04998 0.76679 0.32443
 C1867 C 0.02765 0.76668 0.33921
 C1868 C 0.02115 0.74587 0.35557
 C1869 C 0.03482 0.72314 0.35235
 C1870 C 0.05709 0.72319 0.33756
 C1871 C 0.09170 0.74708 0.31287
 C1872 C 0.11274 0.73698 0.32595
 C1873 C 0.13750 0.73916 0.31580
 C1874 C 0.14192 0.75149 0.29223
 C1875 C 0.12086 0.76160 0.27908
 C1876 C 0.09604 0.75949 0.28934
 H1877 H 0.01655 0.78384 0.33955
 H1878 H 0.02894 0.70533 0.36163
 H1879 H 0.15318 0.73112 0.32648
 H1880 H 0.12353 0.77115 0.26084
 H1881 H 0.06795 0.70589 0.33674
 H1882 H 0.11015 0.72776 0.34437
 H1883 H 0.05566 0.78410 0.31410
 H1884 H 0.08022 0.76737 0.27874
 C1885 C 0.57313 0.23899 0.82955
 C1886 C 0.57324 0.24402 0.85615
 C1887 C 0.55024 0.24475 0.86937
 C1888 C 0.52618 0.24115 0.85640
 C1889 C 0.52616 0.23458 0.82986
 C1890 C 0.54942 0.23404 0.81649
 C1891 C 0.59797 0.23921 0.81590
 C1892 C 0.60131 0.25263 0.79281
 C1893 C 0.62569 0.25520 0.78167
 C1894 C 0.64710 0.24434 0.79345
 C1895 C 0.64342 0.23020 0.81609
 C1896 C 0.61916 0.22763 0.82713
 H1897 H 0.55117 0.24879 0.88993
 H1898 H 0.50842 0.22960 0.81937
 H1899 H 0.62784 0.26607 0.76413
 H1900 H 0.65935 0.22123 0.82550
 H1901 H 0.54893 0.22937 0.79605
 H1902 H 0.58530 0.26189 0.78389
 H1903 H 0.59119 0.24793 0.86676
 H1904 H 0.61702 0.21684 0.84473
 C1905 C 0.57519 0.74358 0.66821
 C1906 C 0.55190 0.74245 0.68178
 C1907 C 0.52815 0.74355 0.66864
 C1908 C 0.52720 0.74634 0.64160
 C1909 C 0.55071 0.74631 0.62825
 C1910 C 0.57418 0.74503 0.64127
 C1911 C 0.60069 0.74353 0.68167
 C1912 C 0.62145 0.75922 0.67272
 C1913 C 0.64591 0.75837 0.68396
 C1914 C 0.65032 0.74204 0.70473
 C1915 C 0.62946 0.72679 0.71424
 C1916 C 0.60487 0.72749 0.70277
 H1917 H 0.51077 0.74190 0.67979
 H1918 H 0.55082 0.74753 0.60743
 H1919 H 0.66138 0.77075 0.67642
 H1920 H 0.63221 0.71407 0.73029
 H1921 H 0.59163 0.74504 0.63009
 H1922 H 0.61879 0.77228 0.65694
 H1923 H 0.55206 0.74101 0.70257
 H1924 H 0.58930 0.71505 0.71000
 C1925 C 0.07848 0.25130 0.16910
 C1926 C 0.05527 0.25009 0.18281
 C1927 C 0.03144 0.25156 0.16991
 C1928 C 0.03028 0.25483 0.14294
 C1929 C 0.05371 0.25522 0.12944
 C1930 C 0.07727 0.25354 0.14222
 C1931 C 0.10405 0.25027 0.18232
 C1932 C 0.12523 0.26543 0.17344
 C1933 C 0.14966 0.26375 0.18459
 C1934 C 0.15363 0.24712 0.20522
 C1935 C 0.13240 0.23230 0.21457
 C1936 C 0.10786 0.23378 0.20316
 H1937 H 0.01413 0.24958 0.18115
 H1938 H 0.05368 0.25676 0.10864
 H1939 H 0.16542 0.27584 0.17719
 H1940 H 0.13480 0.21938 0.23051
 H1941 H 0.09461 0.25365 0.13087
 H1942 H 0.12293 0.27880 0.15787
 H1943 H 0.05554 0.24812 0.20356
 H1944 H 0.09201 0.22167 0.21032
 C1945 C -0.08512 1.00117 0.82023
 C1946 C -0.07283 1.01310 0.79935
 C1947 C -0.08569 1.01451 0.77547
 C1948 C -0.11093 1.00314 0.77142
 C1949 C -0.12297 0.99189 0.79314
 C1950 C -0.11022 0.99054 0.81676
 C1951 C -0.07270 1.00075 0.84611
 C1952 C -0.08694 1.00673 0.86805
 C1953 C -0.07602 1.00532 0.89265
 C1954 C -0.05055 0.99788 0.89597
 C1955 C -0.03620 0.99201 0.87398
 C1956 C -0.04716 0.99355 0.84925
 H1957 H -0.07612 1.02555 0.76059
 H1958 H -0.14260 0.98436 0.79273
 H1959 H -0.08759 1.01015 0.90909
 H1960 H -0.01645 0.98644 0.87585
 H1961 H -0.12028 0.98134 0.83258
 H1962 H -0.10657 1.01267 0.86617
 H1963 H -0.05368 1.02222 0.80177
 H1964 H -0.03586 0.98869 0.83263
 C1965 C 0.41537 0.50275 0.31545
 C1966 C 0.42013 0.48626 0.29446
 C1967 C 0.40841 0.48992 0.27042
 C1968 C 0.39178 0.51035 0.26649
 C1969 C 0.38780 0.52715 0.28775
 C1970 C 0.39966 0.52360 0.31157
 C1971 C 0.42565 0.49781 0.34167
 C1972 C 0.41023 0.50153 0.36336
 C1973 C 0.42013 0.49851 0.38820
 C1974 C 0.44566 0.49147 0.39201
 C1975 C 0.46081 0.48675 0.37030
 C1976 C 0.45091 0.48992 0.34538
 H1977 H 0.41138 0.47599 0.25505
 H1978 H 0.37443 0.54242 0.28687
 H1979 H 0.40784 0.50202 0.40445
 H1980 H 0.48059 0.48138 0.37255
 H1981 H 0.39589 0.53689 0.32728
 H1982 H 0.39045 0.50693 0.36113
 H1983 H 0.43194 0.46980 0.29690
 H1984 H 0.46328 0.48699 0.32908
 C1985 C 0.58683 -0.01074 0.32590
 C1986 C 0.61122 0.00182 0.32397
 C1987 C 0.62312 0.00388 0.30023
 C1988 C 0.61075 -0.00582 0.27731
 C1989 C 0.58696 -0.02001 0.27969
 C1990 C 0.57481 -0.02182 0.30360
 C1991 C 0.57427 -0.01190 0.35130
 C1992 C 0.58853 -0.01797 0.37341
 C1993 C 0.57760 -0.01659 0.39778
 C1994 C 0.55220 -0.00893 0.40060
 C1995 C 0.53772 -0.00348 0.37837
 C1996 C 0.54862 -0.00507 0.35394
 H1997 H 0.64228 0.01315 0.29994
 H1998 H 0.57777 -0.02987 0.26316
 H1999 H 0.58925 -0.02108 0.41444
 H2000 H 0.51801 0.00225 0.37983
 H2001 H 0.55628 -0.03232 0.30478
 H2002 H 0.60829 -0.02352 0.37184
 H2003 H 0.62107 0.01032 0.34088
 H2004 H 0.53732 -0.00011 0.33720
 C2005 C 0.08276 0.50581 0.82719
 C2006 C 0.07751 0.52144 0.80608
 C2007 C 0.08995 0.51785 0.78254
 C2008 C 0.10742 0.49802 0.77916
 C2009 C 0.11279 0.48288 0.80085
 C2010 C 0.10038 0.48642 0.82413
 C2011 C 0.07058 0.50965 0.85265
 C2012 C 0.08517 0.50726 0.87546
 C2013 C 0.07348 0.50794 0.89947
 C2014 C 0.04689 0.51129 0.90138
 C2015 C 0.03245 0.51500 0.87868
 C2016 C 0.04419 0.51414 0.85453
 H2017 H 0.08623 0.53086 0.76696
 H2018 H 0.12724 0.46860 0.80055
 H2019 H 0.08528 0.50548 0.91657
 H2020 H 0.01193 0.51768 0.87950
 H2021 H 0.10484 0.47396 0.83996
 H2022 H 0.10568 0.50447 0.87473
 H2023 H 0.06435 0.53691 0.80798
 H2024 H 0.03243 0.51598 0.83731
 C2025 C 0.07968 0.49021 0.68082
 C2026 C 0.10668 0.49055 0.68181
 C2027 C 0.11988 0.49204 0.70531
 C2028 C 0.10667 0.49332 0.72887
 C2029 C 0.07943 0.49087 0.72789
 C2030 C 0.06612 0.48968 0.70410
 C2031 C 0.06625 0.49132 0.65540
 C2032 C 0.04325 0.47658 0.64985
 C2033 C 0.03152 0.47734 0.62536
 C2034 C 0.04265 0.49278 0.60599
 C2035 C 0.06543 0.50773 0.61178
 C2036 C 0.07695 0.50713 0.63615
 H2037 H 0.14077 0.49292 0.70516
 H2038 H 0.06821 0.48993 0.74523
 H2039 H 0.01393 0.46564 0.62152
 H2040 H 0.07433 0.52019 0.59752
 H2041 H 0.04524 0.48895 0.70393
 H2042 H 0.03462 0.46412 0.66425
 H2043 H 0.11775 0.48997 0.66430
 H2044 H 0.09427 0.51925 0.63996
 C2045 C 0.58216 0.99923 0.17892
 C2046 C 0.57013 1.00577 0.20207
 C2047 C 0.58366 1.00515 0.22568
 C2048 C 0.60914 0.99684 0.22667
 C2049 C 0.62122 0.99164 0.20306
 C2050 C 0.60789 0.99240 0.17973
 C2051 C 0.56849 0.99965 0.15367
 C2052 C 0.54359 0.98803 0.15021
 C2053 C 0.53205 0.98622 0.12560
 C2054 C 0.54524 0.99606 0.10407
 C2055 C 0.56984 1.00833 0.10784
 C2056 C 0.58126 1.01014 0.13231
 H2057 H 0.57420 1.01150 0.24291
 H2058 H 0.64117 0.98649 0.20271
 H2059 H 0.51300 0.97682 0.12339
 H2060 H 0.58044 1.01650 0.09185
 H2061 H 0.61774 0.98733 0.16223
 H2062 H 0.53341 0.97964 0.16637
 H2063 H 0.55049 1.01187 0.20183
 H2064 H 0.60031 1.01957 0.13449
 C2065 C 0.41596 0.51253 0.16847
 C2066 C 0.38895 0.51172 0.16931
 C2067 C 0.37638 0.51137 0.19278
 C2068 C 0.39030 0.51167 0.21639
 C2069 C 0.41749 0.51432 0.21549
 C2070 C 0.43013 0.51440 0.19180
 C2071 C 0.42894 0.51085 0.14322
 C2072 C 0.45177 0.52565 0.13832
 C2073 C 0.46333 0.52426 0.11414
 C2074 C 0.45219 0.50816 0.09439
 C2075 C 0.42955 0.49320 0.09945
 C2076 C 0.41818 0.49442 0.12356
 H2077 H 0.35548 0.51023 0.19260
 H2078 H 0.42922 0.51632 0.23284
 H2079 H 0.48076 0.53606 0.11082
 H2080 H 0.42066 0.48032 0.08481
 H2081 H 0.45102 0.51540 0.19179
 H2082 H 0.46041 0.53865 0.15298
 H2083 H 0.37741 0.51122 0.15173
 H2084 H 0.40097 0.48228 0.12687
 C2085 C -0.08088 0.01094 0.67465
 C2086 C -0.07128 -0.00167 0.69616
 C2087 C -0.08511 -0.00241 0.71915
 C2088 C -0.10883 0.00983 0.72157
 C2089 C -0.11747 0.02321 0.69973
 C2090 C -0.10374 0.02383 0.67692
 C2091 C -0.06829 0.00945 0.64929
 C2092 C -0.08330 0.00349 0.62700
 C2093 C -0.07193 0.00262 0.60284
 C2094 C -0.04527 0.00786 0.60035
 C2095 C -0.03019 0.01368 0.62270
 C2096 C -0.04158 0.01429 0.64698
 H2097 H -0.07794 -0.01411 0.73448
 H2098 H -0.13528 0.03287 0.69932
 H2099 H -0.08412 -0.00198 0.58607
 H2100 H -0.00956 0.01766 0.62146
 H2101 H -0.11141 0.03401 0.66067
 H2102 H -0.10390 -0.00067 0.62830
 H2103 H -0.05379 -0.01211 0.69477
 H2104 H -0.02964 0.01900 0.66389
 C2105 C -0.18165 0.91742 0.99434
 C2106 C -0.20254 0.92184 0.97777
 C2107 C -0.22662 0.90890 0.98127
 C2108 C -0.23072 0.89161 1.00179
 C2109 C -0.20945 0.88768 1.01840
 C2110 C -0.18560 0.90061 1.01493
 C2111 C -0.15542 0.92934 0.99000
 C2112 C -0.13364 0.91464 0.99349
 C2113 C -0.10880 0.92608 0.99198
 C2114 C -0.10500 0.95254 0.98677
 C2115 C -0.12675 0.96702 0.98196
 C2116 C -0.15173 0.95552 0.98356
 H2117 H -0.24195 0.91172 0.96737
 H2118 H -0.21045 0.87369 1.03358
 H2119 H -0.09254 0.91423 0.99542
 H2120 H -0.12452 0.98746 0.97787
 H2121 H -0.16995 0.89693 1.02819
 H2122 H -0.13583 0.89425 0.99780
 H2123 H -0.20000 0.93447 0.96149
 H2124 H -0.16812 0.96734 0.98077
 C2125 C 0.31208 0.41561 0.49828
 C2126 C 0.29141 0.42033 0.48156
 C2127 C 0.26701 0.40833 0.48536
 C2128 C 0.26243 0.39155 0.50619
 C2129 C 0.28343 0.38749 0.52310
 C2130 C 0.30761 0.39959 0.51938
 C2131 C 0.33857 0.42636 0.49345
 C2132 C 0.35980 0.41101 0.49740
 C2133 C 0.38493 0.42141 0.49487
 C2134 C 0.38946 0.44739 0.48814
 C2135 C 0.36821 0.46247 0.48308
 C2136 C 0.34300 0.45205 0.48573
 H2137 H 0.25182 0.41131 0.47135
 H2138 H 0.28200 0.37393 0.53864
 H2139 H 0.40082 0.40917 0.49862
 H2140 H 0.37102 0.48258 0.47788
 H2141 H 0.32310 0.39581 0.53279
 H2142 H 0.35699 0.39093 0.50271
 H2143 H 0.29436 0.43240 0.46492
 H2144 H 0.32702 0.46434 0.48261
 C2145 C 0.32741 0.58224 -0.00730
 C2146 C 0.30364 0.56898 -0.01319
 C2147 C 0.28052 0.58190 -0.01225
 C2148 C 0.28064 0.60820 -0.00447
 C2149 C 0.30480 0.62134 0.00048
 C2150 C 0.32765 0.60857 -0.00058
 C2151 C 0.35214 0.56909 -0.00804
 C2152 C 0.37414 0.58168 -0.01849
 C2153 C 0.39803 0.57053 -0.01732
 C2154 C 0.40055 0.54646 -0.00568
 C2155 C 0.37839 0.53356 0.00426
 C2156 C 0.35442 0.54475 0.00304
 H2157 H 0.26286 0.57135 -0.01816
 H2158 H 0.30592 0.64179 0.00551
 H2159 H 0.41456 0.58090 -0.02543
 H2160 H 0.37957 0.51491 0.01320
 H2161 H 0.34559 0.61935 0.00416
 H2162 H 0.37288 0.60030 -0.02749
 H2163 H 0.30302 0.54877 -0.01909
 H2164 H 0.33784 0.53473 0.01142
 C2165 C -0.17241 0.07843 0.50184
 C2166 C -0.17963 0.09321 0.52312
 C2167 C -0.20243 0.10635 0.52246
 C2168 C -0.21794 0.10644 0.49978
 C2169 C -0.21176 0.08929 0.47949
 C2170 C -0.18914 0.07566 0.48040
 C2171 C -0.14689 0.06701 0.50177
 C2172 C -0.14473 0.04020 0.49902
 C2173 C -0.12041 0.02966 0.49965
 C2174 C -0.09787 0.04587 0.50234
 C2175 C -0.10013 0.07274 0.50469
 C2176 C -0.12443 0.08317 0.50472
 H2177 H -0.20739 0.11654 0.53987
 H2178 H -0.22386 0.08753 0.46229
 H2179 H -0.11918 0.00889 0.49765
 H2180 H -0.08310 0.08564 0.50689
 H2181 H -0.18417 0.06383 0.46395
 H2182 H -0.16186 0.02744 0.49678
 H2183 H -0.16746 0.09469 0.54030
 H2184 H -0.12574 0.10393 0.50680
 C2185 C 0.68792 0.07316 0.49181
 C2186 C 0.69583 0.08730 0.47035
 C2187 C 0.71920 0.10189 0.47092
 C2188 C 0.73466 0.10405 0.49365
 C2189 C 0.72799 0.08714 0.51391
 C2190 C 0.70472 0.07213 0.51314
 C2191 C 0.66141 0.06126 0.49247
 C2192 C 0.65686 0.03479 0.49705
 C2193 C 0.63155 0.02397 0.49745
 C2194 C 0.61044 0.03962 0.49399
 C2195 C 0.61511 0.06615 0.48969
 C2196 C 0.64034 0.07679 0.48866
 H2197 H 0.72453 0.11179 0.45351
 H2198 H 0.74004 0.08693 0.53112
 H2199 H 0.62845 0.00348 0.50094
 H2200 H 0.59922 0.07864 0.48687
 H2201 H 0.69922 0.06084 0.52973
 H2202 H 0.67287 0.02250 0.50002
 H2203 H 0.68361 0.08744 0.45324
 H2204 H 0.64345 0.09730 0.48525
 C2205 C 0.17941 0.58517 0.99734
 C2206 C 0.18393 0.60810 0.98394
 C2207 C 0.20849 0.62007 0.98342
 C2208 C 0.22985 0.60917 0.99561
 C2209 C 0.22488 0.58675 1.01022
 C2210 C 0.20009 0.57452 1.01052
 C2211 C 0.15287 0.57312 0.99782
 C2212 C 0.14824 0.54656 0.99267
 C2213 C 0.12295 0.53575 0.99137
 C2214 C 0.10181 0.55126 0.99550
 C2215 C 0.10659 0.57778 1.00101
 C2216 C 0.13180 0.58858 1.00208
 H2217 H 0.21046 0.63834 0.97365
 H2218 H 0.24008 0.57881 1.02163
 H2219 H 0.11997 0.51520 0.98731
 H2220 H 0.09083 0.59027 1.00444
 H2221 H 0.19690 0.55718 1.02166
 H2222 H 0.16414 0.53429 0.98910
 H2223 H 0.16833 0.61693 0.97382
 H2224 H 0.13485 0.60909 1.00630
 C2225 C 0.16560 0.41611 0.51009
 C2226 C 0.16531 0.38903 0.50824
 C2227 C 0.18822 0.37633 0.50683
 C2228 C 0.21238 0.39018 0.50706
 C2229 C 0.21262 0.41739 0.51007
 C2230 C 0.18950 0.43017 0.51127
 C2231 C 0.14088 0.42934 0.51047
 C2232 C 0.13763 0.45116 0.52646
 C2233 C 0.11395 0.46298 0.52692
 C2234 C 0.09306 0.45309 0.51151
 C2235 C 0.09647 0.43138 0.49548
 C2236 C 0.12006 0.41978 0.49486
 H2237 H 0.18719 0.35538 0.50552
 H2238 H 0.23045 0.42901 0.51197
 H2239 H 0.11194 0.47970 0.53946
 H2240 H 0.08096 0.42345 0.48304
 H2241 H 0.19036 0.45109 0.51290
 H2242 H 0.15324 0.45883 0.53890
 H2243 H 0.14728 0.37752 0.50812
 H2244 H 0.12205 0.40339 0.48189
 C2245 C 0.67105 0.91311 0.00505
 C2246 C 0.67178 0.88608 0.00338
 C2247 C 0.69521 0.87424 0.00228
 C2248 C 0.71895 0.88890 0.00266
 C2249 C 0.71819 0.91605 0.00541
 C2250 C 0.69454 0.92798 0.00628
 C2251 C 0.64574 0.92541 0.00561
 C2252 C 0.64206 0.94736 0.02126
 C2253 C 0.61795 0.95830 0.02209
 C2254 C 0.59695 0.94742 0.00742
 C2255 C 0.60068 0.92554 -0.00825
 C2256 C 0.62476 0.91480 -0.00926
 H2257 H 0.69490 0.85330 0.00109
 H2258 H 0.73565 0.92825 0.00734
 H2259 H 0.61572 0.97516 0.03438
 H2260 H 0.58505 0.91689 -0.02009
 H2261 H 0.69467 0.94888 0.00776
 H2262 H 0.65767 0.95583 0.03322
 H2263 H 0.65417 0.87392 0.00326
 H2264 H 0.62699 0.89826 -0.02197
 C2265 C 0.00097 0.82545 0.91490
 C2266 C -0.00709 0.80242 0.92701
 C2267 C -0.00484 0.77829 0.91464
 C2268 C 0.00543 0.77637 0.88957
 C2269 C 0.01466 0.79986 0.87848
 C2270 C 0.01198 0.82371 0.89052
 C2271 C -0.00184 0.85137 0.92722
 C2272 C 0.01667 0.87158 0.92286
 C2273 C 0.01345 0.89642 0.93258
 C2274 C -0.00796 0.90169 0.94760
 C2275 C -0.02617 0.88149 0.95279
 C2276 C -0.02328 0.85658 0.94245
 H2277 H -0.01119 0.76160 0.92527
 H2278 H 0.02346 0.80009 0.85971
 H2279 H 0.02820 0.91143 0.92890
 H2280 H -0.04274 0.88504 0.96454
 H2281 H 0.01814 0.84089 0.88023
 H2282 H 0.03388 0.86823 0.91203
 H2283 H -0.01501 0.80299 0.94619
 H2284 H -0.03804 0.84158 0.94601
 C2285 C 0.49884 0.31645 0.41601
 C2286 C 0.48271 0.29464 0.42130
 C2287 C 0.48670 0.27069 0.40936
 C2288 C 0.50715 0.26771 0.39201
 C2289 C 0.52358 0.28980 0.38749
 C2290 C 0.51969 0.31351 0.39954
 C2291 C 0.49358 0.34256 0.42651
 C2292 C 0.49698 0.36440 0.41093
 C2293 C 0.49390 0.38923 0.42098
 C2294 C 0.48712 0.39290 0.44686
 C2295 C 0.48262 0.37099 0.46219
 C2296 C 0.48583 0.34608 0.45212
 H2297 H 0.47303 0.25464 0.41273
 H2298 H 0.53880 0.28959 0.37354
 H2299 H 0.49724 0.40560 0.40853
 H2300 H 0.47741 0.37311 0.48223
 H2301 H 0.53271 0.32986 0.39533
 H2302 H 0.50225 0.36232 0.39091
 H2303 H 0.46628 0.29633 0.43372
 H2304 H 0.48311 0.32966 0.46461
 C2305 C -0.00466 0.32509 0.58228
 C2306 C -0.02330 0.30487 0.57787
 C2307 C -0.02189 0.28168 0.59127
 C2308 C -0.00180 0.27819 0.60939
 C2309 C 0.01596 0.29950 0.61438
 C2310 C 0.01488 0.32222 0.60059
 C2311 C -0.00581 0.34989 0.56899
 C2312 C 0.01379 0.35764 0.55204
 C2313 C 0.01447 0.38238 0.54163
 C2314 C -0.00409 0.39997 0.54857
 C2315 C -0.02380 0.39206 0.56546
 C2316 C -0.02476 0.36711 0.57542
 H2317 H -0.03666 0.26643 0.58768
 H2318 H 0.03053 0.29939 0.62944
 H2319 H 0.02987 0.38798 0.52869
 H2320 H -0.03849 0.40515 0.57092
 H2321 H 0.02893 0.33802 0.60481
 H2322 H 0.02877 0.34464 0.54719
 H2323 H -0.03889 0.30704 0.56410
 H2324 H -0.03978 0.36151 0.58879
 C2325 C 0.49077 0.82145 0.08689
 C2326 C 0.47809 0.79918 0.07588
 C2327 C 0.47890 0.77532 0.08818
 C2328 C 0.49369 0.77288 0.11100
 C2329 C 0.50482 0.79585 0.12260
 C2330 C 0.50373 0.81956 0.11057
 C2331 C 0.49075 0.84676 0.07404
 C2332 C 0.49683 0.84880 0.04786
 C2333 C 0.49910 0.87308 0.03642
 C2334 C 0.49509 0.89575 0.05091
 C2335 C 0.48839 0.89354 0.07696
 C2336 C 0.48633 0.86934 0.08840
 H2337 H 0.46809 0.75876 0.07973
 H2338 H 0.51456 0.79565 0.14117
 H2339 H 0.50406 0.87408 0.01625
 H2340 H 0.48501 0.91055 0.08866
 H2341 H 0.51337 0.83648 0.11971
 H2342 H 0.50054 0.83169 0.03645
 H2343 H 0.46721 0.80034 0.05799
 H2344 H 0.48140 0.86826 0.10858
 C2345 C 0.49941 0.67540 0.07939
 C2346 C 0.49248 0.67511 0.10539
 C2347 C 0.49114 0.69809 0.11953
 C2348 C 0.49591 0.72236 0.10806
 C2349 C 0.50411 0.72251 0.08220
 C2350 C 0.50530 0.69931 0.06790
 C2351 C 0.50104 0.65054 0.06491
 C2352 C 0.49010 0.64691 0.04007
 C2353 C 0.48973 0.62253 0.02771
 C2354 C 0.50042 0.60142 0.03996
 C2355 C 0.51212 0.60548 0.06444
 C2356 C 0.51242 0.62967 0.07671
 H2357 H 0.48607 0.69694 0.13966
 H2358 H 0.51016 0.74034 0.07302
 H2359 H 0.48067 0.62011 0.00882
 H2360 H 0.52084 0.58985 0.07441
 H2361 H 0.51149 0.70000 0.04807
 H2362 H 0.48110 0.66268 0.03060
 H2363 H 0.48792 0.65699 0.11485
 H2364 H 0.52141 0.63201 0.09565
 C2365 C 0.00178 0.17986 0.58212
 C2366 C 0.00267 0.20322 0.56867
 C2367 C 0.00183 0.22702 0.58198
 C2368 C -0.00060 0.22791 0.60907
 C2369 C -0.00058 0.20425 0.62225
 C2370 C 0.00024 0.18073 0.60905
 C2371 C 0.00248 0.15442 0.56853
 C2372 C 0.01679 0.13478 0.57915
 C2373 C 0.01583 0.11006 0.56796
 C2374 C 0.00070 0.10434 0.54570
 C2375 C -0.01300 0.12418 0.53452
 C2376 C -0.01214 0.14899 0.54587
 H2377 H 0.00349 0.24445 0.57088
 H2378 H -0.00186 0.20405 0.64307
 H2379 H 0.02700 0.09541 0.57684
 H2380 H -0.02476 0.12041 0.51731
 H2381 H -0.00074 0.16311 0.62001
 H2382 H 0.02868 0.13850 0.59628
 H2383 H 0.00448 0.20310 0.54790
 H2384 H -0.02351 0.16370 0.53738
 C2385 C 0.51199 0.16921 0.41473
 C2386 C 0.51332 0.19254 0.42916
 C2387 C 0.51182 0.21638 0.41693
 C2388 C 0.50834 0.21743 0.38993
 C2389 C 0.50785 0.19389 0.37568
 C2390 C 0.50960 0.17028 0.38781
 C2391 C 0.51289 0.14367 0.42736
 C2392 C 0.49768 0.12236 0.41753
 C2393 C 0.49876 0.09812 0.42867
 C2394 C 0.51485 0.09453 0.45019
 C2395 C 0.52994 0.11584 0.46026
 C2396 C 0.52904 0.14015 0.44890
 H2397 H 0.51382 0.23377 0.42878
 H2398 H 0.50608 0.19386 0.35485
 H2399 H 0.48656 0.08227 0.42065
 H2400 H 0.54252 0.11372 0.47685
 H2401 H 0.50936 0.15283 0.37597
 H2402 H 0.48458 0.12445 0.40135
 H2403 H 0.51533 0.19239 0.44996
 H2404 H 0.54124 0.15607 0.45676
 C2405 C 0.00485 0.67934 0.91965
 C2406 C 0.02718 0.68753 0.90690
 C2407 C 0.02794 0.71007 0.89267
 C2408 C 0.00653 0.72610 0.89119
 C2409 C -0.01576 0.71770 0.90485
 C2410 C -0.01668 0.69458 0.91859
 C2411 C 0.00399 0.65402 0.93247
 C2412 C -0.01518 0.63493 0.92562
 C2413 C -0.01434 0.61004 0.93557
 C2414 C 0.00545 0.60393 0.95289
 C2415 C 0.02432 0.62325 0.96015
 C2416 C 0.02374 0.64798 0.94982
 H2417 H 0.04550 0.71381 0.88232
 H2418 H -0.03306 0.72850 0.90388
 H2419 H -0.02934 0.59564 0.92988
 H2420 H 0.03972 0.61914 0.97354
 H2421 H -0.03430 0.68845 0.92815
 H2422 H -0.03037 0.63907 0.91200
 H2423 H 0.04387 0.67578 0.90700
 H2424 H 0.03880 0.66241 0.95525
 C2425 C 0.26280 0.66755 0.92496
 C2426 C 0.26848 0.68056 0.94854
 C2427 C 0.26729 0.66715 0.97178
 C2428 C 0.25930 0.64065 0.97192
 C2429 C 0.25512 0.62768 0.94792
 C2430 C 0.25651 0.64092 0.92493
 C2431 C 0.26299 0.68130 0.90020
 C2432 C 0.27375 0.66990 0.87837
 C2433 C 0.27144 0.68105 0.85428
 C2434 C 0.25836 0.70396 0.85139
 C2435 C 0.24833 0.71589 0.87340
 C2436 C 0.25065 0.70466 0.89761
 H2437 H 0.27283 0.67760 0.98938
 H2438 H 0.25001 0.60711 0.94706
 H2439 H 0.27977 0.67151 0.83787
 H2440 H 0.23831 0.73366 0.87188
 H2441 H 0.25204 0.63034 0.90708
 H2442 H 0.28371 0.65209 0.87990
 H2443 H 0.27415 0.70100 0.94894
 H2444 H 0.24201 0.71371 0.91413
 C2445 C 0.76030 0.17010 0.42701
 C2446 C 0.73975 0.17111 0.44422
 C2447 C 0.74024 0.15756 0.46728
 C2448 C 0.76082 0.14175 0.47337
 C2449 C 0.78272 0.14358 0.45751
 C2450 C 0.78223 0.15714 0.43447
 C2451 C 0.75844 0.18144 0.40093
 C2452 C 0.76749 0.16807 0.37931
 C2453 C 0.76529 0.17819 0.35463
 C2454 C 0.75398 0.20198 0.35090
 C2455 C 0.74480 0.21531 0.37253
 C2456 C 0.74697 0.20513 0.39724
 H2457 H 0.72358 0.15787 0.47958
 H2458 H 0.80026 0.13431 0.46235
 H2459 H 0.77258 0.16737 0.33848
 H2460 H 0.73608 0.23374 0.37044
 H2461 H 0.79897 0.15719 0.42225
 H2462 H 0.77598 0.14953 0.38142
 H2463 H 0.72269 0.18128 0.43932
 H2464 H 0.73996 0.21599 0.41350
 C2465 C 0.24778 0.33345 0.43358
 C2466 C 0.26325 0.32868 0.45523
 C2467 C 0.25855 0.34048 0.47909
 C2468 C 0.23804 0.35720 0.48217
 C2469 C 0.22226 0.36119 0.46027
 C2470 C 0.22687 0.34926 0.43661
 C2471 C 0.25379 0.32297 0.40760
 C2472 C 0.25099 0.33831 0.38572
 C2473 C 0.25462 0.32810 0.36103
 C2474 C 0.26135 0.30233 0.35757
 C2475 C 0.26539 0.28734 0.37950
 C2476 C 0.26161 0.29755 0.40426
 H2477 H 0.27176 0.33755 0.49500
 H2478 H 0.20705 0.37463 0.46057
 H2479 H 0.25163 0.34029 0.34462
 H2480 H 0.27051 0.26739 0.37753
 H2481 H 0.21434 0.35304 0.42038
 H2482 H 0.24569 0.35821 0.38767
 H2483 H 0.27972 0.31679 0.45348
 H2484 H 0.26388 0.28525 0.42071
 C2485 C 0.75423 0.83121 0.92995
 C2486 C 0.73387 0.84777 0.93265
 C2487 C 0.72977 0.86048 0.95599
 C2488 C 0.74544 0.85657 0.97799
 C2489 C 0.76569 0.83950 0.97517
 C2490 C 0.76984 0.82678 0.95159
 C2491 C 0.75939 0.81967 0.90419
 C2492 C 0.76526 0.79356 0.90129
 C2493 C 0.76747 0.78239 0.87662
 C2494 C 0.76381 0.79714 0.85445
 C2495 C 0.75927 0.82355 0.85750
 C2496 C 0.75718 0.83466 0.88203
 H2497 H 0.71490 0.87432 0.95601
 H2498 H 0.77891 0.83671 0.99110
 H2499 H 0.77098 0.76199 0.87493
 H2500 H 0.75674 0.83559 0.84089
 H2501 H 0.78591 0.81435 0.95001
 H2502 H 0.76708 0.78154 0.91802
 H2503 H 0.72133 0.85144 0.91639
 H2504 H 0.75337 0.85500 0.88363
 C2505 C 0.73883 0.83454 0.07668
 C2506 C 0.74065 0.86160 0.07519
 C2507 C 0.74248 0.87356 0.05146
 C2508 C 0.74265 0.85901 0.02816
 C2509 C 0.73945 0.83181 0.02963
 C2510 C 0.73789 0.81976 0.05361
 C2511 C 0.73832 0.82214 0.10236
 C2512 C 0.72281 0.79960 0.10675
 C2513 C 0.72241 0.78837 0.13113
 C2514 C 0.73739 0.79956 0.15167
 C2515 C 0.75279 0.82212 0.14724
 C2516 C 0.75337 0.83314 0.12292
 H2517 H 0.74399 0.89451 0.05120
 H2518 H 0.73785 0.81965 0.01248
 H2519 H 0.71034 0.77097 0.13390
 H2520 H 0.76487 0.83106 0.16246
 H2521 H 0.73626 0.79883 0.05406
 H2522 H 0.71075 0.79080 0.09144
 H2523 H 0.74052 0.87368 0.09245
 H2524 H 0.76599 0.85015 0.12014
 C2525 C 0.23257 0.33435 0.58048
 C2526 C 0.23365 0.36142 0.57927
 C2527 C 0.23492 0.37362 0.55566
 C2528 C 0.23520 0.35927 0.53225
 C2529 C 0.23235 0.33203 0.53345
 C2530 C 0.23140 0.31974 0.55731
 C2531 C 0.23345 0.32180 0.60598
 C2532 C 0.21858 0.29898 0.61088
 C2533 C 0.21948 0.28770 0.63520
 C2534 C 0.23517 0.29912 0.65509
 C2535 C 0.25003 0.32188 0.65009
 C2536 C 0.24930 0.33295 0.62585
 H2537 H 0.23620 0.39457 0.55560
 H2538 H 0.23083 0.32002 0.51620
 H2539 H 0.20781 0.27014 0.63846
 H2540 H 0.26263 0.33099 0.66481
 H2541 H 0.23025 0.29880 0.55761
 H2542 H 0.20600 0.29005 0.59605
 H2543 H 0.23364 0.37330 0.59667
 H2544 H 0.26149 0.35016 0.62259
 C2545 C 0.75541 0.17180 0.56710
 C2546 C 0.73344 0.15685 0.55872
 C2547 C 0.73347 0.14262 0.53559
 C2548 C 0.75590 0.14212 0.52052
 C2549 C 0.77652 0.16002 0.52734
 C2550 C 0.77652 0.17424 0.55057
 C2551 C 0.75657 0.18346 0.59355
 C2552 C 0.76765 0.20847 0.59849
 C2553 C 0.76834 0.21908 0.62359
 C2554 C 0.75811 0.20482 0.64427
 C2555 C 0.74755 0.17962 0.63927
 C2556 C 0.74679 0.16912 0.61429
 H2557 H 0.71584 0.13184 0.53005
 H2558 H 0.79351 0.16154 0.51548
 H2559 H 0.77658 0.23856 0.62672
 H2560 H 0.73957 0.16796 0.65464
 H2561 H 0.79356 0.18609 0.55617
 H2562 H 0.77533 0.22000 0.58290
 H2563 H 0.71628 0.15578 0.57035
 H2564 H 0.73866 0.14959 0.61124
 C2565 C 0.25311 0.66518 0.07110
 C2566 C 0.24075 0.67490 0.04934
 C2567 C 0.24167 0.66196 0.02542
 C2568 C 0.25614 0.63976 0.02236
 C2569 C 0.26723 0.62956 0.04483
 C2570 C 0.26612 0.64227 0.06860
 C2571 C 0.25205 0.67821 0.09668
 C2572 C 0.24681 0.66355 0.11869
 C2573 C 0.24696 0.67537 0.14306
 C2574 C 0.25247 0.70215 0.14604
 C2575 C 0.25764 0.71687 0.12399
 C2576 C 0.25729 0.70501 0.09951
 H2577 H 0.23099 0.66932 0.00930
 H2578 H 0.27668 0.61142 0.04430
 H2579 H 0.24281 0.66346 0.15959
 H2580 H 0.26176 0.73757 0.12562
 H2581 H 0.27550 0.63411 0.08513
 H2582 H 0.24248 0.64288 0.11701
 H2583 H 0.22984 0.69213 0.05100
 H2584 H 0.26159 0.71667 0.08283
 C2585 C 0.16787 0.57066 0.75776
 C2586 C 0.17316 0.55100 0.77510
 C2587 C 0.15937 0.52692 0.77342
 C2588 C 0.14044 0.52154 0.75390
 C2589 C 0.13526 0.54178 0.73688
 C2590 C 0.14901 0.56555 0.73851
 C2591 C 0.18098 0.59689 0.75987
 C2592 C 0.16669 0.61887 0.75595
 C2593 C 0.17888 0.64349 0.75542
 C2594 C 0.20572 0.64692 0.75903
 C2595 C 0.21999 0.62509 0.76405
 C2596 C 0.20772 0.60029 0.76444
 H2597 H 0.16317 0.51254 0.78770
 H2598 H 0.11992 0.54001 0.72257
 H2599 H 0.16718 0.65986 0.75200
 H2600 H 0.24069 0.62709 0.76702
 H2601 H 0.14449 0.58022 0.72476
 H2602 H 0.14597 0.61701 0.75304
 H2603 H 0.18732 0.55453 0.79047
 H2604 H 0.21924 0.58371 0.76747
 C2605 C 0.66960 0.06992 0.24876
 C2606 C 0.68133 0.04724 0.24097
 C2607 C 0.66764 0.02316 0.24155
 C2608 C 0.64226 0.02116 0.25103
 C2609 C 0.63050 0.04431 0.25769
 C2610 C 0.64402 0.06815 0.25695
 C2611 C 0.68342 0.09566 0.24801
 C2612 C 0.67071 0.11686 0.23846
 C2613 C 0.68254 0.14164 0.23964
 C2614 C 0.70745 0.14591 0.25039
 C2615 C 0.72049 0.12457 0.25939
 C2616 C 0.70859 0.09963 0.25815
 H2617 H 0.67685 0.00637 0.23413
 H2618 H 0.61061 0.04391 0.26376
 H2619 H 0.67197 0.15750 0.23225
 H2620 H 0.73977 0.12714 0.26762
 H2621 H 0.63441 0.08529 0.26299
 H2622 H 0.65144 0.11428 0.23020
 H2623 H 0.70084 0.04824 0.23381
 H2624 H 0.71873 0.08360 0.26578
 C2625 C 0.83198 0.07775 0.74574
 C2626 C 0.85456 0.07577 0.76061
 C2627 C 0.86701 0.05256 0.76158
 C2628 C 0.85698 0.02998 0.74840
 C2629 C 0.83347 0.03192 0.73450
 C2630 C 0.82129 0.05536 0.73313
 C2631 C 0.82035 0.10329 0.74266
 C2632 C 0.79347 0.10504 0.74023
 C2633 C 0.78268 0.12911 0.73787
 C2634 C 0.79847 0.15202 0.73828
 C2635 C 0.82532 0.15033 0.74026
 C2636 C 0.83614 0.12626 0.74214
 H2637 H 0.88505 0.05294 0.77217
 H2638 H 0.82548 0.01585 0.72279
 H2639 H 0.76188 0.12984 0.73667
 H2640 H 0.83796 0.16766 0.74041
 H2641 H 0.80419 0.05617 0.72103
 H2642 H 0.78067 0.08789 0.74084
 H2643 H 0.86307 0.09240 0.77117
 H2644 H 0.85694 0.12571 0.74316
 C2645 C 0.33263 0.58176 0.23876
 C2646 C 0.35966 0.58222 0.23923
 C2647 C 0.37252 0.55932 0.24012
 C2648 C 0.35889 0.53501 0.24080
 C2649 C 0.33170 0.53456 0.23889
 C2650 C 0.31877 0.55768 0.23818
 C2651 C 0.31928 0.60651 0.23927
 C2652 C 0.29676 0.60958 0.22447
 C2653 C 0.28476 0.63322 0.22479
 C2654 C 0.29510 0.65428 0.23984
 C2655 C 0.31753 0.65108 0.25469
 C2656 C 0.32936 0.62750 0.25450
 H2657 H 0.39342 0.56051 0.24067
 H2658 H 0.32020 0.51658 0.23774
 H2659 H 0.26751 0.63506 0.21310
 H2660 H 0.32586 0.66674 0.26677
 H2661 H 0.29788 0.55667 0.23756
 H2662 H 0.28866 0.59388 0.21232
 H2663 H 0.37099 0.60037 0.23882
 H2664 H 0.34635 0.62565 0.26657
 C2665 C 0.33533 0.43454 0.25197
 C2666 C 0.33031 0.45555 0.26834
 C2667 C 0.34161 0.48020 0.26390
 C2668 C 0.35806 0.48471 0.24278
 C2669 C 0.36236 0.46338 0.22618
 C2670 C 0.35092 0.43895 0.23053
 C2671 C 0.32512 0.40786 0.25734
 C2672 C 0.34051 0.38664 0.25301
 C2673 C 0.33041 0.36133 0.25583
 C2674 C 0.30471 0.35662 0.26325
 C2675 C 0.28969 0.37788 0.26880
 C2676 C 0.29978 0.40322 0.26585
 H2677 H 0.33846 0.49563 0.27769
 H2678 H 0.37565 0.46471 0.21041
 H2679 H 0.34259 0.34546 0.25165
 H2680 H 0.26979 0.37496 0.27453
 H2681 H 0.35487 0.42326 0.21730
 H2682 H 0.36035 0.38958 0.24711
 H2683 H 0.31855 0.45272 0.28522
 H2684 H 0.28743 0.41913 0.26926
 C2685 C 0.83210 0.92958 0.74483
 C2686 C 0.82051 0.95132 0.75513
 C2687 C 0.83237 0.97607 0.75308
 C2688 C 0.85669 0.98001 0.74128
 C2689 C 0.86698 0.95805 0.72936
 C2690 C 0.85479 0.93350 0.73085
 C2691 C 0.82144 0.90284 0.74967
 C2692 C 0.83807 0.88236 0.75266
 C2693 C 0.82820 0.85711 0.75648
 C2694 C 0.80151 0.85184 0.75805
 C2695 C 0.78490 0.87234 0.75598
 C2696 C 0.79472 0.89750 0.75162
 H2697 H 0.82358 0.99170 0.76323
 H2698 H 0.88503 0.95899 0.71950
 H2699 H 0.84144 0.84169 0.75812
 H2700 H 0.76418 0.86878 0.75672
 H2701 H 0.86374 0.91739 0.72162
 H2702 H 0.85880 0.88577 0.75210
 H2703 H 0.80306 0.94918 0.76621
 H2704 H 0.78128 0.91260 0.74913
 C2705 C 0.66384 0.92218 0.25291
 C2706 C 0.63952 0.92393 0.24132
 C2707 C 0.62769 0.94738 0.24099
 C2708 C 0.64012 0.97027 0.25145
 C2709 C 0.66386 0.96798 0.26463
 C2710 C 0.67591 0.94435 0.26475
 C2711 C 0.67614 0.89702 0.25267
 C2712 C 0.70200 0.89539 0.24561
 C2713 C 0.71294 0.87131 0.24366
 C2714 C 0.69826 0.84844 0.24899
 C2715 C 0.67248 0.85022 0.25641
 C2716 C 0.66154 0.87423 0.25817
 H2717 H 0.60855 0.94749 0.23243
 H2718 H 0.67310 0.98437 0.27495
 H2719 H 0.73293 0.87064 0.23811
 H2720 H 0.66067 0.83305 0.26080
 H2721 H 0.69436 0.94324 0.27458
 H2722 H 0.71355 0.91268 0.24104
 H2723 H 0.62961 0.90709 0.23231
 H2724 H 0.64161 0.87500 0.26389
 C2725 C 0.16260 0.42303 0.75149
 C2726 C 0.17719 0.44661 0.74974
 C2727 C 0.16517 0.47027 0.75049
 C2728 C 0.13825 0.47094 0.75363
 C2729 C 0.12382 0.44706 0.75440
 C2730 C 0.13574 0.42362 0.75345
 C2731 C 0.17502 0.39776 0.75119
 C2732 C 0.16553 0.37753 0.76674
 C2733 C 0.17651 0.35347 0.76607
 C2734 C 0.19747 0.34910 0.75003
 C2735 C 0.20713 0.36935 0.73459
 C2736 C 0.19597 0.39340 0.73511
 H2737 H 0.17712 0.48775 0.74819
 H2738 H 0.10301 0.44665 0.75590
 H2739 H 0.16881 0.33843 0.77845
 H2740 H 0.22323 0.36660 0.72197
 H2741 H 0.12378 0.40587 0.75397
 H2742 H 0.14974 0.38036 0.77973
 H2743 H 0.19795 0.44680 0.74798
 H2744 H 0.20350 0.40843 0.72262
 C2745 C 0.07983 0.74993 0.83280
 C2746 C 0.07852 0.75889 0.85840
 C2747 C 0.05495 0.75992 0.87060
 C2748 C 0.03161 0.75167 0.85785
 C2749 C 0.03295 0.74276 0.83204
 C2750 C 0.05674 0.74209 0.81966
 C2751 C 0.10541 0.74828 0.82047
 C2752 C 0.11043 0.72782 0.80329
 C2753 C 0.13497 0.72587 0.79281
 C2754 C 0.15505 0.74404 0.79969
 C2755 C 0.15003 0.76447 0.81672
 C2756 C 0.12548 0.76674 0.82673
 H2757 H 0.05504 0.76601 0.89069
 H2758 H 0.01582 0.73574 0.82144
 H2759 H 0.13834 0.70998 0.77960
 H2760 H 0.16498 0.77912 0.82188
 H2761 H 0.05703 0.73530 0.79981
 H2762 H 0.09557 0.71305 0.79832
 H2763 H 0.09585 0.76431 0.86950
 H2764 H 0.12223 0.78315 0.83929
 C2765 C 0.58032 0.24100 0.33273
 C2766 C 0.57974 0.24238 0.35974
 C2767 C 0.55645 0.24320 0.37251
 C2768 C 0.53269 0.24279 0.35885
 C2769 C 0.53324 0.24010 0.33172
 C2770 C 0.55679 0.23950 0.31884
 C2771 C 0.60559 0.24144 0.31955
 C2772 C 0.60955 0.22576 0.29765
 C2773 C 0.63389 0.22567 0.28627
 C2774 C 0.65473 0.24113 0.29669
 C2775 C 0.65056 0.25704 0.31831
 C2776 C 0.62633 0.25731 0.32946
 H2777 H 0.55689 0.24434 0.39339
 H2778 H 0.51568 0.23814 0.32026
 H2779 H 0.63648 0.21326 0.26957
 H2780 H 0.66601 0.26957 0.32658
 H2781 H 0.55659 0.23814 0.29798
 H2782 H 0.59401 0.21318 0.28967
 H2783 H 0.59740 0.24267 0.37114
 H2784 H 0.62384 0.27012 0.34588
 C2785 C 0.56860 0.74649 0.16742
 C2786 C 0.54576 0.73878 0.18007
 C2787 C 0.52182 0.73839 0.16702
 C2788 C 0.52012 0.74667 0.14129
 C2789 C 0.54339 0.75321 0.12863
 C2790 C 0.56706 0.75352 0.14153
 C2791 C 0.59424 0.74690 0.18060
 C2792 C 0.61557 0.73793 0.16741
 C2793 C 0.64016 0.73983 0.17869
 C2794 C 0.64416 0.75068 0.20357
 C2795 C 0.62275 0.75928 0.21703
 C2796 C 0.59801 0.75736 0.20566
 H2797 H 0.50488 0.73125 0.17705
 H2798 H 0.54318 0.75861 0.10856
 H2799 H 0.65604 0.73271 0.16780
 H2800 H 0.62509 0.76758 0.23629
 H2801 H 0.58424 0.75956 0.13118
 H2802 H 0.61325 0.72938 0.14825
 H2803 H 0.54650 0.73252 0.19985
 H2804 H 0.58194 0.76460 0.21619
 C2805 C 0.07033 0.25135 0.67058
 C2806 C 0.04670 0.25039 0.68349
 C2807 C 0.02330 0.25089 0.66965
 C2808 C 0.02308 0.25303 0.64252
 C2809 C 0.04702 0.25330 0.62990
 C2810 C 0.07015 0.25284 0.64365
 C2811 C 0.09534 0.25048 0.68469
 C2812 C 0.11500 0.23591 0.67446
 C2813 C 0.13935 0.23659 0.68617
 C2814 C 0.14468 0.25169 0.70859
 C2815 C 0.12479 0.26564 0.71940
 C2816 C 0.10033 0.26506 0.70753
 H2817 H 0.00565 0.24906 0.68034
 H2818 H 0.04775 0.25434 0.60908
 H2819 H 0.15404 0.22524 0.67754
 H2820 H 0.12826 0.27739 0.73672
 H2821 H 0.08800 0.25388 0.63309
 H2822 H 0.11160 0.22403 0.65722
 H2823 H 0.04630 0.24865 0.70425
 H2824 H 0.08557 0.27659 0.71575
 C2825 C 0.92547 0.25497 0.66726
 C2826 C 0.94503 0.27429 0.67172
 C2827 C 0.96848 0.27332 0.65872
 C2828 C 0.97289 0.25297 0.64101
 C2829 C 0.95217 0.23458 0.63584
 C2830 C 0.92920 0.23525 0.64923
 C2831 C 0.90060 0.25532 0.68051
 C2832 C 0.89325 0.23514 0.69696
 C2833 C 0.86862 0.23374 0.70747
 C2834 C 0.85071 0.25217 0.70115
 C2835 C 0.85818 0.27244 0.68472
 C2836 C 0.88305 0.27412 0.67464
 H2837 H 0.98325 0.28855 0.66238
 H2838 H 0.95298 0.21976 0.62101
 H2839 H 0.86337 0.21791 0.72006
 H2840 H 0.84483 0.28704 0.67975
 H2841 H 0.91392 0.22065 0.64496
 H2842 H 0.90652 0.22029 0.70139
 H2843 H 0.94220 0.29000 0.68530
 H2844 H 0.88834 0.28960 0.66166
 C2845 C 0.42094 0.74827 0.16556
 C2846 C 0.42300 0.73473 0.14213
 C2847 C 0.44660 0.73391 0.12984
 C2848 C 0.46937 0.74593 0.14089
 C2849 C 0.46687 0.76053 0.16392
 C2850 C 0.44312 0.76115 0.17642
 C2851 C 0.39540 0.74944 0.17790
 C2852 C 0.37339 0.75403 0.16292
 C2853 C 0.34906 0.75398 0.17404
 C2854 C 0.34608 0.74917 0.20044
 C2855 C 0.36817 0.74477 0.21551
 C2856 C 0.39260 0.74506 0.20437
 H2857 H 0.44675 0.72415 0.11123
 H2858 H 0.48321 0.77183 0.17212
 H2859 H 0.33253 0.75753 0.16186
 H2860 H 0.36660 0.74115 0.23593
 H2861 H 0.44188 0.77240 0.19413
 H2862 H 0.37501 0.75775 0.14251
 H2863 H 0.40620 0.72483 0.13314
 H2864 H 0.40924 0.74130 0.21631
 C2865 C 0.43340 0.25200 0.33557
 C2866 C 0.43681 0.23081 0.35149
 C2867 C 0.46073 0.22685 0.36286
 C2868 C 0.48253 0.24358 0.35818
 C2869 C 0.47904 0.26446 0.34149
 C2870 C 0.45491 0.26851 0.33024
 C2871 C 0.40724 0.25700 0.32535
 C2872 C 0.40367 0.26530 0.29998
 C2873 C 0.37881 0.26806 0.28994
 C2874 C 0.35695 0.26252 0.30504
 C2875 C 0.36061 0.25528 0.33074
 C2876 C 0.38543 0.25267 0.34079
 H2877 H 0.46136 0.21128 0.37638
 H2878 H 0.49486 0.27838 0.33808
 H2879 H 0.37672 0.27362 0.27002
 H2880 H 0.34427 0.25110 0.34300
 H2881 H 0.45288 0.28522 0.31827
 H2882 H 0.42003 0.26872 0.28756
 H2883 H 0.42072 0.21748 0.35572
 H2884 H 0.38754 0.24693 0.36065
 C2885 C 0.93409 0.74846 0.82769
 C2886 C 0.95053 0.77074 0.82874
 C2887 C 0.97431 0.77073 0.84155
 C2888 C 0.98224 0.74871 0.85479
 C2889 C 0.96711 0.72543 0.85025
 C2890 C 0.94308 0.72548 0.83760
 C2891 C 0.90742 0.74967 0.81718
 C2892 C 0.88656 0.73769 0.83010
 C2893 C 0.86125 0.74009 0.82119
 C2894 C 0.85622 0.75443 0.79905
 C2895 C 0.87713 0.76640 0.78614
 C2896 C 0.90242 0.76407 0.79512
 H2897 H 0.98580 0.78854 0.84131
 H2898 H 0.97332 0.70708 0.85697
 H2899 H 0.84566 0.73045 0.83153
 H2900 H 0.87403 0.77740 0.76891
 H2901 H 0.93138 0.70757 0.83580
 H2902 H 0.88979 0.72683 0.84740
 H2903 H 0.94459 0.78864 0.82057
 H2904 H 0.91810 0.77339 0.78465
   
