data_POSCAR
  _audit_creation_date              2014-09-24
  _audit_creation_method            'ToBaCCo'
  _symmetry_space_group_name_H-M    'P1'
  _symmetry_Int_Tables_number       1
  _symmetry_cell_setting            triclinic
  loop_
  _symmetry_equiv_pos_as_xyz
 x,y,z
_cell_length_a 62.3546
_cell_length_b 62.3461
_cell_length_c 62.4052
_cell_angle_alpha 90.042700
_cell_angle_beta 90.001900
_cell_angle_gamma 90.018100
loop_
  _atom_site_label
  _atom_site_type_symbol
  _atom_site_fract_x
  _atom_site_fract_y
  _atom_site_fract_z
C1 C 0.19195 0.21193 0.22212
 N2 N 0.19525 0.22534 0.20532
 C3 C 0.21201 0.22199 0.19186
 N4 N 0.22547 0.20522 0.19520
 C5 C 0.22217 0.19181 0.21199
 N6 N 0.20541 0.19516 0.22545
 C7 C 0.69185 0.71232 0.72201
 N8 N 0.69520 0.72580 0.70528
 C9 C 0.71196 0.72246 0.69181
 N10 N 0.72536 0.70564 0.69507
 C11 C 0.72201 0.69215 0.71180
 N12 N 0.70525 0.69549 0.72527
 C13 C 0.30750 0.78852 0.72236
 N14 N 0.29406 0.80532 0.72564
 C15 C 0.27730 0.80864 0.71218
 N16 N 0.27397 0.79515 0.69543
 C17 C 0.28741 0.77835 0.69214
 N18 N 0.30417 0.77504 0.70560
 C19 C 0.80863 0.28781 0.22247
 N20 N 0.80535 0.27433 0.20570
 C21 C 0.78859 0.27761 0.19222
 N22 N 0.77511 0.29437 0.19551
 C23 C 0.77839 0.30786 0.21227
 N24 N 0.79514 0.30458 0.22575
 C25 C 0.80826 0.71243 0.27776
 N26 N 0.80498 0.72593 0.29451
 C27 C 0.78823 0.72265 0.30799
 N28 N 0.77476 0.70586 0.30473
 C29 C 0.77803 0.69236 0.28798
 N30 N 0.79479 0.69564 0.27450
 C31 C 0.30816 0.21172 -0.22273
 N32 N 0.29470 0.19493 -0.22606
 C33 C 0.27790 0.19162 -0.21265
 N34 N 0.27455 0.20510 -0.19589
 C35 C 0.28801 0.22189 -0.19256
 N36 N 0.30481 0.22519 -0.20598
 C37 C 0.69225 0.28801 -0.22195
 N38 N 0.70570 0.30480 -0.22528
 C39 C 0.72252 0.30812 -0.21187
 N40 N 0.72587 0.29466 -0.19513
 C41 C 0.71242 0.27787 -0.19180
 N42 N 0.69561 0.27455 -0.20521
 C43 C 0.19230 0.78820 0.27753
 N44 N 0.19555 0.77476 0.29432
 C45 C 0.21229 0.77809 0.30782
 N46 N 0.22577 0.79486 0.30454
 C47 C 0.22252 0.80830 0.28776
 N48 N 0.20578 0.80497 0.27425
 C49 C 0.46194 0.44181 0.47249
 N50 N 0.44518 0.45529 0.47578
 C51 C 0.44189 0.47205 0.46232
 N52 N 0.45537 0.47534 0.44557
 C53 C 0.47213 0.46186 0.44227
 N54 N 0.47542 0.44510 0.45573
 C55 C -0.03791 -0.05765 0.97188
 N56 N -0.05469 -0.04421 0.97520
 C57 C -0.05801 -0.02741 0.96178
 N58 N -0.04453 -0.02407 0.94504
 C59 C -0.02774 -0.03751 0.94172
 N60 N -0.02443 -0.05430 0.95514
 C61 C 1.03761 0.55844 0.97225
 N62 N 1.02414 0.55512 0.95550
 C63 C 1.02741 0.53832 0.94205
 N64 N 1.04418 0.52485 0.94535
 C65 C 1.05766 0.52816 0.96210
 N66 N 1.05438 0.54496 0.97555
 C67 C 0.53826 0.05759 0.47246
 N68 N 0.55509 0.04418 0.47574
 C69 C 0.55845 0.02742 0.46226
 N70 N 0.54499 0.02408 0.44550
 C71 C 0.52817 0.03749 0.44222
 N72 N 0.52481 0.05424 0.45570
 C73 C -0.03826 0.05817 0.52785
 N74 N -0.02476 0.05486 0.54458
 C75 C -0.02805 0.03809 0.55803
 N76 N -0.04485 0.02463 0.55476
 C77 C -0.05835 0.02794 0.53803
 N78 N -0.05506 0.04471 0.52458
 C79 C 0.46202 0.55815 0.02787
 N80 N 0.47548 0.55483 0.04463
 C81 C 0.47217 0.53804 0.05805
 N82 N 0.45540 0.52457 0.05471
 C83 C 0.44194 0.52789 0.03795
 N84 N 0.44525 0.54469 0.02454
 C85 C 0.53798 -0.05842 0.02765
 N86 N 0.55478 -0.04497 0.02437
 C87 C 0.55813 -0.02822 0.03786
 N88 N 0.54469 -0.02493 0.05465
 C89 C 0.52789 -0.03839 0.05793
 N90 N 0.52455 -0.05513 0.04444
 C91 C 1.03749 0.44153 0.52739
 N92 N 1.02405 0.44479 0.54418
 C93 C 1.02736 0.46154 0.55768
 N94 N 1.04412 0.47503 0.55439
 C95 C 1.05756 0.47178 0.53760
 N96 N 1.05425 0.45503 0.52410
 C97 C 0.40782 0.00956 0.22132
 H98 H 0.40870 0.02410 0.23076
 C99 C 0.42180 0.00654 0.20410
 H100 H 0.43346 0.01881 0.20017
 C101 C 0.39177 -0.02438 0.21505
 H102 H 0.38030 -0.03654 0.21955
 C103 C 0.40546 -0.02803 0.19771
 H104 H 0.40434 -0.04290 0.18878
 N105 N 0.39302 -0.00570 0.22630
 C106 C 0.34228 0.02846 0.26028
 H107 H 0.34141 0.01904 0.27481
 C108 C 0.32831 0.04571 0.25728
 H109 H 0.31668 0.04968 0.26955
 C110 C 0.35827 0.03465 0.22635
 H111 H 0.36971 0.03010 0.21418
 C112 C 0.34460 0.05201 0.22270
 H113 H 0.34571 0.06091 0.20784
 Zn114 Zn 0.37501 -0.00050 0.25018
 N115 N 0.35704 0.02342 0.24502
 C116 C 0.39186 0.02334 0.28530
 N117 N 0.39304 0.00465 0.27406
 C118 C 0.40779 -0.01064 0.27904
 C119 C 0.42178 -0.00766 0.29626
 C120 C 0.40557 0.02697 0.30263
 C121 C 0.34218 -0.02935 0.24007
 C122 C 0.32817 -0.04658 0.24305
 C123 C 0.34443 -0.05295 0.27762
 C124 C 0.35816 -0.03561 0.27399
 N125 N 0.35696 -0.02437 0.25533
 H126 H 0.38043 0.03553 0.28079
 H127 H 0.40861 -0.02518 0.26961
 H128 H 0.43340 -0.01996 0.30018
 H129 H 0.40450 0.04185 0.31155
 H130 H 0.34134 -0.01992 0.22555
 H131 H 0.31652 -0.05051 0.23077
 H132 H 0.34552 -0.06187 0.29247
 H133 H 0.36961 -0.03110 0.28616
 C134 C 0.32954 0.05761 0.23834
 C135 C 0.42056 -0.01240 0.19216
 C136 C 0.32936 -0.05850 0.26198
 C137 C 0.42062 0.01130 0.30818
 C138 C 0.09261 -0.00983 0.72095
 H139 H 0.09176 -0.02434 0.73040
 C140 C 0.07859 -0.00686 0.70376
 H141 H 0.06693 -0.01914 0.69986
 C142 C 0.10863 0.02410 0.71462
 H143 H 0.12011 0.03628 0.71910
 C144 C 0.09490 0.02771 0.69731
 H145 H 0.09600 0.04257 0.68837
 N146 N 0.10741 0.00545 0.72589
 C147 C 0.15821 -0.02860 0.75986
 H148 H 0.15910 -0.01913 0.77437
 C149 C 0.17216 -0.04586 0.75688
 H150 H 0.18380 -0.04979 0.76915
 C151 C 0.14217 -0.03490 0.72596
 H152 H 0.13072 -0.03039 0.71380
 C153 C 0.15583 -0.05228 0.72234
 H154 H 0.15470 -0.06124 0.70750
 Zn155 Zn 0.12545 0.00032 0.74975
 N156 N 0.14343 -0.02361 0.74461
 C157 C 0.10865 -0.02344 0.78491
 N158 N 0.10746 -0.00478 0.77365
 C159 C 0.09271 0.01052 0.77863
 C160 C 0.07871 0.00756 0.79586
 C161 C 0.09495 -0.02704 0.80225
 C162 C 0.15826 0.02917 0.73958
 C163 C 0.17228 0.04640 0.74254
 C164 C 0.15605 0.05285 0.77711
 C165 C 0.14232 0.03550 0.77351
 N166 N 0.14351 0.02421 0.75486
 H167 H 0.12008 -0.03564 0.78040
 H168 H 0.09187 0.02504 0.76920
 H169 H 0.06709 0.01986 0.79978
 H170 H 0.09603 -0.04191 0.81117
 H171 H 0.15909 0.01971 0.72506
 H172 H 0.18391 0.05031 0.73024
 H173 H 0.15498 0.06179 0.79196
 H174 H 0.13088 0.03101 0.78570
 C175 C 0.17091 -0.05784 0.73797
 C176 C 0.07980 0.01207 0.69181
 C177 C 0.17111 0.05837 0.76146
 C178 C 0.07990 -0.01137 0.80779
 C179 C 0.59232 0.48980 0.22127
 H180 H 0.59147 0.47525 0.23067
 C181 C 0.57834 0.49280 0.20405
 H182 H 0.56671 0.48051 0.20008
 C183 C 0.60829 0.52378 0.21509
 H184 H 0.61973 0.53596 0.21963
 C185 C 0.59460 0.52742 0.19775
 H186 H 0.59570 0.54230 0.18887
 N187 N 0.60708 0.50508 0.22629
 C188 C 0.65791 0.47105 0.26023
 H189 H 0.65876 0.48048 0.27476
 C190 C 0.67191 0.45383 0.25721
 H191 H 0.68355 0.44990 0.26948
 C192 C 0.64192 0.46479 0.22630
 H193 H 0.63046 0.46930 0.21414
 C194 C 0.65563 0.44746 0.22264
 H195 H 0.65454 0.43854 0.20777
 Zn196 Zn 0.62510 0.49991 0.25017
 N197 N 0.64313 0.47603 0.24497
 C198 C 0.60832 0.47603 0.28524
 N199 N 0.60709 0.49472 0.27404
 C200 C 0.59231 0.50998 0.27906
 C201 C 0.57833 0.50696 0.29628
 C202 C 0.59463 0.47236 0.30258
 C203 C 0.65787 0.52883 0.24009
 C204 C 0.67185 0.54608 0.24309
 C205 C 0.65556 0.55245 0.27766
 C206 C 0.64188 0.53508 0.27402
 N207 N 0.64310 0.52382 0.25535
 H208 H 0.61977 0.46386 0.28071
 H209 H 0.59145 0.52452 0.26965
 H210 H 0.56669 0.51923 0.30024
 H211 H 0.59573 0.45748 0.31147
 H212 H 0.65873 0.51938 0.22556
 H213 H 0.68348 0.55002 0.23081
 H214 H 0.65446 0.56138 0.29251
 H215 H 0.63043 0.53056 0.28618
 C216 C 0.67071 0.44191 0.23827
 C217 C 0.57954 0.51176 0.19216
 C218 C 0.67063 0.55802 0.26202
 C219 C 0.57955 0.48800 0.30817
 C220 C 0.90733 0.50961 0.72106
 H221 H 0.90818 0.52418 0.73045
 C222 C 0.92131 0.50658 0.70384
 H223 H 0.93294 0.51886 0.69987
 C224 C 0.89136 0.47563 0.71489
 H225 H 0.87991 0.46346 0.71944
 C226 C 0.90505 0.47195 0.69756
 H227 H 0.90395 0.45705 0.68868
 N228 N 0.89257 0.49434 0.72609
 C229 C 0.84173 0.52850 0.75993
 H230 H 0.84086 0.51912 0.77448
 C231 C 0.82777 0.54574 0.75689
 H232 H 0.81613 0.54974 0.76915
 C233 C 0.85774 0.53463 0.72600
 H234 H 0.86920 0.53007 0.71385
 C235 C 0.84407 0.55199 0.72232
 H236 H 0.84519 0.56086 0.70744
 Zn237 Zn 0.87453 0.49958 0.74994
 N238 N 0.85651 0.52345 0.74469
 C239 C 0.89130 0.52359 0.78498
 N240 N 0.89253 0.50487 0.77381
 C241 C 0.90731 0.48963 0.77887
 C242 C 0.92128 0.49270 0.79609
 C243 C 0.90497 0.52731 0.80233
 C244 C 0.84177 0.47061 0.73992
 C245 C 0.82781 0.45336 0.74296
 C246 C 0.84408 0.44715 0.77755
 C247 C 0.85775 0.46451 0.77387
 N248 N 0.85653 0.47569 0.75517
 H249 H 0.87984 0.53574 0.78042
 H250 H 0.90819 0.47505 0.76949
 H251 H 0.93292 0.48045 0.80008
 H252 H 0.90385 0.54222 0.81119
 H253 H 0.84091 0.47999 0.72536
 H254 H 0.81618 0.44935 0.73069
 H255 H 0.84518 0.43828 0.79243
 H256 H 0.86919 0.46909 0.78603
 C257 C 0.82900 0.55762 0.73793
 C258 C 0.92011 0.48760 0.69196
 C259 C 0.82902 0.44150 0.76192
 C260 C 0.92004 0.51170 0.80795
 C261 C 0.22082 0.40762 0.00982
 H262 H 0.23026 0.40845 0.02435
 C263 C 0.20359 0.42162 0.00686
 H264 H 0.19967 0.43325 0.01916
 C265 C 0.21455 0.39167 -0.02413
 H266 H 0.21906 0.38023 -0.03632
 C267 C 0.19721 0.40538 -0.02774
 H268 H 0.18829 0.40431 -0.04260
 N269 N 0.22580 0.39286 -0.00547
 C270 C 0.25981 0.34202 0.02845
 H271 H 0.27434 0.34117 0.01901
 C272 C 0.25683 0.32802 0.04566
 H273 H 0.26912 0.31639 0.04958
 C274 C 0.22586 0.35800 0.03475
 H275 H 0.21369 0.36945 0.03026
 C276 C 0.22224 0.34429 0.05208
 H277 H 0.20739 0.34539 0.06101
 Zn278 Zn 0.24969 0.37484 -0.00035
 N279 N 0.24453 0.35679 0.02349
 C280 C 0.28483 0.39162 0.02352
 N281 N 0.27359 0.39286 0.00485
 C282 C 0.27859 0.40765 -0.01037
 C283 C 0.29582 0.42164 -0.00735
 C284 C 0.30218 0.40532 0.02718
 C285 C 0.23959 0.34209 -0.02930
 C286 C 0.24260 0.32812 -0.04654
 C287 C 0.27721 0.34441 -0.05284
 C288 C 0.27355 0.35809 -0.03548
 N289 N 0.25486 0.35686 -0.02426
 H290 H 0.28031 0.38015 0.03566
 H291 H 0.26915 0.40853 -0.02490
 H292 H 0.29976 0.43330 -0.01960
 H293 H 0.31110 0.40421 0.04204
 H294 H 0.22505 0.34122 -0.01989
 H295 H 0.23032 0.31648 -0.05051
 H296 H 0.29209 0.34552 -0.06173
 H297 H 0.28573 0.36954 -0.03093
 C298 C 0.23790 0.32923 0.05761
 C299 C 0.19166 0.42044 -0.01207
 C300 C 0.26156 0.32934 -0.05844
 C301 C 0.30775 0.42041 0.01158
 C302 C 0.72165 0.09184 -0.01015
 H303 H 0.73106 0.09099 -0.02469
 C304 C 0.70440 0.07787 -0.00716
 H305 H 0.70043 0.06625 -0.01945
 C306 C 0.71547 0.10780 0.02381
 H307 H 0.72002 0.11923 0.03599
 C308 C 0.69811 0.09412 0.02745
 H309 H 0.68921 0.09521 0.04232
 N310 N 0.72669 0.10659 0.00513
 C311 C 0.76068 0.15743 -0.02885
 H312 H 0.77523 0.15827 -0.01943
 C313 C 0.75768 0.17144 -0.04603
 H314 H 0.76996 0.18309 -0.04996
 C315 C 0.72672 0.14146 -0.03509
 H316 H 0.71454 0.13000 -0.03059
 C317 C 0.72307 0.15518 -0.05240
 H318 H 0.70819 0.15410 -0.06129
 Zn319 Zn 0.75059 0.12461 -0.00003
 N320 N 0.74541 0.14265 -0.02387
 C321 C 0.78570 0.10783 -0.02393
 N322 N 0.77447 0.10659 -0.00525
 C323 C 0.77949 0.09181 0.00998
 C324 C 0.79673 0.07783 0.00694
 C325 C 0.80305 0.09415 -0.02760
 C326 C 0.74053 0.15738 0.02889
 C327 C 0.74354 0.17135 0.04613
 C328 C 0.77813 0.15506 0.05245
 C329 C 0.77448 0.14137 0.03510
 N330 N 0.75579 0.14261 0.02387
 H331 H 0.78116 0.11929 -0.03607
 H332 H 0.77008 0.09094 0.02451
 H333 H 0.80068 0.06619 0.01919
 H334 H 0.81195 0.09526 -0.04247
 H335 H 0.72599 0.15825 0.01947
 H336 H 0.73127 0.18299 0.05009
 H337 H 0.79300 0.15395 0.06136
 H338 H 0.78664 0.12992 0.03056
 C339 C 0.73872 0.17026 -0.05794
 C340 C 0.69250 0.07907 0.01179
 C341 C 0.76249 0.17013 0.05804
 C342 C 0.80863 0.07906 -0.01200
 C343 C 0.22079 0.59234 0.48982
 H344 H 0.23025 0.59149 0.47531
 C345 C 0.20357 0.57832 0.49277
 H346 H 0.19966 0.56668 0.48049
 C347 C 0.21447 0.60832 0.52374
 H348 H 0.21896 0.61978 0.53592
 C349 C 0.19712 0.59460 0.52734
 H350 H 0.18818 0.59569 0.54218
 N351 N 0.22575 0.60712 0.50510
 C352 C 0.25982 0.65794 0.47118
 H353 H 0.27433 0.65881 0.48064
 C354 C 0.25686 0.67193 0.45396
 H355 H 0.26915 0.68357 0.45006
 C356 C 0.22588 0.64193 0.46484
 H357 H 0.21370 0.63047 0.46932
 C358 C 0.22228 0.65563 0.44750
 H359 H 0.20743 0.65452 0.43855
 Zn360 Zn 0.24965 0.62515 0.50000
 N361 N 0.24453 0.64316 0.47612
 C362 C 0.28484 0.60835 0.47623
 N363 N 0.27356 0.60714 0.49487
 C364 C 0.27852 0.59237 0.51014
 C365 C 0.29576 0.57838 0.50717
 C366 C 0.30220 0.59466 0.47262
 C367 C 0.23948 0.65794 0.52887
 C368 C 0.24244 0.67193 0.54610
 C369 C 0.27703 0.65567 0.55252
 C370 C 0.27342 0.64197 0.53517
 N371 N 0.25477 0.64317 0.52390
 H372 H 0.28034 0.61980 0.46406
 H373 H 0.26906 0.59151 0.52464
 H374 H 0.29967 0.56674 0.51944
 H375 H 0.31114 0.59575 0.45778
 H376 H 0.22496 0.65878 0.51942
 H377 H 0.23015 0.68356 0.55002
 H378 H 0.29188 0.65458 0.56146
 H379 H 0.28561 0.63052 0.53067
 C380 C 0.23794 0.67071 0.44199
 C381 C 0.19160 0.57952 0.51169
 C382 C 0.26137 0.67073 0.55806
 C383 C 0.30772 0.57959 0.48826
 C384 C 0.72123 0.90854 0.51018
 H385 H 0.73064 0.90941 0.52472
 C386 C 0.70397 0.92249 0.50717
 H387 H 0.69998 0.93411 0.51945
 C388 C 0.71508 0.89254 0.47623
 H389 H 0.71964 0.88111 0.46406
 C390 C 0.69770 0.90620 0.47258
 H391 H 0.68881 0.90508 0.45770
 N392 N 0.72629 0.89378 0.49491
 C393 C 0.76028 0.84300 0.52894
 H394 H 0.77483 0.84216 0.51953
 C395 C 0.75727 0.82898 0.54613
 H396 H 0.76955 0.81735 0.55006
 C397 C 0.72631 0.85895 0.53516
 H398 H 0.71413 0.87039 0.53064
 C399 C 0.72265 0.84523 0.55246
 H400 H 0.70777 0.84630 0.56135
 Zn401 Zn 0.75019 0.87579 0.50010
 N402 N 0.74500 0.85776 0.52395
 C403 C 0.78529 0.89262 0.52400
 N404 N 0.77407 0.89383 0.50532
 C405 C 0.77909 0.90861 0.49008
 C406 C 0.79633 0.92260 0.49310
 C407 C 0.80264 0.90631 0.52767
 C408 C 0.74015 0.84299 0.47120
 C409 C 0.74317 0.82901 0.45397
 C410 C 0.77776 0.84533 0.44765
 C411 C 0.77410 0.85902 0.46500
 N412 N 0.75541 0.85778 0.47621
 H413 H 0.78075 0.88116 0.53614
 H414 H 0.76968 0.90947 0.47554
 H415 H 0.80029 0.93423 0.48084
 H416 H 0.81155 0.90521 0.54253
 H417 H 0.72561 0.84212 0.48061
 H418 H 0.73090 0.81736 0.45001
 H419 H 0.79264 0.84644 0.43875
 H420 H 0.78626 0.87049 0.46953
 C421 C 0.73830 0.83016 0.55802
 C422 C 0.69208 0.92125 0.48822
 C423 C 0.76213 0.83024 0.44207
 C424 C 0.80824 0.92138 0.51205
 C425 C 0.00977 0.22149 0.40772
 H426 H 0.02430 0.23092 0.40859
 C427 C 0.00675 0.20427 0.42170
 H428 H 0.01902 0.20035 0.43335
 C429 C -0.02417 0.21521 0.39171
 H430 H -0.03633 0.21970 0.38025
 C431 C -0.02782 0.19787 0.40540
 H432 H -0.04269 0.18894 0.40429
 N433 N -0.00549 0.22646 0.39294
 C434 C 0.02865 0.26039 0.34220
 H435 H 0.01923 0.27494 0.34133
 C436 C 0.04589 0.25737 0.32824
 H437 H 0.04986 0.26963 0.31661
 C438 C 0.03484 0.22645 0.35820
 H439 H 0.03030 0.21429 0.36963
 C440 C 0.05220 0.22278 0.34453
 H441 H 0.06110 0.20790 0.34564
 Zn442 Zn -0.00030 0.25033 0.37493
 N443 N 0.02362 0.24514 0.35696
 C444 C 0.02354 0.28549 0.39174
 N445 N 0.00486 0.27425 0.39293
 C446 C -0.01043 0.27926 0.40767
 C447 C -0.00744 0.29650 0.42165
 C448 C 0.02718 0.30285 0.40543
 C449 C -0.02914 0.24017 0.34214
 C450 C -0.04636 0.24314 0.32814
 C451 C -0.05276 0.27776 0.34438
 C452 C -0.03542 0.27415 0.35809
 N453 N -0.02417 0.25547 0.35690
 H454 H 0.03573 0.28096 0.38031
 H455 H -0.02498 0.26983 0.40850
 H456 H -0.01973 0.30045 0.43327
 H457 H 0.04206 0.31176 0.40436
 H458 H -0.01971 0.22564 0.34130
 H459 H -0.05028 0.23084 0.31651
 H460 H -0.06168 0.29263 0.34545
 H461 H -0.03092 0.28634 0.36953
 C462 C 0.05780 0.23841 0.32947
 C463 C -0.01219 0.19233 0.42048
 C464 C -0.05830 0.26209 0.32932
 C465 C 0.01152 0.30843 0.42048
 C466 C -0.00995 0.72102 0.09167
 H467 H -0.02448 0.73046 0.09084
 C468 C -0.00699 0.70376 0.07769
 H469 H -0.01930 0.69982 0.06609
 C470 C 0.02402 0.71476 0.10759
 H471 H 0.03622 0.71929 0.11901
 C472 C 0.02762 0.69740 0.09390
 H473 H 0.04249 0.68847 0.09497
 N474 N 0.00535 0.72602 0.10641
 C475 C -0.02857 0.76008 0.15724
 H476 H -0.01912 0.77461 0.15807
 C477 C -0.04578 0.75711 0.17125
 H478 H -0.04968 0.76940 0.18289
 C479 C -0.03490 0.72612 0.14127
 H480 H -0.03042 0.71393 0.12982
 C481 C -0.05223 0.72250 0.15499
 H482 H -0.06116 0.70764 0.15391
 Zn483 Zn 0.00023 0.74993 0.12442
 N484 N -0.02363 0.74479 0.14246
 C485 C -0.02362 0.78507 0.10768
 N486 N -0.00495 0.77382 0.10643
 C487 C 0.01030 0.77882 0.09165
 C488 C 0.00729 0.79606 0.07769
 C489 C -0.02728 0.80243 0.09402
 C490 C 0.02917 0.73985 0.15713
 C491 C 0.04641 0.74286 0.17110
 C492 C 0.05276 0.77746 0.15484
 C493 C 0.03540 0.77380 0.14116
 N494 N 0.02416 0.75511 0.14238
 H495 H -0.03578 0.78056 0.11914
 H496 H 0.02483 0.76938 0.09076
 H497 H 0.01955 0.80000 0.06605
 H498 H -0.04214 0.81136 0.09515
 H499 H 0.01974 0.72530 0.15799
 H500 H 0.05036 0.73059 0.18273
 H501 H 0.06167 0.79234 0.15374
 H502 H 0.03087 0.78597 0.12972
 C503 C -0.05773 0.73817 0.17007
 C504 C 0.01195 0.69183 0.07887
 C505 C 0.05833 0.76182 0.16990
 C506 C -0.01165 0.80800 0.07894
 C507 C 0.48969 0.22078 0.59275
 H508 H 0.47514 0.23018 0.59189
 C509 C 0.49273 0.20355 0.57877
 H510 H 0.48047 0.19958 0.56713
 C511 C 0.52365 0.21462 0.60875
 H512 H 0.53580 0.21917 0.62020
 C513 C 0.52733 0.19727 0.59506
 H514 H 0.54222 0.18839 0.59617
 N515 N 0.50495 0.22582 0.60753
 C516 C 0.47077 0.25980 0.65825
 H517 H 0.48018 0.27436 0.65912
 C518 C 0.45352 0.25678 0.67220
 H519 H 0.44954 0.26907 0.68382
 C520 C 0.46461 0.22581 0.64228
 H521 H 0.46917 0.21364 0.63085
 C522 C 0.44724 0.22215 0.65594
 H523 H 0.43835 0.20726 0.65483
 Zn524 Zn 0.49972 0.24972 0.62552
 N525 N 0.47582 0.24452 0.64350
 C526 C 0.47584 0.28482 0.60871
 N527 N 0.49453 0.27359 0.60751
 C528 C 0.50981 0.27859 0.59275
 C529 C 0.50680 0.29581 0.57877
 C530 C 0.47219 0.30215 0.59501
 C531 C 0.52862 0.23970 0.65830
 C532 C 0.54587 0.24274 0.67226
 C533 C 0.55218 0.27733 0.65598
 C534 C 0.53482 0.27366 0.64231
 N535 N 0.52360 0.25496 0.64354
 H536 H 0.46367 0.28030 0.62015
 H537 H 0.52435 0.26917 0.59191
 H538 H 0.51909 0.29975 0.56714
 H539 H 0.45731 0.31106 0.59610
 H540 H 0.51921 0.22515 0.65916
 H541 H 0.54984 0.23047 0.68388
 H542 H 0.56108 0.29222 0.65487
 H543 H 0.53028 0.28581 0.63087
 C544 C 0.44163 0.23781 0.67098
 C545 C 0.51171 0.19166 0.57999
 C546 C 0.55778 0.26170 0.67103
 C547 C 0.48784 0.30772 0.57996
 C548 C 0.50994 0.72161 0.90787
 H549 H 0.52448 0.73104 0.90871
 C550 C 0.50696 0.70437 0.92184
 H551 H 0.51925 0.70043 0.93345
 C552 C 0.47597 0.71535 0.89192
 H553 H 0.46379 0.71987 0.88050
 C554 C 0.47234 0.69800 0.90560
 H555 H 0.45747 0.68908 0.90451
 N556 N 0.49465 0.72660 0.89313
 C557 C 0.52868 0.76060 0.84235
 H558 H 0.51926 0.77514 0.84152
 C559 C 0.54589 0.75759 0.82836
 H560 H 0.54983 0.76987 0.81673
 C561 C 0.53492 0.72664 0.85830
 H562 H 0.53040 0.71446 0.86973
 C563 C 0.55225 0.72299 0.84459
 H564 H 0.56116 0.70811 0.84566
 Zn565 Zn 0.49981 0.75050 0.87514
 N566 N 0.52369 0.74532 0.85711
 C567 C 0.52370 0.78563 0.89193
 N568 N 0.50501 0.77439 0.89315
 C569 C 0.48976 0.77939 0.90793
 C570 C 0.49278 0.79662 0.92193
 C571 C 0.52737 0.80298 0.90564
 C572 C 0.47088 0.74040 0.84240
 C573 C 0.45363 0.74340 0.82844
 C574 C 0.44730 0.77800 0.84474
 C575 C 0.46467 0.77436 0.85840
 N576 N 0.47590 0.75567 0.85716
 H577 H 0.53586 0.78111 0.88047
 H578 H 0.47521 0.76997 0.90879
 H579 H 0.48052 0.80056 0.93357
 H580 H 0.54225 0.81188 0.90454
 H581 H 0.48031 0.72585 0.84152
 H582 H 0.44968 0.73111 0.81681
 H583 H 0.43839 0.79287 0.84585
 H584 H 0.46920 0.78653 0.86985
 C585 C 0.55781 0.73863 0.82954
 C586 C 0.48800 0.69244 0.92064
 C587 C 0.44172 0.76235 0.82967
 C588 C 0.51174 0.80854 0.92072
 C589 C 0.12964 0.21725 0.29521
 C590 C 0.12872 0.20408 0.27417
 C591 C 0.14120 0.22201 0.26277
 C592 C 0.14239 0.23512 0.28359
 C593 C 0.10865 0.22844 0.28881
 C594 C 0.12112 0.24637 0.27741
 C595 C 0.10745 0.21532 0.26799
 C596 C 0.12020 0.23320 0.25637
 C597 C 0.15932 0.21842 0.24827
 C598 C 0.17422 0.21546 0.23634
 C599 C 0.09052 0.23201 0.30330
 C600 C 0.07560 0.23493 0.31523
 H601 H 0.13331 0.21073 0.31135
 H602 H 0.13205 0.18665 0.27268
 H603 H 0.15696 0.24323 0.28985
 H604 H 0.11779 0.26379 0.27891
 H605 H 0.09288 0.20722 0.26173
 H606 H 0.11653 0.23971 0.24023
 C607 C 0.63001 0.71853 0.79542
 C608 C 0.62936 0.70450 0.77493
 C609 C 0.64112 0.72236 0.76271
 C610 C 0.64206 0.73633 0.78297
 C611 C 0.60860 0.72874 0.78878
 C612 C 0.62036 0.74660 0.77656
 C613 C 0.60767 0.71477 0.76852
 C614 C 0.61971 0.73257 0.75607
 C615 C 0.65923 0.71879 0.74818
 C616 C 0.67412 0.71584 0.73624
 C617 C 0.59049 0.73228 0.80331
 C618 C 0.57559 0.73519 0.81526
 H619 H 0.63405 0.71279 0.81177
 H620 H 0.63326 0.68715 0.77410
 H621 H 0.65640 0.74516 0.78876
 H622 H 0.61646 0.76395 0.77739
 H623 H 0.59332 0.70594 0.76273
 H624 H 0.61568 0.73831 0.73972
 C625 C 0.37223 0.78773 0.79351
 C626 C 0.37400 0.79612 0.77022
 C627 C 0.35828 0.77856 0.76300
 C628 C 0.35623 0.77022 0.78607
 C629 C 0.39084 0.77221 0.78902
 C630 C 0.37512 0.75465 0.78181
 C631 C 0.39289 0.78055 0.76595
 C632 C 0.37688 0.76305 0.75852
 C633 C 0.34015 0.78211 0.74851
 C634 C 0.32524 0.78503 0.73657
 C635 C 0.40898 0.76868 0.80352
 C636 C 0.42390 0.76579 0.81544
 H637 H 0.37053 0.79783 0.80806
 H638 H 0.37334 0.81321 0.76529
 H639 H 0.34096 0.76601 0.79419
 H640 H 0.37578 0.73756 0.78674
 H641 H 0.40816 0.78476 0.75784
 H642 H 0.37859 0.75294 0.74397
 C643 C -0.11194 0.26051 0.26687
 C644 C -0.13580 0.25640 0.27247
 C645 C -0.14160 0.27814 0.26245
 C646 C -0.11803 0.28230 0.25662
 C647 C -0.10909 0.27186 0.28855
 C648 C -0.11490 0.29359 0.27853
 C649 C -0.13267 0.26769 0.29437
 C650 C -0.13875 0.28948 0.28412
 C651 C -0.15971 0.28164 0.24791
 C652 C -0.17460 0.28454 0.23595
 C653 C -0.09098 0.26836 0.30309
 C654 C -0.07609 0.26550 0.31504
 H655 H -0.10072 0.24856 0.25994
 H656 H -0.14460 0.24115 0.26982
 H657 H -0.11221 0.28835 0.24094
 H658 H -0.10610 0.30885 0.28118
 H659 H -0.13849 0.26164 0.31006
 H660 H -0.14998 0.30144 0.29106
 C661 C -0.10631 0.72217 0.23458
 C662 C -0.12346 0.73919 0.24038
 C663 C -0.14102 0.72224 0.23700
 C664 C -0.12416 0.70516 0.23142
 C665 C -0.10851 0.72845 0.21088
 C666 C -0.12607 0.71150 0.20749
 C667 C -0.12537 0.74553 0.21646
 C668 C -0.14322 0.72852 0.21330
 C669 C -0.15913 0.71876 0.25155
 C670 C -0.17401 0.71588 0.26351
 C671 C -0.09040 0.73191 0.19633
 C672 C -0.07551 0.73475 0.18436
 H673 H -0.09094 0.71960 0.24316
 H674 H -0.12259 0.75054 0.25407
 H675 H -0.12386 0.68852 0.23773
 H676 H -0.12694 0.70015 0.19381
 H677 H -0.12567 0.76217 0.21015
 H678 H -0.15859 0.73109 0.20471
 C679 C 0.39280 0.22155 0.73525
 C680 C 0.37558 0.23850 0.74102
 C681 C 0.35808 0.22151 0.73750
 C682 C 0.37502 0.20450 0.73195
 C683 C 0.39070 0.22790 0.71156
 C684 C 0.37320 0.21090 0.70804
 C685 C 0.37376 0.24491 0.71711
 C686 C 0.35598 0.22786 0.71381
 C687 C 0.33992 0.21795 0.75196
 C688 C 0.32498 0.21502 0.76385
 C689 C 0.40886 0.23144 0.69710
 C690 C 0.42380 0.23435 0.68520
 H691 H 0.40814 0.21899 0.74390
 H692 H 0.37636 0.24981 0.75475
 H693 H 0.37533 0.18784 0.73821
 H694 H 0.37242 0.19959 0.69431
 H695 H 0.37345 0.26157 0.71084
 H696 H 0.34064 0.23042 0.70516
 C697 C 0.60823 0.26751 0.73586
 C698 C 0.63030 0.25625 0.73411
 C699 C 0.64136 0.27801 0.73754
 C700 C 0.61956 0.28933 0.73951
 C701 C 0.60872 0.27163 0.71160
 C702 C 0.61978 0.29339 0.71503
 C703 C 0.63052 0.26031 0.70962
 C704 C 0.64185 0.28213 0.71327
 C705 C 0.65953 0.28158 0.75199
 C706 C 0.67447 0.28451 0.76388
 C707 C 0.59055 0.26808 0.69715
 C708 C 0.57561 0.26517 0.68525
 H709 H 0.59419 0.26146 0.74499
 H710 H 0.63484 0.24102 0.74212
 H711 H 0.61525 0.30130 0.75197
 H712 H 0.61524 0.30862 0.70701
 H713 H 0.63483 0.24834 0.69717
 H714 H 0.65588 0.28818 0.70415
 C715 C 0.12855 0.78604 0.20552
 C716 C 0.12690 0.79597 0.22822
 C717 C 0.14163 0.77817 0.23675
 C718 C 0.14355 0.76829 0.21427
 C719 C 0.10913 0.77176 0.21065
 C720 C 0.12385 0.75396 0.21917
 C721 C 0.10720 0.78164 0.23313
 C722 C 0.12221 0.76389 0.24188
 C723 C 0.15972 0.78174 0.25130
 C724 C 0.17460 0.78468 0.26327
 C725 C 0.09102 0.76821 0.19611
 C726 C 0.07612 0.76529 0.18416
 H727 H 0.13095 0.79511 0.19041
 H728 H 0.12835 0.81329 0.23211
 H729 H 0.15870 0.76283 0.20668
 H730 H 0.12240 0.73664 0.21529
 H731 H 0.09205 0.78710 0.24072
 H732 H 0.11980 0.75482 0.25699
 C733 C 0.28089 0.12365 0.24613
 C734 C 0.28558 0.14301 0.23129
 C735 C 0.26284 0.14104 0.22203
 C736 C 0.25791 0.12197 0.23681
 C737 C 0.28887 0.10848 0.22843
 C738 C 0.26612 0.10652 0.21917
 C739 C 0.29379 0.12756 0.21365
 C740 C 0.27082 0.12587 0.20433
 C741 C 0.24833 0.15917 0.21845
 C742 C 0.23640 0.17407 0.21551
 C743 C 0.30336 0.09035 0.23198
 C744 C 0.31529 0.07543 0.23489
 H745 H 0.28519 0.12253 0.26335
 H746 H 0.29343 0.15821 0.23623
 H747 H 0.24300 0.11987 0.24629
 H748 H 0.25828 0.09131 0.21423
 H749 H 0.30871 0.12965 0.20417
 H750 H 0.26652 0.12699 0.18711
 C751 C 0.77017 0.61503 0.74323
 C752 C 0.77727 0.63876 0.74124
 C753 C 0.76251 0.64122 0.72168
 C754 C 0.75519 0.61777 0.72361
 C755 C 0.78844 0.60858 0.72802
 C756 C 0.77369 0.61104 0.70846
 C757 C 0.79577 0.63203 0.72610
 C758 C 0.78079 0.63477 0.70648
 C759 C 0.74806 0.65940 0.71814
 C760 C 0.73618 0.67435 0.71525
 C761 C 0.80289 0.59040 0.73156
 C762 C 0.81479 0.57545 0.73446
 H763 H 0.76596 0.60671 0.75837
 H764 H 0.77858 0.65036 0.75468
 H765 H 0.73834 0.61211 0.72255
 H766 H 0.77238 0.59943 0.69503
 H767 H 0.81262 0.63768 0.72716
 H768 H 0.78500 0.64309 0.69133
 C769 C 0.76855 0.38565 0.75813
 C770 C 0.77521 0.36172 0.75760
 C771 C 0.76238 0.35800 0.77829
 C772 C 0.75550 0.38165 0.77887
 C773 C 0.78839 0.39059 0.77188
 C774 C 0.77556 0.38687 0.79257
 C775 C 0.79527 0.36694 0.77130
 C776 C 0.78221 0.36293 0.79204
 C777 C 0.74789 0.33985 0.78186
 C778 C 0.73596 0.32493 0.78481
 C779 C 0.80287 0.40874 0.76832
 C780 C 0.81479 0.42367 0.76540
 H781 H 0.76310 0.39520 0.74415
 H782 H 0.77490 0.35117 0.74326
 H783 H 0.73898 0.38750 0.78202
 H784 H 0.77587 0.39741 0.80691
 H785 H 0.81178 0.36109 0.76814
 H786 H 0.78767 0.35339 0.80602
 C787 C 0.29338 -0.12835 0.28666
 C788 C 0.27034 -0.12665 0.29578
 C789 C 0.26249 -0.14188 0.27808
 C790 C 0.28531 -0.14387 0.26900
 C791 C 0.28858 -0.10933 0.27178
 C792 C 0.28073 -0.12456 0.25407
 C793 C 0.26576 -0.10735 0.28085
 C794 C 0.25769 -0.12286 0.26319
 C795 C 0.24796 -0.16001 0.28159
 C796 C 0.23600 -0.17491 0.28448
 C797 C 0.30311 -0.09121 0.26827
 C798 C 0.31507 -0.07630 0.26540
 H799 H 0.30822 -0.13041 0.29627
 H800 H 0.26590 -0.12771 0.31298
 H801 H 0.29318 -0.15908 0.26417
 H802 H 0.28517 -0.12350 0.23687
 H803 H 0.25788 -0.09213 0.28568
 H804 H 0.24285 -0.12080 0.25358
 C805 C 0.21590 -0.11910 0.70625
 C806 C 0.24018 -0.11926 0.71150
 C807 C 0.23748 -0.14143 0.72188
 C808 C 0.21342 -0.14155 0.71657
 C809 C 0.21150 -0.10880 0.72819
 C810 C 0.20881 -0.13098 0.73857
 C811 C 0.23556 -0.10868 0.73349
 C812 C 0.23309 -0.13114 0.74382
 C813 C 0.25196 -0.15960 0.71836
 C814 C 0.26387 -0.17454 0.71546
 C815 C 0.19704 -0.09063 0.73168
 C816 C 0.18513 -0.07568 0.73455
 H817 H 0.20866 -0.11394 0.69083
 H818 H 0.25324 -0.11464 0.70033
 H819 H 0.20448 -0.15527 0.70958
 H820 H 0.19575 -0.13559 0.74974
 H821 H 0.24450 -0.09496 0.74049
 H822 H 0.24032 -0.13629 0.75924
 C823 C 0.73100 0.38597 0.24258
 C824 C 0.72431 0.36203 0.24257
 C825 C 0.73763 0.35859 0.22215
 C826 C 0.74454 0.38225 0.22209
 C827 C 0.71151 0.39111 0.22843
 C828 C 0.72482 0.38767 0.20800
 C829 C 0.70459 0.36746 0.22848
 C830 C 0.71813 0.36374 0.20800
 C831 C 0.75217 0.34048 0.21863
 C832 C 0.76414 0.32559 0.21573
 C833 C 0.69696 0.40922 0.23193
 C834 C 0.68500 0.42412 0.23481
 H835 H 0.73613 0.39531 0.25683
 H836 H 0.72426 0.35129 0.25675
 H837 H 0.76114 0.38813 0.21943
 H838 H 0.72487 0.39842 0.19383
 H839 H 0.68799 0.36158 0.23115
 H840 H 0.71300 0.35439 0.19374
 C841 C 0.71256 0.62196 0.29272
 C842 C 0.73735 0.62089 0.29156
 C843 C 0.73734 0.64154 0.27815
 C844 C 0.71277 0.64289 0.27936
 C845 C 0.71130 0.60895 0.27184
 C846 C 0.71129 0.62960 0.25842
 C847 C 0.73587 0.60759 0.27063
 C848 C 0.73608 0.62853 0.25727
 C849 C 0.75185 0.65969 0.28166
 C850 C 0.76380 0.67461 0.28455
 C851 C 0.69680 0.59079 0.26833
 C852 C 0.68487 0.57585 0.26545
 H853 H 0.70272 0.61905 0.30726
 H854 H 0.74823 0.61750 0.30523
 H855 H 0.70343 0.65761 0.28299
 H856 H 0.70041 0.63298 0.24476
 H857 H 0.74521 0.59287 0.26700
 H858 H 0.74592 0.63143 0.24273
 C859 C 0.21151 0.13011 0.75822
 C860 C 0.21344 0.14301 0.77936
 C861 C 0.23798 0.14177 0.77756
 C862 C 0.23627 0.12915 0.75647
 C863 C 0.21189 0.10921 0.77123
 C864 C 0.23643 0.10796 0.76942
 C865 C 0.21360 0.12182 0.79232
 C866 C 0.23836 0.12086 0.79057
 C867 C 0.25250 0.15990 0.78110
 C868 C 0.26444 0.17481 0.78403
 C869 C 0.19736 0.09108 0.76772
 C870 C 0.18540 0.07617 0.76486
 H871 H 0.20030 0.13372 0.74487
 H872 H 0.20414 0.15762 0.78349
 H873 H 0.24576 0.13236 0.74176
 H874 H 0.24573 0.09335 0.76530
 H875 H 0.20411 0.11861 0.80702
 H876 H 0.24957 0.11726 0.80391
 C877 C 0.22549 0.29590 0.13181
 C878 C 0.20627 0.28033 0.13419
 C879 C 0.22188 0.26255 0.14103
 C880 C 0.24105 0.27789 0.13893
 C881 C 0.22815 0.28855 0.10846
 C882 C 0.24377 0.27077 0.11529
 C883 C 0.20899 0.27321 0.11056
 C884 C 0.22455 0.25520 0.11767
 C885 C 0.21838 0.24807 0.15917
 C886 C 0.21548 0.23616 0.17409
 C887 C 0.23163 0.30304 0.09032
 C888 C 0.23449 0.31497 0.07541
 H889 H 0.22591 0.31279 0.13742
 H890 H 0.19081 0.28410 0.14217
 H891 H 0.25420 0.27966 0.15079
 H892 H 0.25923 0.26701 0.10731
 H893 H 0.19584 0.27145 0.09869
 H894 H 0.22412 0.23831 0.11206
 C895 C 0.72689 0.76482 0.60680
 C896 C 0.74181 0.76266 0.62653
 C897 C 0.72201 0.76323 0.64118
 C898 C 0.70704 0.76516 0.62172
 C899 C 0.72840 0.78935 0.60872
 C900 C 0.70860 0.78991 0.62337
 C901 C 0.74337 0.78741 0.62817
 C902 C 0.72352 0.78775 0.64310
 C903 C 0.71844 0.74868 0.65925
 C904 C 0.71549 0.73671 0.67412
 C905 C 0.73194 0.80390 0.59064
 C906 C 0.73484 0.81586 0.57577
 H907 H 0.72832 0.75556 0.59167
 H908 H 0.75543 0.75130 0.62803
 H909 H 0.69206 0.75585 0.61927
 H910 H 0.69499 0.80128 0.62186
 H911 H 0.75835 0.79672 0.63062
 H912 H 0.72209 0.79702 0.65823
 C913 C 0.75403 0.77860 0.37841
 C914 C 0.76580 0.78458 0.35739
 C915 C 0.77835 0.76342 0.35871
 C916 C 0.76663 0.75721 0.37946
 C917 C 0.77202 0.78951 0.39124
 C918 C 0.78456 0.76835 0.39256
 C919 C 0.78373 0.79572 0.37049
 C920 C 0.79634 0.77433 0.37154
 C921 C 0.78188 0.74888 0.34060
 C922 C 0.78478 0.73691 0.32571
 C923 C 0.76848 0.80404 0.40935
 C924 C 0.76558 0.81598 0.42426
 H925 H 0.73659 0.78051 0.38144
 H926 H 0.75812 0.79109 0.34272
 H927 H 0.75963 0.74121 0.38294
 H928 H 0.79224 0.76184 0.40723
 H929 H 0.79073 0.81172 0.36701
 H930 H 0.81377 0.77242 0.36851
 C931 C 0.28965 0.29115 -0.12575
 C932 C 0.29430 0.26681 -0.12391
 C933 C 0.27793 0.26259 -0.14182
 C934 C 0.27333 0.28670 -0.14395
 C935 C 0.27150 0.28864 -0.10928
 C936 C 0.25513 0.28442 -0.12720
 C937 C 0.27611 0.26453 -0.10716
 C938 C 0.25979 0.26008 -0.12535
 C939 C 0.28152 0.24807 -0.15994
 C940 C 0.28448 0.23612 -0.17483
 C941 C 0.26794 0.30315 -0.09116
 C942 C 0.26502 0.31509 -0.07625
 H943 H 0.30188 0.30408 -0.12571
 H944 H 0.31045 0.25941 -0.12276
 H945 H 0.27223 0.29566 -0.15927
 H946 H 0.23898 0.29182 -0.12834
 H947 H 0.27721 0.25557 -0.09183
 H948 H 0.24755 0.24715 -0.12539
 C949 C 0.72109 0.23434 -0.10651
 C950 C 0.73844 0.24132 -0.12285
 C951 C 0.72247 0.23715 -0.14113
 C952 C 0.70506 0.23040 -0.12507
 C953 C 0.72884 0.21105 -0.10866
 C954 C 0.71287 0.20688 -0.12694
 C955 C 0.74626 0.21781 -0.12471
 C956 C 0.73023 0.21386 -0.14328
 C957 C 0.71891 0.25169 -0.15922
 C958 C 0.71596 0.26364 -0.17409
 C959 C 0.73238 0.19651 -0.09057
 C960 C 0.73527 0.18455 -0.07569
 H961 H 0.71737 0.24260 -0.09119
 H962 H 0.74892 0.25565 -0.12137
 H963 H 0.68808 0.23573 -0.12542
 H964 H 0.70240 0.19256 -0.12842
 H965 H 0.76323 0.21247 -0.12436
 H966 H 0.73395 0.20560 -0.15860
 C967 C 0.22852 0.70446 0.36754
 C968 C 0.20797 0.71788 0.36368
 C969 C 0.22205 0.73746 0.35861
 C970 C 0.24255 0.72427 0.36219
 C971 C 0.22826 0.71141 0.39116
 C972 C 0.24234 0.73099 0.38610
 C973 C 0.20776 0.72460 0.38758
 C974 C 0.22179 0.74441 0.38223
 C975 C 0.21858 0.75196 0.34048
 C976 C 0.21571 0.76389 0.32557
 C977 C 0.23171 0.69691 0.40929
 C978 C 0.23454 0.68497 0.42420
 H979 H 0.23133 0.68788 0.36170
 H980 H 0.19380 0.71265 0.35426
 H981 H 0.25681 0.72429 0.35155
 H982 H 0.25651 0.73622 0.39552
 H983 H 0.19350 0.72458 0.39822
 H984 H 0.21898 0.76099 0.38808
 C985 C 0.26864 0.70512 0.63253
 C986 C 0.29001 0.71675 0.63762
 C987 C 0.27745 0.73760 0.64141
 C988 C 0.25614 0.72620 0.63661
 C989 C 0.27114 0.71150 0.60889
 C990 C 0.25857 0.73236 0.61268
 C991 C 0.29245 0.72290 0.61369
 C992 C 0.27994 0.74398 0.61777
 C993 C 0.28099 0.75214 0.65952
 C994 C 0.28391 0.76410 0.67442
 C995 C 0.26764 0.69697 0.59077
 C996 C 0.26477 0.68501 0.57586
 H997 H 0.26396 0.68899 0.63840
 H998 H 0.30298 0.71049 0.64807
 H999 H 0.24124 0.72773 0.64623
 H1000 H 0.24560 0.73861 0.60222
 H1001 H 0.30734 0.72138 0.60407
 H1002 H 0.28463 0.76012 0.61190
 C1003 C 0.75525 0.22587 0.11826
 C1004 C 0.76194 0.21882 0.14110
 C1005 C 0.77871 0.23689 0.14146
 C1006 C 0.77207 0.24416 0.11890
 C1007 C 0.77237 0.21082 0.10891
 C1008 C 0.78913 0.22888 0.10927
 C1009 C 0.77901 0.20355 0.13147
 C1010 C 0.79583 0.22184 0.13211
 C1011 C 0.78224 0.25141 0.15958
 C1012 C 0.78514 0.26336 0.17449
 C1013 C 0.76884 0.19631 0.09078
 C1014 C 0.76594 0.18438 0.07586
 H1015 H 0.73852 0.22737 0.11236
 H1016 H 0.75080 0.21485 0.15439
 H1017 H 0.76925 0.26102 0.11393
 H1018 H 0.80028 0.23286 0.09598
 H1019 H 0.78183 0.18669 0.13644
 H1020 H 0.81256 0.22034 0.13801
 C1021 C 0.49460 0.36668 0.52292
 C1022 C 0.47663 0.36803 0.50583
 C1023 C 0.47179 0.39106 0.51317
 C1024 C 0.48971 0.38998 0.53003
 C1025 C 0.47805 0.35852 0.53923
 C1026 C 0.47321 0.38155 0.54657
 C1027 C 0.46013 0.35960 0.52237
 C1028 C 0.45524 0.38290 0.52948
 C1029 C 0.46830 0.40917 0.49865
 C1030 C 0.46540 0.42407 0.48671
 C1031 C 0.48153 0.34041 0.55375
 C1032 C 0.48440 0.32550 0.56570
 H1033 H 0.51083 0.35980 0.52039
 H1034 H 0.47800 0.36268 0.48892
 H1035 H 0.50184 0.40268 0.53302
 H1036 H 0.47185 0.38690 0.56348
 H1037 H 0.44801 0.34690 0.51938
 H1038 H 0.43902 0.38978 0.53202
 C1039 C -0.00461 0.87599 0.03303
 C1040 C -0.01075 0.87415 0.00905
 C1041 C -0.02792 0.89150 0.01241
 C1042 C -0.02184 0.89362 0.03617
 C1043 C -0.02154 0.85890 0.03836
 C1044 C -0.03871 0.87625 0.04173
 C1045 C -0.02763 0.85678 0.01460
 C1046 C -0.04485 0.87441 0.01774
 C1047 C -0.03149 0.90966 -0.00204
 C1048 C -0.03442 0.92458 -0.01394
 C1049 C -0.01800 0.84075 0.05282
 C1050 C -0.01510 0.82582 0.06472
 H1051 H 0.01197 0.87644 0.03949
 H1052 H 0.00070 0.87350 -0.00455
 H1053 H -0.01950 0.90898 0.04489
 H1054 H -0.05017 0.87691 0.05533
 H1055 H -0.02997 0.84142 0.00589
 H1056 H -0.06144 0.87396 0.01129
 C1057 C 0.03957 0.62419 0.04083
 C1058 C 0.02306 0.60621 0.03617
 C1059 C 0.02795 0.60833 0.01214
 C1060 C 0.04452 0.62603 0.01657
 C1061 C 0.02168 0.64092 0.03817
 C1062 C 0.02657 0.64304 0.01414
 C1063 C 0.00512 0.62322 0.03374
 C1064 C 0.01006 0.62506 0.00948
 C1065 C 0.03145 0.59018 -0.00237
 C1066 C 0.03434 0.57525 -0.01430
 C1067 C 0.01820 0.65907 0.05268
 C1068 C 0.01534 0.67400 0.06461
 H1069 H 0.05167 0.62404 0.05388
 H1070 H 0.02166 0.59086 0.04507
 H1071 H 0.06076 0.62699 0.00934
 H1072 H 0.02797 0.65839 0.00524
 H1073 H -0.01112 0.62226 0.04097
 H1074 H -0.00204 0.62521 -0.00357
 C1075 C 0.53267 0.11975 0.54571
 C1076 C 0.51483 0.10716 0.53386
 C1077 C 0.52815 0.10831 0.51318
 C1078 C 0.54605 0.12063 0.52481
 C1079 C 0.52171 0.14084 0.53926
 C1080 C 0.53503 0.14200 0.51858
 C1081 C 0.50380 0.12853 0.52763
 C1082 C 0.51718 0.12941 0.50673
 C1083 C 0.53175 0.09020 0.49865
 C1084 C 0.53472 0.07531 0.48670
 C1085 C 0.51813 0.15896 0.55378
 C1086 C 0.51520 0.17387 0.56572
 H1087 H 0.53900 0.11598 0.56190
 H1088 H 0.50656 0.09263 0.53998
 H1089 H 0.56347 0.11717 0.52349
 H1090 H 0.54330 0.15653 0.51246
 H1091 H 0.48639 0.13199 0.52895
 H1092 H 0.51085 0.13318 0.49054
 C1093 C -0.00495 0.12470 0.46688
 C1094 C -0.01151 0.12658 0.49075
 C1095 C -0.02836 0.10895 0.48721
 C1096 C -0.02186 0.10679 0.46356
 C1097 C -0.02204 0.14150 0.46118
 C1098 C -0.03889 0.12387 0.45763
 C1099 C -0.02854 0.14366 0.48483
 C1100 C -0.04545 0.12575 0.48151
 C1101 C -0.03189 0.09082 0.50170
 C1102 C -0.03480 0.07591 0.51363
 C1103 C -0.01854 0.15963 0.44668
 C1104 C -0.01565 0.17454 0.43474
 H1105 H 0.01174 0.12448 0.46070
 H1106 H -0.00028 0.12749 0.50453
 H1107 H -0.01915 0.09143 0.45497
 H1108 H -0.05012 0.12296 0.44385
 H1109 H -0.03125 0.15902 0.49341
 H1110 H -0.06214 0.12597 0.48768
 C1111 C 0.47366 0.61850 0.95391
 C1112 C 0.49004 0.61022 0.97064
 C1113 C 0.47194 0.60899 0.98730
 C1114 C 0.45551 0.61699 0.97079
 C1115 C 0.47822 0.64157 0.96129
 C1116 C 0.46012 0.64034 0.97795
 C1117 C 0.49465 0.63357 0.97780
 C1118 C 0.47649 0.63206 0.99468
 C1119 C 0.46842 0.59084 1.00178
 C1120 C 0.46551 0.57592 1.01369
 C1121 C 0.48171 0.65971 0.94681
 C1122 C 0.48458 0.67463 0.93489
 H1123 H 0.47254 0.61313 0.93698
 H1124 H 0.50230 0.59763 0.96780
 H1125 H 0.43937 0.60997 0.96807
 H1126 H 0.44786 0.65293 0.98079
 H1127 H 0.51079 0.64059 0.98052
 H1128 H 0.47762 0.63743 1.01161
 C1129 C 0.52876 0.85714 0.98500
 C1130 C 0.54532 0.87532 0.98143
 C1131 C 0.52811 0.89183 0.98763
 C1132 C 0.51160 0.87393 0.99142
 C1133 C 0.52170 0.85933 0.96151
 C1134 C 0.50449 0.87583 0.96771
 C1135 C 0.53820 0.87723 0.95772
 C1136 C 0.52105 0.89402 0.96415
 C1137 C 0.53169 0.90993 1.00218
 C1138 C 0.53464 0.92481 1.01415
 C1139 C 0.51813 0.84122 0.94697
 C1140 C 0.51522 0.82633 0.93500
 H1141 H 0.53189 0.84177 0.99341
 H1142 H 0.56214 0.87531 0.98723
 H1143 H 0.50071 0.87277 1.00544
 H1144 H 0.48766 0.87584 0.96191
 H1145 H 0.54909 0.87838 0.94370
 H1146 H 0.51792 0.90938 0.95574
 C1147 C 0.03671 0.35885 0.48052
 C1148 C 0.04532 0.38116 0.47379
 C1149 C 0.02772 0.39176 0.48737
 C1150 C 0.01916 0.36973 0.49434
 C1151 C 0.02137 0.35924 0.46126
 C1152 C 0.00377 0.36984 0.47484
 C1153 C 0.02993 0.38127 0.45430
 C1154 C 0.01238 0.39215 0.46811
 C1155 C 0.03126 0.40987 0.50192
 C1156 C 0.03419 0.42476 0.51390
 C1157 C 0.01785 0.34113 0.44672
 C1158 C 0.01496 0.32623 0.43475
 H1159 H 0.04667 0.34496 0.48547
 H1160 H 0.06245 0.38602 0.47352
 H1161 H 0.01476 0.36519 0.51096
 H1162 H -0.01336 0.36499 0.47511
 H1163 H 0.03433 0.38581 0.43767
 H1164 H 0.00242 0.40605 0.46316
 C1165 C 0.38084 0.54164 0.48868
 C1166 C 0.38103 0.51742 0.49418
 C1167 C 0.39113 0.51277 0.47221
 C1168 C 0.39122 0.53677 0.46665
 C1169 C 0.35858 0.53885 0.47850
 C1170 C 0.36868 0.53420 0.45652
 C1171 C 0.35848 0.51485 0.48405
 C1172 C 0.36886 0.50998 0.46203
 C1173 C 0.40925 0.49824 0.46869
 C1174 C 0.42415 0.48629 0.46579
 C1175 C 0.34045 0.55337 0.48199
 C1176 C 0.32553 0.56532 0.48485
 H1177 H 0.38556 0.55483 0.49967
 H1178 H 0.38631 0.51035 0.50963
 H1179 H 0.40488 0.54563 0.45945
 H1180 H 0.36339 0.54127 0.44108
 H1181 H 0.34482 0.50599 0.49125
 H1182 H 0.36414 0.49679 0.45103
 C1183 C 0.87774 0.03467 -0.00582
 C1184 C 0.87595 0.01023 -0.00993
 C1185 C 0.89211 0.01243 -0.02838
 C1186 C 0.89419 0.03665 -0.02433
 C1187 C 0.85952 0.03842 -0.02196
 C1188 C 0.87568 0.04062 -0.04041
 C1189 C 0.85745 0.01420 -0.02601
 C1190 C 0.87389 0.01617 -0.04452
 C1191 C 0.91026 -0.00205 -0.03196
 C1192 C 0.92519 -0.01397 -0.03491
 C1193 C 0.84137 0.05290 -0.01840
 C1194 C 0.82645 0.06482 -0.01548
 H1195 H 0.87912 0.04244 0.01013
 H1196 H 0.87626 -0.00243 0.00257
 H1197 H 0.90950 0.04572 -0.02368
 H1198 H 0.87537 0.05328 -0.05291
 H1199 H 0.84214 0.00513 -0.02667
 H1200 H 0.87251 0.00841 -0.06047
 C1201 C 0.61983 0.04028 0.01022
 C1202 C 0.62011 0.01575 0.00625
 C1203 C 0.60897 0.01240 0.02796
 C1204 C 0.60841 0.03671 0.03197
 C1205 C 0.64158 0.03841 0.02163
 C1206 C 0.63044 0.03507 0.04333
 C1207 C 0.64215 0.01411 0.01761
 C1208 C 0.63073 0.01054 0.03937
 C1209 C 0.59082 -0.00209 0.03149
 C1210 C 0.57589 -0.01401 0.03440
 C1211 C 0.65974 0.05290 0.01811
 C1212 C 0.67467 0.06483 0.01522
 H1213 H 0.61555 0.05267 -0.00181
 H1214 H 0.61566 0.00764 -0.00895
 H1215 H 0.59433 0.04585 0.03792
 H1216 H 0.63489 0.04318 0.05854
 H1217 H 0.65622 0.00497 0.01166
 H1218 H 0.63501 -0.00185 0.05139
 C1219 C 0.14107 0.51962 0.53700
 C1220 C 0.11864 0.52643 0.54526
 C1221 C 0.10829 0.51256 0.52772
 C1222 C 0.13043 0.50553 0.51952
 C1223 C 0.14080 0.53870 0.52143
 C1224 C 0.13045 0.52483 0.50389
 C1225 C 0.11866 0.54573 0.52963
 C1226 C 0.10802 0.53164 0.51215
 C1227 C 0.09018 0.49801 0.53123
 C1228 C 0.07529 0.48604 0.53413
 C1229 C 0.15891 0.55325 0.51795
 C1230 C 0.17381 0.56522 0.51509
 H1231 H 0.15486 0.51484 0.54718
 H1232 H 0.11359 0.52692 0.56231
 H1233 H 0.13507 0.48884 0.51539
 H1234 H 0.13550 0.52434 0.48684
 H1235 H 0.11402 0.56242 0.53376
 H1236 H 0.09423 0.53642 0.50196
 C1237 C 0.13479 0.47095 -0.04358
 C1238 C 0.11098 0.46551 -0.03904
 C1239 C 0.10838 0.48740 -0.02803
 C1240 C 0.13191 0.49307 -0.03262
 C1241 C 0.14088 0.46126 -0.02178
 C1242 C 0.13827 0.48315 -0.01077
 C1243 C 0.11734 0.45559 -0.01719
 C1244 C 0.11446 0.47771 -0.00623
 C1245 C 0.09027 0.50196 -0.03153
 C1246 C 0.07538 0.51392 -0.03442
 C1247 C 0.15898 0.44670 -0.01832
 C1248 C 0.17387 0.43473 -0.01548
 H1249 H 0.14336 0.46801 -0.05890
 H1250 H 0.09955 0.45841 -0.05071
 H1251 H 0.13770 0.50865 -0.03900
 H1252 H 0.14970 0.49024 0.00089
 H1253 H 0.11155 0.44001 -0.01081
 H1254 H 0.10590 0.48065 0.00909
 C1255 C 0.61832 0.95435 0.47256
 C1256 C 0.60918 0.97024 0.48933
 C1257 C 0.60843 0.98770 0.47199
 C1258 C 0.61729 0.97204 0.45517
 C1259 C 0.64109 0.96178 0.47835
 C1260 C 0.64034 0.97925 0.46101
 C1261 C 0.63223 0.97745 0.49518
 C1262 C 0.63120 0.99513 0.47778
 C1263 C 0.59025 1.00214 0.46845
 C1264 C 0.57529 1.01402 0.46554
 C1265 C 0.65927 0.94734 0.48188
 C1266 C 0.67423 0.93546 0.48477
 H1267 H 0.61323 0.93741 0.47045
 H1268 H 0.59617 0.96669 0.50094
 H1269 H 0.61094 0.96997 0.43867
 H1270 H 0.65335 0.98279 0.44940
 H1271 H 0.63859 0.97951 0.51167
 H1272 H 0.63630 1.01207 0.47989
 C1273 C 0.85961 0.98573 0.51520
 C1274 C 0.86912 0.99160 0.53738
 C1275 C 0.89175 0.98806 0.52831
 C1276 C 0.88253 0.98241 0.50618
 C1277 C 0.85915 0.96204 0.52195
 C1278 C 0.88178 0.95850 0.51288
 C1279 C 0.86838 0.96769 0.54407
 C1280 C 0.89129 0.96437 0.53506
 C1281 C 0.90991 1.00255 0.53185
 C1282 C 0.92484 1.01448 0.53476
 C1283 C 0.84099 0.94756 0.51841
 C1284 C 0.82606 0.93563 0.51551
 H1285 H 0.84639 0.99435 0.50699
 H1286 H 0.86412 1.00538 0.54749
 H1287 H 0.88855 0.98863 0.49064
 H1288 H 0.88678 0.94473 0.50277
 H1289 H 0.86235 0.96147 0.55962
 H1290 H 0.90452 0.95575 0.54327
 C1291 C 0.37457 0.45918 0.04016
 C1292 C 0.39324 0.46292 0.02422
 C1293 C 0.39116 0.48720 0.02792
 C1294 C 0.37276 0.48369 0.04392
 C1295 C 0.35860 0.46114 0.02152
 C1296 C 0.35652 0.48542 0.02521
 C1297 C 0.37699 0.46466 0.00552
 C1298 C 0.37519 0.48916 0.00927
 C1299 C 0.40929 0.50172 0.03149
 C1300 C 0.42420 0.51366 0.03444
 C1301 C 0.34047 0.44663 0.01796
 C1302 C 0.32555 0.43468 0.01505
 H1303 H 0.37410 0.44670 0.05283
 H1304 H 0.40854 0.45384 0.02385
 H1305 H 0.37123 0.49167 0.05975
 H1306 H 0.34121 0.49450 0.02558
 H1307 H 0.37852 0.45667 -0.01031
 H1308 H 0.37565 0.50164 -0.00339
 C1309 C 0.54202 0.48776 0.38143
 C1310 C 0.51794 0.49385 0.38189
 C1311 C 0.51282 0.47177 0.39153
 C1312 C 0.53668 0.46562 0.39135
 C1313 C 0.53886 0.47811 0.35899
 C1314 C 0.53374 0.45603 0.36863
 C1315 C 0.51501 0.48426 0.35917
 C1316 C 0.50966 0.46213 0.36909
 C1317 C 0.49831 0.46823 0.40965
 C1318 C 0.48636 0.46532 0.42454
 C1319 C 0.55336 0.48164 0.34087
 C1320 C 0.56530 0.48454 0.32596
 H1321 H 0.55549 0.49834 0.38631
 H1322 H 0.51128 0.50937 0.38755
 H1323 H 0.54543 0.45791 0.40479
 H1324 H 0.54040 0.44052 0.36298
 H1325 H 0.50626 0.49197 0.34573
 H1326 H 0.49619 0.45155 0.36421
 C1327 C 0.01873 -0.03499 0.85757
 C1328 C 0.02511 -0.04539 0.87919
 C1329 C 0.01300 -0.02750 0.89104
 C1330 C 0.00640 -0.01715 0.86970
 C1331 C 0.03911 -0.02116 0.85855
 C1332 C 0.02701 -0.00326 0.87040
 C1333 C 0.04571 -0.03151 0.87989
 C1334 C 0.03338 -0.01367 0.89202
 C1335 C -0.00154 -0.03105 0.90913
 C1336 C -0.01350 -0.03399 0.92401
 C1337 C 0.05365 -0.01765 0.84046
 C1338 C 0.06561 -0.01478 0.82557
 H1339 H 0.01288 -0.04371 0.84321
 H1340 H 0.02417 -0.06275 0.88301
 H1341 H -0.00992 -0.01128 0.86571
 H1342 H 0.02795 0.01410 0.86658
 H1343 H 0.06203 -0.03738 0.88388
 H1344 H 0.03924 -0.00494 0.90638
 C1345 C 0.04157 0.01155 0.61889
 C1346 C 0.01730 0.00618 0.61881
 C1347 C 0.01277 0.02816 0.60866
 C1348 C 0.03681 0.03358 0.60845
 C1349 C 0.03893 0.02185 0.64110
 C1350 C 0.03440 0.04383 0.63095
 C1351 C 0.01490 0.01643 0.64131
 C1352 C 0.01014 0.03846 0.63087
 C1353 C -0.00180 0.03168 0.59059
 C1354 C -0.01379 0.03460 0.57572
 C1355 C 0.05351 0.01835 0.65918
 C1356 C 0.06549 0.01548 0.67405
 H1357 H 0.05465 0.00044 0.61416
 H1358 H 0.01011 -0.00926 0.61362
 H1359 H 0.04565 0.04067 0.59474
 H1360 H 0.04160 0.05927 0.63614
 H1361 H 0.00605 0.00934 0.65502
 H1362 H -0.00294 0.04957 0.63560
 C1363 C 0.52764 0.54303 0.13646
 C1364 C 0.53378 0.54045 0.11254
 C1365 C 0.51283 0.52803 0.10880
 C1366 C 0.50646 0.53067 0.13244
 C1367 C 0.53886 0.52165 0.14133
 C1368 C 0.51790 0.50923 0.13759
 C1369 C 0.54522 0.51901 0.11770
 C1370 C 0.52404 0.50664 0.11367
 C1371 C 0.49832 0.53159 0.09068
 C1372 C 0.48639 0.53453 0.07578
 C1373 C 0.55336 0.51811 0.15946
 C1374 C 0.56529 0.51521 0.17436
 H1375 H 0.52929 0.55796 0.14604
 H1376 H 0.54015 0.55333 0.10204
 H1377 H 0.49037 0.53551 0.13830
 H1378 H 0.51154 0.49635 0.14809
 H1379 H 0.56132 0.51417 0.11184
 H1380 H 0.52240 0.49172 0.10410
 C1381 C 0.48263 -0.03437 0.14269
 C1382 C 0.47676 -0.04653 0.12184
 C1383 C 0.48727 -0.02851 0.10874
 C1384 C 0.49337 -0.01640 0.12931
 C1385 C 0.46124 -0.02223 0.14131
 C1386 C 0.47175 -0.00421 0.12821
 C1387 C 0.45514 -0.03434 0.12074
 C1388 C 0.46588 -0.01637 0.10736
 C1389 C 0.50177 -0.03202 0.09061
 C1390 C 0.51369 -0.03492 0.07569
 C1391 C 0.44674 -0.01873 0.15945
 C1392 C 0.43481 -0.01585 0.17436
 H1393 H 0.48936 -0.04173 0.15742
 H1394 H 0.47898 -0.06397 0.11902
 H1395 H 0.50925 -0.00907 0.13263
 H1396 H 0.46953 0.01323 0.13104
 H1397 H 0.43926 -0.04167 0.11742
 H1398 H 0.45915 -0.00901 0.09263
 C1399 C 0.98214 0.46556 0.64246
 C1400 C 0.97624 0.45339 0.62162
 C1401 C 0.98675 0.47139 0.60851
 C1402 C 0.99288 0.48351 0.62906
 C1403 C 0.96075 0.47771 0.64109
 C1404 C 0.97127 0.49572 0.62797
 C1405 C 0.95463 0.46560 0.62053
 C1406 C 0.96537 0.48354 0.60714
 C1407 C 1.00124 0.46787 0.59036
 C1408 C 1.01316 0.46498 0.57544
 C1409 C 0.94627 0.48123 0.65923
 C1410 C 0.93435 0.48413 0.67415
 H1411 H 0.98888 0.45821 0.65719
 H1412 H 0.97845 0.43595 0.61881
 H1413 H 1.00877 0.49084 0.63237
 H1414 H 0.96906 0.51316 0.63079
 H1415 H 0.93874 0.45827 0.61723
 H1416 H 0.95863 0.49090 0.59241
 C1417 C 0.95587 0.51515 0.88200
 C1418 C 0.97892 0.50609 0.88389
 C1419 C 0.98672 0.52826 0.89132
 C1420 C 0.96389 0.53738 0.88971
 C1421 C 0.96069 0.52178 0.85879
 C1422 C 0.96850 0.54395 0.86622
 C1423 C 0.98352 0.51266 0.86040
 C1424 C 0.99155 0.53489 0.86811
 C1425 C 1.00123 0.53186 0.90944
 C1426 C 1.01318 0.53482 0.92433
 C1427 C 0.94620 0.51817 0.84066
 C1428 C 0.93428 0.51522 0.82575
 H1429 H 0.94103 0.50700 0.88751
 H1430 H 0.98337 0.49056 0.89136
 H1431 H 0.95598 0.54758 0.90196
 H1432 H 0.96404 0.55948 0.85875
 H1433 H 0.99143 0.50246 0.84814
 H1434 H 1.00638 0.54304 0.86260
 C1435 C 0.48480 0.02850 0.35684
 C1436 C 0.48105 0.04480 0.37521
 C1437 C 0.48748 0.02747 0.39148
 C1438 C 0.49145 0.01123 0.37339
 C1439 C 0.46139 0.02113 0.35897
 C1440 C 0.46781 0.00380 0.37524
 C1441 C 0.45741 0.03737 0.37706
 C1442 C 0.46406 0.02010 0.39361
 C1443 C 0.50200 0.03102 0.40959
 C1444 C 0.51395 0.03396 0.42448
 C1445 C 0.44686 0.01761 0.34086
 C1446 C 0.43490 0.01473 0.32596
 H1447 H 0.49317 0.03192 0.34151
 H1448 H 0.48666 0.06170 0.37540
 H1449 H 0.50561 0.00052 0.37208
 H1450 H 0.46220 -0.01310 0.37504
 H1451 H 0.44325 0.04808 0.37837
 H1452 H 0.45569 0.01668 0.40893
   
