data_POSCAR
  _audit_creation_date              2014-09-24
  _audit_creation_method            'ToBaCCo'
  _symmetry_space_group_name_H-M    'P1'
  _symmetry_Int_Tables_number       1
  _symmetry_cell_setting            triclinic
  loop_
  _symmetry_equiv_pos_as_xyz
 x,y,z
_cell_length_a 74.6105
_cell_length_b 71.9494
_cell_length_c 72.0199
_cell_angle_alpha 89.978100
_cell_angle_beta 89.541000
_cell_angle_gamma 89.500500
loop_
  _atom_site_label
  _atom_site_type_symbol
  _atom_site_fract_x
  _atom_site_fract_y
  _atom_site_fract_z
C1 C 0.19656 0.19588 0.21778
 C2 C 0.18160 0.19932 0.22924
 C3 C 0.16967 0.21403 0.22534
 C4 C 0.17290 0.22534 0.20976
 C5 C 0.18776 0.22204 0.19815
 C6 C 0.19967 0.20728 0.20217
 C7 C 0.20842 0.18119 0.22166
 C8 C 0.22340 0.17768 0.21015
 C9 C 0.22642 0.18915 0.19462
 C10 C 0.21468 0.20392 0.19057
 C11 C 0.21766 0.21533 0.17505
 C12 C 0.20580 0.23004 0.17094
 C13 C 0.19090 0.23330 0.18260
 H14 H 0.17910 0.19036 0.24107
 H15 H 0.16394 0.23688 0.20678
 H16 H 0.20612 0.17262 0.23382
 H17 H 0.23778 0.18642 0.18552
 H18 H 0.22908 0.21263 0.16602
 H19 H 0.18183 0.24477 0.17967
 C20 C 0.70218 0.69955 0.72067
 C21 C 0.68822 0.70309 0.73334
 C22 C 0.67682 0.71859 0.73111
 C23 C 0.67953 0.73057 0.71592
 C24 C 0.69345 0.72719 0.70311
 C25 C 0.70486 0.71164 0.70551
 C26 C 0.71350 0.68408 0.72293
 C27 C 0.72752 0.68046 0.71023
 C28 C 0.73015 0.69262 0.69517
 C29 C 0.71894 0.70818 0.69274
 C30 C 0.72153 0.72028 0.67771
 C31 C 0.71022 0.73580 0.67521
 C32 C 0.69620 0.73915 0.68798
 H33 H 0.68605 0.69361 0.74482
 H34 H 0.67093 0.74266 0.71420
 H35 H 0.71155 0.67496 0.73474
 H36 H 0.74079 0.68984 0.68520
 H37 H 0.73222 0.71748 0.66779
 H38 H 0.68756 0.75121 0.68626
 C39 C 0.28938 0.79835 0.72936
 C40 C 0.30368 0.79559 0.74163
 C41 C 0.31611 0.78103 0.73880
 C42 C 0.31409 0.76920 0.72342
 C43 C 0.29989 0.77181 0.71102
 C44 C 0.28743 0.78639 0.71405
 C45 C 0.27702 0.81288 0.73224
 C46 C 0.26247 0.81578 0.72006
 C47 C 0.26073 0.80354 0.70482
 C48 C 0.27305 0.78901 0.70175
 C49 C 0.27130 0.77716 0.68640
 C50 C 0.28373 0.76269 0.68320
 C51 C 0.29796 0.76008 0.69564
 H52 H 0.30529 0.80497 0.75326
 H53 H 0.32346 0.75780 0.72122
 H54 H 0.27849 0.82139 0.74451
 H55 H 0.25026 0.80566 0.69470
 H56 H 0.26041 0.77939 0.67676
 H57 H 0.30746 0.74880 0.69341
 C58 C 0.79759 0.31152 0.21951
 C59 C 0.81222 0.30901 0.23139
 C60 C 0.82422 0.29384 0.22916
 C61 C 0.82106 0.28120 0.21453
 C62 C 0.80655 0.28364 0.20248
 C63 C 0.79473 0.29882 0.20500
 C64 C 0.78569 0.32652 0.22206
 C65 C 0.77101 0.32912 0.21018
 C66 C 0.76830 0.31643 0.19564
 C67 C 0.78004 0.30129 0.19299
 C68 C 0.77737 0.28865 0.17846
 C69 C 0.78921 0.27356 0.17575
 C70 C 0.80374 0.27115 0.18786
 H71 H 0.81367 0.31860 0.24285
 H72 H 0.83029 0.26980 0.21184
 H73 H 0.78774 0.33606 0.23347
 H74 H 0.75718 0.31844 0.18624
 H75 H 0.76624 0.29070 0.16908
 H76 H 0.81276 0.25939 0.18602
 C77 C 0.79826 0.68712 0.27851
 C78 C 0.81317 0.68952 0.26679
 C79 C 0.82519 0.70437 0.26940
 C80 C 0.82174 0.71683 0.28423
 C81 C 0.80693 0.71451 0.29612
 C82 C 0.79514 0.69962 0.29325
 C83 C 0.78636 0.67244 0.27561
 C84 C 0.77142 0.66994 0.28736
 C85 C 0.76849 0.68241 0.30214
 C86 C 0.78022 0.69721 0.30515
 C87 C 0.77728 0.70962 0.31989
 C88 C 0.78906 0.72444 0.32297
 C89 C 0.80385 0.72679 0.31097
 H90 H 0.81484 0.68011 0.25517
 H91 H 0.83094 0.72798 0.28719
 H92 H 0.78860 0.66306 0.26403
 H93 H 0.75719 0.68045 0.31147
 H94 H 0.76569 0.70785 0.32886
 H95 H 0.81312 0.73803 0.31337
 C96 C 0.29620 0.19779 -0.22882
 C97 C 0.31110 0.20141 -0.24024
 C98 C 0.32225 0.21687 -0.23697
 C99 C 0.31799 0.22859 -0.22177
 C100 C 0.30321 0.22504 -0.21019
 C101 C 0.29226 0.20963 -0.21373
 C102 C 0.28510 0.18255 -0.23235
 C103 C 0.27015 0.17892 -0.22091
 C104 C 0.26645 0.19073 -0.20578
 C105 C 0.27737 0.20602 -0.20212
 C106 C 0.27364 0.21774 -0.18700
 C107 C 0.28461 0.23306 -0.18325
 C108 C 0.29936 0.23662 -0.19496
 H109 H 0.31346 0.19247 -0.25211
 H110 H 0.32655 0.24012 -0.21828
 H111 H 0.28796 0.17363 -0.24415
 H112 H 0.25517 0.18786 -0.19667
 H113 H 0.26207 0.21504 -0.17824
 H114 H 0.30804 0.24825 -0.19205
 C115 C 0.70607 0.30512 -0.21921
 C116 C 0.69112 0.30264 -0.23060
 C117 C 0.67878 0.28818 -0.22723
 C118 C 0.68194 0.27621 -0.21199
 C119 C 0.69677 0.27864 -0.20041
 C120 C 0.70889 0.29313 -0.20403
 C121 C 0.71836 0.31935 -0.22290
 C122 C 0.73338 0.32186 -0.21152
 C123 C 0.73595 0.30996 -0.19626
 C124 C 0.72384 0.29564 -0.19246
 C125 C 0.72647 0.28378 -0.17726
 C126 C 0.71437 0.26938 -0.17343
 C127 C 0.69958 0.26688 -0.18512
 H128 H 0.68966 0.31164 -0.24255
 H129 H 0.67250 0.26540 -0.20848
 H130 H 0.71636 0.32833 -0.23481
 H131 H 0.74729 0.31197 -0.18719
 H132 H 0.73808 0.28563 -0.16853
 H133 H 0.69009 0.25592 -0.18215
 C134 C 0.20425 0.80997 0.27619
 C135 C 0.18908 0.80695 0.26524
 C136 C 0.17792 0.79163 0.26857
 C137 C 0.18211 0.77927 0.28305
 C138 C 0.19724 0.78210 0.29410
 C139 C 0.20839 0.79748 0.29062
 C140 C 0.21537 0.82524 0.27281
 C141 C 0.23077 0.82844 0.28366
 C142 C 0.23467 0.81569 0.29809
 C143 C 0.22365 0.80036 0.30159
 C144 C 0.22761 0.78794 0.31605
 C145 C 0.21653 0.77263 0.31968
 C146 C 0.20137 0.76981 0.30859
 H147 H 0.18605 0.81642 0.25396
 H148 H 0.17345 0.76756 0.28588
 H149 H 0.21224 0.83414 0.26114
 H150 H 0.24586 0.81795 0.30725
 H151 H 0.23921 0.79033 0.32468
 H152 H 0.19289 0.75790 0.31111
 C153 C 0.44808 0.45678 0.48075
 C154 C 0.45075 0.44110 0.49199
 C155 C 0.46536 0.42900 0.48878
 C156 C 0.47737 0.43277 0.47413
 C157 C 0.47483 0.44838 0.46272
 C158 C 0.46014 0.46044 0.46604
 C159 C 0.43350 0.46883 0.48396
 C160 C 0.43074 0.48448 0.47261
 C161 C 0.44281 0.48804 0.45797
 C162 C 0.45749 0.47616 0.45464
 C163 C 0.46953 0.47973 0.44005
 C164 C 0.48419 0.46777 0.43662
 C165 C 0.48673 0.45209 0.44801
 H166 H 0.44157 0.43841 0.50340
 H167 H 0.48854 0.42340 0.47144
 H168 H 0.42413 0.46587 0.49514
 H169 H 0.44089 0.50020 0.44930
 H170 H 0.46735 0.49169 0.43117
 H171 H 0.49810 0.44292 0.44556
 C172 C -0.05283 -0.04399 0.97827
 C173 C -0.05068 -0.05917 0.99032
 C174 C -0.03591 -0.07132 0.98843
 C175 C -0.02318 -0.06807 0.97433
 C176 C -0.02515 -0.05297 0.96218
 C177 C -0.04008 -0.04093 0.96409
 C178 C -0.06761 -0.03193 0.98015
 C179 C -0.07013 -0.01679 0.96789
 C180 C -0.05720 -0.01401 0.95370
 C181 C -0.04227 -0.02587 0.95180
 C182 C -0.02942 -0.02279 0.93782
 C183 C -0.01444 -0.03467 0.93586
 C184 C -0.01247 -0.04978 0.94809
 H185 H -0.06042 -0.06143 1.00132
 H186 H -0.01186 -0.07748 0.97262
 H187 H -0.07752 -0.03502 0.99074
 H188 H -0.05821 -0.00218 0.94448
 H189 H -0.03095 -0.01099 0.92859
 H190 H -0.00115 -0.05921 0.94651
 C191 C 1.04638 0.53953 0.97105
 C192 C 1.04297 0.55440 0.98322
 C193 C 1.02819 0.56656 0.98062
 C194 C 1.01692 0.56335 0.96527
 C195 C 1.02024 0.54859 0.95296
 C196 C 1.03496 0.53659 0.95591
 C197 C 1.06097 0.52746 0.97398
 C198 C 1.06451 0.51230 0.96195
 C199 C 1.05288 0.50967 0.94677
 C200 C 1.03829 0.52166 0.94369
 C201 C 1.02704 0.51898 0.92843
 C202 C 1.01247 0.53104 0.92517
 C203 C 1.00913 0.54579 0.93758
 H204 H 1.05154 0.55589 0.99517
 H205 H 1.00589 0.57274 0.96229
 H206 H 1.06908 0.52961 0.98617
 H207 H 1.05548 0.49878 0.93672
 H208 H 1.02953 0.50736 0.91916
 H209 H 0.99805 0.55529 0.93510
 C210 C 0.55979 0.04498 0.46661
 C211 C 0.55731 0.06036 0.47837
 C212 C 0.54296 0.07285 0.47565
 C213 C 0.53107 0.06981 0.46094
 C214 C 0.53335 0.05449 0.44911
 C215 C 0.54774 0.04199 0.45198
 C216 C 0.57411 0.03253 0.46935
 C217 C 0.57671 0.01688 0.45771
 C218 C 0.56440 0.01413 0.44314
 C219 C 0.55007 0.02651 0.44022
 C220 C 0.53806 0.02368 0.42560
 C221 C 0.52371 0.03610 0.42260
 C222 C 0.52146 0.05147 0.43446
 H223 H 0.56669 0.06274 0.48952
 H224 H 0.51983 0.07922 0.45887
 H225 H 0.58272 0.03480 0.48114
 H226 H 0.56624 0.00280 0.43340
 H227 H 0.53975 0.01164 0.41669
 H228 H 0.51060 0.06128 0.43213
 C229 C -0.04688 0.04143 0.52852
 C230 C -0.04497 0.05725 0.51729
 C231 C -0.03080 0.06967 0.52014
 C232 C -0.01844 0.06603 0.53435
 C233 C -0.02017 0.05027 0.54565
 C234 C -0.03445 0.03792 0.54277
 C235 C -0.06105 0.02910 0.52572
 C236 C -0.06306 0.01328 0.53703
 C237 C -0.05059 0.00989 0.55122
 C238 C -0.03630 0.02208 0.55415
 C239 C -0.02385 0.01869 0.56829
 C240 C -0.00953 0.03092 0.57120
 C241 C -0.00783 0.04669 0.55981
 H242 H -0.05469 0.06005 0.50651
 H243 H -0.00731 0.07537 0.53646
 H244 H -0.07041 0.03169 0.51456
 H245 H -0.05214 -0.00210 0.56018
 H246 H -0.02517 0.00639 0.57688
 H247 H 0.00299 0.05636 0.56215
 C248 C 0.44901 0.53765 0.02251
 C249 C 0.45215 0.55226 0.01004
 C250 C 0.46676 0.56443 0.01232
 C251 C 0.47816 0.56148 0.02767
 C252 C 0.47521 0.54686 0.04021
 C253 C 0.46060 0.53489 0.03761
 C254 C 0.43438 0.52580 0.02010
 C255 C 0.43119 0.51112 0.03256
 C256 C 0.44291 0.50837 0.04753
 C257 C 0.45758 0.52012 0.05011
 C258 C 0.46925 0.51733 0.06502
 C259 C 0.48394 0.52912 0.06766
 C260 C 0.48678 0.54391 0.05523
 H261 H 0.44260 0.55446 -0.00100
 H262 H 0.48989 0.56999 0.02961
 H263 H 0.42559 0.52783 0.00835
 H264 H 0.44046 0.49723 0.05734
 H265 H 0.46682 0.50608 0.07470
 H266 H 0.49818 0.55294 0.05711
 C267 C 0.55121 -0.04230 0.02721
 C268 C 0.54923 -0.05744 0.01514
 C269 C 0.53475 -0.06967 0.01723
 C270 C 0.52219 -0.06659 0.03158
 C271 C 0.52398 -0.05151 0.04373
 C272 C 0.53854 -0.03930 0.04156
 C273 C 0.56564 -0.03010 0.02511
 C274 C 0.56765 -0.01492 0.03720
 C275 C 0.55495 -0.01204 0.05148
 C276 C 0.54043 -0.02411 0.05373
 C277 C 0.52778 -0.02122 0.06797
 C278 C 0.51323 -0.03334 0.07026
 C279 C 0.51146 -0.04847 0.05807
 H280 H 0.55885 -0.05957 0.00397
 H281 H 0.51112 -0.07609 0.03344
 H282 H 0.57521 -0.03228 0.01389
 H283 H 0.55651 -0.00054 0.06103
 H284 H 0.52912 -0.00937 0.07713
 H285 H 0.50045 -0.05805 0.05988
 C286 C 1.05537 0.45635 0.52626
 C287 C 1.05274 0.44130 0.51425
 C288 C 1.03838 0.42885 0.51698
 C289 C 1.02671 0.43198 0.53226
 C290 C 1.02929 0.44691 0.54445
 C291 C 1.04365 0.45915 0.54144
 C292 C 1.06951 0.46876 0.52319
 C293 C 1.07216 0.48390 0.53519
 C294 C 1.06050 0.48646 0.55042
 C295 C 1.04628 0.47422 0.55361
 C296 C 1.03465 0.47684 0.56879
 C297 C 1.02037 0.46461 0.57201
 C298 C 1.01777 0.44968 0.55974
 H299 H 1.06156 0.43989 0.50231
 H300 H 1.01596 0.42241 0.53530
 H301 H 1.07831 0.46679 0.51129
 H302 H 1.06260 0.49789 0.55994
 H303 H 1.03659 0.48858 0.57797
 H304 H 1.00691 0.44006 0.56222
 C305 C 0.40191 0.01465 0.22810
 H306 H 0.40239 0.02700 0.23664
 C307 C 0.41437 0.01209 0.21376
 H308 H 0.42430 0.02268 0.21117
 C309 C 0.38833 -0.01417 0.22121
 H310 H 0.37839 -0.02455 0.22438
 C311 C 0.40049 -0.01725 0.20667
 H312 H 0.39977 -0.03002 0.19877
 N313 N 0.38914 0.00167 0.23147
 C314 C 0.34522 0.03093 0.25953
 H315 H 0.34391 0.02267 0.27201
 C316 C 0.33348 0.04582 0.25641
 H317 H 0.32328 0.04910 0.26669
 C318 C 0.36016 0.03664 0.23096
 H319 H 0.37034 0.03283 0.22089
 C320 C 0.34878 0.05168 0.22733
 H321 H 0.35035 0.05930 0.21445
 Zn322 Zn 0.37341 0.00602 0.25178
 N323 N 0.35832 0.02673 0.24694
 C324 C 0.38623 0.02628 0.28296
 N325 N 0.38793 0.01048 0.27271
 C326 C 0.40078 -0.00244 0.27654
 C327 C 0.41246 0.00014 0.29134
 C328 C 0.39760 0.02941 0.29794
 C329 C 0.34652 -0.01938 0.24279
 C330 C 0.33526 -0.03460 0.24531
 C331 C 0.34878 -0.03993 0.27523
 C332 C 0.35976 -0.02460 0.27215
 N333 N 0.35862 -0.01483 0.25602
 H334 H 0.37621 0.03658 0.27944
 H335 H 0.40197 -0.01478 0.26802
 H336 H 0.42246 -0.01042 0.29428
 H337 H 0.39620 0.04215 0.30583
 H338 H 0.34571 -0.01121 0.23021
 H339 H 0.32596 -0.03822 0.23446
 H340 H 0.34982 -0.04744 0.28821
 H341 H 0.36910 -0.02050 0.28273
 C342 C 0.33523 0.05645 0.24014
 C343 C 0.41376 -0.00404 0.20282
 C344 C 0.33638 -0.04517 0.26167
 C345 C 0.41096 0.01625 0.30225
 C346 C 0.09937 -0.01042 0.73127
 H347 H 0.09894 -0.02221 0.74059
 C348 C 0.08733 -0.00920 0.71658
 H349 H 0.07781 -0.02027 0.71451
 C350 C 0.11233 0.01834 0.72277
 H351 H 0.12183 0.02923 0.72546
 C352 C 0.10057 0.02010 0.70786
 H353 H 0.10117 0.03238 0.69919
 N354 N 0.11159 0.00318 0.73403
 C355 C 0.15436 -0.02329 0.76570
 H356 H 0.15466 -0.01439 0.77780
 C357 C 0.16646 -0.03814 0.76408
 H358 H 0.17586 -0.04074 0.77517
 C359 C 0.14163 -0.03065 0.73661
 H360 H 0.13218 -0.02748 0.72576
 C361 C 0.15350 -0.04561 0.73440
 H362 H 0.15302 -0.05378 0.72180
 Zn363 Zn 0.12656 0.00077 0.75498
 N364 N 0.14215 -0.01995 0.75216
 C365 C 0.11246 -0.01751 0.78699
 N366 N 0.11126 -0.00230 0.77583
 C367 C 0.09822 0.01078 0.77851
 C368 C 0.08581 0.00893 0.79298
 C369 C 0.10036 -0.01988 0.80168
 C370 C 0.15361 0.02541 0.74449
 C371 C 0.16488 0.04073 0.74593
 C372 C 0.15011 0.04885 0.77482
 C373 C 0.13918 0.03333 0.77286
 N374 N 0.14097 0.02210 0.75776
 H375 H 0.12259 -0.02801 0.78435
 H376 H 0.09741 0.02260 0.76926
 H377 H 0.07562 0.01956 0.79496
 H378 H 0.10134 -0.03222 0.81023
 H379 H 0.15489 0.01612 0.73274
 H380 H 0.17468 0.04329 0.73508
 H381 H 0.14859 0.05754 0.78701
 H382 H 0.12937 0.03023 0.78350
 C383 C 0.16611 -0.04955 0.74827
 C384 C 0.08782 0.00623 0.70466
 C385 C 0.16316 0.05273 0.76123
 C386 C 0.08675 -0.00660 0.80476
 C387 C 0.59229 0.49380 0.22692
 H388 H 0.59113 0.48115 0.23496
 C389 C 0.58068 0.49713 0.21216
 H390 H 0.57048 0.48701 0.20903
 C391 C 0.60672 0.52255 0.22169
 H392 H 0.61679 0.53250 0.22551
 C393 C 0.59540 0.52644 0.20680
 H394 H 0.59715 0.53924 0.19912
 N395 N 0.60514 0.50633 0.23124
 C396 C 0.64862 0.47575 0.25773
 H397 H 0.64994 0.48370 0.27038
 C398 C 0.66042 0.46103 0.25400
 H399 H 0.67068 0.45756 0.26400
 C400 C 0.63358 0.47067 0.22934
 H401 H 0.62332 0.47466 0.21960
 C402 C 0.64503 0.45578 0.22511
 H403 H 0.64344 0.44845 0.21211
 Zn404 Zn 0.62040 0.50073 0.25139
 N405 N 0.63544 0.48019 0.24552
 C406 C 0.60755 0.47879 0.28141
 N407 N 0.60573 0.49521 0.27223
 C408 C 0.59293 0.50784 0.27727
 C409 C 0.58155 0.50434 0.29233
 C410 C 0.59647 0.47472 0.29656
 C411 C 0.64828 0.52530 0.24369
 C412 C 0.66013 0.53987 0.24679
 C413 C 0.64551 0.54549 0.27634
 C414 C 0.63400 0.53074 0.27272
 N415 N 0.63546 0.52111 0.25651
 H416 H 0.61756 0.46877 0.27701
 H417 H 0.59156 0.52065 0.26951
 H418 H 0.57134 0.51450 0.29600
 H419 H 0.59835 0.46171 0.30387
 H420 H 0.64929 0.51727 0.23102
 H421 H 0.67010 0.54313 0.23632
 H422 H 0.64425 0.55292 0.28936
 H423 H 0.62402 0.52695 0.28293
 C424 C 0.65867 0.45080 0.23753
 C425 C 0.58222 0.51360 0.20180
 C426 C 0.65879 0.55020 0.26328
 C427 C 0.58326 0.48759 0.30223
 C428 C 0.90008 0.50855 0.72161
 H429 H 0.90147 0.52096 0.72993
 C430 C 0.91191 0.50515 0.70685
 H431 H 0.92228 0.51515 0.70375
 C432 C 0.88472 0.48055 0.71549
 H433 H 0.87429 0.47085 0.71905
 C434 C 0.89621 0.47663 0.70058
 H435 H 0.89448 0.46390 0.69281
 N436 N 0.88669 0.49642 0.72550
 C437 C 0.84385 0.52782 0.75282
 H438 H 0.84203 0.51954 0.76523
 C439 C 0.83265 0.54309 0.74956
 H440 H 0.82237 0.54666 0.75967
 C441 C 0.85952 0.53316 0.72460
 H442 H 0.86979 0.52907 0.71474
 C443 C 0.84867 0.54859 0.72081
 H444 H 0.85072 0.55623 0.70802
 Zn445 Zn 0.87121 0.50196 0.74574
 N446 N 0.85706 0.52325 0.74049
 C447 C 0.88396 0.52210 0.77684
 N448 N 0.88560 0.50612 0.76686
 C449 C 0.89793 0.49288 0.77140
 C450 C 0.90898 0.49527 0.78676
 C451 C 0.89467 0.52501 0.79236
 C452 C 0.84260 0.47877 0.73707
 C453 C 0.83017 0.46460 0.73966
 C454 C 0.84394 0.45753 0.76912
 C455 C 0.85605 0.47191 0.76600
 N456 N 0.85529 0.48206 0.75009
 H457 H 0.87441 0.53267 0.77279
 H458 H 0.89910 0.48040 0.76308
 H459 H 0.91853 0.48445 0.79032
 H460 H 0.89323 0.53785 0.80009
 H461 H 0.84217 0.48721 0.72464
 H462 H 0.82031 0.46204 0.72903
 H463 H 0.84464 0.44969 0.78193
 H464 H 0.86594 0.47499 0.77639
 C465 C 0.83502 0.55373 0.73338
 C466 C 0.90998 0.48906 0.69604
 C467 C 0.83078 0.45373 0.75584
 C468 C 0.90735 0.51148 0.79752
 C469 C 0.22379 0.40730 0.00692
 H470 H 0.23190 0.40762 0.01930
 C471 C 0.20904 0.41925 0.00530
 H472 H 0.20572 0.42855 0.01665
 C473 C 0.21831 0.39465 -0.02285
 H474 H 0.22215 0.38529 -0.03393
 C475 C 0.20346 0.40636 -0.02506
 H476 H 0.19603 0.40586 -0.03790
 N477 N 0.22802 0.39518 -0.00696
 C478 C 0.25811 0.35004 0.01909
 H479 H 0.26998 0.34981 0.01038
 C480 C 0.25621 0.33705 0.03337
 H481 H 0.26667 0.32676 0.03548
 C482 C 0.22978 0.36339 0.02643
 H483 H 0.21940 0.37351 0.02355
 C484 C 0.22733 0.35066 0.04084
 H485 H 0.21520 0.35142 0.04916
 Zn486 Zn 0.24851 0.37981 -0.00390
 N487 N 0.24508 0.36299 0.01603
 C488 C 0.27834 0.39344 0.01623
 N489 N 0.26815 0.39555 0.00077
 C490 C 0.27139 0.40940 -0.01162
 C491 C 0.28565 0.42153 -0.00898
 C492 C 0.29276 0.40523 0.01939
 C493 C 0.24062 0.35229 -0.02993
 C494 C 0.24328 0.34094 -0.04545
 C495 C 0.27115 0.35675 -0.05155
 C496 C 0.26799 0.36774 -0.03587
 N497 N 0.25283 0.36546 -0.02553
 H498 H 0.27528 0.38267 0.02618
 H499 H 0.26293 0.41092 -0.02367
 H500 H 0.28822 0.43223 -0.01921
 H501 H 0.30068 0.40338 0.03180
 H502 H 0.22879 0.35061 -0.02133
 H503 H 0.23330 0.33068 -0.04887
 H504 H 0.28338 0.35864 -0.05950
 H505 H 0.27778 0.37794 -0.03190
 C506 C 0.24066 0.33727 0.04450
 C507 C 0.19862 0.41885 -0.01085
 C508 C 0.25870 0.34313 -0.05651
 C509 C 0.29662 0.41945 0.00665
 C510 C 0.72670 0.09026 -0.00400
 H511 H 0.73556 0.08887 -0.01589
 C512 C 0.71261 0.07783 -0.00153
 H513 H 0.71058 0.06702 -0.01173
 C514 C 0.71856 0.10621 0.02363
 H515 H 0.72106 0.11712 0.03354
 C516 C 0.70426 0.09414 0.02660
 H517 H 0.69590 0.09588 0.03885
 N518 N 0.72928 0.10422 0.00838
 C519 C 0.75627 0.14877 -0.02148
 H520 H 0.76784 0.15077 -0.01277
 C521 C 0.75349 0.16032 -0.03680
 H522 H 0.76315 0.17103 -0.03996
 C523 C 0.72962 0.13236 -0.02786
 H524 H 0.72015 0.12170 -0.02415
 C525 C 0.72635 0.14355 -0.04333
 H526 H 0.71434 0.14135 -0.05135
 Zn527 Zn 0.74876 0.12038 0.00399
 N528 N 0.74448 0.13502 -0.01740
 C529 C 0.78050 0.10745 -0.01429
 N530 N 0.76958 0.10545 0.00078
 C531 C 0.77295 0.09229 0.01387
 C532 C 0.78796 0.08066 0.01226
 C533 C 0.79575 0.09622 -0.01638
 C534 C 0.73872 0.14992 0.02730
 C535 C 0.74047 0.16279 0.04168
 C536 C 0.76894 0.14863 0.04936
 C537 C 0.76665 0.13605 0.03484
 N538 N 0.75166 0.13683 0.02424
 H539 H 0.77748 0.11778 -0.02470
 H540 H 0.76389 0.09081 0.02557
 H541 H 0.79021 0.07012 0.02273
 H542 H 0.80446 0.09835 -0.02826
 H543 H 0.72708 0.15043 0.01845
 H544 H 0.73013 0.17325 0.04372
 H545 H 0.78085 0.14761 0.05779
 H546 H 0.77692 0.12575 0.03201
 C547 C 0.73837 0.15775 -0.04797
 C548 C 0.70111 0.07975 0.01389
 C549 C 0.75576 0.16226 0.05293
 C550 C 0.79967 0.08259 -0.00298
 C551 C 0.22696 0.59433 0.48865
 H552 H 0.23535 0.59391 0.47633
 C553 C 0.21311 0.58156 0.49083
 H554 H 0.21077 0.57146 0.48000
 C555 C 0.21982 0.60814 0.51768
 H556 H 0.22264 0.61829 0.52826
 C557 C 0.20578 0.59569 0.52039
 H558 H 0.19794 0.59643 0.53308
 N559 N 0.22992 0.60740 0.50189
 C560 C 0.25603 0.65380 0.47400
 H561 H 0.26793 0.65517 0.48237
 C562 C 0.25278 0.66633 0.45957
 H563 H 0.26222 0.67739 0.45698
 C564 C 0.22894 0.63812 0.46778
 H565 H 0.21955 0.62728 0.47116
 C566 C 0.22516 0.65033 0.45324
 H567 H 0.21303 0.64847 0.44533
 Zn568 Zn 0.24915 0.62400 0.49802
 N569 N 0.24424 0.63996 0.47773
 C570 C 0.27992 0.61184 0.47761
 N571 N 0.26996 0.60946 0.49332
 C572 C 0.27414 0.59600 0.50584
 C573 C 0.28904 0.58446 0.50298
 C574 C 0.29496 0.60063 0.47421
 C575 C 0.23913 0.65169 0.52336
 C576 C 0.24065 0.66332 0.53876
 C577 C 0.26947 0.64925 0.54516
 C578 C 0.26740 0.63790 0.52961
 N579 N 0.25230 0.63915 0.51921
 H580 H 0.27620 0.62237 0.46763
 H581 H 0.26579 0.59418 0.51805
 H582 H 0.29199 0.57368 0.51302
 H583 H 0.30288 0.60295 0.46177
 H584 H 0.22740 0.65261 0.51466
 H585 H 0.23007 0.67329 0.54173
 H586 H 0.28142 0.64777 0.55348
 H587 H 0.27787 0.62810 0.52592
 C588 C 0.23715 0.66469 0.44897
 C589 C 0.20225 0.58222 0.50683
 C590 C 0.25595 0.66213 0.54997
 C591 C 0.29971 0.58671 0.48699
 C592 C 0.73284 0.90835 0.50521
 H593 H 0.74088 0.90898 0.51763
 C594 C 0.71852 0.92073 0.50289
 H595 H 0.71546 0.93070 0.51374
 C596 C 0.72709 0.89445 0.47607
 H597 H 0.73066 0.88441 0.46550
 C598 C 0.71266 0.90657 0.47316
 H599 H 0.70528 0.90571 0.46032
 N600 N 0.73673 0.89542 0.49199
 C601 C 0.76476 0.85024 0.52024
 H602 H 0.77664 0.84906 0.51159
 C603 C 0.76227 0.83803 0.53508
 H604 H 0.77226 0.82736 0.53767
 C605 C 0.73706 0.86526 0.52688
 H606 H 0.72716 0.87574 0.52354
 C607 C 0.73404 0.85336 0.54189
 H608 H 0.72197 0.85513 0.55016
 Zn609 Zn 0.75667 0.87951 0.49602
 N610 N 0.75234 0.86366 0.51656
 C611 C 0.78657 0.89284 0.51622
 N612 N 0.77670 0.89480 0.50053
 C613 C 0.78039 0.90831 0.48790
 C614 C 0.79468 0.92038 0.49066
 C615 C 0.80105 0.90455 0.51949
 C616 C 0.74846 0.85116 0.47101
 C617 C 0.75107 0.83910 0.45602
 C618 C 0.77937 0.85398 0.44966
 C619 C 0.77626 0.86570 0.46483
 N620 N 0.76092 0.86420 0.47504
 H621 H 0.78319 0.88233 0.52633
 H622 H 0.77218 0.90970 0.47566
 H623 H 0.79753 0.93091 0.48034
 H624 H 0.80867 0.90290 0.53212
 H625 H 0.73649 0.85013 0.47950
 H626 H 0.74090 0.82895 0.45290
 H627 H 0.79173 0.85525 0.44181
 H628 H 0.78620 0.87585 0.46849
 C629 C 0.74676 0.83954 0.54620
 C630 C 0.70819 0.91993 0.48669
 C631 C 0.76669 0.84044 0.44511
 C632 C 0.80524 0.91855 0.50662
 C633 C 0.00352 0.22561 0.40244
 H634 H 0.01503 0.23444 0.40432
 C635 C 0.00089 0.21036 0.41411
 H636 H 0.01059 0.20739 0.42484
 C637 C -0.02298 0.21871 0.38597
 H638 H -0.03237 0.22213 0.37515
 C639 C -0.02610 0.20330 0.39729
 H640 H -0.03794 0.19504 0.39506
 N641 N -0.00822 0.22935 0.38856
 C642 C 0.02090 0.25848 0.34485
 H643 H 0.01241 0.27061 0.34307
 C644 C 0.03582 0.25580 0.33329
 H645 H 0.03888 0.26606 0.32277
 C646 C 0.02717 0.23036 0.36076
 H647 H 0.02361 0.22030 0.37124
 C648 C 0.04226 0.22719 0.34959
 H649 H 0.05015 0.21466 0.35162
 Zn650 Zn -0.00374 0.25019 0.37322
 N651 N 0.01696 0.24593 0.35837
 C652 C 0.01424 0.28190 0.38713
 N653 N -0.00047 0.27100 0.38890
 C654 C -0.01293 0.27423 0.40242
 C655 C -0.01096 0.28905 0.41473
 C656 C 0.01668 0.29695 0.39905
 C657 C -0.02567 0.24182 0.34316
 C658 C -0.03977 0.24408 0.33071
 C659 C -0.04852 0.27214 0.34695
 C660 C -0.03418 0.26939 0.35903
 N661 N -0.02324 0.25429 0.35706
 H662 H 0.02414 0.27897 0.37649
 H663 H -0.02436 0.26515 0.40372
 H664 H -0.02089 0.29116 0.42558
 H665 H 0.02832 0.30564 0.39713
 H666 H -0.01660 0.23008 0.34175
 H667 H -0.04132 0.23408 0.31963
 H668 H -0.05731 0.28402 0.34903
 H669 H -0.03190 0.27928 0.37001
 C670 C 0.04676 0.24001 0.33566
 C671 C -0.01402 0.19890 0.41153
 C672 C -0.05150 0.25936 0.33257
 C673 C 0.00402 0.30068 0.41314
 C674 C -0.00510 0.72163 0.10013
 H675 H -0.01660 0.73076 0.09860
 C676 C -0.00238 0.70697 0.08769
 H677 H -0.01182 0.70502 0.07654
 C678 C 0.02156 0.71375 0.11606
 H679 H 0.03100 0.71656 0.12695
 C680 C 0.02474 0.69886 0.10402
 H681 H 0.03645 0.69015 0.10612
 N682 N 0.00675 0.72470 0.11401
 C683 C -0.02095 0.75436 0.15869
 H684 H -0.01199 0.76597 0.16039
 C685 C -0.03565 0.75234 0.17062
 H686 H -0.03777 0.76241 0.18160
 C687 C -0.02855 0.72682 0.14265
 H688 H -0.02566 0.71683 0.13182
 C689 C -0.04347 0.72432 0.15420
 H690 H -0.05209 0.71255 0.15186
 Zn691 Zn 0.00264 0.74549 0.12967
 N692 N -0.01776 0.74177 0.14496
 C693 C -0.01584 0.77730 0.11591
 N694 N -0.00088 0.76648 0.11420
 C695 C 0.01178 0.77004 0.10103
 C696 C 0.00989 0.78529 0.08919
 C697 C -0.01828 0.79270 0.10436
 C698 C 0.02594 0.73633 0.15874
 C699 C 0.04029 0.73858 0.17085
 C700 C 0.04702 0.76769 0.15570
 C701 C 0.03255 0.76488 0.14390
 N702 N 0.02248 0.74928 0.14545
 H703 H -0.02591 0.77408 0.12625
 H704 H 0.02340 0.76101 0.09977
 H705 H 0.02008 0.78782 0.07873
 H706 H -0.03010 0.80135 0.10617
 H707 H 0.01750 0.72423 0.15991
 H708 H 0.04275 0.72817 0.18140
 H709 H 0.05507 0.78003 0.15399
 H710 H 0.02941 0.77521 0.13353
 C711 C -0.04721 0.73720 0.16842
 C712 C 0.01273 0.69533 0.08953
 C713 C 0.05109 0.75442 0.16938
 C714 C -0.00527 0.79691 0.09082
 C715 C 0.50057 0.22243 0.59945
 H716 H 0.48889 0.23122 0.59755
 C717 C 0.50396 0.20772 0.58726
 H718 H 0.49467 0.20511 0.57610
 C719 C 0.52677 0.21515 0.61646
 H720 H 0.53576 0.21823 0.62770
 C721 C 0.53065 0.20026 0.60462
 H722 H 0.54267 0.19205 0.60687
 N723 N 0.51181 0.22574 0.61383
 C724 C 0.48088 0.25330 0.65759
 H725 H 0.48907 0.26538 0.66000
 C726 C 0.46579 0.25012 0.66871
 H727 H 0.46257 0.25979 0.67979
 C728 C 0.47565 0.22569 0.64065
 H729 H 0.47961 0.21607 0.62985
 C730 C 0.46040 0.22203 0.65136
 H731 H 0.45263 0.20978 0.64834
 Zn732 Zn 0.50641 0.24607 0.62964
 N733 N 0.48544 0.24121 0.64380
 C734 C 0.48778 0.27774 0.61571
 N735 N 0.50300 0.26726 0.61441
 C736 C 0.51595 0.27120 0.60164
 C737 C 0.51402 0.28640 0.58975
 C738 C 0.48531 0.29309 0.60410
 C739 C 0.52798 0.23711 0.66005
 C740 C 0.54182 0.23918 0.67280
 C741 C 0.55007 0.26775 0.65745
 C742 C 0.53599 0.26520 0.64508
 N743 N 0.52543 0.24993 0.64643
 H744 H 0.47750 0.27422 0.62571
 H745 H 0.52777 0.26243 0.60067
 H746 H 0.52441 0.28917 0.57956
 H747 H 0.47324 0.30143 0.60557
 H748 H 0.51922 0.22523 0.66097
 H749 H 0.54347 0.22890 0.68364
 H750 H 0.55858 0.27975 0.65579
 H751 H 0.53362 0.27538 0.63435
 C752 C 0.45528 0.23431 0.66565
 C753 C 0.51914 0.19635 0.58981
 C754 C 0.55319 0.25462 0.67154
 C755 C 0.49854 0.29762 0.59090
 C756 C 0.50915 0.72548 0.90153
 H757 H 0.52072 0.73443 0.90180
 C758 C 0.50790 0.71060 0.91391
 H759 H 0.51875 0.70801 0.92350
 C760 C 0.48100 0.71806 0.88861
 H761 H 0.47037 0.72122 0.87899
 C762 C 0.47919 0.70305 0.90076
 H763 H 0.46712 0.69482 0.90033
 N764 N 0.49588 0.72882 0.88910
 C765 C 0.52046 0.76008 0.84383
 H766 H 0.51137 0.77186 0.84327
 C767 C 0.53456 0.75860 0.83105
 H768 H 0.53639 0.76945 0.82081
 C769 C 0.52904 0.73165 0.85796
 H770 H 0.52665 0.72099 0.86822
 C771 C 0.54336 0.72964 0.84548
 H772 H 0.55187 0.71741 0.84631
 Zn773 Zn 0.49820 0.74972 0.87332
 N774 N 0.51806 0.74680 0.85704
 C775 C 0.51585 0.78178 0.88691
 N776 N 0.50121 0.77077 0.88868
 C777 C 0.48859 0.77408 0.90203
 C778 C 0.49022 0.78920 0.91402
 C779 C 0.51803 0.79704 0.89862
 C780 C 0.47457 0.73925 0.84542
 C781 C 0.46004 0.74086 0.83341
 C782 C 0.45207 0.76996 0.84816
 C783 C 0.46680 0.76783 0.85984
 N784 N 0.47762 0.75258 0.85836
 H785 H 0.52593 0.77872 0.87649
 H786 H 0.47725 0.76489 0.90336
 H787 H 0.48011 0.79149 0.92466
 H788 H 0.52964 0.80580 0.89679
 H789 H 0.48353 0.72738 0.84439
 H790 H 0.45775 0.73001 0.82330
 H791 H 0.44373 0.78230 0.84938
 H792 H 0.46969 0.77851 0.86988
 C793 C 0.54626 0.74323 0.83181
 C794 C 0.49276 0.69914 0.91363
 C795 C 0.44857 0.75638 0.83470
 C796 C 0.50509 0.80094 0.91238
 C797 C 0.13719 0.22254 0.22977
 C798 C 0.12232 0.22602 0.24121
 C799 C 0.12374 0.22456 0.26050
 C800 C 0.14030 0.21958 0.26833
 C801 C 0.15520 0.21614 0.25691
 C802 C 0.15383 0.21759 0.23749
 N803 N 0.10822 0.22822 0.27179
 N804 N 0.10840 0.22647 0.28937
 C805 C 0.09288 0.23015 0.30066
 C806 C 0.09379 0.22692 0.31978
 C807 C 0.07884 0.23015 0.33117
 C808 C 0.06270 0.23680 0.32359
 C809 C 0.06186 0.24019 0.30439
 C810 C 0.07680 0.23686 0.29300
 H811 H 0.13562 0.22351 0.21487
 H812 H 0.10962 0.22979 0.23502
 H813 H 0.14175 0.21843 0.28323
 H814 H 0.16788 0.21261 0.26330
 H815 H 0.10612 0.22181 0.32585
 H816 H 0.07995 0.22763 0.34594
 H817 H 0.04955 0.24513 0.29814
 H818 H 0.07576 0.23946 0.27824
 C819 C 0.66479 0.71948 0.76375
 C820 C 0.65078 0.72230 0.77645
 C821 C 0.63382 0.72785 0.77033
 C822 C 0.63101 0.73073 0.75127
 C823 C 0.64502 0.72789 0.73854
 C824 C 0.66205 0.72213 0.74463
 N825 N 0.61968 0.73018 0.78372
 N826 N 0.60397 0.73542 0.77920
 C827 C 0.58982 0.73746 0.79262
 C828 C 0.57301 0.74380 0.78677
 C829 C 0.55887 0.74575 0.79948
 C830 C 0.56131 0.74131 0.81832
 C831 C 0.57823 0.73496 0.82416
 C832 C 0.59237 0.73308 0.81145
 H833 H 0.67781 0.71531 0.76891
 H834 H 0.65312 0.72010 0.79111
 H835 H 0.61798 0.73498 0.74619
 H836 H 0.64243 0.72984 0.72389
 H837 H 0.57086 0.74715 0.77230
 H838 H 0.54594 0.75046 0.79452
 H839 H 0.58057 0.73164 0.83861
 H840 H 0.60526 0.72816 0.81632
 C841 C 0.32861 0.78038 0.77110
 C842 C 0.34286 0.77782 0.78335
 C843 C 0.35992 0.77300 0.77664
 C844 C 0.36263 0.77078 0.75744
 C845 C 0.34841 0.77340 0.74516
 C846 C 0.33123 0.77822 0.75185
 N847 N 0.37424 0.77055 0.78958
 N848 N 0.38986 0.76537 0.78446
 C849 C 0.40425 0.76307 0.79733
 C850 C 0.42085 0.75655 0.79078
 C851 C 0.43522 0.75426 0.80291
 C852 C 0.43324 0.75857 0.82186
 C853 C 0.41654 0.76513 0.82842
 C854 C 0.40215 0.76733 0.81627
 H855 H 0.31549 0.78382 0.77671
 H856 H 0.34060 0.77952 0.79812
 H857 H 0.37573 0.76715 0.75190
 H858 H 0.35094 0.77191 0.73041
 H859 H 0.42264 0.75328 0.77620
 H860 H 0.44797 0.74941 0.79741
 H861 H 0.41457 0.76838 0.84297
 H862 H 0.38944 0.77239 0.82167
 C863 C -0.15305 0.30670 0.25026
 C864 C -0.13853 0.30423 0.26217
 C865 C -0.13160 0.28650 0.26563
 C866 C -0.13926 0.27112 0.25688
 C867 C -0.15369 0.27351 0.24482
 C868 C -0.16098 0.29137 0.24129
 N869 N -0.11680 0.28452 0.27804
 N870 N -0.11067 0.26869 0.28284
 C871 C -0.09582 0.26672 0.29519
 C872 C -0.09075 0.24893 0.30107
 C873 C -0.07640 0.24651 0.31322
 C874 C -0.06675 0.26193 0.31962
 C875 C -0.07183 0.27980 0.31358
 C876 C -0.08626 0.28219 0.30152
 H877 H -0.15746 0.32080 0.24762
 H878 H -0.13261 0.31624 0.26871
 H879 H -0.13418 0.25722 0.25941
 H880 H -0.15950 0.26112 0.23898
 H881 H -0.09805 0.23690 0.29633
 H882 H -0.07304 0.23259 0.31780
 H883 H -0.06452 0.29194 0.31798
 H884 H -0.08986 0.29609 0.29707
 C885 C -0.15162 0.69130 0.24834
 C886 C -0.13678 0.69358 0.23663
 C887 C -0.12966 0.71119 0.23352
 C888 C -0.13747 0.72663 0.24241
 C889 C -0.15222 0.72441 0.25428
 C890 C -0.15970 0.70668 0.25746
 N891 N -0.11450 0.71298 0.22133
 N892 N -0.10822 0.72872 0.21671
 C893 C -0.09298 0.73047 0.20463
 C894 C -0.08777 0.74819 0.19886
 C895 C -0.07298 0.75040 0.18705
 C896 C -0.06301 0.73485 0.18090
 C897 C -0.06827 0.71705 0.18681
 C898 C -0.08314 0.71486 0.19852
 H899 H -0.15617 0.67726 0.25072
 H900 H -0.13075 0.68153 0.22999
 H901 H -0.13223 0.74044 0.24015
 H902 H -0.15811 0.73684 0.26026
 H903 H -0.09527 0.76032 0.20343
 H904 H -0.06949 0.76427 0.18256
 H905 H -0.06075 0.70480 0.18260
 H906 H -0.08684 0.70101 0.20289
 C907 C 0.34386 0.23877 0.74908
 C908 C 0.35882 0.24229 0.73787
 C909 C 0.36786 0.22777 0.72888
 C910 C 0.36160 0.20955 0.73098
 C911 C 0.34652 0.20597 0.74201
 C912 C 0.33737 0.22050 0.75145
 N913 N 0.38333 0.23190 0.71776
 N914 N 0.39314 0.21920 0.71058
 C915 C 0.40857 0.22334 0.69940
 C916 C 0.41963 0.20873 0.69336
 C917 C 0.43483 0.21227 0.68250
 C918 C 0.43918 0.23056 0.67734
 C919 C 0.42797 0.24522 0.68339
 C920 C 0.41283 0.24166 0.69436
 H921 H 0.33707 0.25062 0.75524
 H922 H 0.36341 0.25644 0.73620
 H923 H 0.36842 0.19805 0.72419
 H924 H 0.34266 0.19161 0.74371
 H925 H 0.41652 0.19456 0.69721
 H926 H 0.44330 0.20068 0.67836
 H927 H 0.43074 0.25943 0.67944
 H928 H 0.40442 0.25320 0.69877
 C929 C 0.65588 0.30097 0.75158
 C930 C 0.64107 0.29856 0.74011
 C931 C 0.63370 0.28099 0.73764
 C932 C 0.64118 0.26572 0.74700
 C933 C 0.65588 0.26807 0.75866
 C934 C 0.66366 0.28576 0.76113
 N935 N 0.61869 0.27904 0.72553
 N936 N 0.61240 0.26325 0.72120
 C937 C 0.59738 0.26141 0.70909
 C938 C 0.59250 0.24369 0.70312
 C939 C 0.57814 0.24144 0.69098
 C940 C 0.56827 0.25695 0.68472
 C941 C 0.57309 0.27474 0.69098
 C942 C 0.58755 0.27696 0.70299
 H943 H 0.66067 0.31499 0.75343
 H944 H 0.63530 0.31048 0.73310
 H945 H 0.63574 0.25194 0.74524
 H946 H 0.66153 0.25575 0.76502
 H947 H 0.60000 0.23160 0.70769
 H948 H 0.57500 0.22758 0.68624
 H949 H 0.56561 0.28695 0.68674
 H950 H 0.59097 0.29081 0.70754
 C951 C 0.15076 0.80358 0.25185
 C952 C 0.13571 0.80070 0.24082
 C953 C 0.13150 0.78284 0.23465
 C954 C 0.14253 0.76776 0.23970
 C955 C 0.15758 0.77062 0.25076
 C956 C 0.16188 0.78857 0.25693
 N957 N 0.11608 0.78045 0.22320
 N958 N 0.11160 0.76466 0.21689
 C959 C 0.09623 0.76237 0.20534
 C960 C 0.09234 0.74468 0.19849
 C961 C 0.07762 0.74204 0.18692
 C962 C 0.06651 0.75712 0.18199
 C963 C 0.07038 0.77486 0.18904
 C964 C 0.08511 0.77747 0.20059
 H965 H 0.15359 0.81752 0.25658
 H966 H 0.12729 0.81242 0.23706
 H967 H 0.13958 0.75382 0.23505
 H968 H 0.16600 0.75882 0.25426
 H969 H 0.10083 0.73294 0.20201
 H970 H 0.07513 0.72825 0.18155
 H971 H 0.06194 0.78670 0.18575
 H972 H 0.08779 0.79128 0.20578
 C973 C 0.22916 0.14484 0.22052
 C974 C 0.24086 0.13014 0.22456
 C975 C 0.25938 0.13226 0.22247
 C976 C 0.26615 0.14936 0.21627
 C977 C 0.25447 0.16410 0.21226
 C978 C 0.23583 0.16202 0.21434
 N979 N 0.27096 0.11687 0.22671
 N980 N 0.28788 0.11764 0.22452
 C981 C 0.29945 0.10225 0.22877
 C982 C 0.31782 0.10379 0.22512
 C983 C 0.32946 0.08895 0.22886
 C984 C 0.32290 0.07230 0.23643
 C985 C 0.30445 0.07085 0.24024
 C986 C 0.29280 0.08567 0.23640
 H987 H 0.21488 0.14269 0.22201
 H988 H 0.23548 0.11701 0.22926
 H989 H 0.28044 0.15137 0.21460
 H990 H 0.26005 0.17722 0.20778
 H991 H 0.32311 0.11651 0.21930
 H992 H 0.34363 0.09056 0.22600
 H993 H 0.29897 0.05813 0.24587
 H994 H 0.27864 0.08414 0.23934
 C995 C 0.73222 0.64687 0.71841
 C996 C 0.74341 0.63146 0.72117
 C997 C 0.76191 0.63284 0.71831
 C998 C 0.76917 0.64986 0.71252
 C999 C 0.75799 0.66531 0.70978
 C1000 C 0.73939 0.66400 0.71277
 N1001 N 0.77298 0.61684 0.72160
 N1002 N 0.78987 0.61696 0.71899
 C1003 C 0.80086 0.60094 0.72252
 C1004 C 0.81927 0.60183 0.71884
 C1005 C 0.83039 0.58649 0.72229
 C1006 C 0.82323 0.56999 0.72958
 C1007 C 0.80472 0.56913 0.73325
 C1008 C 0.79362 0.58445 0.72974
 H1009 H 0.71793 0.64534 0.72056
 H1010 H 0.73766 0.61840 0.72557
 H1011 H 0.78346 0.65128 0.71028
 H1012 H 0.76394 0.67836 0.70565
 H1013 H 0.82502 0.61448 0.71334
 H1014 H 0.84462 0.58764 0.71951
 H1015 H 0.79879 0.55653 0.73865
 H1016 H 0.77942 0.58340 0.73268
 C1017 C 0.76492 0.33366 0.78647
 C1018 C 0.77717 0.34782 0.78294
 C1019 C 0.77122 0.36540 0.77727
 C1020 C 0.75276 0.36870 0.77512
 C1021 C 0.74047 0.35455 0.77871
 C1022 C 0.74641 0.33687 0.78447
 N1023 N 0.78416 0.37962 0.77396
 N1024 N 0.77979 0.39570 0.76808
 C1025 C 0.79279 0.40993 0.76500
 C1026 C 0.78718 0.42700 0.75764
 C1027 C 0.79951 0.44121 0.75457
 C1028 C 0.81770 0.43860 0.75893
 C1029 C 0.82329 0.42144 0.76634
 C1030 C 0.81097 0.40721 0.76931
 H1031 H 0.76995 0.32013 0.79060
 H1032 H 0.79137 0.34510 0.78459
 H1033 H 0.74782 0.38221 0.77083
 H1034 H 0.72630 0.35755 0.77728
 H1035 H 0.77321 0.42928 0.75432
 H1036 H 0.79477 0.45435 0.74906
 H1037 H 0.83724 0.41896 0.76963
 H1038 H 0.81564 0.39413 0.77501
 C1039 C 0.23519 -0.13963 0.27179
 C1040 C 0.24621 -0.12435 0.26848
 C1041 C 0.26426 -0.12489 0.27338
 C1042 C 0.27128 -0.14098 0.28168
 C1043 C 0.26033 -0.15630 0.28506
 C1044 C 0.24198 -0.15599 0.28020
 N1045 N 0.27513 -0.10893 0.26986
 N1046 N 0.29165 -0.10852 0.27409
 C1047 C 0.30255 -0.09257 0.27067
 C1048 C 0.32057 -0.09315 0.27586
 C1049 C 0.33157 -0.07779 0.27290
 C1050 C 0.32470 -0.06153 0.26464
 C1051 C 0.30660 -0.06103 0.25935
 C1052 C 0.29560 -0.07640 0.26235
 H1053 H 0.22117 -0.13809 0.26839
 H1054 H 0.24059 -0.11194 0.26220
 H1055 H 0.28528 -0.14181 0.28546
 H1056 H 0.26662 -0.16857 0.29081
 H1057 H 0.32609 -0.10555 0.28223
 H1058 H 0.34551 -0.07872 0.27689
 H1059 H 0.30086 -0.04864 0.25317
 H1060 H 0.28169 -0.07560 0.25825
 C1061 C 0.23217 -0.17049 0.71653
 C1062 C 0.21998 -0.15590 0.71940
 C1063 C 0.22514 -0.13983 0.72870
 C1064 C 0.24272 -0.13848 0.73528
 C1065 C 0.25495 -0.15306 0.73254
 C1066 C 0.24999 -0.16941 0.72303
 N1067 N 0.21232 -0.12508 0.73120
 N1068 N 0.21629 -0.10983 0.73903
 C1069 C 0.20346 -0.09508 0.74144
 C1070 C 0.20897 -0.07839 0.74945
 C1071 C 0.19686 -0.06362 0.75176
 C1072 C 0.17895 -0.06533 0.74610
 C1073 C 0.17343 -0.08219 0.73818
 C1074 C 0.18557 -0.09693 0.73585
 H1075 H 0.22723 -0.18285 0.70983
 H1076 H 0.20639 -0.15717 0.71440
 H1077 H 0.24708 -0.12609 0.74242
 H1078 H 0.26851 -0.15096 0.73724
 H1079 H 0.22274 -0.07678 0.75377
 H1080 H 0.20161 -0.05075 0.75767
 H1081 H 0.15967 -0.08406 0.73394
 H1082 H 0.18096 -0.10973 0.72969
 C1083 C 0.76507 0.36264 0.21803
 C1084 C 0.75329 0.37752 0.22122
 C1085 C 0.73480 0.37520 0.21942
 C1086 C 0.72814 0.35775 0.21426
 C1087 C 0.73990 0.34282 0.21113
 C1088 C 0.75851 0.34507 0.21306
 N1089 N 0.72313 0.39069 0.22316
 N1090 N 0.70623 0.38980 0.22118
 C1091 C 0.69462 0.40527 0.22522
 C1092 C 0.67627 0.40370 0.22177
 C1093 C 0.66458 0.41850 0.22568
 C1094 C 0.67108 0.43512 0.23325
 C1095 C 0.68952 0.43665 0.23673
 C1096 C 0.70121 0.42188 0.23271
 H1097 H 0.77933 0.36491 0.21936
 H1098 H 0.75859 0.39092 0.22513
 H1099 H 0.71387 0.35560 0.21285
 H1100 H 0.73441 0.32942 0.20755
 H1101 H 0.67103 0.39095 0.21606
 H1102 H 0.65041 0.41685 0.22304
 H1103 H 0.69494 0.44936 0.24235
 H1104 H 0.71535 0.42345 0.23551
 C1105 C 0.76544 0.63669 0.27890
 C1106 C 0.75365 0.62204 0.27580
 C1107 C 0.73516 0.62467 0.27801
 C1108 C 0.72851 0.64222 0.28335
 C1109 C 0.74028 0.65691 0.28639
 C1110 C 0.75889 0.65431 0.28420
 N1111 N 0.72347 0.60937 0.27463
 N1112 N 0.70661 0.61051 0.27728
 C1113 C 0.69494 0.59523 0.27373
 C1114 C 0.67669 0.59711 0.27798
 C1115 C 0.66493 0.58248 0.27467
 C1116 C 0.67127 0.56571 0.26690
 C1117 C 0.68961 0.56388 0.26260
 C1118 C 0.70137 0.57849 0.26602
 H1119 H 0.77970 0.63414 0.27736
 H1120 H 0.75893 0.60857 0.27173
 H1121 H 0.71425 0.64462 0.28506
 H1122 H 0.73479 0.67037 0.29019
 H1123 H 0.67157 0.60996 0.28387
 H1124 H 0.65084 0.58436 0.27793
 H1125 H 0.69491 0.55106 0.25681
 H1126 H 0.71544 0.57669 0.26262
 C1127 C 0.26582 0.14552 0.76999
 C1128 C 0.25476 0.13023 0.76700
 C1129 C 0.23618 0.13185 0.76936
 C1130 C 0.22869 0.14910 0.77452
 C1131 C 0.23971 0.16440 0.77746
 C1132 C 0.25842 0.16276 0.77536
 N1133 N 0.22525 0.11580 0.76668
 N1134 N 0.20839 0.11621 0.76953
 C1135 C 0.19736 0.10022 0.76707
 C1136 C 0.17907 0.10162 0.77127
 C1137 C 0.16794 0.08622 0.76935
 C1138 C 0.17496 0.06912 0.76308
 C1139 C 0.19334 0.06779 0.75872
 C1140 C 0.20446 0.08319 0.76073
 H1141 H 0.28018 0.14374 0.76847
 H1142 H 0.26069 0.11700 0.76306
 H1143 H 0.21435 0.15075 0.77633
 H1144 H 0.23358 0.17756 0.78128
 H1145 H 0.17343 0.11468 0.77612
 H1146 H 0.15381 0.08775 0.77259
 H1147 H 0.19916 0.05475 0.75406
 H1148 H 0.21859 0.08176 0.75741
 C1149 C 0.19453 0.24740 0.14312
 C1150 C 0.19733 0.25915 0.12794
 C1151 C 0.21446 0.26582 0.12388
 C1152 C 0.22894 0.26039 0.13508
 C1153 C 0.22618 0.24857 0.15024
 C1154 C 0.20891 0.24207 0.15450
 N1155 N 0.21669 0.27827 0.10854
 N1156 N 0.23174 0.28542 0.10438
 C1157 C 0.23374 0.29805 0.08913
 C1158 C 0.25054 0.30586 0.08562
 C1159 C 0.25285 0.31852 0.07109
 C1160 C 0.23832 0.32360 0.05977
 C1161 C 0.22148 0.31561 0.06326
 C1162 C 0.21920 0.30297 0.07780
 H1163 H 0.18112 0.24241 0.14591
 H1164 H 0.18608 0.26319 0.11938
 H1165 H 0.24233 0.26538 0.13222
 H1166 H 0.23747 0.24483 0.15887
 H1167 H 0.26184 0.30222 0.09429
 H1168 H 0.26593 0.32459 0.06891
 H1169 H 0.21010 0.31901 0.05463
 H1170 H 0.20608 0.29708 0.08018
 C1171 C 0.69843 0.75518 0.64893
 C1172 C 0.70115 0.76705 0.63382
 C1173 C 0.71847 0.77254 0.62879
 C1174 C 0.73315 0.76598 0.63908
 C1175 C 0.73046 0.75405 0.65415
 C1176 C 0.71307 0.74852 0.65924
 N1177 N 0.72077 0.78471 0.61322
 N1178 N 0.73608 0.79071 0.60830
 C1179 C 0.73841 0.80282 0.59269
 C1180 C 0.75554 0.80952 0.58862
 C1181 C 0.75828 0.82142 0.57353
 C1182 C 0.74387 0.82680 0.56218
 C1183 C 0.72668 0.81996 0.56628
 C1184 C 0.72395 0.80810 0.58140
 H1185 H 0.68491 0.75099 0.65239
 H1186 H 0.68974 0.77198 0.62597
 H1187 H 0.74667 0.77005 0.63549
 H1188 H 0.74197 0.74932 0.66197
 H1189 H 0.76677 0.80559 0.59724
 H1190 H 0.77163 0.82664 0.57093
 H1191 H 0.71535 0.82359 0.55766
 H1192 H 0.71059 0.80302 0.58421
 C1193 C 0.78017 0.73065 0.35612
 C1194 C 0.77715 0.74283 0.37095
 C1195 C 0.77988 0.76192 0.36878
 C1196 C 0.78568 0.76877 0.35149
 C1197 C 0.78866 0.75661 0.33661
 C1198 C 0.78594 0.73740 0.33876
 N1199 N 0.77662 0.77397 0.38429
 N1200 N 0.77939 0.79139 0.38350
 C1201 C 0.77604 0.80338 0.39905
 C1202 C 0.78012 0.82226 0.39748
 C1203 C 0.77710 0.83432 0.41241
 C1204 C 0.76984 0.82767 0.42920
 C1205 C 0.76569 0.80870 0.43071
 C1206 C 0.76879 0.79665 0.41579
 H1207 H 0.77820 0.71592 0.35832
 H1208 H 0.77274 0.73738 0.38422
 H1209 H 0.78781 0.78349 0.34944
 H1210 H 0.79286 0.76227 0.32336
 H1211 H 0.78566 0.82763 0.38463
 H1212 H 0.78024 0.84890 0.41076
 H1213 H 0.76029 0.80313 0.44354
 H1214 H 0.76554 0.78209 0.41737
 C1215 C 0.27521 0.23757 -0.14997
 C1216 C 0.27164 0.24902 -0.13469
 C1217 C 0.27357 0.26829 -0.13611
 C1218 C 0.27906 0.27607 -0.15311
 C1219 C 0.28259 0.26464 -0.16843
 C1220 C 0.28073 0.24525 -0.16703
 N1221 N 0.26993 0.27957 -0.12012
 N1222 N 0.27209 0.29710 -0.12022
 C1223 C 0.26846 0.30834 -0.10419
 C1224 C 0.27196 0.32739 -0.10502
 C1225 C 0.26877 0.33872 -0.08957
 C1226 C 0.26192 0.33115 -0.07299
 C1227 C 0.25830 0.31202 -0.07224
 C1228 C 0.26157 0.30069 -0.08768
 H1229 H 0.27390 0.22268 -0.14835
 H1230 H 0.26747 0.24286 -0.12165
 H1231 H 0.28057 0.29095 -0.15457
 H1232 H 0.28657 0.27100 -0.18143
 H1233 H 0.27722 0.33345 -0.11768
 H1234 H 0.27149 0.35344 -0.09063
 H1235 H 0.25321 0.30576 -0.05960
 H1236 H 0.25876 0.28599 -0.08669
 C1237 C 0.72292 0.26439 -0.14015
 C1238 C 0.72595 0.25275 -0.12495
 C1239 C 0.72337 0.23358 -0.12644
 C1240 C 0.71759 0.22611 -0.14338
 C1241 C 0.71455 0.23775 -0.15861
 C1242 C 0.71725 0.25702 -0.15719
 N1243 N 0.72683 0.22208 -0.11061
 N1244 N 0.72470 0.20455 -0.11091
 C1245 C 0.72828 0.19313 -0.09504
 C1246 C 0.72524 0.17401 -0.09617
 C1247 C 0.72854 0.16249 -0.08092
 C1248 C 0.73501 0.16995 -0.06424
 C1249 C 0.73811 0.18916 -0.06317
 C1250 C 0.73476 0.20067 -0.07841
 H1251 H 0.72487 0.27920 -0.13854
 H1252 H 0.73033 0.25867 -0.11195
 H1253 H 0.71554 0.21132 -0.14488
 H1254 H 0.71039 0.23163 -0.17161
 H1255 H 0.72031 0.16803 -0.10892
 H1256 H 0.72623 0.14772 -0.08225
 H1257 H 0.74287 0.19535 -0.05044
 H1258 H 0.73719 0.21543 -0.07717
 C1259 C 0.23848 0.75370 0.33820
 C1260 C 0.24240 0.74139 0.35266
 C1261 C 0.22872 0.73481 0.36426
 C1262 C 0.21097 0.74069 0.36123
 C1263 C 0.20703 0.75297 0.34676
 C1264 C 0.22074 0.75961 0.33507
 N1265 N 0.23318 0.72216 0.37892
 N1266 N 0.22138 0.71585 0.39005
 C1267 C 0.22570 0.70315 0.40469
 C1268 C 0.21199 0.69705 0.41649
 C1269 C 0.21568 0.68460 0.43088
 C1270 C 0.23325 0.67799 0.43371
 C1271 C 0.24703 0.68419 0.42185
 C1272 C 0.24330 0.69665 0.40745
 H1273 H 0.24929 0.75840 0.32929
 H1274 H 0.25612 0.73692 0.35482
 H1275 H 0.20016 0.73583 0.37004
 H1276 H 0.19328 0.75746 0.34484
 H1277 H 0.19838 0.70201 0.41453
 H1278 H 0.20482 0.68033 0.43993
 H1279 H 0.26065 0.67918 0.42352
 H1280 H 0.25414 0.70113 0.39847
 C1281 C 0.29707 0.74535 0.65613
 C1282 C 0.29534 0.73390 0.64058
 C1283 C 0.27854 0.72725 0.63544
 C1284 C 0.26335 0.73219 0.64607
 C1285 C 0.26504 0.74368 0.66160
 C1286 C 0.28192 0.75039 0.66679
 N1287 N 0.27727 0.71560 0.61939
 N1288 N 0.26247 0.70871 0.61420
 C1289 C 0.26119 0.69713 0.59810
 C1290 C 0.24459 0.68955 0.59361
 C1291 C 0.24286 0.67819 0.57800
 C1292 C 0.25778 0.67424 0.56655
 C1293 C 0.27445 0.68193 0.57110
 C1294 C 0.27616 0.69326 0.58673
 H1295 H 0.31021 0.75048 0.65965
 H1296 H 0.30714 0.73023 0.63247
 H1297 H 0.25020 0.72719 0.64240
 H1298 H 0.25317 0.74717 0.66967
 H1299 H 0.23297 0.69240 0.60228
 H1300 H 0.22990 0.67228 0.57504
 H1301 H 0.28614 0.67938 0.56243
 H1302 H 0.28914 0.69903 0.58987
 C1303 C 0.80112 0.25400 0.14952
 C1304 C 0.79859 0.24142 0.13501
 C1305 C 0.78145 0.23489 0.13099
 C1306 C 0.76673 0.24119 0.14162
 C1307 C 0.76923 0.25382 0.15611
 C1308 C 0.78647 0.26032 0.16025
 N1309 N 0.77943 0.22187 0.11613
 N1310 N 0.76435 0.21493 0.11199
 C1311 C 0.76248 0.20188 0.09712
 C1312 C 0.74562 0.19436 0.09362
 C1313 C 0.74339 0.18151 0.07928
 C1314 C 0.75806 0.17596 0.06815
 C1315 C 0.77498 0.18361 0.07167
 C1316 C 0.77719 0.19643 0.08602
 H1317 H 0.81451 0.25893 0.15222
 H1318 H 0.81003 0.23672 0.12688
 H1319 H 0.75334 0.23632 0.13878
 H1320 H 0.75772 0.25830 0.16426
 H1321 H 0.73419 0.19841 0.10210
 H1322 H 0.73023 0.17571 0.07708
 H1323 H 0.78649 0.17986 0.06317
 H1324 H 0.79037 0.20211 0.08839
 C1325 C 0.45335 0.40140 0.50602
 C1326 C 0.45580 0.38592 0.51748
 C1327 C 0.47288 0.38118 0.52392
 C1328 C 0.48762 0.39208 0.51865
 C1329 C 0.48520 0.40754 0.50714
 C1330 C 0.46802 0.41242 0.50076
 N1331 N 0.47483 0.36535 0.53582
 N1332 N 0.48985 0.36056 0.54267
 C1333 C 0.49171 0.34473 0.55461
 C1334 C 0.50853 0.34057 0.56206
 C1335 C 0.51078 0.32529 0.57384
 C1336 C 0.49618 0.31385 0.57836
 C1337 C 0.47929 0.31806 0.57080
 C1338 C 0.47706 0.33335 0.55904
 H1339 H 0.44000 0.40467 0.50114
 H1340 H 0.44435 0.37760 0.52139
 H1341 H 0.50096 0.38870 0.52347
 H1342 H 0.49671 0.41588 0.50347
 H1343 H 0.51990 0.34926 0.55879
 H1344 H 0.52390 0.32259 0.57962
 H1345 H 0.46784 0.30938 0.57377
 H1346 H 0.46393 0.33624 0.55339
 C1347 C -0.04871 0.90167 0.00603
 C1348 C -0.04669 0.88632 0.01776
 C1349 C -0.02983 0.88155 0.02476
 C1350 C -0.01491 0.89238 0.01995
 C1351 C -0.01691 0.90773 0.00821
 C1352 C -0.03383 0.91253 0.00109
 N1353 N -0.02822 0.86563 0.03661
 N1354 N -0.01329 0.86053 0.04343
 C1355 C -0.01164 0.84458 0.05522
 C1356 C 0.00520 0.83993 0.06234
 C1357 C 0.00730 0.82445 0.07388
 C1358 C -0.00749 0.81332 0.07850
 C1359 C -0.02440 0.81803 0.07130
 C1360 C -0.02647 0.83352 0.05977
 H1361 H -0.06187 0.90488 0.00059
 H1362 H -0.05828 0.87806 0.02133
 H1363 H -0.00174 0.88900 0.02523
 H1364 H -0.00524 0.91595 0.00485
 H1365 H 0.01672 0.84838 0.05897
 H1366 H 0.02045 0.82135 0.07939
 H1367 H -0.03600 0.80960 0.07440
 H1368 H -0.03963 0.83679 0.05438
 C1369 C 0.00721 0.58861 -0.00406
 C1370 C 0.00390 0.60326 0.00828
 C1371 C 0.01793 0.61144 0.01793
 C1372 C 0.03546 0.60471 0.01521
 C1373 C 0.03883 0.58995 0.00302
 C1374 C 0.02478 0.58156 -0.00694
 N1375 N 0.01404 0.62644 0.03044
 N1376 N 0.02637 0.63544 0.03848
 C1377 C 0.02259 0.65034 0.05115
 C1378 C 0.03683 0.66068 0.05808
 C1379 C 0.03365 0.67531 0.07046
 C1380 C 0.01609 0.67978 0.07629
 C1381 C 0.00179 0.66929 0.06933
 C1382 C 0.00499 0.65474 0.05683
 H1383 H -0.00424 0.58241 -0.01066
 H1384 H -0.00972 0.60822 0.01039
 H1385 H 0.04658 0.61088 0.02245
 H1386 H 0.05266 0.58575 0.00096
 H1387 H 0.05044 0.65746 0.05375
 H1388 H 0.04495 0.68327 0.07526
 H1389 H -0.01186 0.67215 0.07373
 H1390 H -0.00624 0.64686 0.05175
 C1391 C 0.53525 0.10648 0.48106
 C1392 C 0.53245 0.12161 0.49293
 C1393 C 0.53467 0.11963 0.51209
 C1394 C 0.53984 0.10227 0.51933
 C1395 C 0.54264 0.08711 0.50749
 C1396 C 0.54032 0.08903 0.48822
 N1397 N 0.53140 0.13536 0.52386
 N1398 N 0.53334 0.13457 0.54139
 C1399 C 0.52988 0.15026 0.55316
 C1400 C 0.53260 0.14846 0.57227
 C1401 C 0.52919 0.16343 0.58419
 C1402 C 0.52293 0.18051 0.57714
 C1403 C 0.52025 0.18228 0.55791
 C1404 C 0.52371 0.16731 0.54601
 H1405 H 0.53360 0.10847 0.46627
 H1406 H 0.52852 0.13493 0.48718
 H1407 H 0.54159 0.10037 0.53412
 H1408 H 0.54631 0.07380 0.51344
 H1409 H 0.53729 0.13537 0.57795
 H1410 H 0.53117 0.16155 0.59895
 H1411 H 0.51566 0.19532 0.55205
 H1412 H 0.52153 0.16906 0.53127
 C1413 C -0.02402 0.10355 0.51611
 C1414 C -0.02197 0.11927 0.50492
 C1415 C -0.02473 0.11821 0.48577
 C1416 C -0.02966 0.10117 0.47786
 C1417 C -0.03171 0.08542 0.48903
 C1418 C -0.02886 0.08643 0.50828
 N1419 N -0.02228 0.13455 0.47471
 N1420 N -0.02477 0.13460 0.45725
 C1421 C -0.02216 0.15090 0.44617
 C1422 C -0.02542 0.15000 0.42709
 C1423 C -0.02286 0.16560 0.41584
 C1424 C -0.01693 0.18241 0.42352
 C1425 C -0.01369 0.18328 0.44271
 C1426 C -0.01630 0.16768 0.45395
 H1427 H -0.02198 0.10484 0.53092
 H1428 H -0.01821 0.13234 0.51119
 H1429 H -0.03182 0.09998 0.46306
 H1430 H -0.03523 0.07239 0.48256
 H1431 H -0.02989 0.13714 0.42093
 H1432 H -0.02524 0.16442 0.40108
 H1433 H -0.00932 0.19609 0.44906
 H1434 H -0.01372 0.16873 0.46868
 C1435 C 0.46395 0.57806 0.98094
 C1436 C 0.46676 0.59263 0.96847
 C1437 C 0.47542 0.60876 0.97410
 C1438 C 0.48149 0.61014 0.99242
 C1439 C 0.47879 0.59555 1.00496
 C1440 C 0.46984 0.57919 0.99954
 N1441 N 0.47772 0.62353 0.96097
 N1442 N 0.48500 0.63886 0.96524
 C1443 C 0.48710 0.65360 0.95204
 C1444 C 0.49464 0.67034 0.95781
 C1445 C 0.49658 0.68511 0.94535
 C1446 C 0.49100 0.68335 0.92682
 C1447 C 0.48355 0.66644 0.92104
 C1448 C 0.48160 0.65170 0.93352
 H1449 H 0.45773 0.56566 0.97559
 H1450 H 0.46217 0.59134 0.95430
 H1451 H 0.48815 0.62256 0.99714
 H1452 H 0.48309 0.59766 1.01910
 H1453 H 0.49888 0.67200 0.97205
 H1454 H 0.50214 0.69802 0.95032
 H1455 H 0.47936 0.66454 0.90681
 H1456 H 0.47579 0.63886 0.92869
 C1457 C 0.54774 0.90359 0.99905
 C1458 C 0.54581 0.88848 0.98705
 C1459 C 0.52894 0.88386 0.98021
 C1460 C 0.51390 0.89456 0.98549
 C1461 C 0.51580 0.90966 0.99750
 C1462 C 0.53274 0.91434 1.00442
 N1463 N 0.52744 0.86825 0.96799
 N1464 N 0.51251 0.86335 0.96121
 C1465 C 0.51101 0.84772 0.94903
 C1466 C 0.49417 0.84324 0.94199
 C1467 C 0.49222 0.82807 0.93009
 C1468 C 0.50715 0.81708 0.92502
 C1469 C 0.52406 0.82162 0.93212
 C1470 C 0.52599 0.83680 0.94402
 H1471 H 0.56093 0.90671 1.00433
 H1472 H 0.55749 0.88031 0.98312
 H1473 H 0.50071 0.89129 0.98034
 H1474 H 0.50404 0.91782 1.00120
 H1475 H 0.48253 0.85158 0.94572
 H1476 H 0.47906 0.82508 0.92467
 H1477 H 0.53578 0.81329 0.92868
 H1478 H 0.53915 0.83995 0.94933
 C1479 C 0.05035 0.40542 0.49497
 C1480 C 0.04777 0.39045 0.48296
 C1481 C 0.03065 0.38336 0.48014
 C1482 C 0.01601 0.39132 0.48964
 C1483 C 0.01853 0.40617 0.50183
 C1484 C 0.03577 0.41363 0.50472
 N1485 N 0.02854 0.36808 0.46763
 N1486 N 0.01322 0.36201 0.46309
 C1487 C 0.01123 0.34662 0.45069
 C1488 C -0.00593 0.34191 0.44470
 C1489 C -0.00831 0.32704 0.43248
 C1490 C 0.00649 0.31650 0.42614
 C1491 C 0.02371 0.32121 0.43234
 C1492 C 0.02607 0.33616 0.44443
 H1493 H 0.06397 0.40992 0.49708
 H1494 H 0.05920 0.38430 0.47583
 H1495 H 0.00260 0.38611 0.48762
 H1496 H 0.00672 0.41220 0.50831
 H1497 H -0.01748 0.34989 0.44939
 H1498 H -0.02172 0.32399 0.42780
 H1499 H 0.03537 0.31320 0.42804
 H1500 H 0.03947 0.33944 0.44898
 C1501 C 0.41042 0.50241 0.49417
 C1502 C 0.39576 0.51425 0.49733
 C1503 C 0.38559 0.52091 0.48246
 C1504 C 0.39030 0.51563 0.46427
 C1505 C 0.40500 0.50385 0.46108
 C1506 C 0.41520 0.49708 0.47600
 N1507 N 0.37060 0.53294 0.48622
 N1508 N 0.36045 0.53897 0.47339
 C1509 C 0.34545 0.55100 0.47712
 C1510 C 0.33445 0.55643 0.46242
 C1511 C 0.31962 0.56804 0.46558
 C1512 C 0.31556 0.57448 0.48358
 C1513 C 0.32671 0.56905 0.49832
 C1514 C 0.34151 0.55740 0.49514
 H1515 H 0.41815 0.49759 0.50591
 H1516 H 0.39229 0.51826 0.51141
 H1517 H 0.38263 0.52058 0.45254
 H1518 H 0.40824 0.49981 0.44695
 H1519 H 0.33732 0.55154 0.44848
 H1520 H 0.31117 0.57173 0.45397
 H1521 H 0.32411 0.57398 0.51230
 H1522 H 0.34986 0.55346 0.50674
 C1523 C 0.90757 0.00470 -0.04580
 C1524 C 0.89257 0.01634 -0.04399
 C1525 C 0.88442 0.01911 -0.02668
 C1526 C 0.89138 0.00998 -0.01109
 C1527 C 0.90626 -0.00185 -0.01285
 C1528 C 0.91473 -0.00474 -0.03027
 N1529 N 0.86903 0.03111 -0.02536
 N1530 N 0.86203 0.03563 -0.00982
 C1531 C 0.84650 0.04741 -0.00849
 C1532 C 0.84074 0.05349 0.00902
 C1533 C 0.82563 0.06498 0.01083
 C1534 C 0.81584 0.07045 -0.00491
 C1535 C 0.82163 0.06420 -0.02250
 C1536 C 0.83685 0.05285 -0.02429
 H1537 H 0.91296 0.00258 -0.05964
 H1538 H 0.88721 0.02319 -0.05616
 H1539 H 0.88534 0.01197 0.00250
 H1540 H 0.91144 -0.00806 -0.00029
 H1541 H 0.84809 0.04943 0.02130
 H1542 H 0.82175 0.06976 0.02455
 H1543 H 0.81426 0.06785 -0.03488
 H1544 H 0.84096 0.04819 -0.03798
 C1545 C 0.58062 0.01719 0.03712
 C1546 C 0.59508 0.02924 0.03496
 C1547 C 0.61215 0.02228 0.03054
 C1548 C 0.61466 0.00303 0.02835
 C1549 C 0.60022 -0.00904 0.03054
 C1550 C 0.58302 -0.00210 0.03493
 N1551 N 0.62665 0.03504 0.02834
 N1552 N 0.64238 0.02969 0.02374
 C1553 C 0.65688 0.04244 0.02153
 C1554 C 0.67362 0.03566 0.01569
 C1555 C 0.68801 0.04774 0.01322
 C1556 C 0.68589 0.06688 0.01666
 C1557 C 0.66907 0.07364 0.02264
 C1558 C 0.65467 0.06155 0.02503
 H1559 H 0.56750 0.02300 0.04026
 H1560 H 0.59298 0.04406 0.03664
 H1561 H 0.62775 -0.00270 0.02500
 H1562 H 0.60256 -0.02384 0.02903
 H1563 H 0.67549 0.02096 0.01301
 H1564 H 0.70086 0.04209 0.00883
 H1565 H 0.66698 0.08833 0.02519
 H1566 H 0.64185 0.06714 0.02954
 C1567 C 0.08444 0.51628 0.53444
 C1568 C 0.09849 0.52867 0.53144
 C1569 C 0.11536 0.52216 0.52570
 C1570 C 0.11808 0.50301 0.52296
 C1571 C 0.10405 0.49058 0.52601
 C1572 C 0.08707 0.49707 0.53181
 N1573 N 0.12946 0.53527 0.52292
 N1574 N 0.14496 0.53046 0.51708
 C1575 C 0.15904 0.54365 0.51451
 C1576 C 0.17554 0.53756 0.50730
 C1577 C 0.18958 0.55007 0.50471
 C1578 C 0.18734 0.56892 0.50941
 C1579 C 0.17074 0.57499 0.51666
 C1580 C 0.15670 0.56249 0.51915
 H1581 H 0.07147 0.52176 0.53863
 H1582 H 0.09622 0.54341 0.53354
 H1583 H 0.13103 0.49763 0.51860
 H1584 H 0.10657 0.47586 0.52410
 H1585 H 0.17753 0.52307 0.50372
 H1586 H 0.20227 0.54495 0.49931
 H1587 H 0.16855 0.58947 0.52019
 H1588 H 0.14406 0.56755 0.52473
 C1589 C 0.07915 0.48150 -0.04148
 C1590 C 0.09379 0.46961 -0.03872
 C1591 C 0.10902 0.47582 -0.02956
 C1592 C 0.10945 0.49415 -0.02299
 C1593 C 0.09482 0.50611 -0.02565
 C1594 C 0.07934 0.50009 -0.03506
 N1595 N 0.12384 0.46327 -0.02725
 N1596 N 0.13830 0.46809 -0.01939
 C1597 C 0.15311 0.45549 -0.01723
 C1598 C 0.16874 0.46182 -0.00881
 C1599 C 0.18352 0.44995 -0.00667
 C1600 C 0.18288 0.43145 -0.01294
 C1601 C 0.16711 0.42511 -0.02133
 C1602 C 0.15236 0.43701 -0.02346
 H1603 H 0.06749 0.47570 -0.04806
 H1604 H 0.09323 0.45542 -0.04370
 H1605 H 0.12117 0.49933 -0.01596
 H1606 H 0.09618 0.52030 -0.02098
 H1607 H 0.16951 0.47605 -0.00400
 H1608 H 0.19554 0.45533 -0.00038
 H1609 H 0.16609 0.41088 -0.02607
 H1610 H 0.14039 0.43175 -0.02996
 C1611 C 0.59034 0.98553 0.45480
 C1612 C 0.60468 0.97323 0.45757
 C1613 C 0.62036 0.97923 0.46605
 C1614 C 0.62158 0.99778 0.47185
 C1615 C 0.60727 1.01013 0.46917
 C1616 C 0.59129 1.00430 0.46054
 N1617 N 0.63480 0.96624 0.46858
 N1618 N 0.64952 0.97085 0.47601
 C1619 C 0.66397 0.95787 0.47854
 C1620 C 0.67984 0.96402 0.48660
 C1621 C 0.69421 0.95173 0.48926
 C1622 C 0.69292 0.93300 0.48388
 C1623 C 0.67693 0.92686 0.47578
 C1624 C 0.66257 0.93917 0.47313
 H1625 H 0.57831 0.97990 0.44882
 H1626 H 0.60352 0.95890 0.45318
 H1627 H 0.63365 1.00280 0.47832
 H1628 H 0.60923 1.02442 0.47323
 H1629 H 0.68110 0.97840 0.49077
 H1630 H 0.70642 0.95696 0.49529
 H1631 H 0.67543 0.91248 0.47172
 H1632 H 0.65041 0.93407 0.46692
 C1633 C 0.92439 0.98100 0.53541
 C1634 C 0.91016 0.96887 0.53240
 C1635 C 0.89318 0.97579 0.52784
 C1636 C 0.89050 0.99509 0.52646
 C1637 C 0.90468 1.00724 0.52954
 C1638 C 0.92182 1.00035 0.53399
 N1639 N 0.87893 0.96297 0.52468
 N1640 N 0.86349 0.96833 0.51942
 C1641 C 0.84917 0.95560 0.51631
 C1642 C 0.83288 0.96244 0.50951
 C1643 C 0.81863 0.95042 0.50628
 C1644 C 0.82041 0.93129 0.50993
 C1645 C 0.83678 0.92446 0.51682
 C1646 C 0.85106 0.93649 0.51994
 H1647 H 0.93746 0.97523 0.53856
 H1648 H 0.91241 0.95402 0.53347
 H1649 H 0.87745 1.00079 0.52306
 H1650 H 0.90217 1.02206 0.52864
 H1651 H 0.83125 0.97714 0.50671
 H1652 H 0.80612 0.95612 0.50119
 H1653 H 0.83860 0.90977 0.51958
 H1654 H 0.86353 0.93086 0.52520
 C1655 C 0.41741 0.47939 0.03278
 C1656 C 0.40276 0.46769 0.03033
 C1657 C 0.38615 0.47497 0.02498
 C1658 C 0.38428 0.49421 0.02211
 C1659 C 0.39891 0.50594 0.02458
 C1660 C 0.41565 0.49866 0.02994
 N1661 N 0.37144 0.46256 0.02255
 N1662 N 0.35608 0.46821 0.01732
 C1663 C 0.34139 0.45579 0.01488
 C1664 C 0.32503 0.46290 0.00857
 C1665 C 0.31046 0.45114 0.00592
 C1666 C 0.31202 0.43200 0.00961
 C1667 C 0.32846 0.42491 0.01603
 C1668 C 0.34303 0.43668 0.01863
 H1669 H 0.43017 0.47333 0.03667
 H1670 H 0.40438 0.45288 0.03252
 H1671 H 0.37155 0.50019 0.01803
 H1672 H 0.39706 0.52074 0.02254
 H1673 H 0.32358 0.47761 0.00570
 H1674 H 0.29791 0.45705 0.00117
 H1675 H 0.33014 0.41020 0.01878
 H1676 H 0.35556 0.43083 0.02350
 C1677 C 0.50266 0.48983 0.41762
 C1678 C 0.51424 0.49354 0.40275
 C1679 C 0.52008 0.47919 0.39101
 C1680 C 0.51432 0.46095 0.39441
 C1681 C 0.50279 0.45721 0.40932
 C1682 C 0.49676 0.47163 0.42104
 N1683 N 0.53172 0.48356 0.37573
 N1684 N 0.53700 0.47133 0.36411
 C1685 C 0.54860 0.47573 0.34881
 C1686 C 0.55343 0.46167 0.33628
 C1687 C 0.56466 0.46549 0.32115
 C1688 C 0.57129 0.48352 0.31830
 C1689 C 0.56641 0.49762 0.33093
 C1690 C 0.55516 0.49378 0.34605
 H1691 H 0.49842 0.50119 0.42654
 H1692 H 0.51863 0.50764 0.40031
 H1693 H 0.51865 0.44961 0.38552
 H1694 H 0.49832 0.44309 0.41150
 H1695 H 0.54841 0.44772 0.33822
 H1696 H 0.56794 0.45438 0.31154
 H1697 H 0.57148 0.51159 0.32928
 H1698 H 0.55166 0.50488 0.35558
 C1699 C 0.01751 -0.03370 0.92464
 C1700 C 0.03026 -0.03072 0.91066
 C1701 C 0.02493 -0.02527 0.89288
 C1702 C 0.00659 -0.02281 0.88919
 C1703 C -0.00619 -0.02583 0.90315
 C1704 C -0.00088 -0.03134 0.92104
 N1705 N 0.03835 -0.02246 0.87884
 N1706 N 0.03443 -0.01697 0.86256
 C1707 C 0.04780 -0.01431 0.84844
 C1708 C 0.04250 -0.00770 0.83105
 C1709 C 0.05515 -0.00509 0.81689
 C1710 C 0.07337 -0.00913 0.81990
 C1711 C 0.07866 -0.01578 0.83740
 C1712 C 0.06600 -0.01832 0.85158
 H1713 H 0.02205 -0.03768 0.93833
 H1714 H 0.04435 -0.03261 0.91368
 H1715 H 0.00212 -0.01868 0.87553
 H1716 H -0.02024 -0.02414 0.89986
 H1717 H 0.02851 -0.00463 0.82845
 H1718 H 0.05063 -0.00020 0.80349
 H1719 H 0.09262 -0.01883 0.84019
 H1720 H 0.07042 -0.02344 0.86493
 C1721 C 0.02199 0.03045 0.58313
 C1722 C 0.03431 0.02762 0.59739
 C1723 C 0.02856 0.02162 0.61490
 C1724 C 0.01024 0.01830 0.61800
 C1725 C -0.00212 0.02114 0.60376
 C1726 C 0.00361 0.02735 0.58619
 N1727 N 0.04152 0.01933 0.62930
 N1728 N 0.03725 0.01374 0.64549
 C1729 C 0.05019 0.01173 0.65996
 C1730 C 0.04460 0.00507 0.67729
 C1731 C 0.05682 0.00319 0.69179
 C1732 C 0.07490 0.00801 0.68918
 C1733 C 0.08048 0.01467 0.67173
 C1734 C 0.06825 0.01649 0.65723
 H1735 H 0.02686 0.03498 0.56968
 H1736 H 0.04840 0.03018 0.59481
 H1737 H 0.00545 0.01370 0.63146
 H1738 H -0.01620 0.01884 0.60661
 H1739 H 0.03071 0.00143 0.67958
 H1740 H 0.05206 -0.00175 0.70513
 H1741 H 0.09435 0.01830 0.66925
 H1742 H 0.07291 0.02166 0.64394
 C1743 C 0.50208 0.50776 0.08778
 C1744 C 0.51352 0.50462 0.10274
 C1745 C 0.51934 0.51946 0.11361
 C1746 C 0.51371 0.53763 0.10925
 C1747 C 0.50232 0.54080 0.09423
 C1748 C 0.49631 0.52588 0.08339
 N1749 N 0.53087 0.51565 0.12898
 N1750 N 0.53608 0.52830 0.13999
 C1751 C 0.54761 0.52432 0.15533
 C1752 C 0.55233 0.53875 0.16729
 C1753 C 0.56351 0.53530 0.18242
 C1754 C 0.57022 0.51729 0.18581
 C1755 C 0.56545 0.50283 0.17373
 C1756 C 0.55424 0.50629 0.15864
 H1757 H 0.49786 0.49603 0.07953
 H1758 H 0.51782 0.49057 0.10592
 H1759 H 0.51804 0.54933 0.11747
 H1760 H 0.49796 0.55488 0.09127
 H1761 H 0.54726 0.55269 0.16492
 H1762 H 0.56673 0.54670 0.19159
 H1763 H 0.57060 0.48887 0.17577
 H1764 H 0.55085 0.49490 0.14954
 C1765 C 0.48149 -0.03287 0.08222
 C1766 C 0.46896 -0.02998 0.09648
 C1767 C 0.47451 -0.02434 0.11409
 C1768 C 0.49285 -0.02163 0.11734
 C1769 C 0.50541 -0.02456 0.10312
 C1770 C 0.49988 -0.03021 0.08538
 N1771 N 0.46130 -0.02150 0.12837
 N1772 N 0.46539 -0.01570 0.14447
 C1773 C 0.45223 -0.01293 0.15881
 C1774 C 0.45764 -0.00572 0.17589
 C1775 C 0.44516 -0.00280 0.19018
 C1776 C 0.42700 -0.00713 0.18763
 C1777 C 0.42161 -0.01444 0.17048
 C1778 C 0.43410 -0.01728 0.15616
 H1779 H 0.47678 -0.03696 0.06866
 H1780 H 0.45486 -0.03206 0.09379
 H1781 H 0.49749 -0.01735 0.13088
 H1782 H 0.51948 -0.02266 0.10608
 H1783 H 0.47158 -0.00238 0.17812
 H1784 H 0.44975 0.00262 0.20332
 H1785 H 0.40769 -0.01773 0.16805
 H1786 H 0.42959 -0.02286 0.14307
 C1787 C 1.01501 0.47287 0.60549
 C1788 C 1.00352 0.47586 0.62063
 C1789 C 0.98504 0.47348 0.61881
 C1790 C 0.97810 0.46799 0.60160
 C1791 C 0.98957 0.46503 0.58642
 C1792 C 1.00816 0.46748 0.58818
 N1793 N 0.97365 0.47689 0.63457
 N1794 N 0.95677 0.47459 0.63402
 C1795 C 0.94539 0.47818 0.64975
 C1796 C 0.92703 0.47475 0.64832
 C1797 C 0.91552 0.47821 0.66336
 C1798 C 0.92223 0.48526 0.68012
 C1799 C 0.94069 0.48870 0.68151
 C1800 C 0.95219 0.48517 0.66648
 H1801 H 1.02928 0.47462 0.60737
 H1802 H 1.00903 0.48003 0.63384
 H1803 H 0.96383 0.46612 0.59983
 H1804 H 0.98386 0.46112 0.57322
 H1805 H 0.92162 0.46943 0.63549
 H1806 H 0.90134 0.47564 0.66179
 H1807 H 0.94627 0.49392 0.69431
 H1808 H 0.96635 0.48791 0.66793
 C1809 C 1.00837 0.52306 0.89153
 C1810 C 0.99747 0.52036 0.87610
 C1811 C 0.97890 0.52289 0.87751
 C1812 C 0.97128 0.52815 0.89465
 C1813 C 0.98216 0.53080 0.91013
 C1814 C 1.00085 0.52828 0.90875
 N1815 N 0.96816 0.51997 0.86139
 N1816 N 0.95131 0.52288 0.86143
 C1817 C 0.94060 0.51986 0.84530
 C1818 C 0.92235 0.52442 0.84600
 C1819 C 0.91154 0.52173 0.83049
 C1820 C 0.91883 0.51430 0.81400
 C1821 C 0.93716 0.50963 0.81337
 C1822 C 0.94798 0.51242 0.82886
 H1823 H 1.02272 0.52129 0.88992
 H1824 H 1.00350 0.51636 0.86295
 H1825 H 0.95693 0.53012 0.89611
 H1826 H 0.97592 0.53456 0.92324
 H1827 H 0.91650 0.53010 0.85861
 H1828 H 0.89742 0.52525 0.83146
 H1829 H 0.94319 0.50406 0.80079
 H1830 H 0.96207 0.50878 0.82797
 C1831 C 0.51748 0.02708 0.38959
 C1832 C 0.50563 0.02436 0.37493
 C1833 C 0.48726 0.02761 0.37737
 C1834 C 0.48077 0.03358 0.39477
 C1835 C 0.49260 0.03626 0.40946
 C1836 C 0.51110 0.03307 0.40704
 N1837 N 0.47552 0.02475 0.36201
 N1838 N 0.45876 0.02806 0.36305
 C1839 C 0.44708 0.02510 0.34766
 C1840 C 0.42887 0.02953 0.34958
 C1841 C 0.41711 0.02675 0.33483
 C1842 C 0.42342 0.01939 0.31789
 C1843 C 0.44174 0.01497 0.31601
 C1844 C 0.45348 0.01781 0.33074
 H1845 H 0.53167 0.02475 0.38719
 H1846 H 0.51079 0.01980 0.36157
 H1847 H 0.46660 0.03610 0.39703
 H1848 H 0.48724 0.04062 0.42279
 H1849 H 0.42377 0.03512 0.36256
 H1850 H 0.40304 0.03010 0.33677
 H1851 H 0.44704 0.00951 0.30305
 H1852 H 0.46752 0.01431 0.32888
   
